drugbank_target|P09238 Stromelysin-2 (DB00786; DB08271)
 OpenBabel12092120363D

  0  0  0     0  0            999 V3000
M  V30 BEGIN CTAB
M  V30 COUNTS 7508 7630 0 0 0
M  V30 BEGIN ATOM
M  V30 1 H -0.908 1.98254 -0.117106 0
M  V30 2 N 0 1.576 0 0
M  V30 3 C 0.933 2.03868 1.02534 0
M  V30 4 C 1.911 0.928543 1.3348 0
M  V30 5 O 3.095 1.19667 1.45644 0
M  V30 6 C 0.222 2.43627 2.35294 0
M  V30 7 C -0.732 3.65373 2.2001 0
M  V30 8 S 0.101 5.13292 1.52614 0
M  V30 9 C 1.257 5.56322 2.86805 0
M  V30 10 H 1.49 2.90518 0.631377 0
M  V30 11 H -0.977 1.52953 0.210867 0
M  V30 12 H 0.981 2.67203 3.11629 0
M  V30 13 H -0.358 1.57376 2.7183 0
M  V30 14 H -1.165 3.90944 3.18086 0
M  V30 15 H -1.563 3.418 1.51819 0
M  V30 16 H 0.729 5.58782 3.83104 0
M  V30 17 H 1.672 6.56266 2.65933 0
M  V30 18 H 2.08 4.83886 2.90714 0
M  V30 19 N 1.4781 -0.272755 1.55222 0
M  V30 20 C 2.4111 -1.3627 1.83046 0
M  V30 21 C 3.3891 -1.47536 0.683521 0
M  V30 22 O 4.5731 -1.64157 0.926545 0
M  V30 23 C 1.7001 -2.73908 1.99229 0
M  V30 24 C 0.7461 -2.79925 3.21783 0
M  V30 25 S 1.5791 -2.39146 4.79134 0
M  V30 26 C 2.7351 -3.78758 4.9829 0
M  V30 27 H 2.9681 -1.12464 2.75207 0
M  V30 28 H 0.5011 -0.472398 1.46996 0
M  V30 29 H 2.4591 -3.53171 2.09238 0
M  V30 30 H 1.1201 -2.94965 1.07956 0
M  V30 31 H 0.3131 -3.80946 3.29994 0
M  V30 32 H -0.0849 -2.08683 3.10367 0
M  V30 33 H 2.2071 -4.7403 4.84047 0
M  V30 34 H 3.1501 -3.75499 6.00338 0
M  V30 35 H 3.5581 -3.70072 4.26271 0
M  V30 36 N 2.9562 -1.48159 -0.537278 0
M  V30 37 C 3.9062 -1.5854 -1.63857 0
M  V30 38 C 4.8902 -0.442969 -1.54682 0
M  V30 39 O 6.0822 -0.69401 -1.62827 0
M  V30 40 C 3.2112 -1.62144 -3.02596 0
M  V30 41 C 2.2972 -2.81841 -3.16901 0
M  V30 42 N 2.6882 -4.06337 -3.01204 0
M  V30 43 C 0.9862 -2.79021 -3.47942 0
M  V30 44 C 1.6872 -4.86606 -3.18731 0
M  V30 45 N 0.6632 -4.19288 -3.45974 0
M  V30 46 H 4.4652 -2.5255 -1.50319 0
M  V30 47 H 1.9792 -1.4443 -0.742555 0
M  V30 48 H 3.9762 -1.67674 -3.81695 0
M  V30 49 H 2.6362 -0.69245 -3.17231 0
M  V30 50 H 3.6472 -4.36888 -2.78117 0
M  V30 51 H 0.3242 -1.95347 -3.6898 0
M  V30 52 H 1.7142 -5.95385 -3.11394 0
M  V30 53 N 4.4343 0.785586 -1.36625 0
M  V30 54 C 5.3643 1.91259 -1.33949 0
M  V30 55 C 6.3453 1.68795 -0.210325 0
M  V30 56 O 7.5303 1.89854 -0.408561 0
M  V30 57 C 4.6603 3.28339 -1.13186 0
M  V30 58 C 3.6143 3.65335 -2.22967 0
M  V30 59 C 2.9403 5.00806 -1.87342 0
M  V30 60 C 4.2403 3.7352 -3.65075 0
M  V30 61 H 5.9343 1.93755 -2.28253 0
M  V30 62 H 3.4803 0.930788 -1.09874 0
M  V30 63 H 5.4333 4.06804 -1.09948 0
M  V30 64 H 4.1573 3.2624 -0.153332 0
M  V30 65 H 2.8163 2.89169 -2.25337 0
M  V30 66 H 2.4643 4.95233 -0.880545 0
M  V30 67 H 2.1643 5.26529 -2.60846 0
M  V30 68 H 3.6883 5.81687 -1.85667 0
M  V30 69 H 5.1023 4.42168 -3.64911 0
M  V30 70 H 3.4993 4.10731 -4.37516 0
M  V30 71 H 4.5693 2.74527 -3.99703 0
M  V30 72 N 5.9124 1.20967 1.01018 0
M  V30 73 C 6.8754 0.965918 2.07853 0
M  V30 74 C 7.8754 -0.0610545 1.60684 0
M  V30 75 O 9.0654 0.175681 1.73312 0
M  V30 76 C 6.1974 0.455513 3.37843 0
M  V30 77 H 7.3904 1.91365 2.3091 0
M  V30 78 H 4.9434 1.02594 1.17916 0
M  V30 79 H 5.6784 -0.497381 3.20463 0
M  V30 80 H 5.4634 1.19622 3.73407 0
M  V30 81 H 6.9534 0.304667 4.16487 0
M  V30 82 N 7.3905 -1.2043 1.01659 0
M  V30 83 C 8.6375 -1.89797 0.705917 0
M  V30 84 C 8.9655 -1.78848 -0.764439 0
M  V30 85 O 8.2205 -1.16694 -1.57102 0
M  V30 86 C 8.5195 -3.40464 1.08714 0
M  V30 87 C 8.1855 -3.71614 2.5537 0
M  V30 88 C 6.8475 -3.79826 2.95441 0
M  V30 89 C 9.1995 -3.85915 3.50313 0
M  V30 90 C 6.5275 -3.99797 4.29394 0
M  V30 91 C 8.8795 -4.07396 4.83954 0
M  V30 92 C 7.5435 -4.13837 5.23732 0
M  V30 93 H 6.8135 -0.694518 0.258313 0
M  V30 94 H 9.4605 -1.42691 1.27717 0
M  V30 95 H 7.7655 -3.89385 0.434309 0
M  V30 96 H 9.4625 -3.92433 0.824461 0
M  V30 97 H 6.0525 -3.65822 2.23321 0
M  V30 98 H 10.2365 -3.78926 3.20513 0
M  V30 99 H 5.4925 -4.03018 4.59768 0
M  V30 100 H 9.6665 -4.17404 5.57447 0
M  V30 101 H 7.2935 -4.29064 6.27541 0
M  V30 102 N 8.8686 -0.792821 -1.36206 0
M  V30 103 C 9.7986 -0.207853 -2.32573 0
M  V30 104 C 10.7796 0.659055 -1.56813 0
M  V30 105 O 11.9646 0.592176 -1.84951 0
M  V30 106 C 9.0946 0.655449 -3.41059 0
M  V30 107 C 8.0486 -0.111842 -4.27854 0
M  V30 108 C 7.3746 0.872274 -5.27537 0
M  V30 109 C 8.6746 -1.30299 -5.05786 0
M  V30 110 H 10.3686 -1.01294 -2.81744 0
M  V30 111 H 7.9146 -0.48854 -1.3546 0
M  V30 112 H 9.8676 1.07464 -4.07467 0
M  V30 113 H 8.5916 1.49328 -2.90463 0
M  V30 114 H 7.2506 -0.512053 -3.63006 0
M  V30 115 H 6.8986 1.70523 -4.73214 0
M  V30 116 H 6.5986 0.363291 -5.86476 0
M  V30 117 H 8.1226 1.28996 -5.96818 0
M  V30 118 H 9.5366 -0.959379 -5.65216 0
M  V30 119 H 7.9336 -1.7455 -5.74154 0
M  V30 120 H 9.0036 -2.09663 -4.37229 0
M  V30 121 N 10.3467 1.47872 -0.545128 0
M  V30 122 C 11.5927 2.02793 -0.0166104 0
M  V30 123 C 11.9257 1.41987 1.32489 0
M  V30 124 O 11.2007 0.571045 1.85928 0
M  V30 125 C 11.4837 3.59989 0.0893294 0
M  V30 126 C 11.3367 4.3125 -1.27841 0
M  V30 127 C 12.6557 4.32606 0.808724 0
M  V30 128 H 9.7747 0.736962 -0.00751035 0
M  V30 129 H 12.4167 1.76433 -0.705085 0
M  V30 130 H 10.5667 3.82579 0.675681 0
M  V30 131 H 12.2387 4.20035 -1.90704 0
M  V30 132 H 10.4817 3.92076 -1.85632 0
M  V30 133 H 11.1527 5.39736 -1.15713 0
M  V30 134 H 13.6287 4.14936 0.310992 0
M  V30 135 H 12.5047 5.42251 0.851782 0
M  V30 136 H 12.7657 4.00963 1.86229 0
M  V30 137 N 11.8248 0.280983 1.55075 0
M  V30 138 C 12.7548 -0.597469 2.25727 0
M  V30 139 C 13.7358 -1.15417 1.24952 0
M  V30 140 O 14.9208 -1.18722 1.53684 0
M  V30 141 C 12.0508 -1.7789 2.98283 0
M  V30 142 C 11.0048 -1.35347 4.06036 0
M  V30 143 C 10.3308 -2.61846 4.66198 0
M  V30 144 C 11.6308 -0.499354 5.19907 0
M  V30 145 H 13.3248 -0.00824265 2.99399 0
M  V30 146 H 10.8708 -0.0025244 1.44 0
M  V30 147 H 12.8238 -2.39937 3.46422 0
M  V30 148 H 11.5478 -2.39405 2.22155 0
M  V30 149 H 10.2068 -0.756156 3.58717 0
M  V30 150 H 9.8548 -3.21632 3.86732 0
M  V30 151 H 9.5548 -2.3409 5.38958 0
M  V30 152 H 11.0788 -3.24732 5.1709 0
M  V30 153 H 12.4928 -1.02498 5.64063 0
M  V30 154 H 10.8898 -0.316424 5.99265 0
M  V30 155 H 11.9598 0.480459 4.82514 0
M  V30 156 N 13.3029 -1.57598 0.00835791 0
M  V30 157 C 14.2329 -2.1198 -0.979113 0
M  V30 158 C 15.2139 -1.03091 -1.35301 0
M  V30 159 O 16.3989 -1.30818 -1.43528 0
M  V30 160 C 13.5289 -2.62995 -2.26828 0
M  V30 161 C 12.4829 -3.76485 -2.03576 0
M  V30 162 C 11.8089 -4.13846 -3.38579 0
M  V30 163 C 13.1089 -5.0342 -1.39161 0
M  V30 164 H 14.8029 -2.94738 -0.526281 0
M  V30 165 H 12.3489 -1.41783 -0.251704 0
M  V30 166 H 14.3019 -2.99669 -2.96271 0
M  V30 167 H 13.0259 -1.7737 -2.7424 0
M  V30 168 H 11.6849 -3.40217 -1.36557 0
M  V30 169 H 11.3329 -3.25232 -3.83709 0
M  V30 170 H 11.0329 -4.90312 -3.23834 0
M  V30 171 H 12.5569 -4.53086 -4.09323 0
M  V30 172 H 13.9709 -5.37812 -1.98573 0
M  V30 173 H 12.3679 -5.84746 -1.34878 0
M  V30 174 H 13.4379 -4.83548 -0.361868 0
M  V30 175 N 14.781 0.264519 -1.55364 0
M  V30 176 C 16.021 1.00254 -1.78125 0
M  V30 177 C 16.385 1.83187 -0.575017 0
M  V30 178 O 17.586 2.60029 -0.681042 0
M  V30 179 C 15.857 1.85478 -3.05504 0
M  V30 180 S 17.416 2.6543 -3.49417 0
M  V30 181 H 14.234 0.337522 -0.625779 0
M  V30 182 H 16.836 0.272111 -1.93597 0
M  V30 183 H 15.54 1.23491 -3.9138 0
M  V30 184 H 15.071 2.62827 -2.92721 0
M  V30 185 H 17.086 3.87958 -3.09359 0
M  V30 186 N 16.2591 1.48442 0.529413 0
M  V30 187 C 17.1891 1.65902 1.64313 0
M  V30 188 C 18.1701 0.507897 1.6234 0
M  V30 189 O 19.3551 0.740503 1.79528 0
M  V30 190 C 16.4851 1.69911 3.02898 0
M  V30 191 C 15.4391 2.8453 3.19729 0
M  V30 192 C 14.7651 2.73629 4.59381 0
M  V30 193 C 16.0651 4.25821 3.02447 0
M  V30 194 H 17.7591 2.5914 1.49955 0
M  V30 195 H 15.3051 1.24709 0.719982 0
M  V30 196 H 17.2581 1.80715 3.80684 0
M  V30 197 H 15.9821 0.732524 3.18279 0
M  V30 198 H 14.6411 2.73283 2.44361 0
M  V30 199 H 14.2891 1.74938 4.71599 0
M  V30 200 H 13.9891 3.50541 4.71588 0
M  V30 201 H 15.5131 2.86401 5.39265 0
M  V30 202 H 16.9271 4.37898 3.70024 0
M  V30 203 H 15.3241 5.03735 3.26146 0
M  V30 204 H 16.3941 4.42244 1.98867 0
M  V30 205 N 17.7372 -0.778329 1.37039 0
M  V30 206 C 19.1482 -1.35421 1.28523 0
M  V30 207 C 19.4992 -1.96075 -0.0700901 0
M  V30 208 O 18.6242 -1.93352 -0.971801 0
M  V30 209 C 19.2192 -2.46211 2.32735 0
M  V30 210 C 17.7782 -2.99585 2.27873 0
M  V30 211 C 16.9252 -1.72748 2.16918 0
M  V30 212 H 19.8762 -0.5791 1.47757 0
M  V30 213 H 19.8972 -3.2552 1.9702 0
M  V30 214 H 19.4092 -2.02036 3.31365 0
M  V30 215 H 17.5102 -3.48152 1.32745 0
M  V30 216 H 17.6232 -3.55646 3.21018 0
M  V30 217 H 15.9872 -1.95416 1.63354 0
M  V30 218 H 16.7702 -1.30686 3.17452 0
M  V30 219 N 19.2153 -1.21501 -1.00376 0
M  V30 220 C 20.4613 -1.03452 -1.74429 0
M  V30 221 C 20.7943 0.430764 -1.89362 0
M  V30 222 O 20.0693 1.31962 -1.42886 0
M  V30 223 C 20.3523 -1.73375 -3.15615 0
M  V30 224 C 20.2053 -3.27431 -3.08397 0
M  V30 225 C 21.5243 -1.47732 -4.14564 0
M  V30 226 H 18.6433 -0.377226 -0.633143 0
M  V30 227 H 21.2853 -1.49693 -1.17013 0
M  V30 228 H 19.4353 -1.34064 -3.64636 0
M  V30 229 H 21.1073 -3.76119 -2.67081 0
M  V30 230 H 19.3503 -3.5767 -2.45468 0
M  V30 231 H 20.0213 -3.71524 -4.08258 0
M  V30 232 H 22.4973 -1.8186 -3.74254 0
M  V30 233 H 21.3733 -1.99169 -5.11491 0
M  V30 234 H 21.6343 -0.407589 -4.40217 0
M  V30 235 N 20.6934 1.19889 -1.02296 0
M  V30 236 C 21.9334 1.91125 -0.724602 0
M  V30 237 C 22.2974 1.77464 0.732835 0
M  V30 238 O 23.4984 2.43241 1.144 0
M  V30 239 C 21.7694 3.38187 -1.15604 0
M  V30 240 S 23.3284 4.27702 -0.980621 0
M  V30 241 H 20.1464 0.66018 -0.263976 0
M  V30 242 H 22.7484 1.44978 -1.31155 0
M  V30 243 H 21.4524 3.45653 -2.21251 0
M  V30 244 H 20.9834 3.89363 -0.562131 0
M  V30 245 H 22.9984 4.96073 0.112225 0
M  V30 246 N 22.1715 0.800033 1.35784 0
M  V30 247 C 23.3965 0.388511 2.03729 0
M  V30 248 C 23.8215 -0.990481 1.5991 0
M  V30 249 O 23.1795 -1.64013 0.772612 0
M  V30 250 C 23.2275 0.4726 3.5749 0
M  V30 251 O 22.3315 -0.51646 4.09153 0
M  V30 252 H 21.6725 0.163271 0.643614 0
M  V30 253 H 24.2025 1.0841 1.73518 0
M  V30 254 H 24.2125 0.34003 4.06581 0
M  V30 255 H 22.8875 1.47848 3.88734 0
M  V30 256 H 21.4645 -0.344673 3.71304 0
M  V30 257 N 23.6496 -1.47581 0.552962 0
M  V30 258 C 24.6126 -2.28439 -0.186605 0
M  V30 259 C 25.6126 -1.36706 -0.84665 0
M  V30 260 O 26.8026 -1.59378 -0.703164 0
M  V30 261 C 23.9346 -3.16264 -1.2724 0
M  V30 262 H 25.1276 -2.95294 0.523609 0
M  V30 263 H 22.6806 -1.532 0.309745 0
M  V30 264 H 23.4156 -2.54091 -2.01514 0
M  V30 265 H 23.2006 -3.83769 -0.803968 0
M  V30 266 H 24.6906 -3.77198 -1.79196 0
M  V30 267 N 25.1277 -0.289203 -1.54924 0
M  V30 268 C 26.3577 0.325989 -2.04012 0
M  V30 269 C 26.7657 1.48961 -1.1665 0
M  V30 270 O 26.1087 1.82794 -0.1822 0
M  V30 271 C 26.1707 0.856112 -3.49158 0
M  V30 272 C 25.8347 -0.180697 -4.56643 0
M  V30 273 C 26.8317 -1.0051 -5.10092 0
M  V30 274 C 24.5167 -0.318998 -5.01286 0
M  V30 275 C 26.5107 -1.95385 -6.06715 0
M  V30 276 C 24.1977 -1.27121 -5.97732 0
M  V30 277 C 25.1957 -2.08713 -6.50329 0
M  V30 278 O 24.8837 -3.02322 -7.44887 0
M  V30 279 H 24.6157 0.0765276 -0.671654 0
M  V30 280 H 27.1697 -0.423254 -2.00992 0
M  V30 281 H 25.3997 1.65567 -3.49463 0
M  V30 282 H 27.0887 1.38591 -3.81507 0
M  V30 283 H 27.8547 -0.90906 -4.76404 0
M  V30 284 H 23.7337 0.306108 -4.59983 0
M  V30 285 H 27.2777 -2.59111 -6.47694 0
M  V30 286 H 23.1747 -1.36801 -6.30837 0
M  V30 287 H 23.9427 -2.97165 -7.6265 0
M  V30 288 N 26.6058 1.57591 -0.0167156 0
M  V30 289 C 28.0168 1.79201 0.523834 0
M  V30 290 C 28.3678 0.925796 1.72984 0
M  V30 291 O 27.4928 0.132792 2.15992 0
M  V30 292 C 28.0878 3.25 0.957091 0
M  V30 293 C 26.6468 3.47648 1.44283 0
M  V30 294 C 25.7938 2.74374 0.401757 0
M  V30 295 H 28.7448 1.56831 -0.242816 0
M  V30 296 H 28.7658 3.34031 1.82219 0
M  V30 297 H 28.2778 3.88019 0.0791415 0
M  V30 298 H 26.3788 2.89866 2.34113 0
M  V30 299 H 26.4918 4.56352 1.45877 0
M  V30 300 H 24.8558 2.39485 0.867121 0
M  V30 301 H 25.6388 3.40102 -0.467513 0
M  V30 302 N 28.0839 -0.256276 1.55502 0
M  V30 303 C 29.0139 -1.32102 1.92539 0
M  V30 304 C 29.9949 -1.50684 0.789194 0
M  V30 305 O 31.1799 -1.63449 1.04872 0
M  V30 306 C 28.3099 -2.67752 2.21192 0
M  V30 307 C 27.2639 -2.63878 3.36975 0
M  V30 308 C 26.5899 -4.03236 3.51147 0
M  V30 309 C 27.8899 -2.21682 4.72921 0
M  V30 310 H 29.5839 -1.01351 2.81724 0
M  V30 311 H 27.1299 -0.486105 1.35547 0
M  V30 312 H 29.0829 -3.42365 2.45691 0
M  V30 313 H 27.8069 -3.0012 1.28824 0
M  V30 314 H 26.4659 -1.91722 3.12471 0
M  V30 315 H 26.1139 -4.32854 2.56216 0
M  V30 316 H 25.8139 -4.01535 4.29003 0
M  V30 317 H 27.3379 -4.79563 3.77957 0
M  V30 318 H 28.7519 -2.86023 4.96854 0
M  V30 319 H 27.1489 -2.3111 5.53812 0
M  V30 320 H 28.2189 -1.16833 4.70615 0
M  V30 321 N 29.562 -1.4872 -0.521534 0
M  V30 322 C 30.787 -1.61101 -1.30618 0
M  V30 323 C 31.212 -0.274611 -1.86085 0
M  V30 324 O 30.57 0.754937 -1.64834 0
M  V30 325 C 30.618 -2.66709 -2.4269 0
M  V30 326 O 29.722 -2.24456 -3.45967 0
M  V30 327 H 29.063 -0.539921 -0.386499 0
M  V30 328 H 31.593 -1.94767 -0.626645 0
M  V30 329 H 31.603 -2.88245 -2.88754 0
M  V30 330 H 30.278 -3.63727 -2.01682 0
M  V30 331 H 28.855 -2.13168 -3.05964 0
M  V30 332 N 31.0401 0.771051 -1.3745 0
M  V30 333 C 32.2881 1.52661 -1.32435 0
M  V30 334 C 32.6091 1.9479 0.0905024 0
M  V30 335 O 31.8791 1.66348 1.03466 0
M  V30 336 H 30.4591 0.566218 -0.487244 0
M  V30 337 H 33.1211 0.917636 -1.71946 0
M  V30 338 H 32.2171 2.42568 -1.96385 0
M  V30 339 N 32.5182 1.22032 0.997298 0
M  V30 340 C 33.4812 0.987909 2.06816 0
M  V30 341 C 34.4812 -0.0440084 1.6074 0
M  V30 342 O 35.6712 0.194053 1.73116 0
M  V30 343 C 32.8032 0.49132 3.37341 0
M  V30 344 H 33.9962 1.93803 2.28868 0
M  V30 345 H 31.5492 1.03838 1.16822 0
M  V30 346 H 32.2842 -0.463364 3.20973 0
M  V30 347 H 32.0692 1.23575 3.72118 0
M  V30 348 H 33.5592 0.348824 4.16141 0
M  V30 349 N 33.9963 -1.19345 1.0293 0
M  V30 350 C 34.9593 -2.20793 0.615069 0
M  V30 351 C 35.9593 -1.57553 -0.321533 0
M  V30 352 O 37.1493 -1.73862 -0.108483 0
M  V30 353 C 34.2813 -3.40754 -0.0999222 0
M  V30 354 H 35.4743 -2.58955 1.51269 0
M  V30 355 H 33.0273 -1.3303 0.820534 0
M  V30 356 H 33.7623 -3.0811 -1.01187 0
M  V30 357 H 33.5473 -3.87889 0.57309 0
M  V30 358 H 35.0373 -4.15898 -0.376645 0
M  V30 359 N 35.4744 -0.807222 -1.35358 0
M  V30 360 C 36.4214 -0.216037 -2.29787 0
M  V30 361 C 37.3914 0.650278 -1.52842 0
M  V30 362 O 38.5764 0.595227 -1.81278 0
M  V30 363 C 35.7164 0.628893 -3.39321 0
M  V30 364 C 34.8294 -0.257927 -4.31229 0
M  V30 365 C 33.9644 0.595069 -5.27856 0
M  V30 366 C 33.0034 -0.292111 -6.11403 0
M  V30 367 N 32.1404 0.520895 -7.00165 0
M  V30 368 H 36.9804 -1.02671 -2.79755 0
M  V30 369 H 34.5174 -0.517839 -1.37684 0
M  V30 370 H 36.4754 1.13393 -4.01494 0
M  V30 371 H 35.1054 1.40482 -2.90628 0
M  V30 372 H 34.1574 -0.881076 -3.70056 0
M  V30 373 H 35.4694 -0.940759 -4.89848 0
M  V30 374 H 34.6234 1.16522 -5.95405 0
M  V30 375 H 33.3624 1.31146 -4.69736 0
M  V30 376 H 32.3674 -0.874525 -5.428 0
M  V30 377 H 33.5924 -1.00638 -6.71602 0
M  V30 378 H 31.5384 1.22125 -6.44532 0
M  V30 379 H 31.4554 -0.103877 -7.55929 0
M  V30 380 H 32.7234 1.0743 -7.72062 0
M  V30 381 N 36.9525 1.47285 -0.560781 0
M  V30 382 C 37.8625 2.33846 0.187954 0
M  V30 383 C 38.8785 1.48412 0.908293 0
M  V30 384 O 40.0545 1.81332 0.876388 0
M  V30 385 C 37.1195 3.25178 1.2025 0
M  V30 386 C 36.1805 4.26504 0.489208 0
M  V30 387 C 35.4135 5.13472 1.45542 0
M  V30 388 O 35.6365 5.02959 2.6905 0
M  V30 389 O 34.5705 5.93902 0.977963 0
M  V30 390 H 38.3965 2.99177 -0.522177 0
M  V30 391 H 35.9815 1.45903 -0.321364 0
M  V30 392 H 37.8635 3.81584 1.78805 0
M  V30 393 H 36.5385 2.6247 1.89449 0
M  V30 394 H 35.4455 3.73847 -0.137627 0
M  V30 395 H 36.7785 4.91935 -0.161399 0
M  V30 396 N 38.4306 0.297415 1.54768 0
M  V30 397 C 39.3406 -0.58983 2.27064 0
M  V30 398 C 40.3566 -1.15144 1.30453 0
M  V30 399 O 41.5326 -1.17699 1.63428 0
M  V30 400 C 38.5976 -1.74714 2.9946 0
M  V30 401 C 37.6586 -1.21997 4.11601 0
M  V30 402 C 36.8916 -2.32212 4.80535 0
M  V30 403 O 37.1146 -3.52036 4.48806 0
M  V30 404 O 36.0486 -1.99106 5.68014 0
M  V30 405 H 39.8746 -0.00348199 3.037 0
M  V30 406 H 37.4596 0.0640035 1.49263 0
M  V30 407 H 39.3416 -2.42147 3.44881 0
M  V30 408 H 38.0166 -2.32016 2.25722 0
M  V30 409 H 36.9236 -0.511458 3.70587 0
M  V30 410 H 38.2566 -0.692419 4.87305 0
M  V30 411 N 39.9087 -1.5758 0.0250728 0
M  V30 412 C 41.1857 -1.82917 -0.692873 0
M  V30 413 C 41.5657 -0.908137 -1.90568 0
M  V30 414 O 40.9137 0.0372298 -2.2847 0
M  V30 415 C 41.1237 -3.32034 -1.07492 0
M  V30 416 C 42.4717 -3.98406 -1.46826 0
M  V30 417 O 43.4957 -3.36505 -1.16801 0
M  V30 418 O 42.3547 -5.07497 -2.02754 0
M  V30 419 H 39.4487 -0.754079 -0.33955 0
M  V30 420 H 41.9947 -1.69619 0.0524456 0
M  V30 421 H 40.7667 -3.90728 -0.211552 0
M  V30 422 H 40.3897 -3.50424 -1.87854 0
M  V30 423 N 41.3868 0.248026 -1.55636 0
M  V30 424 C 42.6118 0.998028 -1.81808 0
M  V30 425 C 43.0368 1.78207 -0.601979 0
M  V30 426 O 42.3948 1.75653 0.448961 0
M  V30 427 C 42.4428 1.9125 -3.05705 0
M  V30 428 O 41.5468 3.00406 -2.82542 0
M  V30 429 H 40.8878 0.284045 -0.600179 0
M  V30 430 H 43.4178 0.269357 -2.02819 0
M  V30 431 H 43.4278 2.32737 -3.35108 0
M  V30 432 H 42.1028 1.33602 -3.93857 0
M  V30 433 H 40.6798 2.63056 -2.64303 0
M  V30 434 N 42.8649 1.48995 0.513639 0
M  V30 435 C 43.8129 1.65199 1.63744 0
M  V30 436 C 44.8069 0.51809 1.61283 0
M  V30 437 O 46.0129 0.697335 1.65943 0
M  V30 438 H 42.3879 0.52069 0.542574 0
M  V30 439 H 44.3589 2.59552 1.47226 0
M  V30 440 C 43.1079 1.72409 3.01945 0
M  V30 441 H 42.4309 2.59029 3.04539 0
M  V30 442 H 43.8709 1.87785 3.80148 0
M  V30 443 C 42.3299 0.46618 3.33659 0
M  V30 444 O 42.8599 -0.413744 3.99564 0
M  V30 445 N 41.0659 0.332931 2.88687 0
M  V30 446 H 40.6129 1.04996 2.35231 0
M  V30 447 H 40.5709 -0.507665 3.10274 0
M  V30 448 N 44.343 -0.763751 1.37857 0
M  V30 449 C 45.29 -1.87726 1.34267 0
M  V30 450 C 46.26 -1.64807 0.206879 0
M  V30 451 O 47.445 -1.86613 0.397508 0
M  V30 452 C 44.585 -3.24896 1.16346 0
M  V30 453 C 43.698 -3.59716 2.39225 0
M  V30 454 C 42.833 -4.86137 2.14114 0
M  V30 455 C 41.872 -5.13711 3.32817 0
M  V30 456 N 41.009 -6.31323 3.07206 0
M  V30 457 H 45.849 -1.90129 2.29466 0
M  V30 458 H 43.386 -0.929433 1.14017 0
M  V30 459 H 45.344 -4.04036 1.03975 0
M  V30 460 H 43.974 -3.21847 0.247909 0
M  V30 461 H 43.026 -2.75498 2.62307 0
M  V30 462 H 44.338 -3.76027 3.27728 0
M  V30 463 H 43.492 -5.73198 1.9882 0
M  V30 464 H 42.231 -4.71945 1.22961 0
M  V30 465 H 41.236 -4.25123 3.48641 0
M  V30 466 H 42.461 -5.29807 4.24832 0
M  V30 467 H 40.407 -6.18474 2.1869 0
M  V30 468 H 40.324 -6.48087 3.89254 0
M  V30 469 H 41.592 -7.213 2.95546 0
M  V30 470 N 45.8211 -1.22559 -0.990812 0
M  V30 471 C 47.0981 -0.959875 -1.70428 0
M  V30 472 C 47.4781 0.524455 -2.04481 0
M  V30 473 O 46.8261 1.49302 -1.72977 0
M  V30 474 C 47.0361 -1.85955 -2.95333 0
M  V30 475 C 48.3841 -2.11687 -3.68068 0
M  V30 476 O 49.4081 -1.8342 -3.05345 0
M  V30 477 O 48.2671 -2.59572 -4.80921 0
M  V30 478 H 45.3611 -0.361154 -0.743974 0
M  V30 479 H 47.9071 -1.33554 -1.04697 0
M  V30 480 H 46.6791 -2.86346 -2.66687 0
M  V30 481 H 46.3021 -1.4856 -3.68803 0
M  V30 482 N 47.2992 1.18797 -1.03562 0
M  V30 483 C 48.2292 2.24472 -0.643019 0
M  V30 484 C 49.2102 1.66433 0.351283 0
M  V30 485 O 50.3952 1.92803 0.232505 0
M  V30 486 C 47.5252 3.473 4.24935e-05 0
M  V30 487 C 46.4792 4.18055 -0.917257 0
M  V30 488 C 45.8052 5.34519 -0.138941 0
M  V30 489 C 47.1052 4.72109 -2.23407 0
M  V30 490 H 48.7992 2.57566 -1.52643 0
M  V30 491 H 46.3452 1.23806 -0.735394 0
M  V30 492 H 48.2982 4.20426 0.286383 0
M  V30 493 H 47.0222 3.13424 0.918299 0
M  V30 494 H 45.6812 3.46821 -1.1879 0
M  V30 495 H 45.3292 4.96891 0.781562 0
M  V30 496 H 45.0292 5.82794 -0.750005 0
M  V30 497 H 46.5532 6.10438 0.1405 0
M  V30 498 H 47.9672 5.36955 -2.00879 0
M  V30 499 H 46.3642 5.30897 -2.79765 0
M  V30 500 H 47.4342 3.89807 -2.88407 0
M  V30 501 N 48.7773 0.814389 1.34928 0
M  V30 502 C 49.7403 0.235759 2.27984 0
M  V30 503 C 50.7403 -0.581412 1.49921 0
M  V30 504 O 51.9303 -0.398758 1.69575 0
M  V30 505 C 49.0623 -0.670433 3.34242 0
M  V30 506 H 50.2553 1.05659 2.80671 0
M  V30 507 H 47.8083 0.585614 1.44915 0
M  V30 508 H 48.5433 -1.51466 2.86755 0
M  V30 509 H 48.3283 -0.0860822 3.92005 0
M  V30 510 H 49.8183 -1.06935 4.03676 0
M  V30 511 N 50.2554 -1.46986 0.568584 0
M  V30 512 C 51.1874 -2.28233 -0.210337 0
M  V30 513 C 52.2004 -1.37682 -0.868767 0
M  V30 514 O 53.3894 -1.62406 -0.740705 0
M  V30 515 C 50.4894 -3.12293 -1.3163 0
M  V30 516 C 49.6624 -4.30878 -0.7525 0
M  V30 517 C 48.7214 -4.96445 -1.74439 0
M  V30 518 O 47.7474 -5.54482 -1.286 0
M  V30 519 N 48.9494 -4.92171 -3.07812 0
M  V30 520 H 51.7144 -2.95723 0.486648 0
M  V30 521 H 49.2754 -1.56742 0.405409 0
M  V30 522 H 51.2674 -3.53022 -1.97883 0
M  V30 523 H 49.8374 -2.46971 -1.91636 0
M  V30 524 H 49.0574 -3.94104 0.0871128 0
M  V30 525 H 50.3454 -5.07558 -0.35536 0
M  V30 526 H 49.7434 -4.46239 -3.47688 0
M  V30 527 H 48.3004 -5.36884 -3.69592 0
M  V30 528 N 51.7335 -0.305618 -1.54608 0
M  V30 529 C 52.6655 0.602161 -2.21149 0
M  V30 530 C 53.6785 1.09394 -1.20569 0
M  V30 531 O 54.8675 1.0106 -1.47136 0
M  V30 532 C 51.9675 1.83692 -2.84799 0
M  V30 533 C 51.1405 1.48686 -4.11353 0
M  V30 534 C 50.1995 2.57725 -4.58764 0
M  V30 535 O 49.2255 2.22623 -5.23858 0
M  V30 536 N 50.4275 3.88346 -4.31471 0
M  V30 537 H 53.1925 0.0324966 -2.99682 0
M  V30 538 H 50.7535 -0.128021 -1.61393 0
M  V30 539 H 52.7455 2.55994 -3.13448 0
M  V30 540 H 51.3155 2.31486 -2.10078 0
M  V30 541 H 50.5355 0.596269 -3.89664 0
M  V30 542 H 51.8235 1.22842 -4.93748 0
M  V30 543 H 51.2215 4.19671 -3.79331 0
M  V30 544 H 49.7785 4.56932 -4.64818 0
M  V30 545 N 53.2116 1.57565 -0.0334293 0
M  V30 546 C 54.4416 1.95996 0.653398 0
M  V30 547 C 54.8496 0.908749 1.65947 0
M  V30 548 O 54.1926 -0.117471 1.83324 0
M  V30 549 C 54.2546 3.30589 1.41249 0
M  V30 550 C 53.9186 4.53503 0.564263 0
M  V30 551 C 54.9156 5.19647 -0.16225 0
M  V30 552 C 52.6006 4.99801 0.500398 0
M  V30 553 C 54.5946 6.30412 -0.941255 0
M  V30 554 C 52.2816 6.10448 -0.282308 0
M  V30 555 C 53.2796 6.75612 -1.00184 0
M  V30 556 O 52.9676 7.84134 -1.77171 0
M  V30 557 H 52.6996 0.65027 0.184728 0
M  V30 558 H 55.2536 2.05199 -0.0907841 0
M  V30 559 H 53.4836 3.17888 2.20191 0
M  V30 560 H 55.1726 3.53892 1.98784 0
M  V30 561 H 55.9386 4.84846 -0.12227 0
M  V30 562 H 51.8176 4.48883 1.05002 0
M  V30 563 H 55.3616 6.81208 -1.50339 0
M  V30 564 H 51.2586 6.44686 -0.323989 0
M  V30 565 H 52.0266 8.00822 -1.69194 0
M  V30 566 N 54.6897 -0.239769 1.55765 0
M  V30 567 C 55.6197 -1.30052 1.9393 0
M  V30 568 C 56.6007 -1.49839 0.805132 0
M  V30 569 O 57.7857 -1.62328 1.06599 0
M  V30 570 C 54.9157 -2.65391 2.2402 0
M  V30 571 C 53.8697 -2.60289 3.39755 0
M  V30 572 C 53.1957 -3.99489 3.55405 0
M  V30 573 C 54.4957 -2.16654 4.75246 0
M  V30 574 H 56.1897 -0.983573 2.82783 0
M  V30 575 H 53.7357 -0.471701 1.36055 0
M  V30 576 H 55.6887 -3.3974 2.49308 0
M  V30 577 H 54.4127 -2.98736 1.32 0
M  V30 578 H 53.0717 -1.88398 3.14487 0
M  V30 579 H 52.7197 -4.30112 2.60793 0
M  V30 580 H 52.4197 -3.96962 4.33238 0
M  V30 581 H 53.9437 -4.75528 3.83022 0
M  V30 582 H 55.3577 -2.80737 4.99859 0
M  V30 583 H 53.7547 -2.25223 5.56232 0
M  V30 584 H 54.8247 -1.11835 4.71827 0
M  V30 585 N 56.1678 -1.49265 -0.50573 0
M  V30 586 C 57.0778 -1.68312 -1.63427 0
M  V30 587 C 58.0938 -0.565682 -1.64548 0
M  V30 588 O 59.2698 -0.839801 -1.83055 0
M  V30 589 C 56.3348 -1.74107 -2.99813 0
M  V30 590 C 55.3958 -2.97653 -3.09356 0
M  V30 591 C 54.6288 -3.03163 -4.39236 0
M  V30 592 O 54.8518 -2.16396 -5.27758 0
M  V30 593 O 53.7858 -3.9558 -4.53652 0
M  V30 594 H 57.6118 -2.63907 -1.50289 0
M  V30 595 H 55.1968 -1.32951 -0.681502 0
M  V30 596 H 57.0788 -1.803 -3.80881 0
M  V30 597 H 55.7538 -0.816901 -3.13223 0
M  V30 598 H 54.6608 -2.96981 -2.27493 0
M  V30 599 H 55.9938 -3.89535 -3.00871 0
M  V30 600 N 57.6459 0.756429 -1.3826 0
M  V30 601 C 58.5929 1.87011 -1.35261 0
M  V30 602 C 59.5629 1.64695 -0.215616 0
M  V30 603 O 60.7479 1.864 -0.407399 0
M  V30 604 C 57.8879 3.24275 -1.18068 0
M  V30 605 C 57.0009 3.58442 -2.41129 0
M  V30 606 C 56.1359 4.84994 -2.16689 0
M  V30 607 C 55.1749 5.11939 -3.35537 0
M  V30 608 N 54.3119 6.29685 -3.10549 0
M  V30 609 H 59.1519 1.8891 -2.30472 0
M  V30 610 H 56.6889 0.923373 -1.14509 0
M  V30 611 H 58.6469 4.03479 -1.06116 0
M  V30 612 H 57.2769 3.21711 -0.264973 0
M  V30 613 H 56.3289 2.74103 -2.63764 0
M  V30 614 H 57.6409 3.74283 -3.29717 0
M  V30 615 H 56.7949 5.72135 -2.01857 0
M  V30 616 H 55.5339 4.71286 -1.25462 0
M  V30 617 H 54.5389 4.23268 -3.50891 0
M  V30 618 H 55.7639 5.27546 -4.27635 0
M  V30 619 H 53.7099 6.17306 -2.21967 0
M  V30 620 H 53.6269 6.46014 -3.92686 0
M  V30 621 H 54.8949 7.19722 -2.99367 0
M  V30 622 N 59.124 1.23083 0.984299 0
M  V30 623 C 60.354 1.08556 1.75781 0
M  V30 624 C 60.762 -0.366171 1.85623 0
M  V30 625 O 60.105 -1.26524 1.33182 0
M  V30 626 C 60.167 1.63208 3.20318 0
M  V30 627 C 59.831 3.11922 3.33997 0
M  V30 628 C 60.828 4.09259 3.2063 0
M  V30 629 C 58.513 3.51552 3.58771 0
M  V30 630 C 60.507 5.4421 3.31835 0
M  V30 631 C 58.194 4.86649 3.69616 0
M  V30 632 C 59.192 5.82787 3.56157 0
M  V30 633 O 58.88 7.15431 3.66626 0
M  V30 634 H 58.612 0.380713 0.5586 0
M  V30 635 H 61.166 1.63321 1.2456 0
M  V30 636 H 59.396 1.0286 3.72769 0
M  V30 637 H 61.085 1.44216 3.79416 0
M  V30 638 H 61.851 3.79984 3.01392 0
M  V30 639 H 57.73 2.77239 3.6832 0
M  V30 640 H 61.274 6.1923 3.21247 0
M  V30 641 H 57.171 5.15601 3.88363 0
M  V30 642 H 57.939 7.23127 3.83445 0
M  V30 643 N 60.6021 -1.18246 1.0419 0
M  V30 644 C 61.8321 -1.91916 0.764961 0
M  V30 645 C 62.2401 -1.76485 -0.681898 0
M  V30 646 O 61.5831 -1.09275 -1.47664 0
M  V30 647 C 61.6451 -3.4373 1.05309 0
M  V30 648 C 61.3091 -3.8294 2.4941 0
M  V30 649 C 62.3061 -3.86621 3.47592 0
M  V30 650 C 59.9911 -4.142 2.84155 0
M  V30 651 C 61.9851 -4.21013 4.78568 0
M  V30 652 C 59.6721 -4.48262 4.15337 0
M  V30 653 C 60.6701 -4.51645 5.12353 0
M  V30 654 O 60.3581 -4.84911 6.41183 0
M  V30 655 H 60.0901 -0.61606 0.278292 0
M  V30 656 H 62.6441 -1.50947 1.39299 0
M  V30 657 H 60.8741 -3.84946 0.367933 0
M  V30 658 H 62.5631 -3.9865 0.763752 0
M  V30 659 H 63.3291 -3.62607 3.22089 0
M  V30 660 H 59.2081 -4.10743 2.09311 0
M  V30 661 H 62.7521 -4.23568 5.54289 0
M  V30 662 H 58.6491 -4.71737 4.40607 0
M  V30 663 H 59.4171 -5.02809 6.45852 0
M  V30 664 N 62.0802 -0.821533 -1.34494 0
M  V30 665 C 63.0282 -0.230702 -2.31453 0
M  V30 666 C 64.0222 0.627793 -1.57338 0
M  V30 667 O 65.2282 0.519288 -1.72347 0
M  V30 668 H 61.6032 -0.0558577 -0.749923 0
M  V30 669 H 63.5742 -1.06332 -2.78812 0
M  V30 670 C 62.3232 0.59391 -3.4259 0
M  V30 671 H 61.6462 -0.0573588 -3.99759 0
M  V30 672 H 63.0862 0.973446 -4.12674 0
M  V30 673 C 61.5452 1.76568 -2.86924 0
M  V30 674 O 62.0752 2.8638 -2.81691 0
M  V30 675 N 60.2812 1.58198 -2.43766 0
M  V30 676 H 59.8282 0.68872 -2.48222 0
M  V30 677 H 59.7862 2.36752 -2.06871 0
M  V30 678 N 63.5583 1.46682 -0.576371 0
M  V30 679 C 64.4883 2.33028 0.148397 0
M  V30 680 C 65.4693 1.44961 0.889956 0
M  V30 681 O 66.6543 1.73789 0.866662 0
M  V30 682 C 63.7843 3.27117 1.1667 0
M  V30 683 C 62.7383 4.24575 0.540386 0
M  V30 684 C 62.0643 5.08126 1.6647 0
M  V30 685 C 63.3643 5.19722 -0.518331 0
M  V30 686 H 65.0583 2.93875 -0.572509 0
M  V30 687 H 62.6043 1.41315 -0.276768 0
M  V30 688 H 64.5573 3.86374 1.68204 0
M  V30 689 H 63.2813 2.64364 1.9178 0
M  V30 690 H 61.9403 3.66571 0.0461769 0
M  V30 691 H 61.5883 4.41762 2.40531 0
M  V30 692 H 61.2883 5.74122 1.25131 0
M  V30 693 H 62.8123 5.70246 2.18293 0
M  V30 694 H 64.2263 5.73232 -0.0883058 0
M  V30 695 H 62.6233 5.94026 -0.851679 0
M  V30 696 H 63.6933 4.64037 -1.40703 0
M  V30 697 N 65.0364 0.313813 1.54444 0
M  V30 698 C 65.9464 -0.565714 2.27677 0
M  V30 699 C 66.9624 -1.13754 1.31666 0
M  V30 700 O 68.1384 -1.15959 1.64668 0
M  V30 701 C 65.2034 -1.71528 3.01296 0
M  V30 702 C 64.2644 -1.17624 4.12872 0
M  V30 703 C 63.4974 -2.27102 4.8297 0
M  V30 704 O 63.7204 -3.47256 4.52514 0
M  V30 705 O 62.6544 -1.9307 5.70094 0
M  V30 706 H 66.4804 0.0287296 3.03686 0
M  V30 707 H 64.0654 0.0798312 1.49187 0
M  V30 708 H 65.9474 -2.38476 3.4743 0
M  V30 709 H 64.6224 -2.29608 2.2817 0
M  V30 710 H 63.5294 -0.472124 3.71109 0
M  V30 711 H 64.8624 -0.640695 4.88012 0
M  V30 712 N 66.5145 -1.57545 0.0417849 0
M  V30 713 C 67.4615 -2.10977 -0.935805 0
M  V30 714 C 68.4315 -1.01486 -1.31491 0
M  V30 715 O 69.6165 -1.2898 -1.40602 0
M  V30 716 C 66.7565 -2.65169 -2.2086 0
M  V30 717 C 65.8695 -3.88714 -1.88482 0
M  V30 718 C 65.0045 -4.31254 -3.1015 0
M  V30 719 C 64.0435 -5.47524 -2.7365 0
M  V30 720 N 63.1805 -5.85162 -3.87982 0
M  V30 721 H 68.0205 -2.94218 -0.473249 0
M  V30 722 H 65.5575 -1.45415 -0.221981 0
M  V30 723 H 67.5155 -2.94685 -2.95325 0
M  V30 724 H 66.1455 -1.8474 -2.64709 0
M  V30 725 H 65.1975 -3.65849 -1.04205 0
M  V30 726 H 66.5095 -4.73245 -1.57608 0
M  V30 727 H 65.6635 -4.62273 -3.92923 0
M  V30 728 H 64.4025 -3.45516 -3.44195 0
M  V30 729 H 63.4075 -5.16187 -1.89291 0
M  V30 730 H 64.6325 -6.34971 -2.40807 0
M  V30 731 H 62.5785 -5.02377 -4.21846 0
M  V30 732 H 62.4955 -6.64362 -3.60775 0
M  V30 733 H 63.7635 -6.20791 -4.71422 0
M  V30 734 N 67.9926 0.231505 -1.5589 0
M  V30 735 C 69.2696 0.981096 -1.69215 0
M  V30 736 C 69.6496 2.02799 -0.586164 0
M  V30 737 O 68.9976 2.24823 0.408253 0
M  V30 738 C 69.2076 1.60054 -3.10135 0
M  V30 739 C 70.5556 2.09658 -3.69227 0
M  V30 740 O 71.5796 1.69967 -3.13033 0
M  V30 741 O 70.4386 2.8258 -4.67772 0
M  V30 742 H 67.5326 0.457653 -0.688827 0
M  V30 743 H 70.0786 0.224073 -1.68214 0
M  V30 744 H 68.8506 0.844105 -3.82087 0
M  V30 745 H 68.4736 2.42336 -3.15212 0
M  V30 746 N 69.4707 1.49531 0.497807 0
M  V30 747 C 70.7167 1.59415 1.25358 0
M  V30 748 C 71.0497 0.281422 1.9215 0
M  V30 749 O 70.3247 -0.715249 1.80871 0
M  V30 750 C 70.6077 2.75566 2.3181 0
M  V30 751 C 70.4607 4.16642 1.69498 0
M  V30 752 C 71.7797 2.87347 3.33346 0
M  V30 753 H 68.8987 0.580244 0.454408 0
M  V30 754 H 71.5407 1.81827 0.551262 0
M  V30 755 H 69.6907 2.56587 2.91711 0
M  V30 756 H 71.3627 4.47145 1.13399 0
M  V30 757 H 69.6057 4.22141 0.998978 0
M  V30 758 H 70.2767 4.93792 2.46725 0
M  V30 759 H 72.7527 3.04634 2.83438 0
M  V30 760 H 71.6287 3.70289 4.05188 0
M  V30 761 H 71.8897 1.96834 3.95865 0
M  V30 762 N 70.9488 -0.749086 1.3866 0
M  V30 763 C 71.8958 -1.86291 1.36251 0
M  V30 764 C 72.8658 -1.64578 0.224347 0
M  V30 765 O 74.0508 -1.86181 0.417279 0
M  V30 766 C 71.1908 -3.23644 1.19786 0
M  V30 767 C 70.3038 -3.57158 2.43027 0
M  V30 768 C 69.4388 -4.83838 2.19258 0
M  V30 769 C 68.4778 -5.10152 3.38247 0
M  V30 770 N 67.6148 -6.28029 3.13884 0
M  V30 771 H 72.4548 -1.87685 2.3147 0
M  V30 772 H 69.9918 -0.917287 1.14997 0
M  V30 773 H 71.9498 -4.0291 1.08254 0
M  V30 774 H 70.5798 -3.21566 0.282031 0
M  V30 775 H 69.6318 -2.72701 2.65214 0
M  V30 776 H 70.9438 -3.7253 3.31697 0
M  V30 777 H 70.0978 -5.71057 2.04888 0
M  V30 778 H 68.8368 -4.70614 1.2796 0
M  V30 779 H 67.8418 -4.21401 3.53131 0
M  V30 780 H 69.0668 -5.25271 4.30427 0
M  V30 781 H 67.0128 -6.1612 2.25238 0
M  V30 782 H 66.9298 -6.43922 3.96106 0
M  V30 783 H 68.1978 -7.18124 3.03179 0
M  V30 784 N 72.4269 -1.23603 -0.977757 0
M  V30 785 C 73.3589 -0.977369 -2.07317 0
M  V30 786 C 74.3719 0.0495845 -1.62724 0
M  V30 787 O 75.5609 -0.186261 -1.77526 0
M  V30 788 C 72.6609 -0.451216 -3.35883 0
M  V30 789 C 71.8339 -1.53896 -4.09432 0
M  V30 790 C 70.8929 -1.01721 -5.16274 0
M  V30 791 O 69.9189 -1.70676 -5.43009 0
M  V30 792 N 71.1209 0.153594 -5.80297 0
M  V30 793 H 73.8859 -1.92047 -2.30082 0
M  V30 794 H 71.4469 -1.14497 -1.14465 0
M  V30 795 H 73.4389 -0.0871574 -4.04606 0
M  V30 796 H 72.0089 0.397368 -3.10064 0
M  V30 797 H 71.2289 -2.07566 -3.35127 0
M  V30 798 H 72.5169 -2.27037 -4.55337 0
M  V30 799 H 71.9149 0.730323 -5.60966 0
M  V30 800 H 70.4719 0.458892 -6.50183 0
M  V30 801 N 73.905 1.17692 -1.04816 0
M  V30 802 C 75.152 1.87859 -0.75599 0
M  V30 803 C 75.48 1.80812 0.716752 0
M  V30 804 O 74.735 1.20819 1.53952 0
M  V30 805 C 75.034 3.37462 -1.17703 0
M  V30 806 C 74.7 3.64713 -2.65133 0
M  V30 807 C 73.362 3.71859 -3.05408 0
M  V30 808 C 75.714 3.76492 -3.60421 0
M  V30 809 C 73.042 3.88271 -4.39843 0
M  V30 810 C 75.394 3.94421 -4.94585 0
M  V30 811 C 74.058 3.99806 -5.3452 0
M  V30 812 H 73.328 0.687425 -0.276636 0
M  V30 813 H 75.975 1.39255 -1.31455 0
M  V30 814 H 74.28 3.88097 -0.537395 0
M  V30 815 H 75.977 3.90109 -0.928218 0
M  V30 816 H 72.567 3.59772 -2.32942 0
M  V30 817 H 76.751 3.70295 -3.30447 0
M  V30 818 H 72.007 3.90687 -4.70291 0
M  V30 819 H 76.181 4.02477 -5.68318 0
M  V30 820 H 73.808 4.12276 -6.38696 0
M  V30 821 N 75.3831 0.828654 1.34056 0
M  V30 822 C 76.7991 0.515135 1.51058 0
M  V30 823 C 76.9991 -0.959581 1.77184 0
M  V30 824 O 76.0551 -1.74382 1.82612 0
M  V30 825 C 77.3681 1.37963 2.67183 0
M  V30 826 C 78.9161 1.37735 2.81066 0
M  V30 827 C 79.3911 2.22645 4.00241 0
M  V30 828 N 80.8821 2.203 4.07458 0
M  V30 829 C 81.6171 2.82744 4.98842 0
M  V30 830 N 81.1131 3.54201 5.9541 0
M  V30 831 N 82.9061 2.72268 4.91759 0
M  V30 832 H 75.0571 1.78343 1.15358 0
M  V30 833 H 77.3201 0.760304 0.566252 0
M  V30 834 H 77.0261 2.42714 2.54525 0
M  V30 835 H 76.9001 1.0484 3.62338 0
M  V30 836 H 79.2871 0.337593 2.93163 0
M  V30 837 H 79.3681 1.74859 1.86703 0
M  V30 838 H 79.0121 3.26674 3.88905 0
M  V30 839 H 78.9421 1.82869 4.93829 0
M  V30 840 H 81.4331 1.68327 3.38341 0
M  V30 841 H 81.7461 3.9908 6.61782 0
M  V30 842 H 80.0911 3.58308 5.95517 0
M  V30 843 H 83.2821 2.16014 4.15278 0
M  V30 844 H 83.4551 3.21219 5.62781 0
M  V30 845 N 76.8612 -1.46375 0.584142 0
M  V30 846 C 78.2772 -1.57694 0.245929 0
M  V30 847 C 78.4772 -1.57903 -1.25175 0
M  V30 848 O 77.5332 -1.49676 -2.03355 0
M  V30 849 C 78.8462 -2.87028 0.896402 0
M  V30 850 C 80.3942 -3.00662 0.870127 0
M  V30 851 C 80.8692 -4.32734 1.50017 0
M  V30 852 N 82.3602 -4.39436 1.46458 0
M  V30 853 C 83.0952 -5.40248 1.92144 0
M  V30 854 N 82.5912 -6.47726 2.4581 0
M  V30 855 N 84.3842 -5.31459 1.83052 0
M  V30 856 H 76.5352 -1.44483 1.55687 0
M  V30 857 H 78.7982 -0.689291 0.650831 0
M  V30 858 H 78.5042 -2.9269 1.95002 0
M  V30 859 H 78.3782 -3.75014 0.405486 0
M  V30 860 H 80.7652 -2.94581 -0.174871 0
M  V30 861 H 80.8462 -2.14148 1.39908 0
M  V30 862 H 80.4902 -4.39573 2.54437 0
M  V30 863 H 80.4202 -5.18025 0.946432 0
M  V30 864 H 82.9112 -3.62367 1.07231 0
M  V30 865 H 83.2242 -7.20863 2.78525 0
M  V30 866 H 81.5692 -6.48542 2.49836 0
M  V30 867 H 84.7602 -4.46396 1.40883 0
M  V30 868 H 84.9332 -6.09881 2.18973 0
M  V30 869 N 78.3393 -0.321999 -1.54275 0
M  V30 870 C 79.2863 0.544664 -2.24281 0
M  V30 871 C 80.2563 1.1129 -1.23303 0
M  V30 872 O 81.4413 1.15354 -1.51981 0
M  V30 873 C 78.5813 1.70045 -3.00298 0
M  V30 874 C 77.6943 1.16159 -4.1609 0
M  V30 875 C 76.8293 2.28293 -4.79641 0
M  V30 876 C 75.8683 1.71648 -5.8754 0
M  V30 877 N 75.0053 2.77438 -6.44959 0
M  V30 878 H 79.8453 -0.0588907 -2.97942 0
M  V30 879 H 77.3823 -0.0408345 -1.47043 0
M  V30 880 H 79.3403 2.38054 -3.42616 0
M  V30 881 H 77.9703 2.27531 -2.28975 0
M  V30 882 H 77.0223 0.373092 -3.78566 0
M  V30 883 H 78.3343 0.707087 -4.93763 0
M  V30 884 H 77.4883 3.0421 -5.2492 0
M  V30 885 H 76.2273 2.77079 -4.01346 0
M  V30 886 H 75.2323 0.942282 -5.41665 0
M  V30 887 H 76.4573 1.23741 -6.67731 0
M  V30 888 H 74.4033 3.25519 -5.69538 0
M  V30 889 H 74.3203 2.36547 -7.1804 0
M  V30 890 H 75.5883 3.53189 -6.94894 0
M  V30 891 N 79.8174 1.5752 -0.0501392 0
M  V30 892 C 81.0944 1.83996 0.663685 0
M  V30 893 C 81.4744 0.938339 1.89099 0
M  V30 894 O 80.8224 -0.00087759 2.285 0
M  V30 895 C 81.0324 3.33702 1.02196 0
M  V30 896 C 82.3804 4.00691 1.40469 0
M  V30 897 O 83.4044 3.38321 1.11433 0
M  V30 898 O 82.2634 5.10658 1.94654 0
M  V30 899 H 79.3574 0.759385 0.32751 0
M  V30 900 H 81.9034 1.69514 -0.0794238 0
M  V30 901 H 80.6754 3.91015 0.149364 0
M  V30 902 H 80.2984 3.53368 1.82255 0
M  V30 903 N 81.2955 -0.223234 1.56011 0
M  V30 904 C 82.5205 -0.968978 1.83373 0
M  V30 905 C 82.9455 -1.77227 0.630254 0
M  V30 906 O 82.3035 -1.76345 -0.420959 0
M  V30 907 C 82.3515 -1.86363 3.08709 0
M  V30 908 O 81.4555 -2.95873 2.87285 0
M  V30 909 H 80.7965 -0.274461 0.604622 0
M  V30 910 H 83.3265 -0.237056 2.03222 0
M  V30 911 H 83.3365 -2.27376 3.38768 0
M  V30 912 H 82.0115 -1.27319 3.95933 0
M  V30 913 H 80.5885 -2.58818 2.68454 0
M  V30 914 N 82.7736 -1.49793 -0.48987 0
M  V30 915 C 83.7216 -1.67783 -1.61095 0
M  V30 916 C 84.7156 -0.543683 -1.60438 0
M  V30 917 O 85.9216 -0.723647 -1.64813 0
M  V30 918 H 82.2966 -0.529255 -0.534222 0
M  V30 919 H 84.2676 -2.61861 -1.43078 0
M  V30 920 C 83.0166 -1.77191 -2.99164 0
M  V30 921 H 82.3396 -2.63841 -3.0038 0
M  V30 922 H 83.7796 -1.93809 -3.77113 0
M  V30 923 C 82.2386 -0.519203 -3.32875 0
M  V30 924 O 82.7686 0.350124 -4.00171 0
M  V30 925 N 80.9746 -0.378816 -2.8812 0
M  V30 926 H 80.5216 -1.08725 -2.33531 0
M  V30 927 H 80.4796 0.458239 -3.11043 0
M  V30 928 N 84.2517 0.741722 -1.39055 0
M  V30 929 C 85.1817 1.869 -1.39966 0
M  V30 930 C 86.1627 1.6804 -0.26392 0
M  V30 931 O 87.3477 1.88458 -0.468755 0
M  V30 932 C 84.4777 3.24572 -1.23574 0
M  V30 933 C 83.4317 3.58056 -2.34477 0
M  V30 934 C 82.7577 4.94593 -2.0318 0
M  V30 935 C 84.0577 3.61716 -3.76774 0
M  V30 936 H 85.7517 1.86395 -2.34302 0
M  V30 937 H 83.2977 0.895361 -1.1278 0
M  V30 938 H 85.2507 4.031 -1.22834 0
M  V30 939 H 83.9747 3.25587 -0.257045 0
M  V30 940 H 82.6337 2.81854 -2.34423 0
M  V30 941 H 82.2817 4.92181 -1.03765 0
M  V30 942 H 81.9817 5.17964 -2.77465 0
M  V30 943 H 83.5057 5.75486 -2.04079 0
M  V30 944 H 84.9197 4.30335 -3.78794 0
M  V30 945 H 83.3167 3.96603 -4.50362 0
M  V30 946 H 84.3867 2.61672 -4.08235 0
M  V30 947 N 85.7298 1.2412 0.971189 0
M  V30 948 C 86.9788 1.07284 1.70801 0
M  V30 949 C 87.2918 -0.388902 1.91695 0
M  V30 950 O 88.4978 -0.677379 2.62914 0
M  V30 951 C 86.9538 1.87145 3.07416 0
M  V30 952 C 86.5618 3.37707 2.94377 0
M  V30 953 C 88.3058 1.78828 3.84995 0
M  V30 954 C 86.2128 4.09925 4.26281 0
M  V30 955 H 85.1428 0.397854 0.64049 0
M  V30 956 H 87.7938 1.4817 1.0825 0
M  V30 957 H 86.1758 1.39071 3.70777 0
M  V30 958 H 87.3498 3.93335 2.4005 0
M  V30 959 H 85.6648 3.46938 2.30267 0
M  V30 960 H 88.2618 2.30089 4.82662 0
M  V30 961 H 88.6048 0.75284 4.09436 0
M  V30 962 H 89.1378 2.24563 3.28354 0
M  V30 963 H 85.8768 5.13813 4.07033 0
M  V30 964 H 85.3968 3.59083 4.80437 0
M  V30 965 H 87.0758 4.1673 4.94919 0
M  V30 966 N 87.2079 -1.17134 1.05439 0
M  V30 967 C 88.4539 -1.87733 0.767077 0
M  V30 968 C 88.7869 -1.8098 -0.704253 0
M  V30 969 O 88.0619 -1.21951 -1.5152 0
M  V30 970 C 88.3449 -3.37659 1.25133 0
M  V30 971 C 88.1979 -3.53149 2.78578 0
M  V30 972 C 89.5169 -4.31768 0.852324 0
M  V30 973 H 86.6359 -0.681687 0.280129 0
M  V30 974 H 89.2779 -1.37732 1.30881 0
M  V30 975 H 87.4279 -3.80373 0.790469 0
M  V30 976 H 89.0999 -3.19434 3.32806 0
M  V30 977 H 87.3429 -2.95345 3.17732 0
M  V30 978 H 88.0139 -4.58403 3.07523 0
M  V30 979 H 90.4899 -3.96909 1.24911 0
M  V30 980 H 89.3659 -5.35199 1.21873 0
M  V30 981 H 89.6269 -4.41429 -0.243485 0
M  V30 982 N 88.686 -0.835752 -1.33615 0
M  V30 983 C 89.633 -0.26473 -2.29277 0
M  V30 984 C 90.603 0.617712 -1.54187 0
M  V30 985 O 91.788 0.556641 -1.825 0
M  V30 986 C 88.928 0.556777 -3.40579 0
M  V30 987 C 88.041 -0.349339 -4.30585 0
M  V30 988 C 87.176 0.482969 -5.29 0
M  V30 989 C 86.215 -0.421732 -6.10645 0
M  V30 990 N 85.352 0.372262 -7.01112 0
M  V30 991 H 90.192 -1.08582 -2.77514 0
M  V30 992 H 87.729 -0.546927 -1.36554 0
M  V30 993 H 89.687 1.04852 -4.03809 0
M  V30 994 H 88.317 1.34286 -2.93542 0
M  V30 995 H 87.369 -0.959372 -3.68104 0
M  V30 996 H 88.681 -1.04445 -4.87742 0
M  V30 997 H 87.835 1.03866 -5.97743 0
M  V30 998 H 86.574 1.21153 -4.72412 0
M  V30 999 H 85.579 -0.989464 -5.40823 0
M  V30 1000 H 86.804 -1.14861 -6.69316 0
M  V30 1001 H 84.75 1.08426 -6.46977 0
M  V30 1002 H 84.667 -0.264198 -7.55538 0
M  V30 1003 H 85.935 0.910293 -7.74167 0
M  V30 1004 N 90.1641 1.46063 -0.591896 0
M  V30 1005 C 91.1111 2.30399 0.136069 0
M  V30 1006 C 92.0811 1.41169 0.875238 0
M  V30 1007 O 93.2661 1.70112 0.86409 0
M  V30 1008 C 90.4061 3.25804 1.13781 0
M  V30 1009 C 89.5191 4.30134 0.401137 0
M  V30 1010 C 88.6541 5.12659 1.39121 0
M  V30 1011 C 87.6931 6.0873 0.641462 0
M  V30 1012 N 86.8301 6.8409 1.58004 0
M  V30 1013 H 91.6701 2.92118 -0.589144 0
M  V30 1014 H 89.2071 1.43959 -0.302342 0
M  V30 1015 H 91.1651 3.79569 1.73156 0
M  V30 1016 H 89.7951 2.65872 1.83062 0
M  V30 1017 H 88.8471 3.79152 -0.307826 0
M  V30 1018 H 90.1591 4.98458 -0.184565 0
M  V30 1019 H 89.3131 5.70747 2.05749 0
M  V30 1020 H 88.0521 4.44316 2.01084 0
M  V30 1021 H 87.0571 5.49786 -0.0385419 0
M  V30 1022 H 88.2821 6.79095 0.0270945 0
M  V30 1023 H 86.2281 6.18449 2.18761 0
M  V30 1024 H 86.1451 7.48709 1.04738 0
M  V30 1025 H 87.4131 7.4673 2.23639 0
M  V30 1026 N 91.6422 0.330177 1.54103 0
M  V30 1027 C 92.8912 -0.271336 1.99867 0
M  V30 1028 C 93.2042 -1.52723 1.22209 0
M  V30 1029 O 94.4102 -2.20515 1.58383 0
M  V30 1030 C 92.8662 -0.534032 3.55916 0
M  V30 1031 C 92.4742 0.705193 4.42415 0
M  V30 1032 C 94.2182 -1.09514 4.1013 0
M  V30 1033 C 92.1252 0.414035 5.89949 0
M  V30 1034 H 91.0552 -0.105166 0.74663 0
M  V30 1035 H 93.7062 0.443429 1.78062 0
M  V30 1036 H 92.0882 -1.30915 3.73734 0
M  V30 1037 H 93.2622 1.4804 4.36372 0
M  V30 1038 H 91.5772 1.18698 3.99124 0
M  V30 1039 H 94.1742 -1.3277 5.17954 0
M  V30 1040 H 94.5172 -2.04656 3.62521 0
M  V30 1041 H 95.0502 -0.381038 3.95971 0
M  V30 1042 H 91.7892 1.33481 6.41766 0
M  V30 1043 H 91.3092 -0.323336 5.98928 0
M  V30 1044 H 92.9882 0.0263105 6.46995 0
M  V30 1045 N 93.1203 -1.57491 0.0584922 0
M  V30 1046 C 94.0523 -2.08916 -0.942694 0
M  V30 1047 C 95.0653 -1.0185 -1.27006 0
M  V30 1048 O 96.2543 -1.29398 -1.22957 0
M  V30 1049 C 93.3543 -2.52341 -2.26224 0
M  V30 1050 C 92.5273 -3.82827 -2.1157 0
M  V30 1051 C 91.5863 -4.12487 -3.26712 0
M  V30 1052 O 90.6123 -4.82295 -3.02292 0
M  V30 1053 N 91.8143 -3.64978 -4.5141 0
M  V30 1054 H 94.5793 -2.95437 -0.503722 0
M  V30 1055 H 92.1403 -1.61397 -0.12757 0
M  V30 1056 H 94.1323 -2.69254 -3.02133 0
M  V30 1057 H 92.7023 -1.7103 -2.61663 0
M  V30 1058 H 91.9223 -3.75425 -1.20208 0
M  V30 1059 H 93.2103 -4.68263 -1.99015 0
M  V30 1060 H 92.6083 -3.08558 -4.7414 0
M  V30 1061 H 91.1653 -3.87115 -5.2439 0
M  V30 1062 N 94.5984 0.214957 -1.56127 0
M  V30 1063 C 95.8464 0.936518 -1.79091 0
M  V30 1064 C 96.1674 1.84606 -0.628148 0
M  V30 1065 O 95.4374 1.92664 0.35462 0
M  V30 1066 H 94.0174 0.3488 -0.660566 0
M  V30 1067 H 96.6794 0.22523 -1.93594 0
M  V30 1068 H 95.7754 1.53943 -2.71492 0
M  V30 1069 N 96.0765 1.50051 0.48192 0
M  V30 1070 C 97.0095 1.62749 1.59963 0
M  V30 1071 C 97.9875 0.475903 1.5548 0
M  V30 1072 O 99.1715 0.693986 1.7526 0
M  V30 1073 C 96.2985 1.60008 2.98522 0
M  V30 1074 C 95.3445 2.80596 3.21198 0
M  V30 1075 S 96.1775 4.42038 3.02262 0
M  V30 1076 C 97.3335 4.41973 4.43182 0
M  V30 1077 H 97.5665 2.57296 1.4895 0
M  V30 1078 H 95.0995 1.39179 0.668477 0
M  V30 1079 H 97.0575 1.59112 3.78409 0
M  V30 1080 H 95.7185 0.667153 3.06933 0
M  V30 1081 H 94.9115 2.74952 4.22395 0
M  V30 1082 H 94.5135 2.79003 2.49065 0
M  V30 1083 H 96.8055 4.14868 5.35622 0
M  V30 1084 H 97.7485 5.43512 4.53873 0
M  V30 1085 H 98.1565 3.71812 4.24755 0
M  V30 1086 N 97.5546 -0.734337 1.39446 0
M  V30 1087 C 98.4866 -1.85861 1.34121 0
M  V30 1088 C 99.4996 -1.60871 0.249864 0
M  V30 1089 O 100.689 -1.71093 0.508865 0
M  V30 1090 C 97.7886 -3.21899 1.05991 0
M  V30 1091 C 96.9616 -3.74239 2.26415 0
M  V30 1092 C 96.0206 -4.88841 1.94733 0
M  V30 1093 O 95.0466 -5.02468 2.67422 0
M  V30 1094 N 96.2486 -5.73261 0.913884 0
M  V30 1095 H 99.0136 -1.90934 2.31007 0
M  V30 1096 H 96.5746 -0.915102 1.33557 0
M  V30 1097 H 98.5666 -3.96136 0.828147 0
M  V30 1098 H 97.1366 -3.12091 0.178361 0
M  V30 1099 H 96.3566 -2.91347 2.65539 0
M  V30 1100 H 97.6446 -4.05942 3.06738 0
M  V30 1101 H 97.0426 -5.64842 0.311476 0
M  V30 1102 H 95.5996 -6.47563 0.742015 0
M  V30 1103 N 99.0327 -1.24633 -0.964593 0
M  V30 1104 C 99.9797 -1.04144 -2.05968 0
M  V30 1105 C 100.95 0.046262 -1.66036 0
M  V30 1106 O 102.135 -0.108972 -1.90489 0
M  V30 1107 C 99.2747 -0.65563 -3.38815 0
M  V30 1108 C 98.3877 -1.81714 -3.91923 0
M  V30 1109 C 97.5227 -1.37662 -5.13052 0
M  V30 1110 C 96.5617 -2.50788 -5.58365 0
M  V30 1111 N 95.6987 -2.07582 -6.70712 0
M  V30 1112 H 100.539 -1.9787 -2.22827 0
M  V30 1113 H 98.0757 -0.9855 -1.09208 0
M  V30 1114 H 100.034 -0.412954 -4.15151 0
M  V30 1115 H 98.6637 0.244627 -3.21872 0
M  V30 1116 H 97.7157 -2.1734 -3.12198 0
M  V30 1117 H 99.0277 -2.66705 -4.21509 0
M  V30 1118 H 98.1817 -1.093 -5.96773 0
M  V30 1119 H 96.9207 -0.497293 -4.85158 0
M  V30 1120 H 95.9257 -2.79906 -4.73215 0
M  V30 1121 H 97.1507 -3.39283 -5.88272 0
M  V30 1122 H 95.0967 -1.22051 -6.44546 0
M  V30 1123 H 95.0137 -2.86125 -6.99763 0
M  V30 1124 H 96.2817 -1.82369 -7.57867 0
M  V30 1125 N 100.511 1.16574 -1.06058 0
M  V30 1126 C 101.758 1.87047 -0.775873 0
M  V30 1127 C 102.086 1.81562 0.697534 0
M  V30 1128 O 101.341 1.22445 1.52662 0
M  V30 1129 C 101.64 3.36195 -1.21275 0
M  V30 1130 C 101.306 3.6188 -2.68986 0
M  V30 1131 C 99.9678 3.68599 -3.09335 0
M  V30 1132 C 102.32 3.72648 -3.64394 0
M  V30 1133 C 99.6478 3.83584 -4.43937 0
M  V30 1134 C 102 3.89154 -4.98741 0
M  V30 1135 C 100.664 3.94114 -5.3873 0
M  V30 1136 H 99.9338 0.684452 -0.283912 0
M  V30 1137 H 102.581 1.37853 -1.32925 0
M  V30 1138 H 100.886 3.87505 -0.578528 0
M  V30 1139 H 102.583 3.89103 -0.969542 0
M  V30 1140 H 99.1728 3.57281 -2.36744 0
M  V30 1141 H 103.357 3.66769 -3.34356 0
M  V30 1142 H 98.6128 3.85677 -4.74409 0
M  V30 1143 H 102.787 3.96427 -5.72554 0
M  V30 1144 H 100.414 4.05478 -6.43033 0
M  V30 1145 N 101.989 0.842826 1.3317 0
M  V30 1146 C 102.919 0.294028 2.31641 0
M  V30 1147 C 103.9 -0.600401 1.59151 0
M  V30 1148 O 105.085 -0.523124 1.87022 0
M  V30 1149 C 102.215 -0.528416 3.43257 0
M  V30 1150 C 101.169 0.27056 4.27144 0
M  V30 1151 C 100.495 -0.675881 5.30411 0
M  V30 1152 C 101.795 1.48981 5.00602 0
M  V30 1153 H 103.489 1.11681 2.77791 0
M  V30 1154 H 101.035 0.538478 1.33553 0
M  V30 1155 H 102.988 -0.922674 4.11175 0
M  V30 1156 H 101.712 -1.38445 2.95805 0
M  V30 1157 H 100.371 0.646427 3.60856 0
M  V30 1158 H 100.019 -1.52842 4.79216 0
M  V30 1159 H 99.7189 -0.145374 5.8742 0
M  V30 1160 H 101.243 -1.06757 6.01195 0
M  V30 1161 H 102.657 1.16849 5.61266 0
M  V30 1162 H 101.054 1.95739 5.6728 0
M  V30 1163 H 102.124 2.25746 4.29147 0
M  V30 1164 N 103.467 -1.45747 0.599634 0
M  V30 1165 C 104.715 -2.01893 0.0915472 0
M  V30 1166 C 105.036 -1.47155 -1.27946 0
M  V30 1167 O 104.306 -0.66273 -1.84349 0
M  V30 1168 H 102.886 -0.746363 0.0308524 0
M  V30 1169 H 105.548 -1.78645 0.779237 0
M  V30 1170 H 104.644 -3.1208 0.0353086 0
M  V30 1171 N 104.945 -0.338344 -1.53925 0
M  V30 1172 C 105.875 0.51328 -2.27789 0
M  V30 1173 C 106.856 1.107 -1.29149 0
M  V30 1174 O 108.041 1.12937 -1.57984 0
M  V30 1175 C 105.171 1.66697 -3.04679 0
M  V30 1176 C 104.125 1.20183 -4.1078 0
M  V30 1177 C 103.451 2.44363 -4.75595 0
M  V30 1178 C 104.751 0.30605 -5.21403 0
M  V30 1179 H 106.445 -0.102883 -2.99223 0
M  V30 1180 H 103.991 -0.0509219 -1.4391 0
M  V30 1181 H 105.944 2.26915 -3.55088 0
M  V30 1182 H 104.668 2.30995 -2.30887 0
M  V30 1183 H 103.327 0.622499 -3.61276 0
M  V30 1184 H 102.975 3.07057 -3.98403 0
M  V30 1185 H 102.675 2.13925 -5.47275 0
M  V30 1186 H 104.199 3.05317 -5.28786 0
M  V30 1187 H 105.613 0.814929 -5.67478 0
M  V30 1188 H 104.01 0.0937929 -6.00027 0
M  V30 1189 H 105.08 -0.65921 -4.80398 0
M  V30 1190 N 106.423 1.57458 -0.0668435 0
M  V30 1191 C 107.333 2.15937 0.916975 0
M  V30 1192 C 108.349 1.12123 1.33058 0
M  V30 1193 O 109.525 1.44366 1.40429 0
M  V30 1194 C 106.59 2.70547 2.16807 0
M  V30 1195 C 105.651 3.89215 1.81135 0
M  V30 1196 C 104.884 4.41211 3.0028 0
M  V30 1197 O 105.107 3.92225 4.14144 0
M  V30 1198 O 104.041 5.32605 2.80384 0
M  V30 1199 H 107.867 3.00354 0.449561 0
M  V30 1200 H 105.452 1.48584 0.155949 0
M  V30 1201 H 107.334 3.0557 2.90181 0
M  V30 1202 H 106.009 1.89192 2.62656 0
M  V30 1203 H 104.916 3.59054 1.05028 0
M  V30 1204 H 106.249 4.71848 1.40073 0
M  V30 1205 N 107.901 -0.206675 1.56239 0
M  V30 1206 C 109.147 -0.930218 1.80208 0
M  V30 1207 C 109.48 -1.83387 0.638981 0
M  V30 1208 O 108.755 -1.91119 -0.361066 0
M  V30 1209 C 109.038 -1.75641 3.1436 0
M  V30 1210 C 108.891 -0.878257 4.41142 0
M  V30 1211 C 110.21 -2.73129 3.45092 0
M  V30 1212 H 107.329 -0.336742 0.655571 0
M  V30 1213 H 109.971 -0.198222 1.88963 0
M  V30 1214 H 108.121 -2.38048 3.07027 0
M  V30 1215 H 109.793 -0.269787 4.6051 0
M  V30 1216 H 108.036 -0.184385 4.33408 0
M  V30 1217 H 108.707 -1.49106 5.3148 0
M  V30 1218 H 111.183 -2.20856 3.52649 0
M  V30 1219 H 110.059 -3.28028 4.40101 0
M  V30 1220 H 110.32 -3.51606 2.68003 0
M  V30 1221 N 109.379 -1.50304 -0.473955 0
M  V30 1222 C 110.607 -1.64902 -1.24959 0
M  V30 1223 C 111.022 -0.331198 -1.85872 0
M  V30 1224 O 110.379 0.68652 -1.69095 0
M  V30 1225 C 110.43 -2.73803 -2.36038 0
M  V30 1226 O 110.151 -4.00477 -1.77624 0
M  V30 1227 C 111.652 -2.99349 -3.26964 0
M  V30 1228 H 108.872 -0.554383 -0.378022 0
M  V30 1229 H 111.416 -1.9651 -0.566054 0
M  V30 1230 H 109.571 -2.44898 -3.00173 0
M  V30 1231 H 109.985 -4.60678 -2.5075 0
M  V30 1232 H 111.459 -3.79217 -4.01121 0
M  V30 1233 H 111.936 -2.10307 -3.85574 0
M  V30 1234 H 112.542 -3.29774 -2.68569 0
M  V30 1235 N 110.857 0.726932 -1.39834 0
M  V30 1236 C 112.105 1.4837 -1.37225 0
M  V30 1237 C 112.426 1.94979 0.0284857 0
M  V30 1238 O 111.696 1.69555 0.981213 0
M  V30 1239 H 110.276 0.55043 -0.505011 0
M  V30 1240 H 112.938 0.862468 -1.74778 0
M  V30 1241 H 112.034 2.36198 -2.04003 0
M  V30 1242 N 112.336 1.25143 0.95797 0
M  V30 1243 C 113.283 1.05235 2.05412 0
M  V30 1244 C 114.253 -0.0374561 1.66058 0
M  V30 1245 O 115.438 0.119073 1.90428 0
M  V30 1246 C 112.578 0.673589 3.38462 0
M  V30 1247 C 111.691 1.8379 3.90954 0
M  V30 1248 C 110.826 1.40381 5.12315 0
M  V30 1249 C 109.865 2.53746 5.57027 0
M  V30 1250 N 109.002 2.11136 6.69601 0
M  V30 1251 H 113.842 1.99048 2.21774 0
M  V30 1252 H 111.379 0.991277 1.08683 0
M  V30 1253 H 113.337 0.434964 4.14926 0
M  V30 1254 H 111.967 -0.227554 3.21997 0
M  V30 1255 H 111.019 2.18992 3.11041 0
M  V30 1256 H 112.331 2.68937 4.20089 0
M  V30 1257 H 111.485 1.12464 5.96185 0
M  V30 1258 H 110.224 0.523015 4.84887 0
M  V30 1259 H 109.229 2.82412 4.71724 0
M  V30 1260 H 110.454 3.42398 5.86464 0
M  V30 1261 H 108.4 1.25468 6.4389 0
M  V30 1262 H 108.317 2.89832 6.98236 0
M  V30 1263 H 109.585 1.86385 7.56889 0
M  V30 1264 N 113.814 -1.1601 1.06675 0
M  V30 1265 C 114.744 -2.22688 0.702307 0
M  V30 1266 C 115.725 -1.67306 -0.307032 0
M  V30 1267 O 116.91 -1.93352 -0.181305 0
M  V30 1268 C 114.04 -3.47178 0.092038 0
M  V30 1269 C 112.994 -4.15477 1.02777 0
M  V30 1270 C 112.32 -5.33963 0.28061 0
M  V30 1271 C 113.62 -4.66019 2.35846 0
M  V30 1272 H 115.314 -2.53429 1.59419 0
M  V30 1273 H 112.86 -1.21813 0.767961 0
M  V30 1274 H 114.813 -4.21037 -0.174814 0
M  V30 1275 H 113.537 -3.15749 -0.834877 0
M  V30 1276 H 112.196 -3.43549 1.27944 0
M  V30 1277 H 111.844 -4.98788 -0.649545 0
M  V30 1278 H 111.544 -5.806 0.904258 0
M  V30 1279 H 113.068 -6.10596 0.021396 0
M  V30 1280 H 114.482 -5.3144 2.15045 0
M  V30 1281 H 112.879 -5.23293 2.93743 0
M  V30 1282 H 113.949 -3.82023 2.98641 0
M  V30 1283 N 115.292 -0.849877 -1.32721 0
M  V30 1284 C 116.569 -0.372405 -1.92022 0
M  V30 1285 C 116.949 1.1435 -1.77447 0
M  V30 1286 O 116.297 1.96296 -1.16962 0
M  V30 1287 C 116.507 -0.831482 -3.3895 0
M  V30 1288 C 117.855 -0.845882 -4.16089 0
M  V30 1289 O 118.879 -0.775806 -3.47649 0
M  V30 1290 O 117.738 -0.943753 -5.38289 0
M  V30 1291 H 114.832 -0.107667 -0.819961 0
M  V30 1292 H 117.378 -0.93646 -1.41522 0
M  V30 1293 H 116.15 -1.87448 -3.4348 0
M  V30 1294 H 115.773 -0.24461 -3.96847 0
M  V30 1295 N 116.77 1.45427 -0.607355 0
M  V30 1296 C 117.998 2.06614 -0.108814 0
M  V30 1297 C 118.413 1.45204 1.2067 0
M  V30 1298 O 117.77 0.566132 1.73497 0
M  V30 1299 C 117.821 3.61481 0.0375347 0
M  V30 1300 O 117.542 4.20598 -1.22593 0
M  V30 1301 C 119.043 4.39652 0.567561 0
M  V30 1302 H 116.263 0.66747 -0.0687351 0
M  V30 1303 H 118.807 1.86675 -0.835022 0
M  V30 1304 H 116.962 3.80762 0.714068 0
M  V30 1305 H 117.376 5.1377 -1.05547 0
M  V30 1306 H 118.85 5.48518 0.61905 0
M  V30 1307 H 119.327 4.09417 1.58978 0
M  V30 1308 H 119.933 4.25234 -0.0749202 0
M  V30 1309 N 118.248 0.346503 1.53744 0
M  V30 1310 C 119.525 -0.304532 1.93215 0
M  V30 1311 C 119.905 -1.67993 1.27834 0
M  V30 1312 O 119.253 -2.24411 0.430352 0
M  V30 1313 C 119.463 -0.373852 3.46992 0
M  V30 1314 C 120.811 -0.62329 4.2 0
M  V30 1315 O 121.835 -0.455847 3.53271 0
M  V30 1316 O 120.694 -0.947879 5.38217 0
M  V30 1317 H 117.788 -0.178318 0.807547 0
M  V30 1318 H 120.334 0.397895 1.64969 0
M  V30 1319 H 119.106 0.591224 3.86808 0
M  V30 1320 H 118.729 -1.12294 3.81413 0
M  V30 1321 N 119.726 -1.57421 0.075193 0
M  V30 1322 C 120.954 -1.97946 -0.602076 0
M  V30 1323 C 121.369 -0.953674 -1.62943 0
M  V30 1324 O 120.726 0.0592551 -1.82404 0
M  V30 1325 C 120.777 -3.38546 -1.26762 0
M  V30 1326 O 120.498 -4.37195 -0.281376 0
M  V30 1327 C 121.999 -3.93966 -2.03239 0
M  V30 1328 H 119.219 -0.650918 -0.162931 0
M  V30 1329 H 121.763 -2.03959 0.148601 0
M  V30 1330 H 119.918 -3.33609 -1.96936 0
M  V30 1331 H 120.332 -5.18975 -0.759267 0
M  V30 1332 H 121.806 -4.94555 -2.45193 0
M  V30 1333 H 122.283 -3.30693 -2.8903 0
M  V30 1334 H 122.889 -4.02315 -1.37924 0
M  V30 1335 N 121.204 0.198386 -1.56346 0
M  V30 1336 C 122.134 1.24865 -1.9731 0
M  V30 1337 C 123.115 1.47651 -0.844576 0
M  V30 1338 O 124.3 1.59444 -1.10866 0
M  V30 1339 C 121.43 2.59358 -2.30977 0
M  V30 1340 C 120.384 2.5119 -3.46537 0
M  V30 1341 C 119.71 3.89926 -3.65871 0
M  V30 1342 C 121.01 2.03977 -4.80823 0
M  V30 1343 H 122.704 0.908252 -2.85291 0
M  V30 1344 H 120.25 0.435462 -1.37258 0
M  V30 1345 H 122.203 3.33011 -2.58228 0
M  V30 1346 H 120.927 2.95132 -1.39874 0
M  V30 1347 H 119.586 1.79993 -3.19371 0
M  V30 1348 H 119.234 4.23046 -2.72105 0
M  V30 1349 H 118.934 3.85336 -4.4361 0
M  V30 1350 H 120.458 4.65205 -3.95495 0
M  V30 1351 H 121.872 2.67386 -5.07127 0
M  V30 1352 H 120.269 2.10397 -5.62008 0
M  V30 1353 H 121.339 0.992861 -4.74626 0
M  V30 1354 N 122.682 1.50554 0.465978 0
M  V30 1355 C 123.592 1.72585 1.58907 0
M  V30 1356 C 124.608 0.60911 1.6299 0
M  V30 1357 O 125.784 0.88804 1.80765 0
M  V30 1358 C 122.849 1.81995 2.95091 0
M  V30 1359 C 121.91 3.05751 3.01355 0
M  V30 1360 C 121.143 3.14702 4.31043 0
M  V30 1361 O 121.366 2.30313 5.21835 0
M  V30 1362 O 120.3 4.07468 4.43005 0
M  V30 1363 H 124.126 2.67799 1.43239 0
M  V30 1364 H 121.711 1.34711 0.646013 0
M  V30 1365 H 123.593 1.90335 3.75966 0
M  V30 1366 H 122.268 0.899659 3.10947 0
M  V30 1367 H 121.175 3.02908 2.19539 0
M  V30 1368 H 122.508 3.97375 2.90437 0
M  V30 1369 N 124.16 -0.719506 1.40217 0
M  V30 1370 C 125.406 -1.48152 1.38488 0
M  V30 1371 C 125.739 -1.94195 -0.0141867 0
M  V30 1372 O 125.014 -1.67884 -0.982096 0
M  V30 1373 C 125.297 -2.71035 2.37091 0
M  V30 1374 C 125.15 -2.30912 3.86005 0
M  V30 1375 C 126.469 -3.73182 2.33288 0
M  V30 1376 H 123.588 -0.537395 0.504357 0
M  V30 1377 H 126.23 -0.821472 1.71324 0
M  V30 1378 H 124.38 -3.27352 2.0922 0
M  V30 1379 H 126.052 -1.80107 4.24687 0
M  V30 1380 H 124.295 -1.62958 4.02029 0
M  V30 1381 H 124.966 -3.18978 4.50508 0
M  V30 1382 H 127.442 -3.26485 2.57966 0
M  V30 1383 H 126.318 -4.56806 3.04334 0
M  V30 1384 H 126.579 -4.21202 1.34317 0
M  V30 1385 N 125.638 -1.25649 -0.95132 0
M  V30 1386 C 126.571 -1.00644 -2.04807 0
M  V30 1387 C 127.549 0.0654271 -1.62468 0
M  V30 1388 O 128.733 -0.074911 -1.88351 0
M  V30 1389 C 125.86 -0.522052 -3.34653 0
M  V30 1390 C 124.906 -1.58495 -3.95957 0
M  V30 1391 S 125.739 -3.17108 -4.31512 0
M  V30 1392 C 126.895 -2.70412 -5.64471 0
M  V30 1393 H 127.128 -1.93508 -2.25703 0
M  V30 1394 H 124.661 -1.09216 -1.09139 0
M  V30 1395 H 126.619 -0.24923 -4.09743 0
M  V30 1396 H 125.28 0.386146 -3.11717 0
M  V30 1397 H 124.473 -1.1968 -4.89584 0
M  V30 1398 H 124.075 -1.80862 -3.2736 0
M  V30 1399 H 126.367 -2.14245 -6.42733 0
M  V30 1400 H 127.31 -3.62693 -6.08161 0
M  V30 1401 H 127.718 -2.10302 -5.23864 0
M  V30 1402 N 127.117 1.15442 -1.07289 0
M  V30 1403 C 128.533 1.38201 -0.798288 0
M  V30 1404 C 128.733 1.92429 0.597769 0
M  V30 1405 O 127.789 2.12962 1.3566 0
M  V30 1406 C 129.102 2.35357 -1.87156 0
M  V30 1407 C 130.65 2.49021 -1.89624 0
M  V30 1408 C 131.125 3.49468 -2.96034 0
M  V30 1409 N 132.616 3.57003 -2.95132 0
M  V30 1410 C 133.351 4.34543 -3.74112 0
M  V30 1411 N 132.847 5.15421 -4.6294 0
M  V30 1412 N 134.64 4.29625 -3.62462 0
M  V30 1413 H 126.791 0.78584 -1.97328 0
M  V30 1414 H 129.054 0.408065 -0.855679 0
M  V30 1415 H 128.76 2.02626 -2.87464 0
M  V30 1416 H 128.634 3.35129 -1.73114 0
M  V30 1417 H 131.021 2.81051 -0.899687 0
M  V30 1418 H 131.102 1.4925 -2.07745 0
M  V30 1419 H 130.746 3.18173 -3.95889 0
M  V30 1420 H 130.676 4.48992 -2.75161 0
M  V30 1421 H 133.167 2.99276 -2.30743 0
M  V30 1422 H 133.48 5.7183 -5.19837 0
M  V30 1423 H 131.825 5.14729 -4.66989 0
M  V30 1424 H 135.016 3.65505 -2.92444 0
M  V30 1425 H 135.189 4.89807 -4.24256 0
M  V30 1426 N 128.595 0.856903 1.32268 0
M  V30 1427 C 129.542 0.301172 2.28827 0
M  V30 1428 C 130.512 -0.593104 1.5515 0
M  V30 1429 O 131.697 -0.527537 1.83362 0
M  V30 1430 C 128.837 -0.502523 3.41422 0
M  V30 1431 C 127.95 0.417797 4.29975 0
M  V30 1432 C 127.085 -0.398749 5.29701 0
M  V30 1433 C 126.124 0.518827 6.09897 0
M  V30 1434 N 125.261 -0.260674 7.01616 0
M  V30 1435 H 130.101 1.12983 2.75751 0
M  V30 1436 H 127.638 0.568582 1.35667 0
M  V30 1437 H 129.596 -0.984141 4.05426 0
M  V30 1438 H 128.226 -1.29599 2.95642 0
M  V30 1439 H 127.278 1.01781 3.66531 0
M  V30 1440 H 128.59 1.12191 4.86019 0
M  V30 1441 H 127.744 -0.943435 5.9932 0
M  V30 1442 H 126.483 -1.13622 4.7428 0
M  V30 1443 H 125.488 1.07538 5.39181 0
M  V30 1444 H 126.713 1.25495 6.67404 0
M  V30 1445 H 124.659 -0.981198 6.4862 0
M  V30 1446 H 124.576 0.384364 7.55022 0
M  V30 1447 H 125.844 -0.787014 7.75517 0
M  V30 1448 N 130.073 -1.45103 0.615059 0
M  V30 1449 C 131.484 -1.85654 0.197383 0
M  V30 1450 C 131.835 -1.51433 -1.24749 0
M  V30 1451 O 130.96 -0.944608 -1.94695 0
M  V30 1452 C 131.555 -3.36972 0.351448 0
M  V30 1453 C 130.114 -3.76398 -0.011593 0
M  V30 1454 C 129.261 -2.69024 0.672394 0
M  V30 1455 H 132.212 -1.35797 0.821263 0
M  V30 1456 H 132.233 -3.78239 -0.414227 0
M  V30 1457 H 131.745 -3.61847 1.40314 0
M  V30 1458 H 129.846 -3.5714 -1.06217 0
M  V30 1459 H 129.959 -4.77532 0.387265 0
M  V30 1460 H 128.323 -2.54465 0.109284 0
M  V30 1461 H 129.106 -2.96735 1.72636 0
M  V30 1462 N 131.551 -0.354651 -1.53558 0
M  V30 1463 C 132.967 -0.00315426 -1.596 0
M  V30 1464 C 133.167 1.47741 -1.37021 0
M  V30 1465 O 132.223 2.23759 -1.16996 0
M  V30 1466 C 133.536 -0.44929 -2.97325 0
M  V30 1467 C 135.084 -0.402578 -3.104 0
M  V30 1468 C 135.559 -0.824355 -4.5052 0
M  V30 1469 N 137.05 -0.778979 -4.56603 0
M  V30 1470 C 137.785 -1.07715 -5.63192 0
M  V30 1471 N 137.281 -1.44405 -6.77583 0
M  V30 1472 N 139.074 -1.00066 -5.53121 0
M  V30 1473 H 131.225 -1.31893 -1.66487 0
M  V30 1474 H 133.488 -0.538388 -0.780284 0
M  V30 1475 H 133.194 -1.48202 -3.1895 0
M  V30 1476 H 133.068 0.169772 -3.76818 0
M  V30 1477 H 135.455 0.621004 -2.88492 0
M  V30 1478 H 135.536 -1.05699 -2.32941 0
M  V30 1479 H 135.18 -1.846 -4.73165 0
M  V30 1480 H 135.11 -0.147304 -5.26394 0
M  V30 1481 H 137.601 -0.508528 -3.74463 0
M  V30 1482 H 137.914 -1.65612 -7.54846 0
M  V30 1483 H 136.259 -1.4826 -6.79002 0
M  V30 1484 H 139.45 -0.713293 -4.62633 0
M  V30 1485 H 139.623 -1.23638 -6.36096 0
M  V30 1486 N 133.029 1.57378 -0.0835403 0
M  V30 1487 C 134.269 1.95808 0.586381 0
M  V30 1488 C 134.633 0.963706 1.66062 0
M  V30 1489 O 135.834 1.23608 2.38693 0
M  V30 1490 C 134.105 3.38808 1.13771 0
M  V30 1491 S 135.664 3.99225 1.82112 0
M  V30 1492 H 132.482 0.684675 0.191679 0
M  V30 1493 H 135.084 1.94843 -0.160194 0
M  V30 1494 H 133.788 4.08954 0.344197 0
M  V30 1495 H 133.319 3.43344 1.92038 0
M  V30 1496 H 135.334 3.87087 3.10449 0
M  V30 1497 N 134.507 -0.190092 1.56449 0
M  V30 1498 C 135.755 -0.907908 1.80559 0
M  V30 1499 C 136.076 -1.83583 0.657438 0
M  V30 1500 O 135.346 -1.93203 -0.323924 0
M  V30 1501 H 133.926 -0.338247 0.666032 0
M  V30 1502 H 136.588 -0.194403 1.93928 0
M  V30 1503 H 135.684 -1.49604 2.73907 0
M  V30 1504 N 135.985 -1.50799 -0.457987 0
M  V30 1505 C 137.231 -1.62683 -1.21088 0
M  V30 1506 C 137.564 -0.332268 -1.91336 0
M  V30 1507 O 136.839 0.667043 -1.82704 0
M  V30 1508 C 137.122 -2.81615 -2.24422 0
M  V30 1509 C 136.975 -4.20989 -1.58392 0
M  V30 1510 C 138.294 -2.96085 -3.2561 0
M  V30 1511 H 135.413 -0.592087 -0.438864 0
M  V30 1512 H 138.055 -1.83225 -0.50286 0
M  V30 1513 H 136.205 -2.64231 -2.84806 0
M  V30 1514 H 137.877 -4.49994 -1.01504 0
M  V30 1515 H 136.12 -4.24641 -0.886704 0
M  V30 1516 H 136.791 -5.0016 -2.33547 0
M  V30 1517 H 139.267 -3.12042 -2.75262 0
M  V30 1518 H 138.143 -3.80902 -3.95228 0
M  V30 1519 H 138.404 -2.0726 -3.90507 0
M  V30 1520 N 137.463 0.71206 -1.40597 0
M  V30 1521 C 138.874 1.29135 -1.34837 0
M  V30 1522 C 139.225 1.96186 -0.0235395 0
M  V30 1523 O 138.35 1.97768 0.878444 0
M  V30 1524 C 138.945 2.34827 -2.44217 0
M  V30 1525 C 137.504 2.88371 -2.41907 0
M  V30 1526 C 136.651 1.62202 -2.24913 0
M  V30 1527 H 139.602 0.507944 -1.50352 0
M  V30 1528 H 139.623 3.15749 -2.12327 0
M  V30 1529 H 139.135 1.85996 -3.40627 0
M  V30 1530 H 137.236 3.41422 -1.49204 0
M  V30 1531 H 137.349 3.39925 -3.37621 0
M  V30 1532 H 135.713 1.874 -1.72492 0
M  V30 1533 H 136.496 1.15391 -3.23326 0
M  V30 1534 N 138.941 1.26152 0.944643 0
M  V30 1535 C 140.218 1.02247 1.66748 0
M  V30 1536 C 140.598 -0.448202 2.06287 0
M  V30 1537 O 139.946 -1.42779 1.78399 0
M  V30 1538 C 140.156 1.96788 2.88228 0
M  V30 1539 C 141.504 2.25201 3.59958 0
M  V30 1540 O 142.528 1.94626 2.98327 0
M  V30 1541 O 141.387 2.77242 4.70956 0
M  V30 1542 H 138.481 0.388517 0.730057 0
M  V30 1543 H 141.027 1.37348 0.99668 0
M  V30 1544 H 139.799 2.96047 2.55875 0
M  V30 1545 H 139.422 1.62145 3.63035 0
M  V30 1546 N 140.419 -1.14872 1.07899 0
M  V30 1547 C 141.665 -1.86064 0.806725 0
M  V30 1548 C 141.998 -1.82434 -0.665706 0
M  V30 1549 O 141.273 -1.25138 -1.48899 0
M  V30 1550 C 141.556 -3.34929 1.32267 0
M  V30 1551 C 141.409 -3.47161 2.86006 0
M  V30 1552 C 142.728 -4.29863 0.943717 0
M  V30 1553 H 139.847 -0.675591 0.294526 0
M  V30 1554 H 142.489 -1.34925 1.33773 0
M  V30 1555 H 140.639 -3.78611 0.870974 0
M  V30 1556 H 142.311 -3.12302 3.39507 0
M  V30 1557 H 140.554 -2.88539 3.23925 0
M  V30 1558 H 141.225 -4.51777 3.17177 0
M  V30 1559 H 143.701 -3.9417 1.33302 0
M  V30 1560 H 142.577 -5.32494 1.33198 0
M  V30 1561 H 142.838 -4.41846 -0.149796 0
M  V30 1562 N 141.898 -0.863906 -1.31812 0
M  V30 1563 C 143.146 -0.470904 -1.96537 0
M  V30 1564 C 143.467 0.978771 -1.68657 0
M  V30 1565 O 142.737 1.6853 -0.998717 0
M  V30 1566 H 141.317 -0.171148 -0.72713 0
M  V30 1567 H 143.979 -1.10236 -1.60729 0
M  V30 1568 H 143.075 -0.623616 -3.05806 0
M  V30 1569 N 143.376 1.44774 -0.622745 0
M  V30 1570 C 144.326 2.2774 0.108889 0
M  V30 1571 C 145.31 1.38189 0.824175 0
M  V30 1572 O 146.502 1.62063 0.711664 0
M  V30 1573 C 143.631 3.25353 1.09546 0
M  V30 1574 C 142.717 4.22392 0.380232 0
M  V30 1575 N 143.108 5.02388 -0.586535 0
M  V30 1576 C 141.406 4.41588 0.625792 0
M  V30 1577 C 142.107 5.72894 -1.00834 0
M  V30 1578 N 141.083 5.42479 -0.348878 0
M  V30 1579 H 144.885 2.86993 -0.63341 0
M  V30 1580 H 142.399 1.5611 -0.447589 0
M  V30 1581 H 144.396 3.83538 1.63414 0
M  V30 1582 H 143.056 2.6766 1.83815 0
M  V30 1583 H 144.067 5.0885 -0.963975 0
M  V30 1584 H 140.744 3.95003 1.352 0
M  V30 1585 H 142.134 6.47158 -1.80656 0
M  V30 1586 N 144.854 0.36279 1.53368 0
M  V30 1587 C 146.101 -0.227776 2.01215 0
M  V30 1588 C 146.429 -1.49003 1.25014 0
M  V30 1589 O 145.684 -1.92876 0.331236 0
M  V30 1590 C 145.983 -0.568417 3.52851 0
M  V30 1591 C 145.649 0.59918 4.46901 0
M  V30 1592 C 144.311 0.919559 4.72332 0
M  V30 1593 C 146.663 1.38156 5.02556 0
M  V30 1594 C 143.991 2.02434 5.5067 0
M  V30 1595 C 146.343 2.47674 5.821 0
M  V30 1596 C 145.007 2.8025 6.05819 0
M  V30 1597 H 144.277 -0.083349 0.736297 0
M  V30 1598 H 146.924 0.494677 1.85001 0
M  V30 1599 H 145.229 -1.37185 3.66998 0
M  V30 1600 H 146.926 -1.03756 3.87344 0
M  V30 1601 H 143.516 0.339437 4.27254 0
M  V30 1602 H 147.7 1.14729 4.82857 0
M  V30 1603 H 142.956 2.28075 5.67267 0
M  V30 1604 H 147.13 3.08716 6.24234 0
M  V30 1605 H 144.757 3.65979 6.66306 0
M  V30 1606 N 146.332 -1.57332 0.0918853 0
M  V30 1607 C 147.557 -1.98995 -0.584442 0
M  V30 1608 C 147.982 -0.970528 -1.61128 0
M  V30 1609 O 147.34 0.0613904 -1.81196 0
M  V30 1610 C 147.388 -3.39636 -1.21161 0
M  V30 1611 O 146.492 -3.40447 -2.32744 0
M  V30 1612 H 145.833 -0.647165 -0.148572 0
M  V30 1613 H 148.363 -2.03873 0.172347 0
M  V30 1614 H 148.373 -3.7726 -1.55367 0
M  V30 1615 H 147.048 -4.13356 -0.459313 0
M  V30 1616 H 145.625 -3.14614 -2.0018 0
M  V30 1617 N 147.81 0.181792 -1.56548 0
M  V30 1618 C 149.035 0.920019 -1.85877 0
M  V30 1619 C 149.46 1.75494 -0.677021 0
M  V30 1620 O 148.818 1.77399 0.374056 0
M  V30 1621 C 148.866 1.78112 -3.13542 0
M  V30 1622 O 147.97 2.88152 -2.95029 0
M  V30 1623 H 147.311 0.258334 -0.611686 0
M  V30 1624 H 149.841 0.183092 -2.03779 0
M  V30 1625 H 149.851 2.18314 -3.44678 0
M  V30 1626 H 148.526 1.16777 -3.99169 0
M  V30 1627 H 147.103 2.51609 -2.75222 0
M  V30 1628 N 149.288 1.51039 0.449983 0
M  V30 1629 C 150.535 1.63081 1.20045 0
M  V30 1630 C 150.863 0.341024 1.91487 0
M  V30 1631 O 150.118 -0.674276 1.83717 0
M  V30 1632 C 150.417 2.77556 2.25161 0
M  V30 1633 C 150.083 4.17289 1.70823 0
M  V30 1634 C 148.745 4.55305 1.55725 0
M  V30 1635 C 151.097 5.04536 1.3074 0
M  V30 1636 C 148.425 5.78287 0.989999 0
M  V30 1637 C 150.777 6.28085 0.754482 0
M  V30 1638 C 149.441 6.64885 0.590308 0
M  V30 1639 H 148.711 0.596755 0.439277 0
M  V30 1640 H 151.358 1.85037 0.49333 0
M  V30 1641 H 149.663 2.49771 3.01863 0
M  V30 1642 H 151.36 2.84073 2.83026 0
M  V30 1643 H 147.95 3.8731 1.83546 0
M  V30 1644 H 152.134 4.75782 1.41229 0
M  V30 1645 H 147.39 6.05456 0.850451 0
M  V30 1646 H 151.564 6.95038 0.435324 0
M  V30 1647 H 149.191 7.60055 0.14862 0
M  V30 1648 N 150.766 -0.704594 1.40972 0
M  V30 1649 C 152.177 -1.28418 1.3552 0
M  V30 1650 C 152.528 -1.96171 0.0339434 0
M  V30 1651 O 151.653 -1.98231 -0.867944 0
M  V30 1652 C 152.248 -2.33528 2.45459 0
M  V30 1653 C 150.807 -2.87085 2.43433 0
M  V30 1654 C 149.954 -1.61007 2.2577 0
M  V30 1655 H 152.905 -0.499963 1.50619 0
M  V30 1656 H 152.926 -3.14619 2.13998 0
M  V30 1657 H 152.438 -1.84187 3.41609 0
M  V30 1658 H 150.539 -3.40626 1.51013 0
M  V30 1659 H 150.652 -3.3813 3.39419 0
M  V30 1660 H 149.016 -1.86482 1.73483 0
M  V30 1661 H 149.799 -1.13675 3.23933 0
M  V30 1662 N 152.244 -1.26651 -0.937939 0
M  V30 1663 C 153.492 -1.12165 -1.68118 0
M  V30 1664 C 153.813 0.334983 -1.92101 0
M  V30 1665 O 153.083 1.23583 -1.52 0
M  V30 1666 H 151.663 -0.412093 -0.623048 0
M  V30 1667 H 154.325 -1.59027 -1.12678 0
M  V30 1668 H 153.421 -1.64289 -2.6536 0
M  V30 1669 N 153.722 1.14298 -1.08507 0
M  V30 1670 C 154.655 2.18447 -0.660004 0
M  V30 1671 C 155.633 1.59242 0.328749 0
M  V30 1672 O 156.817 1.87062 0.232367 0
M  V30 1673 C 153.944 3.38688 0.0290807 0
M  V30 1674 C 152.99 4.1646 -0.919982 0
M  V30 1675 S 153.823 4.77334 -2.42718 0
M  V30 1676 C 154.979 6.00931 -1.75024 0
M  V30 1677 H 155.212 2.54166 -1.54231 0
M  V30 1678 H 152.745 1.25446 -0.900149 0
M  V30 1679 H 154.703 4.08342 0.420378 0
M  V30 1680 H 153.364 3.01289 0.887895 0
M  V30 1681 H 152.557 5.02529 -0.384751 0
M  V30 1682 H 152.159 3.52414 -1.25223 0
M  V30 1683 H 154.451 6.69017 -1.06877 0
M  V30 1684 H 155.394 6.59044 -2.58971 0
M  V30 1685 H 155.802 5.51089 -1.22317 0
M  V30 1686 N 155.201 0.870884 1.31352 0
M  V30 1687 C 156.612 0.534714 1.78879 0
M  V30 1688 C 156.963 -0.948423 1.71754 0
M  V30 1689 O 156.088 -1.74055 1.28584 0
M  V30 1690 C 156.683 0.963839 3.24801 0
M  V30 1691 C 155.242 0.679311 3.70219 0
M  V30 1692 C 154.389 1.15465 2.52117 0
M  V30 1693 H 157.34 1.05651 1.18421 0
M  V30 1694 H 157.361 0.286892 3.79417 0
M  V30 1695 H 156.873 2.04332 3.29955 0
M  V30 1696 H 154.974 -0.388769 3.70566 0
M  V30 1697 H 155.087 1.25698 4.62317 0
M  V30 1698 H 153.451 0.574383 2.48139 0
M  V30 1699 H 154.234 2.24157 2.60016 0
M  V30 1700 N 156.679 -1.44442 0.630414 0
M  V30 1701 C 157.626 -2.30678 -0.0749355 0
M  V30 1702 C 158.596 -1.4344 -0.837502 0
M  V30 1703 O 159.781 -1.72343 -0.818684 0
M  V30 1704 C 156.921 -3.28706 -1.05103 0
M  V30 1705 C 156.034 -4.31046 -0.286954 0
M  V30 1706 C 155.169 -5.16167 -1.2548 0
M  V30 1707 C 154.208 -6.10216 -0.479843 0
M  V30 1708 N 153.345 -6.88039 -1.39811 0
M  V30 1709 H 158.185 -2.90454 0.666386 0
M  V30 1710 H 155.722 -1.43107 0.340404 0
M  V30 1711 H 157.68 -3.84027 -1.63031 0
M  V30 1712 H 156.31 -2.70632 -1.75949 0
M  V30 1713 H 155.362 -3.78203 0.408243 0
M  V30 1714 H 156.674 -4.97794 0.316657 0
M  V30 1715 H 155.828 -5.76002 -1.90544 0
M  V30 1716 H 154.567 -4.49491 -1.89233 0
M  V30 1717 H 153.572 -5.49491 0.184295 0
M  V30 1718 H 154.797 -6.78928 0.152965 0
M  V30 1719 H 152.743 -6.24032 -2.02287 0
M  V30 1720 H 152.66 -7.51223 -0.848508 0
M  V30 1721 H 153.928 -7.52397 -2.03762 0
M  V30 1722 N 158.157 -0.370918 -1.53173 0
M  V30 1723 C 159.403 0.209976 -2.02313 0
M  V30 1724 C 159.758 1.45987 -1.25322 0
M  V30 1725 O 159.051 1.8856 -0.339965 0
M  V30 1726 C 159.245 0.549696 -3.53147 0
M  V30 1727 C 159.074 -0.665721 -4.44745 0
M  V30 1728 C 157.844 -1.17942 -4.91343 0
M  V30 1729 C 160.042 -1.53255 -4.90935 0
M  V30 1730 N 158.024 -2.35431 -5.66962 0
M  V30 1731 C 159.395 -2.55403 -5.64951 0
M  V30 1732 C 161.45 -1.5548 -4.73002 0
M  V30 1733 C 160.153 -3.5964 -6.22938 0
M  V30 1734 C 162.179 -2.58613 -5.31858 0
M  V30 1735 C 161.541 -3.59485 -6.05764 0
M  V30 1736 H 157.64 0.0394095 -0.781006 0
M  V30 1737 H 160.224 -0.516666 -1.8772 0
M  V30 1738 H 158.395 1.24541 -3.67891 0
M  V30 1739 H 160.127 1.11614 -3.89004 0
M  V30 1740 H 156.882 -0.743228 -4.67732 0
M  V30 1741 H 157.306 -2.94827 -6.09431 0
M  V30 1742 H 161.948 -0.788457 -4.15383 0
M  V30 1743 H 159.666 -4.37153 -6.79649 0
M  V30 1744 H 163.252 -2.61195 -5.19873 0
M  V30 1745 H 162.132 -4.3798 -6.50495 0
M  V30 1746 N 159.635 1.57281 -0.100228 0
M  V30 1747 C 161.051 1.57527 0.256416 0
M  V30 1748 C 161.251 1.11173 1.68056 0
M  V30 1749 O 160.307 0.79053 2.39806 0
M  V30 1750 C 161.62 3.00673 0.0401747 0
M  V30 1751 C 163.168 3.12815 0.107528 0
M  V30 1752 C 163.643 4.57929 -0.0807834 0
M  V30 1753 N 165.134 4.63193 -0.0261207 0
M  V30 1754 C 165.869 5.73212 -0.146999 0
M  V30 1755 N 165.365 6.92047 -0.322999 0
M  V30 1756 N 167.158 5.62031 -0.0879044 0
M  V30 1757 H 159.309 1.85718 -1.03065 0
M  V30 1758 H 161.572 0.857446 -0.404339 0
M  V30 1759 H 161.278 3.38804 -0.943649 0
M  V30 1760 H 161.152 3.69042 0.780262 0
M  V30 1761 H 163.539 2.74554 1.08186 0
M  V30 1762 H 163.62 2.47028 -0.664134 0
M  V30 1763 H 163.264 4.96886 -1.05201 0
M  V30 1764 H 163.194 5.21783 0.710635 0
M  V30 1765 H 165.685 3.77748 0.107161 0
M  V30 1766 H 165.998 7.7173 -0.406608 0
M  V30 1767 H 164.343 6.94074 -0.358733 0
M  V30 1768 H 167.534 4.68075 0.048498 0
M  V30 1769 H 167.707 6.47734 -0.185557 0
M  V30 1770 N 161.113 -0.173488 1.56642 0
M  V30 1771 C 162.06 -1.21482 1.96242 0
M  V30 1772 C 163.03 -1.44104 0.826027 0
M  V30 1773 O 164.215 -1.5688 1.08597 0
M  V30 1774 C 161.355 -2.54964 2.32567 0
M  V30 1775 C 160.468 -2.39739 3.59373 0
M  V30 1776 C 159.603 -3.66072 3.84921 0
M  V30 1777 C 158.642 -3.45771 5.05083 0
M  V30 1778 N 157.779 -4.64169 5.26775 0
M  V30 1779 H 162.619 -0.870123 2.85014 0
M  V30 1780 H 160.156 -0.418245 1.41029 0
M  V30 1781 H 162.114 -3.32758 2.5165 0
M  V30 1782 H 160.744 -2.87433 1.46908 0
M  V30 1783 H 159.796 -1.53131 3.48217 0
M  V30 1784 H 161.108 -2.20683 4.47326 0
M  V30 1785 H 160.262 -4.52303 4.0436 0
M  V30 1786 H 159.001 -3.88105 2.9534 0
M  V30 1787 H 158.006 -2.57927 4.85545 0
M  V30 1788 H 159.231 -3.25163 5.96193 0
M  V30 1789 H 157.177 -4.86425 4.40144 0
M  V30 1790 H 157.094 -4.48019 6.08946 0
M  V30 1791 H 158.362 -5.51689 5.5069 0
M  V30 1792 N 162.591 -1.51276 -0.441967 0
M  V30 1793 C 163.819 -1.67516 -1.21434 0
M  V30 1794 C 164.234 -0.37055 -1.85128 0
M  V30 1795 O 163.591 0.650498 -1.70513 0
M  V30 1796 C 163.642 -2.78748 -2.30177 0
M  V30 1797 O 163.363 -4.04154 -1.69089 0
M  V30 1798 C 164.864 -3.06217 -3.20541 0
M  V30 1799 H 162.084 -0.562276 -0.366178 0
M  V30 1800 H 164.628 -1.97666 -0.524244 0
M  V30 1801 H 162.783 -2.5121 -2.94911 0
M  V30 1802 H 163.197 -4.65894 -2.40922 0
M  V30 1803 H 164.671 -3.8764 -3.92987 0
M  V30 1804 H 165.148 -2.18439 -3.81026 0
M  V30 1805 H 165.754 -3.35397 -2.61513 0
M  V30 1806 N 164.069 0.697108 -1.41344 0
M  V30 1807 C 165.019 1.80313 -1.39539 0
M  V30 1808 C 166.003 1.58618 -0.270001 0
M  V30 1809 O 167.195 1.69477 -0.510551 0
M  V30 1810 C 164.324 3.18606 -1.27848 0
M  V30 1811 C 163.41 3.46001 -2.45244 0
M  V30 1812 N 163.801 3.44103 -3.70711 0
M  V30 1813 C 162.099 3.76542 -2.39023 0
M  V30 1814 C 162.8 3.7036 -4.48563 0
M  V30 1815 N 161.776 3.90027 -3.78655 0
M  V30 1816 H 165.578 1.77207 -2.34468 0
M  V30 1817 H 163.092 0.897031 -1.35378 0
M  V30 1818 H 165.089 3.97833 -1.24637 0
M  V30 1819 H 163.749 3.22925 -0.339032 0
M  V30 1820 H 164.76 3.2452 -4.03618 0
M  V30 1821 H 161.437 3.88241 -1.53542 0
M  V30 1822 H 162.827 3.75042 -5.57488 0
M  V30 1823 N 165.547 1.27147 0.931209 0
M  V30 1824 C 166.477 1.12081 2.04842 0
M  V30 1825 C 167.458 0.0232364 1.70084 0
M  V30 1826 O 168.643 0.197085 1.93197 0
M  V30 1827 C 165.773 0.76354 3.38803 0
M  V30 1828 C 164.727 1.81396 3.87659 0
M  V30 1829 C 164.053 1.31075 5.18385 0
M  V30 1830 C 165.353 3.21739 4.11438 0
M  V30 1831 H 167.047 2.05537 2.17703 0
M  V30 1832 H 164.593 0.989603 1.04608 0
M  V30 1833 H 166.546 0.644982 4.16435 0
M  V30 1834 H 165.27 -0.206727 3.25945 0
M  V30 1835 H 163.929 1.92136 3.12217 0
M  V30 1836 H 163.577 0.330037 5.01916 0
M  V30 1837 H 163.277 2.013 5.52044 0
M  V30 1838 H 164.801 1.20506 5.98591 0
M  V30 1839 H 166.215 3.14019 4.79651 0
M  V30 1840 H 164.612 3.89644 4.56397 0
M  V30 1841 H 165.682 3.67054 3.16859 0
M  V30 1842 N 167.025 -1.13721 1.09112 0
M  V30 1843 C 168.253 -1.88773 0.846899 0
M  V30 1844 C 168.668 -1.7896 -0.601572 0
M  V30 1845 O 168.025 -1.15394 -1.41388 0
M  V30 1846 C 168.076 -3.3849 1.26913 0
M  V30 1847 O 167.797 -3.48043 2.66079 0
M  V30 1848 C 169.298 -4.30518 1.05682 0
M  V30 1849 H 166.518 -0.59772 0.304914 0
M  V30 1850 H 169.062 -1.43977 1.45227 0
M  V30 1851 H 167.217 -3.80881 0.707723 0
M  V30 1852 H 167.631 -4.4109 2.83795 0
M  V30 1853 H 169.105 -5.3391 1.40156 0
M  V30 1854 H 169.582 -4.392 -0.00563416 0
M  V30 1855 H 170.188 -3.93893 1.60402 0
M  V30 1856 N 168.503 -0.877838 -1.30888 0
M  V30 1857 C 169.733 -0.506678 -2.00291 0
M  V30 1858 C 170.141 0.907449 -1.66018 0
M  V30 1859 O 169.484 1.60719 -0.88967 0
M  V30 1860 C 169.546 -0.59323 -3.54572 0
M  V30 1861 C 169.21 -1.97038 -4.12341 0
M  V30 1862 C 170.207 -2.93889 -4.28865 0
M  V30 1863 C 167.892 -2.27383 -4.47886 0
M  V30 1864 C 169.886 -4.19224 -4.80136 0
M  V30 1865 C 167.573 -3.52965 -4.98857 0
M  V30 1866 C 168.571 -4.48701 -5.14934 0
M  V30 1867 O 168.259 -5.72056 -5.64808 0
M  V30 1868 H 167.991 -0.1951 -0.647234 0
M  V30 1869 H 170.545 -1.18301 -1.6791 0
M  V30 1870 H 168.775 0.140057 -3.86446 0
M  V30 1871 H 170.464 -0.234372 -4.05223 0
M  V30 1872 H 171.23 -2.71756 -4.01714 0
M  V30 1873 H 167.109 -1.53639 -4.34645 0
M  V30 1874 H 170.653 -4.93956 -4.92599 0
M  V30 1875 H 166.55 -3.74939 -5.25443 0
M  V30 1876 H 167.318 -5.74337 -5.83163 0
M  V30 1877 N 169.982 1.44106 -0.638065 0
M  V30 1878 C 171.398 1.56672 -0.304286 0
M  V30 1879 C 171.598 1.6244 1.19228 0
M  V30 1880 O 170.654 1.57121 1.9766 0
M  V30 1881 C 171.967 2.83503 -1.00231 0
M  V30 1882 C 173.515 2.97226 -0.981116 0
M  V30 1883 C 173.99 4.26868 -1.65974 0
M  V30 1884 N 175.481 4.33698 -1.62666 0
M  V30 1885 C 176.216 5.32745 -2.12063 0
M  V30 1886 N 175.712 6.38157 -2.6968 0
M  V30 1887 N 177.505 5.24299 -2.02651 0
M  V30 1888 H 169.656 1.38605 -1.60942 0
M  V30 1889 H 171.919 0.664661 -0.675965 0
M  V30 1890 H 171.625 2.85251 -2.0573 0
M  V30 1891 H 171.499 3.73251 -0.54439 0
M  V30 1892 H 173.886 2.95027 0.0654188 0
M  V30 1893 H 173.967 2.08808 -1.47759 0
M  V30 1894 H 173.611 4.29826 -2.70576 0
M  V30 1895 H 173.541 5.14156 -1.13804 0
M  V30 1896 H 176.032 3.58138 -1.20606 0
M  V30 1897 H 176.345 7.10029 -3.05087 0
M  V30 1898 H 174.69 6.38823 -2.73734 0
M  V30 1899 H 177.881 4.4086 -1.57353 0
M  V30 1900 H 178.054 6.01334 -2.41457 0
M  V30 1901 N 171.46 0.379036 1.52974 0
M  V30 1902 C 172.709 -0.207612 2.00629 0
M  V30 1903 C 173.022 -1.48758 1.27006 0
M  V30 1904 O 174.228 -2.15365 1.65318 0
M  V30 1905 C 172.684 -0.42053 3.57435 0
M  V30 1906 C 172.292 0.845587 4.39948 0
M  V30 1907 C 174.036 -0.964102 4.13407 0
M  V30 1908 C 171.943 0.601513 5.88333 0
M  V30 1909 H 170.873 -0.0813591 0.749598 0
M  V30 1910 H 173.524 0.499853 1.76561 0
M  V30 1911 H 171.906 -1.18959 3.7771 0
M  V30 1912 H 173.08 1.61848 4.31442 0
M  V30 1913 H 171.395 1.31336 3.95145 0
M  V30 1914 H 173.992 -1.16225 5.21916 0
M  V30 1915 H 174.335 -1.93019 3.68849 0
M  V30 1916 H 174.868 -0.25487 3.96983 0
M  V30 1917 H 171.607 1.53831 6.37194 0
M  V30 1918 H 171.127 -0.132628 5.99653 0
M  V30 1919 H 172.806 0.232134 6.46583 0
M  V30 1920 N 172.938 -1.57226 0.108567 0
M  V30 1921 C 174.184 -1.95121 -0.552761 0
M  V30 1922 C 174.517 -0.991345 -1.66991 0
M  V30 1923 O 173.792 -0.0267211 -1.94482 0
M  V30 1924 C 174.075 -3.43039 -1.09528 0
M  V30 1925 C 173.928 -4.49797 0.0177332 0
M  V30 1926 C 175.247 -3.92567 -1.98945 0
M  V30 1927 H 172.366 -0.709496 -0.199461 0
M  V30 1928 H 175.008 -1.89126 0.182011 0
M  V30 1929 H 173.158 -3.48279 -1.72146 0
M  V30 1930 H 174.83 -4.56661 0.652584 0
M  V30 1931 H 173.073 -4.284 0.682309 0
M  V30 1932 H 173.744 -5.50528 -0.402919 0
M  V30 1933 H 176.22 -3.89565 -1.46214 0
M  V30 1934 H 175.096 -4.96605 -2.33827 0
M  V30 1935 H 175.357 -3.32648 -2.91201 0
M  V30 1936 N 174.416 0.165178 -1.56732 0
M  V30 1937 C 175.364 1.22369 -1.97809 0
M  V30 1938 C 176.358 1.45488 -0.867741 0
M  V30 1939 O 177.564 1.45995 -1.05288 0
M  V30 1940 H 173.939 0.411486 -0.629431 0
M  V30 1941 H 175.91 0.850425 -2.86025 0
M  V30 1942 C 174.659 2.55403 -2.35934 0
M  V30 1943 H 173.982 2.38438 -3.20916 0
M  V30 1944 H 175.422 3.2814 -2.68514 0
M  V30 1945 C 173.881 3.14611 -1.20506 0
M  V30 1946 O 174.411 3.98626 -0.496016 0
M  V30 1947 N 172.617 2.7379 -0.97403 0
M  V30 1948 H 172.164 2.0557 -1.55238 0
M  V30 1949 H 172.122 3.1374 -0.203573 0
M  V30 1950 N 175.894 1.51508 0.433938 0
M  V30 1951 C 177.124 1.67914 1.20369 0
M  V30 1952 C 177.532 0.377461 1.85397 0
M  V30 1953 O 176.875 -0.654255 1.71654 0
M  V30 1954 C 176.937 2.74045 2.32679 0
M  V30 1955 C 176.601 4.16543 1.87991 0
M  V30 1956 C 177.598 5.01211 1.38145 0
M  V30 1957 C 175.283 4.6266 1.95579 0
M  V30 1958 C 177.277 6.30056 0.964774 0
M  V30 1959 C 174.964 5.91501 1.53523 0
M  V30 1960 C 175.962 6.75027 1.04055 0
M  V30 1961 O 175.65 8.01459 0.625964 0
M  V30 1962 H 175.382 0.566578 0.368735 0
M  V30 1963 H 177.936 1.98709 0.51999 0
M  V30 1964 H 176.166 2.38572 3.04336 0
M  V30 1965 H 177.855 2.79295 2.94532 0
M  V30 1966 H 178.621 4.66783 1.31675 0
M  V30 1967 H 174.5 3.97767 2.33029 0
M  V30 1968 H 178.044 6.95202 0.57796 0
M  V30 1969 H 173.941 6.25442 1.59665 0
M  V30 1970 H 174.709 8.15043 0.751509 0
M  V30 1971 N 177.372 -0.689602 1.41712 0
M  V30 1972 C 178.6 -1.47827 1.44758 0
M  V30 1973 C 179.015 -1.88721 0.0545703 0
M  V30 1974 O 178.372 -1.57176 -0.927463 0
M  V30 1975 C 178.423 -2.73698 2.3616 0
M  V30 1976 O 178.144 -2.34524 3.7004 0
M  V30 1977 C 179.645 -3.67389 2.48072 0
M  V30 1978 H 176.865 -0.455357 0.49284 0
M  V30 1979 H 179.409 -0.848574 1.86063 0
M  V30 1980 H 177.564 -3.32891 1.98148 0
M  V30 1981 H 177.978 -3.15701 4.18847 0
M  V30 1982 H 179.452 -4.52475 3.16181 0
M  V30 1983 H 179.929 -4.12284 1.51388 0
M  V30 1984 H 180.535 -3.14097 2.86746 0
M  V30 1985 N 178.85 -1.27639 -0.924453 0
M  V30 1986 C 180.261 -1.12834 -1.48746 0
M  V30 1987 C 180.612 0.285505 -1.94112 0
M  V30 1988 O 179.737 1.17874 -1.81479 0
M  V30 1989 C 180.332 -2.04217 -2.70334 0
M  V30 1990 C 178.891 -1.93509 -3.22848 0
M  V30 1991 C 178.038 -1.96583 -1.95577 0
M  V30 1992 H 180.989 -1.40484 -0.738233 0
M  V30 1993 H 181.01 -1.59989 -3.4523 0
M  V30 1994 H 180.522 -3.07111 -2.37285 0
M  V30 1995 H 178.623 -0.936131 -3.60649 0
M  V30 1996 H 178.736 -2.79917 -3.88823 0
M  V30 1997 H 177.1 -1.4085 -2.12211 0
M  V30 1998 H 177.883 -3.01137 -1.64837 0
M  V30 1999 N 180.328 1.1314 -1.09713 0
M  V30 2000 C 181.605 1.80762 -0.747302 0
M  V30 2001 C 181.985 1.96663 0.767265 0
M  V30 2002 O 181.333 1.53706 1.69076 0
M  V30 2003 C 181.543 3.15606 -1.48975 0
M  V30 2004 C 182.891 3.90914 -1.65746 0
M  V30 2005 O 183.915 3.25239 -1.45251 0
M  V30 2006 O 182.774 5.08718 -1.9967 0
M  V30 2007 H 179.868 0.782103 -0.268782 0
M  V30 2008 H 182.414 1.20041 -1.19951 0
M  V30 2009 H 181.186 2.99278 -2.52088 0
M  V30 2010 H 180.809 3.84029 -1.02991 0
M  V30 2011 N 181.806 0.884767 1.30421 0
M  V30 2012 C 182.736 0.367574 2.30589 0
M  V30 2013 C 183.717 -0.549464 1.60981 0
M  V30 2014 O 184.902 -0.46336 1.88591 0
M  V30 2015 C 182.032 -0.418944 3.44764 0
M  V30 2016 C 180.986 0.406316 4.26067 0
M  V30 2017 C 180.312 -0.506793 5.32293 0
M  V30 2018 C 181.612 1.64832 4.95608 0
M  V30 2019 H 183.306 1.20462 2.74097 0
M  V30 2020 H 180.852 0.580695 1.31772 0
M  V30 2021 H 182.805 -0.791395 4.13902 0
M  V30 2022 H 181.529 -1.28964 3.0006 0
M  V30 2023 H 180.188 0.760903 3.58617 0
M  V30 2024 H 179.836 -1.37519 4.83836 0
M  V30 2025 H 179.536 0.0415828 5.87585 0
M  V30 2026 H 181.06 -0.875764 6.04287 0
M  V30 2027 H 182.474 1.34646 5.57264 0
M  V30 2028 H 180.871 2.13688 5.60765 0
M  V30 2029 H 181.941 2.39284 4.21748 0
M  V30 2030 N 183.284 -1.43765 0.645699 0
M  V30 2031 C 184.695 -1.85193 0.236719 0
M  V30 2032 C 185.046 -1.54045 -1.21509 0
M  V30 2033 O 184.171 -0.985694 -1.92647 0
M  V30 2034 C 184.766 -3.36151 0.422845 0
M  V30 2035 C 183.325 -3.76338 0.0682492 0
M  V30 2036 C 182.472 -2.67538 0.729306 0
M  V30 2037 H 185.423 -1.34025 0.849883 0
M  V30 2038 H 185.444 -3.79032 -0.333904 0
M  V30 2039 H 184.956 -3.5879 1.47958 0
M  V30 2040 H 183.057 -3.59312 -0.986179 0
M  V30 2041 H 183.17 -4.76603 0.488469 0
M  V30 2042 H 181.534 -2.54176 0.163235 0
M  V30 2043 H 182.317 -2.93006 1.78892 0
M  V30 2044 N 184.763 -0.387143 -1.52771 0
M  V30 2045 C 186.179 -0.037007 -1.59557 0
M  V30 2046 C 186.379 1.44801 -1.40124 0
M  V30 2047 O 185.435 2.21227 -1.21716 0
M  V30 2048 C 186.748 -0.512256 -2.96305 0
M  V30 2049 C 188.296 -0.468328 -3.09476 0
M  V30 2050 C 188.771 -0.919731 -4.4867 0
M  V30 2051 N 190.262 -0.875656 -4.54848 0
M  V30 2052 C 190.997 -1.19637 -5.6078 0
M  V30 2053 N 190.493 -1.58745 -6.74368 0
M  V30 2054 N 192.286 -1.11776 -5.50874 0
M  V30 2055 H 184.437 -1.35395 -1.63652 0
M  V30 2056 H 186.7 -0.554818 -0.768688 0
M  V30 2057 H 186.406 -1.54935 -3.15734 0
M  V30 2058 H 186.28 0.089805 -3.77093 0
M  V30 2059 H 188.667 0.559671 -2.89744 0
M  V30 2060 H 188.748 -1.10616 -2.30646 0
M  V30 2061 H 188.392 -1.94595 -4.69143 0
M  V30 2062 H 188.322 -0.258927 -5.25963 0
M  V30 2063 H 190.813 -0.587843 -3.733 0
M  V30 2064 H 191.126 -1.81586 -7.51163 0
M  V30 2065 H 189.471 -1.6263 -6.75705 0
M  V30 2066 H 192.662 -0.811264 -4.61016 0
M  V30 2067 H 192.835 -1.37103 -6.3333 0
M  V30 2068 N 186.241 1.57166 -0.116904 0
M  V30 2069 C 187.518 1.86645 0.585049 0
M  V30 2070 C 187.898 1.0177 1.84949 0
M  V30 2071 O 187.246 0.0960379 2.28298 0
M  V30 2072 C 187.456 3.37736 0.879507 0
M  V30 2073 C 188.804 4.06289 1.23348 0
M  V30 2074 O 189.828 3.42743 0.969836 0
M  V30 2075 O 188.687 5.18455 1.7282 0
M  V30 2076 H 185.781 0.772593 0.295007 0
M  V30 2077 H 188.327 1.69025 -0.151249 0
M  V30 2078 H 187.099 3.91296 -0.0166136 0
M  V30 2079 H 186.722 3.6078 1.67103 0
M  V30 2080 N 187.719 -0.156864 1.56817 0
M  V30 2081 C 188.682 -1.17781 1.96622 0
M  V30 2082 C 189.682 -1.36401 0.851555 0
M  V30 2083 O 190.872 -1.33561 1.11836 0
M  V30 2084 C 188.004 -2.54008 2.27361 0
M  V30 2085 H 189.197 -0.836564 2.87996 0
M  V30 2086 H 186.75 -0.39985 1.51099 0
M  V30 2087 H 187.485 -2.9312 1.38748 0
M  V30 2088 H 187.27 -2.41856 3.08623 0
M  V30 2089 H 188.76 -3.27558 2.59029 0
M  V30 2090 N 189.197 -1.51736 -0.425897 0
M  V30 2091 C 190.443 -1.65214 -1.1761 0
M  V30 2092 C 190.776 -0.372778 -1.90589 0
M  V30 2093 O 190.051 0.628139 -1.84078 0
M  V30 2094 C 190.334 -2.86312 -2.18398 0
M  V30 2095 C 190.187 -4.24254 -1.49426 0
M  V30 2096 C 191.506 -3.02925 -3.19256 0
M  V30 2097 H 188.625 -0.601263 -0.426206 0
M  V30 2098 H 191.267 -1.8425 -0.463882 0
M  V30 2099 H 189.417 -2.70213 -2.79137 0
M  V30 2100 H 191.089 -4.52046 -0.919362 0
M  V30 2101 H 189.332 -4.26426 -0.796432 0
M  V30 2102 H 190.003 -5.05001 -2.22885 0
M  V30 2103 H 192.479 -3.1781 -2.68581 0
M  V30 2104 H 191.355 -3.89199 -3.8706 0
M  V30 2105 H 191.616 -2.15497 -3.86023 0
M  V30 2106 N 190.675 0.682077 -1.42076 0
M  V30 2107 C 191.952 1.43755 -1.32642 0
M  V30 2108 C 192.332 2.11063 0.0396611 0
M  V30 2109 O 191.68 2.02701 1.05474 0
M  V30 2110 C 191.89 2.44596 -2.48946 0
M  V30 2111 C 193.238 3.09454 -2.9073 0
M  V30 2112 O 194.262 2.54922 -2.48783 0
M  V30 2113 O 193.121 4.08253 -3.63307 0
M  V30 2114 H 190.215 0.640857 -0.522715 0
M  V30 2115 H 192.761 0.711415 -1.54068 0
M  V30 2116 H 191.533 1.93609 -3.40046 0
M  V30 2117 H 191.156 3.24701 -2.29467 0
M  V30 2118 N 192.153 1.28127 0.917671 0
M  V30 2119 C 193.378 1.18007 1.70555 0
M  V30 2120 C 193.803 -0.258257 1.86319 0
M  V30 2121 O 193.161 -1.1869 1.37049 0
M  V30 2122 C 193.209 1.87948 3.07746 0
M  V30 2123 O 192.313 1.18427 3.9503 0
M  V30 2124 H 191.654 0.409867 0.522403 0
M  V30 2125 H 194.184 1.69379 1.1477 0
M  V30 2126 H 194.194 1.95701 3.58001 0
M  V30 2127 H 192.869 2.92573 2.95591 0
M  V30 2128 H 191.446 1.18811 3.53466 0
M  V30 2129 N 193.631 -1.12557 1.10312 0
M  V30 2130 C 194.594 -2.16434 0.75424 0
M  V30 2131 C 195.594 -1.59278 -0.220685 0
M  V30 2132 O 196.784 -1.742 0.00230591 0
M  V30 2133 C 193.916 -3.40699 0.116987 0
M  V30 2134 H 195.109 -2.48811 1.67431 0
M  V30 2135 H 192.662 -1.27542 0.903475 0
M  V30 2136 H 193.397 -3.13921 -0.813877 0
M  V30 2137 H 193.182 -3.83459 0.818613 0
M  V30 2138 H 194.672 -4.17451 -0.111387 0
M  V30 2139 N 195.109 -0.891671 -1.2995 0
M  V30 2140 C 196.358 -0.509521 -1.95158 0
M  V30 2141 C 196.671 0.947388 -1.71125 0
M  V30 2142 O 197.877 1.43669 -2.30372 0
M  V30 2143 C 196.333 -0.860315 -3.49466 0
M  V30 2144 C 195.941 -2.33545 -3.8231 0
M  V30 2145 C 197.685 -0.547687 -4.20952 0
M  V30 2146 C 195.592 -2.62752 -5.29826 0
M  V30 2147 H 194.522 -0.18682 -0.730489 0
M  V30 2148 H 197.173 -1.08756 -1.47798 0
M  V30 2149 H 195.555 -0.211285 -3.95436 0
M  V30 2150 H 196.729 -3.02936 -3.47227 0
M  V30 2151 H 195.044 -2.61629 -3.23944 0
M  V30 2152 H 197.641 -0.742854 -5.29515 0
M  V30 2153 H 197.984 0.51332 -4.13123 0
M  V30 2154 H 198.517 -1.1542 -3.80688 0
M  V30 2155 H 195.256 -3.6762 -5.42712 0
M  V30 2156 H 194.776 -1.97977 -5.66185 0
M  V30 2157 H 196.455 -2.48601 -5.97333 0
M  V30 2158 N 196.587 1.43421 -0.653314 0
M  V30 2159 C 197.497 2.34568 0.0388565 0
M  V30 2160 C 198.513 1.53888 0.81207 0
M  V30 2161 O 199.689 1.86539 0.759294 0
M  V30 2162 C 196.754 3.32167 0.993269 0
M  V30 2163 C 195.815 4.28751 0.216977 0
M  V30 2164 C 195.048 5.21688 1.12593 0
M  V30 2165 O 195.271 5.19052 2.36519 0
M  V30 2166 O 194.205 5.98919 0.598284 0
M  V30 2167 H 198.031 2.95251 -0.711386 0
M  V30 2168 H 195.616 1.43564 -0.413502 0
M  V30 2169 H 197.498 3.92183 1.54176 0
M  V30 2170 H 196.173 2.73987 1.72374 0
M  V30 2171 H 195.08 3.72215 -0.375101 0
M  V30 2172 H 196.413 4.89913 -0.473924 0
M  V30 2173 N 198.065 0.39524 1.52563 0
M  V30 2174 C 199.012 -0.437036 2.26624 0
M  V30 2175 C 199.982 -1.05281 1.28472 0
M  V30 2176 O 201.167 -1.07971 1.57311 0
M  V30 2177 C 198.307 -1.55524 3.08069 0
M  V30 2178 C 197.42 -0.961745 4.21158 0
M  V30 2179 C 196.555 -2.05149 4.89987 0
M  V30 2180 C 195.594 -1.4342 5.95061 0
M  V30 2181 N 194.731 -2.46351 6.57462 0
M  V30 2182 H 199.571 0.200976 2.97322 0
M  V30 2183 H 197.108 0.110944 1.46681 0
M  V30 2184 H 199.066 -2.21437 3.53584 0
M  V30 2185 H 197.696 -2.16348 2.3957 0
M  V30 2186 H 196.748 -0.192048 3.79915 0
M  V30 2187 H 198.06 -0.470701 4.96574 0
M  V30 2188 H 197.214 -2.78819 5.38837 0
M  V30 2189 H 195.953 -2.57615 4.14109 0
M  V30 2190 H 194.958 -0.682774 5.45544 0
M  V30 2191 H 196.183 -0.917416 6.72875 0
M  V30 2192 H 194.129 -2.97975 5.8442 0
M  V30 2193 H 194.046 -2.02019 7.28508 0
M  V30 2194 H 195.314 -3.19633 7.10954 0
M  V30 2195 N 199.544 -1.57102 0.125237 0
M  V30 2196 C 200.507 -2.14471 -0.80838 0
M  V30 2197 C 201.507 -1.0811 -1.19033 0
M  V30 2198 O 202.697 -1.33856 -1.11482 0
M  V30 2199 C 199.829 -2.69005 -2.09402 0
M  V30 2200 H 201.022 -2.98297 -0.309696 0
M  V30 2201 H 198.575 -1.55807 -0.124051 0
M  V30 2202 H 199.31 -1.88785 -2.63687 0
M  V30 2203 H 199.095 -3.46799 -1.82957 0
M  V30 2204 H 200.585 -3.13278 -2.76128 0
M  V30 2205 N 201.022 0.148545 -1.56898 0
M  V30 2206 C 201.952 1.18524 -2.01182 0
M  V30 2207 C 202.933 1.4489 -0.891123 0
M  V30 2208 O 204.118 1.55836 -1.15882 0
M  V30 2209 C 201.248 2.51879 -2.39112 0
M  V30 2210 C 200.202 2.40038 -3.54353 0
M  V30 2211 C 199.528 3.78089 -3.78091 0
M  V30 2212 C 200.828 1.88577 -4.87069 0
M  V30 2213 H 202.522 0.817029 -2.88036 0
M  V30 2214 H 200.068 0.391575 -1.38574 0
M  V30 2215 H 202.021 3.24627 -2.68692 0
M  V30 2216 H 200.745 2.90532 -1.49193 0
M  V30 2217 H 199.404 1.69742 -3.24936 0
M  V30 2218 H 199.052 4.14175 -2.85426 0
M  V30 2219 H 198.752 3.71028 -4.55645 0
M  V30 2220 H 200.276 4.52387 -4.10095 0
M  V30 2221 H 201.69 2.51117 -5.15377 0
M  V30 2222 H 200.087 1.9241 -5.68417 0
M  V30 2223 H 201.157 0.84136 -4.77545 0
M  V30 2224 N 202.5 1.5196 0.417844 0
M  V30 2225 C 203.447 1.74678 1.50852 0
M  V30 2226 C 204.417 0.588947 1.55308 0
M  V30 2227 O 205.602 0.825544 1.72016 0
M  V30 2228 C 202.742 1.89544 2.88387 0
M  V30 2229 C 201.855 3.17166 2.93309 0
M  V30 2230 C 200.99 3.22513 4.22088 0
M  V30 2231 C 200.029 4.44372 4.20951 0
M  V30 2232 N 199.166 4.47161 5.41287 0
M  V30 2233 H 204.006 2.67768 1.30783 0
M  V30 2234 H 201.543 1.32689 0.63498 0
M  V30 2235 H 203.501 1.96146 3.68216 0
M  V30 2236 H 202.131 0.998424 3.06971 0
M  V30 2237 H 201.183 3.19778 2.06024 0
M  V30 2238 H 202.495 4.07021 2.88332 0
M  V30 2239 H 201.649 3.28139 5.10303 0
M  V30 2240 H 200.388 2.30581 4.29748 0
M  V30 2241 H 199.393 4.38902 3.31127 0
M  V30 2242 H 200.618 5.3759 4.14938 0
M  V30 2243 H 198.564 3.58108 5.49632 0
M  V30 2244 H 198.481 5.3085 5.3827 0
M  V30 2245 H 199.749 4.57005 6.3148 0
M  V30 2246 N 203.978 -0.674533 1.42435 0
M  V30 2247 C 205.224 -1.43671 1.43131 0
M  V30 2248 C 205.557 -1.94142 0.0476021 0
M  V30 2249 O 204.832 -1.70924 -0.928188 0
M  V30 2250 C 205.115 -2.63355 2.45594 0
M  V30 2251 C 204.968 -2.18514 3.93156 0
M  V30 2252 C 206.287 -3.65571 2.45043 0
M  V30 2253 H 203.406 -0.521077 0.521198 0
M  V30 2254 H 206.048 -0.766551 1.7385 0
M  V30 2255 H 204.198 -3.2053 2.19528 0
M  V30 2256 H 205.87 -1.66504 4.30202 0
M  V30 2257 H 204.113 -1.50086 4.07009 0
M  V30 2258 H 204.784 -3.04484 4.60428 0
M  V30 2259 H 207.26 -3.18113 2.68223 0
M  V30 2260 H 206.136 -4.46893 3.18713 0
M  V30 2261 H 206.397 -4.16716 1.47649 0
M  V30 2262 N 205.456 -1.28612 -0.910864 0
M  V30 2263 C 206.702 -1.17116 -1.66299 0
M  V30 2264 C 207.057 0.276917 -1.90397 0
M  V30 2265 O 206.35 1.19795 -1.49532 0
M  V30 2266 C 206.544 -1.90624 -3.0232 0
M  V30 2267 C 206.373 -3.42431 -2.91498 0
M  V30 2268 C 205.143 -4.11773 -2.92867 0
M  V30 2269 C 207.341 -4.38124 -2.69355 0
M  V30 2270 N 205.323 -5.50025 -2.72664 0
M  V30 2271 C 206.694 -5.63759 -2.58023 0
M  V30 2272 C 208.749 -4.28016 -2.54375 0
M  V30 2273 C 207.452 -6.80436 -2.33238 0
M  V30 2274 C 209.478 -5.44433 -2.30969 0
M  V30 2275 C 208.84 -6.69034 -2.20394 0
M  V30 2276 H 204.939 -0.483506 -0.61461 0
M  V30 2277 H 207.523 -1.62299 -1.0755 0
M  V30 2278 H 205.694 -1.4787 -3.5915 0
M  V30 2279 H 207.426 -1.71488 -3.66571 0
M  V30 2280 H 204.181 -3.63378 -3.03732 0
M  V30 2281 H 204.605 -6.22705 -2.65646 0
M  V30 2282 H 209.247 -3.32388 -2.613 0
M  V30 2283 H 206.965 -7.7613 -2.25051 0
M  V30 2284 H 210.551 -5.38504 -2.20238 0
M  V30 2285 H 209.431 -7.57595 -2.02531 0
M  V30 2286 N 206.934 1.1197 -1.10907 0
M  V30 2287 C 207.844 2.21433 -0.774896 0
M  V30 2288 C 208.86 1.72478 0.229657 0
M  V30 2289 O 210.036 2.01288 0.0672008 0
M  V30 2290 C 207.101 3.4602 -0.216986 0
M  V30 2291 C 206.162 4.09791 -1.27944 0
M  V30 2292 C 205.395 5.28431 -0.748055 0
M  V30 2293 O 205.618 5.68823 0.423833 0
M  V30 2294 O 204.552 5.82644 -1.51027 0
M  V30 2295 H 208.378 2.5242 -1.68873 0
M  V30 2296 H 205.963 1.20399 -0.884555 0
M  V30 2297 H 207.845 4.21304 0.090059 0
M  V30 2298 H 206.52 3.16698 0.669633 0
M  V30 2299 H 205.427 3.36265 -1.63941 0
M  V30 2300 H 206.76 4.4328 -2.13925 0
M  V30 2301 N 208.412 0.89855 1.29475 0
M  V30 2302 C 209.322 0.379974 2.31502 0
M  V30 2303 C 210.338 -0.524695 1.659 0
M  V30 2304 O 211.514 -0.414551 1.97087 0
M  V30 2305 C 208.579 -0.385138 3.44554 0
M  V30 2306 C 207.64 0.550914 4.2575 0
M  V30 2307 C 206.873 -0.177778 5.33404 0
M  V30 2308 O 207.096 -1.40189 5.52904 0
M  V30 2309 O 206.03 0.479106 5.9999 0
M  V30 2310 H 209.856 1.22639 2.77837 0
M  V30 2311 H 207.441 0.662834 1.33891 0
M  V30 2312 H 209.323 -0.817841 4.13388 0
M  V30 2313 H 207.998 -1.20763 3.0033 0
M  V30 2314 H 206.905 1.03271 3.59564 0
M  V30 2315 H 208.238 1.33979 4.73614 0
M  V30 2316 N 209.89 -1.43072 0.660911 0
M  V30 2317 C 211.136 -2.0202 0.177708 0
M  V30 2318 C 211.469 -1.52066 -1.20787 0
M  V30 2319 O 210.744 -0.716987 -1.80802 0
M  V30 2320 C 211.027 -3.59561 0.197019 0
M  V30 2321 C 210.88 -4.19727 1.61706 0
M  V30 2322 C 212.199 -4.37664 -0.462396 0
M  V30 2323 H 209.318 -0.734034 0.0660494 0
M  V30 2324 H 211.96 -1.70272 0.843058 0
M  V30 2325 H 210.11 -3.86739 -0.369527 0
M  V30 2326 H 211.782 -4.03553 2.23479 0
M  V30 2327 H 210.025 -3.76084 2.16201 0
M  V30 2328 H 210.696 -5.28834 1.58237 0
M  V30 2329 H 213.172 -4.16095 0.0197215 0
M  V30 2330 H 212.048 -5.47305 -0.418188 0
M  V30 2331 H 212.309 -4.14493 -1.53778 0
M  V30 2332 N 211.368 -0.403325 -1.52352 0
M  V30 2333 C 212.596 0.174012 -2.06167 0
M  V30 2334 C 213.011 1.39347 -1.27388 0
M  V30 2335 O 212.368 1.79597 -0.324201 0
M  V30 2336 C 212.419 0.530223 -3.5759 0
M  V30 2337 O 212.14 -0.640806 -4.33388 0
M  V30 2338 C 213.641 1.16192 -4.27802 0
M  V30 2339 H 210.861 0.0229464 -0.670608 0
M  V30 2340 H 213.405 -0.572604 -1.9632 0
M  V30 2341 H 211.56 1.22673 -3.67464 0
M  V30 2342 H 211.974 -0.344851 -5.23365 0
M  V30 2343 H 213.448 1.36141 -5.34948 0
M  V30 2344 H 213.925 2.13335 -3.83907 0
M  V30 2345 H 214.531 0.505775 -4.22282 0
M  V30 2346 N 212.846 1.57033 -0.133567 0
M  V30 2347 C 214.257 1.82593 0.389464 0
M  V30 2348 C 214.608 1.05156 1.6564 0
M  V30 2349 O 213.733 0.292644 2.14412 0
M  V30 2350 C 214.328 3.31204 0.713377 0
M  V30 2351 C 212.887 3.57393 1.18098 0
M  V30 2352 C 212.034 2.76598 0.197126 0
M  V30 2353 H 214.985 1.54598 -0.358481 0
M  V30 2354 H 215.006 3.46627 1.56939 0
M  V30 2355 H 214.518 3.87537 -0.2089 0
M  V30 2356 H 212.619 3.06433 2.11966 0
M  V30 2357 H 212.732 4.65915 1.11624 0
M  V30 2358 H 211.096 2.45257 0.687088 0
M  V30 2359 H 211.879 3.35697 -0.718504 0
M  V30 2360 N 214.325 -0.140222 1.56975 0
M  V30 2361 C 215.255 -1.17456 2.01808 0
M  V30 2362 C 216.236 -1.44415 0.898794 0
M  V30 2363 O 217.421 -1.5522 1.16707 0
M  V30 2364 C 214.551 -2.50607 2.40444 0
M  V30 2365 C 213.505 -2.38155 3.55621 0
M  V30 2366 C 212.831 -3.76078 3.80091 0
M  V30 2367 C 214.131 -1.85991 4.88062 0
M  V30 2368 H 215.825 -0.801743 2.88466 0
M  V30 2369 H 213.371 -0.38422 1.38779 0
M  V30 2370 H 215.324 -3.23197 2.7041 0
M  V30 2371 H 214.048 -2.89737 1.50732 0
M  V30 2372 H 212.707 -1.68016 3.25832 0
M  V30 2373 H 212.355 -4.12656 2.87618 0
M  V30 2374 H 212.055 -3.68606 4.57606 0
M  V30 2375 H 213.579 -4.50206 4.12488 0
M  V30 2376 H 214.993 -2.4838 5.16701 0
M  V30 2377 H 213.39 -1.89393 5.6943 0
M  V30 2378 H 214.46 -0.816023 4.77984 0
M  V30 2379 N 215.803 -1.52179 -0.40978 0
M  V30 2380 C 217.031 -1.70054 -1.17853 0
M  V30 2381 C 217.446 -0.409735 -1.843 0
M  V30 2382 O 216.803 0.614183 -1.71855 0
M  V30 2383 C 216.854 -2.83568 -2.24213 0
M  V30 2384 O 216.575 -4.0765 -1.60478 0
M  V30 2385 C 218.076 -3.12947 -3.13973 0
M  V30 2386 H 215.296 -0.569917 -0.354169 0
M  V30 2387 H 217.84 -1.98734 -0.482198 0
M  V30 2388 H 215.995 -2.57409 -2.89516 0
M  V30 2389 H 216.409 -4.70899 -2.30986 0
M  V30 2390 H 217.883 -3.95889 -3.84677 0
M  V30 2391 H 218.36 -2.26472 -3.76307 0
M  V30 2392 H 218.966 -3.40868 -2.5434 0
M  V30 2393 N 217.281 0.66697 -1.42791 0
M  V30 2394 C 218.528 1.42699 -1.43678 0
M  V30 2395 C 218.856 1.94419 -0.0560425 0
M  V30 2396 O 218.111 1.7182 0.936831 0
M  V30 2397 C 218.41 2.6349 -2.4147 0
M  V30 2398 C 218.076 2.30267 -3.8767 0
M  V30 2399 C 216.738 2.20918 -4.27491 0
M  V30 2400 C 219.09 2.03435 -4.79858 0
M  V30 2401 C 216.418 1.82873 -5.57471 0
M  V30 2402 C 218.77 1.66892 -6.10188 0
M  V30 2403 C 217.434 1.56058 -6.49001 0
M  V30 2404 H 216.704 0.522171 -0.525755 0
M  V30 2405 H 219.351 0.759785 -1.75783 0
M  V30 2406 H 217.656 3.35279 -2.0272 0
M  V30 2407 H 219.353 3.21684 -2.39417 0
M  V30 2408 H 215.943 2.38449 -3.56146 0
M  V30 2409 H 220.127 2.09586 -4.49875 0
M  V30 2410 H 215.383 1.7306 -5.86396 0
M  V30 2411 H 219.557 1.45157 -6.81104 0
M  V30 2412 H 217.184 1.26348 -7.49627 0
M  V30 2413 N 218.759 1.29093 0.90403 0
M  V30 2414 C 219.984 1.19809 1.69294 0
M  V30 2415 C 220.409 -0.238481 1.86582 0
M  V30 2416 O 219.767 -1.1723 1.383 0
M  V30 2417 C 219.815 1.91202 3.05736 0
M  V30 2418 O 218.919 1.22611 3.93752 0
M  V30 2419 H 218.26 0.415385 0.518027 0
M  V30 2420 H 220.79 1.70586 1.12967 0
M  V30 2421 H 220.8 1.99487 3.55906 0
M  V30 2422 H 219.475 2.95692 2.92471 0
M  V30 2423 H 218.052 1.22554 3.52186 0
M  V30 2424 N 220.237 -1.11381 1.11499 0
M  V30 2425 C 221.653 -1.35143 0.849031 0
M  V30 2426 C 221.853 -1.94515 -0.525938 0
M  V30 2427 O 220.909 -2.1785 -1.27662 0
M  V30 2428 C 222.222 -2.28249 1.95762 0
M  V30 2429 C 223.77 -2.41812 1.98736 0
M  V30 2430 C 224.245 -3.3824 3.088 0
M  V30 2431 N 225.736 -3.45803 3.08179 0
M  V30 2432 C 226.471 -4.20358 3.89982 0
M  V30 2433 N 225.967 -4.97884 4.8175 0
M  V30 2434 N 227.76 -4.15877 3.78157 0
M  V30 2435 H 219.911 -0.712062 2.00109 0
M  V30 2436 H 222.174 -0.376025 0.870235 0
M  V30 2437 H 221.88 -1.91817 2.94787 0
M  V30 2438 H 221.754 -3.28473 1.85433 0
M  V30 2439 H 224.141 -2.77518 1.00338 0
M  V30 2440 H 224.222 -1.41437 2.13141 0
M  V30 2441 H 223.866 -3.03261 4.07425 0
M  V30 2442 H 223.796 -4.38471 2.91635 0
M  V30 2443 H 226.287 -2.90506 2.41691 0
M  V30 2444 H 226.6 -5.52142 5.40702 0
M  V30 2445 H 224.945 -4.97043 4.85771 0
M  V30 2446 H 228.136 -3.544 3.05808 0
M  V30 2447 H 228.309 -4.73723 4.42143 0
M  V30 2448 N 221.715 -0.905404 -1.28997 0
M  V30 2449 C 222.645 -0.404212 -2.29975 0
M  V30 2450 C 223.626 0.523784 -1.61835 0
M  V30 2451 O 224.811 0.433298 -1.89304 0
M  V30 2452 C 221.941 0.364042 -3.45387 0
M  V30 2453 C 220.895 -0.474048 -4.25367 0
M  V30 2454 C 220.221 0.422045 -5.33032 0
M  V30 2455 C 221.521 -1.72696 -4.92923 0
M  V30 2456 H 223.215 -1.24807 -2.72146 0
M  V30 2457 H 220.761 -0.601585 -1.30832 0
M  V30 2458 H 222.714 0.725447 -4.15109 0
M  V30 2459 H 221.438 1.24174 -3.02074 0
M  V30 2460 H 220.097 -0.81786 -3.57361 0
M  V30 2461 H 219.745 1.29804 -4.85963 0
M  V30 2462 H 219.445 -0.135057 -5.87445 0
M  V30 2463 H 220.969 0.779517 -6.05604 0
M  V30 2464 H 222.383 -1.43495 -5.55051 0
M  V30 2465 H 220.78 -2.22582 -5.57295 0
M  V30 2466 H 221.85 -2.45964 -4.17887 0
M  V30 2467 N 223.193 1.4272 -0.668489 0
M  V30 2468 C 224.423 2.05668 -0.196063 0
M  V30 2469 C 224.831 1.5028 1.14946 0
M  V30 2470 O 224.174 0.6348 1.72383 0
M  V30 2471 C 224.236 3.59469 -0.0468879 0
M  V30 2472 C 223.9 4.37518 -1.32012 0
M  V30 2473 C 224.897 4.68584 -2.25222 0
M  V30 2474 C 222.582 4.77266 -1.56596 0
M  V30 2475 C 224.576 5.38326 -3.41297 0
M  V30 2476 C 222.263 5.4675 -2.72962 0
M  V30 2477 C 223.261 5.77204 -3.65137 0
M  V30 2478 O 222.949 6.45264 -4.79468 0
M  V30 2479 H 222.681 0.669382 -0.0943599 0
M  V30 2480 H 225.235 1.83954 -0.913788 0
M  V30 2481 H 223.465 3.79817 0.726357 0
M  V30 2482 H 225.154 4.04071 0.384852 0
M  V30 2483 H 225.92 4.38382 -2.07477 0
M  V30 2484 H 221.799 4.52959 -0.857249 0
M  V30 2485 H 225.343 5.62014 -4.13263 0
M  V30 2486 H 221.24 5.76369 -2.90635 0
M  V30 2487 H 222.008 6.63753 -4.78931 0
M  V30 2488 N 224.671 0.411399 1.52136 0
M  V30 2489 C 225.581 -0.419774 2.30814 0
M  V30 2490 C 226.597 -1.0515 1.38634 0
M  V30 2491 O 227.773 -1.05252 1.71709 0
M  V30 2492 C 224.838 -1.52019 3.11594 0
M  V30 2493 C 223.899 -0.91129 4.19516 0
M  V30 2494 C 223.132 -1.95927 4.96436 0
M  V30 2495 O 223.355 -3.17775 4.73683 0
M  V30 2496 O 222.289 -1.56423 5.81219 0
M  V30 2497 H 226.115 0.221805 3.02889 0
M  V30 2498 H 223.7 0.174547 1.48377 0
M  V30 2499 H 225.582 -2.15898 3.61892 0
M  V30 2500 H 224.257 -2.14633 2.42311 0
M  V30 2501 H 223.164 -0.235157 3.7336 0
M  V30 2502 H 224.497 -0.32904 4.91099 0
M  V30 2503 N 226.149 -1.5696 0.141893 0
M  V30 2504 C 227.397 -1.95573 -0.509484 0
M  V30 2505 C 227.718 -1.02746 -1.65736 0
M  V30 2506 O 226.988 -0.0880311 -1.95702 0
M  V30 2507 H 225.568 -0.722115 -0.191205 0
M  V30 2508 H 228.23 -1.93697 0.216196 0
M  V30 2509 H 227.326 -2.99171 -0.889 0
M  V30 2510 N 227.627 0.131896 -1.57047 0
M  V30 2511 C 228.537 1.1815 -2.02676 0
M  V30 2512 C 229.553 1.46113 -0.944824 0
M  V30 2513 O 230.729 1.57485 -1.25541 0
M  V30 2514 C 227.794 2.49139 -2.41103 0
M  V30 2515 C 226.855 2.28688 -3.63318 0
M  V30 2516 C 226.088 3.53431 -3.99903 0
M  V30 2517 O 226.311 4.60223 -3.36973 0
M  V30 2518 O 225.245 3.45198 -4.93074 0
M  V30 2519 H 229.071 0.824069 -2.92306 0
M  V30 2520 H 226.656 0.341745 -1.45439 0
M  V30 2521 H 228.538 3.26338 -2.66611 0
M  V30 2522 H 227.213 2.84382 -1.54624 0
M  V30 2523 H 226.12 1.4939 -3.42977 0
M  V30 2524 H 227.453 1.98355 -4.50462 0
M  V30 2525 N 229.106 1.52395 0.401703 0
M  V30 2526 C 230.069 1.75636 1.47257 0
M  V30 2527 C 231.069 0.62628 1.48103 0
M  V30 2528 O 232.259 0.894227 1.49497 0
M  V30 2529 C 229.391 1.84553 2.86624 0
M  V30 2530 H 230.584 2.71241 1.27938 0
M  V30 2531 H 228.137 1.42923 0.632662 0
M  V30 2532 H 228.872 0.908882 3.11303 0
M  V30 2533 H 228.657 2.66715 2.87412 0
M  V30 2534 H 230.147 2.04251 3.64241 0
M  V30 2535 N 230.584 -0.659388 1.43143 0
M  V30 2536 C 231.861 -1.41627 1.34912 0
M  V30 2537 C 232.241 -2.11099 -0.00607785 0
M  V30 2538 O 231.589 -2.04353 -1.02236 0
M  V30 2539 C 231.799 -2.40604 2.52805 0
M  V30 2540 C 233.147 -3.04789 2.95616 0
M  V30 2541 O 234.171 -2.50932 2.52807 0
M  V30 2542 O 233.03 -4.02421 3.69756 0
M  V30 2543 H 230.124 -0.63246 0.532844 0
M  V30 2544 H 232.67 -0.686814 1.5518 0
M  V30 2545 H 231.442 -1.88174 3.43083 0
M  V30 2546 H 231.065 -3.21009 2.34604 0
M  V30 2547 N 232.062 -1.29571 -0.897171 0
M  V30 2548 C 233.311 -1.1706 -1.64256 0
M  V30 2549 C 233.624 0.276476 -1.93636 0
M  V30 2550 O 234.83 0.52294 -2.66416 0
M  V30 2551 C 233.286 -2.0475 -2.95982 0
M  V30 2552 C 232.894 -3.54295 -2.74187 0
M  V30 2553 C 234.638 -2.0097 -3.73914 0
M  V30 2554 C 232.545 -4.34081 -4.01656 0
M  V30 2555 H 231.475 -0.43452 -0.616205 0
M  V30 2556 H 234.126 -1.54229 -0.994268 0
M  V30 2557 H 232.508 -1.60452 -3.62038 0
M  V30 2558 H 233.682 -4.06662 -2.1671 0
M  V30 2559 H 231.997 -3.59773 -2.09648 0
M  V30 2560 H 234.594 -2.57838 -4.68427 0
M  V30 2561 H 234.937 -0.990273 -4.0435 0
M  V30 2562 H 235.47 -2.43325 -3.14703 0
M  V30 2563 H 232.209 -5.36671 -3.76384 0
M  V30 2564 H 231.729 -3.86483 -4.58684 0
M  V30 2565 H 233.408 -4.44877 -4.69781 0
M  V30 2566 N 233.54 1.10788 -1.12088 0
M  V30 2567 C 234.473 2.16237 -0.729168 0
M  V30 2568 C 235.451 1.60207 0.277921 0
M  V30 2569 O 236.635 1.87707 0.172737 0
M  V30 2570 C 233.762 3.38609 -0.0786848 0
M  V30 2571 C 232.808 4.13322 -1.05201 0
M  V30 2572 S 233.641 4.69371 -2.57781 0
M  V30 2573 C 234.797 5.95058 -1.94053 0
M  V30 2574 H 235.03 2.4913 -1.62239 0
M  V30 2575 H 232.563 1.22519 -0.939603 0
M  V30 2576 H 234.521 4.09473 0.290254 0
M  V30 2577 H 233.182 3.03962 0.791593 0
M  V30 2578 H 232.375 5.01051 -0.544433 0
M  V30 2579 H 231.977 3.48251 -1.36371 0
M  V30 2580 H 234.269 6.65278 -1.28107 0
M  V30 2581 H 235.212 6.50472 -2.79807 0
M  V30 2582 H 235.62 5.46918 -1.39787 0
M  V30 2583 N 235.018 0.912232 1.28515 0
M  V30 2584 C 236.267 0.540504 1.94323 0
M  V30 2585 C 236.58 -0.920044 1.72611 0
M  V30 2586 O 237.786 -1.39986 2.32629 0
M  V30 2587 C 236.242 0.915803 3.48053 0
M  V30 2588 C 235.85 2.39598 3.78546 0
M  V30 2589 C 237.594 0.614588 4.20027 0
M  V30 2590 C 235.501 2.71148 5.25578 0
M  V30 2591 H 234.431 0.198418 0.727424 0
M  V30 2592 H 237.082 1.11094 1.46049 0
M  V30 2593 H 235.464 0.274168 3.9505 0
M  V30 2594 H 236.638 3.08422 3.42364 0
M  V30 2595 H 234.953 2.66749 3.1974 0
M  V30 2596 H 237.55 0.827002 5.28266 0
M  V30 2597 H 237.893 -0.447531 4.13887 0
M  V30 2598 H 238.426 1.21462 3.78803 0
M  V30 2599 H 235.165 3.76207 5.36794 0
M  V30 2600 H 234.685 2.0696 5.62963 0
M  V30 2601 H 236.364 2.58072 5.93302 0
M  V30 2602 N 236.496 -1.42363 0.676048 0
M  V30 2603 C 237.721 -2.06377 0.205705 0
M  V30 2604 C 238.146 -1.50463 -1.12883 0
M  V30 2605 O 237.504 -0.623619 -1.70237 0
M  V30 2606 C 237.552 -3.60277 0.152655 0
M  V30 2607 O 236.656 -4.02935 -0.87845 0
M  V30 2608 H 235.997 -0.655588 0.105359 0
M  V30 2609 H 238.527 -1.82475 0.925412 0
M  V30 2610 H 238.537 -4.07993 -0.0230675 0
M  V30 2611 H 237.212 -4.00346 1.12675 0
M  V30 2612 H 235.789 -3.66764 -0.673668 0
M  V30 2613 N 237.974 -0.419461 -1.51915 0
M  V30 2614 C 239.221 0.152939 -2.01922 0
M  V30 2615 C 239.549 1.4426 -1.30458 0
M  V30 2616 O 238.804 1.91514 -0.402593 0
M  V30 2617 C 239.103 0.437067 -3.54717 0
M  V30 2618 C 238.769 -0.764632 -4.44369 0
M  V30 2619 C 237.431 -1.09423 -4.68594 0
M  V30 2620 C 239.783 -1.56713 -4.97082 0
M  V30 2621 C 237.111 -2.22732 -5.42777 0
M  V30 2622 C 239.463 -2.69107 -5.72507 0
M  V30 2623 C 238.127 -3.02541 -5.95 0
M  V30 2624 H 237.397 0.0559644 -0.738884 0
M  V30 2625 H 240.044 -0.562998 -1.83037 0
M  V30 2626 H 238.349 1.23469 -3.71837 0
M  V30 2627 H 240.046 0.893083 -3.90928 0
M  V30 2628 H 236.636 -0.497775 -4.257 0
M  V30 2629 H 240.82 -1.32571 -4.78266 0
M  V30 2630 H 236.076 -2.48971 -5.58411 0
M  V30 2631 H 240.25 -3.31671 -6.12346 0
M  V30 2632 H 237.877 -3.90457 -6.52264 0
M  V30 2633 N 239.452 1.56882 -0.150215 0
M  V30 2634 C 240.415 2.1573 0.774157 0
M  V30 2635 C 241.415 1.0999 1.17298 0
M  V30 2636 O 242.605 1.35613 1.09338 0
M  V30 2637 C 239.737 2.72302 2.05096 0
M  V30 2638 H 240.93 2.98752 0.262201 0
M  V30 2639 H 238.483 1.55985 0.099248 0
M  V30 2640 H 239.218 1.92956 2.6065 0
M  V30 2641 H 239.003 3.49665 1.77416 0
M  V30 2642 H 240.493 3.17632 2.71109 0
M  V30 2643 N 240.93 -0.123565 1.57115 0
M  V30 2644 C 242.176 -0.833386 1.84885 0
M  V30 2645 C 242.509 -1.79742 0.735292 0
M  V30 2646 O 241.784 -1.92764 -0.25925 0
M  V30 2647 C 242.067 -1.5873 3.23228 0
M  V30 2648 C 241.92 -0.643183 4.45178 0
M  V30 2649 C 243.239 -2.54453 3.59085 0
M  V30 2650 H 240.358 -0.301518 0.6725 0
M  V30 2651 H 243 -0.097778 1.89748 0
M  V30 2652 H 241.15 -2.21438 3.19214 0
M  V30 2653 H 242.822 -0.0253015 4.61293 0
M  V30 2654 H 241.065 0.0456139 4.33776 0
M  V30 2655 H 241.736 -1.20724 5.38637 0
M  V30 2656 H 244.212 -2.01853 3.63861 0
M  V30 2657 H 243.088 -3.04238 4.5687 0
M  V30 2658 H 243.349 -3.36906 2.86264 0
M  V30 2659 N 242.408 -1.52605 -0.393616 0
M  V30 2660 C 243.355 -1.77055 -1.48054 0
M  V30 2661 C 244.325 -0.61358 -1.54352 0
M  V30 2662 O 245.51 -0.852806 -1.70681 0
M  V30 2663 C 242.65 -1.94108 -2.85335 0
M  V30 2664 C 241.763 -3.21792 -2.88226 0
M  V30 2665 C 240.898 -3.29188 -4.16904 0
M  V30 2666 C 239.937 -4.51013 -4.13828 0
M  V30 2667 N 239.074 -4.55716 -5.34105 0
M  V30 2668 H 243.914 -2.69815 -1.26506 0
M  V30 2669 H 241.451 -1.33683 -0.61379 0
M  V30 2670 H 243.409 -2.01979 -3.65049 0
M  V30 2671 H 242.039 -1.04713 -3.05344 0
M  V30 2672 H 241.091 -3.23015 -2.00911 0
M  V30 2673 H 242.403 -4.11557 -2.8182 0
M  V30 2674 H 241.557 -3.36216 -5.05018 0
M  V30 2675 H 240.296 -2.37389 -4.26026 0
M  V30 2676 H 239.301 -4.44115 -3.24102 0
M  V30 2677 H 240.526 -5.44123 -4.06333 0
M  V30 2678 H 238.472 -3.66807 -5.43865 0
M  V30 2679 H 238.389 -5.39346 -5.29756 0
M  V30 2680 H 239.657 -4.66993 -6.2413 0
M  V30 2681 N 243.887 0.651787 -1.4349 0
M  V30 2682 C 244.797 1.79368 -1.5121 0
M  V30 2683 C 245.813 1.69361 -0.399093 0
M  V30 2684 O 246.989 1.90505 -0.653431 0
M  V30 2685 C 244.054 3.15653 -1.43401 0
M  V30 2686 C 243.115 3.37446 -2.65384 0
M  V30 2687 C 242.348 4.67229 -2.57939 0
M  V30 2688 O 242.571 5.46676 -1.62792 0
M  V30 2689 O 241.505 4.90773 -3.48462 0
M  V30 2690 H 245.331 1.7581 -2.47638 0
M  V30 2691 H 242.916 0.810447 -1.25507 0
M  V30 2692 H 244.798 3.96935 -1.41494 0
M  V30 2693 H 243.473 3.19798 -0.501085 0
M  V30 2694 H 242.38 2.55923 -2.72863 0
M  V30 2695 H 243.713 3.38148 -3.57654 0
M  V30 2696 N 245.365 1.30045 0.890287 0
M  V30 2697 C 246.315 1.12592 1.9826 0
M  V30 2698 C 247.299 0.0426021 1.60844 0
M  V30 2699 O 248.491 0.265346 1.75 0
M  V30 2700 C 245.62 0.814301 3.33503 0
M  V30 2701 C 244.706 1.93761 3.7725 0
M  V30 2702 N 245.097 3.18232 3.93143 0
M  V30 2703 C 243.395 1.83277 4.06602 0
M  V30 2704 C 244.096 3.9158 4.30163 0
M  V30 2705 N 243.072 3.19591 4.3973 0
M  V30 2706 H 246.874 2.07003 2.08631 0
M  V30 2707 H 244.388 1.21307 1.07974 0
M  V30 2708 H 246.385 0.67029 4.11476 0
M  V30 2709 H 245.045 -0.121797 3.24471 0
M  V30 2710 H 246.056 3.53581 3.78419 0
M  V30 2711 H 242.733 0.97001 4.06075 0
M  V30 2712 H 244.123 4.98744 4.50226 0
M  V30 2713 N 246.843 -1.10192 1.12674 0
M  V30 2714 C 248.091 -1.81845 0.881861 0
M  V30 2715 C 248.412 -1.85737 -0.593867 0
M  V30 2716 O 247.682 -1.33724 -1.4316 0
M  V30 2717 H 246.262 -0.673432 0.323261 0
M  V30 2718 H 248.924 -1.33316 1.42172 0
M  V30 2719 H 248.02 -2.85288 1.2656 0
M  V30 2720 N 248.321 -0.919034 -1.28029 0
M  V30 2721 C 249.598 -0.473668 -1.89778 0
M  V30 2722 C 249.978 1.04783 -1.83259 0
M  V30 2723 O 249.326 1.8982 -1.27202 0
M  V30 2724 C 249.536 -1.00998 -3.34066 0
M  V30 2725 C 250.884 -1.06525 -4.1102 0
M  V30 2726 O 251.908 -0.958996 -3.43048 0
M  V30 2727 O 250.767 -1.22776 -5.3253 0
M  V30 2728 H 247.861 -0.15098 -0.813101 0
M  V30 2729 H 250.407 -1.01016 -1.36359 0
M  V30 2730 H 249.179 -2.05392 -3.33061 0
M  V30 2731 H 248.802 -0.454626 -3.94992 0
M  V30 2732 N 249.799 1.42003 -0.683588 0
M  V30 2733 C 251.046 2.01413 -0.209514 0
M  V30 2734 C 251.374 1.54088 1.1869 0
M  V30 2735 O 250.629 0.737591 1.81268 0
M  V30 2736 C 250.928 3.56827 -0.202357 0
M  V30 2737 C 250.594 4.23617 -1.54464 0
M  V30 2738 C 249.256 4.41577 -1.91215 0
M  V30 2739 C 251.608 4.61178 -2.42826 0
M  V30 2740 C 248.936 4.9437 -3.15935 0
M  V30 2741 C 251.288 5.15355 -3.66867 0
M  V30 2742 C 249.952 5.31528 -4.03776 0
M  V30 2743 H 249.222 0.737023 -0.0766668 0
M  V30 2744 H 251.869 1.70067 -0.880312 0
M  V30 2745 H 250.174 3.87892 0.551969 0
M  V30 2746 H 251.871 4.00588 0.181793 0
M  V30 2747 H 248.461 4.10004 -1.24877 0
M  V30 2748 H 252.645 4.46968 -2.15717 0
M  V30 2749 H 247.901 5.05076 -3.44541 0
M  V30 2750 H 252.075 5.43402 -4.35531 0
M  V30 2751 H 249.702 5.72199 -5.00492 0
M  V30 2752 N 251.277 0.427512 1.51691 0
M  V30 2753 C 252.507 -0.140986 2.06118 0
M  V30 2754 C 252.915 -1.37854 1.29588 0
M  V30 2755 O 252.258 -1.80411 0.346036 0
M  V30 2756 C 252.32 -0.538276 3.55447 0
M  V30 2757 C 251.984 0.591095 4.53161 0
M  V30 2758 C 252.981 1.46027 4.98971 0
M  V30 2759 C 250.666 0.769028 4.96378 0
M  V30 2760 C 252.66 2.49216 5.8666 0
M  V30 2761 C 250.347 1.80421 5.83859 0
M  V30 2762 C 251.345 2.66417 6.28897 0
M  V30 2763 O 251.033 3.68159 7.14643 0
M  V30 2764 H 250.765 -0.0157455 0.675817 0
M  V30 2765 H 253.319 0.602495 1.96365 0
M  V30 2766 H 251.549 -1.33432 3.6295 0
M  V30 2767 H 253.238 -1.0368 3.92435 0
M  V30 2768 H 254.004 1.33429 4.66285 0
M  V30 2769 H 249.883 0.109273 4.6087 0
M  V30 2770 H 253.427 3.16372 6.21735 0
M  V30 2771 H 249.324 1.93042 6.15959 0
M  V30 2772 H 250.092 3.64622 7.32798 0
M  V30 2773 N 252.755 -1.56801 0.158532 0
M  V30 2774 C 253.98 -2.01295 -0.499516 0
M  V30 2775 C 254.405 -1.03799 -1.56867 0
M  V30 2776 O 253.763 -0.0155162 -1.81293 0
M  V30 2777 C 253.811 -3.44469 -1.06647 0
M  V30 2778 O 252.915 -3.50012 -2.18095 0
M  V30 2779 H 252.256 -0.652884 -0.12099 0
M  V30 2780 H 254.786 -2.02958 0.258661 0
M  V30 2781 H 254.796 -3.8351 -1.39227 0
M  V30 2782 H 253.471 -4.14932 -0.283581 0
M  V30 2783 H 252.048 -3.22822 -1.86656 0
M  V30 2784 N 254.233 0.115231 -1.57178 0
M  V30 2785 C 255.48 0.822351 -1.8505 0
M  V30 2786 C 255.808 1.79701 -0.744168 0
M  V30 2787 O 255.063 1.93909 0.26414 0
M  V30 2788 C 255.362 1.60324 -3.19423 0
M  V30 2789 C 255.028 0.772536 -4.44233 0
M  V30 2790 C 253.69 0.543468 -4.78121 0
M  V30 2791 C 256.042 0.193746 -5.2084 0
M  V30 2792 C 253.37 -0.274583 -5.86057 0
M  V30 2793 C 255.722 -0.611517 -6.29637 0
M  V30 2794 C 254.386 -0.850867 -6.62055 0
M  V30 2795 H 253.656 0.30092 -0.677147 0
M  V30 2796 H 256.303 0.0845802 -1.91313 0
M  V30 2797 H 254.608 2.41203 -3.08753 0
M  V30 2798 H 256.305 2.1544 -3.38211 0
M  V30 2799 H 252.895 0.96117 -4.17683 0
M  V30 2800 H 257.079 0.357926 -4.95008 0
M  V30 2801 H 252.335 -0.469206 -6.09597 0
M  V30 2802 H 256.509 -1.06697 -6.88178 0
M  V30 2803 H 254.136 -1.48657 -7.45523 0
M  V30 2804 N 255.711 1.52812 0.385517 0
M  V30 2805 C 256.988 1.5861 1.14465 0
M  V30 2806 C 257.368 0.381402 2.07626 0
M  V30 2807 O 256.716 -0.629999 2.19643 0
M  V30 2808 C 256.926 2.92664 1.90128 0
M  V30 2809 C 258.274 3.46526 2.45367 0
M  V30 2810 O 259.298 2.94562 2.0028 0
M  V30 2811 O 258.157 4.37323 3.27736 0
M  V30 2812 H 255.251 0.639855 0.523941 0
M  V30 2813 H 257.797 1.65149 0.390389 0
M  V30 2814 H 256.569 3.71788 1.22022 0
M  V30 2815 H 256.192 2.89527 2.72507 0
M  V30 2816 N 257.189 -0.644168 1.43834 0
M  V30 2817 C 258.437 -1.40117 1.45642 0
M  V30 2818 C 258.758 -1.94814 0.0852413 0
M  V30 2819 O 258.028 -1.74988 -0.880688 0
M  V30 2820 H 256.608 -0.52005 0.536243 0
M  V30 2821 H 259.27 -0.7591 1.7951 0
M  V30 2822 H 258.366 -2.23902 2.17427 0
M  V30 2823 N 258.668 -1.30515 -0.883378 0
M  V30 2824 C 260.079 -1.17509 -1.45081 0
M  V30 2825 C 260.43 0.223605 -1.94922 0
M  V30 2826 O 259.555 1.12041 -1.85137 0
M  V30 2827 C 260.15 -2.12715 -2.63701 0
M  V30 2828 C 258.709 -2.03682 -3.16529 0
M  V30 2829 C 257.856 -2.02706 -1.89224 0
M  V30 2830 H 260.807 -1.42762 -0.693165 0
M  V30 2831 H 260.828 -1.70891 -3.39965 0
M  V30 2832 H 260.34 -3.14505 -2.27395 0
M  V30 2833 H 258.441 -1.05039 -3.57488 0
M  V30 2834 H 258.554 -2.92146 -3.7972 0
M  V30 2835 H 256.918 -1.4753 -2.07622 0
M  V30 2836 H 257.701 -3.06229 -1.55174 0
M  V30 2837 N 260.146 1.09593 -1.13257 0
M  V30 2838 C 261.394 1.81375 -0.891492 0
M  V30 2839 C 261.715 1.86049 0.584009 0
M  V30 2840 O 260.985 1.34481 1.42449 0
M  V30 2841 H 259.565 0.671708 -0.326828 0
M  V30 2842 H 262.227 1.3256 -1.42877 0
M  V30 2843 H 261.323 2.84612 -1.28071 0
M  V30 2844 N 261.624 0.925811 1.2754 0
M  V30 2845 C 262.574 0.394488 2.24561 0
M  V30 2846 C 263.558 -0.500183 1.52928 0
M  V30 2847 O 264.75 -0.337936 1.73744 0
M  V30 2848 C 261.879 -0.353328 3.41477 0
M  V30 2849 C 260.965 0.557752 4.20416 0
M  V30 2850 N 261.356 1.67674 4.77199 0
M  V30 2851 C 259.654 0.360404 4.44541 0
M  V30 2852 C 260.355 2.24324 5.36706 0
M  V30 2853 N 259.331 1.53305 5.21535 0
M  V30 2854 H 263.133 1.2489 2.66045 0
M  V30 2855 H 260.647 0.779864 1.4245 0
M  V30 2856 H 262.644 -0.7509 4.10082 0
M  V30 2857 H 261.304 -1.20469 3.01525 0
M  V30 2858 H 262.315 2.05915 4.75204 0
M  V30 2859 H 258.992 -0.450454 4.15063 0
M  V30 2860 H 260.382 3.18521 5.91603 0
M  V30 2861 N 263.102 -1.41638 0.69111 0
M  V30 2862 C 264.327 -2.06148 0.227583 0
M  V30 2863 C 264.752 -1.51652 -1.11281 0
M  V30 2864 O 264.11 -0.64164 -1.69566 0
M  V30 2865 C 264.158 -3.60095 0.190858 0
M  V30 2866 O 263.262 -4.03845 -0.835664 0
M  V30 2867 H 262.603 -0.654434 0.112306 0
M  V30 2868 H 265.133 -1.81484 0.944714 0
M  V30 2869 H 265.143 -4.07995 0.020207 0
M  V30 2870 H 263.818 -3.99129 1.16915 0
M  V30 2871 H 262.395 -3.67458 -0.63473 0
M  V30 2872 N 264.58 -0.43555 -1.51462 0
M  V30 2873 C 265.51 0.367376 -2.30592 0
M  V30 2874 C 266.491 1.02263 -1.35928 0
M  V30 2875 O 267.676 1.02661 -1.64847 0
M  V30 2876 C 264.806 1.46983 -3.14664 0
M  V30 2877 C 263.76 0.938161 -4.17591 0
M  V30 2878 C 263.086 2.13622 -4.90173 0
M  V30 2879 C 264.386 -0.0261621 -5.22293 0
M  V30 2880 H 266.08 -0.292969 -2.97963 0
M  V30 2881 H 263.626 -0.14234 -1.43295 0
M  V30 2882 H 265.579 2.03873 -3.688 0
M  V30 2883 H 264.303 2.15843 -2.4511 0
M  V30 2884 H 262.962 0.391481 -3.64504 0
M  V30 2885 H 262.61 2.81098 -4.17124 0
M  V30 2886 H 262.31 1.78688 -5.59772 0
M  V30 2887 H 263.834 2.7107 -5.47132 0
M  V30 2888 H 265.248 0.452384 -5.71512 0
M  V30 2889 H 263.645 -0.287992 -5.99409 0
M  V30 2890 H 264.715 -0.963391 -4.75233 0
M  V30 2891 N 266.058 1.56714 -0.166846 0
M  V30 2892 C 267.021 2.16539 0.751232 0
M  V30 2893 C 268.021 1.11228 1.16125 0
M  V30 2894 O 269.211 1.36765 1.07894 0
M  V30 2895 C 266.343 2.74462 2.02196 0
M  V30 2896 H 267.536 2.99013 0.230499 0
M  V30 2897 H 265.089 1.56081 0.0826982 0
M  V30 2898 H 265.824 1.95709 2.58589 0
M  V30 2899 H 265.609 3.51527 1.73698 0
M  V30 2900 H 267.099 3.20489 2.67725 0
M  V30 2901 N 267.536 -0.106894 1.57237 0
M  V30 2902 C 268.486 -1.1366 1.9765 0
M  V30 2903 C 269.47 -1.36416 0.853203 0
M  V30 2904 O 270.662 -1.37305 1.11697 0
M  V30 2905 C 267.791 -2.46 2.39455 0
M  V30 2906 C 266.877 -2.26668 3.58445 0
M  V30 2907 N 267.268 -1.77176 4.73754 0
M  V30 2908 C 265.566 -2.57279 3.64312 0
M  V30 2909 C 266.267 -1.71836 5.5574 0
M  V30 2910 N 265.243 -2.16623 4.98573 0
M  V30 2911 H 269.045 -0.74669 2.84256 0
M  V30 2912 H 266.559 -0.314483 1.59326 0
M  V30 2913 H 268.556 -3.2049 2.6663 0
M  V30 2914 H 267.216 -2.85738 1.54219 0
M  V30 2915 H 268.227 -1.46545 4.96734 0
M  V30 2916 H 264.904 -3.00622 2.89711 0
M  V30 2917 H 266.294 -1.34723 6.58255 0
M  V30 2918 N 269.014 -1.53014 -0.377408 0
M  V30 2919 C 269.977 -1.77957 -1.44444 0
M  V30 2920 C 270.977 -0.649763 -1.47087 0
M  V30 2921 O 272.167 -0.917897 -1.48055 0
M  V30 2922 C 269.299 -1.89089 -2.83651 0
M  V30 2923 H 270.492 -2.73243 -1.23606 0
M  V30 2924 H 268.045 -1.43912 -0.609844 0
M  V30 2925 H 268.78 -0.958293 -3.09818 0
M  V30 2926 H 268.565 -2.71254 -2.83132 0
M  V30 2927 H 270.055 -2.1002 -3.60945 0
M  V30 2928 N 270.492 0.636531 -1.44174 0
M  V30 2929 C 271.722 1.42146 -1.49927 0
M  V30 2930 C 272.13 1.88812 -0.121063 0
M  V30 2931 O 271.473 1.61126 0.882267 0
M  V30 2932 C 271.535 2.67883 -2.39748 0
M  V30 2933 C 271.199 2.43048 -3.8701 0
M  V30 2934 C 272.196 2.05216 -4.77684 0
M  V30 2935 C 269.881 2.56856 -4.3166 0
M  V30 2936 C 271.875 1.81512 -6.11009 0
M  V30 2937 C 269.562 2.32766 -5.65034 0
M  V30 2938 C 270.56 1.95152 -6.54526 0
M  V30 2939 O 270.248 1.71326 -7.85431 0
M  V30 2940 H 269.98 0.442567 -0.51099 0
M  V30 2941 H 272.534 0.786158 -1.8976 0
M  V30 2942 H 270.764 3.34032 -1.94832 0
M  V30 2943 H 272.453 3.29874 -2.36513 0
M  V30 2944 H 273.219 1.94111 -4.44462 0
M  V30 2945 H 269.098 2.85104 -3.62266 0
M  V30 2946 H 272.642 1.52077 -6.80822 0
M  V30 2947 H 268.539 2.43479 -5.97819 0
M  V30 2948 H 269.307 1.85616 -7.97176 0
M  V30 2949 N 271.97 1.30982 0.876444 0
M  V30 2950 C 273.381 1.18277 1.44456 0
M  V30 2951 C 273.732 -0.213265 1.95037 0
M  V30 2952 O 272.857 -1.11057 1.85729 0
M  V30 2953 C 273.452 2.1411 2.62569 0
M  V30 2954 C 272.011 2.05358 3.15444 0
M  V30 2955 C 271.158 2.03706 1.88146 0
M  V30 2956 H 274.109 1.43127 0.685584 0
M  V30 2957 H 274.13 1.72692 3.39054 0
M  V30 2958 H 273.642 3.15706 2.25724 0
M  V30 2959 H 271.743 1.06934 3.56926 0
M  V30 2960 H 271.856 2.94156 3.78166 0
M  V30 2961 H 270.22 1.48629 2.06837 0
M  V30 2962 H 271.003 3.07047 1.53547 0
M  V30 2963 N 273.449 -1.08991 1.13837 0
M  V30 2964 C 274.86 -1.62746 0.914917 0
M  V30 2965 C 275.211 -1.88403 -0.547594 0
M  V30 2966 O 274.336 -1.63706 -1.41525 0
M  V30 2967 C 274.931 -2.95662 1.65437 0
M  V30 2968 C 273.49 -3.46225 1.47666 0
M  V30 2969 C 272.637 -2.20562 1.6807 0
M  V30 2970 H 275.588 -0.922946 1.29102 0
M  V30 2971 H 275.609 -3.63825 1.11407 0
M  V30 2972 H 275.121 -2.76956 2.71877 0
M  V30 2973 H 273.222 -3.70046 0.435478 0
M  V30 2974 H 273.335 -4.23368 2.24268 0
M  V30 2975 H 271.699 -2.29439 1.10589 0
M  V30 2976 H 272.482 -2.0437 2.7584 0
M  V30 2977 N 274.927 -0.932562 -1.27047 0
M  V30 2978 C 276.175 -0.574422 -1.93765 0
M  V30 2979 C 276.496 0.887993 -1.73608 0
M  V30 2980 O 275.766 1.62999 -1.08665 0
M  V30 2981 H 274.346 -0.209451 -0.717035 0
M  V30 2982 H 277.008 -1.18601 -1.5466 0
M  V30 2983 H 276.104 -0.784841 -3.02071 0
M  V30 2984 N 276.405 1.4127 -0.698611 0
M  V30 2985 C 277.816 1.84187 -0.305289 0
M  V30 2986 C 278.167 1.58449 1.15708 0
M  V30 2987 O 277.292 1.05651 1.88856 0
M  V30 2988 C 277.887 3.3435 -0.547314 0
M  V30 2989 C 276.446 3.75826 -0.207878 0
M  V30 2990 C 275.593 2.64647 -0.828099 0
M  V30 2991 H 278.544 1.30778 -0.89904 0
M  V30 2992 H 278.565 3.8001 0.192998 0
M  V30 2993 H 278.077 3.53051 -1.61172 0
M  V30 2994 H 276.178 3.62725 0.852143 0
M  V30 2995 H 276.291 4.74462 -0.665021 0
M  V30 2996 H 274.655 2.53395 -0.257458 0
M  V30 2997 H 275.438 2.86165 -1.89643 0
M  V30 2998 N 277.883 0.443576 1.51229 0
M  V30 2999 C 279.131 -0.120557 2.0174 0
M  V30 3000 C 279.452 -1.42665 1.32935 0
M  V30 3001 O 278.722 -1.9028 0.465866 0
M  V30 3002 H 277.302 -0.0475426 0.745486 0
M  V30 3003 H 279.964 0.587711 1.85828 0
M  V30 3004 H 279.06 -0.291972 3.10731 0
M  V30 3005 N 279.361 -1.56624 0.175154 0
M  V30 3006 C 280.291 -2.21155 -0.749195 0
M  V30 3007 C 281.272 -1.16836 -1.23626 0
M  V30 3008 O 282.457 -1.45277 -1.28873 0
M  V30 3009 C 279.587 -2.8553 -1.97711 0
M  V30 3010 C 278.541 -3.95921 -1.62575 0
M  V30 3011 C 277.867 -4.47365 -2.92864 0
M  V30 3012 C 279.167 -5.15323 -0.850838 0
M  V30 3013 H 280.861 -2.98653 -0.211295 0
M  V30 3014 H 278.407 -1.43651 -0.100188 0
M  V30 3015 H 280.36 -3.2935 -2.62881 0
M  V30 3016 H 279.084 -2.05406 -2.53921 0
M  V30 3017 H 277.743 -3.52762 -0.997719 0
M  V30 3018 H 277.391 -3.64027 -3.47122 0
M  V30 3019 H 277.091 -5.21839 -2.70106 0
M  V30 3020 H 278.615 -4.93873 -3.59056 0
M  V30 3021 H 280.029 -5.55812 -1.40521 0
M  V30 3022 H 278.426 -5.95739 -0.722154 0
M  V30 3023 H 279.496 -4.84661 0.152082 0
M  V30 3024 N 280.839 0.0985539 -1.57292 0
M  V30 3025 C 282.069 0.815135 -1.8984 0
M  V30 3026 C 282.477 1.7297 -0.766679 0
M  V30 3027 O 281.82 1.81698 0.270483 0
M  V30 3028 C 281.882 1.6842 -3.17608 0
M  V30 3029 C 281.546 0.94182 -4.4719 0
M  V30 3030 C 282.543 0.273212 -5.19182 0
M  V30 3031 C 280.228 0.916927 -4.9386 0
M  V30 3032 C 282.222 -0.410361 -6.36078 0
M  V30 3033 C 279.909 0.229567 -6.10669 0
M  V30 3034 C 280.907 -0.432902 -6.81627 0
M  V30 3035 O 280.595 -1.10925 -7.9621 0
M  V30 3036 H 280.327 0.238501 -0.632529 0
M  V30 3037 H 282.881 0.0812659 -2.05239 0
M  V30 3038 H 281.111 2.46022 -2.98345 0
M  V30 3039 H 282.8 2.27704 -3.36015 0
M  V30 3040 H 283.566 0.283927 -4.84168 0
M  V30 3041 H 279.445 1.42201 -4.3852 0
M  V30 3042 H 282.989 -0.928013 -6.914 0
M  V30 3043 H 278.886 0.216686 -6.45136 0
M  V30 3044 H 279.654 -1.01579 -8.12172 0
M  V30 3045 N 282.317 1.53212 0.369288 0
M  V30 3046 C 283.565 1.68881 1.11012 0
M  V30 3047 C 283.886 0.441285 1.89941 0
M  V30 3048 O 283.156 -0.544623 1.88177 0
M  V30 3049 H 281.736 0.622569 0.412816 0
M  V30 3050 H 284.398 1.90391 0.416802 0
M  V30 3051 H 283.494 2.54822 1.80201 0
M  V30 3052 N 283.795 -0.628877 1.44509 0
M  V30 3053 C 285.072 -1.38733 1.37886 0
M  V30 3054 C 285.452 -2.11065 0.0387008 0
M  V30 3055 O 284.8 -2.06476 -0.97878 0
M  V30 3056 C 285.01 -2.35188 2.57852 0
M  V30 3057 C 286.358 -2.9845 3.02014 0
M  V30 3058 O 287.382 -2.45513 2.58073 0
M  V30 3059 O 286.241 -3.94487 3.78209 0
M  V30 3060 H 283.335 -0.621015 0.54614 0
M  V30 3061 H 285.881 -0.653744 1.56602 0
M  V30 3062 H 284.653 -1.80855 3.46998 0
M  V30 3063 H 284.276 -3.1596 2.4136 0
M  V30 3064 N 285.273 -1.31445 -0.869486 0
M  V30 3065 C 286.522 -1.20517 -1.61736 0
M  V30 3066 C 286.835 0.235341 -1.94179 0
M  V30 3067 O 288.041 0.466312 -2.67465 0
M  V30 3068 C 286.497 -2.10982 -2.91573 0
M  V30 3069 C 286.105 -3.60032 -2.66611 0
M  V30 3070 C 287.849 -2.08856 -3.69567 0
M  V30 3071 C 285.756 -4.42503 -3.92358 0
M  V30 3072 H 284.686 -0.447493 -0.606849 0
M  V30 3073 H 287.337 -1.56303 -0.96133 0
M  V30 3074 H 285.719 -1.68095 -3.58553 0
M  V30 3075 H 286.893 -4.11167 -2.08035 0
M  V30 3076 H 285.208 -3.64139 -2.0197 0
M  V30 3077 H 287.805 -2.67716 -4.62852 0
M  V30 3078 H 288.148 -1.07582 -4.02159 0
M  V30 3079 H 288.681 -2.49945 -3.09471 0
M  V30 3080 H 285.42 -5.44533 -3.64916 0
M  V30 3081 H 284.94 -3.96125 -4.50383 0
M  V30 3082 H 286.619 -4.54741 -4.60238 0
M  V30 3083 N 286.751 1.08385 -1.14413 0
M  V30 3084 C 287.701 2.13509 -0.79987 0
M  V30 3085 C 288.685 1.5951 0.211059 0
M  V30 3086 O 289.877 1.76995 0.0133694 0
M  V30 3087 C 287.006 3.42162 -0.279297 0
M  V30 3088 C 286.092 4.03042 -1.31976 0
M  V30 3089 N 286.483 4.38327 -2.52395 0
M  V30 3090 C 284.781 4.30379 -1.17004 0
M  V30 3091 C 285.482 4.86428 -3.19003 0
M  V30 3092 N 284.458 4.84547 -2.46405 0
M  V30 3093 H 288.26 2.38609 -1.7159 0
M  V30 3094 H 285.774 1.2572 -1.02802 0
M  V30 3095 H 287.771 4.16898 -0.0143688 0
M  V30 3096 H 286.431 3.18511 0.630923 0
M  V30 3097 H 287.442 4.29349 -2.89621 0
M  V30 3098 H 284.119 4.16281 -0.318854 0
M  V30 3099 H 285.509 5.23107 -4.21674 0
M  V30 3100 N 288.23 0.939286 1.26551 0
M  V30 3101 C 289.477 0.585847 1.9384 0
M  V30 3102 C 289.805 -0.874784 1.73718 0
M  V30 3103 O 289.06 -1.64092 1.06642 0
M  V30 3104 C 289.359 0.872106 3.46596 0
M  V30 3105 C 289.025 2.31632 3.86856 0
M  V30 3106 C 287.687 2.71111 3.97558 0
M  V30 3107 C 290.039 3.25494 4.07066 0
M  V30 3108 C 287.367 4.03553 4.25866 0
M  V30 3109 C 289.719 4.57531 4.36862 0
M  V30 3110 C 288.383 4.96828 4.45778 0
M  V30 3111 H 287.653 0.214377 0.709312 0
M  V30 3112 H 290.3 1.18544 1.50398 0
M  V30 3113 H 288.605 0.18996 3.91339 0
M  V30 3114 H 290.302 0.577442 3.96821 0
M  V30 3115 H 286.892 2.00008 3.79071 0
M  V30 3116 H 291.076 2.9619 3.98227 0
M  V30 3117 H 286.332 4.33665 4.30981 0
M  V30 3118 H 290.506 5.30254 4.51446 0
M  V30 3119 H 288.133 5.99482 4.67468 0
M  V30 3120 N 289.708 -1.40897 0.706093 0
M  V30 3121 C 290.985 -1.94868 0.169099 0
M  V30 3122 C 291.365 -1.64485 -1.32318 0
M  V30 3123 O 290.713 -0.95744 -2.07474 0
M  V30 3124 C 290.923 -3.45798 0.471654 0
M  V30 3125 C 292.271 -4.22663 0.405127 0
M  V30 3126 O 293.295 -3.53865 0.407168 0
M  V30 3127 O 292.154 -5.45216 0.374383 0
M  V30 3128 H 289.248 -0.82673 0.0211352 0
M  V30 3129 H 291.794 -1.50558 0.782976 0
M  V30 3130 H 290.566 -3.61235 1.50416 0
M  V30 3131 H 290.189 -3.97225 -0.172666 0
M  V30 3132 N 291.186 -0.45159 -1.50991 0
M  V30 3133 C 292.463 0.170707 -1.94854 0
M  V30 3134 C 292.843 1.58788 -1.39103 0
M  V30 3135 O 292.191 2.20913 -0.583921 0
M  V30 3136 C 292.401 0.133929 -3.48743 0
M  V30 3137 C 293.749 0.33248 -4.23296 0
M  V30 3138 O 294.773 0.211403 -3.55572 0
M  V30 3139 O 293.632 0.57486 -5.43468 0
M  V30 3140 H 290.726 0.122264 -0.817912 0
M  V30 3141 H 293.272 -0.510594 -1.61836 0
M  V30 3142 H 292.044 -0.856283 -3.81816 0
M  V30 3143 H 291.667 0.857529 -3.88242 0
M  V30 3144 N 292.664 1.56529 -0.183458 0
M  V30 3145 C 293.941 1.88959 0.50536 0
M  V30 3146 C 294.321 1.09523 1.80466 0
M  V30 3147 O 293.669 0.19278 2.27685 0
M  V30 3148 C 293.879 3.41162 0.73547 0
M  V30 3149 C 295.227 4.11155 1.06005 0
M  V30 3150 O 296.251 3.46548 0.823594 0
M  V30 3151 O 295.11 5.25318 1.50675 0
M  V30 3152 H 292.204 0.78441 0.261973 0
M  V30 3153 H 294.75 1.68231 -0.222802 0
M  V30 3154 H 293.522 3.90874 -0.182561 0
M  V30 3155 H 293.145 3.67543 1.51651 0
M  V30 3156 N 294.142 -0.090211 1.57342 0
M  V30 3157 C 295.052 -1.12735 2.05738 0
M  V30 3158 C 296.068 -1.43557 0.983231 0
M  V30 3159 O 297.244 -1.54101 1.29672 0
M  V30 3160 C 294.309 -2.42659 2.47624 0
M  V30 3161 C 293.37 -2.18975 3.69254 0
M  V30 3162 C 292.603 -3.42704 4.09133 0
M  V30 3163 O 292.826 -4.51127 3.49057 0
M  V30 3164 O 291.76 -3.32003 5.02053 0
M  V30 3165 H 295.586 -0.746279 2.94388 0
M  V30 3166 H 293.171 -0.303064 1.46294 0
M  V30 3167 H 295.053 -3.19155 2.7517 0
M  V30 3168 H 293.728 -2.80182 1.62109 0
M  V30 3169 H 292.635 -1.40244 3.46818 0
M  V30 3170 H 293.968 -1.86342 4.55563 0
M  V30 3171 N 295.62 -1.53406 -0.361157 0
M  V30 3172 C 296.567 -1.80156 -1.44265 0
M  V30 3173 C 297.537 -0.646183 -1.53015 0
M  V30 3174 O 298.722 -0.888818 -1.68833 0
M  V30 3175 C 295.862 -2.00116 -2.81154 0
M  V30 3176 C 294.975 -3.27833 -2.81335 0
M  V30 3177 C 294.11 -3.37957 -4.09828 0
M  V30 3178 C 293.149 -4.59689 -4.04168 0
M  V30 3179 N 292.286 -4.66942 -5.24318 0
M  V30 3180 H 297.126 -2.72438 -1.20754 0
M  V30 3181 H 294.663 -1.34954 -0.585296 0
M  V30 3182 H 296.621 -2.09677 -3.60682 0
M  V30 3183 H 295.251 -1.11167 -3.03054 0
M  V30 3184 H 294.303 -3.27204 -1.94014 0
M  V30 3185 H 295.615 -4.17442 -2.73027 0
M  V30 3186 H 294.769 -3.46853 -4.97773 0
M  V30 3187 H 293.508 -2.46372 -4.20894 0
M  V30 3188 H 292.513 -4.50889 -3.14609 0
M  V30 3189 H 293.738 -5.5262 -3.947 0
M  V30 3190 H 291.684 -3.7826 -5.35962 0
M  V30 3191 H 291.601 -5.50462 -5.18197 0
M  V30 3192 H 292.869 -4.80127 -6.14084 0
M  V30 3193 N 297.098 0.621204 -1.44841 0
M  V30 3194 C 298.344 1.38073 -1.49357 0
M  V30 3195 C 298.699 1.91973 -0.128115 0
M  V30 3196 O 297.992 1.71311 0.858087 0
M  V30 3197 C 298.186 2.55675 -2.4973 0
M  V30 3198 C 298.015 2.13289 -3.95901 0
M  V30 3199 C 296.785 2.001 -4.63991 0
M  V30 3200 C 298.983 1.7159 -4.84831 0
M  V30 3201 N 296.965 1.51381 -5.94943 0
M  V30 3202 C 298.336 1.34188 -6.05304 0
M  V30 3203 C 300.391 1.59059 -4.7181 0
M  V30 3204 C 299.094 0.855085 -7.14199 0
M  V30 3205 C 301.12 1.11784 -5.8074 0
M  V30 3206 C 300.482 0.753385 -7.0036 0
M  V30 3207 H 296.581 0.499675 -0.601539 0
M  V30 3208 H 299.165 0.711609 -1.8123 0
M  V30 3209 H 297.336 3.20201 -2.19832 0
M  V30 3210 H 299.068 3.22509 -2.4448 0
M  V30 3211 H 295.823 2.20863 -4.18947 0
M  V30 3212 H 296.247 1.29293 -6.64539 0
M  V30 3213 H 300.889 1.85865 -3.79755 0
M  V30 3214 H 298.607 0.574552 -8.06055 0
M  V30 3215 H 302.193 1.02533 -5.72694 0
M  V30 3216 H 301.073 0.393183 -7.83214 0
M  V30 3217 N 298.576 1.31904 0.862503 0
M  V30 3218 C 299.804 1.24998 1.64873 0
M  V30 3219 C 300.219 -0.183425 1.87907 0
M  V30 3220 O 299.576 -1.11794 1.44251 0
M  V30 3221 C 299.627 1.99829 3.01248 0
M  V30 3222 O 299.348 3.37575 2.79239 0
M  V30 3223 C 300.849 1.99852 3.95694 0
M  V30 3224 H 298.069 0.431599 0.513773 0
M  V30 3225 H 300.613 1.73901 1.07604 0
M  V30 3226 H 298.768 1.54668 3.55185 0
M  V30 3227 H 299.182 3.75776 3.65914 0
M  V30 3228 H 300.656 2.56709 4.88676 0
M  V30 3229 H 301.133 0.982852 4.28062 0
M  V30 3230 H 301.739 2.44926 3.47694 0
M  V30 3231 N 300.054 -1.07777 1.14986 0
M  V30 3232 C 300.964 -2.18404 0.856546 0
M  V30 3233 C 301.98 -1.73211 -0.165485 0
M  V30 3234 O 303.156 -2.01399 0.00755219 0
M  V30 3235 C 300.221 -3.44977 0.34526 0
M  V30 3236 C 299.282 -4.0476 1.43065 0
M  V30 3237 C 298.515 -5.25291 0.943663 0
M  V30 3238 O 298.738 -5.70004 -0.212426 0
M  V30 3239 O 297.672 -5.76638 1.72547 0
M  V30 3240 H 301.498 -2.45978 1.78125 0
M  V30 3241 H 299.083 -1.17033 0.928631 0
M  V30 3242 H 300.965 -4.21348 0.0663671 0
M  V30 3243 H 299.64 -3.18965 -0.551631 0
M  V30 3244 H 298.547 -3.29949 1.76309 0
M  V30 3245 H 299.88 -4.35035 2.30229 0
M  V30 3246 N 301.532 -0.945985 -1.26051 0
M  V30 3247 C 302.809 -0.513816 -1.88731 0
M  V30 3248 C 303.189 1.00872 -1.8544 0
M  V30 3249 O 302.537 1.8708 -1.312 0
M  V30 3250 C 302.747 -1.08062 -3.31849 0
M  V30 3251 C 304.095 -1.1522 -4.08668 0
M  V30 3252 O 305.119 -1.03155 -3.40936 0
M  V30 3253 O 303.978 -1.34044 -5.29806 0
M  V30 3254 H 301.072 -0.168193 -0.809716 0
M  V30 3255 H 303.618 -1.03886 -1.34186 0
M  V30 3256 H 302.39 -2.1241 -3.2863 0
M  V30 3257 H 302.013 -0.538307 -3.93939 0
M  V30 3258 N 303.011 1.40521 -0.713556 0
M  V30 3259 C 303.974 2.29098 -0.0684347 0
M  V30 3260 C 304.974 1.45268 0.689472 0
M  V30 3261 O 306.164 1.66205 0.521677 0
M  V30 3262 C 303.296 3.28446 0.913024 0
M  V30 3263 H 304.489 2.87645 -0.84855 0
M  V30 3264 H 302.042 1.48809 -0.47809 0
M  V30 3265 H 302.777 2.74913 1.72027 0
M  V30 3266 H 302.562 3.90327 0.372472 0
M  V30 3267 H 304.052 3.94777 1.36165 0
M  V30 3268 N 304.489 0.459591 1.5075 0
M  V30 3269 C 305.714 -0.0996819 2.0716 0
M  V30 3270 C 306.139 -1.33761 1.32249 0
M  V30 3271 O 305.497 -1.77551 0.366786 0
M  V30 3272 C 305.545 -0.378226 3.58611 0
M  V30 3273 O 304.649 -1.46081 3.85661 0
M  V30 3274 H 303.99 0.00791392 0.663953 0
M  V30 3275 H 306.52 0.647329 1.9409 0
M  V30 3276 H 306.53 -0.622135 4.03229 0
M  V30 3277 H 305.205 0.526439 4.12555 0
M  V30 3278 H 303.782 -1.20511 3.5289 0
M  V30 3279 N 305.967 -1.56429 0.191757 0
M  V30 3280 C 307.215 -1.97095 -0.447006 0
M  V30 3281 C 307.536 -1.07967 -1.62383 0
M  V30 3282 O 306.806 -0.150248 -1.95323 0
M  V30 3283 H 305.386 -0.727832 -0.168135 0
M  V30 3284 H 308.048 -1.92911 0.27771 0
M  V30 3285 H 307.144 -3.01848 -0.793371 0
M  V30 3286 N 307.445 0.0818655 -1.57387 0
M  V30 3287 C 308.673 0.796108 -1.9097 0
M  V30 3288 C 309.088 1.71626 -0.786757 0
M  V30 3289 O 308.445 1.80908 0.240513 0
M  V30 3290 C 308.496 1.59829 -3.24248 0
M  V30 3291 O 308.217 0.715131 -4.32224 0
M  V30 3292 C 309.718 2.41442 -3.7178 0
M  V30 3293 H 306.938 0.22691 -0.631469 0
M  V30 3294 H 309.482 0.0551439 -2.04426 0
M  V30 3295 H 307.637 2.29163 -3.12351 0
M  V30 3296 H 308.051 1.27205 -5.08841 0
M  V30 3297 H 309.525 2.932 -4.67694 0
M  V30 3298 H 310.002 3.2051 -3.00283 0
M  V30 3299 H 310.608 1.77283 -3.86589 0
M  V30 3300 N 308.923 1.53595 0.353017 0
M  V30 3301 C 309.871 1.81605 1.45335 0
M  V30 3302 C 310.865 0.685923 1.54892 0
M  V30 3303 O 312.071 0.869095 1.57628 0
M  V30 3304 H 308.446 0.575204 0.484401 0
M  V30 3305 H 310.417 2.73679 1.18921 0
M  V30 3306 C 309.166 2.03406 2.81995 0
M  V30 3307 H 308.489 2.89814 2.75405 0
M  V30 3308 H 309.929 2.26975 3.58132 0
M  V30 3309 C 308.388 0.816794 3.26849 0
M  V30 3310 O 308.918 0.0115856 4.01698 0
M  V30 3311 N 307.124 0.636682 2.8354 0
M  V30 3312 H 306.671 1.2931 2.22793 0
M  V30 3313 H 306.629 -0.176336 3.13905 0
M  V30 3314 N 310.401 -0.613514 1.45168 0
M  V30 3315 C 311.331 -1.7354 1.56225 0
M  V30 3316 C 312.312 -1.64981 0.41414 0
M  V30 3317 O 313.497 -1.83472 0.636526 0
M  V30 3318 C 310.627 -3.12128 1.52295 0
M  V30 3319 C 309.581 -3.35491 2.65762 0
M  V30 3320 C 308.907 -4.74291 2.46885 0
M  V30 3321 C 310.207 -3.26325 4.0781 0
M  V30 3322 H 311.901 -1.64543 2.50132 0
M  V30 3323 H 309.447 -0.790185 1.20383 0
M  V30 3324 H 311.4 -3.90404 1.58628 0
M  V30 3325 H 310.124 -3.2195 0.549139 0
M  V30 3326 H 308.783 -2.59603 2.58847 0
M  V30 3327 H 308.431 -4.80839 1.47657 0
M  V30 3328 H 308.131 -4.9088 3.22972 0
M  V30 3329 H 309.655 -5.54775 2.55063 0
M  V30 3330 H 311.069 -3.94483 4.16 0
M  V30 3331 H 309.466 -3.54445 4.8424 0
M  V30 3332 H 310.536 -2.23855 4.30136 0
M  V30 3333 N 311.879 -1.3236 -0.855495 0
M  V30 3334 C 313.126 -1.22872 -1.60962 0
M  V30 3335 C 313.454 0.209658 -1.93367 0
M  V30 3336 O 312.709 1.16243 -1.57436 0
M  V30 3337 C 313.008 -2.03275 -2.93963 0
M  V30 3338 C 312.674 -3.5264 -2.80991 0
M  V30 3339 C 311.336 -3.93364 -2.7716 0
M  V30 3340 C 313.688 -4.47626 -2.66983 0
M  V30 3341 C 311.016 -5.27319 -2.572 0
M  V30 3342 C 313.368 -5.81723 -2.48558 0
M  V30 3343 C 312.032 -6.2165 -2.4312 0
M  V30 3344 H 311.302 -0.44962 -0.589001 0
M  V30 3345 H 313.949 -1.63777 -0.992442 0
M  V30 3346 H 312.254 -1.55095 -3.59795 0
M  V30 3347 H 313.951 -1.93303 -3.51333 0
M  V30 3348 H 310.541 -3.20295 -2.84797 0
M  V30 3349 H 314.725 -4.17084 -2.68988 0
M  V30 3350 H 309.981 -5.57311 -2.51424 0
M  V30 3351 H 314.155 -6.5494 -2.36699 0
M  V30 3352 H 311.782 -7.25388 -2.27412 0
M  V30 3353 N 313.357 1.07166 -1.15556 0
M  V30 3354 C 314.287 2.16403 -0.877046 0
M  V30 3355 C 315.268 1.69217 0.173111 0
M  V30 3356 O 316.453 1.94181 0.027084 0
M  V30 3357 C 313.583 3.45349 -0.367632 0
M  V30 3358 C 312.537 4.05995 -1.35468 0
M  V30 3359 C 311.863 5.30045 -0.704038 0
M  V30 3360 C 313.163 4.45804 -2.72132 0
M  V30 3361 H 314.857 2.39959 -1.79053 0
M  V30 3362 H 312.403 1.15325 -0.862331 0
M  V30 3363 H 314.356 4.21095 -0.160317 0
M  V30 3364 H 313.08 3.21385 0.581326 0
M  V30 3365 H 311.739 3.32296 -1.54839 0
M  V30 3366 H 311.387 5.02373 0.251128 0
M  V30 3367 H 311.087 5.71579 -1.36277 0
M  V30 3368 H 312.611 6.08495 -0.50654 0
M  V30 3369 H 314.025 5.12671 -2.56595 0
M  V30 3370 H 312.422 4.98296 -3.34397 0
M  V30 3371 H 313.492 3.57083 -3.28054 0
M  V30 3372 N 314.835 0.952656 1.25548 0
M  V30 3373 C 316.081 0.607272 1.93494 0
M  V30 3374 C 316.414 -0.853245 1.74452 0
M  V30 3375 O 315.689 -1.61194 1.08843 0
M  V30 3376 C 315.972 0.96435 3.46947 0
M  V30 3377 C 315.825 2.48045 3.75225 0
M  V30 3378 C 317.144 0.487987 4.37386 0
M  V30 3379 H 314.263 0.222096 0.702739 0
M  V30 3380 H 316.905 1.18895 1.48203 0
M  V30 3381 H 315.055 0.469361 3.85654 0
M  V30 3382 H 316.727 3.04905 3.46166 0
M  V30 3383 H 314.97 2.919 3.209 0
M  V30 3384 H 315.641 2.6808 4.82532 0
M  V30 3385 H 318.117 0.912558 4.0597 0
M  V30 3386 H 316.993 0.766547 5.43521 0
M  V30 3387 H 317.254 -0.612063 4.37843 0
M  V30 3388 N 316.313 -1.40141 0.720998 0
M  V30 3389 C 317.276 -2.29058 0.0805834 0
M  V30 3390 C 318.276 -1.45632 -0.681758 0
M  V30 3391 O 319.466 -1.6648 -0.512856 0
M  V30 3392 C 316.598 -3.28925 -0.895593 0
M  V30 3393 H 317.791 -2.87191 0.863793 0
M  V30 3394 H 315.344 -1.48553 0.485975 0
M  V30 3395 H 316.079 -2.75822 -1.70566 0
M  V30 3396 H 315.864 -3.90519 -0.351766 0
M  V30 3397 H 317.354 -3.95494 -1.34069 0
M  V30 3398 N 317.792 -0.46758 -1.50504 0
M  V30 3399 C 318.755 0.317059 -2.26996 0
M  V30 3400 C 319.755 0.923513 -1.31635 0
M  V30 3401 O 320.945 0.793239 -1.55091 0
M  V30 3402 C 318.077 1.45134 -3.08462 0
M  V30 3403 H 319.27 -0.353723 -2.97807 0
M  V30 3404 H 316.823 -0.221545 -1.54722 0
M  V30 3405 H 317.558 2.15728 -2.4214 0
M  V30 3406 H 317.343 1.02232 -3.78538 0
M  V30 3407 H 318.833 2.00493 -3.66323 0
M  V30 3408 N 319.27 1.56325 -0.20005 0
M  V30 3409 C 320.22 2.15939 0.731743 0
M  V30 3410 C 321.204 1.10154 1.17281 0
M  V30 3411 O 322.396 1.36203 1.13038 0
M  V30 3412 C 319.525 2.82614 1.94895 0
M  V30 3413 C 318.611 3.95596 1.52855 0
M  V30 3414 N 319.002 4.99118 0.819418 0
M  V30 3415 C 317.3 4.07288 1.81748 0
M  V30 3416 C 318.001 5.78513 0.608053 0
M  V30 3417 N 316.977 5.31117 1.15828 0
M  V30 3418 H 320.779 2.9334 0.181285 0
M  V30 3419 H 318.293 1.624 -0.000452172 0
M  V30 3420 H 320.29 3.23718 2.62702 0
M  V30 3421 H 318.95 2.06702 2.50408 0
M  V30 3422 H 319.961 5.15723 0.47436 0
M  V30 3423 H 316.638 3.42509 2.38734 0
M  V30 3424 H 318.028 6.71885 0.0451619 0
M  V30 3425 N 320.748 -0.0735177 1.57428 0
M  V30 3426 C 321.658 -1.10547 2.06922 0
M  V30 3427 C 322.674 -1.42506 0.998402 0
M  V30 3428 O 323.85 -1.52717 1.31299 0
M  V30 3429 C 320.915 -2.40019 2.50184 0
M  V30 3430 C 319.976 -2.15046 3.71556 0
M  V30 3431 C 319.209 -3.38345 4.12745 0
M  V30 3432 O 319.432 -4.47399 3.53822 0
M  V30 3433 O 318.366 -3.2666 5.05546 0
M  V30 3434 H 322.192 -0.715013 2.95163 0
M  V30 3435 H 319.777 -0.287531 1.46607 0
M  V30 3436 H 321.659 -3.16218 2.78539 0
M  V30 3437 H 320.334 -2.78447 1.65072 0
M  V30 3438 H 319.241 -1.36558 3.48285 0
M  V30 3439 H 320.574 -1.81499 4.57514 0
M  V30 3440 N 322.226 -1.5378 -0.344866 0
M  V30 3441 C 323.156 -1.84662 -1.42906 0
M  V30 3442 C 324.137 -0.701648 -1.54955 0
M  V30 3443 O 325.322 -0.953438 -1.69184 0
M  V30 3444 C 322.452 -2.05503 -2.79974 0
M  V30 3445 C 321.406 -3.21318 -2.82734 0
M  V30 3446 C 320.732 -3.2749 -4.22675 0
M  V30 3447 C 322.032 -4.59456 -2.48389 0
M  V30 3448 H 323.726 -2.75461 -1.17311 0
M  V30 3449 H 321.272 -1.32542 -0.562896 0
M  V30 3450 H 323.225 -2.25691 -3.55867 0
M  V30 3451 H 321.949 -1.11434 -3.07002 0
M  V30 3452 H 320.608 -3.00984 -2.09294 0
M  V30 3453 H 320.256 -2.31019 -4.4681 0
M  V30 3454 H 319.956 -4.05316 -4.25433 0
M  V30 3455 H 321.48 -3.49887 -5.00412 0
M  V30 3456 H 322.894 -4.79667 -3.13995 0
M  V30 3457 H 321.291 -5.39675 -2.62432 0
M  V30 3458 H 322.361 -4.63155 -1.4358 0
M  V30 3459 N 323.704 0.605807 -1.45491 0
M  V30 3460 C 324.952 1.36207 -1.49305 0
M  V30 3461 C 325.273 1.94519 -0.136863 0
M  V30 3462 O 324.543 1.77261 0.833983 0
M  V30 3463 H 323.123 0.50565 -0.549843 0
M  V30 3464 H 325.785 0.711239 -1.81459 0
M  V30 3465 H 324.881 2.18058 -2.23287 0
M  V30 3466 N 325.182 1.32811 0.848464 0
M  V30 3467 C 326.132 1.18842 1.94578 0
M  V30 3468 C 327.116 0.0937517 1.60627 0
M  V30 3469 O 328.308 0.320887 1.74067 0
M  V30 3470 C 325.437 0.91999 3.30743 0
M  V30 3471 C 324.523 2.05665 3.70894 0
M  V30 3472 N 324.914 3.30579 3.8282 0
M  V30 3473 C 323.212 1.9612 4.00566 0
M  V30 3474 C 323.913 4.05067 4.17487 0
M  V30 3475 N 322.889 3.33419 4.2934 0
M  V30 3476 H 326.691 2.13536 2.0194 0
M  V30 3477 H 324.205 1.2468 1.0406 0
M  V30 3478 H 326.202 0.800859 4.09136 0
M  V30 3479 H 324.862 -0.0185076 3.24695 0
M  V30 3480 H 325.873 3.65441 3.66978 0
M  V30 3481 H 322.55 1.09871 4.02784 0
M  V30 3482 H 323.94 5.12815 4.34131 0
M  V30 3483 N 326.66 -1.06551 1.16123 0
M  V30 3484 C 327.885 -1.83544 0.965735 0
M  V30 3485 C 328.31 -1.81843 -0.481102 0
M  V30 3486 O 327.668 -1.21732 -1.34354 0
M  V30 3487 C 327.716 -3.28169 1.49457 0
M  V30 3488 O 326.82 -4.0643 0.699157 0
M  V30 3489 H 326.161 -0.568026 0.343864 0
M  V30 3490 H 328.691 -1.34362 1.54299 0
M  V30 3491 H 328.701 -3.78992 1.51092 0
M  V30 3492 H 327.376 -3.28722 2.54784 0
M  V30 3493 H 325.953 -3.65216 0.7531 0
M  V30 3494 N 328.138 -0.959301 -1.25041 0
M  V30 3495 C 329.068 -0.501388 -2.28053 0
M  V30 3496 C 330.049 0.454673 -1.63911 0
M  V30 3497 O 331.234 0.352618 -1.90972 0
M  V30 3498 C 328.364 0.217224 -3.4662 0
M  V30 3499 C 327.318 -0.654034 -4.22973 0
M  V30 3500 C 326.644 0.195589 -5.34342 0
M  V30 3501 C 327.944 -1.93447 -4.85155 0
M  V30 3502 H 329.638 -1.36238 -2.66608 0
M  V30 3503 H 327.184 -0.656534 -1.28163 0
M  V30 3504 H 329.137 0.548732 -4.17812 0
M  V30 3505 H 327.861 1.1125 -3.07068 0
M  V30 3506 H 326.52 -0.968693 -3.5357 0
M  V30 3507 H 326.168 1.09076 -4.91031 0
M  V30 3508 H 325.868 -0.384091 -5.86343 0
M  V30 3509 H 327.392 0.521958 -6.08365 0
M  V30 3510 H 328.806 -1.66908 -5.48466 0
M  V30 3511 H 327.203 -2.46018 -5.47353 0
M  V30 3512 H 328.273 -2.63466 -4.07079 0
M  V30 3513 N 329.616 1.39756 -0.72842 0
M  V30 3514 C 330.864 2.00248 -0.272946 0
M  V30 3515 C 331.185 1.58077 1.14178 0
M  V30 3516 O 330.455 0.826014 1.77634 0
M  V30 3517 H 329.035 0.740554 -0.0979247 0
M  V30 3518 H 331.697 1.70903 -0.936912 0
M  V30 3519 H 330.793 3.10495 -0.316142 0
M  V30 3520 N 331.094 0.475555 1.50254 0
M  V30 3521 C 332.024 -0.30611 2.31485 0
M  V30 3522 C 333.005 -0.986228 1.38591 0
M  V30 3523 O 334.19 -0.982541 1.67511 0
M  V30 3524 C 331.32 -1.38588 3.1845 0
M  V30 3525 C 330.274 -0.827115 4.19932 0
M  V30 3526 C 329.6 -2.00551 4.95665 0
M  V30 3527 C 330.9 0.16463 5.2204 0
M  V30 3528 H 332.594 0.371866 2.97082 0
M  V30 3529 H 330.14 0.180282 1.42867 0
M  V30 3530 H 332.093 -1.94023 3.74076 0
M  V30 3531 H 330.817 -2.09269 2.50747 0
M  V30 3532 H 329.476 -0.294702 3.65414 0
M  V30 3533 H 329.124 -2.6994 4.2443 0
M  V30 3534 H 328.824 -1.63784 5.64313 0
M  V30 3535 H 330.348 -2.56468 5.54127 0
M  V30 3536 H 331.762 -0.300699 5.72511 0
M  V30 3537 H 330.159 0.446813 5.98434 0
M  V30 3538 H 331.229 1.08905 4.72512 0
M  V30 3539 N 332.573 -1.56217 0.208337 0
M  V30 3540 C 333.82 -1.97949 -0.42692 0
M  V30 3541 C 334.148 -1.09562 -1.60706 0
M  V30 3542 O 333.403 -0.137616 -1.95216 0
M  V30 3543 C 333.702 -3.45441 -0.916797 0
M  V30 3544 C 333.368 -4.50646 0.151391 0
M  V30 3545 C 332.03 -4.79139 0.444867 0
M  V30 3546 C 334.382 -5.13811 0.874492 0
M  V30 3547 C 331.71 -5.68084 1.46619 0
M  V30 3548 C 334.062 -6.03861 1.88506 0
M  V30 3549 C 332.726 -6.30704 2.18559 0
M  V30 3550 H 331.996 -0.724345 -0.156221 0
M  V30 3551 H 334.643 -1.89006 0.308084 0
M  V30 3552 H 332.948 -3.51521 -1.73032 0
M  V30 3553 H 334.645 -3.75094 -1.41794 0
M  V30 3554 H 331.235 -4.28511 -0.0875068 0
M  V30 3555 H 335.419 -4.91879 0.660996 0
M  V30 3556 H 330.675 -5.87151 1.7048 0
M  V30 3557 H 334.849 -6.51861 2.45051 0
M  V30 3558 H 332.476 -6.99424 2.97843 0
M  V30 3559 N 334.051 0.0651679 -1.57465 0
M  V30 3560 C 335.001 1.0838 -2.00594 0
M  V30 3561 C 335.985 1.34106 -0.889071 0
M  V30 3562 O 337.177 1.34295 -1.15299 0
M  V30 3563 C 334.306 2.39565 -2.45894 0
M  V30 3564 C 333.392 2.17085 -3.64328 0
M  V30 3565 N 333.783 1.64553 -4.78285 0
M  V30 3566 C 332.081 2.4753 -3.71006 0
M  V30 3567 C 332.782 1.57042 -5.60101 0
M  V30 3568 N 331.758 2.03328 -5.04141 0
M  V30 3569 H 335.56 0.671062 -2.86136 0
M  V30 3570 H 333.074 0.27213 -1.60104 0
M  V30 3571 H 335.071 3.13308 -2.75034 0
M  V30 3572 H 333.731 2.81549 -1.61741 0
M  V30 3573 H 334.742 1.33323 -5.00445 0
M  V30 3574 H 331.419 2.92835 -2.9758 0
M  V30 3575 H 332.809 1.17223 -6.61595 0
M  V30 3576 N 335.529 1.53961 0.336706 0
M  V30 3577 C 336.754 1.75797 1.10046 0
M  V30 3578 C 337.179 0.498985 1.81361 0
M  V30 3579 O 336.537 -0.548769 1.72795 0
M  V30 3580 C 336.585 2.94257 2.08436 0
M  V30 3581 O 335.689 2.64883 3.16087 0
M  V30 3582 H 335.03 0.582936 0.317934 0
M  V30 3583 H 337.56 2.00945 0.38501 0
M  V30 3584 H 337.57 3.21237 2.51537 0
M  V30 3585 H 336.245 3.85564 1.55927 0
M  V30 3586 H 334.822 2.48812 2.77753 0
M  V30 3587 N 337.007 -0.598083 1.45811 0
M  V30 3588 C 337.97 -1.69018 1.54808 0
M  V30 3589 C 338.97 -1.55037 0.426652 0
M  V30 3590 O 340.16 -1.59932 0.690456 0
M  V30 3591 C 337.292 -3.0835 1.45371 0
M  V30 3592 H 338.485 -1.62403 2.52121 0
M  V30 3593 H 336.038 -0.814626 1.33392 0
M  V30 3594 H 336.773 -3.20534 0.492793 0
M  V30 3595 H 336.558 -3.19907 2.26721 0
M  V30 3596 H 338.048 -3.8788 1.54721 0
M  V30 3597 N 338.485 -1.33259 -0.841409 0
M  V30 3598 C 339.433 -1.23279 -1.97244 0
M  V30 3599 C 340.427 -0.134706 -1.68864 0
M  V30 3600 O 341.633 -0.298501 -1.77508 0
M  V30 3601 H 338.008 -0.382497 -0.647457 0
M  V30 3602 H 339.979 -2.18906 -2.02787 0
M  V30 3603 C 338.728 -0.986268 -3.33419 0
M  V30 3604 H 338.051 -1.82347 -3.55794 0
M  V30 3605 H 339.491 -0.956728 -4.13065 0
M  V30 3606 C 337.95 0.310842 -3.35463 0
M  V30 3607 O 338.48 1.31838 -3.79449 0
M  V30 3608 N 336.686 0.337485 -2.88634 0
M  V30 3609 H 336.233 -0.482967 -2.53032 0
M  V30 3610 H 336.191 1.20518 -2.90384 0
M  V30 3611 N 339.963 1.05934 -1.16686 0
M  V30 3612 C 341.191 1.8249 -0.974929 0
M  V30 3613 C 341.606 1.82679 0.476861 0
M  V30 3614 O 340.963 1.2486 1.33103 0
M  V30 3615 C 341.014 3.28943 -1.49929 0
M  V30 3616 O 340.735 3.28886 -2.89423 0
M  V30 3617 C 342.236 4.22215 -1.35089 0
M  V30 3618 H 339.456 0.575295 -0.345365 0
M  V30 3619 H 342 1.33631 -1.548 0
M  V30 3620 H 340.155 3.751 -0.968423 0
M  V30 3621 H 340.569 4.20493 -3.13506 0
M  V30 3622 H 342.043 5.22987 -1.76603 0
M  V30 3623 H 342.52 4.38195 -0.296935 0
M  V30 3624 H 343.126 3.81907 -1.87155 0
M  V30 3625 N 341.441 0.965919 1.2453 0
M  V30 3626 C 342.351 0.502154 2.29163 0
M  V30 3627 C 343.367 -0.436017 1.68448 0
M  V30 3628 O 344.543 -0.309497 1.99008 0
M  V30 3629 C 341.608 -0.201956 3.46111 0
M  V30 3630 C 340.669 0.775821 4.22232 0
M  V30 3631 C 339.902 0.105217 5.33596 0
M  V30 3632 O 340.125 -1.10683 5.59558 0
M  V30 3633 O 339.059 0.796475 5.96607 0
M  V30 3634 H 342.885 1.37194 2.70946 0
M  V30 3635 H 340.47 0.732875 1.30189 0
M  V30 3636 H 342.352 -0.597564 4.17142 0
M  V30 3637 H 341.027 -1.04673 3.06309 0
M  V30 3638 H 339.934 1.22185 3.53584 0
M  V30 3639 H 341.267 1.58896 4.65846 0
M  V30 3640 N 342.919 -1.39368 0.735821 0
M  V30 3641 C 343.882 -2.2896 0.104874 0
M  V30 3642 C 344.882 -1.46347 -0.666274 0
M  V30 3643 O 346.072 -1.67014 -0.49517 0
M  V30 3644 C 343.204 -3.29857 -0.860656 0
M  V30 3645 H 344.397 -2.86259 0.894205 0
M  V30 3646 H 341.95 -1.48029 0.501704 0
M  V30 3647 H 342.685 -2.77615 -1.67631 0
M  V30 3648 H 342.47 -3.9087 -0.310327 0
M  V30 3649 H 343.96 -3.96893 -1.29867 0
M  V30 3650 N 344.397 -0.483516 -1.5 0
M  V30 3651 C 345.327 0.293829 -2.31644 0
M  V30 3652 C 346.308 0.978864 -1.39112 0
M  V30 3653 O 347.493 0.973644 -1.68029 0
M  V30 3654 C 344.623 1.36897 -3.19181 0
M  V30 3655 C 343.577 0.804833 -4.20365 0
M  V30 3656 C 342.903 1.9792 -4.96721 0
M  V30 3657 C 344.203 -0.192313 -5.21946 0
M  V30 3658 H 345.897 -0.387616 -2.9688 0
M  V30 3659 H 343.443 -0.187856 -1.42769 0
M  V30 3660 H 345.396 1.92037 -3.751 0
M  V30 3661 H 344.12 2.07936 -2.51853 0
M  V30 3662 H 342.779 0.275319 -3.65565 0
M  V30 3663 H 342.427 2.67686 -4.25856 0
M  V30 3664 H 342.127 1.60789 -5.65173 0
M  V30 3665 H 343.651 2.53526 -5.55479 0
M  V30 3666 H 345.065 0.270333 -5.72662 0
M  V30 3667 H 343.462 -0.478543 -5.98189 0
M  V30 3668 H 344.532 -1.11409 -4.71928 0
M  V30 3669 N 345.875 1.56104 -0.216619 0
M  V30 3670 C 346.808 2.16026 0.735395 0
M  V30 3671 C 347.786 1.1032 1.1945 0
M  V30 3672 O 348.97 1.38549 1.27814 0
M  V30 3673 C 346.097 2.73656 1.99575 0
M  V30 3674 C 345.143 3.92146 1.67702 0
M  V30 3675 S 345.976 5.29397 0.806145 0
M  V30 3676 C 347.132 5.90463 2.07617 0
M  V30 3677 H 347.365 2.96439 0.226072 0
M  V30 3678 H 344.898 1.544 -0.00136639 0
M  V30 3679 H 346.856 3.075 2.71945 0
M  V30 3680 H 345.517 1.93245 2.47619 0
M  V30 3681 H 344.71 4.30954 2.61332 0
M  V30 3682 H 344.312 3.59423 1.03398 0
M  V30 3683 H 346.604 6.06136 3.02664 0
M  V30 3684 H 347.547 6.86589 1.73207 0
M  V30 3685 H 347.955 5.19252 2.21445 0
M  V30 3686 N 347.353 -0.0568162 1.57498 0
M  V30 3687 C 348.583 -0.764515 1.91934 0
M  V30 3688 C 348.991 -1.70877 0.81227 0
M  V30 3689 O 348.334 -1.82351 -0.222213 0
M  V30 3690 C 348.396 -1.5994 3.21962 0
M  V30 3691 C 348.06 -0.822925 4.4953 0
M  V30 3692 C 349.057 -0.135464 5.19723 0
M  V30 3693 C 346.742 -0.785666 4.96117 0
M  V30 3694 C 348.736 0.578861 6.34766 0
M  V30 3695 C 346.423 -0.0675784 6.11063 0
M  V30 3696 C 347.421 0.613471 6.80239 0
M  V30 3697 O 347.109 1.31996 7.92989 0
M  V30 3698 H 346.841 -0.221647 0.63863 0
M  V30 3699 H 349.395 -0.0268218 2.05382 0
M  V30 3700 H 347.625 -2.38026 3.04763 0
M  V30 3701 H 349.314 -2.18715 3.41934 0
M  V30 3702 H 350.08 -0.155458 4.84751 0
M  V30 3703 H 345.959 -1.30524 4.42136 0
M  V30 3704 H 349.503 1.111 6.88696 0
M  V30 3705 H 345.4 -0.0455636 6.45484 0
M  V30 3706 H 346.168 1.23077 8.09194 0
M  V30 3707 N 348.832 -1.54138 -0.328536 0
M  V30 3708 C 350.243 -1.63395 -0.903272 0
M  V30 3709 C 350.594 -0.524828 -1.8905 0
M  V30 3710 O 349.719 0.343068 -2.13663 0
M  V30 3711 C 350.314 -2.9618 -1.64507 0
M  V30 3712 C 348.873 -3.0765 -2.1686 0
M  V30 3713 C 348.02 -2.58933 -0.992416 0
M  V30 3714 H 350.971 -1.58344 -0.106253 0
M  V30 3715 H 350.992 -2.86061 -2.50897 0
M  V30 3716 H 350.504 -3.76884 -0.926302 0
M  V30 3717 H 348.605 -2.31611 -2.91868 0
M  V30 3718 H 348.718 -4.1337 -2.42202 0
M  V30 3719 H 347.082 -2.14706 -1.37016 0
M  V30 3720 H 347.865 -3.42089 -0.288041 0
M  V30 3721 N 350.31 0.590341 -1.46126 0
M  V30 3722 C 351.24 1.71032 -1.58966 0
M  V30 3723 C 352.221 1.64302 -0.440335 0
M  V30 3724 O 353.406 1.82436 -0.665634 0
M  V30 3725 C 350.536 3.09665 -1.57241 0
M  V30 3726 C 349.49 3.31221 -2.71066 0
M  V30 3727 C 348.816 4.70303 -2.54399 0
M  V30 3728 C 350.116 3.19796 -4.1295 0
M  V30 3729 H 351.81 1.60543 -2.52718 0
M  V30 3730 H 349.356 0.770933 -1.21625 0
M  V30 3731 H 351.309 3.87831 -1.64819 0
M  V30 3732 H 350.033 3.21036 -0.600289 0
M  V30 3733 H 348.692 2.55452 -2.62944 0
M  V30 3734 H 348.34 4.78429 -1.55288 0
M  V30 3735 H 348.04 4.85679 -3.30741 0
M  V30 3736 H 349.564 5.50647 -2.63857 0
M  V30 3737 H 350.978 3.87815 -4.22223 0
M  V30 3738 H 349.375 3.46696 -4.89818 0
M  V30 3739 H 350.445 2.16983 -4.33643 0
M  V30 3740 N 351.788 1.33704 0.83433 0
M  V30 3741 C 353.018 1.28281 1.6195 0
M  V30 3742 C 353.426 -0.147603 1.88623 0
M  V30 3743 O 352.769 -1.1016 1.47005 0
M  V30 3744 C 352.831 1.99386 2.99141 0
M  V30 3745 C 352.495 3.48681 2.95416 0
M  V30 3746 C 353.492 4.438 2.70809 0
M  V30 3747 C 351.177 3.90925 3.15409 0
M  V30 3748 C 353.171 5.79138 2.66229 0
M  V30 3749 C 350.858 5.26366 3.10454 0
M  V30 3750 C 351.856 6.20284 2.85895 0
M  V30 3751 O 351.544 7.53245 2.80852 0
M  V30 3752 H 351.276 0.44315 0.510484 0
M  V30 3753 H 353.83 1.76711 1.04702 0
M  V30 3754 H 352.06 1.45554 3.58261 0
M  V30 3755 H 353.749 1.87403 3.60049 0
M  V30 3756 H 354.515 4.12485 2.5511 0
M  V30 3757 H 350.394 3.18229 3.33543 0
M  V30 3758 H 353.938 6.52416 2.4698 0
M  V30 3759 H 349.835 5.57304 3.25703 0
M  V30 3760 H 350.603 7.62846 2.96661 0
M  V30 3761 N 353.266 -1.05314 1.17247 0
M  V30 3762 C 354.214 -2.15137 0.884238 0
M  V30 3763 C 355.208 -1.68729 -0.15063 0
M  V30 3764 O 356.414 -1.8 -0.00366673 0
M  V30 3765 H 352.789 -0.702471 0.2684 0
M  V30 3766 H 354.76 -2.36652 1.81764 0
M  V30 3767 C 353.509 -3.45243 0.412659 0
M  V30 3768 H 352.832 -3.81352 1.20043 0
M  V30 3769 H 354.272 -4.23263 0.249858 0
M  V30 3770 C 352.731 -3.25487 -0.86948 0
M  V30 3771 O 353.261 -3.51938 -1.93655 0
M  V30 3772 N 351.467 -2.78875 -0.817147 0
M  V30 3773 H 351.014 -2.57549 0.0514211 0
M  V30 3774 H 350.972 -2.66036 -1.67547 0
M  V30 3775 N 354.744 -0.972509 -1.24016 0
M  V30 3776 C 355.969 -0.654417 -1.96805 0
M  V30 3777 C 356.394 0.770398 -1.716 0
M  V30 3778 O 355.752 1.52361 -0.982647 0
M  V30 3779 C 355.8 -0.941031 -3.48105 0
M  V30 3780 O 354.904 -0.0289472 -4.1239 0
M  V30 3781 H 354.245 -0.24692 -0.616382 0
M  V30 3782 H 356.775 -1.30396 -1.57664 0
M  V30 3783 H 356.785 -0.87452 -3.98517 0
M  V30 3784 H 355.46 -1.97939 -3.65777 0
M  V30 3785 H 354.037 -0.149192 -3.72601 0
M  V30 3786 N 356.222 1.38976 -0.743202 0
M  V30 3787 C 357.469 2.00343 -0.294752 0
M  V30 3788 C 357.797 1.58983 1.12047 0
M  V30 3789 O 357.052 0.813809 1.77977 0
M  V30 3790 C 357.351 3.55647 -0.353517 0
M  V30 3791 C 357.017 4.16685 -1.72292 0
M  V30 3792 C 355.679 4.3307 -2.09771 0
M  V30 3793 C 358.031 4.50464 -2.62168 0
M  V30 3794 C 355.359 4.80526 -3.36618 0
M  V30 3795 C 357.711 4.99332 -3.88395 0
M  V30 3796 C 356.375 5.13924 -4.25956 0
M  V30 3797 H 355.645 0.733108 -0.107857 0
M  V30 3798 H 358.292 1.6618 -0.951651 0
M  V30 3799 H 356.597 3.89884 0.386954 0
M  V30 3800 H 358.294 4.00998 0.0117269 0
M  V30 3801 H 354.884 4.04339 -1.42155 0
M  V30 3802 H 359.068 4.37416 -2.3448 0
M  V30 3803 H 354.324 4.90008 -3.65653 0
M  V30 3804 H 358.498 5.2444 -4.58187 0
M  V30 3805 H 356.125 5.50457 -5.2431 0
M  V30 3806 N 357.7 0.491464 1.49741 0
M  V30 3807 C 358.928 -0.0535151 2.06831 0
M  V30 3808 C 359.343 -1.31683 1.35296 0
M  V30 3809 O 358.7 -1.77402 0.42836 0
M  V30 3810 C 358.751 -0.320835 3.60073 0
M  V30 3811 O 358.472 0.892394 4.28915 0
M  V30 3812 C 359.973 -0.910519 4.33848 0
M  V30 3813 H 357.193 0.0161909 0.670805 0
M  V30 3814 H 359.737 0.68609 1.92647 0
M  V30 3815 H 357.892 -1.0104 3.73991 0
M  V30 3816 H 358.306 0.649401 5.20464 0
M  V30 3817 H 359.78 -1.04721 5.41976 0
M  V30 3818 H 360.257 -1.90589 3.95692 0
M  V30 3819 H 360.863 -0.258712 4.24512 0
M  V30 3820 N 359.178 -1.55987 0.224894 0
M  V30 3821 C 360.088 -2.24066 -0.69511 0
M  V30 3822 C 361.104 -1.24939 -1.21104 0
M  V30 3823 O 362.28 -1.5776 -1.25195 0
M  V30 3824 C 359.345 -2.90983 -1.88493 0
M  V30 3825 C 358.406 -4.05462 -1.41064 0
M  V30 3826 C 357.639 -4.69179 -2.54375 0
M  V30 3827 O 357.862 -4.31895 -3.72589 0
M  V30 3828 O 356.796 -5.58108 -2.25386 0
M  V30 3829 H 360.622 -3.03353 -0.145149 0
M  V30 3830 H 358.207 -1.49399 -0.00569476 0
M  V30 3831 H 360.089 -3.33209 -2.57972 0
M  V30 3832 H 358.764 -2.14653 -2.42293 0
M  V30 3833 H 357.671 -3.67798 -0.683774 0
M  V30 3834 H 359.004 -4.83545 -0.918985 0
M  V30 3835 N 360.656 0.0484629 -1.57525 0
M  V30 3836 C 361.586 1.0549 -2.08313 0
M  V30 3837 C 362.567 1.38929 -0.981463 0
M  V30 3838 O 363.752 1.48151 -1.25558 0
M  V30 3839 C 360.882 2.36162 -2.54646 0
M  V30 3840 C 359.836 2.17016 -3.68901 0
M  V30 3841 C 359.162 3.53278 -4.01371 0
M  V30 3842 C 360.462 1.57219 -4.98076 0
M  V30 3843 H 362.156 0.632195 -2.92649 0
M  V30 3844 H 359.702 0.302654 -1.40784 0
M  V30 3845 H 361.655 3.06882 -2.88793 0
M  V30 3846 H 360.379 2.80456 -1.67368 0
M  V30 3847 H 359.038 1.48733 -3.35073 0
M  V30 3848 H 358.686 3.95185 -3.11188 0
M  V30 3849 H 358.386 3.41299 -4.78318 0
M  V30 3850 H 359.91 4.25391 -4.38035 0
M  V30 3851 H 361.324 2.17832 -5.30304 0
M  V30 3852 H 359.721 1.55871 -5.79503 0
M  V30 3853 H 360.791 0.535956 -4.81929 0
M  V30 3854 N 362.134 1.5431 0.320358 0
M  V30 3855 C 363.097 1.83195 1.3774 0
M  V30 3856 C 364.097 0.703906 1.44575 0
M  V30 3857 O 365.287 0.972214 1.44546 0
M  V30 3858 C 362.419 1.99487 2.76438 0
M  V30 3859 H 363.612 2.77642 1.1338 0
M  V30 3860 H 361.165 1.46076 0.556012 0
M  V30 3861 H 361.9 1.07262 3.06048 0
M  V30 3862 H 361.685 2.81575 2.7287 0
M  V30 3863 H 363.175 2.23271 3.52902 0
M  V30 3864 N 363.613 -0.582584 1.46437 0
M  V30 3865 C 364.545 -1.70618 1.53043 0
M  V30 3866 C 365.558 -1.57322 0.418769 0
M  V30 3867 O 366.747 -1.64744 0.687136 0
M  V30 3868 C 363.847 -3.08869 1.39474 0
M  V30 3869 C 363.02 -3.48166 2.64762 0
M  V30 3870 C 362.079 -4.65478 2.4539 0
M  V30 3871 O 361.105 -4.71333 3.19114 0
M  V30 3872 N 362.307 -5.60365 1.51564 0
M  V30 3873 H 365.072 -1.65405 2.49923 0
M  V30 3874 H 362.633 -0.768567 1.42494 0
M  V30 3875 H 364.625 -3.85143 1.24287 0
M  V30 3876 H 363.195 -3.08449 0.507758 0
M  V30 3877 H 362.415 -2.61598 2.9489 0
M  V30 3878 H 363.703 -3.71188 3.4799 0
M  V30 3879 H 363.101 -5.5837 0.907705 0
M  V30 3880 H 361.658 -6.36068 1.4234 0
M  V30 3881 N 365.091 -1.34144 -0.827227 0
M  V30 3882 C 366.338 -1.26258 -1.58319 0
M  V30 3883 C 366.666 0.168595 -1.93768 0
M  V30 3884 O 365.921 1.12877 -1.59866 0
M  V30 3885 C 366.22 -2.09464 -2.89585 0
M  V30 3886 C 365.886 -3.58521 -2.73448 0
M  V30 3887 C 364.548 -3.99155 -2.68754 0
M  V30 3888 C 366.9 -4.53189 -2.57428 0
M  V30 3889 C 364.228 -5.32656 -2.45957 0
M  V30 3890 C 366.58 -5.86864 -2.36163 0
M  V30 3891 C 365.244 -6.26667 -2.29879 0
M  V30 3892 H 364.514 -0.462013 -0.579332 0
M  V30 3893 H 367.161 -1.65845 -0.95748 0
M  V30 3894 H 365.466 -1.62692 -3.56425 0
M  V30 3895 H 367.163 -2.00712 -3.47154 0
M  V30 3896 H 363.753 -3.26264 -2.77939 0
M  V30 3897 H 367.937 -4.22696 -2.60081 0
M  V30 3898 H 363.193 -5.62519 -2.39546 0
M  V30 3899 H 367.367 -6.59813 -2.22754 0
M  V30 3900 H 364.994 -7.30049 -2.11975 0
M  V30 3901 N 366.569 1.04691 -1.17803 0
M  V30 3902 C 367.985 1.29963 -0.926379 0
M  V30 3903 C 368.185 1.97251 0.411635 0
M  V30 3904 O 367.241 2.24922 1.14744 0
M  V30 3905 C 368.554 2.16447 -2.08737 0
M  V30 3906 C 370.102 2.29814 -2.12496 0
M  V30 3907 C 370.577 3.19661 -3.27995 0
M  V30 3908 N 372.068 3.27247 -3.27816 0
M  V30 3909 C 372.803 3.96906 -4.13827 0
M  V30 3910 N 372.299 4.6895 -5.09959 0
M  V30 3911 N 374.092 3.93122 -4.01761 0
M  V30 3912 H 366.243 0.594182 -2.0392 0
M  V30 3913 H 368.506 0.324649 -0.890678 0
M  V30 3914 H 368.212 1.74304 -3.05469 0
M  V30 3915 H 368.086 3.17103 -2.04268 0
M  V30 3916 H 370.473 2.71196 -1.16347 0
M  V30 3917 H 370.554 1.2877 -2.21025 0
M  V30 3918 H 370.198 2.78991 -4.24413 0
M  V30 3919 H 370.128 4.20722 -3.16703 0
M  V30 3920 H 372.619 2.75921 -2.58217 0
M  V30 3921 H 372.932 5.19679 -5.71974 0
M  V30 3922 H 371.277 4.67875 -5.13924 0
M  V30 3923 H 374.468 3.35967 -3.2595 0
M  V30 3924 H 374.641 4.47139 -4.6901 0
M  V30 3925 N 368.047 0.979072 1.23499 0
M  V30 3926 C 368.977 0.537606 2.27227 0
M  V30 3927 C 369.958 -0.428539 1.64613 0
M  V30 3928 O 371.143 -0.322191 1.91509 0
M  V30 3929 C 368.273 -0.162052 3.46922 0
M  V30 3930 C 367.227 0.721242 4.21879 0
M  V30 3931 C 366.553 -0.110555 5.34586 0
M  V30 3932 C 367.853 2.01141 4.82016 0
M  V30 3933 H 369.547 1.40462 2.64406 0
M  V30 3934 H 367.093 0.67684 1.27102 0
M  V30 3935 H 369.046 -0.482192 4.18632 0
M  V30 3936 H 367.77 -1.06351 3.08799 0
M  V30 3937 H 366.429 1.02482 3.51984 0
M  V30 3938 H 366.077 -1.0125 4.92704 0
M  V30 3939 H 365.777 0.477325 5.85658 0
M  V30 3940 H 367.301 -0.425107 6.09118 0
M  V30 3941 H 368.715 1.75612 5.45741 0
M  V30 3942 H 367.112 2.54695 5.43369 0
M  V30 3943 H 368.182 2.69909 4.02836 0
M  V30 3944 N 369.525 -1.3858 0.750561 0
M  V30 3945 C 370.75 -2.04997 0.314812 0
M  V30 3946 C 371.175 -1.56235 -1.04749 0
M  V30 3947 O 370.533 -0.712981 -1.66692 0
M  V30 3948 C 370.581 -3.58961 0.343415 0
M  V30 3949 O 369.685 -4.07025 -0.663628 0
M  V30 3950 H 369.026 -0.649081 0.139962 0
M  V30 3951 H 371.556 -1.77313 1.02084 0
M  V30 3952 H 371.566 -4.07542 0.193233 0
M  V30 3953 H 370.241 -3.93811 1.33738 0
M  V30 3954 H 368.818 -3.6982 -0.478307 0
M  V30 3955 N 371.003 -0.499398 -1.49478 0
M  V30 3956 C 371.935 0.316575 -2.27003 0
M  V30 3957 C 372.948 0.932047 -1.33479 0
M  V30 3958 O 374.137 0.815658 -1.58774 0
M  V30 3959 C 371.237 1.46055 -3.05812 0
M  V30 3960 C 370.41 0.952679 -4.26899 0
M  V30 3961 C 369.469 1.97407 -4.87767 0
M  V30 3962 O 368.495 1.54326 -5.4788 0
M  V30 3963 N 369.697 3.30436 -4.77276 0
M  V30 3964 H 372.462 -0.348168 -2.97671 0
M  V30 3965 H 370.023 -0.33185 -1.58463 0
M  V30 3966 H 372.015 2.14135 -3.43407 0
M  V30 3967 H 370.585 2.02948 -2.37762 0
M  V30 3968 H 369.805 0.0968248 -3.94081 0
M  V30 3969 H 371.093 0.59174 -5.05347 0
M  V30 3970 H 370.491 3.68126 -4.29534 0
M  V30 3971 H 369.048 3.94235 -5.19059 0
M  V30 3972 N 372.481 1.55866 -0.233164 0
M  V30 3973 C 373.758 1.90471 0.444988 0
M  V30 3974 C 374.138 1.15209 1.7689 0
M  V30 3975 O 373.486 0.265119 2.26957 0
M  V30 3976 C 373.696 3.4333 0.626559 0
M  V30 3977 C 375.044 4.14319 0.92871 0
M  V30 3978 O 376.068 3.48993 0.712926 0
M  V30 3979 O 374.927 5.29846 1.33887 0
M  V30 3980 H 372.021 0.792347 0.236885 0
M  V30 3981 H 374.567 1.67437 -0.276211 0
M  V30 3982 H 373.339 3.90095 -0.306822 0
M  V30 3983 H 372.962 3.72181 1.39881 0
M  V30 3984 N 373.959 -0.0401083 1.57549 0
M  V30 3985 C 375.236 -0.767917 1.79896 0
M  V30 3986 C 375.616 -1.9416 0.82856 0
M  V30 3987 O 374.964 -2.2812 -0.131671 0
M  V30 3988 C 375.174 -1.2113 3.27305 0
M  V30 3989 C 376.522 -1.63175 3.91994 0
M  V30 3990 O 377.546 -1.30616 3.31388 0
M  V30 3991 O 376.405 -2.23565 4.98679 0
M  V30 3992 H 373.499 -0.370441 0.739393 0
M  V30 3993 H 376.045 -0.017737 1.69691 0
M  V30 3994 H 374.817 -0.372937 3.89519 0
M  V30 3995 H 374.44 -2.02183 3.42356 0
M  V30 3996 N 375.437 -1.54477 -0.31217 0
M  V30 3997 C 376.683 -1.73483 -1.0503 0
M  V30 3998 C 377.016 -0.513125 -1.87298 0
M  V30 3999 O 376.291 0.489864 -1.8823 0
M  V30 4000 C 376.574 -3.01723 -1.96558 0
M  V30 4001 C 376.427 -4.3417 -1.17545 0
M  V30 4002 C 377.746 -3.25772 -2.95907 0
M  V30 4003 H 374.865 -0.631222 -0.380432 0
M  V30 4004 H 377.507 -1.87184 -0.325932 0
M  V30 4005 H 375.657 -2.90174 -2.58324 0
M  V30 4006 H 377.329 -4.5762 -0.581513 0
M  V30 4007 H 375.572 -4.31159 -0.477925 0
M  V30 4008 H 376.243 -5.20143 -1.84811 0
M  V30 4009 H 378.719 -3.36857 -2.44267 0
M  V30 4010 H 377.595 -4.16838 -3.57123 0
M  V30 4011 H 377.856 -2.43537 -3.68974 0
M  V30 4012 N 376.915 0.57481 -1.46744 0
M  V30 4013 C 377.863 1.70435 -1.58286 0
M  V30 4014 C 378.857 1.63287 -0.450956 0
M  V30 4015 O 380.063 1.68685 -0.628121 0
M  V30 4016 H 376.438 0.56364 -0.497809 0
M  V30 4017 H 378.409 1.57833 -2.53242 0
M  V30 4018 C 377.158 3.08815 -1.59776 0
M  V30 4019 H 376.481 3.1499 -2.46214 0
M  V30 4020 H 377.921 3.87588 -1.71905 0
M  V30 4021 C 376.38 3.35301 -0.327812 0
M  V30 4022 O 376.91 3.97511 0.57861 0
M  V30 4023 N 375.116 2.89816 -0.213274 0
M  V30 4024 H 374.663 2.39371 -0.951798 0
M  V30 4025 H 374.621 3.0791 0.63553 0
M  V30 4026 N 378.394 1.34581 0.820102 0
M  V30 4027 C 379.642 1.26845 1.57336 0
M  V30 4028 C 379.963 -0.160667 1.94337 0
M  V30 4029 O 379.233 -1.09396 1.6251 0
M  V30 4030 H 377.813 0.466514 0.583415 0
M  V30 4031 H 380.475 1.68526 0.979027 0
M  V30 4032 H 379.571 1.87513 2.4949 0
M  V30 4033 N 379.872 -1.04064 1.18357 0
M  V30 4034 C 381.121 -1.76662 0.973313 0
M  V30 4035 C 381.434 -1.89154 -0.497991 0
M  V30 4036 O 382.64 -2.58606 -0.826762 0
M  V30 4037 C 381.096 -3.17624 1.69242 0
M  V30 4038 C 380.704 -3.13225 3.20303 0
M  V30 4039 C 382.448 -3.946 1.56497 0
M  V30 4040 C 380.355 -4.49046 3.84853 0
M  V30 4041 H 379.285 -0.662214 0.36054 0
M  V30 4042 H 381.936 -1.16553 1.41731 0
M  V30 4043 H 380.318 -3.78129 1.1762 0
M  V30 4044 H 381.492 -2.62172 3.78949 0
M  V30 4045 H 379.807 -2.49749 3.33189 0
M  V30 4046 H 382.404 -4.95042 2.02084 0
M  V30 4047 H 382.747 -4.13074 0.517243 0
M  V30 4048 H 383.28 -3.4067 2.05399 0
M  V30 4049 H 380.019 -4.35777 4.89672 0
M  V30 4050 H 379.539 -5.00203 3.30994 0
M  V30 4051 H 381.218 -5.17961 3.87718 0
M  V30 4052 N 381.35 -0.985608 -1.22978 0
M  V30 4053 C 382.282 -0.488154 -2.23941 0
M  V30 4054 C 383.295 0.41282 -1.57479 0
M  V30 4055 O 384.484 0.216121 -1.77187 0
M  V30 4056 C 381.584 0.312611 -3.37455 0
M  V30 4057 C 380.757 -0.582741 -4.33501 0
M  V30 4058 C 379.816 0.165064 -5.25941 0
M  V30 4059 O 378.842 -0.447077 -5.67442 0
M  V30 4060 N 380.044 1.44953 -5.62111 0
M  V30 4061 H 382.809 -1.3563 -2.67254 0
M  V30 4062 H 380.37 -0.859477 -1.37203 0
M  V30 4063 H 382.362 0.821357 -3.96277 0
M  V30 4064 H 380.932 1.0818 -2.93285 0
M  V30 4065 H 380.152 -1.27225 -3.73105 0
M  V30 4066 H 381.44 -1.19275 -4.94622 0
M  V30 4067 H 380.838 1.9683 -5.30353 0
M  V30 4068 H 379.395 1.90361 -6.23383 0
M  V30 4069 N 382.828 1.3818 -0.7579 0
M  V30 4070 C 384.053 2.04827 -0.325679 0
M  V30 4071 C 384.478 1.56788 1.03919 0
M  V30 4072 O 383.836 0.721811 1.66312 0
M  V30 4073 C 383.884 3.58774 -0.362447 0
M  V30 4074 O 382.988 4.07372 0.642033 0
M  V30 4075 H 382.329 0.64833 -0.143402 0
M  V30 4076 H 384.859 1.7677 -1.03023 0
M  V30 4077 H 384.869 4.07434 -0.214844 0
M  V30 4078 H 383.544 3.93096 -1.35824 0
M  V30 4079 H 382.121 3.70068 0.458688 0
M  V30 4080 N 384.306 0.507319 1.49211 0
M  V30 4081 C 385.236 -0.256939 2.32082 0
M  V30 4082 C 386.217 -0.956609 1.40652 0
M  V30 4083 O 387.402 -0.946788 1.69557 0
M  V30 4084 C 384.532 -1.31802 3.21318 0
M  V30 4085 C 383.486 -0.737855 4.21592 0
M  V30 4086 C 382.812 -1.89992 4.99807 0
M  V30 4087 C 384.112 0.275325 5.21574 0
M  V30 4088 H 385.806 0.434798 2.96226 0
M  V30 4089 H 383.352 0.210546 1.42452 0
M  V30 4090 H 385.305 -1.86045 3.78107 0
M  V30 4091 H 384.029 -2.03903 2.5513 0
M  V30 4092 H 382.688 -0.217126 3.65956 0
M  V30 4093 H 382.336 -2.60877 4.30061 0
M  V30 4094 H 382.036 -1.51777 5.6766 0
M  V30 4095 H 383.56 -2.44657 5.59442 0
M  V30 4096 H 384.974 -0.179193 5.7302 0
M  V30 4097 H 383.371 0.573649 5.97352 0
M  V30 4098 H 384.441 1.18903 4.70096 0
M  V30 4099 N 385.784 -1.5574 0.241426 0
M  V30 4100 C 387.014 -2.02913 -0.38857 0
M  V30 4101 C 387.422 -1.12014 -1.52478 0
M  V30 4102 O 386.765 -0.125903 -1.83268 0
M  V30 4103 C 386.827 -3.4636 -0.963075 0
M  V30 4104 C 386.491 -4.56982 0.0401916 0
M  V30 4105 C 387.488 -5.12941 0.847766 0
M  V30 4106 C 385.173 -5.0203 0.164699 0
M  V30 4107 C 387.167 -6.12437 1.76636 0
M  V30 4108 C 384.854 -6.01358 1.0868 0
M  V30 4109 C 385.852 -6.5644 1.88616 0
M  V30 4110 O 385.54 -7.53831 2.79273 0
M  V30 4111 H 385.272 -0.668983 -0.0971452 0
M  V30 4112 H 387.826 -2.02198 0.361248 0
M  V30 4113 H 386.056 -3.44206 -1.76235 0
M  V30 4114 H 387.745 -3.77065 -1.50257 0
M  V30 4115 H 388.511 -4.78974 0.762133 0
M  V30 4116 H 384.39 -4.58824 -0.447411 0
M  V30 4117 H 387.934 -6.55355 2.39071 0
M  V30 4118 H 383.831 -6.34746 1.17338 0
M  V30 4119 H 384.599 -7.71428 2.73572 0
M  V30 4120 N 387.262 0.0317525 -1.57568 0
M  V30 4121 C 388.51 0.721676 -1.88776 0
M  V30 4122 C 388.831 1.76039 -0.838772 0
M  V30 4123 O 388.101 1.95482 0.127935 0
M  V30 4124 H 386.681 0.269534 -0.696678 0
M  V30 4125 H 389.343 -0.00165879 -1.949 0
M  V30 4126 H 388.439 1.21293 -2.87566 0
M  V30 4127 N 388.74 1.54641 0.303973 0
M  V30 4128 C 390.151 1.64811 0.877163 0
M  V30 4129 C 390.502 0.554838 1.88191 0
M  V30 4130 O 389.627 -0.309033 2.14182 0
M  V30 4131 C 390.222 2.9876 1.59775 0
M  V30 4132 C 388.781 3.11061 2.11938 0
M  V30 4133 C 387.928 2.60479 0.951097 0
M  V30 4134 H 390.879 1.58493 0.0810486 0
M  V30 4135 H 390.9 2.90017 2.46314 0
M  V30 4136 H 390.412 3.7831 0.866226 0
M  V30 4137 H 388.513 2.36225 2.88146 0
M  V30 4138 H 388.626 4.17171 2.35595 0
M  V30 4139 H 386.99 2.16859 1.33583 0
M  V30 4140 H 387.773 3.42504 0.233581 0
M  V30 4141 N 390.218 -0.567019 1.47046 0
M  V30 4142 C 391.629 -1.14916 1.47143 0
M  V30 4143 C 391.98 -1.94954 0.220767 0
M  V30 4144 O 391.105 -2.05602 -0.67505 0
M  V30 4145 C 391.7 -2.09069 2.666 0
M  V30 4146 C 390.259 -2.62575 2.69687 0
M  V30 4147 C 389.406 -1.38755 2.40088 0
M  V30 4148 H 392.357 -0.354126 1.54699 0
M  V30 4149 H 392.378 -2.92789 2.43011 0
M  V30 4150 H 391.89 -1.50789 3.57609 0
M  V30 4151 H 389.991 -3.24681 1.82792 0
M  V30 4152 H 390.104 -3.04239 3.70102 0
M  V30 4153 H 388.468 -1.69098 1.90468 0
M  V30 4154 H 389.251 -0.822822 3.33293 0
M  V30 4155 N 391.696 -1.35014 -0.812953 0
M  V30 4156 C 393.107 -1.25035 -1.38648 0
M  V30 4157 C 393.458 0.119967 -1.95833 0
M  V30 4158 O 392.583 1.02069 -1.90816 0
M  V30 4159 C 393.178 -2.26394 -2.52054 0
M  V30 4160 C 391.737 -2.20175 -3.05287 0
M  V30 4161 C 390.884 -2.12451 -1.78213 0
M  V30 4162 H 393.835 -1.46235 -0.616516 0
M  V30 4163 H 393.856 -1.88672 -3.30429 0
M  V30 4164 H 393.368 -3.26116 -2.10404 0
M  V30 4165 H 391.469 -1.23841 -3.51417 0
M  V30 4166 H 391.582 -3.11863 -3.63701 0
M  V30 4167 H 389.946 -1.58328 -1.9951 0
M  V30 4168 H 390.729 -3.14024 -1.38723 0
M  V30 4169 N 393.175 1.03435 -1.18907 0
M  V30 4170 C 394.138 2.09756 -0.923844 0
M  V30 4171 C 395.138 1.60528 0.093416 0
M  V30 4172 O 396.328 1.73631 -0.140727 0
M  V30 4173 C 393.46 3.38692 -0.387354 0
M  V30 4174 H 394.653 2.34719 -1.86674 0
M  V30 4175 H 392.206 1.19959 -1.00197 0
M  V30 4176 H 392.941 3.19396 0.561845 0
M  V30 4177 H 392.726 3.75742 -1.12074 0
M  V30 4178 H 394.216 4.17016 -0.220694 0
M  V30 4179 N 394.653 0.992116 1.22453 0
M  V30 4180 C 395.878 0.685644 1.95739 0
M  V30 4181 C 396.303 -0.743 1.72804 0
M  V30 4182 O 395.661 -1.50778 1.00676 0
M  V30 4183 C 395.709 0.996293 3.46564 0
M  V30 4184 O 394.813 0.0945512 4.12292 0
M  V30 4185 H 394.154 0.256694 0.612376 0
M  V30 4186 H 396.684 1.32888 1.5557 0
M  V30 4187 H 396.694 0.93781 3.97076 0
M  V30 4188 H 395.369 2.03733 3.62582 0
M  V30 4189 H 393.946 0.208451 3.72317 0
M  V30 4190 N 396.131 -1.37776 0.765217 0
M  V30 4191 C 397.359 -2.04124 0.337767 0
M  V30 4192 C 397.774 -1.57715 -1.03785 0
M  V30 4193 O 397.131 -0.755447 -1.6613 0
M  V30 4194 C 397.182 -3.59658 0.364442 0
M  V30 4195 O 396.903 -4.04367 1.68579 0
M  V30 4196 C 398.404 -4.43236 -0.0754221 0
M  V30 4197 H 395.624 -0.655696 0.142491 0
M  V30 4198 H 398.168 -1.76238 1.03732 0
M  V30 4199 H 396.323 -3.86339 -0.286471 0
M  V30 4200 H 396.737 -4.98857 1.61993 0
M  V30 4201 H 398.211 -5.52 -0.00560067 0
M  V30 4202 H 398.688 -4.2455 -1.12491 0
M  V30 4203 H 399.294 -4.21767 0.547055 0
M  V30 4204 N 397.609 -0.515225 -1.4894 0
M  V30 4205 C 398.519 0.259774 -2.33157 0
M  V30 4206 C 399.535 0.953501 -1.45548 0
M  V30 4207 O 400.711 0.931735 -1.78552 0
M  V30 4208 C 397.776 1.30193 -3.21326 0
M  V30 4209 C 396.837 0.620129 -4.24797 0
M  V30 4210 C 396.07 1.61263 -5.08753 0
M  V30 4211 O 396.293 2.84389 -4.94448 0
M  V30 4212 O 395.227 1.16013 -5.90614 0
M  V30 4213 H 399.053 -0.429932 -3.00641 0
M  V30 4214 H 396.638 -0.276346 -1.46822 0
M  V30 4215 H 398.52 1.90455 -3.75905 0
M  V30 4216 H 397.195 1.97431 -2.56521 0
M  V30 4217 H 396.102 -0.0226019 -3.74093 0
M  V30 4218 H 397.435 -0.0100493 -4.92199 0
M  V30 4219 N 399.087 1.5561 -0.249682 0
M  V30 4220 C 399.997 2.25143 0.659375 0
M  V30 4221 C 401.013 1.2685 1.19101 0
M  V30 4222 O 402.189 1.59732 1.22669 0
M  V30 4223 C 399.254 2.93945 1.8384 0
M  V30 4224 C 398.315 4.07655 1.34596 0
M  V30 4225 C 397.548 4.73167 2.46878 0
M  V30 4226 O 397.771 4.37768 3.65671 0
M  V30 4227 O 396.705 5.61623 2.16478 0
M  V30 4228 H 400.531 3.03545 0.0968698 0
M  V30 4229 H 398.116 1.49389 -0.018074 0
M  V30 4230 H 399.998 3.37271 2.52638 0
M  V30 4231 H 398.673 2.18481 2.38847 0
M  V30 4232 H 397.58 3.68839 0.625174 0
M  V30 4233 H 398.913 4.84946 0.841941 0
M  V30 4234 N 400.565 -0.0233959 1.57583 0
M  V30 4235 C 401.976 -0.56927 1.77809 0
M  V30 4236 C 402.327 -1.75284 0.881472 0
M  V30 4237 O 401.452 -2.1626 0.0777805 0
M  V30 4238 C 402.047 -1.03949 3.22459 0
M  V30 4239 C 400.606 -1.53084 3.43864 0
M  V30 4240 C 399.753 -0.471454 2.73263 0
M  V30 4241 H 402.704 0.202825 1.57399 0
M  V30 4242 H 402.725 -1.90661 3.29285 0
M  V30 4243 H 402.237 -0.177865 3.87692 0
M  V30 4244 H 400.338 -2.41414 2.83814 0
M  V30 4245 H 400.451 -1.57443 4.52491 0
M  V30 4246 H 398.815 -0.927788 2.37201 0
M  V30 4247 H 399.598 0.380808 3.41181 0
M  V30 4248 N 402.043 -1.548 -0.295768 0
M  V30 4249 C 402.973 -1.89115 -1.36959 0
M  V30 4250 C 403.954 -0.75059 -1.52644 0
M  V30 4251 O 405.139 -1.00678 -1.66065 0
M  V30 4252 C 402.269 -2.14307 -2.73295 0
M  V30 4253 C 401.223 -3.30151 -2.72368 0
M  V30 4254 C 400.549 -3.40772 -4.12042 0
M  V30 4255 C 401.849 -4.67126 -2.33646 0
M  V30 4256 H 403.543 -2.79053 -1.08488 0
M  V30 4257 H 401.089 -1.34266 -0.520443 0
M  V30 4258 H 403.042 -2.36898 -3.48507 0
M  V30 4259 H 401.766 -1.21145 -3.03301 0
M  V30 4260 H 400.425 -3.0749 -1.99613 0
M  V30 4261 H 400.073 -2.45117 -4.39234 0
M  V30 4262 H 399.773 -4.18645 -4.12322 0
M  V30 4263 H 401.297 -3.6563 -4.89027 0
M  V30 4264 H 402.711 -4.89414 -2.98575 0
M  V30 4265 H 401.108 -5.47751 -2.45129 0
M  V30 4266 H 402.178 -4.67489 -1.28772 0
M  V30 4267 N 403.521 0.559213 -1.47345 0
M  V30 4268 C 404.767 1.31843 -1.54095 0
M  V30 4269 C 405.1 1.93149 -0.201726 0
M  V30 4270 O 404.375 1.77759 0.789428 0
M  V30 4271 C 404.658 2.43006 -2.65744 0
M  V30 4272 C 404.511 1.86581 -4.09277 0
M  V30 4273 C 405.83 3.44943 -2.73318 0
M  V30 4274 H 402.949 0.478012 -0.560957 0
M  V30 4275 H 405.591 0.625977 -1.79392 0
M  V30 4276 H 403.741 3.02072 -2.44305 0
M  V30 4277 H 405.413 1.31792 -4.42073 0
M  V30 4278 H 403.656 1.17268 -4.17649 0
M  V30 4279 H 404.327 2.66933 -4.83168 0
M  V30 4280 H 406.803 2.95793 -2.92653 0
M  V30 4281 H 405.679 4.20153 -3.53218 0
M  V30 4282 H 405.94 4.03665 -1.80296 0
M  V30 4283 N 404.999 1.35443 0.805782 0
M  V30 4284 C 406.41 1.25768 1.37983 0
M  V30 4285 C 406.761 -0.10958 1.95894 0
M  V30 4286 O 405.886 -1.01056 1.91355 0
M  V30 4287 C 406.481 2.27727 2.5085 0
M  V30 4288 C 405.04 2.2179 3.04115 0
M  V30 4289 C 404.187 2.13393 1.77084 0
M  V30 4290 H 407.138 1.4656 0.608752 0
M  V30 4291 H 407.159 1.90422 3.29424 0
M  V30 4292 H 406.671 3.27227 2.08671 0
M  V30 4293 H 404.772 1.25703 3.50756 0
M  V30 4294 H 404.885 3.13788 3.62042 0
M  V30 4295 H 403.249 1.59384 1.98668 0
M  V30 4296 H 404.032 3.14755 1.37056 0
M  V30 4297 N 406.477 -1.02803 1.19454 0
M  V30 4298 C 407.705 -1.79841 1.02297 0
M  V30 4299 C 408.12 -1.83879 -0.428259 0
M  V30 4300 O 407.477 -1.28345 -1.29745 0
M  V30 4301 C 407.528 -3.24852 1.58598 0
M  V30 4302 O 407.249 -3.21097 2.98041 0
M  V30 4303 C 408.75 -4.18485 1.46236 0
M  V30 4304 H 405.97 -0.565936 0.360496 0
M  V30 4305 H 408.514 -1.2948 1.58288 0
M  V30 4306 H 406.669 -3.72401 1.06753 0
M  V30 4307 H 407.083 -4.12033 3.24545 0
M  V30 4308 H 408.557 -5.18121 1.90407 0
M  V30 4309 H 409.034 -4.37254 0.41301 0
M  V30 4310 H 409.64 -3.76811 1.97215 0
M  V30 4311 N 407.956 -0.998596 -1.21925 0
M  V30 4312 C 408.903 -0.553621 -2.24062 0
M  V30 4313 C 409.873 0.416999 -1.6078 0
M  V30 4314 O 411.058 0.320482 -1.88089 0
M  V30 4315 C 408.198 0.119959 -3.44891 0
M  V30 4316 C 407.311 -0.893077 -4.22668 0
M  V30 4317 C 406.446 -0.192424 -5.30851 0
M  V30 4318 C 405.485 -1.19344 -6.00353 0
M  V30 4319 N 404.622 -0.520707 -7.00166 0
M  V30 4320 H 409.462 -1.4293 -2.61486 0
M  V30 4321 H 406.999 -0.715838 -1.28507 0
M  V30 4322 H 408.957 0.527459 -4.13852 0
M  V30 4323 H 407.587 0.959389 -3.08214 0
M  V30 4324 H 406.639 -1.41886 -3.52948 0
M  V30 4325 H 407.951 -1.65512 -4.70539 0
M  V30 4326 H 407.105 0.271515 -6.06092 0
M  V30 4327 H 405.844 0.602075 -4.83969 0
M  V30 4328 H 404.849 -1.66795 -5.23889 0
M  V30 4329 H 406.074 -1.98891 -6.49322 0
M  V30 4330 H 404.02 0.254252 -6.55507 0
M  V30 4331 H 403.937 -1.2211 -7.46073 0
M  V30 4332 H 405.205 -0.0797596 -7.79459 0
M  V30 4333 N 409.434 1.37368 -0.772513 0
M  V30 4334 C 410.659 2.0447 -0.347386 0
M  V30 4335 C 411.084 1.57882 1.0225 0
M  V30 4336 O 410.442 0.73941 1.65537 0
M  V30 4337 C 410.49 3.58369 -0.400479 0
M  V30 4338 O 409.594 4.0803 0.598789 0
M  V30 4339 H 408.935 0.646773 -0.15027 0
M  V30 4340 H 411.465 1.75667 -1.04892 0
M  V30 4341 H 411.475 4.07183 -0.258045 0
M  V30 4342 H 410.15 3.91633 -1.39986 0
M  V30 4343 H 408.727 3.70534 0.419411 0
M  V30 4344 N 410.912 0.523116 1.48665 0
M  V30 4345 C 412.158 -0.0134963 2.02796 0
M  V30 4346 C 412.491 -1.34582 1.40004 0
M  V30 4347 O 411.766 -1.86756 0.543381 0
M  V30 4348 C 412.049 -0.14276 3.59817 0
M  V30 4349 C 411.902 1.21425 4.331 0
M  V30 4350 C 413.221 -0.872856 4.31357 0
M  V30 4351 H 410.34 -0.00343074 0.736992 0
M  V30 4352 H 412.982 0.678816 1.7746 0
M  V30 4353 H 411.132 -0.732401 3.81534 0
M  V30 4354 H 412.804 1.84447 4.2282 0
M  V30 4355 H 411.047 1.79791 3.94788 0
M  V30 4356 H 411.718 1.07687 5.41394 0
M  V30 4357 H 414.194 -0.372555 4.14429 0
M  V30 4358 H 413.07 -0.932185 5.40927 0
M  V30 4359 H 413.331 -1.92161 3.98154 0
M  V30 4360 N 412.39 -1.55475 0.257931 0
M  V30 4361 C 413.801 -1.8511 -0.243135 0
M  V30 4362 C 414.152 -1.17986 -1.5676 0
M  V30 4363 O 413.277 -0.462102 -2.11409 0
M  V30 4364 C 413.872 -3.35826 -0.447929 0
M  V30 4365 C 412.431 -3.65647 -0.893245 0
M  V30 4366 C 411.578 -2.7729 0.0232965 0
M  V30 4367 H 414.529 -1.51261 0.480199 0
M  V30 4368 H 414.55 -3.58002 -1.28898 0
M  V30 4369 H 414.062 -3.84652 0.516196 0
M  V30 4370 H 412.163 -3.22308 -1.86945 0
M  V30 4371 H 412.276 -4.73312 -0.742469 0
M  V30 4372 H 410.64 -2.49942 -0.490021 0
M  V30 4373 H 411.423 -3.28926 0.982994 0
M  V30 4374 N 413.868 0.0150385 -1.57593 0
M  V30 4375 C 415.093 0.718067 -1.94573 0
M  V30 4376 C 415.518 1.6734 -0.859005 0
M  V30 4377 O 414.876 1.80362 0.184147 0
M  V30 4378 C 414.924 1.43918 -3.30636 0
M  V30 4379 O 414.028 2.55299 -3.23876 0
M  V30 4380 H 413.369 0.192125 -0.635597 0
M  V30 4381 H 415.899 -0.0336708 -2.04572 0
M  V30 4382 H 415.909 1.80598 -3.65853 0
M  V30 4383 H 414.584 0.738619 -4.09289 0
M  V30 4384 H 413.161 2.21058 -3.00312 0
M  V30 4385 N 415.346 1.54954 0.287554 0
M  V30 4386 C 416.594 1.74528 1.01904 0
M  V30 4387 C 416.915 0.541349 1.87335 0
M  V30 4388 O 416.185 -0.444108 1.908 0
M  V30 4389 H 414.765 0.643576 0.379235 0
M  V30 4390 H 417.427 1.92333 0.315294 0
M  V30 4391 H 416.523 2.64015 1.6644 0
M  V30 4392 N 416.824 -0.551391 1.4764 0
M  V30 4393 C 418.049 -1.33837 1.58437 0
M  V30 4394 C 418.474 -1.866 0.237063 0
M  V30 4395 O 417.832 -1.6328 -0.787994 0
M  V30 4396 C 417.88 -2.48014 2.61766 0
M  V30 4397 O 416.984 -3.50419 2.1744 0
M  V30 4398 H 416.325 -0.397299 0.532024 0
M  V30 4399 H 418.855 -0.665759 1.93465 0
M  V30 4400 H 418.865 -2.94503 2.82369 0
M  V30 4401 H 417.54 -2.08969 3.5959 0
M  V30 4402 H 416.117 -3.10196 2.06961 0
M  V30 4403 N 418.302 -1.35869 -0.798587 0
M  V30 4404 C 419.212 -1.31578 -1.94228 0
M  V30 4405 C 420.228 -0.21939 -1.72611 0
M  V30 4406 O 421.404 -0.450167 -1.96305 0
M  V30 4407 C 418.469 -1.09528 -3.28944 0
M  V30 4408 C 417.53 -2.28556 -3.63402 0
M  V30 4409 C 416.763 -2.07549 -4.9169 0
M  V30 4410 O 416.986 -1.046 -5.60727 0
M  V30 4411 O 415.92 -2.95106 -5.24591 0
M  V30 4412 H 419.746 -2.27847 -2.00796 0
M  V30 4413 H 417.331 -1.16322 -0.937526 0
M  V30 4414 H 419.213 -0.991127 -4.09579 0
M  V30 4415 H 417.888 -0.16315 -3.23289 0
M  V30 4416 H 416.795 -2.44538 -2.83112 0
M  V30 4417 H 418.128 -3.20244 -3.73771 0
M  V30 4418 N 419.78 1.02168 -1.19998 0
M  V30 4419 C 420.713 2.10232 -0.887558 0
M  V30 4420 C 421.691 1.61827 0.158317 0
M  V30 4421 O 422.875 1.88471 0.0330249 0
M  V30 4422 C 420.002 3.37092 -0.32964 0
M  V30 4423 C 419.048 4.0438 -1.3557 0
M  V30 4424 S 419.881 4.48956 -2.91888 0
M  V30 4425 C 421.037 5.79024 -2.37658 0
M  V30 4426 H 421.27 2.36409 -1.80272 0
M  V30 4427 H 418.803 1.15211 -1.0279 0
M  V30 4428 H 420.761 4.10498 -0.0142824 0
M  V30 4429 H 419.422 3.08996 0.563941 0
M  V30 4430 H 418.615 4.95632 -0.9146 0
M  V30 4431 H 418.217 3.37176 -1.61828 0
M  V30 4432 H 420.509 6.53942 -1.77103 0
M  V30 4433 H 421.452 6.27924 -3.27287 0
M  V30 4434 H 421.86 5.35043 -1.79971 0
M  V30 4435 N 421.258 1.00505 1.21394 0
M  V30 4436 C 422.669 0.721082 1.72213 0
M  V30 4437 C 423.02 -0.761263 1.80829 0
M  V30 4438 O 422.145 -1.59464 1.46288 0
M  V30 4439 C 422.74 1.30228 3.12772 0
M  V30 4440 C 421.299 1.06743 3.60947 0
M  V30 4441 C 420.446 1.41507 2.38477 0
M  V30 4442 H 423.397 1.17594 1.06571 0
M  V30 4443 H 423.418 0.686955 3.74247 0
M  V30 4444 H 422.93 2.38115 3.06468 0
M  V30 4445 H 421.031 0.00572162 3.726 0
M  V30 4446 H 421.144 1.73936 4.46411 0
M  V30 4447 H 419.508 0.833852 2.40664 0
M  V30 4448 H 420.291 2.50424 2.34824 0
M  V30 4449 N 422.737 -1.36956 0.779787 0
M  V30 4450 C 423.7 -2.2851 0.177662 0
M  V30 4451 C 424.7 -1.48393 -0.619377 0
M  V30 4452 O 425.89 -1.68505 -0.441785 0
M  V30 4453 C 423.022 -3.32428 -0.755279 0
M  V30 4454 H 424.215 -2.83269 0.984823 0
M  V30 4455 H 421.768 -1.46358 0.548544 0
M  V30 4456 H 422.503 -2.82808 -1.58714 0
M  V30 4457 H 422.288 -3.91659 -0.185817 0
M  V30 4458 H 423.778 -4.00824 -1.17174 0
M  V30 4459 N 424.215 -0.530993 -1.48385 0
M  V30 4460 C 425.162 0.231223 -2.29639 0
M  V30 4461 C 426.132 0.932864 -1.37429 0
M  V30 4462 O 427.317 0.933692 -1.66394 0
M  V30 4463 C 424.457 1.27155 -3.2082 0
M  V30 4464 C 423.57 0.578655 -4.28107 0
M  V30 4465 C 422.705 1.602 -5.06467 0
M  V30 4466 C 421.744 0.892625 -6.05556 0
M  V30 4467 N 420.881 1.86157 -6.76971 0
M  V30 4468 H 425.721 -0.467848 -2.94305 0
M  V30 4469 H 423.258 -0.242556 -1.45086 0
M  V30 4470 H 425.216 1.88703 -3.72085 0
M  V30 4471 H 423.846 1.939 -2.58075 0
M  V30 4472 H 422.898 -0.150782 -3.80101 0
M  V30 4473 H 424.21 0.0217065 -4.98795 0
M  V30 4474 H 423.364 2.29173 -5.61751 0
M  V30 4475 H 422.103 2.19285 -4.35621 0
M  V30 4476 H 421.108 0.188829 -5.49476 0
M  V30 4477 H 422.333 0.307878 -6.78402 0
M  V30 4478 H 420.279 2.44147 -6.08875 0
M  V30 4479 H 420.196 1.35608 -7.43738 0
M  V30 4480 H 421.464 2.54325 -7.36844 0
M  V30 4481 N 425.693 1.55336 -0.266172 0
M  V30 4482 C 426.933 2.01303 0.354459 0
M  V30 4483 C 427.297 1.15046 1.53715 0
M  V30 4484 O 428.498 1.50554 2.22681 0
M  V30 4485 C 426.769 3.49748 0.735579 0
M  V30 4486 S 428.328 4.1771 1.34401 0
M  V30 4487 H 425.146 0.702333 0.110674 0
M  V30 4488 H 427.748 1.91653 -0.385916 0
M  V30 4489 H 426.452 4.10181 -0.134196 0
M  V30 4490 H 425.983 3.63364 1.50764 0
M  V30 4491 H 427.998 4.20594 2.63278 0
M  V30 4492 N 427.171 -0.0066808 1.57599 0
M  V30 4493 C 428.448 -0.729586 1.81484 0
M  V30 4494 C 428.828 -1.92359 0.869558 0
M  V30 4495 O 428.176 -2.28348 -0.0832533 0
M  V30 4496 C 428.386 -1.1416 3.29801 0
M  V30 4497 C 429.734 -1.54823 3.95367 0
M  V30 4498 O 430.758 -1.23558 3.34084 0
M  V30 4499 O 429.617 -2.12937 5.03309 0
M  V30 4500 H 426.711 -0.354674 0.747085 0
M  V30 4501 H 429.257 0.0182609 1.6969 0
M  V30 4502 H 428.029 -0.290231 3.90222 0
M  V30 4503 H 427.652 -1.94876 3.46568 0
M  V30 4504 N 428.649 -1.55105 -0.279332 0
M  V30 4505 C 430.06 -1.66186 -0.850832 0
M  V30 4506 C 430.411 -0.584707 -1.87285 0
M  V30 4507 O 429.536 0.274919 -2.14647 0
M  V30 4508 C 430.131 -3.01264 -1.55001 0
M  V30 4509 C 428.69 -3.14394 -2.06963 0
M  V30 4510 C 427.837 -2.61959 -0.909536 0
M  V30 4511 H 430.788 -1.58602 -0.0558235 0
M  V30 4512 H 430.809 -2.93899 -2.41669 0
M  V30 4513 H 430.321 -3.7964 -0.805931 0
M  V30 4514 H 428.422 -2.4078 -2.84352 0
M  V30 4515 H 428.535 -4.20867 -2.28928 0
M  V30 4516 H 426.899 -2.18957 -1.30116 0
M  V30 4517 H 427.682 -3.42833 -0.179062 0
M  V30 4518 N 430.127 0.543554 -1.4793 0
M  V30 4519 C 431.09 1.63156 -1.60975 0
M  V30 4520 C 432.09 1.53346 -0.483899 0
M  V30 4521 O 433.28 1.5726 -0.749339 0
M  V30 4522 C 430.412 3.02743 -1.56716 0
M  V30 4523 H 431.605 1.52934 -2.57975 0
M  V30 4524 H 429.158 0.764557 -1.36324 0
M  V30 4525 H 429.893 3.18484 -0.611418 0
M  V30 4526 H 429.678 3.11272 -2.38438 0
M  V30 4527 H 431.168 3.81871 -1.6901 0
M  V30 4528 N 431.605 1.3629 0.791371 0
M  V30 4529 C 432.535 1.33137 1.91825 0
M  V30 4530 C 433.516 0.203168 1.68882 0
M  V30 4531 O 434.701 0.400509 1.90025 0
M  V30 4532 C 431.831 1.11793 3.28816 0
M  V30 4533 C 430.785 2.21417 3.66277 0
M  V30 4534 C 430.111 1.85218 5.01596 0
M  V30 4535 C 431.411 3.63489 3.75064 0
M  V30 4536 H 433.105 2.2743 1.9472 0
M  V30 4537 H 430.651 1.09479 0.935437 0
M  V30 4538 H 432.604 1.08222 4.07266 0
M  V30 4539 H 431.328 0.139501 3.26302 0
M  V30 4540 H 429.987 2.2411 2.90121 0
M  V30 4541 H 429.635 0.859544 4.95602 0
M  V30 4542 H 429.335 2.58611 5.27631 0
M  V30 4543 H 430.859 1.832 5.82469 0
M  V30 4544 H 432.273 3.63034 4.43711 0
M  V30 4545 H 430.67 4.35771 4.12582 0
M  V30 4546 H 431.74 3.98536 2.76219 0
M  V30 4547 N 433.083 -1.0153 1.20538 0
M  V30 4548 C 434.308 -1.79283 1.04271 0
M  V30 4549 C 434.733 -1.8372 -0.403544 0
M  V30 4550 O 434.091 -1.27321 -1.2907 0
M  V30 4551 C 434.139 -3.21535 1.63241 0
M  V30 4552 O 433.243 -4.03099 0.870908 0
M  V30 4553 H 432.584 -0.55293 0.367647 0
M  V30 4554 H 435.114 -1.27696 1.59859 0
M  V30 4555 H 435.124 -3.72243 1.6703 0
M  V30 4556 H 433.799 -3.1762 2.68497 0
M  V30 4557 H 432.376 -3.61693 0.907323 0
M  V30 4558 N 434.561 -1.01147 -1.20859 0
M  V30 4559 C 435.808 -0.697865 -1.90095 0
M  V30 4560 C 436.136 0.772014 -1.78522 0
M  V30 4561 O 435.391 1.57595 -1.16027 0
M  V30 4562 C 435.69 -1.0727 -3.40922 0
M  V30 4563 C 435.356 -2.53792 -3.72693 0
M  V30 4564 C 434.018 -2.93829 -3.81075 0
M  V30 4565 C 436.37 -3.48674 -3.87397 0
M  V30 4566 C 433.698 -4.27696 -4.01613 0
M  V30 4567 C 436.05 -4.82223 -4.09444 0
M  V30 4568 C 434.714 -5.21973 -4.16054 0
M  V30 4569 H 433.984 -0.255367 -0.695607 0
M  V30 4570 H 436.631 -1.27111 -1.43231 0
M  V30 4571 H 434.936 -0.417799 -3.89566 0
M  V30 4572 H 436.633 -0.807818 -3.92779 0
M  V30 4573 H 433.223 -2.21768 -3.66765 0
M  V30 4574 H 437.407 -3.18904 -3.80281 0
M  V30 4575 H 432.663 -4.58055 -4.04964 0
M  V30 4576 H 436.837 -5.55672 -4.19763 0
M  V30 4577 H 434.464 -6.25717 -4.31721 0
M  V30 4578 N 436.039 1.36541 -0.78704 0
M  V30 4579 C 437.316 1.9355 -0.282424 0
M  V30 4580 C 437.696 1.71919 1.22503 0
M  V30 4581 O 437.044 1.07677 2.01539 0
M  V30 4582 C 437.254 3.4246 -0.672462 0
M  V30 4583 C 438.602 4.19582 -0.650863 0
M  V30 4584 O 439.626 3.50889 -0.612789 0
M  V30 4585 O 438.485 5.42106 -0.691623 0
M  V30 4586 H 435.579 0.824091 -0.0693 0
M  V30 4587 H 438.125 1.45736 -0.869423 0
M  V30 4588 H 436.897 3.51851 -1.71221 0
M  V30 4589 H 436.52 3.97556 -0.0592211 0
M  V30 4590 N 437.518 0.538854 1.48102 0
M  V30 4591 C 438.481 -0.208395 2.28251 0
M  V30 4592 C 439.481 -0.859656 1.35892 0
M  V30 4593 O 440.671 -0.71834 1.58699 0
M  V30 4594 C 437.803 -1.30252 3.15035 0
M  V30 4595 H 438.996 0.495407 2.9578 0
M  V30 4596 H 436.549 0.295112 1.53489 0
M  V30 4597 H 437.284 -2.0393 2.52157 0
M  V30 4598 H 437.069 -0.840551 3.82985 0
M  V30 4599 H 438.559 -1.82787 3.75471 0
M  V30 4600 N 438.996 -1.55193 0.274407 0
M  V30 4601 C 440.245 -1.98758 -0.343213 0
M  V30 4602 C 440.558 -1.16624 -1.5703 0
M  V30 4603 O 441.764 -1.5033 -2.26082 0
M  V30 4604 C 440.22 -3.53759 -0.661996 0
M  V30 4605 C 439.828 -4.4467 0.54524 0
M  V30 4606 C 441.572 -4.05916 -1.24228 0
M  V30 4607 C 439.479 -5.91058 0.201084 0
M  V30 4608 H 438.409 -0.742353 -0.132014 0
M  V30 4609 H 441.06 -1.79545 0.378948 0
M  V30 4610 H 439.442 -3.68772 -1.44304 0
M  V30 4611 H 440.616 -4.41426 1.32212 0
M  V30 4612 H 438.931 -4.03143 1.04232 0
M  V30 4613 H 441.528 -5.12831 -1.51357 0
M  V30 4614 H 441.871 -3.54908 -2.17592 0
M  V30 4615 H 442.404 -3.9434 -0.523542 0
M  V30 4616 H 439.143 -6.46161 1.10258 0
M  V30 4617 H 438.663 -5.97373 -0.539045 0
M  V30 4618 H 440.342 -6.46669 -0.206954 0
M  V30 4619 N 440.474 -0.00167713 -1.576 0
M  V30 4620 C 441.699 0.69739 -1.95323 0
M  V30 4621 C 442.124 1.6642 -0.876706 0
M  V30 4622 O 441.482 1.80548 0.165007 0
M  V30 4623 C 441.53 1.40403 -3.32144 0
M  V30 4624 O 440.634 2.5185 -3.26566 0
M  V30 4625 H 439.975 0.185373 -0.637599 0
M  V30 4626 H 442.505 -0.0553665 -2.04525 0
M  V30 4627 H 442.515 1.76707 -3.67748 0
M  V30 4628 H 441.19 0.695167 -4.10049 0
M  V30 4629 H 439.767 2.17861 -3.0264 0
M  V30 4630 N 441.952 1.55251 0.271103 0
M  V30 4631 C 443.18 1.79974 1.02064 0
M  V30 4632 C 443.595 0.574003 1.79863 0
M  V30 4633 O 442.952 -0.456962 1.76686 0
M  V30 4634 C 443.003 3.02603 1.97772 0
M  V30 4635 O 442.724 4.20443 1.23124 0
M  V30 4636 C 444.225 3.39944 2.84522 0
M  V30 4637 H 441.445 0.599489 0.301419 0
M  V30 4638 H 443.989 2.02268 0.301313 0
M  V30 4639 H 442.144 2.8243 2.65165 0
M  V30 4640 H 442.558 4.89783 1.87651 0
M  V30 4641 H 444.032 4.28915 3.47471 0
M  V30 4642 H 444.509 2.59432 3.54389 0
M  V30 4643 H 445.115 3.62383 2.22618 0
M  V30 4644 N 443.43 -0.535701 1.48216 0
M  V30 4645 C 444.36 -1.65014 1.65204 0
M  V30 4646 C 445.341 -1.62554 0.501011 0
M  V30 4647 O 446.526 -1.7984 0.732886 0
M  V30 4648 C 443.656 -3.03616 1.68626 0
M  V30 4649 C 442.61 -3.20932 2.83172 0
M  V30 4650 C 441.936 -4.60537 2.71679 0
M  V30 4651 C 443.236 -3.04249 4.24535 0
M  V30 4652 H 444.93 -1.51053 2.58502 0
M  V30 4653 H 442.476 -0.725262 1.24402 0
M  V30 4654 H 444.429 -3.81446 1.79099 0
M  V30 4655 H 443.153 -3.18587 0.719026 0
M  V30 4656 H 441.812 -2.45517 2.72244 0
M  V30 4657 H 441.46 -4.72336 1.72937 0
M  V30 4658 H 441.16 -4.73069 3.48538 0
M  V30 4659 H 442.684 -5.40475 2.84112 0
M  V30 4660 H 444.098 -3.71877 4.36326 0
M  V30 4661 H 442.495 -3.28278 5.02348 0
M  V30 4662 H 443.565 -2.00739 4.41397 0
M  V30 4663 N 444.908 -1.36708 -0.784132 0
M  V30 4664 C 446.324 -1.17237 -1.08294 0
M  V30 4665 C 446.524 -5.93947e-05 -2.015 0
M  V30 4666 O 445.58 0.663686 -2.43622 0
M  V30 4667 C 446.893 -2.48557 -1.69233 0
M  V30 4668 C 448.441 -2.54968 -1.8155 0
M  V30 4669 C 448.916 -3.86388 -2.45904 0
M  V30 4670 N 450.407 -3.87762 -2.53367 0
M  V30 4671 C 451.142 -4.86191 -3.03983 0
M  V30 4672 N 450.638 -5.95015 -3.54866 0
M  V30 4673 N 452.431 -4.73606 -3.02743 0
M  V30 4674 H 444.582 -2.11758 -0.16501 0
M  V30 4675 H 446.845 -0.93822 -0.135822 0
M  V30 4676 H 446.551 -3.34638 -1.08215 0
M  V30 4677 H 446.425 -2.64748 -2.68679 0
M  V30 4678 H 448.812 -1.69302 -2.41704 0
M  V30 4679 H 448.893 -2.42672 -0.80895 0
M  V30 4680 H 448.537 -4.72462 -1.86392 0
M  V30 4681 H 448.467 -3.95982 -3.4714 0
M  V30 4682 H 450.958 -3.09145 -2.17343 0
M  V30 4683 H 451.271 -6.66086 -3.91854 0
M  V30 4684 H 449.616 -5.98676 -3.53003 0
M  V30 4685 H 452.807 -3.87717 -2.62284 0
M  V30 4686 H 452.98 -5.50473 -3.41881 0
M  V30 4687 N 446.386 1.0089 -1.21074 0
M  V30 4688 C 447.634 1.74262 -1.02358 0
M  V30 4689 C 447.955 1.89869 0.444393 0
M  V30 4690 O 447.225 1.44677 1.32081 0
M  V30 4691 H 445.805 0.645615 -0.375754 0
M  V30 4692 H 448.467 1.21596 -1.52317 0
M  V30 4693 H 447.563 2.74328 -1.4883 0
M  V30 4694 N 447.864 1.01787 1.20321 0
M  V30 4695 C 448.774 0.598898 2.26827 0
M  V30 4696 C 449.79 -0.36418 1.70146 0
M  V30 4697 O 450.966 -0.224812 2.00141 0
M  V30 4698 C 448.031 -0.0549769 3.46656 0
M  V30 4699 C 447.092 0.954205 4.18561 0
M  V30 4700 C 446.325 0.331439 5.3267 0
M  V30 4701 O 446.548 -0.86851 5.63749 0
M  V30 4702 O 445.482 1.0488 5.92692 0
M  V30 4703 H 449.308 1.48562 2.64883 0
M  V30 4704 H 446.893 0.787434 1.26964 0
M  V30 4705 H 448.775 -0.420102 4.19301 0
M  V30 4706 H 447.45 -0.915876 3.10473 0
M  V30 4707 H 446.357 1.37072 3.48083 0
M  V30 4708 H 447.69 1.78511 4.58688 0
M  V30 4709 N 449.342 -1.36122 0.79427 0
M  V30 4710 C 450.572 -2.03067 0.380437 0
M  V30 4711 C 450.98 -1.60018 -1.00949 0
M  V30 4712 O 450.323 -0.787425 -1.65968 0
M  V30 4713 C 450.385 -3.57587 0.37034 0
M  V30 4714 C 450.049 -4.23855 1.70867 0
M  V30 4715 C 451.046 -4.46404 2.66496 0
M  V30 4716 C 448.731 -4.61229 1.9893 0
M  V30 4717 C 450.725 -5.05412 3.88378 0
M  V30 4718 C 448.412 -5.19953 3.21079 0
M  V30 4719 C 449.41 -5.41985 4.15621 0
M  V30 4720 O 449.098 -5.99475 5.35616 0
M  V30 4721 H 448.83 -0.658168 0.154243 0
M  V30 4722 H 451.384 -1.7498 1.0757 0
M  V30 4723 H 449.614 -3.84814 -0.381444 0
M  V30 4724 H 451.303 -4.05895 -0.0194894 0
M  V30 4725 H 452.069 -4.17921 2.46103 0
M  V30 4726 H 447.948 -4.43402 1.26158 0
M  V30 4727 H 451.492 -5.22524 4.62185 0
M  V30 4728 H 447.389 -5.47862 3.41347 0
M  V30 4729 H 448.157 -6.17937 5.36745 0
M  V30 4730 N 450.82 -0.546701 -1.47814 0
M  V30 4731 C 451.75 0.195317 -2.32682 0
M  V30 4732 C 452.731 0.918981 -1.43139 0
M  V30 4733 O 453.916 0.901501 -1.72008 0
M  V30 4734 C 451.046 1.23237 -3.247 0
M  V30 4735 C 450 0.625818 -4.234 0
M  V30 4736 C 449.326 1.76674 -5.04669 0
M  V30 4737 C 450.626 -0.413515 -5.2066 0
M  V30 4738 H 452.32 -0.513184 -2.94969 0
M  V30 4739 H 449.866 -0.248241 -1.41844 0
M  V30 4740 H 451.819 1.75955 -3.82907 0
M  V30 4741 H 450.543 1.97067 -2.60446 0
M  V30 4742 H 449.202 0.120023 -3.66403 0
M  V30 4743 H 448.85 2.49383 -4.36826 0
M  V30 4744 H 448.55 1.36673 -5.71484 0
M  V30 4745 H 450.074 2.29738 -5.65732 0
M  V30 4746 H 451.488 0.0272042 -5.73294 0
M  V30 4747 H 449.885 -0.731825 -5.95621 0
M  V30 4748 H 450.955 -1.31325 -4.66778 0
M  V30 4749 N 452.299 1.55045 -0.282633 0
M  V30 4750 C 453.546 1.9976 0.33199 0
M  V30 4751 C 453.874 1.17105 1.55295 0
M  V30 4752 O 453.129 0.230599 1.94337 0
M  V30 4753 C 453.428 3.49422 0.750938 0
M  V30 4754 C 453.094 4.4941 -0.366228 0
M  V30 4755 C 451.756 4.76471 -0.672964 0
M  V30 4756 C 454.108 5.09054 -1.11864 0
M  V30 4757 C 451.436 5.60442 -1.73556 0
M  V30 4758 C 453.788 5.9418 -2.17102 0
M  V30 4759 C 452.452 6.19558 -2.48402 0
M  V30 4760 H 451.722 0.730974 0.121484 0
M  V30 4761 H 454.369 1.8732 -0.39791 0
M  V30 4762 H 452.674 3.59377 1.56063 0
M  V30 4763 H 454.371 3.81432 1.23736 0
M  V30 4764 H 450.961 4.2844 -0.117041 0
M  V30 4765 H 455.145 4.88165 -0.894925 0
M  V30 4766 H 450.401 5.78349 -1.983 0
M  V30 4767 H 454.575 6.39427 -2.75873 0
M  V30 4768 H 452.202 6.84417 -3.30874 0
M  V30 4769 N 453.777 0.010035 1.57597 0
M  V30 4770 C 455.024 -0.6727 1.91 0
M  V30 4771 C 455.352 -1.73219 0.884614 0
M  V30 4772 O 454.607 -1.95395 -0.109215 0
M  V30 4773 C 454.906 -1.34434 3.31153 0
M  V30 4774 C 454.572 -0.417083 4.48967 0
M  V30 4775 C 453.234 -0.161809 4.80928 0
M  V30 4776 C 455.586 0.220753 5.20732 0
M  V30 4777 C 452.914 0.739426 5.82022 0
M  V30 4778 C 455.266 1.10993 6.22787 0
M  V30 4779 C 453.93 1.37428 6.532 0
M  V30 4780 H 453.2 -0.246158 0.698918 0
M  V30 4781 H 455.847 0.0677145 1.9138 0
M  V30 4782 H 454.152 -2.15905 3.26944 0
M  V30 4783 H 455.849 -1.87883 3.54261 0
M  V30 4784 H 452.439 -0.626217 4.24001 0
M  V30 4785 H 456.623 0.0365643 4.96287 0
M  V30 4786 H 451.879 0.952139 6.03941 0
M  V30 4787 H 456.053 1.61046 6.77523 0
M  V30 4788 H 453.68 2.0743 7.31353 0
M  V30 4789 N 455.255 -1.55392 -0.262866 0
M  V30 4790 C 456.202 -1.88966 -1.32516 0
M  V30 4791 C 457.172 -0.742187 -1.48596 0
M  V30 4792 O 458.357 -0.99439 -1.62839 0
M  V30 4793 C 455.497 -2.17592 -2.67858 0
M  V30 4794 C 454.61 -3.45061 -2.59917 0
M  V30 4795 C 453.745 -3.63336 -3.87505 0
M  V30 4796 C 452.784 -4.84462 -3.74116 0
M  V30 4797 N 451.921 -4.99342 -4.93561 0
M  V30 4798 H 456.761 -2.79566 -1.03184 0
M  V30 4799 H 454.298 -1.38404 -0.498285 0
M  V30 4800 H 456.256 -2.3219 -3.46617 0
M  V30 4801 H 454.886 -1.30215 -2.95371 0
M  V30 4802 H 453.938 -3.38881 -1.72812 0
M  V30 4803 H 455.25 -4.3396 -2.45926 0
M  V30 4804 H 454.404 -3.77807 -4.74707 0
M  V30 4805 H 453.143 -2.72641 -4.04374 0
M  V30 4806 H 452.148 -4.69985 -2.85297 0
M  V30 4807 H 453.373 -5.76603 -3.58757 0
M  V30 4808 H 451.319 -4.1158 -5.10821 0
M  V30 4809 H 451.236 -5.82303 -4.82141 0
M  V30 4810 H 452.504 -5.18208 -5.82306 0
M  V30 4811 N 456.733 0.527833 -1.48498 0
M  V30 4812 C 458.01 1.28905 -1.47115 0
M  V30 4813 C 458.39 2.10297 -0.184007 0
M  V30 4814 O 457.738 2.12728 0.834218 0
M  V30 4815 C 457.948 2.16866 -2.73441 0
M  V30 4816 C 459.296 2.76936 -3.21857 0
M  V30 4817 O 460.32 2.27152 -2.74373 0
M  V30 4818 O 459.179 3.67496 -4.04486 0
M  V30 4819 H 456.273 0.581918 -0.587623 0
M  V30 4820 H 458.819 0.544311 -1.60734 0
M  V30 4821 H 457.591 1.56521 -3.58632 0
M  V30 4822 H 457.214 2.98583 -2.62553 0
M  V30 4823 N 458.211 1.37122 0.776871 0
M  V30 4824 C 459.627 1.1781 1.07671 0
M  V30 4825 C 459.827 0.0107454 2.01497 0
M  V30 4826 O 458.883 -0.650756 2.4397 0
M  V30 4827 C 460.196 2.49451 1.67913 0
M  V30 4828 C 461.744 2.55927 1.80195 0
M  V30 4829 C 462.219 3.87686 2.43851 0
M  V30 4830 N 463.71 3.891 2.51307 0
M  V30 4831 C 464.445 4.87797 3.014 0
M  V30 4832 N 463.941 5.96888 3.51705 0
M  V30 4833 N 465.734 4.75205 3.00227 0
M  V30 4834 H 457.885 2.11843 0.153778 0
M  V30 4835 H 460.148 0.938927 0.130844 0
M  V30 4836 H 459.854 3.35207 1.06439 0
M  V30 4837 H 459.728 2.66169 2.67271 0
M  V30 4838 H 462.115 1.70582 2.40803 0
M  V30 4839 H 462.196 2.43097 0.796069 0
M  V30 4840 H 461.84 4.73444 1.83884 0
M  V30 4841 H 461.77 3.97817 3.45035 0
M  V30 4842 H 464.261 3.10293 2.157 0
M  V30 4843 H 464.574 6.68155 3.88316 0
M  V30 4844 H 462.919 6.0054 3.49824 0
M  V30 4845 H 466.11 3.89103 2.60224 0
M  V30 4846 H 466.283 5.52279 3.38957 0
M  V30 4847 N 459.689 -1.00246 1.21608 0
M  V30 4848 C 460.919 -1.77373 1.05935 0
M  V30 4849 C 461.327 -1.85059 -0.393686 0
M  V30 4850 O 460.67 -1.31289 -1.28487 0
M  V30 4851 C 460.732 -3.22705 1.58435 0
M  V30 4852 C 460.396 -3.38591 3.06929 0
M  V30 4853 C 461.393 -3.2667 4.04454 0
M  V30 4854 C 459.078 -3.6395 3.46187 0
M  V30 4855 C 461.072 -3.39877 5.39224 0
M  V30 4856 C 458.759 -3.768 4.81108 0
M  V30 4857 C 459.757 -3.6477 5.77436 0
M  V30 4858 O 459.445 -3.77206 7.09909 0
M  V30 4859 H 459.177 -0.56419 0.372378 0
M  V30 4860 H 461.731 -1.26971 1.61454 0
M  V30 4861 H 459.961 -3.74255 0.973147 0
M  V30 4862 H 461.65 -3.81515 1.38568 0
M  V30 4863 H 462.416 -3.06999 3.75468 0
M  V30 4864 H 458.295 -3.72395 2.71741 0
M  V30 4865 H 461.839 -3.30404 6.14393 0
M  V30 4866 H 457.736 -3.95975 5.09779 0
M  V30 4867 H 458.504 -3.94138 7.17355 0
M  V30 4868 N 461.167 -1.02423 -1.1978 0
M  V30 4869 C 462.414 -0.717988 -1.89344 0
M  V30 4870 C 462.742 0.753036 -1.79331 0
M  V30 4871 O 461.997 1.56355 -1.17692 0
M  V30 4872 C 462.296 -1.1088 -3.39765 0
M  V30 4873 C 461.962 -2.57731 -3.6998 0
M  V30 4874 C 460.624 -2.97854 -3.77937 0
M  V30 4875 C 462.976 -3.52763 -3.83677 0
M  V30 4876 C 460.304 -4.31931 -3.97054 0
M  V30 4877 C 462.656 -4.86538 -4.04306 0
M  V30 4878 C 461.32 -5.26356 -4.10494 0
M  V30 4879 H 460.59 -0.26273 -0.692859 0
M  V30 4880 H 463.237 -1.28623 -1.41875 0
M  V30 4881 H 461.542 -0.459094 -3.89101 0
M  V30 4882 H 463.239 -0.849432 -3.919 0
M  V30 4883 H 459.829 -2.25646 -3.64393 0
M  V30 4884 H 464.013 -3.2292 -3.76877 0
M  V30 4885 H 459.269 -4.62324 -4.00083 0
M  V30 4886 H 463.443 -5.60093 -4.13846 0
M  V30 4887 H 461.07 -6.3026 -4.2506 0
M  V30 4888 N 462.645 1.35699 -0.801477 0
M  V30 4889 C 463.891 1.99643 -0.389135 0
M  V30 4890 C 464.246 1.62447 1.03095 0
M  V30 4891 O 463.539 0.875064 1.7045 0
M  V30 4892 C 463.733 3.53828 -0.504041 0
M  V30 4893 C 463.562 4.06 -1.93375 0
M  V30 4894 C 462.332 4.35592 -2.561 0
M  V30 4895 C 464.53 4.24905 -2.89759 0
M  V30 4896 N 462.512 4.73663 -3.90534 0
M  V30 4897 C 463.883 4.65914 -4.09052 0
M  V30 4898 C 465.938 4.07101 -2.86658 0
M  V30 4899 C 464.641 4.90984 -5.25669 0
M  V30 4900 C 466.667 4.33324 -4.02472 0
M  V30 4901 C 466.029 4.74601 -5.20512 0
M  V30 4902 H 462.128 0.758552 -0.19006 0
M  V30 4903 H 464.712 1.64493 -1.04164 0
M  V30 4904 H 462.883 3.88219 0.118437 0
M  V30 4905 H 464.615 4.04645 -0.0667794 0
M  V30 4906 H 461.37 4.25728 -2.07492 0
M  V30 4907 H 461.794 4.96965 -4.59734 0
M  V30 4908 H 466.436 3.74335 -1.96552 0
M  V30 4909 H 464.154 5.22626 -6.1635 0
M  V30 4910 H 467.74 4.21107 -4.01447 0
M  V30 4911 H 466.62 4.94497 -6.08639 0
M  V30 4912 N 464.123 0.554532 1.47522 0
M  V30 4913 C 465.539 0.214107 1.58157 0
M  V30 4914 C 465.739 -1.28331 1.55349 0
M  V30 4915 O 464.795 -2.06329 1.45549 0
M  V30 4916 C 466.108 0.838391 2.88776 0
M  V30 4917 C 467.656 0.809374 3.02354 0
M  V30 4918 C 468.131 1.41268 4.35669 0
M  V30 4919 N 469.622 1.37574 4.42298 0
M  V30 4920 C 470.357 1.8122 5.4401 0
M  V30 4921 N 469.853 2.3271 6.52547 0
M  V30 4922 N 471.646 1.72307 5.35039 0
M  V30 4923 H 463.797 1.52744 1.4759 0
M  V30 4924 H 466.06 0.636812 0.702264 0
M  V30 4925 H 465.766 1.89065 2.96559 0
M  V30 4926 H 465.64 0.329847 3.75755 0
M  V30 4927 H 468.027 -0.234187 2.94169 0
M  V30 4928 H 468.108 1.35565 2.16924 0
M  V30 4929 H 467.752 2.45529 4.4461 0
M  V30 4930 H 467.682 0.841871 5.19827 0
M  V30 4931 H 470.173 0.999081 3.64454 0
M  V30 4932 H 470.486 2.63944 7.26329 0
M  V30 4933 H 468.831 2.36719 6.53444 0
M  V30 4934 H 472.022 1.3186 4.49144 0
M  V30 4935 H 472.195 2.06641 6.14169 0
M  V30 4936 N 465.601 -1.54893 0.290851 0
M  V30 4937 C 467.017 -1.59476 -0.0628432 0
M  V30 4938 C 467.217 -1.30795 -1.5328 0
M  V30 4939 O 466.273 -1.07644 -2.28406 0
M  V30 4940 C 467.586 -2.98928 0.325962 0
M  V30 4941 C 469.134 -3.11799 0.273882 0
M  V30 4942 C 469.609 -4.53544 0.637359 0
M  V30 4943 N 471.1 -4.59433 0.589507 0
M  V30 4944 C 471.835 -5.67164 0.84335 0
M  V30 4945 N 471.331 -6.82975 1.16263 0
M  V30 4946 N 473.124 -5.56786 0.771091 0
M  V30 4947 H 465.275 -1.71798 1.24896 0
M  V30 4948 H 467.538 -0.801879 0.505663 0
M  V30 4949 H 467.244 -3.24805 1.34887 0
M  V30 4950 H 467.118 -3.75793 -0.325441 0
M  V30 4951 H 469.505 -2.85677 -0.739765 0
M  V30 4952 H 469.586 -2.37112 0.959766 0
M  V30 4953 H 469.23 -4.80394 1.64877 0
M  V30 4954 H 469.16 -5.26553 -0.0704866 0
M  V30 4955 H 471.651 -3.76245 0.353252 0
M  V30 4956 H 471.964 -7.61048 1.34257 0
M  V30 4957 H 470.309 -6.84552 1.20057 0
M  V30 4958 H 473.5 -4.65187 0.521383 0
M  V30 4959 H 473.673 -6.40664 0.972295 0
M  V30 4960 N 467.08 -0.0183926 -1.57589 0
M  V30 4961 C 468.305 0.676634 -1.96052 0
M  V30 4962 C 468.73 1.6548 -0.894307 0
M  V30 4963 O 468.088 1.80712 0.145849 0
M  V30 4964 C 468.136 1.36872 -3.33614 0
M  V30 4965 O 467.24 2.48372 -3.29219 0
M  V30 4966 H 466.581 0.1786 -0.63953 0
M  V30 4967 H 469.111 -0.077056 -2.04455 0
M  V30 4968 H 469.121 1.72797 -3.69601 0
M  V30 4969 H 467.796 0.651636 -4.10763 0
M  V30 4970 H 466.373 2.14639 -3.04934 0
M  V30 4971 N 468.558 1.5553 0.254621 0
M  V30 4972 C 469.508 1.86057 1.31783 0
M  V30 4973 C 470.492 0.720827 1.4385 0
M  V30 4974 O 471.684 0.982586 1.47222 0
M  V30 4975 C 468.813 2.15203 2.67475 0
M  V30 4976 C 467.899 3.35484 2.59444 0
M  V30 4977 N 468.29 4.54945 2.2104 0
M  V30 4978 C 466.588 3.38441 2.90472 0
M  V30 4979 C 467.289 5.3707 2.23453 0
M  V30 4980 N 466.265 4.75936 2.62652 0
M  V30 4981 H 470.067 2.75953 1.01129 0
M  V30 4982 H 467.581 1.55653 0.463255 0
M  V30 4983 H 469.578 2.35235 3.44195 0
M  V30 4984 H 468.238 1.26601 2.99002 0
M  V30 4985 H 469.249 4.8071 1.92712 0
M  V30 4986 H 465.926 2.60087 3.2659 0
M  V30 4987 H 467.316 6.42626 1.96166 0
M  V30 4988 N 470.036 -0.519951 1.48776 0
M  V30 4989 C 471.282 -1.27456 1.58514 0
M  V30 4990 C 471.637 -1.90634 0.260057 0
M  V30 4991 O 470.93 -1.76815 -0.738036 0
M  V30 4992 C 471.124 -2.37864 2.6675 0
M  V30 4993 C 470.953 -1.85509 4.09654 0
M  V30 4994 C 469.723 -1.67661 4.76674 0
M  V30 4995 C 471.921 -1.37783 4.955 0
M  V30 4996 N 469.903 -1.10037 6.03958 0
M  V30 4997 C 471.274 -0.921714 6.1311 0
M  V30 4998 C 473.329 -1.26179 4.81646 0
M  V30 4999 C 472.032 -0.361057 7.18393 0
M  V30 5000 C 474.058 -0.715121 5.8706 0
M  V30 5001 C 473.42 -0.269132 7.03886 0
M  V30 5002 H 469.519 -0.457049 0.634531 0
M  V30 5003 H 472.103 -0.585073 1.85701 0
M  V30 5004 H 470.274 -3.04296 2.41367 0
M  V30 5005 H 472.006 -3.04901 2.66116 0
M  V30 5006 H 468.761 -1.91478 4.33166 0
M  V30 5007 H 469.185 -0.832067 6.71867 0
M  V30 5008 H 473.827 -1.59263 3.91657 0
M  V30 5009 H 471.545 -0.0179127 8.08098 0
M  V30 5010 H 475.131 -0.628376 5.78397 0
M  V30 5011 H 474.011 0.14729 7.84062 0
M  V30 5012 N 471.514 -1.37532 -0.769588 0
M  V30 5013 C 472.462 -1.33561 -1.90432 0
M  V30 5014 C 473.456 -0.224027 -1.67912 0
M  V30 5015 O 474.662 -0.392174 -1.75676 0
M  V30 5016 H 471.037 -0.416279 -0.626271 0
M  V30 5017 H 473.008 -2.29348 -1.90899 0
M  V30 5018 C 471.757 -1.16162 -3.27722 0
M  V30 5019 H 471.08 -2.00951 -3.45628 0
M  V30 5020 H 472.52 -1.17434 -4.07413 0
M  V30 5021 C 470.979 0.132583 -3.36639 0
M  V30 5022 O 471.509 1.11539 -3.85904 0
M  V30 5023 N 469.715 0.184013 -2.90017 0
M  V30 5024 H 469.262 -0.616415 -2.50116 0
M  V30 5025 H 469.22 1.04956 -2.96364 0
M  V30 5026 N 472.992 0.995999 -1.22138 0
M  V30 5027 C 474.403 1.54961 -1.04135 0
M  V30 5028 C 474.754 1.92159 0.396147 0
M  V30 5029 O 473.879 1.74435 1.28069 0
M  V30 5030 C 474.474 2.81581 -1.88408 0
M  V30 5031 C 473.033 3.33396 -1.74712 0
M  V30 5032 C 472.18 2.06509 -1.85066 0
M  V30 5033 H 475.131 0.817436 -1.36028 0
M  V30 5034 H 475.152 3.53822 -1.39966 0
M  V30 5035 H 474.664 2.54476 -2.93025 0
M  V30 5036 H 472.765 3.65416 -0.728159 0
M  V30 5037 H 472.878 4.04208 -2.57202 0
M  V30 5038 H 471.242 2.19925 -1.28472 0
M  V30 5039 H 472.025 1.81804 -2.91208 0
M  V30 5040 N 474.47 1.03057 1.19235 0
M  V30 5041 C 475.38 0.622922 2.26179 0
M  V30 5042 C 476.396 -0.346113 1.70523 0
M  V30 5043 O 477.572 -0.203572 2.00369 0
M  V30 5044 C 474.637 -0.0182063 3.46695 0
M  V30 5045 C 473.698 0.998546 4.17526 0
M  V30 5046 C 472.931 0.387917 5.32288 0
M  V30 5047 O 473.154 -0.808668 5.64639 0
M  V30 5048 O 472.088 1.1116 5.91546 0
M  V30 5049 H 475.914 1.51363 2.63292 0
M  V30 5050 H 473.499 0.800856 1.26122 0
M  V30 5051 H 475.381 -0.375606 4.19723 0
M  V30 5052 H 474.056 -0.882895 3.11427 0
M  V30 5053 H 472.963 1.40756 3.4661 0
M  V30 5054 H 474.296 1.83366 4.56769 0
M  V30 5055 N 475.948 -1.35272 0.808662 0
M  V30 5056 C 477.359 -1.81179 0.450688 0
M  V30 5057 C 477.71 -1.67143 -1.02751 0
M  V30 5058 O 476.835 -1.20325 -1.79864 0
M  V30 5059 C 477.43 -3.28943 0.811275 0
M  V30 5060 C 475.989 -3.72985 0.505871 0
M  V30 5061 C 475.136 -2.57229 1.03578 0
M  V30 5062 H 478.087 -1.2322 1.00012 0
M  V30 5063 H 478.108 -3.80342 0.109588 0
M  V30 5064 H 477.62 -3.39127 1.88718 0
M  V30 5065 H 475.721 -3.68349 -0.561209 0
M  V30 5066 H 475.834 -4.67677 1.03995 0
M  V30 5067 H 474.198 -2.50548 0.458005 0
M  V30 5068 H 474.981 -2.7019 2.11784 0
M  V30 5069 N 477.426 -0.562348 -1.47226 0
M  V30 5070 C 478.336 0.185466 -2.33866 0
M  V30 5071 C 479.352 0.906713 -1.48508 0
M  V30 5072 O 480.528 0.874458 -1.81425 0
M  V30 5073 C 477.593 1.19904 -3.25306 0
M  V30 5074 C 476.654 0.484669 -4.26555 0
M  V30 5075 C 475.887 1.44996 -5.13626 0
M  V30 5076 O 476.11 2.68515 -5.03245 0
M  V30 5077 O 475.044 0.971642 -5.94006 0
M  V30 5078 H 478.87 -0.525361 -2.99121 0
M  V30 5079 H 476.455 -0.322916 -1.45868 0
M  V30 5080 H 478.337 1.78399 -3.81774 0
M  V30 5081 H 477.012 1.8917 -2.62672 0
M  V30 5082 H 475.919 -0.141605 -3.73832 0
M  V30 5083 H 477.252 -0.166634 -4.91918 0
M  V30 5084 N 478.904 1.54736 -0.299062 0
M  V30 5085 C 480.151 2.00101 0.310784 0
M  V30 5086 C 480.479 1.18746 1.54045 0
M  V30 5087 O 479.734 0.251198 1.94081 0
M  V30 5088 C 480.033 3.50199 0.713835 0
M  V30 5089 C 479.699 4.48997 -0.413873 0
M  V30 5090 C 478.361 4.7573 -0.723462 0
M  V30 5091 C 480.713 5.07839 -1.17257 0
M  V30 5092 C 478.041 5.5857 -1.79491 0
M  V30 5093 C 480.393 5.91844 -2.23392 0
M  V30 5094 C 479.057 6.16889 -2.54959 0
M  V30 5095 H 478.327 0.732221 0.113724 0
M  V30 5096 H 480.974 1.86888 -0.417756 0
M  V30 5097 H 479.279 3.61012 1.52243 0
M  V30 5098 H 480.976 3.82723 1.19684 0
M  V30 5099 H 477.566 4.28292 -0.162476 0
M  V30 5100 H 481.75 4.87188 -0.946651 0
M  V30 5101 H 477.006 5.76213 -2.04423 0
M  V30 5102 H 481.18 6.36465 -2.8264 0
M  V30 5103 H 478.807 6.80869 -3.38114 0
M  V30 5104 N 480.382 0.0267497 1.57577 0
M  V30 5105 C 481.332 -0.965003 2.06571 0
M  V30 5106 C 482.316 -1.28694 0.965746 0
M  V30 5107 O 483.508 -1.27345 1.22932 0
M  V30 5108 C 480.637 -2.24821 2.59443 0
M  V30 5109 C 479.723 -1.95474 3.76365 0
M  V30 5110 N 480.114 -1.36387 4.87065 0
M  V30 5111 C 478.412 -2.25478 3.84806 0
M  V30 5112 C 479.113 -1.24119 5.68304 0
M  V30 5113 N 478.089 -1.7359 5.15138 0
M  V30 5114 H 481.891 -0.503095 2.89562 0
M  V30 5115 H 479.405 -0.178322 1.61418 0
M  V30 5116 H 481.402 -2.9674 2.92833 0
M  V30 5117 H 480.062 -2.7164 1.77881 0
M  V30 5118 H 481.073 -1.03919 5.07367 0
M  V30 5119 H 477.75 -2.74987 3.14147 0
M  V30 5120 H 479.14 -0.784504 6.67304 0
M  V30 5121 N 481.861 -1.55662 -0.24637 0
M  V30 5122 C 482.791 -1.93377 -1.30873 0
M  V30 5123 C 483.772 -0.798773 -1.50179 0
M  V30 5124 O 484.957 -1.0591 -1.62778 0
M  V30 5125 C 482.087 -2.22893 -2.66338 0
M  V30 5126 C 481.041 -3.38649 -2.61727 0
M  V30 5127 C 480.367 -3.53708 -4.00992 0
M  V30 5128 C 481.667 -4.74323 -2.18666 0
M  V30 5129 H 483.361 -2.82363 -0.995552 0
M  V30 5130 H 480.907 -1.35854 -0.477464 0
M  V30 5131 H 482.86 -2.47866 -3.40794 0
M  V30 5132 H 481.584 -1.30733 -2.99293 0
M  V30 5133 H 480.243 -3.13685 -1.89729 0
M  V30 5134 H 479.891 -2.58967 -4.31214 0
M  V30 5135 H 479.591 -4.31551 -3.98795 0
M  V30 5136 H 481.115 -3.81003 -4.77147 0
M  V30 5137 H 482.529 -4.98665 -2.82854 0
M  V30 5138 H 480.926 -5.55273 -2.27579 0
M  V30 5139 H 481.996 -4.71349 -1.13834 0
M  V30 5140 N 483.339 0.512053 -1.4905 0
M  V30 5141 C 484.588 1.26343 -1.57227 0
M  V30 5142 C 484.901 1.93876 -0.259155 0
M  V30 5143 O 486.107 2.70612 -0.219358 0
M  V30 5144 C 484.563 2.29343 -2.77362 0
M  V30 5145 C 484.171 1.67799 -4.15388 0
M  V30 5146 C 485.915 3.05378 -2.94864 0
M  V30 5147 C 483.822 2.68845 -5.2676 0
M  V30 5148 H 482.752 0.475231 -0.585382 0
M  V30 5149 H 485.403 0.53862 -1.75417 0
M  V30 5150 H 483.785 3.04938 -2.52643 0
M  V30 5151 H 484.959 0.982715 -4.50199 0
M  V30 5152 H 483.274 1.04194 -4.03153 0
M  V30 5153 H 485.871 3.80921 -3.75238 0
M  V30 5154 H 486.214 3.62327 -2.05 0
M  V30 5155 H 486.747 2.36898 -3.19569 0
M  V30 5156 H 483.486 2.16692 -6.18647 0
M  V30 5157 H 483.006 3.36647 -4.96416 0
M  V30 5158 H 484.685 3.31487 -5.5563 0
M  V30 5159 N 484.817 1.37938 0.762283 0
M  V30 5160 C 486.042 1.37059 1.55659 0
M  V30 5161 C 486.467 -0.0396123 1.88058 0
M  V30 5162 O 485.825 -1.01929 1.49934 0
M  V30 5163 C 485.873 2.22494 2.83776 0
M  V30 5164 O 484.977 1.63607 3.78559 0
M  V30 5165 H 484.318 0.467892 0.47114 0
M  V30 5166 H 486.848 1.81587 0.942725 0
M  V30 5167 H 486.858 2.36045 3.32786 0
M  V30 5168 H 485.533 3.24993 2.59524 0
M  V30 5169 H 484.11 1.5915 3.37233 0
M  V30 5170 N 486.295 -0.989507 1.22664 0
M  V30 5171 C 487.258 -2.06183 1.00106 0
M  V30 5172 C 488.258 -1.60765 -0.0337726 0
M  V30 5173 O 489.448 -1.72989 0.205072 0
M  V30 5174 C 486.58 -3.37021 0.51279 0
M  V30 5175 H 487.773 -2.27629 1.95256 0
M  V30 5176 H 485.326 -1.16158 1.0458 0
M  V30 5177 H 486.061 -3.21261 -0.442917 0
M  V30 5178 H 485.846 -3.71323 1.25942 0
M  V30 5179 H 487.336 -4.1591 0.375315 0
M  V30 5180 N 487.773 -1.03688 -1.18687 0
M  V30 5181 C 489.02 -0.73803 -1.88572 0
M  V30 5182 C 489.348 0.733973 -1.8012 0
M  V30 5183 O 488.603 1.55098 -1.19344 0
M  V30 5184 C 488.902 -1.14477 -3.3857 0
M  V30 5185 C 488.568 -2.61641 -3.67226 0
M  V30 5186 C 487.23 -3.01846 -3.74757 0
M  V30 5187 C 489.582 -3.56812 -3.79914 0
M  V30 5188 C 486.91 -4.36118 -3.92451 0
M  V30 5189 C 489.262 -4.90799 -3.99123 0
M  V30 5190 C 487.926 -5.3068 -4.04888 0
M  V30 5191 H 487.196 -0.270064 -0.690034 0
M  V30 5192 H 489.843 -1.3012 -1.40503 0
M  V30 5193 H 488.148 -0.500337 -3.88592 0
M  V30 5194 H 489.845 -0.89095 -3.90977 0
M  V30 5195 H 486.435 -2.29498 -3.61979 0
M  V30 5196 H 490.619 -3.26899 -3.73431 0
M  V30 5197 H 485.875 -4.66542 -3.95157 0
M  V30 5198 H 490.049 -5.64451 -4.07882 0
M  V30 5199 H 487.676 -6.34733 -4.18351 0
M  V30 5200 N 489.251 1.34841 -0.815825 0
M  V30 5201 C 490.497 1.99219 -0.410288 0
M  V30 5202 C 490.852 1.63532 1.01366 0
M  V30 5203 O 490.145 0.893093 1.69512 0
M  V30 5204 C 490.339 3.53273 -0.541541 0
M  V30 5205 C 490.168 4.03927 -1.9767 0
M  V30 5206 C 488.938 4.32852 -2.60706 0
M  V30 5207 C 491.136 4.21808 -2.9425 0
M  V30 5208 N 489.118 4.69494 -3.95536 0
M  V30 5209 C 490.489 4.6155 -4.13971 0
M  V30 5210 C 492.544 4.04038 -2.9096 0
M  V30 5211 C 491.247 4.85381 -5.30847 0
M  V30 5212 C 493.273 4.29031 -4.07046 0
M  V30 5213 C 492.635 4.69054 -5.25517 0
M  V30 5214 H 488.734 0.756494 -0.198094 0
M  V30 5215 H 491.318 1.63379 -1.05902 0
M  V30 5216 H 489.489 3.88323 0.0772544 0
M  V30 5217 H 491.221 4.04551 -0.109694 0
M  V30 5218 H 487.976 4.23503 -2.11995 0
M  V30 5219 H 488.4 4.92061 -4.64979 0
M  V30 5220 H 493.042 3.7223 -2.00512 0
M  V30 5221 H 490.76 5.16059 -6.21859 0
M  V30 5222 H 494.346 4.16826 -4.05891 0
M  V30 5223 H 493.226 4.88014 -6.1385 0
M  V30 5224 N 490.729 0.570148 1.46925 0
M  V30 5225 C 492.14 0.1402 1.86173 0
M  V30 5226 C 492.491 -1.29347 1.47526 0
M  V30 5227 O 491.616 -1.97508 0.884292 0
M  V30 5228 C 492.211 0.247661 3.37894 0
M  V30 5229 C 490.77 -0.127332 3.76185 0
M  V30 5230 C 489.917 0.589349 2.70965 0
M  V30 5231 H 492.868 0.779117 1.38259 0
M  V30 5232 H 492.889 -0.530341 3.76786 0
M  V30 5233 H 492.401 1.29121 3.65991 0
M  V30 5234 H 490.502 -1.17149 3.53704 0
M  V30 5235 H 490.615 0.240238 4.78497 0
M  V30 5236 H 488.979 0.0309824 2.54681 0
M  V30 5237 H 489.762 1.6343 3.01903 0
M  V30 5238 N 492.207 -1.54576 0.307264 0
M  V30 5239 C 493.432 -2.05139 -0.305379 0
M  V30 5240 C 493.857 -1.18278 -1.46259 0
M  V30 5241 O 493.215 -0.188243 -1.8032 0
M  V30 5242 C 493.263 -3.53066 -0.733283 0
M  V30 5243 O 492.367 -3.69206 -1.83741 0
M  V30 5244 H 491.708 -0.661444 -0.0582105 0
M  V30 5245 H 494.238 -1.99569 0.450931 0
M  V30 5246 H 494.248 -3.95034 -1.02039 0
M  V30 5247 H 492.923 -4.15746 0.113198 0
M  V30 5248 H 491.5 -3.39143 -1.55037 0
M  V30 5249 N 493.685 -0.035106 -1.57561 0
M  V30 5250 C 494.615 0.942993 -2.13612 0
M  V30 5251 C 495.596 1.33531 -1.05373 0
M  V30 5252 O 496.781 1.41287 -1.33235 0
M  V30 5253 C 493.911 2.22332 -2.66807 0
M  V30 5254 C 492.865 1.97156 -3.79886 0
M  V30 5255 C 492.191 3.31506 -4.19533 0
M  V30 5256 C 493.491 1.30596 -5.05709 0
M  V30 5257 H 495.185 0.476179 -2.95589 0
M  V30 5258 H 492.731 0.227602 -1.4219 0
M  V30 5259 H 494.684 2.91142 -3.04654 0
M  V30 5260 H 493.408 2.7119 -1.81999 0
M  V30 5261 H 492.067 1.30763 -3.42486 0
M  V30 5262 H 491.715 3.78134 -3.31698 0
M  V30 5263 H 491.415 3.15465 -4.95738 0
M  V30 5264 H 492.939 4.01574 -4.59968 0
M  V30 5265 H 494.353 1.89416 -5.41105 0
M  V30 5266 H 492.75 1.24934 -5.86951 0
M  V30 5267 H 493.82 0.279742 -4.84092 0
M  V30 5268 N 495.163 1.55791 0.238111 0
M  V30 5269 C 496.574 1.68383 0.806472 0
M  V30 5270 C 496.925 0.634157 1.85669 0
M  V30 5271 O 496.05 -0.217913 2.153 0
M  V30 5272 C 496.645 3.05268 1.46959 0
M  V30 5273 C 495.204 3.1977 1.98555 0
M  V30 5274 C 494.351 2.64279 0.839763 0
M  V30 5275 H 497.302 1.58694 0.0137535 0
M  V30 5276 H 497.323 3.00203 2.33792 0
M  V30 5277 H 496.835 3.81643 0.704993 0
M  V30 5278 H 494.936 2.48234 2.77868 0
M  V30 5279 H 495.049 4.26788 2.17689 0
M  V30 5280 H 493.413 2.22329 1.24265 0
M  V30 5281 H 494.196 3.43187 0.0881032 0
M  V30 5282 N 496.642 -0.504142 1.49319 0
M  V30 5283 C 497.867 -1.28729 1.62615 0
M  V30 5284 C 498.292 -1.85752 0.296309 0
M  V30 5285 O 497.65 -1.65704 -0.735649 0
M  V30 5286 C 497.698 -2.39561 2.69524 0
M  V30 5287 O 496.802 -3.43324 2.28478 0
M  V30 5288 H 496.143 -0.380172 0.544395 0
M  V30 5289 H 498.673 -0.603872 1.95485 0
M  V30 5290 H 498.683 -2.8537 2.91595 0
M  V30 5291 H 497.358 -1.97423 3.66056 0
M  V30 5292 H 495.935 -3.03455 2.16725 0
M  V30 5293 N 498.12 -1.38341 -0.754957 0
M  V30 5294 C 499.35 -1.37504 -1.54195 0
M  V30 5295 C 499.758 0.0373787 -1.89163 0
M  V30 5296 O 499.101 1.01402 -1.53178 0
M  V30 5297 C 499.163 -2.16488 -2.87008 0
M  V30 5298 C 498.827 -3.65311 -2.74585 0
M  V30 5299 C 499.824 -4.58834 -2.44474 0
M  V30 5300 C 497.509 -4.08649 -2.9208 0
M  V30 5301 C 499.503 -5.93675 -2.32011 0
M  V30 5302 C 497.19 -5.43571 -2.79237 0
M  V30 5303 C 498.188 -6.35898 -2.49245 0
M  V30 5304 O 497.876 -7.68338 -2.36458 0
M  V30 5305 H 497.608 -0.472159 -0.483779 0
M  V30 5306 H 500.162 -1.82515 -0.94221 0
M  V30 5307 H 498.392 -1.66194 -3.49166 0
M  V30 5308 H 500.081 -2.08076 -3.4851 0
M  V30 5309 H 500.847 -4.26657 -2.30627 0
M  V30 5310 H 496.726 -3.37134 -3.14422 0
M  V30 5311 H 500.27 -6.65706 -2.08522 0
M  V30 5312 H 496.167 -5.75345 -2.92657 0
M  V30 5313 H 496.935 -7.78845 -2.5168 0
M  V30 5314 N 499.598 0.982988 -1.23187 0
M  V30 5315 C 500.528 2.09301 -1.03515 0
M  V30 5316 C 501.509 1.70035 0.0471136 0
M  V30 5317 O 502.694 1.93847 -0.117029 0
M  V30 5318 C 499.824 3.4167 -0.622791 0
M  V30 5319 C 498.778 3.94828 -1.65211 0
M  V30 5320 C 498.104 5.23362 -1.09527 0
M  V30 5321 C 499.404 4.2439 -3.04451 0
M  V30 5322 H 501.098 2.26016 -1.96359 0
M  V30 5323 H 498.644 1.08611 -0.945501 0
M  V30 5324 H 500.597 4.18746 -0.472233 0
M  V30 5325 H 499.321 3.24811 0.341329 0
M  V30 5326 H 497.98 3.19895 -1.79061 0
M  V30 5327 H 497.628 5.02852 -0.122211 0
M  V30 5328 H 497.328 5.59895 -1.783 0
M  V30 5329 H 498.852 6.03062 -0.956511 0
M  V30 5330 H 500.266 4.92225 -2.93917 0
M  V30 5331 H 498.663 4.72118 -3.70438 0
M  V30 5332 H 499.733 3.31765 -3.53638 0
M  V30 5333 N 501.076 1.04316 1.18135 0
M  V30 5334 C 502.353 0.662166 1.84051 0
M  V30 5335 C 502.733 -0.858169 1.9287 0
M  V30 5336 O 502.081 -1.76062 1.45652 0
M  V30 5337 C 502.291 1.3409 3.22212 0
M  V30 5338 C 503.639 1.4733 3.9822 0
M  V30 5339 O 504.663 1.29921 3.31661 0
M  V30 5340 O 503.522 1.75722 5.17479 0
M  V30 5341 H 500.616 0.232005 0.79379 0
M  V30 5342 H 503.162 1.1422 1.25506 0
M  V30 5343 H 501.934 2.37853 3.10711 0
M  V30 5344 H 501.557 0.849649 3.88416 0
M  V30 5345 N 502.554 -1.34406 0.822964 0
M  V30 5346 C 503.517 -2.2783 0.250271 0
M  V30 5347 C 504.517 -1.50288 -0.571854 0
M  V30 5348 O 505.707 -1.69825 -0.387952 0
M  V30 5349 C 502.839 -3.34663 -0.649137 0
M  V30 5350 H 504.032 -2.79992 1.07444 0
M  V30 5351 H 501.585 -1.44539 0.594829 0
M  V30 5352 H 502.32 -2.87714 -1.49637 0
M  V30 5353 H 502.105 -3.92052 -0.0611199 0
M  V30 5354 H 503.595 -4.04349 -1.04363 0
M  V30 5355 N 504.032 -0.577932 -1.46621 0
M  V30 5356 C 504.995 0.147805 -2.28723 0
M  V30 5357 C 505.995 0.823325 -1.38123 0
M  V30 5358 O 507.185 0.676011 -1.60548 0
M  V30 5359 C 504.317 1.21853 -3.18378 0
M  V30 5360 H 505.51 -0.573654 -2.94362 0
M  V30 5361 H 503.063 -0.335703 -1.52652 0
M  V30 5362 H 503.798 1.97173 -2.57475 0
M  V30 5363 H 503.583 0.738714 -3.85078 0
M  V30 5364 H 505.073 1.72768 -3.80186 0
M  V30 5365 N 505.51 1.54411 -0.315457 0
M  V30 5366 C 506.74 2.04536 0.291315 0
M  V30 5367 C 507.148 1.19162 1.4696 0
M  V30 5368 O 506.491 0.213199 1.82459 0
M  V30 5369 C 506.553 3.5056 0.796725 0
M  V30 5370 C 506.217 4.5627 -0.258178 0
M  V30 5371 C 507.214 5.08312 -1.09153 0
M  V30 5372 C 504.899 5.00672 -0.404036 0
M  V30 5373 C 506.893 6.03312 -2.05655 0
M  V30 5374 C 504.58 5.95488 -1.37248 0
M  V30 5375 C 505.578 6.46693 -2.19721 0
M  V30 5376 O 505.266 7.39648 -3.14921 0
M  V30 5377 H 504.998 0.672856 0.0651165 0
M  V30 5378 H 507.552 2.00244 -0.457308 0
M  V30 5379 H 505.782 3.52223 1.59612 0
M  V30 5380 H 507.471 3.83804 1.32096 0
M  V30 5381 H 508.237 4.74793 -0.98979 0
M  V30 5382 H 504.116 4.60436 0.22799 0
M  V30 5383 H 507.66 6.43203 -2.70067 0
M  V30 5384 H 503.557 6.28424 -1.47489 0
M  V30 5385 H 504.325 7.57496 -3.10067 0
M  V30 5386 N 506.988 0.0434614 1.5754 0
M  V30 5387 C 507.898 -0.94893 2.14552 0
M  V30 5388 C 508.914 -1.34707 1.10136 0
M  V30 5389 O 510.09 -1.42557 1.42266 0
M  V30 5390 C 507.155 -2.208 2.67298 0
M  V30 5391 C 506.216 -1.86893 3.86484 0
M  V30 5392 C 505.449 -3.06797 4.36705 0
M  V30 5393 O 505.672 -4.19921 3.86034 0
M  V30 5394 O 504.606 -2.8826 5.28384 0
M  V30 5395 H 508.432 -0.494099 2.99654 0
M  V30 5396 H 506.017 -0.177989 1.48336 0
M  V30 5397 H 507.899 -2.94686 3.01228 0
M  V30 5398 H 506.574 -2.65436 1.85272 0
M  V30 5399 H 505.481 -1.10347 3.57455 0
M  V30 5400 H 506.814 -1.47062 4.69716 0
M  V30 5401 N 508.466 -1.55915 -0.229846 0
M  V30 5402 C 509.712 -1.78807 -0.956868 0
M  V30 5403 C 510.045 -0.611687 -1.84315 0
M  V30 5404 O 509.32 0.389398 -1.90562 0
M  V30 5405 C 509.603 -3.11718 -1.80288 0
M  V30 5406 C 509.456 -4.3979 -0.943649 0
M  V30 5407 C 510.775 -3.40999 -2.78222 0
M  V30 5408 H 507.894 -0.6505 -0.346437 0
M  V30 5409 H 510.536 -1.88648 -0.226252 0
M  V30 5410 H 508.686 -3.03459 -2.42579 0
M  V30 5411 H 510.358 -4.60059 -0.338121 0
M  V30 5412 H 508.601 -4.33086 -0.248705 0
M  V30 5413 H 509.272 -5.29208 -1.5698 0
M  V30 5414 H 511.748 -3.49332 -2.26067 0
M  V30 5415 H 510.624 -4.35183 -3.34526 0
M  V30 5416 H 510.885 -2.62754 -3.55546 0
M  V30 5417 N 509.944 0.496216 -1.49584 0
M  V30 5418 C 510.892 1.61805 -1.67098 0
M  V30 5419 C 511.886 1.60667 -0.536877 0
M  V30 5420 O 513.092 1.65118 -0.716654 0
M  V30 5421 H 509.467 0.53646 -0.526986 0
M  V30 5422 H 511.438 1.44187 -2.61252 0
M  V30 5423 C 510.187 2.99912 -1.75921 0
M  V30 5424 H 509.51 3.01496 -2.62565 0
M  V30 5425 H 510.95 3.77931 -1.92209 0
M  V30 5426 C 509.409 3.33092 -0.505088 0
M  V30 5427 O 509.939 4.00019 0.367085 0
M  V30 5428 N 508.145 2.88278 -0.366599 0
M  V30 5429 H 507.692 2.33989 -1.07735 0
M  V30 5430 H 507.65 3.10846 0.47142 0
M  V30 5431 N 511.423 1.38739 0.74761 0
M  V30 5432 C 512.648 1.38702 1.54197 0
M  V30 5433 C 513.073 -0.019664 1.8809 0
M  V30 5434 O 512.431 -1.00333 1.51006 0
M  V30 5435 C 512.479 2.25492 2.814 0
M  V30 5436 O 511.583 1.67613 3.76802 0
M  V30 5437 H 510.924 0.472863 0.466151 0
M  V30 5438 H 513.454 1.82577 0.923413 0
M  V30 5439 H 513.464 2.39561 3.30264 0
M  V30 5440 H 512.139 3.27727 2.56062 0
M  V30 5441 H 510.716 1.62718 3.35526 0
M  V30 5442 N 512.901 -0.976442 1.23707 0
M  V30 5443 C 514.317 -1.24341 1.00058 0
M  V30 5444 C 514.517 -1.99315 -0.295932 0
M  V30 5445 O 513.573 -2.3123 -1.01435 0
M  V30 5446 C 514.886 -2.03909 2.21001 0
M  V30 5447 C 516.434 -2.17034 2.25534 0
M  V30 5448 C 516.909 -2.99994 3.46075 0
M  V30 5449 N 518.4 -3.07578 3.46338 0
M  V30 5450 C 519.135 -3.72104 4.36264 0
M  V30 5451 N 518.631 -4.3842 5.36432 0
M  V30 5452 N 520.424 -3.69029 4.23998 0
M  V30 5453 H 512.575 -0.47428 2.07037 0
M  V30 5454 H 514.838 -0.272167 0.908091 0
M  V30 5455 H 514.544 -1.56198 3.15111 0
M  V30 5456 H 514.418 -3.04654 2.22409 0
M  V30 5457 H 516.805 -2.63951 1.31961 0
M  V30 5458 H 516.886 -1.15664 2.28156 0
M  V30 5459 H 516.53 -2.53772 4.39957 0
M  V30 5460 H 516.46 -4.01541 3.40694 0
M  V30 5461 H 518.951 -2.60397 2.73865 0
M  V30 5462 H 519.264 -4.85447 6.013 0
M  V30 5463 H 517.609 -4.37116 5.40328 0
M  V30 5464 H 520.8 -3.16392 3.44984 0
M  V30 5465 H 520.973 -4.19034 4.94282 0
M  V30 5466 N 514.379 -1.04941 -1.1758 0
M  V30 5467 C 515.656 -0.671918 -1.83697 0
M  V30 5468 C 516.036 0.847929 -1.93322 0
M  V30 5469 O 515.384 1.75287 -1.46583 0
M  V30 5470 C 515.594 -1.35797 -3.21497 0
M  V30 5471 C 516.942 -1.4944 -3.97433 0
M  V30 5472 O 517.966 -1.31678 -3.30967 0
M  V30 5473 O 516.825 -1.78463 -5.1654 0
M  V30 5474 H 513.919 -0.236212 -0.792548 0
M  V30 5475 H 516.465 -1.14884 -1.24899 0
M  V30 5476 H 515.237 -2.39498 -3.09446 0
M  V30 5477 H 514.86 -0.870236 -3.8796 0
M  V30 5478 N 515.857 1.33968 -0.830081 0
M  V30 5479 C 517.085 2.0228 -0.434773 0
M  V30 5480 C 517.5 1.62487 0.961419 0
M  V30 5481 O 516.857 0.833849 1.62337 0
M  V30 5482 C 516.908 3.5751 -0.535625 0
M  V30 5483 O 516.629 3.95864 -1.87679 0
M  V30 5484 C 518.13 4.43091 -0.136137 0
M  V30 5485 H 515.35 0.648151 -0.173613 0
M  V30 5486 H 517.894 1.71089 -1.12022 0
M  V30 5487 H 516.049 3.87266 0.101817 0
M  V30 5488 H 516.463 4.9056 -1.85609 0
M  V30 5489 H 517.937 5.51398 -0.257772 0
M  V30 5490 H 518.414 4.29433 0.921076 0
M  V30 5491 H 519.02 4.18677 -0.747662 0
M  V30 5492 N 517.335 0.585699 1.46312 0
M  V30 5493 C 518.581 0.0725284 2.0267 0
M  V30 5494 C 518.914 -1.28523 1.45586 0
M  V30 5495 O 518.189 -1.84283 0.622101 0
M  V30 5496 C 518.472 0.0099788 3.60099 0
M  V30 5497 C 518.325 1.39685 4.27561 0
M  V30 5498 C 519.644 -0.689117 4.34671 0
M  V30 5499 H 516.763 0.0278307 0.736474 0
M  V30 5500 H 519.405 0.753472 1.74421 0
M  V30 5501 H 517.555 -0.56992 3.84297 0
M  V30 5502 H 519.227 2.02215 4.14617 0
M  V30 5503 H 517.47 1.96374 3.86807 0
M  V30 5504 H 518.141 1.30553 5.36339 0
M  V30 5505 H 520.617 -0.196446 4.15636 0
M  V30 5506 H 519.493 -0.701921 5.44393 0
M  V30 5507 H 519.754 -1.75101 4.05946 0
M  V30 5508 N 518.813 -1.54241 0.323641 0
M  V30 5509 C 520.06 -2.0057 -0.27891 0
M  V30 5510 C 520.388 -1.21181 -1.52136 0
M  V30 5511 O 519.643 -0.282043 -1.93657 0
M  V30 5512 C 519.942 -3.5129 -0.658031 0
M  V30 5513 C 519.608 -4.48281 0.485252 0
M  V30 5514 C 518.27 -4.74519 0.799055 0
M  V30 5515 C 520.622 -5.05909 1.25322 0
M  V30 5516 C 517.95 -5.55643 1.88354 0
M  V30 5517 C 520.302 -5.88215 2.32779 0
M  V30 5518 C 518.966 -6.12755 2.64741 0
M  V30 5519 H 518.236 -0.733938 -0.10206 0
M  V30 5520 H 520.883 -1.862 0.447435 0
M  V30 5521 H 519.188 -3.63388 -1.4648 0
M  V30 5522 H 520.885 -3.84578 -1.1358 0
M  V30 5523 H 517.475 -4.27979 0.230593 0
M  V30 5524 H 521.659 -4.8562 1.02404 0
M  V30 5525 H 516.915 -5.72888 2.13564 0
M  V30 5526 H 521.089 -6.31888 2.92729 0
M  V30 5527 H 518.716 -6.75404 3.48904 0
M  V30 5528 N 520.291 -0.0518155 -1.57515 0
M  V30 5529 C 521.54 0.621286 -1.91893 0
M  V30 5530 C 521.853 1.71966 -0.932052 0
M  V30 5531 O 523.059 2.45096 -1.16791 0
M  V30 5532 C 521.515 1.15641 -3.40816 0
M  V30 5533 C 521.123 0.0901146 -4.47909 0
M  V30 5534 C 522.867 1.80472 -3.84227 0
M  V30 5535 C 520.774 0.638154 -5.87947 0
M  V30 5536 H 519.704 0.235835 -0.716169 0
M  V30 5537 H 522.355 -0.120809 -1.83102 0
M  V30 5538 H 520.737 1.95084 -3.44613 0
M  V30 5539 H 521.911 -0.683525 -4.55702 0
M  V30 5540 H 520.226 -0.460774 -4.13843 0
M  V30 5541 H 522.823 2.22471 -4.86221 0
M  V30 5542 H 523.166 2.65669 -3.20508 0
M  V30 5543 H 523.699 1.07683 -3.82948 0
M  V30 5544 H 520.438 -0.176202 -6.55263 0
M  V30 5545 H 519.958 1.37976 -5.83714 0
M  V30 5546 H 521.637 1.12085 -6.37217 0
M  V30 5547 N 521.769 1.56035 0.221574 0
M  V30 5548 C 523.016 1.79047 0.94597 0
M  V30 5549 C 523.344 0.62057 1.84334 0
M  V30 5550 O 522.599 -0.395053 1.91671 0
M  V30 5551 C 522.898 3.07813 1.8162 0
M  V30 5552 C 522.564 4.3797 1.07206 0
M  V30 5553 C 521.226 4.73334 0.866508 0
M  V30 5554 C 523.578 5.18326 0.546565 0
M  V30 5555 C 520.906 5.8657 0.123549 0
M  V30 5556 C 523.258 6.32335 -0.18305 0
M  V30 5557 C 521.922 6.66301 -0.399861 0
M  V30 5558 H 521.192 0.655178 0.346155 0
M  V30 5559 H 523.839 1.90299 0.214146 0
M  V30 5560 H 522.144 2.91682 2.61589 0
M  V30 5561 H 523.841 3.2282 2.37884 0
M  V30 5562 H 520.431 4.10202 1.24226 0
M  V30 5563 H 524.615 4.9144 0.692847 0
M  V30 5564 H 519.871 6.11376 -0.0546591 0
M  V30 5565 H 524.045 6.9383 -0.59775 0
M  V30 5566 H 521.672 7.53889 -0.977489 0
M  V30 5567 N 523.247 -0.488276 1.49845 0
M  V30 5568 C 524.194 -1.58836 1.67451 0
M  V30 5569 C 525.164 -1.57886 0.515857 0
M  V30 5570 O 526.349 -1.75679 0.744403 0
M  V30 5571 C 523.489 -2.96915 1.75885 0
M  V30 5572 C 522.602 -3.07784 3.03138 0
M  V30 5573 C 521.737 -4.36673 3.02473 0
M  V30 5574 C 520.776 -4.41222 4.24252 0
M  V30 5575 N 519.913 -5.61557 4.21424 0
M  V30 5576 H 524.753 -1.43131 2.61376 0
M  V30 5577 H 522.29 -0.696186 1.29583 0
M  V30 5578 H 524.248 -3.76965 1.78755 0
M  V30 5579 H 522.878 -3.11295 0.85414 0
M  V30 5580 H 521.93 -2.20717 3.09819 0
M  V30 5581 H 523.242 -3.07005 3.93128 0
M  V30 5582 H 522.396 -5.25055 3.03977 0
M  V30 5583 H 521.135 -4.40037 2.10283 0
M  V30 5584 H 520.14 -3.5124 4.22978 0
M  V30 5585 H 521.365 -4.39564 5.17649 0
M  V30 5586 H 519.311 -5.65738 3.32078 0
M  V30 5587 H 519.228 -5.62447 5.05163 0
M  V30 5588 H 520.496 -6.52111 4.2705 0
M  V30 5589 N 524.725 -1.39134 -0.740242 0
M  V30 5590 C 525.973 -1.35803 -1.49673 0
M  V30 5591 C 526.294 0.0470897 -1.94943 0
M  V30 5592 O 525.564 0.997347 -1.68611 0
M  V30 5593 H 524.144 -0.499736 -0.555224 0
M  V30 5594 H 526.806 -1.73947 -0.879107 0
M  V30 5595 H 525.902 -2.0174 -2.38133 0
M  V30 5596 N 526.204 0.969867 -1.24223 0
M  V30 5597 C 527.152 2.08535 -1.03034 0
M  V30 5598 C 528.146 1.69366 0.0340379 0
M  V30 5599 O 529.352 1.79597 -0.12034 0
M  V30 5600 H 525.727 0.682313 -0.316154 0
M  V30 5601 H 527.698 2.23569 -1.97635 0
M  V30 5602 C 526.447 3.4158 -0.649509 0
M  V30 5603 H 525.77 3.72177 -1.46028 0
M  V30 5604 H 527.21 4.20536 -0.540841 0
M  V30 5605 C 525.669 3.30703 0.643194 0
M  V30 5606 O 526.199 3.64443 1.68951 0
M  V30 5607 N 524.405 2.83841 0.623095 0
M  V30 5608 H 523.952 2.56583 -0.228719 0
M  V30 5609 H 523.91 2.76946 1.48823 0
M  V30 5610 N 527.682 1.05563 1.17022 0
M  V30 5611 C 528.592 0.670758 2.24807 0
M  V30 5612 C 529.608 -0.309865 1.71219 0
M  V30 5613 O 530.784 -0.161025 2.00755 0
M  V30 5614 C 527.849 0.055337 3.46656 0
M  V30 5615 C 526.91 1.08688 4.15314 0
M  V30 5616 C 526.143 0.500736 5.31346 0
M  V30 5617 O 526.366 -0.688718 5.66227 0
M  V30 5618 O 525.3 1.23683 5.89055 0
M  V30 5619 H 529.126 1.56914 2.60023 0
M  V30 5620 H 526.711 0.827428 1.24395 0
M  V30 5621 H 528.593 -0.286492 4.20425 0
M  V30 5622 H 527.268 -0.816638 3.13229 0
M  V30 5623 H 526.175 1.48077 3.43546 0
M  V30 5624 H 527.508 1.93014 4.52777 0
M  V30 5625 N 529.16 -1.33526 0.837174 0
M  V30 5626 C 530.407 -1.97837 0.432064 0
M  V30 5627 C 530.735 -1.66324 -1.00829 0
M  V30 5628 O 529.99 -0.93448 -1.71948 0
M  V30 5629 C 530.289 -3.52367 0.597675 0
M  V30 5630 C 529.955 -4.03826 2.00587 0
M  V30 5631 C 528.617 -4.1759 2.39106 0
M  V30 5632 C 530.969 -4.31333 2.92576 0
M  V30 5633 C 528.297 -4.56195 3.68921 0
M  V30 5634 C 530.649 -4.7139 4.2187 0
M  V30 5635 C 529.313 -4.8336 4.60347 0
M  V30 5636 H 528.583 -0.723937 0.158104 0
M  V30 5637 H 531.23 -1.5923 1.06387 0
M  V30 5638 H 529.535 -3.91624 -0.117452 0
M  V30 5639 H 531.232 -4.00126 0.26454 0
M  V30 5640 H 527.822 -3.93586 1.69671 0
M  V30 5641 H 532.006 -4.20224 2.64056 0
M  V30 5642 H 527.262 -4.63655 3.9854 0
M  V30 5643 H 531.436 -4.91631 4.93226 0
M  V30 5644 H 529.063 -5.1303 5.60985 0
M  V30 5645 N 530.638 -0.59345 -1.46 0
M  V30 5646 C 531.884 -0.0916503 -2.03193 0
M  V30 5647 C 532.239 1.25839 -1.45541 0
M  V30 5648 O 531.532 1.81455 -0.615191 0
M  V30 5649 C 531.726 0.021178 -3.57394 0
M  V30 5650 C 531.555 -1.31638 -4.30002 0
M  V30 5651 C 530.325 -1.89336 -4.68487 0
M  V30 5652 C 532.523 -2.242 -4.62859 0
M  V30 5653 N 530.505 -3.1672 -5.25891 0
M  V30 5654 C 531.876 -3.36175 -5.20948 0
M  V30 5655 C 533.931 -2.23748 -4.44794 0
M  V30 5656 C 532.634 -4.47844 -5.62875 0
M  V30 5657 C 534.66 -3.34454 -4.87744 0
M  V30 5658 C 534.022 -4.4515 -5.45913 0
M  V30 5659 H 530.121 -0.0765713 -0.778242 0
M  V30 5660 H 532.705 -0.788705 -1.7801 0
M  V30 5661 H 530.876 0.687423 -3.82268 0
M  V30 5662 H 532.608 0.528343 -4.01236 0
M  V30 5663 H 529.363 -1.42704 -4.51589 0
M  V30 5664 H 529.787 -3.81746 -5.59106 0
M  V30 5665 H 534.429 -1.39433 -3.99147 0
M  V30 5666 H 532.147 -5.32894 -6.07495 0
M  V30 5667 H 535.733 -3.35234 -4.75509 0
M  V30 5668 H 534.613 -5.29398 -5.78539 0
M  V30 5669 N 532.116 1.54067 -0.331816 0
M  V30 5670 C 533.079 2.23275 0.517768 0
M  V30 5671 C 534.079 1.22897 1.03697 0
M  V30 5672 O 535.269 1.47419 0.928084 0
M  V30 5673 C 532.401 2.94326 1.72004 0
M  V30 5674 H 533.594 2.99773 -0.0873507 0
M  V30 5675 H 531.147 1.56079 -0.0830042 0
M  V30 5676 H 531.882 2.21986 2.36417 0
M  V30 5677 H 531.667 3.67941 1.35507 0
M  V30 5678 H 533.157 3.47031 2.32291 0
M  V30 5679 N 533.594 0.0601682 1.57485 0
M  V30 5680 C 534.843 -0.611101 1.9222 0
M  V30 5681 C 535.156 -1.71469 0.941159 0
M  V30 5682 O 536.362 -2.44473 1.18089 0
M  V30 5683 C 534.818 -1.13832 3.41424 0
M  V30 5684 C 534.426 -0.0663596 4.47951 0
M  V30 5685 C 536.17 -1.78432 3.85178 0
M  V30 5686 C 534.077 -0.606965 5.88277 0
M  V30 5687 H 533.007 -0.232033 0.71741 0
M  V30 5688 H 535.658 0.130518 1.83035 0
M  V30 5689 H 534.04 -1.93254 3.45643 0
M  V30 5690 H 535.214 0.707682 4.55333 0
M  V30 5691 H 533.529 0.482715 4.13593 0
M  V30 5692 H 536.126 -2.1989 4.87394 0
M  V30 5693 H 536.469 -2.63966 3.21913 0
M  V30 5694 H 537.002 -1.05651 3.83514 0
M  V30 5695 H 533.741 0.21095 6.5516 0
M  V30 5696 H 533.261 -1.34879 5.84438 0
M  V30 5697 H 534.94 -1.08704 6.37803 0
M  V30 5698 N 535.072 -1.5615 -0.213296 0
M  V30 5699 C 536.488 -1.49327 -0.56336 0
M  V30 5700 C 536.688 -0.756826 -1.86747 0
M  V30 5701 O 535.744 -0.299866 -2.50713 0
M  V30 5702 C 537.057 -2.9392 -0.634944 0
M  V30 5703 C 538.605 -3.04487 -0.725013 0
M  V30 5704 C 539.08 -4.50456 -0.82787 0
M  V30 5705 N 540.571 -4.54533 -0.891876 0
M  V30 5706 C 541.306 -5.64766 -0.991315 0
M  V30 5707 N 540.802 -6.84733 -1.05419 0
M  V30 5708 N 542.595 -5.52637 -1.02709 0
M  V30 5709 H 534.746 -2.02453 0.642366 0
M  V30 5710 H 537.009 -0.920548 0.226487 0
M  V30 5711 H 536.715 -3.50783 0.253859 0
M  V30 5712 H 536.589 -3.46274 -1.49579 0
M  V30 5713 H 538.976 -2.47685 -1.60425 0
M  V30 5714 H 539.057 -2.55289 0.161669 0
M  V30 5715 H 538.701 -5.07878 0.0469464 0
M  V30 5716 H 538.631 -4.97369 -1.73009 0
M  V30 5717 H 541.122 -3.68141 -0.85327 0
M  V30 5718 H 541.435 -7.64493 -1.13007 0
M  V30 5719 H 539.78 -6.87427 -1.02318 0
M  V30 5720 H 542.971 -4.5784 -0.974687 0
M  V30 5721 H 543.144 -6.38576 -1.10113 0
M  V30 5722 N 536.55 0.480323 -1.50102 0
M  V30 5723 C 537.798 1.23063 -1.60312 0
M  V30 5724 C 538.119 1.92659 -0.301226 0
M  V30 5725 O 537.389 1.83691 0.680753 0
M  V30 5726 H 535.969 0.457231 -0.590719 0
M  V30 5727 H 538.631 0.554893 -1.86834 0
M  V30 5728 H 537.727 1.9835 -2.40964 0
M  V30 5729 N 538.028 1.39524 0.732853 0
M  V30 5730 C 538.976 1.38563 1.86824 0
M  V30 5731 C 539.97 0.268467 1.67259 0
M  V30 5732 O 541.176 0.438613 1.74574 0
M  V30 5733 H 537.551 0.432737 0.615014 0
M  V30 5734 H 539.522 2.34328 1.84751 0
M  V30 5735 C 538.271 1.2481 3.24527 0
M  V30 5736 H 537.594 2.10044 3.40179 0
M  V30 5737 H 539.034 1.28194 4.04156 0
M  V30 5738 C 537.493 -0.0432825 3.36872 0
M  V30 5739 O 538.023 -1.01268 3.88726 0
M  V30 5740 N 536.229 -0.107055 2.90403 0
M  V30 5741 H 535.776 0.682512 2.48394 0
M  V30 5742 H 535.734 -0.970618 2.99042 0
M  V30 5743 N 539.506 -0.963266 1.24736 0
M  V30 5744 C 540.416 -2.09246 1.06082 0
M  V30 5745 C 541.432 -1.74 0.000363101 0
M  V30 5746 O 542.608 -2.0041 0.199479 0
M  V30 5747 C 539.673 -3.40115 0.672498 0
M  V30 5748 C 538.734 -3.89282 1.80993 0
M  V30 5749 C 537.967 -5.13905 1.44004 0
M  V30 5750 O 538.19 -5.69434 0.331835 0
M  V30 5751 O 537.124 -5.57566 2.26723 0
M  V30 5752 H 540.95 -2.27881 2.00759 0
M  V30 5753 H 538.535 -1.07649 1.03595 0
M  V30 5754 H 540.417 -4.18797 0.467668 0
M  V30 5755 H 539.092 -3.22771 -0.245102 0
M  V30 5756 H 537.999 -3.11642 2.06955 0
M  V30 5757 H 539.332 -4.1111 2.70646 0
M  V30 5758 N 540.985 -1.06182 -1.16461 0
M  V30 5759 C 542.231 -0.779015 -1.87241 0
M  V30 5760 C 542.564 0.692715 -1.81425 0
M  V30 5761 O 541.839 1.5074 -1.22913 0
M  V30 5762 C 542.122 -1.2728 -3.36856 0
M  V30 5763 C 541.975 -2.80821 -3.51368 0
M  V30 5764 C 543.294 -0.879799 -4.31216 0
M  V30 5765 H 540.413 -0.284464 -0.679889 0
M  V30 5766 H 543.055 -1.31755 -1.36896 0
M  V30 5767 H 541.205 -0.814673 -3.79862 0
M  V30 5768 H 542.877 -3.34833 -3.17308 0
M  V30 5769 H 541.12 -3.19606 -2.93316 0
M  V30 5770 H 541.791 -3.10435 -4.56436 0
M  V30 5771 H 544.267 -1.27436 -3.96105 0
M  V30 5772 H 543.143 -1.25278 -5.34412 0
M  V30 5773 H 543.404 0.215372 -4.41575 0
M  V30 5774 N 542.463 1.3308 -0.844243 0
M  V30 5775 C 543.395 2.27954 -0.238671 0
M  V30 5776 C 544.408 1.51978 0.583665 0
M  V30 5777 O 545.597 1.73731 0.409857 0
M  V30 5778 C 542.697 3.31963 0.682185 0
M  V30 5779 C 541.87 4.37281 -0.101998 0
M  V30 5780 C 540.929 5.20928 0.743022 0
M  V30 5781 O 539.955 5.68914 0.180285 0
M  V30 5782 N 541.157 5.42738 2.0595 0
M  V30 5783 H 543.922 2.8056 -1.05386 0
M  V30 5784 H 541.483 1.4583 -0.70322 0
M  V30 5785 H 543.475 3.84828 1.25259 0
M  V30 5786 H 542.045 2.79594 1.39808 0
M  V30 5787 H 541.265 3.84843 -0.853802 0
M  V30 5788 H 542.553 5.04746 -0.641015 0
M  V30 5789 H 541.951 5.05463 2.54016 0
M  V30 5790 H 540.508 5.98639 2.57827 0
M  V30 5791 N 543.941 0.601185 1.45683 0
M  V30 5792 C 544.904 -0.111398 2.28929 0
M  V30 5793 C 545.904 -0.801246 1.39416 0
M  V30 5794 O 547.094 -0.650383 1.61603 0
M  V30 5795 C 544.226 -1.16773 3.20276 0
M  V30 5796 H 545.419 0.620412 2.93413 0
M  V30 5797 H 542.972 0.359946 1.52099 0
M  V30 5798 H 543.707 -1.93051 2.60579 0
M  V30 5799 H 543.492 -0.677358 3.86205 0
M  V30 5800 H 544.982 -1.66698 3.82886 0
M  V30 5801 N 545.419 -1.53889 0.339982 0
M  V30 5802 C 546.667 -2.00458 -0.257112 0
M  V30 5803 C 546.988 -1.22953 -1.51353 0
M  V30 5804 O 546.258 -0.335734 -1.93002 0
M  V30 5805 H 544.838 -0.740544 -0.0979965 0
M  V30 5806 H 547.5 -1.89386 0.460317 0
M  V30 5807 H 546.596 -3.08035 -0.502057 0
M  V30 5808 N 546.897 -0.0685191 -1.57451 0
M  V30 5809 C 548.127 0.609577 -1.97402 0
M  V30 5810 C 548.535 1.63882 -0.945489 0
M  V30 5811 O 547.878 1.8354 0.0766052 0
M  V30 5812 C 547.94 1.3385 -3.33653 0
M  V30 5813 C 547.604 0.463103 -4.54648 0
M  V30 5814 C 548.601 -0.277964 -5.19156 0
M  V30 5815 C 546.286 0.388941 -5.00792 0
M  V30 5816 C 548.28 -1.08145 -6.28159 0
M  V30 5817 C 545.967 -0.418217 -6.09667 0
M  V30 5818 C 546.965 -1.15208 -6.73213 0
M  V30 5819 O 546.653 -1.94594 -7.79993 0
M  V30 5820 H 546.385 0.170197 -0.654224 0
M  V30 5821 H 548.939 -0.13647 -2.04946 0
M  V30 5822 H 547.169 2.13055 -3.22714 0
M  V30 5823 H 548.858 1.90851 -3.58233 0
M  V30 5824 H 549.624 -0.230241 -4.84453 0
M  V30 5825 H 545.503 0.949769 -4.5111 0
M  V30 5826 H 549.047 -1.65476 -6.7769 0
M  V30 5827 H 544.944 -0.467515 -6.43805 0
M  V30 5828 H 545.712 -1.8699 -7.96854 0
M  V30 5829 N 548.375 1.56261 0.205012 0
M  V30 5830 C 549.786 1.70056 0.770574 0
M  V30 5831 C 550.137 0.673398 1.84282 0
M  V30 5832 O 549.262 -0.172196 2.15714 0
M  V30 5833 C 549.857 3.08316 1.40451 0
M  V30 5834 C 548.416 3.2391 1.91727 0
M  V30 5835 C 547.563 2.66001 0.783516 0
M  V30 5836 H 550.514 1.58688 -0.019911 0
M  V30 5837 H 550.535 3.05094 2.27371 0
M  V30 5838 H 550.047 3.83053 0.623882 0
M  V30 5839 H 548.148 2.54072 2.7254 0
M  V30 5840 H 548.261 4.3131 2.08588 0
M  V30 5841 H 546.625 2.24915 1.19521 0
M  V30 5842 H 547.408 3.43297 0.0152883 0
M  V30 5843 N 549.853 -0.472356 1.50355 0
M  V30 5844 C 551.269 -0.806001 1.37753 0
M  V30 5845 C 551.469 -1.968 0.432649 0
M  V30 5846 O 550.525 -2.52189 -0.12519 0
M  V30 5847 C 551.838 -1.11926 2.79093 0
M  V30 5848 C 553.386 -1.22579 2.87999 0
M  V30 5849 C 553.861 -1.57218 4.3017 0
M  V30 5850 N 555.352 -1.64212 4.33115 0
M  V30 5851 C 556.087 -1.92517 5.40116 0
M  V30 5852 N 555.583 -2.1885 6.57325 0
M  V30 5853 N 557.376 -1.94008 5.27558 0
M  V30 5854 H 549.527 0.293451 2.10363 0
M  V30 5855 H 551.79 0.0687672 0.945503 0
M  V30 5856 H 551.496 -0.338504 3.50067 0
M  V30 5857 H 551.37 -2.05577 3.16256 0
M  V30 5858 H 553.757 -1.99722 2.17245 0
M  V30 5859 H 553.838 -0.269107 2.54381 0
M  V30 5860 H 553.482 -0.806154 5.01461 0
M  V30 5861 H 553.412 -2.54034 4.61275 0
M  V30 5862 H 555.903 -1.45906 3.48597 0
M  V30 5863 H 556.216 -2.39718 7.3468 0
M  V30 5864 H 554.561 -2.16245 6.60502 0
M  V30 5865 H 557.752 -1.72931 4.34986 0
M  V30 5866 H 557.925 -2.15731 6.11035 0
M  V30 5867 N 551.331 -1.39911 -0.725443 0
M  V30 5868 C 552.579 -1.37382 -1.48224 0
M  V30 5869 C 552.9 0.0264107 -1.94982 0
M  V30 5870 O 552.17 0.979408 -1.6966 0
M  V30 5871 H 550.75 -0.505596 -0.549892 0
M  V30 5872 H 553.412 -1.7487 -0.860608 0
M  V30 5873 H 552.508 -2.04254 -2.3598 0
M  V30 5874 N 552.809 0.956637 -1.25245 0
M  V30 5875 C 554.058 1.69537 -1.0927 0
M  V30 5876 C 554.371 1.92136 0.366503 0
M  V30 5877 O 555.577 2.63687 0.64665 0
M  V30 5878 C 554.033 3.05211 -1.9072 0
M  V30 5879 C 553.641 2.90416 -3.41119 0
M  V30 5880 C 555.385 3.82882 -1.83308 0
M  V30 5881 C 553.292 4.21468 -4.14872 0
M  V30 5882 H 552.222 0.635804 -0.405302 0
M  V30 5883 H 554.873 1.06513 -1.49423 0
M  V30 5884 H 553.255 3.69128 -1.43389 0
M  V30 5885 H 554.429 2.35444 -3.9611 0
M  V30 5886 H 552.744 2.26203 -3.49602 0
M  V30 5887 H 555.341 4.79944 -2.35706 0
M  V30 5888 H 555.684 4.0853 -0.800572 0
M  V30 5889 H 556.217 3.25711 -2.28379 0
M  V30 5890 H 552.956 4.01009 -5.18529 0
M  V30 5891 H 552.476 4.76213 -3.64665 0
M  V30 5892 H 554.155 4.90022 -4.22478 0
M  V30 5893 N 554.287 1.06798 1.15896 0
M  V30 5894 C 555.237 0.653213 2.18443 0
M  V30 5895 C 556.221 -0.318763 1.57711 0
M  V30 5896 O 557.413 -0.133388 1.76497 0
M  V30 5897 C 554.542 0.0465785 3.43268 0
M  V30 5898 C 553.628 1.04336 4.11066 0
M  V30 5899 N 554.019 2.22084 4.54436 0
M  V30 5900 C 552.317 0.875433 4.37324 0
M  V30 5901 C 553.018 2.85276 5.06944 0
M  V30 5902 N 551.994 2.12973 5.00143 0
M  V30 5903 H 555.796 1.55011 2.49698 0
M  V30 5904 H 553.31 0.940384 1.32403 0
M  V30 5905 H 555.307 -0.26843 4.16035 0
M  V30 5906 H 553.967 -0.845504 3.13499 0
M  V30 5907 H 554.978 2.59833 4.48004 0
M  V30 5908 H 551.655 0.0357721 4.17485 0
M  V30 5909 H 553.045 3.85223 5.50503 0
M  V30 5910 N 555.766 -1.3263 0.851289 0
M  V30 5911 C 556.994 -2.01563 0.466899 0
M  V30 5912 C 557.409 -1.63996 -0.935447 0
M  V30 5913 O 556.766 -0.85957 -1.6099 0
M  V30 5914 C 556.817 -3.56613 0.592433 0
M  V30 5915 O 556.538 -3.92828 1.93954 0
M  V30 5916 C 558.039 -4.42818 0.206612 0
M  V30 5917 H 555.259 -0.645307 0.183902 0
M  V30 5918 H 557.803 -1.69285 1.1473 0
M  V30 5919 H 555.958 -3.87379 -0.0401936 0
M  V30 5920 H 556.372 -4.87545 1.9339 0
M  V30 5921 H 557.846 -5.50918 0.345462 0
M  V30 5922 H 558.323 -4.30844 -0.85264 0
M  V30 5923 H 558.929 -4.17434 0.814176 0
M  V30 5924 N 557.244 -0.608902 -1.45362 0
M  V30 5925 C 558.174 0.0964526 -2.33301 0
M  V30 5926 C 559.155 0.857444 -1.46908 0
M  V30 5927 O 560.34 0.827735 -1.75676 0
M  V30 5928 C 557.47 1.09354 -3.29635 0
M  V30 5929 C 556.424 0.445676 -4.25673 0
M  V30 5930 C 555.75 1.5511 -5.11708 0
M  V30 5931 C 557.05 -0.633972 -5.18438 0
M  V30 5932 H 558.744 -0.637829 -2.92527 0
M  V30 5933 H 556.29 -0.308178 -1.40664 0
M  V30 5934 H 558.243 1.59556 -3.90025 0
M  V30 5935 H 556.967 1.85843 -2.6857 0
M  V30 5936 H 555.626 -0.0354897 -3.66583 0
M  V30 5937 H 555.274 2.30631 -4.4701 0
M  V30 5938 H 554.974 1.12311 -5.76767 0
M  V30 5939 H 556.498 2.05537 -5.74967 0
M  V30 5940 H 557.912 -0.215974 -5.72893 0
M  V30 5941 H 556.309 -0.983789 -5.91981 0
M  V30 5942 H 557.379 -1.51005 -4.60788 0
M  V30 5943 N 558.722 1.53707 -0.348139 0
M  V30 5944 C 559.97 2.00591 0.246478 0
M  V30 5945 C 560.291 1.23753 1.50699 0
M  V30 5946 O 559.561 0.345964 1.92821 0
M  V30 5947 H 558.141 0.741053 0.0940679 0
M  V30 5948 H 560.803 1.89139 -0.470354 0
M  V30 5949 H 559.899 3.08297 0.485714 0
M  V30 5950 N 560.2 0.0768682 1.57412 0
M  V30 5951 C 561.447 -0.591085 1.93681 0
M  V30 5952 C 561.775 -1.69311 0.957286 0
M  V30 5953 O 561.03 -1.95682 -0.0262428 0
M  V30 5954 C 561.329 -1.20268 3.36557 0
M  V30 5955 C 560.995 -0.226286 4.50332 0
M  V30 5956 C 559.657 0.0423142 4.81181 0
M  V30 5957 C 562.009 0.441415 5.19327 0
M  V30 5958 C 559.337 0.985616 5.78362 0
M  V30 5959 C 561.689 1.37307 6.17519 0
M  V30 5960 C 560.353 1.65009 6.46783 0
M  V30 5961 H 559.623 -0.216293 0.70873 0
M  V30 5962 H 562.27 0.148824 1.90921 0
M  V30 5963 H 560.575 -2.01844 3.35807 0
M  V30 5964 H 562.272 -1.72688 3.61911 0
M  V30 5965 H 558.862 -0.445821 4.26275 0
M  V30 5966 H 563.046 0.247023 4.95685 0
M  V30 5967 H 558.302 1.20743 5.99359 0
M  V30 5968 H 562.476 1.89637 6.70083 0
M  V30 5969 H 560.103 2.38263 7.21897 0
M  V30 5970 N 561.678 -1.56367 -0.196722 0
M  V30 5971 C 563.089 -1.70462 -0.761545 0
M  V30 5972 C 563.44 -0.683161 -1.83922 0
M  V30 5973 O 562.565 0.160753 -2.15802 0
M  V30 5974 C 563.16 -3.09057 -1.38814 0
M  V30 5975 C 561.719 -3.24922 -1.90007 0
M  V30 5976 C 560.866 -2.66412 -0.769399 0
M  V30 5977 H 563.817 -1.58675 0.0283263 0
M  V30 5978 H 563.838 -3.06296 -2.2575 0
M  V30 5979 H 563.35 -3.83378 -0.603559 0
M  V30 5980 H 561.451 -2.55514 -2.71189 0
M  V30 5981 H 561.564 -4.3241 -2.06297 0
M  V30 5982 H 559.928 -2.25546 -1.18326 0
M  V30 5983 H 560.711 -3.433 0.00291773 0
M  V30 5984 N 563.156 0.464375 -1.50603 0
M  V30 5985 C 564.567 1.04507 -1.5471 0
M  V30 5986 C 564.918 1.9297 -0.354542 0
M  V30 5987 O 564.043 2.09763 0.531812 0
M  V30 5988 C 564.638 1.90207 -2.80369 0
M  V30 5989 C 563.197 2.43373 -2.87135 0
M  V30 5990 C 562.344 1.21886 -2.49076 0
M  V30 5991 H 565.295 0.246716 -1.56771 0
M  V30 5992 H 565.316 2.75353 -2.62604 0
M  V30 5993 H 564.828 1.25796 -3.67147 0
M  V30 5994 H 562.929 3.11318 -2.04724 0
M  V30 5995 H 563.042 2.7802 -3.90181 0
M  V30 5996 H 561.406 1.55575 -2.01664 0
M  V30 5997 H 562.189 0.591268 -3.3817 0
M  V30 5998 N 564.634 1.40294 0.718013 0
M  V30 5999 C 565.862 1.4175 1.50714 0
M  V30 6000 C 566.277 0.0165366 1.88793 0
M  V30 6001 O 565.634 -0.958942 1.55276 0
M  V30 6002 C 565.685 2.30598 2.784 0
M  V30 6003 O 565.406 3.6524 2.41932 0
M  V30 6004 C 566.907 2.4062 3.72313 0
M  V30 6005 H 564.127 0.483565 0.465194 0
M  V30 6006 H 566.671 1.84316 0.885889 0
M  V30 6007 H 564.826 1.91401 3.36815 0
M  V30 6008 H 565.24 4.12402 3.24076 0
M  V30 6009 H 566.714 3.07001 4.58753 0
M  V30 6010 H 567.191 1.4305 4.15251 0
M  V30 6011 H 567.797 2.80359 3.19811 0
M  V30 6012 N 566.112 -0.949982 1.2575 0
M  V30 6013 C 567.361 -1.68956 1.10168 0
M  V30 6014 C 567.674 -1.92327 -0.356309 0
M  V30 6015 O 568.88 -2.64026 -0.632657 0
M  V30 6016 C 567.336 -3.04196 1.92336 0
M  V30 6017 C 566.944 -2.88603 3.42655 0
M  V30 6018 C 568.688 -3.81904 1.85336 0
M  V30 6019 C 566.595 -4.19262 4.17101 0
M  V30 6020 H 565.525 -0.633645 0.408668 0
M  V30 6021 H 568.176 -1.05719 1.49986 0
M  V30 6022 H 566.558 -3.68363 1.45344 0
M  V30 6023 H 567.732 -2.3334 3.97353 0
M  V30 6024 H 566.047 -2.24345 3.50796 0
M  V30 6025 H 568.644 -4.78688 2.38248 0
M  V30 6026 H 568.987 -4.08099 0.822226 0
M  V30 6027 H 569.52 -3.24495 2.30104 0
M  V30 6028 H 566.259 -3.98254 5.20648 0
M  V30 6029 H 565.779 -4.74273 3.67186 0
M  V30 6030 H 567.458 -4.87775 4.25071 0
M  V30 6031 N 567.59 -1.07411 -1.15328 0
M  V30 6032 C 569.006 -0.799759 -1.38116 0
M  V30 6033 C 569.206 0.59572 -1.92493 0
M  V30 6034 O 568.262 1.35433 -2.13106 0
M  V30 6035 C 569.575 -1.87407 -2.35158 0
M  V30 6036 C 571.123 -1.89889 -2.48819 0
M  V30 6037 C 571.598 -2.96406 -3.49153 0
M  V30 6038 N 573.089 -2.95512 -3.56689 0
M  V30 6039 C 573.824 -3.74575 -4.34144 0
M  V30 6040 N 573.32 -4.63488 -5.14928 0
M  V30 6041 N 575.113 -3.62919 -4.29239 0
M  V30 6042 H 567.264 -1.97411 -0.78374 0
M  V30 6043 H 569.527 -0.856113 -0.407154 0
M  V30 6044 H 569.233 -2.8768 -2.0232 0
M  V30 6045 H 569.107 -1.73471 -3.34944 0
M  V30 6046 H 571.494 -0.902677 -2.80955 0
M  V30 6047 H 571.575 -2.07904 -1.49029 0
M  V30 6048 H 571.219 -3.96227 -3.17752 0
M  V30 6049 H 571.149 -2.75638 -4.48699 0
M  V30 6050 H 573.64 -2.31061 -2.99031 0
M  V30 6051 H 573.953 -5.20445 -5.71276 0
M  V30 6052 H 572.298 -4.67537 -5.14232 0
M  V30 6053 H 575.489 -2.92833 -3.65194 0
M  V30 6054 H 575.662 -4.24777 -4.89355 0
M  V30 6055 N 569.068 1.32177 -0.85831 0
M  V30 6056 C 570.015 2.28794 -0.303607 0
M  V30 6057 C 570.985 1.55213 0.591453 0
M  V30 6058 O 572.17 1.83418 0.525585 0
M  V30 6059 C 569.31 3.41475 0.49889 0
M  V30 6060 C 568.423 4.2993 -0.422373 0
M  V30 6061 C 567.558 5.29743 0.393111 0
M  V30 6062 C 566.597 6.09842 -0.525317 0
M  V30 6063 N 565.734 7.01643 0.253208 0
M  V30 6064 H 570.574 2.75631 -1.13276 0
M  V30 6065 H 568.111 1.35606 -0.570026 0
M  V30 6066 H 570.069 4.05531 0.979826 0
M  V30 6067 H 568.699 2.95779 1.29284 0
M  V30 6068 H 567.751 3.66422 -1.02171 0
M  V30 6069 H 569.063 4.85899 -1.12709 0
M  V30 6070 H 568.217 5.9942 0.937056 0
M  V30 6071 H 566.956 4.744 1.13117 0
M  V30 6072 H 565.961 5.39066 -1.08112 0
M  V30 6073 H 567.186 6.6727 -1.26205 0
M  V30 6074 H 565.132 6.48725 0.974295 0
M  V30 6075 H 565.049 7.54981 -0.392398 0
M  V30 6076 H 566.317 7.756 0.778761 0
M  V30 6077 N 570.547 0.616602 1.45037 0
M  V30 6078 C 571.796 0.112861 2.01384 0
M  V30 6079 C 572.109 -1.26758 1.48969 0
M  V30 6080 O 573.315 -1.86454 1.9735 0
M  V30 6081 C 571.771 0.151057 3.59583 0
M  V30 6082 C 571.379 1.53191 4.20995 0
M  V30 6083 C 573.123 -0.296974 4.2346 0
M  V30 6084 C 571.03 1.526 5.71373 0
M  V30 6085 H 569.96 0.0384254 0.75302 0
M  V30 6086 H 572.611 0.773262 1.66412 0
M  V30 6087 H 570.993 -0.57617 3.91786 0
M  V30 6088 H 572.167 2.28156 4.00352 0
M  V30 6089 H 570.482 1.92279 3.69348 0
M  V30 6090 H 573.079 -0.320712 5.33737 0
M  V30 6091 H 573.422 -1.32145 3.9477 0
M  V30 6092 H 573.955 0.377279 3.96007 0
M  V30 6093 H 570.694 2.52837 6.04776 0
M  V30 6094 H 570.214 0.819064 5.94181 0
M  V30 6095 H 571.893 1.25357 6.3474 0
M  V30 6096 N 572.025 -1.5352 0.356285 0
M  V30 6097 C 573.302 -1.93405 -0.292223 0
M  V30 6098 C 573.682 -1.28901 -1.67176 0
M  V30 6099 O 573.03 -0.444632 -2.24132 0
M  V30 6100 C 573.24 -3.47223 -0.35175 0
M  V30 6101 C 574.588 -4.20389 -0.596534 0
M  V30 6102 O 575.612 -3.53554 -0.433344 0
M  V30 6103 O 574.471 -5.3881 -0.913589 0
M  V30 6104 H 571.565 -0.808666 -0.173172 0
M  V30 6105 H 574.111 -1.64713 0.408391 0
M  V30 6106 H 572.883 -3.86423 0.615841 0
M  V30 6107 H 572.506 -3.8212 -1.09864 0
M  V30 6108 N 573.503 -0.0852151 -1.57369 0
M  V30 6109 C 574.466 0.8627 -2.12344 0
M  V30 6110 C 575.466 1.21746 -1.05046 0
M  V30 6111 O 576.656 1.14852 -1.30976 0
M  V30 6112 C 573.788 2.1618 -2.63589 0
M  V30 6113 H 574.981 0.385511 -2.97412 0
M  V30 6114 H 572.534 0.163663 -1.55441 0
M  V30 6115 H 573.269 2.68406 -1.82013 0
M  V30 6116 H 573.054 1.91723 -3.4203 0
M  V30 6117 H 574.544 2.84011 -3.06149 0
M  V30 6118 N 574.981 1.5647 0.188427 0
M  V30 6119 C 575.944 1.9421 1.21718 0
M  V30 6120 C 576.944 0.823901 1.38089 0
M  V30 6121 O 578.134 1.09122 1.35787 0
M  V30 6122 C 575.266 2.22197 2.58537 0
M  V30 6123 H 576.459 2.86252 0.894418 0
M  V30 6124 H 574.012 1.50263 0.430211 0
M  V30 6125 H 574.747 1.32814 2.95856 0
M  V30 6126 H 574.532 3.03688 2.48025 0
M  V30 6127 H 576.022 2.52376 3.3271 0
M  V30 6128 N 576.459 -0.456382 1.50847 0
M  V30 6129 C 577.705 -1.20914 1.62811 0
M  V30 6130 C 578.038 -1.91301 0.334304 0
M  V30 6131 O 577.313 -1.82775 -0.665098 0
M  V30 6132 C 577.596 -2.24122 2.81853 0
M  V30 6133 C 577.449 -1.57944 4.21158 0
M  V30 6134 C 578.768 -3.25295 2.96431 0
M  V30 6135 H 575.887 -0.438233 0.592554 0
M  V30 6136 H 578.529 -0.50091 1.83278 0
M  V30 6137 H 576.679 -2.84524 2.64534 0
M  V30 6138 H 578.351 -1.01025 4.50102 0
M  V30 6139 H 576.594 -0.882185 4.24735 0
M  V30 6140 H 577.265 -2.33014 5.00408 0
M  V30 6141 H 579.741 -2.7493 3.12335 0
M  V30 6142 H 578.617 -3.94822 3.81322 0
M  V30 6143 H 578.878 -3.90286 2.07676 0
M  V30 6144 N 577.937 -1.40673 -0.710563 0
M  V30 6145 C 579.162 -1.42741 -1.50465 0
M  V30 6146 C 579.587 -0.0302116 -1.88076 0
M  V30 6147 O 578.945 0.962945 -1.53613 0
M  V30 6148 C 578.993 -2.32873 -2.75322 0
M  V30 6149 O 578.097 -1.77544 -3.72226 0
M  V30 6150 H 577.438 -0.485056 -0.45345 0
M  V30 6151 H 579.968 -1.84961 -0.874681 0
M  V30 6152 H 579.978 -2.48233 -3.23797 0
M  V30 6153 H 578.653 -3.34401 -2.47283 0
M  V30 6154 H 577.23 -1.71556 -3.31093 0
M  V30 6155 N 579.415 0.9433 -1.26252 0
M  V30 6156 C 580.692 1.66639 -1.02424 0
M  V30 6157 C 581.072 2.06335 0.446006 0
M  V30 6158 O 580.42 1.78551 1.42589 0
M  V30 6159 C 580.63 2.88019 -1.97094 0
M  V30 6160 C 581.978 3.59718 -2.25584 0
M  V30 6161 O 583.002 2.9812 -1.94943 0
M  V30 6162 O 581.861 4.7066 -2.77743 0
M  V30 6163 H 578.955 0.729643 -0.389294 0
M  V30 6164 H 581.501 0.995218 -1.37454 0
M  V30 6165 H 580.273 2.5556 -2.96319 0
M  V30 6166 H 579.896 3.62863 -1.62532 0
M  V30 6167 N 580.893 1.08022 1.14757 0
M  V30 6168 C 581.84 0.706657 2.19716 0
M  V30 6169 C 582.81 -0.30525 1.63271 0
M  V30 6170 O 583.995 -0.19015 1.8985 0
M  V30 6171 C 581.135 0.117914 3.44898 0
M  V30 6172 C 580.248 1.18212 4.15512 0
M  V30 6173 C 579.383 0.557659 5.28265 0
M  V30 6174 C 578.422 1.60418 5.90705 0
M  V30 6175 N 577.559 1.0018 6.94916 0
M  V30 6176 H 582.399 1.60603 2.51019 0
M  V30 6177 H 579.936 0.802664 1.23271 0
M  V30 6178 H 581.894 -0.241112 4.16503 0
M  V30 6179 H 580.524 -0.744788 3.1409 0
M  V30 6180 H 579.576 1.65863 3.42335 0
M  V30 6181 H 580.888 1.97533 4.5802 0
M  V30 6182 H 580.042 0.146654 6.06523 0
M  V30 6183 H 578.781 -0.267249 4.86967 0
M  V30 6184 H 577.786 2.02489 5.11154 0
M  V30 6185 H 579.011 2.43149 6.34078 0
M  V30 6186 H 576.957 0.197917 6.55701 0
M  V30 6187 H 576.874 1.73216 7.35889 0
M  V30 6188 H 578.142 0.616523 7.77058 0
M  V30 6189 N 582.371 -1.3172 0.865308 0
M  V30 6190 C 583.281 -2.32394 0.320935 0
M  V30 6191 C 584.297 -1.64511 -0.566746 0
M  V30 6192 O 585.473 -1.95969 -0.464575 0
M  V30 6193 C 582.538 -3.43462 -0.472701 0
M  V30 6194 C 581.599 -4.27015 0.442385 0
M  V30 6195 C 580.832 -5.32779 -0.313469 0
M  V30 6196 O 581.055 -5.49158 -1.54214 0
M  V30 6197 O 579.989 -6.01015 0.326257 0
M  V30 6198 H 583.815 -2.80868 1.15528 0
M  V30 6199 H 581.4 -1.35535 0.628545 0
M  V30 6200 H 583.282 -4.11172 -0.922781 0
M  V30 6201 H 581.957 -2.97159 -1.28367 0
M  V30 6202 H 580.864 -3.62075 0.940866 0
M  V30 6203 H 582.197 -4.76871 1.21882 0
M  V30 6204 N 583.85 -0.624285 -1.44708 0
M  V30 6205 C 584.797 0.0847135 -2.30644 0
M  V30 6206 C 585.767 0.843575 -1.43084 0
M  V30 6207 O 586.952 0.825982 -1.71995 0
M  V30 6208 C 584.091 1.06495 -3.28257 0
M  V30 6209 C 583.205 0.305224 -4.3092 0
M  V30 6210 C 582.34 1.27667 -5.1563 0
M  V30 6211 C 581.379 0.505706 -6.10007 0
M  V30 6212 N 580.516 1.42727 -6.8744 0
M  V30 6213 H 585.356 -0.654068 -2.90733 0
M  V30 6214 H 582.893 -0.334334 -1.4325 0
M  V30 6215 H 584.851 1.64658 -3.83332 0
M  V30 6216 H 583.481 1.77094 -2.69884 0
M  V30 6217 H 582.533 -0.392207 -3.78373 0
M  V30 6218 H 583.845 -0.295553 -4.97924 0
M  V30 6219 H 582.999 1.92984 -5.75189 0
M  V30 6220 H 581.738 1.91137 -4.48685 0
M  V30 6221 H 580.743 -0.160999 -5.49564 0
M  V30 6222 H 581.968 -0.124183 -6.78986 0
M  V30 6223 H 579.913 2.04931 -6.23169 0
M  V30 6224 H 579.831 0.880345 -7.50857 0
M  V30 6225 H 581.099 2.0695 -7.51526 0
M  V30 6226 N 585.328 1.53329 -0.364422 0
M  V30 6227 C 586.275 2.25698 0.482607 0
M  V30 6228 C 587.245 1.26325 1.07848 0
M  V30 6229 O 588.43 1.55104 1.11119 0
M  V30 6230 C 585.57 3.04873 1.61699 0
M  V30 6231 C 584.683 4.19135 1.0464 0
M  V30 6232 C 583.818 4.85754 2.14979 0
M  V30 6233 C 582.857 5.9205 1.5538 0
M  V30 6234 N 581.994 6.52365 2.59547 0
M  V30 6235 H 586.834 2.97666 -0.141032 0
M  V30 6236 H 584.371 1.46875 -0.0813692 0
M  V30 6237 H 586.329 3.49051 2.28516 0
M  V30 6238 H 584.959 2.35162 2.2113 0
M  V30 6239 H 584.011 3.79451 0.268553 0
M  V30 6240 H 585.323 4.95525 0.570653 0
M  V30 6241 H 584.477 5.3311 2.89619 0
M  V30 6242 H 583.216 4.08834 2.65906 0
M  V30 6243 H 582.221 5.44058 0.792549 0
M  V30 6244 H 583.446 6.7089 1.0528 0
M  V30 6245 H 581.392 5.78298 3.09689 0
M  V30 6246 H 581.309 7.2429 2.16655 0
M  V30 6247 H 582.577 7.0437 3.33892 0
M  V30 6248 N 586.806 0.0935595 1.57322 0
M  V30 6249 C 587.753 -0.865935 2.1394 0
M  V30 6250 C 588.723 -1.28083 1.05754 0
M  V30 6251 O 589.908 -1.36285 1.33533 0
M  V30 6252 C 587.048 -2.12023 2.72287 0
M  V30 6253 C 586.161 -1.756 3.94701 0
M  V30 6254 C 585.296 -2.95804 4.41218 0
M  V30 6255 C 584.335 -2.555 5.56225 0
M  V30 6256 N 583.472 -3.68534 5.97601 0
M  V30 6257 H 588.312 -0.376261 2.95615 0
M  V30 6258 H 585.849 -0.174052 1.46067 0
M  V30 6259 H 587.807 -2.85477 3.04235 0
M  V30 6260 H 586.437 -2.58492 1.93343 0
M  V30 6261 H 585.489 -0.921208 3.69077 0
M  V30 6262 H 586.801 -1.41964 4.78171 0
M  V30 6263 H 585.955 -3.77513 4.74941 0
M  V30 6264 H 584.694 -3.32649 3.56645 0
M  V30 6265 H 583.699 -1.72218 5.22131 0
M  V30 6266 H 584.924 -2.19801 6.42545 0
M  V30 6267 H 582.87 -4.051 5.15974 0
M  V30 6268 H 582.787 -3.38737 6.75865 0
M  V30 6269 H 584.055 -4.50757 6.35955 0
M  V30 6270 N 588.284 -1.56567 -0.180126 0
M  V30 6271 C 589.512 -1.85618 -0.913972 0
M  V30 6272 C 589.927 -0.677892 -1.7621 0
M  V30 6273 O 589.284 0.353171 -1.7905 0
M  V30 6274 C 589.335 -3.13619 -1.79793 0
M  V30 6275 O 589.056 -4.26906 -0.98402 0
M  V30 6276 C 590.557 -3.55954 -2.64219 0
M  V30 6277 H 587.777 -0.616043 -0.265954 0
M  V30 6278 H 590.321 -2.03681 -0.182872 0
M  V30 6279 H 588.476 -2.97409 -2.48247 0
M  V30 6280 H 588.89 -4.9989 -1.58776 0
M  V30 6281 H 590.364 -4.48444 -3.21873 0
M  V30 6282 H 590.841 -2.79653 -3.38661 0
M  V30 6283 H 591.447 -3.74746 -2.01111 0
M  V30 6284 N 589.762 0.448376 -1.51087 0
M  V30 6285 C 590.992 1.21965 -1.66757 0
M  V30 6286 C 591.4 1.85748 -0.359753 0
M  V30 6287 O 590.743 1.71022 0.670604 0
M  V30 6288 C 590.805 2.35284 -2.71812 0
M  V30 6289 C 590.469 1.91957 -4.1473 0
M  V30 6290 C 591.466 1.42921 -4.9987 0
M  V30 6291 C 589.151 1.99985 -4.60772 0
M  V30 6292 C 591.145 1.02485 -6.29107 0
M  V30 6293 C 588.832 1.5916 -5.90009 0
M  V30 6294 C 589.83 1.10491 -6.74004 0
M  V30 6295 O 589.518 0.702413 -8.00825 0
M  V30 6296 H 589.25 0.374125 -0.563034 0
M  V30 6297 H 591.804 0.538927 -1.98204 0
M  V30 6298 H 590.034 3.06599 -2.35657 0
M  V30 6299 H 591.723 2.97184 -2.76472 0
M  V30 6300 H 592.489 1.36123 -4.65506 0
M  V30 6301 H 588.368 2.36814 -3.95525 0
M  V30 6302 H 591.912 0.644271 -6.94619 0
M  V30 6303 H 587.809 1.65626 -6.2389 0
M  V30 6304 H 588.577 0.829248 -8.14288 0
M  V30 6305 N 591.24 1.41047 0.703093 0
M  V30 6306 C 592.487 1.4 1.46309 0
M  V30 6307 C 592.815 0.00654574 1.94499 0
M  V30 6308 O 592.07 -0.980255 1.6938 0
M  V30 6309 C 592.369 2.34686 2.6955 0
M  V30 6310 C 592.035 3.81684 2.40058 0
M  V30 6311 C 590.697 4.21731 2.31725 0
M  V30 6312 C 593.049 4.74525 2.15581 0
M  V30 6313 C 590.377 5.52637 1.97001 0
M  V30 6314 C 592.729 6.05744 1.82366 0
M  V30 6315 C 591.393 6.44819 1.72524 0
M  V30 6316 H 590.663 0.512295 0.535382 0
M  V30 6317 H 593.31 1.73792 0.804275 0
M  V30 6318 H 591.615 1.94122 3.40329 0
M  V30 6319 H 593.312 2.31152 3.27673 0
M  V30 6320 H 589.902 3.49963 2.47435 0
M  V30 6321 H 594.086 4.44395 2.20968 0
M  V30 6322 H 589.342 5.81802 1.87928 0
M  V30 6323 H 593.516 6.77189 1.62444 0
M  V30 6324 H 591.143 7.46168 1.45385 0
M  V30 6325 N 592.718 -0.936591 1.26751 0
M  V30 6326 C 593.965 -1.68331 1.12566 0
M  V30 6327 C 594.293 -1.91677 -0.330168 0
M  V30 6328 O 593.548 -1.49859 -1.2586 0
M  V30 6329 C 593.847 -3.06099 1.84494 0
M  V30 6330 C 593.513 -3.02493 3.34378 0
M  V30 6331 C 592.175 -3.01217 3.75262 0
M  V30 6332 C 594.527 -2.94453 4.30055 0
M  V30 6333 C 591.855 -2.89672 5.10203 0
M  V30 6334 C 594.207 -2.84449 5.65041 0
M  V30 6335 C 592.871 -2.81518 6.0523 0
M  V30 6336 H 592.141 -0.615965 0.411907 0
M  V30 6337 H 594.788 -1.09292 1.5725 0
M  V30 6338 H 593.093 -3.6879 1.32292 0
M  V30 6339 H 594.79 -3.62733 1.70955 0
M  V30 6340 H 591.38 -3.04269 3.01858 0
M  V30 6341 H 595.564 -2.94544 3.99447 0
M  V30 6342 H 590.82 -2.85783 5.40498 0
M  V30 6343 H 594.994 -2.77192 6.38856 0
M  V30 6344 H 592.621 -2.72329 7.09747 0
M  V30 6345 N 594.196 -1.08629 -1.14182 0
M  V30 6346 C 595.159 -0.722027 -2.1753 0
M  V30 6347 C 596.159 0.244305 -1.58933 0
M  V30 6348 O 597.349 0.0235545 -1.74184 0
M  V30 6349 C 594.481 -0.0663966 -3.40835 0
M  V30 6350 H 595.674 -1.63719 -2.51269 0
M  V30 6351 H 593.227 -0.884442 -1.28869 0
M  V30 6352 H 593.962 0.860389 -3.12678 0
M  V30 6353 H 593.747 -0.761598 -3.84632 0
M  V30 6354 H 595.237 0.173346 -4.1724 0
M  V30 6355 N 595.674 1.31259 -0.872281 0
M  V30 6356 C 596.637 2.26744 -0.334656 0
M  V30 6357 C 597.637 1.52307 0.515681 0
M  V30 6358 O 598.827 1.71148 0.324656 0
M  V30 6359 C 595.959 3.36841 0.524482 0
M  V30 6360 H 597.152 2.75812 -1.17762 0
M  V30 6361 H 594.705 1.42232 -0.648064 0
M  V30 6362 H 595.44 2.93069 1.38855 0
M  V30 6363 H 595.225 3.92009 -0.0844299 0
M  V30 6364 H 596.715 4.07944 0.892838 0
M  V30 6365 N 597.152 0.631951 1.44375 0
M  V30 6366 C 598.429 0.067646 1.95483 0
M  V30 6367 C 598.809 -1.40683 1.57389 0
M  V30 6368 O 598.157 -2.12167 0.848375 0
M  V30 6369 C 598.367 0.291392 3.47781 0
M  V30 6370 C 599.715 0.185028 4.24197 0
M  V30 6371 O 600.739 0.222803 3.55503 0
M  V30 6372 O 599.598 0.0906642 5.46425 0
M  V30 6373 H 596.692 -0.0218379 0.826712 0
M  V30 6374 H 599.238 0.703711 1.54421 0
M  V30 6375 H 598.01 1.31449 3.68561 0
M  V30 6376 H 597.633 -0.378772 3.95792 0
M  V30 6377 N 598.631 -1.53133 0.372548 0
M  V30 6378 C 599.578 -2.25951 -0.470631 0
M  V30 6379 C 600.548 -1.26895 -1.07176 0
M  V30 6380 O 601.733 -1.55691 -1.10294 0
M  V30 6381 C 598.873 -3.05726 -1.6008 0
M  V30 6382 C 597.986 -4.19684 -1.02416 0
M  V30 6383 C 597.121 -4.86888 -2.124 0
M  V30 6384 C 596.16 -5.92866 -1.52238 0
M  V30 6385 N 595.297 -6.53732 -2.56084 0
M  V30 6386 H 600.137 -2.97587 0.156816 0
M  V30 6387 H 597.674 -1.4683 0.0891571 0
M  V30 6388 H 599.632 -3.50258 -2.26661 0
M  V30 6389 H 598.262 -2.36331 -2.1988 0
M  V30 6390 H 597.314 -3.79588 -0.248426 0
M  V30 6391 H 598.626 -4.95821 -0.544366 0
M  V30 6392 H 597.78 -5.34638 -2.86787 0
M  V30 6393 H 596.519 -4.10239 -2.63734 0
M  V30 6394 H 595.524 -5.4447 -0.763685 0
M  V30 6395 H 596.749 -6.71439 -1.0172 0
M  V30 6396 H 594.695 -5.79932 -3.06618 0
M  V30 6397 H 594.612 -7.25429 -2.12811 0
M  V30 6398 H 595.88 -7.0613 -3.30152 0
M  V30 6399 N 600.109 -0.101901 -1.5727 0
M  V30 6400 C 601.339 0.567568 -1.98651 0
M  V30 6401 C 601.747 1.61839 -0.980037 0
M  V30 6402 O 601.09 1.83661 0.0376564 0
M  V30 6403 C 601.152 1.26742 -3.36417 0
M  V30 6404 C 600.816 0.366561 -4.55528 0
M  V30 6405 C 601.813 -0.388022 -5.1845 0
M  V30 6406 C 599.498 0.282629 -5.01504 0
M  V30 6407 C 601.492 -1.21445 -6.25724 0
M  V30 6408 C 599.179 -0.547443 -6.08643 0
M  V30 6409 C 600.177 -1.29462 -6.70618 0
M  V30 6410 O 599.865 -2.11095 -7.7569 0
M  V30 6411 H 599.597 0.156282 -0.657687 0
M  V30 6412 H 602.151 -0.179912 -2.04611 0
M  V30 6413 H 600.381 2.06162 -3.27161 0
M  V30 6414 H 602.07 1.8321 -3.622 0
M  V30 6415 H 602.836 -0.332949 -4.83856 0
M  V30 6416 H 598.715 0.853868 -4.53023 0
M  V30 6417 H 602.259 -1.79814 -6.74027 0
M  V30 6418 H 598.156 -0.603971 -6.42668 0
M  V30 6419 H 598.924 -2.03851 -7.92709 0
M  V30 6420 N 601.587 1.56661 0.17182 0
M  V30 6421 C 602.833 1.8313 0.88516 0
M  V30 6422 C 603.188 0.682376 1.79893 0
M  V30 6423 O 602.481 -0.321215 1.88888 0
M  V30 6424 C 602.675 3.13435 1.71736 0
M  V30 6425 C 602.504 4.40892 0.885659 0
M  V30 6426 C 601.274 5.02177 0.560939 0
M  V30 6427 C 603.472 5.13797 0.227454 0
M  V30 6428 N 601.454 6.13229 -0.286953 0
M  V30 6429 C 602.825 6.18127 -0.481625 0
M  V30 6430 C 604.88 4.97687 0.145567 0
M  V30 6431 C 603.583 7.08092 -1.26482 0
M  V30 6432 C 605.609 5.88096 -0.624298 0
M  V30 6433 C 604.971 6.91888 -1.32174 0
M  V30 6434 H 601.07 0.721107 0.302536 0
M  V30 6435 H 603.654 1.94104 0.152178 0
M  V30 6436 H 601.825 3.03653 2.42176 0
M  V30 6437 H 603.557 3.27903 2.37196 0
M  V30 6438 H 600.312 4.65145 0.890902 0
M  V30 6439 H 600.736 6.73359 -0.701193 0
M  V30 6440 H 605.378 4.17451 0.670426 0
M  V30 6441 H 603.096 7.87774 -1.80103 0
M  V30 6442 H 606.682 5.77702 -0.689321 0
M  V30 6443 H 605.562 7.60637 -1.90791 0
M  V30 6444 N 603.065 -0.440357 1.51323 0
M  V30 6445 C 604.481 -0.7766 1.39431 0
M  V30 6446 C 604.681 -1.95838 0.474296 0
M  V30 6447 O 603.737 -2.52398 -0.0716692 0
M  V30 6448 C 605.05 -1.05981 2.81405 0
M  V30 6449 C 606.598 -1.16442 2.90534 0
M  V30 6450 C 607.073 -1.48058 4.33408 0
M  V30 6451 N 608.564 -1.54988 4.36501 0
M  V30 6452 C 609.299 -1.81017 5.44078 0
M  V30 6453 N 608.795 -2.04858 6.61819 0
M  V30 6454 N 610.588 -1.82774 5.31554 0
M  V30 6455 H 602.739 0.338006 2.09693 0
M  V30 6456 H 605.002 0.0888072 0.943831 0
M  V30 6457 H 604.708 -0.264173 3.50706 0
M  V30 6458 H 604.582 -1.98822 3.20546 0
M  V30 6459 H 606.969 -1.95068 2.21432 0
M  V30 6460 H 607.05 -0.215088 2.54894 0
M  V30 6461 H 606.694 -0.699605 5.03059 0
M  V30 6462 H 606.624 -2.44192 4.66559 0
M  V30 6463 H 609.115 -1.38479 3.51613 0
M  V30 6464 H 609.428 -2.2408 7.396 0
M  V30 6465 H 607.773 -2.02187 6.6494 0
M  V30 6466 H 610.964 -1.63665 4.38556 0
M  V30 6467 H 611.137 -2.02722 6.15474 0
M  V30 6468 N 604.543 -1.41418 -0.695603 0
M  V30 6469 C 605.79 -1.40774 -1.45564 0
M  V30 6470 C 606.118 -0.0168604 -1.94493 0
M  V30 6471 O 605.373 0.971259 -1.69897 0
M  V30 6472 C 605.672 -2.36112 -2.68302 0
M  V30 6473 C 605.338 -3.82952 -2.38031 0
M  V30 6474 C 604 -4.22954 -2.29486 0
M  V30 6475 C 606.352 -4.75662 -2.13061 0
M  V30 6476 C 603.68 -5.53674 -1.94067 0
M  V30 6477 C 606.032 -6.06702 -1.79151 0
M  V30 6478 C 604.696 -6.45725 -1.69102 0
M  V30 6479 H 603.966 -0.515128 -0.532658 0
M  V30 6480 H 606.613 -1.74216 -0.795047 0
M  V30 6481 H 604.918 -1.95924 -3.39295 0
M  V30 6482 H 606.615 -2.32887 -3.26442 0
M  V30 6483 H 603.205 -3.5127 -2.45576 0
M  V30 6484 H 607.389 -4.45561 -2.18608 0
M  V30 6485 H 602.645 -5.8279 -1.8484 0
M  V30 6486 H 606.819 -6.78041 -1.5885 0
M  V30 6487 H 604.446 -7.46929 -1.41426 0
M  V30 6488 N 606.021 0.929856 -1.27246 0
M  V30 6489 C 607.298 1.65544 -1.04186 0
M  V30 6490 C 607.678 2.06796 0.424097 0
M  V30 6491 O 607.026 1.80053 1.40688 0
M  V30 6492 C 607.236 2.85912 -2.00138 0
M  V30 6493 C 608.584 3.57305 -2.29387 0
M  V30 6494 O 609.608 2.96036 -1.98094 0
M  V30 6495 O 608.467 4.67688 -2.82719 0
M  V30 6496 H 605.561 0.725473 -0.397011 0
M  V30 6497 H 608.107 0.980583 -1.38501 0
M  V30 6498 H 606.879 2.52403 -2.99013 0
M  V30 6499 H 606.502 3.61118 -1.66371 0
M  V30 6500 N 607.499 1.09233 1.13605 0
M  V30 6501 C 608.409 0.741939 2.22559 0
M  V30 6502 C 609.425 -0.255236 1.72118 0
M  V30 6503 O 610.601 -0.0970747 2.01166 0
M  V30 6504 C 607.666 0.165595 3.46304 0
M  V30 6505 C 606.727 1.21846 4.11645 0
M  V30 6506 C 605.96 0.669526 5.29484 0
M  V30 6507 O 606.183 -0.508228 5.68131 0
M  V30 6508 O 605.117 1.42361 5.84822 0
M  V30 6509 H 608.943 1.65107 2.54899 0
M  V30 6510 H 606.528 0.866584 1.21699 0
M  V30 6511 H 608.41 -0.152592 4.21124 0
M  V30 6512 H 607.085 -0.716573 3.15669 0
M  V30 6513 H 605.992 1.58931 3.38662 0
M  V30 6514 H 607.325 2.07321 4.46407 0
M  V30 6515 N 608.977 -1.30795 0.87923 0
M  V30 6516 C 609.925 -2.30231 0.331112 0
M  V30 6517 C 610.919 -1.59918 -0.558794 0
M  V30 6518 O 612.125 -1.74441 -0.443866 0
M  V30 6519 H 608.5 -0.746785 0.088409 0
M  V30 6520 H 610.471 -2.73925 1.18353 0
M  V30 6521 C 609.22 -3.44848 -0.444401 0
M  V30 6522 H 608.543 -3.99131 0.231106 0
M  V30 6523 H 609.983 -4.16516 -0.793109 0
M  V30 6524 C 608.442 -2.94329 -1.63926 0
M  V30 6525 O 608.972 -2.93875 -2.73862 0
M  V30 6526 N 607.178 -2.50413 -1.4745 0
M  V30 6527 H 606.725 -2.50982 -0.58015 0
M  V30 6528 H 606.683 -2.16969 -2.27534 0
M  V30 6529 N 610.455 -0.639598 -1.44038 0
M  V30 6530 C 611.68 -0.153117 -2.06834 0
M  V30 6531 C 612.105 1.16676 -1.47541 0
M  V30 6532 O 611.463 1.71769 -0.580093 0
M  V30 6533 C 611.511 -0.0609169 -3.60549 0
M  V30 6534 O 610.615 0.98071 -4.00569 0
M  V30 6535 H 609.956 -0.0886402 -0.658057 0
M  V30 6536 H 612.486 -0.878674 -1.84771 0
M  V30 6537 H 612.496 0.126892 -4.07803 0
M  V30 6538 H 611.171 -1.0245 -4.03084 0
M  V30 6539 H 609.748 0.766789 -3.64931 0
M  V30 6540 N 611.933 1.52934 -0.380664 0
M  V30 6541 C 612.865 2.23822 0.493581 0
M  V30 6542 C 613.878 1.25761 1.03383 0
M  V30 6543 O 615.067 1.5189 0.937633 0
M  V30 6544 C 612.167 2.9342 1.69582 0
M  V30 6545 C 611.34 4.18115 1.28445 0
M  V30 6546 C 610.399 4.70788 2.35042 0
M  V30 6547 O 609.425 5.34093 1.96807 0
M  V30 6548 N 610.627 4.49899 3.66839 0
M  V30 6549 H 613.392 2.99484 -0.11371 0
M  V30 6550 H 610.953 1.60577 -0.206587 0
M  V30 6551 H 612.945 3.2556 2.40401 0
M  V30 6552 H 611.515 2.21119 2.20965 0
M  V30 6553 H 610.735 3.92109 0.405503 0
M  V30 6554 H 612.023 4.99152 0.986132 0
M  V30 6555 H 611.421 3.99349 4.0067 0
M  V30 6556 H 609.978 4.86551 4.33718 0
M  V30 6557 N 613.412 0.11024 1.57214 0
M  V30 6558 C 614.637 -0.561179 1.99664 0
M  V30 6559 C 615.062 -1.59985 0.989266 0
M  V30 6560 O 614.42 -1.81255 -0.0402399 0
M  V30 6561 C 614.468 -1.17189 3.41027 0
M  V30 6562 O 613.572 -2.28755 3.4314 0
M  V30 6563 H 612.913 -0.14101 0.648855 0
M  V30 6564 H 615.443 0.196128 2.03658 0
M  V30 6565 H 615.453 -1.50954 3.79047 0
M  V30 6566 H 614.128 -0.411041 4.13864 0
M  V30 6567 H 612.705 -1.96495 3.16929 0
M  V30 6568 N 614.89 -1.56749 -0.16351 0
M  V30 6569 C 615.823 -1.9213 -1.23132 0
M  V30 6570 C 616.801 -0.785047 -1.42393 0
M  V30 6571 O 617.985 -1.0391 -1.57273 0
M  V30 6572 C 615.112 -2.17901 -2.59301 0
M  V30 6573 C 614.158 -3.40576 -2.5673 0
M  V30 6574 S 614.991 -4.94689 -2.05045 0
M  V30 6575 C 616.147 -5.23564 -3.42975 0
M  V30 6576 H 616.38 -2.824 -0.929383 0
M  V30 6577 H 613.913 -1.4994 -0.368418 0
M  V30 6578 H 615.871 -2.33429 -3.3767 0
M  V30 6579 H 614.532 -1.28324 -2.86691 0
M  V30 6580 H 613.725 -3.55833 -3.5693 0
M  V30 6581 H 613.327 -3.24204 -1.86462 0
M  V30 6582 H 615.619 -5.16019 -4.3901 0
M  V30 6583 H 616.562 -6.25134 -3.32586 0
M  V30 6584 H 616.97 -4.51113 -3.39348 0
M  V30 6585 N 616.368 0.432326 -1.51554 0
M  V30 6586 C 617.278 1.55023 -1.76082 0
M  V30 6587 C 618.294 1.61593 -0.645265 0
M  V30 6588 O 619.47 1.78742 -0.928086 0
M  V30 6589 C 616.535 2.90964 -1.88523 0
M  V30 6590 C 615.596 2.9447 -3.12388 0
M  V30 6591 C 614.829 4.23926 -3.24225 0
M  V30 6592 O 615.052 5.16576 -2.4188 0
M  V30 6593 O 613.986 4.33818 -4.17235 0
M  V30 6594 H 617.812 1.37238 -2.70923 0
M  V30 6595 H 615.397 0.615845 -1.36117 0
M  V30 6596 H 617.279 3.71633 -1.98662 0
M  V30 6597 H 615.954 3.08865 -0.9687 0
M  V30 6598 H 614.861 2.12737 -3.07723 0
M  V30 6599 H 616.194 2.81514 -4.03746 0
M  V30 6600 N 617.846 1.41785 0.688094 0
M  V30 6601 C 618.778 1.40159 1.81351 0
M  V30 6602 C 619.791 0.30262 1.59963 0
M  V30 6603 O 620.98 0.564841 1.69327 0
M  V30 6604 C 618.08 1.16517 3.1824 0
M  V30 6605 C 617.253 2.38597 3.66593 0
M  V30 6606 C 616.312 2.10699 4.82174 0
M  V30 6607 O 615.338 2.83798 4.93404 0
M  V30 6608 N 616.54 1.10187 5.69947 0
M  V30 6609 H 619.305 2.3716 1.83236 0
M  V30 6610 H 616.866 1.36494 0.870697 0
M  V30 6611 H 618.858 0.957941 3.93199 0
M  V30 6612 H 617.428 0.280873 3.11336 0
M  V30 6613 H 616.648 2.74974 2.82459 0
M  V30 6614 H 617.936 3.19919 3.95638 0
M  V30 6615 H 617.334 0.497016 5.63512 0
M  V30 6616 H 615.891 0.954518 6.44773 0
M  V30 6617 N 619.324 -0.923095 1.27737 0
M  V30 6618 C 620.572 -1.66797 1.14119 0
M  V30 6619 C 620.893 -1.92479 -0.312541 0
M  V30 6620 O 620.163 -1.53432 -1.218 0
M  V30 6621 H 618.743 -0.618196 0.419336 0
M  V30 6622 H 621.405 -1.10815 1.60331 0
M  V30 6623 H 620.501 -2.63424 1.67374 0
M  V30 6624 N 620.802 -1.09834 -1.13024 0
M  V30 6625 C 622.049 -0.83695 -1.84395 0
M  V30 6626 C 622.377 0.637463 -1.83757 0
M  V30 6627 O 621.632 1.48554 -1.27398 0
M  V30 6628 C 621.931 -1.32263 -3.32026 0
M  V30 6629 C 621.597 -2.80739 -3.52841 0
M  V30 6630 C 620.259 -3.21286 -3.5823 0
M  V30 6631 C 622.611 -3.76449 -3.60466 0
M  V30 6632 C 619.939 -4.56308 -3.68781 0
M  V30 6633 C 622.291 -5.11266 -3.72546 0
M  V30 6634 C 620.955 -5.51397 -3.76189 0
M  V30 6635 H 620.225 -0.306262 -0.674748 0
M  V30 6636 H 622.872 -1.37385 -1.33408 0
M  V30 6637 H 621.177 -0.705618 -3.85394 0
M  V30 6638 H 622.874 -1.09695 -3.85705 0
M  V30 6639 H 619.464 -2.48363 -3.49305 0
M  V30 6640 H 623.648 -3.46234 -3.55578 0
M  V30 6641 H 618.904 -4.86832 -3.69871 0
M  V30 6642 H 623.078 -5.85279 -3.77388 0
M  V30 6643 H 620.705 -6.56017 -3.84117 0
M  V30 6644 N 622.28 1.30327 -0.886154 0
M  V30 6645 C 623.691 1.78243 -0.555554 0
M  V30 6646 C 624.042 1.72849 0.928314 0
M  V30 6647 O 623.167 1.30607 1.72542 0
M  V30 6648 C 623.762 3.23654 -1.00168 0
M  V30 6649 C 622.321 3.69401 -0.722471 0
M  V30 6650 C 621.468 2.50753 -1.18399 0
M  V30 6651 H 624.419 1.1718 -1.07026 0
M  V30 6652 H 624.44 3.79056 -0.331152 0
M  V30 6653 H 623.952 3.27548 -2.08169 0
M  V30 6654 H 622.053 3.70995 0.345496 0
M  V30 6655 H 622.166 4.60818 -1.31085 0
M  V30 6656 H 620.53 2.47452 -0.603303 0
M  V30 6657 H 621.313 2.57383 -2.27176 0
M  V30 6658 N 623.758 0.647228 1.43697 0
M  V30 6659 C 625.174 0.314256 1.56476 0
M  V30 6660 C 625.374 -1.18191 1.63196 0
M  V30 6661 O 624.43 -1.96655 1.58376 0
M  V30 6662 C 625.743 1.02034 2.82859 0
M  V30 6663 C 627.291 1.00002 2.96595 0
M  V30 6664 C 627.766 1.68689 4.25803 0
M  V30 6665 N 629.257 1.65424 4.32654 0
M  V30 6666 C 629.992 2.1545 5.31384 0
M  V30 6667 N 629.488 2.73738 6.36427 0
M  V30 6668 N 631.281 2.05985 5.22998 0
M  V30 6669 H 623.432 1.61821 1.37578 0
M  V30 6670 H 625.695 0.680184 0.660344 0
M  V30 6671 H 625.401 2.07542 2.83935 0
M  V30 6672 H 625.275 0.568146 3.72897 0
M  V30 6673 H 627.662 -0.0466319 2.95063 0
M  V30 6674 H 627.743 1.49086 2.07863 0
M  V30 6675 H 627.387 2.73308 4.28095 0
M  V30 6676 H 627.317 1.17076 5.13421 0
M  V30 6677 H 629.808 1.22884 3.57363 0
M  V30 6678 H 630.121 3.09602 7.08072 0
M  V30 6679 H 628.466 2.77796 6.37067 0
M  V30 6680 H 631.657 1.60157 4.39849 0
M  V30 6681 H 631.83 2.45281 5.99784 0
M  V30 6682 N 625.236 -1.5273 0.388769 0
M  V30 6683 C 626.166 -2.29353 -0.438111 0
M  V30 6684 C 627.147 -1.32719 -1.06394 0
M  V30 6685 O 628.332 -1.61612 -1.07681 0
M  V30 6686 C 625.462 -3.09995 -1.56589 0
M  V30 6687 C 624.416 -4.14509 -1.06613 0
M  V30 6688 C 623.742 -4.83372 -2.28594 0
M  V30 6689 C 625.042 -5.22127 -0.134459 0
M  V30 6690 H 626.736 -2.98723 0.201206 0
M  V30 6691 H 624.282 -1.43665 0.0982089 0
M  V30 6692 H 626.235 -3.62357 -2.15118 0
M  V30 6693 H 624.959 -2.38357 -2.23279 0
M  V30 6694 H 623.618 -3.63128 -0.503383 0
M  V30 6695 H 623.266 -4.08283 -2.93792 0
M  V30 6696 H 622.966 -5.54012 -1.95817 0
M  V30 6697 H 624.49 -5.38538 -2.87766 0
M  V30 6698 H 625.904 -5.69851 -0.627914 0
M  V30 6699 H 624.301 -6.00011 0.103534 0
M  V30 6700 H 625.371 -4.77971 0.816798 0
M  V30 6701 N 626.714 -0.118576 -1.57153 0
M  V30 6702 C 627.963 0.539339 -1.94355 0
M  V30 6703 C 628.276 1.67858 -1.00415 0
M  V30 6704 O 629.482 2.39922 -1.27081 0
M  V30 6705 C 627.938 1.01082 -3.45414 0
M  V30 6706 C 627.546 -0.0999402 -4.47889 0
M  V30 6707 C 629.29 1.64013 -3.91535 0
M  V30 6708 C 627.197 0.388212 -5.90124 0
M  V30 6709 H 626.127 0.205247 -0.725527 0
M  V30 6710 H 628.778 -0.19836 -1.82425 0
M  V30 6711 H 627.16 1.80292 -3.52577 0
M  V30 6712 H 628.334 -0.876189 -4.52393 0
M  V30 6713 H 626.649 -0.635885 -4.11516 0
M  V30 6714 H 629.246 2.01649 -4.95219 0
M  V30 6715 H 629.589 2.51836 -3.31488 0
M  V30 6716 H 630.122 0.913439 -3.87171 0
M  V30 6717 H 626.861 -0.453963 -6.53926 0
M  V30 6718 H 626.381 1.13095 -5.89041 0
M  V30 6719 H 628.06 0.849574 -6.41398 0
M  V30 6720 N 628.193 1.56834 0.155195 0
M  V30 6721 C 629.156 1.96748 1.17571 0
M  V30 6722 C 630.156 0.853006 1.3631 0
M  V30 6723 O 631.346 1.11978 1.33441 0
M  V30 6724 C 628.478 2.27631 2.53765 0
M  V30 6725 H 629.671 2.88085 0.833498 0
M  V30 6726 H 627.224 1.51141 0.398242 0
M  V30 6727 H 627.959 1.39059 2.92973 0
M  V30 6728 H 627.744 3.0888 2.41527 0
M  V30 6729 H 629.234 2.59377 3.27282 0
M  V30 6730 N 629.671 -0.424282 1.51781 0
M  V30 6731 C 630.948 -1.18464 1.55646 0
M  V30 6732 C 631.328 -2.08529 0.328438 0
M  V30 6733 O 630.676 -2.17969 -0.685693 0
M  V30 6734 C 630.886 -1.97514 2.87731 0
M  V30 6735 C 632.234 -2.54106 3.40169 0
M  V30 6736 O 633.258 -2.07711 2.89369 0
M  V30 6737 O 632.117 -3.38759 4.28841 0
M  V30 6738 H 629.211 -0.540055 0.626314 0
M  V30 6739 H 631.757 -0.432291 1.64102 0
M  V30 6740 H 630.529 -1.31444 3.68562 0
M  V30 6741 H 630.152 -2.79787 2.82498 0
M  V30 6742 N 631.149 -1.42148 -0.680565 0
M  V30 6743 C 632.426 -1.32795 -1.43614 0
M  V30 6744 C 632.806 0.037415 -2.11067 0
M  V30 6745 O 632.154 1.05258 -2.02813 0
M  V30 6746 C 632.364 -2.49206 -2.44331 0
M  V30 6747 C 633.712 -2.91059 -3.09144 0
M  V30 6748 O 634.736 -2.49054 -2.54657 0
M  V30 6749 O 633.595 -3.63741 -4.07866 0
M  V30 6750 H 630.689 -0.523397 -0.640301 0
M  V30 6751 H 633.235 -1.54144 -0.709775 0
M  V30 6752 H 632.007 -3.40252 -1.93247 0
M  V30 6753 H 631.63 -2.29813 -3.24456 0
M  V30 6754 N 632.627 0.916307 -1.28225 0
M  V30 6755 C 633.874 1.66518 -1.1523 0
M  V30 6756 C 634.202 1.92178 0.299632 0
M  V30 6757 O 633.457 1.51842 1.2346 0
M  V30 6758 C 633.756 3.03125 -1.8934 0
M  V30 6759 C 633.422 2.97135 -3.39148 0
M  V30 6760 C 632.084 2.95208 -3.80007 0
M  V30 6761 C 634.436 2.87574 -4.34685 0
M  V30 6762 C 631.764 2.81518 -5.14747 0
M  V30 6763 C 634.116 2.75424 -5.69495 0
M  V30 6764 C 632.78 2.71854 -6.09632 0
M  V30 6765 H 632.05 0.609334 -0.421655 0
M  V30 6766 H 634.697 1.06776 -1.58969 0
M  V30 6767 H 633.002 3.66639 -1.38143 0
M  V30 6768 H 634.699 3.59968 -1.76704 0
M  V30 6769 H 631.289 2.99428 -3.06661 0
M  V30 6770 H 635.473 2.88152 -4.04082 0
M  V30 6771 H 630.729 2.77148 -5.44976 0
M  V30 6772 H 634.903 2.66993 -6.43185 0
M  V30 6773 H 632.53 2.61003 -7.1399 0
M  V30 6774 N 634.105 1.10431 1.1244 0
M  V30 6775 C 635.516 0.864439 1.65482 0
M  V30 6776 C 635.867 -0.60527 1.8663 0
M  V30 6777 O 634.992 -1.46492 1.59276 0
M  V30 6778 C 635.587 1.56267 3.0061 0
M  V30 6779 C 634.146 1.3695 3.50602 0
M  V30 6780 C 633.293 1.61209 2.25626 0
M  V30 6781 H 636.244 1.26203 0.962209 0
M  V30 6782 H 636.265 1.00166 3.67079 0
M  V30 6783 H 635.777 2.63231 2.85186 0
M  V30 6784 H 633.878 0.321481 3.71211 0
M  V30 6785 H 633.991 2.11143 4.30064 0
M  V30 6786 H 632.355 1.03482 2.32731 0
M  V30 6787 H 633.138 2.69425 2.12756 0
M  V30 6788 N 635.583 -1.29855 0.893053 0
M  V30 6789 C 636.831 -1.9544 0.514566 0
M  V30 6790 C 637.152 -1.70795 -0.940959 0
M  V30 6791 O 636.422 -1.03601 -1.66264 0
M  V30 6792 H 635.002 -0.723137 0.187302 0
M  V30 6793 H 637.664 -1.58234 1.13789 0
M  V30 6794 H 636.76 -3.04341 0.691581 0
M  V30 6795 N 637.061 -0.65484 -1.43351 0
M  V30 6796 C 638.307 -0.169142 -2.02093 0
M  V30 6797 C 638.64 1.21431 -1.51553 0
M  V30 6798 O 637.915 1.81105 -0.709317 0
M  V30 6799 C 638.198 -0.181775 -3.59641 0
M  V30 6800 C 638.051 -1.59926 -4.20409 0
M  V30 6801 C 639.37 0.480945 -4.37464 0
M  V30 6802 H 636.489 -0.0629371 -0.734308 0
M  V30 6803 H 639.131 -0.835833 -1.70628 0
M  V30 6804 H 637.281 0.385918 -3.86578 0
M  V30 6805 H 638.953 -2.21766 -4.04497 0
M  V30 6806 H 637.196 -2.14605 -3.76998 0
M  V30 6807 H 637.867 -1.55994 -5.295 0
M  V30 6808 H 640.343 -0.00208273 -4.161 0
M  V30 6809 H 639.219 0.441384 -5.47122 0
M  V30 6810 H 639.48 1.55533 -4.13838 0
M  V30 6811 N 638.539 1.52521 -0.396863 0
M  V30 6812 C 639.449 2.30403 0.44178 0
M  V30 6813 C 640.465 1.37625 1.06468 0
M  V30 6814 O 641.641 1.70697 1.06886 0
M  V30 6815 C 638.706 3.1013 1.54986 0
M  V30 6816 C 637.767 4.18628 0.951279 0
M  V30 6817 C 637 4.94543 2.00655 0
M  V30 6818 O 637.223 4.70629 3.22281 0
M  V30 6819 O 636.157 5.797 1.61962 0
M  V30 6820 H 639.983 3.03087 -0.192892 0
M  V30 6821 H 637.568 1.48537 -0.16038 0
M  V30 6822 H 639.45 3.59816 2.19341 0
M  V30 6823 H 638.125 2.40251 2.16935 0
M  V30 6824 H 637.032 3.73119 0.270773 0
M  V30 6825 H 638.365 4.90763 0.375887 0
M  V30 6826 N 640.017 0.126909 1.57088 0
M  V30 6827 C 641.428 -0.397201 1.82426 0
M  V30 6828 C 641.779 -1.66084 1.04453 0
M  V30 6829 O 640.904 -2.14534 0.283552 0
M  V30 6830 C 641.499 -0.727411 3.30899 0
M  V30 6831 C 640.058 -1.19612 3.56889 0
M  V30 6832 C 639.205 -0.20885 2.76512 0
M  V30 6833 H 642.156 0.351924 1.54749 0
M  V30 6834 H 642.177 -1.58407 3.45959 0
M  V30 6835 H 641.689 0.19247 3.87622 0
M  V30 6836 H 639.79 -2.13263 3.05532 0
M  V30 6837 H 639.903 -1.13598 4.65438 0
M  V30 6838 H 638.267 -0.697479 2.44964 0
M  V30 6839 H 639.05 0.704267 3.35998 0
M  V30 6840 N 641.495 -1.56914 -0.146875 0
M  V30 6841 C 642.442 -1.98275 -1.18134 0
M  V30 6842 C 643.412 -0.850367 -1.42681 0
M  V30 6843 O 644.597 -1.11244 -1.55014 0
M  V30 6844 C 641.737 -2.36861 -2.5098 0
M  V30 6845 C 640.85 -3.63391 -2.33605 0
M  V30 6846 C 639.985 -3.91079 -3.59486 0
M  V30 6847 C 639.024 -5.10879 -3.37149 0
M  V30 6848 N 638.161 -5.34577 -4.55161 0
M  V30 6849 H 643.001 -2.8645 -0.821622 0
M  V30 6850 H 640.538 -1.41718 -0.394248 0
M  V30 6851 H 642.496 -2.57262 -3.28439 0
M  V30 6852 H 641.126 -1.51766 -2.84898 0
M  V30 6853 H 640.178 -3.50766 -1.47199 0
M  V30 6854 H 641.49 -4.51007 -2.13059 0
M  V30 6855 H 640.644 -4.11979 -4.45374 0
M  V30 6856 H 639.383 -3.01885 -3.83036 0
M  V30 6857 H 638.388 -4.89853 -2.49649 0
M  V30 6858 H 639.613 -6.01626 -3.14997 0
M  V30 6859 H 637.559 -4.48337 -4.78884 0
M  V30 6860 H 637.476 -6.16463 -4.37618 0
M  V30 6861 H 638.744 -5.59975 -5.42263 0
M  V30 6862 N 642.974 0.416227 -1.52004 0
M  V30 6863 C 644.22 1.16555 -1.6596 0
M  V30 6864 C 644.553 1.90347 -0.384906 0
M  V30 6865 O 643.828 1.84474 0.616405 0
M  V30 6866 C 644.111 2.1657 -2.87696 0
M  V30 6867 C 643.964 1.46722 -4.25197 0
M  V30 6868 C 645.283 3.17321 -3.04951 0
M  V30 6869 H 642.402 0.422369 -0.603965 0
M  V30 6870 H 645.044 0.452141 -1.84542 0
M  V30 6871 H 643.194 2.77411 -2.71985 0
M  V30 6872 H 644.866 0.89056 -4.52622 0
M  V30 6873 H 643.109 0.769263 -4.26925 0
M  V30 6874 H 643.78 2.19665 -5.0641 0
M  V30 6875 H 646.256 2.66552 -3.19514 0
M  V30 6876 H 645.132 3.84573 -3.91656 0
M  V30 6877 H 645.393 3.84643 -2.17951 0
M  V30 6878 N 644.452 1.42507 0.673017 0
M  V30 6879 C 645.729 1.33554 1.42908 0
M  V30 6880 C 646.109 -0.0262211 2.11084 0
M  V30 6881 O 645.457 -1.04181 2.03368 0
M  V30 6882 C 645.667 2.50498 2.43006 0
M  V30 6883 C 647.015 2.92694 3.07596 0
M  V30 6884 O 648.039 2.50401 2.53333 0
M  V30 6885 O 646.898 3.65899 4.05931 0
M  V30 6886 H 643.992 0.526785 0.637516 0
M  V30 6887 H 646.538 1.54518 0.701591 0
M  V30 6888 H 645.31 3.41272 1.9144 0
M  V30 6889 H 644.933 2.3153 3.23233 0
M  V30 6890 N 645.93 -0.909495 1.28709 0
M  V30 6891 C 646.893 -1.99399 1.13016 0
M  V30 6892 C 647.893 -1.60654 0.068536 0
M  V30 6893 O 649.083 -1.71334 0.314671 0
M  V30 6894 C 646.215 -3.33078 0.726085 0
M  V30 6895 H 647.408 -2.14751 2.09338 0
M  V30 6896 H 644.961 -1.09272 1.11756 0
M  V30 6897 H 645.696 -3.23428 -0.23771 0
M  V30 6898 H 645.481 -3.62562 1.49302 0
M  V30 6899 H 646.971 -4.12681 0.639058 0
M  V30 6900 N 647.408 -1.11026 -1.11852 0
M  V30 6901 C 648.654 -0.857729 -1.83768 0
M  V30 6902 C 648.987 0.615143 -1.842 0
M  V30 6903 O 648.262 1.45391 -1.29196 0
M  V30 6904 C 648.545 -1.41453 -3.31154 0
M  V30 6905 C 648.398 -2.95471 -3.39142 0
M  V30 6906 C 649.717 -1.0619 -4.27097 0
M  V30 6907 H 646.836 -0.313044 -0.667212 0
M  V30 6908 H 649.478 -1.37443 -1.31185 0
M  V30 6909 H 647.628 -0.975052 -3.76065 0
M  V30 6910 H 649.3 -3.4799 -3.02821 0
M  V30 6911 H 647.543 -3.31759 -2.79497 0
M  V30 6912 H 648.214 -3.29515 -4.42859 0
M  V30 6913 H 650.69 -1.44122 -3.90344 0
M  V30 6914 H 649.566 -1.47832 -5.28618 0
M  V30 6915 H 649.827 0.0278912 -4.42091 0
M  V30 6916 N 648.886 1.2938 -0.899927 0
M  V30 6917 C 649.816 2.30144 -0.39446 0
M  V30 6918 C 650.797 1.61611 0.530639 0
M  V30 6919 O 651.982 1.89119 0.441319 0
M  V30 6920 C 649.112 3.45229 0.37868 0
M  V30 6921 C 648.066 4.25564 -0.456012 0
M  V30 6922 C 647.392 5.32848 0.444637 0
M  V30 6923 C 648.692 4.93651 -1.70605 0
M  V30 6924 H 650.386 2.72673 -1.23653 0
M  V30 6925 H 647.932 1.31086 -0.596034 0
M  V30 6926 H 649.885 4.14797 0.743037 0
M  V30 6927 H 648.609 3.01545 1.25453 0
M  V30 6928 H 647.268 3.57704 -0.802704 0
M  V30 6929 H 646.916 4.85408 1.31863 0
M  V30 6930 H 646.616 5.87497 -0.110154 0
M  V30 6931 H 648.14 6.05268 0.805182 0
M  V30 6932 H 649.554 5.55655 -1.41141 0
M  V30 6933 H 647.951 5.58233 -2.20217 0
M  V30 6934 H 649.021 4.18926 -2.4419 0
M  V30 6935 N 650.364 0.662433 1.43002 0
M  V30 6936 C 651.296 -0.062326 2.29115 0
M  V30 6937 C 652.309 -0.777926 1.43011 0
M  V30 6938 O 653.498 -0.634146 1.66856 0
M  V30 6939 C 650.598 -1.11163 3.2015 0
M  V30 6940 C 649.771 -0.472327 4.34842 0
M  V30 6941 C 648.83 -1.41974 5.06685 0
M  V30 6942 O 647.856 -0.924795 5.61637 0
M  V30 6943 N 649.058 -2.75345 5.11043 0
M  V30 6944 H 651.823 0.676838 2.91957 0
M  V30 6945 H 649.384 0.505907 1.53793 0
M  V30 6946 H 651.376 -1.74643 3.65078 0
M  V30 6947 H 649.946 -1.75266 2.58845 0
M  V30 6948 H 649.166 0.341751 3.92716 0
M  V30 6949 H 650.454 -0.0264381 5.08793 0
M  V30 6950 H 649.852 -3.18108 4.67786 0
M  V30 6951 H 648.409 -3.34105 5.59658 0
M  V30 6952 N 651.842 -1.52309 0.404946 0
M  V30 6953 C 652.805 -2.25491 -0.410651 0
M  V30 6954 C 653.805 -1.27704 -0.977154 0
M  V30 6955 O 654.995 -1.51679 -0.856691 0
M  V30 6956 C 652.127 -3.02197 -1.57765 0
M  V30 6957 H 653.32 -2.99015 0.230277 0
M  V30 6958 H 650.873 -1.55506 0.157377 0
M  V30 6959 H 651.608 -2.33013 -2.25556 0
M  V30 6960 H 651.393 -3.73987 -1.17797 0
M  V30 6961 H 652.883 -3.57719 -2.15469 0
M  V30 6962 N 653.32 -0.135238 -1.57019 0
M  V30 6963 C 654.567 0.518794 -1.95742 0
M  V30 6964 C 654.895 1.65642 -1.01947 0
M  V30 6965 O 654.15 1.95645 -0.0464016 0
M  V30 6966 C 654.449 1.07694 -3.40788 0
M  V30 6967 C 654.115 0.058992 -4.50861 0
M  V30 6968 C 652.777 -0.220872 -4.80693 0
M  V30 6969 C 655.129 -0.633856 -5.17331 0
M  V30 6970 C 652.457 -1.19959 -5.74305 0
M  V30 6971 C 654.809 -1.60131 -6.11997 0
M  V30 6972 C 653.473 -1.889 -6.40213 0
M  V30 6973 H 652.743 0.18984 -0.716269 0
M  V30 6974 H 655.39 -0.219581 -1.90237 0
M  V30 6975 H 653.695 1.89241 -3.43067 0
M  V30 6976 H 655.392 1.59137 -3.68071 0
M  V30 6977 H 651.982 0.287304 -4.27636 0
M  V30 6978 H 656.166 -0.430823 -4.94427 0
M  V30 6979 H 651.422 -1.42905 -5.94465 0
M  V30 6980 H 655.596 -2.14376 -6.62583 0
M  V30 6981 H 653.223 -2.64891 -7.12556 0
M  V30 6982 N 654.798 1.5699 0.138552 0
M  V30 6983 C 656.046 1.83446 0.848053 0
M  V30 6984 C 656.367 0.71744 1.81322 0
M  V30 6985 O 655.637 -0.260228 1.94164 0
M  V30 6986 H 654.217 0.676792 0.316166 0
M  V30 6987 H 656.879 1.94462 0.130538 0
M  V30 6988 H 655.975 2.78677 1.40518 0
M  V30 6989 N 656.276 -0.40816 1.52223 0
M  V30 6990 C 657.523 -1.15502 1.66329 0
M  V30 6991 C 657.851 -1.90474 0.393701 0
M  V30 6992 O 657.106 -1.85507 -0.623356 0
M  V30 6993 C 657.405 -2.17422 2.83659 0
M  V30 6994 C 657.071 -1.5925 4.21841 0
M  V30 6995 C 655.733 -1.4311 4.59427 0
M  V30 6996 C 658.085 -1.16776 5.0795 0
M  V30 6997 C 655.413 -0.830148 5.80797 0
M  V30 6998 C 657.765 -0.580988 6.29926 0
M  V30 6999 C 656.429 -0.406729 6.6626 0
M  V30 7000 H 655.699 -0.422653 0.608642 0
M  V30 7001 H 658.346 -0.442114 1.86327 0
M  V30 7002 H 656.651 -2.94861 2.58001 0
M  V30 7003 H 658.348 -2.75084 2.9177 0
M  V30 7004 H 654.938 -1.72796 3.92224 0
M  V30 7005 H 659.122 -1.28055 4.79495 0
M  V30 7006 H 654.378 -0.68316 6.07571 0
M  V30 7007 H 658.552 -0.243488 6.95974 0
M  V30 7008 H 656.179 0.0610366 7.60175 0
M  V30 7009 N 657.755 -1.42862 -0.66545 0
M  V30 7010 C 659.002 -1.4383 -1.42546 0
M  V30 7011 C 659.33 -0.0581114 -1.94413 0
M  V30 7012 O 658.585 0.935002 -1.71919 0
M  V30 7013 C 658.884 -2.4175 -2.63233 0
M  V30 7014 C 658.55 -3.87915 -2.29854 0
M  V30 7015 C 657.212 -4.27726 -2.20463 0
M  V30 7016 C 659.564 -4.80074 -2.02924 0
M  V30 7017 C 656.892 -5.57666 -1.82279 0
M  V30 7018 C 659.244 -6.10366 -1.66242 0
M  V30 7019 C 657.908 -6.49167 -1.55367 0
M  V30 7020 H 657.178 -0.52631 -0.521612 0
M  V30 7021 H 659.825 -1.75863 -0.757914 0
M  V30 7022 H 658.13 -2.03077 -3.35063 0
M  V30 7023 H 659.827 -2.39759 -3.21429 0
M  V30 7024 H 656.417 -3.564 -2.3807 0
M  V30 7025 H 660.601 -4.50097 -2.09108 0
M  V30 7026 H 655.857 -5.8658 -1.72436 0
M  V30 7027 H 660.031 -6.81258 -1.44432 0
M  V30 7028 H 657.658 -7.49761 -1.2555 0
M  V30 7029 N 659.233 0.902656 -1.29189 0
M  V30 7030 C 660.463 1.68394 -1.19695 0
M  V30 7031 C 660.871 1.87602 0.245384 0
M  V30 7032 O 660.214 1.41084 1.17648 0
M  V30 7033 C 660.276 3.09094 -1.83578 0
M  V30 7034 C 659.94 3.1313 -3.32864 0
M  V30 7035 C 660.937 2.93497 -4.29134 0
M  V30 7036 C 658.622 3.3529 -3.74013 0
M  V30 7037 C 660.616 2.95953 -5.64527 0
M  V30 7038 C 658.303 3.37377 -5.09529 0
M  V30 7039 C 659.301 3.1773 -6.04596 0
M  V30 7040 O 658.989 3.196 -7.37639 0
M  V30 7041 H 658.721 0.532815 -0.416034 0
M  V30 7042 H 661.275 1.1374 -1.71033 0
M  V30 7043 H 659.505 3.65338 -1.26747 0
M  V30 7044 H 661.194 3.69297 -1.68447 0
M  V30 7045 H 661.96 2.76192 -3.98677 0
M  V30 7046 H 657.839 3.49623 -3.00474 0
M  V30 7047 H 661.383 2.80536 -6.38706 0
M  V30 7048 H 657.28 3.54213 -5.39633 0
M  V30 7049 H 658.048 3.35887 -7.46406 0
M  V30 7050 N 660.711 1.11618 1.11262 0
M  V30 7051 C 661.958 0.86618 1.8304 0
M  V30 7052 C 662.286 -0.608149 1.84748 0
M  V30 7053 O 661.541 -1.46508 1.29745 0
M  V30 7054 C 661.84 1.37529 3.2988 0
M  V30 7055 C 661.506 2.86317 3.4833 0
M  V30 7056 C 660.168 3.26945 3.53073 0
M  V30 7057 C 662.52 3.82136 3.54431 0
M  V30 7058 C 659.848 4.62117 3.61475 0
M  V30 7059 C 662.2 5.17128 3.64365 0
M  V30 7060 C 660.864 5.57312 3.67369 0
M  V30 7061 H 660.134 0.316958 0.66979 0
M  V30 7062 H 662.781 1.3949 1.31205 0
M  V30 7063 H 661.086 0.766842 3.84222 0
M  V30 7064 H 662.783 1.15817 3.83911 0
M  V30 7065 H 659.373 2.53889 3.45309 0
M  V30 7066 H 663.557 3.51847 3.50025 0
M  V30 7067 H 658.813 4.92655 3.62079 0
M  V30 7068 H 662.987 5.91208 3.68029 0
M  V30 7069 H 660.614 6.62045 3.73632 0
M  V30 7070 N 662.189 -1.289 0.906776 0
M  V30 7071 C 663.436 -1.95269 0.536326 0
M  V30 7072 C 663.764 -1.71435 -0.918711 0
M  V30 7073 O 663.019 -1.02431 -1.66752 0
M  V30 7074 C 663.318 -3.48704 0.783617 0
M  V30 7075 C 662.984 -3.92626 2.21711 0
M  V30 7076 C 661.646 -4.04329 2.60906 0
M  V30 7077 C 663.998 -4.15218 3.15029 0
M  V30 7078 C 661.326 -4.35998 3.92584 0
M  V30 7079 C 663.678 -4.48365 4.46264 0
M  V30 7080 C 662.342 -4.58278 4.85322 0
M  V30 7081 H 661.612 -0.714538 0.196256 0
M  V30 7082 H 664.259 -1.53366 1.14678 0
M  V30 7083 H 662.564 -3.91696 0.0903048 0
M  V30 7084 H 664.261 -3.98162 0.476267 0
M  V30 7085 H 660.851 -3.84038 1.90296 0
M  V30 7086 H 665.035 -4.05636 2.8596 0
M  V30 7087 H 660.291 -4.41878 4.22557 0
M  V30 7088 H 664.465 -4.64795 5.18593 0
M  V30 7089 H 662.092 -4.82573 5.87391 0
M  V30 7090 N 663.667 -0.670007 -1.42649 0
M  V30 7091 C 664.892 -0.196955 -2.06463 0
M  V30 7092 C 665.317 1.1352 -1.49983 0
M  V30 7093 O 664.675 1.705 -0.616397 0
M  V30 7094 C 664.723 -0.137381 -3.60338 0
M  V30 7095 O 663.827 0.895523 -4.02559 0
M  V30 7096 H 663.168 -0.102579 -0.656029 0
M  V30 7097 H 665.698 -0.917669 -1.82866 0
M  V30 7098 H 665.708 0.0403625 -4.0798 0
M  V30 7099 H 664.383 -1.10977 -4.0082 0
M  V30 7100 H 662.96 0.689209 -3.66476 0
M  V30 7101 N 665.145 1.52092 -0.413018 0
M  V30 7102 C 666.393 2.01456 0.161178 0
M  V30 7103 C 666.714 1.30034 1.45314 0
M  V30 7104 O 665.984 0.427435 1.9118 0
M  V30 7105 H 664.564 0.744376 0.0625526 0
M  V30 7106 H 667.226 1.86974 -0.550151 0
M  V30 7107 H 666.322 3.1008 0.354517 0
M  V30 7108 N 666.623 0.143563 1.56945 0
M  V30 7109 C 667.848 -0.518701 2.00809 0
M  V30 7110 C 668.273 -1.5785 1.02298 0
M  V30 7111 O 667.631 -1.813 -0.0017839 0
M  V30 7112 C 667.679 -1.09929 3.43436 0
M  V30 7113 O 666.783 -2.21425 3.47915 0
M  V30 7114 H 666.124 -0.127215 0.6517 0
M  V30 7115 H 668.654 0.239283 2.03196 0
M  V30 7116 H 668.664 -1.4288 3.82164 0
M  V30 7117 H 667.339 -0.323162 4.14643 0
M  V30 7118 H 665.916 -1.89728 3.21026 0
M  V30 7119 N 668.101 -1.57061 -0.130224 0
M  V30 7120 C 669.326 -1.88802 -0.858409 0
M  V30 7121 C 669.751 -0.734353 -1.73173 0
M  V30 7122 O 669.109 0.315529 -1.78533 0
M  V30 7123 C 669.157 -3.19228 -1.67708 0
M  V30 7124 O 668.261 -3.04343 -2.78297 0
M  V30 7125 H 667.602 -0.619849 -0.238083 0
M  V30 7126 H 670.132 -2.04271 -0.115995 0
M  V30 7127 H 670.142 -3.51669 -2.06864 0
M  V30 7128 H 668.817 -4.02793 -1.0359 0
M  V30 7129 H 667.394 -2.83346 -2.42425 0
M  V30 7130 N 669.579 0.400081 -1.52437 0
M  V30 7131 C 670.511 1.50729 -1.72666 0
M  V30 7132 C 671.524 1.51058 -0.607075 0
M  V30 7133 O 672.713 1.5516 -0.88248 0
M  V30 7134 C 669.813 2.89604 -1.76019 0
M  V30 7135 C 668.986 3.13365 -3.05157 0
M  V30 7136 C 668.045 4.32163 -3.00203 0
M  V30 7137 O 667.071 4.29004 -3.74092 0
M  V30 7138 N 668.273 5.3776 -2.18619 0
M  V30 7139 H 671.038 1.33767 -2.68191 0
M  V30 7140 H 668.599 0.58948 -1.50787 0
M  V30 7141 H 670.591 3.67159 -1.70225 0
M  V30 7142 H 669.161 2.99979 -0.879284 0
M  V30 7143 H 668.381 2.23774 -3.24529 0
M  V30 7144 H 669.669 3.26089 -3.90568 0
M  V30 7145 H 669.067 5.43177 -1.58035 0
M  V30 7146 H 667.624 6.14023 -2.18674 0
M  V30 7147 N 671.057 1.43213 0.657864 0
M  V30 7148 C 672.304 1.44584 1.41781 0
M  V30 7149 C 672.632 0.0684208 1.9438 0
M  V30 7150 O 671.887 -0.925872 1.72413 0
M  V30 7151 C 672.186 2.43143 2.61947 0
M  V30 7152 C 671.852 3.89128 2.27794 0
M  V30 7153 C 670.514 4.28889 2.18191 0
M  V30 7154 C 672.866 4.81144 2.00375 0
M  V30 7155 C 670.194 5.58625 1.79319 0
M  V30 7156 C 672.546 6.11239 1.63003 0
M  V30 7157 C 671.21 6.49981 1.51922 0
M  V30 7158 H 670.48 0.529069 0.518813 0
M  V30 7159 H 673.127 1.76263 0.748577 0
M  V30 7160 H 671.432 2.04851 3.33981 0
M  V30 7161 H 673.129 2.4146 3.20153 0
M  V30 7162 H 669.719 3.57657 2.36176 0
M  V30 7163 H 673.903 4.512 2.06718 0
M  V30 7164 H 669.159 5.87486 1.69323 0
M  V30 7165 H 673.333 6.82014 1.40817 0
M  V30 7166 H 670.96 7.50416 1.21572 0
M  V30 7167 N 672.536 -0.895792 1.29666 0
M  V30 7168 C 673.446 -2.03329 1.17024 0
M  V30 7169 C 674.462 -1.73753 0.0925962 0
M  V30 7170 O 675.638 -1.99071 0.305431 0
M  V30 7171 C 672.703 -3.36072 0.851841 0
M  V30 7172 C 671.764 -3.7914 2.01373 0
M  V30 7173 C 670.997 -5.05549 1.71043 0
M  V30 7174 O 671.22 -5.66874 0.633213 0
M  V30 7175 O 670.154 -5.44764 2.5596 0
M  V30 7176 H 673.98 -2.16918 2.12556 0
M  V30 7177 H 671.565 -1.02007 1.09156 0
M  V30 7178 H 673.447 -4.15729 0.689006 0
M  V30 7179 H 672.122 -3.23616 -0.0736634 0
M  V30 7180 H 671.029 -3.00233 2.23183 0
M  V30 7181 H 672.362 -3.96186 2.92058 0
M  V30 7182 N 674.014 -1.12206 -1.10668 0
M  V30 7183 C 675.261 -0.875875 -1.82578 0
M  V30 7184 C 675.589 0.598342 -1.85068 0
M  V30 7185 O 674.844 1.45818 -1.3052 0
M  V30 7186 C 675.143 -1.39276 -3.29146 0
M  V30 7187 C 674.809 -2.8816 -3.46806 0
M  V30 7188 C 673.471 -3.28813 -3.51334 0
M  V30 7189 C 675.823 -3.8401 -3.52399 0
M  V30 7190 C 673.151 -4.64028 -3.59019 0
M  V30 7191 C 675.503 -5.19053 -3.61617 0
M  V30 7192 C 674.167 -5.59252 -3.64408 0
M  V30 7193 H 673.437 -0.320505 -0.6681 0
M  V30 7194 H 676.084 -1.40184 -1.30464 0
M  V30 7195 H 674.389 -0.787207 -3.8381 0
M  V30 7196 H 676.086 -1.17851 -3.83291 0
M  V30 7197 H 672.676 -2.55716 -3.43958 0
M  V30 7198 H 676.86 -3.53698 -3.48154 0
M  V30 7199 H 672.116 -4.94568 -3.59461 0
M  V30 7200 H 676.29 -5.93152 -3.64889 0
M  V30 7201 H 673.917 -6.64017 -3.70116 0
M  V30 7202 N 675.492 1.28418 -0.913599 0
M  V30 7203 C 676.769 1.89977 -0.465619 0
M  V30 7204 C 677.149 1.82813 1.05559 0
M  V30 7205 O 676.497 1.26397 1.90358 0
M  V30 7206 C 676.707 3.34492 -0.995813 0
M  V30 7207 C 678.055 4.11468 -1.04782 0
M  V30 7208 O 679.079 3.43451 -0.944445 0
M  V30 7209 O 677.938 5.33046 -1.20518 0
M  V30 7210 H 675.032 0.813734 -0.147532 0
M  V30 7211 H 677.578 1.36786 -1.00437 0
M  V30 7212 H 676.35 3.33929 -2.03978 0
M  V30 7213 H 675.973 3.95181 -0.437878 0
M  V30 7214 N 676.97 0.677563 1.42291 0
M  V30 7215 C 678.381 0.277912 1.8462 0
M  V30 7216 C 678.732 -1.18048 1.56714 0
M  V30 7217 O 677.857 -1.90404 1.02836 0
M  V30 7218 C 678.452 0.497619 3.35126 0
M  V30 7219 C 677.011 0.152063 3.76093 0
M  V30 7220 C 676.158 0.78872 2.65847 0
M  V30 7221 H 679.109 0.879527 1.32098 0
M  V30 7222 H 679.13 -0.24939 3.79682 0
M  V30 7223 H 678.642 1.55913 3.55405 0
M  V30 7224 H 676.743 -0.905896 3.6142 0
M  V30 7225 H 676.856 0.594514 4.75397 0
M  V30 7226 H 675.22 0.219813 2.5375 0
M  V30 7227 H 676.003 1.85374 2.88949 0
M  V30 7228 N 678.448 -1.51871 0.421078 0
M  V30 7229 C 679.396 -2.28903 -0.413066 0
M  V30 7230 C 680.39 -1.3408 -1.03532 0
M  V30 7231 O 681.596 -1.5149 -0.972146 0
M  V30 7232 H 677.971 -0.736478 -0.152003 0
M  V30 7233 H 679.942 -2.97285 0.257695 0
M  V30 7234 C 678.691 -3.13156 -1.51091 0
M  V30 7235 H 678.014 -3.85997 -1.04145 0
M  V30 7236 H 679.454 -3.7014 -2.06814 0
M  V30 7237 C 677.913 -2.27482 -2.48503 0
M  V30 7238 O 678.443 -1.92325 -3.52667 0
M  V30 7239 N 676.649 -1.91019 -2.18998 0
M  V30 7240 H 676.196 -2.19808 -1.34322 0
M  V30 7241 H 676.154 -1.3399 -2.84419 0
M  V30 7242 N 679.926 -0.151884 -1.56866 0
M  V30 7243 C 680.889 0.771861 -2.15812 0
M  V30 7244 C 681.889 1.17181 -1.10115 0
M  V30 7245 O 683.079 1.09194 -1.35729 0
M  V30 7246 C 680.211 2.04806 -2.7252 0
M  V30 7247 H 681.404 0.259021 -2.98779 0
M  V30 7248 H 678.957 0.097588 -1.55995 0
M  V30 7249 H 679.692 2.60445 -1.93233 0
M  V30 7250 H 679.477 1.77044 -3.49854 0
M  V30 7251 H 680.967 2.70771 -3.1792 0
M  V30 7252 N 681.404 1.57128 0.121893 0
M  V30 7253 C 682.82 1.52357 0.47534 0
M  V30 7254 C 683.02 0.864417 1.82017 0
M  V30 7255 O 682.076 0.445529 2.48538 0
M  V30 7256 C 683.389 2.97122 0.4625 0
M  V30 7257 C 684.937 3.08196 0.546255 0
M  V30 7258 C 685.412 4.54516 0.563833 0
M  V30 7259 N 686.903 4.58959 0.625353 0
M  V30 7260 C 687.638 5.69585 0.660354 0
M  V30 7261 N 687.134 6.89714 0.653175 0
M  V30 7262 N 688.927 5.57685 0.703143 0
M  V30 7263 H 681.078 1.98364 -0.75931 0
M  V30 7264 H 683.341 0.905777 -0.279772 0
M  V30 7265 H 683.047 3.48706 -0.457943 0
M  V30 7266 H 682.921 3.54406 1.29136 0
M  V30 7267 H 685.308 2.56617 1.45712 0
M  V30 7268 H 685.389 2.53912 -0.310234 0
M  V30 7269 H 685.033 5.06741 -0.342974 0
M  V30 7270 H 684.963 5.06609 1.43716 0
M  V30 7271 H 687.454 3.72489 0.637182 0
M  V30 7272 H 687.767 7.69781 0.682425 0
M  V30 7273 H 686.112 6.92223 0.620646 0
M  V30 7274 H 689.303 4.62744 0.706095 0
M  V30 7275 H 689.476 6.43909 0.726952 0
M  V30 7276 N 682.882 -0.391992 1.52647 0
M  V30 7277 C 683.815 -1.50019 1.71958 0
M  V30 7278 C 684.793 -1.5238 0.567365 0
M  V30 7279 O 685.977 -1.70831 0.796806 0
M  V30 7280 C 683.104 -2.88496 1.77447 0
M  V30 7281 C 682.15 -3.03974 2.99169 0
M  V30 7282 S 682.983 -2.75487 4.59203 0
M  V30 7283 C 684.139 -4.16163 4.67503 0
M  V30 7284 H 684.372 -1.33413 2.65685 0
M  V30 7285 H 681.905 -0.584674 1.42902 0
M  V30 7286 H 683.863 -3.68296 1.81296 0
M  V30 7287 H 682.524 -3.02431 0.848188 0
M  V30 7288 H 681.717 -4.05328 2.99542 0
M  V30 7289 H 681.319 -2.32062 2.93297 0
M  V30 7290 H 683.611 -5.10048 4.45934 0
M  V30 7291 H 684.554 -4.20806 5.69498 0
M  V30 7292 H 684.962 -4.01933 3.96371 0
M  V30 7293 N 684.36 -1.4356 -0.65026 0
M  V30 7294 C 685.606 -1.45549 -1.41221 0
M  V30 7295 C 685.939 -0.0805472 -1.94033 0
M  V30 7296 O 685.214 0.899043 -1.72475 0
M  V30 7297 C 685.497 -2.50028 -2.59148 0
M  V30 7298 C 685.35 -3.96808 -2.1181 0
M  V30 7299 C 686.669 -2.51212 -3.61359 0
M  V30 7300 H 683.788 -0.529967 -0.512156 0
M  V30 7301 H 686.43 -1.75127 -0.736933 0
M  V30 7302 H 684.58 -2.24937 -3.16758 0
M  V30 7303 H 686.252 -4.32966 -1.59178 0
M  V30 7304 H 684.495 -4.09498 -1.43156 0
M  V30 7305 H 685.166 -4.6553 -2.96625 0
M  V30 7306 H 687.642 -2.73583 -3.13515 0
M  V30 7307 H 686.518 -3.26252 -4.41419 0
M  V30 7308 H 686.779 -1.54701 -4.1415 0
M  V30 7309 N 685.838 0.888903 -1.30139 0
M  V30 7310 C 687.066 1.67358 -1.21651 0
M  V30 7311 C 687.481 1.87499 0.221246 0
M  V30 7312 O 686.838 1.41969 1.14677 0
M  V30 7313 C 686.889 3.05213 -1.93719 0
M  V30 7314 O 686.61 2.85984 -3.31881 0
M  V30 7315 C 688.111 3.9964 -1.9184 0
M  V30 7316 H 685.331 0.522365 -0.42116 0
M  V30 7317 H 687.875 1.11086 -1.71698 0
M  V30 7318 H 686.03 3.5823 -1.4748 0
M  V30 7319 H 686.444 3.73411 -3.68327 0
M  V30 7320 H 687.918 4.93749 -2.46811 0
M  V30 7321 H 688.395 4.29955 -0.896409 0
M  V30 7322 H 689.001 3.52558 -2.37872 0
M  V30 7323 N 687.317 1.12792 1.10072 0
M  V30 7324 C 688.267 0.768086 2.14673 0
M  V30 7325 C 689.251 -0.234716 1.59179 0
M  V30 7326 O 690.443 -0.039643 1.76956 0
M  V30 7327 C 687.572 0.228472 3.42539 0
M  V30 7328 C 686.658 1.25979 4.04957 0
M  V30 7329 N 687.049 2.4586 4.42025 0
M  V30 7330 C 685.347 1.10602 4.32069 0
M  V30 7331 C 686.048 3.11747 4.9111 0
M  V30 7332 N 685.024 2.39185 4.88151 0
M  V30 7333 H 688.826 1.68029 2.4113 0
M  V30 7334 H 686.34 1.00925 1.27232 0
M  V30 7335 H 688.337 -0.0475216 4.16873 0
M  V30 7336 H 686.997 -0.678136 3.1754 0
M  V30 7337 H 688.008 2.83215 4.33601 0
M  V30 7338 H 684.685 0.257021 4.16708 0
M  V30 7339 H 686.075 4.13862 5.29309 0
M  V30 7340 N 688.795 -1.27931 0.920396 0
M  V30 7341 C 690.044 -1.93975 0.552867 0
M  V30 7342 C 690.357 -1.73193 -0.909035 0
M  V30 7343 O 691.563 -2.33515 -1.38502 0
M  V30 7344 C 690.019 -3.47463 0.937947 0
M  V30 7345 C 689.627 -3.77013 2.42003 0
M  V30 7346 C 691.371 -4.19628 0.64132 0
M  V30 7347 C 689.278 -5.23841 2.74489 0
M  V30 7348 H 688.208 -0.726146 0.203046 0
M  V30 7349 H 690.859 -1.45339 1.12022 0
M  V30 7350 H 689.241 -3.94867 0.299317 0
M  V30 7351 H 690.415 -3.40393 3.10595 0
M  V30 7352 H 688.73 -3.18035 2.6878 0
M  V30 7353 H 691.327 -5.27729 0.860622 0
M  V30 7354 H 691.67 -4.14164 -0.421168 0
M  V30 7355 H 692.203 -3.78022 1.23872 0
M  V30 7356 H 688.942 -5.34388 3.79618 0
M  V30 7357 H 688.462 -5.61634 2.1054 0
M  V30 7358 H 690.141 -5.91647 2.61845 0
M  V30 7359 N 690.273 -0.685099 -1.4193 0
M  V30 7360 C 691.203 -0.0273506 -2.33484 0
M  V30 7361 C 692.184 0.778366 -1.51246 0
M  V30 7362 O 693.369 0.733449 -1.79817 0
M  V30 7363 C 690.499 0.917272 -3.34968 0
M  V30 7364 C 689.453 0.21941 -4.27437 0
M  V30 7365 C 688.779 1.27768 -5.1921 0
M  V30 7366 C 690.079 -0.907894 -5.14349 0
M  V30 7367 H 691.773 -0.791994 -2.88735 0
M  V30 7368 H 689.319 -0.382308 -1.38832 0
M  V30 7369 H 691.272 1.38657 -3.97935 0
M  V30 7370 H 689.996 1.71346 -2.78043 0
M  V30 7371 H 688.655 -0.229757 -3.65879 0
M  V30 7372 H 688.303 2.06612 -4.58607 0
M  V30 7373 H 688.003 0.815803 -5.81909 0
M  V30 7374 H 689.527 1.7477 -5.85054 0
M  V30 7375 H 690.941 -0.519348 -5.70943 0
M  V30 7376 H 689.338 -1.2962 -5.85934 0
M  V30 7377 H 690.408 -1.75218 -4.52136 0
M  V30 7378 N 691.751 1.51645 -0.429126 0
M  V30 7379 C 692.698 2.27542 0.386446 0
M  V30 7380 C 693.668 1.30786 1.02393 0
M  V30 7381 O 694.853 1.59678 1.0444 0
M  V30 7382 C 691.993 3.11457 1.48623 0
M  V30 7383 C 691.106 4.23196 0.867691 0
M  V30 7384 C 690.241 4.94435 1.94183 0
M  V30 7385 C 689.28 5.98108 1.30129 0
M  V30 7386 N 688.417 6.62786 2.31644 0
M  V30 7387 H 693.257 2.968 -0.267155 0
M  V30 7388 H 690.794 1.46397 -0.143591 0
M  V30 7389 H 692.752 3.58429 2.13506 0
M  V30 7390 H 691.382 2.44329 2.10957 0
M  V30 7391 H 690.434 3.80248 0.107373 0
M  V30 7392 H 691.746 4.97499 0.35997 0
M  V30 7393 H 690.9 5.44914 2.66747 0
M  V30 7394 H 689.639 4.19744 2.48326 0
M  V30 7395 H 688.644 5.4693 0.561082 0
M  V30 7396 H 689.869 6.74751 0.767303 0
M  V30 7397 H 687.815 5.90913 2.84883 0
M  V30 7398 H 687.732 7.32828 1.85741 0
M  V30 7399 H 689 7.17897 3.03717 0
M  V30 7400 N 693.229 0.160201 1.56784 0
M  V30 7401 C 694.454 -0.497373 2.01348 0
M  V30 7402 C 694.879 -1.56757 1.03966 0
M  V30 7403 O 694.237 -1.81292 0.0174455 0
M  V30 7404 C 694.285 -1.0628 3.44582 0
M  V30 7405 O 693.389 -2.17723 3.50244 0
M  V30 7406 H 692.73 -0.120295 0.653012 0
M  V30 7407 H 695.26 0.260821 2.02931 0
M  V30 7408 H 695.27 -1.38819 3.83658 0
M  V30 7409 H 693.945 -0.279166 4.14962 0
M  V30 7410 H 692.522 -1.86313 3.2302 0
M  V30 7411 N 694.707 -1.5719 -0.113559 0
M  V30 7412 C 695.655 -2.01725 -1.158 0
M  V30 7413 C 696.649 -0.915105 -1.42556 0
M  V30 7414 O 697.855 -1.10031 -1.42454 0
M  V30 7415 H 694.23 -0.64262 -0.390569 0
M  V30 7416 H 696.201 -2.88666 -0.755926 0
M  V30 7417 C 694.95 -2.44203 -2.47507 0
M  V30 7418 H 694.273 -3.28582 -2.27758 0
M  V30 7419 H 695.713 -2.79158 -3.19135 0
M  V30 7420 C 694.172 -1.30785 -3.10478 0
M  V30 7421 O 694.702 -0.626807 -3.9678 0
M  V30 7422 N 692.908 -1.06352 -2.7044 0
M  V30 7423 H 692.455 -1.61913 -2.00355 0
M  V30 7424 H 692.413 -0.306614 -3.12901 0
M  V30 7425 N 696.185 0.383891 -1.52853 0
M  V30 7426 C 697.41 1.154 -1.7233 0
M  V30 7427 C 697.835 1.82809 -0.44298 0
M  V30 7428 O 697.193 1.71026 0.601645 0
M  V30 7429 C 697.241 2.17386 -2.87708 0
M  V30 7430 O 696.345 3.24082 -2.55038 0
M  V30 7431 H 695.686 0.335709 -0.572883 0
M  V30 7432 H 698.216 0.44662 -1.99666 0
M  V30 7433 H 698.226 2.61296 -3.1335 0
M  V30 7434 H 696.901 1.6771 -3.80587 0
M  V30 7435 H 695.478 2.85273 -2.40153 0
M  V30 7436 N 697.663 1.43903 0.642637 0
M  V30 7437 C 698.909 1.47291 1.40275 0
M  V30 7438 C 699.264 0.0996024 1.92142 0
M  V30 7439 O 698.557 -0.883423 1.70018 0
M  V30 7440 C 698.751 2.45907 2.59354 0
M  V30 7441 C 698.58 3.92691 2.19143 0
M  V30 7442 C 697.35 4.6097 2.06966 0
M  V30 7443 C 699.548 4.82231 1.78768 0
M  V30 7444 N 697.53 5.9263 1.60196 0
M  V30 7445 C 698.901 6.03246 1.43159 0
M  V30 7446 C 700.956 4.69397 1.66045 0
M  V30 7447 C 699.659 7.12851 0.961014 0
M  V30 7448 C 701.685 5.79016 1.20392 0
M  V30 7449 C 701.047 6.99164 0.857271 0
M  V30 7450 H 697.146 0.594055 0.50855 0
M  V30 7451 H 699.73 1.80153 0.738434 0
M  V30 7452 H 697.901 2.15054 3.23429 0
M  V30 7453 H 699.633 2.39665 3.26102 0
M  V30 7454 H 696.388 4.15622 2.27058 0
M  V30 7455 H 696.812 6.62547 1.39143 0
M  V30 7456 H 701.454 3.76954 1.91482 0
M  V30 7457 H 699.172 8.05113 0.694148 0
M  V30 7458 H 702.758 5.71109 1.11023 0
M  V30 7459 H 701.638 7.82544 0.509408 0
M  V30 7460 N 699.141 -0.881989 1.30609 0
M  V30 7461 C 700.071 -2.00413 1.1982 0
M  V30 7462 C 701.052 -1.69871 0.0881538 0
M  V30 7463 O 702.237 -1.92304 0.2707 0
M  V30 7464 C 699.367 -3.35641 0.89233 0
M  V30 7465 C 698.321 -3.80451 1.96064 0
M  V30 7466 C 697.647 -5.13003 1.5077 0
M  V30 7467 C 698.947 -3.98855 3.37213 0
M  V30 7468 H 700.641 -2.09698 2.13699 0
M  V30 7469 H 698.187 -1.00754 1.02882 0
M  V30 7470 H 700.14 -4.13669 0.803497 0
M  V30 7471 H 698.864 -3.26497 -0.0821381 0
M  V30 7472 H 697.523 -3.04654 2.03916 0
M  V30 7473 H 697.171 -5.0029 0.521417 0
M  V30 7474 H 696.871 -5.43956 2.22229 0
M  V30 7475 H 698.395 -5.93554 1.43271 0
M  V30 7476 H 699.809 -4.67312 3.32103 0
M  V30 7477 H 698.206 -4.41188 4.06784 0
M  V30 7478 H 699.276 -3.02614 3.78883 0
M  V30 7479 N 700.619 -1.13374 -1.09472 0
M  V30 7480 C 701.569 -0.77946 -2.14263 0
M  V30 7481 C 702.553 0.226271 -1.59301 0
M  V30 7482 O 703.745 0.0302581 -1.76974 0
M  V30 7483 C 700.874 -0.246635 -3.42413 0
M  V30 7484 C 699.96 -1.28124 -4.04283 0
M  V30 7485 N 700.351 -2.48201 -4.40715 0
M  V30 7486 C 698.649 -1.12892 -4.31476 0
M  V30 7487 C 699.35 -3.14347 -4.8945 0
M  V30 7488 N 698.326 -2.41771 -4.86876 0
M  V30 7489 H 702.128 -1.69305 -2.40235 0
M  V30 7490 H 699.642 -1.01598 -1.26695 0
M  V30 7491 H 701.639 0.0254131 -4.16892 0
M  V30 7492 H 700.299 0.661287 -3.17895 0
M  V30 7493 H 701.31 -2.85511 -4.32093 0
M  V30 7494 H 697.987 -0.279117 -4.16566 0
M  V30 7495 H 699.377 -4.16663 -5.27107 0
M  V30 7496 N 702.098 1.27442 -0.927168 0
M  V30 7497 C 703.338 1.96157 -0.574608 0
M  V30 7498 C 703.702 1.71265 0.867897 0
M  V30 7499 O 704.903 2.33664 1.3287 0
M  V30 7500 C 703.174 3.46115 -0.891009 0
M  V30 7501 S 704.733 4.34006 -0.646885 0
M  V30 7502 H 701.551 0.678619 -0.212125 0
M  V30 7503 H 704.153 1.54688 -1.19549 0
M  V30 7504 H 702.857 3.6173 -1.93854 0
M  V30 7505 H 702.388 3.92545 -0.259301 0
M  V30 7506 H 704.403 4.93719 0.495568 0
M  V30 7507 O 703.615 0.831378 1.38457 0
M  V30 7508 H 704.306 0.416578 1.89167 0
M  V30 END ATOM
M  V30 BEGIN BOND
M  V30 END BOND
M  V30 END CTAB
M  END
$$$$
