drugbank_target|P66010 Thioredoxin reductase (DB00548)
 OpenBabel12092119323D

  0  0  0     0  0            999 V3000
M  V30 BEGIN CTAB
M  V30 COUNTS 4709 4748 0 0 0
M  V30 BEGIN ATOM
M  V30 1 H -0.908 1.98254 -0.117106 0
M  V30 2 N 0 1.576 0 0
M  V30 3 C 0.933 2.03868 1.02534 0
M  V30 4 C 1.911 0.928543 1.3348 0
M  V30 5 O 3.095 1.19667 1.45644 0
M  V30 6 C 0.222 2.43627 2.35294 0
M  V30 7 C -0.732 3.65373 2.2001 0
M  V30 8 S 0.101 5.13292 1.52614 0
M  V30 9 C 1.257 5.56322 2.86805 0
M  V30 10 H 1.49 2.90518 0.631377 0
M  V30 11 H -0.977 1.52953 0.210867 0
M  V30 12 H 0.981 2.67203 3.11629 0
M  V30 13 H -0.358 1.57376 2.7183 0
M  V30 14 H -1.165 3.90944 3.18086 0
M  V30 15 H -1.563 3.418 1.51819 0
M  V30 16 H 0.729 5.58782 3.83104 0
M  V30 17 H 1.672 6.56266 2.65933 0
M  V30 18 H 2.08 4.83886 2.90714 0
M  V30 19 N 1.4781 -0.272755 1.55222 0
M  V30 20 C 2.7061 -1.02255 1.79865 0
M  V30 21 C 3.1211 -1.79924 0.572088 0
M  V30 22 O 2.4781 -1.76638 -0.458842 0
M  V30 23 C 2.5291 -1.98094 3.02392 0
M  V30 24 O 2.2501 -1.23572 4.20311 0
M  V30 25 C 3.7511 -2.84884 3.39641 0
M  V30 26 H 0.9711 -0.302057 0.599168 0
M  V30 27 H 3.5151 -0.303465 2.02236 0
M  V30 28 H 1.6701 -2.65465 2.82147 0
M  V30 29 H 2.0841 -1.88172 4.89583 0
M  V30 30 H 3.5581 -3.47927 4.28545 0
M  V30 31 H 4.0351 -3.54665 2.59055 0
M  V30 32 H 4.6411 -2.23003 3.62146 0
M  V30 33 N 2.9562 -1.48159 -0.537278 0
M  V30 34 C 3.8662 -1.64807 -1.6696 0
M  V30 35 C 4.8822 -0.530651 -1.65711 0
M  V30 36 O 6.0582 -0.800784 -1.84796 0
M  V30 37 C 3.1232 -1.67708 -3.03438 0
M  V30 38 C 2.1842 -2.91025 -3.156 0
M  V30 39 C 1.4172 -2.93778 -4.45567 0
M  V30 40 O 1.6402 -2.05153 -5.3223 0
M  V30 41 O 0.5742 -3.85868 -4.61941 0
M  V30 42 H 4.4002 -2.6066 -1.55853 0
M  V30 43 H 1.9852 -1.31475 -0.709549 0
M  V30 44 H 3.8672 -1.7218 -3.84619 0
M  V30 45 H 2.5422 -0.750278 -3.14885 0
M  V30 46 H 1.4492 -2.92089 -2.33741 0
M  V30 47 H 2.7822 -3.83065 -3.09066 0
M  V30 48 N 4.4343 0.785586 -1.36625 0
M  V30 49 C 5.6833 1.53883 -1.30396 0
M  V30 50 C 5.9963 1.95271 0.113452 0
M  V30 51 O 7.2023 2.69858 0.298142 0
M  V30 52 C 5.6583 2.77808 -2.28802 0
M  V30 53 C 5.2663 2.43574 -3.75999 0
M  V30 54 C 7.0103 3.55783 -2.31558 0
M  V30 55 C 4.9173 3.63919 -4.66173 0
M  V30 56 H 3.8473 0.577678 -0.484566 0
M  V30 57 H 6.4983 0.861705 -1.62009 0
M  V30 58 H 4.8803 3.47339 -1.90188 0
M  V30 59 H 6.0543 1.81916 -4.23371 0
M  V30 60 H 4.3693 1.78803 -3.76056 0
M  V30 61 H 6.9663 4.45205 -2.96137 0
M  V30 62 H 7.3093 3.94644 -1.3252 0
M  V30 63 H 7.8423 2.93235 -2.68809 0
M  V30 64 H 4.5813 3.3015 -5.66287 0
M  V30 65 H 4.1013 4.2473 -4.23515 0
M  V30 66 H 5.7803 4.30901 -4.82632 0
M  V30 67 N 5.9124 1.20967 1.01018 0
M  V30 68 C 7.1894 0.93264 1.71934 0
M  V30 69 C 7.5694 -0.55692 2.03621 0
M  V30 70 O 6.9174 -1.52035 1.7058 0
M  V30 71 C 7.1274 1.81233 2.98254 0
M  V30 72 C 8.4754 2.05804 3.71389 0
M  V30 73 O 9.4994 1.78539 3.08225 0
M  V30 74 O 8.3584 2.51888 4.84989 0
M  V30 75 H 5.4524 0.349272 0.749625 0
M  V30 76 H 7.9984 1.31871 1.06808 0
M  V30 77 H 6.7704 2.82067 2.71208 0
M  V30 78 H 6.3934 1.42674 3.7112 0
M  V30 79 N 7.3905 -1.2043 1.01659 0
M  V30 80 C 8.6375 -1.89797 0.705917 0
M  V30 81 C 8.9655 -1.78848 -0.764439 0
M  V30 82 O 8.2205 -1.16694 -1.57102 0
M  V30 83 C 8.5195 -3.40464 1.08714 0
M  V30 84 C 8.1855 -3.71614 2.5537 0
M  V30 85 C 6.8475 -3.79826 2.95441 0
M  V30 86 C 9.1995 -3.85915 3.50313 0
M  V30 87 C 6.5275 -3.99797 4.29394 0
M  V30 88 C 8.8795 -4.07396 4.83954 0
M  V30 89 C 7.5435 -4.13837 5.23732 0
M  V30 90 H 6.8135 -0.694518 0.258313 0
M  V30 91 H 9.4605 -1.42691 1.27717 0
M  V30 92 H 7.7655 -3.89385 0.434309 0
M  V30 93 H 9.4625 -3.92433 0.824461 0
M  V30 94 H 6.0525 -3.65822 2.23321 0
M  V30 95 H 10.2365 -3.78926 3.20513 0
M  V30 96 H 5.4925 -4.03018 4.59768 0
M  V30 97 H 9.6665 -4.17404 5.57447 0
M  V30 98 H 7.2935 -4.29064 6.27541 0
M  V30 99 N 8.8686 -0.792821 -1.36206 0
M  V30 100 C 10.1456 -0.290627 -1.93429 0
M  V30 101 C 10.5256 1.21773 -1.72437 0
M  V30 102 O 9.8736 2.0108 -1.08531 0
M  V30 103 C 10.0836 -0.686973 -3.42172 0
M  V30 104 C 11.4316 -0.668643 -4.19302 0
M  V30 105 O 12.4556 -0.627658 -3.50626 0
M  V30 106 O 11.3146 -0.714597 -5.41808 0
M  V30 107 H 8.4086 -0.0727927 -0.82379 0
M  V30 108 H 10.9546 -0.875593 -1.45367 0
M  V30 109 H 9.7266 -1.72711 -3.51122 0
M  V30 110 H 9.3496 -0.0760733 -3.97527 0
M  V30 111 N 10.3467 1.47872 -0.545128 0
M  V30 112 C 11.5957 2.01695 -0.0145033 0
M  V30 113 C 11.9087 1.42609 1.33873 0
M  V30 114 O 13.1147 1.88021 1.95858 0
M  V30 115 C 11.5707 3.59892 0.0245068 0
M  V30 116 C 11.1787 4.27966 -1.32475 0
M  V30 117 C 12.9227 4.21507 0.50316 0
M  V30 118 C 10.8297 5.78136 -1.2455 0
M  V30 119 H 9.7597 0.753998 -0.00165172 0
M  V30 120 H 12.4107 1.69985 -0.691175 0
M  V30 121 H 10.7927 3.88509 0.766575 0
M  V30 122 H 11.9667 4.11003 -2.08357 0
M  V30 123 H 10.2817 3.78286 -1.74036 0
M  V30 124 H 12.8787 5.31538 0.580656 0
M  V30 125 H 13.2217 3.87855 1.51243 0
M  V30 126 H 13.7547 3.97376 -0.183681 0
M  V30 127 H 10.4937 6.16388 -2.23039 0
M  V30 128 H 10.0137 5.97469 -0.528282 0
M  V30 129 H 11.6927 6.40099 -0.942488 0
M  V30 130 N 11.8248 0.280983 1.55075 0
M  V30 131 C 12.7878 -0.590896 2.21452 0
M  V30 132 C 13.7878 -1.07682 1.19421 0
M  V30 133 O 14.9778 -0.97605 1.44288 0
M  V30 134 C 12.1098 -1.81587 2.88511 0
M  V30 135 H 13.3028 -0.0112554 2.99898 0
M  V30 136 H 10.8558 0.0316438 1.56268 0
M  V30 137 H 11.5908 -2.43587 2.14093 0
M  V30 138 H 11.3758 -1.4753 3.63287 0
M  V30 139 H 12.8658 -2.43575 3.39206 0
M  V30 140 N 13.3029 -1.57598 0.00835791 0
M  V30 141 C 14.5519 -1.90107 -0.673968 0
M  V30 142 C 14.8649 -0.884275 -1.7447 0
M  V30 143 O 16.0709 -1.09987 -2.48224 0
M  V30 144 C 14.5269 -3.37497 -1.24995 0
M  V30 145 C 14.1349 -4.47491 -0.2136 0
M  V30 146 C 15.8789 -3.79104 -1.90999 0
M  V30 147 C 13.7859 -5.85963 -0.80005 0
M  V30 148 H 12.7159 -0.709393 -0.255495 0
M  V30 149 H 15.3669 -1.83365 0.0702693 0
M  V30 150 H 13.7489 -3.39102 -2.04513 0
M  V30 151 H 14.9229 -4.57414 0.557596 0
M  V30 152 H 13.2379 -4.14956 0.346474 0
M  V30 153 H 15.8349 -4.79901 -2.35795 0
M  V30 154 H 16.1779 -3.1306 -2.74407 0
M  V30 155 H 16.7109 -3.79833 -1.18203 0
M  V30 156 H 13.4499 -6.555 -0.00456708 0
M  V30 157 H 12.9699 -5.79687 -1.54021 0
M  V30 158 H 14.6489 -6.33884 -1.29615 0
M  V30 159 N 14.781 0.264519 -1.55364 0
M  V30 160 C 16.03 0.992812 -1.75574 0
M  V30 161 C 16.343 1.87142 -0.568979 0
M  V30 162 O 17.549 2.63513 -0.653682 0
M  V30 163 C 16.005 1.81519 -3.10771 0
M  V30 164 C 15.613 0.984839 -4.37041 0
M  V30 165 C 17.357 2.53727 -3.40327 0
M  V30 166 C 15.264 1.80209 -5.63275 0
M  V30 167 H 14.194 0.374412 -0.65447 0
M  V30 168 H 16.845 0.248138 -1.81815 0
M  V30 169 H 15.227 2.60115 -2.98591 0
M  V30 170 H 16.401 0.242455 -4.60162 0
M  V30 171 H 14.716 0.37691 -4.14691 0
M  V30 172 H 17.313 3.15292 -4.3185 0
M  V30 173 H 17.656 3.24447 -2.60845 0
M  V30 174 H 18.189 1.82156 -3.53644 0
M  V30 175 H 14.928 1.13896 -6.45529 0
M  V30 176 H 14.448 2.52022 -5.44284 0
M  V30 177 H 16.127 2.37364 -6.01887 0
M  V30 178 N 16.2591 1.48442 0.529413 0
M  V30 179 C 17.5071 1.56179 1.28267 0
M  V30 180 C 17.8281 0.237721 1.93546 0
M  V30 181 O 17.0981 -0.740779 1.81354 0
M  V30 182 H 15.6781 0.575367 0.476405 0
M  V30 183 H 18.3401 1.84909 0.61602 0
M  V30 184 H 17.4361 2.34312 2.06165 0
M  V30 185 N 17.7372 -0.778329 1.37039 0
M  V30 186 C 18.7002 -1.87301 1.32102 0
M  V30 187 C 19.7002 -1.59198 0.226405 0
M  V30 188 O 20.8902 -1.67403 0.481861 0
M  V30 189 C 18.0222 -3.24309 1.05055 0
M  V30 190 H 19.2152 -1.93093 2.29467 0
M  V30 191 H 16.7682 -0.977358 1.21973 0
M  V30 192 H 17.5032 -3.24196 0.0819373 0
M  V30 193 H 17.2882 -3.46098 1.84279 0
M  V30 194 H 18.7782 -4.04382 1.04234 0
M  V30 195 N 19.2153 -1.21501 -1.00376 0
M  V30 196 C 20.4633 -1.03095 -1.73827 0
M  V30 197 C 20.7843 0.436341 -1.90055 0
M  V30 198 O 20.0543 1.31466 -1.45236 0
M  V30 199 H 18.6343 -0.378487 -0.644016 0
M  V30 200 H 21.2963 -1.52831 -1.20949 0
M  V30 201 H 20.3923 -1.49991 -2.73695 0
M  V30 202 N 20.6934 1.19889 -1.02296 0
M  V30 203 C 22.1044 1.71124 -0.746568 0
M  V30 204 C 22.4554 1.81939 0.734335 0
M  V30 205 O 21.5804 1.48639 1.57275 0
M  V30 206 C 22.1754 3.10804 -1.34857 0
M  V30 207 C 20.7344 3.59323 -1.1209 0
M  V30 208 C 19.8814 2.3635 -1.45031 0
M  V30 209 H 22.8324 1.04813 -1.19163 0
M  V30 210 H 22.8534 3.73186 -0.742437 0
M  V30 211 H 22.3654 3.029 -2.42638 0
M  V30 212 H 20.4664 3.7255 -0.0610337 0
M  V30 213 H 20.5794 4.4378 -1.80544 0
M  V30 214 H 18.9434 2.39399 -0.869487 0
M  V30 215 H 19.7264 2.31081 -2.53883 0
M  V30 216 N 22.1715 0.800033 1.35784 0
M  V30 217 C 23.1345 0.211565 2.28221 0
M  V30 218 C 24.1345 -0.59728 1.49296 0
M  V30 219 O 25.3245 -0.416721 1.69142 0
M  V30 220 C 22.4565 -0.705846 3.33513 0
M  V30 221 H 23.6495 1.02677 2.81776 0
M  V30 222 H 21.2025 0.570211 1.45528 0
M  V30 223 H 21.9375 -1.54498 2.85133 0
M  V30 224 H 21.7225 -0.127655 3.91892 0
M  V30 225 H 23.2125 -1.11211 4.02519 0
M  V30 226 N 23.6496 -1.47581 0.552962 0
M  V30 227 C 24.8976 -2.02082 0.0272703 0
M  V30 228 C 25.2186 -1.4301 -1.32563 0
M  V30 229 O 24.4886 -0.603745 -1.86365 0
M  V30 230 H 23.0686 -0.746966 0.00709182 0
M  V30 231 H 25.7306 -1.81033 0.722008 0
M  V30 232 H 24.8266 -3.12034 -0.0639951 0
M  V30 233 N 25.1277 -0.289203 -1.54924 0
M  V30 234 C 26.0607 0.633823 -2.19221 0
M  V30 235 C 27.0387 1.14174 -1.15772 0
M  V30 236 O 28.2227 1.21211 -1.44361 0
M  V30 237 C 25.3497 1.86592 -2.82668 0
M  V30 238 C 24.3957 1.49227 -3.99542 0
M  V30 239 S 25.2287 0.558312 -5.32582 0
M  V30 240 C 26.3847 1.79847 -5.99505 0
M  V30 241 H 26.6177 0.0875416 -2.97171 0
M  V30 242 H 24.1507 -0.0733899 -1.54225 0
M  V30 243 H 26.1087 2.57305 -3.19851 0
M  V30 244 H 24.7697 2.38335 -2.04585 0
M  V30 245 H 23.9627 2.40945 -4.42676 0
M  V30 246 H 23.5647 0.865193 -3.63855 0
M  V30 247 H 25.8567 2.7406 -6.19595 0
M  V30 248 H 26.7997 1.4099 -6.93922 0
M  V30 249 H 27.2077 1.96982 -5.29016 0
M  V30 250 N 26.6058 1.57591 -0.0167156 0
M  V30 251 C 27.8338 1.95575 0.675128 0
M  V30 252 C 28.2488 0.892542 1.6637 0
M  V30 253 O 27.6058 -0.126912 1.82058 0
M  V30 254 C 27.6568 3.33608 1.39239 0
M  V30 255 O 27.3778 4.3585 0.443444 0
M  V30 256 C 28.8788 3.86151 2.17721 0
M  V30 257 H 26.0988 0.644423 0.186978 0
M  V30 258 H 28.6428 2.0437 -0.0728 0
M  V30 259 H 26.7978 3.2607 2.09182 0
M  V30 260 H 27.2118 5.158 0.951358 0
M  V30 261 H 28.6858 4.85114 2.63379 0
M  V30 262 H 29.1628 3.19738 3.01105 0
M  V30 263 H 29.7688 3.96918 1.52761 0
M  V30 264 N 28.0839 -0.256276 1.55502 0
M  V30 265 C 29.0469 -1.30047 1.88734 0
M  V30 266 C 30.0469 -1.4154 0.763086 0
M  V30 267 O 31.2369 -1.40403 1.03115 0
M  V30 268 C 28.3689 -2.67953 2.10747 0
M  V30 269 H 29.5619 -1.01802 2.82093 0
M  V30 270 H 27.1149 -0.495134 1.4825 0
M  V30 271 H 27.8499 -3.01351 1.19825 0
M  V30 272 H 27.6349 -2.60993 2.92617 0
M  V30 273 H 29.1249 -3.43368 2.37673 0
M  V30 274 N 29.562 -1.4872 -0.521534 0
M  V30 275 C 30.525 -1.63379 -1.60748 0
M  V30 276 C 31.525 -0.50661 -1.52611 0
M  V30 277 O 32.715 -0.772601 -1.5613 0
M  V30 278 C 29.847 -1.61192 -3.00383 0
M  V30 279 H 31.04 -2.60217 -1.49087 0
M  V30 280 H 28.593 -1.37444 -0.744235 0
M  V30 281 H 29.328 -0.65863 -3.17541 0
M  V30 282 H 29.113 -2.43032 -3.07698 0
M  V30 283 H 30.603 -1.7466 -3.7932 0
M  V30 284 N 31.0401 0.771051 -1.3745 0
M  V30 285 C 32.2861 1.5319 -1.32894 0
M  V30 286 C 32.6191 1.94008 0.0862511 0
M  V30 287 O 31.8941 1.64124 1.04373 0
M  V30 288 C 32.1771 2.79648 -2.26868 0
M  V30 289 C 32.0301 2.45079 -3.77169 0
M  V30 290 C 33.3491 3.81583 -2.19277 0
M  V30 291 H 30.4681 0.555744 -0.484064 0
M  V30 292 H 33.1101 0.884492 -1.68157 0
M  V30 293 H 31.2601 3.34891 -1.96926 0
M  V30 294 H 32.9321 1.95745 -4.1771 0
M  V30 295 H 31.1751 1.77767 -3.95704 0
M  V30 296 H 31.8461 3.35478 -4.38359 0
M  V30 297 H 34.3221 3.35835 -2.45671 0
M  V30 298 H 33.1981 4.67787 -2.87171 0
M  V30 299 H 33.4591 4.25897 -1.18592 0
M  V30 300 N 32.5182 1.22032 0.997298 0
M  V30 301 C 33.7482 1.06686 1.76923 0
M  V30 302 C 34.1562 -0.385838 1.85224 0
M  V30 303 O 33.4992 -1.27929 1.31833 0
M  V30 304 C 33.5612 1.59802 3.22031 0
M  V30 305 C 33.2252 3.08362 3.37286 0
M  V30 306 C 34.2222 4.05835 3.24952 0
M  V30 307 C 31.9072 3.47727 3.6248 0
M  V30 308 C 33.9012 5.4066 3.37588 0
M  V30 309 C 31.5882 4.82701 3.74757 0
M  V30 310 C 32.5862 5.78977 3.62319 0
M  V30 311 O 32.2742 7.11502 3.74193 0
M  V30 312 H 32.0062 0.374767 0.562606 0
M  V30 313 H 34.5602 1.61991 1.26286 0
M  V30 314 H 32.7902 0.989003 3.73839 0
M  V30 315 H 34.4792 1.40184 3.80924 0
M  V30 316 H 35.2452 3.76766 3.05405 0
M  V30 317 H 31.1242 2.73317 3.7124 0
M  V30 318 H 34.6682 6.15788 3.27796 0
M  V30 319 H 30.5652 5.11453 3.9381 0
M  V30 320 H 31.3332 7.19019 3.91093 0
M  V30 321 N 33.9963 -1.19345 1.0293 0
M  V30 322 C 34.9593 -2.20793 0.615069 0
M  V30 323 C 35.9593 -1.57553 -0.321533 0
M  V30 324 O 37.1493 -1.73862 -0.108483 0
M  V30 325 C 34.2813 -3.40754 -0.0999222 0
M  V30 326 H 35.4743 -2.58955 1.51269 0
M  V30 327 H 33.0273 -1.3303 0.820534 0
M  V30 328 H 33.7623 -3.0811 -1.01187 0
M  V30 329 H 33.5473 -3.87889 0.57309 0
M  V30 330 H 35.0373 -4.15898 -0.376645 0
M  V30 331 N 35.4744 -0.807222 -1.35358 0
M  V30 332 C 36.6994 -0.399309 -2.0352 0
M  V30 333 C 37.1244 0.981986 -1.60433 0
M  V30 334 O 36.4824 1.63601 -0.781299 0
M  V30 335 C 36.5304 -0.491552 -3.57234 0
M  V30 336 O 35.6344 0.494754 -4.09421 0
M  V30 337 H 34.9754 -0.166682 -0.642739 0
M  V30 338 H 37.5054 -1.09328 -1.72941 0
M  V30 339 H 37.5154 -0.361588 -4.06395 0
M  V30 340 H 36.1904 -1.49907 -3.87944 0
M  V30 341 H 34.7674 0.324977 -3.71481 0
M  V30 342 N 36.9525 1.47285 -0.560781 0
M  V30 343 C 38.3685 1.58065 -0.22081 0
M  V30 344 C 38.5685 1.55892 1.27671 0
M  V30 345 O 37.6245 1.46422 2.0571 0
M  V30 346 C 38.9375 2.88418 -0.850625 0
M  V30 347 C 40.4855 3.02009 -0.822184 0
M  V30 348 C 40.9605 4.35066 -1.43113 0
M  V30 349 N 42.4515 4.41711 -1.39448 0
M  V30 350 C 43.1865 5.43237 -1.83525 0
M  V30 351 N 42.6825 6.51555 -2.35474 0
M  V30 352 N 44.4755 5.34304 -1.74574 0
M  V30 353 H 36.6265 1.46941 -1.53369 0
M  V30 354 H 38.8895 0.699558 -0.639783 0
M  V30 355 H 38.5955 2.95755 -1.9032 0
M  V30 356 H 38.4695 3.75612 -0.345773 0
M  V30 357 H 40.8565 2.94266 0.221714 0
M  V30 358 H 40.9375 2.16347 -1.36483 0
M  V30 359 H 40.5815 4.43565 -2.47412 0
M  V30 360 H 40.5115 5.19465 -0.863899 0
M  V30 361 H 43.0025 3.64027 -1.01452 0
M  V30 362 H 43.3155 7.25203 -2.67021 0
M  V30 363 H 41.6605 6.52435 -2.39487 0
M  V30 364 H 44.8515 4.48581 -1.33763 0
M  V30 365 H 45.0245 6.13288 -2.09242 0
M  V30 366 N 38.4306 0.297415 1.54768 0
M  V30 367 C 39.3936 -0.567375 2.22066 0
M  V30 368 C 40.3936 -1.06409 1.20556 0
M  V30 369 O 41.5836 -0.960691 1.45315 0
M  V30 370 C 38.7156 -1.78517 2.90421 0
M  V30 371 H 39.9086 0.0205534 2.99893 0
M  V30 372 H 37.4616 0.0482163 1.56226 0
M  V30 373 H 38.1966 -2.41303 2.16664 0
M  V30 374 H 37.9816 -1.43669 3.64831 0
M  V30 375 H 39.4716 -2.39964 3.41771 0
M  V30 376 N 39.9087 -1.5758 0.0250728 0
M  V30 377 C 40.8567 -2.11125 -0.97617 0
M  V30 378 C 41.8507 -1.03689 -1.33959 0
M  V30 379 O 43.0567 -1.22128 -1.3223 0
M  V30 380 H 39.4317 -0.674468 -0.332561 0
M  V30 381 H 41.4027 -2.94194 -0.499223 0
M  V30 382 C 40.1517 -2.65017 -2.2508 0
M  V30 383 H 39.4747 -3.47333 -1.9799 0
M  V30 384 H 40.9147 -3.06133 -2.93357 0
M  V30 385 C 39.3737 -1.57574 -2.97779 0
M  V30 386 O 39.9037 -0.973203 -3.89733 0
M  V30 387 N 38.1097 -1.29716 -2.60043 0
M  V30 388 H 37.6567 -1.789 -1.85345 0
M  V30 389 H 37.6147 -0.58051 -3.08994 0
M  V30 390 N 41.3868 0.248026 -1.55636 0
M  V30 391 C 42.3168 1.31079 -1.93237 0
M  V30 392 C 43.2978 1.50264 -0.797174 0
M  V30 393 O 44.4828 1.62891 -1.05737 0
M  V30 394 C 41.6128 2.66575 -2.22609 0
M  V30 395 C 40.5668 2.62087 -3.3837 0
M  V30 396 C 39.8928 4.01369 -3.53281 0
M  V30 397 C 41.1928 2.19171 -4.7409 0
M  V30 398 H 42.8868 0.998556 -2.82257 0
M  V30 399 H 40.4328 0.47891 -1.35803 0
M  V30 400 H 42.3858 3.41057 -2.47503 0
M  V30 401 H 41.1098 2.99432 -1.30414 0
M  V30 402 H 39.7688 1.90063 -3.13483 0
M  V30 403 H 39.4168 4.31489 -2.58508 0
M  V30 404 H 39.1168 3.99254 -4.31127 0
M  V30 405 H 40.6408 4.77552 -3.80495 0
M  V30 406 H 42.0548 2.83384 -4.98363 0
M  V30 407 H 40.4518 2.2817 -5.5503 0
M  V30 408 H 41.5218 1.14336 -4.71227 0
M  V30 409 N 42.8649 1.48995 0.513639 0
M  V30 410 C 43.8119 1.6473 1.61656 0
M  V30 411 C 44.7819 0.488984 1.58739 0
M  V30 412 O 45.9669 0.714478 1.76918 0
M  V30 413 C 43.1069 1.7082 2.99858 0
M  V30 414 C 42.2199 2.9787 3.12885 0
M  V30 415 C 41.3549 2.95017 4.41744 0
M  V30 416 C 40.3939 4.16702 4.48359 0
M  V30 417 N 39.5309 4.11832 5.68629 0
M  V30 418 H 44.3709 2.58909 1.47547 0
M  V30 419 H 41.9079 1.28382 0.71808 0
M  V30 420 H 43.8659 1.72331 3.79944 0
M  V30 421 H 42.4959 0.801181 3.12699 0
M  V30 422 H 41.5479 3.06029 2.25944 0
M  V30 423 H 42.8599 3.8786 3.13633 0
M  V30 424 H 42.0139 2.95021 5.30139 0
M  V30 425 H 40.7529 2.02784 4.43542 0
M  V30 426 H 39.7579 4.16955 3.58369 0
M  V30 427 H 40.9829 5.10113 4.48287 0
M  V30 428 H 38.9289 3.22428 5.71293 0
M  V30 429 H 38.8459 4.95543 5.7094 0
M  V30 430 H 40.1139 4.1592 6.59266 0
M  V30 431 N 44.343 -0.763751 1.37857 0
M  V30 432 C 45.571 -1.55293 1.36718 0
M  V30 433 C 45.986 -1.88745 -0.0455434 0
M  V30 434 O 45.343 -1.52039 -1.00947 0
M  V30 435 C 45.394 -2.85831 2.2132 0
M  V30 436 O 45.115 -2.5381 3.57089 0
M  V30 437 C 46.616 -3.80023 2.28249 0
M  V30 438 H 43.836 -0.480841 0.468009 0
M  V30 439 H 46.38 -0.946009 1.81303 0
M  V30 440 H 44.535 -3.42926 1.80223 0
M  V30 441 H 44.949 -3.37459 4.01524 0
M  V30 442 H 46.423 -4.68599 2.91752 0
M  V30 443 H 46.9 -4.1973 1.2932 0
M  V30 444 H 47.506 -3.28855 2.69693 0
M  V30 445 N 45.8211 -1.22559 -0.990812 0
M  V30 446 C 47.0671 -1.05297 -1.73322 0
M  V30 447 C 47.4001 0.410655 -1.89808 0
M  V30 448 O 46.6751 1.30439 -1.44277 0
M  V30 449 C 46.9581 -1.76713 -3.13759 0
M  V30 450 C 46.8111 -3.30684 -3.04907 0
M  V30 451 C 48.1301 -1.52121 -4.12974 0
M  V30 452 H 45.2491 -0.38392 -0.629106 0
M  V30 453 H 47.8911 -1.50926 -1.15418 0
M  V30 454 H 46.0411 -1.37924 -3.63193 0
M  V30 455 H 47.7131 -3.7893 -2.63077 0
M  V30 456 H 45.9561 -3.60253 -2.41661 0
M  V30 457 H 46.6271 -3.75833 -4.04294 0
M  V30 458 H 49.1031 -1.85819 -3.72304 0
M  V30 459 H 47.9791 -2.04582 -5.0935 0
M  V30 460 H 48.2401 -0.454257 -4.3976 0
M  V30 461 N 47.2992 1.18797 -1.03562 0
M  V30 462 C 48.2322 2.2105 -0.56676 0
M  V30 463 C 49.2102 1.57704 0.395993 0
M  V30 464 O 50.3942 1.85908 0.311498 0
M  V30 465 C 47.5212 3.38259 0.172704 0
M  V30 466 C 46.5672 4.19987 -0.74252 0
M  V30 467 S 47.4002 4.87199 -2.22254 0
M  V30 468 C 48.5562 6.07813 -1.49379 0
M  V30 469 H 48.7892 2.60478 -1.43312 0
M  V30 470 H 46.3222 1.29151 -0.846133 0
M  V30 471 H 48.2802 4.06191 0.593191 0
M  V30 472 H 46.9412 2.97252 1.01488 0
M  V30 473 H 46.1342 5.03709 -0.171265 0
M  V30 474 H 45.7362 3.57408 -1.10163 0
M  V30 475 H 48.0282 6.72948 -0.784056 0
M  V30 476 H 48.9712 6.69435 -2.30786 0
M  V30 477 H 49.3792 5.55781 -0.988331 0
M  V30 478 N 48.7773 0.814389 1.34928 0
M  V30 479 C 50.0263 0.394871 1.97797 0
M  V30 480 C 50.3393 -1.04555 1.65311 0
M  V30 481 O 51.5453 -1.56856 2.21604 0
M  V30 482 C 50.0013 0.655103 3.53888 0
M  V30 483 C 49.6093 2.10858 3.95276 0
M  V30 484 C 51.3533 0.301329 4.23429 0
M  V30 485 C 49.2603 2.31415 5.44244 0
M  V30 486 H 48.1903 0.143913 0.740139 0
M  V30 487 H 50.8413 0.999544 1.53888 0
M  V30 488 H 49.2233 -0.0196253 3.95995 0
M  V30 489 H 50.3973 2.82176 3.64298 0
M  V30 490 H 48.7123 2.42297 3.38646 0
M  V30 491 H 51.3093 0.432869 5.32945 0
M  V30 492 H 51.6523 -0.75331 4.09428 0
M  V30 493 H 52.1853 0.930288 3.86769 0
M  V30 494 H 48.9243 3.35353 5.63222 0
M  V30 495 H 48.4443 1.6463 5.76764 0
M  V30 496 H 50.1233 2.13352 6.10811 0
M  V30 497 N 50.2554 -1.46986 0.568584 0
M  V30 498 C 51.1654 -2.33942 -0.17555 0
M  V30 499 C 52.1814 -1.48891 -0.90041 0
M  V30 500 O 53.3574 -1.81794 -0.86676 0
M  V30 501 C 50.4224 -3.25811 -1.18524 0
M  V30 502 C 49.4834 -4.26757 -0.466582 0
M  V30 503 C 48.7164 -5.14236 -1.42817 0
M  V30 504 O 48.9394 -5.04379 -2.66379 0
M  V30 505 O 47.8734 -5.94412 -0.946453 0
M  V30 506 H 51.6994 -2.98896 0.538036 0
M  V30 507 H 49.2844 -1.4573 0.329097 0
M  V30 508 H 51.1664 -3.82527 -1.76779 0
M  V30 509 H 49.8414 -2.63471 -1.88055 0
M  V30 510 H 48.7484 -3.73769 0.157451 0
M  V30 511 H 50.0814 -4.91843 0.187485 0
M  V30 512 N 51.7335 -0.305618 -1.54608 0
M  V30 513 C 53.1495 0.0476228 -1.59529 0
M  V30 514 C 53.3495 1.52025 -1.32252 0
M  V30 515 O 52.4055 2.27368 -1.09818 0
M  V30 516 C 53.7185 -0.354471 -2.98603 0
M  V30 517 C 55.2665 -0.303622 -3.11524 0
M  V30 518 C 55.7415 -0.680608 -4.52915 0
M  V30 519 N 57.2325 -0.63332 -4.5885 0
M  V30 520 C 57.9675 -0.897432 -5.66334 0
M  V30 521 N 57.4635 -1.22775 -6.81834 0
M  V30 522 N 59.2565 -0.824186 -5.56025 0
M  V30 523 H 51.4075 -1.2653 -1.70599 0
M  V30 524 H 53.6705 -0.513291 -0.797017 0
M  V30 525 H 53.3765 -1.3798 -3.23503 0
M  V30 526 H 53.2505 0.289568 -3.76087 0
M  V30 527 H 55.6375 0.712472 -2.8637 0
M  V30 528 H 55.7185 -0.982348 -2.36185 0
M  V30 529 H 55.3625 -1.69453 -4.78799 0
M  V30 530 H 55.2925 0.0202385 -5.26596 0
M  V30 531 H 57.7835 -0.389138 -3.75891 0
M  V30 532 H 58.0965 -1.41513 -7.59733 0
M  V30 533 H 56.4415 -1.26583 -6.83375 0
M  V30 534 H 59.6325 -0.565748 -4.64669 0
M  V30 535 H 59.8055 -1.03338 -6.39707 0
M  V30 536 N 53.2116 1.57565 -0.0334293 0
M  V30 537 C 54.4596 1.91598 0.642999 0
M  V30 538 C 54.7806 0.910847 1.7242 0
M  V30 539 O 54.0506 -0.0469931 1.95844 0
M  V30 540 H 52.6306 0.707228 0.240496 0
M  V30 541 H 55.2926 1.94726 -0.0822488 0
M  V30 542 H 54.3886 2.92336 1.09298 0
M  V30 543 N 54.6897 -0.239769 1.55765 0
M  V30 544 C 55.9387 -0.964754 1.77131 0
M  V30 545 C 56.2517 -1.86213 0.59868 0
M  V30 546 O 57.4577 -2.6244 0.695522 0
M  V30 547 C 55.9137 -1.76552 3.1362 0
M  V30 548 C 55.5217 -0.915185 4.38553 0
M  V30 549 C 57.2657 -2.48281 3.44321 0
M  V30 550 C 55.1727 -1.71225 5.66071 0
M  V30 551 H 54.1027 -0.363953 0.660344 0
M  V30 552 H 56.7537 -0.219181 1.82186 0
M  V30 553 H 55.1357 -2.55331 3.02691 0
M  V30 554 H 56.3097 -0.169217 4.60489 0
M  V30 555 H 54.6247 -0.310889 4.15238 0
M  V30 556 H 57.2217 -3.08382 4.36812 0
M  V30 557 H 57.5647 -3.20256 2.65973 0
M  V30 558 H 58.0977 -1.76507 3.56497 0
M  V30 559 H 54.8367 -1.03612 6.4726 0
M  V30 560 H 54.3567 -2.43331 5.48224 0
M  V30 561 H 56.0357 -2.27758 6.05587 0
M  V30 562 N 56.1678 -1.49265 -0.50573 0
M  V30 563 C 57.5788 -1.51769 -1.08734 0
M  V30 564 C 57.9298 -0.301192 -1.93874 0
M  V30 565 O 57.0548 0.589456 -2.08217 0
M  V30 566 C 57.6498 -2.75017 -1.97867 0
M  V30 567 C 56.2088 -2.80314 -2.51199 0
M  V30 568 C 55.3558 -2.4562 -1.28709 0
M  V30 569 H 58.3068 -1.56031 -0.289855 0
M  V30 570 H 58.3278 -2.5491 -2.82491 0
M  V30 571 H 57.8398 -3.63539 -1.35873 0
M  V30 572 H 55.9408 -1.96061 -3.16845 0
M  V30 573 H 56.0538 -3.82366 -2.88675 0
M  V30 574 H 54.4178 -1.97297 -1.61078 0
M  V30 575 H 55.2008 -3.36411 -0.6843 0
M  V30 576 N 57.6459 0.756429 -1.3826 0
M  V30 577 C 58.8939 1.51248 -1.34047 0
M  V30 578 C 59.2149 1.94875 0.0698372 0
M  V30 579 O 58.4849 1.67436 1.01696 0
M  V30 580 H 57.0649 0.561018 -0.493222 0
M  V30 581 H 59.7269 0.899347 -1.7291 0
M  V30 582 H 58.8229 2.40472 -1.98947 0
M  V30 583 N 59.124 1.23083 0.984299 0
M  V30 584 C 60.372 1.05848 1.72165 0
M  V30 585 C 60.693 -0.406049 1.90726 0
M  V30 586 O 59.963 -1.29139 1.47309 0
M  V30 587 H 58.543 0.388685 0.637913 0
M  V30 588 H 61.205 1.54736 1.18503 0
M  V30 589 H 60.301 1.54327 2.71274 0
M  V30 590 N 60.6021 -1.18246 1.0419 0
M  V30 591 C 61.5341 -2.2142 0.592088 0
M  V30 592 C 62.5471 -1.59233 -0.338909 0
M  V30 593 O 63.7361 -1.78002 -0.133231 0
M  V30 594 C 60.8361 -3.38546 -0.154854 0
M  V30 595 C 60.0091 -4.3031 0.784328 0
M  V30 596 C 59.0681 -5.26138 0.0804583 0
M  V30 597 O 58.0941 -5.64738 0.711292 0
M  V30 598 N 59.2961 -5.68261 -1.18574 0
M  V30 599 H 62.0611 -2.60636 1.47949 0
M  V30 600 H 59.6221 -1.33044 0.922544 0
M  V30 601 H 61.6141 -3.99678 -0.635606 0
M  V30 602 H 60.1841 -2.98012 -0.943811 0
M  V30 603 H 59.4041 -3.66764 1.44491 0
M  V30 604 H 60.6921 -4.8852 1.42218 0
M  V30 605 H 60.0901 -5.38957 -1.71876 0
M  V30 606 H 58.6471 -6.31584 -1.61074 0
M  V30 607 N 62.0802 -0.821533 -1.34494 0
M  V30 608 C 63.0132 -0.187704 -2.27427 0
M  V30 609 C 63.9912 0.65507 -1.48821 0
M  V30 610 O 65.1752 0.619111 -1.78043 0
M  V30 611 C 62.3022 0.737996 -3.30562 0
M  V30 612 C 61.3482 -0.0270713 -4.26491 0
M  V30 613 S 62.1812 -1.37329 -5.17592 0
M  V30 614 C 63.3372 -0.452427 -6.24263 0
M  V30 615 H 63.5702 -0.975598 -2.80837 0
M  V30 616 H 61.1032 -0.61736 -1.4152 0
M  V30 617 H 63.0612 1.26654 -3.90473 0
M  V30 618 H 61.7222 1.4994 -2.76001 0
M  V30 619 H 60.9152 0.6766 -4.99438 0
M  V30 620 H 60.5172 -0.48612 -3.70827 0
M  V30 621 H 62.8092 0.356557 -6.76561 0
M  V30 622 H 63.7522 -1.15153 -6.98674 0
M  V30 623 H 64.1602 -0.0414755 -5.64485 0
M  V30 624 N 63.5583 1.46682 -0.576371 0
M  V30 625 C 64.5213 2.28707 0.150239 0
M  V30 626 C 65.5213 1.38035 0.824794 0
M  V30 627 O 66.7113 1.60476 0.677719 0
M  V30 628 C 63.8433 3.18248 1.22192 0
M  V30 629 H 65.0363 2.94423 -0.570521 0
M  V30 630 H 62.5893 1.52688 -0.334078 0
M  V30 631 H 63.3243 2.57265 1.97447 0
M  V30 632 H 63.1093 3.85 0.742812 0
M  V30 633 H 64.5993 3.80001 1.73172 0
M  V30 634 N 65.0364 0.313813 1.54444 0
M  V30 635 C 65.9844 -0.572171 2.25453 0
M  V30 636 C 66.9784 -1.12657 1.2651 0
M  V30 637 O 68.1844 -1.07573 1.44319 0
M  V30 638 H 64.5594 -0.203146 0.724041 0
M  V30 639 H 66.5304 0.0491145 2.9836 0
M  V30 640 C 65.2794 -1.72626 3.0182 0
M  V30 641 H 64.6024 -1.30891 3.77767 0
M  V30 642 H 66.0424 -2.32199 3.54767 0
M  V30 643 C 64.5014 -2.63806 2.09542 0
M  V30 644 O 65.0314 -3.65256 1.67185 0
M  V30 645 N 63.2374 -2.31824 1.75232 0
M  V30 646 H 62.7844 -1.49368 2.09873 0
M  V30 647 H 62.7424 -2.93095 1.13767 0
M  V30 648 N 66.5145 -1.57545 0.0417849 0
M  V30 649 C 67.7425 -1.96624 -0.643928 0
M  V30 650 C 68.1575 -0.918897 -1.64929 0
M  V30 651 O 67.5145 0.0979323 -1.82237 0
M  V30 652 C 67.5655 -3.35781 -1.33914 0
M  V30 653 O 67.2865 -4.365 -0.374048 0
M  V30 654 C 68.7875 -3.89566 -2.1155 0
M  V30 655 H 66.0075 -0.647316 -0.176702 0
M  V30 656 H 68.5515 -2.04229 0.105304 0
M  V30 657 H 66.7065 -3.29357 -2.03968 0
M  V30 658 H 67.1205 -5.17248 -0.869179 0
M  V30 659 H 68.5945 -4.89242 -2.55628 0
M  V30 660 H 69.0715 -3.24488 -2.9598 0
M  V30 661 H 69.6775 -3.99298 -1.46427 0
M  V30 662 N 67.9926 0.231505 -1.5589 0
M  V30 663 C 68.9026 1.308 -1.94752 0
M  V30 664 C 69.9186 1.51826 -0.849989 0
M  V30 665 O 71.0946 1.6515 -1.15271 0
M  V30 666 C 68.1596 2.63968 -2.24771 0
M  V30 667 C 67.2206 2.51331 -3.48039 0
M  V30 668 C 66.4536 3.78148 -3.76616 0
M  V30 669 O 66.6766 4.80722 -3.07022 0
M  V30 670 O 65.6106 3.75857 -4.70123 0
M  V30 671 H 69.4366 1.0083 -2.86474 0
M  V30 672 H 67.0216 0.433547 -1.42971 0
M  V30 673 H 68.9036 3.42633 -2.45318 0
M  V30 674 H 67.5786 2.9364 -1.36225 0
M  V30 675 H 66.4856 1.709 -3.32782 0
M  V30 676 H 67.8186 2.26601 -4.36936 0
M  V30 677 N 69.4707 1.49531 0.497807 0
M  V30 678 C 70.3807 1.69176 1.62532 0
M  V30 679 C 71.3967 0.5744 1.64246 0
M  V30 680 O 72.5727 0.849497 1.82608 0
M  V30 681 C 69.6377 1.75695 2.98885 0
M  V30 682 C 68.6987 2.9929 3.07773 0
M  V30 683 C 67.9317 3.05488 4.37622 0
M  V30 684 O 68.1547 2.19192 5.26603 0
M  V30 685 O 67.0887 3.9798 4.51548 0
M  V30 686 H 70.9147 2.647 1.48887 0
M  V30 687 H 68.4997 1.3331 0.674441 0
M  V30 688 H 70.3817 1.82317 3.79919 0
M  V30 689 H 69.0567 0.8335 3.12785 0
M  V30 690 H 67.9637 2.98183 2.25915 0
M  V30 691 H 69.2967 3.91125 2.98801 0
M  V30 692 N 70.9488 -0.749086 1.3866 0
M  V30 693 C 72.1948 -1.51056 1.35314 0
M  V30 694 C 72.5278 -1.94121 -0.0553751 0
M  V30 695 O 71.8028 -1.65763 -1.01749 0
M  V30 696 C 72.0858 -2.76003 2.31288 0
M  V30 697 C 71.9388 -2.39047 3.8102 0
M  V30 698 C 73.2578 -3.78046 2.2532 0
M  V30 699 H 70.3768 -0.547972 0.492844 0
M  V30 700 H 73.0188 -0.857628 1.69543 0
M  V30 701 H 71.1688 -3.31716 2.02229 0
M  V30 702 H 72.8408 -1.89074 4.20771 0
M  V30 703 H 71.0838 -1.71449 3.98482 0
M  V30 704 H 71.7548 -3.28462 4.4364 0
M  V30 705 H 74.2308 -3.31884 2.50983 0
M  V30 706 H 73.1068 -4.63159 2.94576 0
M  V30 707 H 73.3678 -4.23957 1.25352 0
M  V30 708 N 72.4269 -1.23603 -0.977757 0
M  V30 709 C 73.3369 -1.03632 -2.1047 0
M  V30 710 C 74.3529 0.0199435 -1.73989 0
M  V30 711 O 75.5289 -0.176076 -2.00629 0
M  V30 712 C 72.5939 -0.63276 -3.40877 0
M  V30 713 C 71.6549 -1.76437 -3.91367 0
M  V30 714 C 70.8879 -1.37997 -5.15551 0
M  V30 715 O 71.1109 -0.265357 -5.69782 0
M  V30 716 O 70.0449 -2.20201 -5.60174 0
M  V30 717 H 73.8709 -1.98086 -2.30208 0
M  V30 718 H 71.4559 -1.02332 -1.08851 0
M  V30 719 H 73.3379 -0.418761 -4.19314 0
M  V30 720 H 72.0129 0.282754 -3.22463 0
M  V30 721 H 70.9199 -2.03304 -3.14036 0
M  V30 722 H 72.2529 -2.6583 -4.14241 0
M  V30 723 N 73.905 1.17692 -1.04816 0
M  V30 724 C 74.853 2.23632 -0.63966 0
M  V30 725 C 75.847 1.6601 0.337219 0
M  V30 726 O 77.053 1.78844 0.203693 0
M  V30 727 H 73.428 0.727949 -0.188665 0
M  V30 728 H 75.399 2.55387 -1.54337 0
M  V30 729 C 74.148 3.4769 -0.0264051 0
M  V30 730 H 73.471 3.92331 -0.769164 0
M  V30 731 H 74.911 4.23418 0.222098 0
M  V30 732 C 73.37 3.13807 1.22584 0
M  V30 733 O 73.9 3.28236 2.31569 0
M  V30 734 N 72.106 2.68065 1.12202 0
M  V30 735 H 71.653 2.56525 0.235133 0
M  V30 736 H 71.611 2.45767 1.96076 0
M  V30 737 N 75.3831 0.828654 1.34056 0
M  V30 738 C 76.6301 0.419458 1.98108 0
M  V30 739 C 76.9581 -1.01886 1.65679 0
M  V30 740 O 76.2131 -1.72539 0.923512 0
M  V30 741 C 76.5121 0.575226 3.52741 0
M  V30 742 C 76.1781 1.98012 4.05095 0
M  V30 743 C 74.8401 2.36442 4.19104 0
M  V30 744 C 77.1921 2.89824 4.33188 0
M  V30 745 C 74.5201 3.66009 4.58535 0
M  V30 746 C 76.8721 4.1886 4.74066 0
M  V30 747 C 75.5361 4.5726 4.86281 0
M  V30 748 H 74.8061 0.153491 0.724929 0
M  V30 749 H 77.4531 1.05371 1.59904 0
M  V30 750 H 75.7581 -0.142385 3.91541 0
M  V30 751 H 77.4551 0.239057 4.00287 0
M  V30 752 H 74.0451 1.67162 3.94658 0
M  V30 753 H 78.2291 2.61375 4.21897 0
M  V30 754 H 73.4851 3.95579 4.66184 0
M  V30 755 H 77.6591 4.90086 4.94761 0
M  V30 756 H 75.2861 5.57707 5.16592 0
M  V30 757 N 76.8612 -1.46375 0.584142 0
M  V30 758 C 78.2722 -1.86031 0.157959 0
M  V30 759 C 78.6232 -1.48753 -1.27933 0
M  V30 760 O 77.7482 -0.903098 -1.96655 0
M  V30 761 C 78.3432 -3.37642 0.279892 0
M  V30 762 C 76.9022 -3.76289 -0.09143 0
M  V30 763 C 76.0492 -2.7039 0.615178 0
M  V30 764 H 79.0002 -1.37509 0.792274 0
M  V30 765 H 79.0212 -3.77275 -0.494364 0
M  V30 766 H 78.5332 -3.64742 1.32607 0
M  V30 767 H 76.6342 -3.54806 -1.13769 0
M  V30 768 H 76.7472 -4.78246 0.285886 0
M  V30 769 H 75.1112 -2.5464 0.0552833 0
M  V30 770 H 75.8942 -3.0033 1.66303 0
M  V30 771 N 78.3393 -0.321999 -1.54275 0
M  V30 772 C 79.5873 0.280489 -2.00144 0
M  V30 773 C 79.9083 1.52777 -1.21178 0
M  V30 774 O 79.1783 1.9338 -0.313187 0
M  V30 775 H 77.7583 0.106632 -0.73935 0
M  V30 776 H 80.4203 -0.438184 -1.8991 0
M  V30 777 H 79.5163 0.537972 -3.07428 0
M  V30 778 N 79.8174 1.5752 -0.0501392 0
M  V30 779 C 81.0644 1.9265 0.623874 0
M  V30 780 C 81.3924 0.928411 1.70912 0
M  V30 781 O 80.6474 -0.0594525 1.9561 0
M  V30 782 C 80.9464 3.34467 1.25963 0
M  V30 783 C 80.6124 4.49883 0.302689 0
M  V30 784 C 79.2744 4.81184 0.0393636 0
M  V30 785 C 81.6264 5.20002 -0.353205 0
M  V30 786 C 78.9544 5.79951 -0.887308 0
M  V30 787 C 81.3064 6.1976 -1.26806 0
M  V30 788 C 79.9704 6.49491 -1.54007 0
M  V30 789 H 79.2404 0.704957 0.228292 0
M  V30 790 H 81.8874 1.91146 -0.116398 0
M  V30 791 H 80.1924 3.32333 2.07514 0
M  V30 792 H 81.8894 3.58928 1.78806 0
M  V30 793 H 78.4794 4.25457 0.518109 0
M  V30 794 H 82.6634 4.96033 -0.162854 0
M  V30 795 H 77.9194 6.01322 -1.10553 0
M  V30 796 H 82.0934 6.73205 -1.78236 0
M  V30 797 H 79.7204 7.25837 -2.25976 0
M  V30 798 N 81.2955 -0.223234 1.56011 0
M  V30 799 C 82.2055 -1.29766 1.95443 0
M  V30 800 C 83.2215 -1.51373 0.858028 0
M  V30 801 O 84.3975 -1.64536 1.16146 0
M  V30 802 C 81.4625 -2.62772 2.26167 0
M  V30 803 C 80.5235 -2.49482 3.49367 0
M  V30 804 C 79.7565 -3.76145 3.78616 0
M  V30 805 O 79.9795 -4.79087 3.09568 0
M  V30 806 O 78.9135 -3.73358 4.72109 0
M  V30 807 H 82.7395 -0.99309 2.87004 0
M  V30 808 H 80.3245 -0.425958 1.43199 0
M  V30 809 H 82.2065 -3.41327 2.47131 0
M  V30 810 H 80.8815 -2.92913 1.37781 0
M  V30 811 H 79.7885 -1.69133 3.33684 0
M  V30 812 H 81.1215 -2.2428 4.38131 0
M  V30 813 N 82.7736 -1.49793 -0.48987 0
M  V30 814 C 83.7066 -1.61898 -1.60823 0
M  V30 815 C 84.6846 -0.467651 -1.5573 0
M  V30 816 O 85.8686 -0.684682 -1.75626 0
M  V30 817 C 82.9956 -1.58422 -2.99366 0
M  V30 818 C 82.0416 -2.78889 -3.22682 0
M  V30 819 S 82.8746 -4.40429 -3.04602 0
M  V30 820 C 84.0306 -4.39617 -4.4552 0
M  V30 821 H 84.2636 -2.56502 -1.50312 0
M  V30 822 H 81.7966 -1.38822 -0.675849 0
M  V30 823 H 83.7546 -1.57103 -3.79248 0
M  V30 824 H 82.4156 -0.650866 -3.07283 0
M  V30 825 H 81.6086 -2.72708 -4.23847 0
M  V30 826 H 81.2106 -2.77678 -2.50541 0
M  V30 827 H 83.5026 -4.12022 -5.37814 0
M  V30 828 H 84.4456 -5.41097 -4.56749 0
M  V30 829 H 84.8536 -3.69554 -4.2672 0
M  V30 830 N 84.2517 0.741722 -1.39055 0
M  V30 831 C 85.5007 1.49656 -1.35225 0
M  V30 832 C 85.8137 1.95533 0.0512708 0
M  V30 833 O 87.0197 2.7067 0.212138 0
M  V30 834 C 85.4757 2.70389 -2.37525 0
M  V30 835 C 85.0837 2.31489 -3.83558 0
M  V30 836 C 86.8277 3.48236 -2.42759 0
M  V30 837 C 84.7347 3.48903 -4.77515 0
M  V30 838 H 83.6647 0.56197 -0.502699 0
M  V30 839 H 86.3157 0.809727 -1.64668 0
M  V30 840 H 84.6977 3.41113 -2.01142 0
M  V30 841 H 85.8717 1.68354 -4.28945 0
M  V30 842 H 84.1867 1.66749 -3.81554 0
M  V30 843 H 86.7837 4.35558 -3.1015 0
M  V30 844 H 87.1267 3.90229 -1.45008 0
M  V30 845 H 87.6597 2.84535 -2.78002 0
M  V30 846 H 84.3987 3.11966 -5.76504 0
M  V30 847 H 83.9187 4.11041 -4.36813 0
M  V30 848 H 85.5977 4.15328 -4.96096 0
M  V30 849 N 85.7298 1.2412 0.971189 0
M  V30 850 C 86.9578 1.10575 1.74874 0
M  V30 851 C 87.3728 -0.342017 1.85676 0
M  V30 852 O 86.7298 -1.23617 1.34258 0
M  V30 853 C 86.7808 1.73579 3.171 0
M  V30 854 O 86.5018 3.12695 3.06844 0
M  V30 855 C 88.0028 1.65598 4.11208 0
M  V30 856 H 85.2228 0.386504 0.548503 0
M  V30 857 H 87.7668 1.64156 1.21955 0
M  V30 858 H 85.9218 1.24009 3.67016 0
M  V30 859 H 86.3358 3.43412 3.96445 0
M  V30 860 H 87.8098 2.1437 5.08674 0
M  V30 861 H 88.2868 0.616532 4.34851 0
M  V30 862 H 88.8928 2.14578 3.67201 0
M  V30 863 N 87.2079 -1.17134 1.05439 0
M  V30 864 C 88.4559 -1.87085 0.764429 0
M  V30 865 C 88.7769 -1.81584 -0.710787 0
M  V30 866 O 88.0469 -1.24349 -1.51374 0
M  V30 867 H 86.6269 -0.692627 0.279779 0
M  V30 868 H 89.2889 -1.42087 1.33406 0
M  V30 869 H 88.3849 -2.92759 1.0816 0
M  V30 870 N 88.686 -0.835752 -1.33615 0
M  V30 871 C 90.097 -0.487099 -1.80234 0
M  V30 872 C 90.448 0.993627 -1.69179 0
M  V30 873 O 89.573 1.77403 -1.23924 0
M  V30 874 C 90.168 -0.877385 -3.27242 0
M  V30 875 C 88.727 -0.580915 -3.7189 0
M  V30 876 C 87.874 -1.0874 -2.5509 0
M  V30 877 H 90.825 -1.02474 -1.2118 0
M  V30 878 H 90.846 -0.186195 -3.80044 0
M  V30 879 H 90.358 -1.95512 -3.35256 0
M  V30 880 H 88.459 0.486881 -3.69405 0
M  V30 881 H 88.572 -1.13396 -4.65487 0
M  V30 882 H 86.936 -0.508392 -2.49575 0
M  V30 883 H 87.719 -2.17184 -2.65868 0
M  V30 884 N 90.1641 1.46063 -0.591896 0
M  V30 885 C 91.4411 1.95595 -0.0137119 0
M  V30 886 C 91.8211 1.5345 1.4497 0
M  V30 887 O 91.1691 0.789543 2.14426 0
M  V30 888 C 91.3791 3.48453 -0.195373 0
M  V30 889 C 92.7271 4.24546 -0.0679765 0
M  V30 890 O 93.7511 3.55982 -0.124681 0
M  V30 891 O 92.6101 5.46467 0.0600579 0
M  V30 892 H 89.7041 0.825795 0.0446279 0
M  V30 893 H 92.2501 1.56303 -0.660859 0
M  V30 894 H 91.0221 3.72045 -1.21235 0
M  V30 895 H 90.6451 3.94597 0.487775 0
M  V30 896 N 91.6422 0.330177 1.54103 0
M  V30 897 C 92.5722 -0.525353 2.27513 0
M  V30 898 C 93.5532 -1.11383 1.2856 0
M  V30 899 O 94.7382 -1.13773 1.57383 0
M  V30 900 C 91.8682 -1.6831 3.03791 0
M  V30 901 C 90.8222 -1.2236 4.10137 0
M  V30 902 C 90.1482 -2.46882 4.74293 0
M  V30 903 C 91.4482 -0.333697 5.21233 0
M  V30 904 H 93.1422 0.087013 2.99274 0
M  V30 905 H 90.6882 0.0432893 1.43935 0
M  V30 906 H 92.6412 -2.28795 3.5388 0
M  V30 907 H 91.3652 -2.32216 2.29659 0
M  V30 908 H 90.0242 -0.64165 3.60941 0
M  V30 909 H 89.6722 -3.09165 3.96769 0
M  V30 910 H 89.3722 -2.16825 5.46133 0
M  V30 911 H 90.8962 -3.08117 5.27159 0
M  V30 912 H 92.3102 -0.845013 5.67038 0
M  V30 913 H 90.7072 -0.125612 5.99969 0
M  V30 914 H 91.7772 0.633724 4.80741 0
M  V30 915 N 93.1203 -1.57491 0.0584922 0
M  V30 916 C 94.3453 -1.97711 -0.62652 0
M  V30 917 C 94.7703 -0.936132 -1.63151 0
M  V30 918 O 94.1283 0.099811 -1.81025 0
M  V30 919 C 94.1763 -3.36989 -1.28338 0
M  V30 920 O 93.2803 -3.35433 -2.39913 0
M  V30 921 H 92.6213 -0.643868 -0.162266 0
M  V30 922 H 95.1513 -2.04193 0.129064 0
M  V30 923 H 95.1613 -3.73879 -1.63335 0
M  V30 924 H 93.8363 -4.12289 -0.546889 0
M  V30 925 H 92.4133 -3.10298 -2.06809 0
M  V30 926 N 94.5984 0.214957 -1.56127 0
M  V30 927 C 95.8264 0.955092 -1.83536 0
M  V30 928 C 96.2414 1.77677 -0.638472 0
M  V30 929 O 95.5984 1.78219 0.392968 0
M  V30 930 C 95.6494 1.86734 -3.09536 0
M  V30 931 O 95.3704 1.07887 -4.24608 0
M  V30 932 C 96.8714 2.72082 -3.4998 0
M  V30 933 H 94.0914 0.279611 -0.609966 0
M  V30 934 H 96.6354 0.228197 -2.03223 0
M  V30 935 H 94.7904 2.5481 -2.91806 0
M  V30 936 H 95.2044 1.69872 -4.9623 0
M  V30 937 H 96.6784 3.31782 -4.41163 0
M  V30 938 H 97.1554 3.44806 -2.7204 0
M  V30 939 H 97.7614 2.09409 -3.70173 0
M  V30 940 N 96.0765 1.50051 0.48192 0
M  V30 941 C 97.0235 1.68122 1.58125 0
M  V30 942 C 97.9935 0.522545 1.57666 0
M  V30 943 O 99.1785 0.751844 1.75362 0
M  V30 944 C 96.3185 1.77142 2.96167 0
M  V30 945 C 95.4315 3.0444 3.06497 0
M  V30 946 C 94.5665 3.04321 4.35387 0
M  V30 947 C 93.6055 4.26118 4.3942 0
M  V30 948 N 92.7425 4.238 5.59766 0
M  V30 949 H 97.5825 2.6198 1.42022 0
M  V30 950 H 95.1195 1.29877 0.690687 0
M  V30 951 H 97.0775 1.80352 3.76203 0
M  V30 952 H 95.7075 0.867329 3.1093 0
M  V30 953 H 94.7595 3.10752 2.19402 0
M  V30 954 H 96.0715 3.94426 3.05336 0
M  V30 955 H 95.2255 3.062 5.23762 0
M  V30 956 H 93.9645 2.12147 4.39141 0
M  V30 957 H 92.9695 4.24463 3.49444 0
M  V30 958 H 94.1945 5.19507 4.37366 0
M  V30 959 H 92.1405 3.34474 5.64326 0
M  V30 960 H 92.0575 5.07542 5.60301 0
M  V30 961 H 93.3255 4.2981 6.50295 0
M  V30 962 N 97.5546 -0.734337 1.39446 0
M  V30 963 C 98.4876 -1.85715 1.32609 0
M  V30 964 C 99.4656 -1.6137 0.199636 0
M  V30 965 O 100.65 -1.84626 0.380195 0
M  V30 966 C 97.7766 -3.21709 1.05929 0
M  V30 967 C 96.8226 -3.64913 2.20773 0
M  V30 968 S 97.6556 -3.74203 3.83056 0
M  V30 969 C 98.8116 -5.12986 3.58603 0
M  V30 970 H 99.0446 -1.91232 2.27635 0
M  V30 971 H 96.5776 -0.899263 1.25509 0
M  V30 972 H 98.5356 -4.00236 0.912203 0
M  V30 973 H 97.1966 -3.13848 0.125883 0
M  V30 974 H 96.3896 -4.63606 1.97699 0
M  V30 975 H 95.9916 -2.93593 2.31688 0
M  V30 976 H 98.2836 -5.99339 3.15909 0
M  V30 977 H 99.2266 -5.41088 4.5676 0
M  V30 978 H 99.6346 -4.82694 2.9269 0
M  V30 979 N 99.0327 -1.24633 -0.964593 0
M  V30 980 C 100.28 -1.08788 -1.70796 0
M  V30 981 C 100.608 0.372783 -1.90894 0
M  V30 982 O 99.8627 1.29167 -1.47018 0
M  V30 983 C 100.162 -1.7763 -3.10133 0
M  V30 984 C 99.8277 -3.27557 -3.09866 0
M  V30 985 C 98.4897 -3.6846 -3.09501 0
M  V30 986 C 100.842 -4.23389 -3.03959 0
M  V30 987 C 98.1697 -5.03624 -3.00965 0
M  V30 988 C 100.522 -5.58565 -2.96965 0
M  V30 989 C 99.1857 -5.98809 -2.9493 0
M  V30 990 H 98.4557 -0.398084 -0.624988 0
M  V30 991 H 101.103 -1.54777 -1.12767 0
M  V30 992 H 99.4077 -1.24044 -3.71645 0
M  V30 993 H 101.105 -1.62832 -3.66451 0
M  V30 994 H 97.6947 -2.95006 -3.10917 0
M  V30 995 H 101.879 -3.92787 -3.03368 0
M  V30 996 H 97.1347 -5.33998 -2.97752 0
M  V30 997 H 101.309 -6.32523 -2.91354 0
M  V30 998 H 98.9357 -7.03505 -2.88071 0
M  V30 999 N 100.511 1.16574 -1.06058 0
M  V30 1000 C 101.421 2.2452 -0.680282 0
M  V30 1001 C 102.437 1.71348 0.302604 0
M  V30 1002 O 103.613 2.00822 0.152513 0
M  V30 1003 C 100.678 3.46629 -0.0700315 0
M  V30 1004 C 99.7388 4.14849 -1.10448 0
M  V30 1005 C 98.9718 5.31129 -0.523256 0
M  V30 1006 O 99.1948 5.66514 0.664709 0
M  V30 1007 O 98.1288 5.88526 -1.26179 0
M  V30 1008 H 101.955 2.59355 -1.58015 0
M  V30 1009 H 99.5398 1.24043 -0.832694 0
M  V30 1010 H 101.422 4.20543 0.268667 0
M  V30 1011 H 100.097 3.13573 0.803353 0
M  V30 1012 H 99.0038 3.42916 -1.49532 0
M  V30 1013 H 100.337 4.51954 -1.94931 0
M  V30 1014 N 101.989 0.842826 1.3317 0
M  V30 1015 C 102.939 0.250877 2.26616 0
M  V30 1016 C 103.923 -0.596427 1.49437 0
M  V30 1017 O 105.115 -0.447747 1.71243 0
M  V30 1018 C 102.244 -0.569779 3.38539 0
M  V30 1019 C 101.33 0.289254 4.23112 0
M  V30 1020 N 101.721 1.36987 4.86897 0
M  V30 1021 C 100.019 0.0769631 4.45934 0
M  V30 1022 C 100.72 1.89737 5.49886 0
M  V30 1023 N 99.6959 1.19827 5.30229 0
M  V30 1024 H 103.498 1.07718 2.73448 0
M  V30 1025 H 101.012 0.687693 1.47121 0
M  V30 1026 H 103.009 -1.01018 4.04476 0
M  V30 1027 H 101.669 -1.39401 2.93253 0
M  V30 1028 H 102.68 1.75277 4.87338 0
M  V30 1029 H 99.3569 -0.713507 4.11358 0
M  V30 1030 H 100.747 2.80253 6.10662 0
M  V30 1031 N 103.467 -1.45747 0.599634 0
M  V30 1032 C 104.43 -2.28917 -0.113835 0
M  V30 1033 C 105.43 -1.3933 -0.802729 0
M  V30 1034 O 106.62 -1.61534 -0.652103 0
M  V30 1035 C 103.752 -3.20152 -1.17114 0
M  V30 1036 H 104.945 -2.93478 0.617289 0
M  V30 1037 H 102.498 -1.52137 0.358327 0
M  V30 1038 H 103.233 -2.60374 -1.93329 0
M  V30 1039 H 103.018 -3.86133 -0.681468 0
M  V30 1040 H 104.508 -3.82708 -1.67105 0
M  V30 1041 N 104.945 -0.338344 -1.53925 0
M  V30 1042 C 105.892 0.520845 -2.24846 0
M  V30 1043 C 106.862 1.09976 -1.24477 0
M  V30 1044 O 108.047 1.13735 -1.53196 0
M  V30 1045 C 105.187 1.6685 -3.02084 0
M  V30 1046 C 104.3 1.11739 -4.17299 0
M  V30 1047 C 103.435 2.23193 -4.82036 0
M  V30 1048 C 102.474 1.65407 -5.89328 0
M  V30 1049 N 101.611 2.70582 -6.47866 0
M  V30 1050 H 106.451 -0.0904881 -2.97863 0
M  V30 1051 H 103.988 -0.0564282 -1.46992 0
M  V30 1052 H 105.946 2.34407 -3.45122 0
M  V30 1053 H 104.576 2.2509 -2.31375 0
M  V30 1054 H 103.628 0.332919 -3.7894 0
M  V30 1055 H 104.94 0.654677 -4.94485 0
M  V30 1056 H 104.094 2.98626 -5.28117 0
M  V30 1057 H 102.833 2.72807 -4.04262 0
M  V30 1058 H 101.838 0.884779 -5.42634 0
M  V30 1059 H 103.063 1.16652 -6.69006 0
M  V30 1060 H 101.009 3.1946 -5.72959 0
M  V30 1061 H 100.926 2.28917 -7.20509 0
M  V30 1062 H 102.194 3.45799 -6.98601 0
M  V30 1063 N 106.423 1.57458 -0.0668435 0
M  V30 1064 C 107.37 2.12439 0.902122 0
M  V30 1065 C 108.34 1.03565 1.2986 0
M  V30 1066 O 109.525 1.312 1.38532 0
M  V30 1067 C 106.665 2.6865 2.16614 0
M  V30 1068 C 105.778 3.91663 1.82274 0
M  V30 1069 C 104.913 4.36134 3.0325 0
M  V30 1070 C 103.952 5.51808 2.64904 0
M  V30 1071 N 103.089 5.9126 3.78624 0
M  V30 1072 H 107.929 2.94934 0.426382 0
M  V30 1073 H 105.466 1.4575 0.198819 0
M  V30 1074 H 107.424 2.99346 2.90599 0
M  V30 1075 H 106.054 1.88928 2.61737 0
M  V30 1076 H 105.106 3.6746 0.983719 0
M  V30 1077 H 106.418 4.75693 1.50059 0
M  V30 1078 H 105.572 4.68465 3.85519 0
M  V30 1079 H 104.311 3.50948 3.38655 0
M  V30 1080 H 103.316 5.19133 1.81055 0
M  V30 1081 H 104.541 6.38722 2.30675 0
M  V30 1082 H 102.487 5.09024 4.138 0
M  V30 1083 H 102.404 6.70018 3.5016 0
M  V30 1084 H 103.672 6.28212 4.61486 0
M  V30 1085 N 107.901 -0.206675 1.56239 0
M  V30 1086 C 109.148 -0.928842 1.79941 0
M  V30 1087 C 109.476 -1.83734 0.638131 0
M  V30 1088 O 108.731 -1.92039 -0.376746 0
M  V30 1089 C 109.03 -1.78675 3.09532 0
M  V30 1090 C 108.696 -1.03022 4.38973 0
M  V30 1091 C 107.358 -0.821302 4.74139 0
M  V30 1092 C 109.71 -0.497081 5.18824 0
M  V30 1093 C 107.038 -0.0675719 5.86661 0
M  V30 1094 C 109.39 0.24338 6.32132 0
M  V30 1095 C 108.054 0.463422 6.65889 0
M  V30 1096 H 107.324 -0.339887 0.658451 0
M  V30 1097 H 109.971 -0.195977 1.90495 0
M  V30 1098 H 108.276 -2.58794 2.94165 0
M  V30 1099 H 109.973 -2.34792 3.25075 0
M  V30 1100 H 106.563 -1.20306 4.11369 0
M  V30 1101 H 110.747 -0.645921 4.92079 0
M  V30 1102 H 106.003 0.112995 6.11296 0
M  V30 1103 H 110.177 0.66393 6.93228 0
M  V30 1104 H 107.804 1.04938 7.52922 0
M  V30 1105 N 109.379 -1.50304 -0.473955 0
M  V30 1106 C 110.627 -1.60832 -1.22382 0
M  V30 1107 C 110.948 -0.30939 -1.9253 0
M  V30 1108 O 110.218 0.67296 -1.83978 0
M  V30 1109 H 108.798 -0.592652 -0.454723 0
M  V30 1110 H 111.46 -1.87068 -0.546968 0
M  V30 1111 H 110.556 -2.41803 -1.97327 0
M  V30 1112 N 110.857 0.726932 -1.39834 0
M  V30 1113 C 111.82 1.82269 -1.38962 0
M  V30 1114 C 112.82 1.58248 -0.285334 0
M  V30 1115 O 114.01 1.65499 -0.54366 0
M  V30 1116 C 111.142 3.20186 -1.17019 0
M  V30 1117 H 112.335 1.84443 -2.36476 0
M  V30 1118 H 109.888 0.931416 -1.25516 0
M  V30 1119 H 110.623 3.23669 -0.202204 0
M  V30 1120 H 110.408 3.3902 -1.96998 0
M  V30 1121 H 111.898 4.00235 -1.1917 0
M  V30 1122 N 112.336 1.25143 0.95797 0
M  V30 1123 C 113.582 1.09855 1.70469 0
M  V30 1124 C 113.915 -0.360187 1.90831 0
M  V30 1125 O 113.19 -1.26568 1.47685 0
M  V30 1126 C 113.473 1.8497 3.08963 0
M  V30 1127 C 113.326 3.38652 2.96032 0
M  V30 1128 C 114.645 1.63016 4.08795 0
M  V30 1129 H 111.764 0.400465 0.618706 0
M  V30 1130 H 114.406 1.53933 1.11376 0
M  V30 1131 H 112.556 1.47505 3.59409 0
M  V30 1132 H 114.228 3.85772 2.52938 0
M  V30 1133 H 112.471 3.66534 2.32025 0
M  V30 1134 H 113.142 3.8642 3.94187 0
M  V30 1135 H 115.618 1.95625 3.67247 0
M  V30 1136 H 114.494 2.18015 5.03747 0
M  V30 1137 H 114.755 0.570692 4.38401 0
M  V30 1138 N 113.814 -1.1601 1.06675 0
M  V30 1139 C 115.044 -1.90251 0.805497 0
M  V30 1140 C 115.452 -1.77891 -0.64431 0
M  V30 1141 O 114.795 -1.12383 -1.45313 0
M  V30 1142 C 114.857 -3.41419 1.12576 0
M  V30 1143 C 114.521 -3.77564 2.57477 0
M  V30 1144 C 115.518 -3.79161 3.55715 0
M  V30 1145 C 113.203 -4.08079 2.92877 0
M  V30 1146 C 115.197 -4.10767 4.8739 0
M  V30 1147 C 112.884 -4.39351 4.24751 0
M  V30 1148 C 113.882 -4.40675 5.21818 0
M  V30 1149 O 113.57 -4.71202 6.51325 0
M  V30 1150 H 113.302 -0.610018 0.291297 0
M  V30 1151 H 115.856 -1.47958 1.4247 0
M  V30 1152 H 114.086 -3.84079 0.449503 0
M  V30 1153 H 115.775 -3.9694 0.84814 0
M  V30 1154 H 116.541 -3.55693 3.29708 0
M  V30 1155 H 112.42 -4.06211 2.17976 0
M  V30 1156 H 115.964 -4.11715 5.63148 0
M  V30 1157 H 111.861 -4.62285 4.50514 0
M  V30 1158 H 112.629 -4.88996 6.56373 0
M  V30 1159 N 115.292 -0.849877 -1.32721 0
M  V30 1160 C 116.224 -0.248332 -2.27851 0
M  V30 1161 C 117.237 0.577218 -1.52224 0
M  V30 1162 O 118.426 0.402489 -1.73903 0
M  V30 1163 C 115.526 0.668107 -3.32249 0
M  V30 1164 C 114.699 -0.120534 -4.37234 0
M  V30 1165 C 113.758 0.720932 -5.21238 0
M  V30 1166 O 112.784 0.156166 -5.68986 0
M  V30 1167 N 113.986 2.03647 -5.43607 0
M  V30 1168 H 116.751 -1.06575 -2.80111 0
M  V30 1169 H 114.312 -0.709395 -1.45531 0
M  V30 1170 H 116.304 1.23627 -3.85355 0
M  V30 1171 H 114.874 1.38621 -2.80184 0
M  V30 1172 H 114.094 -0.870108 -3.84477 0
M  V30 1173 H 115.382 -0.662406 -5.0447 0
M  V30 1174 H 114.78 2.51871 -5.06535 0
M  V30 1175 H 113.337 2.55287 -5.99727 0
M  V30 1176 N 116.77 1.45427 -0.607355 0
M  V30 1177 C 118 2.06314 -0.108656 0
M  V30 1178 C 118.408 1.45269 1.21217 0
M  V30 1179 O 117.751 0.561115 1.74921 0
M  V30 1180 C 117.813 3.59345 0.105618 0
M  V30 1181 C 117.477 4.42723 -1.13337 0
M  V30 1182 C 118.474 4.77715 -2.05145 0
M  V30 1183 C 116.159 4.83478 -1.36213 0
M  V30 1184 C 118.153 5.52317 -3.18158 0
M  V30 1185 C 115.84 5.57835 -2.49527 0
M  V30 1186 C 116.838 5.92171 -3.40327 0
M  V30 1187 O 116.526 6.65019 -4.51669 0
M  V30 1188 H 116.258 0.672782 -0.0658842 0
M  V30 1189 H 118.812 1.87664 -0.834945 0
M  V30 1190 H 117.042 3.76394 0.886796 0
M  V30 1191 H 118.731 4.02076 0.555886 0
M  V30 1192 H 119.497 4.46787 -1.88697 0
M  V30 1193 H 115.376 4.56188 -0.664362 0
M  V30 1194 H 118.92 5.79036 -3.89054 0
M  V30 1195 H 114.817 5.88177 -2.65928 0
M  V30 1196 H 115.585 6.83469 -4.50348 0
M  V30 1197 N 118.248 0.346503 1.53744 0
M  V30 1198 C 119.496 -0.248612 2.00565 0
M  V30 1199 C 119.817 -1.5083 1.23593 0
M  V30 1200 O 119.087 -1.92858 0.343912 0
M  V30 1201 H 117.667 -0.0948564 0.740953 0
M  V30 1202 H 120.329 0.468341 1.89189 0
M  V30 1203 H 119.425 -0.488994 3.08245 0
M  V30 1204 N 119.726 -1.57421 0.075193 0
M  V30 1205 C 121.003 -1.85029 -0.634329 0
M  V30 1206 C 121.383 -0.968305 -1.87582 0
M  V30 1207 O 120.731 -0.0354749 -2.28472 0
M  V30 1208 C 120.941 -3.35286 -0.968742 0
M  V30 1209 C 122.289 -4.02875 -1.34077 0
M  V30 1210 O 123.313 -3.40051 -1.06037 0
M  V30 1211 O 122.172 -5.13691 -1.86506 0
M  V30 1212 H 119.266 -0.7645 -0.315387 0
M  V30 1213 H 121.812 -1.69366 0.106382 0
M  V30 1214 H 120.584 -3.91203 -0.0871376 0
M  V30 1215 H 120.207 -3.56223 -1.7661 0
M  V30 1216 N 121.204 0.198386 -1.56346 0
M  V30 1217 C 122.453 0.917451 -1.79627 0
M  V30 1218 C 122.766 1.8456 -0.64784 0
M  V30 1219 O 123.972 2.60504 -0.764859 0
M  V30 1220 C 122.428 1.68175 -3.18191 0
M  V30 1221 C 122.036 0.798589 -4.40825 0
M  V30 1222 C 123.78 2.39065 -3.50782 0
M  V30 1223 C 121.687 1.56157 -5.70411 0
M  V30 1224 H 120.617 0.346317 -0.669762 0
M  V30 1225 H 123.268 0.170801 -1.82703 0
M  V30 1226 H 121.65 2.47216 -3.09354 0
M  V30 1227 H 122.824 0.0470665 -4.60776 0
M  V30 1228 H 121.139 0.200686 -4.15916 0
M  V30 1229 H 123.736 2.96692 -4.44835 0
M  V30 1230 H 124.079 3.13091 -2.74371 0
M  V30 1231 H 124.612 1.66993 -3.61052 0
M  V30 1232 H 121.351 0.864142 -6.49779 0
M  V30 1233 H 120.871 2.2871 -5.54483 0
M  V30 1234 H 122.55 2.11622 -6.11412 0
M  V30 1235 N 122.682 1.50554 0.465978 0
M  V30 1236 C 123.629 1.6979 1.56333 0
M  V30 1237 C 124.599 0.539239 1.57103 0
M  V30 1238 O 125.784 0.770401 1.74555 0
M  V30 1239 C 122.924 1.80273 2.94271 0
M  V30 1240 C 122.037 3.07674 3.0325 0
M  V30 1241 C 121.172 3.08922 4.32135 0
M  V30 1242 C 120.211 4.30755 4.34875 0
M  V30 1243 N 119.348 4.29714 5.55239 0
M  V30 1244 H 124.188 2.63472 1.39235 0
M  V30 1245 H 121.725 1.30602 0.676873 0
M  V30 1246 H 123.683 1.84332 3.74269 0
M  V30 1247 H 122.313 0.900258 3.09992 0
M  V30 1248 H 121.365 3.13062 2.16094 0
M  V30 1249 H 122.677 3.97642 3.01135 0
M  V30 1250 H 121.831 3.11738 5.20485 0
M  V30 1251 H 120.57 2.16792 4.36866 0
M  V30 1252 H 119.575 4.28146 3.44922 0
M  V30 1253 H 120.8 5.24117 4.31831 0
M  V30 1254 H 118.746 3.4044 5.60746 0
M  V30 1255 H 118.663 5.13456 5.54886 0
M  V30 1256 H 119.931 4.36683 6.457 0
M  V30 1257 N 124.16 -0.719506 1.40217 0
M  V30 1258 C 125.385 -1.51371 1.4178 0
M  V30 1259 C 125.81 -1.88091 0.0182355 0
M  V30 1260 O 125.168 -1.52997 -0.972707 0
M  V30 1261 C 125.216 -2.768 2.31115 0
M  V30 1262 O 124.32 -3.73349 1.7517 0
M  V30 1263 H 123.661 -0.456529 0.482159 0
M  V30 1264 H 126.191 -0.88644 1.844 0
M  V30 1265 H 126.201 -3.25371 2.46167 0
M  V30 1266 H 124.876 -2.49407 3.3282 0
M  V30 1267 H 123.453 -3.32179 1.69444 0
M  V30 1268 N 125.638 -1.25649 -0.95132 0
M  V30 1269 C 126.884 -1.10757 -1.69884 0
M  V30 1270 C 127.217 0.350061 -1.91019 0
M  V30 1271 O 126.492 1.25783 -1.48354 0
M  V30 1272 C 126.775 -1.86606 -3.07978 0
M  V30 1273 C 126.628 -3.40217 -2.94232 0
M  V30 1274 C 127.947 -1.65182 -4.07925 0
M  V30 1275 H 125.066 -0.40374 -0.616574 0
M  V30 1276 H 127.708 -1.54521 -1.10558 0
M  V30 1277 H 125.858 -1.49409 -3.58621 0
M  V30 1278 H 127.53 -3.87108 -2.50889 0
M  V30 1279 H 125.773 -3.67759 -2.30078 0
M  V30 1280 H 126.444 -3.88505 -3.92133 0
M  V30 1281 H 128.92 -1.9757 -3.66204 0
M  V30 1282 H 127.796 -2.20683 -5.02583 0
M  V30 1283 H 128.057 -0.593933 -4.38092 0
M  V30 1284 N 127.117 1.15442 -1.07289 0
M  V30 1285 C 128.027 2.23786 -0.704057 0
M  V30 1286 C 129.043 1.7166 0.284413 0
M  V30 1287 O 130.219 2.00972 0.131205 0
M  V30 1288 C 127.284 3.46535 -0.106792 0
M  V30 1289 C 126.345 4.13654 -1.14842 0
M  V30 1290 C 125.578 5.30544 -0.57956 0
M  V30 1291 O 125.801 5.67187 0.604585 0
M  V30 1292 O 124.735 5.87154 -1.32414 0
M  V30 1293 H 128.561 2.57664 -1.60757 0
M  V30 1294 H 126.146 1.23152 -0.845803 0
M  V30 1295 H 128.028 4.20804 0.224048 0
M  V30 1296 H 126.703 3.14407 0.770049 0
M  V30 1297 H 125.61 3.4131 -1.5316 0
M  V30 1298 H 126.943 4.49861 -1.99714 0
M  V30 1299 N 128.595 0.856903 1.32268 0
M  V30 1300 C 129.872 0.382583 1.91822 0
M  V30 1301 C 130.252 -1.13407 1.78051 0
M  V30 1302 O 129.6 -1.95673 1.18001 0
M  V30 1303 C 129.81 0.849446 3.38505 0
M  V30 1304 C 131.158 0.867936 4.15634 0
M  V30 1305 O 132.182 0.794232 3.47232 0
M  V30 1306 O 131.041 0.972286 5.37781 0
M  V30 1307 H 128.135 0.112014 0.819379 0
M  V30 1308 H 130.681 0.943952 1.41024 0
M  V30 1309 H 129.453 1.89267 3.42482 0
M  V30 1310 H 129.076 0.265652 3.96712 0
M  V30 1311 N 130.073 -1.45103 0.615059 0
M  V30 1312 C 131.02 -2.30586 -0.0993978 0
M  V30 1313 C 131.99 -1.42544 -0.852669 0
M  V30 1314 O 133.175 -1.71465 -0.836917 0
M  V30 1315 C 130.315 -3.27572 -1.08583 0
M  V30 1316 C 129.428 -4.30717 -0.332656 0
M  V30 1317 C 128.563 -5.14807 -1.30947 0
M  V30 1318 C 127.602 -6.09673 -0.544538 0
M  V30 1319 N 126.739 -6.86517 -1.47101 0
M  V30 1320 H 131.579 -2.91144 0.635542 0
M  V30 1321 H 129.116 -1.4346 0.325206 0
M  V30 1322 H 131.074 -3.82276 -1.67095 0
M  V30 1323 H 129.704 -2.68751 -1.78809 0
M  V30 1324 H 128.756 -3.78615 0.368107 0
M  V30 1325 H 130.068 -4.98102 0.263842 0
M  V30 1326 H 129.222 -5.73948 -1.96643 0
M  V30 1327 H 127.961 -4.47458 -1.9399 0
M  V30 1328 H 126.966 -5.49656 0.126003 0
M  V30 1329 H 128.191 -6.79052 0.080947 0
M  V30 1330 H 126.137 -6.21851 -2.08895 0
M  V30 1331 H 126.054 -7.50281 -0.928137 0
M  V30 1332 H 127.322 -7.50194 -2.11731 0
M  V30 1333 N 131.551 -0.354651 -1.53558 0
M  V30 1334 C 132.799 0.237972 -2.00694 0
M  V30 1335 C 133.12 1.50173 -1.24391 0
M  V30 1336 O 132.39 1.92673 -0.354135 0
M  V30 1337 H 130.97 0.0909256 -0.741446 0
M  V30 1338 H 133.632 -0.478368 -1.88938 0
M  V30 1339 H 132.728 0.47264 -3.085 0
M  V30 1340 N 133.029 1.57378 -0.0835403 0
M  V30 1341 C 133.939 2.16897 0.894021 0
M  V30 1342 C 134.955 1.13528 1.31861 0
M  V30 1343 O 136.131 1.45848 1.3889 0
M  V30 1344 C 133.196 2.72831 2.13925 0
M  V30 1345 C 132.257 3.91115 1.76997 0
M  V30 1346 C 131.49 4.44371 2.95584 0
M  V30 1347 O 131.713 3.96596 4.09961 0
M  V30 1348 O 130.647 5.35549 2.74719 0
M  V30 1349 H 134.473 3.00814 0.417679 0
M  V30 1350 H 132.058 1.48741 0.140181 0
M  V30 1351 H 133.94 3.0863 2.86924 0
M  V30 1352 H 132.615 1.91967 2.60635 0
M  V30 1353 H 131.522 3.60148 1.01214 0
M  V30 1354 H 132.855 4.73307 1.3506 0
M  V30 1355 N 134.507 -0.190092 1.56449 0
M  V30 1356 C 135.737 -0.92443 1.84764 0
M  V30 1357 C 136.145 -1.77146 0.664529 0
M  V30 1358 O 135.488 -1.79812 -0.375957 0
M  V30 1359 C 135.55 -1.86651 3.07248 0
M  V30 1360 C 135.214 -1.20094 4.40938 0
M  V30 1361 C 136.211 -0.575445 5.16706 0
M  V30 1362 C 133.896 -1.2033 4.87674 0
M  V30 1363 C 135.89 0.0388111 6.37388 0
M  V30 1364 C 133.577 -0.585214 6.08291 0
M  V30 1365 C 134.575 0.0347578 6.82991 0
M  V30 1366 O 134.263 0.643147 8.01323 0
M  V30 1367 H 133.995 -0.274974 0.617548 0
M  V30 1368 H 136.549 -0.200788 2.04416 0
M  V30 1369 H 134.779 -2.62998 2.83494 0
M  V30 1370 H 136.468 -2.46907 3.22167 0
M  V30 1371 H 137.234 -0.565728 4.81689 0
M  V30 1372 H 133.113 -1.67526 4.29484 0
M  V30 1373 H 136.657 0.523329 6.95634 0
M  V30 1374 H 132.554 -0.592451 6.42775 0
M  V30 1375 H 133.322 0.540545 8.16713 0
M  V30 1376 N 135.985 -1.50799 -0.457987 0
M  V30 1377 C 136.932 -1.70617 -1.5543 0
M  V30 1378 C 137.902 -0.547562 -1.56815 0
M  V30 1379 O 139.087 -0.779647 -1.74144 0
M  V30 1380 C 136.227 -1.81831 -2.93311 0
M  V30 1381 C 135.34 -3.09278 -3.01615 0
M  V30 1382 C 134.475 -3.11209 -4.30491 0
M  V30 1383 C 133.514 -4.33055 -4.32585 0
M  V30 1384 N 132.651 -4.32652 -5.52952 0
M  V30 1385 H 137.491 -2.64207 -1.37836 0
M  V30 1386 H 135.028 -1.30959 -0.669937 0
M  V30 1387 H 136.986 -1.86314 -3.73287 0
M  V30 1388 H 135.616 -0.916685 -3.0951 0
M  V30 1389 H 134.668 -3.14203 -2.1443 0
M  V30 1390 H 135.98 -3.99233 -2.99022 0
M  V30 1391 H 135.134 -3.14494 -5.18824 0
M  V30 1392 H 133.873 -2.19106 -4.35711 0
M  V30 1393 H 132.878 -4.29969 -3.42647 0
M  V30 1394 H 134.103 -5.264 -4.29046 0
M  V30 1395 H 132.049 -3.43409 -5.58933 0
M  V30 1396 H 131.966 -5.16392 -5.52155 0
M  V30 1397 H 133.234 -4.40101 -6.43375 0
M  V30 1398 N 137.463 0.71206 -1.40597 0
M  V30 1399 C 138.709 1.47416 -1.39271 0
M  V30 1400 C 139.042 1.942 0.00388791 0
M  V30 1401 O 138.317 1.68403 0.973179 0
M  V30 1402 C 138.6 2.69774 -2.38525 0
M  V30 1403 C 138.453 2.28861 -3.87224 0
M  V30 1404 C 139.772 3.71939 -2.35264 0
M  V30 1405 H 136.891 0.534713 -0.5072 0
M  V30 1406 H 139.533 0.812375 -1.71757 0
M  V30 1407 H 137.683 3.26238 -2.10953 0
M  V30 1408 H 139.355 1.77852 -4.25636 0
M  V30 1409 H 137.598 1.60824 -4.02887 0
M  V30 1410 H 138.269 3.16584 -4.52193 0
M  V30 1411 H 140.745 3.25113 -2.59694 0
M  V30 1412 H 139.621 4.55186 -3.06753 0
M  V30 1413 H 139.882 4.20484 -1.36549 0
M  V30 1414 N 138.941 1.26152 0.944643 0
M  V30 1415 C 140.19 1.10883 1.68487 0
M  V30 1416 C 140.503 -0.348153 1.92477 0
M  V30 1417 O 141.709 -0.621459 2.64292 0
M  V30 1418 C 140.165 1.93624 3.03377 0
M  V30 1419 C 139.773 3.43875 2.87148 0
M  V30 1420 C 141.517 1.86954 3.81115 0
M  V30 1421 C 139.424 4.18875 4.1749 0
M  V30 1422 H 138.354 0.41135 0.631907 0
M  V30 1423 H 141.005 1.50433 1.05082 0
M  V30 1424 H 139.387 1.46904 3.67743 0
M  V30 1425 H 140.561 3.98338 2.31653 0
M  V30 1426 H 138.876 3.51744 2.22856 0
M  V30 1427 H 141.473 2.40275 4.77673 0
M  V30 1428 H 141.816 0.839518 4.07747 0
M  V30 1429 H 142.349 2.31477 3.23517 0
M  V30 1430 H 139.088 5.22332 3.96043 0
M  V30 1431 H 138.608 3.69193 4.72712 0
M  V30 1432 H 140.287 4.27134 4.85968 0
M  V30 1433 N 140.419 -1.14872 1.07899 0
M  V30 1434 C 141.367 -2.21857 0.698727 0
M  V30 1435 C 142.361 -1.66845 -0.293086 0
M  V30 1436 O 143.567 -1.79321 -0.156204 0
M  V30 1437 H 139.942 -0.722691 0.207899 0
M  V30 1438 H 141.913 -2.51205 1.61054 0
M  V30 1439 C 140.662 -3.47498 0.11858 0
M  V30 1440 H 139.985 -3.90154 0.872914 0
M  V30 1441 H 141.425 -4.23858 -0.109759 0
M  V30 1442 C 139.884 -3.16947 -1.1422 0
M  V30 1443 O 140.414 -3.3426 -2.22785 0
M  V30 1444 N 138.62 -2.70946 -1.05055 0
M  V30 1445 H 138.167 -2.57058 -0.167038 0
M  V30 1446 H 138.125 -2.50879 -1.89491 0
M  V30 1447 N 141.898 -0.863906 -1.31812 0
M  V30 1448 C 143.145 -0.471836 -1.96926 0
M  V30 1449 C 143.473 0.974578 -1.68322 0
M  V30 1450 O 142.728 1.7003 -0.968933 0
M  V30 1451 C 143.027 -0.668547 -3.51091 0
M  V30 1452 C 142.693 -2.08683 -3.99703 0
M  V30 1453 C 141.355 -2.47471 -4.12688 0
M  V30 1454 C 143.707 -3.01207 -4.25351 0
M  V30 1455 C 141.035 -3.78037 -4.4867 0
M  V30 1456 C 143.387 -4.31282 -4.62794 0
M  V30 1457 C 142.051 -4.69992 -4.73987 0
M  V30 1458 H 141.321 -0.172657 -0.720604 0
M  V30 1459 H 143.968 -1.09573 -1.57054 0
M  V30 1460 H 142.273 0.0385252 -3.91781 0
M  V30 1461 H 143.97 -0.345102 -3.99512 0
M  V30 1462 H 140.56 -1.77566 -3.90087 0
M  V30 1463 H 144.744 -2.72469 -4.14819 0
M  V30 1464 H 140 -4.078 -4.55532 0
M  V30 1465 H 144.174 -5.03031 -4.81594 0
M  V30 1466 H 141.801 -5.71207 -5.01624 0
M  V30 1467 N 143.376 1.44774 -0.622745 0
M  V30 1468 C 144.624 2.01721 -0.123655 0
M  V30 1469 C 144.945 1.49172 1.25589 0
M  V30 1470 O 144.215 0.691974 1.83272 0
M  V30 1471 H 142.795 0.745777 -0.0427225 0
M  V30 1472 H 145.457 1.77382 -0.807559 0
M  V30 1473 H 144.553 3.11984 -0.0849534 0
M  V30 1474 N 144.854 0.36279 1.53368 0
M  V30 1475 C 145.802 -0.500155 2.27159 0
M  V30 1476 C 146.796 -1.08575 1.3003 0
M  V30 1477 O 148.002 -1.02927 1.47668 0
M  V30 1478 H 144.377 -0.180009 0.730138 0
M  V30 1479 H 146.348 0.14401 2.98052 0
M  V30 1480 C 145.097 -1.62937 3.07159 0
M  V30 1481 H 144.42 -1.18806 3.8174 0
M  V30 1482 H 145.86 -2.20795 3.61975 0
M  V30 1483 C 144.319 -2.57007 2.17829 0
M  V30 1484 O 144.849 -3.59752 1.78721 0
M  V30 1485 N 143.055 -2.26131 1.82518 0
M  V30 1486 H 142.602 -1.42616 2.14519 0
M  V30 1487 H 142.56 -2.89327 1.23034 0
M  V30 1488 N 146.332 -1.57332 0.0918853 0
M  V30 1489 C 147.279 -2.13847 -0.868211 0
M  V30 1490 C 148.249 -1.05618 -1.28196 0
M  V30 1491 O 149.434 -1.33387 -1.36427 0
M  V30 1492 C 146.574 -2.72062 -2.12312 0
M  V30 1493 C 145.687 -3.94514 -1.7602 0
M  V30 1494 C 144.822 -4.40903 -2.96273 0
M  V30 1495 C 143.861 -5.55953 -2.56092 0
M  V30 1496 N 142.998 -5.97209 -3.69169 0
M  V30 1497 H 147.838 -2.95575 -0.379406 0
M  V30 1498 H 145.375 -1.46048 -0.175606 0
M  V30 1499 H 147.333 -3.03931 -2.858 0
M  V30 1500 H 145.963 -1.93068 -2.58698 0
M  V30 1501 H 145.015 -3.68979 -0.925135 0
M  V30 1502 H 146.327 -4.7802 -1.42472 0
M  V30 1503 H 145.481 -4.74539 -3.78018 0
M  V30 1504 H 144.22 -3.56291 -3.33029 0
M  V30 1505 H 143.225 -5.21948 -1.72773 0
M  V30 1506 H 144.45 -6.42311 -2.20484 0
M  V30 1507 H 142.396 -5.15543 -4.05649 0
M  V30 1508 H 142.313 -6.75504 -3.39456 0
M  V30 1509 H 143.581 -6.35475 -4.51434 0
M  V30 1510 N 147.81 0.181792 -1.56548 0
M  V30 1511 C 148.72 1.24538 -1.98815 0
M  V30 1512 C 149.736 1.49045 -0.897861 0
M  V30 1513 O 150.912 1.61399 -1.20467 0
M  V30 1514 C 147.977 2.56683 -2.33055 0
M  V30 1515 C 147.038 2.40131 -3.55859 0
M  V30 1516 C 146.271 3.65975 -3.88456 0
M  V30 1517 O 146.494 4.70711 -3.22161 0
M  V30 1518 O 145.428 3.6071 -4.81842 0
M  V30 1519 H 149.254 0.916647 -2.89536 0
M  V30 1520 H 146.839 0.387842 -1.44278 0
M  V30 1521 H 148.721 3.34655 -2.56094 0
M  V30 1522 H 147.396 2.89157 -1.45498 0
M  V30 1523 H 146.303 1.60226 -3.38051 0
M  V30 1524 H 147.636 2.12585 -4.43924 0
M  V30 1525 N 149.288 1.51039 0.449983 0
M  V30 1526 C 150.218 1.74379 1.55288 0
M  V30 1527 C 151.199 0.593236 1.5942 0
M  V30 1528 O 152.384 0.834625 1.7535 0
M  V30 1529 C 149.514 1.85728 2.93466 0
M  V30 1530 C 148.468 3.01078 3.04197 0
M  V30 1531 C 147.794 2.97595 4.44231 0
M  V30 1532 C 149.094 4.41254 2.7945 0
M  V30 1533 H 150.788 2.66725 1.36008 0
M  V30 1534 H 148.334 1.2835 0.652864 0
M  V30 1535 H 150.287 2.0064 3.70569 0
M  V30 1536 H 149.011 0.900207 3.13949 0
M  V30 1537 H 147.67 2.85851 2.29531 0
M  V30 1538 H 147.318 1.99691 4.61663 0
M  V30 1539 H 147.018 3.75046 4.52343 0
M  V30 1540 H 148.542 3.14583 5.23326 0
M  V30 1541 H 149.956 4.56897 3.46292 0
M  V30 1542 H 148.353 5.20315 2.98985 0
M  V30 1543 H 149.423 4.52164 1.75144 0
M  V30 1544 N 150.766 -0.704594 1.40972 0
M  V30 1545 C 151.994 -1.49354 1.43182 0
M  V30 1546 C 152.409 -1.88768 0.0345508 0
M  V30 1547 O 151.766 -1.56184 -0.944081 0
M  V30 1548 C 151.817 -2.76187 2.33244 0
M  V30 1549 O 151.538 -2.38436 3.67532 0
M  V30 1550 C 153.039 -3.7 2.44162 0
M  V30 1551 H 150.259 -0.460559 0.487982 0
M  V30 1552 H 152.803 -0.868261 1.85153 0
M  V30 1553 H 150.958 -3.34974 1.94606 0
M  V30 1554 H 151.372 -3.20126 4.15475 0
M  V30 1555 H 152.846 -4.55803 3.11364 0
M  V30 1556 H 153.323 -4.13867 1.47006 0
M  V30 1557 H 153.929 -3.17121 2.83398 0
M  V30 1558 N 152.244 -1.26651 -0.937939 0
M  V30 1559 C 153.207 -1.08546 -2.01867 0
M  V30 1560 C 154.207 -0.0327327 -1.60767 0
M  V30 1561 O 155.397 -0.276427 -1.71993 0
M  V30 1562 C 152.529 -0.651711 -3.34613 0
M  V30 1563 H 153.722 -2.04502 -2.1936 0
M  V30 1564 H 151.275 -1.09294 -1.11734 0
M  V30 1565 H 152.01 0.309696 -3.22818 0
M  V30 1566 H 151.795 -1.41189 -3.65798 0
M  V30 1567 H 153.285 -0.546973 -4.14002 0
M  V30 1568 N 153.722 1.14298 -1.08507 0
M  V30 1569 C 154.669 2.19414 -0.715965 0
M  V30 1570 C 155.639 1.63399 0.298326 0
M  V30 1571 O 156.824 1.89929 0.182101 0
M  V30 1572 C 153.964 3.44845 -0.132534 0
M  V30 1573 C 153.077 4.15007 -1.19973 0
M  V30 1574 C 152.212 5.28024 -0.580048 0
M  V30 1575 C 151.251 5.9002 -1.62921 0
M  V30 1576 N 150.388 6.94485 -1.03125 0
M  V30 1577 H 155.228 2.50336 -1.61666 0
M  V30 1578 H 152.765 1.2293 -0.807882 0
M  V30 1579 H 154.723 4.16601 0.223454 0
M  V30 1580 H 153.353 3.14403 0.731467 0
M  V30 1581 H 152.405 3.41629 -1.67313 0
M  V30 1582 H 153.717 4.57178 -1.99473 0
M  V30 1583 H 152.871 6.06455 -0.172364 0
M  V30 1584 H 151.61 4.87076 0.246603 0
M  V30 1585 H 150.615 5.10291 -2.04654 0
M  V30 1586 H 151.84 6.33042 -2.45835 0
M  V30 1587 H 149.786 6.55612 -0.225711 0
M  V30 1588 H 149.703 7.35148 -1.76334 0
M  V30 1589 H 150.971 7.7679 -0.649458 0
M  V30 1590 N 155.201 0.870884 1.31352 0
M  V30 1591 C 156.164 0.332243 2.26779 0
M  V30 1592 C 157.164 -0.517302 1.52252 0
M  V30 1593 O 158.354 -0.326477 1.71113 0
M  V30 1594 C 155.486 -0.528066 3.36785 0
M  V30 1595 H 156.679 1.17469 2.75937 0
M  V30 1596 H 154.232 0.64655 1.423 0
M  V30 1597 H 154.967 -1.39167 2.92922 0
M  V30 1598 H 154.752 0.0802582 3.92018 0
M  V30 1599 H 156.242 -0.897179 4.07849 0
M  V30 1600 N 156.679 -1.44442 0.630414 0
M  V30 1601 C 157.925 -2.02351 0.134816 0
M  V30 1602 C 158.258 -1.4947 -1.23986 0
M  V30 1603 O 157.533 -0.678475 -1.82283 0
M  V30 1604 C 157.816 -3.59898 0.120707 0
M  V30 1605 C 157.669 -4.23063 1.52767 0
M  V30 1606 C 158.988 -4.36585 -0.555127 0
M  V30 1607 H 156.107 -0.73527 0.0504646 0
M  V30 1608 H 158.749 -1.72022 0.806751 0
M  V30 1609 H 156.899 -3.85868 -0.451477 0
M  V30 1610 H 158.571 -4.08202 2.14869 0
M  V30 1611 H 156.814 -3.80586 2.08175 0
M  V30 1612 H 157.485 -5.32071 1.46984 0
M  V30 1613 H 159.961 -4.16044 -0.0685429 0
M  V30 1614 H 158.837 -5.46294 -0.534185 0
M  V30 1615 H 159.098 -4.11138 -1.62535 0
M  V30 1616 N 158.157 -0.370918 -1.53173 0
M  V30 1617 C 159.406 0.218249 -2.00516 0
M  V30 1618 C 159.719 1.49429 -1.26215 0
M  V30 1619 O 160.925 2.16239 -1.64174 0
M  V30 1620 C 159.381 0.43948 -3.57207 0
M  V30 1621 C 158.989 -0.822244 -4.4039 0
M  V30 1622 C 160.733 0.986012 -4.1289 0
M  V30 1623 C 158.64 -0.570304 -5.88644 0
M  V30 1624 H 157.57 0.0853333 -0.749156 0
M  V30 1625 H 160.221 -0.490483 -1.76823 0
M  V30 1626 H 158.603 1.20961 -3.77074 0
M  V30 1627 H 159.777 -1.59557 -4.32294 0
M  V30 1628 H 158.092 -1.29238 -3.95836 0
M  V30 1629 H 160.689 1.18991 -5.21292 0
M  V30 1630 H 161.032 1.94972 -3.6782 0
M  V30 1631 H 161.565 0.27592 -3.96842 0
M  V30 1632 H 158.304 -1.50449 -6.38001 0
M  V30 1633 H 157.824 0.164427 -5.99575 0
M  V30 1634 H 159.503 -0.19784 -6.46697 0
M  V30 1635 N 159.635 1.57281 -0.100228 0
M  V30 1636 C 160.884 1.93713 0.561984 0
M  V30 1637 C 161.197 0.984492 1.69018 0
M  V30 1638 O 162.403 1.24273 2.41389 0
M  V30 1639 C 160.859 3.4421 1.05106 0
M  V30 1640 C 160.467 4.47975 -0.0476628 0
M  V30 1641 C 162.211 3.89595 1.68571 0
M  V30 1642 C 160.118 5.89631 0.457055 0
M  V30 1643 H 159.048 0.723082 0.2137 0
M  V30 1644 H 161.699 1.82644 -0.177057 0
M  V30 1645 H 160.081 3.50449 1.84395 0
M  V30 1646 H 161.255 4.53385 -0.823333 0
M  V30 1647 H 159.57 4.1223 -0.587816 0
M  V30 1648 H 162.167 4.92832 2.07414 0
M  V30 1649 H 162.51 3.28526 2.55688 0
M  V30 1650 H 163.043 3.86078 0.958562 0
M  V30 1651 H 159.782 6.54411 -0.377616 0
M  V30 1652 H 159.302 5.87681 1.19962 0
M  V30 1653 H 160.981 6.40363 0.92437 0
M  V30 1654 N 161.113 -0.173488 1.56642 0
M  V30 1655 C 162.076 -1.19859 1.95362 0
M  V30 1656 C 163.076 -1.37296 0.83704 0
M  V30 1657 O 164.266 -1.34739 1.10413 0
M  V30 1658 C 161.398 -2.56405 2.24654 0
M  V30 1659 H 162.591 -0.867062 2.87092 0
M  V30 1660 H 160.144 -0.415853 1.50666 0
M  V30 1661 H 160.879 -2.94576 1.35631 0
M  V30 1662 H 160.664 -2.45115 3.06041 0
M  V30 1663 H 162.154 -3.30287 2.5554 0
M  V30 1664 N 162.591 -1.51276 -0.441967 0
M  V30 1665 C 163.819 -1.67516 -1.21434 0
M  V30 1666 C 164.234 -0.37055 -1.85128 0
M  V30 1667 O 163.591 0.650498 -1.70513 0
M  V30 1668 C 163.642 -2.78748 -2.30177 0
M  V30 1669 O 163.363 -4.04154 -1.69089 0
M  V30 1670 C 164.864 -3.06217 -3.20541 0
M  V30 1671 H 162.084 -0.562276 -0.366178 0
M  V30 1672 H 164.628 -1.97666 -0.524244 0
M  V30 1673 H 162.783 -2.5121 -2.94911 0
M  V30 1674 H 163.197 -4.65894 -2.40922 0
M  V30 1675 H 164.671 -3.8764 -3.92987 0
M  V30 1676 H 165.148 -2.18439 -3.81026 0
M  V30 1677 H 165.754 -3.35397 -2.61513 0
M  V30 1678 N 164.069 0.697108 -1.41344 0
M  V30 1679 C 165.317 1.45426 -1.40341 0
M  V30 1680 C 165.638 1.94996 -0.0128787 0
M  V30 1681 O 164.908 1.71599 0.945027 0
M  V30 1682 H 163.488 0.539594 -0.516573 0
M  V30 1683 H 166.15 0.825201 -1.76569 0
M  V30 1684 H 165.246 2.31817 -2.08967 0
M  V30 1685 N 165.547 1.27147 0.931209 0
M  V30 1686 C 166.51 1.09615 2.01289 0
M  V30 1687 C 167.51 0.0412581 1.60747 0
M  V30 1688 O 168.7 0.285545 1.71844 0
M  V30 1689 C 165.832 0.669447 3.34262 0
M  V30 1690 H 167.025 2.05662 2.18273 0
M  V30 1691 H 164.578 1.09885 1.11153 0
M  V30 1692 H 165.313 -0.292572 3.22978 0
M  V30 1693 H 165.098 1.43127 3.65044 0
M  V30 1694 H 166.588 0.568921 4.13706 0
M  V30 1695 N 167.025 -1.13721 1.09112 0
M  V30 1696 C 167.935 -2.22638 0.73957 0
M  V30 1697 C 168.951 -1.72091 -0.257068 0
M  V30 1698 O 170.127 -2.01155 -0.0992154 0
M  V30 1699 C 167.192 -3.46322 0.16191 0
M  V30 1700 C 166.253 -4.11775 1.21408 0
M  V30 1701 C 165.486 -5.29555 0.663891 0
M  V30 1702 O 165.709 -5.68077 -0.514274 0
M  V30 1703 O 164.643 -5.84973 1.41738 0
M  V30 1704 H 168.469 -2.55074 1.64836 0
M  V30 1705 H 166.054 -1.21791 0.865289 0
M  V30 1706 H 167.936 -4.21107 -0.157073 0
M  V30 1707 H 166.611 -3.15593 -0.719932 0
M  V30 1708 H 165.518 -3.3883 1.58571 0
M  V30 1709 H 166.851 -4.46627 2.06845 0
M  V30 1710 N 168.503 -0.877838 -1.30888 0
M  V30 1711 C 169.733 -0.506678 -2.00291 0
M  V30 1712 C 170.141 0.907449 -1.66018 0
M  V30 1713 O 169.484 1.60719 -0.88967 0
M  V30 1714 C 169.546 -0.59323 -3.54572 0
M  V30 1715 C 169.21 -1.97038 -4.12341 0
M  V30 1716 C 170.207 -2.93889 -4.28865 0
M  V30 1717 C 167.892 -2.27383 -4.47886 0
M  V30 1718 C 169.886 -4.19224 -4.80136 0
M  V30 1719 C 167.573 -3.52965 -4.98857 0
M  V30 1720 C 168.571 -4.48701 -5.14934 0
M  V30 1721 O 168.259 -5.72056 -5.64808 0
M  V30 1722 H 167.991 -0.1951 -0.647234 0
M  V30 1723 H 170.545 -1.18301 -1.6791 0
M  V30 1724 H 168.775 0.140057 -3.86446 0
M  V30 1725 H 170.464 -0.234372 -4.05223 0
M  V30 1726 H 171.23 -2.71756 -4.01714 0
M  V30 1727 H 167.109 -1.53639 -4.34645 0
M  V30 1728 H 170.653 -4.93956 -4.92599 0
M  V30 1729 H 166.55 -3.74939 -5.25443 0
M  V30 1730 H 167.318 -5.74337 -5.83163 0
M  V30 1731 N 169.982 1.44106 -0.638065 0
M  V30 1732 C 170.929 2.30715 0.062701 0
M  V30 1733 C 171.899 1.43882 0.829883 0
M  V30 1734 O 173.084 1.72775 0.809532 0
M  V30 1735 C 170.224 3.29258 1.03358 0
M  V30 1736 C 169.337 4.31192 0.26409 0
M  V30 1737 C 168.472 5.16825 1.22741 0
M  V30 1738 C 167.511 6.10462 0.447475 0
M  V30 1739 N 166.648 6.8877 1.36161 0
M  V30 1740 H 171.488 2.90096 -0.681781 0
M  V30 1741 H 169.025 1.42925 -0.347988 0
M  V30 1742 H 170.983 3.84886 1.60992 0
M  V30 1743 H 169.613 2.71562 1.74511 0
M  V30 1744 H 168.665 3.77981 -0.428295 0
M  V30 1745 H 169.977 4.97619 -0.343052 0
M  V30 1746 H 169.131 5.77004 1.87487 0
M  V30 1747 H 167.87 4.50488 1.86847 0
M  V30 1748 H 166.875 5.49386 -0.213433 0
M  V30 1749 H 168.1 6.78837 -0.188968 0
M  V30 1750 H 166.046 6.25096 1.98975 0
M  V30 1751 H 165.963 7.51663 0.808656 0
M  V30 1752 H 167.231 7.53467 1.99769 0
M  V30 1753 N 171.46 0.379036 1.52974 0
M  V30 1754 C 172.407 -0.461048 2.26148 0
M  V30 1755 C 173.377 -1.06637 1.27349 0
M  V30 1756 O 174.562 -1.09633 1.56157 0
M  V30 1757 C 171.702 -1.58782 3.06402 0
M  V30 1758 C 170.815 -1.00636 4.20115 0
M  V30 1759 C 169.95 -2.10334 4.87784 0
M  V30 1760 C 168.989 -1.49724 5.93506 0
M  V30 1761 N 168.126 -2.5331 6.54812 0
M  V30 1762 H 172.966 0.169429 2.97518 0
M  V30 1763 H 170.503 0.0953806 1.4679 0
M  V30 1764 H 172.461 -2.25174 3.51215 0
M  V30 1765 H 171.091 -2.18876 2.37261 0
M  V30 1766 H 170.143 -0.232332 3.7969 0
M  V30 1767 H 171.455 -0.523343 4.96047 0
M  V30 1768 H 170.609 -2.84519 5.35849 0
M  V30 1769 H 169.348 -2.61992 4.11353 0
M  V30 1770 H 168.353 -0.740598 5.44789 0
M  V30 1771 H 169.578 -0.988732 6.71864 0
M  V30 1772 H 167.524 -3.04156 5.81227 0
M  V30 1773 H 167.441 -2.09734 7.26325 0
M  V30 1774 H 168.709 -3.27155 7.07524 0
M  V30 1775 N 172.938 -1.57226 0.108567 0
M  V30 1776 C 174.187 -1.94008 -0.551703 0
M  V30 1777 C 174.5 -0.993442 -1.68494 0
M  V30 1778 O 175.706 -1.25551 -2.40726 0
M  V30 1779 C 174.162 -3.44763 -1.03279 0
M  V30 1780 C 173.77 -4.47943 0.0714193 0
M  V30 1781 C 175.514 -3.90483 -1.66503 0
M  V30 1782 C 173.421 -5.89865 -0.425779 0
M  V30 1783 H 172.351 -0.724206 -0.209863 0
M  V30 1784 H 175.002 -1.82547 0.186741 0
M  V30 1785 H 173.384 -3.51422 -1.82533 0
M  V30 1786 H 174.558 -4.52942 0.847365 0
M  V30 1787 H 172.873 -4.11913 0.609669 0
M  V30 1788 H 175.47 -4.93925 -2.04798 0
M  V30 1789 H 175.813 -3.29877 -2.53942 0
M  V30 1790 H 176.346 -3.86581 -0.938074 0
M  V30 1791 H 173.085 -6.54202 0.412316 0
M  V30 1792 H 172.605 -5.88309 -1.16843 0
M  V30 1793 H 174.284 -6.40844 -0.890397 0
M  V30 1794 N 174.416 0.165178 -1.56732 0
M  V30 1795 C 175.664 0.879068 -1.8198 0
M  V30 1796 C 175.985 1.82514 -0.686561 0
M  V30 1797 O 175.255 1.93694 0.293146 0
M  V30 1798 H 173.835 0.327608 -0.671329 0
M  V30 1799 H 176.497 0.163526 -1.94213 0
M  V30 1800 H 175.593 1.45228 -2.76252 0
M  V30 1801 N 175.894 1.51508 0.433938 0
M  V30 1802 C 177.14 1.64588 1.18484 0
M  V30 1803 C 177.473 0.362666 1.90784 0
M  V30 1804 O 176.748 -0.637892 1.83742 0
M  V30 1805 C 177.031 2.85149 2.19913 0
M  V30 1806 C 176.884 4.23456 1.51674 0
M  V30 1807 C 178.203 3.01227 3.20858 0
M  V30 1808 H 175.322 0.598994 0.429389 0
M  V30 1809 H 177.964 1.84002 0.473647 0
M  V30 1810 H 176.114 2.68729 2.80566 0
M  V30 1811 H 177.786 4.51552 0.943322 0
M  V30 1812 H 176.029 4.25998 0.819035 0
M  V30 1813 H 176.7 5.03812 2.2556 0
M  V30 1814 H 179.176 3.16382 2.70263 0
M  V30 1815 H 178.052 3.87141 3.89118 0
M  V30 1816 H 178.313 2.13447 3.8716 0
M  V30 1817 N 177.372 -0.689602 1.41712 0
M  V30 1818 C 178.783 -1.26973 1.36875 0
M  V30 1819 C 179.134 -1.96124 0.054748 0
M  V30 1820 O 178.259 -1.99141 -0.84687 0
M  V30 1821 C 178.854 -2.30912 2.47922 0
M  V30 1822 C 177.413 -2.84486 2.46464 0
M  V30 1823 C 176.56 -1.58603 2.27465 0
M  V30 1824 H 179.511 -0.48396 1.51141 0
M  V30 1825 H 179.532 -3.12331 2.17323 0
M  V30 1826 H 179.044 -1.80554 3.43543 0
M  V30 1827 H 177.145 -3.39005 1.54617 0
M  V30 1828 H 177.258 -3.34511 3.42986 0
M  V30 1829 H 175.622 -1.84632 1.75451 0
M  V30 1830 H 176.405 -1.10233 3.25121 0
M  V30 1831 N 178.85 -1.27639 -0.924453 0
M  V30 1832 C 180.098 -1.13941 -1.66918 0
M  V30 1833 C 180.419 0.314589 -1.92446 0
M  V30 1834 O 179.689 1.21964 -1.53303 0
M  V30 1835 H 178.269 -0.418678 -0.618642 0
M  V30 1836 H 180.931 -1.60213 -1.10985 0
M  V30 1837 H 180.027 -1.67094 -2.63602 0
M  V30 1838 N 180.328 1.1314 -1.09713 0
M  V30 1839 C 181.238 2.22242 -0.751367 0
M  V30 1840 C 182.254 1.72224 0.247938 0
M  V30 1841 O 183.43 2.01205 0.0885463 0
M  V30 1842 C 180.495 3.46231 -0.180274 0
M  V30 1843 C 179.556 4.11125 -1.2359 0
M  V30 1844 C 178.789 5.29195 -0.691966 0
M  V30 1845 O 179.012 5.68342 0.48414 0
M  V30 1846 O 177.946 5.84214 -1.44838 0
M  V30 1847 H 181.772 2.54197 -1.66186 0
M  V30 1848 H 179.357 1.21331 -0.871735 0
M  V30 1849 H 181.239 4.21185 0.134739 0
M  V30 1850 H 179.914 3.1597 0.703185 0
M  V30 1851 H 178.821 3.37985 -1.60366 0
M  V30 1852 H 180.154 4.45524 -2.09211 0
M  V30 1853 N 181.806 0.884767 1.30421 0
M  V30 1854 C 182.738 0.308655 2.27112 0
M  V30 1855 C 183.751 -0.536655 1.53701 0
M  V30 1856 O 184.94 -0.35624 1.74909 0
M  V30 1857 C 182.04 -0.579782 3.33904 0
M  V30 1858 C 181.213 0.236417 4.36761 0
M  V30 1859 C 180.272 -0.582482 5.22966 0
M  V30 1860 O 179.298 -0.00525502 5.692 0
M  V30 1861 N 180.5 -1.89163 5.48815 0
M  V30 1862 H 183.265 1.13964 2.77186 0
M  V30 1863 H 180.826 0.747731 1.43599 0
M  V30 1864 H 182.818 -1.13366 3.88497 0
M  V30 1865 H 181.388 -1.31144 2.83761 0
M  V30 1866 H 180.608 0.97174 3.82035 0
M  V30 1867 H 181.896 0.795924 5.02536 0
M  V30 1868 H 181.294 -2.38352 5.13035 0
M  V30 1869 H 179.851 -2.39296 6.06284 0
M  V30 1870 N 183.284 -1.43765 0.645699 0
M  V30 1871 C 184.194 -2.34544 -0.0512957 0
M  V30 1872 C 185.21 -1.53455 -0.82022 0
M  V30 1873 O 186.386 -1.86133 -0.769176 0
M  V30 1874 C 183.451 -3.31636 -1.01087 0
M  V30 1875 C 182.512 -4.2863 -0.239712 0
M  V30 1876 C 181.745 -5.21084 -1.15358 0
M  V30 1877 O 181.968 -5.1779 -2.39269 0
M  V30 1878 O 180.902 -5.98593 -0.630038 0
M  V30 1879 H 184.728 -2.95624 0.695718 0
M  V30 1880 H 182.313 -1.43781 0.405882 0
M  V30 1881 H 184.195 -3.9136 -1.56254 0
M  V30 1882 H 182.87 -2.73069 -1.73824 0
M  V30 1883 H 181.777 -3.72408 0.355356 0
M  V30 1884 H 183.11 -4.90157 0.447936 0
M  V30 1885 N 184.763 -0.387143 -1.52771 0
M  V30 1886 C 185.693 0.440551 -2.29306 0
M  V30 1887 C 186.674 1.06535 -1.32606 0
M  V30 1888 O 187.859 1.07853 -1.61497 0
M  V30 1889 C 184.989 1.56919 -3.09829 0
M  V30 1890 C 183.943 1.07054 -4.14395 0
M  V30 1891 C 183.269 2.29109 -4.83129 0
M  V30 1892 C 184.569 0.140015 -5.22112 0
M  V30 1893 H 186.263 -0.198026 -2.98744 0
M  V30 1894 H 183.809 -0.09668 -1.43675 0
M  V30 1895 H 185.762 2.15503 -3.62128 0
M  V30 1896 H 184.486 2.23532 -2.3812 0
M  V30 1897 H 183.145 0.507247 -3.63074 0
M  V30 1898 H 182.793 2.94227 -4.0797 0
M  V30 1899 H 182.493 1.96406 -5.53804 0
M  V30 1900 H 184.017 2.88339 -5.38231 0
M  V30 1901 H 185.431 0.633978 -5.69784 0
M  V30 1902 H 183.828 -0.0971485 -6.00021 0
M  V30 1903 H 184.898 -0.811711 -4.78058 0
M  V30 1904 N 186.241 1.57166 -0.116904 0
M  V30 1905 C 187.489 1.94737 0.540533 0
M  V30 1906 C 187.81 1.00096 1.67349 0
M  V30 1907 O 187.08 0.0568854 1.95817 0
M  V30 1908 H 185.66 0.718981 0.202669 0
M  V30 1909 H 188.322 1.94017 -0.185353 0
M  V30 1910 H 187.418 2.97719 0.936483 0
M  V30 1911 N 187.719 -0.156864 1.56817 0
M  V30 1912 C 188.967 -0.869404 1.82444 0
M  V30 1913 C 189.288 -1.82147 0.69623 0
M  V30 1914 O 188.558 -1.93847 -0.28287 0
M  V30 1915 H 187.138 -0.324043 0.673056 0
M  V30 1916 H 189.8 -0.153224 1.94297 0
M  V30 1917 H 188.896 -1.43761 2.77019 0
M  V30 1918 N 189.197 -1.51736 -0.425897 0
M  V30 1919 C 190.613 -1.40166 -0.76326 0
M  V30 1920 C 190.813 -0.492962 -1.95377 0
M  V30 1921 O 189.869 0.0475815 -2.52455 0
M  V30 1922 C 191.182 -2.82403 -1.03291 0
M  V30 1923 C 192.73 -2.91632 -1.13665 0
M  V30 1924 C 193.205 -4.34801 -1.43916 0
M  V30 1925 N 194.696 -4.3796 -1.50816 0
M  V30 1926 C 195.431 -5.4578 -1.75817 0
M  V30 1927 N 194.927 -6.63744 -1.98534 0
M  V30 1928 N 196.72 -5.33274 -1.77694 0
M  V30 1929 H 188.871 -2.09361 0.358 0
M  V30 1930 H 191.134 -0.942941 0.0978094 0
M  V30 1931 H 190.84 -3.50943 -0.230696 0
M  V30 1932 H 190.714 -3.22428 -1.95754 0
M  V30 1933 H 193.101 -2.23284 -1.92947 0
M  V30 1934 H 193.182 -2.55088 -0.190756 0
M  V30 1935 H 192.826 -5.03703 -0.65157 0
M  V30 1936 H 192.756 -4.68868 -2.39729 0
M  V30 1937 H 195.247 -3.52919 -1.35118 0
M  V30 1938 H 195.56 -7.41704 -2.17013 0
M  V30 1939 H 193.905 -6.66839 -1.95832 0
M  V30 1940 H 197.096 -4.40098 -1.59473 0
M  V30 1941 H 197.269 -6.1738 -1.9684 0
M  V30 1942 N 190.675 0.682077 -1.42076 0
M  V30 1943 C 191.923 1.4393 -1.41876 0
M  V30 1944 C 192.244 1.94971 -0.0335599 0
M  V30 1945 O 191.514 1.72591 0.926773 0
M  V30 1946 H 190.094 0.534085 -0.522267 0
M  V30 1947 H 192.756 0.806427 -1.77434 0
M  V30 1948 H 191.852 2.29588 -2.11414 0
M  V30 1949 N 192.153 1.28127 0.917671 0
M  V30 1950 C 193.399 1.15223 1.66888 0
M  V30 1951 C 193.732 -0.299293 1.9188 0
M  V30 1952 O 193.007 -1.21805 1.51637 0
M  V30 1953 C 193.29 1.94706 3.02922 0
M  V30 1954 C 193.143 3.47898 2.85109 0
M  V30 1955 C 194.462 1.75939 4.03402 0
M  V30 1956 H 191.581 0.419946 0.605652 0
M  V30 1957 H 194.223 1.57398 1.06423 0
M  V30 1958 H 192.373 1.58864 3.54534 0
M  V30 1959 H 194.045 3.93624 2.40537 0
M  V30 1960 H 192.288 3.7373 2.20246 0
M  V30 1961 H 192.959 3.98765 3.81694 0
M  V30 1962 H 195.435 2.07209 3.60837 0
M  V30 1963 H 194.311 2.33931 4.96556 0
M  V30 1964 H 194.572 0.709877 4.36364 0
M  V30 1965 N 193.631 -1.12557 1.10312 0
M  V30 1966 C 194.856 -1.88405 0.867085 0
M  V30 1967 C 195.281 -1.79038 -0.576817 0
M  V30 1968 O 194.639 -1.14439 -1.40618 0
M  V30 1969 C 194.687 -3.3563 1.31851 0
M  V30 1970 O 193.791 -4.09565 0.482734 0
M  V30 1971 H 193.132 -0.585455 0.313271 0
M  V30 1972 H 195.662 -1.42352 1.4696 0
M  V30 1973 H 195.672 -3.86469 1.3079 0
M  V30 1974 H 194.347 -3.41765 2.37001 0
M  V30 1975 H 192.924 -3.68695 0.558448 0
M  V30 1976 N 195.109 -0.891671 -1.2995 0
M  V30 1977 C 196.339 -0.527893 -1.99742 0
M  V30 1978 C 196.747 0.88979 -1.66971 0
M  V30 1979 O 196.09 1.59766 -0.906667 0
M  V30 1980 C 196.152 -0.630804 -3.53922 0
M  V30 1981 C 195.816 -2.01401 -4.10228 0
M  V30 1982 C 196.813 -2.98422 -4.25724 0
M  V30 1983 C 194.498 -2.32121 -4.45449 0
M  V30 1984 C 196.492 -4.24293 -4.75662 0
M  V30 1985 C 194.179 -3.58237 -4.95086 0
M  V30 1986 C 195.177 -4.54137 -5.10146 0
M  V30 1987 O 194.865 -5.78014 -5.58708 0
M  V30 1988 H 194.597 -0.201953 -0.645129 0
M  V30 1989 H 197.151 -1.20076 -1.66646 0
M  V30 1990 H 195.381 0.0990616 -3.86573 0
M  V30 1991 H 197.07 -0.277338 -4.04951 0
M  V30 1992 H 197.836 -2.76001 -3.98809 0
M  V30 1993 H 193.715 -1.5824 -4.32991 0
M  V30 1994 H 197.259 -4.99153 -4.87332 0
M  V30 1995 H 193.156 -3.80491 -5.21437 0
M  V30 1996 H 193.924 -5.8049 -5.77039 0
M  V30 1997 N 196.587 1.43421 -0.653314 0
M  V30 1998 C 197.827 2.03689 -0.170346 0
M  V30 1999 C 198.191 1.50427 1.19314 0
M  V30 2000 O 199.392 2.0234 1.76952 0
M  V30 2001 C 197.663 3.56946 -0.180183 0
M  V30 2002 S 199.222 4.38171 0.234925 0
M  V30 2003 H 196.04 0.707345 -0.0719976 0
M  V30 2004 H 198.642 1.75486 -0.86167 0
M  V30 2005 H 197.346 3.93212 -1.17526 0
M  V30 2006 H 196.877 3.89791 0.531675 0
M  V30 2007 H 198.892 4.73808 1.47378 0
M  V30 2008 N 198.065 0.39524 1.52563 0
M  V30 2009 C 199.028 -0.425001 2.25225 0
M  V30 2010 C 200.028 -0.985266 1.27079 0
M  V30 2011 O 201.218 -0.866332 1.5113 0
M  V30 2012 C 198.35 -1.59686 3.01186 0
M  V30 2013 H 199.543 0.211233 2.99155 0
M  V30 2014 H 197.096 0.147472 1.55603 0
M  V30 2015 H 197.831 -2.27035 2.31572 0
M  V30 2016 H 197.616 -1.20176 3.73229 0
M  V30 2017 H 199.106 -2.17743 3.5634 0
M  V30 2018 N 199.544 -1.57102 0.125237 0
M  V30 2019 C 200.79 -1.95697 -0.532035 0
M  V30 2020 C 201.123 -1.009 -1.6593 0
M  V30 2021 O 200.398 -0.047347 -1.94442 0
M  V30 2022 C 200.681 -3.44181 -1.05884 0
M  V30 2023 C 200.534 -4.49752 0.0654392 0
M  V30 2024 C 201.853 -3.94655 -1.9477 0
M  V30 2025 H 198.972 -0.711571 -0.191925 0
M  V30 2026 H 201.614 -1.88923 0.20206 0
M  V30 2027 H 199.764 -3.50085 -1.68442 0
M  V30 2028 H 201.436 -4.55943 0.700982 0
M  V30 2029 H 199.679 -4.27653 0.727709 0
M  V30 2030 H 200.35 -5.50924 -0.344505 0
M  V30 2031 H 202.826 -3.91094 -1.42074 0
M  V30 2032 H 201.702 -4.99057 -2.28546 0
M  V30 2033 H 201.963 -3.35718 -2.87656 0
M  V30 2034 N 201.022 0.148545 -1.56898 0
M  V30 2035 C 202.262 0.86765 -1.85071 0
M  V30 2036 C 202.626 1.78417 -0.709317 0
M  V30 2037 O 203.827 2.54261 -0.872049 0
M  V30 2038 C 202.098 1.62306 -3.1842 0
M  V30 2039 S 203.657 2.3878 -3.68143 0
M  V30 2040 H 200.475 0.290174 -0.649092 0
M  V30 2041 H 203.077 0.127755 -1.95082 0
M  V30 2042 H 201.781 0.941192 -3.99462 0
M  V30 2043 H 201.312 2.4039 -3.1141 0
M  V30 2044 H 203.327 3.63942 -3.37285 0
M  V30 2045 N 202.5 1.5196 0.417844 0
M  V30 2046 C 203.777 1.56146 1.17803 0
M  V30 2047 C 204.157 0.337275 2.08388 0
M  V30 2048 O 203.505 -0.676447 2.18258 0
M  V30 2049 C 203.715 2.88566 1.96293 0
M  V30 2050 C 205.063 3.41244 2.52662 0
M  V30 2051 O 206.087 2.90247 2.06483 0
M  V30 2052 O 204.946 4.30273 3.36938 0
M  V30 2053 H 202.04 0.628598 0.537395 0
M  V30 2054 H 204.586 1.64283 0.425331 0
M  V30 2055 H 203.358 3.69116 1.2988 0
M  V30 2056 H 202.981 2.83681 2.78587 0
M  V30 2057 N 203.978 -0.674533 1.42435 0
M  V30 2058 C 205.226 -1.43175 1.42637 0
M  V30 2059 C 205.547 -1.94951 0.0438992 0
M  V30 2060 O 204.817 -1.7308 -0.917607 0
M  V30 2061 H 203.397 -0.531307 0.525092 0
M  V30 2062 H 206.059 -0.797006 1.77859 0
M  V30 2063 H 205.155 -2.28463 2.12629 0
M  V30 2064 N 205.456 -1.28612 -0.910864 0
M  V30 2065 C 206.419 -1.12803 -1.9952 0
M  V30 2066 C 207.419 -0.0668264 -1.60661 0
M  V30 2067 O 208.609 -0.312847 -1.71368 0
M  V30 2068 C 205.741 -0.72254 -3.33155 0
M  V30 2069 H 206.934 -2.09109 -2.14973 0
M  V30 2070 H 204.487 -1.11639 -1.09391 0
M  V30 2071 H 205.222 0.241152 -3.23402 0
M  V30 2072 H 205.007 -1.48916 -3.62721 0
M  V30 2073 H 206.497 -0.634666 -4.12749 0
M  V30 2074 N 206.934 1.1197 -1.10907 0
M  V30 2075 C 208.181 1.83588 -0.854507 0
M  V30 2076 C 208.509 1.84357 0.6199 0
M  V30 2077 O 207.764 1.28809 1.47332 0
M  V30 2078 C 208.063 3.30749 -1.35425 0
M  V30 2079 C 207.729 3.50146 -2.84093 0
M  V30 2080 C 206.391 3.55148 -3.2469 0
M  V30 2081 C 208.743 3.56857 -3.79872 0
M  V30 2082 C 206.071 3.6441 -4.59806 0
M  V30 2083 C 208.423 3.6765 -5.14797 0
M  V30 2084 C 207.087 3.7091 -5.54961 0
M  V30 2085 H 206.357 0.671795 -0.312686 0
M  V30 2086 H 209.004 1.32091 -1.38652 0
M  V30 2087 H 207.309 3.84703 -0.742361 0
M  V30 2088 H 209.006 3.8464 -1.1337 0
M  V30 2089 H 205.596 3.46919 -2.51685 0
M  V30 2090 H 209.78 3.52258 -3.49611 0
M  V30 2091 H 205.036 3.65208 -4.9034 0
M  V30 2092 H 209.21 3.71786 -5.88853 0
M  V30 2093 H 206.837 3.7784 -6.59652 0
M  V30 2094 N 208.412 0.89855 1.29475 0
M  V30 2095 C 209.659 0.523882 1.95606 0
M  V30 2096 C 209.987 -0.929608 1.70847 0
M  V30 2097 O 209.242 -1.67401 1.01367 0
M  V30 2098 C 209.541 0.761398 3.49195 0
M  V30 2099 C 209.207 2.19207 3.94029 0
M  V30 2100 C 207.869 2.58326 4.05982 0
M  V30 2101 C 210.221 3.12379 4.17216 0
M  V30 2102 C 207.549 3.898 4.38489 0
M  V30 2103 C 209.901 4.43401 4.51197 0
M  V30 2104 C 208.565 4.82394 4.61359 0
M  V30 2105 H 207.835 0.191702 0.715773 0
M  V30 2106 H 210.482 1.13699 1.54094 0
M  V30 2107 H 208.787 0.0653622 3.91745 0
M  V30 2108 H 210.484 0.450904 3.98457 0
M  V30 2109 H 207.074 1.87846 3.85242 0
M  V30 2110 H 211.258 2.83371 4.07449 0
M  V30 2111 H 206.514 4.19734 4.44559 0
M  V30 2112 H 210.688 5.15623 4.68087 0
M  V30 2113 H 208.315 5.84306 4.86303 0
M  V30 2114 N 209.89 -1.43072 0.660911 0
M  V30 2115 C 210.837 -2.30785 -0.0259884 0
M  V30 2116 C 211.807 -1.45184 -0.806888 0
M  V30 2117 O 212.992 -1.74041 -0.781943 0
M  V30 2118 C 210.132 -3.30861 -0.981067 0
M  V30 2119 C 209.245 -4.31558 -0.195458 0
M  V30 2120 C 208.38 -5.18712 -1.14503 0
M  V30 2121 C 207.419 -6.11097 -0.350299 0
M  V30 2122 N 206.556 -6.90849 -1.25186 0
M  V30 2123 H 211.396 -2.88975 0.727846 0
M  V30 2124 H 208.933 -1.42353 0.370682 0
M  V30 2125 H 210.891 -3.87399 -1.54849 0
M  V30 2126 H 209.521 -2.74304 -1.70169 0
M  V30 2127 H 208.573 -3.77252 0.488374 0
M  V30 2128 H 209.885 -4.9701 0.422176 0
M  V30 2129 H 209.039 -5.79914 -1.78284 0
M  V30 2130 H 207.778 -4.53404 -1.79656 0
M  V30 2131 H 206.783 -5.48976 0.300808 0
M  V30 2132 H 208.008 -6.7845 0.296941 0
M  V30 2133 H 205.954 -6.28182 -1.89005 0
M  V30 2134 H 205.871 -7.52854 -0.688971 0
M  V30 2135 H 207.139 -7.5655 -1.87757 0
M  V30 2136 N 211.368 -0.403325 -1.52352 0
M  V30 2137 C 212.316 0.439752 -2.28405 0
M  V30 2138 C 213.31 1.05089 -1.32863 0
M  V30 2139 O 214.516 0.989759 -1.50345 0
M  V30 2140 H 210.891 0.160587 -0.734653 0
M  V30 2141 H 212.862 -0.222983 -2.97566 0
M  V30 2142 C 211.611 1.54736 -3.11371 0
M  V30 2143 H 210.934 1.08643 -3.84755 0
M  V30 2144 H 212.374 2.1112 -3.67701 0
M  V30 2145 C 210.833 2.51141 -2.24566 0
M  V30 2146 O 211.363 3.54887 -1.88196 0
M  V30 2147 N 209.569 2.21213 -1.8845 0
M  V30 2148 H 209.116 1.36878 -2.18225 0
M  V30 2149 H 209.074 2.85963 -1.30662 0
M  V30 2150 N 212.846 1.57033 -0.133567 0
M  V30 2151 C 213.793 2.16074 0.811208 0
M  V30 2152 C 214.763 1.08979 1.2535 0
M  V30 2153 O 215.948 1.36958 1.32843 0
M  V30 2154 C 213.088 2.77595 2.05024 0
M  V30 2155 C 212.201 3.99042 1.65498 0
M  V30 2156 C 211.336 4.48603 2.84479 0
M  V30 2157 C 210.375 5.62547 2.41262 0
M  V30 2158 N 209.512 6.06787 3.53206 0
M  V30 2159 H 214.352 2.96477 0.300906 0
M  V30 2160 H 211.889 1.46462 0.136822 0
M  V30 2161 H 213.847 3.11402 2.77642 0
M  V30 2162 H 212.477 1.99859 2.53488 0
M  V30 2163 H 211.529 3.71302 0.826981 0
M  V30 2164 H 212.841 4.81629 1.29748 0
M  V30 2165 H 211.995 4.84395 3.65303 0
M  V30 2166 H 210.734 3.64995 3.23465 0
M  V30 2167 H 209.739 5.26345 1.58874 0
M  V30 2168 H 210.964 6.47931 2.03377 0
M  V30 2169 H 208.91 5.26117 3.91838 0
M  V30 2170 H 208.827 6.84266 3.21427 0
M  V30 2171 H 210.095 6.4722 4.34427 0
M  V30 2172 N 214.325 -0.140222 1.56975 0
M  V30 2173 C 215.741 -0.493088 1.51792 0
M  V30 2174 C 215.941 -1.83013 0.843116 0
M  V30 2175 O 214.997 -2.49041 0.416493 0
M  V30 2176 C 216.31 -0.497144 2.96562 0
M  V30 2177 C 217.858 -0.582186 3.07538 0
M  V30 2178 C 218.333 -0.616838 4.53827 0
M  V30 2179 N 219.824 -0.678873 4.58198 0
M  V30 2180 C 220.559 -0.726782 5.68775 0
M  V30 2181 N 220.055 -0.733623 6.88905 0
M  V30 2182 N 221.848 -0.768179 5.56826 0
M  V30 2183 H 213.999 0.736108 1.99237 0
M  V30 2184 H 216.262 0.269182 0.90898 0
M  V30 2185 H 215.968 0.417217 3.49217 0
M  V30 2186 H 215.842 -1.33263 3.52875 0
M  V30 2187 H 218.229 -1.48697 2.54899 0
M  V30 2188 H 218.31 0.280581 2.54257 0
M  V30 2189 H 217.954 0.283812 5.07106 0
M  V30 2190 H 217.884 -1.49619 5.04898 0
M  V30 2191 H 220.375 -0.68061 3.7172 0
M  V30 2192 H 220.688 -0.772215 7.68932 0
M  V30 2193 H 219.033 -0.701389 6.91452 0
M  V30 2194 H 222.224 -0.760051 4.61888 0
M  V30 2195 H 222.397 -0.80205 6.43017 0
M  V30 2196 N 215.803 -1.52179 -0.40978 0
M  V30 2197 C 216.733 -1.78435 -1.5061 0
M  V30 2198 C 217.714 -0.635295 -1.57791 0
M  V30 2199 O 218.899 -0.880823 -1.73076 0
M  V30 2200 C 216.029 -1.93444 -2.88439 0
M  V30 2201 C 214.983 -3.09038 -2.96108 0
M  V30 2202 C 214.309 -3.09268 -4.36185 0
M  V30 2203 C 215.609 -4.48508 -2.67652 0
M  V30 2204 H 217.303 -2.70237 -1.28889 0
M  V30 2205 H 214.849 -1.30036 -0.618605 0
M  V30 2206 H 216.802 -2.10394 -3.65119 0
M  V30 2207 H 215.526 -0.983129 -3.11452 0
M  V30 2208 H 214.185 -2.91837 -2.21872 0
M  V30 2209 H 213.833 -2.11861 -4.56206 0
M  V30 2210 H 213.533 -3.86907 -4.42241 0
M  V30 2211 H 215.057 -3.28348 -5.14801 0
M  V30 2212 H 216.471 -4.65918 -3.34056 0
M  V30 2213 H 214.868 -5.28059 -2.85085 0
M  V30 2214 H 215.938 -4.56649 -1.63095 0
M  V30 2215 N 217.281 0.66697 -1.42791 0
M  V30 2216 C 218.528 1.42699 -1.43678 0
M  V30 2217 C 218.856 1.94419 -0.0560425 0
M  V30 2218 O 218.111 1.7182 0.936831 0
M  V30 2219 C 218.41 2.6349 -2.4147 0
M  V30 2220 C 218.076 2.30267 -3.8767 0
M  V30 2221 C 216.738 2.20918 -4.27491 0
M  V30 2222 C 219.09 2.03435 -4.79858 0
M  V30 2223 C 216.418 1.82873 -5.57471 0
M  V30 2224 C 218.77 1.66892 -6.10188 0
M  V30 2225 C 217.434 1.56058 -6.49001 0
M  V30 2226 H 216.704 0.522171 -0.525755 0
M  V30 2227 H 219.351 0.759785 -1.75783 0
M  V30 2228 H 217.656 3.35279 -2.0272 0
M  V30 2229 H 219.353 3.21684 -2.39417 0
M  V30 2230 H 215.943 2.38449 -3.56146 0
M  V30 2231 H 220.127 2.09586 -4.49875 0
M  V30 2232 H 215.383 1.7306 -5.86396 0
M  V30 2233 H 219.557 1.45157 -6.81104 0
M  V30 2234 H 217.184 1.26348 -7.49627 0
M  V30 2235 N 218.759 1.29093 0.90403 0
M  V30 2236 C 220.005 1.16986 1.65656 0
M  V30 2237 C 220.338 -0.278925 1.92186 0
M  V30 2238 O 219.613 -1.2019 1.5292 0
M  V30 2239 C 219.896 1.97908 3.0084 0
M  V30 2240 C 219.749 3.50903 2.81403 0
M  V30 2241 C 221.068 1.80208 4.01513 0
M  V30 2242 H 218.187 0.426346 0.601164 0
M  V30 2243 H 220.829 1.58518 1.04747 0
M  V30 2244 H 218.979 1.62616 3.52829 0
M  V30 2245 H 220.651 3.96153 2.36348 0
M  V30 2246 H 218.894 3.76045 2.1627 0
M  V30 2247 H 219.565 4.02791 3.77443 0
M  V30 2248 H 222.041 2.11025 3.58619 0
M  V30 2249 H 220.917 2.39184 4.94047 0
M  V30 2250 H 221.178 0.756119 4.35586 0
M  V30 2251 N 220.237 -1.11381 1.11499 0
M  V30 2252 C 221.486 -1.82494 0.858993 0
M  V30 2253 C 221.799 -1.85605 -0.617278 0
M  V30 2254 O 223.005 -2.52824 -0.989552 0
M  V30 2255 C 221.461 -3.27745 1.48699 0
M  V30 2256 C 221.069 -3.32961 2.99735 0
M  V30 2257 C 222.813 -4.03754 1.31085 0
M  V30 2258 C 220.72 -4.72612 3.55516 0
M  V30 2259 H 219.65 -0.683802 0.317696 0
M  V30 2260 H 222.301 -1.25331 1.34031 0
M  V30 2261 H 220.683 -3.84844 0.933339 0
M  V30 2262 H 221.857 -2.85741 3.61509 0
M  V30 2263 H 220.172 -2.70433 3.16631 0
M  V30 2264 H 222.769 -5.06891 1.70192 0
M  V30 2265 H 223.112 -4.15527 0.253496 0
M  V30 2266 H 223.645 -3.53043 1.83318 0
M  V30 2267 H 220.384 -4.66036 4.60967 0
M  V30 2268 H 219.904 -5.2024 2.98513 0
M  V30 2269 H 221.583 -5.4157 3.53992 0
M  V30 2270 N 221.715 -0.905404 -1.28997 0
M  V30 2271 C 222.963 -0.533192 -1.9494 0
M  V30 2272 C 223.284 0.924618 -1.71685 0
M  V30 2273 O 222.554 1.65268 -1.05183 0
M  V30 2274 H 221.134 -0.194194 -0.721317 0
M  V30 2275 H 223.796 -1.15294 -1.57141 0
M  V30 2276 H 222.892 -0.72059 -3.03667 0
M  V30 2277 N 223.193 1.4272 -0.668489 0
M  V30 2278 C 224.441 2.01226 -0.187769 0
M  V30 2279 C 224.762 1.53092 1.2078 0
M  V30 2280 O 224.032 0.74993 1.80977 0
M  V30 2281 H 222.612 0.744041 -0.0664272 0
M  V30 2282 H 225.274 1.74723 -0.863583 0
M  V30 2283 H 224.37 3.11556 -0.184166 0
M  V30 2284 N 224.671 0.411399 1.52136 0
M  V30 2285 C 225.919 -0.163322 2.01439 0
M  V30 2286 C 226.24 -1.45453 1.29879 0
M  V30 2287 O 225.51 -1.91225 0.4254 0
M  V30 2288 H 224.09 -0.0633447 0.744309 0
M  V30 2289 H 226.752 0.548161 1.87033 0
M  V30 2290 H 225.848 -0.357817 3.10042 0
M  V30 2291 N 226.149 -1.5696 0.141893 0
M  V30 2292 C 227.426 -1.87553 -0.555281 0
M  V30 2293 C 227.806 -1.04699 -1.83306 0
M  V30 2294 O 227.154 -0.132346 -2.28116 0
M  V30 2295 C 227.364 -3.39093 -0.825664 0
M  V30 2296 C 228.712 -4.08199 -1.16869 0
M  V30 2297 O 229.736 -3.44242 -0.915185 0
M  V30 2298 O 228.595 -5.21139 -1.6455 0
M  V30 2299 H 225.689 -0.777188 -0.282679 0
M  V30 2300 H 228.235 -1.68763 0.17812 0
M  V30 2301 H 227.007 -3.91221 0.0788633 0
M  V30 2302 H 226.63 -3.63393 -1.61343 0
M  V30 2303 N 227.627 0.131896 -1.57047 0
M  V30 2304 C 228.852 0.860418 -1.8871 0
M  V30 2305 C 229.277 1.73251 -0.73251 0
M  V30 2306 O 228.635 1.785 0.317429 0
M  V30 2307 C 228.683 1.68047 -3.19049 0
M  V30 2308 O 227.787 2.7862 -3.04047 0
M  V30 2309 H 227.128 0.238743 -0.619595 0
M  V30 2310 H 229.658 0.118169 -2.04258 0
M  V30 2311 H 229.668 2.07238 -3.51449 0
M  V30 2312 H 228.343 1.04018 -4.02682 0
M  V30 2313 H 226.92 2.42726 -2.83088 0
M  V30 2314 N 229.106 1.52395 0.401703 0
M  V30 2315 C 230.069 1.75636 1.47257 0
M  V30 2316 C 231.069 0.62628 1.48103 0
M  V30 2317 O 232.259 0.894227 1.49497 0
M  V30 2318 C 229.391 1.84553 2.86624 0
M  V30 2319 H 230.584 2.71241 1.27938 0
M  V30 2320 H 228.137 1.42923 0.632662 0
M  V30 2321 H 228.872 0.908882 3.11303 0
M  V30 2322 H 228.657 2.66715 2.87412 0
M  V30 2323 H 230.147 2.04251 3.64241 0
M  V30 2324 N 230.584 -0.659388 1.43143 0
M  V30 2325 C 231.83 -1.42145 1.44647 0
M  V30 2326 C 232.163 -1.9408 0.0681907 0
M  V30 2327 O 231.438 -1.71899 -0.910007 0
M  V30 2328 C 231.721 -2.60735 2.48373 0
M  V30 2329 C 231.574 -2.14332 3.95451 0
M  V30 2330 C 232.893 -3.62951 2.48906 0
M  V30 2331 H 230.012 -0.51552 0.526696 0
M  V30 2332 H 232.654 -0.748069 1.74654 0
M  V30 2333 H 230.804 -3.18184 2.22916 0
M  V30 2334 H 232.476 -1.61932 4.31944 0
M  V30 2335 H 230.719 -1.4576 4.08578 0
M  V30 2336 H 231.39 -2.99583 4.63631 0
M  V30 2337 H 233.866 -3.1525 2.71582 0
M  V30 2338 H 232.742 -4.43487 3.23435 0
M  V30 2339 H 233.003 -4.15126 1.52061 0
M  V30 2340 N 232.062 -1.29571 -0.897171 0
M  V30 2341 C 232.972 -1.16808 -2.03453 0
M  V30 2342 C 233.988 -0.0907471 -1.73763 0
M  V30 2343 O 235.164 -0.303312 -1.99103 0
M  V30 2344 C 232.229 -0.848264 -3.36163 0
M  V30 2345 C 231.29 -2.0097 -3.79354 0
M  V30 2346 C 230.523 -1.70505 -5.05731 0
M  V30 2347 O 230.746 -0.62718 -5.66941 0
M  V30 2348 O 229.68 -2.5538 -5.45036 0
M  V30 2349 H 233.506 -2.12325 -2.17144 0
M  V30 2350 H 231.091 -1.09047 -1.02123 0
M  V30 2351 H 232.973 -0.684581 -4.15802 0
M  V30 2352 H 231.648 0.0771071 -3.23608 0
M  V30 2353 H 230.555 -2.22863 -3.00471 0
M  V30 2354 H 231.888 -2.91636 -3.96496 0
M  V30 2355 N 233.54 1.10788 -1.12088 0
M  V30 2356 C 234.45 2.20599 -0.798338 0
M  V30 2357 C 235.466 1.72712 0.21135 0
M  V30 2358 O 236.642 2.01348 0.0458477 0
M  V30 2359 C 233.707 3.45771 -0.253674 0
M  V30 2360 C 232.768 4.08411 -1.32283 0
M  V30 2361 C 232.001 5.27608 -0.80406 0
M  V30 2362 O 232.224 5.69241 0.363478 0
M  V30 2363 O 231.158 5.8101 -1.57198 0
M  V30 2364 H 234.984 2.50614 -1.7154 0
M  V30 2365 H 232.569 1.19454 -0.897275 0
M  V30 2366 H 234.451 4.21376 0.0453691 0
M  V30 2367 H 233.126 3.1739 0.636005 0
M  V30 2368 H 232.033 3.34507 -1.67499 0
M  V30 2369 H 233.366 4.40986 -2.18614 0
M  V30 2370 N 235.018 0.912232 1.28515 0
M  V30 2371 C 236.266 0.543523 1.94654 0
M  V30 2372 C 236.587 -0.9155 1.72173 0
M  V30 2373 O 235.857 -1.64708 1.06058 0
M  V30 2374 H 234.437 0.198017 0.720277 0
M  V30 2375 H 237.099 1.16126 1.56527 0
M  V30 2376 H 236.195 0.736684 3.03281 0
M  V30 2377 N 236.496 -1.42363 0.676048 0
M  V30 2378 C 237.724 -2.05859 0.207268 0
M  V30 2379 C 238.139 -1.50796 -1.13605 0
M  V30 2380 O 237.496 -0.648265 -1.70598 0
M  V30 2381 C 237.547 -3.61248 0.134975 0
M  V30 2382 O 237.268 -4.1427 1.42521 0
M  V30 2383 C 238.769 -4.41859 -0.357151 0
M  V30 2384 H 235.989 -0.663431 0.100503 0
M  V30 2385 H 238.533 -1.82479 0.923136 0
M  V30 2386 H 236.688 -3.83735 -0.531588 0
M  V30 2387 H 237.102 -5.0815 1.29939 0
M  V30 2388 H 238.576 -5.50847 -0.356641 0
M  V30 2389 H 239.053 -4.16536 -1.39264 0
M  V30 2390 H 239.659 -4.24392 0.27772 0
M  V30 2391 N 237.974 -0.419461 -1.51915 0
M  V30 2392 C 239.221 0.152939 -2.01922 0
M  V30 2393 C 239.549 1.4426 -1.30458 0
M  V30 2394 O 238.804 1.91514 -0.402593 0
M  V30 2395 C 239.103 0.437067 -3.54717 0
M  V30 2396 C 238.769 -0.764632 -4.44369 0
M  V30 2397 C 237.431 -1.09423 -4.68594 0
M  V30 2398 C 239.783 -1.56713 -4.97082 0
M  V30 2399 C 237.111 -2.22732 -5.42777 0
M  V30 2400 C 239.463 -2.69107 -5.72507 0
M  V30 2401 C 238.127 -3.02541 -5.95 0
M  V30 2402 H 237.397 0.0559644 -0.738884 0
M  V30 2403 H 240.044 -0.562998 -1.83037 0
M  V30 2404 H 238.349 1.23469 -3.71837 0
M  V30 2405 H 240.046 0.893083 -3.90928 0
M  V30 2406 H 236.636 -0.497775 -4.257 0
M  V30 2407 H 240.82 -1.32571 -4.78266 0
M  V30 2408 H 236.076 -2.48971 -5.58411 0
M  V30 2409 H 240.25 -3.31671 -6.12346 0
M  V30 2410 H 237.877 -3.90457 -6.52264 0
M  V30 2411 N 239.452 1.56882 -0.150215 0
M  V30 2412 C 240.382 2.19935 0.784284 0
M  V30 2413 C 241.363 1.14854 1.25469 0
M  V30 2414 O 242.548 1.43209 1.31168 0
M  V30 2415 C 239.678 2.82349 2.02229 0
M  V30 2416 C 238.632 3.93285 1.68853 0
M  V30 2417 C 237.958 4.42649 2.99944 0
M  V30 2418 C 239.258 5.13904 0.932714 0
M  V30 2419 H 240.952 2.9828 0.258781 0
M  V30 2420 H 238.498 1.43473 0.123029 0
M  V30 2421 H 240.451 3.25126 2.68088 0
M  V30 2422 H 239.175 2.0134 2.57157 0
M  V30 2423 H 237.834 3.5113 1.05371 0
M  V30 2424 H 237.482 3.58458 3.52869 0
M  V30 2425 H 237.182 5.17476 2.78374 0
M  V30 2426 H 238.706 4.88099 3.66868 0
M  V30 2427 H 240.12 5.53506 1.49345 0
M  V30 2428 H 238.517 5.94515 0.81684 0
M  V30 2429 H 239.587 4.84842 -0.0749568 0
M  V30 2430 N 240.93 -0.123565 1.57115 0
M  V30 2431 C 242.158 -0.846461 1.88793 0
M  V30 2432 C 242.573 -1.73652 0.740976 0
M  V30 2433 O 241.93 -1.80207 -0.288393 0
M  V30 2434 C 241.981 -1.6837 3.19897 0
M  V30 2435 O 241.702 -0.829477 4.30176 0
M  V30 2436 C 243.203 -2.51214 3.65248 0
M  V30 2437 H 240.423 -0.243573 0.625231 0
M  V30 2438 H 242.967 -0.109324 2.04208 0
M  V30 2439 H 241.122 -2.37364 3.06165 0
M  V30 2440 H 241.536 -1.40651 5.0529 0
M  V30 2441 H 243.01 -3.05497 4.59756 0
M  V30 2442 H 243.487 -3.28359 2.9168 0
M  V30 2443 H 244.093 -1.8747 3.81752 0
M  V30 2444 N 242.408 -1.52605 -0.393616 0
M  V30 2445 C 243.355 -1.77055 -1.48054 0
M  V30 2446 C 244.325 -0.61358 -1.54352 0
M  V30 2447 O 245.51 -0.852806 -1.70681 0
M  V30 2448 C 242.65 -1.94108 -2.85335 0
M  V30 2449 C 241.763 -3.21792 -2.88226 0
M  V30 2450 C 240.898 -3.29188 -4.16904 0
M  V30 2451 C 239.937 -4.51013 -4.13828 0
M  V30 2452 N 239.074 -4.55716 -5.34105 0
M  V30 2453 H 243.914 -2.69815 -1.26506 0
M  V30 2454 H 241.451 -1.33683 -0.61379 0
M  V30 2455 H 243.409 -2.01979 -3.65049 0
M  V30 2456 H 242.039 -1.04713 -3.05344 0
M  V30 2457 H 241.091 -3.23015 -2.00911 0
M  V30 2458 H 242.403 -4.11557 -2.8182 0
M  V30 2459 H 241.557 -3.36216 -5.05018 0
M  V30 2460 H 240.296 -2.37389 -4.26026 0
M  V30 2461 H 239.301 -4.44115 -3.24102 0
M  V30 2462 H 240.526 -5.44123 -4.06333 0
M  V30 2463 H 238.472 -3.66807 -5.43865 0
M  V30 2464 H 238.389 -5.39346 -5.29756 0
M  V30 2465 H 239.657 -4.66993 -6.2413 0
M  V30 2466 N 243.887 0.651787 -1.4349 0
M  V30 2467 C 245.134 1.41167 -1.45183 0
M  V30 2468 C 245.462 1.94349 -0.0766601 0
M  V30 2469 O 244.717 1.72804 0.918555 0
M  V30 2470 C 245.016 2.60914 -2.44251 0
M  V30 2471 C 244.682 2.26142 -3.9009 0
M  V30 2472 C 243.344 2.16371 -4.2981 0
M  V30 2473 C 245.696 1.98334 -4.81989 0
M  V30 2474 C 243.024 1.7695 -5.5938 0
M  V30 2475 C 245.376 1.6041 -6.11924 0
M  V30 2476 C 244.04 1.49166 -6.5062 0
M  V30 2477 H 243.31 0.516566 -0.531263 0
M  V30 2478 H 245.957 0.741099 -1.76579 0
M  V30 2479 H 244.262 3.3311 -2.06265 0
M  V30 2480 H 245.959 3.19127 -2.42815 0
M  V30 2481 H 242.549 2.34658 -3.58655 0
M  V30 2482 H 246.733 2.04803 -4.52072 0
M  V30 2483 H 241.989 1.66831 -5.88198 0
M  V30 2484 H 246.163 1.37925 -6.82605 0
M  V30 2485 H 243.79 1.1839 -7.50925 0
M  V30 2486 N 245.365 1.30045 0.890287 0
M  V30 2487 C 246.328 1.15963 1.977 0
M  V30 2488 C 247.328 0.0923777 1.60534 0
M  V30 2489 O 248.518 0.340071 1.70848 0
M  V30 2490 C 245.65 0.775451 3.31963 0
M  V30 2491 H 246.843 2.12502 2.11619 0
M  V30 2492 H 244.396 1.13366 1.07601 0
M  V30 2493 H 245.131 -0.189671 3.23745 0
M  V30 2494 H 244.916 1.54668 3.60306 0
M  V30 2495 H 246.406 0.700251 4.11687 0
M  V30 2496 N 246.843 -1.10192 1.12674 0
M  V30 2497 C 248.12 -1.78717 0.794965 0
M  V30 2498 C 248.5 -1.98628 -0.714853 0
M  V30 2499 O 247.848 -1.58135 -1.64941 0
M  V30 2500 C 248.058 -3.11546 1.5729 0
M  V30 2501 C 249.406 -3.86382 1.76052 0
M  V30 2502 O 250.43 -3.21274 1.53823 0
M  V30 2503 O 249.289 -5.03246 2.13087 0
M  V30 2504 H 246.383 -0.774702 0.289423 0
M  V30 2505 H 248.929 -1.16819 1.23091 0
M  V30 2506 H 247.701 -2.92489 2.59935 0
M  V30 2507 H 247.324 -3.81164 1.13137 0
M  V30 2508 N 248.321 -0.919034 -1.28029 0
M  V30 2509 C 249.268 -0.410005 -2.27129 0
M  V30 2510 C 250.238 0.518405 -1.57803 0
M  V30 2511 O 251.423 0.439451 -1.8567 0
M  V30 2512 C 248.563 0.339054 -3.4343 0
M  V30 2513 C 247.676 -0.622468 -4.27492 0
M  V30 2514 C 246.811 0.145567 -5.31001 0
M  V30 2515 C 245.85 -0.809226 -6.06727 0
M  V30 2516 N 244.987 -0.0743728 -7.02061 0
M  V30 2517 H 249.827 -1.26011 -2.70047 0
M  V30 2518 H 247.364 -0.632663 -1.328 0
M  V30 2519 H 249.322 0.789586 -4.0966 0
M  V30 2520 H 247.952 1.15346 -3.01488 0
M  V30 2521 H 247.004 -1.19153 -3.61257 0
M  V30 2522 H 248.316 -1.35252 -4.80113 0
M  V30 2523 H 247.47 0.656417 -6.03139 0
M  V30 2524 H 246.209 0.908643 -4.79161 0
M  V30 2525 H 245.214 -1.3314 -5.33436 0
M  V30 2526 H 246.439 -1.57194 -6.60656 0
M  V30 2527 H 244.385 0.670616 -6.52563 0
M  V30 2528 H 244.302 -0.744157 -7.52329 0
M  V30 2529 H 245.57 0.416109 -7.78389 0
M  V30 2530 N 249.799 1.42003 -0.683588 0
M  V30 2531 C 251.045 2.01712 -0.209825 0
M  V30 2532 C 251.378 1.53968 1.18353 0
M  V30 2533 O 250.653 0.745661 1.79639 0
M  V30 2534 C 250.936 3.59202 -0.254197 0
M  V30 2535 C 250.789 4.17102 -1.68363 0
M  V30 2536 C 252.108 4.38344 0.392709 0
M  V30 2537 H 249.227 0.732891 -0.0777189 0
M  V30 2538 H 251.869 1.68909 -0.87004 0
M  V30 2539 H 250.019 3.87278 0.307954 0
M  V30 2540 H 251.691 3.99946 -2.29871 0
M  V30 2541 H 249.934 3.72597 -2.22157 0
M  V30 2542 H 250.605 5.26249 -1.6663 0
M  V30 2543 H 253.081 4.16011 -0.0859162 0
M  V30 2544 H 251.957 5.47901 0.331063 0
M  V30 2545 H 252.218 4.16887 1.47164 0
M  V30 2546 N 251.277 0.427512 1.51691 0
M  V30 2547 C 252.505 -0.141191 2.06418 0
M  V30 2548 C 252.92 -1.37303 1.29589 0
M  V30 2549 O 252.277 -1.79059 0.352732 0
M  V30 2550 C 252.328 -0.473266 3.58389 0
M  V30 2551 O 252.049 0.709673 4.32314 0
M  V30 2552 C 253.55 -1.09371 4.29596 0
M  V30 2553 H 250.77 -0.0122747 0.670888 0
M  V30 2554 H 253.314 0.603764 1.95384 0
M  V30 2555 H 251.469 -1.16812 3.69369 0
M  V30 2556 H 251.883 0.42807 5.2275 0
M  V30 2557 H 253.357 -1.27613 5.37046 0
M  V30 2558 H 253.834 -2.072 3.87253 0
M  V30 2559 H 254.44 -0.43853 4.23033 0
M  V30 2560 N 252.755 -1.56801 0.158532 0
M  V30 2561 C 254.004 -1.95665 -0.489702 0
M  V30 2562 C 254.317 -1.04654 -1.65248 0
M  V30 2563 O 255.523 -1.33146 -2.3661 0
M  V30 2564 C 253.979 -3.47874 -0.922582 0
M  V30 2565 C 253.587 -4.47489 0.213893 0
M  V30 2566 C 255.331 -3.95583 -1.53996 0
M  V30 2567 C 253.238 -5.90921 -0.237903 0
M  V30 2568 H 252.168 -0.730516 -0.186716 0
M  V30 2569 H 254.819 -1.81861 0.244722 0
M  V30 2570 H 253.201 -3.57051 -1.71261 0
M  V30 2571 H 254.375 -4.50017 0.991036 0
M  V30 2572 H 252.69 -4.09764 0.740407 0
M  V30 2573 H 255.287 -5.0019 -1.8898 0
M  V30 2574 H 255.63 -3.37789 -2.43319 0
M  V30 2575 H 256.163 -3.8937 -0.814611 0
M  V30 2576 H 252.902 -6.52559 0.620236 0
M  V30 2577 H 252.422 -5.91729 -0.980676 0
M  V30 2578 H 254.101 -6.43352 -0.686067 0
M  V30 2579 N 254.233 0.115231 -1.57178 0
M  V30 2580 C 255.479 0.82357 -1.85325 0
M  V30 2581 C 255.812 1.79349 -0.744814 0
M  V30 2582 O 255.087 1.92899 0.249024 0
M  V30 2583 C 255.37 1.57014 -3.24066 0
M  V30 2584 C 255.223 0.619565 -4.45513 0
M  V30 2585 C 256.542 2.52545 -3.60429 0
M  V30 2586 H 253.661 0.297948 -0.674089 0
M  V30 2587 H 256.303 0.0877138 -1.89797 0
M  V30 2588 H 254.453 2.19742 -3.20383 0
M  V30 2589 H 256.125 0.000837639 -4.613 0
M  V30 2590 H 254.368 -0.0686174 -4.33746 0
M  V30 2591 H 255.039 1.17866 -5.3927 0
M  V30 2592 H 257.515 1.9992 -3.64926 0
M  V30 2593 H 256.391 3.01811 -4.58477 0
M  V30 2594 H 256.652 3.35383 -2.88047 0
M  V30 2595 N 255.711 1.52812 0.385517 0
M  V30 2596 C 256.661 1.74219 1.47078 0
M  V30 2597 C 257.645 0.59632 1.49442 0
M  V30 2598 O 258.837 0.85428 1.5502 0
M  V30 2599 C 255.966 1.9176 2.84751 0
M  V30 2600 C 255.052 3.12289 2.86943 0
M  V30 2601 N 255.443 4.34575 2.58802 0
M  V30 2602 C 253.741 3.12605 3.1811 0
M  V30 2603 C 254.442 5.162 2.68166 0
M  V30 2604 N 253.418 4.51964 3.02043 0
M  V30 2605 H 257.22 2.6639 1.24152 0
M  V30 2606 H 254.734 1.51166 0.593504 0
M  V30 2607 H 256.731 2.05218 3.62893 0
M  V30 2608 H 255.391 1.00805 3.08656 0
M  V30 2609 H 256.402 4.62649 2.32759 0
M  V30 2610 H 253.079 2.31472 3.47458 0
M  V30 2611 H 254.469 6.23689 2.49923 0
M  V30 2612 N 257.189 -0.644168 1.43834 0
M  V30 2613 C 258.605 -0.960875 1.27434 0
M  V30 2614 C 258.805 -2.00499 0.200618 0
M  V30 2615 O 257.861 -2.49018 -0.417906 0
M  V30 2616 C 259.174 -1.43653 2.64167 0
M  V30 2617 C 260.722 -1.55271 2.71772 0
M  V30 2618 C 261.197 -2.06224 4.08944 0
M  V30 2619 N 262.688 -2.13513 4.11055 0
M  V30 2620 C 263.423 -2.54081 5.14033 0
M  V30 2621 N 262.919 -2.9388 6.27381 0
M  V30 2622 N 264.712 -2.54101 5.01387 0
M  V30 2623 H 256.863 0.0465779 2.12349 0
M  V30 2624 H 259.126 -0.0417638 0.94708 0
M  V30 2625 H 258.832 -0.743706 3.43747 0
M  V30 2626 H 258.706 -2.40993 2.90176 0
M  V30 2627 H 261.093 -2.23653 1.92519 0
M  V30 2628 H 261.174 -0.563395 2.49519 0
M  V30 2629 H 260.818 -1.38441 4.88668 0
M  V30 2630 H 260.748 -3.06003 4.28567 0
M  V30 2631 H 263.239 -1.85493 3.29242 0
M  V30 2632 H 263.552 -3.2361 7.01781 0
M  V30 2633 H 261.897 -2.91663 6.30839 0
M  V30 2634 H 265.088 -2.22391 4.11898 0
M  V30 2635 H 265.261 -2.85394 5.81768 0
M  V30 2636 N 258.668 -1.30515 -0.883378 0
M  V30 2637 C 260.084 -1.08881 -1.16692 0
M  V30 2638 C 260.284 0.149409 -2.00945 0
M  V30 2639 O 259.34 0.84257 -2.38027 0
M  V30 2640 C 260.653 -2.35319 -1.87204 0
M  V30 2641 C 262.201 -2.40799 -1.99962 0
M  V30 2642 C 262.676 -3.67083 -2.73887 0
M  V30 2643 N 264.167 -3.679 -2.81432 0
M  V30 2644 C 264.902 -4.62303 -3.3921 0
M  V30 2645 N 264.398 -5.67052 -3.98025 0
M  V30 2646 N 266.191 -4.49845 -3.3704 0
M  V30 2647 H 258.342 -2.09951 -0.321633 0
M  V30 2648 H 260.605 -0.92556 -0.205043 0
M  V30 2649 H 260.311 -3.25689 -1.3274 0
M  V30 2650 H 260.185 -2.44089 -2.87577 0
M  V30 2651 H 262.572 -1.50907 -2.53597 0
M  V30 2652 H 262.653 -2.36003 -0.98673 0
M  V30 2653 H 262.297 -4.57334 -2.20925 0
M  V30 2654 H 262.227 -3.69141 -3.75556 0
M  V30 2655 H 264.718 -2.92171 -2.39676 0
M  V30 2656 H 265.031 -6.35184 -4.40183 0
M  V30 2657 H 263.376 -5.70842 -3.96439 0
M  V30 2658 H 266.567 -3.67194 -2.90321 0
M  V30 2659 H 266.74 -5.23597 -3.81772 0
M  V30 2660 N 260.146 1.09593 -1.13257 0
M  V30 2661 C 261.423 1.78293 -0.804432 0
M  V30 2662 C 261.803 1.99004 0.70431 0
M  V30 2663 O 261.151 1.59007 1.641 0
M  V30 2664 C 261.361 3.10707 -1.5894 0
M  V30 2665 C 262.709 3.85443 -1.78099 0
M  V30 2666 O 263.733 3.20454 -1.55525 0
M  V30 2667 O 262.592 5.02108 -2.15753 0
M  V30 2668 H 259.686 0.773156 -0.293528 0
M  V30 2669 H 262.232 1.16164 -1.23709 0
M  V30 2670 H 261.004 2.91106 -2.61482 0
M  V30 2671 H 260.627 3.80558 -1.15157 0
M  V30 2672 N 261.624 0.925811 1.2754 0
M  V30 2673 C 262.534 0.428993 2.30644 0
M  V30 2674 C 263.55 -0.489387 1.66976 0
M  V30 2675 O 264.726 -0.372653 1.97922 0
M  V30 2676 C 261.791 -0.311967 3.45294 0
M  V30 2677 C 260.852 0.641098 4.24486 0
M  V30 2678 C 260.085 -0.0645955 5.33661 0
M  V30 2679 O 260.308 -1.28429 5.55754 0
M  V30 2680 O 259.242 0.606265 5.98839 0
M  V30 2681 H 263.068 1.28504 2.75173 0
M  V30 2682 H 260.653 0.691086 1.32455 0
M  V30 2683 H 262.535 -0.729972 4.15029 0
M  V30 2684 H 261.21 -1.14365 3.02824 0
M  V30 2685 H 260.117 1.10874 3.57292 0
M  V30 2686 H 261.45 1.43995 4.70666 0
M  V30 2687 N 263.102 -1.41638 0.69111 0
M  V30 2688 C 264.032 -2.3347 0.037248 0
M  V30 2689 C 265.013 -1.51575 -0.771947 0
M  V30 2690 O 266.198 -1.80126 -0.72582 0
M  V30 2691 C 263.328 -3.35354 -0.903064 0
M  V30 2692 C 262.282 -4.27526 -0.201288 0
M  V30 2693 C 261.608 -5.19747 -1.25565 0
M  V30 2694 C 262.908 -5.13959 0.929689 0
M  V30 2695 H 264.602 -2.88397 0.804227 0
M  V30 2696 H 262.148 -1.38669 0.388189 0
M  V30 2697 H 264.101 -3.98519 -1.36969 0
M  V30 2698 H 262.825 -2.78767 -1.70166 0
M  V30 2699 H 261.484 -3.65779 0.245265 0
M  V30 2700 H 261.132 -4.59479 -2.04666 0
M  V30 2701 H 260.832 -5.8225 -0.791128 0
M  V30 2702 H 262.356 -5.85789 -1.72288 0
M  V30 2703 H 263.77 -5.70718 0.543546 0
M  V30 2704 H 262.167 -5.85379 1.32103 0
M  V30 2705 H 263.237 -4.51389 1.77133 0
M  V30 2706 N 264.58 -0.43555 -1.51462 0
M  V30 2707 C 265.996 -0.0877501 -1.59359 0
M  V30 2708 C 266.196 1.4027 -1.4466 0
M  V30 2709 O 265.252 2.17243 -1.28693 0
M  V30 2710 C 266.565 -0.606264 -2.94525 0
M  V30 2711 C 268.113 -0.566548 -3.0783 0
M  V30 2712 C 268.588 -1.06201 -4.45517 0
M  V30 2713 N 270.079 -1.01992 -4.51832 0
M  V30 2714 C 270.814 -1.37417 -5.5669 0
M  V30 2715 N 270.31 -1.80119 -6.68976 0
M  V30 2716 N 272.103 -1.29245 -5.47039 0
M  V30 2717 H 264.254 -1.40533 -1.59261 0
M  V30 2718 H 266.517 -0.578992 -0.750648 0
M  V30 2719 H 266.223 -1.64901 -3.10645 0
M  V30 2720 H 266.097 -0.0302097 -3.77188 0
M  V30 2721 H 268.484 0.467208 -2.91378 0
M  V30 2722 H 268.565 -1.17898 -2.2701 0
M  V30 2723 H 268.209 -2.09422 -4.62715 0
M  V30 2724 H 268.139 -0.426127 -5.24873 0
M  V30 2725 H 270.63 -0.706308 -3.71241 0
M  V30 2726 H 270.943 -2.05392 -7.45006 0
M  V30 2727 H 269.288 -1.84044 -6.70189 0
M  V30 2728 H 272.479 -0.957522 -4.58202 0
M  V30 2729 H 272.652 -1.57182 -6.28648 0
M  V30 2730 N 266.058 1.56714 -0.166846 0
M  V30 2731 C 267.021 2.16539 0.751232 0
M  V30 2732 C 268.021 1.11228 1.16125 0
M  V30 2733 O 269.211 1.36765 1.07894 0
M  V30 2734 C 266.343 2.74462 2.02196 0
M  V30 2735 H 267.536 2.99013 0.230499 0
M  V30 2736 H 265.089 1.56081 0.0826982 0
M  V30 2737 H 265.824 1.95709 2.58589 0
M  V30 2738 H 265.609 3.51527 1.73698 0
M  V30 2739 H 267.099 3.20489 2.67725 0
M  V30 2740 N 267.536 -0.106894 1.57237 0
M  V30 2741 C 268.468 -1.15646 1.97885 0
M  V30 2742 C 269.481 -1.36981 0.879779 0
M  V30 2743 O 270.67 -1.35841 1.15799 0
M  V30 2744 C 267.77 -2.51425 2.27241 0
M  V30 2745 C 266.943 -2.50529 3.58545 0
M  V30 2746 C 266.002 -3.68145 3.75973 0
M  V30 2747 O 265.028 -3.51176 4.47956 0
M  V30 2748 N 266.23 -4.87177 3.15656 0
M  V30 2749 H 268.995 -0.81059 2.8853 0
M  V30 2750 H 266.556 -0.296024 1.59171 0
M  V30 2751 H 268.548 -3.28689 2.36105 0
M  V30 2752 H 267.118 -2.78147 1.42663 0
M  V30 2753 H 266.338 -1.58894 3.60758 0
M  V30 2754 H 267.626 -2.46997 4.44826 0
M  V30 2755 H 267.024 -5.03868 2.57165 0
M  V30 2756 H 265.581 -5.62075 3.30023 0
M  V30 2757 N 269.014 -1.53014 -0.377408 0
M  V30 2758 C 270.43 -1.42523 -0.718281 0
M  V30 2759 C 270.63 -0.55487 -1.9371 0
M  V30 2760 O 269.686 -0.0327593 -2.52479 0
M  V30 2761 C 270.999 -2.85546 -0.942539 0
M  V30 2762 C 272.547 -2.95101 -1.04329 0
M  V30 2763 C 273.022 -4.3916 -1.3001 0
M  V30 2764 N 274.513 -4.42536 -1.36806 0
M  V30 2765 C 275.248 -5.51097 -1.58364 0
M  V30 2766 N 274.744 -6.69724 -1.77317 0
M  V30 2767 N 276.537 -5.38657 -1.60638 0
M  V30 2768 H 268.688 -2.08116 0.424426 0
M  V30 2769 H 270.951 -0.939352 0.127759 0
M  V30 2770 H 270.657 -3.51499 -0.118929 0
M  V30 2771 H 270.531 -3.28493 -1.85397 0
M  V30 2772 H 272.918 -2.29309 -1.85745 0
M  V30 2773 H 272.999 -2.55566 -0.109505 0
M  V30 2774 H 272.643 -5.05521 -0.490991 0
M  V30 2775 H 272.573 -4.76258 -2.24691 0
M  V30 2776 H 275.064 -3.57039 -1.23821 0
M  V30 2777 H 275.377 -7.48233 -1.93306 0
M  V30 2778 H 273.722 -6.72732 -1.74518 0
M  V30 2779 H 276.913 -4.44948 -1.45391 0
M  V30 2780 H 277.086 -6.2333 -1.77098 0
M  V30 2781 N 270.492 0.636531 -1.44174 0
M  V30 2782 C 271.741 1.39213 -1.45954 0
M  V30 2783 C 272.054 1.95374 -0.0939119 0
M  V30 2784 O 273.26 2.71498 0.0107767 0
M  V30 2785 C 271.716 2.52025 -2.56927 0
M  V30 2786 C 271.324 2.024 -3.99673 0
M  V30 2787 C 273.068 3.29269 -2.67922 0
M  V30 2788 C 270.975 3.12521 -5.0208 0
M  V30 2789 H 269.905 0.523132 -0.542999 0
M  V30 2790 H 272.556 0.685349 -1.70221 0
M  V30 2791 H 270.938 3.25253 -2.25891 0
M  V30 2792 H 272.112 1.36073 -4.40251 0
M  V30 2793 H 270.427 1.37987 -3.92872 0
M  V30 2794 H 273.024 4.11352 -3.41605 0
M  V30 2795 H 273.367 3.78397 -1.73555 0
M  V30 2796 H 273.9 2.63129 -2.98342 0
M  V30 2797 H 270.639 2.68343 -5.98057 0
M  V30 2798 H 270.159 3.77507 -4.66099 0
M  V30 2799 H 271.838 3.77385 -5.25538 0
M  V30 2800 N 271.97 1.30982 0.876444 0
M  V30 2801 C 272.9 1.20668 1.99903 0
M  V30 2802 C 273.881 0.095354 1.69833 0
M  V30 2803 O 275.066 0.27885 1.92188 0
M  V30 2804 C 272.196 0.90655 3.3526 0
M  V30 2805 C 271.15 1.97675 3.79617 0
M  V30 2806 C 270.476 1.52943 5.1236 0
M  V30 2807 C 271.776 3.389 3.97422 0
M  V30 2808 H 273.47 2.14586 2.0879 0
M  V30 2809 H 271.016 1.03308 1.00317 0
M  V30 2810 H 272.969 0.821025 4.13324 0
M  V30 2811 H 271.693 -0.0682969 3.26529 0
M  V30 2812 H 270.352 2.05205 3.03787 0
M  V30 2813 H 270 0.54262 5.00065 0
M  V30 2814 H 269.7 2.24532 5.43009 0
M  V30 2815 H 271.224 1.45786 5.92941 0
M  V30 2816 H 272.638 3.34081 4.659 0
M  V30 2817 H 271.035 4.0865 4.3946 0
M  V30 2818 H 272.105 3.80163 3.01006 0
M  V30 2819 N 273.449 -1.08991 1.13837 0
M  V30 2820 C 274.381 -2.15606 0.777612 0
M  V30 2821 C 275.394 -1.61533 -0.202739 0
M  V30 2822 O 276.583 -1.78491 0.0181055 0
M  V30 2823 C 273.683 -3.3864 0.132623 0
M  V30 2824 C 272.856 -4.22115 1.1462 0
M  V30 2825 C 271.915 -5.23564 0.526074 0
M  V30 2826 O 270.941 -5.56678 1.18735 0
M  V30 2827 N 272.143 -5.76266 -0.699866 0
M  V30 2828 H 274.908 -2.47159 1.69506 0
M  V30 2829 H 272.469 -1.24747 1.03198 0
M  V30 2830 H 274.461 -4.03626 -0.29459 0
M  V30 2831 H 273.031 -3.04938 -0.687849 0
M  V30 2832 H 272.251 -3.53199 1.75055 0
M  V30 2833 H 273.539 -4.74709 1.83109 0
M  V30 2834 H 272.937 -5.51585 -1.25581 0
M  V30 2835 H 271.494 -6.42963 -1.06968 0
M  V30 2836 N 274.927 -0.932562 -1.27047 0
M  V30 2837 C 276.204 -0.49377 -1.89265 0
M  V30 2838 C 276.584 1.02833 -1.8436 0
M  V30 2839 O 275.932 1.88461 -1.29209 0
M  V30 2840 C 276.142 -1.04536 -3.32976 0
M  V30 2841 C 277.49 -1.10879 -4.09867 0
M  V30 2842 O 278.514 -0.995327 -3.42011 0
M  V30 2843 O 277.373 -1.28417 -5.31198 0
M  V30 2844 H 274.467 -0.159596 -0.811454 0
M  V30 2845 H 277.013 -1.02457 -1.3528 0
M  V30 2846 H 275.785 -2.08913 -3.30864 0
M  V30 2847 H 275.408 -0.496494 -3.94488 0
M  V30 2848 N 276.405 1.4127 -0.698611 0
M  V30 2849 C 277.821 1.55241 -0.370462 0
M  V30 2850 C 278.021 1.67351 1.12231 0
M  V30 2851 O 277.077 1.65363 1.90818 0
M  V30 2852 C 278.39 2.78997 -1.12165 0
M  V30 2853 C 279.938 2.92797 -1.1063 0
M  V30 2854 C 280.413 4.19445 -1.8393 0
M  V30 2855 N 281.904 4.26409 -1.80914 0
M  V30 2856 C 282.639 5.23271 -2.34467 0
M  V30 2857 N 282.135 6.26145 -2.96504 0
M  V30 2858 N 283.928 5.15232 -2.24706 0
M  V30 2859 H 276.079 1.31654 -1.66676 0
M  V30 2860 H 278.342 0.635393 -0.703548 0
M  V30 2861 H 278.048 2.76268 -2.17644 0
M  V30 2862 H 277.922 3.70606 -0.702209 0
M  V30 2863 H 280.309 2.95039 -0.0597713 0
M  V30 2864 H 280.39 2.02353 -1.56483 0
M  V30 2865 H 280.034 4.17964 -2.88563 0
M  V30 2866 H 279.964 5.08866 -1.35509 0
M  V30 2867 H 282.455 3.527 -1.35687 0
M  V30 2868 H 282.768 6.96451 -3.34927 0
M  V30 2869 H 281.113 6.26638 -3.00583 0
M  V30 2870 H 284.304 4.33789 -1.7591 0
M  V30 2871 H 284.477 5.90552 -2.66745 0
M  V30 2872 N 277.883 0.443576 1.51229 0
M  V30 2873 C 278.846 -0.353132 2.26463 0
M  V30 2874 C 279.846 -0.944338 1.3015 0
M  V30 2875 O 281.036 -0.817813 1.5381 0
M  V30 2876 C 278.168 -1.50023 3.06114 0
M  V30 2877 H 279.361 0.3063 2.98332 0
M  V30 2878 H 276.914 0.196902 1.55055 0
M  V30 2879 H 277.649 -2.19553 2.38677 0
M  V30 2880 H 277.434 -1.08241 3.76864 0
M  V30 2881 H 278.924 -2.06296 3.63087 0
M  V30 2882 N 279.361 -1.56624 0.175154 0
M  V30 2883 C 280.608 -1.96999 -0.468811 0
M  V30 2884 C 280.936 -1.06129 -1.62994 0
M  V30 2885 O 280.191 -0.0961771 -1.95464 0
M  V30 2886 C 280.49 -3.43419 -0.989864 0
M  V30 2887 C 280.156 -4.50866 0.0557687 0
M  V30 2888 C 278.818 -4.79975 0.343134 0
M  V30 2889 C 281.17 -5.15551 0.765308 0
M  V30 2890 C 278.498 -5.71066 1.34536 0
M  V30 2891 C 280.85 -6.07724 1.75654 0
M  V30 2892 C 279.514 -6.35199 2.05132 0
M  V30 2893 H 278.784 -0.720869 -0.17155 0
M  V30 2894 H 281.431 -1.89616 0.267924 0
M  V30 2895 H 279.736 -3.47772 -1.80449 0
M  V30 2896 H 281.433 -3.72002 -1.49719 0
M  V30 2897 H 278.023 -4.28229 -0.178381 0
M  V30 2898 H 282.207 -4.9317 0.556513 0
M  V30 2899 H 277.463 -5.90635 1.57988 0
M  V30 2900 H 281.637 -6.56912 2.31169 0
M  V30 2901 H 279.264 -7.05584 2.8294 0
M  V30 2902 N 280.839 0.0985539 -1.57292 0
M  V30 2903 C 281.786 1.11981 -2.01814 0
M  V30 2904 C 282.756 1.39999 -0.89384 0
M  V30 2905 O 283.941 1.5152 -1.15958 0
M  V30 2906 C 281.081 2.43577 -2.44467 0
M  V30 2907 C 280.194 2.2232 -3.70402 0
M  V30 2908 C 279.329 3.4729 -4.01949 0
M  V30 2909 C 278.368 3.2128 -5.21005 0
M  V30 2910 N 277.505 4.38507 -5.48321 0
M  V30 2911 H 282.345 0.733149 -2.88841 0
M  V30 2912 H 279.882 0.350482 -1.42864 0
M  V30 2913 H 281.84 3.20373 -2.6724 0
M  V30 2914 H 280.47 2.80097 -1.60455 0
M  V30 2915 H 279.522 1.36343 -3.55126 0
M  V30 2916 H 280.834 1.99089 -4.57345 0
M  V30 2917 H 279.988 4.32495 -4.25479 0
M  V30 2918 H 278.727 3.73572 -3.13521 0
M  V30 2919 H 277.732 2.34468 -4.97298 0
M  V30 2920 H 278.957 2.96348 -6.11028 0
M  V30 2921 H 276.903 4.64871 -4.62851 0
M  V30 2922 H 276.82 4.18455 -6.29628 0
M  V30 2923 H 278.088 5.24787 -5.76385 0
M  V30 2924 N 282.317 1.53212 0.369288 0
M  V30 2925 C 283.265 1.80054 1.47253 0
M  V30 2926 C 284.259 0.669456 1.55611 0
M  V30 2927 O 285.465 0.852328 1.58541 0
M  V30 2928 H 281.84 0.570034 0.490475 0
M  V30 2929 H 283.811 2.72403 1.21817 0
M  V30 2930 C 282.56 2.00403 2.84137 0
M  V30 2931 H 281.883 2.86876 2.78464 0
M  V30 2932 H 283.323 2.23164 3.60519 0
M  V30 2933 C 281.782 0.782081 3.27697 0
M  V30 2934 O 282.312 -0.0310205 4.01688 0
M  V30 2935 N 280.518 0.606573 2.84199 0
M  V30 2936 H 280.065 1.26939 2.24152 0
M  V30 2937 H 280.023 -0.20962 3.137 0
M  V30 2938 N 283.795 -0.628877 1.44509 0
M  V30 2939 C 285.072 -1.38733 1.37886 0
M  V30 2940 C 285.452 -2.11065 0.0387008 0
M  V30 2941 O 284.8 -2.06476 -0.97878 0
M  V30 2942 C 285.01 -2.35188 2.57852 0
M  V30 2943 C 286.358 -2.9845 3.02014 0
M  V30 2944 O 287.382 -2.45513 2.58073 0
M  V30 2945 O 286.241 -3.94487 3.78209 0
M  V30 2946 H 283.335 -0.621015 0.54614 0
M  V30 2947 H 285.881 -0.653744 1.56602 0
M  V30 2948 H 284.653 -1.80855 3.46998 0
M  V30 2949 H 284.276 -3.1596 2.4136 0
M  V30 2950 N 285.273 -1.31445 -0.869486 0
M  V30 2951 C 286.22 -1.19135 -1.97675 0
M  V30 2952 C 287.19 -0.0770266 -1.65921 0
M  V30 2953 O 288.375 -0.249972 -1.89155 0
M  V30 2954 C 285.515 -0.905149 -3.33018 0
M  V30 2955 C 284.628 -2.10285 -3.77365 0
M  V30 2956 C 283.763 -1.75339 -5.01427 0
M  V30 2957 C 282.802 -2.91515 -5.38224 0
M  V30 2958 N 281.939 -2.56762 -6.53466 0
M  V30 2959 H 286.779 -2.13853 -2.07535 0
M  V30 2960 H 284.316 -1.06379 -1.01597 0
M  V30 2961 H 286.274 -0.719765 -4.10944 0
M  V30 2962 H 284.904 0.00519624 -3.228 0
M  V30 2963 H 283.956 -2.39899 -2.95216 0
M  V30 2964 H 285.268 -2.97237 -4.00564 0
M  V30 2965 H 284.422 -1.53266 -5.87022 0
M  V30 2966 H 283.161 -0.855801 -4.80133 0
M  V30 2967 H 282.166 -3.14237 -4.51149 0
M  V30 2968 H 283.391 -3.81985 -5.61484 0
M  V30 2969 H 281.337 -1.69526 -6.33717 0
M  V30 2970 H 281.254 -3.37243 -6.76612 0
M  V30 2971 H 282.522 -2.38083 -7.42251 0
M  V30 2972 N 286.751 1.08385 -1.14413 0
M  V30 2973 C 288 1.80153 -0.907076 0
M  V30 2974 C 288.313 1.87176 0.567851 0
M  V30 2975 O 289.519 2.55359 0.922172 0
M  V30 2976 C 287.975 3.23687 -1.57336 0
M  V30 2977 C 287.583 3.24897 -3.08457 0
M  V30 2978 C 289.327 4.00136 -1.41744 0
M  V30 2979 C 287.234 4.6302 -3.67921 0
M  V30 2980 H 286.164 0.675139 -0.335714 0
M  V30 2981 H 288.815 1.21733 -1.37307 0
M  V30 2982 H 287.197 3.82234 -1.03505 0
M  V30 2983 H 288.371 2.76055 -3.68958 0
M  V30 2984 H 286.686 2.61943 -3.2369 0
M  V30 2985 H 289.283 5.02201 -1.83572 0
M  V30 2986 H 289.626 4.14709 -0.363576 0
M  V30 2987 H 290.159 3.48058 -1.92614 0
M  V30 2988 H 286.898 4.5365 -4.73161 0
M  V30 2989 H 286.418 5.12143 -3.12201 0
M  V30 2990 H 288.097 5.31994 -3.68227 0
M  V30 2991 N 288.23 0.939286 1.26551 0
M  V30 2992 C 289.507 0.5038 1.89001 0
M  V30 2993 C 289.887 -1.01854 1.84903 0
M  V30 2994 O 289.235 -1.87773 1.30206 0
M  V30 2995 C 289.445 1.063 3.32417 0
M  V30 2996 C 290.793 1.13051 4.09273 0
M  V30 2997 O 291.817 1.01345 3.41479 0
M  V30 2998 O 290.676 1.31233 5.30509 0
M  V30 2999 H 287.77 0.163897 0.810597 0
M  V30 3000 H 290.316 1.03173 1.34735 0
M  V30 3001 H 289.088 2.10665 3.29752 0
M  V30 3002 H 288.711 0.517408 3.94219 0
M  V30 3003 N 289.708 -1.40897 0.706093 0
M  V30 3004 C 290.955 -2.01054 0.241531 0
M  V30 3005 C 291.283 -1.55956 -1.16223 0
M  V30 3006 O 290.538 -0.766336 -1.80072 0
M  V30 3007 C 290.837 -3.5646 0.259099 0
M  V30 3008 C 290.503 -4.21106 1.61184 0
M  V30 3009 C 289.165 -4.38479 1.98216 0
M  V30 3010 C 291.517 -4.57256 2.50132 0
M  V30 3011 C 288.845 -4.89282 3.2376 0
M  V30 3012 C 291.197 -5.09454 3.7502 0
M  V30 3013 C 289.861 -5.25037 4.12181 0
M  V30 3014 H 289.131 -0.73571 0.0883825 0
M  V30 3015 H 291.778 -1.68645 0.907257 0
M  V30 3016 H 290.083 -3.88721 -0.490189 0
M  V30 3017 H 291.78 -4.00826 -0.11804 0
M  V30 3018 H 288.37 -4.07966 1.31384 0
M  V30 3019 H 292.554 -4.43479 2.228 0
M  V30 3020 H 287.81 -4.99531 3.52532 0
M  V30 3021 H 291.984 -5.36404 4.44121 0
M  V30 3022 H 289.611 -5.64164 5.09532 0
M  V30 3023 N 291.186 -0.45159 -1.50991 0
M  V30 3024 C 292.435 0.111653 -2.01391 0
M  V30 3025 C 292.748 1.42529 -1.33959 0
M  V30 3026 O 293.954 2.07232 -1.75405 0
M  V30 3027 C 292.41 0.249514 -3.59034 0
M  V30 3028 C 292.018 -1.05453 -4.35412 0
M  V30 3029 C 293.762 0.765762 -4.17536 0
M  V30 3030 C 291.669 -0.881529 -5.84793 0
M  V30 3031 H 290.599 0.0455022 -0.752626 0
M  V30 3032 H 293.25 -0.583524 -1.73975 0
M  V30 3033 H 291.632 1.00803 -3.82955 0
M  V30 3034 H 292.806 -1.82248 -4.23229 0
M  V30 3035 H 291.121 -1.50039 -3.88429 0
M  V30 3036 H 293.718 0.911913 -5.26866 0
M  V30 3037 H 294.061 1.75201 -3.77638 0
M  V30 3038 H 294.594 0.0651744 -3.97747 0
M  V30 3039 H 291.333 -1.84057 -6.29129 0
M  V30 3040 H 290.853 -0.153625 -5.99603 0
M  V30 3041 H 292.532 -0.540363 -6.4474 0
M  V30 3042 N 292.664 1.56529 -0.183458 0
M  V30 3043 C 293.91 1.98304 0.452466 0
M  V30 3044 C 294.265 1.06799 1.60037 0
M  V30 3045 O 293.558 0.110049 1.91284 0
M  V30 3046 C 293.752 3.43939 0.971637 0
M  V30 3047 C 293.581 4.49528 -0.124425 0
M  V30 3048 C 292.351 5.01981 -0.578168 0
M  V30 3049 C 294.549 5.05836 -0.929207 0
M  V30 3050 N 292.531 5.91219 -1.65327 0
M  V30 3051 C 293.902 5.91632 -1.85396 0
M  V30 3052 C 295.957 4.88302 -0.972929 0
M  V30 3053 C 294.66 6.61768 -2.81878 0
M  V30 3054 C 296.686 5.59168 -1.92574 0
M  V30 3055 C 296.048 6.44701 -2.83795 0
M  V30 3056 H 292.147 0.770551 0.133324 0
M  V30 3057 H 294.731 1.92581 -0.286473 0
M  V30 3058 H 292.902 3.50184 1.68006 0
M  V30 3059 H 294.634 3.72702 1.5772 0
M  V30 3060 H 291.389 4.73282 -0.173639 0
M  V30 3061 H 291.813 6.40543 -2.19167 0
M  V30 3062 H 296.455 4.21861 -0.28168 0
M  V30 3063 H 294.173 7.27415 -3.51984 0
M  V30 3064 H 297.759 5.47582 -1.96583 0
M  V30 3065 H 296.639 6.98573 -3.56322 0
M  V30 3066 N 294.142 -0.090211 1.57342 0
M  V30 3067 C 295.367 -0.810082 1.90925 0
M  V30 3068 C 295.792 -1.71248 0.778187 0
M  V30 3069 O 295.15 -1.79278 -0.269991 0
M  V30 3070 C 295.198 -1.59529 3.23393 0
M  V30 3071 O 294.302 -2.70461 3.11327 0
M  V30 3072 H 293.643 -0.222231 0.625707 0
M  V30 3073 H 296.173 -0.0639716 2.045 0
M  V30 3074 H 296.183 -1.97847 3.5682 0
M  V30 3075 H 294.858 -0.933055 4.05299 0
M  V30 3076 H 293.435 -2.35135 2.89423 0
M  V30 3077 N 295.62 -1.53406 -0.361157 0
M  V30 3078 C 296.57 -1.76536 -1.44287 0
M  V30 3079 C 297.554 -0.620019 -1.48474 0
M  V30 3080 O 298.746 -0.878834 -1.53641 0
M  V30 3081 C 295.875 -1.96266 -2.81664 0
M  V30 3082 C 294.961 -3.16815 -2.81938 0
M  V30 3083 N 295.352 -4.38637 -2.51855 0
M  V30 3084 C 293.65 -3.17627 -3.13096 0
M  V30 3085 C 294.351 -5.20401 -2.59919 0
M  V30 3086 N 293.327 -4.56712 -2.94814 0
M  V30 3087 H 297.129 -2.68331 -1.19899 0
M  V30 3088 H 294.643 -1.52091 -0.56938 0
M  V30 3089 H 296.64 -2.10966 -3.59582 0
M  V30 3090 H 295.3 -1.05702 -3.07013 0
M  V30 3091 H 296.311 -4.66293 -2.25369 0
M  V30 3092 H 292.988 -2.36971 -3.43731 0
M  V30 3093 H 294.378 -6.27586 -2.39969 0
M  V30 3094 N 297.098 0.621204 -1.44841 0
M  V30 3095 C 298.326 1.40752 -1.51646 0
M  V30 3096 C 298.741 1.88246 -0.144549 0
M  V30 3097 O 298.098 1.61422 0.851416 0
M  V30 3098 C 298.149 2.62119 -2.4895 0
M  V30 3099 O 297.87 2.16602 -3.80808 0
M  V30 3100 C 299.371 3.55135 -2.65319 0
M  V30 3101 H 296.591 0.431325 -0.514004 0
M  V30 3102 H 299.135 0.758835 -1.899 0
M  V30 3103 H 297.29 3.23058 -2.13805 0
M  V30 3104 H 297.704 2.95358 -4.33433 0
M  V30 3105 H 299.178 4.36874 -3.37409 0
M  V30 3106 H 299.655 4.04592 -1.70886 0
M  V30 3107 H 300.261 3.00058 -3.01405 0
M  V30 3108 N 298.576 1.31904 0.862503 0
M  V30 3109 C 299.506 1.22782 1.98612 0
M  V30 3110 C 300.487 0.113362 1.69722 0
M  V30 3111 O 301.672 0.299218 1.91881 0
M  V30 3112 C 298.802 0.942058 3.34279 0
M  V30 3113 C 297.756 2.0169 3.77499 0
M  V30 3114 C 297.082 1.58369 5.10709 0
M  V30 3115 C 298.382 3.43096 3.93805 0
M  V30 3116 H 300.076 2.16788 2.06502 0
M  V30 3117 H 297.622 1.04366 0.992154 0
M  V30 3118 H 299.575 0.864818 4.1243 0
M  V30 3119 H 298.299 -0.0336603 3.26583 0
M  V30 3120 H 296.958 2.08416 3.01593 0
M  V30 3121 H 296.606 0.595628 4.99461 0
M  V30 3122 H 296.306 2.30279 5.40597 0
M  V30 3123 H 297.83 1.52067 5.91361 0
M  V30 3124 H 299.244 3.39003 4.62331 0
M  V30 3125 H 297.641 4.13288 4.35101 0
M  V30 3126 H 298.711 3.83334 2.96957 0
M  V30 3127 N 300.054 -1.07777 1.14986 0
M  V30 3128 C 301.001 -2.14867 0.842672 0
M  V30 3129 C 301.971 -1.6486 -0.202552 0
M  V30 3130 O 303.156 -1.90668 -0.0710568 0
M  V30 3131 C 300.296 -3.43486 0.333363 0
M  V30 3132 C 299.409 -4.07306 1.43965 0
M  V30 3133 C 298.544 -5.23744 0.886914 0
M  V30 3134 C 297.583 -5.79517 1.97043 0
M  V30 3135 N 296.72 -6.87291 1.4344 0
M  V30 3136 H 301.56 -2.40485 1.75986 0
M  V30 3137 H 299.097 -1.1801 0.878179 0
M  V30 3138 H 301.055 -4.17195 0.0198163 0
M  V30 3139 H 299.685 -3.18133 -0.546916 0
M  V30 3140 H 298.737 -3.31293 1.86946 0
M  V30 3141 H 300.049 -4.44771 2.25788 0
M  V30 3142 H 299.203 -6.04419 0.525651 0
M  V30 3143 H 297.942 -4.87685 0.0377957 0
M  V30 3144 H 296.947 -4.97491 2.34057 0
M  V30 3145 H 298.172 -6.17632 2.82325 0
M  V30 3146 H 296.118 -6.5318 0.607567 0
M  V30 3147 H 296.035 -7.23617 2.18895 0
M  V30 3148 H 297.303 -7.71682 1.10124 0
M  V30 3149 N 301.532 -0.945985 -1.26051 0
M  V30 3150 C 302.757 -0.612525 -1.98149 0
M  V30 3151 C 303.182 0.806623 -1.69927 0
M  V30 3152 O 302.54 1.54411 -0.950108 0
M  V30 3153 C 302.588 -0.866981 -3.50023 0
M  V30 3154 O 301.692 0.0585333 -4.12358 0
M  V30 3155 H 301.033 -0.23379 -0.621481 0
M  V30 3156 H 303.563 -1.27023 -1.60395 0
M  V30 3157 H 303.573 -0.789792 -4.00283 0
M  V30 3158 H 302.248 -1.90135 -3.69894 0
M  V30 3159 H 300.825 -0.0701241 -3.72834 0
M  V30 3160 N 303.011 1.40521 -0.713556 0
M  V30 3161 C 304.26 2.00155 -0.249192 0
M  V30 3162 C 304.573 1.57224 1.16362 0
M  V30 3163 O 305.779 2.09542 1.72639 0
M  V30 3164 C 304.235 3.5773 -0.3946 0
M  V30 3165 C 303.843 4.09635 -1.81392 0
M  V30 3166 C 305.587 4.24499 0.00907364 0
M  V30 3167 C 303.494 5.59707 -1.91003 0
M  V30 3168 H 302.424 0.74868 -0.0894114 0
M  V30 3169 H 305.075 1.60784 -0.884352 0
M  V30 3170 H 303.457 3.94792 0.30911 0
M  V30 3171 H 304.631 3.83955 -2.54785 0
M  V30 3172 H 302.946 3.55456 -2.16888 0
M  V30 3173 H 305.543 5.34683 -0.0420404 0
M  V30 3174 H 305.886 4.02824 1.05065 0
M  V30 3175 H 306.419 3.92536 -0.645007 0
M  V30 3176 H 303.158 5.86234 -2.93275 0
M  V30 3177 H 302.678 5.87258 -1.22019 0
M  V30 3178 H 304.357 6.24776 -1.6812 0
M  V30 3179 N 304.489 0.459591 1.5075 0
M  V30 3180 C 305.437 -0.354678 2.2988 0
M  V30 3181 C 306.431 -1.00086 1.36672 0
M  V30 3182 O 307.637 -0.933277 1.53915 0
M  V30 3183 H 304.012 -0.13321 0.740107 0
M  V30 3184 H 305.983 0.333269 2.96533 0
M  V30 3185 C 304.732 -1.43073 3.169 0
M  V30 3186 H 304.055 -0.942882 3.88523 0
M  V30 3187 H 305.495 -1.97328 3.75284 0
M  V30 3188 C 303.954 -2.42633 2.33732 0
M  V30 3189 O 304.484 -3.47658 2.01238 0
M  V30 3190 N 302.69 -2.14066 1.9653 0
M  V30 3191 H 302.237 -1.28685 2.23155 0
M  V30 3192 H 302.195 -2.80917 1.41185 0
M  V30 3193 N 305.967 -1.56429 0.191757 0
M  V30 3194 C 306.877 -2.22541 -0.742481 0
M  V30 3195 C 307.893 -1.22342 -1.23727 0
M  V30 3196 O 309.069 -1.55069 -1.28513 0
M  V30 3197 C 306.134 -2.8692 -1.94623 0
M  V30 3198 C 305.195 -4.02378 -1.49633 0
M  V30 3199 C 304.428 -4.63678 -2.6427 0
M  V30 3200 O 304.651 -4.23895 -3.81666 0
M  V30 3201 O 303.585 -5.53202 -2.37174 0
M  V30 3202 H 307.411 -3.02977 -0.209462 0
M  V30 3203 H 304.996 -1.49353 -0.0373832 0
M  V30 3204 H 306.878 -3.27663 -2.64982 0
M  V30 3205 H 305.553 -2.09466 -2.46791 0
M  V30 3206 H 304.46 -3.66265 -0.761636 0
M  V30 3207 H 305.793 -4.81487 -1.02134 0
M  V30 3208 N 307.445 0.0818655 -1.57387 0
M  V30 3209 C 308.392 1.09834 -2.0299 0
M  V30 3210 C 309.362 1.39043 -0.908639 0
M  V30 3211 O 310.547 1.50282 -1.17559 0
M  V30 3212 C 307.687 2.40971 -2.47037 0
M  V30 3213 C 306.8 2.18379 -3.7274 0
M  V30 3214 C 305.935 3.43008 -4.0561 0
M  V30 3215 C 304.974 3.15736 -5.24383 0
M  V30 3216 N 304.111 4.32667 -5.52941 0
M  V30 3217 H 308.951 0.702472 -2.89602 0
M  V30 3218 H 306.488 0.33531 -1.43227 0
M  V30 3219 H 308.446 3.1752 -2.70623 0
M  V30 3220 H 307.076 2.78379 -1.63417 0
M  V30 3221 H 306.128 1.32569 -3.56552 0
M  V30 3222 H 307.44 1.94227 -4.59431 0
M  V30 3223 H 306.594 4.27958 -4.30043 0
M  V30 3224 H 305.333 3.70225 -3.17466 0
M  V30 3225 H 304.338 2.2918 -4.99757 0
M  V30 3226 H 305.563 2.8985 -6.14136 0
M  V30 3227 H 303.509 4.59935 -4.67756 0
M  V30 3228 H 303.426 4.11753 -6.34031 0
M  V30 3229 H 304.694 5.18644 -5.81918 0
M  V30 3230 N 308.923 1.53595 0.353017 0
M  V30 3231 C 310.2 1.61002 1.11075 0
M  V30 3232 C 310.58 0.425356 2.0677 0
M  V30 3233 O 309.928 -0.583267 2.2093 0
M  V30 3234 C 310.138 2.96631 1.83877 0
M  V30 3235 C 311.486 3.51653 2.37961 0
M  V30 3236 O 312.51 2.98743 1.93987 0
M  V30 3237 O 311.369 4.44177 3.18386 0
M  V30 3238 H 308.463 0.650825 0.510251 0
M  V30 3239 H 311.009 1.6594 0.35527 0
M  V30 3240 H 309.781 3.74293 1.14108 0
M  V30 3241 H 309.404 2.95242 2.66304 0
M  V30 3242 N 310.401 -0.613514 1.45168 0
M  V30 3243 C 311.649 -1.36997 1.48581 0
M  V30 3244 C 311.97 -1.94589 0.126545 0
M  V30 3245 O 311.24 -1.76816 -0.843372 0
M  V30 3246 H 309.82 -0.508558 0.547154 0
M  V30 3247 H 312.482 -0.720853 1.81079 0
M  V30 3248 H 311.578 -2.1924 2.22127 0
M  V30 3249 N 311.879 -1.3236 -0.855495 0
M  V30 3250 C 312.826 -1.21225 -1.964 0
M  V30 3251 C 313.796 -0.0946204 -1.6583 0
M  V30 3252 O 314.981 -0.27002 -1.8888 0
M  V30 3253 C 312.121 -0.940419 -3.32039 0
M  V30 3254 C 311.234 -2.14276 -3.75113 0
M  V30 3255 C 310.369 -1.80648 -4.9954 0
M  V30 3256 C 309.408 -2.97208 -5.35102 0
M  V30 3257 N 308.545 -2.63678 -6.50706 0
M  V30 3258 H 313.385 -2.16042 -2.05255 0
M  V30 3259 H 310.922 -1.07451 -1.00463 0
M  V30 3260 H 312.88 -0.763311 -4.10158 0
M  V30 3261 H 311.51 -0.0290413 -3.22787 0
M  V30 3262 H 310.562 -2.43017 -2.92655 0
M  V30 3263 H 311.874 -3.01468 -3.97389 0
M  V30 3264 H 311.028 -1.59484 -5.85363 0
M  V30 3265 H 309.767 -0.906678 -4.79198 0
M  V30 3266 H 308.772 -3.19004 -4.47791 0
M  V30 3267 H 309.997 -3.87918 -5.57401 0
M  V30 3268 H 307.943 -1.76238 -6.31883 0
M  V30 3269 H 307.86 -3.444 -6.72997 0
M  V30 3270 H 309.128 -2.45942 -7.39684 0
M  V30 3271 N 313.357 1.07166 -1.15556 0
M  V30 3272 C 314.603 1.80065 -0.932984 0
M  V30 3273 C 314.936 1.86586 0.53845 0
M  V30 3274 O 314.211 1.35098 1.39924 0
M  V30 3275 C 314.494 3.25022 -1.55025 0
M  V30 3276 C 314.347 3.26634 -3.09242 0
M  V30 3277 C 315.666 4.22341 -1.2376 0
M  V30 3278 H 312.785 0.653697 -0.340366 0
M  V30 3279 H 315.427 1.25389 -1.4275 0
M  V30 3280 H 313.577 3.71712 -1.12972 0
M  V30 3281 H 315.249 2.88173 -3.60214 0
M  V30 3282 H 313.492 2.65539 -3.43033 0
M  V30 3283 H 314.163 4.28854 -3.47546 0
M  V30 3284 H 316.639 3.8405 -1.60139 0
M  V30 3285 H 315.515 5.22053 -1.69564 0
M  V30 3286 H 315.776 4.41828 -0.154938 0
M  V30 3287 N 314.835 0.952656 1.25548 0
M  V30 3288 C 316.083 0.605176 1.92826 0
M  V30 3289 C 316.404 -0.860261 1.74999 0
M  V30 3290 O 315.674 -1.6125 1.11244 0
M  V30 3291 H 314.254 0.220832 0.713612 0
M  V30 3292 H 316.916 1.21047 1.52754 0
M  V30 3293 H 316.012 0.832798 3.00784 0
M  V30 3294 N 316.313 -1.40141 0.720998 0
M  V30 3295 C 317.538 -2.05618 0.271258 0
M  V30 3296 C 317.963 -1.53978 -1.08039 0
M  V30 3297 O 317.321 -0.677463 -1.68167 0
M  V30 3298 C 317.369 -3.59609 0.267197 0
M  V30 3299 O 316.473 -4.05526 -0.749814 0
M  V30 3300 H 315.814 -0.651904 0.126162 0
M  V30 3301 H 318.344 -1.79439 0.982997 0
M  V30 3302 H 318.354 -4.0786 0.106744 0
M  V30 3303 H 317.029 -3.96559 1.25354 0
M  V30 3304 H 315.606 -3.68722 -0.556644 0
M  V30 3305 N 317.792 -0.46758 -1.50504 0
M  V30 3306 C 319.038 0.0887532 -2.02606 0
M  V30 3307 C 319.371 1.39686 -1.34913 0
M  V30 3308 O 318.646 1.88644 -0.473694 0
M  V30 3309 C 318.929 0.276206 -3.59039 0
M  V30 3310 C 318.782 -1.05267 -4.37309 0
M  V30 3311 C 320.101 1.03235 -4.27821 0
M  V30 3312 H 317.22 0.0307814 -0.736357 0
M  V30 3313 H 319.862 -0.612485 -1.79857 0
M  V30 3314 H 318.012 0.8735 -3.78553 0
M  V30 3315 H 319.684 -1.68628 -4.29374 0
M  V30 3316 H 317.927 -1.65015 -4.01189 0
M  V30 3317 H 318.598 -0.875197 -5.45018 0
M  V30 3318 H 321.074 0.526111 -4.12761 0
M  V30 3319 H 319.95 1.1323 -5.37094 0
M  V30 3320 H 320.211 2.06806 -3.90748 0
M  V30 3321 N 319.27 1.56325 -0.20005 0
M  V30 3322 C 320.498 2.02105 0.442874 0
M  V30 3323 C 320.913 1.08014 1.5485 0
M  V30 3324 O 320.27 0.0858797 1.82298 0
M  V30 3325 C 320.321 3.47549 0.994583 0
M  V30 3326 O 320.042 4.38049 -0.0669322 0
M  V30 3327 C 321.543 4.0887 1.7129 0
M  V30 3328 H 318.763 0.661807 0.110691 0
M  V30 3329 H 321.307 2.02134 -0.310207 0
M  V30 3330 H 319.462 3.48204 1.69803 0
M  V30 3331 H 319.876 5.23368 0.344462 0
M  V30 3332 H 321.35 5.12475 2.05118 0
M  V30 3333 H 321.827 3.52615 2.61838 0
M  V30 3334 H 322.433 4.12002 1.05518 0
M  V30 3335 N 320.748 -0.0735177 1.57428 0
M  V30 3336 C 321.678 -1.0879 2.06608 0
M  V30 3337 C 322.659 -1.40473 0.959237 0
M  V30 3338 O 323.844 -1.5013 1.23185 0
M  V30 3339 C 320.974 -2.40183 2.50857 0
M  V30 3340 C 319.928 -2.22858 3.65402 0
M  V30 3341 C 319.254 -3.59619 3.957 0
M  V30 3342 C 320.554 -1.65123 4.95511 0
M  V30 3343 H 322.248 -0.678673 2.91607 0
M  V30 3344 H 319.794 -0.325013 1.40284 0
M  V30 3345 H 321.747 -3.11437 2.83874 0
M  V30 3346 H 320.471 -2.83083 1.62885 0
M  V30 3347 H 319.13 -1.54045 3.32664 0
M  V30 3348 H 318.778 -4.00086 3.04861 0
M  V30 3349 H 318.478 -3.48866 4.72828 0
M  V30 3350 H 320.002 -4.32306 4.31212 0
M  V30 3351 H 321.416 -2.26241 5.26771 0
M  V30 3352 H 319.813 -1.65071 5.7695 0
M  V30 3353 H 320.883 -0.612559 4.81015 0
M  V30 3354 N 322.226 -1.5378 -0.344866 0
M  V30 3355 C 323.454 -1.74899 -1.10534 0
M  V30 3356 C 323.869 -0.487534 -1.82397 0
M  V30 3357 O 323.226 0.540741 -1.74305 0
M  V30 3358 C 323.277 -2.92822 -2.11984 0
M  V30 3359 O 322.998 -4.14089 -1.43044 0
M  V30 3360 C 324.499 -3.25982 -3.00417 0
M  V30 3361 H 321.719 -0.584426 -0.329678 0
M  V30 3362 H 324.263 -2.006 -0.397474 0
M  V30 3363 H 322.418 -2.69457 -2.78338 0
M  V30 3364 H 322.832 -4.80272 -2.10805 0
M  V30 3365 H 324.306 -4.11848 -3.67539 0
M  V30 3366 H 324.783 -2.42228 -3.66363 0
M  V30 3367 H 325.389 -3.51349 -2.39654 0
M  V30 3368 N 323.704 0.605807 -1.45491 0
M  V30 3369 C 324.929 1.39625 -1.53361 0
M  V30 3370 C 325.354 1.87351 -0.167645 0
M  V30 3371 O 324.712 1.60243 0.848051 0
M  V30 3372 C 324.76 2.57559 -2.5238 0
M  V30 3373 O 323.864 3.58248 -2.04285 0
M  V30 3374 H 323.205 0.416771 -0.516912 0
M  V30 3375 H 325.735 0.737103 -1.90861 0
M  V30 3376 H 325.745 3.0478 -2.71244 0
M  V30 3377 H 324.42 2.22171 -3.51586 0
M  V30 3378 H 322.997 3.17664 -1.95305 0
M  V30 3379 N 325.182 1.32811 0.848464 0
M  V30 3380 C 326.41 1.26739 1.63538 0
M  V30 3381 C 326.825 -0.163484 1.88091 0
M  V30 3382 O 326.182 -1.10258 1.45429 0
M  V30 3383 C 326.233 2.03013 2.99112 0
M  V30 3384 O 325.954 3.40518 2.75643 0
M  V30 3385 C 327.455 2.04038 3.93552 0
M  V30 3386 H 324.675 0.437024 0.509167 0
M  V30 3387 H 327.219 1.75033 1.05753 0
M  V30 3388 H 325.374 1.58426 3.53525 0
M  V30 3389 H 325.788 3.79635 3.61908 0
M  V30 3390 H 327.262 2.61877 4.85926 0
M  V30 3391 H 327.739 1.0282 4.26995 0
M  V30 3392 H 328.345 2.486 3.45077 0
M  V30 3393 N 326.66 -1.06551 1.16123 0
M  V30 3394 C 327.607 -2.13961 0.865414 0
M  V30 3395 C 328.577 -1.65066 -0.185055 0
M  V30 3396 O 329.762 -1.90732 -0.05083 0
M  V30 3397 C 326.902 -3.43113 0.369776 0
M  V30 3398 C 326.015 -4.05756 1.48276 0
M  V30 3399 C 325.15 -5.22773 0.942414 0
M  V30 3400 C 324.189 -5.77395 2.03179 0
M  V30 3401 N 323.326 -6.85731 1.50721 0
M  V30 3402 H 328.166 -2.38605 1.78527 0
M  V30 3403 H 325.703 -1.17072 0.890646 0
M  V30 3404 H 327.661 -4.17151 0.0640643 0
M  V30 3405 H 326.291 -3.18695 -0.513143 0
M  V30 3406 H 325.343 -3.29292 1.9045 0
M  V30 3407 H 326.655 -4.42351 2.30493 0
M  V30 3408 H 325.809 -6.03827 0.589729 0
M  V30 3409 H 324.548 -4.87618 0.0895191 0
M  V30 3410 H 323.553 -4.94981 2.3932 0
M  V30 3411 H 324.778 -6.14603 2.8886 0
M  V30 3412 H 322.724 -6.52499 0.676811 0
M  V30 3413 H 322.641 -7.21254 2.26557 0
M  V30 3414 H 323.909 -7.7047 1.18303 0
M  V30 3415 N 328.138 -0.959301 -1.25041 0
M  V30 3416 C 329.415 -0.533805 -1.88175 0
M  V30 3417 C 329.795 0.988994 -1.865 0
M  V30 3418 O 329.143 1.85677 -1.33177 0
M  V30 3419 C 329.353 -1.11575 -3.30684 0
M  V30 3420 C 330.701 -1.19548 -4.07423 0
M  V30 3421 O 331.725 -1.06765 -3.39823 0
M  V30 3422 O 330.584 -1.39656 -5.28354 0
M  V30 3423 H 327.678 -0.176772 -0.807887 0
M  V30 3424 H 330.224 -1.05303 -1.33076 0
M  V30 3425 H 328.996 -2.15884 -3.26358 0
M  V30 3426 H 328.619 -0.580059 -3.93346 0
M  V30 3427 N 329.616 1.39756 -0.72842 0
M  V30 3428 C 330.864 2.00248 -0.272946 0
M  V30 3429 C 331.185 1.58077 1.14178 0
M  V30 3430 O 330.455 0.826014 1.77634 0
M  V30 3431 H 329.035 0.740554 -0.0979247 0
M  V30 3432 H 331.697 1.70903 -0.936912 0
M  V30 3433 H 330.793 3.10495 -0.316142 0
M  V30 3434 N 331.094 0.475555 1.50254 0
M  V30 3435 C 332.319 -0.0777042 2.07254 0
M  V30 3436 C 332.744 -1.3235 1.3366 0
M  V30 3437 O 332.102 -1.77152 0.385597 0
M  V30 3438 C 332.15 -0.340169 3.58992 0
M  V30 3439 O 331.254 -1.41982 3.87188 0
M  V30 3440 H 330.595 0.0149556 0.663832 0
M  V30 3441 H 333.125 0.667878 1.93392 0
M  V30 3442 H 333.135 -0.579332 4.03866 0
M  V30 3443 H 331.81 0.570167 4.11973 0
M  V30 3444 H 330.387 -1.16762 3.54148 0
M  V30 3445 N 332.573 -1.56217 0.208337 0
M  V30 3446 C 333.483 -2.23316 -0.718836 0
M  V30 3447 C 334.499 -1.23648 -1.22422 0
M  V30 3448 O 335.675 -1.56423 -1.26861 0
M  V30 3449 C 332.74 -2.88968 -1.91568 0
M  V30 3450 C 331.801 -4.03943 -1.45357 0
M  V30 3451 C 331.034 -4.66455 -2.59337 0
M  V30 3452 O 331.257 -4.27919 -3.77149 0
M  V30 3453 O 330.191 -5.55686 -2.31293 0
M  V30 3454 H 334.017 -3.03182 -0.177315 0
M  V30 3455 H 331.602 -1.49384 -0.0215402 0
M  V30 3456 H 333.484 -3.30455 -2.61491 0
M  V30 3457 H 332.159 -2.12071 -2.44556 0
M  V30 3458 H 331.066 -3.67052 -0.722746 0
M  V30 3459 H 332.399 -4.82543 -0.970219 0
M  V30 3460 N 334.051 0.0651679 -1.57465 0
M  V30 3461 C 334.961 1.09448 -2.07505 0
M  V30 3462 C 335.977 1.41974 -1.00595 0
M  V30 3463 O 337.153 1.52018 -1.32107 0
M  V30 3464 C 334.218 2.38689 -2.51453 0
M  V30 3465 C 333.279 2.13073 -3.72691 0
M  V30 3466 C 332.512 3.36152 -4.14533 0
M  V30 3467 O 332.735 4.45517 -3.56189 0
M  V30 3468 O 331.669 3.23974 -5.07272 0
M  V30 3469 H 335.495 0.69935 -2.95538 0
M  V30 3470 H 333.08 0.279752 -1.46757 0
M  V30 3471 H 334.962 3.14736 -2.80212 0
M  V30 3472 H 333.637 2.77568 -1.66546 0
M  V30 3473 H 332.544 1.34709 -3.49005 0
M  V30 3474 H 333.877 1.79071 -4.5847 0
M  V30 3475 N 335.529 1.53961 0.336706 0
M  V30 3476 C 336.757 1.75483 1.09605 0
M  V30 3477 C 337.172 0.4972 1.82136 0
M  V30 3478 O 336.529 -0.53149 1.74589 0
M  V30 3479 C 336.58 2.93943 2.10428 0
M  V30 3480 O 336.301 4.14842 1.40846 0
M  V30 3481 C 337.802 3.27571 2.98684 0
M  V30 3482 H 335.022 0.586166 0.326574 0
M  V30 3483 H 337.566 2.00808 0.38683 0
M  V30 3484 H 335.721 2.70929 2.76905 0
M  V30 3485 H 336.135 4.81383 2.08255 0
M  V30 3486 H 337.609 4.13791 3.6535 0
M  V30 3487 H 338.086 2.44168 3.65074 0
M  V30 3488 H 338.692 3.52615 2.37787 0
M  V30 3489 N 337.007 -0.598083 1.45811 0
M  V30 3490 C 337.957 -1.70272 1.51629 0
M  V30 3491 C 338.941 -1.56382 0.378629 0
M  V30 3492 O 340.133 -1.65557 0.626087 0
M  V30 3493 C 337.262 -3.09042 1.49493 0
M  V30 3494 C 336.348 -3.28284 2.68496 0
M  V30 3495 N 336.739 -3.17748 3.93535 0
M  V30 3496 C 335.037 -3.59182 2.64394 0
M  V30 3497 C 335.738 -3.38579 4.7301 0
M  V30 3498 N 334.714 -3.63016 4.04624 0
M  V30 3499 H 338.516 -1.60634 2.46118 0
M  V30 3500 H 336.03 -0.801642 1.41235 0
M  V30 3501 H 338.027 -3.88302 1.51747 0
M  V30 3502 H 336.687 -3.19823 0.560683 0
M  V30 3503 H 337.698 -2.95944 4.25014 0
M  V30 3504 H 334.375 -3.76742 1.79922 0
M  V30 3505 H 335.765 -3.35747 5.82 0
M  V30 3506 N 338.485 -1.33259 -0.841409 0
M  V30 3507 C 339.395 -1.25332 -1.98316 0
M  V30 3508 C 340.411 -0.164364 -1.73222 0
M  V30 3509 O 341.587 -0.387486 -1.97637 0
M  V30 3510 C 338.652 -0.990078 -3.32262 0
M  V30 3511 C 337.713 -2.16879 -3.70489 0
M  V30 3512 C 336.946 -1.91801 -4.98044 0
M  V30 3513 O 337.169 -0.867075 -5.63771 0
M  V30 3514 O 336.103 -2.78267 -5.33714 0
M  V30 3515 H 339.929 -2.21344 -2.07944 0
M  V30 3516 H 337.514 -1.1328 -0.974058 0
M  V30 3517 H 339.396 -0.860321 -4.12524 0
M  V30 3518 H 338.071 -0.0602155 -3.23644 0
M  V30 3519 H 336.978 -2.35407 -2.90748 0
M  V30 3520 H 338.311 -3.0819 -3.8377 0
M  V30 3521 N 339.963 1.05934 -1.16686 0
M  V30 3522 C 340.926 2.11669 -0.879144 0
M  V30 3523 C 341.926 1.60294 0.127445 0
M  V30 3524 O 343.116 1.7389 -0.103865 0
M  V30 3525 C 340.248 3.39438 -0.315425 0
M  V30 3526 H 341.441 2.38626 -1.81653 0
M  V30 3527 H 338.994 1.22058 -0.976299 0
M  V30 3528 H 339.729 3.18132 0.629468 0
M  V30 3529 H 339.514 3.78034 -1.04079 0
M  V30 3530 H 341.004 4.17391 -0.132189 0
M  V30 3531 N 341.441 0.965919 1.2453 0
M  V30 3532 C 342.718 0.543777 1.87889 0
M  V30 3533 C 343.098 -0.97909 1.87021 0
M  V30 3534 O 342.446 -1.84969 1.3416 0
M  V30 3535 C 342.656 1.13327 3.30088 0
M  V30 3536 C 344.004 1.21707 4.06783 0
M  V30 3537 O 345.028 1.08566 3.39252 0
M  V30 3538 O 343.887 1.42456 5.27606 0
M  V30 3539 H 340.981 0.181054 0.806938 0
M  V30 3540 H 343.527 1.06007 1.32516 0
M  V30 3541 H 342.299 2.17612 3.25209 0
M  V30 3542 H 341.922 0.600911 3.93033 0
M  V30 3543 N 342.919 -1.39368 0.735821 0
M  V30 3544 C 344.167 -2.00101 0.283562 0
M  V30 3545 C 344.488 -1.5868 -1.13338 0
M  V30 3546 O 343.758 -0.835423 -1.77193 0
M  V30 3547 H 342.338 -0.740024 0.101851 0
M  V30 3548 H 345 -1.70404 0.945962 0
M  V30 3549 H 344.096 -3.10323 0.332604 0
M  V30 3550 N 344.397 -0.483516 -1.5 0
M  V30 3551 C 345.643 0.0672592 -2.02688 0
M  V30 3552 C 345.976 1.38247 -1.36387 0
M  V30 3553 O 345.251 1.88131 -0.493675 0
M  V30 3554 C 345.534 0.238109 -3.59312 0
M  V30 3555 C 345.387 -1.099 -4.36168 0
M  V30 3556 C 346.706 0.986916 -4.28892 0
M  V30 3557 H 343.825 0.0229696 -0.736642 0
M  V30 3558 H 346.467 -0.631527 -1.79197 0
M  V30 3559 H 344.617 0.8333 -3.79458 0
M  V30 3560 H 346.289 -1.73172 -4.27562 0
M  V30 3561 H 344.532 -1.69261 -3.99416 0
M  V30 3562 H 345.203 -0.932954 -5.44059 0
M  V30 3563 H 347.679 0.482302 -4.13295 0
M  V30 3564 H 346.555 1.07527 -5.38265 0
M  V30 3565 H 346.816 2.0265 -3.92919 0
M  V30 3566 N 345.875 1.56104 -0.216619 0
M  V30 3567 C 347.122 1.98172 0.416416 0
M  V30 3568 C 347.45 1.10413 1.60122 0
M  V30 3569 O 346.705 0.147967 1.9514 0
M  V30 3570 C 347.004 3.45923 0.898464 0
M  V30 3571 C 346.67 4.50559 -0.175288 0
M  V30 3572 C 345.332 4.78897 -0.470271 0
M  V30 3573 C 347.684 5.1334 -0.901728 0
M  V30 3574 C 345.012 5.67299 -1.4963 0
M  V30 3575 C 347.364 6.02853 -1.91705 0
M  V30 3576 C 346.028 6.29537 -2.21901 0
M  V30 3577 H 345.298 0.725164 0.152377 0
M  V30 3578 H 347.945 1.88839 -0.318103 0
M  V30 3579 H 346.25 3.52434 1.71165 0
M  V30 3580 H 347.947 3.75841 1.39803 0
M  V30 3581 H 344.537 4.28551 0.0647806 0
M  V30 3582 H 348.721 4.91521 -0.687072 0
M  V30 3583 H 343.977 5.86239 -1.73592 0
M  V30 3584 H 348.151 6.50552 -2.48505 0
M  V30 3585 H 345.778 6.97835 -3.01548 0
M  V30 3586 N 347.353 -0.0568162 1.57498 0
M  V30 3587 C 348.602 -0.752001 1.87157 0
M  V30 3588 C 348.915 -1.77978 0.811375 0
M  V30 3589 O 350.121 -2.52559 0.996293 0
M  V30 3590 C 348.577 -1.38844 3.3204 0
M  V30 3591 C 348.185 -0.398456 4.46225 0
M  V30 3592 C 349.929 -2.06512 3.70882 0
M  V30 3593 C 347.836 -1.04166 5.82154 0
M  V30 3594 H 346.766 -0.28461 0.698222 0
M  V30 3595 H 349.417 -0.00561272 1.83499 0
M  V30 3596 H 347.799 -2.1836 3.30356 0
M  V30 3597 H 348.973 0.367977 4.59328 0
M  V30 3598 H 347.288 0.174592 4.16034 0
M  V30 3599 H 349.885 -2.55437 4.6974 0
M  V30 3600 H 350.228 -2.87117 3.01445 0
M  V30 3601 H 350.761 -1.33808 3.7462 0
M  V30 3602 H 347.5 -0.275614 6.5492 0
M  V30 3603 H 347.02 -1.7786 5.72823 0
M  V30 3604 H 348.699 -1.55715 6.27982 0
M  V30 3605 N 348.832 -1.54138 -0.328536 0
M  V30 3606 C 350.062 -1.75807 -1.08516 0
M  V30 3607 C 350.47 -0.50428 -1.82356 0
M  V30 3608 O 349.813 0.534451 -1.75754 0
M  V30 3609 C 349.875 -2.89423 -2.13248 0
M  V30 3610 C 349.539 -4.28504 -1.5885 0
M  V30 3611 C 350.536 -5.09536 -1.03289 0
M  V30 3612 C 348.221 -4.75034 -1.63243 0
M  V30 3613 C 350.215 -6.35206 -0.52845 0
M  V30 3614 C 347.902 -6.00672 -1.12411 0
M  V30 3615 C 348.9 -6.80592 -0.573062 0
M  V30 3616 O 348.588 -8.03867 -0.0723692 0
M  V30 3617 H 348.32 -0.590633 -0.328829 0
M  V30 3618 H 350.874 -2.01819 -0.381868 0
M  V30 3619 H 349.104 -2.5897 -2.87178 0
M  V30 3620 H 350.793 -2.98921 -2.74592 0
M  V30 3621 H 351.559 -4.74745 -0.99206 0
M  V30 3622 H 347.438 -4.12875 -2.05074 0
M  V30 3623 H 350.982 -6.97532 -0.0976774 0
M  V30 3624 H 346.879 -6.34955 -1.162 0
M  V30 3625 H 347.647 -8.18283 -0.188258 0
M  V30 3626 N 350.31 0.590341 -1.46126 0
M  V30 3627 C 351.559 1.34499 -1.50309 0
M  V30 3628 C 351.872 1.94977 -0.156021 0
M  V30 3629 O 353.078 2.71395 -0.0756037 0
M  V30 3630 C 351.534 2.43723 -2.64815 0
M  V30 3631 C 351.142 1.89582 -4.0591 0
M  V30 3632 C 352.886 3.20579 -2.78262 0
M  V30 3633 C 350.793 2.9639 -5.11769 0
M  V30 3634 H 349.723 0.505593 -0.559368 0
M  V30 3635 H 352.374 0.630848 -1.72315 0
M  V30 3636 H 350.756 3.17902 -2.36124 0
M  V30 3637 H 351.93 1.21997 -4.44357 0
M  V30 3638 H 350.245 1.25418 -3.97063 0
M  V30 3639 H 352.842 4.00276 -3.54519 0
M  V30 3640 H 353.185 3.72684 -1.85505 0
M  V30 3641 H 353.718 2.53505 -3.06562 0
M  V30 3642 H 350.457 2.49181 -6.06291 0
M  V30 3643 H 349.977 3.62487 -4.77873 0
M  V30 3644 H 351.656 3.60474 -5.37278 0
M  V30 3645 N 351.788 1.33704 0.83433 0
M  V30 3646 C 353.036 1.25169 1.58673 0
M  V30 3647 C 353.357 -0.18127 1.94156 0
M  V30 3648 O 352.627 -1.11113 1.6134 0
M  V30 3649 H 351.207 0.4603 0.58833 0
M  V30 3650 H 353.869 1.67478 0.996847 0
M  V30 3651 H 352.965 1.84856 2.51465 0
M  V30 3652 N 353.266 -1.05314 1.17247 0
M  V30 3653 C 354.199 -2.12512 0.831507 0
M  V30 3654 C 355.177 -1.61351 -0.201168 0
M  V30 3655 O 356.361 -1.88317 -0.0829831 0
M  V30 3656 C 353.488 -3.37848 0.24015 0
M  V30 3657 C 352.534 -4.07832 1.24801 0
M  V30 3658 S 353.367 -4.56537 2.79882 0
M  V30 3659 C 354.523 -5.85122 2.22223 0
M  V30 3660 H 354.756 -2.41106 1.7394 0
M  V30 3661 H 352.289 -1.17896 0.996988 0
M  V30 3662 H 354.247 -4.10391 -0.0945588 0
M  V30 3663 H 352.908 -3.07392 -0.645668 0
M  V30 3664 H 352.101 -4.97883 0.78287 0
M  V30 3665 H 351.703 -3.41348 1.52831 0
M  V30 3666 H 353.995 -6.58408 1.59703 0
M  V30 3667 H 354.938 -6.36381 3.10523 0
M  V30 3668 H 355.346 -5.39626 1.65722 0
M  V30 3669 N 354.744 -0.972509 -1.24016 0
M  V30 3670 C 355.691 -0.505969 -2.25186 0
M  V30 3671 C 356.661 0.451009 -1.5986 0
M  V30 3672 O 357.846 0.360307 -1.87367 0
M  V30 3673 C 354.986 0.193089 -3.44559 0
M  V30 3674 C 354.099 -0.803222 -4.24467 0
M  V30 3675 C 353.234 -0.0797793 -5.3114 0
M  V30 3676 C 352.273 -1.06583 -6.02749 0
M  V30 3677 N 351.41 -0.372074 -7.01113 0
M  V30 3678 H 356.25 -1.37351 -2.64459 0
M  V30 3679 H 353.787 -0.688419 -1.29997 0
M  V30 3680 H 355.745 0.615125 -4.1264 0
M  V30 3681 H 354.375 1.02455 -3.06109 0
M  V30 3682 H 353.427 -1.34368 -3.55878 0
M  V30 3683 H 354.739 -1.55494 -4.73944 0
M  V30 3684 H 353.893 0.400015 -6.0538 0
M  V30 3685 H 352.632 0.704597 -4.82583 0
M  V30 3686 H 351.637 -1.55645 -5.27309 0
M  V30 3687 H 352.862 -1.85074 -6.53395 0
M  V30 3688 H 350.808 0.393238 -6.5482 0
M  V30 3689 H 350.725 -1.06258 -7.48495 0
M  V30 3690 H 351.993 0.0855932 -7.79453 0
M  V30 3691 N 356.222 1.38976 -0.743202 0
M  V30 3692 C 357.633 1.83123 -0.363732 0
M  V30 3693 C 357.984 1.6205 1.10609 0
M  V30 3694 O 357.109 1.11606 1.854 0
M  V30 3695 C 357.704 3.32439 -0.653408 0
M  V30 3696 C 356.263 3.74974 -0.327338 0
M  V30 3697 C 355.41 2.61878 -0.911875 0
M  V30 3698 H 358.361 1.27852 -0.940191 0
M  V30 3699 H 358.382 3.80432 0.0720031 0
M  V30 3700 H 357.894 3.47745 -1.72323 0
M  V30 3701 H 355.995 3.65252 0.736314 0
M  V30 3702 H 356.108 4.72106 -0.815631 0
M  V30 3703 H 354.472 2.52448 -0.337944 0
M  V30 3704 H 355.255 2.79987 -1.98651 0
M  V30 3705 N 357.7 0.491464 1.49741 0
M  V30 3706 C 358.63 -0.28154 2.31796 0
M  V30 3707 C 359.611 -0.971473 1.3963 0
M  V30 3708 O 360.796 -0.964719 1.68543 0
M  V30 3709 C 357.926 -1.35203 3.19902 0
M  V30 3710 C 356.88 -0.782529 4.20786 0
M  V30 3711 C 356.206 -1.95283 4.97764 0
M  V30 3712 C 357.506 0.21999 5.21837 0
M  V30 3713 H 359.2 0.403355 2.96671 0
M  V30 3714 H 356.746 0.195425 1.42668 0
M  V30 3715 H 358.699 -1.90045 3.76113 0
M  V30 3716 H 357.423 -2.06598 2.52953 0
M  V30 3717 H 356.082 -0.255928 3.65706 0
M  V30 3718 H 355.73 -2.65423 4.2727 0
M  V30 3719 H 355.43 -1.57789 5.66018 0
M  V30 3720 H 356.954 -2.50577 5.56816 0
M  V30 3721 H 358.368 -0.23996 5.72798 0
M  V30 3722 H 356.765 0.51026 5.97927 0
M  V30 3723 H 357.835 1.13911 4.7133 0
M  V30 3724 N 359.178 -1.55987 0.224894 0
M  V30 3725 C 360.406 -2.02784 -0.410665 0
M  V30 3726 C 360.821 -1.10464 -1.53112 0
M  V30 3727 O 360.178 -0.114871 -1.82138 0
M  V30 3728 C 360.229 -3.49087 -0.939165 0
M  V30 3729 O 359.95 -4.37887 0.136614 0
M  V30 3730 C 361.451 -4.11543 -1.64763 0
M  V30 3731 H 358.671 -0.663484 -0.100148 0
M  V30 3732 H 361.215 -2.01614 0.342326 0
M  V30 3733 H 359.37 -3.50861 -1.64242 0
M  V30 3734 H 359.784 -5.23849 -0.261155 0
M  V30 3735 H 361.258 -5.15673 -1.96939 0
M  V30 3736 H 361.735 -3.56736 -2.56195 0
M  V30 3737 H 362.341 -4.13629 -0.989503 0
M  V30 3738 N 360.656 0.0484629 -1.57525 0
M  V30 3739 C 361.619 1.03956 -2.04269 0
M  V30 3740 C 362.619 1.30211 -0.943496 0
M  V30 3741 O 363.809 1.25539 -1.20771 0
M  V30 3742 C 360.941 2.37742 -2.44319 0
M  V30 3743 H 362.134 0.636182 -2.93075 0
M  V30 3744 H 359.687 0.294811 -1.53494 0
M  V30 3745 H 360.422 2.82866 -1.5861 0
M  V30 3746 H 360.207 2.20021 -3.24551 0
M  V30 3747 H 361.697 3.08936 -2.80978 0
M  V30 3748 N 362.134 1.5431 0.320358 0
M  V30 3749 C 363.545 1.63872 0.894594 0
M  V30 3750 C 363.896 0.534847 1.88769 0
M  V30 3751 O 363.021 -0.331732 2.13842 0
M  V30 3752 C 363.616 2.97049 1.62934 0
M  V30 3753 C 362.175 3.08796 2.15226 0
M  V30 3754 C 361.322 2.59456 0.978671 0
M  V30 3755 H 364.273 1.58398 0.0978544 0
M  V30 3756 H 364.294 2.87388 2.49376 0
M  V30 3757 H 363.806 3.7737 0.906302 0
M  V30 3758 H 361.907 2.33156 2.90636 0
M  V30 3759 H 362.02 4.14649 2.40006 0
M  V30 3760 H 360.384 2.1543 1.35875 0
M  V30 3761 H 361.167 3.42237 0.269895 0
M  V30 3762 N 363.613 -0.582584 1.46437 0
M  V30 3763 C 364.86 -1.34079 1.51753 0
M  V30 3764 C 365.188 -1.93762 0.169299 0
M  V30 3765 O 364.443 -1.76989 -0.835062 0
M  V30 3766 C 364.742 -2.48964 2.56421 0
M  V30 3767 C 364.408 -2.07273 4.00436 0
M  V30 3768 C 363.07 -1.95618 4.39644 0
M  V30 3769 C 365.422 -1.75111 4.90903 0
M  V30 3770 C 362.75 -1.5006 5.67185 0
M  V30 3771 C 365.102 -1.31032 6.18881 0
M  V30 3772 C 363.766 -1.17954 6.56996 0
M  V30 3773 H 363.036 -0.49063 0.555304 0
M  V30 3774 H 365.683 -0.656007 1.79913 0
M  V30 3775 H 363.988 -3.22889 2.21923 0
M  V30 3776 H 365.685 -3.07178 2.57765 0
M  V30 3777 H 362.275 -2.17279 3.69443 0
M  V30 3778 H 366.459 -1.83001 4.61329 0
M  V30 3779 H 361.715 -1.38577 5.95488 0
M  V30 3780 H 365.889 -1.052 6.88408 0
M  V30 3781 H 363.516 -0.824279 7.55718 0
M  V30 3782 N 365.091 -1.34144 -0.827227 0
M  V30 3783 C 366.038 -1.25364 -1.93785 0
M  V30 3784 C 367.008 -0.129774 -1.65592 0
M  V30 3785 O 368.193 -0.310024 -1.88264 0
M  V30 3786 C 365.333 -1.01064 -3.2997 0
M  V30 3787 C 364.446 -2.22185 -3.70484 0
M  V30 3788 C 363.581 -1.91203 -4.95595 0
M  V30 3789 C 362.62 -3.08491 -5.28677 0
M  V30 3790 N 361.757 -2.77421 -6.44967 0
M  V30 3791 H 366.597 -2.20347 -2.00627 0
M  V30 3792 H 364.134 -1.09558 -0.981608 0
M  V30 3793 H 366.092 -0.850139 -4.08446 0
M  V30 3794 H 364.722 -0.0975026 -3.22653 0
M  V30 3795 H 363.774 -2.4917 -2.87434 0
M  V30 3796 H 365.086 -3.0983 -3.90905 0
M  V30 3797 H 364.24 -1.71864 -5.81848 0
M  V30 3798 H 362.979 -1.00812 -4.77167 0
M  V30 3799 H 361.984 -3.28431 -4.40923 0
M  V30 3800 H 363.209 -3.99655 -5.49047 0
M  V30 3801 H 361.155 -1.89601 -6.28003 0
M  V30 3802 H 361.072 -3.58598 -6.6554 0
M  V30 3803 H 362.34 -2.61577 -7.34301 0
M  V30 3804 N 366.569 1.04691 -1.17803 0
M  V30 3805 C 367.846 1.7472 -0.879328 0
M  V30 3806 C 368.226 2.01812 0.619271 0
M  V30 3807 O 367.574 1.65824 1.57209 0
M  V30 3808 C 367.784 3.03686 -1.71976 0
M  V30 3809 C 369.132 3.77542 -1.94286 0
M  V30 3810 O 370.156 3.13569 -1.68976 0
M  V30 3811 O 369.015 4.92506 -2.36855 0
M  V30 3812 H 366.109 0.760011 -0.326056 0
M  V30 3813 H 368.655 1.10813 -1.28525 0
M  V30 3814 H 367.427 2.79754 -2.73594 0
M  V30 3815 H 367.05 3.75332 -1.31194 0
M  V30 3816 N 368.047 0.979072 1.23499 0
M  V30 3817 C 368.977 0.537606 2.27227 0
M  V30 3818 C 369.958 -0.428539 1.64613 0
M  V30 3819 O 371.143 -0.322191 1.91509 0
M  V30 3820 C 368.273 -0.162052 3.46922 0
M  V30 3821 C 367.227 0.721242 4.21879 0
M  V30 3822 C 366.553 -0.110555 5.34586 0
M  V30 3823 C 367.853 2.01141 4.82016 0
M  V30 3824 H 369.547 1.40462 2.64406 0
M  V30 3825 H 367.093 0.67684 1.27102 0
M  V30 3826 H 369.046 -0.482192 4.18632 0
M  V30 3827 H 367.77 -1.06351 3.08799 0
M  V30 3828 H 366.429 1.02482 3.51984 0
M  V30 3829 H 366.077 -1.0125 4.92704 0
M  V30 3830 H 365.777 0.477325 5.85658 0
M  V30 3831 H 367.301 -0.425107 6.09118 0
M  V30 3832 H 368.715 1.75612 5.45741 0
M  V30 3833 H 367.112 2.54695 5.43369 0
M  V30 3834 H 368.182 2.69909 4.02836 0
M  V30 3835 N 369.525 -1.3858 0.750561 0
M  V30 3836 C 370.773 -1.99789 0.30477 0
M  V30 3837 C 371.094 -1.59874 -1.11649 0
M  V30 3838 O 370.364 -0.85417 -1.76297 0
M  V30 3839 H 368.944 -0.738902 0.109694 0
M  V30 3840 H 371.606 -1.69391 0.963983 0
M  V30 3841 H 370.702 -3.09952 0.365499 0
M  V30 3842 N 371.003 -0.499398 -1.49478 0
M  V30 3843 C 372.252 0.0475259 -2.01644 0
M  V30 3844 C 372.565 1.38195 -1.38425 0
M  V30 3845 O 373.771 2.01547 -1.8191 0
M  V30 3846 C 372.227 0.135164 -3.59646 0
M  V30 3847 C 371.835 -1.19252 -4.31837 0
M  V30 3848 C 373.579 0.632538 -4.19761 0
M  V30 3849 C 371.486 -1.06713 -5.81693 0
M  V30 3850 H 370.416 0.0215349 -0.753692 0
M  V30 3851 H 373.067 -0.638577 -1.7203 0
M  V30 3852 H 371.449 0.885681 -3.85969 0
M  V30 3853 H 372.623 -1.9562 -4.17216 0
M  V30 3854 H 370.938 -1.62321 -3.83459 0
M  V30 3855 H 373.535 0.743833 -5.29501 0
M  V30 3856 H 373.878 1.63098 -3.83021 0
M  V30 3857 H 374.411 -0.0613987 -3.97753 0
M  V30 3858 H 371.15 -2.03979 -6.22955 0
M  V30 3859 H 370.67 -0.344307 -5.98811 0
M  V30 3860 H 372.349 -0.745208 -6.42694 0
M  V30 3861 N 372.481 1.55866 -0.233164 0
M  V30 3862 C 373.709 2.02998 0.399905 0
M  V30 3863 C 374.124 1.11274 1.52524 0
M  V30 3864 O 373.481 0.124528 1.82075 0
M  V30 3865 C 373.532 3.4958 0.920639 0
M  V30 3866 O 373.253 4.37808 -0.159834 0
M  V30 3867 C 374.754 4.12411 1.62578 0
M  V30 3868 H 371.974 0.664006 0.0966281 0
M  V30 3869 H 374.518 2.0143 -0.353013 0
M  V30 3870 H 372.673 3.51727 1.62379 0
M  V30 3871 H 373.087 5.23981 0.23337 0
M  V30 3872 H 374.561 5.16711 1.94201 0
M  V30 3873 H 375.038 3.5809 2.54299 0
M  V30 3874 H 375.644 4.14148 0.967553 0
M  V30 3875 N 373.959 -0.0401083 1.57549 0
M  V30 3876 C 374.907 -1.06264 2.06908 0
M  V30 3877 C 375.901 -1.38132 0.980608 0
M  V30 3878 O 377.107 -1.37167 1.16556 0
M  V30 3879 H 373.482 -0.360166 0.660139 0
M  V30 3880 H 375.453 -0.620445 2.91878 0
M  V30 3881 C 374.202 -2.35846 2.55483 0
M  V30 3882 H 373.525 -2.12183 3.38849 0
M  V30 3883 H 374.965 -3.05765 2.93741 0
M  V30 3884 C 373.424 -3.0404 1.45126 0
M  V30 3885 O 373.954 -3.93424 0.811216 0
M  V30 3886 N 372.16 -2.65184 1.18852 0
M  V30 3887 H 371.707 -1.92584 1.71083 0
M  V30 3888 H 371.665 -3.1113 0.452244 0
M  V30 3889 N 375.437 -1.54477 -0.31217 0
M  V30 3890 C 376.714 -1.63891 -1.06767 0
M  V30 3891 C 377.094 -0.480028 -2.0557 0
M  V30 3892 O 376.442 0.524487 -2.22399 0
M  V30 3893 C 376.652 -3.01402 -1.75948 0
M  V30 3894 C 378 -3.57838 -2.28554 0
M  V30 3895 O 379.024 -3.03782 -1.85998 0
M  V30 3896 O 377.883 -4.52462 -3.06497 0
M  V30 3897 H 374.977 -0.664125 -0.492816 0
M  V30 3898 H 377.523 -1.66823 -0.311149 0
M  V30 3899 H 376.295 -3.77187 -1.04144 0
M  V30 3900 H 375.918 -3.02199 -2.58383 0
M  V30 3901 N 376.915 0.57481 -1.46744 0
M  V30 3902 C 378.161 1.3347 -1.52688 0
M  V30 3903 C 378.494 1.93353 -0.181229 0
M  V30 3904 O 377.769 1.76912 0.808237 0
M  V30 3905 C 378.052 2.45811 -2.63152 0
M  V30 3906 C 377.905 1.90912 -4.07275 0
M  V30 3907 C 379.224 3.47822 -2.69644 0
M  V30 3908 H 376.343 0.483935 -0.555856 0
M  V30 3909 H 378.985 0.644968 -1.78718 0
M  V30 3910 H 377.135 3.04646 -2.41088 0
M  V30 3911 H 378.807 1.36473 -4.4065 0
M  V30 3912 H 377.05 1.21691 -4.16382 0
M  V30 3913 H 377.721 2.72042 -4.80309 0
M  V30 3914 H 380.197 2.9888 -2.895 0
M  V30 3915 H 379.073 4.23876 -3.48742 0
M  V30 3916 H 379.334 4.05555 -1.76005 0
M  V30 3917 N 378.394 1.34581 0.820102 0
M  V30 3918 C 379.642 1.26845 1.57336 0
M  V30 3919 C 379.963 -0.160667 1.94337 0
M  V30 3920 O 379.233 -1.09396 1.6251 0
M  V30 3921 H 377.813 0.466514 0.583415 0
M  V30 3922 H 380.475 1.68526 0.979027 0
M  V30 3923 H 379.571 1.87513 2.4949 0
M  V30 3924 N 379.872 -1.04064 1.18357 0
M  V30 3925 C 381.102 -1.80654 1.00238 0
M  V30 3926 C 381.51 -1.83713 -0.452362 0
M  V30 3927 O 380.853 -1.27135 -1.32599 0
M  V30 3928 C 380.915 -3.27582 1.48088 0
M  V30 3929 C 380.579 -3.48184 2.96002 0
M  V30 3930 C 381.576 -3.39372 3.93856 0
M  V30 3931 C 379.261 -3.7478 3.34433 0
M  V30 3932 C 381.255 -3.5686 5.28138 0
M  V30 3933 C 378.942 -3.91915 4.68877 0
M  V30 3934 C 379.94 -3.82956 5.65539 0
M  V30 3935 O 379.628 -3.996 6.97549 0
M  V30 3936 H 379.36 -0.575751 0.354241 0
M  V30 3937 H 381.914 -1.32044 1.57333 0
M  V30 3938 H 380.144 -3.77161 0.853588 0
M  V30 3939 H 381.833 -3.8573 1.2636 0
M  V30 3940 H 382.599 -3.18789 3.65511 0
M  V30 3941 H 378.478 -3.80852 2.59756 0
M  V30 3942 H 382.022 -3.49783 6.03571 0
M  V30 3943 H 377.919 -4.11992 4.96923 0
M  V30 3944 H 378.687 -4.1676 7.04452 0
M  V30 3945 N 381.35 -0.985608 -1.22978 0
M  V30 3946 C 382.599 -0.652881 -1.90841 0
M  V30 3947 C 382.912 0.817842 -1.77681 0
M  V30 3948 O 384.118 1.26185 -2.40395 0
M  V30 3949 C 382.574 -1.11717 -3.42122 0
M  V30 3950 C 382.182 -2.6126 -3.63933 0
M  V30 3951 C 383.926 -0.85843 -4.1573 0
M  V30 3952 C 381.833 -3.0133 -5.08876 0
M  V30 3953 H 380.763 -0.240491 -0.714619 0
M  V30 3954 H 383.414 -1.1942 -1.39324 0
M  V30 3955 H 381.796 -0.504027 -3.92779 0
M  V30 3956 H 382.97 -3.27858 -3.23799 0
M  V30 3957 H 381.285 -2.84937 -3.03644 0
M  V30 3958 H 383.882 -1.13359 -5.22546 0
M  V30 3959 H 384.225 0.205461 -4.15793 0
M  V30 3960 H 384.758 -1.43341 -3.71077 0
M  V30 3961 H 381.497 -4.06864 -5.13947 0
M  V30 3962 H 381.017 -2.3943 -5.49939 0
M  V30 3963 H 382.696 -2.92224 -5.77247 0
M  V30 3964 N 382.828 1.3818 -0.7579 0
M  V30 3965 C 384.074 2.00316 -0.316453 0
M  V30 3966 C 384.407 1.60026 1.10025 0
M  V30 3967 O 383.682 0.839835 1.75434 0
M  V30 3968 C 383.965 3.57349 -0.444245 0
M  V30 3969 C 383.818 4.07591 -1.90236 0
M  V30 3970 C 385.137 4.3981 0.1598 0
M  V30 3971 H 382.256 0.727741 -0.116459 0
M  V30 3972 H 384.898 1.6406 -0.958352 0
M  V30 3973 H 383.048 3.88365 0.102233 0
M  V30 3974 H 384.72 3.87199 -2.50748 0
M  V30 3975 H 382.963 3.60297 -2.41595 0
M  V30 3976 H 383.634 5.16677 -1.94291 0
M  V30 3977 H 386.11 4.14971 -0.306314 0
M  V30 3978 H 384.986 5.48885 0.0401675 0
M  V30 3979 H 385.247 4.24102 1.24859 0
M  V30 3980 N 384.306 0.507319 1.49211 0
M  V30 3981 C 385.534 -0.0315749 2.06876 0
M  V30 3982 C 385.949 -1.30241 1.36685 0
M  V30 3983 O 385.306 -1.76937 0.447152 0
M  V30 3984 C 385.357 -0.282627 3.60393 0
M  V30 3985 O 385.078 0.937835 4.27944 0
M  V30 3986 C 386.579 -0.864453 4.3479 0
M  V30 3987 H 383.799 0.0233048 0.670595 0
M  V30 3988 H 386.343 0.706484 1.91909 0
M  V30 3989 H 384.498 -0.97068 3.75042 0
M  V30 3990 H 384.912 0.704567 5.19746 0
M  V30 3991 H 386.386 -0.989664 5.43056 0
M  V30 3992 H 386.863 -1.86382 3.97692 0
M  V30 3993 H 387.469 -0.213672 4.24763 0
M  V30 3994 N 385.784 -1.5574 0.241426 0
M  V30 3995 C 386.731 -2.21149 -0.660432 0
M  V30 3996 C 387.701 -1.17356 -1.17545 0
M  V30 3997 O 388.886 -1.45784 -1.23093 0
M  V30 3998 C 386.026 -2.91059 -1.85414 0
M  V30 3999 C 385.139 -4.09495 -1.37616 0
M  V30 4000 C 384.274 -4.67135 -2.529 0
M  V30 4001 C 383.313 -5.77831 -2.01936 0
M  V30 4002 N 382.45 -6.29677 -3.10566 0
M  V30 4003 H 387.29 -2.97845 -0.095955 0
M  V30 4004 H 384.827 -1.47057 -0.0356024 0
M  V30 4005 H 386.785 -3.29788 -2.5553 0
M  V30 4006 H 385.415 -2.16846 -2.39118 0
M  V30 4007 H 384.467 -3.76117 -0.569235 0
M  V30 4008 H 385.779 -4.89423 -0.962618 0
M  V30 4009 H 384.933 -5.08409 -3.31067 0
M  V30 4010 H 383.672 -3.86411 -2.97553 0
M  V30 4011 H 382.677 -5.36039 -1.22238 0
M  V30 4012 H 383.902 -6.60402 -1.58259 0
M  V30 4013 H 381.848 -5.5186 -3.54664 0
M  V30 4014 H 381.765 -7.04783 -2.73526 0
M  V30 4015 H 383.033 -6.75609 -3.88809 0
M  V30 4016 N 387.262 0.0317525 -1.57568 0
M  V30 4017 C 388.539 0.758366 -1.803 0
M  V30 4018 C 388.919 1.93718 -0.838845 0
M  V30 4019 O 388.267 2.28187 0.119571 0
M  V30 4020 C 388.477 1.19392 -3.27943 0
M  V30 4021 C 389.825 1.61094 -3.92854 0
M  V30 4022 O 390.849 1.28857 -3.32076 0
M  V30 4023 O 389.708 2.20918 -4.99858 0
M  V30 4024 H 386.802 0.366514 -0.741348 0
M  V30 4025 H 389.348 0.00873765 -1.69698 0
M  V30 4026 H 388.12 0.352275 -3.89711 0
M  V30 4027 H 387.743 2.00365 -3.43424 0
M  V30 4028 N 388.74 1.54641 0.303973 0
M  V30 4029 C 390.017 1.64455 1.05896 0
M  V30 4030 C 390.397 0.490923 2.05312 0
M  V30 4031 O 389.745 -0.512685 2.22674 0
M  V30 4032 C 389.955 3.02331 1.74347 0
M  V30 4033 C 391.303 3.59045 2.26653 0
M  V30 4034 O 392.327 3.04764 1.84384 0
M  V30 4035 O 391.186 4.54081 3.04093 0
M  V30 4036 H 388.28 0.666729 0.489287 0
M  V30 4037 H 390.826 1.66986 0.302298 0
M  V30 4038 H 389.598 3.77734 1.02142 0
M  V30 4039 H 389.221 3.03565 2.56777 0
M  V30 4040 N 390.218 -0.567019 1.47046 0
M  V30 4041 C 391.151 -1.69016 1.53326 0
M  V30 4042 C 392.129 -1.57949 0.386126 0
M  V30 4043 O 393.313 -1.78945 0.592529 0
M  V30 4044 C 390.44 -3.07191 1.42658 0
M  V30 4045 C 389.486 -3.36733 2.6175 0
M  V30 4046 S 390.319 -3.27069 4.24012 0
M  V30 4047 C 391.475 -4.67755 4.1588 0
M  V30 4048 H 391.708 -1.63434 2.48348 0
M  V30 4049 H 389.241 -0.747048 1.35124 0
M  V30 4050 H 391.199 -3.86897 1.37191 0
M  V30 4051 H 389.86 -3.10249 0.490369 0
M  V30 4052 H 389.053 -4.37441 2.50323 0
M  V30 4053 H 388.655 -2.64627 2.64289 0
M  V30 4054 H 390.947 -5.58491 3.83529 0
M  V30 4055 H 391.89 -4.84239 5.16641 0
M  V30 4056 H 392.298 -4.45341 3.46889 0
M  V30 4057 N 391.696 -1.35014 -0.812953 0
M  V30 4058 C 392.924 -1.31031 -1.6012 0
M  V30 4059 C 393.339 0.113558 -1.88458 0
M  V30 4060 O 392.696 1.06363 -1.48301 0
M  V30 4061 C 392.747 -2.10872 -2.93624 0
M  V30 4062 O 392.468 -3.47706 -2.66518 0
M  V30 4063 C 393.969 -2.14401 -3.88004 0
M  V30 4064 H 391.189 -0.45037 -0.497401 0
M  V30 4065 H 393.733 -1.77775 -1.01076 0
M  V30 4066 H 391.888 -1.67744 -3.492 0
M  V30 4067 H 392.302 -3.89097 -3.51715 0
M  V30 4068 H 393.776 -2.74669 -4.78812 0
M  V30 4069 H 394.253 -1.14105 -4.24119 0
M  V30 4070 H 394.859 -2.57662 -3.38364 0
M  V30 4071 N 393.175 1.03435 -1.18907 0
M  V30 4072 C 394.403 1.80381 -1.01342 0
M  V30 4073 C 394.818 1.83649 0.438005 0
M  V30 4074 O 394.175 1.27655 1.30424 0
M  V30 4075 C 394.226 3.25689 -1.56873 0
M  V30 4076 O 393.947 3.22673 -2.96334 0
M  V30 4077 C 395.448 4.19255 -1.44014 0
M  V30 4078 H 392.668 0.56784 -0.35749 0
M  V30 4079 H 395.212 1.30317 -1.576 0
M  V30 4080 H 393.367 3.72962 -1.04777 0
M  V30 4081 H 393.781 4.13748 -3.22355 0
M  V30 4082 H 395.255 5.19123 -1.87657 0
M  V30 4083 H 395.732 4.37467 -0.389815 0
M  V30 4084 H 396.338 3.77851 -1.95214 0
M  V30 4085 N 394.653 0.992116 1.22453 0
M  V30 4086 C 395.878 0.685644 1.95739 0
M  V30 4087 C 396.303 -0.743 1.72804 0
M  V30 4088 O 395.661 -1.50778 1.00676 0
M  V30 4089 C 395.709 0.996293 3.46564 0
M  V30 4090 O 394.813 0.0945512 4.12292 0
M  V30 4091 H 394.154 0.256694 0.612376 0
M  V30 4092 H 396.684 1.32888 1.5557 0
M  V30 4093 H 396.694 0.93781 3.97076 0
M  V30 4094 H 395.369 2.03733 3.62582 0
M  V30 4095 H 393.946 0.208451 3.72317 0
M  V30 4096 N 396.131 -1.37776 0.765217 0
M  V30 4097 C 397.377 -2.00145 0.327072 0
M  V30 4098 C 397.71 -1.60607 -1.09175 0
M  V30 4099 O 396.985 -0.849127 -1.74986 0
M  V30 4100 C 397.268 -3.57109 0.46319 0
M  V30 4101 C 397.121 -4.06576 1.92395 0
M  V30 4102 C 398.44 -4.39888 -0.136473 0
M  V30 4103 H 395.559 -0.727113 0.120316 0
M  V30 4104 H 398.201 -1.63549 0.967039 0
M  V30 4105 H 396.351 -3.88414 -0.0816358 0
M  V30 4106 H 398.023 -3.85864 2.52798 0
M  V30 4107 H 396.266 -3.59011 2.43503 0
M  V30 4108 H 396.937 -5.15639 1.97028 0
M  V30 4109 H 399.413 -4.14803 0.328317 0
M  V30 4110 H 398.289 -5.48899 -0.0110582 0
M  V30 4111 H 398.55 -4.24758 -1.22608 0
M  V30 4112 N 397.609 -0.515225 -1.4894 0
M  V30 4113 C 399.02 -0.0710067 -1.86565 0
M  V30 4114 C 399.371 1.34733 -1.42623 0
M  V30 4115 O 398.496 2.00653 -0.810379 0
M  V30 4116 C 399.091 -0.122083 -3.3858 0
M  V30 4117 C 397.65 0.266863 -3.75453 0
M  V30 4118 C 396.797 -0.488376 -2.72966 0
M  V30 4119 H 399.748 -0.727266 -1.41055 0
M  V30 4120 H 399.769 0.669818 -3.74558 0
M  V30 4121 H 399.281 -1.15448 -3.70531 0
M  V30 4122 H 397.382 1.30196 -3.49113 0
M  V30 4123 H 397.495 -0.0624811 -4.79059 0
M  V30 4124 H 395.859 0.0635622 -2.54621 0
M  V30 4125 H 396.642 -1.52113 -3.07761 0
M  V30 4126 N 399.087 1.5561 -0.249682 0
M  V30 4127 C 400.335 1.98618 0.373548 0
M  V30 4128 C 400.656 1.13919 1.58264 0
M  V30 4129 O 399.926 0.222637 1.94631 0
M  V30 4130 H 398.506 0.733571 0.141006 0
M  V30 4131 H 401.168 1.91748 -0.349117 0
M  V30 4132 H 400.264 3.04584 0.680796 0
M  V30 4133 N 400.565 -0.0233959 1.57583 0
M  V30 4134 C 401.814 -0.712133 1.8871 0
M  V30 4135 C 402.127 -1.76217 0.848944 0
M  V30 4136 O 403.333 -2.50389 1.04964 0
M  V30 4137 C 401.789 -1.3177 3.3491 0
M  V30 4138 C 401.397 -0.303715 4.46969 0
M  V30 4139 C 403.141 -1.98598 3.75179 0
M  V30 4140 C 401.048 -0.917945 5.84233 0
M  V30 4141 H 399.978 -0.269735 0.704101 0
M  V30 4142 H 402.629 0.0333114 1.8347 0
M  V30 4143 H 401.011 -2.11304 3.34913 0
M  V30 4144 H 402.185 0.465325 4.58445 0
M  V30 4145 H 400.5 0.2628 4.1557 0
M  V30 4146 H 403.097 -2.45416 4.75053 0
M  V30 4147 H 403.44 -2.80659 3.07468 0
M  V30 4148 H 403.973 -1.25831 3.77374 0
M  V30 4149 H 400.712 -0.136633 6.55358 0
M  V30 4150 H 400.232 -1.65669 5.76467 0
M  V30 4151 H 401.911 -1.4236 6.31144 0
M  V30 4152 N 402.043 -1.548 -0.295768 0
M  V30 4153 C 403.29 -1.74329 -1.03032 0
M  V30 4154 C 403.618 -0.531915 -1.87085 0
M  V30 4155 O 402.873 0.486052 -1.89568 0
M  V30 4156 C 403.172 -2.98797 -1.961 0
M  V30 4157 C 402.838 -4.32356 -1.2798 0
M  V30 4158 C 401.5 -4.68661 -1.09135 0
M  V30 4159 C 403.852 -5.15128 -0.793243 0
M  V30 4160 C 401.18 -5.85312 -0.403269 0
M  V30 4161 C 403.532 -6.32488 -0.118854 0
M  V30 4162 C 402.196 -6.6745 0.0815043 0
M  V30 4163 H 401.466 -0.637916 -0.37702 0
M  V30 4164 H 404.113 -1.8906 -0.304696 0
M  V30 4165 H 402.418 -2.78869 -2.75207 0
M  V30 4166 H 404.115 -3.11102 -2.53015 0
M  V30 4167 H 400.705 -4.03808 -1.43655 0
M  V30 4168 H 404.889 -4.87575 -0.92653 0
M  V30 4169 H 400.145 -6.1094 -0.237098 0
M  V30 4170 H 404.319 -6.95892 0.266035 0
M  V30 4171 H 401.946 -7.57695 0.616685 0
M  V30 4172 N 403.521 0.559213 -1.47345 0
M  V30 4173 C 404.484 1.64854 -1.59235 0
M  V30 4174 C 405.484 1.53851 -0.467607 0
M  V30 4175 O 406.674 1.58045 -0.732617 0
M  V30 4176 C 403.806 3.04388 -1.53496 0
M  V30 4177 H 404.999 1.55662 -2.56339 0
M  V30 4178 H 402.552 0.778973 -1.35505 0
M  V30 4179 H 403.287 3.19115 -0.577604 0
M  V30 4180 H 403.072 3.13783 -2.35123 0
M  V30 4181 H 404.562 3.83642 -1.6495 0
M  V30 4182 N 404.999 1.35443 0.805782 0
M  V30 4183 C 405.962 1.28301 1.89925 0
M  V30 4184 C 406.962 0.194285 1.59622 0
M  V30 4185 O 408.152 0.448036 1.6834 0
M  V30 4186 C 405.284 0.984997 3.2636 0
M  V30 4187 H 406.477 2.2553 1.97677 0
M  V30 4188 H 404.03 1.19979 1.00173 0
M  V30 4189 H 404.765 0.016603 3.24296 0
M  V30 4190 H 404.55 1.77269 3.4974 0
M  V30 4191 H 406.04 0.960651 4.064 0
M  V30 4192 N 406.477 -1.02803 1.19454 0
M  V30 4193 C 407.725 -1.75869 0.995722 0
M  V30 4194 C 408.046 -1.89138 -0.474543 0
M  V30 4195 O 407.316 -1.42558 -1.34366 0
M  V30 4196 H 405.896 -0.651511 0.365435 0
M  V30 4197 H 408.558 -1.24004 1.50363 0
M  V30 4198 H 407.654 -2.76661 1.44447 0
M  V30 4199 N 407.956 -0.998596 -1.21925 0
M  V30 4200 C 409.233 -0.593401 -1.86382 0
M  V30 4201 C 409.613 0.92916 -1.89552 0
M  V30 4202 O 408.961 1.81347 -1.39017 0
M  V30 4203 C 409.171 -1.22039 -3.26967 0
M  V30 4204 C 410.519 -1.32449 -4.03413 0
M  V30 4205 O 411.543 -1.17522 -3.36254 0
M  V30 4206 O 410.402 -1.56395 -5.23644 0
M  V30 4207 H 407.496 -0.202385 -0.801854 0
M  V30 4208 H 410.042 -1.09484 -1.29659 0
M  V30 4209 H 408.814 -2.26158 -3.19325 0
M  V30 4210 H 408.437 -0.704906 -3.91301 0
M  V30 4211 N 409.434 1.37368 -0.772513 0
M  V30 4212 C 410.68 1.99969 -0.337681 0
M  V30 4213 C 411.013 1.61184 1.08321 0
M  V30 4214 O 410.288 0.858395 1.74533 0
M  V30 4215 C 410.571 3.56858 -0.482121 0
M  V30 4216 C 410.424 4.0555 -1.94549 0
M  V30 4217 C 411.743 4.39955 0.113143 0
M  V30 4218 H 408.862 0.726464 -0.124171 0
M  V30 4219 H 411.504 1.63034 -0.975699 0
M  V30 4220 H 409.654 3.88452 0.0610361 0
M  V30 4221 H 411.326 3.84518 -2.54841 0
M  V30 4222 H 409.569 3.57715 -2.45403 0
M  V30 4223 H 410.24 5.14587 -1.9976 0
M  V30 4224 H 412.716 4.14623 -0.35031 0
M  V30 4225 H 411.592 5.48897 -0.0180514 0
M  V30 4226 H 411.853 4.25403 1.20354 0
M  V30 4227 N 410.912 0.523116 1.48665 0
M  V30 4228 C 412.328 0.180511 1.58576 0
M  V30 4229 C 412.528 -1.31597 1.52592 0
M  V30 4230 O 411.584 -2.0937 1.4114 0
M  V30 4231 C 412.897 0.776949 2.90489 0
M  V30 4232 C 414.445 0.745058 3.04003 0
M  V30 4233 C 414.92 1.31995 4.38567 0
M  V30 4234 N 416.411 1.28162 4.45117 0
M  V30 4235 C 417.146 1.6964 5.47731 0
M  V30 4236 N 416.642 2.18816 6.57337 0
M  V30 4237 N 418.435 1.6092 5.38573 0
M  V30 4238 H 410.586 1.4958 1.50797 0
M  V30 4239 H 412.849 0.621772 0.715614 0
M  V30 4240 H 412.555 1.82732 3.00503 0
M  V30 4241 H 412.429 0.25007 3.7637 0
M  V30 4242 H 414.816 -0.296532 2.93606 0
M  V30 4243 H 414.897 1.30933 2.1975 0
M  V30 4244 H 414.541 2.36043 4.49718 0
M  V30 4245 H 414.471 0.731418 5.21496 0
M  V30 4246 H 416.962 0.92155 3.66491 0
M  V30 4247 H 417.275 2.48478 7.31764 0
M  V30 4248 H 415.62 2.22805 6.58318 0
M  V30 4249 H 418.811 1.22304 4.5184 0
M  V30 4250 H 418.984 1.93567 6.18414 0
M  V30 4251 N 412.39 -1.55475 0.257931 0
M  V30 4252 C 413.667 -1.91155 -0.414629 0
M  V30 4253 C 414.047 -1.18008 -1.75035 0
M  V30 4254 O 413.395 -0.301193 -2.26506 0
M  V30 4255 C 413.605 -3.44283 -0.571859 0
M  V30 4256 C 414.953 -4.15744 -0.862678 0
M  V30 4257 O 415.977 -3.50083 -0.657314 0
M  V30 4258 O 414.836 -5.31909 -1.2544 0
M  V30 4259 H 411.93 -0.796016 -0.22425 0
M  V30 4260 H 414.476 -1.66976 0.302814 0
M  V30 4261 H 413.248 -3.89558 0.368844 0
M  V30 4262 H 412.871 -3.7436 -1.33943 0
M  V30 4263 N 413.868 0.0150385 -1.57593 0
M  V30 4264 C 414.815 1.01126 -2.07466 0
M  V30 4265 C 415.785 1.35064 -0.966794 0
M  V30 4266 O 416.97 1.4516 -1.23827 0
M  V30 4267 C 414.11 2.30276 -2.57035 0
M  V30 4268 C 413.223 2.02373 -3.81666 0
M  V30 4269 C 412.358 3.25496 -4.19793 0
M  V30 4270 C 411.397 2.93211 -5.37303 0
M  V30 4271 N 410.534 4.08826 -5.70794 0
M  V30 4272 H 415.374 0.57901 -2.92321 0
M  V30 4273 H 412.911 0.27426 -1.44521 0
M  V30 4274 H 414.869 3.05757 -2.83846 0
M  V30 4275 H 413.499 2.71197 -1.75077 0
M  V30 4276 H 412.551 1.17327 -3.61854 0
M  V30 4277 H 413.863 1.74567 -4.67256 0
M  V30 4278 H 413.017 4.09333 -4.47807 0
M  V30 4279 H 411.756 3.56428 -3.32882 0
M  V30 4280 H 410.761 2.07777 -5.09027 0
M  V30 4281 H 411.986 2.63542 -6.25877 0
M  V30 4282 H 409.932 4.39682 -4.86842 0
M  V30 4283 H 409.849 3.84491 -6.50924 0
M  V30 4284 H 411.117 4.93496 -6.03392 0
M  V30 4285 N 415.346 1.54954 0.287554 0
M  V30 4286 C 416.594 1.74528 1.01904 0
M  V30 4287 C 416.915 0.541349 1.87335 0
M  V30 4288 O 416.185 -0.444108 1.908 0
M  V30 4289 H 414.765 0.643576 0.379235 0
M  V30 4290 H 417.427 1.92333 0.315294 0
M  V30 4291 H 416.523 2.64015 1.6644 0
M  V30 4292 N 416.824 -0.551391 1.4764 0
M  V30 4293 C 417.754 -1.66757 1.63445 0
M  V30 4294 C 418.735 -1.63077 0.483742 0
M  V30 4295 O 419.92 -1.80607 0.71377 0
M  V30 4296 C 417.05 -3.05387 1.65396 0
M  V30 4297 C 416.004 -3.23918 2.79752 0
M  V30 4298 C 415.33 -4.63393 2.66779 0
M  V30 4299 C 416.63 -3.08735 4.21284 0
M  V30 4300 H 418.324 -1.53786 2.56886 0
M  V30 4301 H 415.87 -0.738415 1.23626 0
M  V30 4302 H 417.823 -3.83325 1.75043 0
M  V30 4303 H 416.547 -3.19332 0.685195 0
M  V30 4304 H 415.206 -2.48391 2.69625 0
M  V30 4305 H 414.854 -4.74144 1.67918 0
M  V30 4306 H 414.554 -4.7674 3.43501 0
M  V30 4307 H 416.078 -5.43458 2.78364 0
M  V30 4308 H 417.492 -3.76484 4.32357 0
M  V30 4309 H 415.889 -3.33588 4.98838 0
M  V30 4310 H 416.959 -2.0541 4.39243 0
M  V30 4311 N 418.302 -1.35869 -0.798587 0
M  V30 4312 C 419.718 -1.16082 -1.09532 0
M  V30 4313 C 419.918 0.0213124 -2.01489 0
M  V30 4314 O 418.974 0.689488 -2.42904 0
M  V30 4315 C 420.287 -2.46748 -1.7186 0
M  V30 4316 C 421.835 -2.53028 -1.84244 0
M  V30 4317 C 422.31 -3.83758 -2.49988 0
M  V30 4318 N 423.801 -3.85053 -2.57465 0
M  V30 4319 C 424.536 -4.8294 -3.09122 0
M  V30 4320 N 424.032 -5.91217 -3.61157 0
M  V30 4321 N 425.825 -4.70369 -3.0775 0
M  V30 4322 H 417.976 -2.11571 -0.187461 0
M  V30 4323 H 420.239 -0.936726 -0.145765 0
M  V30 4324 H 419.945 -3.33471 -1.11759 0
M  V30 4325 H 419.819 -2.61883 -2.71472 0
M  V30 4326 H 422.206 -1.66729 -2.43486 0
M  V30 4327 H 422.287 -2.418 -0.834643 0
M  V30 4328 H 421.931 -4.70459 -1.91393 0
M  V30 4329 H 421.861 -3.92278 -3.5132 0
M  V30 4330 H 424.352 -3.06822 -2.20609 0
M  V30 4331 H 424.665 -6.61892 -3.98896 0
M  V30 4332 H 423.01 -5.94899 -3.59333 0
M  V30 4333 H 426.201 -3.84914 -2.66381 0
M  V30 4334 H 426.374 -5.46816 -3.47701 0
M  V30 4335 N 419.78 1.02168 -1.19998 0
M  V30 4336 C 420.712 2.10705 -0.901994 0
M  V30 4337 C 421.725 1.6244 0.108216 0
M  V30 4338 O 422.914 1.78082 -0.12214 0
M  V30 4339 C 420.014 3.37291 -0.329834 0
M  V30 4340 C 419.187 4.14714 -1.39035 0
M  V30 4341 C 418.246 5.19606 -0.830432 0
M  V30 4342 O 417.272 5.48809 -1.50989 0
M  V30 4343 N 418.474 5.79366 0.362696 0
M  V30 4344 H 421.239 2.36856 -1.83628 0
M  V30 4345 H 418.8 1.18518 -1.10296 0
M  V30 4346 H 420.792 4.04657 0.0587633 0
M  V30 4347 H 419.362 3.0843 0.508891 0
M  V30 4348 H 418.582 3.42392 -1.9535 0
M  V30 4349 H 419.87 4.63226 -2.10474 0
M  V30 4350 H 419.268 5.57968 0.932081 0
M  V30 4351 H 417.825 6.48106 0.69299 0
M  V30 4352 N 421.258 1.00505 1.21394 0
M  V30 4353 C 422.507 0.683159 1.89778 0
M  V30 4354 C 422.82 -0.789471 1.7896 0
M  V30 4355 O 424.026 -1.22344 2.42372 0
M  V30 4356 C 422.482 1.17146 3.40301 0
M  V30 4357 C 422.09 2.67017 3.5973 0
M  V30 4358 C 423.834 0.924461 4.14311 0
M  V30 4359 C 421.741 3.09387 5.04017 0
M  V30 4360 H 420.671 0.25183 0.710702 0
M  V30 4361 H 423.322 1.21622 1.37406 0
M  V30 4362 H 421.704 0.566451 3.91928 0
M  V30 4363 H 422.878 3.32968 3.18542 0
M  V30 4364 H 421.193 2.89732 2.99073 0
M  V30 4365 H 423.79 1.21658 5.20676 0
M  V30 4366 H 424.133 -0.139286 4.16067 0
M  V30 4367 H 424.666 1.49226 3.6875 0
M  V30 4368 H 421.405 4.14989 5.07409 0
M  V30 4369 H 420.925 2.48149 5.46061 0
M  V30 4370 H 422.604 3.01371 5.72525 0
M  V30 4371 N 422.737 -1.36956 0.779787 0
M  V30 4372 C 423.983 -1.99787 0.348281 0
M  V30 4373 C 424.316 -1.61756 -1.07465 0
M  V30 4374 O 423.591 -0.867639 -1.74075 0
M  V30 4375 C 423.874 -3.56597 0.50104 0
M  V30 4376 C 423.727 -4.04513 1.96697 0
M  V30 4377 C 425.046 -4.40008 -0.0898097 0
M  V30 4378 H 422.165 -0.725796 0.128022 0
M  V30 4379 H 424.807 -1.62514 0.984331 0
M  V30 4380 H 422.957 -3.88479 -0.0404347 0
M  V30 4381 H 424.629 -3.83161 2.56876 0
M  V30 4382 H 422.872 -3.56408 2.47297 0
M  V30 4383 H 423.543 -5.1352 2.02486 0
M  V30 4384 H 426.019 -4.14431 0.372293 0
M  V30 4385 H 424.895 -5.4888 0.0471605 0
M  V30 4386 H 425.156 -4.26035 -1.18096 0
M  V30 4387 N 424.215 -0.530993 -1.48385 0
M  V30 4388 C 425.443 -0.00134122 -2.069 0
M  V30 4389 C 425.858 1.2805 -1.3874 0
M  V30 4390 O 425.215 1.76204 -0.475244 0
M  V30 4391 C 425.266 0.225256 -3.60798 0
M  V30 4392 O 424.987 -1.0058 -4.26398 0
M  V30 4393 C 426.488 0.795172 -4.3611 0
M  V30 4394 H 423.708 -0.0339704 -0.67014 0
M  V30 4395 H 426.252 -0.736926 -1.90761 0
M  V30 4396 H 424.407 0.910891 -3.76539 0
M  V30 4397 H 424.821 -0.787165 -5.1856 0
M  V30 4398 H 426.295 0.903143 -5.44562 0
M  V30 4399 H 426.772 1.80031 -4.00606 0
M  V30 4400 H 427.378 0.146069 -4.25049 0
M  V30 4401 N 425.693 1.55336 -0.266172 0
M  V30 4402 C 426.656 2.20878 0.612001 0
M  V30 4403 C 427.656 1.18388 1.08816 0
M  V30 4404 O 428.846 1.4335 0.989774 0
M  V30 4405 C 425.978 2.86765 1.84332 0
M  V30 4406 H 427.171 2.99873 0.0398718 0
M  V30 4407 H 424.724 1.56291 -0.0167309 0
M  V30 4408 H 425.459 2.11759 2.45619 0
M  V30 4409 H 425.244 3.61862 1.5099 0
M  V30 4410 H 426.734 3.36867 2.46801 0
M  V30 4411 N 427.171 -0.0066808 1.57599 0
M  V30 4412 C 428.399 -0.704087 1.94551 0
M  V30 4413 C 428.814 -1.67677 0.867746 0
M  V30 4414 O 428.171 -1.8185 -0.153925 0
M  V30 4415 C 428.222 -1.44177 3.31505 0
M  V30 4416 O 427.943 -0.508097 4.35144 0
M  V30 4417 C 429.444 -2.23429 3.82876 0
M  V30 4418 H 426.664 -0.196523 0.641576 0
M  V30 4419 H 429.208 0.042453 2.04456 0
M  V30 4420 H 427.363 -2.13999 3.22929 0
M  V30 4421 H 427.777 -1.02782 5.14331 0
M  V30 4422 H 429.251 -2.70552 4.8115 0
M  V30 4423 H 429.728 -3.05818 3.15233 0
M  V30 4424 H 430.334 -1.58636 3.94607 0
M  V30 4425 N 428.649 -1.55105 -0.279332 0
M  V30 4426 C 429.897 -1.75066 -1.00977 0
M  V30 4427 C 430.218 -0.551276 -1.87045 0
M  V30 4428 O 429.488 0.433984 -1.91032 0
M  V30 4429 H 428.068 -0.645578 -0.375816 0
M  V30 4430 H 430.73 -1.92497 -0.305089 0
M  V30 4431 H 429.826 -2.64894 -1.65038 0
M  V30 4432 N 430.127 0.543554 -1.4793 0
M  V30 4433 C 431.404 1.30458 -1.4574 0
M  V30 4434 C 431.784 2.1048 -0.161692 0
M  V30 4435 O 431.132 2.11831 0.856734 0
M  V30 4436 C 431.342 2.19754 -2.71126 0
M  V30 4437 C 432.69 2.80334 -3.18901 0
M  V30 4438 O 433.714 2.30049 -2.71948 0
M  V30 4439 O 432.573 3.71766 -4.00565 0
M  V30 4440 H 429.667 0.588117 -0.581418 0
M  V30 4441 H 432.213 0.561328 -1.60147 0
M  V30 4442 H 430.985 1.60316 -3.56952 0
M  V30 4443 H 430.608 3.01351 -2.59371 0
M  V30 4444 N 431.605 1.3629 0.791371 0
M  V30 4445 C 432.853 1.30154 1.5461 0
M  V30 4446 C 433.174 -0.119409 1.94634 0
M  V30 4447 O 432.444 -1.05924 1.64794 0
M  V30 4448 H 431.024 0.478784 0.573389 0
M  V30 4449 H 433.686 1.70565 0.94306 0
M  V30 4450 H 432.782 1.92762 2.45457 0
M  V30 4451 N 433.083 -1.0153 1.20538 0
M  V30 4452 C 434.308 -1.79283 1.04271 0
M  V30 4453 C 434.733 -1.8372 -0.403544 0
M  V30 4454 O 434.091 -1.27321 -1.2907 0
M  V30 4455 C 434.139 -3.21535 1.63241 0
M  V30 4456 O 433.243 -4.03099 0.870908 0
M  V30 4457 H 432.584 -0.55293 0.367647 0
M  V30 4458 H 435.114 -1.27696 1.59859 0
M  V30 4459 H 435.124 -3.72243 1.6703 0
M  V30 4460 H 433.799 -3.1762 2.68497 0
M  V30 4461 H 432.376 -3.61693 0.907323 0
M  V30 4462 N 434.561 -1.01147 -1.20859 0
M  V30 4463 C 435.81 -0.693214 -1.89413 0
M  V30 4464 C 436.123 0.779969 -1.79376 0
M  V30 4465 O 437.329 1.21057 -2.43017 0
M  V30 4466 C 435.785 -1.18949 -3.39675 0
M  V30 4467 C 435.393 -2.68921 -3.58309 0
M  V30 4468 C 437.137 -0.94642 -4.13815 0
M  V30 4469 C 435.044 -3.12056 -5.0237 0
M  V30 4470 H 433.974 -0.255595 -0.709357 0
M  V30 4471 H 436.625 -1.22349 -1.36759 0
M  V30 4472 H 435.007 -0.587228 -3.91622 0
M  V30 4473 H 436.181 -3.34652 -3.16772 0
M  V30 4474 H 434.496 -2.91314 -2.97532 0
M  V30 4475 H 437.093 -1.24417 -5.20023 0
M  V30 4476 H 437.436 0.117219 -4.16135 0
M  V30 4477 H 437.969 -1.5118 -3.67953 0
M  V30 4478 H 434.708 -4.17674 -5.05202 0
M  V30 4479 H 434.228 -2.51041 -5.44737 0
M  V30 4480 H 435.907 -3.04403 -5.70918 0
M  V30 4481 N 436.039 1.36541 -0.78704 0
M  V30 4482 C 437.002 2.28413 -0.189778 0
M  V30 4483 C 438.002 1.48719 0.611499 0
M  V30 4484 O 439.192 1.68737 0.432842 0
M  V30 4485 C 436.324 3.32824 0.737638 0
M  V30 4486 H 437.517 2.82743 -0.999831 0
M  V30 4487 H 435.07 1.46065 -0.556298 0
M  V30 4488 H 435.805 2.83646 1.57212 0
M  V30 4489 H 435.59 3.91752 0.165044 0
M  V30 4490 H 437.08 4.0144 1.15047 0
M  V30 4491 N 437.518 0.538854 1.48102 0
M  V30 4492 C 438.481 -0.208395 2.28251 0
M  V30 4493 C 439.481 -0.859656 1.35892 0
M  V30 4494 O 440.671 -0.71834 1.58699 0
M  V30 4495 C 437.803 -1.30252 3.15035 0
M  V30 4496 H 438.996 0.495407 2.9578 0
M  V30 4497 H 436.549 0.295112 1.53489 0
M  V30 4498 H 437.284 -2.0393 2.52157 0
M  V30 4499 H 437.069 -0.840551 3.82985 0
M  V30 4500 H 438.559 -1.82787 3.75471 0
M  V30 4501 N 438.996 -1.55193 0.274407 0
M  V30 4502 C 439.928 -2.1989 -0.646595 0
M  V30 4503 C 440.941 -1.1834 -1.11801 0
M  V30 4504 O 442.13 -1.4507 -1.04004 0
M  V30 4505 C 439.23 -2.8104 -1.89393 0
M  V30 4506 C 438.403 -4.08274 -1.56943 0
M  V30 4507 C 437.462 -4.53478 -2.66916 0
M  V30 4508 O 436.488 -5.19267 -2.33132 0
M  V30 4509 N 437.69 -4.2356 -3.9696 0
M  V30 4510 H 440.455 -2.99556 -0.0928686 0
M  V30 4511 H 438.016 -1.61618 0.0954783 0
M  V30 4512 H 440.008 -3.08226 -2.62257 0
M  V30 4513 H 438.578 -2.05372 -2.35672 0
M  V30 4514 H 437.798 -3.88384 -0.674655 0
M  V30 4515 H 439.086 -4.91173 -1.32764 0
M  V30 4516 H 438.484 -3.70799 -4.27229 0
M  V30 4517 H 437.041 -4.55518 -4.66205 0
M  V30 4518 N 440.474 -0.00167713 -1.576 0
M  V30 4519 C 441.699 0.69739 -1.95323 0
M  V30 4520 C 442.124 1.6642 -0.876706 0
M  V30 4521 O 441.482 1.80548 0.165007 0
M  V30 4522 C 441.53 1.40403 -3.32144 0
M  V30 4523 O 440.634 2.5185 -3.26566 0
M  V30 4524 H 439.975 0.185373 -0.637599 0
M  V30 4525 H 442.505 -0.0553665 -2.04525 0
M  V30 4526 H 442.515 1.76707 -3.67748 0
M  V30 4527 H 441.19 0.695167 -4.10049 0
M  V30 4528 H 439.767 2.17861 -3.0264 0
M  V30 4529 N 441.952 1.55251 0.271103 0
M  V30 4530 C 442.915 1.87484 1.31842 0
M  V30 4531 C 443.915 0.749545 1.42262 0
M  V30 4532 O 445.105 1.01771 1.4138 0
M  V30 4533 C 442.237 2.0818 2.69951 0
M  V30 4534 H 443.43 2.81108 1.0449 0
M  V30 4535 H 440.983 1.47771 0.509258 0
M  V30 4536 H 441.718 1.16944 3.02481 0
M  V30 4537 H 441.503 2.90114 2.63774 0
M  V30 4538 H 442.993 2.34385 3.4562 0
M  V30 4539 N 443.43 -0.535701 1.48216 0
M  V30 4540 C 444.393 -1.623 1.61838 0
M  V30 4541 C 445.393 -1.53087 0.492024 0
M  V30 4542 O 446.583 -1.5686 0.757668 0
M  V30 4543 C 443.715 -3.01907 1.58319 0
M  V30 4544 H 444.908 -1.51564 2.58783 0
M  V30 4545 H 442.461 -0.757317 1.36727 0
M  V30 4546 H 443.196 -3.18155 0.628299 0
M  V30 4547 H 442.981 -3.10003 2.40085 0
M  V30 4548 H 444.471 -3.80969 1.71033 0
M  V30 4549 N 444.908 -1.36708 -0.784132 0
M  V30 4550 C 445.818 -1.3363 -1.92822 0
M  V30 4551 C 446.834 -0.237686 -1.72369 0
M  V30 4552 O 448.01 -0.470962 -1.95816 0
M  V30 4553 C 445.075 -1.13011 -3.27764 0
M  V30 4554 C 444.136 -2.32397 -3.60957 0
M  V30 4555 C 443.369 -2.12752 -4.89461 0
M  V30 4556 O 443.592 -1.10541 -5.59586 0
M  V30 4557 O 442.526 -3.00653 -5.21432 0
M  V30 4558 H 446.352 -2.29964 -1.98369 0
M  V30 4559 H 443.937 -1.1731 -0.925136 0
M  V30 4560 H 445.819 -1.03451 -4.08504 0
M  V30 4561 H 444.494 -0.19743 -3.23097 0
M  V30 4562 H 443.401 -2.47527 -2.80502 0
M  V30 4563 H 444.734 -3.2419 -3.70354 0
M  V30 4564 N 446.386 1.0089 -1.21074 0
M  V30 4565 C 447.616 1.77933 -1.04993 0
M  V30 4566 C 448.024 1.84847 0.403495 0
M  V30 4567 O 447.367 1.30606 1.29181 0
M  V30 4568 C 447.429 3.23541 -1.56722 0
M  V30 4569 C 447.093 3.40214 -3.05129 0
M  V30 4570 C 448.09 3.2881 -4.02716 0
M  V30 4571 C 445.775 3.65781 -3.44252 0
M  V30 4572 C 447.769 3.42732 -5.37414 0
M  V30 4573 C 445.456 3.79346 -4.79103 0
M  V30 4574 C 446.454 3.67827 -5.75493 0
M  V30 4575 O 446.142 3.80965 -7.07899 0
M  V30 4576 H 445.874 0.566157 -0.369381 0
M  V30 4577 H 448.428 1.27826 -1.60779 0
M  V30 4578 H 446.658 3.74766 -0.953285 0
M  V30 4579 H 448.347 3.82245 -1.36543 0
M  V30 4580 H 449.113 3.08986 -3.73835 0
M  V30 4581 H 444.992 3.73831 -2.69762 0
M  V30 4582 H 448.536 3.33658 -6.12632 0
M  V30 4583 H 444.433 3.98672 -5.07672 0
M  V30 4584 H 445.201 3.97937 -7.15254 0
M  V30 4585 N 447.864 1.01787 1.20321 0
M  V30 4586 C 449.113 0.703249 1.89043 0
M  V30 4587 C 449.426 -0.770445 1.79787 0
M  V30 4588 O 450.632 -1.19767 2.43656 0
M  V30 4589 C 449.088 1.20749 3.3904 0
M  V30 4590 C 448.696 2.70817 3.56878 0
M  V30 4591 C 450.44 0.968352 4.13308 0
M  V30 4592 C 448.347 3.14716 5.00708 0
M  V30 4593 H 447.277 0.259354 0.707991 0
M  V30 4594 H 449.928 1.23072 1.36108 0
M  V30 4595 H 448.31 0.607989 3.91305 0
M  V30 4596 H 449.484 3.36327 3.14993 0
M  V30 4597 H 447.799 2.92888 2.95983 0
M  V30 4598 H 450.396 1.27173 5.19356 0
M  V30 4599 H 450.739 -0.095149 4.16191 0
M  V30 4600 H 451.272 1.53129 3.67146 0
M  V30 4601 H 448.011 4.20347 5.02979 0
M  V30 4602 H 447.531 2.53927 5.43398 0
M  V30 4603 H 449.21 3.07426 5.69296 0
M  V30 4604 N 449.342 -1.36122 0.79427 0
M  V30 4605 C 450.252 -2.33769 0.197296 0
M  V30 4606 C 451.268 -1.61276 -0.653153 0
M  V30 4607 O 452.444 -1.9323 -0.5678 0
M  V30 4608 C 449.509 -3.40474 -0.654098 0
M  V30 4609 C 448.57 -4.28759 0.215411 0
M  V30 4610 C 447.803 -5.30368 -0.595443 0
M  V30 4611 O 448.026 -5.40211 -1.83107 0
M  V30 4612 O 446.96 -6.019 0.00721351 0
M  V30 4613 H 450.786 -2.86597 1.00478 0
M  V30 4614 H 448.371 -1.38676 0.555818 0
M  V30 4615 H 450.253 -4.05703 -1.13944 0
M  V30 4616 H 448.928 -2.89937 -1.43938 0
M  V30 4617 H 447.835 -3.66554 0.747615 0
M  V30 4618 H 449.168 -4.82661 0.964332 0
M  V30 4619 N 450.82 -0.546701 -1.47814 0
M  V30 4620 C 451.77 0.227042 -2.26867 0
M  V30 4621 C 452.754 0.894844 -1.33721 0
M  V30 4622 O 453.946 0.794887 -1.58147 0
M  V30 4623 C 451.075 1.26299 -3.19223 0
M  V30 4624 C 450.161 0.59913 -4.19847 0
M  V30 4625 N 450.552 -0.324777 -5.04756 0
M  V30 4626 C 448.85 0.854331 -4.37741 0
M  V30 4627 C 449.551 -0.709386 -5.77358 0
M  V30 4628 N 448.527 -0.0666153 -5.43559 0
M  V30 4629 H 452.329 -0.483476 -2.89896 0
M  V30 4630 H 449.843 -0.365893 -1.58224 0
M  V30 4631 H 451.84 1.83116 -3.74532 0
M  V30 4632 H 450.5 1.97471 -2.57751 0
M  V30 4633 H 451.511 -0.698351 -5.1317 0
M  V30 4634 H 448.188 1.55536 -3.87447 0
M  V30 4635 H 449.578 -1.46796 -6.55668 0
M  V30 4636 N 452.299 1.55045 -0.282633 0
M  V30 4637 C 453.229 2.2579 0.595066 0
M  V30 4638 C 454.21 1.25074 1.15284 0
M  V30 4639 O 455.395 1.5381 1.18559 0
M  V30 4640 C 452.525 2.98472 1.77572 0
M  V30 4641 C 451.479 4.0618 1.34914 0
M  V30 4642 C 450.805 4.66477 2.6135 0
M  V30 4643 C 452.105 5.1996 0.493821 0
M  V30 4644 H 453.799 2.994 0.00505653 0
M  V30 4645 H 451.345 1.44 0.000992001 0
M  V30 4646 H 453.298 3.46677 2.39568 0
M  V30 4647 H 452.022 2.2241 2.39168 0
M  V30 4648 H 450.681 3.58797 0.752338 0
M  V30 4649 H 450.329 3.87074 3.2122 0
M  V30 4650 H 450.029 5.39207 2.33516 0
M  V30 4651 H 451.553 5.17435 3.24181 0
M  V30 4652 H 452.967 5.64172 1.01898 0
M  V30 4653 H 451.364 5.99299 0.310047 0
M  V30 4654 H 452.434 4.82462 -0.485593 0
M  V30 4655 N 453.777 0.010035 1.57597 0
M  V30 4656 C 454.725 -0.996272 2.10184 0
M  V30 4657 C 455.719 -1.34942 1.02406 0
M  V30 4658 O 456.925 -1.33389 1.20861 0
M  V30 4659 H 453.3 -0.338982 0.671264 0
M  V30 4660 H 455.271 -0.527272 2.93705 0
M  V30 4661 C 454.02 -2.27599 2.62857 0
M  V30 4662 H 453.343 -2.01295 3.45428 0
M  V30 4663 H 454.783 -2.96265 3.0332 0
M  V30 4664 C 453.242 -2.99269 1.54725 0
M  V30 4665 O 453.772 -3.90644 0.93597 0
M  V30 4666 N 451.978 -2.61269 1.27228 0
M  V30 4667 H 451.525 -1.87043 1.77123 0
M  V30 4668 H 451.483 -3.09534 0.550999 0
M  V30 4669 N 455.255 -1.55392 -0.262866 0
M  V30 4670 C 456.532 -1.67204 -1.01499 0
M  V30 4671 C 456.912 -0.545186 -2.03939 0
M  V30 4672 O 456.26 0.453467 -2.23955 0
M  V30 4673 C 456.47 -3.06847 -1.6627 0
M  V30 4674 C 457.818 -3.64928 -2.17054 0
M  V30 4675 O 458.842 -3.09545 -1.76239 0
M  V30 4676 O 457.701 -4.61984 -2.91947 0
M  V30 4677 H 454.795 -0.679467 -0.471438 0
M  V30 4678 H 457.341 -1.67729 -0.257918 0
M  V30 4679 H 456.113 -3.80309 -0.920915 0
M  V30 4680 H 455.736 -3.10266 -2.48638 0
M  V30 4681 N 456.733 0.527833 -1.48498 0
M  V30 4682 C 457.665 1.6482 -1.5927 0
M  V30 4683 C 458.678 1.55659 -0.476869 0
M  V30 4684 O 459.867 1.62081 -0.747806 0
M  V30 4685 C 456.967 3.0348 -1.50842 0
M  V30 4686 C 456.14 3.381 -2.77502 0
M  V30 4687 C 455.199 4.5605 -2.62497 0
M  V30 4688 O 454.225 4.59165 -3.36387 0
M  V30 4689 N 455.427 5.54353 -1.72257 0
M  V30 4690 H 458.192 1.56015 -2.55889 0
M  V30 4691 H 455.753 0.715152 -1.45249 0
M  V30 4692 H 457.745 3.80264 -1.38496 0
M  V30 4693 H 456.315 3.06352 -0.621887 0
M  V30 4694 H 455.535 2.50473 -3.04396 0
M  V30 4695 H 456.823 3.58017 -3.61527 0
M  V30 4696 H 456.221 5.54617 -1.11431 0
M  V30 4697 H 454.778 6.30347 -1.65849 0
M  V30 4698 N 458.211 1.37122 0.776871 0
M  V30 4699 C 459.174 1.32301 1.8716 0
M  V30 4700 C 460.174 0.228099 1.59174 0
M  V30 4701 O 461.364 0.483642 1.67352 0
M  V30 4702 C 458.496 1.054 3.24197 0
M  V30 4703 H 459.689 2.29673 1.92848 0
M  V30 4704 H 457.242 1.22077 0.97606 0
M  V30 4705 H 457.977 0.0853872 3.24188 0
M  V30 4706 H 457.762 1.84648 3.45901 0
M  V30 4707 H 459.252 1.04664 4.04271 0
M  V30 4708 O 459.728 -0.91678 1.32956 0
M  V30 4709 H 460.419 -1.55003 1.16162 0
M  V30 END ATOM
M  V30 BEGIN BOND
M  V30 END BOND
M  V30 END CTAB
M  END
$$$$
