drugbank_target|Q9UNQ0 ATP-binding cassette sub-family G member 2 (DB04851; DB11995)
 OpenBabel12092119473D

  0  0  0     0  0            999 V3000
M  V30 BEGIN CTAB
M  V30 COUNTS 10272 10379 0 0 0
M  V30 BEGIN ATOM
M  V30 1 H -0.908 1.98254 -0.117106 0
M  V30 2 N 0 1.576 0 0
M  V30 3 C 0.933 2.03868 1.02534 0
M  V30 4 C 1.911 0.928543 1.3348 0
M  V30 5 O 3.095 1.19667 1.45644 0
M  V30 6 C 0.222 2.43627 2.35294 0
M  V30 7 C -0.732 3.65373 2.2001 0
M  V30 8 S 0.101 5.13292 1.52614 0
M  V30 9 C 1.257 5.56322 2.86805 0
M  V30 10 H 1.49 2.90518 0.631377 0
M  V30 11 H -0.977 1.52953 0.210867 0
M  V30 12 H 0.981 2.67203 3.11629 0
M  V30 13 H -0.358 1.57376 2.7183 0
M  V30 14 H -1.165 3.90944 3.18086 0
M  V30 15 H -1.563 3.418 1.51819 0
M  V30 16 H 0.729 5.58782 3.83104 0
M  V30 17 H 1.672 6.56266 2.65933 0
M  V30 18 H 2.08 4.83886 2.90714 0
M  V30 19 N 1.4781 -0.272755 1.55222 0
M  V30 20 C 2.7031 -1.02683 1.80197 0
M  V30 21 C 3.1281 -1.79142 0.573551 0
M  V30 22 O 2.4861 -1.74917 -0.476849 0
M  V30 23 C 2.5341 -1.9609 3.02624 0
M  V30 24 O 1.6381 -3.04863 2.77727 0
M  V30 25 H 0.9791 -0.293557 0.595584 0
M  V30 26 H 3.5091 -0.30159 2.02365 0
M  V30 27 H 3.5191 -2.38039 3.31363 0
M  V30 28 H 2.1941 -1.39851 3.91682 0
M  V30 29 H 0.7711 -2.67228 2.60084 0
M  V30 30 N 2.9562 -1.48159 -0.537278 0
M  V30 31 C 4.1812 -1.59707 -1.32319 0
M  V30 32 C 4.6062 -0.254859 -1.86365 0
M  V30 33 O 3.9642 0.772378 -1.64024 0
M  V30 34 C 4.0122 -2.6412 -2.45505 0
M  V30 35 O 3.1162 -2.20774 -3.48328 0
M  V30 36 H 2.4572 -0.535791 -0.392204 0
M  V30 37 H 4.9872 -1.94092 -0.647268 0
M  V30 38 H 4.9972 -2.85166 -2.91795 0
M  V30 39 H 3.6722 -3.61567 -2.05528 0
M  V30 40 H 2.2492 -2.09911 -3.08207 0
M  V30 41 N 4.4343 0.785586 -1.36625 0
M  V30 42 C 5.6593 1.57963 -1.34397 0
M  V30 43 C 6.0843 1.87964 0.071526 0
M  V30 44 O 5.4423 1.48182 1.0446 0
M  V30 45 C 5.4903 2.87511 -2.17646 0
M  V30 46 O 4.5943 3.81281 -1.57158 0
M  V30 47 H 3.9353 0.479014 -0.459828 0
M  V30 48 H 6.4653 0.973411 -1.79961 0
M  V30 49 H 6.4753 3.36745 -2.30362 0
M  V30 50 H 5.1503 2.65002 -3.20541 0
M  V30 51 H 3.7273 3.39885 -1.53403 0
M  V30 52 N 5.9124 1.20967 1.01018 0
M  V30 53 C 6.8604 0.961223 2.1181 0
M  V30 54 C 7.8544 -0.0897034 1.69162 0
M  V30 55 O 9.0604 0.0612271 1.79896 0
M  V30 56 H 5.4354 0.29355 0.692338 0
M  V30 57 H 7.4064 1.90178 2.29946 0
M  V30 58 C 6.1554 0.536854 3.4353 0
M  V30 59 H 5.4784 1.33713 3.76777 0
M  V30 60 H 6.9184 0.402286 4.22087 0
M  V30 61 C 5.3774 -0.751574 3.2841 0
M  V30 62 O 5.9074 -1.80841 3.58691 0
M  V30 63 N 4.1134 -0.716079 2.81639 0
M  V30 64 H 3.6604 0.144236 2.57196 0
M  V30 65 H 3.6184 -1.57847 2.71904 0
M  V30 66 N 7.3905 -1.2043 1.01659 0
M  V30 67 C 8.6365 -1.90079 0.706963 0
M  V30 68 C 8.9695 -1.78648 -0.761474 0
M  V30 69 O 8.2445 -1.17069 -1.55323 0
M  V30 70 C 8.5275 -3.41469 1.14327 0
M  V30 71 C 8.3805 -3.61833 2.67201 0
M  V30 72 C 9.6995 -4.34261 0.714529 0
M  V30 73 H 6.8185 -0.690254 0.2583 0
M  V30 74 H 9.4605 -1.41826 1.26433 0
M  V30 75 H 7.6105 -3.82696 0.669056 0
M  V30 76 H 9.2825 -3.2986 3.22475 0
M  V30 77 H 7.5255 -3.05304 3.08175 0
M  V30 78 H 8.1965 -4.67955 2.92783 0
M  V30 79 H 10.6725 -4.00682 1.12221 0
M  V30 80 H 9.5485 -5.38806 1.04784 0
M  V30 81 H 9.8095 -4.40431 -0.383799 0
M  V30 82 N 8.8686 -0.792821 -1.36206 0
M  V30 83 C 9.7786 -0.194808 -2.3379 0
M  V30 84 C 10.7946 0.654869 -1.61206 0
M  V30 85 O 11.9706 0.569856 -1.9317 0
M  V30 86 C 9.0356 0.657721 -3.40404 0
M  V30 87 C 8.0966 -0.210849 -4.28782 0
M  V30 88 C 7.3296 0.601086 -5.30304 0
M  V30 89 O 7.5526 1.83682 -5.40016 0
M  V30 90 O 6.4866 -0.000808277 -6.019 0
M  V30 91 H 10.3126 -1.00172 -2.86704 0
M  V30 92 H 7.8976 -0.554341 -1.38735 0
M  V30 93 H 9.7796 1.14375 -4.05581 0
M  V30 94 H 8.4546 1.44247 -2.89784 0
M  V30 95 H 7.3616 -0.743714 -3.66633 0
M  V30 96 H 8.6946 -0.959195 -4.82763 0
M  V30 97 N 10.3467 1.47872 -0.545128 0
M  V30 98 C 11.5927 2.02793 -0.0166104 0
M  V30 99 C 11.9257 1.41987 1.32489 0
M  V30 100 O 11.2007 0.571045 1.85928 0
M  V30 101 C 11.4837 3.59989 0.0893294 0
M  V30 102 C 11.3367 4.3125 -1.27841 0
M  V30 103 C 12.6557 4.32606 0.808724 0
M  V30 104 H 9.7747 0.736962 -0.00751035 0
M  V30 105 H 12.4167 1.76433 -0.705085 0
M  V30 106 H 10.5667 3.82579 0.675681 0
M  V30 107 H 12.2387 4.20035 -1.90704 0
M  V30 108 H 10.4817 3.92076 -1.85632 0
M  V30 109 H 11.1527 5.39736 -1.15713 0
M  V30 110 H 13.6287 4.14936 0.310992 0
M  V30 111 H 12.5047 5.42251 0.851782 0
M  V30 112 H 12.7657 4.00963 1.86229 0
M  V30 113 N 11.8248 0.280983 1.55075 0
M  V30 114 C 13.0718 -0.334115 1.99725 0
M  V30 115 C 13.3998 -1.5542 1.1694 0
M  V30 116 O 12.6548 -1.94361 0.228531 0
M  V30 117 C 12.9538 -0.754656 3.49342 0
M  V30 118 C 12.6198 0.361445 4.49449 0
M  V30 119 C 11.2818 0.667893 4.76542 0
M  V30 120 C 13.6338 1.11322 5.09173 0
M  V30 121 C 10.9618 1.7296 5.60626 0
M  V30 122 C 13.3138 2.1647 5.9441 0
M  V30 123 C 11.9778 2.47742 6.19822 0
M  V30 124 H 11.2478 -0.122261 0.730844 0
M  V30 125 H 13.8948 0.395917 1.87363 0
M  V30 126 H 12.1998 -1.56446 3.5921 0
M  V30 127 H 13.8968 -1.24142 3.813 0
M  V30 128 H 10.4868 0.112481 4.28452 0
M  V30 129 H 14.6708 0.88973 4.8826 0
M  V30 130 H 9.9268 1.97684 5.78559 0
M  V30 131 H 14.1008 2.75193 6.3972 0
M  V30 132 H 11.7278 3.30145 6.84769 0
M  V30 133 N 13.3029 -1.57598 0.00835791 0
M  V30 134 C 14.5519 -1.90107 -0.673968 0
M  V30 135 C 14.8649 -0.884275 -1.7447 0
M  V30 136 O 16.0709 -1.09987 -2.48224 0
M  V30 137 C 14.5269 -3.37497 -1.24995 0
M  V30 138 C 14.1349 -4.47491 -0.2136 0
M  V30 139 C 15.8789 -3.79104 -1.90999 0
M  V30 140 C 13.7859 -5.85963 -0.80005 0
M  V30 141 H 12.7159 -0.709393 -0.255495 0
M  V30 142 H 15.3669 -1.83365 0.0702693 0
M  V30 143 H 13.7489 -3.39102 -2.04513 0
M  V30 144 H 14.9229 -4.57414 0.557596 0
M  V30 145 H 13.2379 -4.14956 0.346474 0
M  V30 146 H 15.8349 -4.79901 -2.35795 0
M  V30 147 H 16.1779 -3.1306 -2.74407 0
M  V30 148 H 16.7109 -3.79833 -1.18203 0
M  V30 149 H 13.4499 -6.555 -0.00456708 0
M  V30 150 H 12.9699 -5.79687 -1.54021 0
M  V30 151 H 14.6489 -6.33884 -1.29615 0
M  V30 152 N 14.781 0.264519 -1.55364 0
M  V30 153 C 16.192 0.834936 -1.6699 0
M  V30 154 C 16.543 1.86718 -0.602552 0
M  V30 155 O 15.668 2.14899 0.254425 0
M  V30 156 C 16.263 1.5212 -3.02729 0
M  V30 157 C 14.822 2.03954 -3.16354 0
M  V30 158 C 13.969 0.884498 -2.62815 0
M  V30 159 H 16.92 0.0406869 -1.58648 0
M  V30 160 H 16.941 2.38853 -2.96191 0
M  V30 161 H 16.453 0.769668 -3.80392 0
M  V30 162 H 14.554 2.82041 -2.43482 0
M  V30 163 H 14.667 2.24902 -4.23032 0
M  V30 164 H 13.031 1.2802 -2.20188 0
M  V30 165 H 13.814 0.14634 -3.42988 0
M  V30 166 N 16.2591 1.48442 0.529413 0
M  V30 167 C 17.5051 1.5672 1.28711 0
M  V30 168 C 17.8381 0.2406 1.92704 0
M  V30 169 O 17.1131 -0.753454 1.79313 0
M  V30 170 C 17.3961 2.70587 2.37603 0
M  V30 171 C 17.2491 4.12953 1.78297 0
M  V30 172 C 18.5681 2.80212 3.39366 0
M  V30 173 H 15.6871 0.570474 0.466613 0
M  V30 174 H 18.3291 1.80617 0.589706 0
M  V30 175 H 16.4791 2.50342 2.97088 0
M  V30 176 H 18.1511 4.44639 1.22858 0
M  V30 177 H 16.3941 4.19927 1.0883 0
M  V30 178 H 17.0651 4.88448 2.57144 0
M  V30 179 H 19.5411 2.98553 2.89836 0
M  V30 180 H 18.4171 3.61611 4.12951 0
M  V30 181 H 18.6781 1.88393 3.99951 0
M  V30 182 N 17.7372 -0.778329 1.37039 0
M  V30 183 C 18.9622 -1.57248 1.35233 0
M  V30 184 C 19.3872 -1.87999 -0.0615568 0
M  V30 185 O 18.7452 -1.48734 -1.03672 0
M  V30 186 C 18.7932 -2.86353 2.19167 0
M  V30 187 O 17.8972 -3.80442 1.59178 0
M  V30 188 H 17.2382 -0.476569 0.462362 0
M  V30 189 H 19.7682 -0.963853 1.80474 0
M  V30 190 H 19.7782 -3.35519 2.32145 0
M  V30 191 H 18.4532 -2.63299 3.21942 0
M  V30 192 H 17.0302 -3.39067 1.55203 0
M  V30 193 N 19.2153 -1.21501 -1.00376 0
M  V30 194 C 20.1473 -0.933174 -2.09343 0
M  V30 195 C 21.1603 0.0840896 -1.62583 0
M  V30 196 O 22.3493 -0.148563 -1.77881 0
M  V30 197 C 19.4493 -0.379869 -3.36764 0
M  V30 198 C 18.6223 -1.45176 -4.12605 0
M  V30 199 C 17.6813 -0.907476 -5.18316 0
M  V30 200 O 16.7073 -1.5912 -5.46507 0
M  V30 201 N 17.9093 0.276649 -5.7984 0
M  V30 202 H 20.6743 -1.87124 -2.34104 0
M  V30 203 H 18.2353 -1.12043 -1.16867 0
M  V30 204 H 20.2273 -0.00131488 -4.047 0
M  V30 205 H 18.7973 0.463048 -3.09151 0
M  V30 206 H 18.0173 -2.00411 -3.39454 0
M  V30 207 H 19.3053 -2.17328 -4.6005 0
M  V30 208 H 18.7033 0.849147 -5.59291 0
M  V30 209 H 17.2603 0.596702 -6.49063 0
M  V30 210 N 20.6934 1.19889 -1.02296 0
M  V30 211 C 21.9414 1.89046 -0.714558 0
M  V30 212 C 22.2624 1.79636 0.758681 0
M  V30 213 O 21.5324 1.20292 1.54618 0
M  V30 214 H 20.1124 0.699802 -0.261317 0
M  V30 215 H 22.7744 1.45574 -1.29592 0
M  V30 216 H 21.8704 2.95524 -1.0036 0
M  V30 217 N 22.1715 0.800033 1.35784 0
M  V30 218 C 23.1195 0.193851 2.31791 0
M  V30 219 C 24.1135 -0.652744 1.56319 0
M  V30 220 O 25.3195 -0.546641 1.71499 0
M  V30 221 H 21.6945 0.04392 0.750716 0
M  V30 222 H 23.6655 1.01883 2.80468 0
M  V30 223 C 22.4145 -0.648338 3.41602 0
M  V30 224 H 21.7375 -0.00624665 3.998 0
M  V30 225 H 23.1775 -1.03898 4.11073 0
M  V30 226 C 21.6365 -1.8111 2.84079 0
M  V30 227 O 22.1665 -2.90825 2.77099 0
M  V30 228 N 20.3725 -1.62056 2.41218 0
M  V30 229 H 19.9195 -0.728123 2.47095 0
M  V30 230 H 19.8775 -2.40013 2.03079 0
M  V30 231 N 23.6496 -1.47581 0.552962 0
M  V30 232 C 24.8776 -2.06875 0.0320556 0
M  V30 233 C 25.2926 -1.40625 -1.25976 0
M  V30 234 O 24.6496 -0.501349 -1.75479 0
M  V30 235 C 24.7006 -3.61092 -0.17167 0
M  V30 236 O 24.4216 -4.24858 1.06899 0
M  V30 237 C 25.9226 -4.37242 -0.730344 0
M  V30 238 H 23.1426 -0.669561 0.043915 0
M  V30 239 H 25.6866 -1.89646 0.765163 0
M  V30 240 H 23.8416 -3.7785 -0.854894 0
M  V30 241 H 24.2556 -5.17334 0.864059 0
M  V30 242 H 25.7296 -5.45842 -0.822203 0
M  V30 243 H 26.2066 -4.03235 -1.74064 0
M  V30 244 H 26.8126 -4.25219 -0.0829543 0
M  V30 245 N 25.1277 -0.289203 -1.54924 0
M  V30 246 C 26.0757 0.607966 -2.24514 0
M  V30 247 C 27.0697 1.14655 -1.24702 0
M  V30 248 O 28.2757 1.09856 -1.4259 0
M  V30 249 H 24.6507 0.21464 -0.720718 0
M  V30 250 H 26.6217 -0.00164182 -2.984 0
M  V30 251 C 25.3707 1.77406 -2.99036 0
M  V30 252 H 24.6937 1.36884 -3.75637 0
M  V30 253 H 26.1337 2.37814 -3.51028 0
M  V30 254 C 24.5927 2.67107 -2.05318 0
M  V30 255 O 25.1227 3.6787 -1.61353 0
M  V30 256 N 23.3287 2.34582 -1.71521 0
M  V30 257 H 22.8757 1.52688 -2.07471 0
M  V30 258 H 22.8337 2.94867 -1.0909 0
M  V30 259 N 26.6058 1.57591 -0.0167156 0
M  V30 260 C 27.8538 1.90906 0.663285 0
M  V30 261 C 28.1748 0.892509 1.73376 0
M  V30 262 O 27.4448 -0.0677623 1.95783 0
M  V30 263 H 26.0248 0.704637 0.247983 0
M  V30 264 H 28.6868 1.94803 -0.0615909 0
M  V30 265 H 27.7828 2.9116 1.12393 0
M  V30 266 N 28.0839 -0.256276 1.55502 0
M  V30 267 C 29.3309 -0.985619 1.76895 0
M  V30 268 C 29.6589 -1.85671 0.579355 0
M  V30 269 O 28.9139 -1.90744 -0.437651 0
M  V30 270 C 29.2129 -1.88432 3.03691 0
M  V30 271 C 28.8789 -1.16936 4.35473 0
M  V30 272 C 27.5409 -0.97173 4.71286 0
M  V30 273 C 29.8929 -0.661889 5.1698 0
M  V30 274 C 27.2209 -0.254179 5.86149 0
M  V30 275 C 29.5729 0.042149 6.32586 0
M  V30 276 C 28.2369 0.25134 6.67027 0
M  V30 277 H 27.5069 -0.360663 0.647304 0
M  V30 278 H 30.1539 -0.256483 1.89775 0
M  V30 279 H 28.4589 -2.68021 2.85783 0
M  V30 280 H 30.1559 -2.45015 3.1744 0
M  V30 281 H 26.7459 -1.33332 4.07333 0
M  V30 282 H 30.9299 -0.802145 4.89775 0
M  V30 283 H 26.1859 -0.0815408 6.11346 0
M  V30 284 H 30.3599 0.443049 6.94989 0
M  V30 285 H 27.9869 0.809314 7.5588 0
M  V30 286 N 29.562 -1.4872 -0.521534 0
M  V30 287 C 30.973 -1.50607 -1.10337 0
M  V30 288 C 31.324 -0.280612 -1.94183 0
M  V30 289 O 30.449 0.611507 -2.0758 0
M  V30 290 C 31.044 -2.72903 -2.00772 0
M  V30 291 C 29.603 -2.77634 -2.54158 0
M  V30 292 C 28.75 -2.44241 -1.31307 0
M  V30 293 H 31.701 -1.55714 -0.306388 0
M  V30 294 H 31.722 -2.519 -2.85178 0
M  V30 295 H 31.234 -3.62077 -1.39721 0
M  V30 296 H 29.335 -1.92689 -3.18907 0
M  V30 297 H 29.448 -3.79283 -2.92714 0
M  V30 298 H 27.812 -1.95577 -1.63161 0
M  V30 299 H 28.595 -3.35666 -0.719943 0
M  V30 300 N 31.0401 0.771051 -1.3745 0
M  V30 301 C 32.0031 1.86598 -1.33093 0
M  V30 302 C 33.0031 1.59076 -0.234845 0
M  V30 303 O 34.1931 1.67145 -0.490732 0
M  V30 304 C 31.3251 3.23747 -1.06773 0
M  V30 305 H 32.5181 1.91873 -2.30488 0
M  V30 306 H 30.0711 0.970876 -1.2249 0
M  V30 307 H 30.8061 3.24148 -0.099129 0
M  V30 308 H 30.5911 3.45115 -1.86112 0
M  V30 309 H 32.0811 4.03824 -1.06377 0
M  V30 310 N 32.5182 1.22032 0.997298 0
M  V30 311 C 33.7462 1.06841 1.7718 0
M  V30 312 C 34.1612 -0.381325 1.84909 0
M  V30 313 O 33.5182 -1.26437 1.31605 0
M  V30 314 C 33.5692 1.66814 3.20711 0
M  V30 315 O 33.2902 3.06116 3.13408 0
M  V30 316 C 34.7912 1.56838 4.14628 0
M  V30 317 H 32.0112 0.374782 0.556578 0
M  V30 318 H 34.5552 1.61532 1.2541 0
M  V30 319 H 32.7102 1.16196 3.69564 0
M  V30 320 H 33.1242 3.34926 4.0364 0
M  V30 321 H 34.5982 2.03532 5.13107 0
M  V30 322 H 35.0752 0.524155 4.36061 0
M  V30 323 H 35.6812 2.06741 3.7167 0
M  V30 324 N 33.9963 -1.19345 1.0293 0
M  V30 325 C 34.9593 -2.20793 0.615069 0
M  V30 326 C 35.9593 -1.57553 -0.321533 0
M  V30 327 O 37.1493 -1.73862 -0.108483 0
M  V30 328 C 34.2813 -3.40754 -0.0999222 0
M  V30 329 H 35.4743 -2.58955 1.51269 0
M  V30 330 H 33.0273 -1.3303 0.820534 0
M  V30 331 H 33.7623 -3.0811 -1.01187 0
M  V30 332 H 33.5473 -3.87889 0.57309 0
M  V30 333 H 35.0373 -4.15898 -0.376645 0
M  V30 334 N 35.4744 -0.807222 -1.35358 0
M  V30 335 C 36.6994 -0.399309 -2.0352 0
M  V30 336 C 37.1244 0.981986 -1.60433 0
M  V30 337 O 36.4824 1.63601 -0.781299 0
M  V30 338 C 36.5304 -0.491552 -3.57234 0
M  V30 339 O 35.6344 0.494754 -4.09421 0
M  V30 340 H 34.9754 -0.166682 -0.642739 0
M  V30 341 H 37.5054 -1.09328 -1.72941 0
M  V30 342 H 37.5154 -0.361588 -4.06395 0
M  V30 343 H 36.1904 -1.49907 -3.87944 0
M  V30 344 H 34.7674 0.324977 -3.71481 0
M  V30 345 N 36.9525 1.47285 -0.560781 0
M  V30 346 C 37.9005 2.31756 0.197942 0
M  V30 347 C 38.8945 1.43146 0.905854 0
M  V30 348 O 40.1005 1.59891 0.826733 0
M  V30 349 H 36.4755 0.747438 0.0827049 0
M  V30 350 H 38.4465 2.9359 -0.533629 0
M  V30 351 C 37.1955 3.25874 1.21249 0
M  V30 352 H 36.5185 3.94023 0.67719 0
M  V30 353 H 37.9585 3.87803 1.71419 0
M  V30 354 C 36.4175 2.49651 2.26221 0
M  V30 355 O 36.9475 2.24355 3.33208 0
M  V30 356 N 35.1535 2.10597 2.00243 0
M  V30 357 H 34.7005 2.31369 1.13252 0
M  V30 358 H 34.6585 1.59913 2.70694 0
M  V30 359 N 38.4306 0.297415 1.54768 0
M  V30 360 C 39.7076 -0.365847 1.92148 0
M  V30 361 C 40.0876 -1.71975 1.22424 0
M  V30 362 O 39.4356 -2.25666 0.358739 0
M  V30 363 C 39.6456 -0.484056 3.45627 0
M  V30 364 C 40.9936 -0.756594 4.17805 0
M  V30 365 O 42.0176 -0.568007 3.51642 0
M  V30 366 O 40.8766 -1.11863 5.34929 0
M  V30 367 H 37.9706 -0.203919 0.801465 0
M  V30 368 H 40.5166 0.34521 1.66152 0
M  V30 369 H 39.2886 0.467865 3.88493 0
M  V30 370 H 38.9116 -1.24372 3.77647 0
M  V30 371 N 39.9087 -1.5758 0.0250728 0
M  V30 372 C 40.8387 -2.13007 -0.956575 0
M  V30 373 C 41.8197 -1.0452 -1.342 0
M  V30 374 O 43.0047 -1.32332 -1.42133 0
M  V30 375 C 40.1347 -2.65386 -2.24026 0
M  V30 376 C 39.0887 -3.78623 -1.99571 0
M  V30 377 C 38.4147 -4.17414 -3.3417 0
M  V30 378 C 39.7147 -5.04867 -1.33814 0
M  V30 379 H 41.4087 -2.9528 -0.494991 0
M  V30 380 H 38.9547 -1.42042 -0.236651 0
M  V30 381 H 40.9077 -3.02794 -2.93076 0
M  V30 382 H 39.6317 -1.80268 -2.72343 0
M  V30 383 H 38.2907 -3.41646 -1.32941 0
M  V30 384 H 37.9387 -3.29284 -3.80238 0
M  V30 385 H 37.6387 -4.93719 -3.18615 0
M  V30 386 H 39.1627 -4.57402 -4.04495 0
M  V30 387 H 40.5767 -5.39888 -1.92857 0
M  V30 388 H 38.9737 -5.86144 -1.28669 0
M  V30 389 H 40.0437 -4.83904 -0.310561 0
M  V30 390 N 41.3868 0.248026 -1.55636 0
M  V30 391 C 42.3338 1.30707 -1.90222 0
M  V30 392 C 43.3038 1.47881 -0.756332 0
M  V30 393 O 44.4888 1.61883 -1.00988 0
M  V30 394 C 41.6288 2.65769 -2.20138 0
M  V30 395 C 40.7418 2.56612 -3.47526 0
M  V30 396 C 39.8768 3.8402 -3.67017 0
M  V30 397 C 38.9158 3.69476 -4.8801 0
M  V30 398 N 38.0528 4.88774 -5.04029 0
M  V30 399 H 42.8928 1.00512 -2.80538 0
M  V30 400 H 40.4298 0.485055 -1.38873 0
M  V30 401 H 42.3878 3.44386 -2.35487 0
M  V30 402 H 41.0178 2.94115 -1.33027 0
M  V30 403 H 40.0698 1.69571 -3.40514 0
M  V30 404 H 41.3818 2.41774 -4.36287 0
M  V30 405 H 40.5358 4.7108 -3.8232 0
M  V30 406 H 39.2748 4.01754 -2.76487 0
M  V30 407 H 38.2798 2.80799 -4.72686 0
M  V30 408 H 39.5048 3.53238 -5.8 0
M  V30 409 H 37.4508 5.0687 -4.16435 0
M  V30 410 H 37.3678 4.76562 -5.86877 0
M  V30 411 H 38.6358 5.77335 -5.23741 0
M  V30 412 N 42.8649 1.48995 0.513639 0
M  V30 413 C 43.8279 1.64229 1.59879 0
M  V30 414 C 44.8279 0.514696 1.5234 0
M  V30 415 O 46.0179 0.78087 1.55718 0
M  V30 416 C 43.1499 1.62783 2.99524 0
M  V30 417 H 44.3429 2.61004 1.47705 0
M  V30 418 H 41.8959 1.37837 0.736936 0
M  V30 419 H 42.6309 0.675461 3.17188 0
M  V30 420 H 42.4159 2.4466 3.06404 0
M  V30 421 H 43.9059 1.76669 3.78388 0
M  V30 422 N 44.343 -0.763751 1.37857 0
M  V30 423 C 45.59 -1.52257 1.33506 0
M  V30 424 C 45.918 -1.94343 -0.078022 0
M  V30 425 O 45.173 -1.64958 -1.05297 0
M  V30 426 C 45.472 -2.79499 2.22745 0
M  V30 427 C 45.138 -2.56426 3.70886 0
M  V30 428 C 43.8 -2.49842 4.11257 0
M  V30 429 C 46.152 -2.36008 4.64704 0
M  V30 430 C 43.48 -2.20841 5.43549 0
M  V30 431 C 45.832 -2.0853 5.97242 0
M  V30 432 C 44.496 -2.00396 6.36709 0
M  V30 433 H 43.766 -0.557149 0.488534 0
M  V30 434 H 46.413 -0.879073 1.70131 0
M  V30 435 H 44.718 -3.48447 1.79142 0
M  V30 436 H 46.415 -3.37413 2.16688 0
M  V30 437 H 43.005 -2.62416 3.38874 0
M  V30 438 H 47.189 -2.40079 4.34368 0
M  V30 439 H 42.445 -2.13045 5.73081 0
M  V30 440 H 46.619 -1.91732 6.69486 0
M  V30 441 H 44.246 -1.77688 7.39142 0
M  V30 442 N 45.8211 -1.22559 -0.990812 0
M  V30 443 C 47.0491 -1.07779 -1.76611 0
M  V30 444 C 47.4641 0.371513 -1.85109 0
M  V30 445 O 46.8211 1.25737 -1.32274 0
M  V30 446 C 46.8721 -1.68512 -3.19822 0
M  V30 447 O 46.5931 -3.07774 -3.1178 0
M  V30 448 C 48.0941 -1.59035 -4.13791 0
M  V30 449 H 45.3141 -0.377729 -0.554583 0
M  V30 450 H 47.8581 -1.62195 -1.24551 0
M  V30 451 H 46.0131 -1.18154 -3.68942 0
M  V30 452 H 46.4271 -3.37062 -4.01858 0
M  V30 453 H 47.9011 -2.0625 -5.1202 0
M  V30 454 H 48.3781 -0.547273 -4.35777 0
M  V30 455 H 48.9841 -2.08709 -3.70568 0
M  V30 456 N 47.2992 1.18797 -1.03562 0
M  V30 457 C 48.2092 2.25913 -0.632505 0
M  V30 458 C 49.2252 1.70668 0.338882 0
M  V30 459 O 50.4012 2.00453 0.195076 0
M  V30 460 C 47.4662 3.467 0.00350942 0
M  V30 461 C 46.5272 4.17098 -1.01624 0
M  V30 462 C 45.7602 5.32119 -0.410478 0
M  V30 463 O 45.9832 5.64976 0.784725 0
M  V30 464 O 44.9172 5.9107 -1.13667 0
M  V30 465 H 48.7432 2.62648 -1.52478 0
M  V30 466 H 46.3282 1.25781 -0.806195 0
M  V30 467 H 48.2102 4.19878 0.35781 0
M  V30 468 H 46.8852 3.11798 0.869686 0
M  V30 469 H 45.7922 3.4601 -1.42224 0
M  V30 470 H 47.1252 4.55987 -1.85301 0
M  V30 471 N 48.7773 0.814389 1.34928 0
M  V30 472 C 50.0253 0.397636 1.9815 0
M  V30 473 C 50.3463 -1.04069 1.64908 0
M  V30 474 O 49.6163 -1.72121 0.93548 0
M  V30 475 H 48.1963 0.144043 0.732981 0
M  V30 476 H 50.8583 1.04195 1.6471 0
M  V30 477 H 49.9543 0.509688 3.0791 0
M  V30 478 N 50.2554 -1.46986 0.568584 0
M  V30 479 C 51.2184 -2.28624 -0.162366 0
M  V30 480 C 52.2184 -1.37596 -0.832103 0
M  V30 481 O 53.4084 -1.60115 -0.68622 0
M  V30 482 C 50.5404 -3.17596 -1.23878 0
M  V30 483 H 51.7334 -2.94722 0.554899 0
M  V30 484 H 49.2864 -1.52863 0.325976 0
M  V30 485 H 50.0214 -2.56214 -1.98808 0
M  V30 486 H 49.8064 -3.846 -0.763219 0
M  V30 487 H 51.2964 -3.79078 -1.75185 0
M  V30 488 N 51.7335 -0.305618 -1.54608 0
M  V30 489 C 52.9795 0.302746 -2.00528 0
M  V30 490 C 53.3125 1.53184 -1.19367 0
M  V30 491 O 52.5875 1.92598 -0.271321 0
M  V30 492 C 52.8705 0.654756 -3.54097 0
M  V30 493 C 52.7235 -0.583793 -4.45995 0
M  V30 494 C 54.0425 1.47947 -4.14487 0
M  V30 495 H 51.1615 0.108564 -0.72896 0
M  V30 496 H 53.8035 -0.418634 -1.85331 0
M  V30 497 H 51.9535 1.26935 -3.67178 0
M  V30 498 H 53.6255 -1.22224 -4.44814 0
M  V30 499 H 51.8685 -1.21615 -4.16404 0
M  V30 500 H 52.5395 -0.293287 -5.5122 0
M  V30 501 H 55.0155 0.96013 -4.04871 0
M  V30 502 H 53.8915 1.69454 -5.22088 0
M  V30 503 H 54.1525 2.47011 -3.66658 0
M  V30 504 N 53.2116 1.57565 -0.0334293 0
M  V30 505 C 54.1416 2.13511 0.945265 0
M  V30 506 C 55.1226 1.05231 1.33643 0
M  V30 507 O 56.3076 1.33084 1.41429 0
M  V30 508 C 53.4376 2.6657 2.22616 0
M  V30 509 C 52.3916 3.79676 1.97561 0
M  V30 510 C 51.7176 4.1918 3.31952 0
M  V30 511 C 53.0176 5.0557 1.31135 0
M  V30 512 H 54.7116 2.95538 0.479325 0
M  V30 513 H 52.2576 1.42166 0.229115 0
M  V30 514 H 54.2106 3.04344 2.91466 0
M  V30 515 H 52.9346 1.8171 2.71384 0
M  V30 516 H 51.5936 3.42347 1.31127 0
M  V30 517 H 51.2416 3.31296 3.78487 0
M  V30 518 H 50.9416 4.95402 3.15992 0
M  V30 519 H 52.4656 4.59541 4.02063 0
M  V30 520 H 53.8796 5.40903 1.89992 0
M  V30 521 H 52.2766 5.86818 1.25559 0
M  V30 522 H 53.3466 4.84062 0.284894 0
M  V30 523 N 54.6897 -0.239769 1.55765 0
M  V30 524 C 55.9147 -0.988373 1.82335 0
M  V30 525 C 56.3397 -1.77886 0.611421 0
M  V30 526 O 55.6977 -1.75889 -0.439639 0
M  V30 527 C 55.7457 -1.89627 3.06715 0
M  V30 528 O 54.8497 -2.98904 2.84131 0
M  V30 529 H 54.1907 -0.280858 0.601677 0
M  V30 530 H 56.7207 -0.258597 2.02959 0
M  V30 531 H 56.7307 -2.30957 3.36338 0
M  V30 532 H 55.4057 -1.31511 3.9456 0
M  V30 533 H 53.9827 -2.61651 2.65694 0
M  V30 534 N 56.1678 -1.49265 -0.50573 0
M  V30 535 C 57.4148 -1.58513 -1.26015 0
M  V30 536 C 57.7428 -0.26972 -1.92621 0
M  V30 537 O 56.9978 0.741997 -1.81088 0
M  V30 538 C 57.2968 -2.69008 -2.35308 0
M  V30 539 C 56.9628 -4.10662 -1.86192 0
M  V30 540 C 55.6248 -4.49212 -1.72516 0
M  V30 541 C 57.9768 -4.99336 -1.49375 0
M  V30 542 C 55.3048 -5.74214 -1.20394 0
M  V30 543 C 57.6568 -6.24852 -0.987072 0
M  V30 544 C 56.3208 -6.62236 -0.836669 0
M  V30 545 H 55.5908 -0.580041 -0.461122 0
M  V30 546 H 58.2378 -1.83078 -0.561665 0
M  V30 547 H 56.5428 -2.38396 -3.10926 0
M  V30 548 H 58.2398 -2.73373 -2.93374 0
M  V30 549 H 54.8298 -3.8023 -1.97795 0
M  V30 550 H 59.0138 -4.70212 -1.5879 0
M  V30 551 H 54.2698 -6.01883 -1.07458 0
M  V30 552 H 58.4438 -6.92944 -0.692983 0
M  V30 553 H 56.0708 -7.58979 -0.430607 0
M  V30 554 N 57.6459 0.756429 -1.3826 0
M  V30 555 C 58.5959 1.86069 -1.31766 0
M  V30 556 C 59.5799 1.59621 -0.202483 0
M  V30 557 O 60.7719 1.7149 -0.438211 0
M  V30 558 C 57.9009 3.23742 -1.1422 0
M  V30 559 C 56.9869 3.56091 -2.30348 0
M  V30 560 N 57.3779 3.59517 -3.55783 0
M  V30 561 C 55.6759 3.86341 -2.22838 0
M  V30 562 C 56.3769 3.89052 -4.32451 0
M  V30 563 N 55.3529 4.05736 -3.61772 0
M  V30 564 H 59.1549 1.86992 -2.26741 0
M  V30 565 H 56.6689 0.953643 -1.31451 0
M  V30 566 H 58.6659 4.02761 -1.07652 0
M  V30 567 H 57.3259 3.24073 -0.201763 0
M  V30 568 H 58.3369 3.41347 -3.89491 0
M  V30 569 H 55.0139 3.94404 -1.36937 0
M  V30 570 H 56.4039 3.98349 -5.4108 0
M  V30 571 N 59.124 1.23083 0.984299 0
M  V30 572 C 60.072 1.00593 2.09723 0
M  V30 573 C 61.066 -0.0538014 1.69315 0
M  V30 574 O 62.272 0.0993719 1.79725 0
M  V30 575 H 58.647 0.30817 0.685956 0
M  V30 576 H 60.618 1.95012 2.2586 0
M  V30 577 C 59.367 0.609601 3.42314 0
M  V30 578 H 58.69 1.41675 3.73856 0
M  V30 579 H 60.13 0.491726 4.21139 0
M  V30 580 C 58.589 -0.681745 3.2993 0
M  V30 581 O 59.119 -1.73192 3.62446 0
M  V30 582 N 57.325 -0.656178 2.83095 0
M  V30 583 H 56.872 0.198759 2.56832 0
M  V30 584 H 56.83 -1.52044 2.75191 0
M  V30 585 N 60.6021 -1.18246 1.0419 0
M  V30 586 C 61.8511 -1.87588 0.741194 0
M  V30 587 C 62.1641 -1.81303 -0.734066 0
M  V30 588 O 63.3701 -2.46019 -1.14834 0
M  V30 589 C 61.8261 -3.36538 1.27555 0
M  V30 590 C 61.4341 -3.51349 2.77953 0
M  V30 591 C 63.1781 -4.11273 1.05143 0
M  V30 592 C 61.0851 -4.94265 3.2474 0
M  V30 593 H 60.0151 -0.702622 0.273565 0
M  V30 594 H 62.6661 -1.33601 1.25789 0
M  V30 595 H 61.0481 -3.9 0.686703 0
M  V30 596 H 62.2221 -3.08153 3.42605 0
M  V30 597 H 60.5371 -2.90022 2.98791 0
M  V30 598 H 63.1341 -5.16689 1.37611 0
M  V30 599 H 63.4771 -4.16298 -0.0112774 0
M  V30 600 H 64.0101 -3.63987 1.60495 0
M  V30 601 H 60.7491 -4.94408 4.30396 0
M  V30 602 H 60.2691 -5.38172 2.64823 0
M  V30 603 H 61.9481 -5.62987 3.18834 0
M  V30 604 N 62.0802 -0.821533 -1.34494 0
M  V30 605 C 63.3202 -0.414785 -2.00147 0
M  V30 606 C 63.6842 1.00299 -1.6372 0
M  V30 607 O 64.8852 1.51255 -2.22206 0
M  V30 608 C 63.1562 -0.609403 -3.52166 0
M  V30 609 S 64.7152 -0.295297 -4.37805 0
M  V30 610 H 61.5332 -0.15679 -0.693497 0
M  V30 611 H 64.1352 -1.06705 -1.63812 0
M  V30 612 H 62.8392 -1.64096 -3.76166 0
M  V30 613 H 62.3702 0.0576414 -3.93358 0
M  V30 614 H 64.3852 0.891531 -4.88125 0
M  V30 615 N 63.5583 1.46682 -0.576371 0
M  V30 616 C 64.7883 2.06498 -0.0648694 0
M  V30 617 C 65.1963 1.42665 1.24271 0
M  V30 618 O 64.5393 0.523886 1.76071 0
M  V30 619 C 64.6013 3.5904 0.181816 0
M  V30 620 C 64.2653 4.45028 -1.0392 0
M  V30 621 C 65.2623 4.81959 -1.94966 0
M  V30 622 C 62.9473 4.86259 -1.25927 0
M  V30 623 C 64.9413 5.58942 -3.06371 0
M  V30 624 C 62.6283 5.63002 -2.37638 0
M  V30 625 C 63.6263 5.99257 -3.2769 0
M  V30 626 O 63.3143 6.7445 -4.37461 0
M  V30 627 H 63.0463 0.674028 -0.0515987 0
M  V30 628 H 65.6003 1.89393 -0.794951 0
M  V30 629 H 63.8303 3.74429 0.966436 0
M  V30 630 H 65.5193 4.00806 0.641047 0
M  V30 631 H 66.2853 4.50689 -1.79177 0
M  V30 632 H 62.1643 4.57494 -0.567448 0
M  V30 633 H 65.7083 5.87158 -3.76684 0
M  V30 634 H 61.6053 5.93686 -2.53392 0
M  V30 635 H 62.3733 6.92867 -4.35749 0
M  V30 636 N 65.0364 0.313813 1.54444 0
M  V30 637 C 66.4524 -0.0391619 1.59552 0
M  V30 638 C 66.6524 -1.51322 1.33056 0
M  V30 639 O 65.7084 -2.26782 1.11022 0
M  V30 640 C 67.0214 0.370302 2.98411 0
M  V30 641 C 68.5694 0.320139 3.11358 0
M  V30 642 C 69.0444 0.704617 4.52547 0
M  V30 643 N 70.5354 0.657645 4.58508 0
M  V30 644 C 71.2704 0.927453 5.6585 0
M  V30 645 N 70.7664 1.26389 6.81174 0
M  V30 646 N 72.5594 0.853662 5.5558 0
M  V30 647 H 64.7104 1.27433 1.69925 0
M  V30 648 H 66.9734 0.517511 0.794284 0
M  V30 649 H 66.6794 1.39694 3.22767 0
M  V30 650 H 66.5534 -0.269619 3.76235 0
M  V30 651 H 68.9404 -0.697275 2.86744 0
M  V30 652 H 69.0214 0.99486 2.35661 0
M  V30 653 H 68.6654 1.7199 4.77893 0
M  V30 654 H 68.5954 0.00768843 5.26599 0
M  V30 655 H 71.0864 0.409067 3.75679 0
M  V30 656 H 71.3994 1.4554 7.58972 0
M  V30 657 H 69.7444 1.30206 6.82694 0
M  V30 658 H 72.9354 0.590383 4.64362 0
M  V30 659 H 73.1084 1.0673 6.3915 0
M  V30 660 N 66.5145 -1.57545 0.0417849 0
M  V30 661 C 67.7605 -1.92601 -0.635021 0
M  V30 662 C 68.0935 -0.919627 -1.71045 0
M  V30 663 O 67.3685 0.0557892 -1.9442 0
M  V30 664 C 67.6515 -3.38085 -1.23979 0
M  V30 665 C 67.5045 -4.49467 -0.173057 0
M  V30 666 C 68.8235 -3.83776 -2.15416 0
M  V30 667 H 65.9425 -0.700397 -0.229374 0
M  V30 668 H 68.5845 -1.89728 0.101633 0
M  V30 669 H 66.7345 -3.40664 -1.86762 0
M  V30 670 H 68.4065 -4.59018 0.458312 0
M  V30 671 H 66.6495 -4.30909 0.499996 0
M  V30 672 H 67.3205 -5.48323 -0.636054 0
M  V30 673 H 69.7965 -3.83013 -1.62605 0
M  V30 674 H 68.6725 -4.8624 -2.54679 0
M  V30 675 H 68.9335 -3.19998 -3.05047 0
M  V30 676 N 67.9926 0.231505 -1.5589 0
M  V30 677 C 68.9396 1.28682 -1.91598 0
M  V30 678 C 69.9096 1.47071 -0.771974 0
M  V30 679 O 71.0946 1.60802 -1.027 0
M  V30 680 C 68.2346 2.6342 -2.22944 0
M  V30 681 C 67.3476 2.52912 -3.50228 0
M  V30 682 C 66.4826 3.80106 -3.7107 0
M  V30 683 C 65.5216 3.64279 -4.91902 0
M  V30 684 N 64.6586 4.834 -5.09184 0
M  V30 685 H 69.4986 0.975305 -2.81588 0
M  V30 686 H 67.0356 0.470299 -1.39379 0
M  V30 687 H 68.9936 3.41869 -2.39126 0
M  V30 688 H 67.6236 2.92687 -1.36139 0
M  V30 689 H 66.6756 1.6595 -3.42294 0
M  V30 690 H 67.9876 2.37133 -4.38827 0
M  V30 691 H 67.1416 4.66999 -3.87295 0
M  V30 692 H 65.8806 3.98799 -2.80733 0
M  V30 693 H 64.8856 2.7577 -4.75637 0
M  V30 694 H 66.1106 3.47067 -5.83714 0
M  V30 695 H 64.0566 5.02425 -4.21788 0
M  V30 696 H 63.9736 4.70311 -5.91898 0
M  V30 697 H 65.2416 5.71747 -5.29835 0
M  V30 698 N 69.4707 1.49531 0.497807 0
M  V30 699 C 70.4007 1.6935 1.60757 0
M  V30 700 C 71.3817 0.542218 1.61227 0
M  V30 701 O 72.5667 0.778417 1.77917 0
M  V30 702 C 69.6967 1.76298 2.99226 0
M  V30 703 C 68.6507 2.91248 3.13622 0
M  V30 704 C 67.9767 2.83312 4.53474 0
M  V30 705 C 69.2767 4.3214 2.93346 0
M  V30 706 H 70.9707 2.62263 1.44425 0
M  V30 707 H 68.5167 1.26208 0.693367 0
M  V30 708 H 70.4697 1.88749 3.76765 0
M  V30 709 H 69.1937 0.799871 3.16654 0
M  V30 710 H 67.8527 2.78404 2.38509 0
M  V30 711 H 67.5007 1.84902 4.67782 0
M  V30 712 H 67.2007 3.60465 4.64046 0
M  V30 713 H 68.7247 2.97775 5.33069 0
M  V30 714 H 70.1387 4.45649 3.60652 0
M  V30 715 H 68.5357 5.1054 3.15387 0
M  V30 716 H 69.6057 4.46363 1.89441 0
M  V30 717 N 70.9488 -0.749086 1.3866 0
M  V30 718 C 71.8958 -1.86291 1.36251 0
M  V30 719 C 72.8658 -1.64578 0.224347 0
M  V30 720 O 74.0508 -1.86181 0.417279 0
M  V30 721 C 71.1908 -3.23644 1.19786 0
M  V30 722 C 70.3038 -3.57158 2.43027 0
M  V30 723 C 69.4388 -4.83838 2.19258 0
M  V30 724 C 68.4778 -5.10152 3.38247 0
M  V30 725 N 67.6148 -6.28029 3.13884 0
M  V30 726 H 72.4548 -1.87685 2.3147 0
M  V30 727 H 69.9918 -0.917287 1.14997 0
M  V30 728 H 71.9498 -4.0291 1.08254 0
M  V30 729 H 70.5798 -3.21566 0.282031 0
M  V30 730 H 69.6318 -2.72701 2.65214 0
M  V30 731 H 70.9438 -3.7253 3.31697 0
M  V30 732 H 70.0978 -5.71057 2.04888 0
M  V30 733 H 68.8368 -4.70614 1.2796 0
M  V30 734 H 67.8418 -4.21401 3.53131 0
M  V30 735 H 69.0668 -5.25271 4.30427 0
M  V30 736 H 67.0128 -6.1612 2.25238 0
M  V30 737 H 66.9298 -6.43922 3.96106 0
M  V30 738 H 68.1978 -7.18124 3.03179 0
M  V30 739 N 72.4269 -1.23603 -0.977757 0
M  V30 740 C 73.6519 -1.09735 -1.75991 0
M  V30 741 C 74.0769 0.346858 -1.84874 0
M  V30 742 O 73.4349 1.25093 -1.3123 0
M  V30 743 C 73.4829 -1.73051 -3.16363 0
M  V30 744 O 72.5869 -0.994452 -4.0023 0
M  V30 745 H 71.9279 -0.384476 -0.541364 0
M  V30 746 H 74.4579 -1.6371 -1.2272 0
M  V30 747 H 74.4679 -1.78398 -3.66931 0
M  V30 748 H 73.1429 -2.78137 -3.09213 0
M  V30 749 H 71.7199 -1.01812 -3.58732 0
M  V30 750 N 73.905 1.17692 -1.04816 0
M  V30 751 C 75.153 1.87488 -0.754497 0
M  V30 752 C 75.474 1.81205 0.720407 0
M  V30 753 O 74.744 1.23544 1.52032 0
M  V30 754 H 73.324 0.694101 -0.276102 0
M  V30 755 H 75.986 1.42793 -1.32651 0
M  V30 756 H 75.082 2.93328 -1.06606 0
M  V30 757 N 75.3831 0.828654 1.34056 0
M  V30 758 C 76.6301 0.419458 1.98108 0
M  V30 759 C 76.9581 -1.01886 1.65679 0
M  V30 760 O 76.2131 -1.72539 0.923512 0
M  V30 761 C 76.5121 0.575226 3.52741 0
M  V30 762 C 76.1781 1.98012 4.05095 0
M  V30 763 C 74.8401 2.36442 4.19104 0
M  V30 764 C 77.1921 2.89824 4.33188 0
M  V30 765 C 74.5201 3.66009 4.58535 0
M  V30 766 C 76.8721 4.1886 4.74066 0
M  V30 767 C 75.5361 4.5726 4.86281 0
M  V30 768 H 74.8061 0.153491 0.724929 0
M  V30 769 H 77.4531 1.05371 1.59904 0
M  V30 770 H 75.7581 -0.142385 3.91541 0
M  V30 771 H 77.4551 0.239057 4.00287 0
M  V30 772 H 74.0451 1.67162 3.94658 0
M  V30 773 H 78.2291 2.61375 4.21897 0
M  V30 774 H 73.4851 3.95579 4.66184 0
M  V30 775 H 77.6591 4.90086 4.94761 0
M  V30 776 H 75.2861 5.57707 5.16592 0
M  V30 777 N 76.8612 -1.46375 0.584142 0
M  V30 778 C 77.7912 -2.33103 -0.136037 0
M  V30 779 C 78.7722 -1.45431 -0.882255 0
M  V30 780 O 79.9572 -1.74246 -0.857434 0
M  V30 781 C 77.0872 -3.27731 -1.14933 0
M  V30 782 C 76.0412 -4.24855 -0.517862 0
M  V30 783 C 75.3672 -5.09001 -1.63773 0
M  V30 784 C 76.6672 -5.19439 0.545886 0
M  V30 785 H 78.3612 -2.93568 0.588086 0
M  V30 786 H 75.9072 -1.41166 0.284259 0
M  V30 787 H 77.8602 -3.87261 -1.66153 0
M  V30 788 H 76.5842 -2.65377 -1.90375 0
M  V30 789 H 75.2432 -3.6659 -0.0267361 0
M  V30 790 H 74.8912 -4.43031 -2.38185 0
M  V30 791 H 74.5912 -5.74777 -1.22085 0
M  V30 792 H 76.1152 -5.71396 -2.15266 0
M  V30 793 H 77.5292 -5.73177 0.118704 0
M  V30 794 H 75.9262 -5.93566 0.88317 0
M  V30 795 H 76.9962 -4.63285 1.43162 0
M  V30 796 N 78.3393 -0.321999 -1.54275 0
M  V30 797 C 79.7503 0.166384 -1.85957 0
M  V30 798 C 80.1013 1.51747 -1.24367 0
M  V30 799 O 79.2263 2.09317 -0.549124 0
M  V30 800 C 79.8213 0.308681 -3.37391 0
M  V30 801 C 78.3803 0.741286 -3.69028 0
M  V30 802 C 77.5273 -0.137937 -2.76957 0
M  V30 803 H 80.4783 -0.542335 -1.49146 0
M  V30 804 H 80.4993 1.13984 -3.63026 0
M  V30 805 H 80.0113 -0.674809 -3.82188 0
M  V30 806 H 78.1123 1.73458 -3.29762 0
M  V30 807 H 78.2253 0.546118 -4.75977 0
M  V30 808 H 76.5893 0.386251 -2.51754 0
M  V30 809 H 77.3723 -1.11816 -3.2458 0
M  V30 810 N 79.8174 1.5752 -0.0501392 0
M  V30 811 C 81.0574 1.94521 0.627783 0
M  V30 812 C 81.4214 0.928265 1.68069 0
M  V30 813 O 82.6224 1.18517 2.41261 0
M  V30 814 C 80.8934 3.36319 1.20932 0
M  V30 815 S 82.4524 3.95272 1.90539 0
M  V30 816 H 79.2704 0.680456 0.206158 0
M  V30 817 H 81.8724 1.95139 -0.118829 0
M  V30 818 H 80.5764 4.08132 0.430865 0
M  V30 819 H 80.1074 3.39193 1.99277 0
M  V30 820 H 82.1224 3.80415 3.18589 0
M  V30 821 N 81.2955 -0.223234 1.56011 0
M  V30 822 C 82.7115 -0.572856 1.48965 0
M  V30 823 C 82.9115 -1.87225 0.74492 0
M  V30 824 O 81.9675 -2.50899 0.283896 0
M  V30 825 C 83.2805 -0.653646 2.9351 0
M  V30 826 C 84.8285 -0.744386 3.0402 0
M  V30 827 C 85.3035 -0.856535 4.49919 0
M  V30 828 N 86.7945 -0.9208 4.53955 0
M  V30 829 C 87.5295 -1.02726 5.64123 0
M  V30 830 N 87.0255 -1.09777 6.84047 0
M  V30 831 N 88.8185 -1.06226 5.51971 0
M  V30 832 H 80.9695 0.629462 2.02858 0
M  V30 833 H 83.2325 0.220621 0.921971 0
M  V30 834 H 82.9385 0.231518 3.50937 0
M  V30 835 H 82.8125 -1.51781 3.45315 0
M  V30 836 H 85.1995 -1.61999 2.46658 0
M  V30 837 H 85.2805 0.14541 2.55386 0
M  V30 838 H 84.9245 0.0146069 5.07898 0
M  V30 839 H 84.8545 -1.76172 4.96257 0
M  V30 840 H 87.3455 -0.876694 3.6759 0
M  V30 841 H 87.6585 -1.17872 7.63758 0
M  V30 842 H 86.0035 -1.06693 6.86762 0
M  V30 843 H 89.1945 -1.00382 4.5721 0
M  V30 844 H 89.3675 -1.14177 6.37862 0
M  V30 845 N 82.7736 -1.49793 -0.48987 0
M  V30 846 C 83.7206 -1.67281 -1.59014 0
M  V30 847 C 84.6906 -0.514177 -1.57941 0
M  V30 848 O 85.8756 -0.742533 -1.75759 0
M  V30 849 C 83.0156 -1.75569 -2.97102 0
M  V30 850 C 82.1286 -3.0281 -3.08107 0
M  V30 851 C 81.2636 -3.02008 -4.36995 0
M  V30 852 C 80.3026 -4.23782 -4.41673 0
M  V30 853 N 79.4396 -4.20826 -5.62005 0
M  V30 854 H 84.2796 -2.61224 -1.43409 0
M  V30 855 H 81.8166 -1.29508 -0.697565 0
M  V30 856 H 83.7746 -1.78354 -3.77155 0
M  V30 857 H 82.4046 -0.850827 -3.11385 0
M  V30 858 H 81.4566 -3.09584 -2.21047 0
M  V30 859 H 82.7686 -3.92801 -3.07423 0
M  V30 860 H 81.9226 -3.03418 -5.25378 0
M  V30 861 H 80.6616 -2.09815 -4.4026 0
M  V30 862 H 79.6666 -4.22604 -3.5169 0
M  V30 863 H 80.8916 -5.17181 -4.40115 0
M  V30 864 H 78.8376 -3.31476 -5.66091 0
M  V30 865 H 78.7546 -5.04564 -5.62984 0
M  V30 866 H 80.0226 -4.26355 -6.52565 0
M  V30 867 N 84.2517 0.741722 -1.39055 0
M  V30 868 C 85.6627 1.31966 -1.32068 0
M  V30 869 C 86.0137 1.96192 0.0180797 0
M  V30 870 O 85.1387 1.95861 0.920196 0
M  V30 871 C 85.7337 2.39954 -2.39181 0
M  V30 872 C 84.2927 2.93438 -2.35735 0
M  V30 873 C 83.4397 1.66936 -2.21422 0
M  V30 874 H 86.3907 0.539721 -1.4924 0
M  V30 875 H 86.4117 3.20182 -2.05581 0
M  V30 876 H 85.9237 1.9318 -3.36605 0
M  V30 877 H 84.0247 3.4451 -1.41929 0
M  V30 878 H 84.1377 3.4701 -3.30335 0
M  V30 879 H 82.5017 1.91016 -1.68478 0
M  V30 880 H 83.2847 1.22224 -3.20806 0
M  V30 881 N 85.7298 1.2412 0.971189 0
M  V30 882 C 86.9758 1.08041 1.71625 0
M  V30 883 C 87.3088 -0.380407 1.90438 0
M  V30 884 O 86.5838 -1.28127 1.46334 0
M  V30 885 C 86.8668 1.81682 3.10908 0
M  V30 886 C 86.7198 3.35493 2.99608 0
M  V30 887 C 88.0388 1.58671 4.10501 0
M  V30 888 H 85.1578 0.39388 0.622919 0
M  V30 889 H 87.7998 1.52743 1.13003 0
M  V30 890 H 85.9498 1.43684 3.60953 0
M  V30 891 H 87.6218 3.83068 2.57015 0
M  V30 892 H 85.8648 3.64052 2.35899 0
M  V30 893 H 86.5358 3.82217 3.98264 0
M  V30 894 H 89.0118 1.91719 3.69301 0
M  V30 895 H 87.8878 2.1266 5.06031 0
M  V30 896 H 88.1488 0.524161 4.38982 0
M  V30 897 N 87.2079 -1.17134 1.05439 0
M  V30 898 C 88.1179 -2.24878 0.668365 0
M  V30 899 C 89.1339 -1.71186 -0.311687 0
M  V30 900 O 90.3099 -2.00738 -0.163161 0
M  V30 901 C 87.3749 -3.46662 0.051648 0
M  V30 902 C 86.4359 -4.15429 1.08246 0
M  V30 903 C 85.6689 -5.31399 0.495082 0
M  V30 904 O 85.8919 -5.66153 -0.694743 0
M  V30 905 O 84.8259 -5.89187 1.23056 0
M  V30 906 H 88.6519 -2.60189 1.56637 0
M  V30 907 H 86.2369 -1.24482 0.826104 0
M  V30 908 H 88.1189 -4.20394 -0.290966 0
M  V30 909 H 86.7939 -3.13142 -0.819971 0
M  V30 910 H 85.7009 -3.43704 1.47711 0
M  V30 911 H 87.0339 -4.52982 1.92532 0
M  V30 912 N 88.686 -0.835752 -1.33615 0
M  V30 913 C 89.633 -0.26473 -2.29277 0
M  V30 914 C 90.603 0.617712 -1.54187 0
M  V30 915 O 91.788 0.556641 -1.825 0
M  V30 916 C 88.928 0.556777 -3.40579 0
M  V30 917 C 88.041 -0.349339 -4.30585 0
M  V30 918 C 87.176 0.482969 -5.29 0
M  V30 919 C 86.215 -0.421732 -6.10645 0
M  V30 920 N 85.352 0.372262 -7.01112 0
M  V30 921 H 90.192 -1.08582 -2.77514 0
M  V30 922 H 87.729 -0.546927 -1.36554 0
M  V30 923 H 89.687 1.04852 -4.03809 0
M  V30 924 H 88.317 1.34286 -2.93542 0
M  V30 925 H 87.369 -0.959372 -3.68104 0
M  V30 926 H 88.681 -1.04445 -4.87742 0
M  V30 927 H 87.835 1.03866 -5.97743 0
M  V30 928 H 86.574 1.21153 -4.72412 0
M  V30 929 H 85.579 -0.989464 -5.40823 0
M  V30 930 H 86.804 -1.14861 -6.69316 0
M  V30 931 H 84.75 1.08426 -6.46977 0
M  V30 932 H 84.667 -0.264198 -7.55538 0
M  V30 933 H 85.935 0.910293 -7.74167 0
M  V30 934 N 90.1641 1.46063 -0.591896 0
M  V30 935 C 91.0741 2.34192 0.13831 0
M  V30 936 C 92.0901 1.50305 0.876608 0
M  V30 937 O 93.2661 1.8315 0.837728 0
M  V30 938 C 90.3311 3.27656 1.13326 0
M  V30 939 C 89.3921 4.27445 0.39863 0
M  V30 940 C 88.6251 5.16443 1.34618 0
M  V30 941 O 88.8481 5.08553 2.58321 0
M  V30 942 O 87.7821 5.95843 0.851768 0
M  V30 943 H 91.6081 2.98002 -0.58552 0
M  V30 944 H 89.1931 1.45188 -0.352239 0
M  V30 945 H 91.0751 3.85291 1.70671 0
M  V30 946 H 89.7501 2.6643 1.83839 0
M  V30 947 H 88.6571 3.73471 -0.216895 0
M  V30 948 H 89.9901 4.91482 -0.265709 0
M  V30 949 N 91.6422 0.330177 1.54103 0
M  V30 950 C 92.8912 -0.271336 1.99867 0
M  V30 951 C 93.2042 -1.52723 1.22209 0
M  V30 952 O 94.4102 -2.20515 1.58383 0
M  V30 953 C 92.8662 -0.534032 3.55916 0
M  V30 954 C 92.4742 0.705193 4.42415 0
M  V30 955 C 94.2182 -1.09514 4.1013 0
M  V30 956 C 92.1252 0.414035 5.89949 0
M  V30 957 H 91.0552 -0.105166 0.74663 0
M  V30 958 H 93.7062 0.443429 1.78062 0
M  V30 959 H 92.0882 -1.30915 3.73734 0
M  V30 960 H 93.2622 1.4804 4.36372 0
M  V30 961 H 91.5772 1.18698 3.99124 0
M  V30 962 H 94.1742 -1.3277 5.17954 0
M  V30 963 H 94.5172 -2.04656 3.62521 0
M  V30 964 H 95.0502 -0.381038 3.95971 0
M  V30 965 H 91.7892 1.33481 6.41766 0
M  V30 966 H 91.3092 -0.323336 5.98928 0
M  V30 967 H 92.9882 0.0263105 6.46995 0
M  V30 968 N 93.1203 -1.57491 0.0584922 0
M  V30 969 C 94.0503 -2.14988 -0.911178 0
M  V30 970 C 95.0313 -1.07343 -1.31952 0
M  V30 971 O 96.2163 -1.35318 -1.39294 0
M  V30 972 C 93.3463 -2.70078 -2.18347 0
M  V30 973 C 92.3003 -3.82771 -1.91495 0
M  V30 974 C 91.6263 -4.24408 -3.25241 0
M  V30 975 C 92.9263 -5.07592 -1.23075 0
M  V30 976 H 94.6203 -2.96263 -0.432246 0
M  V30 977 H 92.1663 -1.42512 -0.206469 0
M  V30 978 H 94.1193 -3.08943 -2.86587 0
M  V30 979 H 92.8433 -1.86005 -2.68458 0
M  V30 980 H 91.5023 -3.44389 -1.25664 0
M  V30 981 H 91.1503 -3.37275 -3.73168 0
M  V30 982 H 90.8503 -5.00366 -3.08071 0
M  V30 983 H 92.3743 -4.65879 -3.94701 0
M  V30 984 H 93.7883 -5.43857 -1.81362 0
M  V30 985 H 92.1853 -5.88741 -1.16207 0
M  V30 986 H 93.2553 -4.84454 -0.207847 0
M  V30 987 N 94.5984 0.214957 -1.56127 0
M  V30 988 C 95.8234 0.95924 -1.83884 0
M  V30 989 C 96.2484 1.7689 -0.639644 0
M  V30 990 O 95.6064 1.76566 0.411601 0
M  V30 991 C 95.6544 1.84723 -3.09693 0
M  V30 992 O 94.7584 2.94346 -2.8885 0
M  V30 993 H 94.0994 0.27125 -0.606069 0
M  V30 994 H 96.6294 0.226276 -2.03345 0
M  V30 995 H 96.6394 2.25576 -3.39969 0
M  V30 996 H 95.3144 1.25218 -3.96602 0
M  V30 997 H 93.8914 2.57391 -2.69823 0
M  V30 998 N 96.0765 1.50051 0.48192 0
M  V30 999 C 97.0245 1.68635 1.60203 0
M  V30 1000 C 98.0185 0.552184 1.60148 0
M  V30 1001 O 99.2245 0.732377 1.64427 0
M  V30 1002 H 95.5995 0.532081 0.531407 0
M  V30 1003 H 97.5705 2.62616 1.41688 0
M  V30 1004 C 96.3195 1.78775 2.9822 0
M  V30 1005 H 95.6425 2.6543 2.98976 0
M  V30 1006 H 97.0825 1.95806 3.7608 0
M  V30 1007 C 95.5415 0.536849 3.32595 0
M  V30 1008 O 96.0715 -0.328897 4.00351 0
M  V30 1009 N 94.2775 0.394091 2.87915 0
M  V30 1010 H 93.8245 1.09962 2.32951 0
M  V30 1011 H 93.7825 -0.441737 3.11281 0
M  V30 1012 N 97.5546 -0.734337 1.39446 0
M  V30 1013 C 98.8036 -1.48937 1.36017 0
M  V30 1014 C 99.1166 -1.95557 -0.0409005 0
M  V30 1015 O 100.323 -2.70779 -0.19778 0
M  V30 1016 C 98.7786 -2.69125 2.38955 0
M  V30 1017 C 98.3866 -2.29452 3.8478 0
M  V30 1018 C 100.131 -3.46944 2.44603 0
M  V30 1019 C 98.0376 -3.46366 4.79358 0
M  V30 1020 H 96.9676 -0.559296 0.505672 0
M  V30 1021 H 99.6186 -0.800983 1.65095 0
M  V30 1022 H 98.0006 -3.40041 2.02948 0
M  V30 1023 H 99.1746 -1.66077 4.29831 0
M  V30 1024 H 97.4896 -1.64723 3.82433 0
M  V30 1025 H 100.087 -4.33907 3.12456 0
M  V30 1026 H 100.43 -3.89454 1.47076 0
M  V30 1027 H 100.963 -2.83056 2.79507 0
M  V30 1028 H 97.7016 -3.08905 5.78151 0
M  V30 1029 H 97.2216 -4.08719 4.38986 0
M  V30 1030 H 98.9006 -4.12691 4.98292 0
M  V30 1031 N 99.0327 -1.24633 -0.964593 0
M  V30 1032 C 99.9807 -1.03917 -2.08096 0
M  V30 1033 C 100.975 0.0268581 -1.69379 0
M  V30 1034 O 102.181 -0.127952 -1.79545 0
M  V30 1035 H 98.5557 -0.319044 -0.680966 0
M  V30 1036 H 100.527 -1.98581 -2.22729 0
M  V30 1037 C 99.2757 -0.663983 -3.41301 0
M  V30 1038 H 98.5987 -1.47605 -3.71555 0
M  V30 1039 H 100.039 -0.558663 -4.20303 0
M  V30 1040 C 98.4977 0.629169 -3.30973 0
M  V30 1041 O 99.0277 1.67404 -3.65156 0
M  V30 1042 N 97.2337 0.611057 -2.84103 0
M  V30 1043 H 96.7807 -0.239593 -2.56483 0
M  V30 1044 H 96.7387 1.47647 -2.77575 0
M  V30 1045 N 100.511 1.16574 -1.06058 0
M  V30 1046 C 101.759 1.86677 -0.77434 0
M  V30 1047 C 102.08 1.81959 0.701147 0
M  V30 1048 O 101.35 1.2515 1.50713 0
M  V30 1049 H 99.9298 0.691134 -0.283449 0
M  V30 1050 H 102.592 1.41378 -1.34158 0
M  V30 1051 H 101.688 2.92181 -1.09711 0
M  V30 1052 N 101.989 0.842826 1.3317 0
M  V30 1053 C 103.238 0.436738 1.96915 0
M  V30 1054 C 103.551 -1.01025 1.67491 0
M  V30 1055 O 104.757 -1.5212 2.24881 0
M  V30 1056 C 103.213 0.730021 3.52418 0
M  V30 1057 C 102.821 2.19195 3.90714 0
M  V30 1058 C 104.565 0.391076 4.22695 0
M  V30 1059 C 102.472 2.42907 5.39212 0
M  V30 1060 H 101.402 0.15958 0.736919 0
M  V30 1061 H 104.053 1.03196 1.51733 0
M  V30 1062 H 102.435 0.0643755 3.95948 0
M  V30 1063 H 103.609 2.8984 3.58231 0
M  V30 1064 H 101.924 2.49425 3.33431 0
M  V30 1065 H 104.521 0.545817 5.31907 0
M  V30 1066 H 104.864 -0.666294 4.10933 0
M  V30 1067 H 105.397 1.01212 3.84709 0
M  V30 1068 H 102.136 3.47224 5.55982 0
M  V30 1069 H 101.656 1.76827 5.73142 0
M  V30 1070 H 103.335 2.2626 6.06148 0
M  V30 1071 N 103.467 -1.45747 0.599634 0
M  V30 1072 C 104.4 -2.27547 -0.172552 0
M  V30 1073 C 105.378 -1.36657 -0.881116 0
M  V30 1074 O 106.562 -1.66081 -0.891595 0
M  V30 1075 C 103.689 -3.14829 -1.24903 0
M  V30 1076 C 102.735 -4.21603 -0.644465 0
M  V30 1077 S 103.568 -5.32754 0.541606 0
M  V30 1078 C 104.724 -6.23604 -0.535656 0
M  V30 1079 H 104.957 -2.92691 0.521468 0
M  V30 1080 H 102.49 -1.49473 0.386947 0
M  V30 1081 H 104.448 -3.65675 -1.86527 0
M  V30 1082 H 103.109 -2.48965 -1.91508 0
M  V30 1083 H 102.302 -4.82566 -1.45417 0
M  V30 1084 H 101.904 -3.73857 -0.103534 0
M  V30 1085 H 104.196 -6.62519 -1.41686 0
M  V30 1086 H 105.139 -7.0809 0.0376246 0
M  V30 1087 H 105.547 -5.58103 -0.84741 0
M  V30 1088 N 104.945 -0.338344 -1.53925 0
M  V30 1089 C 105.892 0.520845 -2.24846 0
M  V30 1090 C 106.862 1.09976 -1.24477 0
M  V30 1091 O 108.047 1.13735 -1.53196 0
M  V30 1092 C 105.187 1.6685 -3.02084 0
M  V30 1093 C 104.3 1.11739 -4.17299 0
M  V30 1094 C 103.435 2.23193 -4.82036 0
M  V30 1095 C 102.474 1.65407 -5.89328 0
M  V30 1096 N 101.611 2.70582 -6.47866 0
M  V30 1097 H 106.451 -0.0904881 -2.97863 0
M  V30 1098 H 103.988 -0.0564282 -1.46992 0
M  V30 1099 H 105.946 2.34407 -3.45122 0
M  V30 1100 H 104.576 2.2509 -2.31375 0
M  V30 1101 H 103.628 0.332919 -3.7894 0
M  V30 1102 H 104.94 0.654677 -4.94485 0
M  V30 1103 H 104.094 2.98626 -5.28117 0
M  V30 1104 H 102.833 2.72807 -4.04262 0
M  V30 1105 H 101.838 0.884779 -5.42634 0
M  V30 1106 H 103.063 1.16652 -6.69006 0
M  V30 1107 H 101.009 3.1946 -5.72959 0
M  V30 1108 H 100.926 2.28917 -7.20509 0
M  V30 1109 H 102.194 3.45799 -6.98601 0
M  V30 1110 N 106.423 1.57458 -0.0668435 0
M  V30 1111 C 107.834 1.80776 0.466558 0
M  V30 1112 C 108.185 0.980361 1.69951 0
M  V30 1113 O 107.31 0.201441 2.1546 0
M  V30 1114 C 107.905 3.27881 0.85321 0
M  V30 1115 C 106.464 3.52062 1.3315 0
M  V30 1116 C 105.611 2.75513 0.314264 0
M  V30 1117 H 108.562 1.5598 -0.292588 0
M  V30 1118 H 108.583 3.39659 1.715 0
M  V30 1119 H 108.095 3.88075 -0.0443439 0
M  V30 1120 H 106.196 2.97167 2.24772 0
M  V30 1121 H 106.309 4.60762 1.31285 0
M  V30 1122 H 104.673 2.42123 0.790492 0
M  V30 1123 H 105.456 3.38442 -0.575477 0
M  V30 1124 N 107.901 -0.206675 1.56239 0
M  V30 1125 C 109.149 -0.927007 1.79586 0
M  V30 1126 C 109.47 -1.8427 0.637929 0
M  V30 1127 O 108.74 -1.92849 -0.344398 0
M  V30 1128 H 107.32 -0.345292 0.662407 0
M  V30 1129 H 109.982 -0.21496 1.93711 0
M  V30 1130 H 109.078 -1.52501 2.72305 0
M  V30 1131 N 109.379 -1.50304 -0.473955 0
M  V30 1132 C 110.309 -1.71886 -1.58042 0
M  V30 1133 C 111.29 -0.567799 -1.60344 0
M  V30 1134 O 112.475 -0.806623 -1.76656 0
M  V30 1135 C 109.605 -1.81036 -2.96384 0
M  V30 1136 C 108.559 -2.962 -3.08949 0
M  V30 1137 C 107.885 -2.9049 -4.48909 0
M  V30 1138 C 109.185 -4.36752 -2.86434 0
M  V30 1139 H 110.879 -2.64527 -1.40234 0
M  V30 1140 H 108.425 -1.27295 -0.673201 0
M  V30 1141 H 110.378 -1.94719 -3.73714 0
M  V30 1142 H 109.102 -0.850147 -3.15341 0
M  V30 1143 H 107.761 -2.82164 -2.3405 0
M  V30 1144 H 107.409 -1.92321 -4.64781 0
M  V30 1145 H 107.109 -3.67802 -4.58253 0
M  V30 1146 H 108.633 -3.06218 -5.28264 0
M  V30 1147 H 110.047 -4.5133 -3.53517 0
M  V30 1148 H 108.444 -5.15493 -3.07225 0
M  V30 1149 H 109.514 -4.49321 -1.82316 0
M  V30 1150 N 110.857 0.726932 -1.39834 0
M  V30 1151 C 111.805 1.86235 -1.39353 0
M  V30 1152 C 112.799 1.67144 -0.275555 0
M  V30 1153 O 114.005 1.74387 -0.44601 0
M  V30 1154 H 110.38 0.613174 -0.43534 0
M  V30 1155 H 112.351 1.83756 -2.35109 0
M  V30 1156 C 111.1 3.23995 -1.26185 0
M  V30 1157 H 110.423 3.39285 -2.11484 0
M  V30 1158 H 111.863 4.03609 -1.29907 0
M  V30 1159 C 110.322 3.36888 0.0290018 0
M  V30 1160 O 110.852 3.89152 0.99619 0
M  V30 1161 N 109.058 2.90446 0.0947437 0
M  V30 1162 H 108.605 2.48102 -0.693035 0
M  V30 1163 H 108.563 2.99451 0.957932 0
M  V30 1164 N 112.336 1.25143 0.95797 0
M  V30 1165 C 113.299 1.05321 2.03569 0
M  V30 1166 C 114.299 0.007152 1.60798 0
M  V30 1167 O 115.489 0.24903 1.72411 0
M  V30 1168 C 112.621 0.598394 3.35607 0
M  V30 1169 H 113.814 2.00986 2.22586 0
M  V30 1170 H 111.367 1.07502 1.13459 0
M  V30 1171 H 112.102 -0.361014 3.22284 0
M  V30 1172 H 111.887 1.35351 3.67998 0
M  V30 1173 H 113.377 0.48104 4.1482 0
M  V30 1174 N 113.814 -1.1601 1.06675 0
M  V30 1175 C 115.063 -1.85973 0.780818 0
M  V30 1176 C 115.376 -1.82819 -0.695444 0
M  V30 1177 O 116.582 -2.484 -1.09589 0
M  V30 1178 C 115.038 -3.33757 1.34665 0
M  V30 1179 C 114.646 -3.45374 2.85343 0
M  V30 1180 C 116.39 -4.0895 1.13843 0
M  V30 1181 C 114.297 -4.87266 3.35151 0
M  V30 1182 H 113.227 -0.696661 0.288407 0
M  V30 1183 H 115.878 -1.30903 1.28595 0
M  V30 1184 H 114.26 -3.88456 0.769274 0
M  V30 1185 H 115.434 -3.00816 3.49065 0
M  V30 1186 H 113.749 -2.83619 3.04876 0
M  V30 1187 H 116.346 -5.13654 1.4854 0
M  V30 1188 H 116.689 -4.16229 0.0770282 0
M  V30 1189 H 117.222 -3.605 1.68179 0
M  V30 1190 H 113.961 -4.85168 4.40786 0
M  V30 1191 H 113.481 -5.32433 2.76179 0
M  V30 1192 H 115.16 -5.56097 3.30704 0
M  V30 1193 N 115.292 -0.849877 -1.32721 0
M  V30 1194 C 116.222 -0.306308 -2.31482 0
M  V30 1195 C 117.203 0.591952 -1.59468 0
M  V30 1196 O 118.388 0.513199 -1.87296 0
M  V30 1197 C 115.518 0.510204 -3.43532 0
M  V30 1198 C 114.472 -0.293209 -4.26994 0
M  V30 1199 C 113.798 0.647743 -5.30762 0
M  V30 1200 C 115.098 -1.51634 -4.99804 0
M  V30 1201 H 116.792 -1.13153 -2.77195 0
M  V30 1202 H 114.338 -0.545553 -1.33266 0
M  V30 1203 H 116.291 0.900856 -4.11658 0
M  V30 1204 H 115.015 1.36874 -2.96535 0
M  V30 1205 H 113.674 -0.665555 -3.60508 0
M  V30 1206 H 113.322 1.50299 -4.8002 0
M  V30 1207 H 113.022 0.11422 -5.87489 0
M  V30 1208 H 114.546 1.03567 -6.01753 0
M  V30 1209 H 115.96 -1.19824 -5.60638 0
M  V30 1210 H 114.357 -1.98745 -5.66234 0
M  V30 1211 H 115.427 -2.28018 -4.27943 0
M  V30 1212 N 116.77 1.45427 -0.607355 0
M  V30 1213 C 118.018 2.01841 -0.102253 0
M  V30 1214 C 118.339 1.47832 1.27164 0
M  V30 1215 O 117.609 0.672497 1.83995 0
M  V30 1216 H 116.189 0.746188 -0.0348101 0
M  V30 1217 H 118.851 1.78229 -0.7887 0
M  V30 1218 H 117.947 3.12057 -0.0518585 0
M  V30 1219 N 118.248 0.346503 1.53744 0
M  V30 1220 C 119.659 -0.136779 1.86198 0
M  V30 1221 C 120.01 -1.49749 1.26766 0
M  V30 1222 O 119.135 -2.08417 0.582355 0
M  V30 1223 C 119.73 -0.254966 3.37839 0
M  V30 1224 C 118.289 -0.682482 3.70161 0
M  V30 1225 C 117.436 0.181981 2.76702 0
M  V30 1226 H 120.387 0.565994 1.48264 0
M  V30 1227 H 120.408 -1.08195 3.64793 0
M  V30 1228 H 119.92 0.735526 3.81066 0
M  V30 1229 H 118.021 -1.68189 3.3248 0
M  V30 1230 H 118.134 -0.470326 4.76786 0
M  V30 1231 H 116.498 -0.34615 2.52337 0
M  V30 1232 H 117.281 1.16966 3.2276 0
M  V30 1233 N 119.726 -1.57421 0.075193 0
M  V30 1234 C 120.954 -1.97946 -0.602076 0
M  V30 1235 C 121.369 -0.953674 -1.62943 0
M  V30 1236 O 120.726 0.0592551 -1.82404 0
M  V30 1237 C 120.777 -3.38546 -1.26762 0
M  V30 1238 O 120.498 -4.37195 -0.281376 0
M  V30 1239 C 121.999 -3.93966 -2.03239 0
M  V30 1240 H 119.219 -0.650918 -0.162931 0
M  V30 1241 H 121.763 -2.03959 0.148601 0
M  V30 1242 H 119.918 -3.33609 -1.96936 0
M  V30 1243 H 120.332 -5.18975 -0.759267 0
M  V30 1244 H 121.806 -4.94555 -2.45193 0
M  V30 1245 H 122.283 -3.30693 -2.8903 0
M  V30 1246 H 122.889 -4.02315 -1.37924 0
M  V30 1247 N 121.204 0.198386 -1.56346 0
M  V30 1248 C 122.452 0.91747 -1.80075 0
M  V30 1249 C 122.773 1.83929 -0.647692 0
M  V30 1250 O 122.043 1.93029 0.334166 0
M  V30 1251 H 120.623 0.341774 -0.664228 0
M  V30 1252 H 123.285 0.204684 -1.93822 0
M  V30 1253 H 122.381 1.51055 -2.7311 0
M  V30 1254 N 122.682 1.50554 0.465978 0
M  V30 1255 C 123.93 1.61479 1.21528 0
M  V30 1256 C 124.251 0.319596 1.92363 0
M  V30 1257 O 123.521 -0.663194 1.84333 0
M  V30 1258 H 122.101 0.595055 0.451573 0
M  V30 1259 H 124.763 1.87355 0.53704 0
M  V30 1260 H 123.859 2.42846 1.96042 0
M  V30 1261 N 124.16 -0.719506 1.40217 0
M  V30 1262 C 125.408 -1.47641 1.3801 0
M  V30 1263 C 125.729 -1.94992 -0.018145 0
M  V30 1264 O 124.999 -1.70073 -0.972207 0
M  V30 1265 H 123.579 -0.547744 0.507923 0
M  V30 1266 H 126.241 -0.853187 1.75233 0
M  V30 1267 H 125.337 -2.35112 2.05253 0
M  V30 1268 N 125.638 -1.25649 -0.95132 0
M  V30 1269 C 126.585 -1.06323 -2.04851 0
M  V30 1270 C 127.555 0.0286491 -1.66075 0
M  V30 1271 O 128.74 -0.12917 -1.90362 0
M  V30 1272 C 125.88 -0.691529 -3.381 0
M  V30 1273 C 124.993 -1.85861 -3.89974 0
M  V30 1274 C 124.128 -1.43096 -5.11563 0
M  V30 1275 C 123.167 -2.56696 -5.55674 0
M  V30 1276 N 122.304 -2.14684 -6.68472 0
M  V30 1277 H 127.144 -2.00222 -2.20715 0
M  V30 1278 H 124.681 -0.997027 -1.08156 0
M  V30 1279 H 126.639 -0.456963 -4.1469 0
M  V30 1280 H 125.269 0.210474 -3.22113 0
M  V30 1281 H 124.321 -2.20639 -3.09875 0
M  V30 1282 H 125.633 -2.71161 -4.18657 0
M  V30 1283 H 124.787 -1.15624 -5.9558 0
M  V30 1284 H 123.526 -0.548722 -4.84603 0
M  V30 1285 H 122.531 -2.84909 -4.7022 0
M  V30 1286 H 123.756 -3.45503 -5.8464 0
M  V30 1287 H 121.702 -1.28881 -6.43215 0
M  V30 1288 H 121.619 -2.9353 -6.96689 0
M  V30 1289 H 122.887 -1.90397 -7.5589 0
M  V30 1290 N 127.117 1.15442 -1.07289 0
M  V30 1291 C 128.342 1.90638 -0.816828 0
M  V30 1292 C 128.767 1.77445 0.624083 0
M  V30 1293 O 128.125 1.10671 1.43602 0
M  V30 1294 C 128.173 3.39008 -1.22906 0
M  V30 1295 O 127.277 4.10701 -0.373975 0
M  V30 1296 H 126.618 0.593555 -0.297638 0
M  V30 1297 H 129.148 1.46198 -1.43134 0
M  V30 1298 H 129.158 3.89801 -1.20497 0
M  V30 1299 H 127.833 3.47929 -2.27856 0
M  V30 1300 H 126.41 3.70046 -0.460499 0
M  V30 1301 N 128.595 0.856903 1.32268 0
M  V30 1302 C 129.82 0.474569 2.01897 0
M  V30 1303 C 130.245 -0.921766 1.63967 0
M  V30 1304 O 129.603 -1.60589 0.84148 0
M  V30 1305 C 129.651 0.623799 3.55164 0
M  V30 1306 O 128.755 -0.342459 4.10976 0
M  V30 1307 H 128.096 0.190422 0.63611 0
M  V30 1308 H 130.626 1.15672 1.68764 0
M  V30 1309 H 130.636 0.512169 4.04773 0
M  V30 1310 H 129.311 1.64202 3.82113 0
M  V30 1311 H 127.888 -0.18688 3.72431 0
M  V30 1312 N 130.073 -1.45103 0.615059 0
M  V30 1313 C 131.003 -2.33339 -0.0865619 0
M  V30 1314 C 131.984 -1.4727 -0.851209 0
M  V30 1315 O 133.169 -1.76026 -0.820281 0
M  V30 1316 C 130.299 -3.30095 -1.07956 0
M  V30 1317 C 129.253 -4.25858 -0.427628 0
M  V30 1318 C 128.579 -5.12361 -1.5294 0
M  V30 1319 C 129.879 -5.18165 0.655944 0
M  V30 1320 H 131.573 -2.92254 0.650224 0
M  V30 1321 H 129.119 -1.40532 0.314138 0
M  V30 1322 H 131.072 -3.90698 -1.57901 0
M  V30 1323 H 129.796 -2.69355 -1.84703 0
M  V30 1324 H 128.455 -3.66564 0.0510292 0
M  V30 1325 H 128.103 -4.47984 -2.28734 0
M  V30 1326 H 127.803 -5.77238 -1.09865 0
M  V30 1327 H 129.327 -5.75833 -2.03098 0
M  V30 1328 H 130.741 -5.72796 0.240257 0
M  V30 1329 H 129.138 -5.91559 1.00888 0
M  V30 1330 H 130.208 -4.60144 1.52957 0
M  V30 1331 N 131.551 -0.354651 -1.53558 0
M  V30 1332 C 132.481 0.489091 -2.2832 0
M  V30 1333 C 133.462 1.09324 -1.30316 0
M  V30 1334 O 134.647 1.11255 -1.59173 0
M  V30 1335 C 131.777 1.63456 -3.0643 0
M  V30 1336 C 130.731 1.1582 -4.12031 0
M  V30 1337 C 130.057 2.39305 -4.7816 0
M  V30 1338 C 131.357 0.250731 -5.21698 0
M  V30 1339 H 133.051 -0.134614 -2.99097 0
M  V30 1340 H 130.597 -0.0661826 -1.43848 0
M  V30 1341 H 132.55 2.23136 -3.57475 0
M  V30 1342 H 131.274 2.28533 -2.33325 0
M  V30 1343 H 129.933 0.584146 -3.61916 0
M  V30 1344 H 129.581 3.02814 -4.01637 0
M  V30 1345 H 129.281 2.08109 -5.49513 0
M  V30 1346 H 130.805 2.99691 -5.31994 0
M  V30 1347 H 132.219 0.754695 -5.68311 0
M  V30 1348 H 130.616 0.0301468 -6.00092 0
M  V30 1349 H 131.686 -0.710125 -4.79672 0
M  V30 1350 N 133.029 1.57378 -0.0835403 0
M  V30 1351 C 134.306 1.85363 0.624507 0
M  V30 1352 C 134.686 0.978239 1.87066 0
M  V30 1353 O 134.034 0.0475908 2.2845 0
M  V30 1354 C 134.244 3.35795 0.950947 0
M  V30 1355 C 135.592 4.03581 1.31939 0
M  V30 1356 O 136.616 3.40609 1.04232 0
M  V30 1357 O 135.475 5.14672 1.83779 0
M  V30 1358 H 132.569 0.766162 0.311329 0
M  V30 1359 H 135.115 1.69307 -0.115362 0
M  V30 1360 H 133.887 3.91244 0.0663899 0
M  V30 1361 H 133.51 3.57154 1.74719 0
M  V30 1362 N 134.507 -0.190092 1.56449 0
M  V30 1363 C 135.753 -0.911052 1.81184 0
M  V30 1364 C 136.086 -1.82699 0.658396 0
M  V30 1365 O 135.361 -1.91491 -0.340775 0
M  V30 1366 C 135.644 -1.72297 3.16205 0
M  V30 1367 C 135.497 -0.831419 4.42049 0
M  V30 1368 C 136.816 -2.69454 3.47969 0
M  V30 1369 H 133.935 -0.32977 0.659106 0
M  V30 1370 H 136.577 -0.178169 1.89163 0
M  V30 1371 H 134.727 -2.34778 3.09534 0
M  V30 1372 H 136.399 -0.220929 4.60771 0
M  V30 1373 H 134.642 -0.138406 4.33579 0
M  V30 1374 H 135.313 -1.43461 5.33032 0
M  V30 1375 H 137.789 -2.17104 3.54972 0
M  V30 1376 H 136.665 -3.23342 4.43555 0
M  V30 1377 H 136.926 -3.48744 2.71717 0
M  V30 1378 N 135.985 -1.50799 -0.457987 0
M  V30 1379 C 136.915 -1.73553 -1.5621 0
M  V30 1380 C 137.896 -0.584774 -1.59732 0
M  V30 1381 O 139.081 -0.825314 -1.7579 0
M  V30 1382 C 136.211 -1.84169 -2.94447 0
M  V30 1383 C 135.165 -2.99461 -3.0579 0
M  V30 1384 C 134.491 -2.95235 -4.45803 0
M  V30 1385 C 135.791 -4.39766 -2.81786 0
M  V30 1386 H 137.485 -2.66 -1.37421 0
M  V30 1387 H 135.031 -1.28002 -0.659662 0
M  V30 1388 H 136.984 -1.98672 -3.71628 0
M  V30 1389 H 135.708 -0.883545 -3.14422 0
M  V30 1390 H 134.367 -2.8463 -2.31044 0
M  V30 1391 H 134.015 -1.97239 -4.62715 0
M  V30 1392 H 133.715 -3.72642 -4.54326 0
M  V30 1393 H 135.239 -3.11803 -5.24987 0
M  V30 1394 H 136.653 -4.55054 -3.4871 0
M  V30 1395 H 135.05 -5.18722 -3.0174 0
M  V30 1396 H 136.12 -4.51229 -1.7754 0
M  V30 1397 N 137.463 0.71206 -1.40597 0
M  V30 1398 C 138.426 1.80785 -1.40888 0
M  V30 1399 C 139.426 1.57937 -0.302103 0
M  V30 1400 O 140.616 1.64913 -0.561182 0
M  V30 1401 C 137.748 3.18927 -1.20409 0
M  V30 1402 H 138.941 1.81924 -2.38419 0
M  V30 1403 H 136.494 0.91805 -1.26497 0
M  V30 1404 H 137.229 3.23436 -0.236522 0
M  V30 1405 H 137.014 3.36911 -2.00582 0
M  V30 1406 H 138.504 3.98949 -1.23408 0
M  V30 1407 N 138.941 1.26152 0.944643 0
M  V30 1408 C 139.904 1.07474 2.0244 0
M  V30 1409 C 140.904 0.0242064 1.60782 0
M  V30 1410 O 142.094 0.267302 1.72137 0
M  V30 1411 C 139.226 0.633956 3.34953 0
M  V30 1412 H 140.419 2.03336 2.20442 0
M  V30 1413 H 137.972 1.087 1.12312 0
M  V30 1414 H 138.707 -0.326811 3.22649 0
M  V30 1415 H 138.492 1.39247 3.66542 0
M  V30 1416 H 139.982 0.52501 4.14287 0
M  V30 1417 N 140.419 -1.14872 1.07899 0
M  V30 1418 C 141.835 -1.37776 0.805606 0
M  V30 1419 C 142.035 -1.92743 -0.587555 0
M  V30 1420 O 141.091 -2.13678 -1.34528 0
M  V30 1421 C 142.404 -2.34361 1.88402 0
M  V30 1422 C 143.952 -2.48012 1.90942 0
M  V30 1423 C 144.427 -3.47893 2.97883 0
M  V30 1424 N 145.918 -3.55433 2.97021 0
M  V30 1425 C 146.653 -4.32553 3.76412 0
M  V30 1426 N 146.149 -5.12959 4.65666 0
M  V30 1427 N 147.942 -4.27697 3.64735 0
M  V30 1428 H 140.093 -0.775365 1.97742 0
M  V30 1429 H 142.356 -0.403521 0.857831 0
M  V30 1430 H 142.062 -2.01098 2.88535 0
M  V30 1431 H 141.936 -3.34206 1.74889 0
M  V30 1432 H 144.323 -2.8057 0.914579 0
M  V30 1433 H 144.404 -1.48147 2.08534 0
M  V30 1434 H 144.048 -3.16069 3.97571 0
M  V30 1435 H 143.978 -4.47527 2.77538 0
M  V30 1436 H 146.469 -2.98048 2.32326 0
M  V30 1437 H 146.782 -5.69065 5.22862 0
M  V30 1438 H 145.127 -5.12245 4.69712 0
M  V30 1439 H 148.318 -3.63949 2.94378 0
M  V30 1440 H 148.491 -4.8755 4.26848 0
M  V30 1441 N 141.898 -0.863906 -1.31812 0
M  V30 1442 C 142.845 -0.313303 -2.28664 0
M  V30 1443 C 143.815 0.584868 -1.55462 0
M  V30 1444 O 145 0.517805 -1.83639 0
M  V30 1445 C 142.14 0.48441 -3.41683 0
M  V30 1446 C 141.253 -0.440594 -4.29747 0
M  V30 1447 C 140.388 0.370652 -5.29905 0
M  V30 1448 C 139.427 -0.551164 -6.09613 0
M  V30 1449 N 138.564 0.223462 -7.01744 0
M  V30 1450 H 143.404 -1.14444 -2.75148 0
M  V30 1451 H 140.941 -0.575769 -1.35364 0
M  V30 1452 H 142.899 0.962627 -4.05943 0
M  V30 1453 H 141.529 1.28029 -2.96325 0
M  V30 1454 H 140.581 -1.03724 -3.65986 0
M  V30 1455 H 141.893 -1.14767 -4.85417 0
M  V30 1456 H 141.047 0.911638 -5.99812 0
M  V30 1457 H 139.786 1.11105 -4.74876 0
M  V30 1458 H 138.791 -1.10396 -5.38603 0
M  V30 1459 H 140.016 -1.29032 -6.66729 0
M  V30 1460 H 137.962 0.946787 -6.49132 0
M  V30 1461 H 137.879 -0.424399 -7.54808 0
M  V30 1462 H 139.147 0.745876 -7.75923 0
M  V30 1463 N 143.376 1.44774 -0.622745 0
M  V30 1464 C 144.653 1.95522 -0.0551974 0
M  V30 1465 C 145.033 1.5649 1.41683 0
M  V30 1466 O 144.381 0.834848 2.12703 0
M  V30 1467 C 144.591 3.4796 -0.269242 0
M  V30 1468 C 145.939 4.24306 -0.158014 0
M  V30 1469 O 146.963 3.55637 -0.200162 0
M  V30 1470 O 145.822 5.46471 -0.0558693 0
M  V30 1471 H 142.916 0.826556 0.0271015 0
M  V30 1472 H 145.462 1.54866 -0.693864 0
M  V30 1473 H 144.234 3.6939 -1.29099 0
M  V30 1474 H 143.857 3.95543 0.403966 0
M  V30 1475 N 144.854 0.36279 1.53368 0
M  V30 1476 C 146.265 -0.117022 1.86333 0
M  V30 1477 C 146.616 -1.48397 1.28347 0
M  V30 1478 O 145.741 -2.07787 0.604428 0
M  V30 1479 C 146.336 -0.21912 3.38091 0
M  V30 1480 C 144.895 -0.643184 3.70864 0
M  V30 1481 C 144.042 0.211318 2.76494 0
M  V30 1482 H 146.993 0.581687 1.47655 0
M  V30 1483 H 147.014 -1.04319 3.6592 0
M  V30 1484 H 146.526 0.775902 3.80265 0
M  V30 1485 H 144.627 -1.64654 3.34245 0
M  V30 1486 H 144.74 -0.41973 4.77258 0
M  V30 1487 H 143.104 -0.319367 2.5269 0
M  V30 1488 H 143.887 1.20383 3.21501 0
M  V30 1489 N 146.332 -1.57332 0.0918853 0
M  V30 1490 C 147.557 -1.98995 -0.584442 0
M  V30 1491 C 147.982 -0.970528 -1.61128 0
M  V30 1492 O 147.34 0.0613904 -1.81196 0
M  V30 1493 C 147.388 -3.39636 -1.21161 0
M  V30 1494 O 146.492 -3.40447 -2.32744 0
M  V30 1495 H 145.833 -0.647165 -0.148572 0
M  V30 1496 H 148.363 -2.03873 0.172347 0
M  V30 1497 H 148.373 -3.7726 -1.55367 0
M  V30 1498 H 147.048 -4.13356 -0.459313 0
M  V30 1499 H 145.625 -3.14614 -2.0018 0
M  V30 1500 N 147.81 0.181792 -1.56548 0
M  V30 1501 C 149.058 0.89832 -1.81038 0
M  V30 1502 C 149.379 1.83232 -0.667164 0
M  V30 1503 O 148.649 1.93372 0.313673 0
M  V30 1504 H 147.229 0.33471 -0.667816 0
M  V30 1505 H 149.891 0.184116 -1.94028 0
M  V30 1506 H 148.987 1.4815 -2.74696 0
M  V30 1507 N 149.288 1.51039 0.449983 0
M  V30 1508 C 150.218 1.74379 1.55288 0
M  V30 1509 C 151.199 0.593236 1.5942 0
M  V30 1510 O 152.384 0.834625 1.7535 0
M  V30 1511 C 149.514 1.85728 2.93466 0
M  V30 1512 C 148.468 3.01078 3.04197 0
M  V30 1513 C 147.794 2.97595 4.44231 0
M  V30 1514 C 149.094 4.41254 2.7945 0
M  V30 1515 H 150.788 2.66725 1.36008 0
M  V30 1516 H 148.334 1.2835 0.652864 0
M  V30 1517 H 150.287 2.0064 3.70569 0
M  V30 1518 H 149.011 0.900207 3.13949 0
M  V30 1519 H 147.67 2.85851 2.29531 0
M  V30 1520 H 147.318 1.99691 4.61663 0
M  V30 1521 H 147.018 3.75046 4.52343 0
M  V30 1522 H 148.542 3.14583 5.23326 0
M  V30 1523 H 149.956 4.56897 3.46292 0
M  V30 1524 H 148.353 5.20315 2.98985 0
M  V30 1525 H 149.423 4.52164 1.75144 0
M  V30 1526 N 150.766 -0.704594 1.40972 0
M  V30 1527 C 151.991 -1.49858 1.43378 0
M  V30 1528 C 152.416 -1.88061 0.038184 0
M  V30 1529 O 151.774 -1.5402 -0.956425 0
M  V30 1530 C 151.822 -2.74333 2.34038 0
M  V30 1531 O 150.926 -3.7147 1.7912 0
M  V30 1532 H 150.267 -0.45139 0.486974 0
M  V30 1533 H 152.797 -0.866832 1.8533 0
M  V30 1534 H 152.807 -3.22741 2.49604 0
M  V30 1535 H 151.482 -2.45863 3.35446 0
M  V30 1536 H 150.059 -3.30363 1.72958 0
M  V30 1537 N 152.244 -1.26651 -0.937939 0
M  V30 1538 C 153.492 -1.12165 -1.68118 0
M  V30 1539 C 153.813 0.334983 -1.92101 0
M  V30 1540 O 153.083 1.23583 -1.52 0
M  V30 1541 H 151.663 -0.412093 -0.623048 0
M  V30 1542 H 154.325 -1.59027 -1.12678 0
M  V30 1543 H 153.421 -1.64289 -2.6536 0
M  V30 1544 N 153.722 1.14298 -1.08507 0
M  V30 1545 C 154.999 1.81544 -0.728088 0
M  V30 1546 C 155.379 1.95838 0.78808 0
M  V30 1547 O 154.727 1.51904 1.70697 0
M  V30 1548 C 154.937 3.17169 -1.45619 0
M  V30 1549 C 156.285 3.9265 -1.61591 0
M  V30 1550 O 157.309 3.26762 -1.41793 0
M  V30 1551 O 156.168 5.10807 -1.94263 0
M  V30 1552 H 153.262 0.78491 -0.260471 0
M  V30 1553 H 155.808 1.21307 -1.18671 0
M  V30 1554 H 154.58 3.01934 -2.489 0
M  V30 1555 H 154.203 3.851 -0.989124 0
M  V30 1556 N 155.201 0.870884 1.31352 0
M  V30 1557 C 156.447 0.482987 1.96965 0
M  V30 1558 C 156.78 -0.962462 1.68672 0
M  V30 1559 O 156.055 -1.6779 0.98371 0
M  V30 1560 C 156.338 0.741752 3.52378 0
M  V30 1561 C 156.191 2.2368 3.9024 0
M  V30 1562 C 157.51 0.208838 4.39604 0
M  V30 1563 H 154.629 0.176955 0.715441 0
M  V30 1564 H 157.271 1.09229 1.55464 0
M  V30 1565 H 155.421 0.223149 3.87859 0
M  V30 1566 H 157.093 2.82273 3.64856 0
M  V30 1567 H 155.336 2.70901 3.38814 0
M  V30 1568 H 156.007 2.3685 4.98604 0
M  V30 1569 H 158.483 0.652529 4.10952 0
M  V30 1570 H 157.359 0.419336 5.47296 0
M  V30 1571 H 157.62 -0.889275 4.33064 0
M  V30 1572 N 156.679 -1.44442 0.630414 0
M  V30 1573 C 157.609 -2.33418 -0.0618083 0
M  V30 1574 C 158.59 -1.48165 -0.835541 0
M  V30 1575 O 159.775 -1.76886 -0.801564 0
M  V30 1576 C 156.905 -3.31222 -1.04449 0
M  V30 1577 C 155.859 -4.26288 -0.382436 0
M  V30 1578 C 155.185 -5.13954 -1.47497 0
M  V30 1579 C 156.485 -5.1744 0.710865 0
M  V30 1580 H 158.179 -2.91548 0.681184 0
M  V30 1581 H 155.725 -1.40191 0.329026 0
M  V30 1582 H 157.678 -3.92351 -1.53748 0
M  V30 1583 H 156.402 -2.71299 -1.81836 0
M  V30 1584 H 155.061 -3.6649 0.0899054 0
M  V30 1585 H 154.709 -4.50385 -2.2397 0
M  V30 1586 H 154.409 -5.7837 -1.03737 0
M  V30 1587 H 155.933 -5.77955 -1.96979 0
M  V30 1588 H 157.347 -5.72509 0.300996 0
M  V30 1589 H 155.744 -5.90455 1.07156 0
M  V30 1590 H 156.814 -4.58496 1.57829 0
M  V30 1591 N 158.157 -0.370918 -1.53173 0
M  V30 1592 C 159.406 0.218249 -2.00516 0
M  V30 1593 C 159.719 1.49429 -1.26215 0
M  V30 1594 O 160.925 2.16239 -1.64174 0
M  V30 1595 C 159.381 0.43948 -3.57207 0
M  V30 1596 C 158.989 -0.822244 -4.4039 0
M  V30 1597 C 160.733 0.986012 -4.1289 0
M  V30 1598 C 158.64 -0.570304 -5.88644 0
M  V30 1599 H 157.57 0.0853333 -0.749156 0
M  V30 1600 H 160.221 -0.490483 -1.76823 0
M  V30 1601 H 158.603 1.20961 -3.77074 0
M  V30 1602 H 159.777 -1.59557 -4.32294 0
M  V30 1603 H 158.092 -1.29238 -3.95836 0
M  V30 1604 H 160.689 1.18991 -5.21292 0
M  V30 1605 H 161.032 1.94972 -3.6782 0
M  V30 1606 H 161.565 0.27592 -3.96842 0
M  V30 1607 H 158.304 -1.50449 -6.38001 0
M  V30 1608 H 157.824 0.164427 -5.99575 0
M  V30 1609 H 159.503 -0.19784 -6.46697 0
M  V30 1610 N 159.635 1.57281 -0.100228 0
M  V30 1611 C 160.583 2.15542 0.874328 0
M  V30 1612 C 161.577 1.09962 1.28859 0
M  V30 1613 O 162.783 1.28298 1.26252 0
M  V30 1614 H 159.158 0.689567 0.300003 0
M  V30 1615 H 161.129 2.96241 0.35829 0
M  V30 1616 C 159.878 2.75454 2.1218 0
M  V30 1617 H 159.201 3.56384 1.81193 0
M  V30 1618 H 160.641 3.19781 2.78417 0
M  V30 1619 C 159.1 1.71602 2.89921 0
M  V30 1620 O 159.63 1.15804 3.84646 0
M  V30 1621 N 157.836 1.41975 2.53558 0
M  V30 1622 H 157.383 1.87539 1.76598 0
M  V30 1623 H 157.341 0.727274 3.05873 0
M  V30 1624 N 161.113 -0.173488 1.56642 0
M  V30 1625 C 162.361 -0.888706 1.81512 0
M  V30 1626 C 162.682 -1.82875 0.676872 0
M  V30 1627 O 161.952 -1.93536 -0.303414 0
M  V30 1628 H 160.532 -0.331164 0.669582 0
M  V30 1629 H 163.194 -0.173823 1.94123 0
M  V30 1630 H 162.29 -1.46691 2.75478 0
M  V30 1631 N 162.591 -1.51276 -0.441967 0
M  V30 1632 C 163.554 -1.7167 -1.51862 0
M  V30 1633 C 164.554 -0.586793 -1.49711 0
M  V30 1634 O 165.744 -0.854276 -1.51815 0
M  V30 1635 C 162.876 -1.76889 -2.91416 0
M  V30 1636 H 164.069 -2.67754 -1.35084 0
M  V30 1637 H 161.622 -1.41196 -0.670333 0
M  V30 1638 H 162.357 -0.826026 -3.13604 0
M  V30 1639 H 162.142 -2.59001 -2.94382 0
M  V30 1640 H 163.632 -1.94522 -3.69528 0
M  V30 1641 N 164.069 0.697108 -1.41344 0
M  V30 1642 C 165.48 1.27697 -1.36199 0
M  V30 1643 C 165.831 1.9615 -0.0443463 0
M  V30 1644 O 164.956 1.98689 0.857419 0
M  V30 1645 C 165.551 2.32223 -2.46694 0
M  V30 1646 C 164.11 2.8579 -2.44952 0
M  V30 1647 C 163.257 1.59807 -2.26621 0
M  V30 1648 H 166.208 0.491968 -1.50882 0
M  V30 1649 H 166.229 3.1348 -2.15664 0
M  V30 1650 H 165.741 1.82373 -3.42581 0
M  V30 1651 H 163.842 3.3982 -1.52817 0
M  V30 1652 H 163.955 3.36325 -3.41207 0
M  V30 1653 H 162.319 1.8556 -1.7447 0
M  V30 1654 H 163.102 1.11956 -3.24532 0
M  V30 1655 N 165.547 1.27147 0.931209 0
M  V30 1656 C 166.963 1.04475 1.20653 0
M  V30 1657 C 167.163 -0.223885 2.00252 0
M  V30 1658 O 166.219 -0.930332 2.34736 0
M  V30 1659 C 167.532 2.28209 1.95809 0
M  V30 1660 C 169.08 2.33211 2.08762 0
M  V30 1661 C 169.555 3.56665 2.87323 0
M  V30 1662 N 171.046 3.57201 2.94892 0
M  V30 1663 C 171.781 4.49395 3.56134 0
M  V30 1664 N 171.277 5.51889 4.18796 0
M  V30 1665 N 173.07 4.37026 3.53504 0
M  V30 1666 H 165.221 2.08612 0.399333 0
M  V30 1667 H 167.484 0.917312 0.239253 0
M  V30 1668 H 167.19 3.20538 1.44736 0
M  V30 1669 H 167.064 2.33247 2.96438 0
M  V30 1670 H 169.451 1.41391 2.59023 0
M  V30 1671 H 169.532 2.32178 1.07364 0
M  V30 1672 H 169.176 4.4882 2.37746 0
M  V30 1673 H 169.106 3.54948 3.88998 0
M  V30 1674 H 171.597 2.83074 2.50354 0
M  V30 1675 H 171.91 6.18409 4.63454 0
M  V30 1676 H 170.255 5.55735 4.17353 0
M  V30 1677 H 173.446 3.56166 3.03749 0
M  V30 1678 H 173.619 5.09067 4.00942 0
M  V30 1679 N 167.025 -1.13721 1.09112 0
M  V30 1680 C 168.436 -1.6648 0.845068 0
M  V30 1681 C 168.787 -1.85911 -0.62701 0
M  V30 1682 O 167.912 -1.57556 -1.48341 0
M  V30 1683 C 168.507 -3.02413 1.52748 0
M  V30 1684 C 167.066 -3.52176 1.32849 0
M  V30 1685 C 166.213 -2.27492 1.58564 0
M  V30 1686 H 169.164 -0.976872 1.25072 0
M  V30 1687 H 169.185 -3.68223 0.958752 0
M  V30 1688 H 168.697 -2.88238 2.59885 0
M  V30 1689 H 166.798 -3.7156 0.278137 0
M  V30 1690 H 166.911 -4.32499 2.0611 0
M  V30 1691 H 165.275 -2.33923 1.00758 0
M  V30 1692 H 166.058 -2.15886 2.66924 0
M  V30 1693 N 168.503 -0.877838 -1.30888 0
M  V30 1694 C 169.466 -0.344265 -2.266 0
M  V30 1695 C 170.466 0.50922 -1.52524 0
M  V30 1696 O 171.656 0.317398 -1.71284 0
M  V30 1697 C 168.788 0.510198 -3.37061 0
M  V30 1698 H 169.981 -1.1893 -2.7531 0
M  V30 1699 H 167.534 -0.654088 -1.41956 0
M  V30 1700 H 168.269 1.37612 -2.93655 0
M  V30 1701 H 168.054 -0.101047 -3.9197 0
M  V30 1702 H 169.544 0.875537 -4.08319 0
M  V30 1703 N 169.982 1.44106 -0.638065 0
M  V30 1704 C 170.93 2.3248 0.0748149 0
M  V30 1705 C 171.924 1.47746 0.828702 0
M  V30 1706 O 173.13 1.64049 0.740816 0
M  V30 1707 H 169.505 0.750771 0.0429686 0
M  V30 1708 H 171.476 2.90348 -0.688504 0
M  V30 1709 C 170.225 3.31843 1.03805 0
M  V30 1710 H 169.548 3.97059 0.467375 0
M  V30 1711 H 170.988 3.96345 1.50622 0
M  V30 1712 C 169.447 2.61291 2.1267 0
M  V30 1713 O 169.977 2.41702 3.20847 0
M  V30 1714 N 168.183 2.20915 1.88798 0
M  V30 1715 H 167.73 2.37047 1.00829 0
M  V30 1716 H 167.688 1.74038 2.61836 0
M  V30 1717 N 171.46 0.379036 1.52974 0
M  V30 1718 C 172.707 -0.206421 2.01445 0
M  V30 1719 C 173.035 -1.47668 1.26587 0
M  V30 1720 O 172.29 -1.92514 0.351675 0
M  V30 1721 C 172.589 -0.53096 3.53434 0
M  V30 1722 C 172.255 0.646546 4.46241 0
M  V30 1723 C 170.917 0.969604 4.7133 0
M  V30 1724 C 173.269 1.43479 5.01062 0
M  V30 1725 C 170.597 2.08263 5.48492 0
M  V30 1726 C 172.949 2.53834 5.7944 0
M  V30 1727 C 171.613 2.86659 6.02812 0
M  V30 1728 H 170.883 -0.0755349 0.73714 0
M  V30 1729 H 173.53 0.514271 1.84465 0
M  V30 1730 H 171.835 -1.33285 3.68432 0
M  V30 1731 H 173.532 -0.996417 3.88423 0
M  V30 1732 H 170.122 0.384734 4.2687 0
M  V30 1733 H 174.306 1.19844 4.81613 0
M  V30 1734 H 169.562 2.34078 5.64816 0
M  V30 1735 H 173.736 3.15319 6.20924 0
M  V30 1736 H 171.363 3.73026 6.62387 0
M  V30 1737 N 172.938 -1.57226 0.108567 0
M  V30 1738 C 173.885 -2.14756 -0.845481 0
M  V30 1739 C 174.855 -1.06971 -1.27068 0
M  V30 1740 O 176.04 -1.34827 -1.35005 0
M  V30 1741 C 173.18 -2.74298 -2.09415 0
M  V30 1742 C 172.293 -3.96358 -1.71826 0
M  V30 1743 C 171.428 -4.44021 -2.9158 0
M  V30 1744 C 170.467 -5.58637 -2.50181 0
M  V30 1745 N 169.604 -6.01091 -3.62814 0
M  V30 1746 H 174.444 -2.95961 -0.348035 0
M  V30 1747 H 171.981 -1.46226 -0.160106 0
M  V30 1748 H 173.939 -3.06945 -2.82561 0
M  V30 1749 H 172.569 -1.95801 -2.56636 0
M  V30 1750 H 171.621 -3.69939 -0.885947 0
M  V30 1751 H 172.933 -4.79504 -1.37394 0
M  V30 1752 H 172.087 -4.78522 -3.72963 0
M  V30 1753 H 170.826 -3.59803 -3.29231 0
M  V30 1754 H 169.831 -5.23751 -1.67228 0
M  V30 1755 H 171.056 -6.44613 -2.13659 0
M  V30 1756 H 169.002 -5.19817 -4.00158 0
M  V30 1757 H 168.919 -6.79066 -3.32273 0
M  V30 1758 H 170.187 -6.40227 -4.44668 0
M  V30 1759 N 174.416 0.165178 -1.56732 0
M  V30 1760 C 175.656 0.887231 -1.8414 0
M  V30 1761 C 176.02 1.79159 -0.690353 0
M  V30 1762 O 177.221 2.55172 -0.845032 0
M  V30 1763 C 175.492 1.65674 -3.16681 0
M  V30 1764 S 177.051 2.42671 -3.6559 0
M  V30 1765 H 173.869 0.297042 -0.645978 0
M  V30 1766 H 176.471 0.148439 -1.94936 0
M  V30 1767 H 175.175 0.983507 -3.98441 0
M  V30 1768 H 174.706 2.43679 -3.08843 0
M  V30 1769 H 176.721 3.67499 -3.33406 0
M  V30 1770 N 175.894 1.51508 0.433938 0
M  V30 1771 C 176.842 1.73646 1.54757 0
M  V30 1772 C 177.836 0.602854 1.5831 0
M  V30 1773 O 179.042 0.784318 1.62014 0
M  V30 1774 H 175.417 0.548718 0.51421 0
M  V30 1775 H 177.388 2.66991 1.33261 0
M  V30 1776 C 176.137 1.88172 2.92381 0
M  V30 1777 H 175.46 2.74808 2.90381 0
M  V30 1778 H 176.9 2.07672 3.6966 0
M  V30 1779 C 175.359 0.64239 3.30719 0
M  V30 1780 O 175.889 -0.201362 4.01195 0
M  V30 1781 N 174.095 0.485489 2.86516 0
M  V30 1782 H 173.642 1.17318 2.29334 0
M  V30 1783 H 173.6 -0.342482 3.12529 0
M  V30 1784 N 177.372 -0.689602 1.41712 0
M  V30 1785 C 178.597 -1.48329 1.44959 0
M  V30 1786 C 179.022 -1.8801 0.0581283 0
M  V30 1787 O 178.38 -1.55026 -0.940035 0
M  V30 1788 C 178.428 -2.71835 2.36935 0
M  V30 1789 O 177.532 -3.69549 1.8305 0
M  V30 1790 H 176.873 -0.446199 0.491734 0
M  V30 1791 H 179.403 -0.847127 1.86239 0
M  V30 1792 H 179.413 -3.20076 2.53013 0
M  V30 1793 H 178.088 -2.42291 3.38035 0
M  V30 1794 H 176.665 -3.2851 1.76452 0
M  V30 1795 N 178.85 -1.27639 -0.924453 0
M  V30 1796 C 180.098 -1.13941 -1.66918 0
M  V30 1797 C 180.419 0.314589 -1.92446 0
M  V30 1798 O 179.689 1.21964 -1.53303 0
M  V30 1799 H 178.269 -0.418678 -0.618642 0
M  V30 1800 H 180.931 -1.60213 -1.10985 0
M  V30 1801 H 180.027 -1.67094 -2.63602 0
M  V30 1802 N 180.328 1.1314 -1.09713 0
M  V30 1803 C 181.558 1.88048 -0.855656 0
M  V30 1804 C 181.966 1.79537 0.596919 0
M  V30 1805 O 181.309 1.16196 1.42282 0
M  V30 1806 C 181.371 3.38314 -1.21589 0
M  V30 1807 C 181.035 3.70605 -2.67397 0
M  V30 1808 C 182.032 3.69596 -3.65643 0
M  V30 1809 C 179.717 4.0017 -3.03593 0
M  V30 1810 C 181.711 3.977 -4.9811 0
M  V30 1811 C 179.398 4.27935 -4.36251 0
M  V30 1812 C 180.396 4.26685 -5.33318 0
M  V30 1813 O 180.084 4.53767 -6.63589 0
M  V30 1814 H 179.816 0.60208 -0.307368 0
M  V30 1815 H 182.37 1.44128 -1.46343 0
M  V30 1816 H 180.6 3.82752 -0.551177 0
M  V30 1817 H 182.289 3.94552 -0.953083 0
M  V30 1818 H 183.055 3.46826 -3.39023 0
M  V30 1819 H 178.934 4.00289 -2.2867 0
M  V30 1820 H 182.478 3.9664 -5.73866 0
M  V30 1821 H 178.375 4.50178 -4.62613 0
M  V30 1822 H 179.143 4.71422 -6.69107 0
M  V30 1823 N 181.806 0.884767 1.30421 0
M  V30 1824 C 183.052 0.503851 1.96441 0
M  V30 1825 C 183.385 -0.944518 1.69684 0
M  V30 1826 O 182.66 -1.66737 1.00145 0
M  V30 1827 C 182.943 0.779085 3.51571 0
M  V30 1828 C 182.796 2.27807 3.87846 0
M  V30 1829 C 184.115 0.255452 4.39358 0
M  V30 1830 H 181.234 0.184533 0.713524 0
M  V30 1831 H 183.876 1.10872 1.54297 0
M  V30 1832 H 182.026 0.264274 3.876 0
M  V30 1833 H 183.698 2.86127 3.61841 0
M  V30 1834 H 181.941 2.74479 3.35922 0
M  V30 1835 H 182.612 2.42125 4.96064 0
M  V30 1836 H 185.088 0.696079 4.10236 0
M  V30 1837 H 183.964 0.477361 5.4682 0
M  V30 1838 H 184.225 -0.843293 4.33983 0
M  V30 1839 N 183.284 -1.43765 0.645699 0
M  V30 1840 C 184.53 -2.02197 0.156271 0
M  V30 1841 C 184.863 -1.50776 -1.22393 0
M  V30 1842 O 184.138 -0.697771 -1.81553 0
M  V30 1843 C 184.421 -3.59749 0.158872 0
M  V30 1844 C 184.274 -4.21419 1.57245 0
M  V30 1845 C 185.593 -4.37149 -0.50879 0
M  V30 1846 H 182.712 -0.734694 0.0582602 0
M  V30 1847 H 185.354 -1.71157 0.824951 0
M  V30 1848 H 183.504 -3.86325 -0.410525 0
M  V30 1849 H 185.176 -4.059 2.19186 0
M  V30 1850 H 183.419 -3.78356 2.122 0
M  V30 1851 H 184.09 -5.30482 1.52619 0
M  V30 1852 H 186.566 -4.16093 -0.024412 0
M  V30 1853 H 185.442 -5.4683 -0.476213 0
M  V30 1854 H 185.703 -4.12839 -1.58165 0
M  V30 1855 N 184.763 -0.387143 -1.52771 0
M  V30 1856 C 185.695 0.484089 -2.2403 0
M  V30 1857 C 186.708 1.02849 -1.26198 0
M  V30 1858 O 187.897 0.931186 -1.52286 0
M  V30 1859 C 184.997 1.68337 -2.94136 0
M  V30 1860 C 184.17 1.26672 -4.18656 0
M  V30 1861 C 183.229 2.33045 -4.7178 0
M  V30 1862 O 182.255 1.94541 -5.34923 0
M  V30 1863 N 183.457 3.64929 -4.5145 0
M  V30 1864 H 186.222 -0.126404 -2.99433 0
M  V30 1865 H 183.783 -0.213392 -1.60488 0
M  V30 1866 H 185.775 2.39019 -3.26577 0
M  V30 1867 H 184.345 2.20025 -2.22053 0
M  V30 1868 H 183.565 0.388878 -3.92277 0
M  V30 1869 H 184.853 0.964964 -4.99566 0
M  V30 1870 H 184.251 3.98974 -4.01044 0
M  V30 1871 H 182.808 4.31651 -4.88386 0
M  V30 1872 N 186.241 1.57166 -0.116904 0
M  V30 1873 C 187.518 1.86645 0.585049 0
M  V30 1874 C 187.898 1.0177 1.84949 0
M  V30 1875 O 187.246 0.0960379 2.28298 0
M  V30 1876 C 187.456 3.37736 0.879507 0
M  V30 1877 C 188.804 4.06289 1.23348 0
M  V30 1878 O 189.828 3.42743 0.969836 0
M  V30 1879 O 188.687 5.18455 1.7282 0
M  V30 1880 H 185.781 0.772593 0.295007 0
M  V30 1881 H 188.327 1.69025 -0.151249 0
M  V30 1882 H 187.099 3.91296 -0.0166136 0
M  V30 1883 H 186.722 3.6078 1.67103 0
M  V30 1884 N 187.719 -0.156864 1.56817 0
M  V30 1885 C 188.996 -0.899244 1.73704 0
M  V30 1886 C 189.376 -1.99771 0.682254 0
M  V30 1887 O 188.724 -2.26515 -0.300522 0
M  V30 1888 C 188.934 -1.45075 3.17418 0
M  V30 1889 C 190.282 -1.91802 3.7881 0
M  V30 1890 O 191.306 -1.54838 3.20786 0
M  V30 1891 O 190.165 -2.5994 4.80722 0
M  V30 1892 H 187.259 -0.424267 0.709878 0
M  V30 1893 H 189.805 -0.143561 1.69092 0
M  V30 1894 H 188.577 -0.660846 3.85679 0
M  V30 1895 H 188.2 -2.27021 3.26416 0
M  V30 1896 N 189.197 -1.51736 -0.425897 0
M  V30 1897 C 190.443 -1.65214 -1.1761 0
M  V30 1898 C 190.776 -0.372778 -1.90589 0
M  V30 1899 O 190.051 0.628139 -1.84078 0
M  V30 1900 C 190.334 -2.86312 -2.18398 0
M  V30 1901 C 190.187 -4.24254 -1.49426 0
M  V30 1902 C 191.506 -3.02925 -3.19256 0
M  V30 1903 H 188.625 -0.601263 -0.426206 0
M  V30 1904 H 191.267 -1.8425 -0.463882 0
M  V30 1905 H 189.417 -2.70213 -2.79137 0
M  V30 1906 H 191.089 -4.52046 -0.919362 0
M  V30 1907 H 189.332 -4.26426 -0.796432 0
M  V30 1908 H 190.003 -5.05001 -2.22885 0
M  V30 1909 H 192.479 -3.1781 -2.68581 0
M  V30 1910 H 191.355 -3.89199 -3.8706 0
M  V30 1911 H 191.616 -2.15497 -3.86023 0
M  V30 1912 N 190.675 0.682077 -1.42076 0
M  V30 1913 C 191.921 1.44428 -1.42367 0
M  V30 1914 C 192.254 1.94164 -0.0373056 0
M  V30 1915 O 191.529 1.70429 0.937239 0
M  V30 1916 C 191.812 2.64654 -2.44194 0
M  V30 1917 C 191.665 2.20596 -3.91991 0
M  V30 1918 C 192.984 3.66865 -2.431 0
M  V30 1919 H 190.103 0.523834 -0.518428 0
M  V30 1920 H 192.745 0.77576 -1.73442 0
M  V30 1921 H 190.895 3.2169 -2.17826 0
M  V30 1922 H 192.567 1.68783 -4.29313 0
M  V30 1923 H 190.81 1.52242 -4.06208 0
M  V30 1924 H 191.481 3.06921 -4.58807 0
M  V30 1925 H 193.957 3.19531 -2.66532 0
M  V30 1926 H 192.833 4.48577 -3.16339 0
M  V30 1927 H 193.094 4.17493 -1.45437 0
M  V30 1928 N 192.153 1.28127 0.917671 0
M  V30 1929 C 193.086 1.06039 2.02067 0
M  V30 1930 C 194.064 -0.0223285 1.62585 0
M  V30 1931 O 195.248 0.124823 1.88086 0
M  V30 1932 C 192.375 0.610596 3.33151 0
M  V30 1933 C 191.421 1.68937 3.91615 0
M  V30 1934 S 192.254 3.28437 4.22953 0
M  V30 1935 C 193.41 2.85283 5.57103 0
M  V30 1936 H 193.643 1.99425 2.20493 0
M  V30 1937 H 191.176 1.12071 1.06205 0
M  V30 1938 H 193.134 0.357778 4.08938 0
M  V30 1939 H 191.795 -0.303364 3.12632 0
M  V30 1940 H 190.988 1.32619 4.86239 0
M  V30 1941 H 190.59 1.89478 3.2245 0
M  V30 1942 H 192.882 2.3121 6.36827 0
M  V30 1943 H 193.825 3.7869 5.98331 0
M  V30 1944 H 194.233 2.24118 5.18104 0
M  V30 1945 N 193.631 -1.12557 1.10312 0
M  V30 1946 C 194.879 -1.83675 0.843091 0
M  V30 1947 C 195.2 -1.84435 -0.633131 0
M  V30 1948 O 194.47 -1.30657 -1.45964 0
M  V30 1949 H 193.05 -0.680138 0.308904 0
M  V30 1950 H 195.712 -1.36301 1.39313 0
M  V30 1951 H 194.808 -2.87908 1.2048 0
M  V30 1952 N 195.109 -0.891671 -1.2995 0
M  V30 1953 C 196.337 -0.52866 -2.00032 0
M  V30 1954 C 196.752 0.884574 -1.66795 0
M  V30 1955 O 196.109 1.5827 -0.908669 0
M  V30 1956 C 196.16 -0.701814 -3.54622 0
M  V30 1957 O 195.881 -2.05942 -3.86678 0
M  V30 1958 C 197.382 -0.342683 -4.41973 0
M  V30 1959 H 194.602 -0.203659 -0.639347 0
M  V30 1960 H 197.146 -1.19881 -1.65677 0
M  V30 1961 H 195.301 -0.0789468 -3.8732 0
M  V30 1962 H 195.715 -2.08291 -4.81368 0
M  V30 1963 H 197.189 -0.514709 -5.49595 0
M  V30 1964 H 197.666 0.71975 -4.33262 0
M  V30 1965 H 198.272 -0.942154 -4.14733 0
M  V30 1966 N 196.587 1.43421 -0.653314 0
M  V30 1967 C 197.517 2.33487 0.0246656 0
M  V30 1968 C 198.498 1.49475 0.811863 0
M  V30 1969 O 199.683 1.78139 0.773322 0
M  V30 1970 C 196.813 3.32841 0.99166 0
M  V30 1971 C 195.767 4.26842 0.314568 0
M  V30 1972 C 195.093 5.16236 1.39302 0
M  V30 1973 C 196.393 5.16243 -0.793095 0
M  V30 1974 H 198.087 2.90427 -0.727481 0
M  V30 1975 H 195.633 1.39649 -0.351287 0
M  V30 1976 H 197.586 3.94747 1.47487 0
M  V30 1977 H 196.31 2.74158 1.77497 0
M  V30 1978 H 194.969 3.663 -0.148199 0
M  V30 1979 H 194.617 4.53891 2.16776 0
M  V30 1980 H 194.317 5.79948 0.945223 0
M  V30 1981 H 195.841 5.81015 1.87759 0
M  V30 1982 H 197.255 5.71958 -0.392039 0
M  V30 1983 H 195.652 5.88676 -1.16536 0
M  V30 1984 H 196.722 4.55927 -1.65103 0
M  V30 1985 N 198.065 0.39524 1.52563 0
M  V30 1986 C 199.293 -0.184943 2.06072 0
M  V30 1987 C 199.708 -1.40021 1.26647 0
M  V30 1988 O 199.065 -1.79767 0.314672 0
M  V30 1989 C 199.116 -0.549179 3.57304 0
M  V30 1990 O 198.837 0.617813 4.33722 0
M  V30 1991 C 200.338 -1.18459 4.2718 0
M  V30 1992 H 197.558 -0.0265025 0.670476 0
M  V30 1993 H 200.102 0.562184 1.96621 0
M  V30 1994 H 198.257 -1.2462 3.66809 0
M  V30 1995 H 198.671 0.317091 5.23541 0
M  V30 1996 H 200.145 -1.38976 5.34219 0
M  V30 1997 H 200.622 -2.15368 3.82771 0
M  V30 1998 H 201.228 -0.528163 4.22008 0
M  V30 1999 N 199.544 -1.57102 0.125237 0
M  V30 2000 C 200.79 -1.95697 -0.532035 0
M  V30 2001 C 201.123 -1.009 -1.6593 0
M  V30 2002 O 200.398 -0.047347 -1.94442 0
M  V30 2003 C 200.681 -3.44181 -1.05884 0
M  V30 2004 C 200.534 -4.49752 0.0654392 0
M  V30 2005 C 201.853 -3.94655 -1.9477 0
M  V30 2006 H 198.972 -0.711571 -0.191925 0
M  V30 2007 H 201.614 -1.88923 0.20206 0
M  V30 2008 H 199.764 -3.50085 -1.68442 0
M  V30 2009 H 201.436 -4.55943 0.700982 0
M  V30 2010 H 199.679 -4.27653 0.727709 0
M  V30 2011 H 200.35 -5.50924 -0.344505 0
M  V30 2012 H 202.826 -3.91094 -1.42074 0
M  V30 2013 H 201.702 -4.99057 -2.28546 0
M  V30 2014 H 201.963 -3.35718 -2.87656 0
M  V30 2015 N 201.022 0.148545 -1.56898 0
M  V30 2016 C 202.438 0.501131 -1.51528 0
M  V30 2017 C 202.638 1.83458 -0.833399 0
M  V30 2018 O 201.694 2.49259 -0.40328 0
M  V30 2019 C 203.007 0.512864 -2.96294 0
M  V30 2020 C 204.555 0.598487 -3.07225 0
M  V30 2021 C 205.03 0.640897 -4.53494 0
M  V30 2022 N 206.521 0.703163 -4.57832 0
M  V30 2023 C 207.256 0.756935 -5.68382 0
M  V30 2024 N 206.752 0.770147 -6.88506 0
M  V30 2025 N 208.545 0.797698 -5.56411 0
M  V30 2026 H 200.696 -0.725532 -1.99624 0
M  V30 2027 H 202.959 -0.264358 -0.910395 0
M  V30 2028 H 202.665 -0.398691 -3.49433 0
M  V30 2029 H 202.539 1.35133 -3.52163 0
M  V30 2030 H 204.926 1.50046 -2.54106 0
M  V30 2031 H 205.007 -0.267093 -2.54402 0
M  V30 2032 H 204.651 -0.256915 -5.0725 0
M  V30 2033 H 204.581 1.52295 -5.04097 0
M  V30 2034 H 207.072 0.700314 -3.71354 0
M  V30 2035 H 207.385 0.812983 -7.68512 0
M  V30 2036 H 205.73 0.738049 -6.9107 0
M  V30 2037 H 208.921 0.784535 -4.61479 0
M  V30 2038 H 209.094 0.83614 -6.42583 0
M  V30 2039 N 202.5 1.5196 0.417844 0
M  V30 2040 C 203.41 1.77554 1.53336 0
M  V30 2041 C 204.426 0.660655 1.6097 0
M  V30 2042 O 205.602 0.945099 1.77848 0
M  V30 2043 C 202.667 1.91291 2.89152 0
M  V30 2044 C 201.728 3.15183 2.91475 0
M  V30 2045 C 200.961 3.28256 4.20813 0
M  V30 2046 O 201.184 2.46798 5.14244 0
M  V30 2047 O 200.118 4.21356 4.29817 0
M  V30 2048 H 203.944 2.7222 1.34647 0
M  V30 2049 H 201.529 1.36698 0.602828 0
M  V30 2050 H 203.411 2.02199 3.69721 0
M  V30 2051 H 202.086 0.998129 3.07927 0
M  V30 2052 H 200.993 3.09739 2.09791 0
M  V30 2053 H 202.326 4.06414 2.77648 0
M  V30 2054 N 203.978 -0.674533 1.42435 0
M  V30 2055 C 204.926 -1.80934 1.46169 0
M  V30 2056 C 205.92 -1.66006 0.3374 0
M  V30 2057 O 207.126 -1.72611 0.510425 0
M  V30 2058 H 203.501 -0.596594 0.457798 0
M  V30 2059 H 205.472 -1.74903 2.41767 0
M  V30 2060 C 204.221 -3.19088 1.38123 0
M  V30 2061 H 203.544 -3.31203 2.23931 0
M  V30 2062 H 204.984 -3.9851 1.44797 0
M  V30 2063 C 203.443 -3.36763 0.0960517 0
M  V30 2064 O 203.973 -3.92581 -0.851073 0
M  V30 2065 N 202.179 -2.90597 0.0131186 0
M  V30 2066 H 201.726 -2.45359 0.784639 0
M  V30 2067 H 201.684 -3.028 -0.846133 0
M  V30 2068 N 205.456 -1.28612 -0.910864 0
M  V30 2069 C 206.386 -1.15326 -2.03032 0
M  V30 2070 C 207.367 -0.0502924 -1.70026 0
M  V30 2071 O 208.552 -0.227797 -1.92859 0
M  V30 2072 C 205.682 -0.817343 -3.37545 0
M  V30 2073 C 204.636 -1.8754 -3.84724 0
M  V30 2074 C 203.962 -1.39305 -5.16235 0
M  V30 2075 C 205.262 -3.28244 -4.06267 0
M  V30 2076 H 206.956 -2.08975 -2.14406 0
M  V30 2077 H 204.502 -1.00612 -1.03021 0
M  V30 2078 H 206.455 -0.711151 -4.15356 0
M  V30 2079 H 205.179 0.154846 -3.26233 0
M  V30 2080 H 203.838 -1.97079 -3.09121 0
M  V30 2081 H 203.486 -0.409846 -5.01328 0
M  V30 2082 H 203.186 -2.10057 -5.48771 0
M  V30 2083 H 204.71 -1.30014 -5.96598 0
M  V30 2084 H 206.124 -3.21611 -4.74594 0
M  V30 2085 H 204.521 -3.96855 -4.5014 0
M  V30 2086 H 205.591 -3.72048 -3.10979 0
M  V30 2087 N 206.934 1.1197 -1.10907 0
M  V30 2088 C 207.866 2.17592 -0.720175 0
M  V30 2089 C 208.879 1.60938 0.245495 0
M  V30 2090 O 210.068 1.78476 0.0292245 0
M  V30 2091 C 207.168 3.38873 -0.0427917 0
M  V30 2092 C 206.341 4.25006 -1.03388 0
M  V30 2093 C 205.4 5.24774 -0.387075 0
M  V30 2094 O 204.426 5.59631 -1.03934 0
M  V30 2095 N 205.628 5.74208 0.852407 0
M  V30 2096 H 208.393 2.51567 -1.62893 0
M  V30 2097 H 205.954 1.27439 -0.998543 0
M  V30 2098 H 207.946 4.02703 0.401501 0
M  V30 2099 H 206.516 3.03007 0.768456 0
M  V30 2100 H 205.736 3.57716 -1.65629 0
M  V30 2101 H 207.024 4.79397 -1.70458 0
M  V30 2102 H 206.422 5.48062 1.40161 0
M  V30 2103 H 204.979 6.39901 1.23977 0
M  V30 2104 N 208.412 0.89855 1.29475 0
M  V30 2105 C 209.659 0.523882 1.95606 0
M  V30 2106 C 209.987 -0.929608 1.70847 0
M  V30 2107 O 209.242 -1.67401 1.01367 0
M  V30 2108 C 209.541 0.761398 3.49195 0
M  V30 2109 C 209.207 2.19207 3.94029 0
M  V30 2110 C 207.869 2.58326 4.05982 0
M  V30 2111 C 210.221 3.12379 4.17216 0
M  V30 2112 C 207.549 3.898 4.38489 0
M  V30 2113 C 209.901 4.43401 4.51197 0
M  V30 2114 C 208.565 4.82394 4.61359 0
M  V30 2115 H 207.835 0.191702 0.715773 0
M  V30 2116 H 210.482 1.13699 1.54094 0
M  V30 2117 H 208.787 0.0653622 3.91745 0
M  V30 2118 H 210.484 0.450904 3.98457 0
M  V30 2119 H 207.074 1.87846 3.85242 0
M  V30 2120 H 211.258 2.83371 4.07449 0
M  V30 2121 H 206.514 4.19734 4.44559 0
M  V30 2122 H 210.688 5.15623 4.68087 0
M  V30 2123 H 208.315 5.84306 4.86303 0
M  V30 2124 N 209.89 -1.43072 0.660911 0
M  V30 2125 C 211.115 -2.06584 0.183805 0
M  V30 2126 C 211.54 -1.49257 -1.14472 0
M  V30 2127 O 210.898 -0.605528 -1.70889 0
M  V30 2128 C 210.946 -3.60418 0.114434 0
M  V30 2129 O 210.05 -4.01981 -0.921137 0
M  V30 2130 H 209.391 -0.656669 0.0983994 0
M  V30 2131 H 211.921 -1.83447 0.906006 0
M  V30 2132 H 211.931 -4.07946 -0.0663394 0
M  V30 2133 H 210.606 -4.01519 1.08422 0
M  V30 2134 H 209.183 -3.66029 -0.71253 0
M  V30 2135 N 211.368 -0.403325 -1.52352 0
M  V30 2136 C 212.331 0.413051 -2.25447 0
M  V30 2137 C 213.331 0.978513 -1.276 0
M  V30 2138 O 214.521 0.858305 -1.51587 0
M  V30 2139 C 211.653 1.58087 -3.02029 0
M  V30 2140 H 212.846 -0.227094 -2.99039 0
M  V30 2141 H 210.399 -0.155722 -1.55522 0
M  V30 2142 H 211.134 2.25804 -2.32772 0
M  V30 2143 H 210.919 1.18195 -3.73861 0
M  V30 2144 H 212.409 2.1585 -3.57489 0
M  V30 2145 N 212.846 1.57033 -0.133567 0
M  V30 2146 C 213.809 2.14897 0.796995 0
M  V30 2147 C 214.809 1.0874 1.18458 0
M  V30 2148 O 215.999 1.34446 1.1077 0
M  V30 2149 C 213.131 2.70112 2.07973 0
M  V30 2150 H 214.324 2.98457 0.293873 0
M  V30 2151 H 211.877 1.55871 0.115787 0
M  V30 2152 H 212.612 1.9018 2.62682 0
M  V30 2153 H 212.397 3.47764 1.81115 0
M  V30 2154 H 213.887 3.14738 2.74462 0
M  V30 2155 N 214.325 -0.140222 1.56975 0
M  V30 2156 C 215.255 -1.17456 2.01808 0
M  V30 2157 C 216.236 -1.44415 0.898794 0
M  V30 2158 O 217.421 -1.5522 1.16707 0
M  V30 2159 C 214.551 -2.50607 2.40444 0
M  V30 2160 C 213.505 -2.38155 3.55621 0
M  V30 2161 C 212.831 -3.76078 3.80091 0
M  V30 2162 C 214.131 -1.85991 4.88062 0
M  V30 2163 H 215.825 -0.801743 2.88466 0
M  V30 2164 H 213.371 -0.38422 1.38779 0
M  V30 2165 H 215.324 -3.23197 2.7041 0
M  V30 2166 H 214.048 -2.89737 1.50732 0
M  V30 2167 H 212.707 -1.68016 3.25832 0
M  V30 2168 H 212.355 -4.12656 2.87618 0
M  V30 2169 H 212.055 -3.68606 4.57606 0
M  V30 2170 H 213.579 -4.50206 4.12488 0
M  V30 2171 H 214.993 -2.4838 5.16701 0
M  V30 2172 H 213.39 -1.89393 5.6943 0
M  V30 2173 H 214.46 -0.816023 4.77984 0
M  V30 2174 N 215.803 -1.52179 -0.40978 0
M  V30 2175 C 217.219 -1.40968 -0.74835 0
M  V30 2176 C 217.419 -0.513657 -1.94843 0
M  V30 2177 O 216.475 0.0208026 -2.52491 0
M  V30 2178 C 217.788 -2.83483 -1.0029 0
M  V30 2179 C 219.336 -2.92821 -1.10565 0
M  V30 2180 C 219.811 -4.36303 -1.39296 0
M  V30 2181 N 221.302 -4.39535 -1.46162 0
M  V30 2182 C 222.037 -5.47614 -1.70018 0
M  V30 2183 N 221.533 -6.65812 -1.91483 0
M  V30 2184 N 223.326 -5.35129 -1.72027 0
M  V30 2185 H 215.477 -2.0897 0.380186 0
M  V30 2186 H 217.74 -0.94185 0.107805 0
M  V30 2187 H 217.446 -3.51168 -0.193461 0
M  V30 2188 H 217.32 -3.24487 -1.92323 0
M  V30 2189 H 219.707 -2.25318 -1.90568 0
M  V30 2190 H 219.788 -2.55276 -0.16369 0
M  V30 2191 H 219.432 -5.04366 -0.598109 0
M  V30 2192 H 219.362 -4.71385 -2.34743 0
M  V30 2193 H 221.853 -3.54332 -1.31367 0
M  V30 2194 H 222.166 -7.43964 -2.09134 0
M  V30 2195 H 220.511 -6.68879 -1.88749 0
M  V30 2196 H 223.702 -4.41764 -1.54796 0
M  V30 2197 H 223.875 -6.19433 -1.9028 0
M  V30 2198 N 217.281 0.66697 -1.42791 0
M  V30 2199 C 218.211 1.79218 -1.49677 0
M  V30 2200 C 219.192 1.66405 -0.352623 0
M  V30 2201 O 220.377 1.85708 -0.567993 0
M  V30 2202 C 217.507 3.17565 -1.40605 0
M  V30 2203 C 216.461 3.45124 -2.53127 0
M  V30 2204 C 215.787 4.83127 -2.29112 0
M  V30 2205 C 217.087 3.41236 -3.95418 0
M  V30 2206 H 218.781 1.73713 -2.43853 0
M  V30 2207 H 216.327 0.83432 -1.17367 0
M  V30 2208 H 218.28 3.96022 -1.44029 0
M  V30 2209 H 217.004 3.23767 -0.429271 0
M  V30 2210 H 215.663 2.69031 -2.49034 0
M  V30 2211 H 215.311 4.85988 -1.29709 0
M  V30 2212 H 215.011 5.02528 -3.04531 0
M  V30 2213 H 216.535 5.63859 -2.34297 0
M  V30 2214 H 217.949 4.09651 -4.01073 0
M  V30 2215 H 216.346 3.72173 -4.70752 0
M  V30 2216 H 217.416 2.39665 -4.21532 0
M  V30 2217 N 218.759 1.29093 0.90403 0
M  V30 2218 C 219.722 1.1386 1.98919 0
M  V30 2219 C 220.722 0.0753457 1.60623 0
M  V30 2220 O 221.912 0.321931 1.71199 0
M  V30 2221 C 219.044 0.740198 3.32767 0
M  V30 2222 H 220.237 2.10246 2.13861 0
M  V30 2223 H 217.79 1.12218 1.08797 0
M  V30 2224 H 218.525 -0.223997 3.23525 0
M  V30 2225 H 218.31 1.50838 3.61926 0
M  V30 2226 H 219.8 0.656546 4.12407 0
M  V30 2227 N 220.237 -1.11381 1.11499 0
M  V30 2228 C 221.465 -1.86934 0.88675 0
M  V30 2229 C 221.88 -1.80195 -0.563476 0
M  V30 2230 O 221.237 -1.18367 -1.38908 0
M  V30 2231 C 221.288 -3.35722 1.34064 0
M  V30 2232 O 221.009 -3.4232 2.73401 0
M  V30 2233 C 222.51 -4.2818 1.14791 0
M  V30 2234 H 219.73 -0.591117 0.317523 0
M  V30 2235 H 222.274 -1.40865 1.48248 0
M  V30 2236 H 220.429 -3.79294 0.788355 0
M  V30 2237 H 220.843 -4.34971 2.93087 0
M  V30 2238 H 222.317 -5.30817 1.5145 0
M  V30 2239 H 222.794 -4.39113 0.0875279 0
M  V30 2240 H 223.4 -3.90402 1.68721 0
M  V30 2241 N 221.715 -0.905404 -1.28997 0
M  V30 2242 C 222.943 -0.549846 -1.9946 0
M  V30 2243 C 223.358 0.866834 -1.67724 0
M  V30 2244 O 222.715 1.57298 -0.925404 0
M  V30 2245 C 222.766 -0.739387 -3.53858 0
M  V30 2246 O 222.487 -2.10031 -3.84472 0
M  V30 2247 C 223.988 -0.389541 -4.41585 0
M  V30 2248 H 221.208 -0.210429 -0.637151 0
M  V30 2249 H 223.752 -1.21632 -1.64396 0
M  V30 2250 H 221.907 -0.120023 -3.87214 0
M  V30 2251 H 222.321 -2.13385 -4.79132 0
M  V30 2252 H 223.795 -0.572972 -5.49018 0
M  V30 2253 H 224.272 0.673756 -4.34001 0
M  V30 2254 H 224.878 -0.986089 -4.1371 0
M  V30 2255 N 223.193 1.4272 -0.668489 0
M  V30 2256 C 224.126 2.28111 0.0637898 0
M  V30 2257 C 225.104 1.40705 0.814912 0
M  V30 2258 O 226.288 1.70146 0.81134 0
M  V30 2259 C 223.415 3.20429 1.0974 0
M  V30 2260 C 222.461 4.24197 0.442579 0
M  V30 2261 S 223.294 5.29563 -0.795173 0
M  V30 2262 C 224.45 6.25449 0.237516 0
M  V30 2263 H 224.683 2.8987 -0.660521 0
M  V30 2264 H 222.216 1.47456 -0.457821 0
M  V30 2265 H 224.174 3.74158 1.68868 0
M  V30 2266 H 222.835 2.57818 1.79411 0
M  V30 2267 H 222.028 4.88954 1.22227 0
M  V30 2268 H 221.63 3.73925 -0.0749554 0
M  V30 2269 H 223.922 6.68524 1.09915 0
M  V30 2270 H 224.865 7.07104 -0.375421 0
M  V30 2271 H 225.273 5.61511 0.580167 0
M  V30 2272 N 224.671 0.411399 1.52136 0
M  V30 2273 C 225.899 -0.163076 2.06256 0
M  V30 2274 C 226.314 -1.3867 1.28125 0
M  V30 2275 O 225.671 -1.79423 0.333721 0
M  V30 2276 C 225.722 -0.511252 3.57867 0
M  V30 2277 O 225.443 0.66378 4.33042 0
M  V30 2278 C 226.944 -1.13921 4.28412 0
M  V30 2279 H 224.164 -0.0193897 0.67072 0
M  V30 2280 H 226.708 0.583007 1.96013 0
M  V30 2281 H 224.863 -1.20723 3.6811 0
M  V30 2282 H 225.277 0.372601 5.23175 0
M  V30 2283 H 226.751 -1.33302 5.35663 0
M  V30 2284 H 227.228 -2.11296 3.85033 0
M  V30 2285 H 227.834 -0.483373 4.22544 0
M  V30 2286 N 226.149 -1.5696 0.141893 0
M  V30 2287 C 227.097 -2.17784 -0.816874 0
M  V30 2288 C 228.091 -1.1334 -1.25899 0
M  V30 2289 O 229.297 -1.316 -1.22806 0
M  V30 2290 H 225.672 -0.697278 -0.281615 0
M  V30 2291 H 227.643 -2.97087 -0.279621 0
M  V30 2292 C 226.392 -2.80983 -2.04802 0
M  V30 2293 H 225.715 -3.61062 -1.7168 0
M  V30 2294 H 227.155 -3.2705 -2.69841 0
M  V30 2295 C 225.614 -1.79228 -2.8527 0
M  V30 2296 O 226.144 -1.25962 -3.8144 0
M  V30 2297 N 224.35 -1.48647 -2.49704 0
M  V30 2298 H 223.897 -1.92155 -1.71564 0
M  V30 2299 H 223.855 -0.808115 -3.03837 0
M  V30 2300 N 227.627 0.131896 -1.57047 0
M  V30 2301 C 228.577 1.1679 -1.95816 0
M  V30 2302 C 229.561 1.37756 -0.831393 0
M  V30 2303 O 230.753 1.39065 -1.09499 0
M  V30 2304 C 227.882 2.49778 -2.35512 0
M  V30 2305 C 226.968 2.32342 -3.54793 0
M  V30 2306 N 227.359 1.8469 -4.70875 0
M  V30 2307 C 225.657 2.63043 -3.60173 0
M  V30 2308 C 226.358 1.80656 -5.52936 0
M  V30 2309 N 225.334 2.24528 -4.95064 0
M  V30 2310 H 229.136 0.791818 -2.83033 0
M  V30 2311 H 226.65 0.339791 -1.58805 0
M  V30 2312 H 228.647 3.24692 -2.61498 0
M  V30 2313 H 227.307 2.88156 -1.49654 0
M  V30 2314 H 228.318 1.54429 -4.9434 0
M  V30 2315 H 224.995 3.05193 -2.84892 0
M  V30 2316 H 226.385 1.45178 -6.56028 0
M  V30 2317 N 229.106 1.52395 0.401703 0
M  V30 2318 C 230.016 1.7917 1.51444 0
M  V30 2319 C 231.032 0.677691 1.6026 0
M  V30 2320 O 232.208 0.963909 1.76835 0
M  V30 2321 C 229.273 1.94347 2.87107 0
M  V30 2322 C 228.334 3.18257 2.88116 0
M  V30 2323 C 227.567 3.32701 4.17308 0
M  V30 2324 O 227.79 2.52238 5.11598 0
M  V30 2325 O 226.724 4.25891 4.25324 0
M  V30 2326 H 230.55 2.73633 1.31752 0
M  V30 2327 H 228.135 1.3733 0.588296 0
M  V30 2328 H 230.017 2.06109 3.67555 0
M  V30 2329 H 228.692 1.03073 3.06851 0
M  V30 2330 H 227.599 3.11947 2.06494 0
M  V30 2331 H 228.932 4.09336 2.73322 0
M  V30 2332 N 230.584 -0.659388 1.43143 0
M  V30 2333 C 231.531 -1.77249 1.47822 0
M  V30 2334 C 232.501 -1.62818 0.328558 0
M  V30 2335 O 233.686 -1.83151 0.534838 0
M  V30 2336 C 230.826 -3.15371 1.40126 0
M  V30 2337 C 229.939 -3.4098 2.65249 0
M  V30 2338 C 229.074 -4.68915 2.49584 0
M  V30 2339 C 228.113 -4.87608 3.70006 0
M  V30 2340 N 227.25 -6.06796 3.53189 0
M  V30 2341 H 232.09 -1.72584 2.42938 0
M  V30 2342 H 229.627 -0.842297 1.20598 0
M  V30 2343 H 231.585 -3.9521 1.33659 0
M  V30 2344 H 230.215 -3.19121 0.485964 0
M  V30 2345 H 229.267 -2.55282 2.8202 0
M  V30 2346 H 230.579 -3.50681 3.54717 0
M  V30 2347 H 229.733 -5.56871 2.4079 0
M  V30 2348 H 228.472 -4.61524 1.5763 0
M  V30 2349 H 227.477 -3.9809 3.79215 0
M  V30 2350 H 228.702 -4.96834 4.62961 0
M  V30 2351 H 226.648 -6.00549 2.63965 0
M  V30 2352 H 226.565 -6.17428 4.36255 0
M  V30 2353 H 227.833 -6.9739 3.48236 0
M  V30 2354 N 232.062 -1.29571 -0.897171 0
M  V30 2355 C 233.01 -1.14802 -2.02295 0
M  V30 2356 C 234.004 -0.0629637 -1.69283 0
M  V30 2357 O 235.21 -0.222945 -1.78614 0
M  V30 2358 H 231.585 -0.354692 -0.663097 0
M  V30 2359 H 233.556 -2.10108 -2.11889 0
M  V30 2360 C 232.305 -0.843966 -3.37302 0
M  V30 2361 H 231.628 -1.67093 -3.63208 0
M  V30 2362 H 233.068 -0.780672 -4.16751 0
M  V30 2363 C 231.527 0.452843 -3.33843 0
M  V30 2364 O 232.057 1.47813 -3.73516 0
M  V30 2365 N 230.263 0.459601 -2.86943 0
M  V30 2366 H 229.81 -0.375213 -2.54853 0
M  V30 2367 H 229.768 1.32726 -2.85011 0
M  V30 2368 N 233.54 1.10788 -1.12088 0
M  V30 2369 C 234.45 2.20599 -0.798338 0
M  V30 2370 C 235.466 1.72712 0.21135 0
M  V30 2371 O 236.642 2.01348 0.0458477 0
M  V30 2372 C 233.707 3.45771 -0.253674 0
M  V30 2373 C 232.768 4.08411 -1.32283 0
M  V30 2374 C 232.001 5.27608 -0.80406 0
M  V30 2375 O 232.224 5.69241 0.363478 0
M  V30 2376 O 231.158 5.8101 -1.57198 0
M  V30 2377 H 234.984 2.50614 -1.7154 0
M  V30 2378 H 232.569 1.19454 -0.897275 0
M  V30 2379 H 234.451 4.21376 0.0453691 0
M  V30 2380 H 233.126 3.1739 0.636005 0
M  V30 2381 H 232.033 3.34507 -1.67499 0
M  V30 2382 H 233.366 4.40986 -2.18614 0
M  V30 2383 N 235.018 0.912232 1.28515 0
M  V30 2384 C 236.434 0.610159 1.47476 0
M  V30 2385 C 236.634 -0.844955 1.82928 0
M  V30 2386 O 235.69 -1.62416 1.93332 0
M  V30 2387 C 237.003 1.54675 2.57868 0
M  V30 2388 C 238.551 1.55331 2.71738 0
M  V30 2389 C 239.026 2.47649 3.85272 0
M  V30 2390 N 240.517 2.45767 3.92623 0
M  V30 2391 C 241.252 3.13896 4.79851 0
M  V30 2392 N 240.748 3.9135 5.71679 0
M  V30 2393 N 242.541 3.02991 4.73448 0
M  V30 2394 H 234.692 1.85318 1.03783 0
M  V30 2395 H 236.955 0.794777 0.516753 0
M  V30 2396 H 236.661 2.5841 2.38574 0
M  V30 2397 H 236.535 1.27671 3.54937 0
M  V30 2398 H 238.922 0.52335 2.90422 0
M  V30 2399 H 239.003 1.86378 1.75205 0
M  V30 2400 H 238.647 3.50745 3.67342 0
M  V30 2401 H 238.577 2.13904 4.81199 0
M  V30 2402 H 241.068 1.89503 3.26951 0
M  V30 2403 H 241.381 4.40359 6.35062 0
M  V30 2404 H 239.726 3.95455 5.71524 0
M  V30 2405 H 242.917 2.41987 4.007 0
M  V30 2406 H 243.09 3.5636 5.41213 0
M  V30 2407 N 236.496 -1.42363 0.676048 0
M  V30 2408 C 237.745 -2.00745 0.196037 0
M  V30 2409 C 238.058 -1.54083 -1.20489 0
M  V30 2410 O 239.264 -2.04891 -1.78134 0
M  V30 2411 C 237.72 -3.58651 0.299616 0
M  V30 2412 C 237.328 -4.143 1.70468 0
M  V30 2413 C 239.072 -4.24326 -0.121619 0
M  V30 2414 C 236.979 -5.64574 1.76096 0
M  V30 2415 H 235.909 -0.750787 0.0695301 0
M  V30 2416 H 238.56 -1.63072 0.841412 0
M  V30 2417 H 236.942 -3.93833 -0.413673 0
M  V30 2418 H 238.116 -3.90575 2.44515 0
M  V30 2419 H 236.431 -3.61081 2.07387 0
M  V30 2420 H 239.028 -5.34607 -0.0997362 0
M  V30 2421 H 239.371 -3.99897 -1.15708 0
M  V30 2422 H 239.904 -3.94108 0.540706 0
M  V30 2423 H 236.643 -5.93804 2.77628 0
M  V30 2424 H 236.163 -5.90286 1.06406 0
M  V30 2425 H 237.842 -6.29013 1.51496 0
M  V30 2426 N 237.974 -0.419461 -1.51915 0
M  V30 2427 C 238.922 0.415502 -2.28859 0
M  V30 2428 C 239.916 1.03674 -1.3397 0
M  V30 2429 O 241.122 0.973757 -1.51387 0
M  V30 2430 H 237.497 0.152786 -0.736315 0
M  V30 2431 H 239.468 -0.254531 -2.97312 0
M  V30 2432 C 238.217 1.51425 -3.12995 0
M  V30 2433 H 237.54 1.04556 -3.85886 0
M  V30 2434 H 238.98 2.07208 -3.6992 0
M  V30 2435 C 237.439 2.48745 -2.27217 0
M  V30 2436 O 237.969 3.52871 -1.9195 0
M  V30 2437 N 236.175 2.19202 -1.90785 0
M  V30 2438 H 235.722 1.34556 -2.19664 0
M  V30 2439 H 235.68 2.84561 -1.33687 0
M  V30 2440 N 239.452 1.56882 -0.150215 0
M  V30 2441 C 240.868 1.58263 0.20617 0
M  V30 2442 C 241.068 1.16464 1.64434 0
M  V30 2443 O 240.124 0.866422 2.3717 0
M  V30 2444 C 241.437 3.00649 -0.0555025 0
M  V30 2445 C 242.985 3.12999 0.00795388 0
M  V30 2446 C 243.46 4.5744 -0.226429 0
M  V30 2447 N 244.951 4.62875 -0.173469 0
M  V30 2448 C 245.686 5.72454 -0.329288 0
M  V30 2449 N 245.182 6.90669 -0.543005 0
M  V30 2450 N 246.975 5.61467 -0.266666 0
M  V30 2451 H 239.126 1.82345 -1.08922 0
M  V30 2452 H 241.389 0.844149 -0.431413 0
M  V30 2453 H 241.095 3.3563 -1.05096 0
M  V30 2454 H 240.969 3.71337 0.66246 0
M  V30 2455 H 243.356 2.77857 0.993966 0
M  V30 2456 H 243.437 2.4479 -0.742388 0
M  V30 2457 H 243.081 4.93287 -1.20956 0
M  V30 2458 H 243.011 5.2378 0.544274 0
M  V30 2459 H 245.502 3.77898 -0.0130709 0
M  V30 2460 H 245.815 7.70045 -0.651922 0
M  V30 2461 H 244.16 6.92581 -0.579366 0
M  V30 2462 H 247.351 4.67992 -0.100441 0
M  V30 2463 H 247.524 6.46816 -0.391535 0
M  V30 2464 N 240.93 -0.123565 1.57115 0
M  V30 2465 C 242.176 -0.833386 1.84885 0
M  V30 2466 C 242.509 -1.79742 0.735292 0
M  V30 2467 O 241.784 -1.92764 -0.25925 0
M  V30 2468 C 242.067 -1.5873 3.23228 0
M  V30 2469 C 241.92 -0.643183 4.45178 0
M  V30 2470 C 243.239 -2.54453 3.59085 0
M  V30 2471 H 240.358 -0.301518 0.6725 0
M  V30 2472 H 243 -0.097778 1.89748 0
M  V30 2473 H 241.15 -2.21438 3.19214 0
M  V30 2474 H 242.822 -0.0253015 4.61293 0
M  V30 2475 H 241.065 0.0456139 4.33776 0
M  V30 2476 H 241.736 -1.20724 5.38637 0
M  V30 2477 H 244.212 -2.01853 3.63861 0
M  V30 2478 H 243.088 -3.04238 4.5687 0
M  V30 2479 H 243.349 -3.36906 2.86264 0
M  V30 2480 N 242.408 -1.52605 -0.393616 0
M  V30 2481 C 243.657 -1.66649 -1.13627 0
M  V30 2482 C 243.97 -0.410364 -1.91247 0
M  V30 2483 O 245.176 -0.430854 -2.68059 0
M  V30 2484 C 243.632 -2.9449 -2.06891 0
M  V30 2485 C 243.24 -4.27266 -1.34714 0
M  V30 2486 C 244.984 -3.17899 -2.81319 0
M  V30 2487 C 242.891 -5.46217 -2.26717 0
M  V30 2488 H 241.821 -0.62084 -0.427871 0
M  V30 2489 H 244.472 -1.791 -0.399428 0
M  V30 2490 H 242.854 -2.75774 -2.84191 0
M  V30 2491 H 244.028 -4.56518 -0.626714 0
M  V30 2492 H 242.343 -4.10081 -0.722643 0
M  V30 2493 H 244.94 -4.03949 -3.50328 0
M  V30 2494 H 245.283 -2.32777 -3.45139 0
M  V30 2495 H 245.816 -3.37159 -2.11113 0
M  V30 2496 H 242.555 -6.33733 -1.67521 0
M  V30 2497 H 242.075 -5.21283 -2.96689 0
M  V30 2498 H 243.754 -5.7991 -2.86903 0
M  V30 2499 N 243.887 0.651787 -1.4349 0
M  V30 2500 C 244.819 1.77725 -1.44729 0
M  V30 2501 C 245.832 1.59141 -0.343231 0
M  V30 2502 O 247.021 1.67835 -0.607751 0
M  V30 2503 C 244.121 3.15172 -1.24579 0
M  V30 2504 C 243.294 3.60402 -2.47849 0
M  V30 2505 C 242.353 4.76656 -2.22902 0
M  V30 2506 O 241.379 4.86022 -2.96263 0
M  V30 2507 N 242.581 5.66958 -1.24656 0
M  V30 2508 H 245.346 1.77141 -2.41746 0
M  V30 2509 H 242.907 0.835678 -1.38665 0
M  V30 2510 H 244.899 3.90634 -1.0577 0
M  V30 2511 H 243.469 3.1052 -0.360015 0
M  V30 2512 H 242.689 2.75369 -2.82073 0
M  V30 2513 H 243.977 3.87368 -3.29884 0
M  V30 2514 H 243.375 5.62065 -0.640265 0
M  V30 2515 H 241.932 6.42135 -1.1183 0
M  V30 2516 N 245.365 1.30045 0.890287 0
M  V30 2517 C 246.275 1.17885 2.02831 0
M  V30 2518 C 247.291 0.0999609 1.73713 0
M  V30 2519 O 248.467 0.313867 1.98939 0
M  V30 2520 C 245.532 0.866079 3.35708 0
M  V30 2521 C 244.593 2.02979 3.78283 0
M  V30 2522 C 243.826 1.73184 5.0482 0
M  V30 2523 O 244.049 0.657237 5.66601 0
M  V30 2524 O 242.983 2.58267 5.43674 0
M  V30 2525 H 246.809 2.13474 2.16015 0
M  V30 2526 H 244.394 1.09587 1.01543 0
M  V30 2527 H 246.276 0.706623 4.15433 0
M  V30 2528 H 244.951 -0.0599443 3.23644 0
M  V30 2529 H 243.858 2.24454 2.99285 0
M  V30 2530 H 245.191 2.93734 3.94944 0
M  V30 2531 N 246.843 -1.10192 1.12674 0
M  V30 2532 C 247.773 -2.18652 0.819362 0
M  V30 2533 C 248.754 -1.68698 -0.217915 0
M  V30 2534 O 249.939 -1.94041 -0.0785581 0
M  V30 2535 C 247.069 -3.46202 0.27594 0
M  V30 2536 C 246.023 -4.09444 1.24656 0
M  V30 2537 C 245.349 -5.31725 0.563258 0
M  V30 2538 C 246.649 -4.52863 2.60217 0
M  V30 2539 H 248.343 -2.44622 1.72628 0
M  V30 2540 H 245.889 -1.17571 0.831451 0
M  V30 2541 H 247.842 -4.21372 0.0486149 0
M  V30 2542 H 246.566 -3.1973 -0.666331 0
M  V30 2543 H 245.225 -3.36284 1.45974 0
M  V30 2544 H 244.873 -5.0153 -0.384235 0
M  V30 2545 H 244.573 -5.74991 1.21075 0
M  V30 2546 H 246.097 -6.09624 0.34503 0
M  V30 2547 H 247.511 -5.19294 2.42913 0
M  V30 2548 H 245.908 -5.06986 3.21068 0
M  V30 2549 H 246.978 -3.65656 3.18471 0
M  V30 2550 N 248.321 -0.919034 -1.28029 0
M  V30 2551 C 249.569 -0.553838 -1.94363 0
M  V30 2552 C 249.89 0.906357 -1.72656 0
M  V30 2553 O 249.16 1.64143 -1.0693 0
M  V30 2554 H 247.74 -0.201834 -0.719216 0
M  V30 2555 H 250.402 -1.16954 -1.55909 0
M  V30 2556 H 249.498 -0.752758 -3.02886 0
M  V30 2557 N 249.799 1.42003 -0.683588 0
M  V30 2558 C 250.729 2.33487 -0.024866 0
M  V30 2559 C 251.71 1.51163 0.779975 0
M  V30 2560 O 252.895 1.79739 0.735362 0
M  V30 2561 C 250.025 3.3487 0.920836 0
M  V30 2562 C 248.979 4.27414 0.223958 0
M  V30 2563 C 248.305 5.19074 1.2832 0
M  V30 2564 C 249.605 5.14445 -0.90242 0
M  V30 2565 H 251.299 2.88819 -0.788921 0
M  V30 2566 H 248.845 1.38873 -0.38083 0
M  V30 2567 H 250.798 3.97787 1.39081 0
M  V30 2568 H 249.522 2.77861 1.71642 0
M  V30 2569 H 248.181 3.65904 -0.225864 0
M  V30 2570 H 247.829 4.58387 2.071 0
M  V30 2571 H 247.529 5.81822 0.821995 0
M  V30 2572 H 249.053 5.84867 1.75392 0
M  V30 2573 H 250.467 5.70998 -0.513272 0
M  V30 2574 H 248.864 5.86072 -1.28997 0
M  V30 2575 H 249.934 4.52322 -1.74737 0
M  V30 2576 N 251.277 0.427512 1.51691 0
M  V30 2577 C 252.554 -0.201684 1.94557 0
M  V30 2578 C 252.934 -1.60981 1.36559 0
M  V30 2579 O 252.282 -2.21814 0.548702 0
M  V30 2580 C 252.492 -0.189394 3.48486 0
M  V30 2581 C 253.84 -0.39978 4.22714 0
M  V30 2582 O 254.864 -0.267945 3.55191 0
M  V30 2583 O 253.723 -0.661249 5.42485 0
M  V30 2584 H 250.817 -0.135261 0.815864 0
M  V30 2585 H 253.363 0.484782 1.62628 0
M  V30 2586 H 252.135 0.795431 3.8313 0
M  V30 2587 H 251.758 -0.919187 3.86829 0
M  V30 2588 N 252.755 -1.56801 0.158532 0
M  V30 2589 C 253.702 -2.17337 -0.776729 0
M  V30 2590 C 254.672 -1.1096 -1.23601 0
M  V30 2591 O 255.857 -1.39054 -1.30647 0
M  V30 2592 C 252.997 -2.80822 -2.00582 0
M  V30 2593 C 252.11 -4.01624 -1.59129 0
M  V30 2594 C 251.245 -4.53072 -2.77306 0
M  V30 2595 C 250.284 -5.66314 -2.32282 0
M  V30 2596 N 249.421 -6.12329 -3.43508 0
M  V30 2597 H 254.261 -2.96918 -0.253701 0
M  V30 2598 H 251.798 -1.46661 -0.113504 0
M  V30 2599 H 253.756 -3.15779 -2.72652 0
M  V30 2600 H 252.386 -2.03866 -2.50277 0
M  V30 2601 H 251.438 -3.72571 -0.767806 0
M  V30 2602 H 252.75 -4.83633 -1.2207 0
M  V30 2603 H 251.904 -4.90145 -3.57551 0
M  V30 2604 H 250.643 -3.70095 -3.17617 0
M  V30 2605 H 249.648 -5.28806 -1.5048 0
M  V30 2606 H 250.873 -6.51085 -1.93043 0
M  V30 2607 H 248.819 -5.32284 -3.83418 0
M  V30 2608 H 248.736 -6.89293 -3.105 0
M  V30 2609 H 250.004 -6.5405 -4.24075 0
M  V30 2610 N 254.233 0.115231 -1.57178 0
M  V30 2611 C 255.479 0.82357 -1.85325 0
M  V30 2612 C 255.812 1.79349 -0.744814 0
M  V30 2613 O 255.087 1.92899 0.249024 0
M  V30 2614 C 255.37 1.57014 -3.24066 0
M  V30 2615 C 255.223 0.619565 -4.45513 0
M  V30 2616 C 256.542 2.52545 -3.60429 0
M  V30 2617 H 253.661 0.297948 -0.674089 0
M  V30 2618 H 256.303 0.0877138 -1.89797 0
M  V30 2619 H 254.453 2.19742 -3.20383 0
M  V30 2620 H 256.125 0.000837639 -4.613 0
M  V30 2621 H 254.368 -0.0686174 -4.33746 0
M  V30 2622 H 255.039 1.17866 -5.3927 0
M  V30 2623 H 257.515 1.9992 -3.64926 0
M  V30 2624 H 256.391 3.01811 -4.58477 0
M  V30 2625 H 256.652 3.35383 -2.88047 0
M  V30 2626 N 255.711 1.52812 0.385517 0
M  V30 2627 C 256.674 1.77188 1.45386 0
M  V30 2628 C 257.674 0.641953 1.4743 0
M  V30 2629 O 258.864 0.910033 1.4854 0
M  V30 2630 C 255.996 1.87582 2.8465 0
M  V30 2631 H 257.189 2.72583 1.25054 0
M  V30 2632 H 254.742 1.43586 0.617467 0
M  V30 2633 H 255.477 0.941849 3.10322 0
M  V30 2634 H 255.262 2.69748 2.84567 0
M  V30 2635 H 256.752 2.08102 3.62054 0
M  V30 2636 N 257.189 -0.644168 1.43834 0
M  V30 2637 C 258.466 -1.40188 1.36406 0
M  V30 2638 C 258.846 -2.11094 0.0163124 0
M  V30 2639 O 258.194 -2.05426 -1.00062 0
M  V30 2640 C 258.404 -2.3791 2.55343 0
M  V30 2641 C 259.752 -3.01637 2.98832 0
M  V30 2642 O 260.776 -2.48237 2.55455 0
M  V30 2643 O 259.635 -3.98477 3.74003 0
M  V30 2644 H 256.729 -0.626773 0.539523 0
M  V30 2645 H 259.275 -0.670317 1.559 0
M  V30 2646 H 258.047 -1.84525 3.4506 0
M  V30 2647 H 257.67 -3.18503 2.37995 0
M  V30 2648 N 258.668 -1.30515 -0.883378 0
M  V30 2649 C 259.893 -1.22487 -1.67367 0
M  V30 2650 C 260.318 0.208767 -1.86938 0
M  V30 2651 O 259.676 1.15015 -1.40148 0
M  V30 2652 C 259.724 -1.96041 -3.02655 0
M  V30 2653 O 258.828 -1.28859 -3.91751 0
M  V30 2654 H 258.169 -0.423573 -0.511353 0
M  V30 2655 H 260.699 -1.72362 -1.10239 0
M  V30 2656 H 260.709 -2.05124 -3.52687 0
M  V30 2657 H 259.384 -3.00307 -2.8773 0
M  V30 2658 H 257.961 -1.28141 -3.50192 0
M  V30 2659 N 260.146 1.09593 -1.13257 0
M  V30 2660 C 261.093 2.1618 -0.808381 0
M  V30 2661 C 262.063 1.64517 0.228754 0
M  V30 2662 O 263.248 1.9053 0.101381 0
M  V30 2663 C 260.388 3.43973 -0.278675 0
M  V30 2664 C 259.501 4.09545 -1.37466 0
M  V30 2665 C 258.636 5.25088 -0.803479 0
M  V30 2666 C 257.675 5.82579 -1.87799 0
M  V30 2667 N 256.812 6.89486 -1.32488 0
M  V30 2668 H 261.652 2.43254 -1.72138 0
M  V30 2669 H 259.189 1.19392 -0.859294 0
M  V30 2670 H 261.147 4.17174 0.0465583 0
M  V30 2671 H 259.777 3.17223 0.597459 0
M  V30 2672 H 258.829 3.34226 -1.81652 0
M  V30 2673 H 260.141 4.48307 -2.18684 0
M  V30 2674 H 259.295 6.05178 -0.429427 0
M  V30 2675 H 258.034 4.87684 0.0397956 0
M  V30 2676 H 257.039 5.01152 -2.26113 0
M  V30 2677 H 258.264 6.22045 -2.72463 0
M  V30 2678 H 256.21 6.54064 -0.503575 0
M  V30 2679 H 256.127 7.27007 -2.07355 0
M  V30 2680 H 257.395 7.73336 -0.978336 0
M  V30 2681 N 261.624 0.925811 1.2754 0
M  V30 2682 C 262.87 0.566092 1.94739 0
M  V30 2683 C 263.203 -0.890057 1.72603 0
M  V30 2684 O 262.478 -1.63467 1.05399 0
M  V30 2685 C 262.761 0.89054 3.48915 0
M  V30 2686 C 262.614 2.4003 3.80402 0
M  V30 2687 C 263.933 0.395101 4.38323 0
M  V30 2688 H 261.052 0.20714 0.707292 0
M  V30 2689 H 263.694 1.15725 1.50691 0
M  V30 2690 H 261.844 0.387452 3.86563 0
M  V30 2691 H 263.516 2.97494 3.52555 0
M  V30 2692 H 261.759 2.85028 3.2702 0
M  V30 2693 H 262.43 2.57785 4.8811 0
M  V30 2694 H 264.906 0.826241 4.07814 0
M  V30 2695 H 263.782 0.651086 5.45025 0
M  V30 2696 H 264.043 -0.704798 4.36446 0
M  V30 2697 N 263.102 -1.41638 0.69111 0
M  V30 2698 C 264.35 -2.00902 0.219758 0
M  V30 2699 C 264.671 -1.54994 -1.18329 0
M  V30 2700 O 263.941 -0.778628 -1.79762 0
M  V30 2701 H 262.521 -0.74289 0.0782558 0
M  V30 2702 H 265.183 -1.73327 0.891271 0
M  V30 2703 H 264.279 -3.11224 0.233708 0
M  V30 2704 N 264.58 -0.43555 -1.51462 0
M  V30 2705 C 265.808 0.130242 -2.0649 0
M  V30 2706 C 266.223 1.36614 -1.30315 0
M  V30 2707 O 265.58 1.78869 -0.362223 0
M  V30 2708 C 265.631 0.454253 -3.58635 0
M  V30 2709 O 265.352 -0.73259 -4.31931 0
M  V30 2710 C 266.853 1.07091 -4.3017 0
M  V30 2711 H 264.073 0.00871669 -0.670943 0
M  V30 2712 H 266.617 -0.614117 -1.95061 0
M  V30 2713 H 264.772 1.14851 -3.69984 0
M  V30 2714 H 265.186 -0.455787 -5.22516 0
M  V30 2715 H 266.66 1.24764 -5.37716 0
M  V30 2716 H 267.137 2.05144 -3.88346 0
M  V30 2717 H 267.743 0.416089 -4.2326 0
M  V30 2718 N 266.058 1.56714 -0.166846 0
M  V30 2719 C 266.99 2.14914 0.796537 0
M  V30 2720 C 268.003 1.10357 1.19688 0
M  V30 2721 O 269.192 1.37561 1.13751 0
M  V30 2722 C 266.292 2.67326 2.08303 0
M  V30 2723 C 265.465 3.96493 1.84696 0
M  V30 2724 C 264.524 4.34014 2.97521 0
M  V30 2725 O 263.55 5.01973 2.6835 0
M  V30 2726 N 264.752 3.95208 4.25196 0
M  V30 2727 H 267.517 2.98205 0.299006 0
M  V30 2728 H 265.078 1.61892 0.0160839 0
M  V30 2729 H 267.07 2.89428 2.82867 0
M  V30 2730 H 265.64 1.88649 2.4926 0
M  V30 2731 H 264.86 3.82814 0.940602 0
M  V30 2732 H 266.148 4.8086 1.66285 0
M  V30 2733 H 265.546 3.40487 4.51758 0
M  V30 2734 H 264.103 4.2232 4.96477 0
M  V30 2735 N 267.536 -0.106894 1.57237 0
M  V30 2736 C 268.783 -0.812526 1.85484 0
M  V30 2737 C 269.111 -1.79304 0.753687 0
M  V30 2738 O 268.366 -1.94047 -0.253853 0
M  V30 2739 C 268.665 -1.58628 3.20268 0
M  V30 2740 C 268.331 -0.748967 4.44636 0
M  V30 2741 C 266.993 -0.518104 4.78403 0
M  V30 2742 C 269.345 -0.166122 5.20935 0
M  V30 2743 C 266.673 0.305659 5.85903 0
M  V30 2744 C 269.025 0.644899 6.29304 0
M  V30 2745 C 267.689 0.885965 6.61594 0
M  V30 2746 H 266.959 -0.297324 0.678734 0
M  V30 2747 H 269.606 -0.0744332 1.91355 0
M  V30 2748 H 267.911 -2.39562 3.10028 0
M  V30 2749 H 269.608 -2.13643 3.39349 0
M  V30 2750 H 266.198 -0.939006 4.18187 0
M  V30 2751 H 270.382 -0.33167 4.95191 0
M  V30 2752 H 265.638 0.501528 6.0934 0
M  V30 2753 H 269.812 1.10345 6.87602 0
M  V30 2754 H 267.439 1.52609 7.44725 0
M  V30 2755 N 269.014 -1.53014 -0.377408 0
M  V30 2756 C 270.263 -1.67845 -1.11853 0
M  V30 2757 C 270.576 -0.430625 -1.90801 0
M  V30 2758 O 271.782 -0.459261 -2.67587 0
M  V30 2759 C 270.238 -2.96668 -2.03756 0
M  V30 2760 C 269.846 -4.28671 -1.30175 0
M  V30 2761 C 271.59 -3.20865 -2.77932 0
M  V30 2762 C 269.497 -5.48591 -2.20911 0
M  V30 2763 H 268.427 -0.625343 -0.421263 0
M  V30 2764 H 271.078 -1.79514 -0.380409 0
M  V30 2765 H 269.46 -2.78773 -2.8125 0
M  V30 2766 H 270.634 -4.57157 -0.578259 0
M  V30 2767 H 268.949 -4.10825 -0.679108 0
M  V30 2768 H 271.546 -4.07642 -3.46024 0
M  V30 2769 H 271.889 -2.36424 -3.4265 0
M  V30 2770 H 272.422 -3.39379 -2.07525 0
M  V30 2771 H 269.161 -6.35474 -1.6079 0
M  V30 2772 H 268.681 -5.244 -2.91144 0
M  V30 2773 H 270.36 -5.8292 -2.80736 0
M  V30 2774 N 270.492 0.636531 -1.44174 0
M  V30 2775 C 271.908 0.954104 -1.27941 0
M  V30 2776 C 272.108 2.0039 -0.211248 0
M  V30 2777 O 271.164 2.49236 0.404695 0
M  V30 2778 C 272.477 1.4225 -2.64925 0
M  V30 2779 C 274.025 1.53827 -2.72592 0
M  V30 2780 C 274.5 2.04053 -4.10032 0
M  V30 2781 N 275.991 2.11331 -4.12182 0
M  V30 2782 C 276.726 2.51352 -5.15374 0
M  V30 2783 N 276.222 2.90549 -6.2893 0
M  V30 2784 N 278.015 2.51438 -5.02728 0
M  V30 2785 H 270.166 -0.0578386 -2.12321 0
M  V30 2786 H 272.429 0.0367406 -0.947288 0
M  V30 2787 H 272.135 0.725466 -3.44136 0
M  V30 2788 H 272.009 2.39451 -2.9145 0
M  V30 2789 H 274.396 2.22628 -1.93702 0
M  V30 2790 H 274.477 0.550154 -2.49814 0
M  V30 2791 H 274.121 1.35848 -4.89395 0
M  V30 2792 H 274.051 3.03726 -4.30184 0
M  V30 2793 H 276.542 1.83745 -3.30222 0
M  V30 2794 H 276.855 3.19884 -7.03487 0
M  V30 2795 H 275.2 2.88313 -6.32377 0
M  V30 2796 H 278.391 2.20203 -4.13072 0
M  V30 2797 H 278.564 2.82304 -5.83274 0
M  V30 2798 N 271.97 1.30982 0.876444 0
M  V30 2799 C 273.218 1.20058 1.62575 0
M  V30 2800 C 273.539 -0.242947 1.93481 0
M  V30 2801 O 272.809 -1.1619 1.57724 0
M  V30 2802 H 271.389 0.44135 0.602677 0
M  V30 2803 H 274.051 1.64222 1.04962 0
M  V30 2804 H 273.147 1.76762 2.57219 0
M  V30 2805 N 273.449 -1.08991 1.13837 0
M  V30 2806 C 274.695 -1.81526 0.90422 0
M  V30 2807 C 275.028 -1.85706 -0.568066 0
M  V30 2808 O 274.303 -1.32855 -1.42056 0
M  V30 2809 C 274.586 -3.27447 1.49835 0
M  V30 2810 C 274.439 -3.31512 3.04006 0
M  V30 2811 C 275.758 -4.24256 1.17025 0
M  V30 2812 H 272.877 -0.659029 0.329923 0
M  V30 2813 H 275.519 -1.27644 1.40737 0
M  V30 2814 H 273.669 -3.73462 1.07044 0
M  V30 2815 H 275.341 -2.93867 3.55584 0
M  V30 2816 H 273.584 -2.70963 3.38765 0
M  V30 2817 H 274.255 -4.34329 3.40679 0
M  V30 2818 H 276.731 -3.86549 1.54009 0
M  V30 2819 H 275.607 -5.24684 1.61237 0
M  V30 2820 H 275.868 -4.42019 0.0846274 0
M  V30 2821 N 274.927 -0.932562 -1.27047 0
M  V30 2822 C 276.152 -0.591474 -1.98787 0
M  V30 2823 C 276.577 0.824601 -1.69062 0
M  V30 2824 O 275.935 1.5541 -0.933677 0
M  V30 2825 C 275.983 -0.829808 -3.50922 0
M  V30 2826 O 275.087 0.102266 -4.12273 0
M  V30 2827 H 274.428 -0.227185 -0.623926 0
M  V30 2828 H 276.958 -1.25314 -1.61733 0
M  V30 2829 H 276.968 -0.747292 -4.01098 0
M  V30 2830 H 275.643 -1.86201 -3.7189 0
M  V30 2831 H 274.22 -0.0305761 -3.72887 0
M  V30 2832 N 276.405 1.4127 -0.698611 0
M  V30 2833 C 277.653 2.00782 -0.230409 0
M  V30 2834 C 277.974 1.5562 1.17505 0
M  V30 2835 O 277.244 0.78815 1.79346 0
M  V30 2836 H 275.824 0.742464 -0.0821944 0
M  V30 2837 H 278.486 1.72852 -0.90045 0
M  V30 2838 H 277.582 3.11095 -0.25021 0
M  V30 2839 N 277.883 0.443576 1.51229 0
M  V30 2840 C 279.131 -0.120557 2.0174 0
M  V30 2841 C 279.452 -1.42665 1.32935 0
M  V30 2842 O 278.722 -1.9028 0.465866 0
M  V30 2843 H 277.302 -0.0475426 0.745486 0
M  V30 2844 H 279.964 0.587711 1.85828 0
M  V30 2845 H 279.06 -0.291972 3.10731 0
M  V30 2846 N 279.361 -1.56624 0.175154 0
M  V30 2847 C 280.271 -2.21741 -0.766042 0
M  V30 2848 C 281.287 -1.21023 -1.25018 0
M  V30 2849 O 282.463 -1.53697 -1.3015 0
M  V30 2850 C 279.528 -2.84839 -1.97655 0
M  V30 2851 C 278.589 -4.00769 -1.53892 0
M  V30 2852 C 277.822 -4.60849 -2.69173 0
M  V30 2853 O 278.045 -4.19823 -3.86141 0
M  V30 2854 O 276.979 -5.50655 -2.43028 0
M  V30 2855 H 280.805 -3.02738 -0.241585 0
M  V30 2856 H 278.39 -1.49305 -0.053222 0
M  V30 2857 H 280.272 -3.24834 -2.68442 0
M  V30 2858 H 278.947 -2.06836 -2.48999 0
M  V30 2859 H 277.854 -3.65436 -0.80044 0
M  V30 2860 H 279.187 -4.80376 -1.07236 0
M  V30 2861 N 280.839 0.0985539 -1.57292 0
M  V30 2862 C 282.255 0.45267 -1.53046 0
M  V30 2863 C 282.455 1.80713 -0.891342 0
M  V30 2864 O 281.511 2.4785 -0.482375 0
M  V30 2865 C 282.824 0.418341 -2.97776 0
M  V30 2866 C 284.372 0.500443 -3.08973 0
M  V30 2867 C 284.847 0.496297 -4.55303 0
M  V30 2868 N 286.338 0.557151 -4.59837 0
M  V30 2869 C 287.073 0.575726 -5.70502 0
M  V30 2870 N 286.569 0.550714 -6.90608 0
M  V30 2871 N 288.362 0.620277 -5.58667 0
M  V30 2872 H 280.513 -0.788673 -1.97215 0
M  V30 2873 H 282.776 -0.293188 -0.901524 0
M  V30 2874 H 282.482 -0.509659 -3.47988 0
M  V30 2875 H 282.356 1.2386 -3.56284 0
M  V30 2876 H 284.743 1.41886 -2.58751 0
M  V30 2877 H 284.824 -0.347894 -2.53423 0
M  V30 2878 H 284.468 -0.418162 -5.06176 0
M  V30 2879 H 284.398 1.3618 -5.08687 0
M  V30 2880 H 286.889 0.581816 -3.73394 0
M  V30 2881 H 287.202 0.568075 -7.70709 0
M  V30 2882 H 285.547 0.517816 -6.93068 0
M  V30 2883 H 288.738 0.637322 -4.63741 0
M  V30 2884 H 288.911 0.631283 -6.44918 0
M  V30 2885 N 282.317 1.53212 0.369288 0
M  V30 2886 C 283.264 1.79388 1.45219 0
M  V30 2887 C 284.234 0.638059 1.53356 0
M  V30 2888 O 285.419 0.879852 1.69302 0
M  V30 2889 C 282.559 1.98623 2.82211 0
M  V30 2890 C 281.672 3.26337 2.8307 0
M  V30 2891 C 280.807 3.35779 4.11614 0
M  V30 2892 C 279.846 4.5754 4.06601 0
M  V30 2893 N 278.983 4.64155 5.26787 0
M  V30 2894 H 283.823 2.71794 1.22198 0
M  V30 2895 H 281.36 1.34642 0.592444 0
M  V30 2896 H 283.318 2.07761 3.61789 0
M  V30 2897 H 281.948 1.09558 3.03639 0
M  V30 2898 H 281 3.26171 1.95747 0
M  V30 2899 H 282.312 4.15988 2.75237 0
M  V30 2900 H 281.466 3.44208 4.99606 0
M  V30 2901 H 280.205 2.44137 4.22195 0
M  V30 2902 H 279.21 4.49215 3.16996 0
M  V30 2903 H 280.435 5.50519 3.97625 0
M  V30 2904 H 278.381 3.75413 5.3796 0
M  V30 2905 H 278.298 5.47706 5.21109 0
M  V30 2906 H 279.566 4.76863 6.16621 0
M  V30 2907 N 283.795 -0.628877 1.44509 0
M  V30 2908 C 285.211 -0.947305 1.28446 0
M  V30 2909 C 285.411 -2.00275 0.221872 0
M  V30 2910 O 284.467 -2.49447 -0.391471 0
M  V30 2911 C 285.78 -1.40843 2.65676 0
M  V30 2912 C 287.328 -1.52379 2.73404 0
M  V30 2913 C 287.803 -2.01875 4.11109 0
M  V30 2914 N 289.294 -2.09142 4.13296 0
M  V30 2915 C 290.029 -2.48615 5.16699 0
M  V30 2916 N 289.525 -2.87209 6.30462 0
M  V30 2917 N 291.318 -2.48768 5.04054 0
M  V30 2918 H 283.469 0.0690977 2.12288 0
M  V30 2919 H 285.732 -0.0317164 0.947469 0
M  V30 2920 H 285.438 -0.707206 3.44516 0
M  V30 2921 H 285.312 -2.37902 2.92716 0
M  V30 2922 H 287.699 -2.21598 1.9488 0
M  V30 2923 H 287.78 -0.536898 2.50102 0
M  V30 2924 H 287.424 -1.3325 4.90109 0
M  V30 2925 H 287.354 -3.0144 4.31789 0
M  V30 2926 H 289.845 -1.81991 3.31191 0
M  V30 2927 H 290.158 -3.16149 7.05174 0
M  V30 2928 H 288.503 -2.84955 6.33897 0
M  V30 2929 H 291.694 -2.18009 4.14234 0
M  V30 2930 H 291.867 -2.79207 5.84763 0
M  V30 2931 N 285.273 -1.31445 -0.869486 0
M  V30 2932 C 286.501 -1.24122 -1.65534 0
M  V30 2933 C 286.916 0.193387 -1.87807 0
M  V30 2934 O 286.273 1.12557 -1.43656 0
M  V30 2935 C 286.324 -1.98229 -3.02304 0
M  V30 2936 O 286.045 -3.3609 -2.81026 0
M  V30 2937 C 287.546 -1.97751 -3.96749 0
M  V30 2938 H 284.766 -0.428868 -0.516055 0
M  V30 2939 H 287.31 -1.73328 -1.08525 0
M  V30 2940 H 285.465 -1.52782 -3.56001 0
M  V30 2941 H 285.879 -3.7383 -3.67902 0
M  V30 2942 H 287.353 -2.54114 -4.90031 0
M  V30 2943 H 287.83 -0.960137 -4.28577 0
M  V30 2944 H 288.436 -2.43079 -3.48988 0
M  V30 2945 N 286.751 1.08385 -1.14413 0
M  V30 2946 C 287.976 1.85057 -0.936413 0
M  V30 2947 C 288.401 1.81055 0.509971 0
M  V30 2948 O 287.759 1.1958 1.36273 0
M  V30 2949 C 287.807 3.30505 -1.44217 0
M  V30 2950 O 286.911 4.07491 -0.634409 0
M  V30 2951 H 286.252 0.573425 -0.334784 0
M  V30 2952 H 288.782 1.36799 -1.52142 0
M  V30 2953 H 288.792 3.81348 -1.45043 0
M  V30 2954 H 287.467 3.32734 -2.49522 0
M  V30 2955 H 286.044 3.66368 -0.694902 0
M  V30 2956 N 288.23 0.939286 1.26551 0
M  V30 2957 C 289.479 0.581601 1.93133 0
M  V30 2958 C 289.792 -0.883224 1.74524 0
M  V30 2959 O 290.998 -1.3502 2.35546 0
M  V30 2960 C 289.454 0.989425 3.46032 0
M  V30 2961 C 289.062 2.47573 3.73379 0
M  V30 2962 C 290.806 0.703544 4.18629 0
M  V30 2963 C 288.713 2.82235 5.19709 0
M  V30 2964 H 287.643 0.213803 0.723052 0
M  V30 2965 H 290.294 1.14167 1.4366 0
M  V30 2966 H 288.676 0.357902 3.94379 0
M  V30 2967 H 289.85 3.15614 3.35744 0
M  V30 2968 H 288.165 2.73471 3.1401 0
M  V30 2969 H 290.762 0.938869 5.26393 0
M  V30 2970 H 291.105 -0.359639 4.14744 0
M  V30 2971 H 291.638 1.2947 3.76141 0
M  V30 2972 H 288.377 3.87509 5.28694 0
M  V30 2973 H 287.897 2.18854 5.58447 0
M  V30 2974 H 289.576 2.70599 5.87695 0
M  V30 2975 N 289.708 -1.40897 0.706093 0
M  V30 2976 C 290.956 -2.00657 0.241054 0
M  V30 2977 C 291.277 -1.56241 -1.16678 0
M  V30 2978 O 290.547 -0.79765 -1.78926 0
M  V30 2979 H 289.127 -0.742018 0.0861308 0
M  V30 2980 H 291.789 -1.72372 0.909604 0
M  V30 2981 H 290.885 -3.10958 0.266705 0
M  V30 2982 N 291.186 -0.45159 -1.50991 0
M  V30 2983 C 292.119 0.398179 -2.24699 0
M  V30 2984 C 293.097 1.01276 -1.27208 0
M  V30 2985 O 294.281 1.05247 -1.56382 0
M  V30 2986 C 291.408 1.55618 -3.00833 0
M  V30 2987 C 290.454 1.0609 -4.13095 0
M  V30 2988 S 291.287 -0.00865136 -5.35499 0
M  V30 2989 C 292.443 1.15369 -6.15175 0
M  V30 2990 H 292.676 -0.227555 -2.96428 0
M  V30 2991 H 290.209 -0.236251 -1.52582 0
M  V30 2992 H 292.167 2.21997 -3.45293 0
M  V30 2993 H 290.828 2.15337 -2.28667 0
M  V30 2994 H 290.021 1.92726 -4.65696 0
M  V30 2995 H 289.623 0.47513 -3.7097 0
M  V30 2996 H 291.915 2.06925 -6.45126 0
M  V30 2997 H 292.858 0.667344 -7.04948 0
M  V30 2998 H 293.266 1.3987 -5.46897 0
M  V30 2999 N 292.664 1.56529 -0.183458 0
M  V30 3000 C 293.574 2.22144 0.754272 0
M  V30 3001 C 294.59 1.21684 1.24374 0
M  V30 3002 O 295.766 1.54385 1.29333 0
M  V30 3003 C 292.831 2.85884 1.96141 0
M  V30 3004 C 291.892 4.01579 1.51765 0
M  V30 3005 C 291.125 4.6227 2.66725 0
M  V30 3006 O 291.348 4.21865 3.83909 0
M  V30 3007 O 290.282 5.51936 2.40104 0
M  V30 3008 H 294.108 3.02861 0.225527 0
M  V30 3009 H 291.693 1.49331 0.0453032 0
M  V30 3010 H 293.575 3.26253 2.66715 0
M  V30 3011 H 292.25 2.08154 2.47899 0
M  V30 3012 H 291.157 3.65856 0.781049 0
M  V30 3013 H 292.49 4.80938 1.04686 0
M  V30 3014 N 294.142 -0.090211 1.57342 0
M  V30 3015 C 295.072 -1.10976 2.05443 0
M  V30 3016 C 296.053 -1.41482 0.944284 0
M  V30 3017 O 297.238 -1.51428 1.21586 0
M  V30 3018 C 294.368 -2.42831 2.48295 0
M  V30 3019 C 293.322 -2.26721 3.63018 0
M  V30 3020 C 292.648 -3.63796 3.91863 0
M  V30 3021 C 293.948 -1.7037 4.93732 0
M  V30 3022 H 295.642 -0.709564 2.9087 0
M  V30 3023 H 293.188 -0.339874 1.39932 0
M  V30 3024 H 295.141 -3.14431 2.80555 0
M  V30 3025 H 293.865 -2.84795 1.59873 0
M  V30 3026 H 292.524 -1.57565 3.31012 0
M  V30 3027 H 292.172 -4.03297 3.00601 0
M  V30 3028 H 291.872 -3.53861 4.69101 0
M  V30 3029 H 293.396 -4.36855 4.26603 0
M  V30 3030 H 294.81 -2.31816 5.24342 0
M  V30 3031 H 293.207 -1.71181 5.75167 0
M  V30 3032 H 294.277 -0.663542 4.80339 0
M  V30 3033 N 295.62 -1.53406 -0.361157 0
M  V30 3034 C 296.869 -1.69022 -1.10066 0
M  V30 3035 C 297.182 -0.450838 -1.90333 0
M  V30 3036 O 298.388 -0.487617 -2.67085 0
M  V30 3037 C 296.844 -2.98812 -2.00598 0
M  V30 3038 C 296.452 -4.30027 -1.25621 0
M  V30 3039 C 298.196 -3.23795 -2.74513 0
M  V30 3040 C 296.103 -5.50903 -2.1508 0
M  V30 3041 H 295.033 -0.629776 -0.414606 0
M  V30 3042 H 297.684 -1.79907 -0.361348 0
M  V30 3043 H 296.066 -2.8174 -2.78278 0
M  V30 3044 H 297.24 -4.57745 -0.529739 0
M  V30 3045 H 295.555 -4.11522 -0.635496 0
M  V30 3046 H 298.152 -4.11289 -3.41681 0
M  V30 3047 H 298.495 -2.40045 -3.40123 0
M  V30 3048 H 299.028 -3.41561 -2.03914 0
M  V30 3049 H 295.767 -6.37143 -1.54041 0
M  V30 3050 H 295.287 -5.27459 -2.85565 0
M  V30 3051 H 296.966 -5.85865 -2.74538 0
M  V30 3052 N 297.098 0.621204 -1.44841 0
M  V30 3053 C 298.326 1.40752 -1.51646 0
M  V30 3054 C 298.741 1.88246 -0.144549 0
M  V30 3055 O 298.098 1.61422 0.851416 0
M  V30 3056 C 298.149 2.62119 -2.4895 0
M  V30 3057 O 297.87 2.16602 -3.80808 0
M  V30 3058 C 299.371 3.55135 -2.65319 0
M  V30 3059 H 296.591 0.431325 -0.514004 0
M  V30 3060 H 299.135 0.758835 -1.899 0
M  V30 3061 H 297.29 3.23058 -2.13805 0
M  V30 3062 H 297.704 2.95358 -4.33433 0
M  V30 3063 H 299.178 4.36874 -3.37409 0
M  V30 3064 H 299.655 4.04592 -1.70886 0
M  V30 3065 H 300.261 3.00058 -3.01405 0
M  V30 3066 N 298.576 1.31904 0.862503 0
M  V30 3067 C 299.853 1.12644 1.59908 0
M  V30 3068 C 300.233 -0.316104 2.0872 0
M  V30 3069 O 299.581 -1.31145 1.87118 0
M  V30 3070 C 299.791 2.1472 2.7513 0
M  V30 3071 C 301.139 2.47637 3.44907 0
M  V30 3072 O 302.163 2.13205 2.85346 0
M  V30 3073 O 301.022 3.06632 4.52371 0
M  V30 3074 H 298.116 0.43416 0.703871 0
M  V30 3075 H 300.662 1.43408 0.907314 0
M  V30 3076 H 299.434 3.1172 2.3653 0
M  V30 3077 H 299.057 1.84905 3.51989 0
M  V30 3078 N 300.054 -1.07777 1.14986 0
M  V30 3079 C 301.465 -1.61766 0.932127 0
M  V30 3080 C 301.816 -1.88974 -0.527581 0
M  V30 3081 O 300.941 -1.65198 -1.39781 0
M  V30 3082 C 301.536 -2.93891 1.68563 0
M  V30 3083 C 300.095 -3.44639 1.5133 0
M  V30 3084 C 299.242 -2.18767 1.704 0
M  V30 3085 H 302.193 -0.909201 1.30074 0
M  V30 3086 H 302.214 -3.62623 1.15259 0
M  V30 3087 H 301.726 -2.74057 2.74799 0
M  V30 3088 H 299.827 -3.69564 0.474702 0
M  V30 3089 H 299.94 -4.20966 2.28746 0
M  V30 3090 H 298.304 -2.28253 1.13016 0
M  V30 3091 H 299.087 -2.01433 2.77992 0
M  V30 3092 N 301.532 -0.945985 -1.26051 0
M  V30 3093 C 302.757 -0.612525 -1.98149 0
M  V30 3094 C 303.182 0.806623 -1.69927 0
M  V30 3095 O 302.54 1.54411 -0.950108 0
M  V30 3096 C 302.588 -0.866981 -3.50023 0
M  V30 3097 O 301.692 0.0585333 -4.12358 0
M  V30 3098 H 301.033 -0.23379 -0.621481 0
M  V30 3099 H 303.563 -1.27023 -1.60395 0
M  V30 3100 H 303.573 -0.789792 -4.00283 0
M  V30 3101 H 302.248 -1.90135 -3.69894 0
M  V30 3102 H 300.825 -0.0701241 -3.72834 0
M  V30 3103 N 303.011 1.40521 -0.713556 0
M  V30 3104 C 304.26 2.00155 -0.249192 0
M  V30 3105 C 304.573 1.57224 1.16362 0
M  V30 3106 O 305.779 2.09542 1.72639 0
M  V30 3107 C 304.235 3.5773 -0.3946 0
M  V30 3108 C 303.843 4.09635 -1.81392 0
M  V30 3109 C 305.587 4.24499 0.00907364 0
M  V30 3110 C 303.494 5.59707 -1.91003 0
M  V30 3111 H 302.424 0.74868 -0.0894114 0
M  V30 3112 H 305.075 1.60784 -0.884352 0
M  V30 3113 H 303.457 3.94792 0.30911 0
M  V30 3114 H 304.631 3.83955 -2.54785 0
M  V30 3115 H 302.946 3.55456 -2.16888 0
M  V30 3116 H 305.543 5.34683 -0.0420404 0
M  V30 3117 H 305.886 4.02824 1.05065 0
M  V30 3118 H 306.419 3.92536 -0.645007 0
M  V30 3119 H 303.158 5.86234 -2.93275 0
M  V30 3120 H 302.678 5.87258 -1.22019 0
M  V30 3121 H 304.357 6.24776 -1.6812 0
M  V30 3122 N 304.489 0.459591 1.5075 0
M  V30 3123 C 305.419 -0.330644 2.31147 0
M  V30 3124 C 306.4 -1.00087 1.37538 0
M  V30 3125 O 307.585 -1.00025 1.66459 0
M  V30 3126 C 304.715 -1.41958 3.16962 0
M  V30 3127 C 303.669 -0.871608 4.19031 0
M  V30 3128 C 302.995 -2.05797 4.9351 0
M  V30 3129 C 304.295 0.109251 5.22186 0
M  V30 3130 H 305.989 0.340336 2.97459 0
M  V30 3131 H 303.535 0.165119 1.4305 0
M  V30 3132 H 305.488 -1.9798 3.71997 0
M  V30 3133 H 304.212 -2.11917 2.48513 0
M  V30 3134 H 302.871 -0.333442 3.6508 0
M  V30 3135 H 302.519 -2.74427 4.21544 0
M  V30 3136 H 302.219 -1.6976 5.62544 0
M  V30 3137 H 303.743 -2.62331 5.51375 0
M  V30 3138 H 305.157 -0.361405 5.7216 0
M  V30 3139 H 303.554 0.383316 5.98875 0
M  V30 3140 H 304.624 1.03887 4.73641 0
M  V30 3141 N 305.967 -1.56429 0.191757 0
M  V30 3142 C 307.214 -1.97485 -0.447891 0
M  V30 3143 C 307.542 -1.07852 -1.61859 0
M  V30 3144 O 306.797 -0.116903 -1.95351 0
M  V30 3145 C 307.096 -3.44449 -0.953384 0
M  V30 3146 C 306.762 -4.50781 0.103586 0
M  V30 3147 C 305.424 -4.79584 0.394023 0
M  V30 3148 C 307.776 -5.1471 0.819946 0
M  V30 3149 C 305.104 -5.69607 1.40585 0
M  V30 3150 C 307.456 -6.05827 1.8209 0
M  V30 3151 C 306.12 -6.32987 2.11857 0
M  V30 3152 H 305.39 -0.722648 -0.163895 0
M  V30 3153 H 308.037 -1.89322 0.28802 0
M  V30 3154 H 306.342 -3.49666 -1.76751 0
M  V30 3155 H 308.039 -3.73569 -1.45765 0
M  V30 3156 H 304.629 -4.28394 -0.132951 0
M  V30 3157 H 308.813 -4.92552 0.608789 0
M  V30 3158 H 304.069 -5.88926 1.64243 0
M  V30 3159 H 308.243 -6.54424 2.38123 0
M  V30 3160 H 305.87 -7.02544 2.90407 0
M  V30 3161 N 307.445 0.0818655 -1.57387 0
M  V30 3162 C 308.375 1.09885 -2.06028 0
M  V30 3163 C 309.356 1.4098 -0.951774 0
M  V30 3164 O 310.541 1.50781 -1.22387 0
M  V30 3165 C 307.671 2.4151 -2.4958 0
M  V30 3166 C 306.625 2.24792 -3.64215 0
M  V30 3167 C 305.951 3.61712 -3.93787 0
M  V30 3168 C 307.251 1.67749 -4.94629 0
M  V30 3169 H 308.945 0.694128 -2.91243 0
M  V30 3170 H 306.491 0.332448 -1.4011 0
M  V30 3171 H 308.444 3.12939 -2.82219 0
M  V30 3172 H 307.168 2.83943 -1.61381 0
M  V30 3173 H 305.827 1.55807 -3.31843 0
M  V30 3174 H 305.475 4.01697 -3.02735 0
M  V30 3175 H 305.175 3.51368 -4.70971 0
M  V30 3176 H 306.699 4.34587 -4.28913 0
M  V30 3177 H 308.113 2.29032 -5.25564 0
M  V30 3178 H 306.51 1.68128 -5.76067 0
M  V30 3179 H 307.58 0.638059 -4.80684 0
M  V30 3180 N 308.923 1.53595 0.353017 0
M  V30 3181 C 310.2 1.61002 1.11075 0
M  V30 3182 C 310.58 0.425356 2.0677 0
M  V30 3183 O 309.928 -0.583267 2.2093 0
M  V30 3184 C 310.138 2.96631 1.83877 0
M  V30 3185 C 311.486 3.51653 2.37961 0
M  V30 3186 O 312.51 2.98743 1.93987 0
M  V30 3187 O 311.369 4.44177 3.18386 0
M  V30 3188 H 308.463 0.650825 0.510251 0
M  V30 3189 H 311.009 1.6594 0.35527 0
M  V30 3190 H 309.781 3.74293 1.14108 0
M  V30 3191 H 309.404 2.95242 2.66304 0
M  V30 3192 N 310.401 -0.613514 1.45168 0
M  V30 3193 C 311.311 -1.75296 1.55912 0
M  V30 3194 C 312.327 -1.68244 0.443856 0
M  V30 3195 O 313.503 -1.88706 0.70371 0
M  V30 3196 C 310.568 -3.1174 1.5172 0
M  V30 3197 C 309.629 -3.30291 2.74238 0
M  V30 3198 C 308.862 -4.60226 2.70236 0
M  V30 3199 O 309.085 -5.42168 1.77229 0
M  V30 3200 O 308.019 -4.81361 3.61352 0
M  V30 3201 H 311.845 -1.69183 2.52212 0
M  V30 3202 H 309.43 -0.776886 1.27612 0
M  V30 3203 H 311.312 -3.93044 1.51968 0
M  V30 3204 H 309.987 -3.18357 0.585697 0
M  V30 3205 H 308.894 -2.48598 2.79553 0
M  V30 3206 H 310.227 -3.28547 3.66494 0
M  V30 3207 N 311.879 -1.3236 -0.855495 0
M  V30 3208 C 313.29 -1.2056 -1.42556 0
M  V30 3209 C 313.641 0.182209 -1.95352 0
M  V30 3210 O 312.766 1.08088 -1.87472 0
M  V30 3211 C 313.361 -2.1826 -2.59129 0
M  V30 3212 C 311.92 -2.10351 -3.12137 0
M  V30 3213 C 311.067 -2.06674 -1.84882 0
M  V30 3214 H 314.018 -1.442 -0.662727 0
M  V30 3215 H 314.039 -1.78064 -3.36264 0
M  V30 3216 H 313.551 -3.19257 -2.20673 0
M  V30 3217 H 311.652 -1.12599 -3.55179 0
M  V30 3218 H 311.765 -3.00135 -3.73438 0
M  V30 3219 H 310.129 -1.51901 -2.04446 0
M  V30 3220 H 310.912 -3.09451 -1.48643 0
M  V30 3221 N 313.357 1.07166 -1.15556 0
M  V30 3222 C 314.585 1.83514 -0.955519 0
M  V30 3223 C 315 1.82163 0.49621 0
M  V30 3224 O 314.357 1.23441 1.34419 0
M  V30 3225 C 314.408 3.30515 -1.46432 0
M  V30 3226 O 314.129 3.31937 -2.85918 0
M  V30 3227 C 315.63 4.23625 -1.30603 0
M  V30 3228 H 312.85 0.578926 -0.339244 0
M  V30 3229 H 315.394 1.35265 -1.53374 0
M  V30 3230 H 313.549 3.76106 -0.928584 0
M  V30 3231 H 313.963 4.23794 -3.09029 0
M  V30 3232 H 315.437 5.24831 -1.71047 0
M  V30 3233 H 315.914 4.38485 -0.250441 0
M  V30 3234 H 316.52 3.83871 -1.83094 0
M  V30 3235 N 314.835 0.952656 1.25548 0
M  V30 3236 C 316.063 0.623496 1.97282 0
M  V30 3237 C 316.478 -0.803987 1.70826 0
M  V30 3238 O 315.835 -1.53755 0.983147 0
M  V30 3239 C 315.886 0.870209 3.5087 0
M  V30 3240 O 315.607 2.24156 3.76412 0
M  V30 3241 C 317.108 0.553164 4.39835 0
M  V30 3242 H 314.328 0.233931 0.628902 0
M  V30 3243 H 316.872 1.27649 1.59768 0
M  V30 3244 H 315.027 0.263652 3.86502 0
M  V30 3245 H 315.441 2.31021 4.70882 0
M  V30 3246 H 316.915 0.776342 5.46513 0
M  V30 3247 H 317.392 -0.512215 4.36203 0
M  V30 3248 H 317.998 1.13896 4.09766 0
M  V30 3249 N 316.313 -1.40141 0.720998 0
M  V30 3250 C 317.561 -2.0039 0.262323 0
M  V30 3251 C 317.882 -1.57469 -1.15015 0
M  V30 3252 O 317.152 -0.816582 -1.78069 0
M  V30 3253 H 315.732 -0.741063 0.093996 0
M  V30 3254 H 318.394 -1.71398 0.927835 0
M  V30 3255 H 317.49 -3.10658 0.299671 0
M  V30 3256 N 317.792 -0.46758 -1.50504 0
M  V30 3257 C 318.722 0.318381 -2.31319 0
M  V30 3258 C 319.703 0.993564 -1.38066 0
M  V30 3259 O 320.888 0.991411 -1.66987 0
M  V30 3260 C 318.018 1.40275 -3.17711 0
M  V30 3261 C 316.972 0.849373 -4.19487 0
M  V30 3262 C 316.298 2.03177 -4.94594 0
M  V30 3263 C 317.598 -0.136942 -5.2212 0
M  V30 3264 H 319.292 -0.356106 -2.97275 0
M  V30 3265 H 316.838 -0.172703 -1.42961 0
M  V30 3266 H 318.791 1.96004 -3.73042 0
M  V30 3267 H 317.515 2.10596 -2.49634 0
M  V30 3268 H 316.174 0.314076 -3.65252 0
M  V30 3269 H 315.822 2.72187 -4.22993 0
M  V30 3270 H 315.522 1.66774 -5.63436 0
M  V30 3271 H 317.046 2.59403 -5.52759 0
M  V30 3272 H 318.46 0.331056 -5.72343 0
M  V30 3273 H 316.857 -0.41507 -5.98663 0
M  V30 3274 H 317.927 -1.06398 -4.73083 0
M  V30 3275 N 319.27 1.56325 -0.20005 0
M  V30 3276 C 320.547 1.89484 0.48529 0
M  V30 3277 C 320.927 1.1143 1.79294 0
M  V30 3278 O 320.275 0.216919 2.27468 0
M  V30 3279 C 320.485 3.41923 0.699243 0
M  V30 3280 C 321.833 4.12256 1.01638 0
M  V30 3281 O 322.857 3.47402 0.786792 0
M  V30 3282 O 321.716 5.26887 1.45095 0
M  V30 3283 H 318.81 0.787144 0.253639 0
M  V30 3284 H 321.356 1.67985 -0.240633 0
M  V30 3285 H 320.128 3.90658 -0.224008 0
M  V30 3286 H 319.751 3.69131 1.47744 0
M  V30 3287 N 320.748 -0.0735177 1.57428 0
M  V30 3288 C 321.973 -0.789787 1.91774 0
M  V30 3289 C 322.398 -1.70413 0.796306 0
M  V30 3290 O 321.756 -1.79555 -0.250961 0
M  V30 3291 C 321.804 -1.5609 3.25067 0
M  V30 3292 O 320.908 -2.67144 3.14178 0
M  V30 3293 H 320.249 -0.215582 0.628029 0
M  V30 3294 H 322.779 -0.0422781 2.04556 0
M  V30 3295 H 322.789 -1.94052 3.58898 0
M  V30 3296 H 321.464 -0.890015 4.06265 0
M  V30 3297 H 320.041 -2.32052 2.91901 0
M  V30 3298 N 322.226 -1.5378 -0.344866 0
M  V30 3299 C 323.451 -1.75211 -1.10977 0
M  V30 3300 C 323.876 -0.48936 -1.81623 0
M  V30 3301 O 323.234 0.557925 -1.72502 0
M  V30 3302 C 323.282 -2.93147 -2.09993 0
M  V30 3303 O 322.386 -2.63203 -3.17487 0
M  V30 3304 H 321.727 -0.581241 -0.321021 0
M  V30 3305 H 324.257 -2.00738 -0.395661 0
M  V30 3306 H 324.267 -3.19898 -2.53237 0
M  V30 3307 H 322.942 -3.84731 -1.5797 0
M  V30 3308 H 321.519 -2.47336 -2.79069 0
M  V30 3309 N 323.704 0.605807 -1.45491 0
M  V30 3310 C 324.932 1.39136 -1.5313 0
M  V30 3311 C 325.347 1.88082 -0.164507 0
M  V30 3312 O 324.704 1.62316 0.834247 0
M  V30 3313 C 324.755 2.59463 -2.51716 0
M  V30 3314 O 324.476 2.12551 -3.83084 0
M  V30 3315 C 325.977 3.52301 -2.6907 0
M  V30 3316 H 323.197 0.425849 -0.51855 0
M  V30 3317 H 325.741 0.73865 -1.90694 0
M  V30 3318 H 323.896 3.20772 -2.17219 0
M  V30 3319 H 324.31 2.90744 -4.36541 0
M  V30 3320 H 325.784 4.33271 -3.42024 0
M  V30 3321 H 326.261 4.02757 -1.75167 0
M  V30 3322 H 326.867 2.96845 -3.04571 0
M  V30 3323 N 325.182 1.32811 0.848464 0
M  V30 3324 C 326.145 1.22194 1.9391 0
M  V30 3325 C 327.145 0.143404 1.60159 0
M  V30 3326 O 328.335 0.394253 1.6968 0
M  V30 3327 C 325.467 0.88067 3.29328 0
M  V30 3328 H 326.66 2.19127 2.04752 0
M  V30 3329 H 324.213 1.16731 1.0394 0
M  V30 3330 H 324.948 -0.0865776 3.24184 0
M  V30 3331 H 324.733 1.66052 3.55203 0
M  V30 3332 H 326.223 0.830871 4.09251 0
M  V30 3333 N 326.66 -1.06551 1.16123 0
M  V30 3334 C 327.608 -2.16063 0.861371 0
M  V30 3335 C 328.602 -1.6856 -0.168517 0
M  V30 3336 O 329.808 -1.79986 -0.0227579 0
M  V30 3337 H 326.183 -0.705278 0.260934 0
M  V30 3338 H 328.154 -2.38567 1.79244 0
M  V30 3339 C 326.903 -3.45661 0.376018 0
M  V30 3340 H 326.226 -3.82604 1.15992 0
M  V30 3341 H 327.666 -4.23504 0.204951 0
M  V30 3342 C 326.125 -3.24546 -0.903954 0
M  V30 3343 O 326.655 -3.49865 -1.97377 0
M  V30 3344 N 324.861 -2.77992 -0.846679 0
M  V30 3345 H 324.408 -2.57589 0.0241017 0
M  V30 3346 H 324.366 -2.64244 -1.70359 0
M  V30 3347 N 328.138 -0.959301 -1.25041 0
M  V30 3348 C 329.101 -0.487677 -2.23952 0
M  V30 3349 C 330.101 0.41119 -1.55454 0
M  V30 3350 O 331.291 0.207825 -1.72956 0
M  V30 3351 C 328.423 0.294807 -3.39623 0
M  V30 3352 H 329.616 -1.36198 -2.67189 0
M  V30 3353 H 327.169 -0.743042 -1.37508 0
M  V30 3354 H 327.904 1.18658 -3.01813 0
M  V30 3355 H 327.689 -0.35012 -3.90534 0
M  V30 3356 H 329.179 0.614089 -4.1306 0
M  V30 3357 N 329.616 1.39756 -0.72842 0
M  V30 3358 C 330.862 2.00942 -0.273892 0
M  V30 3359 C 331.195 1.57656 1.13394 0
M  V30 3360 O 330.47 0.802434 1.77176 0
M  V30 3361 C 330.753 3.58211 -0.368346 0
M  V30 3362 C 330.606 4.11534 -1.81548 0
M  V30 3363 C 331.925 4.39372 0.253054 0
M  V30 3364 H 329.044 0.730047 -0.100996 0
M  V30 3365 H 331.686 1.66056 -0.923337 0
M  V30 3366 H 329.836 3.88061 0.184588 0
M  V30 3367 H 331.508 3.92431 -2.42478 0
M  V30 3368 H 329.751 3.65341 -2.33898 0
M  V30 3369 H 330.422 5.20682 -1.83288 0
M  V30 3370 H 332.898 4.15527 -0.218224 0
M  V30 3371 H 331.774 5.48677 0.156585 0
M  V30 3372 H 332.035 4.21358 1.33826 0
M  V30 3373 N 331.094 0.475555 1.50254 0
M  V30 3374 C 332.024 -0.30611 2.31485 0
M  V30 3375 C 333.005 -0.986228 1.38591 0
M  V30 3376 O 334.19 -0.982541 1.67511 0
M  V30 3377 C 331.32 -1.38588 3.1845 0
M  V30 3378 C 330.274 -0.827115 4.19932 0
M  V30 3379 C 329.6 -2.00551 4.95665 0
M  V30 3380 C 330.9 0.16463 5.2204 0
M  V30 3381 H 332.594 0.371866 2.97082 0
M  V30 3382 H 330.14 0.180282 1.42867 0
M  V30 3383 H 332.093 -1.94023 3.74076 0
M  V30 3384 H 330.817 -2.09269 2.50747 0
M  V30 3385 H 329.476 -0.294702 3.65414 0
M  V30 3386 H 329.124 -2.6994 4.2443 0
M  V30 3387 H 328.824 -1.63784 5.64313 0
M  V30 3388 H 330.348 -2.56468 5.54127 0
M  V30 3389 H 331.762 -0.300699 5.72511 0
M  V30 3390 H 330.159 0.446813 5.98434 0
M  V30 3391 H 331.229 1.08905 4.72512 0
M  V30 3392 N 332.573 -1.56217 0.208337 0
M  V30 3393 C 333.503 -2.22694 -0.702116 0
M  V30 3394 C 334.484 -1.19432 -1.2112 0
M  V30 3395 O 335.669 -1.47978 -1.25762 0
M  V30 3396 C 332.799 -2.8966 -1.9161 0
M  V30 3397 C 331.753 -3.9928 -1.5414 0
M  V30 3398 C 331.079 -4.53476 -2.83308 0
M  V30 3399 C 332.379 -5.17012 -0.741339 0
M  V30 3400 H 334.073 -2.99034 -0.147898 0
M  V30 3401 H 331.619 -1.43831 -0.0696951 0
M  V30 3402 H 333.572 -3.34852 -2.55836 0
M  V30 3403 H 332.296 -2.10746 -2.49507 0
M  V30 3404 H 330.955 -3.54799 -0.922668 0
M  V30 3405 H 330.603 -3.71308 -3.39322 0
M  V30 3406 H 330.303 -5.27451 -2.58976 0
M  V30 3407 H 331.827 -5.01378 -3.485 0
M  V30 3408 H 333.241 -5.58667 -1.28699 0
M  V30 3409 H 331.638 -5.97137 -0.595627 0
M  V30 3410 H 332.708 -4.8423 0.254851 0
M  V30 3411 N 334.051 0.0651679 -1.57465 0
M  V30 3412 C 334.981 1.07693 -2.07182 0
M  V30 3413 C 335.962 1.39962 -0.966673 0
M  V30 3414 O 337.147 1.49475 -1.2398 0
M  V30 3415 C 334.277 2.3885 -2.52127 0
M  V30 3416 C 333.231 2.20917 -3.66579 0
M  V30 3417 C 332.557 3.57515 -3.97601 0
M  V30 3418 C 333.857 1.62493 -4.9638 0
M  V30 3419 H 335.551 0.663199 -2.91962 0
M  V30 3420 H 333.097 0.317569 -1.40455 0
M  V30 3421 H 335.05 3.09928 -2.85522 0
M  V30 3422 H 333.774 2.82215 -1.64384 0
M  V30 3423 H 332.433 1.52279 -3.33477 0
M  V30 3424 H 332.081 3.98463 -3.06979 0
M  V30 3425 H 331.781 3.46353 -4.74672 0
M  V30 3426 H 333.305 4.30013 -4.33499 0
M  V30 3427 H 334.719 2.23445 -5.27963 0
M  V30 3428 H 333.116 1.62009 -5.77818 0
M  V30 3429 H 334.186 0.587041 -4.81333 0
M  V30 3430 N 335.529 1.53961 0.336706 0
M  V30 3431 C 336.459 1.85417 1.41925 0
M  V30 3432 C 337.44 0.709856 1.5458 0
M  V30 3433 O 338.625 0.962396 1.68676 0
M  V30 3434 C 335.755 2.06985 2.78881 0
M  V30 3435 C 334.709 3.22813 2.81026 0
M  V30 3436 C 334.035 3.29727 4.20932 0
M  V30 3437 C 335.335 4.60767 2.45949 0
M  V30 3438 H 337.029 2.76079 1.15848 0
M  V30 3439 H 334.575 1.32839 0.555859 0
M  V30 3440 H 336.528 2.27575 3.54665 0
M  V30 3441 H 335.252 1.13061 3.06406 0
M  V30 3442 H 333.911 3.0209 2.07695 0
M  V30 3443 H 333.559 2.33385 4.45579 0
M  V30 3444 H 333.259 4.07566 4.23277 0
M  V30 3445 H 334.783 3.52536 4.98549 0
M  V30 3446 H 336.197 4.81325 3.11446 0
M  V30 3447 H 334.594 5.4106 2.59566 0
M  V30 3448 H 335.664 4.6391 1.41122 0
M  V30 3449 N 337.007 -0.598083 1.45811 0
M  V30 3450 C 337.954 -1.7082 1.55207 0
M  V30 3451 C 338.924 -1.61278 0.39732 0
M  V30 3452 O 340.109 -1.80717 0.612038 0
M  V30 3453 C 337.249 -3.09144 1.53376 0
M  V30 3454 C 336.362 -3.29423 2.79472 0
M  V30 3455 C 335.497 -4.57907 2.69248 0
M  V30 3456 C 334.536 -4.71476 3.90354 0
M  V30 3457 N 333.673 -5.9127 3.78608 0
M  V30 3458 H 338.513 -1.62125 2.50039 0
M  V30 3459 H 336.05 -0.790389 1.24062 0
M  V30 3460 H 338.008 -3.89186 1.50301 0
M  V30 3461 H 336.638 -3.16773 0.620876 0
M  V30 3462 H 335.69 -2.43091 2.92594 0
M  V30 3463 H 337.002 -3.3532 3.69272 0
M  V30 3464 H 336.156 -5.46157 2.64192 0
M  V30 3465 H 334.895 -4.54423 1.77063 0
M  V30 3466 H 333.9 -3.81648 3.95759 0
M  V30 3467 H 335.125 -4.76751 4.83617 0
M  V30 3468 H 333.071 -5.88813 2.89199 0
M  V30 3469 H 332.988 -5.98369 4.6205 0
M  V30 3470 H 334.256 -6.81992 3.77501 0
M  V30 3471 N 338.485 -1.33259 -0.841409 0
M  V30 3472 C 339.901 -1.12538 -1.13169 0
M  V30 3473 C 340.101 0.0854037 -2.01319 0
M  V30 3474 O 339.157 0.766417 -2.40587 0
M  V30 3475 C 340.47 -2.41156 -1.79623 0
M  V30 3476 C 342.018 -2.47038 -1.922 0
M  V30 3477 C 342.493 -3.7561 -2.6207 0
M  V30 3478 N 343.984 -3.76667 -2.69585 0
M  V30 3479 C 344.719 -4.72861 -3.2433 0
M  V30 3480 N 344.215 -5.79428 -3.79783 0
M  V30 3481 N 346.008 -4.6034 -3.22558 0
M  V30 3482 H 338.159 -2.10868 -0.254676 0
M  V30 3483 H 340.422 -0.931615 -0.175493 0
M  V30 3484 H 340.128 -3.29747 -1.22311 0
M  V30 3485 H 340.002 -2.53114 -2.79666 0
M  V30 3486 H 342.389 -1.58898 -2.48667 0
M  V30 3487 H 342.47 -2.39022 -0.911148 0
M  V30 3488 H 342.114 -4.64131 -2.06263 0
M  V30 3489 H 342.044 -3.80902 -3.63622 0
M  V30 3490 H 344.535 -2.99648 -2.30259 0
M  V30 3491 H 344.848 -6.48867 -4.19752 0
M  V30 3492 H 343.193 -5.83166 -3.78078 0
M  V30 3493 H 346.384 -3.76244 -2.78492 0
M  V30 3494 H 346.557 -5.35478 -3.64921 0
M  V30 3495 N 339.963 1.05934 -1.16686 0
M  V30 3496 C 340.896 2.1295 -0.820225 0
M  V30 3497 C 341.874 1.61242 0.209722 0
M  V30 3498 O 343.058 1.88271 0.0929688 0
M  V30 3499 C 340.185 3.3797 -0.22223 0
M  V30 3500 C 339.231 4.08488 -1.22637 0
M  V30 3501 S 340.064 4.58015 -2.77457 0
M  V30 3502 C 341.22 5.86292 -2.19117 0
M  V30 3503 H 341.453 2.42025 -1.72659 0
M  V30 3504 H 338.986 1.18423 -0.990722 0
M  V30 3505 H 340.944 4.10335 0.116322 0
M  V30 3506 H 339.605 3.07045 0.66196 0
M  V30 3507 H 338.798 4.98291 -0.756455 0
M  V30 3508 H 338.4 3.42154 -1.51019 0
M  V30 3509 H 340.692 6.59246 -1.56209 0
M  V30 3510 H 341.635 6.38019 -3.07144 0
M  V30 3511 H 342.043 5.40497 -1.62858 0
M  V30 3512 N 341.441 0.965919 1.2453 0
M  V30 3513 C 342.666 0.643971 1.97149 0
M  V30 3514 C 343.091 -0.779487 1.71189 0
M  V30 3515 O 342.449 -1.5288 0.974553 0
M  V30 3516 C 342.497 0.922557 3.48599 0
M  V30 3517 O 341.601 0.00707672 4.12399 0
M  V30 3518 H 340.942 0.243647 0.617683 0
M  V30 3519 H 343.472 1.29558 1.58353 0
M  V30 3520 H 343.482 0.853373 3.98976 0
M  V30 3521 H 342.157 1.95996 3.66822 0
M  V30 3522 H 340.734 0.12943 3.72675 0
M  V30 3523 N 342.919 -1.39368 0.735821 0
M  V30 3524 C 343.866 -2.30599 0.0963825 0
M  V30 3525 C 344.836 -1.49257 -0.728794 0
M  V30 3526 O 346.021 -1.77941 -0.688588 0
M  V30 3527 C 343.161 -3.35596 -0.804305 0
M  V30 3528 C 342.274 -4.31987 0.0335761 0
M  V30 3529 C 341.409 -5.24053 -0.868461 0
M  V30 3530 C 340.448 -6.12095 -0.0258776 0
M  V30 3531 N 339.585 -6.96514 -0.883893 0
M  V30 3532 H 344.425 -2.8471 0.880002 0
M  V30 3533 H 341.962 -1.40188 0.445619 0
M  V30 3534 H 343.92 -3.95062 -1.34096 0
M  V30 3535 H 342.55 -2.82938 -1.55389 0
M  V30 3536 H 341.602 -3.74133 0.68766 0
M  V30 3537 H 342.914 -4.94074 0.685036 0
M  V30 3538 H 342.068 -5.88549 -1.47293 0
M  V30 3539 H 340.807 -4.62289 -1.5537 0
M  V30 3540 H 339.812 -5.4661 0.591386 0
M  V30 3541 H 341.037 -6.75923 0.656156 0
M  V30 3542 H 338.983 -6.37318 -1.55441 0
M  V30 3543 H 338.9 -7.55448 -0.288931 0
M  V30 3544 H 340.168 -7.65439 -1.4739 0
M  V30 3545 N 344.397 -0.483516 -1.5 0
M  V30 3546 C 345.329 0.340634 -2.26655 0
M  V30 3547 C 346.342 0.946152 -1.32483 0
M  V30 3548 O 347.531 0.832453 -1.579 0
M  V30 3549 C 344.631 1.4929 -3.04246 0
M  V30 3550 C 343.804 0.997903 -4.25865 0
M  V30 3551 C 342.863 2.02569 -4.85646 0
M  V30 3552 O 341.889 1.60128 -5.46212 0
M  V30 3553 N 343.091 3.3548 -4.73744 0
M  V30 3554 H 345.856 -0.316577 -2.98023 0
M  V30 3555 H 343.417 -0.315024 -1.58806 0
M  V30 3556 H 345.409 2.17766 -3.41116 0
M  V30 3557 H 343.979 2.05458 -2.35597 0
M  V30 3558 H 343.199 0.138617 -3.93956 0
M  V30 3559 H 344.487 0.645305 -5.04691 0
M  V30 3560 H 343.885 3.72661 -4.25605 0
M  V30 3561 H 342.442 3.99718 -5.14848 0
M  V30 3562 N 345.875 1.56104 -0.216619 0
M  V30 3563 C 347.123 1.97781 0.415593 0
M  V30 3564 C 347.444 1.10536 1.60645 0
M  V30 3565 O 346.714 0.181303 1.95059 0
M  V30 3566 H 345.294 0.730415 0.156534 0
M  V30 3567 H 347.956 1.92445 -0.308366 0
M  V30 3568 H 347.052 3.03072 0.74525 0
M  V30 3569 N 347.353 -0.0568162 1.57498 0
M  V30 3570 C 348.769 -0.411933 1.54192 0
M  V30 3571 C 348.969 -1.78287 0.938942 0
M  V30 3572 O 348.025 -2.46483 0.547919 0
M  V30 3573 C 349.338 -0.339244 2.9878 0
M  V30 3574 C 350.886 -0.418348 3.10192 0
M  V30 3575 C 351.361 -0.375407 4.56459 0
M  V30 3576 N 352.852 -0.435038 4.61153 0
M  V30 3577 C 353.587 -0.424265 5.71828 0
M  V30 3578 N 353.083 -0.367418 6.91825 0
M  V30 3579 N 354.876 -0.471938 5.60115 0
M  V30 3580 H 347.027 0.840684 1.95055 0
M  V30 3581 H 349.29 0.316987 0.893433 0
M  V30 3582 H 348.996 0.601742 3.46514 0
M  V30 3583 H 348.87 -1.14371 3.59443 0
M  V30 3584 H 351.257 -1.34976 2.62422 0
M  V30 3585 H 351.338 0.414962 2.52412 0
M  V30 3586 H 350.982 0.552219 5.04889 0
M  V30 3587 H 350.912 -1.22645 5.12119 0
M  V30 3588 H 353.403 -0.482612 3.74806 0
M  V30 3589 H 353.716 -0.363535 7.71944 0
M  V30 3590 H 352.061 -0.333879 6.94198 0
M  V30 3591 H 355.252 -0.514145 4.65268 0
M  V30 3592 H 355.425 -0.460073 6.46365 0
M  V30 3593 N 348.832 -1.54138 -0.328536 0
M  V30 3594 C 350.06 -1.76062 -1.08673 0
M  V30 3595 C 350.475 -0.506852 -1.81869 0
M  V30 3596 O 349.832 0.522223 -1.74869 0
M  V30 3597 C 349.883 -2.95054 -2.08866 0
M  V30 3598 O 349.604 -4.15583 -1.38644 0
M  V30 3599 C 351.105 -3.2915 -2.96943 0
M  V30 3600 H 348.325 -0.587889 -0.323461 0
M  V30 3601 H 350.869 -2.0101 -0.376175 0
M  V30 3602 H 349.024 -2.72394 -2.75464 0
M  V30 3603 H 349.438 -4.82481 -2.05699 0
M  V30 3604 H 350.912 -4.15723 -3.63151 0
M  V30 3605 H 351.389 -2.461 -3.63774 0
M  V30 3606 H 351.995 -3.53871 -2.35914 0
M  V30 3607 N 350.31 0.590341 -1.46126 0
M  V30 3608 C 351.559 1.34499 -1.50309 0
M  V30 3609 C 351.872 1.94977 -0.156021 0
M  V30 3610 O 353.078 2.71395 -0.0756037 0
M  V30 3611 C 351.534 2.43723 -2.64815 0
M  V30 3612 C 351.142 1.89582 -4.0591 0
M  V30 3613 C 352.886 3.20579 -2.78262 0
M  V30 3614 C 350.793 2.9639 -5.11769 0
M  V30 3615 H 349.723 0.505593 -0.559368 0
M  V30 3616 H 352.374 0.630848 -1.72315 0
M  V30 3617 H 350.756 3.17902 -2.36124 0
M  V30 3618 H 351.93 1.21997 -4.44357 0
M  V30 3619 H 350.245 1.25418 -3.97063 0
M  V30 3620 H 352.842 4.00276 -3.54519 0
M  V30 3621 H 353.185 3.72684 -1.85505 0
M  V30 3622 H 353.718 2.53505 -3.06562 0
M  V30 3623 H 350.457 2.49181 -6.06291 0
M  V30 3624 H 349.977 3.62487 -4.77873 0
M  V30 3625 H 351.656 3.60474 -5.37278 0
M  V30 3626 N 351.788 1.33704 0.83433 0
M  V30 3627 C 353.037 1.24763 1.58484 0
M  V30 3628 C 353.35 -0.183775 1.94735 0
M  V30 3629 O 354.556 -0.395234 2.68608 0
M  V30 3630 C 353.012 2.18638 2.85876 0
M  V30 3631 C 352.62 3.66974 2.56971 0
M  V30 3632 C 354.364 2.18581 3.63899 0
M  V30 3633 C 352.271 4.5275 3.80488 0
M  V30 3634 H 351.201 0.463425 0.594772 0
M  V30 3635 H 353.852 1.58797 0.919551 0
M  V30 3636 H 352.234 1.77542 3.5397 0
M  V30 3637 H 353.408 4.16538 1.9706 0
M  V30 3638 H 351.723 3.69366 1.92244 0
M  V30 3639 H 354.32 2.79894 4.55591 0
M  V30 3640 H 354.663 1.18207 3.99165 0
M  V30 3641 H 355.196 2.58062 3.02735 0
M  V30 3642 H 351.935 5.54017 3.5035 0
M  V30 3643 H 351.455 4.07927 4.39722 0
M  V30 3644 H 353.134 4.66784 4.4802 0
M  V30 3645 N 353.266 -1.05314 1.17247 0
M  V30 3646 C 354.513 -1.78293 0.960091 0
M  V30 3647 C 354.841 -1.87658 -0.51136 0
M  V30 3648 O 354.096 -1.3718 -1.39571 0
M  V30 3649 C 354.395 -3.2229 1.54479 0
M  V30 3650 C 354.061 -3.32987 3.04024 0
M  V30 3651 C 352.723 -3.35613 3.44844 0
M  V30 3652 C 355.075 -3.34102 4.00031 0
M  V30 3653 C 352.403 -3.36982 4.8027 0
M  V30 3654 C 354.755 -3.3701 5.35357 0
M  V30 3655 C 353.419 -3.37923 5.75642 0
M  V30 3656 H 352.689 -0.652422 0.351322 0
M  V30 3657 H 355.336 -1.23782 1.46117 0
M  V30 3658 H 353.641 -3.7972 0.965391 0
M  V30 3659 H 355.338 -3.77376 1.35603 0
M  V30 3660 H 351.928 -3.31655 2.71483 0
M  V30 3661 H 356.112 -3.31276 3.69554 0
M  V30 3662 H 351.368 -3.35999 5.10798 0
M  V30 3663 H 355.542 -3.36822 6.09528 0
M  V30 3664 H 353.169 -3.38738 6.80559 0
M  V30 3665 N 354.744 -0.972509 -1.24016 0
M  V30 3666 C 355.969 -0.654417 -1.96805 0
M  V30 3667 C 356.394 0.770398 -1.716 0
M  V30 3668 O 355.752 1.52361 -0.982647 0
M  V30 3669 C 355.8 -0.941031 -3.48105 0
M  V30 3670 O 354.904 -0.0289472 -4.1239 0
M  V30 3671 H 354.245 -0.24692 -0.616382 0
M  V30 3672 H 356.775 -1.30396 -1.57664 0
M  V30 3673 H 356.785 -0.87452 -3.98517 0
M  V30 3674 H 355.46 -1.97939 -3.65777 0
M  V30 3675 H 354.037 -0.149192 -3.72601 0
M  V30 3676 N 356.222 1.38976 -0.743202 0
M  V30 3677 C 357.471 1.99581 -0.291592 0
M  V30 3678 C 357.784 1.59656 1.13001 0
M  V30 3679 O 358.99 2.13157 1.68156 0
M  V30 3680 C 357.446 3.56813 -0.470391 0
M  V30 3681 C 357.054 4.05695 -1.90041 0
M  V30 3682 C 358.798 4.24423 -0.0809709 0
M  V30 3683 C 356.705 5.5553 -2.02832 0
M  V30 3684 H 355.635 0.746615 -0.105272 0
M  V30 3685 H 358.286 1.58872 -0.918258 0
M  V30 3686 H 356.668 3.95359 0.225299 0
M  V30 3687 H 357.842 3.78464 -2.62872 0
M  V30 3688 H 356.157 3.50775 -2.24379 0
M  V30 3689 H 358.754 5.34474 -0.155445 0
M  V30 3690 H 359.097 4.04962 0.96497 0
M  V30 3691 H 359.63 3.9108 -0.728124 0
M  V30 3692 H 356.369 5.79881 -3.05643 0
M  V30 3693 H 355.889 5.84537 -1.34448 0
M  V30 3694 H 357.568 6.21069 -1.81335 0
M  V30 3695 N 357.7 0.491464 1.49741 0
M  V30 3696 C 358.65 -0.311086 2.25868 0
M  V30 3697 C 359.634 -0.943857 1.30308 0
M  V30 3698 O 360.826 -0.853035 1.55088 0
M  V30 3699 C 357.955 -1.38059 3.14316 0
M  V30 3700 C 357.041 -0.754541 4.17334 0
M  V30 3701 N 357.432 0.137216 5.05614 0
M  V30 3702 C 355.73 -1.01621 4.34269 0
M  V30 3703 C 356.431 0.494614 5.79593 0
M  V30 3704 N 355.407 -0.135169 5.43432 0
M  V30 3705 H 359.209 0.37555 2.91491 0
M  V30 3706 H 356.723 0.306917 1.59473 0
M  V30 3707 H 358.72 -1.96891 3.67477 0
M  V30 3708 H 357.38 -2.06901 2.50244 0
M  V30 3709 H 358.391 0.50741 5.15408 0
M  V30 3710 H 355.068 -1.69808 3.81407 0
M  V30 3711 H 356.458 1.2236 6.60665 0
M  V30 3712 N 359.178 -1.55987 0.224894 0
M  V30 3713 C 360.11 -2.17722 -0.716224 0
M  V30 3714 C 361.123 -1.14723 -1.15509 0
M  V30 3715 O 362.312 -1.41688 -1.08567 0
M  V30 3716 C 359.412 -2.74873 -1.98238 0
M  V30 3717 C 358.585 -4.03074 -1.69853 0
M  V30 3718 C 357.644 -4.44757 -2.81208 0
M  V30 3719 O 356.67 -5.11587 -2.49534 0
M  V30 3720 N 357.872 -4.10716 -4.10235 0
M  V30 3721 H 360.637 -2.99109 -0.188123 0
M  V30 3722 H 358.198 -1.6184 0.0440123 0
M  V30 3723 H 360.19 -2.99727 -2.7193 0
M  V30 3724 H 358.76 -1.9777 -2.42086 0
M  V30 3725 H 357.98 -3.86041 -0.797875 0
M  V30 3726 H 359.268 -4.86701 -1.48324 0
M  V30 3727 H 358.666 -3.57019 -4.38809 0
M  V30 3728 H 357.223 -4.40455 -4.80461 0
M  V30 3729 N 360.656 0.0484629 -1.57525 0
M  V30 3730 C 362.067 0.597486 -1.76881 0
M  V30 3731 C 362.418 1.76664 -0.853475 0
M  V30 3732 O 361.543 2.16357 -0.0433656 0
M  V30 3733 C 362.138 1.09066 -3.20765 0
M  V30 3734 C 360.697 1.58535 -3.41385 0
M  V30 3735 C 359.844 0.514868 -2.72478 0
M  V30 3736 H 362.795 -0.177758 -1.57701 0
M  V30 3737 H 362.816 1.95875 -3.2621 0
M  V30 3738 H 362.328 0.239521 -3.8736 0
M  V30 3739 H 360.429 2.45898 -2.79937 0
M  V30 3740 H 360.542 1.64622 -4.49929 0
M  V30 3741 H 358.906 0.965407 -2.35695 0
M  V30 3742 H 359.689 -0.32648 -3.41744 0
M  V30 3743 N 362.134 1.5431 0.320358 0
M  V30 3744 C 363.55 1.45091 0.664889 0
M  V30 3745 C 363.75 0.626382 1.91517 0
M  V30 3746 O 362.806 0.126443 2.52183 0
M  V30 3747 C 364.119 2.88848 0.83591 0
M  V30 3748 C 365.667 2.9877 0.933046 0
M  V30 3749 C 366.142 4.43683 1.13621 0
M  V30 3750 N 367.633 4.47309 1.20287 0
M  V30 3751 C 368.368 5.56595 1.37801 0
M  V30 3752 N 367.864 6.75844 1.52338 0
M  V30 3753 N 369.657 5.44248 1.40535 0
M  V30 3754 H 361.808 2.06398 -0.501374 0
M  V30 3755 H 364.071 0.933963 -0.162534 0
M  V30 3756 H 363.777 3.51698 -0.0116092 0
M  V30 3757 H 363.651 3.35148 1.73078 0
M  V30 3758 H 366.038 2.36045 1.77107 0
M  V30 3759 H 366.119 2.55796 0.0145782 0
M  V30 3760 H 365.763 5.06995 0.303032 0
M  V30 3761 H 365.693 4.84269 2.0686 0
M  V30 3762 H 368.184 3.61388 1.10485 0
M  V30 3763 H 368.497 7.54892 1.65403 0
M  V30 3764 H 366.842 6.78746 1.4943 0
M  V30 3765 H 370.033 4.50038 1.28777 0
M  V30 3766 H 370.206 6.29473 1.53842 0
M  V30 3767 N 363.613 -0.582584 1.46437 0
M  V30 3768 C 364.843 -1.36484 1.55099 0
M  V30 3769 C 365.251 -1.88233 0.191056 0
M  V30 3770 O 364.594 -1.6429 -0.821858 0
M  V30 3771 C 364.656 -2.588 2.49525 0
M  V30 3772 C 364.32 -2.28517 3.95764 0
M  V30 3773 C 365.317 -1.87346 4.84972 0
M  V30 3774 C 363.002 -2.40658 4.40896 0
M  V30 3775 C 364.996 -1.5871 6.17325 0
M  V30 3776 C 362.683 -2.11635 5.73284 0
M  V30 3777 C 363.681 -1.70725 6.61318 0
M  V30 3778 O 363.369 -1.42057 7.91249 0
M  V30 3779 H 363.101 -0.423297 0.527063 0
M  V30 3780 H 365.655 -0.715188 1.92547 0
M  V30 3781 H 363.885 -3.26571 2.07095 0
M  V30 3782 H 365.574 -3.20868 2.48593 0
M  V30 3783 H 366.34 -1.77481 4.5136 0
M  V30 3784 H 362.219 -2.71463 3.72598 0
M  V30 3785 H 365.763 -1.26704 6.85997 0
M  V30 3786 H 361.66 -2.21124 6.06444 0
M  V30 3787 H 362.428 -1.55901 8.03515 0
M  V30 3788 N 365.091 -1.34144 -0.827227 0
M  V30 3789 C 366.316 -1.29476 -1.62021 0
M  V30 3790 C 366.741 0.129292 -1.87655 0
M  V30 3791 O 366.099 1.08967 -1.449 0
M  V30 3792 C 366.147 -2.08702 -2.94068 0
M  V30 3793 O 365.251 -1.45359 -3.85933 0
M  V30 3794 H 364.592 -0.444881 -0.492927 0
M  V30 3795 H 367.122 -1.76882 -1.02829 0
M  V30 3796 H 367.132 -2.19898 -3.43669 0
M  V30 3797 H 365.807 -3.12241 -2.74734 0
M  V30 3798 H 364.384 -1.42879 -3.44442 0
M  V30 3799 N 366.569 1.04691 -1.17803 0
M  V30 3800 C 367.818 1.77176 -0.963931 0
M  V30 3801 C 368.131 1.88888 0.508015 0
M  V30 3802 O 369.337 2.58164 0.840465 0
M  V30 3803 C 367.793 3.18518 -1.67555 0
M  V30 3804 C 367.401 3.14919 -3.18637 0
M  V30 3805 C 369.145 3.95424 -1.54402 0
M  V30 3806 C 367.052 4.51081 -3.82466 0
M  V30 3807 H 365.982 0.664116 -0.357023 0
M  V30 3808 H 368.633 1.17303 -1.4111 0
M  V30 3809 H 367.015 3.78748 -1.15613 0
M  V30 3810 H 368.189 2.64178 -3.77554 0
M  V30 3811 H 366.504 2.51512 -3.31859 0
M  V30 3812 H 369.101 4.96106 -1.99456 0
M  V30 3813 H 369.444 4.13343 -0.495329 0
M  V30 3814 H 369.977 3.41754 -2.0359 0
M  V30 3815 H 366.716 4.38368 -4.87354 0
M  V30 3816 H 366.236 5.01951 -3.28337 0
M  V30 3817 H 367.915 5.2001 -3.84965 0
M  V30 3818 N 368.047 0.979072 1.23499 0
M  V30 3819 C 369.294 0.647219 1.91878 0
M  V30 3820 C 369.622 -0.819074 1.76413 0
M  V30 3821 O 368.877 -1.60616 1.11808 0
M  V30 3822 C 369.176 0.981932 3.43646 0
M  V30 3823 C 368.842 2.43822 3.79291 0
M  V30 3824 C 367.504 2.83622 3.88731 0
M  V30 3825 C 369.856 3.3828 3.96505 0
M  V30 3826 C 367.184 4.16897 4.12812 0
M  V30 3827 C 369.536 4.71197 4.22085 0
M  V30 3828 C 368.2 5.10758 4.29747 0
M  V30 3829 H 367.47 0.236834 0.702133 0
M  V30 3830 H 370.117 1.23268 1.46551 0
M  V30 3831 H 368.422 0.314365 3.90537 0
M  V30 3832 H 370.119 0.703395 3.94783 0
M  V30 3833 H 366.709 2.11966 3.72516 0
M  V30 3834 H 370.893 3.0871 3.88603 0
M  V30 3835 H 366.149 4.47157 4.16966 0
M  V30 3836 H 370.323 5.44348 4.34348 0
M  V30 3837 H 367.95 6.1405 4.48159 0
M  V30 3838 N 369.525 -1.3858 0.750561 0
M  V30 3839 C 370.472 -2.30483 0.120835 0
M  V30 3840 C 371.442 -1.50022 -0.712923 0
M  V30 3841 O 372.627 -1.78662 -0.669676 0
M  V30 3842 C 369.767 -3.36431 -0.768666 0
M  V30 3843 C 368.88 -4.31927 0.0793922 0
M  V30 3844 C 368.015 -5.24944 -0.81283 0
M  V30 3845 C 367.054 -6.12088 0.0390447 0
M  V30 3846 N 366.191 -6.97412 -0.809969 0
M  V30 3847 H 371.031 -2.83761 0.91015 0
M  V30 3848 H 368.568 -1.39707 0.460463 0
M  V30 3849 H 370.526 -3.96462 -1.29898 0
M  V30 3850 H 369.156 -2.8457 -1.5238 0
M  V30 3851 H 368.208 -3.73382 0.727303 0
M  V30 3852 H 369.52 -4.93319 0.737401 0
M  V30 3853 H 368.674 -5.90078 -1.41042 0
M  V30 3854 H 367.413 -4.63911 -1.50458 0
M  V30 3855 H 366.418 -5.45952 0.649328 0
M  V30 3856 H 367.643 -6.75189 0.727809 0
M  V30 3857 H 365.589 -6.38931 -1.48672 0
M  V30 3858 H 365.506 -7.55712 -0.208789 0
M  V30 3859 H 366.774 -7.66959 -1.39263 0
M  V30 3860 N 371.003 -0.499398 -1.49478 0
M  V30 3861 C 371.933 0.269244 -2.31943 0
M  V30 3862 C 372.914 0.964054 -1.40143 0
M  V30 3863 O 374.099 0.955767 -1.69052 0
M  V30 3864 C 371.229 1.33504 -3.20615 0
M  V30 3865 C 370.183 0.760202 -4.21195 0
M  V30 3866 C 369.509 1.9264 -4.98792 0
M  V30 3867 C 370.809 -0.247661 -5.21712 0
M  V30 3868 H 372.503 -0.419082 -2.96452 0
M  V30 3869 H 370.049 -0.202988 -1.42562 0
M  V30 3870 H 372.002 1.88048 -3.77115 0
M  V30 3871 H 370.726 2.05253 -2.54045 0
M  V30 3872 H 369.385 0.23653 -3.65836 0
M  V30 3873 H 369.033 2.63154 -4.28671 0
M  V30 3874 H 368.733 1.54785 -5.66847 0
M  V30 3875 H 370.257 2.4762 -5.58137 0
M  V30 3876 H 371.671 0.209579 -5.72917 0
M  V30 3877 H 370.068 -0.541962 -5.97648 0
M  V30 3878 H 371.138 -1.16409 -4.7072 0
M  V30 3879 N 372.481 1.55866 -0.233164 0
M  V30 3880 C 373.728 1.98603 0.395374 0
M  V30 3881 C 374.056 1.12105 1.58942 0
M  V30 3882 O 373.311 0.168656 1.94972 0
M  V30 3883 C 373.61 3.46856 0.861724 0
M  V30 3884 C 373.276 4.50348 -0.223066 0
M  V30 3885 C 371.938 4.78371 -0.521038 0
M  V30 3886 C 374.29 5.12355 -0.956124 0
M  V30 3887 C 371.618 5.6568 -1.55638 0
M  V30 3888 C 373.97 6.00786 -1.98089 0
M  V30 3889 C 372.634 6.27148 -2.28565 0
M  V30 3890 H 371.904 0.726739 0.144677 0
M  V30 3891 H 374.551 1.88491 -0.338114 0
M  V30 3892 H 372.856 3.5423 1.67418 0
M  V30 3893 H 374.553 3.77302 1.35809 0
M  V30 3894 H 371.143 4.28596 0.0193234 0
M  V30 3895 H 375.327 4.90765 -0.739166 0
M  V30 3896 H 370.583 5.84365 -1.798 0
M  V30 3897 H 374.757 6.4788 -2.55391 0
M  V30 3898 H 372.384 6.94597 -3.08932 0
M  V30 3899 N 373.959 -0.0401083 1.57549 0
M  V30 3900 C 375.236 -0.767917 1.79896 0
M  V30 3901 C 375.616 -1.9416 0.82856 0
M  V30 3902 O 374.964 -2.2812 -0.131671 0
M  V30 3903 C 375.174 -1.2113 3.27305 0
M  V30 3904 C 376.522 -1.63175 3.91994 0
M  V30 3905 O 377.546 -1.30616 3.31388 0
M  V30 3906 O 376.405 -2.23565 4.98679 0
M  V30 3907 H 373.499 -0.370441 0.739393 0
M  V30 3908 H 376.045 -0.017737 1.69691 0
M  V30 3909 H 374.817 -0.372937 3.89519 0
M  V30 3910 H 374.44 -2.02183 3.42356 0
M  V30 3911 N 375.437 -1.54477 -0.31217 0
M  V30 3912 C 376.662 -1.77526 -1.07235 0
M  V30 3913 C 377.087 -0.527775 -1.80544 0
M  V30 3914 O 376.445 0.52121 -1.73646 0
M  V30 3915 C 376.493 -2.97535 -2.03728 0
M  V30 3916 O 375.597 -2.69878 -3.11833 0
M  V30 3917 H 374.938 -0.58792 -0.30862 0
M  V30 3918 H 377.468 -2.01532 -0.352993 0
M  V30 3919 H 377.478 -3.25198 -2.46395 0
M  V30 3920 H 376.153 -3.87996 -1.49774 0
M  V30 3921 H 374.73 -2.53199 -2.7376 0
M  V30 3922 N 376.915 0.57481 -1.46744 0
M  V30 3923 C 377.845 1.69337 -1.60771 0
M  V30 3924 C 378.826 1.63825 -0.457736 0
M  V30 3925 O 380.011 1.8172 -0.684947 0
M  V30 3926 C 377.141 3.0798 -1.60517 0
M  V30 3927 C 376.095 3.28327 -2.74564 0
M  V30 3928 C 375.421 4.67578 -2.59373 0
M  V30 3929 C 376.721 3.15398 -4.16319 0
M  V30 3930 H 378.415 1.57853 -2.54407 0
M  V30 3931 H 375.961 0.75799 -1.22436 0
M  V30 3932 H 377.914 3.86061 -1.68923 0
M  V30 3933 H 376.638 3.20381 -0.634305 0
M  V30 3934 H 375.297 2.52649 -2.65639 0
M  V30 3935 H 374.945 4.76755 -1.60353 0
M  V30 3936 H 374.645 4.82144 -3.35873 0
M  V30 3937 H 376.169 5.47817 -2.69682 0
M  V30 3938 H 377.583 3.83315 -4.26313 0
M  V30 3939 H 375.98 3.41482 -4.93468 0
M  V30 3940 H 377.05 2.12372 -4.3592 0
M  V30 3941 N 378.394 1.34581 0.820102 0
M  V30 3942 C 379.622 1.3018 1.60813 0
M  V30 3943 C 380.037 -0.123551 1.88395 0
M  V30 3944 O 379.394 -1.07148 1.47735 0
M  V30 3945 C 379.445 2.09312 2.94739 0
M  V30 3946 O 379.166 3.46288 2.68358 0
M  V30 3947 C 380.667 2.1234 3.89136 0
M  V30 3948 H 377.887 0.447726 0.499782 0
M  V30 3949 H 380.431 1.77237 1.02017 0
M  V30 3950 H 378.586 1.65889 3.50085 0
M  V30 3951 H 379 3.87227 3.53774 0
M  V30 3952 H 380.474 2.72126 4.80262 0
M  V30 3953 H 380.951 1.11854 4.24718 0
M  V30 3954 H 381.557 2.55864 3.39726 0
M  V30 3955 N 379.872 -1.04064 1.18357 0
M  V30 3956 C 380.802 -2.14001 0.934113 0
M  V30 3957 C 381.783 -1.69616 -0.128186 0
M  V30 3958 O 382.968 -1.94185 0.0244093 0
M  V30 3959 C 380.098 -3.44253 0.459066 0
M  V30 3960 C 379.052 -4.02261 1.46185 0
M  V30 3961 C 378.378 -5.27992 0.844322 0
M  V30 3962 C 379.678 -4.38432 2.83856 0
M  V30 3963 H 381.372 -2.35127 1.85352 0
M  V30 3964 H 378.918 -1.12998 0.892604 0
M  V30 3965 H 380.871 -4.20522 0.271907 0
M  V30 3966 H 379.595 -3.22813 -0.495912 0
M  V30 3967 H 378.254 -3.28074 1.63595 0
M  V30 3968 H 377.902 -5.02862 -0.117845 0
M  V30 3969 H 377.602 -5.67765 1.51384 0
M  V30 3970 H 379.126 -6.06938 0.667693 0
M  V30 3971 H 380.54 -5.05688 2.70098 0
M  V30 3972 H 378.937 -4.89254 3.47491 0
M  V30 3973 H 380.007 -3.4826 3.37406 0
M  V30 3974 N 381.35 -0.985608 -1.22978 0
M  V30 3975 C 382.28 -0.549649 -2.26939 0
M  V30 3976 C 383.261 0.419803 -1.64838 0
M  V30 3977 O 384.446 0.31203 -1.91677 0
M  V30 3978 C 381.576 0.143652 -3.47003 0
M  V30 3979 C 380.53 -0.743606 -4.21491 0
M  V30 3980 C 379.856 0.0822027 -5.34637 0
M  V30 3981 C 381.156 -2.03694 -4.80943 0
M  V30 3982 H 382.85 -1.41862 -2.63658 0
M  V30 3983 H 380.396 -0.683571 -1.26741 0
M  V30 3984 H 382.349 0.459985 -4.18882 0
M  V30 3985 H 381.073 1.04711 -3.09359 0
M  V30 3986 H 379.732 -1.04347 -3.51436 0
M  V30 3987 H 379.38 0.986359 -4.93234 0
M  V30 3988 H 379.08 -0.508377 -5.85397 0
M  V30 3989 H 380.604 0.392797 -6.09335 0
M  V30 3990 H 382.018 -1.78504 -5.44802 0
M  V30 3991 H 380.415 -2.57573 -5.42011 0
M  V30 3992 H 381.485 -2.72042 -4.01399 0
M  V30 3993 N 382.828 1.3818 -0.7579 0
M  V30 3994 C 383.791 2.28764 -0.141286 0
M  V30 3995 C 384.791 1.47388 0.642907 0
M  V30 3996 O 385.981 1.67781 0.468536 0
M  V30 3997 C 383.113 3.31184 0.808069 0
M  V30 3998 H 384.306 2.848 -0.939633 0
M  V30 3999 H 381.859 1.47212 -0.525191 0
M  V30 4000 H 382.594 2.80247 1.63193 0
M  V30 4001 H 382.379 3.91314 0.248104 0
M  V30 4002 H 383.869 3.98909 1.23536 0
M  V30 4003 N 384.306 0.507319 1.49211 0
M  V30 4004 C 385.531 -0.033725 2.07373 0
M  V30 4005 C 385.956 -1.29485 1.36437 0
M  V30 4006 O 385.314 -1.76294 0.423087 0
M  V30 4007 C 385.362 -0.263945 3.59633 0
M  V30 4008 O 384.466 -1.33737 3.90113 0
M  V30 4009 H 383.807 0.0290331 0.663365 0
M  V30 4010 H 386.337 0.708749 1.91932 0
M  V30 4011 H 386.347 -0.493536 4.05004 0
M  V30 4012 H 385.022 0.657424 4.10671 0
M  V30 4013 H 383.599 -1.09224 3.56545 0
M  V30 4014 N 385.784 -1.5574 0.241426 0
M  V30 4015 C 387.032 -1.98417 -0.384075 0
M  V30 4016 C 387.353 -1.13078 -1.58866 0
M  V30 4017 O 386.623 -0.212312 -1.94746 0
M  V30 4018 H 385.203 -0.732813 -0.144894 0
M  V30 4019 H 387.865 -1.9193 0.338943 0
M  V30 4020 H 386.961 -3.04219 -0.696939 0
M  V30 4021 N 387.262 0.0317525 -1.57568 0
M  V30 4022 C 388.678 0.38735 -1.54828 0
M  V30 4023 C 388.878 1.7677 -0.967187 0
M  V30 4024 O 387.934 2.45581 -0.587063 0
M  V30 4025 C 389.247 0.291667 -2.99282 0
M  V30 4026 C 390.795 0.368946 -3.10818 0
M  V30 4027 C 391.27 0.302741 -4.56998 0
M  V30 4028 N 392.761 0.361617 -4.61786 0
M  V30 4029 C 393.496 0.333238 -5.72431 0
M  V30 4030 N 392.992 0.257308 -6.92322 0
M  V30 4031 N 394.785 0.382769 -5.60795 0
M  V30 4032 H 386.936 -0.871609 -1.93692 0
M  V30 4033 H 389.199 -0.331161 -0.888277 0
M  V30 4034 H 388.905 -0.656794 -3.45513 0
M  V30 4035 H 388.779 1.08638 -3.61217 0
M  V30 4036 H 391.166 1.30784 -2.64536 0
M  V30 4037 H 391.247 -0.455066 -2.5172 0
M  V30 4038 H 390.891 -0.632473 -5.03947 0
M  V30 4039 H 390.821 1.14482 -5.14005 0
M  V30 4040 H 393.312 0.422923 -3.75526 0
M  V30 4041 H 393.625 0.24068 -7.72425 0
M  V30 4042 H 391.97 0.223396 -6.94641 0
M  V30 4043 H 395.161 0.44006 -4.66027 0
M  V30 4044 H 395.334 0.357184 -6.47015 0
M  V30 4045 N 388.74 1.54641 0.303973 0
M  V30 4046 C 389.67 1.88386 1.3796 0
M  V30 4047 C 390.651 0.742485 1.5304 0
M  V30 4048 O 391.836 0.997959 1.66597 0
M  V30 4049 C 388.966 2.12854 2.74427 0
M  V30 4050 C 387.92 3.28702 2.74115 0
M  V30 4051 C 387.246 3.38582 4.13844 0
M  V30 4052 C 388.546 4.65881 2.3612 0
M  V30 4053 H 390.24 2.78474 1.09966 0
M  V30 4054 H 387.786 1.33988 0.527556 0
M  V30 4055 H 389.739 2.35047 3.49758 0
M  V30 4056 H 388.463 1.19535 3.03939 0
M  V30 4057 H 387.122 3.06428 2.0124 0
M  V30 4058 H 386.77 2.42784 4.40528 0
M  V30 4059 H 386.47 4.16453 4.14537 0
M  V30 4060 H 387.994 3.63031 4.90959 0
M  V30 4061 H 389.408 4.87823 3.01167 0
M  V30 4062 H 387.805 5.46444 2.48031 0
M  V30 4063 H 388.875 4.66799 1.3125 0
M  V30 4064 N 390.218 -0.567019 1.47046 0
M  V30 4065 C 391.151 -1.69016 1.53326 0
M  V30 4066 C 392.129 -1.57949 0.386126 0
M  V30 4067 O 393.313 -1.78945 0.592529 0
M  V30 4068 C 390.44 -3.07191 1.42658 0
M  V30 4069 C 389.486 -3.36733 2.6175 0
M  V30 4070 S 390.319 -3.27069 4.24012 0
M  V30 4071 C 391.475 -4.67755 4.1588 0
M  V30 4072 H 391.708 -1.63434 2.48348 0
M  V30 4073 H 389.241 -0.747048 1.35124 0
M  V30 4074 H 391.199 -3.86897 1.37191 0
M  V30 4075 H 389.86 -3.10249 0.490369 0
M  V30 4076 H 389.053 -4.37441 2.50323 0
M  V30 4077 H 388.655 -2.64627 2.64289 0
M  V30 4078 H 390.947 -5.58491 3.83529 0
M  V30 4079 H 391.89 -4.84239 5.16641 0
M  V30 4080 H 392.298 -4.45341 3.46889 0
M  V30 4081 N 391.696 -1.35014 -0.812953 0
M  V30 4082 C 392.943 -1.27931 -1.56971 0
M  V30 4083 C 393.271 0.148034 -1.93936 0
M  V30 4084 O 392.526 1.11175 -1.61054 0
M  V30 4085 C 392.825 -2.12524 -2.87347 0
M  V30 4086 C 392.491 -3.61401 -2.6963 0
M  V30 4087 C 391.153 -4.01983 -2.64506 0
M  V30 4088 C 393.505 -4.55894 -2.52607 0
M  V30 4089 C 390.833 -5.35235 -2.40293 0
M  V30 4090 C 393.185 -5.89336 -2.29925 0
M  V30 4091 C 391.849 -6.2907 -2.23219 0
M  V30 4092 H 391.119 -0.468131 -0.574399 0
M  V30 4093 H 393.766 -1.66851 -0.939836 0
M  V30 4094 H 392.071 -1.66463 -3.54679 0
M  V30 4095 H 393.768 -2.04383 -3.45005 0
M  V30 4096 H 390.358 -3.29193 -2.74463 0
M  V30 4097 H 394.542 -4.25431 -2.55583 0
M  V30 4098 H 389.798 -5.65028 -2.33566 0
M  V30 4099 H 393.972 -6.62139 -2.15743 0
M  V30 4100 H 391.599 -7.32256 -2.04219 0
M  V30 4101 N 393.175 1.03435 -1.18907 0
M  V30 4102 C 394.125 2.09924 -0.889706 0
M  V30 4103 C 395.109 1.60261 0.143216 0
M  V30 4104 O 396.301 1.76892 -0.0617122 0
M  V30 4105 C 393.43 3.40669 -0.424168 0
M  V30 4106 C 392.516 3.97082 -1.48952 0
M  V30 4107 N 392.907 4.27227 -2.70759 0
M  V30 4108 C 391.205 4.25029 -1.35152 0
M  V30 4109 C 391.906 4.7246 -3.39347 0
M  V30 4110 N 390.882 4.7366 -2.66735 0
M  V30 4111 H 394.684 2.31116 -1.81555 0
M  V30 4112 H 392.198 1.21246 -1.08042 0
M  V30 4113 H 394.195 4.16461 -0.191176 0
M  V30 4114 H 392.855 3.20901 0.495263 0
M  V30 4115 H 393.866 4.16678 -3.0757 0
M  V30 4116 H 390.543 4.14554 -0.495126 0
M  V30 4117 H 391.933 5.04751 -4.43481 0
M  V30 4118 N 394.653 0.992116 1.22453 0
M  V30 4119 C 395.901 0.666215 1.90804 0
M  V30 4120 C 396.222 -0.804152 1.77647 0
M  V30 4121 O 395.492 -1.57629 1.16318 0
M  V30 4122 H 394.072 0.243423 0.706225 0
M  V30 4123 H 396.734 1.25845 1.48825 0
M  V30 4124 H 395.83 0.928069 2.97982 0
M  V30 4125 N 396.131 -1.37776 0.765217 0
M  V30 4126 C 397.542 -1.82521 0.392819 0
M  V30 4127 C 397.893 -1.63789 -1.08017 0
M  V30 4128 O 397.018 -1.14542 -1.83601 0
M  V30 4129 C 397.613 -3.31358 0.706214 0
M  V30 4130 C 396.172 -3.74406 0.386952 0
M  V30 4131 C 395.319 -2.60394 0.953422 0
M  V30 4132 H 398.27 -1.2634 0.960412 0
M  V30 4133 H 398.291 -3.80498 -0.0114706 0
M  V30 4134 H 397.803 -3.44959 1.77833 0
M  V30 4135 H 395.904 -3.66377 -0.678112 0
M  V30 4136 H 396.017 -4.70749 0.890636 0
M  V30 4137 H 394.381 -2.51878 0.378064 0
M  V30 4138 H 395.164 -2.76791 2.03081 0
M  V30 4139 N 397.609 -0.515225 -1.4894 0
M  V30 4140 C 398.572 0.244681 -2.2789 0
M  V30 4141 C 399.572 0.881166 -1.34507 0
M  V30 4142 O 400.762 0.743497 -1.57537 0
M  V30 4143 C 397.894 1.35247 -3.12923 0
M  V30 4144 H 399.087 -0.448289 -2.96531 0
M  V30 4145 H 396.64 -0.270656 -1.53939 0
M  V30 4146 H 397.375 2.07916 -2.48881 0
M  V30 4147 H 397.16 0.901374 -3.81599 0
M  V30 4148 H 398.65 1.88737 -3.72516 0
M  V30 4149 N 399.087 1.5561 -0.249682 0
M  V30 4150 C 400.019 2.18834 0.681496 0
M  V30 4151 C 401.032 1.16546 1.1367 0
M  V30 4152 O 402.221 1.43397 1.06299 0
M  V30 4153 C 399.321 2.77992 1.9384 0
M  V30 4154 C 398.494 4.05725 1.63419 0
M  V30 4155 C 397.553 4.49174 2.74096 0
M  V30 4156 O 396.579 5.15492 2.41364 0
M  V30 4157 N 397.781 4.17191 4.03649 0
M  V30 4158 H 400.546 2.9937 0.140514 0
M  V30 4159 H 398.107 1.6175 -0.0697541 0
M  V30 4160 H 400.099 3.04015 2.67127 0
M  V30 4161 H 398.669 2.01596 2.38909 0
M  V30 4162 H 397.889 3.87261 0.736358 0
M  V30 4163 H 399.177 4.88999 1.40562 0
M  V30 4164 H 398.575 3.63955 4.33074 0
M  V30 4165 H 397.132 4.48043 4.73393 0
M  V30 4166 N 400.565 -0.0233959 1.57583 0
M  V30 4167 C 401.475 -1.03907 2.10334 0
M  V30 4168 C 402.491 -1.39257 1.04323 0
M  V30 4169 O 403.667 -1.48462 1.36091 0
M  V30 4170 C 400.732 -2.31938 2.57693 0
M  V30 4171 C 399.793 -2.03117 3.78209 0
M  V30 4172 C 399.026 -3.25043 4.233 0
M  V30 4173 O 399.249 -4.35916 3.67876 0
M  V30 4174 O 398.183 -3.10411 5.15683 0
M  V30 4175 H 402.009 -0.620748 2.97288 0
M  V30 4176 H 399.594 -0.240743 1.47448 0
M  V30 4177 H 401.476 -3.07196 2.88458 0
M  V30 4178 H 400.151 -2.73055 1.73847 0
M  V30 4179 H 399.058 -1.25408 3.52454 0
M  V30 4180 H 400.391 -1.66852 4.63056 0
M  V30 4181 N 402.043 -1.548 -0.295768 0
M  V30 4182 C 403.006 -1.85363 -1.34808 0
M  V30 4183 C 404.006 -0.726817 -1.43436 0
M  V30 4184 O 405.196 -0.995088 -1.42981 0
M  V30 4185 C 402.328 -2.03859 -2.73229 0
M  V30 4186 H 403.521 -2.7941 -1.08949 0
M  V30 4187 H 401.074 -1.46942 -0.532702 0
M  V30 4188 H 401.809 -1.12117 -3.04303 0
M  V30 4189 H 401.594 -2.8588 -2.68356 0
M  V30 4190 H 403.084 -2.28857 -3.49305 0
M  V30 4191 N 403.521 0.559213 -1.47345 0
M  V30 4192 C 404.451 1.67622 -1.62558 0
M  V30 4193 C 405.432 1.63331 -0.475087 0
M  V30 4194 O 406.617 1.80983 -0.704182 0
M  V30 4195 C 403.747 3.0626 -1.63774 0
M  V30 4196 C 402.701 3.25397 -2.7803 0
M  V30 4197 C 402.027 4.64801 -2.64318 0
M  V30 4198 C 403.327 3.10965 -4.19641 0
M  V30 4199 H 405.021 1.55146 -2.56067 0
M  V30 4200 H 402.567 0.744961 -1.23233 0
M  V30 4201 H 404.52 3.84247 -1.73008 0
M  V30 4202 H 403.244 3.1969 -0.66825 0
M  V30 4203 H 401.903 2.49817 -2.68304 0
M  V30 4204 H 401.551 4.75028 -1.65401 0
M  V30 4205 H 401.251 4.78555 -3.40968 0
M  V30 4206 H 402.775 5.44926 -2.75478 0
M  V30 4207 H 404.189 3.78772 -4.30354 0
M  V30 4208 H 402.586 3.36229 -4.97062 0
M  V30 4209 H 403.656 2.07736 -4.38148 0
M  V30 4210 N 404.999 1.35443 0.805782 0
M  V30 4211 C 406.247 1.28507 1.55982 0
M  V30 4212 C 406.568 -0.140046 1.94496 0
M  V30 4213 O 405.838 -1.07666 1.63661 0
M  V30 4214 H 404.418 0.472676 0.578434 0
M  V30 4215 H 407.08 1.69555 0.961098 0
M  V30 4216 H 406.176 1.90148 2.47488 0
M  V30 4217 N 406.477 -1.02803 1.19454 0
M  V30 4218 C 407.707 -1.79581 1.02149 0
M  V30 4219 C 408.115 -1.84182 -0.432851 0
M  V30 4220 O 407.458 -1.28534 -1.31243 0
M  V30 4221 C 407.52 -3.25993 1.51554 0
M  V30 4222 C 407.184 -3.45025 2.99678 0
M  V30 4223 C 408.181 -3.35175 3.97434 0
M  V30 4224 C 405.866 -3.71212 3.38389 0
M  V30 4225 C 407.86 -3.51238 5.31893 0
M  V30 4226 C 405.547 -3.8692 4.73008 0
M  V30 4227 C 406.545 -3.76936 5.69569 0
M  V30 4228 O 406.233 -3.92179 7.01748 0
M  V30 4229 H 405.965 -0.571962 0.360327 0
M  V30 4230 H 408.519 -1.30367 1.58725 0
M  V30 4231 H 406.749 -3.76235 0.893543 0
M  V30 4232 H 408.438 -3.84368 1.30444 0
M  V30 4233 H 409.204 -3.14895 3.68872 0
M  V30 4234 H 405.083 -3.78075 2.6378 0
M  V30 4235 H 408.627 -3.43362 6.07247 0
M  V30 4236 H 404.524 -4.06699 5.01265 0
M  V30 4237 H 405.292 -4.09265 7.08833 0
M  V30 4238 N 407.956 -0.998596 -1.21925 0
M  V30 4239 C 409.203 -0.677663 -1.90824 0
M  V30 4240 C 409.531 0.790905 -1.77693 0
M  V30 4241 O 408.786 1.58817 -1.14349 0
M  V30 4242 C 409.085 -1.03648 -3.42041 0
M  V30 4243 C 408.751 -2.49825 -3.75364 0
M  V30 4244 C 407.413 -2.8977 -3.8417 0
M  V30 4245 C 409.765 -3.44545 -3.91073 0
M  V30 4246 C 407.093 -4.23412 -4.06127 0
M  V30 4247 C 409.445 -4.77853 -4.14535 0
M  V30 4248 C 408.109 -5.17531 -4.21566 0
M  V30 4249 H 407.379 -0.247975 -0.698276 0
M  V30 4250 H 410.026 -1.25584 -1.44571 0
M  V30 4251 H 408.331 -0.376457 -3.89987 0
M  V30 4252 H 410.028 -0.766113 -3.93614 0
M  V30 4253 H 406.618 -2.17866 -3.69097 0
M  V30 4254 H 410.802 -3.14853 -3.83642 0
M  V30 4255 H 406.058 -4.53734 -4.09799 0
M  V30 4256 H 410.232 -5.51189 -4.25633 0
M  V30 4257 H 407.859 -6.21102 -4.38333 0
M  V30 4258 N 409.434 1.37368 -0.772513 0
M  V30 4259 C 410.344 2.34053 -0.160081 0
M  V30 4260 C 411.36 1.60216 0.678728 0
M  V30 4261 O 412.536 1.92303 0.59847 0
M  V30 4262 C 409.601 3.3939 0.708182 0
M  V30 4263 C 408.662 4.29048 -0.147172 0
M  V30 4264 C 407.895 5.29354 0.679744 0
M  V30 4265 O 408.118 5.3723 1.91678 0
M  V30 4266 O 407.052 6.01835 0.0885444 0
M  V30 4267 H 410.878 2.88159 -0.959053 0
M  V30 4268 H 408.463 1.39543 -0.533685 0
M  V30 4269 H 410.345 4.03839 1.20384 0
M  V30 4270 H 409.02 2.8761 1.48533 0
M  V30 4271 H 407.927 3.67697 -0.689205 0
M  V30 4272 H 409.26 4.84134 -0.887423 0
M  V30 4273 N 410.912 0.523116 1.48665 0
M  V30 4274 C 412.137 -0.0117284 2.07397 0
M  V30 4275 C 412.562 -1.28031 1.37803 0
M  V30 4276 O 411.92 -1.75836 0.441762 0
M  V30 4277 C 411.968 -0.225786 3.59892 0
M  V30 4278 O 411.072 -1.29592 3.91509 0
M  V30 4279 H 410.413 0.0360673 0.66302 0
M  V30 4280 H 412.943 0.729066 1.9117 0
M  V30 4281 H 412.953 -0.450552 4.05505 0
M  V30 4282 H 411.628 0.700944 4.09951 0
M  V30 4283 H 410.205 -1.05436 3.57684 0
M  V30 4284 N 412.39 -1.55475 0.257931 0
M  V30 4285 C 413.353 -2.20551 -0.623706 0
M  V30 4286 C 414.353 -1.17809 -1.09443 0
M  V30 4287 O 415.543 -1.42823 -0.997362 0
M  V30 4288 C 412.675 -2.85784 -1.8585 0
M  V30 4289 H 413.868 -2.99848 -0.0557743 0
M  V30 4290 H 411.421 -1.56298 0.0084422 0
M  V30 4291 H 412.156 -2.10453 -2.46739 0
M  V30 4292 H 411.941 -3.61057 -1.52907 0
M  V30 4293 H 413.431 -3.35553 -2.48584 0
M  V30 4294 N 413.868 0.0150385 -1.57593 0
M  V30 4295 C 415.116 0.701613 -1.8953 0
M  V30 4296 C 415.437 1.75139 -0.857396 0
M  V30 4297 O 414.707 1.95607 0.107194 0
M  V30 4298 H 413.287 0.26213 -0.699498 0
M  V30 4299 H 415.949 -0.0223304 -1.94887 0
M  V30 4300 H 415.045 1.18236 -2.88837 0
M  V30 4301 N 415.346 1.54954 0.287554 0
M  V30 4302 C 416.576 1.78622 1.03816 0
M  V30 4303 C 416.984 0.552451 1.80955 0
M  V30 4304 O 416.327 -0.487665 1.77109 0
M  V30 4305 C 416.389 2.94975 2.055 0
M  V30 4306 C 416.053 4.32565 1.47433 0
M  V30 4307 C 417.05 5.12096 0.897436 0
M  V30 4308 C 414.735 4.79195 1.50591 0
M  V30 4309 C 416.729 6.36383 0.359851 0
M  V30 4310 C 414.416 6.03441 0.964459 0
M  V30 4311 C 415.414 6.81872 0.392413 0
M  V30 4312 O 415.102 8.03777 -0.140788 0
M  V30 4313 H 414.834 0.599144 0.313053 0
M  V30 4314 H 417.388 2.02761 0.328225 0
M  V30 4315 H 415.618 2.66493 2.80211 0
M  V30 4316 H 417.307 3.06097 2.6657 0
M  V30 4317 H 418.073 4.77209 0.865841 0
M  V30 4318 H 413.952 4.18167 1.94055 0
M  V30 4319 H 417.496 6.97545 -0.0872951 0
M  V30 4320 H 413.393 6.37813 0.993246 0
M  V30 4321 H 414.161 8.18495 -0.0287617 0
M  V30 4322 N 416.824 -0.551391 1.4764 0
M  V30 4323 C 417.774 -1.65362 1.56969 0
M  V30 4324 C 418.758 -1.55098 0.428189 0
M  V30 4325 O 419.95 -1.63481 0.678441 0
M  V30 4326 C 417.079 -3.04129 1.59249 0
M  V30 4327 C 416.165 -3.19576 2.78804 0
M  V30 4328 N 416.556 -3.05067 4.03445 0
M  V30 4329 C 414.854 -3.50588 2.75688 0
M  V30 4330 C 415.555 -3.2336 4.83543 0
M  V30 4331 N 414.531 -3.4996 4.15968 0
M  V30 4332 H 418.333 -1.52722 2.51104 0
M  V30 4333 H 415.847 -0.756303 1.43714 0
M  V30 4334 H 417.844 -3.83278 1.64024 0
M  V30 4335 H 416.504 -3.17877 0.662148 0
M  V30 4336 H 417.515 -2.82273 4.34215 0
M  V30 4337 H 414.192 -3.70827 1.91817 0
M  V30 4338 H 415.582 -3.17061 5.92387 0
M  V30 4339 N 418.302 -1.35869 -0.798587 0
M  V30 4340 C 419.542 -1.30961 -1.56935 0
M  V30 4341 C 419.906 0.112404 -1.91671 0
M  V30 4342 O 421.107 0.285937 -2.67275 0
M  V30 4343 C 419.378 -2.19811 -2.81811 0
M  V30 4344 S 420.937 -2.32498 -3.72143 0
M  V30 4345 H 417.755 -0.465297 -0.537606 0
M  V30 4346 H 420.357 -1.71344 -0.941346 0
M  V30 4347 H 419.061 -3.22095 -2.54329 0
M  V30 4348 H 418.592 -1.80415 -3.49591 0
M  V30 4349 H 420.607 -1.5157 -4.72484 0
M  V30 4350 N 419.78 1.02168 -1.19998 0
M  V30 4351 C 420.69 2.14069 -0.959774 0
M  V30 4352 C 421.706 1.73804 0.082655 0
M  V30 4353 O 422.882 2.01133 -0.103633 0
M  V30 4354 C 419.947 3.42936 -0.509459 0
M  V30 4355 C 419.008 3.97474 -1.62213 0
M  V30 4356 C 418.241 5.2019 -1.19321 0
M  V30 4357 O 418.464 5.70369 -0.0597726 0
M  V30 4358 O 417.398 5.67749 -1.99863 0
M  V30 4359 H 421.224 2.37199 -1.89658 0
M  V30 4360 H 418.809 1.12469 -0.983411 0
M  V30 4361 H 420.691 4.20551 -0.267322 0
M  V30 4362 H 419.366 3.21234 0.398821 0
M  V30 4363 H 418.273 3.21161 -1.9185 0
M  V30 4364 H 419.606 4.23555 -2.50723 0
M  V30 4365 N 421.258 1.00505 1.21394 0
M  V30 4366 C 422.221 0.570459 2.21987 0
M  V30 4367 C 423.221 -0.353211 1.56873 0
M  V30 4368 O 424.411 -0.14349 1.73608 0
M  V30 4369 C 421.543 -0.168555 3.40483 0
M  V30 4370 H 422.736 1.46021 2.6195 0
M  V30 4371 H 420.289 0.793565 1.34656 0
M  V30 4372 H 421.024 -1.07374 3.06009 0
M  V30 4373 H 420.809 0.494823 3.88965 0
M  V30 4374 H 422.299 -0.460362 4.15055 0
M  V30 4375 N 422.737 -1.36956 0.779787 0
M  V30 4376 C 423.967 -2.03459 0.358877 0
M  V30 4377 C 424.375 -1.58939 -1.02641 0
M  V30 4378 O 423.718 -0.769777 -1.66794 0
M  V30 4379 C 423.78 -3.5796 0.332393 0
M  V30 4380 C 423.444 -4.25644 1.66362 0
M  V30 4381 C 424.441 -4.49205 2.61746 0
M  V30 4382 C 422.126 -4.63313 1.94027 0
M  V30 4383 C 424.12 -5.09503 3.82996 0
M  V30 4384 C 421.807 -5.2333 3.15546 0
M  V30 4385 C 422.805 -5.46363 4.0985 0
M  V30 4386 O 422.493 -6.05122 5.29228 0
M  V30 4387 H 422.225 -0.659767 0.147254 0
M  V30 4388 H 424.779 -1.76111 1.05708 0
M  V30 4389 H 423.009 -3.84388 -0.422237 0
M  V30 4390 H 424.698 -4.05852 -0.0625389 0
M  V30 4391 H 425.464 -4.20508 2.41657 0
M  V30 4392 H 421.343 -4.44715 1.21448 0
M  V30 4393 H 424.887 -5.27397 4.56617 0
M  V30 4394 H 420.784 -5.51451 3.35517 0
M  V30 4395 H 421.552 -6.23595 5.30161 0
M  V30 4396 N 424.215 -0.530993 -1.48385 0
M  V30 4397 C 425.163 0.244595 -2.3131 0
M  V30 4398 C 426.157 0.93451 -1.41291 0
M  V30 4399 O 427.363 0.85878 -1.58193 0
M  V30 4400 H 423.738 0.0977472 -0.74562 0
M  V30 4401 H 425.709 -0.474369 -2.94605 0
M  V30 4402 C 424.458 1.2779 -3.23365 0
M  V30 4403 H 423.781 0.756439 -3.92579 0
M  V30 4404 H 425.221 1.79198 -3.84271 0
M  V30 4405 C 423.68 2.31205 -2.45042 0
M  V30 4406 O 424.21 3.37661 -2.17596 0
M  V30 4407 N 422.416 2.04446 -2.0652 0
M  V30 4408 H 421.963 1.17891 -2.2904 0
M  V30 4409 H 421.921 2.73861 -1.54427 0
M  V30 4410 N 425.693 1.55336 -0.266172 0
M  V30 4411 C 426.641 2.23587 0.641228 0
M  V30 4412 C 427.635 1.22986 1.16494 0
M  V30 4413 O 428.841 1.40943 1.1196 0
M  V30 4414 H 425.216 0.717452 0.225315 0
M  V30 4415 H 427.187 2.9837 0.0426561 0
M  V30 4416 C 425.936 2.96369 1.81826 0
M  V30 4417 H 425.259 3.73563 1.42445 0
M  V30 4418 H 426.699 3.47459 2.42998 0
M  V30 4419 C 425.158 2.0133 2.70125 0
M  V30 4420 O 425.688 1.55875 3.70224 0
M  V30 4421 N 423.894 1.6802 2.37102 0
M  V30 4422 H 423.441 2.05181 1.55751 0
M  V30 4423 H 423.399 1.047 2.96454 0
M  V30 4424 N 427.171 -0.0066808 1.57599 0
M  V30 4425 C 428.582 -0.550379 1.78403 0
M  V30 4426 C 428.933 -1.74339 0.900014 0
M  V30 4427 O 428.058 -2.16166 0.100713 0
M  V30 4428 C 428.653 -1.00523 3.23544 0
M  V30 4429 C 427.212 -1.49428 3.45468 0
M  V30 4430 C 426.359 -0.442444 2.73748 0
M  V30 4431 H 429.31 0.219508 1.57175 0
M  V30 4432 H 429.331 -1.87157 3.31289 0
M  V30 4433 H 428.843 -0.136735 3.87859 0
M  V30 4434 H 426.944 -2.3839 2.86358 0
M  V30 4435 H 427.057 -1.52635 4.54136 0
M  V30 4436 H 425.421 -0.902578 2.38171 0
M  V30 4437 H 426.204 0.416973 3.40758 0
M  V30 4438 N 428.649 -1.55105 -0.279332 0
M  V30 4439 C 429.612 -1.86783 -1.32834 0
M  V30 4440 C 430.612 -0.74199 -1.42657 0
M  V30 4441 O 431.802 -1.0102 -1.41918 0
M  V30 4442 C 428.934 -2.06746 -2.71052 0
M  V30 4443 H 430.127 -2.8055 -1.05979 0
M  V30 4444 H 427.68 -1.47499 -0.517087 0
M  V30 4445 H 428.415 -1.15339 -3.03097 0
M  V30 4446 H 428.2 -2.88711 -2.65309 0
M  V30 4447 H 429.69 -2.32549 -3.46858 0
M  V30 4448 N 430.127 0.543554 -1.4793 0
M  V30 4449 C 431.404 1.30458 -1.4574 0
M  V30 4450 C 431.784 2.1048 -0.161692 0
M  V30 4451 O 431.132 2.11831 0.856734 0
M  V30 4452 C 431.342 2.19754 -2.71126 0
M  V30 4453 C 432.69 2.80334 -3.18901 0
M  V30 4454 O 433.714 2.30049 -2.71948 0
M  V30 4455 O 432.573 3.71766 -4.00565 0
M  V30 4456 H 429.667 0.588117 -0.581418 0
M  V30 4457 H 432.213 0.561328 -1.60147 0
M  V30 4458 H 430.985 1.60316 -3.56952 0
M  V30 4459 H 430.608 3.01351 -2.59371 0
M  V30 4460 N 431.605 1.3629 0.791371 0
M  V30 4461 C 432.852 1.30412 1.54916 0
M  V30 4462 C 433.18 -0.117162 1.94147 0
M  V30 4463 O 432.435 -1.08599 1.62803 0
M  V30 4464 C 432.734 2.17068 2.8393 0
M  V30 4465 C 432.4 3.65645 2.63846 0
M  V30 4466 C 431.062 4.0614 2.58077 0
M  V30 4467 C 433.414 4.59855 2.45322 0
M  V30 4468 C 430.742 5.3899 2.31748 0
M  V30 4469 C 433.094 5.9292 2.2052 0
M  V30 4470 C 431.758 6.32542 2.13183 0
M  V30 4471 H 431.028 0.47721 0.566879 0
M  V30 4472 H 433.675 1.68325 0.913172 0
M  V30 4473 H 431.98 1.72085 3.51986 0
M  V30 4474 H 433.677 2.09846 3.4171 0
M  V30 4475 H 430.267 3.33518 2.69191 0
M  V30 4476 H 434.451 4.29443 2.48782 0
M  V30 4477 H 429.707 5.68672 2.24548 0
M  V30 4478 H 433.881 6.65487 2.05182 0
M  V30 4479 H 431.508 7.35412 1.92544 0
M  V30 4480 N 433.083 -1.0153 1.20538 0
M  V30 4481 C 434.33 -1.75149 1.01633 0
M  V30 4482 C 434.658 -1.89189 -0.451399 0
M  V30 4483 O 433.913 -1.41551 -1.35136 0
M  V30 4484 C 434.212 -3.17213 1.64654 0
M  V30 4485 C 433.878 -3.23146 3.14464 0
M  V30 4486 C 432.54 -3.24472 3.55347 0
M  V30 4487 C 434.892 -3.21207 4.10458 0
M  V30 4488 C 432.22 -3.21532 4.90748 0
M  V30 4489 C 434.572 -3.19808 5.45807 0
M  V30 4490 C 433.236 -3.19439 5.86102 0
M  V30 4491 H 432.506 -0.640914 0.3719 0
M  V30 4492 H 435.153 -1.19071 1.49981 0
M  V30 4493 H 433.458 -3.76457 1.08571 0
M  V30 4494 H 435.155 -3.72871 1.4754 0
M  V30 4495 H 431.745 -3.2285 2.81897 0
M  V30 4496 H 435.929 -3.19351 3.79906 0
M  V30 4497 H 431.185 -3.19578 5.21229 0
M  V30 4498 H 435.359 -3.1726 6.19935 0
M  V30 4499 H 432.986 -3.16915 6.90991 0
M  V30 4500 N 434.561 -1.01147 -1.20859 0
M  V30 4501 C 435.491 -0.597663 -2.25722 0
M  V30 4502 C 436.472 0.384744 -1.65692 0
M  V30 4503 O 437.657 0.271303 -1.92296 0
M  V30 4504 C 434.787 0.0700149 -3.47229 0
M  V30 4505 C 433.741 -0.832843 -4.19819 0
M  V30 4506 C 433.067 -0.0312202 -5.34691 0
M  V30 4507 C 434.367 -2.1385 -4.76514 0
M  V30 4508 H 436.061 -1.47423 -2.60589 0
M  V30 4509 H 433.607 -0.710301 -1.25263 0
M  V30 4510 H 435.56 0.37103 -4.19763 0
M  V30 4511 H 434.284 0.981259 -3.11511 0
M  V30 4512 H 432.943 -1.11778 -3.49144 0
M  V30 4513 H 432.591 0.881515 -4.95215 0
M  V30 4514 H 432.291 -0.632434 -5.84187 0
M  V30 4515 H 433.815 0.26346 -6.10031 0
M  V30 4516 H 435.229 -1.9002 -5.40893 0
M  V30 4517 H 433.626 -2.69012 -5.36426 0
M  V30 4518 H 434.696 -2.80495 -3.95538 0
M  V30 4519 N 436.039 1.36541 -0.78704 0
M  V30 4520 C 437.316 1.9355 -0.282424 0
M  V30 4521 C 437.696 1.71919 1.22503 0
M  V30 4522 O 437.044 1.07677 2.01539 0
M  V30 4523 C 437.254 3.4246 -0.672462 0
M  V30 4524 C 438.602 4.19582 -0.650863 0
M  V30 4525 O 439.626 3.50889 -0.612789 0
M  V30 4526 O 438.485 5.42106 -0.691623 0
M  V30 4527 H 435.579 0.824091 -0.0693 0
M  V30 4528 H 438.125 1.45736 -0.869423 0
M  V30 4529 H 436.897 3.51851 -1.71221 0
M  V30 4530 H 436.52 3.97556 -0.0592211 0
M  V30 4531 N 437.518 0.538854 1.48102 0
M  V30 4532 C 438.767 0.0059532 2.01699 0
M  V30 4533 C 439.08 -1.34476 1.42041 0
M  V30 4534 O 440.286 -1.96653 1.87189 0
M  V30 4535 C 438.742 -0.0397627 3.59878 0
M  V30 4536 C 438.35 1.30659 4.28523 0
M  V30 4537 C 440.094 -0.521024 4.2129 0
M  V30 4538 C 438.001 1.22098 5.78659 0
M  V30 4539 H 436.931 -0.00154456 0.753998 0
M  V30 4540 H 439.582 0.683963 1.70277 0
M  V30 4541 H 437.964 -0.783037 3.88181 0
M  V30 4542 H 439.138 2.06613 4.11883 0
M  V30 4543 H 437.453 1.7243 3.79021 0
M  V30 4544 H 440.05 -0.603184 5.31287 0
M  V30 4545 H 440.393 -1.52885 3.8721 0
M  V30 4546 H 440.926 0.166834 3.9745 0
M  V30 4547 H 437.665 2.20424 6.17328 0
M  V30 4548 H 437.185 0.50295 5.97688 0
M  V30 4549 H 438.864 0.915345 6.40492 0
M  V30 4550 N 438.996 -1.55193 0.274407 0
M  V30 4551 C 440.245 -1.98758 -0.343213 0
M  V30 4552 C 440.558 -1.16624 -1.5703 0
M  V30 4553 O 441.764 -1.5033 -2.26082 0
M  V30 4554 C 440.22 -3.53759 -0.661996 0
M  V30 4555 C 439.828 -4.4467 0.54524 0
M  V30 4556 C 441.572 -4.05916 -1.24228 0
M  V30 4557 C 439.479 -5.91058 0.201084 0
M  V30 4558 H 438.409 -0.742353 -0.132014 0
M  V30 4559 H 441.06 -1.79545 0.378948 0
M  V30 4560 H 439.442 -3.68772 -1.44304 0
M  V30 4561 H 440.616 -4.41426 1.32212 0
M  V30 4562 H 438.931 -4.03143 1.04232 0
M  V30 4563 H 441.528 -5.12831 -1.51357 0
M  V30 4564 H 441.871 -3.54908 -2.17592 0
M  V30 4565 H 442.404 -3.9434 -0.523542 0
M  V30 4566 H 439.143 -6.46161 1.10258 0
M  V30 4567 H 438.663 -5.97373 -0.539045 0
M  V30 4568 H 440.342 -6.46669 -0.206954 0
M  V30 4569 N 440.474 -0.00167713 -1.576 0
M  V30 4570 C 441.422 1.0074 -2.09652 0
M  V30 4571 C 442.416 1.35483 -1.01689 0
M  V30 4572 O 443.622 1.34028 -1.20152 0
M  V30 4573 H 439.997 0.342537 -0.669457 0
M  V30 4574 H 441.968 0.542841 -2.93421 0
M  V30 4575 C 440.717 2.2899 -2.61647 0
M  V30 4576 H 440.04 2.03124 -3.44355 0
M  V30 4577 H 441.48 2.9787 -3.01744 0
M  V30 4578 C 439.939 3.00085 -1.53136 0
M  V30 4579 O 440.469 3.91135 -0.91524 0
M  V30 4580 N 438.675 2.6194 -1.25841 0
M  V30 4581 H 438.222 1.8798 -1.76129 0
M  V30 4582 H 438.18 3.09822 -0.534576 0
M  V30 4583 N 441.952 1.55251 0.271103 0
M  V30 4584 C 443.2 1.75599 1.00047 0
M  V30 4585 C 443.521 0.561188 1.8675 0
M  V30 4586 O 442.791 -0.423846 1.9126 0
M  V30 4587 H 441.371 0.647562 0.372387 0
M  V30 4588 H 444.033 1.92656 0.294876 0
M  V30 4589 H 443.129 2.65766 1.6363 0
M  V30 4590 N 443.43 -0.535701 1.48216 0
M  V30 4591 C 444.707 -1.29683 1.46429 0
M  V30 4592 C 445.087 -2.10391 0.172852 0
M  V30 4593 O 444.435 -2.12282 -0.845488 0
M  V30 4594 C 444.645 -2.18313 2.72287 0
M  V30 4595 C 445.993 -2.78639 3.20383 0
M  V30 4596 O 447.017 -2.28604 2.73164 0
M  V30 4597 O 445.876 -3.69636 4.02531 0
M  V30 4598 H 442.97 -0.585026 0.584529 0
M  V30 4599 H 445.516 -0.552827 1.60443 0
M  V30 4600 H 444.288 -1.58421 3.57797 0
M  V30 4601 H 443.911 -2.99971 2.60966 0
M  V30 4602 N 444.908 -1.36708 -0.784132 0
M  V30 4603 C 446.133 -1.34565 -1.5782 0
M  V30 4604 C 446.558 0.0695257 -1.87971 0
M  V30 4605 O 445.916 1.04302 -1.48293 0
M  V30 4606 C 445.964 -2.17952 -2.87279 0
M  V30 4607 O 445.068 -1.57563 -3.81114 0
M  V30 4608 H 444.409 -0.460337 -0.478524 0
M  V30 4609 H 446.939 -1.80064 -0.971495 0
M  V30 4610 H 446.949 -2.30721 -3.365 0
M  V30 4611 H 445.624 -3.20823 -2.64661 0
M  V30 4612 H 444.201 -1.53764 -3.39722 0
M  V30 4613 N 446.386 1.0089 -1.21074 0
M  V30 4614 C 447.614 1.78191 -1.05145 0
M  V30 4615 C 448.029 1.84537 0.398952 0
M  V30 4616 O 447.386 1.30393 1.27687 0
M  V30 4617 C 447.437 3.22288 -1.63746 0
M  V30 4618 O 447.158 3.16315 -3.03111 0
M  V30 4619 C 448.659 4.16106 -1.52875 0
M  V30 4620 H 445.879 0.560129 -0.369454 0
M  V30 4621 H 448.423 1.26945 -1.60328 0
M  V30 4622 H 446.578 3.70655 -1.12664 0
M  V30 4623 H 446.992 4.06817 -3.31059 0
M  V30 4624 H 448.466 5.15026 -1.98626 0
M  V30 4625 H 448.943 4.36541 -0.482521 0
M  V30 4626 H 449.549 3.73625 -2.03185 0
M  V30 4627 N 447.864 1.01787 1.20321 0
M  V30 4628 C 448.827 0.593972 2.2137 0
M  V30 4629 C 449.827 -0.336553 1.57239 0
M  V30 4630 O 451.017 -0.125069 1.7375 0
M  V30 4631 C 448.149 -0.132433 3.40643 0
M  V30 4632 H 449.342 1.48791 2.60387 0
M  V30 4633 H 446.895 0.807803 1.33807 0
M  V30 4634 H 447.63 -1.04123 3.0713 0
M  V30 4635 H 447.415 0.53605 3.88418 0
M  V30 4636 H 448.905 -0.416314 4.1552 0
M  V30 4637 N 449.342 -1.36122 0.79427 0
M  V30 4638 C 450.588 -1.99406 0.369452 0
M  V30 4639 C 450.921 -1.62886 -1.05743 0
M  V30 4640 O 450.196 -0.886053 -1.73145 0
M  V30 4641 C 450.479 -3.56046 0.538833 0
M  V30 4642 C 450.332 -4.02404 2.00976 0
M  V30 4643 C 451.651 -4.40079 -0.0431359 0
M  V30 4644 H 448.77 -0.724397 0.135712 0
M  V30 4645 H 451.412 -1.61461 1.00151 0
M  V30 4646 H 449.562 -3.885 0.000771004 0
M  V30 4647 H 451.234 -3.80415 2.60926 0
M  V30 4648 H 449.477 -3.53765 2.51063 0
M  V30 4649 H 450.148 -5.11344 2.07922 0
M  V30 4650 H 452.624 -4.14013 0.416228 0
M  V30 4651 H 451.5 -5.48799 0.105374 0
M  V30 4652 H 451.761 -4.27264 -1.13571 0
M  V30 4653 N 450.82 -0.546701 -1.47814 0
M  V30 4654 C 451.783 0.196287 -2.28358 0
M  V30 4655 C 452.783 0.852437 -1.36346 0
M  V30 4656 O 453.973 0.709913 -1.59078 0
M  V30 4657 C 451.105 1.28579 -3.15722 0
M  V30 4658 H 452.298 -0.511086 -2.95513 0
M  V30 4659 H 449.851 -0.303248 -1.5333 0
M  V30 4660 H 450.586 2.0259 -2.53235 0
M  V30 4661 H 450.371 0.820229 -3.83425 0
M  V30 4662 H 451.861 1.80793 -3.76435 0
M  V30 4663 N 452.299 1.55045 -0.282633 0
M  V30 4664 C 453.229 2.2579 0.595066 0
M  V30 4665 C 454.21 1.25074 1.15284 0
M  V30 4666 O 455.395 1.5381 1.18559 0
M  V30 4667 C 452.525 2.98472 1.77572 0
M  V30 4668 C 451.479 4.0618 1.34914 0
M  V30 4669 C 450.805 4.66477 2.6135 0
M  V30 4670 C 452.105 5.1996 0.493821 0
M  V30 4671 H 453.799 2.994 0.00505653 0
M  V30 4672 H 451.345 1.44 0.000992001 0
M  V30 4673 H 453.298 3.46677 2.39568 0
M  V30 4674 H 452.022 2.2241 2.39168 0
M  V30 4675 H 450.681 3.58797 0.752338 0
M  V30 4676 H 450.329 3.87074 3.2122 0
M  V30 4677 H 450.029 5.39207 2.33516 0
M  V30 4678 H 451.553 5.17435 3.24181 0
M  V30 4679 H 452.967 5.64172 1.01898 0
M  V30 4680 H 451.364 5.99299 0.310047 0
M  V30 4681 H 452.434 4.82462 -0.485593 0
M  V30 4682 N 453.777 0.010035 1.57597 0
M  V30 4683 C 454.725 -0.996272 2.10184 0
M  V30 4684 C 455.719 -1.34942 1.02406 0
M  V30 4685 O 456.925 -1.33389 1.20861 0
M  V30 4686 H 453.3 -0.338982 0.671264 0
M  V30 4687 H 455.271 -0.527272 2.93705 0
M  V30 4688 C 454.02 -2.27599 2.62857 0
M  V30 4689 H 453.343 -2.01295 3.45428 0
M  V30 4690 H 454.783 -2.96265 3.0332 0
M  V30 4691 C 453.242 -2.99269 1.54725 0
M  V30 4692 O 453.772 -3.90644 0.93597 0
M  V30 4693 N 451.978 -2.61269 1.27228 0
M  V30 4694 H 451.525 -1.87043 1.77123 0
M  V30 4695 H 451.483 -3.09534 0.550999 0
M  V30 4696 N 455.255 -1.55392 -0.262866 0
M  V30 4697 C 456.671 -1.47459 -0.610582 0
M  V30 4698 C 456.871 -0.697031 -1.8906 0
M  V30 4699 O 455.927 -0.219952 -2.5154 0
M  V30 4700 C 457.24 -2.91751 -0.728131 0
M  V30 4701 C 458.788 -3.02027 -0.821517 0
M  V30 4702 C 459.263 -4.47594 -0.97076 0
M  V30 4703 N 460.754 -4.51465 -1.03603 0
M  V30 4704 C 461.489 -5.61326 -1.17049 0
M  V30 4705 N 460.985 -6.81032 -1.2715 0
M  V30 4706 N 462.778 -5.49089 -1.20239 0
M  V30 4707 H 454.929 -2.04395 0.577632 0
M  V30 4708 H 457.192 -0.927287 0.197086 0
M  V30 4709 H 456.898 -3.51413 0.142132 0
M  V30 4710 H 456.772 -3.4134 -1.6052 0
M  V30 4711 H 459.159 -2.42456 -1.68224 0
M  V30 4712 H 459.24 -2.55674 0.0803688 0
M  V30 4713 H 458.884 -5.07771 -0.114655 0
M  V30 4714 H 458.814 -4.91613 -1.88745 0
M  V30 4715 H 461.305 -3.6524 -0.96996 0
M  V30 4716 H 461.618 -7.60511 -1.37271 0
M  V30 4717 H 459.963 -6.83824 -1.24136 0
M  V30 4718 H 463.154 -4.54507 -1.11985 0
M  V30 4719 H 463.327 -6.34749 -1.30373 0
M  V30 4720 N 456.733 0.527833 -1.48498 0
M  V30 4721 C 457.643 1.65907 -1.65867 0
M  V30 4722 C 458.659 1.6537 -0.541192 0
M  V30 4723 O 459.835 1.84282 -0.812534 0
M  V30 4724 C 456.9 3.02364 -1.69637 0
M  V30 4725 C 455.961 3.1374 -2.93028 0
M  V30 4726 C 455.194 4.43688 -2.96609 0
M  V30 4727 O 455.417 5.30913 -2.08538 0
M  V30 4728 O 454.351 4.59475 -3.88802 0
M  V30 4729 H 458.177 1.5419 -2.61647 0
M  V30 4730 H 455.762 0.701163 -1.31924 0
M  V30 4731 H 457.644 3.83515 -1.74625 0
M  V30 4732 H 456.319 3.14401 -0.770312 0
M  V30 4733 H 455.226 2.31877 -2.93571 0
M  V30 4734 H 456.559 3.06621 -3.85026 0
M  V30 4735 N 458.211 1.37122 0.776871 0
M  V30 4736 C 459.121 1.34651 1.9211 0
M  V30 4737 C 460.137 0.246824 1.7224 0
M  V30 4738 O 461.313 0.48134 1.95563 0
M  V30 4739 C 458.378 1.14748 3.2716 0
M  V30 4740 C 457.439 2.34308 3.5972 0
M  V30 4741 C 456.672 2.15345 4.88326 0
M  V30 4742 O 456.895 1.13507 5.58992 0
M  V30 4743 O 455.829 3.03414 5.1983 0
M  V30 4744 H 459.655 2.31013 1.97146 0
M  V30 4745 H 457.24 1.17799 0.918901 0
M  V30 4746 H 459.122 1.05616 4.0795 0
M  V30 4747 H 457.797 0.214562 3.22988 0
M  V30 4748 H 456.704 2.49011 2.79185 0
M  V30 4749 H 458.037 3.26149 3.68629 0
M  V30 4750 N 459.689 -1.00246 1.21608 0
M  V30 4751 C 460.966 -1.71336 0.943568 0
M  V30 4752 C 461.346 -2.03972 -0.543943 0
M  V30 4753 O 460.694 -1.71545 -1.50946 0
M  V30 4754 C 460.904 -2.97094 1.83128 0
M  V30 4755 C 462.252 -3.70071 2.08165 0
M  V30 4756 O 463.276 -3.07081 1.80498 0
M  V30 4757 O 462.135 -4.83376 2.54971 0
M  V30 4758 H 459.229 -0.747386 0.354039 0
M  V30 4759 H 461.775 -1.05967 1.32549 0
M  V30 4760 H 460.547 -2.69407 2.83788 0
M  V30 4761 H 460.17 -3.70204 1.45034 0
M  V30 4762 N 461.167 -1.02423 -1.1978 0
M  V30 4763 C 462.414 -0.717988 -1.89344 0
M  V30 4764 C 462.742 0.753036 -1.79331 0
M  V30 4765 O 461.997 1.56355 -1.17692 0
M  V30 4766 C 462.296 -1.1088 -3.39765 0
M  V30 4767 C 461.962 -2.57731 -3.6998 0
M  V30 4768 C 460.624 -2.97854 -3.77937 0
M  V30 4769 C 462.976 -3.52763 -3.83677 0
M  V30 4770 C 460.304 -4.31931 -3.97054 0
M  V30 4771 C 462.656 -4.86538 -4.04306 0
M  V30 4772 C 461.32 -5.26356 -4.10494 0
M  V30 4773 H 460.59 -0.26273 -0.692859 0
M  V30 4774 H 463.237 -1.28623 -1.41875 0
M  V30 4775 H 461.542 -0.459094 -3.89101 0
M  V30 4776 H 463.239 -0.849432 -3.919 0
M  V30 4777 H 459.829 -2.25646 -3.64393 0
M  V30 4778 H 464.013 -3.2292 -3.76877 0
M  V30 4779 H 459.269 -4.62324 -4.00083 0
M  V30 4780 H 463.443 -5.60093 -4.13846 0
M  V30 4781 H 461.07 -6.3026 -4.2506 0
M  V30 4782 N 462.645 1.35699 -0.801477 0
M  V30 4783 C 463.592 2.29876 -0.206294 0
M  V30 4784 C 464.562 1.52565 0.656752 0
M  V30 4785 O 465.747 1.81024 0.602906 0
M  V30 4786 C 462.887 3.39052 0.643272 0
M  V30 4787 C 462 4.31335 -0.239644 0
M  V30 4788 C 461.135 5.27599 0.61744 0
M  V30 4789 C 460.174 6.11521 -0.26619 0
M  V30 4790 N 459.311 6.99938 0.550571 0
M  V30 4791 H 464.151 2.80187 -1.01484 0
M  V30 4792 H 461.688 1.37902 -0.511997 0
M  V30 4793 H 463.646 4.0101 1.15094 0
M  V30 4794 H 462.276 2.9003 1.41713 0
M  V30 4795 H 461.328 3.70426 -0.865381 0
M  V30 4796 H 462.64 4.90243 -0.919985 0
M  V30 4797 H 461.794 5.94906 1.19045 0
M  V30 4798 H 460.533 4.69176 1.33137 0
M  V30 4799 H 459.538 5.43166 -0.851507 0
M  V30 4800 H 460.763 6.72022 -0.9779 0
M  V30 4801 H 458.709 6.44008 1.24856 0
M  V30 4802 H 458.626 7.55966 -0.071832 0
M  V30 4803 H 459.894 7.71599 1.10702 0
M  V30 4804 N 464.123 0.554532 1.47522 0
M  V30 4805 C 465.086 -0.184174 2.28459 0
M  V30 4806 C 466.086 -0.845195 1.36796 0
M  V30 4807 O 467.276 -0.701467 1.59452 0
M  V30 4808 C 464.408 -1.26903 3.16399 0
M  V30 4809 H 465.601 0.526751 2.95238 0
M  V30 4810 H 463.154 0.311375 1.53167 0
M  V30 4811 H 463.889 -2.01244 2.54306 0
M  V30 4812 H 463.674 -0.799883 3.83854 0
M  V30 4813 H 465.164 -1.78794 3.77389 0
M  V30 4814 N 465.601 -1.54893 0.290851 0
M  V30 4815 C 466.829 -2.04343 -0.324288 0
M  V30 4816 C 467.244 -1.16859 -1.48289 0
M  V30 4817 O 466.601 -0.192018 -1.81487 0
M  V30 4818 C 466.652 -3.52756 -0.79026 0
M  V30 4819 O 466.373 -4.36913 0.322213 0
M  V30 4820 C 467.874 -4.18161 -1.4716 0
M  V30 4821 H 465.094 -0.667135 -0.0719173 0
M  V30 4822 H 467.638 -1.99981 0.427529 0
M  V30 4823 H 465.793 -3.57511 -1.49213 0
M  V30 4824 H 466.207 -5.24486 -0.0387372 0
M  V30 4825 H 467.681 -5.23562 -1.7489 0
M  V30 4826 H 468.158 -3.67282 -2.40834 0
M  V30 4827 H 468.764 -4.17454 -0.813178 0
M  V30 4828 N 467.08 -0.0183926 -1.57589 0
M  V30 4829 C 467.99 0.982943 -2.13015 0
M  V30 4830 C 469.006 1.36443 -1.07979 0
M  V30 4831 O 470.182 1.44802 -1.3998 0
M  V30 4832 C 467.247 2.25024 -2.63752 0
M  V30 4833 C 466.308 1.93018 -3.83461 0
M  V30 4834 C 465.541 3.13706 -4.31769 0
M  V30 4835 O 465.764 4.2601 -3.79305 0
M  V30 4836 O 464.698 2.96629 -5.23732 0
M  V30 4837 H 468.524 0.541709 -2.9883 0
M  V30 4838 H 466.109 0.201565 -1.48034 0
M  V30 4839 H 467.991 2.99441 -2.96502 0
M  V30 4840 H 466.666 2.68349 -1.81026 0
M  V30 4841 H 465.573 1.16019 -3.55655 0
M  V30 4842 H 466.906 1.54516 -4.67317 0
M  V30 4843 N 468.558 1.5553 0.254621 0
M  V30 4844 C 469.807 1.76202 0.981612 0
M  V30 4845 C 470.12 0.580883 1.86776 0
M  V30 4846 O 471.326 0.670448 2.63092 0
M  V30 4847 C 469.782 3.11921 1.79537 0
M  V30 4848 C 469.39 4.37659 0.956991 0
M  V30 4849 C 471.134 3.41936 2.51555 0
M  V30 4850 C 469.041 5.64411 1.76619 0
M  V30 4851 H 467.971 0.656841 0.370237 0
M  V30 4852 H 470.622 1.81969 0.236556 0
M  V30 4853 H 469.004 3.00241 2.58208 0
M  V30 4854 H 470.178 4.60307 0.21315 0
M  V30 4855 H 468.493 4.14922 0.350497 0
M  V30 4856 H 471.09 4.33849 3.12536 0
M  V30 4857 H 471.433 2.62905 3.22779 0
M  V30 4858 H 471.966 3.54797 1.799 0
M  V30 4859 H 468.705 6.46241 1.09783 0
M  V30 4860 H 468.225 5.45877 2.48551 0
M  V30 4861 H 469.904 6.03386 2.33527 0
M  V30 4862 N 470.036 -0.519951 1.48776 0
M  V30 4863 C 471.285 -1.27175 1.56555 0
M  V30 4864 C 471.598 -1.9401 0.248869 0
M  V30 4865 O 472.804 -2.70725 0.205004 0
M  V30 4866 C 471.26 -2.30811 2.76142 0
M  V30 4867 C 470.868 -1.7 4.14493 0
M  V30 4868 C 472.612 -3.06937 2.9324 0
M  V30 4869 C 470.519 -2.71635 5.25327 0
M  V30 4870 H 469.449 -0.478329 0.582853 0
M  V30 4871 H 472.1 -0.547916 1.75129 0
M  V30 4872 H 470.482 -3.06274 2.51023 0
M  V30 4873 H 471.656 -1.00658 4.49672 0
M  V30 4874 H 469.971 -1.06331 4.02595 0
M  V30 4875 H 472.568 -3.82905 3.73213 0
M  V30 4876 H 472.911 -3.63409 2.03075 0
M  V30 4877 H 473.444 -2.38589 3.18308 0
M  V30 4878 H 470.183 -2.1997 6.1749 0
M  V30 4879 H 469.703 -3.39275 4.94624 0
M  V30 4880 H 471.382 -3.34429 5.53865 0
M  V30 4881 N 471.514 -1.37532 -0.769588 0
M  V30 4882 C 472.424 -1.35668 -1.91393 0
M  V30 4883 C 473.44 -0.255954 -1.72107 0
M  V30 4884 O 474.616 -0.491704 -1.95305 0
M  V30 4885 C 471.681 -1.16481 -3.26547 0
M  V30 4886 C 470.742 -2.36212 -3.58472 0
M  V30 4887 C 469.975 -2.17932 -4.87177 0
M  V30 4888 O 470.198 -1.1647 -5.58382 0
M  V30 4889 O 469.132 -3.06167 -5.18214 0
M  V30 4890 H 472.958 -2.32055 -1.95918 0
M  V30 4891 H 470.543 -1.18284 -0.912641 0
M  V30 4892 H 472.425 -1.07778 -4.07384 0
M  V30 4893 H 471.1 -0.231687 -3.2287 0
M  V30 4894 H 470.007 -2.50488 -2.77861 0
M  V30 4895 H 471.34 -3.281 -3.66894 0
M  V30 4896 N 472.992 0.995999 -1.22138 0
M  V30 4897 C 474.403 1.54961 -1.04135 0
M  V30 4898 C 474.754 1.92159 0.396147 0
M  V30 4899 O 473.879 1.74435 1.28069 0
M  V30 4900 C 474.474 2.81581 -1.88408 0
M  V30 4901 C 473.033 3.33396 -1.74712 0
M  V30 4902 C 472.18 2.06509 -1.85066 0
M  V30 4903 H 475.131 0.817436 -1.36028 0
M  V30 4904 H 475.152 3.53822 -1.39966 0
M  V30 4905 H 474.664 2.54476 -2.93025 0
M  V30 4906 H 472.765 3.65416 -0.728159 0
M  V30 4907 H 472.878 4.04208 -2.57202 0
M  V30 4908 H 471.242 2.19925 -1.28472 0
M  V30 4909 H 472.025 1.81804 -2.91208 0
M  V30 4910 N 474.47 1.03057 1.19235 0
M  V30 4911 C 475.695 0.74757 1.93458 0
M  V30 4912 C 476.12 -0.687648 1.7508 0
M  V30 4913 O 475.478 -1.47499 1.05422 0
M  V30 4914 C 475.526 1.10604 3.43219 0
M  V30 4915 O 474.63 0.225671 4.11782 0
M  V30 4916 H 473.971 0.276047 0.603899 0
M  V30 4917 H 476.501 1.3777 1.51263 0
M  V30 4918 H 476.511 1.06366 3.93891 0
M  V30 4919 H 475.186 2.15165 3.55917 0
M  V30 4920 H 473.763 0.326795 3.71465 0
M  V30 4921 N 475.948 -1.35272 0.808662 0
M  V30 4922 C 476.895 -2.29764 0.218482 0
M  V30 4923 C 477.865 -1.52911 -0.648652 0
M  V30 4924 O 479.05 -1.81341 -0.593297 0
M  V30 4925 C 476.19 -3.39388 -0.625282 0
M  V30 4926 C 475.303 -4.31202 0.262516 0
M  V30 4927 C 474.438 -5.27919 -0.589451 0
M  V30 4928 C 473.477 -6.11371 0.298617 0
M  V30 4929 N 472.614 -7.0022 -0.513443 0
M  V30 4930 H 477.454 -2.79645 1.02968 0
M  V30 4931 H 474.991 -1.37629 0.519303 0
M  V30 4932 H 476.949 -4.01615 -1.12966 0
M  V30 4933 H 475.579 -2.90777 -1.40173 0
M  V30 4934 H 474.631 -3.69962 0.885013 0
M  V30 4935 H 475.943 -4.89748 0.945971 0
M  V30 4936 H 475.097 -5.95529 -1.15888 0
M  V30 4937 H 473.836 -4.69875 -1.30647 0
M  V30 4938 H 472.841 -5.42707 0.880301 0
M  V30 4939 H 474.066 -6.71494 1.01352 0
M  V30 4940 H 472.012 -6.44662 -1.21439 0
M  V30 4941 H 471.929 -7.55917 0.111922 0
M  V30 4942 H 473.197 -7.72175 -1.06608 0
M  V30 4943 N 477.426 -0.562348 -1.47226 0
M  V30 4944 C 478.358 0.220011 -2.28142 0
M  V30 4945 C 479.371 0.874596 -1.37312 0
M  V30 4946 O 480.56 0.747583 -1.62091 0
M  V30 4947 C 477.66 1.32953 -3.11732 0
M  V30 4948 C 476.833 0.770759 -4.30556 0
M  V30 4949 C 475.892 1.76541 -4.95701 0
M  V30 4950 O 474.918 1.3095 -5.53932 0
M  V30 4951 N 476.12 3.09896 -4.90861 0
M  V30 4952 H 478.885 -0.474107 -2.95926 0
M  V30 4953 H 476.446 -0.398761 -1.56912 0
M  V30 4954 H 478.438 1.99378 -3.5218 0
M  V30 4955 H 477.008 1.92681 -2.46156 0
M  V30 4956 H 476.228 -0.0704056 -3.94137 0
M  V30 4957 H 477.516 0.376872 -5.07402 0
M  V30 4958 H 476.914 3.49577 -4.44761 0
M  V30 4959 H 475.471 3.71865 -5.35313 0
M  V30 4960 N 478.904 1.54736 -0.299062 0
M  V30 4961 C 480.181 1.92187 0.363802 0
M  V30 4962 C 480.561 1.22607 1.71845 0
M  V30 4963 O 479.909 0.361141 2.25628 0
M  V30 4964 C 480.119 3.45678 0.480377 0
M  V30 4965 C 481.467 4.17885 0.752147 0
M  V30 4966 O 482.491 3.51702 0.564264 0
M  V30 4967 O 481.35 5.35048 1.11294 0
M  V30 4968 H 478.444 0.801681 0.203066 0
M  V30 4969 H 480.99 1.66115 -0.346978 0
M  V30 4970 H 479.762 3.88443 -0.471999 0
M  V30 4971 H 479.385 3.77779 1.2397 0
M  V30 4972 N 480.382 0.0267497 1.57577 0
M  V30 4973 C 481.329 -0.955894 2.10075 0
M  V30 4974 C 482.299 -1.32453 1.00226 0
M  V30 4975 O 483.484 -1.41826 1.27632 0
M  V30 4976 C 480.624 -2.2338 2.6305 0
M  V30 4977 C 479.737 -1.92183 3.86898 0
M  V30 4978 C 478.872 -3.14251 4.28275 0
M  V30 4979 C 477.911 -2.78862 5.44888 0
M  V30 4980 N 477.048 -3.93548 5.81433 0
M  V30 4981 H 481.888 -0.501303 2.93753 0
M  V30 4982 H 479.425 -0.235847 1.45197 0
M  V30 4983 H 481.383 -2.98124 2.91853 0
M  V30 4984 H 480.013 -2.6646 1.82205 0
M  V30 4985 H 479.065 -1.07692 3.64838 0
M  V30 4986 H 480.377 -1.62117 4.7172 0
M  V30 4987 H 479.531 -3.97317 4.58502 0
M  V30 4988 H 478.27 -3.47476 3.42215 0
M  V30 4989 H 477.275 -1.94208 5.14357 0
M  V30 4990 H 478.5 -2.46855 6.32645 0
M  V30 4991 H 476.446 -4.2662 4.98328 0
M  V30 4992 H 476.363 -3.67098 6.6089 0
M  V30 4993 H 477.631 -4.77325 6.16264 0
M  V30 4994 N 481.861 -1.55662 -0.24637 0
M  V30 4995 C 483.272 -1.67953 -0.81539 0
M  V30 4996 C 483.623 -0.624302 -1.86002 0
M  V30 4997 O 482.748 0.229328 -2.15181 0
M  V30 4998 C 483.343 -3.04484 -1.48576 0
M  V30 4999 C 481.902 -3.18713 -2.00248 0
M  V30 5000 C 481.049 -2.6383 -0.853766 0
M  V30 5001 H 484 -1.58685 -0.0221692 0
M  V30 5002 H 484.021 -2.98959 -2.3538 0
M  V30 5003 H 483.533 -3.81264 -0.725222 0
M  V30 5004 H 481.634 -2.46757 -2.79181 0
M  V30 5005 H 481.747 -4.25628 -2.1995 0
M  V30 5006 H 480.111 -2.21667 -1.25442 0
M  V30 5007 H 480.894 -3.43135 -0.106302 0
M  V30 5008 N 483.339 0.512053 -1.4905 0
M  V30 5009 C 484.269 1.62365 -1.67809 0
M  V30 5010 C 485.25 1.61737 -0.526809 0
M  V30 5011 O 486.435 1.78651 -0.761404 0
M  V30 5012 C 483.565 3.00895 -1.73435 0
M  V30 5013 C 482.519 3.16387 -2.88242 0
M  V30 5014 C 481.845 4.56157 -2.78971 0
M  V30 5015 C 483.145 2.97457 -4.29321 0
M  V30 5016 H 484.839 1.46921 -2.60873 0
M  V30 5017 H 482.385 0.705379 -1.2554 0
M  V30 5018 H 484.338 3.78549 -1.85145 0
M  V30 5019 H 483.062 3.17403 -0.769619 0
M  V30 5020 H 481.721 2.41155 -2.76116 0
M  V30 5021 H 481.369 4.69525 -1.8043 0
M  V30 5022 H 481.069 4.67465 -3.5602 0
M  V30 5023 H 482.593 5.35886 -2.92675 0
M  V30 5024 H 484.007 3.64888 -4.42187 0
M  V30 5025 H 482.404 3.20245 -5.07507 0
M  V30 5026 H 483.474 1.93692 -4.44535 0
M  V30 5027 N 484.817 1.37938 0.762283 0
M  V30 5028 C 486.066 1.32989 1.51647 0
M  V30 5029 C 486.379 -0.0802922 1.95435 0
M  V30 5030 O 487.585 -0.252295 2.70325 0
M  V30 5031 C 486.041 2.33485 2.73885 0
M  V30 5032 C 485.649 3.80079 2.37157 0
M  V30 5033 C 487.393 2.37563 3.51801 0
M  V30 5034 C 485.3 4.72283 3.55954 0
M  V30 5035 H 484.23 0.494301 0.56937 0
M  V30 5036 H 486.881 1.63448 0.834083 0
M  V30 5037 H 485.263 1.96056 3.44061 0
M  V30 5038 H 486.437 4.26398 1.74704 0
M  V30 5039 H 484.752 3.79037 1.72395 0
M  V30 5040 H 487.349 3.0365 4.40114 0
M  V30 5041 H 487.692 1.39199 3.92338 0
M  V30 5042 H 488.225 2.73747 2.8863 0
M  V30 5043 H 484.964 5.7181 3.2049 0
M  V30 5044 H 484.484 4.30663 4.1748 0
M  V30 5045 H 486.163 4.89876 4.22647 0
M  V30 5046 N 486.295 -0.989507 1.22664 0
M  V30 5047 C 487.205 -2.11449 1.01619 0
M  V30 5048 C 488.221 -1.73962 -0.036545 0
M  V30 5049 O 489.397 -2.00788 0.156924 0
M  V30 5050 C 486.462 -3.41465 0.600204 0
M  V30 5051 C 485.523 -3.93033 1.72695 0
M  V30 5052 C 484.756 -5.16844 1.33071 0
M  V30 5053 O 484.979 -5.7001 0.210975 0
M  V30 5054 O 483.913 -5.6225 2.14845 0
M  V30 5055 H 487.739 -2.32088 1.9588 0
M  V30 5056 H 485.324 -1.09823 1.01289 0
M  V30 5057 H 487.206 -4.19695 0.37873 0
M  V30 5058 H 485.881 -3.22178 -0.313511 0
M  V30 5059 H 484.788 -3.15961 2.00298 0
M  V30 5060 H 486.121 -4.16758 2.61865 0
M  V30 5061 N 487.773 -1.03688 -1.18687 0
M  V30 5062 C 488.72 -0.624624 -2.22187 0
M  V30 5063 C 489.69 0.365636 -1.62026 0
M  V30 5064 O 490.875 0.260481 -1.89014 0
M  V30 5065 C 488.015 0.0101738 -3.45099 0
M  V30 5066 C 487.128 -1.02709 -4.19613 0
M  V30 5067 C 486.263 -0.361213 -5.2997 0
M  V30 5068 C 485.302 -1.38384 -5.96252 0
M  V30 5069 N 484.439 -0.743196 -6.98155 0
M  V30 5070 H 489.279 -1.51176 -2.56807 0
M  V30 5071 H 486.816 -0.75636 -1.26165 0
M  V30 5072 H 488.774 0.395528 -4.15321 0
M  V30 5073 H 487.404 0.860848 -3.1111 0
M  V30 5074 H 486.456 -1.53043 -3.48256 0
M  V30 5075 H 487.768 -1.80398 -4.65036 0
M  V30 5076 H 486.922 0.0785537 -6.06649 0
M  V30 5077 H 485.661 0.447799 -4.8564 0
M  V30 5078 H 484.666 -1.83378 -5.18317 0
M  V30 5079 H 485.891 -2.19448 -6.42666 0
M  V30 5080 H 483.837 0.0455789 -6.55984 0
M  V30 5081 H 483.754 -1.45784 -7.41811 0
M  V30 5082 H 485.022 -0.327698 -7.78811 0
M  V30 5083 N 489.251 1.34841 -0.815825 0
M  V30 5084 C 490.181 2.32187 -0.247298 0
M  V30 5085 C 491.162 1.5791 0.632344 0
M  V30 5086 O 492.347 1.8593 0.560698 0
M  V30 5087 C 489.477 3.42122 0.597466 0
M  V30 5088 C 488.431 4.27602 -0.184446 0
M  V30 5089 C 487.757 5.28942 0.782609 0
M  V30 5090 C 489.057 5.03502 -1.38865 0
M  V30 5091 H 490.751 2.79985 -1.06061 0
M  V30 5092 H 488.297 1.34611 -0.511461 0
M  V30 5093 H 490.25 4.09232 1.00533 0
M  V30 5094 H 488.974 2.92956 1.44376 0
M  V30 5095 H 487.633 3.62085 -0.573592 0
M  V30 5096 H 487.281 4.7604 1.62466 0
M  V30 5097 H 486.981 5.87008 0.263695 0
M  V30 5098 H 488.505 5.98922 1.18848 0
M  V30 5099 H 489.919 5.63506 -1.05518 0
M  V30 5100 H 488.316 5.71108 -1.8427 0
M  V30 5101 H 489.386 4.33608 -2.17054 0
M  V30 5102 N 490.729 0.570148 1.46925 0
M  V30 5103 C 491.692 -0.159933 2.28641 0
M  V30 5104 C 492.692 -0.830638 1.37685 0
M  V30 5105 O 493.882 -0.684516 1.60187 0
M  V30 5106 C 491.014 -1.2354 3.17727 0
M  V30 5107 H 492.207 0.558035 2.94662 0
M  V30 5108 H 489.76 0.327603 1.52828 0
M  V30 5109 H 490.495 -1.98535 2.56426 0
M  V30 5110 H 490.28 -0.759125 3.84681 0
M  V30 5111 H 491.77 -1.74782 3.79264 0
M  V30 5112 N 492.207 -1.54576 0.307264 0
M  V30 5113 C 493.117 -2.27435 -0.57536 0
M  V30 5114 C 494.133 -1.31183 -1.14311 0
M  V30 5115 O 495.309 -1.64175 -1.16656 0
M  V30 5116 C 492.374 -3.00566 -1.72803 0
M  V30 5117 C 491.435 -4.12369 -1.19373 0
M  V30 5118 C 490.668 -4.82003 -2.29147 0
M  V30 5119 O 490.891 -4.51038 -3.49171 0
M  V30 5120 O 489.825 -5.69271 -1.95485 0
M  V30 5121 H 493.651 -3.03696 0.0158558 0
M  V30 5122 H 491.236 -1.49219 0.0735064 0
M  V30 5123 H 493.118 -3.46416 -2.39946 0
M  V30 5124 H 491.793 -2.27195 -2.30574 0
M  V30 5125 H 490.7 -3.70905 -0.487851 0
M  V30 5126 H 492.033 -4.87736 -0.661376 0
M  V30 5127 N 493.685 -0.035106 -1.57561 0
M  V30 5128 C 494.934 0.641604 -1.91223 0
M  V30 5129 C 495.247 1.72944 -0.913761 0
M  V30 5130 O 496.453 2.46321 -1.14185 0
M  V30 5131 C 494.909 1.19249 -3.3957 0
M  V30 5132 C 494.517 0.137616 -4.47789 0
M  V30 5133 C 496.261 1.84537 -3.82291 0
M  V30 5134 C 494.168 0.700478 -5.87237 0
M  V30 5135 H 493.098 0.243417 -0.713627 0
M  V30 5136 H 495.749 -0.101382 -1.8322 0
M  V30 5137 H 494.131 1.98728 -3.42525 0
M  V30 5138 H 495.305 -0.635153 -4.56402 0
M  V30 5139 H 493.62 -0.416855 -4.14308 0
M  V30 5140 H 496.217 2.27616 -4.83834 0
M  V30 5141 H 496.56 2.69054 -3.17672 0
M  V30 5142 H 497.093 1.11739 -3.81784 0
M  V30 5143 H 493.832 -0.106693 -6.55413 0
M  V30 5144 H 493.352 1.4416 -5.82218 0
M  V30 5145 H 495.031 1.18837 -6.35993 0
M  V30 5146 N 495.163 1.55791 0.238111 0
M  V30 5147 C 496.393 1.81834 0.980809 0
M  V30 5148 C 496.801 0.609741 1.79106 0
M  V30 5149 O 496.144 -0.431073 1.78571 0
M  V30 5150 C 496.206 3.01363 1.96011 0
M  V30 5151 C 495.87 4.37037 1.33597 0
M  V30 5152 C 496.867 5.14692 0.734063 0
M  V30 5153 C 494.552 4.83743 1.3527 0
M  V30 5154 C 496.546 6.37206 0.157208 0
M  V30 5155 C 494.233 6.06204 0.77199 0
M  V30 5156 C 495.231 6.82775 0.175282 0
M  V30 5157 O 494.919 8.02922 -0.396432 0
M  V30 5158 H 494.651 0.6088 0.293834 0
M  V30 5159 H 497.205 2.03702 0.263552 0
M  V30 5160 H 495.435 2.75273 2.71591 0
M  V30 5161 H 497.124 3.14422 2.56697 0
M  V30 5162 H 497.89 4.79722 0.713582 0
M  V30 5163 H 493.769 4.24129 1.80653 0
M  V30 5164 H 497.313 6.96915 -0.30917 0
M  V30 5165 H 493.21 6.4065 0.789828 0
M  V30 5166 H 493.978 8.17989 -0.289145 0
M  V30 5167 N 496.642 -0.504142 1.49319 0
M  V30 5168 C 497.888 -1.26033 1.58882 0
M  V30 5169 C 498.221 -1.92268 0.273274 0
M  V30 5170 O 497.496 -1.80567 -0.72291 0
M  V30 5171 C 497.779 -2.32976 2.7458 0
M  V30 5172 C 497.632 -1.71263 4.1592 0
M  V30 5173 C 498.951 -3.34561 2.85932 0
M  V30 5174 H 496.07 -0.456863 0.578312 0
M  V30 5175 H 498.712 -0.558965 1.81592 0
M  V30 5176 H 496.862 -2.92796 2.55348 0
M  V30 5177 H 498.534 -1.15294 4.4666 0
M  V30 5178 H 496.777 -1.01686 4.21714 0
M  V30 5179 H 497.448 -2.48816 4.92742 0
M  V30 5180 H 499.924 -2.84727 3.0343 0
M  V30 5181 H 498.8 -4.06754 3.68568 0
M  V30 5182 H 499.061 -3.96695 1.95154 0
M  V30 5183 N 498.12 -1.38341 -0.754957 0
M  V30 5184 C 499.068 -1.35573 -1.89005 0
M  V30 5185 C 500.062 -0.241824 -1.67665 0
M  V30 5186 O 501.268 -0.410785 -1.7525 0
M  V30 5187 H 497.643 -0.422898 -0.621821 0
M  V30 5188 H 499.614 -2.31359 -1.88455 0
M  V30 5189 C 498.363 -1.19631 -3.26471 0
M  V30 5190 H 497.686 -2.04605 -3.43477 0
M  V30 5191 H 499.126 -1.21748 -4.06144 0
M  V30 5192 C 497.585 0.0968705 -3.36761 0
M  V30 5193 O 498.115 1.07439 -3.87066 0
M  V30 5194 N 496.321 0.153242 -2.90196 0
M  V30 5195 H 495.868 -0.642908 -2.49448 0
M  V30 5196 H 495.826 1.01807 -2.9746 0
M  V30 5197 N 499.598 0.982988 -1.23187 0
M  V30 5198 C 500.823 1.76455 -1.08988 0
M  V30 5199 C 501.248 1.84726 0.354691 0
M  V30 5200 O 500.606 1.30699 1.25649 0
M  V30 5201 C 500.654 3.17094 -1.71708 0
M  V30 5202 O 499.758 4.00648 -0.977477 0
M  V30 5203 H 499.099 0.542988 -0.382177 0
M  V30 5204 H 501.629 1.23413 -1.63188 0
M  V30 5205 H 501.639 3.67684 -1.76841 0
M  V30 5206 H 500.314 3.10389 -2.76823 0
M  V30 5207 H 498.891 3.59161 -1.0029 0
M  V30 5208 N 501.076 1.04316 1.18135 0
M  V30 5209 C 502.301 0.768047 1.92655 0
M  V30 5210 C 502.726 -0.66904 1.758 0
M  V30 5211 O 502.084 -1.46372 1.06981 0
M  V30 5212 C 502.132 1.14239 3.42026 0
M  V30 5213 O 501.236 0.269333 4.1152 0
M  V30 5214 H 500.577 0.282436 0.600937 0
M  V30 5215 H 503.107 1.39367 1.49793 0
M  V30 5216 H 503.117 1.10538 3.92741 0
M  V30 5217 H 501.792 2.18928 3.53615 0
M  V30 5218 H 500.369 0.366175 3.71098 0
M  V30 5219 N 502.554 -1.34406 0.822964 0
M  V30 5220 C 503.801 -1.98284 0.411057 0
M  V30 5221 C 504.129 -1.65245 -1.02588 0
M  V30 5222 O 503.384 -0.91619 -1.72929 0
M  V30 5223 C 503.683 -3.52981 0.560268 0
M  V30 5224 C 503.349 -4.05931 1.96293 0
M  V30 5225 C 502.011 -4.20103 2.34664 0
M  V30 5226 C 504.363 -4.34412 2.87985 0
M  V30 5227 C 501.691 -4.60082 3.64062 0
M  V30 5228 C 504.043 -4.75838 4.16847 0
M  V30 5229 C 502.707 -4.88215 4.55195 0
M  V30 5230 H 501.977 -0.725573 0.150416 0
M  V30 5231 H 504.624 -1.60349 1.04692 0
M  V30 5232 H 502.929 -3.91477 -0.158982 0
M  V30 5233 H 504.626 -4.00385 0.222087 0
M  V30 5234 H 501.216 -3.95363 1.65487 0
M  V30 5235 H 505.4 -4.23001 2.59584 0
M  V30 5236 H 500.656 -4.67856 3.93599 0
M  V30 5237 H 504.83 -4.96834 4.87984 0
M  V30 5238 H 502.457 -5.18952 5.55512 0
M  V30 5239 N 504.032 -0.577932 -1.46621 0
M  V30 5240 C 505.262 -0.0670668 -2.06491 0
M  V30 5241 C 505.67 1.24119 -1.42798 0
M  V30 5242 O 505.013 1.76016 -0.525759 0
M  V30 5243 C 505.075 0.177995 -3.59059 0
M  V30 5244 C 504.739 -1.04394 -4.44917 0
M  V30 5245 C 505.736 -1.95479 -4.81751 0
M  V30 5246 C 503.421 -1.26444 -4.86125 0
M  V30 5247 C 505.415 -3.06965 -5.58615 0
M  V30 5248 C 503.102 -2.38237 -5.62749 0
M  V30 5249 C 504.1 -3.28327 -5.98908 0
M  V30 5250 O 503.788 -4.38179 -6.73984 0
M  V30 5251 H 503.52 -0.0523159 -0.673973 0
M  V30 5252 H 506.074 -0.796966 -1.89308 0
M  V30 5253 H 504.304 0.962451 -3.74531 0
M  V30 5254 H 505.993 0.636782 -4.00874 0
M  V30 5255 H 506.759 -1.79657 -4.50498 0
M  V30 5256 H 502.638 -0.572316 -4.57434 0
M  V30 5257 H 506.182 -3.77309 -5.86757 0
M  V30 5258 H 502.079 -2.54023 -5.93416 0
M  V30 5259 H 502.847 -4.36486 -6.92403 0
M  V30 5260 N 505.51 1.54411 -0.315457 0
M  V30 5261 C 506.457 2.24048 0.554166 0
M  V30 5262 C 507.427 1.2283 1.11812 0
M  V30 5263 O 508.612 1.51491 1.15997 0
M  V30 5264 C 505.752 2.99574 1.71316 0
M  V30 5265 C 504.865 4.15594 1.17922 0
M  V30 5266 C 504 4.78669 2.30324 0
M  V30 5267 C 503.039 5.86807 1.74137 0
M  V30 5268 N 502.176 6.43777 2.8017 0
M  V30 5269 H 507.016 2.97964 -0.0462602 0
M  V30 5270 H 504.553 1.47059 -0.0346009 0
M  V30 5271 H 506.511 3.41604 2.39505 0
M  V30 5272 H 505.141 2.28008 2.285 0
M  V30 5273 H 504.193 3.78404 0.389136 0
M  V30 5274 H 505.505 4.93459 0.728012 0
M  V30 5275 H 504.659 5.23626 3.06433 0
M  V30 5276 H 503.398 4.00168 2.78778 0
M  V30 5277 H 502.403 5.41261 0.965236 0
M  V30 5278 H 503.628 6.67201 1.2657 0
M  V30 5279 H 501.574 5.68153 3.2793 0
M  V30 5280 H 501.491 7.17031 2.39588 0
M  V30 5281 H 502.759 6.9339 3.56132 0
M  V30 5282 N 506.988 0.0434614 1.5754 0
M  V30 5283 C 507.898 -0.94893 2.14552 0
M  V30 5284 C 508.914 -1.34707 1.10136 0
M  V30 5285 O 510.09 -1.42557 1.42266 0
M  V30 5286 C 507.155 -2.208 2.67298 0
M  V30 5287 C 506.216 -1.86893 3.86484 0
M  V30 5288 C 505.449 -3.06797 4.36705 0
M  V30 5289 O 505.672 -4.19921 3.86034 0
M  V30 5290 O 504.606 -2.8826 5.28384 0
M  V30 5291 H 508.432 -0.494099 2.99654 0
M  V30 5292 H 506.017 -0.177989 1.48336 0
M  V30 5293 H 507.899 -2.94686 3.01228 0
M  V30 5294 H 506.574 -2.65436 1.85272 0
M  V30 5295 H 505.481 -1.10347 3.57455 0
M  V30 5296 H 506.814 -1.47062 4.69716 0
M  V30 5297 N 508.466 -1.55915 -0.229846 0
M  V30 5298 C 509.694 -1.82617 -0.972562 0
M  V30 5299 C 510.109 -0.621488 -1.78278 0
M  V30 5300 O 509.466 0.409956 -1.77836 0
M  V30 5301 C 509.517 -3.0774 -1.89679 0
M  V30 5302 O 509.238 -4.23559 -1.11934 0
M  V30 5303 C 510.739 -3.47368 -2.75409 0
M  V30 5304 H 507.959 -0.60727 -0.285419 0
M  V30 5305 H 510.503 -2.02996 -0.247579 0
M  V30 5306 H 508.658 -2.89361 -2.57583 0
M  V30 5307 H 509.072 -4.94586 -1.74599 0
M  V30 5308 H 510.546 -4.37977 -3.35977 0
M  V30 5309 H 511.023 -2.68737 -3.47386 0
M  V30 5310 H 511.629 -3.68158 -2.12931 0
M  V30 5311 N 509.944 0.496216 -1.49584 0
M  V30 5312 C 510.891 1.59722 -1.66606 0
M  V30 5313 C 511.861 1.58158 -0.507477 0
M  V30 5314 O 513.046 1.76072 -0.735076 0
M  V30 5315 C 510.186 2.97844 -1.74308 0
M  V30 5316 C 509.299 3.09388 -3.01502 0
M  V30 5317 C 508.434 4.38271 -3.00153 0
M  V30 5318 C 507.473 4.43466 -4.21906 0
M  V30 5319 N 506.61 5.63784 -4.1844 0
M  V30 5320 H 511.45 1.44515 -2.60613 0
M  V30 5321 H 508.987 0.703048 -1.29212 0
M  V30 5322 H 510.945 3.77907 -1.76754 0
M  V30 5323 H 509.575 3.11743 -0.837619 0
M  V30 5324 H 508.627 2.22357 -3.08645 0
M  V30 5325 H 509.939 3.09085 -3.91494 0
M  V30 5326 H 509.093 5.2666 -3.01188 0
M  V30 5327 H 507.832 4.41146 -2.07947 0
M  V30 5328 H 506.837 3.53478 -4.21109 0
M  V30 5329 H 508.062 4.42303 -5.1531 0
M  V30 5330 H 506.008 5.67491 -3.29074 0
M  V30 5331 H 505.925 5.65118 -5.02173 0
M  V30 5332 H 507.193 6.54367 -4.23585 0
M  V30 5333 N 511.423 1.38739 0.74761 0
M  V30 5334 C 512.386 1.36241 1.84312 0
M  V30 5335 C 513.386 0.261811 1.58654 0
M  V30 5336 O 514.576 0.519031 1.66288 0
M  V30 5337 C 511.708 1.12253 3.21888 0
M  V30 5338 H 512.901 2.33712 1.87933 0
M  V30 5339 H 510.454 1.2412 0.949946 0
M  V30 5340 H 511.189 0.154133 3.23934 0
M  V30 5341 H 510.974 1.91943 3.41907 0
M  V30 5342 H 512.464 1.13215 4.0196 0
M  V30 5343 N 512.901 -0.976442 1.23707 0
M  V30 5344 C 513.811 -2.10359 1.03856 0
M  V30 5345 C 514.827 -1.73991 -0.0180919 0
M  V30 5346 O 516.003 -2.0061 0.178211 0
M  V30 5347 C 513.068 -3.40809 0.636387 0
M  V30 5348 C 512.129 -3.91179 1.76854 0
M  V30 5349 C 511.362 -5.15404 1.38546 0
M  V30 5350 O 511.585 -5.69754 0.27142 0
M  V30 5351 O 510.519 -5.5994 2.20797 0
M  V30 5352 H 514.345 -2.29997 1.98331 0
M  V30 5353 H 511.93 -1.08742 1.02448 0
M  V30 5354 H 513.812 -4.19269 0.423223 0
M  V30 5355 H 512.487 -3.22493 -0.279322 0
M  V30 5356 H 511.394 -3.13819 2.03638 0
M  V30 5357 H 512.727 -4.13958 2.6627 0
M  V30 5358 N 514.379 -1.04941 -1.1758 0
M  V30 5359 C 515.309 -0.669172 -2.23706 0
M  V30 5360 C 516.29 0.331835 -1.66832 0
M  V30 5361 O 517.475 0.209988 -1.93061 0
M  V30 5362 C 514.605 -0.0404889 -3.47276 0
M  V30 5363 C 513.559 -0.965983 -4.16957 0
M  V30 5364 C 512.885 -0.201312 -5.34321 0
M  V30 5365 C 514.185 -2.28902 -4.69469 0
M  V30 5366 H 515.879 -1.55639 -2.55767 0
M  V30 5367 H 513.425 -0.749793 -1.22939 0
M  V30 5368 H 515.378 0.237298 -4.20731 0
M  V30 5369 H 514.102 0.881658 -3.14475 0
M  V30 5370 H 512.761 -1.22829 -3.45411 0
M  V30 5371 H 512.409 0.723519 -4.97769 0
M  V30 5372 H 512.109 -0.817968 -5.81879 0
M  V30 5373 H 513.633 0.0692499 -6.10561 0
M  V30 5374 H 515.047 -2.07132 -5.34574 0
M  V30 5375 H 513.444 -2.85942 -5.27596 0
M  V30 5376 H 514.514 -2.92937 -3.86414 0
M  V30 5377 N 515.857 1.33968 -0.830081 0
M  V30 5378 C 516.807 2.26845 -0.229242 0
M  V30 5379 C 517.791 1.48862 0.610659 0
M  V30 5380 O 518.983 1.70808 0.464067 0
M  V30 5381 C 516.112 3.3798 0.602057 0
M  V30 5382 C 515.198 4.23369 -0.248866 0
M  V30 5383 N 515.589 4.88182 -1.32334 0
M  V30 5384 C 513.887 4.45987 -0.0344077 0
M  V30 5385 C 514.588 5.51671 -1.84482 0
M  V30 5386 N 513.564 5.31348 -1.14762 0
M  V30 5387 H 517.366 2.74464 -1.05104 0
M  V30 5388 H 514.88 1.4777 -0.673623 0
M  V30 5389 H 516.877 4.03494 1.04873 0
M  V30 5390 H 515.537 2.9191 1.42193 0
M  V30 5391 H 516.548 4.88988 -1.70619 0
M  V30 5392 H 513.225 4.10658 0.752727 0
M  V30 5393 H 514.615 6.13308 -2.74413 0
M  V30 5394 N 517.335 0.585699 1.46312 0
M  V30 5395 C 518.267 -0.183687 2.28463 0
M  V30 5396 C 519.28 -0.85264 1.38686 0
M  V30 5397 O 520.469 -0.721701 1.6326 0
M  V30 5398 C 517.569 -1.27977 3.13808 0
M  V30 5399 C 516.742 -0.702164 4.31727 0
M  V30 5400 C 515.801 -1.68633 4.98447 0
M  V30 5401 O 514.827 -1.22121 5.55945 0
M  V30 5402 N 516.029 -3.02047 4.95729 0
M  V30 5403 H 518.794 0.521127 2.95134 0
M  V30 5404 H 516.355 0.423673 1.56258 0
M  V30 5405 H 518.347 -1.9375 3.55307 0
M  V30 5406 H 516.917 -1.8874 2.4919 0
M  V30 5407 H 516.137 0.1331 3.93975 0
M  V30 5408 H 517.425 -0.296101 5.07938 0
M  V30 5409 H 516.823 -3.42457 4.50266 0
M  V30 5410 H 515.38 -3.63301 5.41161 0
M  V30 5411 N 518.813 -1.54241 0.323641 0
M  V30 5412 C 519.743 -2.27289 -0.534993 0
M  V30 5413 C 520.724 -1.28087 -1.11927 0
M  V30 5414 O 521.909 -1.56899 -1.14439 0
M  V30 5415 C 519.039 -3.03075 -1.69596 0
M  V30 5416 C 517.993 -4.09614 -1.24098 0
M  V30 5417 C 517.319 -4.73242 -2.4889 0
M  V30 5418 C 518.619 -5.21087 -0.355789 0
M  V30 5419 H 520.313 -2.99308 0.0743257 0
M  V30 5420 H 517.859 -1.43952 0.0371874 0
M  V30 5421 H 519.812 -3.52907 -2.30293 0
M  V30 5422 H 518.536 -2.28673 -2.33187 0
M  V30 5423 H 517.195 -3.60666 -0.656945 0
M  V30 5424 H 516.843 -3.95455 -3.10845 0
M  V30 5425 H 516.543 -5.45209 -2.19138 0
M  V30 5426 H 518.067 -5.25848 -3.10348 0
M  V30 5427 H 519.481 -5.66675 -0.869042 0
M  V30 5428 H 517.878 -5.9991 -0.151045 0
M  V30 5429 H 518.948 -4.81005 0.613339 0
M  V30 5430 N 520.291 -0.0518155 -1.57515 0
M  V30 5431 C 521.516 0.634896 -1.97443 0
M  V30 5432 C 521.941 1.63546 -0.929207 0
M  V30 5433 O 521.299 1.80981 0.107484 0
M  V30 5434 C 521.347 1.29765 -3.36442 0
M  V30 5435 O 520.451 2.41333 -3.34413 0
M  V30 5436 H 519.792 0.164994 -0.643174 0
M  V30 5437 H 522.322 -0.120407 -2.04245 0
M  V30 5438 H 522.332 1.64918 -3.73184 0
M  V30 5439 H 521.007 0.564361 -4.12053 0
M  V30 5440 H 519.584 2.08122 -3.09418 0
M  V30 5441 N 521.769 1.56035 0.221574 0
M  V30 5442 C 523.017 1.78693 0.944102 0
M  V30 5443 C 523.338 0.620317 1.8487 0
M  V30 5444 O 522.608 -0.362784 1.92512 0
M  V30 5445 H 521.188 0.659082 0.351597 0
M  V30 5446 H 523.85 1.93497 0.233435 0
M  V30 5447 H 522.946 2.70837 1.55093 0
M  V30 5448 N 523.247 -0.488276 1.49845 0
M  V30 5449 C 524.495 -1.23911 1.59657 0
M  V30 5450 C 524.816 -1.92816 0.291005 0
M  V30 5451 O 524.086 -1.83328 -0.690485 0
M  V30 5452 H 522.666 -0.460357 0.588286 0
M  V30 5453 H 525.328 -0.564794 1.86537 0
M  V30 5454 H 524.424 -1.99625 2.39909 0
M  V30 5455 N 524.725 -1.39134 -0.740242 0
M  V30 5456 C 525.635 -1.39697 -1.88473 0
M  V30 5457 C 526.651 -0.292403 -1.71526 0
M  V30 5458 O 527.827 -0.533021 -1.94219 0
M  V30 5459 C 524.892 -1.23382 -3.24003 0
M  V30 5460 C 523.953 -2.43763 -3.53381 0
M  V30 5461 C 523.186 -2.28216 -4.82445 0
M  V30 5462 O 523.409 -1.28288 -5.55786 0
M  V30 5463 O 522.343 -3.1709 -5.11603 0
M  V30 5464 H 526.169 -2.36159 -1.90952 0
M  V30 5465 H 523.754 -1.20194 -0.887346 0
M  V30 5466 H 525.636 -1.16395 -4.05006 0
M  V30 5467 H 524.311 -0.300121 -3.22306 0
M  V30 5468 H 523.218 -2.56325 -2.72485 0
M  V30 5469 H 524.551 -3.35808 -3.59852 0
M  V30 5470 N 526.204 0.969867 -1.24223 0
M  V30 5471 C 527.151 2.06407 -1.0327 0
M  V30 5472 C 528.121 1.66014 0.0533 0
M  V30 5473 O 529.306 1.90533 -0.100896 0
M  V30 5474 C 526.446 3.3909 -0.641262 0
M  V30 5475 C 525.559 3.9269 -1.80051 0
M  V30 5476 C 524.694 5.13631 -1.35486 0
M  V30 5477 C 523.733 5.59423 -2.48419 0
M  V30 5478 N 522.87 6.71586 -2.04737 0
M  V30 5479 H 527.71 2.23663 -1.96923 0
M  V30 5480 H 525.247 1.09624 -0.980862 0
M  V30 5481 H 527.205 4.15323 -0.395351 0
M  V30 5482 H 525.835 3.21765 0.258269 0
M  V30 5483 H 524.887 3.13116 -2.16014 0
M  V30 5484 H 526.199 4.22636 -2.64916 0
M  V30 5485 H 525.353 5.97231 -1.0677 0
M  V30 5486 H 524.092 4.85364 -0.476722 0
M  V30 5487 H 523.097 4.74398 -2.77897 0
M  V30 5488 H 524.322 5.89705 -3.36786 0
M  V30 5489 H 522.268 6.45058 -1.19318 0
M  V30 5490 H 522.185 7.0097 -2.83156 0
M  V30 5491 H 523.453 7.58633 -1.79154 0
M  V30 5492 N 527.682 1.05563 1.17022 0
M  V30 5493 C 528.629 0.659893 2.21165 0
M  V30 5494 C 529.599 -0.339813 1.62587 0
M  V30 5495 O 530.784 -0.230378 1.89404 0
M  V30 5496 C 527.924 0.0447297 3.45071 0
M  V30 5497 C 527.037 1.09372 4.17926 0
M  V30 5498 C 526.172 0.445481 5.29329 0
M  V30 5499 C 525.211 1.47852 5.93975 0
M  V30 5500 N 524.348 0.854172 6.96885 0
M  V30 5501 H 529.188 1.55243 2.54369 0
M  V30 5502 H 526.725 0.776336 1.24946 0
M  V30 5503 H 528.683 -0.329404 4.15898 0
M  V30 5504 H 527.313 -0.811244 3.1244 0
M  V30 5505 H 526.365 1.58564 3.45777 0
M  V30 5506 H 527.677 1.87773 4.62107 0
M  V30 5507 H 526.831 0.0179688 6.06697 0
M  V30 5508 H 525.57 -0.370481 4.86291 0
M  V30 5509 H 524.575 1.91601 5.15334 0
M  V30 5510 H 525.8 2.29645 6.39093 0
M  V30 5511 H 523.746 0.0587882 6.55974 0
M  V30 5512 H 523.663 1.57567 7.39397 0
M  V30 5513 H 524.931 0.451559 7.78191 0
M  V30 5514 N 529.16 -1.33526 0.837174 0
M  V30 5515 C 530.107 -2.29248 0.267169 0
M  V30 5516 C 531.077 -1.54252 -0.616071 0
M  V30 5517 O 532.262 -1.82559 -0.554699 0
M  V30 5518 C 529.402 -3.40638 -0.553152 0
M  V30 5519 C 528.515 -4.30548 0.353921 0
M  V30 5520 C 527.65 -5.29051 -0.477339 0
M  V30 5521 C 526.689 -6.106 0.42823 0
M  V30 5522 N 525.826 -7.01152 -0.364801 0
M  V30 5523 H 530.666 -2.77398 1.08877 0
M  V30 5524 H 528.203 -1.36496 0.54838 0
M  V30 5525 H 530.161 -4.03921 -1.04422 0
M  V30 5526 H 528.791 -2.93685 -1.33973 0
M  V30 5527 H 527.843 -3.68001 0.963289 0
M  V30 5528 H 529.155 -4.87631 1.04964 0
M  V30 5529 H 528.309 -5.97853 -1.0323 0
M  V30 5530 H 527.048 -4.72541 -1.2065 0
M  V30 5531 H 526.053 -5.40718 0.995219 0
M  V30 5532 H 527.278 -6.69193 1.15573 0
M  V30 5533 H 525.224 -6.47092 -1.07738 0
M  V30 5534 H 525.141 -7.5551 0.272238 0
M  V30 5535 H 526.409 -7.74263 -0.902054 0
M  V30 5536 N 530.638 -0.59345 -1.46 0
M  V30 5537 C 531.585 0.133618 -2.30413 0
M  V30 5538 C 532.555 0.873736 -1.41262 0
M  V30 5539 O 533.74 0.862279 -1.70204 0
M  V30 5540 C 530.88 1.13434 -3.25924 0
M  V30 5541 C 529.993 0.39656 -4.30176 0
M  V30 5542 C 529.128 1.38575 -5.12806 0
M  V30 5543 C 528.167 0.634984 -6.08797 0
M  V30 5544 N 527.304 1.57276 -6.84258 0
M  V30 5545 H 532.144 -0.592252 -2.92055 0
M  V30 5546 H 529.681 -0.303874 -1.43927 0
M  V30 5547 H 531.639 1.72752 -3.79753 0
M  V30 5548 H 530.269 1.82779 -2.66067 0
M  V30 5549 H 529.321 -0.311861 -3.79119 0
M  V30 5550 H 530.633 -0.189869 -4.98438 0
M  V30 5551 H 529.787 2.05141 -5.70966 0
M  V30 5552 H 528.526 2.00611 -4.44529 0
M  V30 5553 H 527.531 -0.0443925 -5.49782 0
M  V30 5554 H 528.756 0.0198678 -6.79097 0
M  V30 5555 H 526.702 2.18103 -6.18682 0
M  V30 5556 H 526.619 1.03941 -7.48821 0
M  V30 5557 H 527.887 2.22844 -7.46968 0
M  V30 5558 N 532.116 1.54067 -0.331816 0
M  V30 5559 C 533.365 1.99895 0.269209 0
M  V30 5560 C 533.678 1.22371 1.52593 0
M  V30 5561 O 534.884 1.58618 2.20347 0
M  V30 5562 C 533.34 3.55972 0.530244 0
M  V30 5563 C 532.948 4.4234 -0.709901 0
M  V30 5564 C 534.692 4.10247 1.09077 0
M  V30 5565 C 532.599 5.89905 -0.420312 0
M  V30 5566 H 531.529 0.746741 0.104371 0
M  V30 5567 H 534.18 1.78014 -0.445324 0
M  V30 5568 H 532.562 3.73873 1.30518 0
M  V30 5569 H 533.736 4.36215 -1.48504 0
M  V30 5570 H 532.051 3.98997 -1.19123 0
M  V30 5571 H 534.648 5.18095 1.32219 0
M  V30 5572 H 534.991 3.62739 2.0427 0
M  V30 5573 H 535.524 3.96011 0.376824 0
M  V30 5574 H 532.263 6.41623 -1.34164 0
M  V30 5575 H 531.783 5.98962 0.316962 0
M  V30 5576 H 533.462 6.46991 -0.0331956 0
M  V30 5577 N 533.594 0.0601682 1.57485 0
M  V30 5578 C 534.822 -0.620937 1.97363 0
M  V30 5579 C 535.237 -1.63846 0.938082 0
M  V30 5580 O 534.594 -1.82339 -0.0766578 0
M  V30 5581 C 534.645 -1.29987 3.37321 0
M  V30 5582 O 534.366 -0.323081 4.36907 0
M  V30 5583 C 535.867 -2.06989 3.92008 0
M  V30 5584 H 533.087 -0.169135 0.649334 0
M  V30 5585 H 535.631 0.129132 2.04092 0
M  V30 5586 H 533.786 -2.0011 3.31715 0
M  V30 5587 H 534.2 -0.808754 5.18227 0
M  V30 5588 H 535.674 -2.49901 4.92192 0
M  V30 5589 H 536.151 -2.92173 3.2792 0
M  V30 5590 H 536.757 -1.41757 4.0098 0
M  V30 5591 N 535.072 -1.5615 -0.213296 0
M  V30 5592 C 536.318 -1.79812 -0.937849 0
M  V30 5593 C 536.651 -0.631201 -1.83656 0
M  V30 5594 O 535.926 0.369165 -1.90964 0
M  V30 5595 C 536.209 -3.13613 -1.76972 0
M  V30 5596 C 536.062 -4.40766 -0.89695 0
M  V30 5597 C 537.381 -3.43931 -2.7459 0
M  V30 5598 H 534.5 -0.654138 -0.339518 0
M  V30 5599 H 537.142 -1.88877 -0.20623 0
M  V30 5600 H 535.292 -3.06015 -2.39347 0
M  V30 5601 H 536.964 -4.60392 -0.289306 0
M  V30 5602 H 535.207 -4.33326 -0.202756 0
M  V30 5603 H 535.878 -5.30843 -1.51358 0
M  V30 5604 H 538.354 -3.5171 -2.22349 0
M  V30 5605 H 537.23 -4.38706 -3.29891 0
M  V30 5606 H 537.491 -2.6651 -3.52739 0
M  V30 5607 N 536.55 0.480323 -1.50102 0
M  V30 5608 C 537.797 1.23307 -1.60629 0
M  V30 5609 C 538.125 1.92135 -0.302375 0
M  V30 5610 O 537.38 1.82321 0.711154 0
M  V30 5611 C 537.679 2.30708 -2.72963 0
M  V30 5612 C 537.345 1.79195 -4.13763 0
M  V30 5613 C 536.007 1.64867 -4.52076 0
M  V30 5614 C 538.359 1.40878 -5.018 0
M  V30 5615 C 535.687 1.10631 -5.76175 0
M  V30 5616 C 538.039 0.880872 -6.26437 0
M  V30 5617 C 536.703 0.724146 -6.6356 0
M  V30 5618 H 535.973 0.451211 -0.587784 0
M  V30 5619 H 538.62 0.53051 -1.84005 0
M  V30 5620 H 536.925 3.06834 -2.43639 0
M  V30 5621 H 538.622 2.88692 -2.78313 0
M  V30 5622 H 535.212 1.91313 -3.83533 0
M  V30 5623 H 539.396 1.50786 -4.7284 0
M  V30 5624 H 534.652 0.972263 -6.0362 0
M  V30 5625 H 538.826 0.575269 -6.9402 0
M  V30 5626 H 536.453 0.301722 -7.59601 0
M  V30 5627 N 538.028 1.39524 0.732853 0
M  V30 5628 C 538.975 1.38416 1.84688 0
M  V30 5629 C 539.945 0.243539 1.64305 0
M  V30 5630 O 541.13 0.438979 1.85681 0
M  V30 5631 C 538.27 1.23555 3.22224 0
M  V30 5632 C 537.383 2.47179 3.54298 0
M  V30 5633 C 536.518 2.2489 4.81246 0
M  V30 5634 C 535.557 3.44178 5.0617 0
M  V30 5635 N 534.694 3.21192 6.24323 0
M  V30 5636 H 539.534 2.33645 1.84971 0
M  V30 5637 H 537.071 1.16059 0.903804 0
M  V30 5638 H 539.029 1.12949 4.0162 0
M  V30 5639 H 537.659 0.31954 3.21215 0
M  V30 5640 H 536.711 2.68379 2.69587 0
M  V30 5641 H 538.023 3.36022 3.68633 0
M  V30 5642 H 537.177 2.11538 5.68627 0
M  V30 5643 H 535.916 1.33443 4.69089 0
M  V30 5644 H 534.921 3.58025 4.17251 0
M  V30 5645 H 536.146 4.36528 5.20212 0
M  V30 5646 H 534.092 2.32413 6.1345 0
M  V30 5647 H 534.009 4.03594 6.39256 0
M  V30 5648 H 535.277 3.1154 7.14537 0
M  V30 5649 N 539.506 -0.963266 1.24736 0
M  V30 5650 C 540.416 -2.09246 1.06082 0
M  V30 5651 C 541.432 -1.74 0.000363101 0
M  V30 5652 O 542.608 -2.0041 0.199479 0
M  V30 5653 C 539.673 -3.40115 0.672498 0
M  V30 5654 C 538.734 -3.89282 1.80993 0
M  V30 5655 C 537.967 -5.13905 1.44004 0
M  V30 5656 O 538.19 -5.69434 0.331835 0
M  V30 5657 O 537.124 -5.57566 2.26723 0
M  V30 5658 H 540.95 -2.27881 2.00759 0
M  V30 5659 H 538.535 -1.07649 1.03595 0
M  V30 5660 H 540.417 -4.18797 0.467668 0
M  V30 5661 H 539.092 -3.22771 -0.245102 0
M  V30 5662 H 537.999 -3.11642 2.06955 0
M  V30 5663 H 539.332 -4.1111 2.70646 0
M  V30 5664 N 540.985 -1.06182 -1.16461 0
M  V30 5665 C 542.234 -0.772927 -1.86303 0
M  V30 5666 C 542.547 0.703187 -1.82523 0
M  V30 5667 O 543.753 1.10641 -2.47933 0
M  V30 5668 C 542.209 -1.33249 -3.34324 0
M  V30 5669 C 541.817 -2.83876 -3.46581 0
M  V30 5670 C 543.561 -1.12108 -4.09429 0
M  V30 5671 C 541.468 -3.33082 -4.88682 0
M  V30 5672 H 540.398 -0.285452 -0.697878 0
M  V30 5673 H 543.049 -1.28039 -1.31447 0
M  V30 5674 H 541.431 -0.7528 -3.88779 0
M  V30 5675 H 542.605 -3.47786 -3.02293 0
M  V30 5676 H 540.92 -3.03671 -2.84909 0
M  V30 5677 H 543.517 -1.46361 -5.14279 0
M  V30 5678 H 543.86 -0.0593832 -4.16258 0
M  V30 5679 H 544.393 -1.6665 -3.6121 0
M  V30 5680 H 541.132 -4.38726 -4.87032 0
M  V30 5681 H 540.652 -2.73919 -5.33599 0
M  V30 5682 H 542.331 -3.28344 -5.57494 0
M  V30 5683 N 542.463 1.3308 -0.844243 0
M  V30 5684 C 543.688 2.02341 -0.455282 0
M  V30 5685 C 544.113 1.6308 0.93737 0
M  V30 5686 O 543.471 0.826118 1.61385 0
M  V30 5687 C 543.519 3.55743 -0.58988 0
M  V30 5688 O 542.623 4.1063 0.38166 0
M  V30 5689 H 541.964 0.637898 -0.184343 0
M  V30 5690 H 544.494 1.6986 -1.14056 0
M  V30 5691 H 544.504 4.05243 -0.473522 0
M  V30 5692 H 543.179 3.83662 -1.60549 0
M  V30 5693 H 541.756 3.72236 0.22241 0
M  V30 5694 N 543.941 0.601185 1.45683 0
M  V30 5695 C 545.171 0.0999093 2.06358 0
M  V30 5696 C 545.579 -1.21831 1.44754 0
M  V30 5697 O 544.922 -1.75157 0.553695 0
M  V30 5698 C 544.984 -0.12085 3.59297 0
M  V30 5699 C 544.648 1.11459 4.432 0
M  V30 5700 C 545.645 2.03118 4.7858 0
M  V30 5701 C 543.33 1.34162 4.84051 0
M  V30 5702 C 545.324 3.15814 5.53661 0
M  V30 5703 C 543.011 2.4716 5.58888 0
M  V30 5704 C 544.009 3.37814 5.93608 0
M  V30 5705 O 543.697 4.48846 6.66928 0
M  V30 5706 H 543.429 0.0630316 0.673055 0
M  V30 5707 H 545.983 0.826982 1.88016 0
M  V30 5708 H 544.213 -0.902744 3.76015 0
M  V30 5709 H 545.902 -0.572925 4.01836 0
M  V30 5710 H 546.668 1.86801 4.47583 0
M  V30 5711 H 542.547 0.645018 4.56465 0
M  V30 5712 H 546.091 3.86596 5.8068 0
M  V30 5713 H 541.988 2.63432 5.89299 0
M  V30 5714 H 542.756 4.47446 6.85371 0
M  V30 5715 N 545.419 -1.53889 0.339982 0
M  V30 5716 C 546.647 -2.05271 -0.259114 0
M  V30 5717 C 547.062 -1.21517 -1.44496 0
M  V30 5718 O 546.419 -0.24966 -1.80784 0
M  V30 5719 C 546.47 -3.55092 -0.677634 0
M  V30 5720 O 546.191 -4.35667 0.461051 0
M  V30 5721 C 547.692 -4.22631 -1.33782 0
M  V30 5722 H 544.912 -0.669085 -0.0506566 0
M  V30 5723 H 547.456 -1.9852 0.490935 0
M  V30 5724 H 545.611 -3.62077 -1.37763 0
M  V30 5725 H 546.025 -5.24343 0.128144 0
M  V30 5726 H 547.499 -5.28861 -1.58145 0
M  V30 5727 H 547.976 -3.74758 -2.29027 0
M  V30 5728 H 548.582 -4.19829 -0.679957 0
M  V30 5729 N 546.897 -0.0685191 -1.57451 0
M  V30 5730 C 548.125 0.610462 -1.97689 0
M  V30 5731 C 548.54 1.63346 -0.946758 0
M  V30 5732 O 547.897 1.82377 0.0669868 0
M  V30 5733 C 547.948 1.28196 -3.38006 0
M  V30 5734 O 547.669 0.299906 -4.37072 0
M  V30 5735 C 549.17 2.04907 -3.931 0
M  V30 5736 H 546.39 0.165689 -0.650222 0
M  V30 5737 H 548.934 -0.139953 -2.04021 0
M  V30 5738 H 547.089 1.98348 -3.32771 0
M  V30 5739 H 547.503 0.78126 -5.18649 0
M  V30 5740 H 548.977 2.47287 -4.93511 0
M  V30 5741 H 549.454 2.9043 -3.29465 0
M  V30 5742 H 550.06 1.39629 -4.01726 0
M  V30 5743 N 548.375 1.56261 0.205012 0
M  V30 5744 C 549.6 1.84491 0.947512 0
M  V30 5745 C 550.025 0.650894 1.76479 0
M  V30 5746 O 549.383 -0.40035 1.76824 0
M  V30 5747 C 549.431 3.10863 1.82747 0
M  V30 5748 O 548.535 2.90719 2.925 0
M  V30 5749 H 547.876 0.607783 0.267386 0
M  V30 5750 H 550.406 2.03485 0.213323 0
M  V30 5751 H 550.416 3.41399 2.23407 0
M  V30 5752 H 549.091 3.97392 1.2269 0
M  V30 5753 H 547.668 2.71457 2.55667 0
M  V30 5754 N 549.853 -0.472356 1.50355 0
M  V30 5755 C 551.1 -1.22453 1.61281 0
M  V30 5756 C 551.428 -1.91972 0.31256 0
M  V30 5757 O 550.683 -1.82696 -0.701475 0
M  V30 5758 C 550.982 -2.29257 2.74182 0
M  V30 5759 C 550.648 -1.76999 4.14708 0
M  V30 5760 C 549.31 -1.62467 4.52944 0
M  V30 5761 C 551.662 -1.38215 5.0254 0
M  V30 5762 C 548.99 -1.07574 5.76754 0
M  V30 5763 C 551.342 -0.847638 6.26895 0
M  V30 5764 C 550.006 -0.688946 6.63935 0
M  V30 5765 H 549.276 -0.448087 0.590168 0
M  V30 5766 H 551.923 -0.520744 1.84284 0
M  V30 5767 H 550.228 -3.05538 2.45263 0
M  V30 5768 H 551.925 -2.87212 2.7984 0
M  V30 5769 H 548.515 -1.89276 3.84542 0
M  V30 5770 H 552.699 -1.48276 4.73633 0
M  V30 5771 H 547.955 -0.940237 6.04127 0
M  V30 5772 H 552.129 -0.538455 6.94315 0
M  V30 5773 H 549.756 -0.261435 7.5975 0
M  V30 5774 N 551.331 -1.39911 -0.725443 0
M  V30 5775 C 552.571 -1.39096 -1.49772 0
M  V30 5776 C 552.935 0.0106452 -1.91997 0
M  V30 5777 O 554.136 0.143859 -2.68415 0
M  V30 5778 C 552.407 -2.34441 -2.69764 0
M  V30 5779 S 553.966 -2.51898 -3.59295 0
M  V30 5780 H 550.784 -0.49314 -0.512186 0
M  V30 5781 H 553.386 -1.76093 -0.849197 0
M  V30 5782 H 552.09 -3.35123 -2.36898 0
M  V30 5783 H 551.621 -1.98692 -3.39537 0
M  V30 5784 H 553.636 -1.76402 -4.63785 0
M  V30 5785 N 552.809 0.956637 -1.25245 0
M  V30 5786 C 553.759 2.03841 -1.02141 0
M  V30 5787 C 554.743 1.60848 0.0410058 0
M  V30 5788 O 555.935 1.76142 -0.174084 0
M  V30 5789 C 553.064 3.37282 -0.639963 0
M  V30 5790 C 552.15 3.86805 -1.73903 0
M  V30 5791 N 552.541 4.09143 -2.97381 0
M  V30 5792 C 550.839 4.15574 -1.61909 0
M  V30 5793 C 551.54 4.49923 -3.68707 0
M  V30 5794 N 550.516 4.55737 -2.96318 0
M  V30 5795 H 554.318 2.19102 -1.95886 0
M  V30 5796 H 551.832 1.1413 -1.15534 0
M  V30 5797 H 553.829 4.14403 -0.455643 0
M  V30 5798 H 552.489 3.23401 0.29018 0
M  V30 5799 H 553.5 3.96275 -3.33447 0
M  V30 5800 H 550.177 4.10566 -0.757764 0
M  V30 5801 H 551.567 4.75526 -4.74684 0
M  V30 5802 N 554.287 1.06798 1.15896 0
M  V30 5803 C 555.219 0.641263 2.20046 0
M  V30 5804 C 556.232 -0.303355 1.59949 0
M  V30 5805 O 557.421 -0.0935478 1.78255 0
M  V30 5806 C 554.521 -0.0794029 3.38807 0
M  V30 5807 C 553.694 0.879986 4.28457 0
M  V30 5808 C 552.753 0.197638 5.25829 0
M  V30 5809 O 551.779 0.836913 5.63014 0
M  V30 5810 N 552.981 -1.05886 5.70761 0
M  V30 5811 H 555.746 1.53718 2.57276 0
M  V30 5812 H 553.307 0.951951 1.30956 0
M  V30 5813 H 555.299 -0.546418 4.00994 0
M  V30 5814 H 553.869 -0.877193 3.0004 0
M  V30 5815 H 553.089 1.52625 3.63454 0
M  V30 5816 H 554.377 1.53065 4.8523 0
M  V30 5817 H 553.775 -1.59828 5.42652 0
M  V30 5818 H 552.332 -1.46965 6.35015 0
M  V30 5819 N 555.766 -1.3263 0.851289 0
M  V30 5820 C 556.696 -2.31449 0.308771 0
M  V30 5821 C 557.677 -1.59531 -0.590255 0
M  V30 5822 O 558.862 -1.87351 -0.511205 0
M  V30 5823 C 555.992 -3.43586 -0.506548 0
M  V30 5824 C 554.946 -4.26963 0.297753 0
M  V30 5825 C 554.272 -5.30831 -0.642094 0
M  V30 5826 C 555.572 -4.99643 1.52166 0
M  V30 5827 H 557.266 -2.77074 1.13447 0
M  V30 5828 H 554.812 -1.33207 0.546971 0
M  V30 5829 H 556.765 -4.11754 -0.896474 0
M  V30 5830 H 555.489 -2.96681 -1.36558 0
M  V30 5831 H 554.148 -3.60437 0.669391 0
M  V30 5832 H 553.796 -4.8018 -1.49788 0
M  V30 5833 H 553.496 -5.87501 -0.107968 0
M  V30 5834 H 555.02 -6.01862 -1.02927 0
M  V30 5835 H 556.434 -5.6051 1.20421 0
M  V30 5836 H 554.831 -5.66022 1.99347 0
M  V30 5837 H 555.901 -4.27701 2.28474 0
M  V30 5838 N 557.244 -0.608902 -1.45362 0
M  V30 5839 C 558.66 -0.272659 -1.57254 0
M  V30 5840 C 558.86 1.22477 -1.60005 0
M  V30 5841 O 557.916 2.00785 -1.53106 0
M  V30 5842 C 559.229 -0.944991 -2.85465 0
M  V30 5843 C 560.777 -0.921033 -2.99142 0
M  V30 5844 C 561.252 -1.5734 -4.30126 0
M  V30 5845 N 562.743 -1.53895 -4.36887 0
M  V30 5846 C 563.478 -2.01286 -5.36909 0
M  V30 5847 N 562.974 -2.56768 -6.43461 0
M  V30 5848 N 564.767 -1.92046 -5.28275 0
M  V30 5849 H 556.918 -1.58117 -1.4182 0
M  V30 5850 H 559.181 -0.662437 -0.678146 0
M  V30 5851 H 558.887 -1.99941 -2.89338 0
M  V30 5852 H 558.761 -0.469079 -3.74272 0
M  V30 5853 H 561.148 0.124846 -2.94836 0
M  V30 5854 H 561.229 -1.43522 -2.11743 0
M  V30 5855 H 560.873 -2.61862 -4.35191 0
M  V30 5856 H 560.803 -1.03422 -5.16344 0
M  V30 5857 H 563.294 -1.13366 -3.60495 0
M  V30 5858 H 563.607 -2.9072 -7.16032 0
M  V30 5859 H 561.952 -2.60808 -6.44208 0
M  V30 5860 H 565.143 -1.48439 -4.43941 0
M  V30 5861 H 565.316 -2.29293 -6.06077 0
M  V30 5862 N 558.722 1.53707 -0.348139 0
M  V30 5863 C 559.968 2.01979 0.239986 0
M  V30 5864 C 560.323 1.23141 1.47831 0
M  V30 5865 O 559.616 0.311936 1.89044 0
M  V30 5866 C 559.81 3.52292 0.602061 0
M  V30 5867 C 559.639 4.45684 -0.599625 0
M  V30 5868 C 558.409 4.9304 -1.10635 0
M  V30 5869 C 560.607 4.93156 -1.4595 0
M  V30 5870 N 558.589 5.70394 -2.26988 0
M  V30 5871 C 559.96 5.6868 -2.46988 0
M  V30 5872 C 562.015 4.75257 -1.48441 0
M  V30 5873 C 560.718 6.28208 -3.50353 0
M  V30 5874 C 562.744 5.35639 -2.50689 0
M  V30 5875 C 562.106 6.11034 -3.50453 0
M  V30 5876 H 558.205 0.780335 0.0509992 0
M  V30 5877 H 560.789 1.88466 -0.488742 0
M  V30 5878 H 558.96 3.66002 1.29989 0
M  V30 5879 H 560.692 3.87304 1.17377 0
M  V30 5880 H 557.447 4.68784 -0.67371 0
M  V30 5881 H 557.871 6.13741 -2.85747 0
M  V30 5882 H 562.513 4.16508 -0.726707 0
M  V30 5883 H 560.231 6.86064 -4.27015 0
M  V30 5884 H 563.817 5.23693 -2.53449 0
M  V30 5885 H 562.697 6.56925 -4.28275 0
M  V30 5886 N 560.2 0.0768682 1.57412 0
M  V30 5887 C 561.446 -0.591961 1.93968 0
M  V30 5888 C 561.779 -1.68954 0.9575 0
M  V30 5889 O 561.054 -1.94496 -0.0124675 0
M  V30 5890 C 561.337 -1.16418 3.40762 0
M  V30 5891 C 561.19 -0.0728933 4.49741 0
M  V30 5892 C 562.509 -2.06814 3.88479 0
M  V30 5893 H 559.628 -0.213716 0.705333 0
M  V30 5894 H 562.27 0.14387 1.89455 0
M  V30 5895 H 560.42 -1.79128 3.4474 0
M  V30 5896 H 562.092 0.560446 4.57883 0
M  V30 5897 H 560.335 0.595859 4.29688 0
M  V30 5898 H 561.006 -0.513755 5.49604 0
M  V30 5899 H 563.482 -1.54033 3.8654 0
M  V30 5900 H 562.358 -2.43785 4.91793 0
M  V30 5901 H 562.619 -2.97844 3.26713 0
M  V30 5902 N 561.678 -1.56367 -0.196722 0
M  V30 5903 C 562.903 -1.84991 -0.937714 0
M  V30 5904 C 563.328 -0.660244 -1.76132 0
M  V30 5905 O 562.686 0.390967 -1.77034 0
M  V30 5906 C 562.734 -3.11828 -1.81096 0
M  V30 5907 O 561.838 -2.92266 -2.90955 0
M  V30 5908 H 561.179 -0.609193 -0.264159 0
M  V30 5909 H 563.709 -2.03595 -0.202529 0
M  V30 5910 H 563.719 -3.42579 -2.21594 0
M  V30 5911 H 562.394 -3.98037 -1.2058 0
M  V30 5912 H 560.971 -2.72809 -2.54224 0
M  V30 5913 N 563.156 0.464375 -1.50603 0
M  V30 5914 C 564.103 1.56152 -1.69956 0
M  V30 5915 C 565.073 1.57046 -0.54091 0
M  V30 5916 O 566.258 1.74473 -0.772258 0
M  V30 5917 C 563.398 2.94079 -1.80586 0
M  V30 5918 C 562.511 3.02923 -3.07996 0
M  V30 5919 C 561.646 4.31806 -3.09382 0
M  V30 5920 C 560.685 4.34417 -4.31218 0
M  V30 5921 N 559.822 5.54782 -4.30304 0
M  V30 5922 H 564.662 1.38955 -2.6362 0
M  V30 5923 H 562.199 0.675482 -1.30674 0
M  V30 5924 H 564.157 3.74073 -1.8473 0
M  V30 5925 H 562.787 3.09896 -0.903556 0
M  V30 5926 H 561.839 2.1576 -3.13292 0
M  V30 5927 H 563.151 3.00712 -3.97962 0
M  V30 5928 H 562.305 5.20153 -3.12292 0
M  V30 5929 H 561.044 4.36636 -2.17257 0
M  V30 5930 H 560.049 3.44467 -4.28512 0
M  V30 5931 H 561.274 4.31273 -5.24576 0
M  V30 5932 H 559.22 5.60384 -3.41037 0
M  V30 5933 H 559.137 5.54339 -5.14047 0
M  V30 5934 H 560.405 6.45235 -4.3737 0
M  V30 5935 N 564.634 1.40294 0.718013 0
M  V30 5936 C 566.05 1.2227 1.02577 0
M  V30 5937 C 566.25 0.0961976 2.0127 0
M  V30 5938 O 565.306 -0.546695 2.46511 0
M  V30 5939 C 566.619 2.56348 1.57182 0
M  V30 5940 C 568.167 2.6334 1.69178 0
M  V30 5941 C 568.642 3.9768 2.27188 0
M  V30 5942 N 570.133 3.99409 2.34578 0
M  V30 5943 C 570.868 5.00141 2.8044 0
M  V30 5944 N 570.364 6.11268 3.26073 0
M  V30 5945 N 572.157 4.87511 2.79802 0
M  V30 5946 H 564.308 2.12304 0.0637899 0
M  V30 5947 H 566.571 0.943632 0.0909036 0
M  V30 5948 H 566.277 3.3942 0.921262 0
M  V30 5949 H 566.151 2.77266 2.55741 0
M  V30 5950 H 568.538 1.80641 2.33351 0
M  V30 5951 H 568.619 2.46255 0.692247 0
M  V30 5952 H 568.263 4.80817 1.63638 0
M  V30 5953 H 568.193 4.12093 3.27852 0
M  V30 5954 H 570.684 3.19162 2.02346 0
M  V30 5955 H 570.997 6.84023 3.59628 0
M  V30 5956 H 569.342 6.14837 3.24038 0
M  V30 5957 H 572.533 3.9979 2.43487 0
M  V30 5958 H 572.706 5.66158 3.15228 0
M  V30 5959 N 566.112 -0.949982 1.2575 0
M  V30 5960 C 567.337 -1.73503 1.13628 0
M  V30 5961 C 567.762 -1.85601 -0.30559 0
M  V30 5962 O 567.12 -1.33984 -1.22139 0
M  V30 5963 C 567.168 -3.1243 1.80055 0
M  V30 5964 O 566.272 -3.97916 1.08336 0
M  V30 5965 H 565.613 -0.532665 0.396439 0
M  V30 5966 H 568.143 -1.19043 1.66403 0
M  V30 5967 H 568.153 -3.62866 1.86527 0
M  V30 5968 H 566.828 -3.02941 2.84956 0
M  V30 5969 H 565.405 -3.56375 1.09777 0
M  V30 5970 N 567.59 -1.07411 -1.15328 0
M  V30 5971 C 568.837 -0.797649 -1.86128 0
M  V30 5972 C 569.165 0.676298 -1.82364 0
M  V30 5973 O 568.42 1.51223 -1.24218 0
M  V30 5974 C 568.719 -1.25191 -3.34757 0
M  V30 5975 C 568.385 -2.73191 -3.58716 0
M  V30 5976 C 567.047 -3.13616 -3.64964 0
M  V30 5977 C 569.399 -3.68718 -3.6837 0
M  V30 5978 C 566.727 -4.48383 -3.78377 0
M  V30 5979 C 569.079 -5.03248 -3.83306 0
M  V30 5980 C 567.743 -5.43293 -3.878 0
M  V30 5981 H 567.013 -0.29188 -0.681092 0
M  V30 5982 H 569.66 -1.34524 -1.36292 0
M  V30 5983 H 567.965 -0.623712 -3.86804 0
M  V30 5984 H 569.662 -1.01489 -3.87945 0
M  V30 5985 H 566.252 -2.40898 -3.54494 0
M  V30 5986 H 570.436 -3.38614 -3.62842 0
M  V30 5987 H 565.692 -4.78877 -3.80114 0
M  V30 5988 H 569.866 -5.77142 -3.89718 0
M  V30 5989 H 567.493 -6.47721 -3.97946 0
M  V30 5990 N 569.068 1.32177 -0.85831 0
M  V30 5991 C 570.015 2.28794 -0.303607 0
M  V30 5992 C 570.985 1.55213 0.591453 0
M  V30 5993 O 572.17 1.83418 0.525585 0
M  V30 5994 C 569.31 3.41475 0.49889 0
M  V30 5995 C 568.423 4.2993 -0.422373 0
M  V30 5996 C 567.558 5.29743 0.393111 0
M  V30 5997 C 566.597 6.09842 -0.525317 0
M  V30 5998 N 565.734 7.01643 0.253208 0
M  V30 5999 H 570.574 2.75631 -1.13276 0
M  V30 6000 H 568.111 1.35606 -0.570026 0
M  V30 6001 H 570.069 4.05531 0.979826 0
M  V30 6002 H 568.699 2.95779 1.29284 0
M  V30 6003 H 567.751 3.66422 -1.02171 0
M  V30 6004 H 569.063 4.85899 -1.12709 0
M  V30 6005 H 568.217 5.9942 0.937056 0
M  V30 6006 H 566.956 4.744 1.13117 0
M  V30 6007 H 565.961 5.39066 -1.08112 0
M  V30 6008 H 567.186 6.6727 -1.26205 0
M  V30 6009 H 565.132 6.48725 0.974295 0
M  V30 6010 H 565.049 7.54981 -0.392398 0
M  V30 6011 H 566.317 7.756 0.778761 0
M  V30 6012 N 570.547 0.616602 1.45037 0
M  V30 6013 C 571.495 -0.109318 2.32343 0
M  V30 6014 C 572.489 -0.850543 1.465 0
M  V30 6015 O 573.695 -0.765088 1.62931 0
M  V30 6016 H 570.07 -0.0541091 0.750051 0
M  V30 6017 H 572.041 0.645326 2.91338 0
M  V30 6018 C 570.79 -1.0872 3.30266 0
M  V30 6019 H 570.113 -0.526267 3.96321 0
M  V30 6020 H 571.553 -1.56489 3.94065 0
M  V30 6021 C 570.012 -2.16525 2.58105 0
M  V30 6022 O 570.542 -3.244 2.36913 0
M  V30 6023 N 568.748 -1.92057 2.18088 0
M  V30 6024 H 568.295 -1.04337 2.35524 0
M  V30 6025 H 568.253 -2.64391 1.70131 0
M  V30 6026 N 572.025 -1.5352 0.356285 0
M  V30 6027 C 572.955 -2.28372 -0.486661 0
M  V30 6028 C 573.936 -1.30432 -1.09185 0
M  V30 6029 O 575.121 -1.59291 -1.11085 0
M  V30 6030 C 572.251 -3.06604 -1.63129 0
M  V30 6031 C 571.205 -4.12154 -1.15381 0
M  V30 6032 C 570.531 -4.78415 -2.38796 0
M  V30 6033 C 571.831 -5.21724 -0.245179 0
M  V30 6034 H 573.525 -2.99083 0.137797 0
M  V30 6035 H 571.071 -1.43841 0.0677134 0
M  V30 6036 H 573.024 -3.57712 -2.22755 0
M  V30 6037 H 571.748 -2.33568 -2.28284 0
M  V30 6038 H 570.407 -3.61978 -0.580294 0
M  V30 6039 H 570.055 -4.01959 -3.02387 0
M  V30 6040 H 569.755 -5.49734 -2.07524 0
M  V30 6041 H 571.279 -5.32313 -2.99125 0
M  V30 6042 H 572.693 -5.68391 -0.748646 0
M  V30 6043 H 571.09 -6.00095 -0.0237608 0
M  V30 6044 H 572.16 -4.79596 0.715229 0
M  V30 6045 N 573.503 -0.0852151 -1.57369 0
M  V30 6046 C 574.433 0.874556 -2.16503 0
M  V30 6047 C 575.414 1.30111 -1.09568 0
M  V30 6048 O 576.599 1.36977 -1.37662 0
M  V30 6049 C 573.729 2.13731 -2.73745 0
M  V30 6050 C 572.683 1.84971 -3.85966 0
M  V30 6051 C 572.009 3.17991 -4.29867 0
M  V30 6052 C 573.309 1.14442 -5.09608 0
M  V30 6053 H 575.003 0.381899 -2.96954 0
M  V30 6054 H 572.549 0.18225 -1.42842 0
M  V30 6055 H 574.502 2.81302 -3.13763 0
M  V30 6056 H 573.226 2.65263 -1.90534 0
M  V30 6057 H 571.885 1.19801 -3.46473 0
M  V30 6058 H 571.533 3.6739 -3.4356 0
M  V30 6059 H 571.233 2.99534 -5.05523 0
M  V30 6060 H 572.757 3.86737 -4.72511 0
M  V30 6061 H 574.171 1.72105 -5.46857 0
M  V30 6062 H 572.568 1.06197 -5.90629 0
M  V30 6063 H 573.638 0.12559 -4.84737 0
M  V30 6064 N 574.981 1.5647 0.188427 0
M  V30 6065 C 576.229 1.80655 0.905986 0
M  V30 6066 C 576.55 0.659391 1.83513 0
M  V30 6067 O 575.82 -0.321868 1.93238 0
M  V30 6068 H 574.4 0.666391 0.337538 0
M  V30 6069 H 577.062 1.93949 0.192339 0
M  V30 6070 H 576.158 2.74066 1.49313 0
M  V30 6071 N 576.459 -0.456382 1.50847 0
M  V30 6072 C 577.407 -1.57318 1.71329 0
M  V30 6073 C 578.401 -1.59187 0.579287 0
M  V30 6074 O 579.607 -1.6316 0.76018 0
M  V30 6075 H 575.982 -0.5223 0.541024 0
M  V30 6076 H 577.953 -1.3721 2.64983 0
M  V30 6077 C 576.702 -2.95142 1.83811 0
M  V30 6078 H 576.025 -2.94428 2.70467 0
M  V30 6079 H 577.465 -3.72702 2.02161 0
M  V30 6080 C 575.924 -3.31636 0.593224 0
M  V30 6081 O 576.454 -4.00852 -0.260898 0
M  V30 6082 N 574.66 -2.87205 0.442902 0
M  V30 6083 H 574.207 -2.31051 1.13901 0
M  V30 6084 H 574.165 -3.11986 -0.38884 0
M  V30 6085 N 577.937 -1.40673 -0.710563 0
M  V30 6086 C 579.348 -1.34975 -1.28991 0
M  V30 6087 C 579.699 -0.0256272 -1.96183 0
M  V30 6088 O 578.824 0.876339 -1.97862 0
M  V30 6089 C 579.419 -2.44467 -2.34567 0
M  V30 6090 C 577.978 -2.42213 -2.88114 0
M  V30 6091 C 577.125 -2.25085 -1.61963 0
M  V30 6092 H 580.076 -1.50406 -0.506343 0
M  V30 6093 H 580.097 -2.12663 -3.15523 0
M  V30 6094 H 579.609 -3.40825 -1.85634 0
M  V30 6095 H 577.71 -1.49568 -3.41263 0
M  V30 6096 H 577.823 -3.37983 -3.39565 0
M  V30 6097 H 576.187 -1.72691 -1.87216 0
M  V30 6098 H 576.97 -3.23449 -1.15047 0
M  V30 6099 N 579.415 0.9433 -1.26252 0
M  V30 6100 C 580.347 2.04542 -1.03417 0
M  V30 6101 C 581.36 1.62799 0.0046911 0
M  V30 6102 O 582.549 1.76944 -0.235146 0
M  V30 6103 C 579.649 3.34511 -0.543671 0
M  V30 6104 C 578.822 4.05033 -1.65128 0
M  V30 6105 C 577.881 5.13273 -1.1592 0
M  V30 6106 O 576.907 5.38095 -1.85586 0
M  V30 6107 N 578.109 5.805 -0.00649279 0
M  V30 6108 H 580.874 2.24699 -1.98319 0
M  V30 6109 H 578.435 1.11264 -1.1761 0
M  V30 6110 H 580.427 4.04212 -0.198703 0
M  V30 6111 H 578.997 3.11042 0.311711 0
M  V30 6112 H 578.217 3.29275 -2.16729 0
M  V30 6113 H 579.505 4.48903 -2.39508 0
M  V30 6114 H 578.903 5.62767 0.575347 0
M  V30 6115 H 577.46 6.51201 0.279416 0
M  V30 6116 N 580.893 1.08022 1.14757 0
M  V30 6117 C 581.856 0.71048 2.1791 0
M  V30 6118 C 582.856 -0.252731 1.58801 0
M  V30 6119 O 584.046 -0.0327915 1.74169 0
M  V30 6120 C 581.178 0.0483203 3.40866 0
M  V30 6121 H 582.371 1.62384 2.52134 0
M  V30 6122 H 579.924 0.877595 1.29337 0
M  V30 6123 H 580.659 -0.876959 3.12218 0
M  V30 6124 H 580.444 0.741189 3.85031 0
M  V30 6125 H 581.934 -0.195471 4.17142 0
M  V30 6126 N 582.371 -1.3172 0.865308 0
M  V30 6127 C 583.596 -2.01591 0.487415 0
M  V30 6128 C 584.021 -1.6455 -0.911307 0
M  V30 6129 O 583.379 -0.851689 -1.6005 0
M  V30 6130 C 583.427 -3.54759 0.646401 0
M  V30 6131 O 582.531 -4.11185 -0.316284 0
M  V30 6132 H 581.872 -0.634884 0.194468 0
M  V30 6133 H 584.402 -1.68024 1.16744 0
M  V30 6134 H 584.412 -4.04438 0.537932 0
M  V30 6135 H 583.087 -3.8106 1.66632 0
M  V30 6136 H 581.664 -3.72543 -0.163162 0
M  V30 6137 N 583.85 -0.624285 -1.44708 0
M  V30 6138 C 585.099 -0.123539 -2.01321 0
M  V30 6139 C 585.412 1.25966 -1.49639 0
M  V30 6140 O 586.618 1.85405 -1.98336 0
M  V30 6141 C 585.074 -0.170124 -3.59498 0
M  V30 6142 C 584.682 -1.55421 -4.20176 0
M  V30 6143 C 586.426 0.274513 -4.23611 0
M  V30 6144 C 584.332 -1.55628 -5.70556 0
M  V30 6145 H 583.263 -0.0424183 -0.752806 0
M  V30 6146 H 585.913 -0.782076 -1.65999 0
M  V30 6147 H 584.296 0.555385 -3.92086 0
M  V30 6148 H 585.47 -2.30276 -3.99136 0
M  V30 6149 H 583.784 -1.94235 -3.68323 0
M  V30 6150 H 586.382 0.292402 -5.339 0
M  V30 6151 H 586.725 1.3005 -3.95465 0
M  V30 6152 H 587.258 -0.398275 -3.95801 0
M  V30 6153 H 583.997 -2.56041 -6.03426 0
M  V30 6154 H 583.517 -0.850563 -5.93739 0
M  V30 6155 H 585.196 -1.28721 -6.34066 0
M  V30 6156 N 585.328 1.53329 -0.364422 0
M  V30 6157 C 586.291 2.24323 0.470292 0
M  V30 6158 C 587.291 1.25068 1.01067 0
M  V30 6159 O 588.481 1.49354 0.896605 0
M  V30 6160 C 585.613 2.97908 1.65722 0
M  V30 6161 H 586.806 2.9952 -0.150917 0
M  V30 6162 H 584.359 1.55868 -0.116092 0
M  V30 6163 H 585.094 2.2695 2.31655 0
M  V30 6164 H 584.879 3.70732 1.27671 0
M  V30 6165 H 586.369 3.5188 2.24878 0
M  V30 6166 N 586.806 0.0935595 1.57322 0
M  V30 6167 C 587.738 -0.895923 2.10964 0
M  V30 6168 C 588.751 -1.24705 1.04654 0
M  V30 6169 O 589.94 -1.20044 1.32105 0
M  V30 6170 C 587.04 -2.20546 2.57318 0
M  V30 6171 C 586.213 -2.0299 3.87445 0
M  V30 6172 C 585.272 -3.17443 4.19662 0
M  V30 6173 O 584.298 -2.91474 4.88909 0
M  V30 6174 N 585.5 -4.43168 3.74943 0
M  V30 6175 H 588.265 -0.437788 2.96485 0
M  V30 6176 H 585.826 -0.0915863 1.61641 0
M  V30 6177 H 587.818 -2.9606 2.75917 0
M  V30 6178 H 586.388 -2.57789 1.76816 0
M  V30 6179 H 585.608 -1.11815 3.78009 0
M  V30 6180 H 586.896 -1.88535 4.7258 0
M  V30 6181 H 586.294 -4.67149 3.19043 0
M  V30 6182 H 584.851 -5.15637 3.987 0
M  V30 6183 N 588.284 -1.56567 -0.180126 0
M  V30 6184 C 589.533 -1.80685 -0.896426 0
M  V30 6185 C 589.846 -0.669335 -1.83791 0
M  V30 6186 O 591.052 -0.795209 -2.59593 0
M  V30 6187 C 589.508 -3.20132 -1.6445 0
M  V30 6188 C 589.116 -4.41727 -0.747088 0
M  V30 6189 C 590.86 -3.53549 -2.34955 0
M  V30 6190 C 588.767 -5.72195 -1.49489 0
M  V30 6191 H 587.697 -0.673758 -0.338477 0
M  V30 6192 H 590.348 -1.8289 -0.149467 0
M  V30 6193 H 588.73 -3.12218 -2.43589 0
M  V30 6194 H 589.904 -4.608 0.00671129 0
M  V30 6195 H 588.219 -4.16122 -0.152134 0
M  V30 6196 H 590.816 -4.48267 -2.91481 0
M  V30 6197 H 591.159 -2.78006 -3.09868 0
M  V30 6198 H 591.692 -3.62976 -1.62768 0
M  V30 6199 H 588.431 -6.50743 -0.788251 0
M  V30 6200 H 587.951 -5.57115 -2.22224 0
M  V30 6201 H 589.63 -6.1384 -2.04472 0
M  V30 6202 N 589.762 0.448376 -1.51087 0
M  V30 6203 C 591.011 1.19561 -1.62444 0
M  V30 6204 C 591.324 1.92602 -0.341151 0
M  V30 6205 O 592.53 2.69439 -0.333936 0
M  V30 6206 C 590.986 2.17373 -2.8684 0
M  V30 6207 C 590.594 1.5003 -4.22131 0
M  V30 6208 C 592.338 2.92597 -3.0755 0
M  V30 6209 C 590.245 2.46262 -5.37689 0
M  V30 6210 H 589.175 0.449975 -0.605011 0
M  V30 6211 H 591.826 0.463735 -1.77544 0
M  V30 6212 H 590.208 2.93948 -2.65349 0
M  V30 6213 H 591.382 0.790886 -4.53962 0
M  V30 6214 H 589.697 0.870011 -4.0721 0
M  V30 6215 H 592.294 3.64663 -3.91056 0
M  V30 6216 H 592.637 3.53306 -2.20183 0
M  V30 6217 H 593.17 2.23131 -3.29329 0
M  V30 6218 H 589.909 1.90258 -6.27281 0
M  V30 6219 H 589.429 3.15289 -5.10248 0
M  V30 6220 H 591.108 3.07623 -5.6919 0
M  V30 6221 N 591.24 1.41047 0.703093 0
M  V30 6222 C 592.486 1.40207 1.46526 0
M  V30 6223 C 592.819 0.00847763 1.94198 0
M  V30 6224 O 592.094 -0.962437 1.69019 0
M  V30 6225 C 592.377 2.40238 2.6825 0
M  V30 6226 C 592.23 3.88674 2.26391 0
M  V30 6227 C 593.549 2.37627 3.70434 0
M  V30 6228 H 590.668 0.510594 0.531472 0
M  V30 6229 H 593.31 1.72271 0.801422 0
M  V30 6230 H 591.46 2.13026 3.24888 0
M  V30 6231 H 593.132 4.2676 1.75138 0
M  V30 6232 H 591.375 4.03903 1.58255 0
M  V30 6233 H 592.046 4.542 3.13698 0
M  V30 6234 H 594.522 2.61759 3.23452 0
M  V30 6235 H 593.398 3.09645 4.53223 0
M  V30 6236 H 593.659 1.39223 4.19606 0
M  V30 6237 N 592.718 -0.936591 1.26751 0
M  V30 6238 C 593.946 -1.71758 1.15355 0
M  V30 6239 C 594.361 -1.86549 -0.290683 0
M  V30 6240 O 593.718 -1.37616 -1.19868 0
M  V30 6241 C 593.769 -3.12193 1.82258 0
M  V30 6242 O 593.49 -2.98105 3.21038 0
M  V30 6243 C 594.991 -4.06485 1.76875 0
M  V30 6244 H 592.211 -0.537636 0.401483 0
M  V30 6245 H 594.755 -1.17382 1.67457 0
M  V30 6246 H 592.91 -3.63456 1.34083 0
M  V30 6247 H 593.324 -3.86824 3.54214 0
M  V30 6248 H 594.798 -5.02569 2.28316 0
M  V30 6249 H 595.275 -4.32986 0.736216 0
M  V30 6250 H 595.881 -3.61144 2.24623 0
M  V30 6251 N 594.196 -1.08629 -1.14182 0
M  V30 6252 C 595.442 -0.818556 -1.85546 0
M  V30 6253 C 595.775 0.654076 -1.82854 0
M  V30 6254 O 595.05 1.48099 -1.26083 0
M  V30 6255 C 595.333 -1.34397 -3.3408 0
M  V30 6256 C 595.186 -2.8821 -3.45333 0
M  V30 6257 C 596.505 -0.971069 -4.29253 0
M  V30 6258 H 593.624 -0.298821 -0.673702 0
M  V30 6259 H 596.266 -1.34629 -1.34071 0
M  V30 6260 H 594.416 -0.895064 -3.78049 0
M  V30 6261 H 596.088 -3.41488 -3.10134 0
M  V30 6262 H 594.331 -3.25756 -2.86471 0
M  V30 6263 H 595.002 -3.20047 -4.49749 0
M  V30 6264 H 597.478 -1.35809 -3.93313 0
M  V30 6265 H 596.354 -1.36586 -5.31635 0
M  V30 6266 H 596.615 0.121659 -4.41933 0
M  V30 6267 N 595.674 1.31259 -0.872281 0
M  V30 6268 C 596.92 1.96913 -0.485083 0
M  V30 6269 C 597.253 1.68774 0.960667 0
M  V30 6270 O 596.528 0.985495 1.67685 0
M  V30 6271 C 596.811 3.52299 -0.745502 0
M  V30 6272 C 596.664 3.90002 -2.24095 0
M  V30 6273 C 597.983 4.39582 -0.213516 0
M  V30 6274 H 595.102 0.715252 -0.177716 0
M  V30 6275 H 597.744 1.55347 -1.09395 0
M  V30 6276 H 595.894 3.87835 -0.227276 0
M  V30 6277 H 597.566 3.64555 -2.82661 0
M  V30 6278 H 595.809 3.38526 -2.71261 0
M  V30 6279 H 596.48 4.98352 -2.37381 0
M  V30 6280 H 598.956 4.10882 -0.656902 0
M  V30 6281 H 597.832 5.47251 -0.42516 0
M  V30 6282 H 598.093 4.33158 0.884666 0
M  V30 6283 N 597.152 0.631951 1.44375 0
M  V30 6284 C 598.082 -0.0593243 2.33425 0
M  V30 6285 C 599.063 -0.833964 1.48253 0
M  V30 6286 O 600.248 -0.799682 1.76971 0
M  V30 6287 C 597.378 -1.04096 3.31333 0
M  V30 6288 C 596.332 -0.377899 4.26328 0
M  V30 6289 C 595.658 -1.4695 5.14111 0
M  V30 6290 C 596.958 0.716371 5.17364 0
M  V30 6291 H 598.652 0.684287 2.91475 0
M  V30 6292 H 596.198 0.330518 1.40156 0
M  V30 6293 H 598.151 -1.53331 3.92514 0
M  V30 6294 H 596.875 -1.81547 2.71493 0
M  V30 6295 H 595.534 0.0938054 3.6648 0
M  V30 6296 H 595.182 -2.2349 4.50623 0
M  V30 6297 H 594.882 -1.03121 5.78481 0
M  V30 6298 H 596.406 -1.96363 5.78164 0
M  V30 6299 H 597.82 0.307089 5.72477 0
M  V30 6300 H 596.217 1.07784 5.90341 0
M  V30 6301 H 597.287 1.58316 4.58327 0
M  V30 6302 N 598.631 -1.53133 0.372548 0
M  V30 6303 C 599.879 -2.00958 -0.214534 0
M  V30 6304 C 600.2 -1.26135 -1.48711 0
M  V30 6305 O 599.47 -0.376597 -1.92246 0
M  V30 6306 H 598.05 -0.742456 -0.0822664 0
M  V30 6307 H 600.712 -1.88367 0.500385 0
M  V30 6308 H 599.808 -3.09031 -0.436605 0
M  V30 6309 N 600.109 -0.101901 -1.5727 0
M  V30 6310 C 601.039 0.851544 -2.17419 0
M  V30 6311 C 602.02 1.28942 -1.10941 0
M  V30 6312 O 603.205 1.35509 -1.39107 0
M  V30 6313 C 600.335 2.10816 -2.75996 0
M  V30 6314 C 599.289 1.80867 -3.87906 0
M  V30 6315 C 598.615 3.13413 -4.33216 0
M  V30 6316 C 599.915 1.0903 -5.10793 0
M  V30 6317 H 601.609 0.350381 -2.97343 0
M  V30 6318 H 599.155 0.16709 -1.43027 0
M  V30 6319 H 601.108 2.77959 -3.16729 0
M  V30 6320 H 599.832 2.63227 -1.93337 0
M  V30 6321 H 598.491 1.16119 -3.47724 0
M  V30 6322 H 598.139 3.63725 -3.47438 0
M  V30 6323 H 597.839 2.94155 -5.08671 0
M  V30 6324 H 599.363 3.81704 -4.76586 0
M  V30 6325 H 600.777 1.66295 -5.48652 0
M  V30 6326 H 599.174 0.99927 -5.91722 0
M  V30 6327 H 600.244 0.0741704 -4.84843 0
M  V30 6328 N 601.587 1.56661 0.17182 0
M  V30 6329 C 602.833 1.82235 0.889845 0
M  V30 6330 C 603.166 0.679673 1.81918 0
M  V30 6331 O 602.441 -0.318404 1.91876 0
M  V30 6332 C 602.724 3.18195 1.68595 0
M  V30 6333 C 602.577 4.42989 0.779773 0
M  V30 6334 C 603.896 3.5109 2.65375 0
M  V30 6335 H 601.015 0.66291 0.322056 0
M  V30 6336 H 603.657 1.89358 0.15608 0
M  V30 6337 H 601.807 3.12253 2.3115 0
M  V30 6338 H 603.479 4.60997 0.16714 0
M  V30 6339 H 601.722 4.33711 0.0877964 0
M  V30 6340 H 602.393 5.3467 1.3723 0
M  V30 6341 H 604.869 3.57482 2.12946 0
M  V30 6342 H 603.745 4.47298 3.18144 0
M  V30 6343 H 604.006 2.75768 3.45549 0
M  V30 6344 N 603.065 -0.440357 1.51323 0
M  V30 6345 C 604.314 -1.18697 1.63076 0
M  V30 6346 C 604.627 -1.92418 0.35136 0
M  V30 6347 O 605.833 -2.69258 0.348221 0
M  V30 6348 C 604.289 -2.15849 2.87988 0
M  V30 6349 C 603.897 -1.47789 4.22921 0
M  V30 6350 C 605.641 -2.90962 3.09098 0
M  V30 6351 C 603.548 -2.43407 5.38987 0
M  V30 6352 H 602.478 -0.44676 0.607389 0
M  V30 6353 H 605.129 -0.454313 1.77787 0
M  V30 6354 H 603.511 -2.92537 2.66905 0
M  V30 6355 H 604.685 -0.7668 4.54375 0
M  V30 6356 H 603 -0.848404 4.07665 0
M  V30 6357 H 605.597 -3.62584 3.92985 0
M  V30 6358 H 605.94 -3.52133 2.22053 0
M  V30 6359 H 606.473 -2.21381 3.30507 0
M  V30 6360 H 603.212 -1.86929 6.28282 0
M  V30 6361 H 602.732 -3.12579 5.11913 0
M  V30 6362 H 604.411 -3.046 5.70813 0
M  V30 6363 N 604.543 -1.41418 -0.695603 0
M  V30 6364 C 605.791 -1.40496 -1.45277 0
M  V30 6365 C 606.112 -0.0149538 -1.94994 0
M  V30 6366 O 605.382 0.9432 -1.71699 0
M  V30 6367 H 603.962 -0.517147 -0.539044 0
M  V30 6368 H 606.624 -1.76656 -0.823321 0
M  V30 6369 H 605.72 -2.09214 -2.31595 0
M  V30 6370 N 606.021 0.929856 -1.27246 0
M  V30 6371 C 606.984 2.01172 -1.09829 0
M  V30 6372 C 607.984 1.60743 -0.0429687 0
M  V30 6373 O 609.174 1.71813 -0.287373 0
M  V30 6374 C 606.306 3.34191 -0.673003 0
M  V30 6375 H 607.499 2.18054 -2.05895 0
M  V30 6376 H 605.052 1.11036 -1.10003 0
M  V30 6377 H 605.787 3.23009 0.289134 0
M  V30 6378 H 605.572 3.64892 -1.43515 0
M  V30 6379 H 607.062 4.13646 -0.573323 0
M  V30 6380 N 607.499 1.09233 1.13605 0
M  V30 6381 C 608.748 0.82205 1.84188 0
M  V30 6382 C 609.061 -0.654548 1.84323 0
M  V30 6383 O 610.267 -1.04029 2.50779 0
M  V30 6384 C 608.723 1.42066 3.30674 0
M  V30 6385 C 608.331 2.92965 3.38933 0
M  V30 6386 C 610.075 1.22924 4.06313 0
M  V30 6387 C 607.982 3.45922 4.79679 0
M  V30 6388 H 606.912 0.303854 0.690064 0
M  V30 6389 H 609.563 1.31479 1.28006 0
M  V30 6390 H 607.945 0.855613 3.86646 0
M  V30 6391 H 609.119 3.55679 2.92966 0
M  V30 6392 H 607.434 3.11118 2.76757 0
M  V30 6393 H 610.031 1.59945 5.10217 0
M  V30 6394 H 610.374 0.169726 4.15954 0
M  V30 6395 H 610.907 1.76168 3.56665 0
M  V30 6396 H 607.646 4.51484 4.75229 0
M  V30 6397 H 607.166 2.87971 5.26149 0
M  V30 6398 H 608.845 3.43009 5.48592 0
M  V30 6399 N 608.977 -1.30795 0.87923 0
M  V30 6400 C 610.207 -2.00237 0.50881 0
M  V30 6401 C 610.615 -1.66115 -0.905682 0
M  V30 6402 O 609.958 -0.89138 -1.60624 0
M  V30 6403 C 610.02 -3.54508 0.597003 0
M  V30 6404 C 609.684 -4.12131 1.97477 0
M  V30 6405 C 610.681 -4.28552 2.94346 0
M  V30 6406 C 608.366 -4.47644 2.2786 0
M  V30 6407 C 610.36 -4.79689 4.19735 0
M  V30 6408 C 608.047 -4.98481 3.53496 0
M  V30 6409 C 609.045 -5.14456 4.49248 0
M  V30 6410 O 608.733 -5.64199 5.72656 0
M  V30 6411 H 608.465 -0.647026 0.195788 0
M  V30 6412 H 611.019 -1.67785 1.1848 0
M  V30 6413 H 609.249 -3.86461 -0.135945 0
M  V30 6414 H 610.938 -4.05198 0.238684 0
M  V30 6415 H 611.704 -4.01424 2.72183 0
M  V30 6416 H 607.583 -4.34481 1.54102 0
M  V30 6417 H 611.127 -4.92073 4.9448 0
M  V30 6418 H 607.024 -5.25044 3.75498 0
M  V30 6419 H 607.792 -5.82551 5.74957 0
M  V30 6420 N 610.455 -0.639598 -1.44038 0
M  V30 6421 C 611.702 -0.14748 -2.01962 0
M  V30 6422 C 612.03 1.23372 -1.50365 0
M  V30 6423 O 611.285 1.8345 -0.681501 0
M  V30 6424 C 611.584 -0.0925348 -3.5728 0
M  V30 6425 C 611.25 -1.41365 -4.28167 0
M  V30 6426 C 609.912 -1.77545 -4.47248 0
M  V30 6427 C 612.264 -2.2853 -4.68427 0
M  V30 6428 C 609.592 -3.00583 -5.03852 0
M  V30 6429 C 611.944 -3.50846 -5.26393 0
M  V30 6430 C 610.608 -3.8724 -5.43692 0
M  V30 6431 H 609.878 -0.0539666 -0.739032 0
M  V30 6432 H 612.525 -0.827599 -1.72694 0
M  V30 6433 H 610.83 0.670987 -3.86012 0
M  V30 6434 H 612.527 0.304891 -3.99839 0
M  V30 6435 H 609.117 -1.1221 -4.13651 0
M  V30 6436 H 613.301 -2.0187 -4.5339 0
M  V30 6437 H 608.557 -3.28846 -5.15432 0
M  V30 6438 H 612.731 -4.18616 -5.56537 0
M  V30 6439 H 610.358 -4.8266 -5.87319 0
M  V30 6440 N 611.933 1.52934 -0.380664 0
M  V30 6441 C 613.181 2.01069 0.203874 0
M  V30 6442 C 613.502 1.26922 1.4804 0
M  V30 6443 O 612.772 0.386787 1.92044 0
M  V30 6444 H 611.352 0.742882 0.0783279 0
M  V30 6445 H 614.014 1.88099 -0.510368 0
M  V30 6446 H 613.11 3.09258 0.42021 0
M  V30 6447 N 613.412 0.11024 1.57214 0
M  V30 6448 C 614.342 -0.840002 2.17867 0
M  V30 6449 C 615.323 -1.28352 1.11624 0
M  V30 6450 O 616.508 -1.3477 1.39824 0
M  V30 6451 C 613.638 -2.09349 2.77111 0
M  V30 6452 C 612.592 -1.78807 3.8886 0
M  V30 6453 C 611.918 -3.11112 4.34872 0
M  V30 6454 C 613.218 -1.0632 5.11364 0
M  V30 6455 H 614.912 -0.334608 2.97524 0
M  V30 6456 H 612.458 -0.159502 1.43114 0
M  V30 6457 H 614.411 -2.76275 3.18198 0
M  V30 6458 H 613.135 -2.62198 1.9473 0
M  V30 6459 H 611.794 -1.14273 3.48335 0
M  V30 6460 H 611.442 -3.61877 3.49362 0
M  V30 6461 H 611.142 -2.91453 5.10224 0
M  V30 6462 H 612.666 -3.79171 4.78604 0
M  V30 6463 H 614.08 -1.63383 5.49526 0
M  V30 6464 H 612.477 -0.967876 5.92243 0
M  V30 6465 H 613.547 -0.0484569 4.84876 0
M  V30 6466 N 614.89 -1.56749 -0.16351 0
M  V30 6467 C 615.837 -1.97011 -1.2023 0
M  V30 6468 C 616.807 -0.835186 -1.43575 0
M  V30 6469 O 617.992 -1.09594 -1.56185 0
M  V30 6470 C 615.132 -2.34186 -2.53478 0
M  V30 6471 C 614.245 -3.60893 -2.37446 0
M  V30 6472 C 613.38 -3.87245 -3.63614 0
M  V30 6473 C 612.419 -5.07274 -3.42548 0
M  V30 6474 N 611.556 -5.29719 -4.60806 0
M  V30 6475 H 616.396 -2.85562 -0.851958 0
M  V30 6476 H 613.933 -1.41292 -0.409257 0
M  V30 6477 H 615.891 -2.53764 -3.31149 0
M  V30 6478 H 614.521 -1.48736 -2.86492 0
M  V30 6479 H 613.573 -3.49185 -1.50911 0
M  V30 6480 H 614.885 -4.48722 -2.1783 0
M  V30 6481 H 614.039 -4.07232 -4.49719 0
M  V30 6482 H 612.778 -2.97806 -3.86216 0
M  V30 6483 H 611.783 -4.87177 -2.5483 0
M  V30 6484 H 613.008 -5.98251 -3.2136 0
M  V30 6485 H 610.954 -4.43233 -4.83612 0
M  V30 6486 H 610.871 -6.11786 -4.44132 0
M  V30 6487 H 612.139 -5.54192 -5.48171 0
M  V30 6488 N 616.368 0.432326 -1.51554 0
M  V30 6489 C 617.316 1.54572 -1.73811 0
M  V30 6490 C 618.31 1.58246 -0.604539 0
M  V30 6491 O 619.516 1.6193 -0.786041 0
M  V30 6492 H 615.891 0.513626 -0.549265 0
M  V30 6493 H 617.862 1.32977 -2.67132 0
M  V30 6494 C 616.611 2.92181 -1.88483 0
M  V30 6495 H 615.934 2.90088 -2.75116 0
M  V30 6496 H 617.374 3.69439 -2.08065 0
M  V30 6497 C 615.833 3.3065 -0.645909 0
M  V30 6498 O 616.363 4.01216 0.197093 0
M  V30 6499 N 614.569 2.86464 -0.488538 0
M  V30 6500 H 614.116 2.29209 -1.17562 0
M  V30 6501 H 614.074 3.12565 0.339156 0
M  V30 6502 N 617.846 1.41785 0.688094 0
M  V30 6503 C 619.123 1.32031 1.44316 0
M  V30 6504 C 619.503 -0.0486079 2.11044 0
M  V30 6505 O 618.851 -1.06332 2.02252 0
M  V30 6506 C 619.061 2.47906 2.45649 0
M  V30 6507 C 620.409 2.89415 3.10683 0
M  V30 6508 O 621.433 2.477 2.55975 0
M  V30 6509 O 620.292 3.61573 4.09789 0
M  V30 6510 H 617.386 0.519994 0.643067 0
M  V30 6511 H 619.932 1.53765 0.71794 0
M  V30 6512 H 618.704 3.39222 1.95048 0
M  V30 6513 H 618.327 2.28089 3.25671 0
M  V30 6514 N 619.324 -0.923095 1.27737 0
M  V30 6515 C 620.549 -1.71054 1.17283 0
M  V30 6516 C 620.974 -1.86208 -0.266153 0
M  V30 6517 O 620.332 -1.36545 -1.1927 0
M  V30 6518 C 620.38 -3.0854 1.86642 0
M  V30 6519 O 619.484 -3.95528 1.16752 0
M  V30 6520 H 618.825 -0.524136 0.407649 0
M  V30 6521 H 621.355 -1.15487 1.6889 0
M  V30 6522 H 621.365 -3.58828 1.94182 0
M  V30 6523 H 620.04 -2.96828 2.91317 0
M  V30 6524 H 618.617 -3.53967 1.17312 0
M  V30 6525 N 620.802 -1.09834 -1.13024 0
M  V30 6526 C 622.03 -0.858902 -1.8823 0
M  V30 6527 C 622.445 0.590164 -1.79339 0
M  V30 6528 O 621.802 1.4065 -1.16292 0
M  V30 6529 C 621.853 -1.29066 -3.37675 0
M  V30 6530 O 621.574 -2.6829 -3.46341 0
M  V30 6531 C 623.075 -1.08421 -4.29837 0
M  V30 6532 H 620.295 -0.308713 -0.595766 0
M  V30 6533 H 622.839 -1.4614 -1.4305 0
M  V30 6534 H 620.994 -0.731961 -3.80422 0
M  V30 6535 H 621.408 -2.86598 -4.39274 0
M  V30 6536 H 622.882 -1.43553 -5.33007 0
M  V30 6537 H 623.359 -0.0223315 -4.39194 0
M  V30 6538 H 623.965 -1.62907 -3.92863 0
M  V30 6539 N 622.28 1.30327 -0.886154 0
M  V30 6540 C 623.528 1.9571 -0.504195 0
M  V30 6541 C 623.849 1.70294 0.950003 0
M  V30 6542 O 623.119 1.02718 1.66811 0
M  V30 6543 H 621.699 0.72412 -0.183465 0
M  V30 6544 H 624.361 1.58835 -1.12949 0
M  V30 6545 H 623.457 3.04704 -0.675431 0
M  V30 6546 N 623.758 0.647228 1.43697 0
M  V30 6547 C 625.007 0.155552 2.01099 0
M  V30 6548 C 625.32 -1.23569 1.51624 0
M  V30 6549 O 626.526 -1.82226 2.01261 0
M  V30 6550 C 624.982 0.227296 3.59182 0
M  V30 6551 C 624.59 1.62086 4.17651 0
M  V30 6552 C 626.334 -0.207085 4.23995 0
M  V30 6553 C 624.241 1.64685 5.68008 0
M  V30 6554 H 623.171 0.0543895 0.752036 0
M  V30 6555 H 625.822 0.808386 1.64734 0
M  V30 6556 H 624.204 -0.492937 3.9292 0
M  V30 6557 H 625.378 2.36597 3.95422 0
M  V30 6558 H 623.693 2.0007 3.65186 0
M  V30 6559 H 626.29 -0.207426 5.34298 0
M  V30 6560 H 626.633 -1.23742 3.97484 0
M  V30 6561 H 627.166 0.461193 3.95118 0
M  V30 6562 H 623.905 2.65608 5.99277 0
M  V30 6563 H 623.425 0.944914 5.9231 0
M  V30 6564 H 625.104 1.38792 6.31938 0
M  V30 6565 N 625.236 -1.5273 0.388769 0
M  V30 6566 C 626.168 -2.24081 -0.481704 0
M  V30 6567 C 627.181 -1.26307 -1.02715 0
M  V30 6568 O 628.37 -1.52386 -0.929565 0
M  V30 6569 C 625.47 -2.94315 -1.68024 0
M  V30 6570 C 624.643 -4.18791 -1.26226 0
M  V30 6571 C 623.702 -4.72028 -2.32542 0
M  V30 6572 O 622.728 -5.35129 -1.93972 0
M  V30 6573 N 623.93 -4.51838 -3.64448 0
M  V30 6574 H 626.695 -2.9942 0.129591 0
M  V30 6575 H 624.256 -1.60465 0.2151 0
M  V30 6576 H 626.248 -3.26831 -2.38671 0
M  V30 6577 H 624.818 -2.22287 -2.19789 0
M  V30 6578 H 624.038 -3.92318 -0.384703 0
M  V30 6579 H 625.326 -4.99668 -0.959647 0
M  V30 6580 H 624.724 -4.01468 -3.98547 0
M  V30 6581 H 623.281 -4.88845 -4.31131 0
M  V30 6582 N 626.714 -0.118576 -1.57153 0
M  V30 6583 C 627.662 0.849114 -2.16547 0
M  V30 6584 C 628.656 1.27567 -1.11458 0
M  V30 6585 O 629.862 1.24746 -1.29763 0
M  V30 6586 H 626.237 0.291935 -0.693021 0
M  V30 6587 H 628.208 0.323693 -2.96639 0
M  V30 6588 C 626.957 2.08951 -2.77912 0
M  V30 6589 H 626.28 1.77021 -3.58474 0
M  V30 6590 H 627.72 2.74666 -3.23008 0
M  V30 6591 C 626.179 2.87899 -1.74974 0
M  V30 6592 O 626.709 3.83268 -1.20285 0
M  V30 6593 N 624.915 2.51884 -1.44924 0
M  V30 6594 H 624.462 1.74397 -1.89587 0
M  V30 6595 H 624.42 3.05003 -0.762921 0
M  V30 6596 N 628.193 1.56834 0.155195 0
M  V30 6597 C 629.609 1.51315 0.50755 0
M  V30 6598 C 629.809 0.825614 1.83809 0
M  V30 6599 O 628.865 0.39271 2.49427 0
M  V30 6600 C 630.178 2.96074 0.52542 0
M  V30 6601 C 631.726 3.06968 0.611505 0
M  V30 6602 C 632.201 4.53218 0.660115 0
M  V30 6603 N 633.692 4.5753 0.722564 0
M  V30 6604 C 634.427 5.68056 0.781023 0
M  V30 6605 N 633.923 6.88173 0.799327 0
M  V30 6606 N 635.716 5.56068 0.821278 0
M  V30 6607 H 627.867 1.9993 -0.717063 0
M  V30 6608 H 630.13 0.911507 -0.260496 0
M  V30 6609 H 629.836 3.49599 -0.383875 0
M  V30 6610 H 629.71 3.51587 1.36624 0
M  V30 6611 H 632.097 2.53468 1.51122 0
M  V30 6612 H 632.178 2.54513 -0.256306 0
M  V30 6613 H 631.822 5.07354 -0.23541 0
M  V30 6614 H 631.752 5.03447 1.5443 0
M  V30 6615 H 634.243 3.71054 0.716049 0
M  V30 6616 H 634.556 7.6816 0.845553 0
M  V30 6617 H 632.901 6.90751 0.767337 0
M  V30 6618 H 636.092 4.61142 0.804091 0
M  V30 6619 H 636.265 6.42223 0.863372 0
M  V30 6620 N 629.671 -0.424282 1.51781 0
M  V30 6621 C 630.634 -1.49848 1.73431 0
M  V30 6622 C 631.634 -1.49016 0.604225 0
M  V30 6623 O 632.824 -1.50808 0.871935 0
M  V30 6624 C 629.956 -2.89332 1.80277 0
M  V30 6625 H 631.149 -1.3195 2.69312 0
M  V30 6626 H 628.702 -0.653809 1.41968 0
M  V30 6627 H 629.437 -3.12618 0.862568 0
M  V30 6628 H 629.222 -2.9134 2.62419 0
M  V30 6629 H 630.712 -3.67233 1.98821 0
M  V30 6630 N 631.149 -1.42148 -0.680565 0
M  V30 6631 C 632.397 -1.42029 -1.43779 0
M  V30 6632 C 632.718 -0.0356347 -1.94967 0
M  V30 6633 O 631.988 0.924936 -1.7269 0
M  V30 6634 H 630.568 -0.522835 -0.533529 0
M  V30 6635 H 633.23 -1.7752 -0.804538 0
M  V30 6636 H 632.326 -2.11658 -2.29363 0
M  V30 6637 N 632.627 0.916307 -1.28225 0
M  V30 6638 C 633.873 1.66765 -1.154 0
M  V30 6639 C 634.206 1.91912 0.297251 0
M  V30 6640 O 633.481 1.51766 1.21644 0
M  V30 6641 C 633.764 3.02715 -1.95028 0
M  V30 6642 C 633.617 2.84738 -3.48201 0
M  V30 6643 C 634.936 4.03215 -1.76369 0
M  V30 6644 H 632.055 0.605205 -0.42059 0
M  V30 6645 H 634.697 1.06255 -1.57512 0
M  V30 6646 H 632.847 3.54365 -1.59242 0
M  V30 6647 H 634.519 2.40118 -3.9388 0
M  V30 6648 H 632.762 2.19848 -3.73964 0
M  V30 6649 H 633.433 3.8127 -3.99171 0
M  V30 6650 H 635.909 3.60617 -2.07593 0
M  V30 6651 H 634.785 4.96306 -2.34459 0
M  V30 6652 H 635.046 4.36288 -0.71452 0
M  V30 6653 N 634.105 1.10431 1.1244 0
M  V30 6654 C 635.035 0.775143 2.20258 0
M  V30 6655 C 636.016 -0.25186 1.68225 0
M  V30 6656 O 637.201 -0.117637 1.93843 0
M  V30 6657 C 634.331 0.206133 3.46688 0
M  V30 6658 C 633.285 1.16382 4.11873 0
M  V30 6659 C 632.611 0.456014 5.32752 0
M  V30 6660 C 633.911 2.5104 4.58013 0
M  V30 6661 H 635.605 1.67665 2.4805 0
M  V30 6662 H 633.151 0.807595 1.19222 0
M  V30 6663 H 635.104 -0.036291 4.21384 0
M  V30 6664 H 633.828 -0.730614 3.18323 0
M  V30 6665 H 632.487 1.39169 3.39157 0
M  V30 6666 H 632.135 -0.485203 5.00654 0
M  V30 6667 H 631.835 1.09466 5.77314 0
M  V30 6668 H 633.359 0.222135 6.10196 0
M  V30 6669 H 634.773 2.32401 5.24083 0
M  V30 6670 H 633.17 3.10789 5.13352 0
M  V30 6671 H 634.24 3.11039 3.71998 0
M  V30 6672 N 635.583 -1.29855 0.893053 0
M  V30 6673 C 636.83 -1.95826 0.515585 0
M  V30 6674 C 637.158 -1.70451 -0.936842 0
M  V30 6675 O 636.413 -1.00657 -1.67829 0
M  V30 6676 C 636.712 -3.49515 0.746588 0
M  V30 6677 C 636.378 -3.94955 2.17535 0
M  V30 6678 C 635.04 -4.07073 2.56603 0
M  V30 6679 C 637.392 -4.18536 3.10607 0
M  V30 6680 C 634.72 -4.40138 3.87938 0
M  V30 6681 C 637.072 -4.53073 4.41484 0
M  V30 6682 C 635.736 -4.634 4.80434 0
M  V30 6683 H 635.006 -0.71658 0.188666 0
M  V30 6684 H 637.653 -1.54574 1.13045 0
M  V30 6685 H 635.958 -3.9177 0.0487551 0
M  V30 6686 H 637.655 -3.98644 0.434009 0
M  V30 6687 H 634.245 -3.86035 1.86212 0
M  V30 6688 H 638.429 -4.08646 2.81641 0
M  V30 6689 H 633.685 -4.46335 4.17846 0
M  V30 6690 H 637.859 -4.70269 5.13634 0
M  V30 6691 H 635.486 -4.88775 5.82239 0
M  V30 6692 N 637.061 -0.65484 -1.43351 0
M  V30 6693 C 638.308 -0.168892 -2.01794 0
M  V30 6694 C 638.636 1.2177 -1.51665 0
M  V30 6695 O 637.891 1.82717 -0.70092 0
M  V30 6696 C 638.19 -0.130424 -3.57162 0
M  V30 6697 C 637.856 -1.45898 -4.26643 0
M  V30 6698 C 636.518 -1.82279 -4.4534 0
M  V30 6699 C 638.87 -2.33485 -4.65976 0
M  V30 6700 C 636.198 -3.0591 -5.00635 0
M  V30 6701 C 638.55 -3.5641 -5.22642 0
M  V30 6702 C 637.214 -3.92985 -5.39555 0
M  V30 6703 H 636.484 -0.061802 -0.738418 0
M  V30 6704 H 639.131 -0.845869 -1.71806 0
M  V30 6705 H 637.436 0.630008 -3.86702 0
M  V30 6706 H 639.133 0.262465 -4.0014 0
M  V30 6707 H 635.723 -1.16591 -4.12437 0
M  V30 6708 H 639.907 -2.06668 -4.51223 0
M  V30 6709 H 635.163 -3.34295 -5.11915 0
M  V30 6710 H 639.337 -4.24495 -5.52066 0
M  V30 6711 H 636.964 -4.88862 -5.82167 0
M  V30 6712 N 638.539 1.52521 -0.396863 0
M  V30 6713 C 639.469 2.29582 0.425941 0
M  V30 6714 C 640.45 1.33281 1.05689 0
M  V30 6715 O 641.635 1.62181 1.06823 0
M  V30 6716 C 638.765 3.10821 1.54943 0
M  V30 6717 C 637.719 4.15069 1.04413 0
M  V30 6718 C 637.045 4.84578 2.26028 0
M  V30 6719 C 638.345 5.22191 0.106767 0
M  V30 6720 H 640.039 2.98612 -0.217045 0
M  V30 6721 H 637.585 1.43611 -0.105826 0
M  V30 6722 H 639.538 3.63492 2.13193 0
M  V30 6723 H 638.262 2.39538 2.22011 0
M  V30 6724 H 636.921 3.63389 0.484118 0
M  V30 6725 H 636.569 4.09835 2.91623 0
M  V30 6726 H 636.269 5.55043 1.92876 0
M  V30 6727 H 637.793 5.40056 2.84906 0
M  V30 6728 H 639.207 5.70176 0.597685 0
M  V30 6729 H 637.604 5.99947 -0.135352 0
M  V30 6730 H 638.674 4.77531 -0.842134 0
M  V30 6731 N 640.017 0.126909 1.57088 0
M  V30 6732 C 641.245 -0.53667 1.99819 0
M  V30 6733 C 641.66 -1.5972 1.00673 0
M  V30 6734 O 641.017 -1.825 0.000747365 0
M  V30 6735 C 641.068 -1.15563 3.42531 0
M  V30 6736 O 640.789 -0.137483 4.37884 0
M  V30 6737 C 642.29 -1.90176 4.00435 0
M  V30 6738 H 639.51 -0.141443 0.655923 0
M  V30 6739 H 642.054 0.215578 2.03361 0
M  V30 6740 H 640.209 -1.85861 3.39904 0
M  V30 6741 H 640.623 -0.588229 5.21191 0
M  V30 6742 H 642.097 -2.28801 5.02349 0
M  V30 6743 H 642.574 -2.78002 3.40017 0
M  V30 6744 H 643.18 -1.24623 4.06632 0
M  V30 6745 N 641.495 -1.56914 -0.146875 0
M  V30 6746 C 642.723 -1.87515 -0.874394 0
M  V30 6747 C 643.138 -0.715116 -1.74733 0
M  V30 6748 O 642.495 0.315113 -1.79759 0
M  V30 6749 C 642.546 -3.17362 -1.731 0
M  V30 6750 O 642.267 -4.28897 -0.893245 0
M  V30 6751 C 643.768 -3.61479 -2.56609 0
M  V30 6752 H 640.988 -0.621546 -0.252827 0
M  V30 6753 H 643.532 -2.04023 -0.139627 0
M  V30 6754 H 641.687 -3.02608 -2.41883 0
M  V30 6755 H 642.101 -5.03146 -1.48137 0
M  V30 6756 H 643.575 -4.5517 -3.12289 0
M  V30 6757 H 644.052 -2.86773 -3.32653 0
M  V30 6758 H 644.658 -3.78927 -1.93117 0
M  V30 6759 N 642.974 0.416227 -1.52004 0
M  V30 6760 C 643.922 1.5272 -1.7544 0
M  V30 6761 C 644.916 1.57596 -0.621289 0
M  V30 6762 O 646.122 1.61087 -0.803172 0
M  V30 6763 H 642.497 0.507772 -0.554682 0
M  V30 6764 H 644.468 1.30136 -2.68528 0
M  V30 6765 C 643.217 2.90165 -1.91571 0
M  V30 6766 H 642.54 2.87154 -2.78178 0
M  V30 6767 H 643.98 3.67211 -2.11972 0
M  V30 6768 C 642.439 3.29947 -0.680942 0
M  V30 6769 O 642.969 4.01403 0.154527 0
M  V30 6770 N 641.175 2.8593 -0.518894 0
M  V30 6771 H 640.722 2.2795 -1.19986 0
M  V30 6772 H 640.68 3.12907 0.305985 0
M  V30 6773 N 644.452 1.42507 0.673017 0
M  V30 6774 C 645.384 1.42074 1.79854 0
M  V30 6775 C 646.397 0.319569 1.59633 0
M  V30 6776 O 647.586 0.582769 1.68719 0
M  V30 6777 C 644.686 1.19886 3.16987 0
M  V30 6778 C 643.859 2.42471 3.64042 0
M  V30 6779 C 642.918 2.15802 4.79913 0
M  V30 6780 O 641.944 2.89015 4.90366 0
M  V30 6781 N 643.146 1.16225 5.68746 0
M  V30 6782 H 645.911 2.3909 1.8071 0
M  V30 6783 H 643.472 1.37409 0.856171 0
M  V30 6784 H 645.464 0.999591 3.92161 0
M  V30 6785 H 644.034 0.313879 3.1102 0
M  V30 6786 H 643.254 2.77954 2.79526 0
M  V30 6787 H 644.542 3.24097 3.92223 0
M  V30 6788 H 643.94 0.556756 5.62954 0
M  V30 6789 H 642.497 1.02285 6.43724 0
M  V30 6790 N 645.93 -0.909495 1.28709 0
M  V30 6791 C 647.17 -1.67344 1.17368 0
M  V30 6792 C 647.534 -1.90058 -0.272419 0
M  V30 6793 O 648.735 -2.63944 -0.508617 0
M  V30 6794 C 647.006 -2.99219 1.95455 0
M  V30 6795 S 648.565 -3.90295 2.00538 0
M  V30 6796 H 645.383 -0.57466 0.418672 0
M  V30 6797 H 647.985 -1.08144 1.62865 0
M  V30 6798 H 646.689 -2.80393 2.9968 0
M  V30 6799 H 646.22 -3.63464 1.50524 0
M  V30 6800 H 648.235 -4.83511 1.11496 0
M  V30 6801 N 647.408 -1.11026 -1.11852 0
M  V30 6802 C 648.655 -0.85646 -1.83497 0
M  V30 6803 C 648.983 0.617938 -1.84423 0
M  V30 6804 O 648.238 1.47194 -1.28966 0
M  V30 6805 C 648.537 -1.35777 -3.30604 0
M  V30 6806 C 648.203 -2.84465 -3.49843 0
M  V30 6807 C 646.865 -3.25068 -3.54802 0
M  V30 6808 C 649.217 -3.80251 -3.56453 0
M  V30 6809 C 646.545 -4.60194 -3.63921 0
M  V30 6810 C 648.897 -5.15188 -3.67102 0
M  V30 6811 C 647.561 -5.55356 -3.70319 0
M  V30 6812 H 646.831 -0.313401 -0.671462 0
M  V30 6813 H 649.478 -1.38792 -1.31943 0
M  V30 6814 H 647.783 -0.746455 -3.84624 0
M  V30 6815 H 649.48 -1.13779 -3.8452 0
M  V30 6816 H 646.07 -2.52054 -3.46651 0
M  V30 6817 H 650.254 -3.49986 -3.51886 0
M  V30 6818 H 645.51 -4.90728 -3.64686 0
M  V30 6819 H 649.684 -5.89248 -3.71159 0
M  V30 6820 H 647.311 -6.60054 -3.77138 0
M  V30 6821 N 648.886 1.2938 -0.899927 0
M  V30 6822 C 650.111 2.00228 -0.540692 0
M  V30 6823 C 650.536 1.66909 0.867359 0
M  V30 6824 O 649.894 0.893824 1.57735 0
M  V30 6825 C 649.942 3.52921 -0.740232 0
M  V30 6826 O 649.046 4.11879 0.207154 0
M  V30 6827 H 648.387 0.629505 -0.211233 0
M  V30 6828 H 650.917 1.6487 -1.21158 0
M  V30 6829 H 650.927 4.0287 -0.644973 0
M  V30 6830 H 649.602 3.76508 -1.76677 0
M  V30 6831 H 648.179 3.72845 0.0643315 0
M  V30 6832 N 650.364 0.662433 1.43002 0
M  V30 6833 C 651.589 0.186003 2.06564 0
M  V30 6834 C 652.014 -1.14314 1.49379 0
M  V30 6835 O 651.372 -1.70824 0.607346 0
M  V30 6836 C 651.42 0.118269 3.60406 0
M  V30 6837 O 650.524 -0.916859 4.02079 0
M  V30 6838 H 649.865 0.0990981 0.656563 0
M  V30 6839 H 652.395 0.907958 1.8335 0
M  V30 6840 H 652.405 -0.0619981 4.07953 0
M  V30 6841 H 651.08 1.08849 4.01403 0
M  V30 6842 H 649.657 -0.708635 3.66105 0
M  V30 6843 N 651.842 -1.52309 0.404946 0
M  V30 6844 C 653.088 -2.02065 -0.172455 0
M  V30 6845 C 653.421 -1.29022 -1.45145 0
M  V30 6846 O 652.696 -0.395284 -1.90441 0
M  V30 6847 C 652.979 -3.5759 -0.424433 0
M  V30 6848 C 652.832 -4.41287 0.870945 0
M  V30 6849 C 654.151 -4.23186 -1.20837 0
M  V30 6850 H 651.27 -0.734454 -0.0612035 0
M  V30 6851 H 653.912 -1.82236 0.53759 0
M  V30 6852 H 652.062 -3.74617 -1.02929 0
M  V30 6853 H 653.734 -4.3598 1.50729 0
M  V30 6854 H 651.977 -4.07669 1.48284 0
M  V30 6855 H 652.648 -5.48171 0.649083 0
M  V30 6856 H 655.124 -4.10232 -0.696338 0
M  V30 6857 H 654 -5.31953 -1.35343 0
M  V30 6858 H 654.261 -3.81862 -2.22786 0
M  V30 6859 N 653.32 -0.135238 -1.57019 0
M  V30 6860 C 654.545 0.529343 -2.00531 0
M  V30 6861 C 654.97 1.58391 -1.01459 0
M  V30 6862 O 654.328 1.81296 0.0113986 0
M  V30 6863 C 654.376 1.11748 -3.42848 0
M  V30 6864 O 653.48 2.23267 -3.46736 0
M  V30 6865 H 652.821 0.130669 -0.651016 0
M  V30 6866 H 655.351 -0.228503 -2.0332 0
M  V30 6867 H 655.361 1.44905 -3.81401 0
M  V30 6868 H 654.036 0.345147 -4.14465 0
M  V30 6869 H 652.613 1.91428 -3.20015 0
M  V30 6870 N 654.798 1.5699 0.138552 0
M  V30 6871 C 655.761 1.97984 1.15478 0
M  V30 6872 C 656.761 0.867416 1.35398 0
M  V30 6873 O 657.951 1.13387 1.32246 0
M  V30 6874 C 655.083 2.3031 2.51337 0
M  V30 6875 H 656.276 2.88953 0.802896 0
M  V30 6876 H 653.829 1.51555 0.382189 0
M  V30 6877 H 654.564 1.42159 2.91481 0
M  V30 6878 H 654.349 3.11425 2.38237 0
M  V30 6879 H 655.839 2.62834 3.24512 0
M  V30 6880 N 656.276 -0.40816 1.52223 0
M  V30 6881 C 657.522 -1.15673 1.66576 0
M  V30 6882 C 657.855 -1.90141 0.394996 0
M  V30 6883 O 657.13 -1.84798 -0.606613 0
M  V30 6884 C 657.413 -2.15042 2.88841 0
M  V30 6885 C 657.266 -1.44465 4.25969 0
M  V30 6886 C 658.585 -3.15699 3.0663 0
M  V30 6887 H 655.704 -0.41916 0.606196 0
M  V30 6888 H 658.346 -0.442348 1.84779 0
M  V30 6889 H 656.496 -2.75964 2.73452 0
M  V30 6890 H 658.168 -0.866544 4.53088 0
M  V30 6891 H 656.411 -0.746612 4.27327 0
M  V30 6892 H 657.082 -2.16976 5.07568 0
M  V30 6893 H 659.558 -2.64854 3.20923 0
M  V30 6894 H 658.434 -3.82491 3.9369 0
M  V30 6895 H 658.695 -3.83481 2.19987 0
M  V30 6896 N 657.755 -1.42862 -0.66545 0
M  V30 6897 C 658.665 -1.49491 -1.80803 0
M  V30 6898 C 659.681 -0.382914 -1.69734 0
M  V30 6899 O 660.857 -0.635223 -1.9112 0
M  V30 6900 C 657.922 -1.40383 -3.17007 0
M  V30 6901 C 656.983 -2.62152 -3.39963 0
M  V30 6902 C 656.216 -2.53469 -4.69669 0
M  V30 6903 O 656.439 -1.57568 -5.48205 0
M  V30 6904 O 655.373 -3.43763 -4.94075 0
M  V30 6905 H 659.199 -2.45949 -1.78165 0
M  V30 6906 H 656.784 -1.24728 -0.822387 0
M  V30 6907 H 658.666 -1.377 -3.98267 0
M  V30 6908 H 657.341 -0.470546 -3.20262 0
M  V30 6909 H 656.248 -2.70409 -2.58515 0
M  V30 6910 H 657.581 -3.54411 -3.41546 0
M  V30 6911 N 659.233 0.902656 -1.29189 0
M  V30 6912 C 660.163 2.02294 -1.16616 0
M  V30 6913 C 661.144 1.6999 -0.0611175 0
M  V30 6914 O 662.329 1.9271 -0.240072 0
M  V30 6915 C 659.459 3.37018 -0.83882 0
M  V30 6916 C 658.413 3.83522 -1.89986 0
M  V30 6917 C 657.739 5.15337 -1.42589 0
M  V30 6918 C 659.039 4.04169 -3.30824 0
M  V30 6919 H 660.733 2.13071 -2.10336 0
M  V30 6920 H 658.279 1.02378 -1.01266 0
M  V30 6921 H 660.232 4.14895 -0.737584 0
M  V30 6922 H 658.956 3.26325 0.134071 0
M  V30 6923 H 657.615 3.07859 -1.99043 0
M  V30 6924 H 657.263 5.01056 -0.441759 0
M  V30 6925 H 656.963 5.47423 -2.13547 0
M  V30 6926 H 658.487 5.95758 -1.3381 0
M  V30 6927 H 659.901 4.72537 -3.24626 0
M  V30 6928 H 658.298 4.47604 -3.99713 0
M  V30 6929 H 659.368 3.08604 -3.74021 0
M  V30 6930 N 660.711 1.11618 1.11262 0
M  V30 6931 C 661.958 0.86618 1.8304 0
M  V30 6932 C 662.286 -0.608149 1.84748 0
M  V30 6933 O 661.541 -1.46508 1.29745 0
M  V30 6934 C 661.84 1.37529 3.2988 0
M  V30 6935 C 661.506 2.86317 3.4833 0
M  V30 6936 C 660.168 3.26945 3.53073 0
M  V30 6937 C 662.52 3.82136 3.54431 0
M  V30 6938 C 659.848 4.62117 3.61475 0
M  V30 6939 C 662.2 5.17128 3.64365 0
M  V30 6940 C 660.864 5.57312 3.67369 0
M  V30 6941 H 660.134 0.316958 0.66979 0
M  V30 6942 H 662.781 1.3949 1.31205 0
M  V30 6943 H 661.086 0.766842 3.84222 0
M  V30 6944 H 662.783 1.15817 3.83911 0
M  V30 6945 H 659.373 2.53889 3.45309 0
M  V30 6946 H 663.557 3.51847 3.50025 0
M  V30 6947 H 658.813 4.92655 3.62079 0
M  V30 6948 H 662.987 5.91208 3.68029 0
M  V30 6949 H 660.614 6.62045 3.73632 0
M  V30 6950 N 662.189 -1.289 0.906776 0
M  V30 6951 C 663.435 -1.95558 0.53712 0
M  V30 6952 C 663.768 -1.71262 -0.915582 0
M  V30 6953 O 663.043 -1.02961 -1.65013 0
M  V30 6954 C 663.326 -3.50198 0.838645 0
M  V30 6955 C 663.179 -3.83923 2.34357 0
M  V30 6956 C 664.498 -4.38861 0.329988 0
M  V30 6957 H 661.617 -0.710289 0.196617 0
M  V30 6958 H 664.259 -1.52392 1.13475 0
M  V30 6959 H 662.409 -3.87096 0.330024 0
M  V30 6960 H 664.081 -3.56933 2.92227 0
M  V30 6961 H 662.324 -3.31215 2.80141 0
M  V30 6962 H 662.995 -4.91883 2.5051 0
M  V30 6963 H 665.471 -4.08996 0.765609 0
M  V30 6964 H 664.347 -5.45931 0.570105 0
M  V30 6965 H 664.608 -4.35352 -0.769511 0
M  V30 6966 N 663.667 -0.670007 -1.42649 0
M  V30 6967 C 664.913 -0.190568 -2.01903 0
M  V30 6968 C 665.246 1.19817 -1.52832 0
M  V30 6969 O 664.521 1.80342 -0.728485 0
M  V30 6970 C 664.804 -0.21991 -3.59428 0
M  V30 6971 C 664.657 -1.64376 -4.18689 0
M  V30 6972 C 665.976 0.434519 -4.3795 0
M  V30 6973 H 663.095 -0.0707219 -0.733599 0
M  V30 6974 H 665.737 -0.853883 -1.69732 0
M  V30 6975 H 663.887 0.344894 -3.86966 0
M  V30 6976 H 665.559 -2.26044 -4.02122 0
M  V30 6977 H 663.802 -2.18591 -3.747 0
M  V30 6978 H 664.473 -1.61601 -5.27815 0
M  V30 6979 H 666.949 -0.0462156 -4.16074 0
M  V30 6980 H 665.825 0.38333 -5.4756 0
M  V30 6981 H 666.086 1.51135 -4.15464 0
M  V30 6982 N 665.145 1.52092 -0.413018 0
M  V30 6983 C 666.055 2.30858 0.417318 0
M  V30 6984 C 667.071 1.38746 1.05003 0
M  V30 6985 O 668.247 1.71821 1.05069 0
M  V30 6986 C 665.312 3.11756 1.51687 0
M  V30 6987 C 664.373 4.19613 0.906825 0
M  V30 6988 C 663.606 4.96644 1.95399 0
M  V30 6989 O 663.829 4.7402 3.17271 0
M  V30 6990 O 662.763 5.81385 1.55805 0
M  V30 6991 H 666.589 3.02865 -0.225028 0
M  V30 6992 H 664.174 1.48358 -0.176126 0
M  V30 6993 H 666.056 3.62122 2.15512 0
M  V30 6994 H 664.731 2.42539 2.14375 0
M  V30 6995 H 663.638 3.73385 0.231183 0
M  V30 6996 H 664.971 4.91134 0.323814 0
M  V30 6997 N 666.623 0.143563 1.56945 0
M  V30 6998 C 667.57 -0.797433 2.16586 0
M  V30 6999 C 668.54 -1.24654 1.09775 0
M  V30 7000 O 669.725 -1.31968 1.37801 0
M  V30 7001 C 666.865 -2.03253 2.78895 0
M  V30 7002 C 665.978 -1.62954 4.00087 0
M  V30 7003 C 665.113 -2.81617 4.50406 0
M  V30 7004 C 664.152 -2.37675 5.64072 0
M  V30 7005 N 663.289 -3.49335 6.09023 0
M  V30 7006 H 668.129 -0.282023 2.96662 0
M  V30 7007 H 665.666 -0.127494 1.46546 0
M  V30 7008 H 667.624 -2.75653 3.13163 0
M  V30 7009 H 666.254 -2.52211 2.01469 0
M  V30 7010 H 665.306 -0.803322 3.71821 0
M  V30 7011 H 666.618 -1.26679 4.82446 0
M  V30 7012 H 665.772 -3.62212 4.86711 0
M  V30 7013 H 664.511 -3.21134 3.67048 0
M  V30 7014 H 663.516 -1.55519 5.27346 0
M  V30 7015 H 664.741 -1.99247 6.49213 0
M  V30 7016 H 662.687 -3.8848 5.28601 0
M  V30 7017 H 662.604 -3.17064 6.86299 0
M  V30 7018 H 663.872 -4.30297 6.49973 0
M  V30 7019 N 668.101 -1.57061 -0.130224 0
M  V30 7020 C 669.048 -1.99517 -1.16024 0
M  V30 7021 C 670.018 -0.865452 -1.41771 0
M  V30 7022 O 671.203 -1.12882 -1.53826 0
M  V30 7023 C 668.343 -2.3951 -2.48453 0
M  V30 7024 C 667.456 -3.65848 -2.29737 0
M  V30 7025 C 666.591 -3.9487 -3.55318 0
M  V30 7026 C 665.63 -5.14426 -3.31711 0
M  V30 7027 N 664.767 -5.39375 -4.49466 0
M  V30 7028 H 669.607 -2.87305 -0.791194 0
M  V30 7029 H 667.144 -1.42129 -0.379195 0
M  V30 7030 H 669.102 -2.60731 -3.25692 0
M  V30 7031 H 667.732 -1.54779 -2.83272 0
M  V30 7032 H 666.784 -3.52307 -1.4347 0
M  V30 7033 H 668.096 -4.53241 -2.08263 0
M  V30 7034 H 667.25 -4.16679 -4.4098 0
M  V30 7035 H 665.989 -3.05931 -3.79813 0
M  V30 7036 H 664.994 -4.92473 -2.44439 0
M  V30 7037 H 666.219 -6.04933 -3.08598 0
M  V30 7038 H 664.165 -4.53391 -4.74102 0
M  V30 7039 H 664.082 -6.21069 -4.31055 0
M  V30 7040 H 665.35 -5.65694 -5.36293 0
M  V30 7041 N 669.579 0.400081 -1.52437 0
M  V30 7042 C 670.509 1.4947 -1.7939 0
M  V30 7043 C 671.49 1.57383 -0.645329 0
M  V30 7044 O 672.675 1.72511 -0.891826 0
M  V30 7045 C 669.805 2.87201 -1.95276 0
M  V30 7046 C 668.759 2.94134 -3.10917 0
M  V30 7047 C 668.085 4.34207 -3.1204 0
M  V30 7048 C 669.385 2.64791 -4.50203 0
M  V30 7049 H 671.079 1.27165 -2.71052 0
M  V30 7050 H 668.625 0.610312 -1.30427 0
M  V30 7051 H 670.578 3.63772 -2.12715 0
M  V30 7052 H 669.302 3.10819 -1.00294 0
M  V30 7053 H 667.961 2.20009 -2.93243 0
M  V30 7054 H 667.609 4.54848 -2.14761 0
M  V30 7055 H 667.309 4.39768 -3.89715 0
M  V30 7056 H 668.833 5.127 -3.31619 0
M  V30 7057 H 670.247 3.31083 -4.68035 0
M  V30 7058 H 668.644 2.81717 -5.29864 0
M  V30 7059 H 669.714 1.60184 -4.57678 0
M  V30 7060 N 671.057 1.43213 0.657864 0
M  V30 7061 C 672.304 1.44584 1.41781 0
M  V30 7062 C 672.632 0.0684208 1.9438 0
M  V30 7063 O 671.887 -0.925872 1.72413 0
M  V30 7064 C 672.186 2.43143 2.61947 0
M  V30 7065 C 671.852 3.89128 2.27794 0
M  V30 7066 C 670.514 4.28889 2.18191 0
M  V30 7067 C 672.866 4.81144 2.00375 0
M  V30 7068 C 670.194 5.58625 1.79319 0
M  V30 7069 C 672.546 6.11239 1.63003 0
M  V30 7070 C 671.21 6.49981 1.51922 0
M  V30 7071 H 670.48 0.529069 0.518813 0
M  V30 7072 H 673.127 1.76263 0.748577 0
M  V30 7073 H 671.432 2.04851 3.33981 0
M  V30 7074 H 673.129 2.4146 3.20153 0
M  V30 7075 H 669.719 3.57657 2.36176 0
M  V30 7076 H 673.903 4.512 2.06718 0
M  V30 7077 H 669.159 5.87486 1.69323 0
M  V30 7078 H 673.333 6.82014 1.40817 0
M  V30 7079 H 670.96 7.50416 1.21572 0
M  V30 7080 N 672.536 -0.895792 1.29666 0
M  V30 7081 C 673.785 -1.64131 1.17234 0
M  V30 7082 C 674.098 -1.93665 -0.274416 0
M  V30 7083 O 675.304 -2.66472 -0.520105 0
M  V30 7084 C 673.76 -2.95764 2.05065 0
M  V30 7085 C 673.368 -2.7381 3.54587 0
M  V30 7086 C 675.112 -3.737 2.01367 0
M  V30 7087 C 673.019 -4.01194 4.34508 0
M  V30 7088 H 671.949 -0.615742 0.435175 0
M  V30 7089 H 674.6 -0.992626 1.54335 0
M  V30 7090 H 672.982 -3.61867 1.60837 0
M  V30 7091 H 674.156 -2.16277 4.06892 0
M  V30 7092 H 672.471 -2.09265 3.59996 0
M  V30 7093 H 675.068 -4.68152 2.58337 0
M  V30 7094 H 675.411 -4.04245 0.994575 0
M  V30 7095 H 675.944 -3.14444 2.43659 0
M  V30 7096 H 672.683 -3.75813 5.37071 0
M  V30 7097 H 672.203 -4.58272 3.86971 0
M  V30 7098 H 673.882 -4.69307 4.45376 0
M  V30 7099 N 674.014 -1.12206 -1.10668 0
M  V30 7100 C 674.964 -0.75669 -2.15077 0
M  V30 7101 C 675.948 0.243154 -1.59052 0
M  V30 7102 O 677.14 0.0490268 -1.76932 0
M  V30 7103 C 674.269 -0.210303 -3.42655 0
M  V30 7104 C 673.355 -1.23829 -4.05619 0
M  V30 7105 N 673.746 -2.43513 -4.43323 0
M  V30 7106 C 672.044 -1.08309 -4.32649 0
M  V30 7107 C 672.745 -3.09138 -4.92756 0
M  V30 7108 N 671.721 -2.36593 -4.89413 0
M  V30 7109 H 675.523 -1.66747 -2.42018 0
M  V30 7110 H 673.037 -1.00248 -1.27765 0
M  V30 7111 H 675.034 0.0696287 -4.16842 0
M  V30 7112 H 673.694 0.694967 -3.17176 0
M  V30 7113 H 674.705 -2.80912 -4.35097 0
M  V30 7114 H 671.382 -0.234919 -4.16839 0
M  V30 7115 H 672.772 -4.11049 -5.31496 0
M  V30 7116 N 675.492 1.28418 -0.913599 0
M  V30 7117 C 676.402 2.31043 -0.406965 0
M  V30 7118 C 677.418 1.66501 0.505298 0
M  V30 7119 O 678.594 1.97558 0.391522 0
M  V30 7120 C 675.659 3.4498 0.344901 0
M  V30 7121 C 674.72 4.25078 -0.600563 0
M  V30 7122 C 673.953 5.33575 0.115516 0
M  V30 7123 O 674.176 5.54503 1.33727 0
M  V30 7124 O 673.11 5.9939 -0.549095 0
M  V30 7125 H 676.936 2.76387 -1.25873 0
M  V30 7126 H 674.521 1.33109 -0.678415 0
M  V30 7127 H 676.403 4.14314 0.769542 0
M  V30 7128 H 675.078 3.01719 1.1725 0
M  V30 7129 H 673.985 3.58334 -1.0746 0
M  V30 7130 H 675.318 4.72018 -1.39497 0
M  V30 7131 N 676.97 0.677563 1.42291 0
M  V30 7132 C 678.2 0.209155 2.05539 0
M  V30 7133 C 678.608 -1.13987 1.51009 0
M  V30 7134 O 677.951 -1.71976 0.645764 0
M  V30 7135 C 678.013 0.0697758 3.59432 0
M  V30 7136 C 677.677 1.34795 4.36668 0
M  V30 7137 C 678.674 2.28201 4.67141 0
M  V30 7138 C 676.359 1.59632 4.76259 0
M  V30 7139 C 678.353 3.44718 5.36142 0
M  V30 7140 C 676.04 2.76437 5.45 0
M  V30 7141 C 677.038 3.68805 5.74867 0
M  V30 7142 O 676.726 4.83567 6.42198 0
M  V30 7143 H 676.458 0.0986202 0.668768 0
M  V30 7144 H 679.012 0.925483 1.83368 0
M  V30 7145 H 677.242 -0.702157 3.80272 0
M  V30 7146 H 678.931 -0.359115 4.04308 0
M  V30 7147 H 679.697 2.10264 4.37052 0
M  V30 7148 H 675.576 0.886073 4.52404 0
M  V30 7149 H 679.12 4.16833 5.59371 0
M  V30 7150 H 675.017 2.94299 5.74507 0
M  V30 7151 H 675.785 4.83147 6.6069 0
M  V30 7152 N 678.448 -1.51871 0.421078 0
M  V30 7153 C 679.697 -2.01125 -0.152206 0
M  V30 7154 C 680.01 -1.3106 -1.45199 0
M  V30 7155 O 681.216 -1.71195 -2.10724 0
M  V30 7156 C 679.672 -3.58458 -0.3218 0
M  V30 7157 C 679.28 -4.37448 0.96659 0
M  V30 7158 C 681.024 -4.15908 -0.84973 0
M  V30 7159 C 678.931 -5.86451 0.763529 0
M  V30 7160 H 677.861 -0.751556 -0.0606565 0
M  V30 7161 H 680.512 -1.75115 0.548354 0
M  V30 7162 H 678.894 -3.80847 -1.08498 0
M  V30 7163 H 680.068 -4.26814 1.73684 0
M  V30 7164 H 678.383 -3.91373 1.42183 0
M  V30 7165 H 680.98 -5.24922 -1.01788 0
M  V30 7166 H 681.323 -3.74031 -1.82774 0
M  V30 7167 H 681.856 -3.97535 -0.145297 0
M  V30 7168 H 678.595 -6.3271 1.71344 0
M  V30 7169 H 678.115 -5.99791 0.0327889 0
M  V30 7170 H 679.794 -6.45697 0.410354 0
M  V30 7171 N 679.926 -0.151884 -1.56866 0
M  V30 7172 C 681.151 0.508044 -2.01081 0
M  V30 7173 C 681.576 1.57306 -1.03134 0
M  V30 7174 O 680.934 1.81298 -0.0078309 0
M  V30 7175 C 680.982 1.08106 -3.44014 0
M  V30 7176 O 680.086 2.19577 -3.49084 0
M  V30 7177 H 679.427 0.123757 -0.652365 0
M  V30 7178 H 681.957 -0.250055 -2.03066 0
M  V30 7179 H 681.967 1.40851 -3.82916 0
M  V30 7180 H 680.642 0.301168 -4.14808 0
M  V30 7181 H 679.219 1.88023 -3.22027 0
M  V30 7182 N 681.404 1.57128 0.121893 0
M  V30 7183 C 682.652 1.84335 0.828548 0
M  V30 7184 C 682.973 0.736632 1.80551 0
M  V30 7185 O 682.243 -0.23962 1.94429 0
M  V30 7186 H 680.823 0.680108 0.30897 0
M  V30 7187 H 683.485 1.9459 0.109906 0
M  V30 7188 H 682.581 2.80152 1.37554 0
M  V30 7189 N 682.882 -0.391992 1.52647 0
M  V30 7190 C 684.112 -1.15692 1.71169 0
M  V30 7191 C 684.52 -1.84285 0.428444 0
M  V30 7192 O 683.863 -1.73393 -0.606669 0
M  V30 7193 C 683.925 -2.25033 2.80357 0
M  V30 7194 C 683.589 -1.76433 4.21569 0
M  V30 7195 C 684.586 -1.2427 5.0483 0
M  V30 7196 C 682.271 -1.82746 4.67877 0
M  V30 7197 C 684.265 -0.790657 6.32477 0
M  V30 7198 C 681.952 -1.37153 5.9551 0
M  V30 7199 C 682.95 -0.853997 6.7764 0
M  V30 7200 O 682.638 -0.404708 8.02881 0
M  V30 7201 H 682.37 -0.35297 0.576531 0
M  V30 7202 H 684.924 -0.464994 2.00067 0
M  V30 7203 H 683.154 -2.97641 2.46874 0
M  V30 7204 H 684.843 -2.86718 2.87311 0
M  V30 7205 H 685.609 -1.18752 4.70237 0
M  V30 7206 H 681.488 -2.21971 4.04042 0
M  V30 7207 H 685.032 -0.386024 6.96531 0
M  V30 7208 H 680.929 -1.42356 6.29607 0
M  V30 7209 H 681.697 -0.526459 8.16805 0
M  V30 7210 N 684.36 -1.4356 -0.65026 0
M  V30 7211 C 685.59 -1.48563 -1.4357 0
M  V30 7212 C 685.998 -0.103041 -1.88919 0
M  V30 7213 O 685.341 0.897602 -1.60277 0
M  V30 7214 C 685.403 -2.37181 -2.70158 0
M  V30 7215 C 685.067 -3.84673 -2.4673 0
M  V30 7216 C 686.064 -4.75704 -2.09765 0
M  V30 7217 C 683.749 -4.29189 -2.60963 0
M  V30 7218 C 685.743 -6.09249 -1.87334 0
M  V30 7219 C 683.43 -5.62787 -2.38147 0
M  V30 7220 C 684.428 -6.52634 -2.01389 0
M  V30 7221 O 684.116 -7.83761 -1.78813 0
M  V30 7222 H 683.848 -0.506743 -0.447423 0
M  V30 7223 H 686.402 -1.89001 -0.80423 0
M  V30 7224 H 684.632 -1.91636 -3.35876 0
M  V30 7225 H 686.321 -2.33354 -3.32116 0
M  V30 7226 H 687.087 -4.42589 -1.98343 0
M  V30 7227 H 682.966 -3.59529 -2.88548 0
M  V30 7228 H 686.51 -6.7934 -1.58567 0
M  V30 7229 H 682.407 -5.95469 -2.49173 0
M  V30 7230 H 683.175 -7.95368 -1.93214 0
M  V30 7231 N 685.838 0.888903 -1.30139 0
M  V30 7232 C 687.254 1.17153 -1.08385 0
M  V30 7233 C 687.454 2.0088 0.157925 0
M  V30 7234 O 686.51 2.37668 0.852652 0
M  V30 7235 C 687.823 1.882 -2.34523 0
M  V30 7236 C 689.371 2.00981 -2.39949 0
M  V30 7237 C 689.846 2.75441 -3.65918 0
M  V30 7238 N 691.337 2.82989 -3.66704 0
M  V30 7239 C 692.072 3.41167 -4.60861 0
M  V30 7240 N 691.568 4.00425 -5.6536 0
M  V30 7241 N 693.361 3.38944 -4.48412 0
M  V30 7242 H 685.512 0.33053 -2.09812 0
M  V30 7243 H 687.775 0.208964 -0.924683 0
M  V30 7244 H 687.481 1.34119 -3.25123 0
M  V30 7245 H 687.355 2.88609 -2.42868 0
M  V30 7246 H 689.742 2.54234 -1.4983 0
M  V30 7247 H 689.823 0.996725 -2.35582 0
M  V30 7248 H 689.467 2.22861 -4.56394 0
M  V30 7249 H 689.397 3.77118 -3.67546 0
M  V30 7250 H 691.888 2.40912 -2.91153 0
M  V30 7251 H 692.201 4.42871 -6.33313 0
M  V30 7252 H 690.546 3.98856 -5.69157 0
M  V30 7253 H 693.737 2.91875 -3.6596 0
M  V30 7254 H 693.91 3.83989 -5.21974 0
M  V30 7255 N 687.317 1.12792 1.10072 0
M  V30 7256 C 688.563 0.886857 1.82381 0
M  V30 7257 C 688.896 -0.58576 1.85155 0
M  V30 7258 O 688.171 -1.43317 1.31493 0
M  V30 7259 C 688.454 1.46703 3.28862 0
M  V30 7260 C 688.307 3.00829 3.34398 0
M  V30 7261 C 689.626 1.12971 4.25353 0
M  V30 7262 H 686.745 0.32362 0.662148 0
M  V30 7263 H 689.387 1.39513 1.28982 0
M  V30 7264 H 687.537 1.03476 3.74466 0
M  V30 7265 H 689.209 3.52764 2.97247 0
M  V30 7266 H 687.452 3.36164 2.74183 0
M  V30 7267 H 688.123 3.36519 4.3756 0
M  V30 7268 H 690.599 1.50313 3.88001 0
M  V30 7269 H 689.475 1.56223 5.26199 0
M  V30 7270 H 689.736 0.0424452 4.4208 0
M  V30 7271 N 688.795 -1.27931 0.920396 0
M  V30 7272 C 690.02 -1.99343 0.572478 0
M  V30 7273 C 690.445 -1.68267 -0.840696 0
M  V30 7274 O 689.803 -0.918805 -1.56294 0
M  V30 7275 C 689.851 -3.51698 0.796284 0
M  V30 7276 O 688.955 -4.12157 -0.141602 0
M  V30 7277 H 688.296 -0.626065 0.221221 0
M  V30 7278 H 690.826 -1.62921 1.23765 0
M  V30 7279 H 690.836 -4.01793 0.708984 0
M  V30 7280 H 689.511 -3.73649 1.82644 0
M  V30 7281 H 688.088 -3.729 -0.005007 0
M  V30 7282 N 690.273 -0.685099 -1.4193 0
M  V30 7283 C 691.498 -0.218842 -2.06242 0
M  V30 7284 C 691.923 1.11923 -1.51178 0
M  V30 7285 O 691.281 1.69837 -0.634446 0
M  V30 7286 C 691.329 -0.175592 -3.60172 0
M  V30 7287 O 690.433 0.852776 -4.03487 0
M  V30 7288 H 689.774 -0.109531 -0.654904 0
M  V30 7289 H 692.304 -0.937013 -1.81882 0
M  V30 7290 H 692.314 -0.00291151 -4.08 0
M  V30 7291 H 690.989 -1.15222 -3.99621 0
M  V30 7292 H 689.566 0.650301 -3.67186 0
M  V30 7293 N 691.751 1.51645 -0.429126 0
M  V30 7294 C 692.981 2.06133 0.138793 0
M  V30 7295 C 693.389 1.29735 1.37716 0
M  V30 7296 O 692.732 0.347955 1.80375 0
M  V30 7297 C 692.794 3.55504 0.534493 0
M  V30 7298 C 692.458 4.53098 -0.595917 0
M  V30 7299 C 693.455 4.98815 -1.46558 0
M  V30 7300 C 691.14 4.96296 -0.774309 0
M  V30 7301 C 693.134 5.86394 -2.4984 0
M  V30 7302 C 690.821 5.83667 -1.81042 0
M  V30 7303 C 691.819 6.28613 -2.67086 0
M  V30 7304 O 691.507 7.14251 -3.68919 0
M  V30 7305 H 691.239 0.675833 0.0150263 0
M  V30 7306 H 693.793 1.96301 -0.604584 0
M  V30 7307 H 692.023 3.63092 1.33045 0
M  V30 7308 H 693.712 3.92545 1.03262 0
M  V30 7309 H 694.478 4.66143 -1.33925 0
M  V30 7310 H 690.357 4.60859 -0.114178 0
M  V30 7311 H 693.901 6.21398 -3.17034 0
M  V30 7312 H 689.798 6.15753 -1.93698 0
M  V30 7313 H 690.566 7.3241 -3.65402 0
M  V30 7314 N 693.229 0.160201 1.56784 0
M  V30 7315 C 694.476 -0.487588 1.96542 0
M  V30 7316 C 694.804 -1.63999 1.04569 0
M  V30 7317 O 694.059 -1.95546 0.0775211 0
M  V30 7318 C 694.358 -1.02259 3.42459 0
M  V30 7319 C 694.024 0.0127436 4.50898 0
M  V30 7320 C 692.686 0.297318 4.80281 0
M  V30 7321 C 695.038 0.716078 5.16257 0
M  V30 7322 C 692.366 1.29081 5.72324 0
M  V30 7323 C 694.718 1.69847 6.09372 0
M  V30 7324 C 693.382 1.99061 6.37127 0
M  V30 7325 H 692.652 -0.178421 0.719199 0
M  V30 7326 H 695.299 0.249818 1.89864 0
M  V30 7327 H 693.604 -1.8376 3.46034 0
M  V30 7328 H 695.301 -1.53261 3.70556 0
M  V30 7329 H 691.891 -0.219235 4.28039 0
M  V30 7330 H 696.075 0.509428 4.93679 0
M  V30 7331 H 691.331 1.52344 5.92116 0
M  V30 7332 H 695.505 2.2489 6.59088 0
M  V30 7333 H 693.132 2.76194 7.08252 0
M  V30 7334 N 694.707 -1.5719 -0.113559 0
M  V30 7335 C 695.637 -2.03772 -1.14013 0
M  V30 7336 C 696.618 -0.923176 -1.42869 0
M  V30 7337 O 697.803 -1.19325 -1.53216 0
M  V30 7338 C 694.933 -2.44663 -2.4649 0
M  V30 7339 C 693.887 -3.59612 -2.32085 0
M  V30 7340 C 693.213 -3.8642 -3.69573 0
M  V30 7341 C 694.513 -4.91149 -1.7768 0
M  V30 7342 H 696.207 -2.89785 -0.752665 0
M  V30 7343 H 693.753 -1.39412 -0.360609 0
M  V30 7344 H 695.706 -2.75857 -3.18561 0
M  V30 7345 H 694.43 -1.55628 -2.87137 0
M  V30 7346 H 693.089 -3.28636 -1.62461 0
M  V30 7347 H 692.737 -2.94581 -4.07715 0
M  V30 7348 H 692.437 -4.63797 -3.60786 0
M  V30 7349 H 693.961 -4.2007 -4.4314 0
M  V30 7350 H 695.375 -5.20843 -2.39574 0
M  V30 7351 H 693.772 -5.72562 -1.79701 0
M  V30 7352 H 694.842 -4.79301 -0.734776 0
M  V30 7353 N 696.185 0.383891 -1.52853 0
M  V30 7354 C 697.433 1.12619 -1.67814 0
M  V30 7355 C 697.754 1.90354 -0.423141 0
M  V30 7356 O 697.024 1.87649 0.562554 0
M  V30 7357 H 695.604 0.418738 -0.618601 0
M  V30 7358 H 698.266 0.43495 -1.89985 0
M  V30 7359 H 697.362 1.82624 -2.5309 0
M  V30 7360 N 697.663 1.43903 0.642637 0
M  V30 7361 C 698.61 1.49881 1.75512 0
M  V30 7362 C 699.58 0.347538 1.62423 0
M  V30 7363 O 700.765 0.556177 1.82514 0
M  V30 7364 C 697.905 1.43797 3.13714 0
M  V30 7365 C 697.018 2.6921 3.37861 0
M  V30 7366 C 696.153 2.5504 4.6597 0
M  V30 7367 C 695.192 3.75671 4.83257 0
M  V30 7368 N 694.329 3.60247 6.02633 0
M  V30 7369 H 699.169 2.44935 1.69737 0
M  V30 7370 H 696.706 1.21572 0.828165 0
M  V30 7371 H 698.664 1.38262 3.93624 0
M  V30 7372 H 697.294 0.523173 3.18532 0
M  V30 7373 H 696.346 2.8498 2.51973 0
M  V30 7374 H 697.658 3.58786 3.46517 0
M  V30 7375 H 696.812 2.47273 5.54023 0
M  V30 7376 H 695.551 1.63006 4.59653 0
M  V30 7377 H 694.556 3.83836 3.93637 0
M  V30 7378 H 695.781 4.68728 4.91397 0
M  V30 7379 H 693.727 2.70955 5.97427 0
M  V30 7380 H 693.644 4.43431 6.12295 0
M  V30 7381 H 694.912 3.56351 6.93278 0
M  V30 7382 N 699.141 -0.881989 1.30609 0
M  V30 7383 C 700.071 -2.00413 1.1982 0
M  V30 7384 C 701.052 -1.69871 0.0881538 0
M  V30 7385 O 702.237 -1.92304 0.2707 0
M  V30 7386 C 699.367 -3.35641 0.89233 0
M  V30 7387 C 698.321 -3.80451 1.96064 0
M  V30 7388 C 697.647 -5.13003 1.5077 0
M  V30 7389 C 698.947 -3.98855 3.37213 0
M  V30 7390 H 700.641 -2.09698 2.13699 0
M  V30 7391 H 698.187 -1.00754 1.02882 0
M  V30 7392 H 700.14 -4.13669 0.803497 0
M  V30 7393 H 698.864 -3.26497 -0.0821381 0
M  V30 7394 H 697.523 -3.04654 2.03916 0
M  V30 7395 H 697.171 -5.0029 0.521417 0
M  V30 7396 H 696.871 -5.43956 2.22229 0
M  V30 7397 H 698.395 -5.93554 1.43271 0
M  V30 7398 H 699.809 -4.67312 3.32103 0
M  V30 7399 H 698.206 -4.41188 4.06784 0
M  V30 7400 H 699.276 -3.02614 3.78883 0
M  V30 7401 N 700.619 -1.13374 -1.09472 0
M  V30 7402 C 701.549 -0.833268 -2.18126 0
M  V30 7403 C 702.53 0.207169 -1.68834 0
M  V30 7404 O 703.715 0.0662012 -1.94087 0
M  V30 7405 C 700.845 -0.297979 -3.46019 0
M  V30 7406 C 699.799 -1.27261 -4.08642 0
M  V30 7407 C 699.125 -0.597104 -5.31356 0
M  V30 7408 C 700.425 -2.63095 -4.51197 0
M  V30 7409 H 702.119 -1.74182 -2.43518 0
M  V30 7410 H 699.665 -0.838921 -1.17039 0
M  V30 7411 H 701.618 -0.0754444 -4.21332 0
M  V30 7412 H 700.342 0.645959 -3.20148 0
M  V30 7413 H 699.001 -1.48113 -3.35348 0
M  V30 7414 H 698.649 0.352293 -5.01765 0
M  V30 7415 H 698.349 -1.24734 -5.74208 0
M  V30 7416 H 699.873 -0.38384 -6.09392 0
M  V30 7417 H 701.287 -2.46214 -5.17737 0
M  V30 7418 H 699.684 -3.2429 -5.04932 0
M  V30 7419 H 700.754 -3.20793 -3.6362 0
M  V30 7420 N 702.098 1.27442 -0.927168 0
M  V30 7421 C 703.323 1.99036 -0.583042 0
M  V30 7422 C 703.748 1.68711 0.83176 0
M  V30 7423 O 703.106 0.927081 1.55804 0
M  V30 7424 C 703.154 3.51271 -0.814925 0
M  V30 7425 O 702.258 4.12226 0.119742 0
M  V30 7426 H 701.599 0.624883 -0.224538 0
M  V30 7427 H 704.129 1.62263 -1.24628 0
M  V30 7428 H 704.139 4.01411 -0.730282 0
M  V30 7429 H 702.814 3.72676 -1.84623 0
M  V30 7430 H 701.391 3.72897 -0.0147688 0
M  V30 7431 N 703.576 0.692616 1.41565 0
M  V30 7432 C 704.853 0.150496 1.9502 0
M  V30 7433 C 705.233 -1.33881 1.63215 0
M  V30 7434 O 704.581 -2.08378 0.937598 0
M  V30 7435 C 704.791 0.438636 3.46233 0
M  V30 7436 C 706.139 0.364777 4.2303 0
M  V30 7437 O 707.163 0.373383 3.54238 0
M  V30 7438 O 706.022 0.32234 5.45549 0
M  V30 7439 H 703.116 0.0132454 0.826894 0
M  V30 7440 H 705.662 0.768574 1.51298 0
M  V30 7441 H 704.434 1.46962 3.62654 0
M  V30 7442 H 704.057 -0.210562 3.97042 0
M  V30 7443 N 705.054 -1.51416 0.437162 0
M  V30 7444 C 705.984 -2.30631 -0.364922 0
M  V30 7445 C 706.965 -1.36037 -1.02118 0
M  V30 7446 O 708.15 -1.64956 -1.02485 0
M  V30 7447 C 705.28 -3.1482 -1.46648 0
M  V30 7448 C 704.234 -4.17691 -0.933717 0
M  V30 7449 C 703.56 -4.904 -2.13101 0
M  V30 7450 C 704.86 -5.2229 0.0317201 0
M  V30 7451 H 706.554 -2.97932 0.29614 0
M  V30 7452 H 704.1 -1.4328 0.143865 0
M  V30 7453 H 706.053 -3.69017 -2.03481 0
M  V30 7454 H 704.777 -2.4534 -2.15583 0
M  V30 7455 H 703.436 -3.64545 -0.387602 0
M  V30 7456 H 703.084 -4.17423 -2.80654 0
M  V30 7457 H 702.784 -5.59962 -1.78092 0
M  V30 7458 H 704.308 -5.4742 -2.70487 0
M  V30 7459 H 705.722 -5.7156 -0.446302 0
M  V30 7460 H 704.119 -5.99378 0.29437 0
M  V30 7461 H 705.189 -4.75131 0.968447 0
M  V30 7462 N 706.532 -0.168513 -1.56696 0
M  V30 7463 C 707.462 0.758563 -2.20835 0
M  V30 7464 C 708.443 1.24121 -1.1631 0
M  V30 7465 O 709.628 1.29487 -1.4473 0
M  V30 7466 C 706.758 1.9892 -2.8469 0
M  V30 7467 C 705.712 1.64252 -3.95228 0
M  V30 7468 C 705.038 2.94757 -4.46119 0
M  V30 7469 C 706.338 0.872675 -5.14958 0
M  V30 7470 H 708.032 0.223953 -2.98561 0
M  V30 7471 H 705.578 0.106277 -1.43607 0
M  V30 7472 H 707.531 2.64275 -3.28233 0
M  V30 7473 H 706.255 2.5479 -2.04327 0
M  V30 7474 H 704.914 1.01266 -3.52336 0
M  V30 7475 H 704.562 3.48662 -3.62552 0
M  V30 7476 H 704.262 2.72316 -5.2069 0
M  V30 7477 H 705.786 3.61147 -4.92347 0
M  V30 7478 H 707.2 1.42875 -5.55211 0
M  V30 7479 H 705.597 0.747402 -5.95428 0
M  V30 7480 H 706.667 -0.131535 -4.84722 0
M  V30 7481 N 708.01 1.57248 0.105221 0
M  V30 7482 C 709.421 1.74612 0.660865 0
M  V30 7483 C 709.772 0.789231 1.79626 0
M  V30 7484 O 708.897 -0.0346611 2.16372 0
M  V30 7485 C 709.492 3.16624 1.20559 0
M  V30 7486 C 708.051 3.35447 1.7074 0
M  V30 7487 C 707.198 2.70445 0.612764 0
M  V30 7488 H 710.149 1.5824 -0.12079 0
M  V30 7489 H 710.17 3.18937 2.07508 0
M  V30 7490 H 709.682 3.86245 0.379012 0
M  V30 7491 H 707.783 2.7089 2.5583 0
M  V30 7492 H 707.896 4.43702 1.80736 0
M  V30 7493 H 706.26 2.32061 1.04975 0
M  V30 7494 H 707.043 3.42699 -0.203066 0
M  V30 7495 N 709.488 -0.375779 1.53054 0
M  V30 7496 C 710.421 -1.48187 1.7354 0
M  V30 7497 C 711.399 -1.5177 0.583495 0
M  V30 7498 O 712.583 -1.69976 0.81488 0
M  V30 7499 C 709.71 -2.86598 1.80497 0
M  V30 7500 C 708.756 -3.00784 3.02376 0
M  V30 7501 S 709.589 -2.70601 4.62099 0
M  V30 7502 C 710.745 -4.11181 4.71891 0
M  V30 7503 H 710.978 -1.30587 2.67085 0
M  V30 7504 H 708.511 -0.569485 1.43514 0
M  V30 7505 H 710.469 -3.66353 1.85192 0
M  V30 7506 H 709.13 -3.01514 0.880217 0
M  V30 7507 H 708.323 -4.02128 3.03824 0
M  V30 7508 H 707.925 -2.28939 2.95742 0
M  V30 7509 H 710.217 -5.0529 4.51319 0
M  V30 7510 H 711.16 -4.14742 5.73929 0
M  V30 7511 H 711.568 -3.97706 4.00612 0
M  V30 7512 N 710.966 -1.44241 -0.634997 0
M  V30 7513 C 712.382 -1.28043 -0.952742 0
M  V30 7514 C 712.582 -0.21338 -2.00367 0
M  V30 7515 O 711.638 0.402042 -2.49279 0
M  V30 7516 C 712.951 -2.65076 -1.41968 0
M  V30 7517 C 714.499 -2.72755 -1.53537 0
M  V30 7518 C 714.974 -4.10249 -2.03616 0
M  V30 7519 N 716.465 -4.12406 -2.10892 0
M  V30 7520 C 717.2 -5.15641 -2.50803 0
M  V30 7521 N 716.696 -6.29239 -2.89879 0
M  V30 7522 N 718.489 -5.02995 -2.50903 0
M  V30 7523 H 710.64 -2.12315 0.060098 0
M  V30 7524 H 712.903 -0.947326 -0.0357325 0
M  V30 7525 H 712.609 -3.44213 -0.721804 0
M  V30 7526 H 712.483 -2.91704 -2.39141 0
M  V30 7527 H 714.87 -1.93939 -2.22422 0
M  V30 7528 H 714.951 -2.49872 -0.547496 0
M  V30 7529 H 714.595 -4.8954 -1.35327 0
M  V30 7530 H 714.525 -4.30507 -3.03268 0
M  V30 7531 H 717.016 -3.30417 -1.83393 0
M  V30 7532 H 717.329 -7.03827 -3.19135 0
M  V30 7533 H 715.674 -6.32683 -2.8764 0
M  V30 7534 H 718.865 -4.13306 -2.19763 0
M  V30 7535 H 719.038 -5.83574 -2.81683 0
M  V30 7536 N 712.444 0.87505 -1.31075 0
M  V30 7537 C 713.377 1.98471 -1.12625 0
M  V30 7538 C 714.355 1.6257 -0.0311379 0
M  V30 7539 O 715.539 1.87574 -0.186594 0
M  V30 7540 C 712.666 3.30963 -0.719799 0
M  V30 7541 C 711.712 3.85849 -1.81722 0
M  V30 7542 S 712.545 4.11926 -3.42165 0
M  V30 7543 C 713.701 5.47423 -3.03445 0
M  V30 7544 H 713.934 2.13817 -2.06566 0
M  V30 7545 H 711.467 1.02463 -1.15502 0
M  V30 7546 H 713.425 4.07541 -0.492035 0
M  V30 7547 H 712.086 3.1346 0.200413 0
M  V30 7548 H 711.279 4.81616 -1.48533 0
M  V30 7549 H 710.881 3.16046 -1.99977 0
M  V30 7550 H 713.173 6.28881 -2.52023 0
M  V30 7551 H 714.116 5.85557 -3.98157 0
M  V30 7552 H 714.524 5.10455 -2.41031 0
M  V30 7553 N 713.922 1.13953 1.08869 0
M  V30 7554 C 714.852 0.844824 2.17681 0
M  V30 7555 C 715.833 -0.198213 1.68941 0
M  V30 7556 O 717.018 -0.0559073 1.9412 0
M  V30 7557 C 714.148 0.316325 3.45856 0
M  V30 7558 C 713.102 1.29426 4.07962 0
M  V30 7559 C 712.428 0.625275 5.31031 0
M  V30 7560 C 713.728 2.65484 4.49795 0
M  V30 7561 H 715.422 1.75471 2.42591 0
M  V30 7562 H 712.968 0.845116 1.16592 0
M  V30 7563 H 714.921 0.0977876 4.21287 0
M  V30 7564 H 713.645 -0.628972 3.20486 0
M  V30 7565 H 712.304 1.49889 3.34558 0
M  V30 7566 H 711.952 -0.325678 5.01945 0
M  V30 7567 H 711.652 1.27777 5.73539 0
M  V30 7568 H 713.176 0.416152 6.0918 0
M  V30 7569 H 714.59 2.48957 5.16424 0
M  V30 7570 H 712.987 3.26963 5.03205 0
M  V30 7571 H 714.057 3.22717 3.61914 0
M  V30 7572 N 715.4 -1.26948 0.933913 0
M  V30 7573 C 716.811 -1.76058 0.621324 0
M  V30 7574 C 717.162 -1.76175 -0.863522 0
M  V30 7575 O 716.287 -1.36921 -1.67576 0
M  V30 7576 C 716.882 -3.19713 1.12111 0
M  V30 7577 C 715.441 -3.66465 0.859074 0
M  V30 7578 C 714.588 -2.46186 1.27624 0
M  V30 7579 H 717.539 -1.13127 1.11301 0
M  V30 7580 H 717.56 -3.77566 0.471608 0
M  V30 7581 H 717.072 -3.19596 2.20182 0
M  V30 7582 H 715.173 -3.72021 -0.207566 0
M  V30 7583 H 715.286 -4.55636 1.48098 0
M  V30 7584 H 713.65 -2.45042 0.694727 0
M  V30 7585 H 714.433 -2.48774 2.36572 0
M  V30 7586 N 716.879 -0.700114 -1.41195 0
M  V30 7587 C 718.104 -0.240704 -2.05998 0
M  V30 7588 C 718.529 1.10313 -1.52357 0
M  V30 7589 O 717.887 1.69154 -0.652424 0
M  V30 7590 C 717.935 -0.213783 -3.59966 0
M  V30 7591 O 717.039 0.809933 -4.04368 0
M  V30 7592 H 716.38 -0.116471 -0.653705 0
M  V30 7593 H 718.91 -0.956251 -1.80878 0
M  V30 7594 H 718.92 -0.0461852 -4.07974 0
M  V30 7595 H 717.595 -1.19454 -3.98376 0
M  V30 7596 H 716.172 0.611319 -3.67855 0
M  V30 7597 N 718.357 1.51182 -0.445186 0
M  V30 7598 C 719.606 2.01342 0.120189 0
M  V30 7599 C 719.919 1.33353 1.43095 0
M  V30 7600 O 721.125 1.74525 2.07974 0
M  V30 7601 C 719.581 3.58925 0.264732 0
M  V30 7602 C 719.189 4.35855 -1.03606 0
M  V30 7603 C 720.933 4.17208 0.783455 0
M  V30 7604 C 718.84 5.85162 -0.856731 0
M  V30 7605 H 717.77 0.752426 0.0486922 0
M  V30 7606 H 720.421 1.74221 -0.576143 0
M  V30 7607 H 718.803 3.82525 1.02425 0
M  V30 7608 H 719.977 4.23997 -1.80452 0
M  V30 7609 H 718.292 3.89062 -1.48391 0
M  V30 7610 H 720.889 5.26475 0.934239 0
M  V30 7611 H 721.232 3.76892 1.768 0
M  V30 7612 H 721.765 3.97715 0.0820346 0
M  V30 7613 H 718.504 6.29904 -1.81388 0
M  V30 7614 H 718.024 5.99663 -0.128206 0
M  V30 7615 H 719.703 6.44963 -0.513027 0
M  V30 7616 N 719.835 0.176821 1.56605 0
M  V30 7617 C 721.084 -0.466833 1.96223 0
M  V30 7618 C 721.397 -1.64015 1.06576 0
M  V30 7619 O 722.603 -2.3504 1.35898 0
M  V30 7620 C 721.059 -0.881921 3.48927 0
M  V30 7621 C 720.667 0.266102 4.47209 0
M  V30 7622 C 722.411 -1.49368 3.97353 0
M  V30 7623 C 720.318 -0.168923 5.91159 0
M  V30 7624 H 719.248 -0.178178 0.732645 0
M  V30 7625 H 721.899 0.265929 1.81563 0
M  V30 7626 H 720.281 -1.67082 3.59026 0
M  V30 7627 H 721.455 1.04349 4.4883 0
M  V30 7628 H 719.77 0.788178 4.08872 0
M  V30 7629 H 722.367 -1.8313 5.02362 0
M  V30 7630 H 722.71 -2.3936 3.40606 0
M  V30 7631 H 723.243 -0.769114 3.90294 0
M  V30 7632 H 719.982 0.696351 6.51791 0
M  V30 7633 H 719.502 -0.911552 5.92833 0
M  V30 7634 H 721.181 -0.610938 6.44109 0
M  V30 7635 N 721.313 -1.57302 -0.09688 0
M  V30 7636 C 722.56 -1.85997 -0.800699 0
M  V30 7637 C 722.888 -0.765089 -1.7882 0
M  V30 7638 O 722.143 0.241492 -1.94204 0
M  V30 7639 C 722.442 -3.21272 -1.56586 0
M  V30 7640 C 722.108 -4.45104 -0.72064 0
M  V30 7641 C 720.77 -4.78723 -0.487632 0
M  V30 7642 C 723.122 -5.2103 -0.132948 0
M  V30 7643 C 720.45 -5.85697 0.34296 0
M  V30 7644 C 722.802 -6.28881 0.684957 0
M  V30 7645 C 721.466 -6.61017 0.928073 0
M  V30 7646 H 720.736 -0.680613 -0.292997 0
M  V30 7647 H 723.383 -1.91399 -0.0622474 0
M  V30 7648 H 721.688 -3.11547 -2.37583 0
M  V30 7649 H 723.385 -3.40702 -2.11478 0
M  V30 7650 H 719.975 -4.18777 -0.912359 0
M  V30 7651 H 724.159 -4.95392 -0.300132 0
M  V30 7652 H 719.415 -6.09008 0.540317 0
M  V30 7653 H 723.589 -6.86886 1.14721 0
M  V30 7654 H 721.216 -7.43738 1.57348 0
M  V30 7655 N 722.791 0.367657 -1.53252 0
M  V30 7656 C 724.019 1.13119 -1.73239 0
M  V30 7657 C 724.434 1.831 -0.460404 0
M  V30 7658 O 723.791 1.73483 0.566557 0
M  V30 7659 C 723.842 2.16308 -2.89643 0
M  V30 7660 O 723.563 1.49175 -4.1192 0
M  V30 7661 C 725.064 3.05224 -3.21486 0
M  V30 7662 H 722.284 0.338318 -0.579467 0
M  V30 7663 H 724.828 0.42721 -1.99988 0
M  V30 7664 H 722.983 2.82307 -2.65295 0
M  V30 7665 H 723.397 2.17912 -4.7709 0
M  V30 7666 H 724.871 3.73613 -4.06346 0
M  V30 7667 H 725.348 3.69919 -2.36763 0
M  V30 7668 H 725.954 2.44843 -3.47753 0
M  V30 7669 N 724.269 1.44576 0.627338 0
M  V30 7670 C 725.509 1.49083 1.39834 0
M  V30 7671 C 725.873 0.121643 1.91614 0
M  V30 7672 O 727.074 0.0413885 2.68768 0
M  V30 7673 C 725.345 2.52467 2.52973 0
M  V30 7674 S 726.904 2.7605 3.41089 0
M  V30 7675 H 723.722 0.527252 0.476997 0
M  V30 7676 H 726.324 1.81525 0.725872 0
M  V30 7677 H 725.028 3.50646 2.13249 0
M  V30 7678 H 724.559 2.2161 3.25042 0
M  V30 7679 H 726.574 2.07932 4.50531 0
M  V30 7680 N 725.747 -0.868086 1.31537 0
M  V30 7681 C 726.996 -1.61607 1.20689 0
M  V30 7682 C 727.309 -1.94204 -0.233275 0
M  V30 7683 O 728.515 -2.67515 -0.463465 0
M  V30 7684 C 726.971 -2.91348 2.11292 0
M  V30 7685 C 726.579 -2.66227 3.60315 0
M  V30 7686 C 728.323 -3.69344 2.09249 0
M  V30 7687 C 726.23 -3.91887 4.42921 0
M  V30 7688 H 725.16 -0.606373 0.448138 0
M  V30 7689 H 727.811 -0.959666 1.56405 0
M  V30 7690 H 726.193 -3.58374 1.68477 0
M  V30 7691 H 727.367 -2.07597 4.11388 0
M  V30 7692 H 725.682 -2.01582 3.64354 0
M  V30 7693 H 728.279 -4.62567 2.68209 0
M  V30 7694 H 728.622 -4.02044 1.0801 0
M  V30 7695 H 729.155 -3.09205 2.50274 0
M  V30 7696 H 725.894 -3.64336 5.44922 0
M  V30 7697 H 725.414 -4.49961 3.96605 0
M  V30 7698 H 727.093 -4.59754 4.55231 0
M  V30 7699 N 727.225 -1.14528 -1.08264 0
M  V30 7700 C 728.471 -0.91576 -1.80947 0
M  V30 7701 C 728.804 0.55623 -1.86064 0
M  V30 7702 O 728.079 1.41207 -1.33756 0
M  V30 7703 C 728.362 -1.51917 -3.26486 0
M  V30 7704 C 728.215 -3.06111 -3.2957 0
M  V30 7705 C 729.534 -1.19724 -4.23502 0
M  V30 7706 H 726.653 -0.334113 -0.656915 0
M  V30 7707 H 729.295 -1.41547 -1.26746 0
M  V30 7708 H 727.445 -1.0942 -3.72773 0
M  V30 7709 H 729.117 -3.57448 -2.91597 0
M  V30 7710 H 727.36 -3.40483 -2.688 0
M  V30 7711 H 728.031 -3.43438 -4.32151 0
M  V30 7712 H 730.507 -1.56467 -3.85561 0
M  V30 7713 H 729.383 -1.64575 -5.23647 0
M  V30 7714 H 729.644 -0.112771 -4.41956 0
M  V30 7715 N 728.703 1.26451 -0.940633 0
M  V30 7716 C 729.933 1.97581 -0.603766 0
M  V30 7717 C 730.341 1.70246 0.825395 0
M  V30 7718 O 729.684 0.967001 1.56188 0
M  V30 7719 C 729.746 3.51256 -0.765463 0
M  V30 7720 C 729.41 4.0224 -2.16915 0
M  V30 7721 C 730.407 4.1402 -3.14457 0
M  V30 7722 C 728.092 4.36263 -2.48958 0
M  V30 7723 C 730.086 4.59117 -4.42143 0
M  V30 7724 C 727.773 4.81048 -3.76877 0
M  V30 7725 C 728.771 4.92436 -4.73282 0
M  V30 7726 O 728.459 5.36234 -5.98923 0
M  V30 7727 H 728.191 0.636948 -0.226436 0
M  V30 7728 H 730.745 1.61941 -1.2635 0
M  V30 7729 H 728.975 3.86669 -0.0485956 0
M  V30 7730 H 730.664 4.03597 -0.431738 0
M  V30 7731 H 731.43 3.87981 -2.91026 0
M  V30 7732 H 727.309 4.26634 -1.74656 0
M  V30 7733 H 730.853 4.6792 -5.17394 0
M  V30 7734 H 726.75 5.06531 -4.00121 0
M  V30 7735 H 727.518 5.54456 -6.02097 0
M  V30 7736 N 730.181 0.707592 1.40822 0
M  V30 7737 C 731.428 0.243671 2.01029 0
M  V30 7738 C 731.756 -1.16057 1.5608 0
M  V30 7739 O 731.011 -1.7999 0.768251 0
M  V30 7740 C 731.31 0.262892 3.56432 0
M  V30 7741 C 730.976 1.61632 4.20935 0
M  V30 7742 C 729.638 1.98682 4.38268 0
M  V30 7743 C 731.99 2.50619 4.5699 0
M  V30 7744 C 729.318 3.2428 4.88937 0
M  V30 7745 C 731.67 3.75562 5.09054 0
M  V30 7746 C 730.334 4.12739 5.24598 0
M  V30 7747 H 729.604 0.0891654 0.735616 0
M  V30 7748 H 732.251 0.909051 1.68548 0
M  V30 7749 H 730.556 -0.486052 3.88773 0
M  V30 7750 H 732.253 -0.113775 4.00839 0
M  V30 7751 H 728.843 1.31818 4.07826 0
M  V30 7752 H 733.027 2.23272 4.43242 0
M  V30 7753 H 728.283 3.53064 4.99155 0
M  V30 7754 H 732.457 4.44692 5.35931 0
M  V30 7755 H 730.084 5.10132 5.63622 0
M  V30 7756 N 731.66 -1.50943 0.453197 0
M  V30 7757 C 732.593 -2.24742 -0.395787 0
M  V30 7758 C 733.571 -1.27316 -1.01141 0
M  V30 7759 O 734.755 -1.56494 -1.05081 0
M  V30 7760 C 731.882 -3.00999 -1.55298 0
M  V30 7761 C 730.928 -4.13207 -1.0565 0
M  V30 7762 S 731.761 -5.35498 0.01435 0
M  V30 7763 C 732.917 -6.15298 -1.14714 0
M  V30 7764 H 733.15 -2.96403 0.23071 0
M  V30 7765 H 730.683 -1.52557 0.237874 0
M  V30 7766 H 732.641 -3.45529 -2.2163 0
M  V30 7767 H 731.302 -2.28896 -2.15094 0
M  V30 7768 H 730.495 -4.65901 -1.9223 0
M  V30 7769 H 730.097 -3.7102 -0.471182 0
M  V30 7770 H 732.389 -6.45346 -2.06239 0
M  V30 7771 H 733.332 -7.05019 -0.659842 0
M  V30 7772 H 733.74 -5.47046 -1.39288 0
M  V30 7773 N 733.138 -0.185124 -1.56509 0
M  V30 7774 C 734.068 0.735098 -2.21627 0
M  V30 7775 C 735.049 1.2288 -1.1762 0
M  V30 7776 O 736.234 1.27945 -1.46095 0
M  V30 7777 C 733.364 1.95889 -2.86783 0
M  V30 7778 C 732.318 1.6005 -3.96948 0
M  V30 7779 C 731.644 2.90009 -4.4922 0
M  V30 7780 C 732.944 0.818008 -5.15855 0
M  V30 7781 H 734.638 0.192274 -2.98782 0
M  V30 7782 H 732.184 0.0910393 -1.43712 0
M  V30 7783 H 734.137 2.60779 -3.31017 0
M  V30 7784 H 732.861 2.52608 -2.07018 0
M  V30 7785 H 731.52 0.975237 -3.5339 0
M  V30 7786 H 731.168 3.44797 -3.6623 0
M  V30 7787 H 730.868 2.66778 -5.23549 0
M  V30 7788 H 732.392 3.55904 -4.9615 0
M  V30 7789 H 733.806 1.36979 -5.56695 0
M  V30 7790 H 732.203 0.684207 -5.96187 0
M  V30 7791 H 733.273 -0.182939 -4.84555 0
M  V30 7792 N 734.616 1.57351 0.0885366 0
M  V30 7793 C 735.864 1.86051 0.789262 0
M  V30 7794 C 736.185 0.774763 1.78948 0
M  V30 7795 O 735.455 -0.198324 1.94894 0
M  V30 7796 H 734.035 0.686508 0.294475 0
M  V30 7797 H 736.697 1.94779 0.0686055 0
M  V30 7798 H 735.793 2.83007 1.31581 0
M  V30 7799 N 736.094 -0.359525 1.53444 0
M  V30 7800 C 737.024 -1.44662 1.8329 0
M  V30 7801 C 738.005 -1.55617 0.68683 0
M  V30 7802 O 739.19 -1.70086 0.93725 0
M  V30 7803 C 736.32 -2.81923 2.02822 0
M  V30 7804 C 735.274 -2.85787 3.18606 0
M  V30 7805 C 734.6 -4.25781 3.23442 0
M  V30 7806 C 735.9 -2.52762 4.57065 0
M  V30 7807 H 737.594 -1.19934 2.74329 0
M  V30 7808 H 735.14 -0.575517 1.31999 0
M  V30 7809 H 737.093 -3.58005 2.22285 0
M  V30 7810 H 735.817 -3.08051 1.085 0
M  V30 7811 H 734.476 -2.12157 2.98973 0
M  V30 7812 H 734.124 -4.48994 2.26745 0
M  V30 7813 H 733.824 -4.29281 4.01238 0
M  V30 7814 H 735.348 -5.03727 3.45096 0
M  V30 7815 H 736.762 -3.18557 4.76649 0
M  V30 7816 H 735.159 -2.67569 5.37147 0
M  V30 7817 H 736.229 -1.47993 4.61764 0
M  V30 7818 N 737.572 -1.44907 -0.619662 0
M  V30 7819 C 738.519 -1.52654 -1.73105 0
M  V30 7820 C 739.489 -0.373334 -1.6185 0
M  V30 7821 O 740.674 -0.585143 -1.81606 0
M  V30 7822 C 737.814 -1.48769 -3.11387 0
M  V30 7823 C 736.927 -2.74551 -3.33535 0
M  V30 7824 C 736.062 -2.62421 -4.61854 0
M  V30 7825 C 735.101 -3.83312 -4.77219 0
M  V30 7826 N 734.238 -3.69789 -5.96826 0
M  V30 7827 H 739.078 -2.47605 -1.65819 0
M  V30 7828 H 736.615 -1.22875 -0.808719 0
M  V30 7829 H 738.573 -1.44507 -3.91374 0
M  V30 7830 H 737.203 -0.573783 -3.1766 0
M  V30 7831 H 736.255 -2.88953 -2.47408 0
M  V30 7832 H 737.567 -3.64253 -3.40765 0
M  V30 7833 H 736.721 -2.56056 -5.50019 0
M  V30 7834 H 735.46 -1.70298 -4.57001 0
M  V30 7835 H 734.465 -3.90049 -3.87481 0
M  V30 7836 H 735.69 -4.76486 -4.83878 0
M  V30 7837 H 733.636 -2.80426 -5.93041 0
M  V30 7838 H 733.553 -4.53116 -6.05163 0
M  V30 7839 H 734.821 -3.67335 -6.87521 0
M  V30 7840 N 739.05 0.861098 -1.31996 0
M  V30 7841 C 740.461 1.43065 -1.19955 0
M  V30 7842 C 740.812 1.95273 0.190489 0
M  V30 7843 O 739.937 1.87012 1.08882 0
M  V30 7844 C 740.532 2.60052 -2.1716 0
M  V30 7845 C 739.091 3.13026 -2.09026 0
M  V30 7846 C 738.238 1.85756 -2.05888 0
M  V30 7847 H 741.189 0.668834 -1.43918 0
M  V30 7848 H 741.21 3.37016 -1.76637 0
M  V30 7849 H 740.722 2.22024 -3.18319 0
M  V30 7850 H 738.823 3.55653 -1.11092 0
M  V30 7851 H 738.936 3.74707 -2.98549 0
M  V30 7852 H 737.3 2.05088 -1.51033 0
M  V30 7853 H 738.083 1.49954 -3.08818 0
M  V30 7854 N 740.528 1.15101 1.07655 0
M  V30 7855 C 741.475 0.844958 2.14777 0
M  V30 7856 C 742.445 -0.200798 1.64882 0
M  V30 7857 O 743.63 -0.0690278 1.90675 0
M  V30 7858 C 740.77 0.337018 3.4345 0
M  V30 7859 C 739.883 1.44398 4.07153 0
M  V30 7860 C 739.018 0.892487 5.23649 0
M  V30 7861 C 738.057 1.9766 5.79307 0
M  V30 7862 N 737.194 1.44171 6.87138 0
M  V30 7863 H 742.034 1.76242 2.40297 0
M  V30 7864 H 739.571 0.879435 1.17917 0
M  V30 7865 H 741.529 0.024256 4.17193 0
M  V30 7866 H 740.159 -0.543531 3.18191 0
M  V30 7867 H 739.211 1.87299 3.31094 0
M  V30 7868 H 740.523 2.26262 4.4453 0
M  V30 7869 H 739.677 0.532083 6.04362 0
M  V30 7870 H 738.416 0.0429854 4.87681 0
M  V30 7871 H 737.421 2.34586 4.97242 0
M  V30 7872 H 738.646 2.82982 6.17331 0
M  V30 7873 H 736.592 0.614518 6.53115 0
M  V30 7874 H 736.509 2.19665 7.23383 0
M  V30 7875 H 737.777 1.10945 7.71564 0
M  V30 7876 N 742.006 -1.2595 0.947325 0
M  V30 7877 C 742.969 -2.24407 0.466285 0
M  V30 7878 C 743.969 -1.55054 -0.426005 0
M  V30 7879 O 745.159 -1.7275 -0.224319 0
M  V30 7880 C 742.291 -3.39326 -0.327201 0
M  V30 7881 H 743.484 -2.68477 1.33642 0
M  V30 7882 H 741.037 -1.38211 0.729887 0
M  V30 7883 H 741.772 -3.00667 -1.21532 0
M  V30 7884 H 741.557 -3.9085 0.312839 0
M  V30 7885 H 743.047 -4.12455 -0.653477 0
M  V30 7886 N 743.484 -0.715051 -1.40445 0
M  V30 7887 C 744.761 -0.181503 -1.94756 0
M  V30 7888 C 745.141 1.31268 -1.65324 0
M  V30 7889 O 744.489 2.0686 -0.970631 0
M  V30 7890 C 744.699 -0.493663 -3.45491 0
M  V30 7891 C 746.047 -0.432032 -4.22396 0
M  V30 7892 O 747.071 -0.429692 -3.53599 0
M  V30 7893 O 745.93 -0.409091 -5.44967 0
M  V30 7894 H 743.024 -0.0263989 -0.826579 0
M  V30 7895 H 745.57 -0.792546 -1.50056 0
M  V30 7896 H 744.342 -1.52713 -3.6027 0
M  V30 7897 H 743.965 0.14737 -3.97327 0
M  V30 7898 N 744.962 1.50701 -0.461195 0
M  V30 7899 C 745.925 2.2686 0.326679 0
M  V30 7900 C 746.925 1.31243 0.929085 0
M  V30 7901 O 748.115 1.54754 0.799807 0
M  V30 7902 C 745.247 3.07844 1.46441 0
M  V30 7903 H 746.44 2.97954 -0.341095 0
M  V30 7904 H 743.993 1.54814 -0.214984 0
M  V30 7905 H 744.728 2.41223 2.16753 0
M  V30 7906 H 744.513 3.78101 1.03836 0
M  V30 7907 H 746.003 3.65469 2.02044 0
M  V30 7908 N 746.441 0.193421 1.56409 0
M  V30 7909 C 747.688 -0.445789 1.97532 0
M  V30 7910 C 748.016 -1.61744 1.08024 0
M  V30 7911 O 747.271 -1.95338 0.118982 0
M  V30 7912 C 747.57 -0.949718 3.44551 0
M  V30 7913 C 747.236 0.108383 4.5077 0
M  V30 7914 C 745.898 0.399126 4.79542 0
M  V30 7915 C 748.25 0.825423 5.14622 0
M  V30 7916 C 745.578 1.41192 5.69457 0
M  V30 7917 C 747.93 1.82735 6.05632 0
M  V30 7918 C 746.594 2.12531 6.32761 0
M  V30 7919 H 745.864 -0.163126 0.722822 0
M  V30 7920 H 748.511 0.290035 1.89291 0
M  V30 7921 H 746.816 -1.76378 3.49854 0
M  V30 7922 H 748.513 -1.45367 3.73724 0
M  V30 7923 H 745.103 -0.128392 4.28408 0
M  V30 7924 H 749.287 0.61403 4.92487 0
M  V30 7925 H 744.543 1.6487 5.88751 0
M  V30 7926 H 748.717 2.3882 6.5417 0
M  V30 7927 H 746.344 2.91155 7.02234 0
M  V30 7928 N 747.919 -1.57396 -0.0801906 0
M  V30 7929 C 749.166 -1.86836 -0.780927 0
M  V30 7930 C 749.494 -0.784012 -1.77999 0
M  V30 7931 O 748.749 0.220881 -1.94449 0
M  V30 7932 C 749.048 -3.22915 -1.53169 0
M  V30 7933 C 748.714 -4.45843 -0.67339 0
M  V30 7934 C 747.376 -4.79213 -0.436829 0
M  V30 7935 C 749.728 -5.21142 -0.0776786 0
M  V30 7936 C 747.056 -5.853 0.405062 0
M  V30 7937 C 749.408 -6.28119 0.751619 0
M  V30 7938 C 748.072 -6.59995 0.998131 0
M  V30 7939 H 747.342 -0.683682 -0.285761 0
M  V30 7940 H 749.989 -1.91454 -0.0419435 0
M  V30 7941 H 748.294 -3.14049 -2.34265 0
M  V30 7942 H 749.991 -3.42926 -2.07853 0
M  V30 7943 H 746.581 -4.19721 -0.867891 0
M  V30 7944 H 750.765 -4.95682 -0.247572 0
M  V30 7945 H 746.021 -6.084 0.60488 0
M  V30 7946 H 750.195 -6.8563 1.22 0
M  V30 7947 H 747.822 -7.42027 1.65227 0
M  V30 7948 N 749.397 0.351382 -1.53633 0
M  V30 7949 C 750.643 1.09411 -1.70754 0
M  V30 7950 C 750.976 1.88544 -0.465293 0
M  V30 7951 O 750.251 1.86923 0.537608 0
M  V30 7952 C 750.534 2.04173 -2.96623 0
M  V30 7953 C 750.387 1.28556 -4.31038 0
M  V30 7954 C 751.706 3.04102 -3.18136 0
M  V30 7955 H 748.825 0.396373 -0.621335 0
M  V30 7956 H 751.467 0.373464 -1.86293 0
M  V30 7957 H 749.617 2.65625 -2.83506 0
M  V30 7958 H 751.289 0.697786 -4.55992 0
M  V30 7959 H 749.532 0.587498 -4.29803 0
M  V30 7960 H 750.203 1.97989 -5.15271 0
M  V30 7961 H 752.679 2.5276 -3.30532 0
M  V30 7962 H 751.555 3.67616 -4.07615 0
M  V30 7963 H 751.816 3.75053 -2.34068 0
M  V30 7964 N 750.875 1.45233 0.611969 0
M  V30 7965 C 751.808 1.48056 1.73651 0
M  V30 7966 C 752.786 0.337373 1.59061 0
M  V30 7967 O 753.97 0.537222 1.80683 0
M  V30 7968 C 751.097 1.33144 3.11433 0
M  V30 7969 C 750.143 2.51272 3.44623 0
M  V30 7970 S 750.976 4.13754 3.39953 0
M  V30 7971 C 752.132 4.013 4.80322 0
M  V30 7972 H 752.365 2.43205 1.70993 0
M  V30 7973 H 749.898 1.32763 0.788246 0
M  V30 7974 H 751.856 1.25228 3.90932 0
M  V30 7975 H 750.517 0.394734 3.1161 0
M  V30 7976 H 749.71 2.36753 4.44932 0
M  V30 7977 H 749.312 2.56027 2.72629 0
M  V30 7978 H 751.604 3.66174 5.7002 0
M  V30 7979 H 752.547 5.01506 4.99897 0
M  V30 7980 H 752.955 3.3303 4.55797 0
M  V30 7981 N 752.353 -0.854086 1.3245 0
M  V30 7982 C 753.286 -1.96654 1.15768 0
M  V30 7983 C 754.264 -1.625 0.0569975 0
M  V30 7984 O 755.448 -1.87254 0.216412 0
M  V30 7985 C 752.575 -3.29776 0.772361 0
M  V30 7986 C 751.621 -3.82909 1.87837 0
M  V30 7987 S 752.454 -4.0643 3.48675 0
M  V30 7988 C 753.61 -5.42526 3.12116 0
M  V30 7989 H 753.843 -2.10504 2.09942 0
M  V30 7990 H 751.376 -1.00612 1.17118 0
M  V30 7991 H 753.334 -4.06706 0.556809 0
M  V30 7992 H 751.995 -3.13739 -0.150519 0
M  V30 7993 H 751.188 -4.79192 1.56177 0
M  V30 7994 H 750.79 -3.12825 2.0498 0
M  V30 7995 H 753.082 -6.24792 2.61996 0
M  V30 7996 H 754.025 -5.79148 4.07422 0
M  V30 7997 H 754.433 -5.06556 2.49121 0
M  V30 7998 N 753.831 -1.1567 -1.07043 0
M  V30 7999 C 755.078 -0.933517 -1.79699 0
M  V30 8000 C 755.406 0.539162 -1.86878 0
M  V30 8001 O 754.661 1.41592 -1.35093 0
M  V30 8002 C 754.96 -1.49677 -3.24548 0
M  V30 8003 C 754.626 -2.99047 -3.37463 0
M  V30 8004 C 753.288 -3.39824 -3.40695 0
M  V30 8005 C 755.64 -3.95027 -3.40004 0
M  V30 8006 C 752.968 -4.75215 -3.44075 0
M  V30 8007 C 755.32 -5.30295 -3.44921 0
M  V30 8008 C 753.984 -5.70562 -3.46432 0
M  V30 8009 H 753.254 -0.341598 -0.657565 0
M  V30 8010 H 755.901 -1.44263 -1.25938 0
M  V30 8011 H 754.206 -0.908915 -3.81111 0
M  V30 8012 H 755.903 -1.29986 -3.79348 0
M  V30 8013 H 752.493 -2.6653 -3.35648 0
M  V30 8014 H 756.677 -3.64596 -3.36725 0
M  V30 8015 H 751.933 -5.05754 -3.43545 0
M  V30 8016 H 756.107 -6.0446 -3.45833 0
M  V30 8017 H 753.734 -6.75456 -3.48803 0
M  V30 8018 N 755.309 1.25446 -0.953992 0
M  V30 8019 C 756.537 1.97215 -0.625595 0
M  V30 8020 C 756.952 1.70911 0.802168 0
M  V30 8021 O 756.309 0.984782 1.5365 0
M  V30 8022 C 756.36 3.50777 -0.873943 0
M  V30 8023 O 756.081 3.76173 -2.24556 0
M  V30 8024 C 757.582 4.39776 -0.557845 0
M  V30 8025 H 754.802 0.628652 -0.2346 0
M  V30 8026 H 757.346 1.59632 -1.27819 0
M  V30 8027 H 755.501 3.86474 -0.267765 0
M  V30 8028 H 755.915 4.70636 -2.31522 0
M  V30 8029 H 757.389 5.46431 -0.782157 0
M  V30 8030 H 757.866 4.36257 0.507573 0
M  V30 8031 H 758.472 4.09644 -1.14332 0
M  V30 8032 N 756.787 0.722489 1.40064 0
M  V30 8033 C 757.717 0.0892452 2.33329 0
M  V30 8034 C 758.698 -0.737992 1.53257 0
M  V30 8035 O 759.883 -0.685516 1.81698 0
M  V30 8036 C 757.013 -0.828139 3.37282 0
M  V30 8037 C 755.967 -0.106005 4.27869 0
M  V30 8038 C 755.293 -1.13957 5.22415 0
M  V30 8039 C 756.593 1.04395 5.11761 0
M  V30 8040 H 758.287 0.868269 2.86534 0
M  V30 8041 H 755.833 0.418982 1.3777 0
M  V30 8042 H 757.786 -1.28058 4.01471 0
M  V30 8043 H 756.51 -1.63914 2.82489 0
M  V30 8044 H 755.169 0.326683 3.65142 0
M  V30 8045 H 754.817 -1.9438 4.63924 0
M  V30 8046 H 754.517 -0.661233 5.83868 0
M  V30 8047 H 756.041 -1.59197 5.89482 0
M  V30 8048 H 757.455 0.670541 5.69365 0
M  V30 8049 H 755.852 1.4511 5.82291 0
M  V30 8050 H 756.922 1.87144 4.47331 0
M  V30 8051 N 758.265 -1.50454 0.469181 0
M  V30 8052 C 759.198 -2.25149 -0.371928 0
M  V30 8053 C 760.176 -1.28382 -0.997845 0
M  V30 8054 O 761.36 -1.57599 -1.03415 0
M  V30 8055 C 758.487 -3.02629 -1.52097 0
M  V30 8056 C 757.533 -4.14305 -1.01262 0
M  V30 8057 S 758.366 -5.35453 0.0711459 0
M  V30 8058 C 759.522 -6.1648 -1.08181 0
M  V30 8059 H 759.755 -2.96142 0.262134 0
M  V30 8060 H 757.288 -1.52296 0.254042 0
M  V30 8061 H 759.246 -3.47861 -2.17952 0
M  V30 8062 H 757.907 -2.31165 -2.12654 0
M  V30 8063 H 757.1 -4.67913 -1.87278 0
M  V30 8064 H 756.702 -3.71499 -0.431804 0
M  V30 8065 H 758.994 -6.47497 -1.99382 0
M  V30 8066 H 759.937 -7.05679 -0.585028 0
M  V30 8067 H 760.345 -5.48492 -1.33478 0
M  V30 8068 N 759.743 -0.201713 -1.56304 0
M  V30 8069 C 760.676 0.755976 -2.15314 0
M  V30 8070 C 761.654 1.20497 -1.09175 0
M  V30 8071 O 762.838 1.2913 -1.37323 0
M  V30 8072 C 759.965 2.02177 -2.71739 0
M  V30 8073 C 759.011 1.71436 -3.90528 0
M  V30 8074 S 759.844 0.856624 -5.28604 0
M  V30 8075 C 761 2.13242 -5.88455 0
M  V30 8076 H 761.233 0.254348 -2.9621 0
M  V30 8077 H 758.766 0.0133669 -1.54394 0
M  V30 8078 H 760.724 2.74867 -3.04891 0
M  V30 8079 H 759.385 2.49452 -1.90873 0
M  V30 8080 H 758.578 2.65433 -4.28441 0
M  V30 8081 H 758.18 1.06823 -3.5842 0
M  V30 8082 H 760.472 3.08435 -6.0322 0
M  V30 8083 H 761.415 1.7975 -6.84905 0
M  V30 8084 H 761.823 2.2639 -5.17115 0
M  V30 8085 N 761.222 1.57436 0.0718424 0
M  V30 8086 C 762.468 1.87525 0.772149 0
M  V30 8087 C 762.801 0.79399 1.77227 0
M  V30 8088 O 762.076 -0.195733 1.93513 0
M  V30 8089 C 762.359 3.28272 1.48018 0
M  V30 8090 C 762.212 4.47052 0.49647 0
M  V30 8091 C 763.531 3.67256 2.42509 0
M  V30 8092 H 760.65 0.682049 0.279245 0
M  V30 8093 H 763.292 1.89967 0.03534 0
M  V30 8094 H 761.442 3.26321 2.10824 0
M  V30 8095 H 763.114 4.61127 -0.126375 0
M  V30 8096 H 761.357 4.33392 -0.188205 0
M  V30 8097 H 762.028 5.42315 1.02949 0
M  V30 8098 H 764.504 3.70301 1.89781 0
M  V30 8099 H 763.38 4.66626 2.89053 0
M  V30 8100 H 763.641 2.97186 3.27312 0
M  V30 8101 N 762.7 -0.34323 1.53817 0
M  V30 8102 C 763.663 -1.40444 1.8113 0
M  V30 8103 C 764.663 -1.45604 0.682366 0
M  V30 8104 O 765.853 -1.45974 0.950649 0
M  V30 8105 C 762.985 -2.79369 1.95361 0
M  V30 8106 H 764.178 -1.17489 2.75928 0
M  V30 8107 H 761.731 -0.577636 1.45234 0
M  V30 8108 H 762.466 -3.07607 1.02707 0
M  V30 8109 H 762.251 -2.7702 2.77493 0
M  V30 8110 H 763.741 -3.56178 2.18008 0
M  V30 8111 N 764.178 -1.45556 -0.604258 0
M  V30 8112 C 765.408 -1.53056 -1.38771 0
M  V30 8113 C 765.816 -0.163092 -1.88496 0
M  V30 8114 O 765.159 0.846157 -1.63052 0
M  V30 8115 C 765.221 -2.45656 -2.62476 0
M  V30 8116 C 764.885 -3.92328 -2.34367 0
M  V30 8117 C 765.882 -4.82137 -1.94525 0
M  V30 8118 C 763.567 -4.37275 -2.47177 0
M  V30 8119 C 765.561 -6.14901 -1.67856 0
M  V30 8120 C 763.248 -5.70079 -2.20122 0
M  V30 8121 C 764.246 -6.58711 -1.80524 0
M  V30 8122 O 763.934 -7.89053 -1.53788 0
M  V30 8123 H 763.666 -0.520721 -0.431075 0
M  V30 8124 H 766.22 -1.91464 -0.743693 0
M  V30 8125 H 764.45 -2.02225 -3.29609 0
M  V30 8126 H 766.139 -2.43802 -3.24523 0
M  V30 8127 H 766.905 -4.48675 -1.84162 0
M  V30 8128 H 762.784 -3.68527 -2.76964 0
M  V30 8129 H 766.328 -6.8404 -1.36874 0
M  V30 8130 H 762.225 -6.03095 -2.30102 0
M  V30 8131 H 762.993 -8.01113 -1.67812 0
M  V30 8132 N 765.656 0.84705 -1.32902 0
M  V30 8133 C 766.881 1.63925 -1.27056 0
M  V30 8134 C 767.306 1.87443 0.157136 0
M  V30 8135 O 766.664 1.43266 1.11106 0
M  V30 8136 C 766.712 2.97134 -2.04313 0
M  V30 8137 O 765.816 3.88049 -1.39614 0
M  V30 8138 H 765.157 0.499477 -0.437514 0
M  V30 8139 H 767.687 1.05443 -1.75336 0
M  V30 8140 H 767.697 3.46896 -2.14772 0
M  V30 8141 H 766.372 2.79339 -3.08128 0
M  V30 8142 H 764.949 3.46525 -1.3775 0
M  V30 8143 N 767.134 1.16236 1.06428 0
M  V30 8144 C 768.097 0.870163 2.1204 0
M  V30 8145 C 769.097 -0.134239 1.60239 0
M  V30 8146 O 770.287 0.0964932 1.73933 0
M  V30 8147 C 767.419 0.301033 3.39568 0
M  V30 8148 H 768.612 1.8064 2.39394 0
M  V30 8149 H 766.165 0.971116 1.2247 0
M  V30 8150 H 766.9 -0.642948 3.17863 0
M  V30 8151 H 766.685 1.02475 3.78472 0
M  V30 8152 H 768.175 0.114494 4.17443 0
M  V30 8153 N 768.612 -1.24939 0.960631 0
M  V30 8154 C 769.837 -1.9742 0.635608 0
M  V30 8155 C 770.262 -1.70857 -0.786737 0
M  V30 8156 O 769.62 -0.968063 -1.53291 0
M  V30 8157 C 769.668 -3.48987 0.907771 0
M  V30 8158 O 768.772 -4.12399 -0.0104053 0
M  V30 8159 H 768.113 -0.61871 0.241027 0
M  V30 8160 H 770.643 -1.58901 1.28886 0
M  V30 8161 H 770.653 -3.99334 0.836453 0
M  V30 8162 H 769.328 -3.6765 1.94439 0
M  V30 8163 H 767.905 -3.72727 0.113631 0
M  V30 8164 N 770.09 -0.729906 -1.39679 0
M  V30 8165 C 771.315 -0.284345 -2.05442 0
M  V30 8166 C 771.74 1.07056 -1.54663 0
M  V30 8167 O 771.098 1.67732 -0.688157 0
M  V30 8168 C 771.146 -0.290089 -3.59431 0
M  V30 8169 O 770.25 0.723978 -4.05995 0
M  V30 8170 H 769.591 -0.130311 -0.651088 0
M  V30 8171 H 772.121 -0.994403 -1.78809 0
M  V30 8172 H 772.131 -0.132712 -4.07784 0
M  V30 8173 H 770.806 -1.27877 -3.95753 0
M  V30 8174 H 769.383 0.533154 -3.69069 0
M  V30 8175 N 771.568 1.50203 -0.477153 0
M  V30 8176 C 772.501 2.25343 0.359983 0
M  V30 8177 C 773.479 1.28909 0.991022 0
M  V30 8178 O 774.663 1.58146 1.02578 0
M  V30 8179 C 771.79 3.03431 1.5049 0
M  V30 8180 C 770.836 4.14836 0.99063 0
M  V30 8181 S 771.669 5.35407 -0.0995413 0
M  V30 8182 C 772.825 6.17045 1.04911 0
M  V30 8183 H 773.058 2.95999 -0.277836 0
M  V30 8184 H 770.591 1.52159 -0.262115 0
M  V30 8185 H 772.549 3.49012 2.16105 0
M  V30 8186 H 771.21 2.32289 2.11425 0
M  V30 8187 H 770.403 4.689 1.84794 0
M  V30 8188 H 770.005 3.71723 0.412097 0
M  V30 8189 H 772.297 6.48546 1.95946 0
M  V30 8190 H 773.24 7.05979 0.547596 0
M  V30 8191 H 773.648 5.49193 1.30567 0
M  V30 8192 N 773.046 0.209999 1.56195 0
M  V30 8193 C 774.009 -0.691232 2.18528 0
M  V30 8194 C 775.009 -1.13013 1.14388 0
M  V30 8195 O 776.199 -1.04081 1.39688 0
M  V30 8196 C 773.331 -1.94551 2.79934 0
M  V30 8197 H 774.524 -0.147953 2.99535 0
M  V30 8198 H 772.077 -0.0396243 1.5625 0
M  V30 8199 H 772.812 -2.53094 2.02766 0
M  V30 8200 H 772.597 -1.63938 3.56184 0
M  V30 8201 H 774.087 -2.58785 3.2775 0
M  V30 8202 N 774.524 -1.57472 -0.0634922 0
M  V30 8203 C 775.454 -2.07297 -1.07473 0
M  V30 8204 C 776.435 -0.968162 -1.39859 0
M  V30 8205 O 777.62 -1.24139 -1.49343 0
M  V30 8206 C 774.75 -2.52381 -2.38581 0
M  V30 8207 C 773.704 -3.66813 -2.20526 0
M  V30 8208 C 773.03 -3.97982 -3.57092 0
M  V30 8209 C 774.33 -4.96553 -1.61965 0
M  V30 8210 H 776.024 -2.92033 -0.660092 0
M  V30 8211 H 773.57 -1.40488 -0.316074 0
M  V30 8212 H 775.523 -2.85852 -3.09624 0
M  V30 8213 H 774.247 -1.64684 -2.8204 0
M  V30 8214 H 772.906 -3.33639 -1.51924 0
M  V30 8215 H 772.554 -3.07403 -3.98136 0
M  V30 8216 H 772.254 -4.7504 -3.45848 0
M  V30 8217 H 773.778 -4.33956 -4.29552 0
M  V30 8218 H 775.192 -5.28201 -2.22883 0
M  V30 8219 H 773.589 -5.7799 -1.61394 0
M  V30 8220 H 774.659 -4.81396 -0.581918 0
M  V30 8221 N 776.003 0.335068 -1.53997 0
M  V30 8222 C 776.966 1.39481 -1.81872 0
M  V30 8223 C 777.966 1.4524 -0.690078 0
M  V30 8224 O 779.156 1.45467 -0.958377 0
M  V30 8225 C 776.288 2.78329 -1.9684 0
M  V30 8226 H 777.481 1.16024 -2.76547 0
M  V30 8227 H 775.034 0.569926 -1.45539 0
M  V30 8228 H 775.769 3.07058 -1.04337 0
M  V30 8229 H 775.554 2.75544 -2.78958 0
M  V30 8230 H 777.044 3.55016 -2.19894 0
M  V30 8231 N 777.481 1.45874 0.596531 0
M  V30 8232 C 778.73 1.49737 1.35135 0
M  V30 8233 C 779.043 0.147755 1.95041 0
M  V30 8234 O 780.249 0.0640984 2.71424 0
M  V30 8235 C 778.705 2.6378 2.44843 0
M  V30 8236 C 778.313 4.05102 1.91301 0
M  V30 8237 C 780.057 2.769 3.21755 0
M  V30 8238 C 777.964 5.10508 2.98557 0
M  V30 8239 H 776.894 0.557219 0.507959 0
M  V30 8240 H 779.545 1.72046 0.638147 0
M  V30 8241 H 777.927 2.34774 3.189 0
M  V30 8242 H 779.101 4.43836 1.2388 0
M  V30 8243 H 777.416 3.96528 1.271 0
M  V30 8244 H 780.013 3.52819 4.01775 0
M  V30 8245 H 780.356 1.83924 3.73467 0
M  V30 8246 H 780.889 3.05485 2.54802 0
M  V30 8247 H 777.628 6.0523 2.51749 0
M  V30 8248 H 777.148 4.76332 3.6451 0
M  V30 8249 H 778.827 5.35745 3.62748 0
M  V30 8250 N 778.959 -0.83999 1.33349 0
M  V30 8251 C 779.922 -1.93128 1.23426 0
M  V30 8252 C 780.922 -1.60065 0.153599 0
M  V30 8253 O 782.112 -1.69425 0.405049 0
M  V30 8254 C 779.244 -3.28761 0.901622 0
M  V30 8255 H 780.437 -2.03352 2.20427 0
M  V30 8256 H 777.99 -1.03194 1.17391 0
M  V30 8257 H 778.725 -3.24233 -0.0659337 0
M  V30 8258 H 778.51 -3.54138 1.68311 0
M  V30 8259 H 780 -4.08714 0.856913 0
M  V30 8260 N 780.437 -1.16799 -1.0581 0
M  V30 8261 C 781.4 -0.881396 -2.11575 0
M  V30 8262 C 782.4 0.12574 -1.60308 0
M  V30 8263 O 783.59 -0.105716 -1.73879 0
M  V30 8264 C 780.722 -0.319037 -3.39404 0
M  V30 8265 H 781.915 -1.81907 -2.38432 0
M  V30 8266 H 779.468 -0.977597 -1.21954 0
M  V30 8267 H 780.203 0.626082 -3.18199 0
M  V30 8268 H 779.988 -1.04481 -3.77923 0
M  V30 8269 H 781.478 -0.13663 -4.17376 0
M  V30 8270 N 781.915 1.24427 -0.967243 0
M  V30 8271 C 783.163 1.92107 -0.627638 0
M  V30 8272 C 783.484 1.75991 0.83978 0
M  V30 8273 O 782.754 1.13118 1.59941 0
M  V30 8274 H 781.334 0.710986 -0.229145 0
M  V30 8275 H 783.996 1.51331 -1.22821 0
M  V30 8276 H 783.092 2.99791 -0.867844 0
M  V30 8277 N 783.393 0.737304 1.3929 0
M  V30 8278 C 784.325 0.0592106 2.29124 0
M  V30 8279 C 785.338 -0.701026 1.46934 0
M  V30 8280 O 786.527 -0.544808 1.69983 0
M  V30 8281 C 783.627 -0.940358 3.25592 0
M  V30 8282 C 782.8 -0.241163 4.36735 0
M  V30 8283 C 781.859 -1.14916 5.13498 0
M  V30 8284 O 780.885 -0.625783 5.6575 0
M  V30 8285 N 782.087 -2.47869 5.2492 0
M  V30 8286 H 784.852 0.830647 2.87959 0
M  V30 8287 H 782.413 0.586718 1.50895 0
M  V30 8288 H 784.405 -1.55046 3.73822 0
M  V30 8289 H 782.975 -1.61299 2.67771 0
M  V30 8290 H 782.195 0.549441 3.90352 0
M  V30 8291 H 783.483 0.243299 5.08218 0
M  V30 8292 H 782.881 -2.92864 4.83991 0
M  V30 8293 H 781.438 -3.03969 5.76581 0
M  V30 8294 N 784.871 -1.49948 0.485112 0
M  V30 8295 C 786.096 -2.073 -0.0645059 0
M  V30 8296 C 786.521 -1.345 -1.31497 0
M  V30 8297 O 785.879 -0.39687 -1.76903 0
M  V30 8298 C 785.927 -3.59201 -0.317304 0
M  V30 8299 O 785.031 -3.88085 -1.39514 0
M  V30 8300 H 784.372 -0.663723 0.0191822 0
M  V30 8301 H 786.902 -1.92963 0.680179 0
M  V30 8302 H 786.912 -4.04227 -0.553604 0
M  V30 8303 H 785.587 -4.11602 0.596387 0
M  V30 8304 H 784.164 -3.54885 -1.14504 0
M  V30 8305 N 786.349 -0.21828 -1.56081 0
M  V30 8306 C 787.595 0.414921 -1.9851 0
M  V30 8307 C 787.928 1.59648 -1.10573 0
M  V30 8308 O 787.203 1.93818 -0.162695 0
M  V30 8309 C 787.486 0.852647 -3.4986 0
M  V30 8310 C 787.339 -0.33232 -4.48571 0
M  V30 8311 C 788.658 1.70998 -4.05521 0
M  V30 8312 H 785.777 0.149344 -0.72171 0
M  V30 8313 H 788.419 -0.313858 -1.8739 0
M  V30 8314 H 786.569 1.47362 -3.59467 0
M  V30 8315 H 788.241 -0.970418 -4.50977 0
M  V30 8316 H 786.484 -0.980302 -4.22578 0
M  V30 8317 H 787.155 0.0168407 -5.51997 0
M  V30 8318 H 789.631 1.18606 -3.98838 0
M  V30 8319 H 788.507 1.98517 -5.11744 0
M  V30 8320 H 788.768 2.67219 -3.52202 0
M  V30 8321 N 787.827 1.57504 0.0551401 0
M  V30 8322 C 789.073 1.88334 0.752216 0
M  V30 8323 C 789.406 0.812742 1.76375 0
M  V30 8324 O 788.681 -0.175198 1.93709 0
M  V30 8325 C 788.964 3.29824 1.44528 0
M  V30 8326 C 788.817 4.47553 0.449026 0
M  V30 8327 C 790.136 3.69808 2.38601 0
M  V30 8328 H 787.255 0.684973 0.271995 0
M  V30 8329 H 789.897 1.89994 0.0151895 0
M  V30 8330 H 788.047 3.28539 2.07351 0
M  V30 8331 H 789.719 4.60967 -0.175277 0
M  V30 8332 H 787.962 4.33168 -0.234162 0
M  V30 8333 H 788.633 5.43376 0.971917 0
M  V30 8334 H 791.109 3.72293 1.85842 0
M  V30 8335 H 789.985 4.69665 2.84088 0
M  V30 8336 H 790.246 3.00641 3.24141 0
M  V30 8337 N 789.305 -0.326896 1.54172 0
M  V30 8338 C 790.53 -1.08924 1.76494 0
M  V30 8339 C 790.955 -1.81039 0.510523 0
M  V30 8340 O 790.313 -1.73141 -0.537756 0
M  V30 8341 C 790.361 -2.06558 2.95578 0
M  V30 8342 O 789.465 -3.14394 2.6689 0
M  V30 8343 H 788.806 -0.314216 0.584948 0
M  V30 8344 H 791.336 -0.372207 2.01186 0
M  V30 8345 H 791.346 -2.49487 3.22832 0
M  V30 8346 H 790.021 -1.53469 3.86549 0
M  V30 8347 H 788.598 -2.76164 2.50576 0
M  V30 8348 N 790.784 -1.46188 -0.588786 0
M  V30 8349 C 792.03 -1.51407 -1.34921 0
M  V30 8350 C 792.363 -0.162771 -1.93517 0
M  V30 8351 O 791.638 0.825082 -1.76132 0
M  V30 8352 C 791.921 -2.60795 -2.48311 0
M  V30 8353 C 791.774 -4.05435 -1.94789 0
M  V30 8354 C 793.093 -2.66313 -3.50379 0
M  V30 8355 H 790.212 -0.551213 -0.489217 0
M  V30 8356 H 792.854 -1.78095 -0.661993 0
M  V30 8357 H 791.004 -2.3817 -3.06932 0
M  V30 8358 H 792.676 -4.39328 -1.40672 0
M  V30 8359 H 790.919 -4.15202 -1.25659 0
M  V30 8360 H 791.59 -4.77691 -2.76613 0
M  V30 8361 H 794.066 -2.86634 -3.01629 0
M  V30 8362 H 792.942 -3.44681 -4.27184 0
M  V30 8363 H 793.203 -1.72127 -4.07216 0
M  V30 8364 N 792.262 0.832906 -1.33792 0
M  V30 8365 C 793.225 1.92471 -1.24449 0
M  V30 8366 C 794.225 1.59981 -0.162085 0
M  V30 8367 O 795.415 1.69208 -0.414029 0
M  V30 8368 C 792.547 3.28278 -0.919044 0
M  V30 8369 H 793.74 2.0218 -2.21502 0
M  V30 8370 H 791.293 1.0257 -1.17936 0
M  V30 8371 H 792.028 3.24263 0.048738 0
M  V30 8372 H 791.813 3.53241 -1.70187 0
M  V30 8373 H 793.303 4.08253 -0.878576 0
M  V30 8374 N 793.74 1.17359 1.05189 0
M  V30 8375 C 794.968 0.986529 1.81866 0
M  V30 8376 C 795.383 -0.46522 1.82979 0
M  V30 8377 O 794.74 -1.32305 1.25705 0
M  V30 8378 C 794.791 1.52021 3.27982 0
M  V30 8379 O 794.512 2.91511 3.27037 0
M  V30 8380 C 796.013 1.37774 4.21347 0
M  V30 8381 H 793.233 0.349021 0.573084 0
M  V30 8382 H 795.777 1.55648 1.32643 0
M  V30 8383 H 793.932 0.992287 3.74476 0
M  V30 8384 H 794.346 3.16178 4.18488 0
M  V30 8385 H 795.82 1.7993 5.21852 0
M  V30 8386 H 796.297 0.32483 4.37997 0
M  V30 8387 H 796.903 1.89583 3.80708 0
M  V30 8388 N 795.218 -1.23913 0.973828 0
M  V30 8389 C 796.148 -2.27453 0.527969 0
M  V30 8390 C 797.129 -1.6443 -0.435513 0
M  V30 8391 O 798.314 -1.9137 -0.330306 0
M  V30 8392 C 795.444 -3.4685 -0.176757 0
M  V30 8393 C 794.398 -4.22181 0.703352 0
M  V30 8394 C 793.724 -5.34534 -0.133215 0
M  V30 8395 C 795.024 -4.82865 1.99096 0
M  V30 8396 H 796.718 -2.65 1.3934 0
M  V30 8397 H 794.264 -1.27388 0.671446 0
M  V30 8398 H 796.217 -4.18424 -0.499934 0
M  V30 8399 H 794.941 -3.08346 -1.07659 0
M  V30 8400 H 793.6 -3.52416 1.00989 0
M  V30 8401 H 793.248 -4.92271 -1.03338 0
M  V30 8402 H 792.948 -5.85855 0.452494 0
M  V30 8403 H 794.472 -6.08933 -0.450924 0
M  V30 8404 H 795.886 -5.46481 1.73297 0
M  V30 8405 H 794.283 -5.44444 2.52389 0
M  V30 8406 H 795.353 -4.03977 2.68199 0
M  V30 8407 N 796.696 -0.74468 -1.38897 0
M  V30 8408 C 797.626 -0.126355 -2.33158 0
M  V30 8409 C 798.607 0.713517 -1.54412 0
M  V30 8410 O 799.792 0.656523 -1.82766 0
M  V30 8411 C 796.922 0.774375 -3.38557 0
M  V30 8412 C 795.876 0.0379214 -4.27983 0
M  V30 8413 C 795.202 1.05631 -5.24162 0
M  V30 8414 C 796.502 -1.12523 -5.10035 0
M  V30 8415 H 798.196 -0.913744 -2.85116 0
M  V30 8416 H 795.742 -0.440847 -1.37086 0
M  V30 8417 H 797.695 1.21655 -4.03458 0
M  V30 8418 H 796.419 1.59399 -2.85061 0
M  V30 8419 H 795.078 -0.384733 -3.64576 0
M  V30 8420 H 794.726 1.86975 -4.66958 0
M  V30 8421 H 794.426 0.568261 -5.84846 0
M  V30 8422 H 795.95 1.49799 -5.9194 0
M  V30 8423 H 797.364 -0.761037 -5.68226 0
M  V30 8424 H 795.761 -1.54355 -5.79909 0
M  V30 8425 H 796.831 -1.94237 -4.44297 0
M  V30 8426 N 798.174 1.49689 -0.493057 0
M  V30 8427 C 799.107 2.25712 0.336062 0
M  V30 8428 C 800.085 1.29953 0.977294 0
M  V30 8429 O 801.269 1.59225 1.00895 0
M  V30 8430 C 798.396 3.0501 1.47263 0
M  V30 8431 C 797.442 4.15863 0.946575 0
M  V30 8432 S 798.275 5.35272 -0.156323 0
M  V30 8433 C 799.431 6.18123 0.983601 0
M  V30 8434 H 799.664 2.95688 -0.309215 0
M  V30 8435 H 797.197 1.51872 -0.278238 0
M  V30 8436 H 799.155 3.51284 2.12391 0
M  V30 8437 H 797.816 2.34519 2.08949 0
M  V30 8438 H 797.009 4.70834 1.7981 0
M  V30 8439 H 796.611 3.72139 0.372647 0
M  V30 8440 H 798.903 6.50588 1.89056 0
M  V30 8441 H 799.846 7.06521 0.472687 0
M  V30 8442 H 800.254 5.50547 1.24735 0
M  V30 8443 N 799.652 0.226554 1.55963 0
M  V30 8444 C 800.88 -0.408507 2.02827 0
M  V30 8445 C 801.295 -1.52994 1.10627 0
M  V30 8446 O 800.652 -1.82126 0.116809 0
M  V30 8447 C 800.703 -0.93545 3.49187 0
M  V30 8448 O 800.424 0.141273 4.37872 0
M  V30 8449 C 801.925 -1.64325 4.11719 0
M  V30 8450 H 799.145 -0.099442 0.66359 0
M  V30 8451 H 801.689 0.344471 2.01578 0
M  V30 8452 H 799.844 -1.63868 3.51036 0
M  V30 8453 H 800.258 -0.25558 5.23877 0
M  V30 8454 H 801.732 -1.9639 5.15883 0
M  V30 8455 H 802.209 -2.55815 3.57009 0
M  V30 8456 H 802.815 -0.9851 4.13734 0
M  V30 8457 N 801.13 -1.57531 -0.0467866 0
M  V30 8458 C 802.379 -1.87632 -0.740069 0
M  V30 8459 C 802.692 -0.822691 -1.77457 0
M  V30 8460 O 803.898 -1.01235 -2.5192 0
M  V30 8461 C 802.354 -3.32917 -1.36727 0
M  V30 8462 C 801.962 -4.46469 -0.370035 0
M  V30 8463 C 803.706 -3.72189 -2.04146 0
M  V30 8464 C 801.613 -5.82806 -1.00457 0
M  V30 8465 H 800.543 -0.70002 -0.280158 0
M  V30 8466 H 803.194 -1.83499 0.00607151 0
M  V30 8467 H 801.576 -3.31739 -2.16252 0
M  V30 8468 H 802.75 -4.59085 0.397217 0
M  V30 8469 H 801.065 -4.15914 0.201079 0
M  V30 8470 H 803.662 -4.71357 -2.52441 0
M  V30 8471 H 804.005 -3.03268 -2.85192 0
M  V30 8472 H 804.538 -3.75465 -1.3142 0
M  V30 8473 H 801.277 -6.55083 -0.233907 0
M  V30 8474 H 800.797 -5.73944 -1.74209 0
M  V30 8475 H 802.476 -6.28961 -1.51713 0
M  V30 8476 N 802.608 0.318715 -1.54344 0
M  V30 8477 C 803.848 1.06425 -1.74508 0
M  V30 8478 C 804.212 1.85087 -0.510572 0
M  V30 8479 O 805.413 2.62253 -0.589647 0
M  V30 8480 C 803.684 1.96054 -2.98827 0
M  V30 8481 S 805.243 2.77493 -3.39916 0
M  V30 8482 H 802.061 0.35921 -0.613587 0
M  V30 8483 H 804.663 0.339679 -1.92526 0
M  V30 8484 H 803.367 1.37109 -3.8682 0
M  V30 8485 H 802.898 2.72908 -2.83346 0
M  V30 8486 H 804.913 3.98544 -2.95596 0
M  V30 8487 N 804.086 1.46499 0.581025 0
M  V30 8488 C 805.333 1.51896 1.33918 0
M  V30 8489 C 805.661 0.171361 1.93744 0
M  V30 8490 O 804.916 -0.833178 1.77078 0
M  V30 8491 C 805.215 2.56686 2.48691 0
M  V30 8492 C 804.881 4.00656 2.06847 0
M  V30 8493 C 803.543 4.39852 1.9515 0
M  V30 8494 C 805.895 4.91089 1.74589 0
M  V30 8495 C 803.223 5.67345 1.49456 0
M  V30 8496 C 805.575 6.1902 1.30373 0
M  V30 8497 C 804.239 6.57121 1.17255 0
M  V30 8498 H 803.509 0.555826 0.490039 0
M  V30 8499 H 806.156 1.79983 0.654092 0
M  V30 8500 H 804.461 2.22266 3.22653 0
M  V30 8501 H 806.158 2.58091 3.06904 0
M  V30 8502 H 802.748 3.69674 2.16886 0
M  V30 8503 H 806.932 4.61523 1.8251 0
M  V30 8504 H 802.188 5.95635 1.37944 0
M  V30 8505 H 806.362 6.8852 1.04467 0
M  V30 8506 H 803.989 7.55805 0.816236 0
M  V30 8507 N 805.565 -0.825799 1.34232 0
M  V30 8508 C 806.811 -1.58419 1.26614 0
M  V30 8509 C 807.144 -1.93503 -0.164341 0
M  V30 8510 O 806.419 -1.59785 -1.109 0
M  V30 8511 C 806.702 -2.8856 2.15418 0
M  V30 8512 C 806.555 -2.60075 3.66989 0
M  V30 8513 C 807.874 -3.90107 2.03726 0
M  V30 8514 H 804.993 -0.574794 0.461282 0
M  V30 8515 H 807.635 -0.951519 1.64457 0
M  V30 8516 H 805.785 -3.42553 1.83275 0
M  V30 8517 H 807.457 -2.12414 4.09485 0
M  V30 8518 H 805.7 -1.93565 3.88221 0
M  V30 8519 H 806.371 -3.52866 4.24488 0
M  V30 8520 H 808.847 -3.45459 2.31942 0
M  V30 8521 H 807.723 -4.78976 2.68092 0
M  V30 8522 H 807.984 -4.30329 1.01337 0
M  V30 8523 N 807.043 -1.17915 -1.04565 0
M  V30 8524 C 808.29 -0.971424 -1.77678 0
M  V30 8525 C 808.618 0.499401 -1.87979 0
M  V30 8526 O 807.873 1.38695 -1.38066 0
M  V30 8527 C 808.172 -1.56528 -3.213 0
M  V30 8528 C 807.838 -3.06138 -3.31044 0
M  V30 8529 C 806.5 -3.46974 -3.33411 0
M  V30 8530 C 808.852 -4.02151 -3.31548 0
M  V30 8531 C 806.18 -4.82406 -3.33918 0
M  V30 8532 C 808.532 -5.37492 -3.33595 0
M  V30 8533 C 807.196 -5.77782 -3.34251 0
M  V30 8534 H 806.466 -0.355469 -0.650171 0
M  V30 8535 H 809.113 -1.46902 -1.22849 0
M  V30 8536 H 807.418 -0.98955 -3.79098 0
M  V30 8537 H 809.115 -1.38003 -3.76505 0
M  V30 8538 H 805.705 -2.73589 -3.29919 0
M  V30 8539 H 809.889 -3.71656 -3.28916 0
M  V30 8540 H 805.145 -5.12927 -3.3274 0
M  V30 8541 H 809.319 -6.1166 -3.32934 0
M  V30 8542 H 806.946 -6.82702 -3.34397 0
M  V30 8543 N 808.521 1.23394 -0.980386 0
M  V30 8544 C 809.454 2.23404 -0.465404 0
M  V30 8545 C 810.432 1.55735 0.467471 0
M  V30 8546 O 811.616 1.84295 0.395921 0
M  V30 8547 C 808.743 3.3712 0.32672 0
M  V30 8548 C 807.789 4.22935 -0.550296 0
M  V30 8549 S 808.622 4.96824 -1.99814 0
M  V30 8550 C 809.778 6.13991 -1.21516 0
M  V30 8551 H 810.011 2.6674 -1.31289 0
M  V30 8552 H 807.544 1.32874 -0.78638 0
M  V30 8553 H 809.502 4.03065 0.777738 0
M  V30 8554 H 808.163 2.92317 1.14933 0
M  V30 8555 H 807.356 5.03966 0.0585298 0
M  V30 8556 H 806.958 3.62058 -0.937558 0
M  V30 8557 H 809.25 6.75822 -0.476476 0
M  V30 8558 H 810.193 6.7926 -2.0003 0
M  V30 8559 H 810.601 5.59708 -0.733949 0
M  V30 8560 N 809.999 0.752036 1.385 0
M  V30 8561 C 810.932 0.0717411 2.28087 0
M  V30 8562 C 811.91 -0.729945 1.45295 0
M  V30 8563 O 813.094 -0.708902 1.74662 0
M  V30 8564 C 810.221 -0.905237 3.26379 0
M  V30 8565 C 809.267 -0.189973 4.26077 0
M  V30 8566 S 810.1 1.10815 5.23909 0
M  V30 8567 C 811.256 0.134202 6.25756 0
M  V30 8568 H 811.489 0.831438 2.85437 0
M  V30 8569 H 809.022 0.544552 1.44478 0
M  V30 8570 H 810.98 -1.46358 3.83523 0
M  V30 8571 H 809.641 -1.63789 2.68015 0
M  V30 8572 H 808.834 -0.92985 4.95348 0
M  V30 8573 H 808.436 0.296804 3.7282 0
M  V30 8574 H 810.728 -0.700345 6.7387 0
M  V30 8575 H 811.671 0.794532 7.03628 0
M  V30 8576 H 812.079 -0.245801 5.63965 0
M  V30 8577 N 811.477 -1.49425 0.500989 0
M  V30 8578 C 812.726 -2.01649 -0.04538 0
M  V30 8579 C 813.039 -1.38572 -1.38047 0
M  V30 8580 O 814.245 -1.82124 -2.01353 0
M  V30 8581 C 812.701 -3.5966 -0.131337 0
M  V30 8582 C 812.309 -4.3171 1.19711 0
M  V30 8583 C 814.053 -4.19828 -0.628071 0
M  V30 8584 C 811.96 -5.81579 1.07332 0
M  V30 8585 H 810.89 -0.753715 -0.0207329 0
M  V30 8586 H 813.541 -1.71962 0.640407 0
M  V30 8587 H 811.923 -3.86063 -0.881574 0
M  V30 8588 H 813.097 -4.17008 1.96064 0
M  V30 8589 H 811.412 -3.83286 1.62729 0
M  V30 8590 H 814.009 -5.2958 -0.738198 0
M  V30 8591 H 814.352 -3.83194 -1.6269 0
M  V30 8592 H 814.885 -3.97746 0.0656314 0
M  V30 8593 H 811.624 -6.22738 2.04642 0
M  V30 8594 H 811.144 -5.98774 0.350679 0
M  V30 8595 H 812.823 -6.42614 0.752047 0
M  V30 8596 N 812.955 -0.234822 -1.55841 0
M  V30 8597 C 814.202 0.39326 -1.98645 0
M  V30 8598 C 814.53 1.58823 -1.12274 0
M  V30 8599 O 813.785 1.94954 -0.170731 0
M  V30 8600 C 814.084 0.858032 -3.46947 0
M  V30 8601 C 813.75 -0.227858 -4.50324 0
M  V30 8602 C 812.412 -0.526128 -4.78315 0
M  V30 8603 C 814.764 -0.961576 -5.12253 0
M  V30 8604 C 812.092 -1.5624 -5.65514 0
M  V30 8605 C 814.444 -1.98728 -6.00575 0
M  V30 8606 C 813.108 -2.29233 -6.26904 0
M  V30 8607 H 812.378 0.143904 -0.726892 0
M  V30 8608 H 815.025 -0.34012 -1.88455 0
M  V30 8609 H 813.33 1.67041 -3.54408 0
M  V30 8610 H 815.027 1.35407 -3.77447 0
M  V30 8611 H 811.617 0.0147624 -4.28597 0
M  V30 8612 H 815.801 -0.744388 -4.90686 0
M  V30 8613 H 811.057 -1.80422 -5.84173 0
M  V30 8614 H 815.231 -2.5608 -6.47608 0
M  V30 8615 H 812.858 -3.09671 -6.94268 0
M  V30 8616 N 814.433 1.57553 0.0384317 0
M  V30 8617 C 815.658 1.93485 0.746872 0
M  V30 8618 C 816.083 0.834069 1.68597 0
M  V30 8619 O 815.441 -0.210902 1.80069 0
M  V30 8620 C 815.489 3.28463 1.4881 0
M  V30 8621 O 814.593 3.20051 2.60079 0
M  V30 8622 H 813.934 0.632675 0.201539 0
M  V30 8623 H 816.464 2.046 -0.00329815 0
M  V30 8624 H 816.474 3.63132 1.86009 0
M  V30 8625 H 815.149 4.08147 0.799297 0
M  V30 8626 H 813.726 2.96998 2.25492 0
M  V30 8627 N 815.911 -0.310526 1.54511 0
M  V30 8628 C 817.159 -1.04484 1.72996 0
M  V30 8629 C 817.48 -1.88118 0.513479 0
M  V30 8630 O 816.75 -1.90119 -0.472384 0
M  V30 8631 H 815.33 -0.388747 0.637875 0
M  V30 8632 H 817.992 -0.343811 1.91844 0
M  V30 8633 H 817.088 -1.70341 2.61515 0
M  V30 8634 N 817.389 -1.46805 -0.573248 0
M  V30 8635 C 818.319 -1.60951 -1.69165 0
M  V30 8636 C 819.3 -0.45948 -1.63777 0
M  V30 8637 O 820.485 -0.68688 -1.81647 0
M  V30 8638 C 817.615 -1.60844 -3.07809 0
M  V30 8639 C 816.569 -2.74913 -3.28035 0
M  V30 8640 C 815.895 -2.59871 -4.67302 0
M  V30 8641 C 817.195 -4.16654 -3.14955 0
M  V30 8642 H 818.889 -2.54574 -1.57582 0
M  V30 8643 H 816.435 -1.22516 -0.756686 0
M  V30 8644 H 818.388 -1.69334 -3.85881 0
M  V30 8645 H 817.112 -0.637714 -3.20314 0
M  V30 8646 H 815.771 -2.65908 -2.52366 0
M  V30 8647 H 815.419 -1.60861 -4.76585 0
M  V30 8648 H 815.119 -3.36386 -4.81786 0
M  V30 8649 H 816.643 -2.70265 -5.4753 0
M  V30 8650 H 818.057 -4.26721 -3.82861 0
M  V30 8651 H 816.454 -4.93831 -3.40956 0
M  V30 8652 H 817.524 -4.36146 -2.11908 0
M  V30 8653 N 818.867 0.818669 -1.34668 0
M  V30 8654 C 819.797 1.94468 -1.29245 0
M  V30 8655 C 820.778 1.69257 -0.169101 0
M  V30 8656 O 821.963 1.90794 -0.362143 0
M  V30 8657 C 819.093 3.31001 -1.05145 0
M  V30 8658 C 818.047 3.70663 -2.13992 0
M  V30 8659 C 817.373 5.05226 -1.75074 0
M  V30 8660 C 818.673 3.82312 -3.55858 0
M  V30 8661 H 820.367 1.99263 -2.2346 0
M  V30 8662 H 817.913 0.957304 -1.07572 0
M  V30 8663 H 819.866 4.09364 -0.999949 0
M  V30 8664 H 818.59 3.26517 -0.0737312 0
M  V30 8665 H 817.249 2.94578 -2.18219 0
M  V30 8666 H 816.897 4.97233 -0.759518 0
M  V30 8667 H 816.597 5.32734 -2.47928 0
M  V30 8668 H 818.121 5.86042 -1.71427 0
M  V30 8669 H 819.535 4.50935 -3.5402 0
M  V30 8670 H 817.932 4.21278 -4.2737 0
M  V30 8671 H 819.002 2.84193 -3.9289 0
M  V30 8672 N 820.346 1.18468 1.03938 0
M  V30 8673 C 821.592 0.982286 1.77423 0
M  V30 8674 C 821.925 -0.48679 1.88 0
M  V30 8675 O 821.2 -1.36146 1.38905 0
M  V30 8676 C 821.483 1.63929 3.20623 0
M  V30 8677 C 821.336 3.18132 3.17982 0
M  V30 8678 C 822.655 1.3536 4.18767 0
M  V30 8679 H 819.774 0.358264 0.644062 0
M  V30 8680 H 822.416 1.46154 1.21405 0
M  V30 8681 H 820.566 1.2318 3.68455 0
M  V30 8682 H 822.238 3.68024 2.78129 0
M  V30 8683 H 820.481 3.50225 2.55978 0
M  V30 8684 H 821.152 3.5924 4.19107 0
M  V30 8685 H 823.628 1.70669 3.79488 0
M  V30 8686 H 822.504 1.83896 5.17178 0
M  V30 8687 H 822.765 0.276722 4.41233 0
M  V30 8688 N 821.824 -1.22873 0.986916 0
M  V30 8689 C 822.772 -2.26597 0.525043 0
M  V30 8690 C 823.766 -1.64079 -0.421252 0
M  V30 8691 O 824.972 -1.77576 -0.294429 0
M  V30 8692 H 821.347 -0.736606 0.151381 0
M  V30 8693 H 823.318 -2.62909 1.41142 0
M  V30 8694 C 822.067 -3.47374 -0.150542 0
M  V30 8695 H 821.39 -3.95737 0.568541 0
M  V30 8696 H 822.83 -4.21739 -0.437256 0
M  V30 8697 C 821.289 -3.07163 -1.38392 0
M  V30 8698 O 821.819 -3.16028 -2.47971 0
M  V30 8699 N 820.025 -2.62009 -1.25697 0
M  V30 8700 H 819.572 -2.54996 -0.365355 0
M  V30 8701 H 819.53 -2.35472 -2.08327 0
M  V30 8702 N 823.302 -0.75937 -1.38099 0
M  V30 8703 C 824.232 -0.151077 -2.33011 0
M  V30 8704 C 825.213 0.697099 -1.5516 0
M  V30 8705 O 826.398 0.637101 -1.83452 0
M  V30 8706 C 823.528 0.738423 -3.39359 0
M  V30 8707 C 822.482 -0.0074741 -4.27999 0
M  V30 8708 C 821.808 1.00066 -5.25253 0
M  V30 8709 C 823.108 -1.17926 -5.08813 0
M  V30 8710 H 824.802 -0.943933 -2.84131 0
M  V30 8711 H 822.348 -0.455362 -1.36611 0
M  V30 8712 H 824.301 1.17369 -4.04725 0
M  V30 8713 H 823.025 1.56366 -2.86735 0
M  V30 8714 H 821.684 -0.423379 -3.64147 0
M  V30 8715 H 821.332 1.82012 -4.68914 0
M  V30 8716 H 821.032 0.506199 -5.85416 0
M  V30 8717 H 822.556 1.43512 -5.93495 0
M  V30 8718 H 823.97 -0.821262 -5.67387 0
M  V30 8719 H 822.367 -1.60497 -5.78239 0
M  V30 8720 H 823.437 -1.98938 -4.42212 0
M  V30 8721 N 824.78 1.49157 -0.508906 0
M  V30 8722 C 826.008 2.06879 0.0293734 0
M  V30 8723 C 826.423 1.36823 1.30095 0
M  V30 8724 O 825.78 0.449034 1.7689 0
M  V30 8725 C 825.831 3.60423 0.278791 0
M  V30 8726 O 825.552 4.27844 -0.942389 0
M  V30 8727 C 827.053 4.34881 0.859825 0
M  V30 8728 H 824.273 0.67057 -0.0240184 0
M  V30 8729 H 826.817 1.91834 -0.708526 0
M  V30 8730 H 824.972 3.75145 0.966689 0
M  V30 8731 H 825.386 5.19671 -0.710097 0
M  V30 8732 H 826.86 5.43161 0.983884 0
M  V30 8733 H 827.337 3.9789 1.85958 0
M  V30 8734 H 827.943 4.24785 0.209152 0
M  V30 8735 N 826.258 0.243083 1.55714 0
M  V30 8736 C 827.486 -0.386971 2.03249 0
M  V30 8737 C 827.901 -1.51812 1.12243 0
M  V30 8738 O 827.258 -1.81992 0.136119 0
M  V30 8739 C 827.309 -0.898361 3.5016 0
M  V30 8740 O 827.03 0.187708 4.37698 0
M  V30 8741 C 828.531 -1.59949 4.13438 0
M  V30 8742 H 825.751 -0.0923981 0.664608 0
M  V30 8743 H 828.295 0.365832 2.01201 0
M  V30 8744 H 826.45 -1.60136 3.52754 0
M  V30 8745 H 826.864 -0.200001 5.24119 0
M  V30 8746 H 828.338 -1.90907 5.17937 0
M  V30 8747 H 828.815 -2.52014 3.59702 0
M  V30 8748 H 829.421 -0.941163 4.14756 0
M  V30 8749 N 827.736 -1.57571 -0.0300757 0
M  V30 8750 C 828.985 -1.88407 -0.720126 0
M  V30 8751 C 829.298 -0.841466 -1.76575 0
M  V30 8752 O 830.504 -1.03902 -2.50832 0
M  V30 8753 C 828.96 -3.34348 -1.33188 0
M  V30 8754 C 828.568 -4.46837 -0.32266 0
M  V30 8755 C 830.312 -3.74333 -2.00187 0
M  V30 8756 C 828.219 -5.83838 -0.942703 0
M  V30 8757 H 827.149 -0.702952 -0.272718 0
M  V30 8758 H 829.8 -1.83482 0.0255337 0
M  V30 8759 H 828.182 -3.34014 -2.12721 0
M  V30 8760 H 829.356 -4.58638 0.445887 0
M  V30 8761 H 827.671 -4.15678 0.245181 0
M  V30 8762 H 830.268 -4.74008 -2.47428 0
M  V30 8763 H 830.611 -3.06275 -2.81959 0
M  V30 8764 H 831.144 -3.76837 -1.2743 0
M  V30 8765 H 827.883 -6.55294 -0.164413 0
M  V30 8766 H 827.403 -5.75759 -1.68111 0
M  V30 8767 H 829.082 -6.30535 -1.45034 0
M  V30 8768 N 829.214 0.302327 -1.54673 0
M  V30 8769 C 830.177 1.35592 -1.8479 0
M  V30 8770 C 831.177 1.43743 -0.72073 0
M  V30 8771 O 832.367 1.43402 -0.989017 0
M  V30 8772 C 829.499 2.74091 -2.02699 0
M  V30 8773 H 830.692 1.10132 -2.78946 0
M  V30 8774 H 828.245 0.538926 -1.46715 0
M  V30 8775 H 828.98 3.04775 -1.10826 0
M  V30 8776 H 828.765 2.69565 -2.8474 0
M  V30 8777 H 830.255 3.50272 -2.27374 0
M  V30 8778 N 830.692 1.47107 0.565454 0
M  V30 8779 C 831.917 1.57153 1.35343 0
M  V30 8780 C 832.342 0.219247 1.86818 0
M  V30 8781 O 831.7 -0.803539 1.62521 0
M  V30 8782 C 831.748 2.59387 2.50501 0
M  V30 8783 O 830.852 2.14086 3.52478 0
M  V30 8784 H 830.193 0.528209 0.402357 0
M  V30 8785 H 832.723 1.92821 0.684189 0
M  V30 8786 H 832.733 2.79546 2.97184 0
M  V30 8787 H 831.408 3.57579 2.12391 0
M  V30 8788 H 829.985 2.03991 3.12157 0
M  V30 8789 N 832.17 -0.811516 1.35101 0
M  V30 8790 C 833.416 -1.57016 1.29296 0
M  V30 8791 C 833.771 -1.91941 -0.13288 0
M  V30 8792 O 833.064 -1.58121 -1.08204 0
M  V30 8793 C 833.258 -2.87121 2.1283 0
M  V30 8794 C 833.087 -2.64908 3.63392 0
M  V30 8795 C 831.857 -2.61055 4.32641 0
M  V30 8796 C 834.055 -2.35628 4.57148 0
M  V30 8797 N 832.037 -2.30508 5.68981 0
M  V30 8798 C 833.408 -2.14876 5.81574 0
M  V30 8799 C 835.463 -2.2145 4.45942 0
M  V30 8800 C 834.166 -1.81381 6.96055 0
M  V30 8801 C 836.192 -1.89352 5.60267 0
M  V30 8802 C 835.554 -1.69432 6.83719 0
M  V30 8803 H 831.653 -0.57649 0.528378 0
M  V30 8804 H 834.237 -0.950338 1.69931 0
M  V30 8805 H 832.408 -3.47007 1.74473 0
M  V30 8806 H 834.14 -3.52629 1.98582 0
M  V30 8807 H 830.895 -2.75531 3.85201 0
M  V30 8808 H 831.319 -2.18042 6.40927 0
M  V30 8809 H 835.961 -2.35551 3.51106 0
M  V30 8810 H 833.679 -1.66018 7.90863 0
M  V30 8811 H 837.265 -1.79098 5.53548 0
M  V30 8812 H 836.145 -1.44957 7.70686 0
M  V30 8813 N 833.648 -1.19017 -1.03309 0
M  V30 8814 C 834.578 -0.94772 -2.13402 0
M  V30 8815 C 835.559 0.117383 -1.69694 0
M  V30 8816 O 836.744 -0.0367733 -1.94165 0
M  V30 8817 C 833.874 -0.480977 -3.43953 0
M  V30 8818 C 832.828 -1.48743 -4.01322 0
M  V30 8819 C 832.154 -0.877924 -5.27443 0
M  V30 8820 C 833.454 -2.86642 -4.36616 0
M  V30 8821 H 835.148 -1.86846 -2.33942 0
M  V30 8822 H 832.694 -0.899781 -1.12427 0
M  V30 8823 H 834.647 -0.298677 -4.2034 0
M  V30 8824 H 833.371 0.475348 -3.23122 0
M  V30 8825 H 832.03 -1.65681 -3.27025 0
M  V30 8826 H 831.678 0.0858232 -5.02927 0
M  V30 8827 H 831.378 -1.54996 -5.66789 0
M  V30 8828 H 832.902 -0.706326 -6.06501 0
M  V30 8829 H 834.316 -2.73312 -5.03958 0
M  V30 8830 H 832.713 -3.50599 -4.87032 0
M  V30 8831 H 833.783 -3.39617 -3.46105 0
M  V30 8832 N 835.127 1.22348 -0.993418 0
M  V30 8833 C 836.352 1.95666 -0.687727 0
M  V30 8834 C 836.777 1.72883 0.741161 0
M  V30 8835 O 836.135 1.00837 1.50671 0
M  V30 8836 C 836.183 3.46457 -0.99998 0
M  V30 8837 O 835.287 4.12281 -0.0989386 0
M  V30 8838 H 834.628 0.612102 -0.257346 0
M  V30 8839 H 837.158 1.55428 -1.33054 0
M  V30 8840 H 837.168 3.96976 -0.942035 0
M  V30 8841 H 835.843 3.62365 -2.04118 0
M  V30 8842 H 834.42 3.72295 -0.212413 0
M  V30 8843 N 836.605 0.766683 1.37694 0
M  V30 8844 C 837.851 0.338201 2.00569 0
M  V30 8845 C 838.206 -1.07196 1.59771 0
M  V30 8846 O 837.499 -1.72622 0.831402 0
M  V30 8847 C 837.693 0.413831 3.54996 0
M  V30 8848 C 837.522 1.8298 4.1079 0
M  V30 8849 C 836.292 2.44932 4.41969 0
M  V30 8850 C 838.49 2.78852 4.32141 0
M  V30 8851 N 836.472 3.78353 4.83448 0
M  V30 8852 C 837.843 3.97063 4.76174 0
M  V30 8853 C 839.898 2.76205 4.14265 0
M  V30 8854 C 838.601 5.13003 5.04203 0
M  V30 8855 C 840.627 3.91314 4.43427 0
M  V30 8856 C 839.989 5.08265 4.87694 0
M  V30 8857 H 836.088 0.170693 0.763143 0
M  V30 8858 H 838.672 0.999435 1.67091 0
M  V30 8859 H 836.843 -0.217198 3.87792 0
M  V30 8860 H 838.575 -0.036222 4.04684 0
M  V30 8861 H 835.33 1.9659 4.3087 0
M  V30 8862 H 835.754 4.46937 5.08504 0
M  V30 8863 H 840.396 1.86962 3.79216 0
M  V30 8864 H 838.114 6.0285 5.38142 0
M  V30 8865 H 841.7 3.906 4.31187 0
M  V30 8866 H 840.58 5.95858 5.09827 0
M  V30 8867 N 838.083 -1.48885 0.516809 0
M  V30 8868 C 839.013 -2.32241 -0.242157 0
M  V30 8869 C 839.994 -1.41258 -0.947633 0
M  V30 8870 O 841.179 -1.70156 -0.935973 0
M  V30 8871 C 838.309 -3.22151 -1.29754 0
M  V30 8872 C 837.263 -4.22053 -0.710995 0
M  V30 8873 C 836.589 -5.01007 -1.86806 0
M  V30 8874 C 837.889 -5.21388 0.30853 0
M  V30 8875 H 839.583 -2.95943 0.453651 0
M  V30 8876 H 837.129 -1.42316 0.219612 0
M  V30 8877 H 839.082 -3.79284 -1.83634 0
M  V30 8878 H 837.806 -2.56423 -2.02274 0
M  V30 8879 H 836.465 -3.66087 -0.193819 0
M  V30 8880 H 836.113 -4.31713 -2.58133 0
M  V30 8881 H 835.813 -5.68615 -1.48159 0
M  V30 8882 H 837.337 -5.60989 -2.4109 0
M  V30 8883 H 838.751 -5.73122 -0.142703 0
M  V30 8884 H 837.148 -5.96975 0.611673 0
M  V30 8885 H 838.218 -4.69329 1.21894 0
M  V30 8886 N 839.561 -0.251338 -1.55583 0
M  V30 8887 C 840.493 0.679167 -2.18906 0
M  V30 8888 C 841.506 1.13545 -1.16667 0
M  V30 8889 O 842.695 1.06146 -1.4351 0
M  V30 8890 C 839.795 1.93544 -2.78198 0
M  V30 8891 C 838.968 1.62987 -4.05899 0
M  V30 8892 C 838.027 2.73618 -4.49466 0
M  V30 8893 O 837.053 2.40815 -5.15749 0
M  V30 8894 N 838.255 4.03204 -4.1762 0
M  V30 8895 H 841.02 0.137328 -2.99385 0
M  V30 8896 H 838.581 -0.0714754 -1.61742 0
M  V30 8897 H 840.573 2.66804 -3.04299 0
M  V30 8898 H 839.143 2.38695 -2.0185 0
M  V30 8899 H 838.363 0.732237 -3.8734 0
M  V30 8900 H 839.651 1.40041 -4.89148 0
M  V30 8901 H 839.049 4.32686 -3.64416 0
M  V30 8902 H 837.606 4.72916 -4.48547 0
M  V30 8903 N 841.039 1.57585 0.0217189 0
M  V30 8904 C 842.269 1.9359 0.721572 0
M  V30 8905 C 842.677 0.850132 1.69025 0
M  V30 8906 O 842.02 -0.181539 1.82801 0
M  V30 8907 C 842.082 3.25445 1.52729 0
M  V30 8908 C 841.746 4.51251 0.722586 0
M  V30 8909 C 842.743 5.19896 0.0196598 0
M  V30 8910 C 840.428 4.97745 0.674959 0
M  V30 8911 C 842.422 6.33319 -0.720114 0
M  V30 8912 C 840.109 6.11062 -0.068555 0
M  V30 8913 C 841.107 6.78704 -0.764845 0
M  V30 8914 O 840.795 7.89852 -1.49627 0
M  V30 8915 H 840.527 0.643409 0.207366 0
M  V30 8916 H 843.081 2.05391 -0.0189346 0
M  V30 8917 H 841.311 3.0999 2.31178 0
M  V30 8918 H 843 3.46721 2.11044 0
M  V30 8919 H 843.766 4.84977 0.0474394 0
M  V30 8920 H 839.645 4.44934 1.20643 0
M  V30 8921 H 843.189 6.86051 -1.26413 0
M  V30 8922 H 839.086 6.45425 -0.0982318 0
M  V30 8923 H 839.854 8.06251 -1.41071 0
M  V30 8924 N 842.517 -0.29412 1.54831 0
M  V30 8925 C 843.764 -1.02846 1.74439 0
M  V30 8926 C 844.092 -1.87029 0.533905 0
M  V30 8927 O 843.347 -1.8962 -0.484035 0
M  V30 8928 C 843.646 -1.95782 2.99006 0
M  V30 8929 C 843.312 -1.2752 4.32492 0
M  V30 8930 C 841.974 -1.08637 4.68777 0
M  V30 8931 C 844.326 -0.787761 5.15212 0
M  V30 8932 C 841.654 -0.39704 5.85355 0
M  V30 8933 C 844.006 -0.112123 6.32501 0
M  V30 8934 C 842.67 0.0886071 6.67441 0
M  V30 8935 H 841.94 -0.376341 0.638317 0
M  V30 8936 H 844.587 -0.302684 1.89093 0
M  V30 8937 H 842.892 -2.74911 2.79162 0
M  V30 8938 H 844.589 -2.52684 3.11371 0
M  V30 8939 H 841.179 -1.43226 4.03961 0
M  V30 8940 H 845.363 -0.921341 4.87673 0
M  V30 8941 H 840.619 -0.230597 6.10965 0
M  V30 8942 H 844.793 0.27344 6.95863 0
M  V30 8943 H 842.42 0.624748 7.57628 0
M  V30 8944 N 843.995 -1.47404 -0.557645 0
M  V30 8945 C 845.22 -1.57868 -1.34508 0
M  V30 8946 C 845.645 -0.229151 -1.86699 0
M  V30 8947 O 845.003 0.794908 -1.62944 0
M  V30 8948 C 845.051 -2.60712 -2.49122 0
M  V30 8949 O 844.155 -2.15952 -3.51338 0
M  V30 8950 H 843.496 -0.530335 -0.399551 0
M  V30 8951 H 846.026 -1.93181 -0.673954 0
M  V30 8952 H 846.036 -2.81118 -2.95697 0
M  V30 8953 H 844.711 -3.58701 -2.10491 0
M  V30 8954 H 843.288 -2.05644 -3.11071 0
M  V30 8955 N 845.473 0.80434 -1.35529 0
M  V30 8956 C 846.722 1.55665 -1.28263 0
M  V30 8957 C 847.035 1.95096 0.140352 0
M  V30 8958 O 848.241 2.69422 0.335303 0
M  V30 8959 C 846.697 2.80935 -2.24952 0
M  V30 8960 C 846.305 2.48733 -3.72607 0
M  V30 8961 C 848.049 3.5894 -2.26632 0
M  V30 8962 C 845.956 3.70308 -4.61114 0
M  V30 8963 H 844.886 0.584301 -0.476559 0
M  V30 8964 H 847.537 0.88395 -1.60806 0
M  V30 8965 H 845.919 3.49927 -1.85383 0
M  V30 8966 H 847.093 1.87733 -4.20824 0
M  V30 8967 H 845.408 1.83969 -3.73557 0
M  V30 8968 H 848.005 4.49244 -2.89973 0
M  V30 8969 H 848.348 3.96433 -1.27069 0
M  V30 8970 H 848.881 2.96912 -2.64742 0
M  V30 8971 H 845.62 3.37922 -5.61684 0
M  V30 8972 H 845.14 4.30526 -4.17621 0
M  V30 8973 H 846.819 4.37511 -4.76648 0
M  V30 8974 N 846.951 1.19563 1.02676 0
M  V30 8975 C 848.362 1.00158 1.57561 0
M  V30 8976 C 848.713 -0.444922 1.91089 0
M  V30 8977 O 847.838 -1.32466 1.71119 0
M  V30 8978 C 848.433 1.81181 2.86284 0
M  V30 8979 C 846.992 1.66171 3.37734 0
M  V30 8980 C 846.139 1.7975 2.11152 0
M  V30 8981 H 849.09 1.33904 0.85179 0
M  V30 8982 H 849.111 1.30916 3.57269 0
M  V30 8983 H 848.623 2.86454 2.6185 0
M  V30 8984 H 846.724 0.634927 3.6715 0
M  V30 8985 H 846.837 2.46832 4.10622 0
M  V30 8986 H 845.201 1.22833 2.23123 0
M  V30 8987 H 845.984 2.86487 1.89157 0
M  V30 8988 N 848.429 -1.21819 0.999893 0
M  V30 8989 C 849.845 -1.42847 0.711824 0
M  V30 8990 C 850.045 -1.88391 -0.714928 0
M  V30 8991 O 849.101 -2.0422 -1.48494 0
M  V30 8992 C 850.414 -2.46417 1.72334 0
M  V30 8993 C 851.962 -2.60207 1.73958 0
M  V30 8994 C 852.437 -3.67005 2.73992 0
M  V30 8995 N 853.928 -3.7447 2.72628 0
M  V30 8996 C 854.663 -4.56718 3.46693 0
M  V30 8997 N 854.159 -5.42904 4.3038 0
M  V30 8998 N 855.952 -4.51094 3.35366 0
M  V30 8999 H 848.103 -0.905656 1.92124 0
M  V30 9000 H 850.366 -0.459893 0.828977 0
M  V30 9001 H 850.072 -2.19914 2.74465 0
M  V30 9002 H 849.946 -3.45137 1.52186 0
M  V30 9003 H 852.333 -2.8605 0.725217 0
M  V30 9004 H 852.414 -1.61739 1.98177 0
M  V30 9005 H 852.058 -3.41908 3.75582 0
M  V30 9006 H 851.988 -4.65058 2.4704 0
M  V30 9007 H 854.479 -3.12895 2.11909 0
M  V30 9008 H 854.792 -6.02704 4.83702 0
M  V30 9009 H 853.137 -5.42463 4.34464 0
M  V30 9010 H 856.328 -3.82791 2.69423 0
M  V30 9011 H 856.501 -5.1496 3.93344 0
M  V30 9012 N 849.908 -0.773975 -1.37286 0
M  V30 9013 C 851.138 -0.350249 -2.03609 0
M  V30 9014 C 851.546 1.03313 -1.58502 0
M  V30 9015 O 850.889 1.67118 -0.7627 0
M  V30 9016 C 850.951 -0.317215 -3.58098 0
M  V30 9017 C 850.615 -1.64556 -4.26345 0
M  V30 9018 C 851.612 -2.59839 -4.50311 0
M  V30 9019 C 849.297 -1.92061 -4.64131 0
M  V30 9020 C 851.291 -3.80833 -5.11122 0
M  V30 9021 C 848.978 -3.13325 -5.24663 0
M  V30 9022 C 849.976 -4.0753 -5.48095 0
M  V30 9023 O 849.664 -5.26658 -6.0736 0
M  V30 9024 H 849.396 -0.144456 -0.660385 0
M  V30 9025 H 851.95 -1.0496 -1.76557 0
M  V30 9026 H 850.18 0.438528 -3.84205 0
M  V30 9027 H 851.869 0.0797428 -4.05822 0
M  V30 9028 H 852.635 -2.39872 -4.21529 0
M  V30 9029 H 848.514 -1.19562 -4.45226 0
M  V30 9030 H 852.058 -4.54377 -5.29327 0
M  V30 9031 H 847.955 -3.33177 -5.52869 0
M  V30 9032 H 848.723 -5.27513 -6.25837 0
M  V30 9033 N 851.386 1.48609 -0.524698 0
M  V30 9034 C 852.634 2.02097 0.0112991 0
M  V30 9035 C 852.955 1.40455 1.35268 0
M  V30 9036 O 852.225 0.56807 1.87483 0
M  V30 9037 H 850.805 0.746966 0.00716426 0
M  V30 9038 H 853.467 1.82378 -0.687329 0
M  V30 9039 H 852.563 3.11855 0.123531 0
M  V30 9040 N 852.864 0.259585 1.55447 0
M  V30 9041 C 854.111 -0.361607 1.99245 0
M  V30 9042 C 854.439 -1.57017 1.14787 0
M  V30 9043 O 853.694 -1.94658 0.201724 0
M  V30 9044 C 853.993 -0.802727 3.48269 0
M  V30 9045 C 853.659 0.299472 4.49904 0
M  V30 9046 C 852.321 0.602157 4.77418 0
M  V30 9047 C 854.673 1.04295 5.10658 0
M  V30 9048 C 852.001 1.65217 5.62957 0
M  V30 9049 C 854.353 2.08257 5.97337 0
M  V30 9050 C 853.017 2.39177 6.23178 0
M  V30 9051 H 852.287 -0.132322 0.72909 0
M  V30 9052 H 854.934 0.370059 1.8789 0
M  V30 9053 H 853.239 -1.61381 3.5702 0
M  V30 9054 H 854.936 -1.29385 3.79553 0
M  V30 9055 H 851.526 0.0534256 4.28567 0
M  V30 9056 H 855.71 0.822358 4.89439 0
M  V30 9057 H 850.966 1.89692 5.81229 0
M  V30 9058 H 855.14 2.6635 6.43452 0
M  V30 9059 H 852.767 3.20677 6.89253 0
M  V30 9060 N 854.342 -1.57594 -0.0133615 0
M  V30 9061 C 855.57 -1.94251 -0.712328 0
M  V30 9062 C 855.985 -0.86063 -1.68043 0
M  V30 9063 O 855.342 0.161632 -1.81783 0
M  V30 9064 C 855.393 -3.30891 -1.45581 0
M  V30 9065 O 855.114 -4.34924 -0.526539 0
M  V30 9066 C 856.615 -3.81926 -2.2505 0
M  V30 9067 H 853.835 -0.640737 -0.199241 0
M  V30 9068 H 856.379 -2.04472 0.0337855 0
M  V30 9069 H 854.534 -3.22019 -2.15366 0
M  V30 9070 H 854.948 -5.1389 -1.04962 0
M  V30 9071 H 856.422 -4.79999 -2.72589 0
M  V30 9072 H 856.899 -3.13934 -3.07152 0
M  V30 9073 H 857.505 -3.93931 -1.60308 0
M  V30 9074 N 855.82 0.285905 -1.54985 0
M  V30 9075 C 856.783 1.33625 -1.86218 0
M  V30 9076 C 857.783 1.42971 -0.735936 0
M  V30 9077 O 858.973 1.42345 -1.00417 0
M  V30 9078 C 856.105 2.71926 -2.05595 0
M  V30 9079 H 857.298 1.07167 -2.80099 0
M  V30 9080 H 854.851 0.523335 -1.47278 0
M  V30 9081 H 855.586 3.03583 -1.14053 0
M  V30 9082 H 855.371 2.6653 -2.87583 0
M  V30 9083 H 856.861 3.47841 -2.31077 0
M  V30 9084 N 857.298 1.47698 0.54982 0
M  V30 9085 C 858.228 1.63622 1.66583 0
M  V30 9086 C 859.209 0.485477 1.63025 0
M  V30 9087 O 860.394 0.715692 1.80531 0
M  V30 9088 C 857.524 1.65721 3.05211 0
M  V30 9089 C 856.478 2.80097 3.2362 0
M  V30 9090 C 855.804 2.67272 4.63109 0
M  V30 9091 C 857.104 4.21612 3.08286 0
M  V30 9092 H 858.798 2.57049 1.53512 0
M  V30 9093 H 856.344 1.23705 0.737099 0
M  V30 9094 H 858.297 1.75451 3.83138 0
M  V30 9095 H 857.021 0.688593 3.19258 0
M  V30 9096 H 855.68 2.69889 2.48104 0
M  V30 9097 H 855.328 1.68422 4.73965 0
M  V30 9098 H 855.028 3.44008 4.76374 0
M  V30 9099 H 856.552 2.78942 5.43161 0
M  V30 9100 H 857.966 4.32758 3.76024 0
M  V30 9101 H 856.363 4.99193 3.33057 0
M  V30 9102 H 857.433 4.39462 2.04942 0
M  V30 9103 N 858.776 -0.797141 1.35954 0
M  V30 9104 C 859.708 -1.91782 1.25509 0
M  V30 9105 C 860.721 -1.61843 0.176271 0
M  V30 9106 O 861.91 -1.73235 0.430343 0
M  V30 9107 C 859.01 -3.26396 0.912073 0
M  V30 9108 C 858.183 -3.84171 2.0912 0
M  V30 9109 C 857.242 -4.9721 1.72246 0
M  V30 9110 O 856.268 -5.14136 2.44239 0
M  V30 9111 N 857.47 -5.76831 0.651611 0
M  V30 9112 H 860.235 -2.01266 2.22063 0
M  V30 9113 H 857.796 -0.975033 1.29247 0
M  V30 9114 H 859.788 -3.99499 0.646707 0
M  V30 9115 H 858.358 -3.12579 0.0359079 0
M  V30 9116 H 857.578 -3.03148 2.51982 0
M  V30 9117 H 858.866 -4.19503 2.87914 0
M  V30 9118 H 858.264 -5.65675 0.0536678 0
M  V30 9119 H 856.821 -6.50272 0.44605 0
M  V30 9120 N 860.254 -1.20106 -1.0204 0
M  V30 9121 C 861.204 -0.914145 -2.08872 0
M  V30 9122 C 862.188 0.124503 -1.60418 0
M  V30 9123 O 863.38 -0.0823521 -1.76808 0
M  V30 9124 C 860.509 -0.463897 -3.40151 0
M  V30 9125 C 859.595 -1.53576 -3.95317 0
M  V30 9126 N 859.986 -2.75726 -4.24038 0
M  V30 9127 C 858.284 -1.40103 -4.23423 0
M  V30 9128 C 858.985 -3.44838 -4.68468 0
M  V30 9129 N 857.961 -2.72245 -4.70514 0
M  V30 9130 H 861.763 -1.8424 -2.28982 0
M  V30 9131 H 859.277 -1.0945 -1.19977 0
M  V30 9132 H 861.274 -0.239766 -4.1621 0
M  V30 9133 H 859.934 0.457779 -3.21457 0
M  V30 9134 H 860.945 -3.12412 -4.13061 0
M  V30 9135 H 857.622 -0.543472 -4.13948 0
M  V30 9136 H 859.012 -4.49342 -4.99541 0
M  V30 9137 N 861.732 1.21287 -1.00634 0
M  V30 9138 C 862.68 2.25733 -0.561026 0
M  V30 9139 C 863.674 1.64728 0.395095 0
M  V30 9140 O 864.88 1.78022 0.266141 0
M  V30 9141 H 861.255 0.734104 -0.163081 0
M  V30 9142 H 863.226 2.60631 -1.45307 0
M  V30 9143 C 861.975 3.47569 0.0952587 0
M  V30 9144 H 861.298 3.94782 -0.631427 0
M  V30 9145 H 862.738 4.22382 0.370105 0
M  V30 9146 C 861.197 3.09326 1.33488 0
M  V30 9147 O 861.727 3.19933 2.42912 0
M  V30 9148 N 859.933 2.63976 1.21512 0
M  V30 9149 H 859.48 2.55545 0.324741 0
M  V30 9150 H 859.438 2.38757 2.04555 0
M  V30 9151 N 863.21 0.781244 1.36873 0
M  V30 9152 C 864.12 0.174981 2.33947 0
M  V30 9153 C 865.136 -0.668512 1.60645 0
M  V30 9154 O 866.312 -0.586213 1.9268 0
M  V30 9155 C 863.377 -0.686557 3.39834 0
M  V30 9156 C 862.438 0.174489 4.28945 0
M  V30 9157 C 861.671 -0.646024 5.29776 0
M  V30 9158 O 861.894 -1.88254 5.38439 0
M  V30 9159 O 860.828 -0.0502214 6.01879 0
M  V30 9160 H 864.654 0.977382 2.87543 0
M  V30 9161 H 862.239 0.542559 1.392 0
M  V30 9162 H 864.121 -1.1781 4.04597 0
M  V30 9163 H 862.796 -1.46699 2.8855 0
M  V30 9164 H 861.703 0.712604 3.6725 0
M  V30 9165 H 863.036 0.918232 4.83559 0
M  V30 9166 N 864.689 -1.48329 0.532571 0
M  V30 9167 C 865.936 -2.025 -0.000582356 0
M  V30 9168 C 866.264 -1.40942 -1.34036 0
M  V30 9169 O 865.519 -0.545545 -1.87942 0
M  V30 9170 C 865.818 -3.57 -0.168943 0
M  V30 9171 C 865.484 -4.37357 1.0968 0
M  V30 9172 C 864.146 -4.59033 1.44369 0
M  V30 9173 C 866.498 -4.83882 1.93669 0
M  V30 9174 C 863.826 -5.24481 2.62939 0
M  V30 9175 C 866.178 -5.50637 3.11419 0
M  V30 9176 C 864.842 -5.70551 3.46451 0
M  V30 9177 H 864.112 -0.741 -0.000213099 0
M  V30 9178 H 866.759 -1.78282 0.699117 0
M  V30 9179 H 865.064 -3.80072 -0.951429 0
M  V30 9180 H 866.761 -3.9654 -0.596422 0
M  V30 9181 H 863.351 -4.20748 0.816655 0
M  V30 9182 H 867.535 -4.66936 1.6818 0
M  V30 9183 H 862.791 -5.38096 2.9028 0
M  V30 9184 H 866.965 -5.85655 3.76803 0
M  V30 9185 H 864.592 -6.21037 4.38425 0
M  V30 9186 N 866.167 -0.267825 -1.55308 0
M  V30 9187 C 867.097 0.616585 -2.25212 0
M  V30 9188 C 868.078 1.16472 -1.23969 0
M  V30 9189 O 869.263 1.20021 -1.52672 0
M  V30 9190 C 866.393 1.80412 -2.96764 0
M  V30 9191 C 865.347 1.38784 -4.04874 0
M  V30 9192 C 864.673 2.65789 -4.63961 0
M  V30 9193 C 865.973 0.543415 -5.19465 0
M  V30 9194 H 867.667 0.0336257 -2.99381 0
M  V30 9195 H 865.213 0.0147328 -1.43992 0
M  V30 9196 H 867.166 2.42866 -3.44375 0
M  V30 9197 H 865.89 2.4128 -2.20118 0
M  V30 9198 H 864.549 0.786541 -3.58063 0
M  V30 9199 H 864.197 3.24899 -3.83992 0
M  V30 9200 H 863.897 2.38651 -5.36954 0
M  V30 9201 H 865.421 3.29104 -5.14318 0
M  V30 9202 H 866.835 1.07277 -5.63174 0
M  V30 9203 H 865.232 0.367219 -5.98975 0
M  V30 9204 H 866.302 -0.439534 -4.82904 0
M  V30 9205 N 867.645 1.57599 0.00500368 0
M  V30 9206 C 868.893 1.89973 0.68953 0
M  V30 9207 C 869.214 0.868531 1.7459 0
M  V30 9208 O 868.484 -0.0947367 1.95671 0
M  V30 9209 H 867.064 0.701153 0.25767 0
M  V30 9210 H 869.726 1.94869 -0.0347392 0
M  V30 9211 H 868.822 2.89584 1.16394 0
M  V30 9212 N 869.123 -0.277682 1.55134 0
M  V30 9213 C 870.055 -1.36531 1.84098 0
M  V30 9214 C 871.068 -1.45756 0.725194 0
M  V30 9215 O 872.257 -1.47656 1.00299 0
M  V30 9216 C 869.357 -2.74701 1.98476 0
M  V30 9217 C 868.53 -2.88125 3.29094 0
M  V30 9218 C 867.589 -4.0694 3.33596 0
M  V30 9219 O 866.615 -3.9792 4.06999 0
M  V30 9220 N 867.817 -5.18687 2.60661 0
M  V30 9221 H 870.582 -1.12032 2.77973 0
M  V30 9222 H 868.143 -0.467793 1.54995 0
M  V30 9223 H 870.135 -3.52471 1.98863 0
M  V30 9224 H 868.705 -2.92043 1.11488 0
M  V30 9225 H 867.925 -1.97277 3.41285 0
M  V30 9226 H 869.213 -2.94021 4.15246 0
M  V30 9227 H 868.611 -5.28901 2.00699 0
M  V30 9228 H 867.168 -5.94705 2.66776 0
M  V30 9229 N 870.601 -1.47988 -0.541979 0
M  V30 9230 C 871.549 -1.62044 -1.66867 0
M  V30 9231 C 872.543 -0.487217 -1.62242 0
M  V30 9232 O 873.749 -0.66554 -1.67244 0
M  V30 9233 H 870.124 -0.51024 -0.552412 0
M  V30 9234 H 872.095 -2.56695 -1.52153 0
M  V30 9235 C 870.844 -1.66615 -3.0518 0
M  V30 9236 H 870.167 -2.5317 -3.09427 0
M  V30 9237 H 871.607 -1.80496 -3.83663 0
M  V30 9238 C 870.066 -0.402421 -3.34488 0
M  V30 9239 O 870.596 0.48992 -3.98701 0
M  V30 9240 N 868.802 -0.277778 -2.89269 0
M  V30 9241 H 868.349 -1.00488 -2.37192 0
M  V30 9242 H 868.307 0.566784 -3.09249 0
M  V30 9243 N 872.079 0.78992 -1.36375 0
M  V30 9244 C 873.326 1.54777 -1.30576 0
M  V30 9245 C 873.654 1.94159 0.115095 0
M  V30 9246 O 872.909 1.62918 1.08426 0
M  V30 9247 C 873.208 2.83698 -2.17371 0
M  V30 9248 C 872.874 2.63457 -3.65925 0
M  V30 9249 C 871.536 2.57645 -4.06415 0
M  V30 9250 C 873.888 2.44833 -4.60115 0
M  V30 9251 C 871.216 2.31174 -5.39236 0
M  V30 9252 C 873.568 2.19889 -5.93154 0
M  V30 9253 C 872.232 2.1251 -6.32768 0
M  V30 9254 H 871.502 0.566371 -0.477813 0
M  V30 9255 H 874.149 0.91138 -1.68422 0
M  V30 9256 H 872.454 3.51802 -1.72459 0
M  V30 9257 H 874.151 3.41487 -2.10209 0
M  V30 9258 H 870.741 2.68836 -3.33804 0
M  V30 9259 H 874.925 2.48325 -4.29707 0
M  V30 9260 H 870.181 2.23942 -5.68911 0
M  V30 9261 H 874.355 2.04473 -6.65705 0
M  V30 9262 H 871.982 1.91761 -7.35616 0
M  V30 9263 N 873.557 1.20646 1.01402 0
M  V30 9264 C 874.797 1.02951 1.7658 0
M  V30 9265 C 875.161 -0.430522 1.87111 0
M  V30 9266 O 876.362 -0.727727 2.58762 0
M  V30 9267 C 874.633 1.69728 3.14527 0
M  V30 9268 S 876.192 1.6717 4.05709 0
M  V30 9269 H 873.01 0.36911 0.607683 0
M  V30 9270 H 875.612 1.53243 1.21395 0
M  V30 9271 H 874.316 2.75162 3.0449 0
M  V30 9272 H 873.847 1.19578 3.74786 0
M  V30 9273 H 875.862 0.706397 4.91146 0
M  V30 9274 N 875.035 -1.20752 1.01276 0
M  V30 9275 C 876.446 -1.7175 0.732033 0
M  V30 9276 C 876.797 -1.8131 -0.749733 0
M  V30 9277 O 875.922 -1.47301 -1.58529 0
M  V30 9278 C 876.517 -3.11936 1.32217 0
M  V30 9279 C 875.076 -3.6026 1.09039 0
M  V30 9280 C 874.223 -2.37571 1.43022 0
M  V30 9281 H 877.174 -1.0582 1.1827 0
M  V30 9282 H 877.195 -3.73802 0.710771 0
M  V30 9283 H 876.707 -3.04946 2.40061 0
M  V30 9284 H 874.808 -3.72588 0.0294464 0
M  V30 9285 H 874.921 -4.45295 1.76775 0
M  V30 9286 H 873.285 -2.40128 0.849159 0
M  V30 9287 H 874.068 -2.33225 2.51915 0
M  V30 9288 N 876.513 -0.788492 -1.36457 0
M  V30 9289 C 877.761 -0.359749 -1.98872 0
M  V30 9290 C 878.082 1.07197 -1.62892 0
M  V30 9291 O 877.352 1.73875 -0.902463 0
M  V30 9292 H 875.932 -0.130029 -0.735596 0
M  V30 9293 H 878.594 -1.01033 -1.66668 0
M  V30 9294 H 877.69 -0.450835 -3.08827 0
M  V30 9295 N 877.991 1.48044 -0.54043 0
M  V30 9296 C 878.921 2.32597 0.205178 0
M  V30 9297 C 879.902 1.42748 0.925041 0
M  V30 9298 O 881.087 1.71624 0.908784 0
M  V30 9299 C 878.217 3.24175 1.24612 0
M  V30 9300 C 877.171 4.23131 0.64376 0
M  V30 9301 C 876.497 5.03915 1.78812 0
M  V30 9302 C 877.797 5.20831 -0.39144 0
M  V30 9303 H 879.491 2.95184 -0.500676 0
M  V30 9304 H 877.037 1.41948 -0.242225 0
M  V30 9305 H 878.99 3.82158 1.77576 0
M  V30 9306 H 877.714 2.59608 1.98169 0
M  V30 9307 H 876.373 3.66349 0.135554 0
M  V30 9308 H 876.021 4.35765 2.51232 0
M  V30 9309 H 875.721 5.709 1.39094 0
M  V30 9310 H 877.245 5.64753 2.32134 0
M  V30 9311 H 878.659 5.73277 0.0515064 0
M  V30 9312 H 877.056 5.95926 -0.706569 0
M  V30 9313 H 878.126 4.6733 -1.29345 0
M  V30 9314 N 879.47 0.276058 1.55163 0
M  V30 9315 C 880.418 -0.626978 2.2399 0
M  V30 9316 C 881.412 -1.15708 1.23725 0
M  V30 9317 O 882.618 -1.1106 1.41653 0
M  V30 9318 H 878.993 -0.220742 0.718872 0
M  V30 9319 H 880.964 -0.0236569 2.98391 0
M  V30 9320 C 879.713 -1.79935 2.97521 0
M  V30 9321 H 879.036 -1.40064 3.74463 0
M  V30 9322 H 880.476 -2.40781 3.48999 0
M  V30 9323 C 878.935 -2.68838 2.03046 0
M  V30 9324 O 879.465 -3.69224 1.58229 0
M  V30 9325 N 877.671 -2.36028 1.69527 0
M  V30 9326 H 877.218 -1.54442 2.06169 0
M  V30 9327 H 877.176 -2.95782 1.06586 0
M  V30 9328 N 880.948 -1.576 0.00335426 0
M  V30 9329 C 881.911 -2.07576 -0.971838 0
M  V30 9330 C 882.911 -0.985796 -1.27038 0
M  V30 9331 O 884.101 -1.24833 -1.21501 0
M  V30 9332 C 881.233 -2.52003 -2.29581 0
M  V30 9333 H 882.426 -2.95008 -0.539481 0
M  V30 9334 H 879.979 -1.54381 -0.244186 0
M  V30 9335 H 880.714 -1.67825 -2.77498 0
M  V30 9336 H 880.499 -3.31609 -2.09231 0
M  V30 9337 H 881.989 -2.90983 -2.99531 0
M  V30 9338 N 882.426 0.269451 -1.5528 0
M  V30 9339 C 883.654 1.01872 -1.80082 0
M  V30 9340 C 884.069 1.79802 -0.575917 0
M  V30 9341 O 883.426 1.76735 0.455081 0
M  V30 9342 C 883.477 1.9745 -3.02813 0
M  V30 9343 O 883.198 1.22677 -4.20573 0
M  V30 9344 C 884.699 2.8416 -3.40247 0
M  V30 9345 H 881.919 0.300781 -0.59981 0
M  V30 9346 H 884.463 0.29916 -2.023 0
M  V30 9347 H 882.618 2.64864 -2.82712 0
M  V30 9348 H 883.032 1.87129 -4.89982 0
M  V30 9349 H 884.506 3.47014 -4.29284 0
M  V30 9350 H 884.983 3.54113 -2.59809 0
M  V30 9351 H 885.589 2.22232 -3.6262 0
M  V30 9352 N 883.904 1.48273 0.534124 0
M  V30 9353 C 885.152 1.55771 1.28762 0
M  V30 9354 C 885.473 0.231575 1.9362 0
M  V30 9355 O 884.743 -0.746533 1.81118 0
M  V30 9356 H 883.323 0.573851 0.47823 0
M  V30 9357 H 885.985 1.84712 0.621888 0
M  V30 9358 H 885.081 2.33657 2.06908 0
M  V30 9359 N 885.382 -0.782676 1.36792 0
M  V30 9360 C 886.33 -1.91698 1.31737 0
M  V30 9361 C 887.324 -1.68118 0.207994 0
M  V30 9362 O 888.53 -1.76042 0.375393 0
M  V30 9363 H 884.905 -0.630215 0.410284 0
M  V30 9364 H 886.876 -1.93078 2.27516 0
M  V30 9365 C 885.625 -3.28816 1.13029 0
M  V30 9366 H 884.948 -3.4753 1.97643 0
M  V30 9367 H 886.388 -4.08515 1.13541 0
M  V30 9368 C 884.847 -3.36497 -0.1647 0
M  V30 9369 O 885.377 -3.84822 -1.15216 0
M  V30 9370 N 883.583 -2.89828 -0.211678 0
M  V30 9371 H 883.13 -2.50693 0.59252 0
M  V30 9372 H 883.088 -2.95349 -1.07779 0
M  V30 9373 N 886.86 -1.21182 -1.00761 0
M  V30 9374 C 887.808 -0.965728 -2.11604 0
M  V30 9375 C 888.802 0.0861028 -1.69181 0
M  V30 9376 O 890.008 -0.0650558 -1.79882 0
M  V30 9377 H 886.383 -0.295023 -0.691712 0
M  V30 9378 H 888.354 -1.90667 -2.2954 0
M  V30 9379 C 887.103 -0.544164 -3.43415 0
M  V30 9380 H 886.426 -1.34515 -3.76491 0
M  V30 9381 H 887.866 -0.411268 -4.22001 0
M  V30 9382 C 886.325 0.744583 -3.28569 0
M  V30 9383 O 886.855 1.80078 -3.59075 0
M  V30 9384 N 885.061 0.710083 -2.81791 0
M  V30 9385 H 884.608 -0.14971 -2.57165 0
M  V30 9386 H 884.566 1.57268 -2.72239 0
M  V30 9387 N 888.338 1.20213 -1.01915 0
M  V30 9388 C 889.749 1.7136 -0.741131 0
M  V30 9389 C 890.1 1.81705 0.740107 0
M  V30 9390 O 889.225 1.48139 1.57746 0
M  V30 9391 C 889.82 3.11231 -1.33869 0
M  V30 9392 C 888.379 3.59677 -1.10948 0
M  V30 9393 C 887.526 2.36809 -1.4428 0
M  V30 9394 H 890.477 1.05191 -1.1883 0
M  V30 9395 H 890.498 3.7342 -0.730585 0
M  V30 9396 H 890.01 3.03669 -2.41675 0
M  V30 9397 H 888.111 3.72568 -0.0492052 0
M  V30 9398 H 888.224 4.44351 -1.79134 0
M  V30 9399 H 886.588 2.39674 -0.861881 0
M  V30 9400 H 887.371 2.31886 -2.53148 0
M  V30 9401 N 889.816 0.795718 1.36037 0
M  V30 9402 C 891.056 0.376514 2.00902 0
M  V30 9403 C 891.42 -1.03405 1.61776 0
M  V30 9404 O 892.621 -1.55468 2.19279 0
M  V30 9405 C 890.892 0.542086 3.53265 0
M  V30 9406 S 892.451 0.211694 4.38289 0
M  V30 9407 H 889.269 0.143527 0.696363 0
M  V30 9408 H 891.871 1.03559 1.65819 0
M  V30 9409 H 890.575 1.56888 3.79229 0
M  V30 9410 H 890.106 -0.132698 3.93176 0
M  V30 9411 H 892.121 -0.98452 4.86335 0
M  V30 9412 N 891.294 -1.47756 0.548274 0
M  V30 9413 C 892.242 -2.3158 -0.217584 0
M  V30 9414 C 893.236 -1.42372 -0.917957 0
M  V30 9415 O 894.442 -1.59184 -0.840259 0
M  V30 9416 H 890.817 -0.74671 -0.0890388 0
M  V30 9417 H 892.788 -2.94032 0.508719 0
M  V30 9418 C 891.537 -3.24834 -1.24008 0
M  V30 9419 H 890.86 -3.93435 -0.710572 0
M  V30 9420 H 892.3 -3.86336 -1.74701 0
M  V30 9421 C 890.759 -2.47724 -2.2833 0
M  V30 9422 O 891.289 -2.21522 -3.35098 0
M  V30 9423 N 889.495 -2.08891 -2.02022 0
M  V30 9424 H 889.042 -2.30401 -1.1521 0
M  V30 9425 H 889 -1.57613 -2.7204 0
M  V30 9426 N 892.772 -0.284283 -1.55015 0
M  V30 9427 C 894.002 0.332465 -2.03907 0
M  V30 9428 C 894.41 1.49331 -1.16177 0
M  V30 9429 O 893.753 1.82851 -0.176395 0
M  V30 9430 C 893.815 0.867193 -3.48884 0
M  V30 9431 C 893.479 -0.166198 -4.56698 0
M  V30 9432 C 894.476 -0.988898 -5.10408 0
M  V30 9433 C 892.161 -0.303081 -5.01385 0
M  V30 9434 C 894.155 -1.93458 -6.07333 0
M  V30 9435 C 891.842 -1.25223 -5.98133 0
M  V30 9436 C 892.84 -2.06647 -6.50988 0
M  V30 9437 O 892.528 -2.99955 -7.45843 0
M  V30 9438 H 892.26 0.0786597 -0.671408 0
M  V30 9439 H 894.814 -0.416871 -2.01125 0
M  V30 9440 H 893.044 1.66676 -3.48935 0
M  V30 9441 H 894.733 1.39802 -3.81065 0
M  V30 9442 H 895.499 -0.89393 -4.76691 0
M  V30 9443 H 891.378 0.320711 -4.59883 0
M  V30 9444 H 894.922 -2.57053 -6.48513 0
M  V30 9445 H 890.819 -1.34798 -6.31268 0
M  V30 9446 H 891.587 -2.94742 -7.6359 0
M  V30 9447 N 894.251 1.57596 -0.0117121 0
M  V30 9448 C 895.214 2.08089 0.960816 0
M  V30 9449 C 896.214 0.992519 1.26514 0
M  V30 9450 O 897.404 1.25475 1.20837 0
M  V30 9451 C 894.536 2.53217 2.28241 0
M  V30 9452 H 895.729 2.9529 0.523829 0
M  V30 9453 H 893.282 1.54508 0.235995 0
M  V30 9454 H 894.017 1.69294 2.76604 0
M  V30 9455 H 893.802 3.32714 2.0747 0
M  V30 9456 H 895.292 2.92568 2.97983 0
M  V30 9457 N 895.729 -0.261212 1.5542 0
M  V30 9458 C 896.957 -1.00916 1.8062 0
M  V30 9459 C 897.372 -1.79494 0.585444 0
M  V30 9460 O 896.729 -1.76974 -0.445702 0
M  V30 9461 C 896.78 -1.95841 3.03856 0
M  V30 9462 O 896.501 -1.20445 4.21218 0
M  V30 9463 C 898.002 -2.82352 3.41749 0
M  V30 9464 H 895.222 -0.297596 0.601397 0
M  V30 9465 H 897.766 -0.288427 2.02456 0
M  V30 9466 H 895.921 -2.63361 2.84112 0
M  V30 9467 H 896.335 -1.84528 4.90968 0
M  V30 9468 H 897.809 -3.44733 4.31118 0
M  V30 9469 H 898.286 -3.5273 2.61683 0
M  V30 9470 H 898.892 -2.20306 3.63793 0
M  V30 9471 N 897.207 -1.48554 -0.526253 0
M  V30 9472 C 898.447 -1.58362 -1.29232 0
M  V30 9473 C 898.811 -0.253353 -1.90321 0
M  V30 9474 O 900.012 -0.226439 -2.67845 0
M  V30 9475 C 898.283 -2.69294 -2.3498 0
M  V30 9476 S 899.842 -2.98891 -3.21262 0
M  V30 9477 H 896.66 -0.558859 -0.439543 0
M  V30 9478 H 899.262 -1.86094 -0.599099 0
M  V30 9479 H 897.966 -3.64504 -1.88587 0
M  V30 9480 H 897.497 -2.43475 -3.09004 0
M  V30 9481 H 899.512 -2.38475 -4.35137 0
M  V30 9482 N 898.685 0.775411 -1.37205 0
M  V30 9483 C 899.913 1.56446 -1.35397 0
M  V30 9484 C 900.328 1.887 0.0615437 0
M  V30 9485 O 899.685 1.51178 1.02233 0
M  V30 9486 C 899.736 2.87697 -2.18889 0
M  V30 9487 O 899.457 2.56828 -3.54924 0
M  V30 9488 C 900.958 3.81944 -2.25019 0
M  V30 9489 H 898.178 0.484792 -0.463916 0
M  V30 9490 H 900.722 0.961346 -1.80495 0
M  V30 9491 H 898.877 3.44442 -1.7731 0
M  V30 9492 H 899.291 3.40851 -3.98649 0
M  V30 9493 H 900.765 4.71055 -2.87769 0
M  V30 9494 H 901.242 4.20811 -1.25757 0
M  V30 9495 H 901.848 3.3113 -2.66895 0
M  V30 9496 N 900.163 1.21714 1.00117 0
M  V30 9497 C 901.411 1.03465 1.73607 0
M  V30 9498 C 901.732 -0.432295 1.90148 0
M  V30 9499 O 901.002 -1.31157 1.45515 0
M  V30 9500 H 899.582 0.379857 0.643209 0
M  V30 9501 H 902.244 1.53088 1.20624 0
M  V30 9502 H 901.34 1.50574 2.73375 0
M  V30 9503 N 901.641 -1.19671 1.02551 0
M  V30 9504 C 902.551 -2.26441 0.613329 0
M  V30 9505 C 903.567 -1.70375 -0.353339 0
M  V30 9506 O 904.743 -2.0028 -0.212064 0
M  V30 9507 C 901.808 -3.46684 -0.0329028 0
M  V30 9508 C 900.869 -4.17945 0.980837 0
M  V30 9509 C 900.102 -5.32448 0.36535 0
M  V30 9510 O 900.325 -5.64291 -0.832596 0
M  V30 9511 O 899.259 -5.92012 1.08652 0
M  V30 9512 H 903.085 -2.63932 1.50246 0
M  V30 9513 H 900.67 -1.2646 0.795502 0
M  V30 9514 H 902.552 -4.1956 -0.393395 0
M  V30 9515 H 901.227 -3.1105 -0.896089 0
M  V30 9516 H 900.134 -3.47204 1.39286 0
M  V30 9517 H 901.467 -4.57542 1.81428 0
M  V30 9518 N 903.119 -0.802921 -1.35613 0
M  V30 9519 C 904.029 -0.212177 -2.33639 0
M  V30 9520 C 905.045 0.642871 -1.61689 0
M  V30 9521 O 906.221 0.555485 -1.93588 0
M  V30 9522 C 903.286 0.632406 -3.40883 0
M  V30 9523 C 902.347 -0.242708 -4.28613 0
M  V30 9524 C 901.58 0.56166 -5.30736 0
M  V30 9525 O 901.803 1.79664 -5.41366 0
M  V30 9526 O 900.737 -0.0455387 -6.01883 0
M  V30 9527 H 904.563 -1.023 -2.85952 0
M  V30 9528 H 902.148 -0.564636 -1.38319 0
M  V30 9529 H 904.03 1.11358 -4.0642 0
M  V30 9530 H 902.705 1.42089 -2.90848 0
M  V30 9531 H 901.612 -0.77094 -3.6607 0
M  V30 9532 H 902.945 -0.995046 -4.82037 0
M  V30 9533 N 904.597 1.47463 -0.556102 0
M  V30 9534 C 905.827 2.06568 -0.0364056 0
M  V30 9535 C 906.235 1.40939 1.26225 0
M  V30 9536 O 905.578 0.499572 1.76777 0
M  V30 9537 C 905.64 3.58755 0.231278 0
M  V30 9538 C 905.304 4.46417 -0.977776 0
M  V30 9539 C 906.301 4.846 -1.88305 0
M  V30 9540 C 903.986 4.87948 -1.19214 0
M  V30 9541 C 905.98 5.63111 -2.98639 0
M  V30 9542 C 903.667 5.66224 -2.29857 0
M  V30 9543 C 904.665 6.03716 -3.194 0
M  V30 9544 O 904.353 6.80415 -4.28125 0
M  V30 9545 H 904.085 0.674675 -0.042305 0
M  V30 9546 H 906.639 1.9047 -0.768775 0
M  V30 9547 H 904.869 3.73061 1.01794 0
M  V30 9548 H 906.558 3.99884 0.696221 0
M  V30 9549 H 907.324 4.53115 -1.72949 0
M  V30 9550 H 903.203 4.58233 -0.504347 0
M  V30 9551 H 906.747 5.92293 -3.68557 0
M  V30 9552 H 902.644 5.97121 -2.45186 0
M  V30 9553 H 903.412 6.98807 -4.26159 0
M  V30 9554 N 906.075 0.2925 1.54862 0
M  V30 9555 C 907.005 -0.580677 2.26165 0
M  V30 9556 C 907.986 -1.14485 1.25806 0
M  V30 9557 O 909.171 -1.17577 1.54562 0
M  V30 9558 C 906.301 -1.75668 2.99596 0
M  V30 9559 C 905.255 -1.32325 4.07031 0
M  V30 9560 C 904.581 -2.58374 4.68131 0
M  V30 9561 C 905.881 -0.460703 5.20264 0
M  V30 9562 H 907.575 0.0140075 2.99397 0
M  V30 9563 H 905.121 0.00817706 1.43998 0
M  V30 9564 H 907.074 -2.37356 3.48195 0
M  V30 9565 H 905.798 -2.37747 2.23928 0
M  V30 9566 H 904.457 -0.729477 3.59269 0
M  V30 9567 H 904.105 -3.18749 3.89112 0
M  V30 9568 H 903.805 -2.30078 5.40683 0
M  V30 9569 H 905.329 -3.2088 5.19489 0
M  V30 9570 H 906.743 -0.983037 5.64809 0
M  V30 9571 H 905.14 -0.271881 5.99484 0
M  V30 9572 H 906.21 0.516304 4.82143 0
M  V30 9573 N 907.553 -1.57587 0.0200696 0
M  V30 9574 C 908.799 -1.91708 -0.661503 0
M  V30 9575 C 909.132 -0.895968 -1.72296 0
M  V30 9576 O 908.407 0.082577 -1.94325 0
M  V30 9577 C 908.69 -3.36344 -1.28627 0
M  V30 9578 C 908.543 -4.49186 -0.234982 0
M  V30 9579 C 909.862 -3.80771 -2.20685 0
M  V30 9580 H 906.981 -0.69717 -0.239005 0
M  V30 9581 H 909.623 -1.8985 0.0754764 0
M  V30 9582 H 907.773 -3.38058 -1.91439 0
M  V30 9583 H 909.445 -4.59606 0.395011 0
M  V30 9584 H 907.688 -4.31557 0.440565 0
M  V30 9585 H 908.359 -5.47395 -0.711558 0
M  V30 9586 H 910.835 -3.80735 -1.67868 0
M  V30 9587 H 909.711 -4.82685 -2.61356 0
M  V30 9588 H 909.972 -3.15764 -3.09428 0
M  V30 9589 N 909.032 0.252966 -1.55557 0
M  V30 9590 C 909.979 1.3131 -1.89806 0
M  V30 9591 C 910.949 1.48121 -0.751633 0
M  V30 9592 O 912.134 1.62202 -1.00474 0
M  V30 9593 C 909.274 2.66467 -2.19293 0
M  V30 9594 C 908.387 2.57714 -3.46709 0
M  V30 9595 C 907.522 3.85184 -3.65796 0
M  V30 9596 C 906.561 3.71023 -4.86835 0
M  V30 9597 N 905.698 4.90371 -5.02474 0
M  V30 9598 H 910.538 1.01402 -2.80217 0
M  V30 9599 H 908.075 0.489462 -1.38718 0
M  V30 9600 H 910.033 3.45132 -2.34392 0
M  V30 9601 H 908.663 2.94536 -1.32093 0
M  V30 9602 H 907.715 1.70651 -3.39974 0
M  V30 9603 H 909.027 2.43158 -4.35517 0
M  V30 9604 H 908.181 4.72292 -3.80822 0
M  V30 9605 H 906.92 4.0263 -2.7521 0
M  V30 9606 H 905.925 2.82299 -4.71792 0
M  V30 9607 H 907.15 3.55078 -5.78875 0
M  V30 9608 H 905.096 5.0819 -4.14824 0
M  V30 9609 H 905.013 4.78423 -5.85361 0
M  V30 9610 H 906.281 5.78995 -5.21905 0
M  V30 9611 N 910.51 1.48831 0.518367 0
M  V30 9612 C 911.442 1.60317 1.63802 0
M  V30 9613 C 912.455 0.486771 1.55352 0
M  V30 9614 O 913.644 0.758111 1.61601 0
M  V30 9615 C 910.744 1.52771 3.02513 0
M  V30 9616 C 909.917 2.79649 3.36326 0
M  V30 9617 C 908.976 2.65396 4.54369 0
M  V30 9618 O 908.002 3.39304 4.57013 0
M  V30 9619 N 909.204 1.75784 5.53245 0
M  V30 9620 H 911.969 2.56878 1.54383 0
M  V30 9621 H 909.53 1.45701 0.705889 0
M  V30 9622 H 911.522 1.40914 3.79375 0
M  V30 9623 H 910.092 0.641381 3.05949 0
M  V30 9624 H 909.312 3.05985 2.48529 0
M  V30 9625 H 910.6 3.63799 3.55707 0
M  V30 9626 H 909.998 1.14961 5.53896 0
M  V30 9627 H 908.555 1.69859 6.29278 0
M  V30 9628 N 911.988 -0.768124 1.37614 0
M  V30 9629 C 913.236 -1.52379 1.3276 0
M  V30 9630 C 913.557 -1.94809 -0.0863564 0
M  V30 9631 O 912.827 -1.66568 -1.03112 0
M  V30 9632 H 911.407 -0.565179 0.488448 0
M  V30 9633 H 914.069 -0.913974 1.72141 0
M  V30 9634 H 913.165 -2.4215 1.96901 0
M  V30 9635 N 913.466 -1.22244 -0.994698 0
M  V30 9636 C 914.715 -1.04005 -1.72817 0
M  V30 9637 C 915.028 0.425413 -1.90918 0
M  V30 9638 O 916.234 0.727429 -2.61574 0
M  V30 9639 C 914.69 -1.81244 -3.10932 0
M  V30 9640 C 914.298 -3.32028 -3.00768 0
M  V30 9641 C 916.042 -1.71448 -3.88337 0
M  V30 9642 C 913.949 -4.01716 -4.34026 0
M  V30 9643 H 912.879 -0.385559 -0.647966 0
M  V30 9644 H 915.53 -1.46077 -1.11058 0
M  V30 9645 H 913.912 -1.3197 -3.73363 0
M  V30 9646 H 915.086 -3.88682 -2.47513 0
M  V30 9647 H 913.401 -3.4248 -2.36846 0
M  V30 9648 H 915.998 -2.20836 -4.86965 0
M  V30 9649 H 916.341 -0.674568 -4.10798 0
M  V30 9650 H 916.874 -2.18256 -3.3258 0
M  V30 9651 H 913.613 -5.05952 -4.16765 0
M  V30 9652 H 913.133 -3.49849 -4.87202 0
M  V30 9653 H 914.812 -4.0721 -5.02782 0
M  V30 9654 N 914.944 1.19125 -1.03184 0
M  V30 9655 C 916.221 1.84674 -0.644574 0
M  V30 9656 C 916.601 1.92042 0.876534 0
M  V30 9657 O 915.949 1.43965 1.77444 0
M  V30 9658 C 916.159 3.23477 -1.3101 0
M  V30 9659 C 917.507 3.99608 -1.43524 0
M  V30 9660 O 918.531 3.32886 -1.2675 0
M  V30 9661 O 917.39 5.19132 -1.70776 0
M  V30 9662 H 914.484 0.795968 -0.22442 0
M  V30 9663 H 917.03 1.2659 -1.13018 0
M  V30 9664 H 915.802 3.12967 -2.34878 0
M  V30 9665 H 915.425 3.89209 -0.812547 0
M  V30 9666 N 916.422 0.810101 1.35185 0
M  V30 9667 C 917.352 0.237453 2.32289 0
M  V30 9668 C 918.333 -0.639032 1.5764 0
M  V30 9669 O 919.518 -0.568575 1.8569 0
M  V30 9670 C 916.648 -0.611964 3.41866 0
M  V30 9671 C 915.602 0.166318 4.27677 0
M  V30 9672 C 914.928 -0.805024 5.28605 0
M  V30 9673 C 916.228 1.36729 5.04086 0
M  V30 9674 H 917.922 1.04874 2.80432 0
M  V30 9675 H 915.468 0.505751 1.34826 0
M  V30 9676 H 917.421 -1.02267 4.08802 0
M  V30 9677 H 916.145 -1.45617 2.92341 0
M  V30 9678 H 914.804 0.558238 3.62325 0
M  V30 9679 H 914.452 -1.64483 4.75347 0
M  V30 9680 H 914.152 -0.288577 5.86891 0
M  V30 9681 H 915.676 -1.21386 5.98413 0
M  V30 9682 H 917.09 1.03128 5.63948 0
M  V30 9683 H 915.487 1.81848 5.71884 0
M  V30 9684 H 916.557 2.15214 4.34524 0
M  V30 9685 N 917.9 -1.47166 0.563914 0
M  V30 9686 C 919.125 -2.0735 0.0454698 0
M  V30 9687 C 919.55 -1.41281 -1.24182 0
M  V30 9688 O 918.908 -0.490084 -1.7455 0
M  V30 9689 C 918.956 -3.60378 -0.126453 0
M  V30 9690 O 918.06 -3.94934 -1.18746 0
M  V30 9691 H 917.401 -0.661773 0.0543377 0
M  V30 9692 H 919.931 -1.89086 0.781508 0
M  V30 9693 H 919.941 -4.06593 -0.338554 0
M  V30 9694 H 918.616 -4.07862 0.81373 0
M  V30 9695 H 917.193 -3.60455 -0.955318 0
M  V30 9696 N 919.378 -0.300708 -1.54705 0
M  V30 9697 C 920.789 0.191995 -1.8571 0
M  V30 9698 C 921.14 1.53447 -1.22264 0
M  V30 9699 O 920.265 2.10054 -0.520226 0
M  V30 9700 C 920.86 0.355148 -3.36933 0
M  V30 9701 C 919.419 0.792071 -3.67972 0
M  V30 9702 C 918.566 -0.099756 -2.77121 0
M  V30 9703 H 921.517 -0.521729 -1.49879 0
M  V30 9704 H 921.538 1.18977 -3.61421 0
M  V30 9705 H 921.05 -0.622075 -3.83082 0
M  V30 9706 H 919.151 1.77986 -3.27341 0
M  V30 9707 H 919.264 0.611661 -4.75179 0
M  V30 9708 H 917.628 0.420909 -2.51198 0
M  V30 9709 H 918.411 -1.07333 -3.2609 0
M  V30 9710 N 920.856 1.57574 -0.0284266 0
M  V30 9711 C 922.102 1.92884 0.645544 0
M  V30 9712 C 922.457 0.905203 1.69776 0
M  V30 9713 O 921.75 -0.0788509 1.91438 0
M  V30 9714 C 921.944 3.32699 1.3056 0
M  V30 9715 C 921.773 4.48568 0.318848 0
M  V30 9716 C 920.543 5.05235 -0.0810373 0
M  V30 9717 C 922.741 5.12528 -0.426575 0
M  V30 9718 N 920.723 6.04626 -1.06303 0
M  V30 9719 C 922.094 6.07013 -1.26235 0
M  V30 9720 C 924.149 4.95509 -0.48735 0
M  V30 9721 C 922.852 6.8631 -2.15341 0
M  V30 9722 C 924.878 5.75414 -1.36575 0
M  V30 9723 C 924.24 6.69514 -2.1893 0
M  V30 9724 H 920.339 0.753677 0.208555 0
M  V30 9725 H 922.923 1.94466 -0.095439 0
M  V30 9726 H 921.094 3.31938 2.01673 0
M  V30 9727 H 922.826 3.55359 1.93655 0
M  V30 9728 H 919.581 4.72691 0.293264 0
M  V30 9729 H 920.005 6.59012 -1.55025 0
M  V30 9730 H 924.647 4.22584 0.135112 0
M  V30 9731 H 922.365 7.58541 -2.78642 0
M  V30 9732 H 925.951 5.64279 -1.41705 0
M  V30 9733 H 924.831 7.30266 -2.85799 0
M  V30 9734 N 922.334 -0.244713 1.55689 0
M  V30 9735 C 923.582 -0.970525 1.77272 0
M  V30 9736 C 923.903 -1.85771 0.592804 0
M  V30 9737 O 923.173 -1.91952 -0.391323 0
M  V30 9738 H 921.753 -0.361342 0.653789 0
M  V30 9739 H 924.415 -0.262134 1.93129 0
M  V30 9740 H 923.511 -1.59096 2.68505 0
M  V30 9741 N 923.813 -1.49104 -0.510467 0
M  V30 9742 C 924.743 -1.67981 -1.62187 0
M  V30 9743 C 925.724 -0.528529 -1.6168 0
M  V30 9744 O 926.909 -0.763305 -1.7857 0
M  V30 9745 C 924.039 -1.73755 -3.0071 0
M  V30 9746 C 922.993 -2.88579 -3.1608 0
M  V30 9747 C 922.319 -2.79457 -4.5586 0
M  V30 9748 C 923.619 -4.29638 -2.97 0
M  V30 9749 H 925.313 -2.61029 -1.46643 0
M  V30 9750 H 922.859 -1.25615 -0.704042 0
M  V30 9751 H 924.812 -1.85548 -3.78352 0
M  V30 9752 H 923.536 -0.772996 -3.17321 0
M  V30 9753 H 922.195 -2.76372 -2.40861 0
M  V30 9754 H 921.843 -1.80929 -4.69333 0
M  V30 9755 H 921.543 -3.56518 -4.67086 0
M  V30 9756 H 923.067 -2.93245 -5.35574 0
M  V30 9757 H 924.481 -4.42575 -3.64418 0
M  V30 9758 H 922.878 -5.07847 -3.19704 0
M  V30 9759 H 923.948 -4.44741 -1.93219 0
M  V30 9760 N 925.291 0.760815 -1.38019 0
M  V30 9761 C 926.537 1.52109 -1.35034 0
M  V30 9762 C 926.892 1.92302 0.0615509 0
M  V30 9763 O 926.185 1.62028 1.02261 0
M  V30 9764 C 926.379 2.79024 -2.23339 0
M  V30 9765 C 926.208 2.51238 -3.72974 0
M  V30 9766 C 924.978 2.44818 -4.42032 0
M  V30 9767 C 927.176 2.18499 -4.65578 0
M  V30 9768 N 925.158 2.09232 -5.77144 0
M  V30 9769 C 926.529 1.93143 -5.89148 0
M  V30 9770 C 928.584 2.04747 -4.53854 0
M  V30 9771 C 927.287 1.55423 -7.02308 0
M  V30 9772 C 929.313 1.68428 -5.66909 0
M  V30 9773 C 928.675 1.43939 -6.89537 0
M  V30 9774 H 924.774 0.556482 -0.54941 0
M  V30 9775 H 927.358 0.886614 -1.73341 0
M  V30 9776 H 925.529 3.40292 -1.87232 0
M  V30 9777 H 927.261 3.45016 -2.11533 0
M  V30 9778 H 924.016 2.61045 -3.95161 0
M  V30 9779 H 924.44 1.94104 -6.48577 0
M  V30 9780 H 929.082 2.22358 -3.59607 0
M  V30 9781 H 926.8 1.36551 -7.96479 0
M  V30 9782 H 930.386 1.5843 -5.59814 0
M  V30 9783 H 929.266 1.16253 -7.75535 0
M  V30 9784 N 926.769 1.22769 0.988202 0
M  V30 9785 C 927.716 1.00195 2.07917 0
M  V30 9786 C 928.686 -0.0779391 1.65917 0
M  V30 9787 O 929.871 0.0726005 1.90662 0
M  V30 9788 C 927.011 0.590853 3.40004 0
M  V30 9789 C 926.124 1.74202 3.9532 0
M  V30 9790 C 925.259 1.27846 5.15586 0
M  V30 9791 C 924.298 2.40087 5.63049 0
M  V30 9792 N 923.435 1.94744 6.74551 0
M  V30 9793 H 928.275 1.93581 2.26562 0
M  V30 9794 H 925.812 0.96448 1.11068 0
M  V30 9795 H 927.77 0.333653 4.15864 0
M  V30 9796 H 926.4 -0.306007 3.21346 0
M  V30 9797 H 925.452 2.11342 3.16289 0
M  V30 9798 H 926.764 2.58612 4.26522 0
M  V30 9799 H 925.918 0.978919 5.9875 0
M  V30 9800 H 924.657 0.404617 4.86019 0
M  V30 9801 H 923.662 2.70824 4.78471 0
M  V30 9802 H 924.887 3.27995 5.9464 0
M  V30 9803 H 922.833 1.09729 6.46758 0
M  V30 9804 H 922.75 2.72718 7.05096 0
M  V30 9805 H 924.018 1.67873 7.61209 0
M  V30 9806 N 928.247 -1.18576 1.03814 0
M  V30 9807 C 929.195 -2.24166 0.620678 0
M  V30 9808 C 930.189 -1.65718 -0.351282 0
M  V30 9809 O 931.395 -1.78665 -0.218848 0
M  V30 9810 H 927.77 -0.729522 0.182487 0
M  V30 9811 H 929.741 -2.56686 1.52166 0
M  V30 9812 C 928.49 -3.477 -0.00307331 0
M  V30 9813 H 927.813 -3.92969 0.735874 0
M  V30 9814 H 929.253 -4.23214 -0.257988 0
M  V30 9815 C 927.712 -3.12757 -1.2524 0
M  V30 9816 O 928.242 -3.26261 -2.34344 0
M  V30 9817 N 926.448 -2.67104 -1.14471 0
M  V30 9818 H 925.995 -2.56316 -0.256873 0
M  V30 9819 H 925.953 -2.44096 -1.98153 0
M  V30 9820 N 929.725 -0.817259 -1.34754 0
M  V30 9821 C 930.675 -0.207585 -2.27053 0
M  V30 9822 C 931.659 0.624836 -1.48272 0
M  V30 9823 O 932.851 0.480344 -1.70358 0
M  V30 9824 C 929.98 0.634281 -3.3739 0
M  V30 9825 C 929.066 -0.208456 -4.23587 0
M  V30 9826 N 929.457 -1.2767 -4.89422 0
M  V30 9827 C 927.755 0.00815096 -4.45999 0
M  V30 9828 C 928.456 -1.79209 -5.53407 0
M  V30 9829 N 927.432 -1.09686 -5.32419 0
M  V30 9830 H 931.234 -1.0248 -2.75454 0
M  V30 9831 H 928.748 -0.659492 -1.48406 0
M  V30 9832 H 930.745 1.08718 -4.02475 0
M  V30 9833 H 929.405 1.44972 -2.90539 0
M  V30 9834 H 930.416 -1.65945 -4.90594 0
M  V30 9835 H 927.093 0.791879 -4.09921 0
M  V30 9836 H 928.483 -2.68548 -6.15899 0
M  V30 9837 N 931.203 1.46865 -0.571711 0
M  V30 9838 C 932.449 2.0273 -0.0531858 0
M  V30 9839 C 932.782 1.44353 1.29907 0
M  V30 9840 O 932.057 0.604488 1.84868 0
M  V30 9841 C 932.34 3.60092 0.0243831 0
M  V30 9842 C 932.193 4.28874 -1.35599 0
M  V30 9843 C 933.512 4.33994 0.730563 0
M  V30 9844 H 930.631 0.736706 -0.0208018 0
M  V30 9845 H 933.273 1.75132 -0.736794 0
M  V30 9846 H 931.423 3.83736 0.606565 0
M  V30 9847 H 933.095 4.16527 -1.98249 0
M  V30 9848 H 931.338 3.88664 -1.92674 0
M  V30 9849 H 932.009 5.37561 -1.25429 0
M  V30 9850 H 934.485 4.1543 0.236098 0
M  V30 9851 H 933.361 5.43699 0.753836 0
M  V30 9852 H 933.622 4.04257 1.78967 0
M  V30 9853 N 932.681 0.308908 1.54543 0
M  V30 9854 C 933.644 -0.550857 2.22482 0
M  V30 9855 C 934.644 -1.0551 1.21344 0
M  V30 9856 O 935.834 -0.949866 1.46025 0
M  V30 9857 C 932.966 -1.76354 2.9174 0
M  V30 9858 H 934.159 0.0428395 2.99869 0
M  V30 9859 H 931.712 0.059825 1.56185 0
M  V30 9860 H 932.447 -2.39686 2.18451 0
M  V30 9861 H 932.232 -1.40954 3.65889 0
M  V30 9862 H 933.722 -2.37417 3.43545 0
M  V30 9863 N 934.159 -1.57557 0.0367827 0
M  V30 9864 C 935.089 -2.13712 -0.940719 0
M  V30 9865 C 936.07 -1.05515 -1.33419 0
M  V30 9866 O 937.255 -1.33385 -1.41146 0
M  V30 9867 C 934.385 -2.67043 -2.22048 0
M  V30 9868 C 933.339 -3.80096 -1.96752 0
M  V30 9869 C 932.665 -4.19886 -3.31059 0
M  V30 9870 C 933.965 -5.05848 -1.30058 0
M  V30 9871 H 935.659 -2.9564 -0.473033 0
M  V30 9872 H 933.205 -1.42214 -0.226089 0
M  V30 9873 H 935.158 -3.04964 -2.90818 0
M  V30 9874 H 933.882 -1.82287 -2.70996 0
M  V30 9875 H 932.541 -3.42625 -1.30398 0
M  V30 9876 H 932.189 -3.32101 -3.77781 0
M  V30 9877 H 931.889 -4.96073 -3.14937 0
M  V30 9878 H 933.413 -4.60395 -4.01084 0
M  V30 9879 H 934.827 -5.41306 -1.8884 0
M  V30 9880 H 933.224 -5.87084 -1.24309 0
M  V30 9881 H 934.294 -4.84122 -0.274591 0
M  V30 9882 N 935.637 0.236453 -1.55816 0
M  V30 9883 C 936.6 1.27633 -1.90375 0
M  V30 9884 C 937.6 1.40557 -0.781048 0
M  V30 9885 O 938.79 1.39078 -1.04895 0
M  V30 9886 C 935.922 2.65247 -2.14142 0
M  V30 9887 H 937.115 0.982019 -2.83366 0
M  V30 9888 H 934.668 0.476215 -1.48869 0
M  V30 9889 H 935.403 2.99801 -1.23653 0
M  V30 9890 H 935.188 2.57246 -2.95917 0
M  V30 9891 H 936.678 3.40313 -2.42026 0
M  V30 9892 N 937.115 1.49373 0.502552 0
M  V30 9893 C 938.355 1.60398 1.26696 0
M  V30 9894 C 938.719 0.283599 1.89894 0
M  V30 9895 O 939.92 0.269022 2.6745 0
M  V30 9896 C 938.191 2.72998 2.30666 0
M  V30 9897 S 939.75 3.03964 3.16466 0
M  V30 9898 H 936.568 0.565781 0.430596 0
M  V30 9899 H 939.17 1.87024 0.569418 0
M  V30 9900 H 937.874 3.67458 1.82765 0
M  V30 9901 H 937.405 2.4836 3.05091 0
M  V30 9902 H 939.42 2.45367 4.31288 0
M  V30 9903 N 938.594 -0.753485 1.38421 0
M  V30 9904 C 939.527 -1.87525 1.30037 0
M  V30 9905 C 940.505 -1.6163 0.177379 0
M  V30 9906 O 941.689 -1.85132 0.354716 0
M  V30 9907 C 938.816 -3.23138 1.01485 0
M  V30 9908 C 937.862 -3.67921 2.15723 0
M  V30 9909 S 938.695 -3.79447 3.77863 0
M  V30 9910 C 939.851 -5.17879 3.51499 0
M  V30 9911 H 940.084 -1.94351 2.24978 0
M  V30 9912 H 937.617 -0.916475 1.24258 0
M  V30 9913 H 939.575 -4.01455 0.856959 0
M  V30 9914 H 938.236 -3.13991 0.0826199 0
M  V30 9915 H 937.429 -4.66287 1.91292 0
M  V30 9916 H 937.031 -2.96758 2.2762 0
M  V30 9917 H 939.323 -6.03636 3.0762 0
M  V30 9918 H 940.266 -5.47331 4.49259 0
M  V30 9919 H 940.674 -4.86681 2.8601 0
M  V30 9920 N 940.072 -1.23292 -0.981677 0
M  V30 9921 C 941.321 -1.05832 -1.71705 0
M  V30 9922 C 941.634 0.40514 -1.91358 0
M  V30 9923 O 942.84 0.699645 -2.6233 0
M  V30 9924 C 941.296 -1.84532 -3.08992 0
M  V30 9925 C 940.904 -3.35199 -2.9723 0
M  V30 9926 C 942.648 -1.75557 -3.86497 0
M  V30 9927 C 940.555 -4.06296 -4.29741 0
M  V30 9928 H 939.485 -0.39241 -0.64384 0
M  V30 9929 H 942.136 -1.47247 -1.09502 0
M  V30 9930 H 940.518 -1.35923 -3.71942 0
M  V30 9931 H 941.692 -3.91286 -2.43377 0
M  V30 9932 H 940.007 -3.44973 -2.332 0
M  V30 9933 H 942.604 -2.25989 -4.84596 0
M  V30 9934 H 942.947 -0.718101 -4.1006 0
M  V30 9935 H 943.48 -2.21771 -3.30246 0
M  V30 9936 H 940.219 -5.10344 -4.11375 0
M  V30 9937 H 939.739 -3.54997 -4.83464 0
M  V30 9938 H 941.418 -4.12519 -4.98434 0
M  V30 9939 N 941.55 1.18024 -1.04442 0
M  V30 9940 C 942.796 1.88377 -0.751133 0
M  V30 9941 C 943.129 1.80377 0.719571 0
M  V30 9942 O 942.404 1.20662 1.52548 0
M  V30 9943 C 942.687 3.38708 -1.22265 0
M  V30 9944 C 942.54 3.55499 -2.75574 0
M  V30 9945 C 943.859 4.32475 -0.815688 0
M  V30 9946 H 940.978 0.684037 -0.27434 0
M  V30 9947 H 943.62 1.38837 -1.29709 0
M  V30 9948 H 941.77 3.8103 -0.758192 0
M  V30 9949 H 943.442 3.22244 -3.30086 0
M  V30 9950 H 941.685 2.98028 -3.15217 0
M  V30 9951 H 942.356 4.60994 -3.03625 0
M  V30 9952 H 944.832 3.97953 -1.21542 0
M  V30 9953 H 943.708 5.36213 -1.17331 0
M  V30 9954 H 943.969 4.41207 0.280901 0
M  V30 9955 N 943.028 0.824394 1.34319 0
M  V30 9956 C 944.277 0.40956 1.97498 0
M  V30 9957 C 944.59 -1.03323 1.66083 0
M  V30 9958 O 945.796 -1.55205 2.22764 0
M  V30 9959 C 944.252 0.681384 3.53391 0
M  V30 9960 C 943.86 2.1379 3.93698 0
M  V30 9961 C 945.604 0.332788 4.23194 0
M  V30 9962 C 943.511 2.35453 5.42509 0
M  V30 9963 H 942.441 0.149409 0.739049 0
M  V30 9964 H 945.092 1.01095 1.5314 0
M  V30 9965 H 943.474 0.00980375 3.95999 0
M  V30 9966 H 944.648 2.84876 3.62191 0
M  V30 9967 H 942.963 2.44807 3.36836 0
M  V30 9968 H 945.56 0.472463 5.32609 0
M  V30 9969 H 945.903 -0.722862 4.09976 0
M  V30 9970 H 946.436 0.959005 3.86067 0
M  V30 9971 H 943.175 3.39529 5.60714 0
M  V30 9972 H 942.695 1.68912 5.75525 0
M  V30 9973 H 944.374 2.17885 6.09209 0
M  V30 9974 N 944.506 -1.46559 0.579492 0
M  V30 9975 C 945.753 -2.02399 0.0638418 0
M  V30 9976 C 946.081 -1.45135 -1.29484 0
M  V30 9977 O 945.336 -0.605061 -1.86112 0
M  V30 9978 C 945.635 -3.57357 -0.0552803 0
M  V30 9979 C 945.301 -4.33646 1.23539 0
M  V30 9980 C 943.963 -4.54207 1.589 0
M  V30 9981 C 946.315 -4.77476 2.08965 0
M  V30 9982 C 943.643 -5.1585 2.79492 0
M  V30 9983 C 945.995 -5.4045 3.2878 0
M  V30 9984 C 944.659 -5.5924 3.64427 0
M  V30 9985 H 943.929 -0.740632 0.0233614 0
M  V30 9986 H 946.576 -1.75968 0.755482 0
M  V30 9987 H 944.881 -3.82907 -0.83003 0
M  V30 9988 H 946.578 -3.98237 -0.469964 0
M  V30 9989 H 943.168 -4.17937 0.9501 0
M  V30 9990 H 947.352 -4.61349 1.8295 0
M  V30 9991 H 942.608 -5.28589 3.07252 0
M  V30 9992 H 946.782 -5.73371 3.95245 0
M  V30 9993 H 944.409 -6.06775 4.57961 0
M  V30 9994 N 945.984 -0.3171 -1.54377 0
M  V30 9995 C 946.914 0.544623 -2.2706 0
M  V30 9996 C 947.895 1.12469 -1.27611 0
M  V30 9997 O 949.08 1.15103 -1.56413 0
M  V30 9998 C 946.21 1.70879 -3.02353 0
M  V30 9999 C 945.164 1.25833 -4.09084 0
M  V30 10000 C 944.49 2.50894 -4.72182 0
M  V30 10001 C 945.79 0.377876 -5.20931 0
M  V30 10002 H 947.484 -0.0616372 -2.99337 0
M  V30 10003 H 945.03 -0.0310848 -1.43966 0
M  V30 10004 H 946.983 2.31787 -3.51927 0
M  V30 10005 H 945.707 2.34155 -2.27682 0
M  V30 10006 H 944.366 0.672228 -3.60384 0
M  V30 10007 H 944.014 3.12518 -3.94134 0
M  V30 10008 H 943.714 2.21447 -5.44275 0
M  V30 10009 H 945.238 3.12575 -5.24528 0
M  V30 10010 H 946.652 0.893056 -5.66302 0
M  V30 10011 H 945.049 0.176474 -5.9984 0
M  V30 10012 H 946.119 -0.592943 -4.81261 0
M  V30 10013 N 947.462 1.57535 -0.0451378 0
M  V30 10014 C 948.69 1.96761 0.639742 0
M  V30 10015 C 949.105 0.922405 1.64734 0
M  V30 10016 O 948.462 -0.0940535 1.82257 0
M  V30 10017 C 948.513 3.36066 1.33199 0
M  V30 10018 O 948.234 4.36579 0.364757 0
M  V30 10019 C 949.735 3.90015 2.1072 0
M  V30 10020 H 946.955 0.64769 0.175324 0
M  V30 10021 H 949.499 2.04206 -0.109651 0
M  V30 10022 H 947.654 3.2979 2.03266 0
M  V30 10023 H 948.068 5.17432 0.858168 0
M  V30 10024 H 949.542 4.89785 2.54586 0
M  V30 10025 H 950.019 3.25117 2.95288 0
M  V30 10026 H 950.625 3.99609 1.45577 0
M  V30 10027 N 948.94 -0.228186 1.55939 0
M  V30 10028 C 950.189 -0.951563 1.77843 0
M  V30 10029 C 950.502 -1.85763 0.612501 0
M  V30 10030 O 951.708 -2.61916 0.715006 0
M  V30 10031 C 950.164 -1.74216 3.14923 0
M  V30 10032 C 949.772 -0.882569 4.39221 0
M  V30 10033 C 951.516 -2.45715 3.46156 0
M  V30 10034 C 949.423 -1.67014 5.67327 0
M  V30 10035 H 948.353 -0.359035 0.663031 0
M  V30 10036 H 951.004 -0.205636 1.82344 0
M  V30 10037 H 949.386 -2.53075 3.0458 0
M  V30 10038 H 950.56 -0.13499 4.60602 0
M  V30 10039 H 948.875 -0.280022 4.15457 0
M  V30 10040 H 951.472 -3.05127 4.39092 0
M  V30 10041 H 951.815 -3.1827 2.68346 0
M  V30 10042 H 952.348 -1.73852 3.57799 0
M  V30 10043 H 949.087 -0.987985 6.48012 0
M  V30 10044 H 948.607 -2.3925 5.50018 0
M  V30 10045 H 950.286 -2.23252 6.07262 0
M  V30 10046 N 950.418 -1.49637 -0.494624 0
M  V30 10047 C 951.381 -1.66252 -1.57775 0
M  V30 10048 C 952.381 -0.534054 -1.51672 0
M  V30 10049 O 953.571 -0.800637 -1.54711 0
M  V30 10050 C 950.703 -1.66584 -2.97426 0
M  V30 10051 H 951.896 -2.62864 -1.4437 0
M  V30 10052 H 949.449 -1.38764 -0.719323 0
M  V30 10053 H 950.184 -0.715798 -3.16302 0
M  V30 10054 H 949.969 -2.48543 -3.03264 0
M  V30 10055 H 951.459 -1.81474 -3.76108 0
M  V30 10056 N 951.896 0.746133 -1.38819 0
M  V30 10057 C 953.126 1.53316 -1.38484 0
M  V30 10058 C 953.534 1.89183 0.0253332 0
M  V30 10059 O 952.877 1.5382 1.00424 0
M  V30 10060 C 952.939 2.85623 -2.18311 0
M  V30 10061 C 952.603 2.72253 -3.67052 0
M  V30 10062 C 953.6 2.41547 -4.60381 0
M  V30 10063 C 951.285 2.89472 -4.10501 0
M  V30 10064 C 953.279 2.28226 -5.9514 0
M  V30 10065 C 950.966 2.7577 -5.45338 0
M  V30 10066 C 951.964 2.45191 -6.37472 0
M  V30 10067 O 951.652 2.31561 -7.69828 0
M  V30 10068 H 951.384 0.480763 -0.475229 0
M  V30 10069 H 953.938 0.93057 -1.83111 0
M  V30 10070 H 952.168 3.481 -1.68414 0
M  V30 10071 H 953.857 3.47178 -2.10291 0
M  V30 10072 H 954.623 2.27905 -4.28117 0
M  V30 10073 H 950.502 3.12269 -3.3913 0
M  V30 10074 H 954.046 2.04279 -6.6702 0
M  V30 10075 H 949.943 2.88987 -5.77197 0
M  V30 10076 H 950.711 2.46716 -7.80432 0
M  V30 10077 N 953.375 1.23811 0.975125 0
M  V30 10078 C 954.305 1.04846 2.08638 0
M  V30 10079 C 955.286 -0.0362859 1.70061 0
M  V30 10080 O 956.471 0.12937 1.93769 0
M  V30 10081 C 953.601 0.644534 3.41267 0
M  V30 10082 C 952.555 1.67722 3.93768 0
M  V30 10083 C 951.881 1.12857 5.22654 0
M  V30 10084 C 953.181 3.07147 4.22443 0
M  V30 10085 H 954.875 1.97795 2.24761 0
M  V30 10086 H 952.421 0.952397 1.08006 0
M  V30 10087 H 954.374 0.498887 4.18436 0
M  V30 10088 H 953.098 -0.320641 3.25022 0
M  V30 10089 H 951.757 1.81095 3.18748 0
M  V30 10090 H 951.405 0.154227 5.02764 0
M  V30 10091 H 951.105 1.81862 5.58749 0
M  V30 10092 H 952.629 0.994891 6.0244 0
M  V30 10093 H 954.043 2.97045 4.90344 0
M  V30 10094 H 952.44 3.73437 4.6975 0
M  V30 10095 H 953.51 3.55743 3.29507 0
M  V30 10096 N 954.853 -1.17469 1.05066 0
M  V30 10097 C 955.8 -2.21443 0.650512 0
M  V30 10098 C 956.77 -1.62441 -0.346702 0
M  V30 10099 O 957.955 -1.89305 -0.238404 0
M  V30 10100 C 955.095 -3.45087 0.0301014 0
M  V30 10101 C 954.208 -4.18385 1.07599 0
M  V30 10102 C 953.343 -5.29513 0.423038 0
M  V30 10103 C 952.382 -5.94596 1.45333 0
M  V30 10104 N 951.519 -6.97241 0.824623 0
M  V30 10105 H 956.359 -2.55025 1.54163 0
M  V30 10106 H 953.896 -1.25274 0.771032 0
M  V30 10107 H 955.854 -4.15754 -0.347032 0
M  V30 10108 H 954.484 -3.12093 -0.824481 0
M  V30 10109 H 953.536 -3.46446 1.57097 0
M  V30 10110 H 954.848 -4.62899 1.85813 0
M  V30 10111 H 954.002 -6.067 -0.00774975 0
M  V30 10112 H 952.741 -4.86129 -0.391092 0
M  V30 10113 H 951.746 -5.16142 1.89415 0
M  V30 10114 H 952.971 -6.40061 2.26934 0
M  V30 10115 H 950.917 -6.55993 0.0309804 0
M  V30 10116 H 950.834 -7.40059 1.54432 0
M  V30 10117 H 952.102 -7.78375 0.418567 0
M  V30 10118 N 956.331 -0.831506 -1.3388 0
M  V30 10119 C 957.261 -0.274378 -2.31882 0
M  V30 10120 C 958.242 0.613872 -1.58637 0
M  V30 10121 O 959.427 0.538961 -1.86571 0
M  V30 10122 C 956.557 0.557498 -3.42796 0
M  V30 10123 C 955.511 -0.234337 -4.27358 0
M  V30 10124 C 954.837 0.720825 -5.29819 0
M  V30 10125 C 956.137 -1.44732 -5.01847 0
M  V30 10126 H 957.831 -1.09322 -2.78728 0
M  V30 10127 H 955.377 -0.527136 -1.34005 0
M  V30 10128 H 957.33 0.957501 -4.10378 0
M  V30 10129 H 956.054 1.40947 -2.94621 0
M  V30 10130 H 954.713 -0.61581 -3.61391 0
M  V30 10131 H 954.361 1.569 -4.77903 0
M  V30 10132 H 954.061 0.195171 -5.87276 0
M  V30 10133 H 955.585 1.1185 -6.00268 0
M  V30 10134 H 956.999 -1.12087 -5.62236 0
M  V30 10135 H 955.396 -1.90923 -5.68919 0
M  V30 10136 H 956.466 -2.22099 -4.31045 0
M  V30 10137 N 957.809 1.4625 -0.587256 0
M  V30 10138 C 958.739 2.33132 0.131076 0
M  V30 10139 C 959.72 1.45619 0.879158 0
M  V30 10140 O 960.905 1.74428 0.853723 0
M  V30 10141 C 958.035 3.27975 1.14236 0
M  V30 10142 C 956.989 4.24965 0.508819 0
M  V30 10143 C 956.315 5.09349 1.62689 0
M  V30 10144 C 957.615 5.19322 -0.55694 0
M  V30 10145 H 959.309 2.93442 -0.594333 0
M  V30 10146 H 956.855 1.41106 -0.287263 0
M  V30 10147 H 958.808 3.87614 1.65328 0
M  V30 10148 H 957.532 2.65781 1.8981 0
M  V30 10149 H 956.191 3.66595 0.0189337 0
M  V30 10150 H 955.839 4.43537 2.37242 0
M  V30 10151 H 955.539 5.75036 1.20861 0
M  V30 10152 H 957.063 5.71852 2.14049 0
M  V30 10153 H 958.477 5.73151 -0.130903 0
M  V30 10154 H 956.874 5.93376 -0.895801 0
M  V30 10155 H 957.944 4.62979 -1.44148 0
M  V30 10156 N 959.287 0.325282 1.54207 0
M  V30 10157 C 960.534 -0.276775 2.006 0
M  V30 10158 C 960.862 -1.52007 1.21343 0
M  V30 10159 O 960.117 -1.93627 0.284104 0
M  V30 10160 C 960.416 -0.654292 3.5136 0
M  V30 10161 C 960.082 0.490023 4.48229 0
M  V30 10162 C 958.744 0.804104 4.74434 0
M  V30 10163 C 961.096 1.2586 5.05775 0
M  V30 10164 C 958.424 1.88945 5.55443 0
M  V30 10165 C 960.776 2.33405 5.87967 0
M  V30 10166 C 959.44 2.65393 6.12473 0
M  V30 10167 H 958.71 -0.101279 0.734046 0
M  V30 10168 H 961.357 0.449416 1.86152 0
M  V30 10169 H 959.662 -1.46093 3.63544 0
M  V30 10170 H 961.359 -1.13171 3.84699 0
M  V30 10171 H 957.949 0.235147 4.27954 0
M  V30 10172 H 962.133 1.02921 4.85511 0
M  V30 10173 H 957.389 2.14174 5.7266 0
M  V30 10174 H 961.563 2.93402 6.31576 0
M  V30 10175 H 959.19 3.49622 6.75032 0
M  V30 10176 N 960.765 -1.57509 0.0534917 0
M  V30 10177 C 961.695 -2.14698 -0.917999 0
M  V30 10178 C 962.676 -1.06924 -1.32292 0
M  V30 10179 O 963.861 -1.34875 -1.39723 0
M  V30 10180 C 960.991 -2.69383 -2.19203 0
M  V30 10181 C 959.945 -3.82161 -1.9271 0
M  V30 10182 C 959.271 -4.23373 -3.26587 0
M  V30 10183 C 960.571 -5.07199 -1.24686 0
M  V30 10184 H 962.265 -2.96125 -0.44165 0
M  V30 10185 H 959.811 -1.42446 -0.210993 0
M  V30 10186 H 961.764 -3.08031 -2.87567 0
M  V30 10187 H 960.488 -1.85151 -2.69048 0
M  V30 10188 H 959.147 -3.43989 -1.26757 0
M  V30 10189 H 958.795 -3.36089 -3.74237 0
M  V30 10190 H 958.495 -4.99385 -3.09658 0
M  V30 10191 H 960.019 -4.64623 -3.96178 0
M  V30 10192 H 961.433 -5.43279 -1.83088 0
M  V30 10193 H 959.83 -5.88369 -1.18076 0
M  V30 10194 H 960.9 -4.84386 -0.223227 0
M  V30 10195 N 962.243 0.219913 -1.56058 0
M  V30 10196 C 963.19 1.27254 -1.92549 0
M  V30 10197 C 964.16 1.46493 -0.782883 0
M  V30 10198 O 965.345 1.60035 -1.03892 0
M  V30 10199 C 962.485 2.61756 -2.24896 0
M  V30 10200 C 961.598 2.50302 -3.52098 0
M  V30 10201 C 960.733 3.77338 -3.73884 0
M  V30 10202 C 959.772 3.60613 -4.94595 0
M  V30 10203 N 958.909 4.79603 -5.12763 0
M  V30 10204 H 963.749 0.954352 -2.82305 0
M  V30 10205 H 961.286 0.459928 -1.39725 0
M  V30 10206 H 963.244 3.40082 -2.4166 0
M  V30 10207 H 961.874 2.91668 -1.38311 0
M  V30 10208 H 960.926 1.63401 -3.43517 0
M  V30 10209 H 962.238 2.33866 -4.40577 0
M  V30 10210 H 961.392 4.64108 -3.90754 0
M  V30 10211 H 960.131 3.96702 -2.83689 0
M  V30 10212 H 959.136 2.72228 -4.77674 0
M  V30 10213 H 960.361 3.42719 -5.86277 0
M  V30 10214 H 958.307 4.99277 -4.2551 0
M  V30 10215 H 958.224 4.65899 -5.95377 0
M  V30 10216 H 959.492 5.67794 -5.34069 0
M  V30 10217 N 963.721 1.49897 0.486681 0
M  V30 10218 C 964.668 1.67619 1.58658 0
M  V30 10219 C 965.638 0.517537 1.57831 0
M  V30 10220 O 966.823 0.746272 1.756 0
M  V30 10221 C 963.963 1.762 2.96728 0
M  V30 10222 C 963.076 3.03465 3.07462 0
M  V30 10223 C 962.211 3.02937 4.36351 0
M  V30 10224 C 961.25 4.24721 4.4077 0
M  V30 10225 N 960.387 4.22021 5.61108 0
M  V30 10226 H 965.227 2.61528 1.42853 0
M  V30 10227 H 962.764 1.29657 0.694807 0
M  V30 10228 H 964.722 1.79156 3.76774 0
M  V30 10229 H 963.352 0.857452 3.11203 0
M  V30 10230 H 962.404 3.10054 2.20387 0
M  V30 10231 H 963.716 3.93454 3.06586 0
M  V30 10232 H 962.87 3.04536 5.24731 0
M  V30 10233 H 961.609 2.10751 4.39813 0
M  V30 10234 H 960.614 4.23352 3.5079 0
M  V30 10235 H 961.839 5.18116 4.39013 0
M  V30 10236 H 959.785 3.3268 5.65385 0
M  V30 10237 H 959.702 5.05761 5.61909 0
M  V30 10238 H 960.97 4.27743 6.51656 0
M  V30 10239 N 965.199 -0.738761 1.39212 0
M  V30 10240 C 966.429 -1.5258 1.39295 0
M  V30 10241 C 966.837 -1.89194 -0.0153 0
M  V30 10242 O 966.18 -1.5435 -0.996073 0
M  V30 10243 C 966.242 -2.84462 2.19822 0
M  V30 10244 C 965.906 -2.70303 3.68491 0
M  V30 10245 C 966.903 -2.39102 4.61656 0
M  V30 10246 C 964.588 -2.87291 4.1203 0
M  V30 10247 C 966.582 -2.25066 5.96342 0
M  V30 10248 C 964.269 -2.72874 5.46793 0
M  V30 10249 C 965.267 -2.41807 6.38763 0
M  V30 10250 O 964.955 -2.27475 7.71045 0
M  V30 10251 H 964.687 -0.478236 0.477772 0
M  V30 10252 H 967.241 -0.920846 1.83602 0
M  V30 10253 H 965.471 -3.47202 1.70257 0
M  V30 10254 H 967.16 -3.46058 2.12129 0
M  V30 10255 H 967.926 -2.25632 4.2932 0
M  V30 10256 H 963.805 -3.10466 3.40781 0
M  V30 10257 H 967.349 -2.00739 6.68094 0
M  V30 10258 H 963.246 -2.85922 5.78722 0
M  V30 10259 H 964.014 -2.42574 7.81729 0
M  V30 10260 N 966.677 -1.24326 -0.968545 0
M  V30 10261 C 967.902 -1.1104 -1.75171 0
M  V30 10262 C 968.327 0.333109 -1.85127 0
M  V30 10263 O 967.685 1.24115 -1.32156 0
M  V30 10264 C 967.733 -1.75397 -3.15068 0
M  V30 10265 O 966.837 -1.02417 -3.9948 0
M  V30 10266 H 966.178 -0.388488 -0.538491 0
M  V30 10267 H 968.708 -1.64617 -1.215 0
M  V30 10268 H 968.718 -1.8112 -3.65595 0
M  V30 10269 H 967.393 -2.80427 -3.07138 0
M  V30 10270 H 965.97 -1.04475 -3.57966 0
M  V30 10271 O 968.194 1.10088 -1.18164 0
M  V30 10272 H 968.885 1.70287 -0.923145 0
M  V30 END ATOM
M  V30 BEGIN BOND
M  V30 END BOND
M  V30 END CTAB
M  END
$$$$
