drugbank_target|P36897 TGF-beta receptor type-1 (DB03921; DB04434; DB04480; DB07152; DB07267; DB08450; DB12010)
 OpenBabel12092120393D

  0  0  0     0  0            999 V3000
M  V30 BEGIN CTAB
M  V30 COUNTS 7863 7943 0 0 0
M  V30 BEGIN ATOM
M  V30 1 H -0.908 1.98254 -0.117106 0
M  V30 2 N 0 1.576 0 0
M  V30 3 C 0.933 2.03868 1.02534 0
M  V30 4 C 1.911 0.928543 1.3348 0
M  V30 5 O 3.095 1.19667 1.45644 0
M  V30 6 C 0.222 2.43627 2.35294 0
M  V30 7 C -0.732 3.65373 2.2001 0
M  V30 8 S 0.101 5.13292 1.52614 0
M  V30 9 C 1.257 5.56322 2.86805 0
M  V30 10 H 1.49 2.90518 0.631377 0
M  V30 11 H -0.977 1.52953 0.210867 0
M  V30 12 H 0.981 2.67203 3.11629 0
M  V30 13 H -0.358 1.57376 2.7183 0
M  V30 14 H -1.165 3.90944 3.18086 0
M  V30 15 H -1.563 3.418 1.51819 0
M  V30 16 H 0.729 5.58782 3.83104 0
M  V30 17 H 1.672 6.56266 2.65933 0
M  V30 18 H 2.08 4.83886 2.90714 0
M  V30 19 N 1.4781 -0.272755 1.55222 0
M  V30 20 C 2.3881 -1.35918 1.91216 0
M  V30 21 C 3.4041 -1.54026 0.809436 0
M  V30 22 O 4.5801 -1.68148 1.10852 0
M  V30 23 C 1.6451 -2.69834 2.17693 0
M  V30 24 C 0.7061 -2.6047 3.41253 0
M  V30 25 C -0.0609 -3.88 3.66458 0
M  V30 26 O 0.1621 -4.88693 2.94169 0
M  V30 27 O -0.9039 -3.88189 4.59992 0
M  V30 28 H 2.9221 -1.0839 2.83699 0
M  V30 29 H 0.5071 -0.471301 1.41771 0
M  V30 30 H 2.3891 -3.49017 2.36147 0
M  V30 31 H 1.0641 -2.97148 1.28392 0
M  V30 32 H -0.0289 -1.79663 3.28134 0
M  V30 33 H 1.3041 -2.38106 4.30774 0
M  V30 34 N 2.9562 -1.48159 -0.537278 0
M  V30 35 C 3.9192 -1.61665 -1.62472 0
M  V30 36 C 4.9192 -0.490395 -1.5314 0
M  V30 37 O 6.1092 -0.755998 -1.5694 0
M  V30 38 C 3.2412 -1.57997 -3.02076 0
M  V30 39 H 4.4342 -2.58621 -1.51839 0
M  V30 40 H 1.9872 -1.36647 -0.758771 0
M  V30 41 H 2.7222 -0.624913 -3.18222 0
M  V30 42 H 2.5072 -2.39755 -3.10258 0
M  V30 43 H 3.9972 -1.70627 -3.81151 0
M  V30 44 N 4.4343 0.785586 -1.36625 0
M  V30 45 C 5.3973 1.87999 -1.31107 0
M  V30 46 C 6.3973 1.59316 -0.217959 0
M  V30 47 O 7.5873 1.67656 -0.472977 0
M  V30 48 C 4.7193 3.24861 -1.03334 0
M  V30 49 H 5.9123 1.94307 -2.2844 0
M  V30 50 H 3.4653 0.983813 -1.21453 0
M  V30 51 H 4.2003 3.24235 -0.0647432 0
M  V30 52 H 3.9853 3.4707 -1.82441 0
M  V30 53 H 5.4753 4.04929 -1.02088 0
M  V30 54 N 5.9124 1.20967 1.01018 0
M  V30 55 C 7.1584 1.02526 1.74975 0
M  V30 56 C 7.4914 -0.4408 1.89131 0
M  V30 57 O 6.7664 -1.32718 1.42184 0
M  V30 58 C 7.0494 1.71699 3.1653 0
M  V30 59 C 6.9024 3.25791 3.10129 0
M  V30 60 C 8.2214 1.45531 4.15342 0
M  V30 61 H 5.3404 0.373863 0.635134 0
M  V30 62 H 7.9824 1.49071 1.17805 0
M  V30 63 H 6.1324 1.32128 3.65341 0
M  V30 64 H 7.8044 3.74697 2.69072 0
M  V30 65 H 6.0474 3.56363 2.47362 0
M  V30 66 H 6.7184 3.69353 4.10222 0
M  V30 67 H 9.1944 1.79872 3.75213 0
M  V30 68 H 8.0704 1.96453 5.1254 0
M  V30 69 H 8.3314 0.384237 4.40427 0
M  V30 70 N 7.3905 -1.2043 1.01659 0
M  V30 71 C 8.3535 -2.21433 0.591616 0
M  V30 72 C 9.3535 -1.57203 -0.338226 0
M  V30 73 O 10.5435 -1.73737 -0.126918 0
M  V30 74 C 7.6755 -3.40628 -0.136058 0
M  V30 75 H 8.8685 -2.60545 1.48514 0
M  V30 76 H 6.4215 -1.33893 0.806379 0
M  V30 77 H 7.1565 -3.07019 -1.04449 0
M  V30 78 H 6.9415 -3.88475 0.531917 0
M  V30 79 H 8.4315 -4.15475 -0.420735 0
M  V30 80 N 8.8686 -0.792821 -1.36206 0
M  V30 81 C 9.8316 -0.199459 -2.2833 0
M  V30 82 C 10.8316 0.605189 -1.48977 0
M  V30 83 O 12.0216 0.425685 -1.68919 0
M  V30 84 C 9.1536 0.723523 -3.33134 0
M  V30 85 H 10.3466 -1.01181 -2.82316 0
M  V30 86 H 7.8996 -0.562485 -1.45828 0
M  V30 87 H 8.6346 1.56008 -2.84309 0
M  V30 88 H 8.4196 0.148436 -3.91819 0
M  V30 89 H 9.9096 1.13344 -4.01924 0
M  V30 90 N 10.3467 1.47872 -0.545128 0
M  V30 91 C 11.7577 1.86384 -0.108581 0
M  V30 92 C 12.1087 1.45309 1.31832 0
M  V30 93 O 11.2337 0.850641 1.9898 0
M  V30 94 C 11.8287 3.38265 -0.190274 0
M  V30 95 C 10.3877 3.75914 0.191164 0
M  V30 96 C 9.5347 2.71926 -0.543273 0
M  V30 97 H 12.4857 1.39561 -0.755537 0
M  V30 98 H 12.5067 3.75831 0.594217 0
M  V30 99 H 12.0187 3.6813 -1.2289 0
M  V30 100 H 10.1197 3.51665 1.23136 0
M  V30 101 H 10.2327 4.78836 -0.158987 0
M  V30 102 H 8.5967 2.54697 0.0122495 0
M  V30 103 H 9.3797 3.04634 -1.58282 0
M  V30 104 N 11.8248 0.280983 1.55075 0
M  V30 105 C 13.2408 -0.0729964 1.59433 0
M  V30 106 C 13.4408 -1.5411 1.29817 0
M  V30 107 O 12.4968 -2.29086 1.06187 0
M  V30 108 C 13.8098 0.306921 2.9913 0
M  V30 109 C 15.3578 0.254023 3.11968 0
M  V30 110 C 15.8328 0.608467 4.5394 0
M  V30 111 N 17.3238 0.560241 4.59799 0
M  V30 112 C 18.0588 0.80722 5.6769 0
M  V30 113 N 17.5548 1.11912 6.83701 0
M  V30 114 N 19.3478 0.735623 5.57266 0
M  V30 115 H 11.4988 1.238 1.7259 0
M  V30 116 H 13.7618 0.500547 0.805082 0
M  V30 117 H 13.4678 1.32816 3.25657 0
M  V30 118 H 13.3418 -0.349363 3.75579 0
M  V30 119 H 15.7288 -0.75794 2.852 0
M  V30 120 H 15.8098 0.944649 2.37718 0
M  V30 121 H 15.4538 1.61814 4.81434 0
M  V30 122 H 15.3838 -0.104013 5.26497 0
M  V30 123 H 17.8748 0.329288 3.76463 0
M  V30 124 H 18.1878 1.29409 7.61888 0
M  V30 125 H 16.5328 1.15695 6.85303 0
M  V30 126 H 19.7238 0.491752 4.6551 0
M  V30 127 H 19.8968 0.931482 6.4127 0
M  V30 128 N 13.3029 -1.57598 0.00835791 0
M  V30 129 C 14.7139 -1.7892 -0.53333 0
M  V30 130 C 15.0649 -0.916609 -1.73473 0
M  V30 131 O 14.1899 -0.121336 -2.1606 0
M  V30 132 C 14.7849 -3.24488 -0.974313 0
M  V30 133 C 13.3439 -3.46878 -1.46125 0
M  V30 134 C 12.4909 -2.74157 -0.416302 0
M  V30 135 H 15.4419 -1.56958 0.234495 0
M  V30 136 H 15.4629 -3.3306 -1.83988 0
M  V30 137 H 14.9749 -3.87972 -0.099718 0
M  V30 138 H 13.0759 -2.8862 -2.35646 0
M  V30 139 H 13.1889 -4.55572 -1.48295 0
M  V30 140 H 11.5529 -2.39022 -0.87981 0
M  V30 141 H 12.3359 -3.40345 0.44947 0
M  V30 142 N 14.781 0.264519 -1.55364 0
M  V30 143 C 16.197 0.61215 -1.47394 0
M  V30 144 C 16.397 1.89134 -0.695018 0
M  V30 145 O 15.453 2.51563 -0.217275 0
M  V30 146 C 16.766 0.731235 -2.91674 0
M  V30 147 C 18.314 0.82473 -3.01939 0
M  V30 148 C 18.789 0.975522 -4.4749 0
M  V30 149 N 20.28 1.04083 -4.51354 0
M  V30 150 C 21.015 1.17646 -5.61201 0
M  V30 151 N 20.511 1.27874 -6.80896 0
M  V30 152 N 22.304 1.20823 -5.48961 0
M  V30 153 H 14.455 -0.575456 -2.04456 0
M  V30 154 H 16.718 -0.196099 -0.927496 0
M  V30 155 H 16.424 -0.138392 -3.51428 0
M  V30 156 H 16.298 1.60883 -3.41169 0
M  V30 157 H 18.685 1.68482 -2.42276 0
M  V30 158 H 18.766 -0.0776479 -2.55682 0
M  V30 159 H 18.41 0.120058 -5.07758 0
M  V30 160 H 18.34 1.89268 -4.91412 0
M  V30 161 H 20.831 0.973846 -3.65136 0
M  V30 162 H 21.144 1.38081 -7.60364 0
M  V30 163 H 19.489 1.24863 -6.83692 0
M  V30 164 H 22.68 1.12469 -4.54388 0
M  V30 165 H 22.853 1.31049 -6.3461 0
M  V30 166 N 16.2591 1.48442 0.529413 0
M  V30 167 C 17.1891 1.65902 1.64313 0
M  V30 168 C 18.1701 0.507897 1.6234 0
M  V30 169 O 19.3551 0.740503 1.79528 0
M  V30 170 C 16.4851 1.69911 3.02898 0
M  V30 171 C 15.4391 2.8453 3.19729 0
M  V30 172 C 14.7651 2.73629 4.59381 0
M  V30 173 C 16.0651 4.25821 3.02447 0
M  V30 174 H 17.7591 2.5914 1.49955 0
M  V30 175 H 15.3051 1.24709 0.719982 0
M  V30 176 H 17.2581 1.80715 3.80684 0
M  V30 177 H 15.9821 0.732524 3.18279 0
M  V30 178 H 14.6411 2.73283 2.44361 0
M  V30 179 H 14.2891 1.74938 4.71599 0
M  V30 180 H 13.9891 3.50541 4.71588 0
M  V30 181 H 15.5131 2.86401 5.39265 0
M  V30 182 H 16.9271 4.37898 3.70024 0
M  V30 183 H 15.3241 5.03735 3.26146 0
M  V30 184 H 16.3941 4.42244 1.98867 0
M  V30 185 N 17.7372 -0.778329 1.37039 0
M  V30 186 C 18.6672 -1.90546 1.34962 0
M  V30 187 C 19.6482 -1.68681 0.219274 0
M  V30 188 O 20.8332 -1.89634 0.418624 0
M  V30 189 C 17.9632 -3.27734 1.14925 0
M  V30 190 C 16.9172 -3.64147 2.24902 0
M  V30 191 C 16.2432 -4.99806 1.89996 0
M  V30 192 C 17.5432 -3.71579 3.67051 0
M  V30 193 H 19.2372 -1.92541 2.29277 0
M  V30 194 H 16.7832 -0.924948 1.10366 0
M  V30 195 H 18.7362 -4.06215 1.12104 0
M  V30 196 H 17.4602 -3.26154 0.170631 0
M  V30 197 H 16.1192 -2.8797 2.26868 0
M  V30 198 H 15.7672 -4.94759 0.906796 0
M  V30 199 H 15.4672 -5.25139 2.63634 0
M  V30 200 H 16.9912 -5.80694 1.88749 0
M  V30 201 H 18.4052 -4.40227 3.67251 0
M  V30 202 H 16.8022 -4.08405 4.39688 0
M  V30 203 H 17.8722 -2.72404 4.01154 0
M  V30 204 N 19.2153 -1.21501 -1.00376 0
M  V30 205 C 20.1453 -0.999478 -2.11028 0
M  V30 206 C 21.1263 0.0759671 -1.6993 0
M  V30 207 O 22.3113 -0.0841106 -1.94018 0
M  V30 208 C 19.4413 -0.564709 -3.42678 0
M  V30 209 C 18.3953 -1.58486 -3.97576 0
M  V30 210 C 17.7213 -1.00628 -5.25146 0
M  V30 211 C 19.0213 -2.97204 -4.29496 0
M  V30 212 H 20.7153 -1.92495 -2.29317 0
M  V30 213 H 18.2613 -0.92693 -1.102 0
M  V30 214 H 20.2143 -0.401091 -4.19487 0
M  V30 215 H 18.9383 0.396411 -3.24185 0
M  V30 216 H 17.5973 -1.73606 -3.22888 0
M  V30 217 H 17.2453 -0.0368439 -5.02987 0
M  V30 218 H 16.9453 -1.68771 -5.62841 0
M  V30 219 H 18.4693 -0.854015 -6.04598 0
M  V30 220 H 19.8833 -2.8552 -4.97143 0
M  V30 221 H 18.2803 -3.62372 -4.78338 0
M  V30 222 H 19.3503 -3.47956 -3.3772 0
M  V30 223 N 20.6934 1.19889 -1.02296 0
M  V30 224 C 21.6234 2.25141 -0.619174 0
M  V30 225 C 22.6044 1.66051 0.368915 0
M  V30 226 O 23.7894 1.92546 0.252941 0
M  V30 227 C 20.9194 3.4728 0.0368783 0
M  V30 228 C 19.8734 4.19005 -0.872865 0
M  V30 229 C 19.1994 5.34637 -0.0822402 0
M  V30 230 C 20.4994 4.74452 -2.18387 0
M  V30 231 H 22.1934 2.59171 -1.49903 0
M  V30 232 H 19.7394 1.24579 -0.722222 0
M  V30 233 H 21.6924 4.20098 0.330958 0
M  V30 234 H 20.4164 3.12433 0.95149 0
M  V30 235 H 19.0754 3.48061 -1.15105 0
M  V30 236 H 18.7234 4.96034 0.83422 0
M  V30 237 H 18.4234 5.83557 -0.688149 0
M  V30 238 H 19.9474 6.10255 0.205238 0
M  V30 239 H 21.3614 5.39055 -1.95172 0
M  V30 240 H 19.7584 5.33834 -2.74119 0
M  V30 241 H 20.8284 3.92844 -2.84257 0
M  V30 242 N 22.1715 0.800033 1.35784 0
M  V30 243 C 23.4175 0.377901 1.99248 0
M  V30 244 C 23.7505 -1.05052 1.63333 0
M  V30 245 O 23.0255 -1.72768 0.893385 0
M  V30 246 C 23.3085 0.553922 3.55814 0
M  V30 247 C 23.1615 2.0268 4.01548 0
M  V30 248 C 24.4805 -0.0244802 4.40093 0
M  V30 249 H 21.5995 0.138782 0.723815 0
M  V30 250 H 24.2415 1.00835 1.61035 0
M  V30 251 H 22.3915 0.0172398 3.88496 0
M  V30 252 H 24.0635 2.62536 3.79305 0
M  V30 253 H 22.3065 2.5256 3.52698 0
M  V30 254 H 22.9775 2.10087 5.10458 0
M  V30 255 H 25.4535 0.433775 4.13833 0
M  V30 256 H 24.3295 0.128637 5.48749 0
M  V30 257 H 24.5905 -1.11758 4.27741 0
M  V30 258 N 23.6496 -1.47581 0.552962 0
M  V30 259 C 24.5796 -2.32762 -0.185451 0
M  V30 260 C 25.5606 -1.43527 -0.912905 0
M  V30 261 O 26.7456 -1.72388 -0.894201 0
M  V30 262 C 23.8756 -3.25219 -1.21859 0
M  V30 263 C 22.8296 -4.23661 -0.607864 0
M  V30 264 C 22.1556 -5.05413 -1.74533 0
M  V30 265 C 23.4556 -5.20481 0.435582 0
M  V30 266 H 25.1496 -2.94749 0.525684 0
M  V30 267 H 22.6956 -1.41738 0.254251 0
M  V30 268 H 24.6486 -3.8365 -1.7433 0
M  V30 269 H 23.3726 -2.61279 -1.95961 0
M  V30 270 H 22.0316 -3.66451 -0.104489 0
M  V30 271 H 21.6796 -4.3788 -2.47529 0
M  V30 272 H 21.3796 -5.72059 -1.34249 0
M  V30 273 H 22.9036 -5.66701 -2.27338 0
M  V30 274 H 24.3176 -5.733 -0.00290157 0
M  V30 275 H 22.7146 -5.95305 0.757067 0
M  V30 276 H 23.7846 -4.66217 1.33303 0
M  V30 277 N 25.1277 -0.289203 -1.54924 0
M  V30 278 C 26.0907 0.579144 -2.21762 0
M  V30 279 C 27.0907 1.07047 -1.1999 0
M  V30 280 O 28.2807 0.968384 -1.44803 0
M  V30 281 C 25.4127 1.80055 -2.8947 0
M  V30 282 H 26.6057 -0.00464908 -2.999 0
M  V30 283 H 24.1587 -0.0399306 -1.56249 0
M  V30 284 H 24.8937 2.42449 -2.15381 0
M  V30 285 H 24.6787 1.45602 -3.64064 0
M  V30 286 H 26.1687 2.41773 -3.40493 0
M  V30 287 N 26.6058 1.57591 -0.0167156 0
M  V30 288 C 27.5688 2.08393 0.954204 0
M  V30 289 C 28.5688 0.996531 1.26198 0
M  V30 290 O 29.7588 1.25858 1.20438 0
M  V30 291 C 26.8908 2.5394 2.27436 0
M  V30 292 H 28.0838 2.95455 0.514451 0
M  V30 293 H 25.6368 1.54582 0.231089 0
M  V30 294 H 26.3718 1.70171 2.76066 0
M  V30 295 H 26.1568 3.33371 2.06412 0
M  V30 296 H 27.6468 2.93512 2.97053 0
M  V30 297 N 28.0839 -0.256276 1.55502 0
M  V30 298 C 29.0469 -1.30047 1.88734 0
M  V30 299 C 30.0469 -1.4154 0.763086 0
M  V30 300 O 31.2369 -1.40403 1.03115 0
M  V30 301 C 28.3689 -2.67953 2.10747 0
M  V30 302 H 29.5619 -1.01802 2.82093 0
M  V30 303 H 27.1149 -0.495134 1.4825 0
M  V30 304 H 27.8499 -3.01351 1.19825 0
M  V30 305 H 27.6349 -2.60993 2.92617 0
M  V30 306 H 29.1249 -3.43368 2.37673 0
M  V30 307 N 29.562 -1.4872 -0.521534 0
M  V30 308 C 30.525 -1.63379 -1.60748 0
M  V30 309 C 31.525 -0.50661 -1.52611 0
M  V30 310 O 32.715 -0.772601 -1.5613 0
M  V30 311 C 29.847 -1.61192 -3.00383 0
M  V30 312 H 31.04 -2.60217 -1.49087 0
M  V30 313 H 28.593 -1.37444 -0.744235 0
M  V30 314 H 29.328 -0.65863 -3.17541 0
M  V30 315 H 29.113 -2.43032 -3.07698 0
M  V30 316 H 30.603 -1.7466 -3.7932 0
M  V30 317 N 31.0401 0.771051 -1.3745 0
M  V30 318 C 32.0031 1.86598 -1.33093 0
M  V30 319 C 33.0031 1.59076 -0.234845 0
M  V30 320 O 34.1931 1.67145 -0.490732 0
M  V30 321 C 31.3251 3.23747 -1.06773 0
M  V30 322 H 32.5181 1.91873 -2.30488 0
M  V30 323 H 30.0711 0.970876 -1.2249 0
M  V30 324 H 30.8061 3.24148 -0.099129 0
M  V30 325 H 30.5911 3.45115 -1.86112 0
M  V30 326 H 32.0811 4.03824 -1.06377 0
M  V30 327 N 32.5182 1.22032 0.997298 0
M  V30 328 C 33.4812 0.987909 2.06816 0
M  V30 329 C 34.4812 -0.0440084 1.6074 0
M  V30 330 O 35.6712 0.194053 1.73116 0
M  V30 331 C 32.8032 0.49132 3.37341 0
M  V30 332 H 33.9962 1.93803 2.28868 0
M  V30 333 H 31.5492 1.03838 1.16822 0
M  V30 334 H 32.2842 -0.463364 3.20973 0
M  V30 335 H 32.0692 1.23575 3.72118 0
M  V30 336 H 33.5592 0.348824 4.16141 0
M  V30 337 N 33.9963 -1.19345 1.0293 0
M  V30 338 C 34.9593 -2.20793 0.615069 0
M  V30 339 C 35.9593 -1.57553 -0.321533 0
M  V30 340 O 37.1493 -1.73862 -0.108483 0
M  V30 341 C 34.2813 -3.40754 -0.0999222 0
M  V30 342 H 35.4743 -2.58955 1.51269 0
M  V30 343 H 33.0273 -1.3303 0.820534 0
M  V30 344 H 33.7623 -3.0811 -1.01187 0
M  V30 345 H 33.5473 -3.87889 0.57309 0
M  V30 346 H 35.0373 -4.15898 -0.376645 0
M  V30 347 N 35.4744 -0.807222 -1.35358 0
M  V30 348 C 36.4374 -0.223665 -2.28106 0
M  V30 349 C 37.4374 0.589354 -1.4961 0
M  V30 350 O 38.6274 0.407745 -1.69361 0
M  V30 351 C 35.7594 0.688149 -3.33882 0
M  V30 352 H 36.9524 -1.04169 -2.81227 0
M  V30 353 H 34.5054 -0.577921 -1.45223 0
M  V30 354 H 35.2404 1.52984 -2.85948 0
M  V30 355 H 35.0254 0.10687 -3.91954 0
M  V30 356 H 36.5154 1.09075 -4.03104 0
M  V30 357 N 36.9525 1.47285 -0.560781 0
M  V30 358 C 37.9155 2.28535 0.174488 0
M  V30 359 C 38.9155 1.37153 0.839388 0
M  V30 360 O 40.1055 1.59748 0.694702 0
M  V30 361 C 37.2375 3.16934 1.25561 0
M  V30 362 H 38.4305 2.95012 -0.539262 0
M  V30 363 H 35.9835 1.53034 -0.317865 0
M  V30 364 H 36.7185 2.55157 2.00164 0
M  V30 365 H 36.5035 3.8419 0.783604 0
M  V30 366 H 37.9935 3.78143 1.77193 0
M  V30 367 N 38.4306 0.297415 1.54768 0
M  V30 368 C 39.3606 -0.573494 2.26348 0
M  V30 369 C 40.3416 -1.14085 1.26169 0
M  V30 370 O 41.5266 -1.17086 1.54934 0
M  V30 371 C 38.6566 -1.74716 3.00153 0
M  V30 372 C 37.6106 -1.31032 4.07449 0
M  V30 373 C 36.9366 -2.56887 4.68949 0
M  V30 374 C 38.2366 -0.444183 5.20408 0
M  V30 375 H 39.9306 0.0235131 2.99391 0
M  V30 376 H 37.4766 0.0127488 1.43994 0
M  V30 377 H 39.4296 -2.3625 3.48947 0
M  V30 378 H 38.1536 -2.37035 2.24682 0
M  V30 379 H 36.8126 -0.718066 3.59499 0
M  V30 380 H 36.4606 -3.17512 3.90122 0
M  V30 381 H 36.1606 -2.2836 5.41411 0
M  V30 382 H 37.6846 -3.19229 5.20505 0
M  V30 383 H 39.0986 -0.9651 5.65118 0
M  V30 384 H 37.4956 -0.252846 5.99567 0
M  V30 385 H 38.5656 0.531609 4.81977 0
M  V30 386 N 39.9087 -1.5758 0.0250728 0
M  V30 387 C 40.8387 -2.13007 -0.956575 0
M  V30 388 C 41.8197 -1.0452 -1.342 0
M  V30 389 O 43.0047 -1.32332 -1.42133 0
M  V30 390 C 40.1347 -2.65386 -2.24026 0
M  V30 391 C 39.0887 -3.78623 -1.99571 0
M  V30 392 C 38.4147 -4.17414 -3.3417 0
M  V30 393 C 39.7147 -5.04867 -1.33814 0
M  V30 394 H 41.4087 -2.9528 -0.494991 0
M  V30 395 H 38.9547 -1.42042 -0.236651 0
M  V30 396 H 40.9077 -3.02794 -2.93076 0
M  V30 397 H 39.6317 -1.80268 -2.72343 0
M  V30 398 H 38.2907 -3.41646 -1.32941 0
M  V30 399 H 37.9387 -3.29284 -3.80238 0
M  V30 400 H 37.6387 -4.93719 -3.18615 0
M  V30 401 H 39.1627 -4.57402 -4.04495 0
M  V30 402 H 40.5767 -5.39888 -1.92857 0
M  V30 403 H 38.9737 -5.86144 -1.28669 0
M  V30 404 H 40.0437 -4.83904 -0.310561 0
M  V30 405 N 41.3868 0.248026 -1.55636 0
M  V30 406 C 42.7978 0.817177 -1.67866 0
M  V30 407 C 43.1488 1.86069 -0.622322 0
M  V30 408 O 42.2738 2.15157 0.231618 0
M  V30 409 C 42.8688 1.489 -3.04326 0
M  V30 410 C 41.4278 2.00587 -3.185 0
M  V30 411 C 40.5748 0.856573 -2.63739 0
M  V30 412 H 43.5258 0.0238579 -1.58682 0
M  V30 413 H 43.5468 2.35698 -2.98708 0
M  V30 414 H 43.0588 0.729279 -3.81186 0
M  V30 415 H 41.1598 2.79443 -2.4646 0
M  V30 416 H 41.2728 2.20402 -4.25393 0
M  V30 417 H 39.6368 1.25678 -2.21534 0
M  V30 418 H 40.4198 0.109953 -3.43124 0
M  V30 419 N 42.8649 1.48995 0.513639 0
M  V30 420 C 44.1129 1.57531 1.26604 0
M  V30 421 C 44.4339 0.258236 1.93283 0
M  V30 422 O 43.7039 -0.721502 1.8213 0
M  V30 423 H 42.2839 0.580387 0.470276 0
M  V30 424 H 44.9459 1.85552 0.596373 0
M  V30 425 H 44.0419 2.36486 2.03669 0
M  V30 426 N 44.343 -0.763751 1.37857 0
M  V30 427 C 45.306 -1.85889 1.34081 0
M  V30 428 C 46.306 -1.58949 0.243277 0
M  V30 429 O 47.496 -1.66882 0.499589 0
M  V30 430 C 44.628 -3.23176 1.08489 0
M  V30 431 H 45.821 -1.90648 2.31502 0
M  V30 432 H 43.374 -0.964367 1.23003 0
M  V30 433 H 44.109 -3.24091 0.116318 0
M  V30 434 H 43.894 -3.44124 1.8794 0
M  V30 435 H 45.384 -4.03254 1.08517 0
M  V30 436 N 45.8211 -1.22559 -0.990812 0
M  V30 437 C 47.0491 -1.07779 -1.76611 0
M  V30 438 C 47.4641 0.371513 -1.85109 0
M  V30 439 O 46.8211 1.25737 -1.32274 0
M  V30 440 C 46.8721 -1.68512 -3.19822 0
M  V30 441 O 46.5931 -3.07774 -3.1178 0
M  V30 442 C 48.0941 -1.59035 -4.13791 0
M  V30 443 H 45.3141 -0.377729 -0.554583 0
M  V30 444 H 47.8581 -1.62195 -1.24551 0
M  V30 445 H 46.0131 -1.18154 -3.68942 0
M  V30 446 H 46.4271 -3.37062 -4.01858 0
M  V30 447 H 47.9011 -2.0625 -5.1202 0
M  V30 448 H 48.3781 -0.547273 -4.35777 0
M  V30 449 H 48.9841 -2.08709 -3.70568 0
M  V30 450 N 47.2992 1.18797 -1.03562 0
M  V30 451 C 48.2622 2.20464 -0.626769 0
M  V30 452 C 49.2622 1.57721 0.313173 0
M  V30 453 O 50.4522 1.73917 0.0992615 0
M  V30 454 C 47.5842 3.40802 0.0818498 0
M  V30 455 H 48.7772 2.58149 -1.5264 0
M  V30 456 H 46.3302 1.32593 -0.827578 0
M  V30 457 H 47.0652 3.08642 0.995518 0
M  V30 458 H 46.8502 3.8758 -0.593652 0
M  V30 459 H 48.3402 4.16092 0.354584 0
M  V30 460 N 48.7773 0.814389 1.34928 0
M  V30 461 C 49.7073 0.244827 2.32213 0
M  V30 462 C 50.6883 -0.634024 1.57842 0
M  V30 463 O 51.8733 -0.562676 1.8587 0
M  V30 464 C 49.0033 -0.601106 3.42058 0
M  V30 465 C 47.9573 0.179896 4.27622 0
M  V30 466 C 47.2833 -0.788237 5.28858 0
M  V30 467 C 48.5833 1.38329 5.03649 0
M  V30 468 H 50.2773 1.05763 2.80097 0
M  V30 469 H 47.8233 0.510029 1.34665 0
M  V30 470 H 49.7763 -1.00968 4.09125 0
M  V30 471 H 48.5003 -1.44688 2.92802 0
M  V30 472 H 47.1593 0.569739 3.62146 0
M  V30 473 H 46.8073 -1.62973 4.75866 0
M  V30 474 H 46.5073 -0.269942 5.8698 0
M  V30 475 H 48.0313 -1.19485 5.98795 0
M  V30 476 H 49.4453 1.04918 5.63618 0
M  V30 477 H 47.8423 1.83662 5.71304 0
M  V30 478 H 48.9123 2.16592 4.33839 0
M  V30 479 N 50.2554 -1.46986 0.568584 0
M  V30 480 C 51.1874 -2.28233 -0.210337 0
M  V30 481 C 52.2004 -1.37682 -0.868767 0
M  V30 482 O 53.3894 -1.62406 -0.740705 0
M  V30 483 C 50.4894 -3.12293 -1.3163 0
M  V30 484 C 49.6624 -4.30878 -0.7525 0
M  V30 485 C 48.7214 -4.96445 -1.74439 0
M  V30 486 O 47.7474 -5.54482 -1.286 0
M  V30 487 N 48.9494 -4.92171 -3.07812 0
M  V30 488 H 51.7144 -2.95723 0.486648 0
M  V30 489 H 49.2754 -1.56742 0.405409 0
M  V30 490 H 51.2674 -3.53022 -1.97883 0
M  V30 491 H 49.8374 -2.46971 -1.91636 0
M  V30 492 H 49.0574 -3.94104 0.0871128 0
M  V30 493 H 50.3454 -5.07558 -0.35536 0
M  V30 494 H 49.7434 -4.46239 -3.47688 0
M  V30 495 H 48.3004 -5.36884 -3.69592 0
M  V30 496 N 51.7335 -0.305618 -1.54608 0
M  V30 497 C 52.9735 0.303114 -2.0214 0
M  V30 498 C 53.3375 1.50737 -1.18921 0
M  V30 499 O 54.5385 2.18778 -1.56172 0
M  V30 500 C 52.8095 0.646332 -3.51507 0
M  V30 501 S 54.3685 1.23727 -4.20995 0
M  V30 502 H 51.1865 0.0927643 -0.704923 0
M  V30 503 H 53.7885 -0.434566 -1.90609 0
M  V30 504 H 52.4925 -0.238541 -4.09706 0
M  V30 505 H 52.0235 1.41468 -3.67084 0
M  V30 506 H 54.0385 2.52489 -4.27158 0
M  V30 507 N 53.2116 1.57565 -0.0334293 0
M  V30 508 C 54.4586 1.91978 0.644272 0
M  V30 509 C 54.7866 0.910231 1.71887 0
M  V30 510 O 54.0416 -0.0801961 1.95536 0
M  V30 511 C 54.3406 3.33112 1.29504 0
M  V30 512 C 54.0066 4.49537 0.350388 0
M  V30 513 C 52.6686 4.81115 0.0903974 0
M  V30 514 C 55.0206 5.20347 -0.298032 0
M  V30 515 C 52.3486 5.8086 -0.825746 0
M  V30 516 C 54.7006 6.2107 -1.20226 0
M  V30 517 C 53.3646 6.51088 -1.4711 0
M  V30 518 H 52.6346 0.702496 0.235756 0
M  V30 519 H 55.2816 1.91259 -0.0961176 0
M  V30 520 H 53.5866 3.30113 2.11028 0
M  V30 521 H 55.2836 3.57011 1.82603 0
M  V30 522 H 51.8736 4.24883 0.563205 0
M  V30 523 H 56.0576 4.96178 -0.110234 0
M  V30 524 H 51.3136 6.02461 -1.04169 0
M  V30 525 H 55.4876 6.75057 -1.71086 0
M  V30 526 H 53.1146 7.28193 -2.18264 0
M  V30 527 N 54.6897 -0.239769 1.55765 0
M  V30 528 C 55.9297 -0.974076 1.79697 0
M  V30 529 C 56.2937 -1.82249 0.604088 0
M  V30 530 O 57.4947 -2.58913 0.722324 0
M  V30 531 C 55.7657 -1.80595 3.08416 0
M  V30 532 S 57.3247 -2.59838 3.53596 0
M  V30 533 H 54.1427 -0.327524 0.63107 0
M  V30 534 H 56.7447 -0.241277 1.94005 0
M  V30 535 H 55.4487 -1.17249 3.93295 0
M  V30 536 H 54.9797 -2.58137 2.96865 0
M  V30 537 H 56.9947 -3.82987 3.15492 0
M  V30 538 N 56.1678 -1.49265 -0.50573 0
M  V30 539 C 57.1178 -1.6198 -1.60457 0
M  V30 540 C 58.1018 -0.47568 -1.53708 0
M  V30 541 O 59.2938 -0.728392 -1.61318 0
M  V30 542 C 56.4228 -1.68526 -2.99089 0
M  V30 543 C 55.5088 -2.885 -3.10852 0
M  V30 544 N 55.8998 -4.12635 -2.92517 0
M  V30 545 C 54.1978 -2.86338 -3.41945 0
M  V30 546 C 54.8988 -4.93258 -3.08337 0
M  V30 547 N 53.8748 -4.26533 -3.37003 0
M  V30 548 H 57.6768 -2.55681 -1.44928 0
M  V30 549 H 55.1908 -1.45972 -0.711752 0
M  V30 550 H 57.1878 -1.75732 -3.78053 0
M  V30 551 H 55.8478 -0.759584 -3.1569 0
M  V30 552 H 56.8588 -4.42689 -2.68787 0
M  V30 553 H 53.5358 -2.03129 -3.64753 0
M  V30 554 H 54.9258 -6.01856 -2.98695 0
M  V30 555 N 57.6459 0.756429 -1.3826 0
M  V30 556 C 58.5759 1.88374 -1.37976 0
M  V30 557 C 59.5569 1.68311 -0.246082 0
M  V30 558 O 60.7419 1.88944 -0.44874 0
M  V30 559 C 57.8719 3.25864 -1.20125 0
M  V30 560 C 56.8259 3.60523 -2.30666 0
M  V30 561 C 56.1519 4.9672 -1.97923 0
M  V30 562 C 57.4519 3.65692 -3.72916 0
M  V30 563 H 59.1459 1.88869 -2.32312 0
M  V30 564 H 56.6919 0.907272 -1.11824 0
M  V30 565 H 58.6449 4.0438 -1.18552 0
M  V30 566 H 57.3689 3.25841 -0.222498 0
M  V30 567 H 56.0279 2.84324 -2.3142 0
M  V30 568 H 55.6759 4.93253 -0.985393 0
M  V30 569 H 55.3759 5.20878 -2.71955 0
M  V30 570 H 56.8999 5.77618 -1.97964 0
M  V30 571 H 58.3139 4.34328 -3.74208 0
M  V30 572 H 56.7109 4.01358 -4.4613 0
M  V30 573 H 57.7809 2.65987 -4.05436 0
M  V30 574 N 59.124 1.23083 0.984299 0
M  V30 575 C 60.364 1.07226 1.74017 0
M  V30 576 C 60.728 -0.384766 1.88105 0
M  V30 577 O 61.929 -0.664411 2.60459 0
M  V30 578 C 60.2 1.77348 3.10294 0
M  V30 579 S 61.759 1.77014 4.01512 0
M  V30 580 H 58.577 0.383819 0.598502 0
M  V30 581 H 61.179 1.56158 1.17622 0
M  V30 582 H 59.883 2.82506 2.97689 0
M  V30 583 H 59.414 1.28682 3.71759 0
M  V30 584 H 61.429 0.825956 4.89277 0
M  V30 585 N 60.6021 -1.18246 1.0419 0
M  V30 586 C 61.8301 -1.92195 0.766072 0
M  V30 587 C 62.2451 -1.76247 -0.676933 0
M  V30 588 O 61.6021 -1.09293 -1.46155 0
M  V30 589 C 61.6531 -3.43568 1.12442 0
M  V30 590 O 61.3741 -3.59015 2.51078 0
M  V30 591 C 62.8751 -4.34613 0.873275 0
M  V30 592 H 60.0951 -0.610114 0.279288 0
M  V30 593 H 62.6391 -1.50007 1.38989 0
M  V30 594 H 60.7941 -3.8354 0.545542 0
M  V30 595 H 61.2081 -4.5273 2.64831 0
M  V30 596 H 62.6821 -5.39374 1.17385 0
M  V30 597 H 63.1591 -4.38781 -0.191909 0
M  V30 598 H 63.7651 -4.00341 1.43551 0
M  V30 599 N 62.0802 -0.821533 -1.34494 0
M  V30 600 C 63.0272 -0.240397 -2.29545 0
M  V30 601 C 63.9972 0.634031 -1.53523 0
M  V30 602 O 65.1822 0.575966 -1.81899 0
M  V30 603 C 62.3222 0.592869 -3.39969 0
M  V30 604 C 61.4352 -0.30365 -4.30932 0
M  V30 605 C 60.5702 0.539049 -5.28458 0
M  V30 606 C 59.6092 -0.356942 -6.11058 0
M  V30 607 N 58.7462 0.446603 -7.00678 0
M  V30 608 H 63.5862 -1.05632 -2.7865 0
M  V30 609 H 61.1232 -0.532413 -1.37127 0
M  V30 610 H 63.0812 1.09129 -4.02675 0
M  V30 611 H 61.7112 1.37392 -2.92102 0
M  V30 612 H 60.7632 -0.920276 -3.691 0
M  V30 613 H 62.0752 -0.992661 -4.88823 0
M  V30 614 H 61.2292 1.102 -5.96608 0
M  V30 615 H 59.9682 1.26157 -4.71101 0
M  V30 616 H 58.9732 -0.932047 -5.41842 0
M  V30 617 H 60.1982 -1.07755 -6.70497 0
M  V30 618 H 58.1442 1.15282 -6.45791 0
M  V30 619 H 58.0612 -0.184048 -7.55776 0
M  V30 620 H 59.3292 0.992352 -7.73158 0
M  V30 621 N 63.5583 1.46682 -0.576371 0
M  V30 622 C 64.8353 1.95599 0.00703437 0
M  V30 623 C 65.2153 1.51904 1.46589 0
M  V30 624 O 64.5633 0.766755 2.15251 0
M  V30 625 C 64.7733 3.4864 -0.158404 0
M  V30 626 C 66.1213 4.24594 -0.0229439 0
M  V30 627 O 67.1453 3.56094 -0.0869173 0
M  V30 628 O 66.0043 5.46373 0.118015 0
M  V30 629 H 63.0983 0.825275 0.053384 0
M  V30 630 H 65.6443 1.56996 -0.644244 0
M  V30 631 H 64.4163 3.7331 -1.17282 0
M  V30 632 H 64.0393 3.94057 0.5296 0
M  V30 633 N 65.0364 0.313813 1.54444 0
M  V30 634 C 65.9844 -0.572171 2.25453 0
M  V30 635 C 66.9784 -1.12657 1.2651 0
M  V30 636 O 68.1844 -1.07573 1.44319 0
M  V30 637 H 64.5594 -0.203146 0.724041 0
M  V30 638 H 66.5304 0.0491145 2.9836 0
M  V30 639 C 65.2794 -1.72626 3.0182 0
M  V30 640 H 64.6024 -1.30891 3.77767 0
M  V30 641 H 66.0424 -2.32199 3.54767 0
M  V30 642 C 64.5014 -2.63806 2.09542 0
M  V30 643 O 65.0314 -3.65256 1.67185 0
M  V30 644 N 63.2374 -2.31824 1.75232 0
M  V30 645 H 62.7844 -1.49368 2.09873 0
M  V30 646 H 62.7424 -2.93095 1.13767 0
M  V30 647 N 66.5145 -1.57545 0.0417849 0
M  V30 648 C 67.7615 -1.92317 -0.634082 0
M  V30 649 C 68.0895 -0.919334 -1.71402 0
M  V30 650 O 67.3445 0.0698253 -1.95575 0
M  V30 651 C 67.6435 -3.33794 -1.27735 0
M  V30 652 C 67.3095 -4.49716 -0.326543 0
M  V30 653 C 65.9715 -4.81156 -0.0648814 0
M  V30 654 C 68.3235 -5.20182 0.325623 0
M  V30 655 C 65.6515 -5.80414 0.856539 0
M  V30 656 C 68.0035 -6.20424 1.23518 0
M  V30 657 C 66.6675 -6.50298 1.5056 0
M  V30 658 H 65.9375 -0.703736 -0.232027 0
M  V30 659 H 68.5845 -1.91205 0.106259 0
M  V30 660 H 66.8895 -3.31228 -2.09274 0
M  V30 661 H 68.5865 -3.57975 -1.80707 0
M  V30 662 H 65.1765 -4.25176 -0.540665 0
M  V30 663 H 69.3605 -4.96112 0.136546 0
M  V30 664 H 64.6165 -6.019 1.07363 0
M  V30 665 H 68.7905 -6.74141 1.74664 0
M  V30 666 H 66.4175 -7.27025 2.22123 0
M  V30 667 N 67.9926 0.231505 -1.5589 0
M  V30 668 C 69.2206 0.974505 -1.82513 0
M  V30 669 C 69.6356 1.78344 -0.619591 0
M  V30 670 O 68.9926 1.77792 0.411848 0
M  V30 671 C 69.0436 1.90007 -3.07538 0
M  V30 672 O 68.7646 1.12385 -4.2344 0
M  V30 673 C 70.2656 2.75779 -3.47075 0
M  V30 674 H 67.4856 0.286065 -0.606966 0
M  V30 675 H 70.0296 0.249739 -2.02969 0
M  V30 676 H 68.1846 2.57891 -2.89086 0
M  V30 677 H 68.5986 1.75125 -4.944 0
M  V30 678 H 70.0726 3.36443 -4.37619 0
M  V30 679 H 70.5496 3.47672 -2.68367 0
M  V30 680 H 71.1556 2.13323 -3.67931 0
M  V30 681 N 69.4707 1.49531 0.497807 0
M  V30 682 C 70.7107 1.60799 1.26187 0
M  V30 683 C 71.0747 0.289627 1.89803 0
M  V30 684 O 72.2757 0.277512 2.67364 0
M  V30 685 C 70.5467 2.73729 2.29798 0
M  V30 686 S 72.1057 3.04968 3.155 0
M  V30 687 H 68.9237 0.567145 0.428798 0
M  V30 688 H 71.5257 1.87204 0.563477 0
M  V30 689 H 70.2297 3.68036 1.81597 0
M  V30 690 H 69.7607 2.49328 3.04301 0
M  V30 691 H 71.7757 2.46735 4.30507 0
M  V30 692 N 70.9488 -0.749086 1.3866 0
M  V30 693 C 72.1948 -1.51056 1.35314 0
M  V30 694 C 72.5278 -1.94121 -0.0553751 0
M  V30 695 O 71.8028 -1.65763 -1.01749 0
M  V30 696 C 72.0858 -2.76003 2.31288 0
M  V30 697 C 71.9388 -2.39047 3.8102 0
M  V30 698 C 73.2578 -3.78046 2.2532 0
M  V30 699 H 70.3768 -0.547972 0.492844 0
M  V30 700 H 73.0188 -0.857628 1.69543 0
M  V30 701 H 71.1688 -3.31716 2.02229 0
M  V30 702 H 72.8408 -1.89074 4.20771 0
M  V30 703 H 71.0838 -1.71449 3.98482 0
M  V30 704 H 71.7548 -3.28462 4.4364 0
M  V30 705 H 74.2308 -3.31884 2.50983 0
M  V30 706 H 73.1068 -4.63159 2.94576 0
M  V30 707 H 73.3678 -4.23957 1.25352 0
M  V30 708 N 72.4269 -1.23603 -0.977757 0
M  V30 709 C 73.6549 -1.09646 -1.75458 0
M  V30 710 C 74.0699 0.351859 -1.85492 0
M  V30 711 O 73.4269 1.24327 -1.336 0
M  V30 712 C 73.4779 -1.71895 -3.18016 0
M  V30 713 O 73.1989 -3.11063 -3.08498 0
M  V30 714 C 74.6999 -1.63415 -4.12081 0
M  V30 715 H 71.9199 -0.38359 -0.550545 0
M  V30 716 H 74.4639 -1.63507 -1.22824 0
M  V30 717 H 72.6189 -1.22061 -3.67668 0
M  V30 718 H 73.0329 -3.41305 -3.9826 0
M  V30 719 H 74.5069 -2.11669 -5.09804 0
M  V30 720 H 74.9839 -0.593462 -4.35172 0
M  V30 721 H 75.5899 -2.12628 -3.68334 0
M  V30 722 N 73.905 1.17692 -1.04816 0
M  V30 723 C 75.182 1.83768 -0.669963 0
M  V30 724 C 75.562 1.93232 0.849986 0
M  V30 725 O 74.91 1.46397 1.75443 0
M  V30 726 C 75.12 3.21641 -1.35455 0
M  V30 727 C 76.468 3.97592 -1.49017 0
M  V30 728 O 77.492 3.31107 -1.31326 0
M  V30 729 O 76.351 5.16729 -1.77914 0
M  V30 730 H 73.445 0.792799 -0.235368 0
M  V30 731 H 75.991 1.25021 -1.14751 0
M  V30 732 H 74.763 3.097 -2.39168 0
M  V30 733 H 74.386 3.88052 -0.866107 0
M  V30 734 N 75.3831 0.828654 1.34056 0
M  V30 735 C 76.6311 0.41863 1.97717 0
M  V30 736 C 76.9521 -1.02314 1.66002 0
M  V30 737 O 76.2221 -1.71119 0.953683 0
M  V30 738 H 74.8021 0.151809 0.731412 0
M  V30 739 H 77.4641 1.05936 1.63596 0
M  V30 740 H 76.5601 0.542318 3.07352 0
M  V30 741 N 76.8612 -1.46375 0.584142 0
M  V30 742 C 77.7912 -2.33103 -0.136037 0
M  V30 743 C 78.7722 -1.45431 -0.882255 0
M  V30 744 O 79.9572 -1.74246 -0.857434 0
M  V30 745 C 77.0872 -3.27731 -1.14933 0
M  V30 746 C 76.0412 -4.24855 -0.517862 0
M  V30 747 C 75.3672 -5.09001 -1.63773 0
M  V30 748 C 76.6672 -5.19439 0.545886 0
M  V30 749 H 78.3612 -2.93568 0.588086 0
M  V30 750 H 75.9072 -1.41166 0.284259 0
M  V30 751 H 77.8602 -3.87261 -1.66153 0
M  V30 752 H 76.5842 -2.65377 -1.90375 0
M  V30 753 H 75.2432 -3.6659 -0.0267361 0
M  V30 754 H 74.8912 -4.43031 -2.38185 0
M  V30 755 H 74.5912 -5.74777 -1.22085 0
M  V30 756 H 76.1152 -5.71396 -2.15266 0
M  V30 757 H 77.5292 -5.73177 0.118704 0
M  V30 758 H 75.9262 -5.93566 0.88317 0
M  V30 759 H 76.9962 -4.63285 1.43162 0
M  V30 760 N 78.3393 -0.321999 -1.54275 0
M  V30 761 C 79.5793 0.281657 -2.0245 0
M  V30 762 C 79.9433 1.49468 -1.20513 0
M  V30 763 O 81.1443 2.17109 -1.58484 0
M  V30 764 C 79.4153 0.609014 -3.52173 0
M  V30 765 S 80.9743 1.19255 -4.22284 0
M  V30 766 H 77.7923 0.0852825 -0.705867 0
M  V30 767 H 80.3943 -0.454758 -1.90137 0
M  V30 768 H 79.0983 -0.281982 -4.0943 0
M  V30 769 H 78.6293 1.37567 -3.68563 0
M  V30 770 H 80.6443 2.47944 -4.29812 0
M  V30 771 N 79.8174 1.5752 -0.0501392 0
M  V30 772 C 81.0644 1.9265 0.623874 0
M  V30 773 C 81.3924 0.928411 1.70912 0
M  V30 774 O 80.6474 -0.0594525 1.9561 0
M  V30 775 C 80.9464 3.34467 1.25963 0
M  V30 776 C 80.6124 4.49883 0.302689 0
M  V30 777 C 79.2744 4.81184 0.0393636 0
M  V30 778 C 81.6264 5.20002 -0.353205 0
M  V30 779 C 78.9544 5.79951 -0.887308 0
M  V30 780 C 81.3064 6.1976 -1.26806 0
M  V30 781 C 79.9704 6.49491 -1.54007 0
M  V30 782 H 79.2404 0.704957 0.228292 0
M  V30 783 H 81.8874 1.91146 -0.116398 0
M  V30 784 H 80.1924 3.32333 2.07514 0
M  V30 785 H 81.8894 3.58928 1.78806 0
M  V30 786 H 78.4794 4.25457 0.518109 0
M  V30 787 H 82.6634 4.96033 -0.162854 0
M  V30 788 H 77.9194 6.01322 -1.10553 0
M  V30 789 H 82.0934 6.73205 -1.78236 0
M  V30 790 H 79.7204 7.25837 -2.25976 0
M  V30 791 N 81.2955 -0.223234 1.56011 0
M  V30 792 C 82.5415 -0.949279 1.79211 0
M  V30 793 C 82.8745 -1.84054 0.619494 0
M  V30 794 O 82.1495 -1.90726 -0.381317 0
M  V30 795 C 82.4325 -1.78965 3.12479 0
M  V30 796 C 82.2855 -0.924997 4.40186 0
M  V30 797 C 83.6045 -2.76774 3.42175 0
M  V30 798 H 80.7235 -0.343676 0.651963 0
M  V30 799 H 83.3655 -0.218253 1.88742 0
M  V30 800 H 81.5155 -2.41291 3.04485 0
M  V30 801 H 83.1875 -0.318615 4.60198 0
M  V30 802 H 81.4305 -0.230344 4.33188 0
M  V30 803 H 82.1015 -1.54735 5.29869 0
M  V30 804 H 84.5775 -2.24584 3.50287 0
M  V30 805 H 83.4535 -3.32678 4.36597 0
M  V30 806 H 83.7145 -3.54429 2.64258 0
M  V30 807 N 82.7736 -1.49793 -0.48987 0
M  V30 808 C 83.9986 -1.63836 -1.27172 0
M  V30 809 C 84.4236 -0.31402 -1.8546 0
M  V30 810 O 83.7816 0.719803 -1.66399 0
M  V30 811 C 83.8296 -2.71797 -2.36978 0
M  V30 812 O 82.9336 -2.31744 -3.41128 0
M  V30 813 H 82.2746 -0.547997 -0.37496 0
M  V30 814 H 84.8046 -1.96053 -0.585191 0
M  V30 815 H 84.8146 -2.94305 -2.82575 0
M  V30 816 H 83.4896 -3.67923 -1.93921 0
M  V30 817 H 82.0666 -2.1961 -3.01373 0
M  V30 818 N 84.2517 0.741722 -1.39055 0
M  V30 819 C 85.4977 1.50336 -1.36113 0
M  V30 820 C 85.8307 1.94148 0.0450796 0
M  V30 821 O 85.1057 1.66301 1.00868 0
M  V30 822 C 85.3887 2.74773 -2.32749 0
M  V30 823 C 85.2417 2.37023 -3.82283 0
M  V30 824 C 86.5607 3.76846 -2.27322 0
M  V30 825 H 83.6797 0.545351 -0.495743 0
M  V30 826 H 86.3217 0.848624 -1.69995 0
M  V30 827 H 84.4717 3.30639 -2.03986 0
M  V30 828 H 86.1437 1.8684 -4.21768 0
M  V30 829 H 84.3867 1.69334 -3.99385 0
M  V30 830 H 85.0577 3.26104 -4.45376 0
M  V30 831 H 87.5337 3.30548 -2.5274 0
M  V30 832 H 86.4097 4.6159 -2.97028 0
M  V30 833 H 86.6707 4.23286 -1.27599 0
M  V30 834 N 85.7298 1.2412 0.971189 0
M  V30 835 C 86.9578 1.10575 1.74874 0
M  V30 836 C 87.3728 -0.342017 1.85676 0
M  V30 837 O 86.7298 -1.23617 1.34258 0
M  V30 838 C 86.7808 1.73579 3.171 0
M  V30 839 O 86.5018 3.12695 3.06844 0
M  V30 840 C 88.0028 1.65598 4.11208 0
M  V30 841 H 85.2228 0.386504 0.548503 0
M  V30 842 H 87.7668 1.64156 1.21955 0
M  V30 843 H 85.9218 1.24009 3.67016 0
M  V30 844 H 86.3358 3.43412 3.96445 0
M  V30 845 H 87.8098 2.1437 5.08674 0
M  V30 846 H 88.2868 0.616532 4.34851 0
M  V30 847 H 88.8928 2.14578 3.67201 0
M  V30 848 N 87.2079 -1.17134 1.05439 0
M  V30 849 C 88.1179 -2.24878 0.668365 0
M  V30 850 C 89.1339 -1.71186 -0.311687 0
M  V30 851 O 90.3099 -2.00738 -0.163161 0
M  V30 852 C 87.3749 -3.46662 0.051648 0
M  V30 853 C 86.4359 -4.15429 1.08246 0
M  V30 854 C 85.6689 -5.31399 0.495082 0
M  V30 855 O 85.8919 -5.66153 -0.694743 0
M  V30 856 O 84.8259 -5.89187 1.23056 0
M  V30 857 H 88.6519 -2.60189 1.56637 0
M  V30 858 H 86.2369 -1.24482 0.826104 0
M  V30 859 H 88.1189 -4.20394 -0.290966 0
M  V30 860 H 86.7939 -3.13142 -0.819971 0
M  V30 861 H 85.7009 -3.43704 1.47711 0
M  V30 862 H 87.0339 -4.52982 1.92532 0
M  V30 863 N 88.686 -0.835752 -1.33615 0
M  V30 864 C 89.914 -0.443344 -2.02094 0
M  V30 865 C 90.329 0.954522 -1.62894 0
M  V30 866 O 89.686 1.61982 -0.840723 0
M  V30 867 C 89.737 -0.550775 -3.5728 0
M  V30 868 O 89.458 -1.89356 -3.95065 0
M  V30 869 C 90.959 -0.154919 -4.43029 0
M  V30 870 H 88.179 -0.176359 -0.647409 0
M  V30 871 H 90.723 -1.12746 -1.70612 0
M  V30 872 H 88.878 0.0853997 -3.87306 0
M  V30 873 H 89.292 -1.87687 -4.89769 0
M  V30 874 H 90.766 -0.281144 -5.51284 0
M  V30 875 H 91.243 0.902863 -4.2982 0
M  V30 876 H 91.849 -0.765404 -4.18356 0
M  V30 877 N 90.1641 1.46063 -0.591896 0
M  V30 878 C 91.3921 2.06717 -0.0868936 0
M  V30 879 C 91.8071 1.43916 1.22203 0
M  V30 880 O 91.1641 0.547698 1.74088 0
M  V30 881 C 91.2151 3.6142 0.0758725 0
M  V30 882 O 90.9361 4.21874 -1.18126 0
M  V30 883 C 92.4371 4.39025 0.61416 0
M  V30 884 H 89.6571 0.668162 -0.0616518 0
M  V30 885 H 92.2011 1.8755 -0.815175 0
M  V30 886 H 90.3561 3.79983 0.754413 0
M  V30 887 H 90.7701 5.14861 -1.00092 0
M  V30 888 H 92.2441 5.4783 0.677193 0
M  V30 889 H 92.7211 4.07708 1.63312 0
M  V30 890 H 93.3271 4.2529 -0.0298142 0
M  V30 891 N 91.6422 0.330177 1.54103 0
M  V30 892 C 92.9192 -0.325007 1.92881 0
M  V30 893 C 93.2992 -1.6934 1.26045 0
M  V30 894 O 92.6472 -2.24855 0.406526 0
M  V30 895 C 92.8572 -0.410634 3.46576 0
M  V30 896 C 94.2052 -0.667801 4.19316 0
M  V30 897 O 95.2292 -0.49329 3.52768 0
M  V30 898 O 94.0882 -1.00491 5.37181 0
M  V30 899 H 91.1822 -0.186873 0.80561 0
M  V30 900 H 93.7282 0.380376 1.65382 0
M  V30 901 H 92.5002 0.550164 3.87413 0
M  V30 902 H 92.1232 -1.16333 3.802 0
M  V30 903 N 93.1203 -1.57491 0.0584922 0
M  V30 904 C 94.0673 -2.11958 -0.913376 0
M  V30 905 C 95.0373 -1.02875 -1.30407 0
M  V30 906 O 96.2223 -1.30464 -1.39226 0
M  V30 907 C 93.3623 -2.67497 -2.18035 0
M  V30 908 C 92.4753 -3.90691 -1.84349 0
M  V30 909 C 91.6103 -4.3452 -3.05559 0
M  V30 910 C 90.6493 -5.50395 -2.67827 0
M  V30 911 N 89.7863 -5.89244 -3.81754 0
M  V30 912 H 94.6263 -2.94704 -0.442017 0
M  V30 913 H 92.1633 -1.45643 -0.206545 0
M  V30 914 H 94.1213 -2.978 -2.92183 0
M  V30 915 H 92.7513 -1.87537 -2.62735 0
M  V30 916 H 91.8033 -3.66934 -1.00319 0
M  V30 917 H 93.1153 -4.7489 -1.5258 0
M  V30 918 H 92.2693 -4.66414 -3.87998 0
M  V30 919 H 91.0083 -3.49147 -3.40511 0
M  V30 920 H 90.0133 -5.18165 -1.83806 0
M  V30 921 H 91.2383 -6.3749 -2.34059 0
M  V30 922 H 89.1843 -5.06823 -4.16493 0
M  V30 923 H 89.1013 -6.68151 -3.53708 0
M  V30 924 H 90.3693 -6.25756 -4.64811 0
M  V30 925 N 94.5984 0.214957 -1.56127 0
M  V30 926 C 95.8444 0.939762 -1.79712 0
M  V30 927 C 96.1774 1.83723 -0.629247 0
M  V30 928 O 95.4524 1.90925 0.371197 0
M  V30 929 C 95.7354 1.77306 -3.13424 0
M  V30 930 C 95.5884 0.90164 -4.40671 0
M  V30 931 C 96.9074 2.74956 -3.43638 0
M  V30 932 H 94.0264 0.340214 -0.653776 0
M  V30 933 H 96.6684 0.20824 -1.88855 0
M  V30 934 H 94.8184 2.39673 -3.0576 0
M  V30 935 H 96.4904 0.294206 -4.60361 0
M  V30 936 H 94.7334 0.207368 -4.33304 0
M  V30 937 H 95.4044 1.51923 -5.30682 0
M  V30 938 H 97.8804 2.22724 -3.51473 0
M  V30 939 H 96.7564 3.30358 -4.38355 0
M  V30 940 H 97.0174 3.53023 -2.66134 0
M  V30 941 N 96.0765 1.50051 0.48192 0
M  V30 942 C 97.3255 1.59741 1.23149 0
M  V30 943 C 97.6385 0.298163 1.93314 0
M  V30 944 O 98.8445 0.273835 2.70116 0
M  V30 945 C 97.3005 2.81926 2.23708 0
M  V30 946 C 96.9085 4.18685 1.59396 0
M  V30 947 C 98.6525 3.00956 2.99375 0
M  V30 948 C 96.5595 5.3207 2.58178 0
M  V30 949 H 95.4895 0.594838 0.46334 0
M  V30 950 H 98.1405 1.76467 0.503169 0
M  V30 951 H 96.5225 2.58736 2.99786 0
M  V30 952 H 97.6965 4.52088 0.891811 0
M  V30 953 H 96.0115 4.05171 0.960503 0
M  V30 954 H 98.6085 3.82836 3.73283 0
M  V30 955 H 98.9515 2.12258 3.58123 0
M  V30 956 H 99.4845 3.24277 2.30411 0
M  V30 957 H 96.2235 6.22888 2.04184 0
M  V30 958 H 95.7435 5.03098 3.26577 0
M  V30 959 H 97.4225 5.62196 3.20225 0
M  V30 960 N 97.5546 -0.734337 1.39446 0
M  V30 961 C 98.5046 -1.83949 1.34709 0
M  V30 962 C 99.4886 -1.59279 0.227851 0
M  V30 963 O 100.681 -1.70771 0.465438 0
M  V30 964 C 97.8096 -3.21884 1.19356 0
M  V30 965 C 96.8956 -3.52381 2.35984 0
M  V30 966 N 97.2866 -3.53811 3.61457 0
M  V30 967 C 95.5846 -3.82747 2.28956 0
M  V30 968 C 96.2856 -3.82122 4.38586 0
M  V30 969 N 95.2616 -3.9993 3.68181 0
M  V30 970 H 99.0636 -1.83361 2.29687 0
M  V30 971 H 96.5776 -0.932609 1.32952 0
M  V30 972 H 98.5746 -4.00998 1.14046 0
M  V30 973 H 97.2346 -3.23711 0.253295 0
M  V30 974 H 98.2456 -3.35107 3.94872 0
M  V30 975 H 94.9226 -3.92175 1.43194 0
M  V30 976 H 96.3126 -3.89691 5.47349 0
M  V30 977 N 99.0327 -1.24633 -0.964593 0
M  V30 978 C 99.9807 -1.03917 -2.08096 0
M  V30 979 C 100.975 0.0268581 -1.69379 0
M  V30 980 O 102.181 -0.127952 -1.79545 0
M  V30 981 H 98.5557 -0.319044 -0.680966 0
M  V30 982 H 100.527 -1.98581 -2.22729 0
M  V30 983 C 99.2757 -0.663983 -3.41301 0
M  V30 984 H 98.5987 -1.47605 -3.71555 0
M  V30 985 H 100.039 -0.558663 -4.20303 0
M  V30 986 C 98.4977 0.629169 -3.30973 0
M  V30 987 O 99.0277 1.67404 -3.65156 0
M  V30 988 N 97.2337 0.611057 -2.84103 0
M  V30 989 H 96.7807 -0.239593 -2.56483 0
M  V30 990 H 96.7387 1.47647 -2.77575 0
M  V30 991 N 100.511 1.16574 -1.06058 0
M  V30 992 C 101.736 1.91493 -0.796562 0
M  V30 993 C 102.161 1.76773 0.642868 0
M  V30 994 O 101.519 1.09142 1.44768 0
M  V30 995 C 101.567 3.40293 -1.19303 0
M  V30 996 O 100.671 4.11074 -0.330394 0
M  V30 997 H 100.012 0.596678 -0.291326 0
M  V30 998 H 102.542 1.47708 -1.41575 0
M  V30 999 H 102.552 3.91057 -1.16356 0
M  V30 1000 H 101.227 3.50326 -2.24153 0
M  V30 1001 H 99.8038 3.70513 -0.421225 0
M  V30 1002 N 101.989 0.842826 1.3317 0
M  V30 1003 C 102.922 0.223862 2.27099 0
M  V30 1004 C 103.9 -0.631311 1.49844 0
M  V30 1005 O 105.084 -0.590708 1.79005 0
M  V30 1006 C 102.211 -0.685313 3.31694 0
M  V30 1007 C 101.257 0.094919 4.26394 0
M  V30 1008 S 102.09 1.45546 5.15341 0
M  V30 1009 C 103.246 0.551685 6.23464 0
M  V30 1010 H 103.479 1.02015 2.79249 0
M  V30 1011 H 101.012 0.639797 1.4052 0
M  V30 1012 H 102.97 -1.20426 3.92438 0
M  V30 1013 H 101.631 -1.4553 2.78352 0
M  V30 1014 H 100.824 -0.597059 5.00451 0
M  V30 1015 H 100.426 0.545054 3.70007 0
M  V30 1016 H 102.718 -0.248877 6.77043 0
M  V30 1017 H 103.661 1.26253 6.96754 0
M  V30 1018 H 104.069 0.131275 5.64347 0
M  V30 1019 N 103.467 -1.45747 0.599634 0
M  V30 1020 C 104.707 -2.04181 0.0946309 0
M  V30 1021 C 105.071 -1.45895 -1.24815 0
M  V30 1022 O 106.272 -1.95633 -1.8434 0
M  V30 1023 C 104.543 -3.57368 0.047581 0
M  V30 1024 S 106.102 -4.36997 -0.397387 0
M  V30 1025 H 102.92 -0.70953 0.0456954 0
M  V30 1026 H 105.522 -1.78564 0.795946 0
M  V30 1027 H 104.226 -3.97303 1.02852 0
M  V30 1028 H 103.757 -3.87549 -0.675977 0
M  V30 1029 H 105.772 -4.68012 -1.64862 0
M  V30 1030 N 104.945 -0.338344 -1.53925 0
M  V30 1031 C 106.194 0.260732 -2.00008 0
M  V30 1032 C 106.507 1.52073 -1.23017 0
M  V30 1033 O 107.713 2.19672 -1.5955 0
M  V30 1034 C 106.169 0.51515 -3.56194 0
M  V30 1035 C 105.777 -0.728645 -4.42035 0
M  V30 1036 C 107.521 1.07337 -4.10706 0
M  V30 1037 C 105.428 -0.445315 -5.89721 0
M  V30 1038 H 104.358 0.101205 -0.747177 0
M  V30 1039 H 107.009 -0.452866 -1.77824 0
M  V30 1040 H 105.391 1.28932 -3.74423 0
M  V30 1041 H 106.565 -1.50352 -4.35581 0
M  V30 1042 H 104.88 -1.20813 -3.98489 0
M  V30 1043 H 107.477 1.30022 -5.18651 0
M  V30 1044 H 107.82 2.0273 -3.63602 0
M  V30 1045 H 108.353 0.360034 -3.96167 0
M  V30 1046 H 105.092 -1.36883 -6.41049 0
M  V30 1047 H 104.612 0.291569 -5.99091 0
M  V30 1048 H 106.291 -0.0606218 -6.46972 0
M  V30 1049 N 106.423 1.57458 -0.0668435 0
M  V30 1050 C 107.386 2.11323 0.887422 0
M  V30 1051 C 108.386 1.03618 1.22964 0
M  V30 1052 O 109.576 1.29626 1.16373 0
M  V30 1053 C 106.708 2.61048 2.19242 0
M  V30 1054 H 107.901 2.96942 0.420194 0
M  V30 1055 H 105.454 1.55239 0.181793 0
M  V30 1056 H 106.189 1.78868 2.70512 0
M  V30 1057 H 105.974 3.39769 1.95702 0
M  V30 1058 H 107.464 3.02814 2.87565 0
M  V30 1059 N 107.901 -0.206675 1.56239 0
M  V30 1060 C 108.811 -1.27686 1.96808 0
M  V30 1061 C 109.827 -1.50455 0.874035 0
M  V30 1062 O 111.003 -1.63295 1.17884 0
M  V30 1063 C 108.068 -2.60358 2.28942 0
M  V30 1064 C 107.129 -2.45762 3.51994 0
M  V30 1065 C 106.362 -3.72108 3.82585 0
M  V30 1066 O 106.585 -4.75776 3.14631 0
M  V30 1067 O 105.519 -3.6833 4.76043 0
M  V30 1068 H 109.345 -0.962593 2.88041 0
M  V30 1069 H 106.93 -0.410746 1.43643 0
M  V30 1070 H 108.812 -3.38687 2.50737 0
M  V30 1071 H 107.487 -2.91435 1.4088 0
M  V30 1072 H 106.394 -1.65584 3.35459 0
M  V30 1073 H 107.727 -2.19621 4.40486 0
M  V30 1074 N 109.379 -1.50304 -0.473955 0
M  V30 1075 C 110.628 -1.60392 -1.22301 0
M  V30 1076 C 110.941 -0.308411 -1.93153 0
M  V30 1077 O 112.147 -0.288156 -2.69966 0
M  V30 1078 C 110.603 -2.83109 -2.2221 0
M  V30 1079 C 110.211 -4.19524 -1.57173 0
M  V30 1080 C 111.955 -3.0254 -2.97775 0
M  V30 1081 C 109.862 -5.33431 -2.55353 0
M  V30 1082 H 108.792 -0.597286 -0.460179 0
M  V30 1083 H 111.443 -1.76731 -0.493803 0
M  V30 1084 H 109.825 -2.60322 -2.9841 0
M  V30 1085 H 110.999 -4.52554 -0.867824 0
M  V30 1086 H 109.314 -4.05674 -0.939002 0
M  V30 1087 H 111.911 -3.84811 -3.71248 0
M  V30 1088 H 112.254 -2.14154 -3.56992 0
M  V30 1089 H 112.787 -3.25494 -2.28688 0
M  V30 1090 H 109.526 -6.23962 -2.00878 0
M  V30 1091 H 109.046 -5.04823 -3.23904 0
M  V30 1092 H 110.725 -5.63887 -3.17239 0
M  V30 1093 N 110.857 0.726932 -1.39834 0
M  V30 1094 C 112.134 1.47902 -1.28001 0
M  V30 1095 C 112.514 2.1083 0.106789 0
M  V30 1096 O 111.862 1.99242 1.11869 0
M  V30 1097 C 112.072 2.52392 -2.41038 0
M  V30 1098 C 113.42 3.18546 -2.80737 0
M  V30 1099 O 114.444 2.62708 -2.40547 0
M  V30 1100 O 113.303 4.19604 -3.50135 0
M  V30 1101 H 110.397 0.657163 -0.502062 0
M  V30 1102 H 112.943 0.760071 -1.51727 0
M  V30 1103 H 111.715 2.04329 -3.33715 0
M  V30 1104 H 111.338 3.31837 -2.19021 0
M  V30 1105 N 112.336 1.25143 0.95797 0
M  V30 1106 C 113.266 1.07711 2.07173 0
M  V30 1107 C 114.247 -0.0128462 1.70095 0
M  V30 1108 O 115.432 0.156061 1.93572 0
M  V30 1109 C 112.562 0.691503 3.40346 0
M  V30 1110 C 111.516 1.73132 3.9142 0
M  V30 1111 C 110.842 1.20049 5.21049 0
M  V30 1112 C 112.142 3.1294 4.1817 0
M  V30 1113 H 113.836 2.00873 2.22014 0
M  V30 1114 H 111.382 0.967191 1.06684 0
M  V30 1115 H 113.335 0.556505 4.17709 0
M  V30 1116 H 112.059 -0.275819 3.25433 0
M  V30 1117 H 110.718 1.8547 3.16222 0
M  V30 1118 H 110.366 0.223499 5.02503 0
M  V30 1119 H 110.066 1.89545 5.56189 0
M  V30 1120 H 111.59 1.07782 6.01012 0
M  V30 1121 H 113.004 3.03775 4.86203 0
M  V30 1122 H 111.401 3.79875 4.64559 0
M  V30 1123 H 112.471 3.6025 3.24573 0
M  V30 1124 N 113.814 -1.1601 1.06675 0
M  V30 1125 C 115.063 -1.85973 0.780818 0
M  V30 1126 C 115.376 -1.82819 -0.695444 0
M  V30 1127 O 116.582 -2.484 -1.09589 0
M  V30 1128 C 115.038 -3.33757 1.34665 0
M  V30 1129 C 114.646 -3.45374 2.85343 0
M  V30 1130 C 116.39 -4.0895 1.13843 0
M  V30 1131 C 114.297 -4.87266 3.35151 0
M  V30 1132 H 113.227 -0.696661 0.288407 0
M  V30 1133 H 115.878 -1.30903 1.28595 0
M  V30 1134 H 114.26 -3.88456 0.769274 0
M  V30 1135 H 115.434 -3.00816 3.49065 0
M  V30 1136 H 113.749 -2.83619 3.04876 0
M  V30 1137 H 116.346 -5.13654 1.4854 0
M  V30 1138 H 116.689 -4.16229 0.0770282 0
M  V30 1139 H 117.222 -3.605 1.68179 0
M  V30 1140 H 113.961 -4.85168 4.40786 0
M  V30 1141 H 113.481 -5.32433 2.76179 0
M  V30 1142 H 115.16 -5.56097 3.30704 0
M  V30 1143 N 115.292 -0.849877 -1.32721 0
M  V30 1144 C 116.703 -0.506188 -1.79707 0
M  V30 1145 C 117.054 0.975627 -1.70223 0
M  V30 1146 O 116.179 1.76078 -1.25799 0
M  V30 1147 C 116.774 -0.912044 -3.26293 0
M  V30 1148 C 115.333 -0.620326 -3.71253 0
M  V30 1149 C 114.48 -1.11439 -2.53922 0
M  V30 1150 H 117.431 -1.03754 -1.20087 0
M  V30 1151 H 117.452 -0.226493 -3.79825 0
M  V30 1152 H 116.964 -1.99057 -3.33164 0
M  V30 1153 H 115.065 0.447674 -3.69901 0
M  V30 1154 H 115.178 -1.18327 -4.64258 0
M  V30 1155 H 113.542 -0.534834 -2.49021 0
M  V30 1156 H 114.325 -2.19992 -2.6355 0
M  V30 1157 N 116.77 1.45427 -0.607355 0
M  V30 1158 C 118.186 1.57283 -0.270985 0
M  V30 1159 C 118.386 1.59875 1.22647 0
M  V30 1160 O 117.442 1.52893 2.00948 0
M  V30 1161 C 118.755 2.85566 -0.941952 0
M  V30 1162 C 120.303 2.9924 -0.917849 0
M  V30 1163 C 120.778 4.30293 -1.56882 0
M  V30 1164 N 122.269 4.37051 -1.5343 0
M  V30 1165 C 123.004 5.37123 -2.00715 0
M  V30 1166 N 122.5 6.43734 -2.56084 0
M  V30 1167 N 124.293 5.28479 -1.91484 0
M  V30 1168 H 116.444 1.41988 -1.57966 0
M  V30 1169 H 118.707 0.67885 -0.661715 0
M  V30 1170 H 118.413 2.8955 -1.99633 0
M  V30 1171 H 118.287 3.74322 -0.465096 0
M  V30 1172 H 120.674 2.94822 0.127984 0
M  V30 1173 H 120.755 2.11895 -1.43297 0
M  V30 1174 H 120.399 4.35469 -2.61398 0
M  V30 1175 H 120.329 5.16454 -1.02873 0
M  V30 1176 H 122.82 3.60615 -1.12982 0
M  V30 1177 H 123.133 7.16341 -2.89958 0
M  V30 1178 H 121.478 6.44485 -2.60122 0
M  V30 1179 H 124.669 4.44098 -1.47967 0
M  V30 1180 H 124.842 6.0632 -2.28648 0
M  V30 1181 N 118.248 0.346503 1.53744 0
M  V30 1182 C 119.525 -0.304532 1.93215 0
M  V30 1183 C 119.905 -1.67993 1.27834 0
M  V30 1184 O 119.253 -2.24411 0.430352 0
M  V30 1185 C 119.463 -0.373852 3.46992 0
M  V30 1186 C 120.811 -0.62329 4.2 0
M  V30 1187 O 121.835 -0.455847 3.53271 0
M  V30 1188 O 120.694 -0.947879 5.38217 0
M  V30 1189 H 117.788 -0.178318 0.807547 0
M  V30 1190 H 120.334 0.397895 1.64969 0
M  V30 1191 H 119.106 0.591224 3.86808 0
M  V30 1192 H 118.729 -1.12294 3.81413 0
M  V30 1193 N 119.726 -1.57421 0.075193 0
M  V30 1194 C 121.142 -1.57099 -0.281444 0
M  V30 1195 C 121.342 -1.08486 -1.69803 0
M  V30 1196 O 120.398 -0.752279 -2.41033 0
M  V30 1197 C 121.711 -3.00571 -0.0880041 0
M  V30 1198 C 123.259 -3.12605 -0.157281 0
M  V30 1199 C 123.734 -4.57999 0.0079207 0
M  V30 1200 N 125.225 -4.63176 -0.0475725 0
M  V30 1201 C 125.96 -5.73373 0.0557876 0
M  V30 1202 N 125.456 -6.92473 0.21286 0
M  V30 1203 N 127.249 -5.621 -0.00152098 0
M  V30 1204 H 119.4 -1.87335 1.00098 0
M  V30 1205 H 121.663 -0.86377 0.390646 0
M  V30 1206 H 121.369 -3.40262 0.889629 0
M  V30 1207 H 121.243 -3.67754 -0.838875 0
M  V30 1208 H 123.63 -2.72798 -1.1254 0
M  V30 1209 H 123.711 -2.48053 0.62475 0
M  V30 1210 H 123.355 -4.98496 0.972824 0
M  V30 1211 H 123.285 -5.20586 -0.793556 0
M  V30 1212 H 125.776 -3.7753 -0.167244 0
M  V30 1213 H 126.089 -7.72279 0.283781 0
M  V30 1214 H 124.434 -6.94556 0.248267 0
M  V30 1215 H 127.625 -4.67938 -0.122958 0
M  V30 1216 H 127.798 -6.47948 0.0824844 0
M  V30 1217 N 121.204 0.198386 -1.56346 0
M  V30 1218 C 122.615 0.763358 -1.70381 0
M  V30 1219 C 122.966 1.83995 -0.681203 0
M  V30 1220 O 122.091 2.15785 0.16305 0
M  V30 1221 C 122.686 1.39143 -3.08909 0
M  V30 1222 C 121.245 1.90352 -3.2472 0
M  V30 1223 C 120.392 0.772233 -2.6633 0
M  V30 1224 H 123.343 -0.0266377 -1.58678 0
M  V30 1225 H 123.364 2.26076 -3.06055 0
M  V30 1226 H 122.876 0.607638 -3.83314 0
M  V30 1227 H 120.977 2.71461 -2.55225 0
M  V30 1228 H 121.09 2.06757 -4.3219 0
M  V30 1229 H 119.454 1.18566 -2.2542 0
M  V30 1230 H 120.237 0.00073556 -3.433 0
M  V30 1231 N 122.682 1.50554 0.465978 0
M  V30 1232 C 123.929 1.61798 1.21768 0
M  V30 1233 C 124.257 0.320696 1.91838 0
M  V30 1234 O 123.512 -0.693724 1.82992 0
M  V30 1235 C 123.811 2.75152 2.28093 0
M  V30 1236 C 123.477 4.15454 1.75239 0
M  V30 1237 C 122.139 4.53628 1.60546 0
M  V30 1238 C 124.491 5.03121 1.36083 0
M  V30 1239 C 121.819 5.77204 1.05128 0
M  V30 1240 C 124.171 6.27249 0.821056 0
M  V30 1241 C 122.835 6.64221 0.660795 0
M  V30 1242 H 122.105 0.592063 0.445582 0
M  V30 1243 H 124.752 1.84503 0.512927 0
M  V30 1244 H 123.057 2.46556 3.04496 0
M  V30 1245 H 124.754 2.81055 2.86023 0
M  V30 1246 H 121.344 3.85341 1.87644 0
M  V30 1247 H 125.528 4.74257 1.46267 0
M  V30 1248 H 120.784 6.0452 0.91462 0
M  V30 1249 H 124.958 6.94537 0.509018 0
M  V30 1250 H 122.585 7.59854 0.229226 0
M  V30 1251 N 124.16 -0.719506 1.40217 0
M  V30 1252 C 125.406 -1.48152 1.38488 0
M  V30 1253 C 125.739 -1.94195 -0.0141867 0
M  V30 1254 O 125.014 -1.67884 -0.982096 0
M  V30 1255 C 125.297 -2.71035 2.37091 0
M  V30 1256 C 125.15 -2.30912 3.86005 0
M  V30 1257 C 126.469 -3.73182 2.33288 0
M  V30 1258 H 123.588 -0.537395 0.504357 0
M  V30 1259 H 126.23 -0.821472 1.71324 0
M  V30 1260 H 124.38 -3.27352 2.0922 0
M  V30 1261 H 126.052 -1.80107 4.24687 0
M  V30 1262 H 124.295 -1.62958 4.02029 0
M  V30 1263 H 124.966 -3.18978 4.50508 0
M  V30 1264 H 127.442 -3.26485 2.57966 0
M  V30 1265 H 126.318 -4.56806 3.04334 0
M  V30 1266 H 126.579 -4.21202 1.34317 0
M  V30 1267 N 125.638 -1.25649 -0.95132 0
M  V30 1268 C 126.878 -1.11802 -1.71113 0
M  V30 1269 C 127.242 0.334758 -1.89059 0
M  V30 1270 O 128.443 0.595121 -2.62129 0
M  V30 1271 C 126.714 -1.85512 -3.05483 0
M  V30 1272 S 128.273 -1.87597 -3.96677 0
M  V30 1273 H 125.091 -0.399552 -0.588115 0
M  V30 1274 H 127.693 -1.59222 -1.1344 0
M  V30 1275 H 126.397 -2.90299 -2.90094 0
M  V30 1276 H 125.928 -1.38493 -3.68216 0
M  V30 1277 H 127.943 -0.955389 -4.86916 0
M  V30 1278 N 127.117 1.15442 -1.07289 0
M  V30 1279 C 128.08 2.18358 -0.696591 0
M  V30 1280 C 129.08 1.58637 0.262837 0
M  V30 1281 O 130.27 1.74145 0.0438809 0
M  V30 1282 C 127.402 3.4089 -0.0266151 0
M  V30 1283 H 128.595 2.53162 -1.60776 0
M  V30 1284 H 126.148 1.29893 -0.869342 0
M  V30 1285 H 126.883 3.11653 0.896822 0
M  V30 1286 H 126.668 3.85495 -0.716657 0
M  V30 1287 H 128.158 4.17009 0.222028 0
M  V30 1288 N 128.595 0.856903 1.32268 0
M  V30 1289 C 130.006 0.515711 1.79436 0
M  V30 1290 C 130.357 -0.966586 1.70738 0
M  V30 1291 O 129.482 -1.75409 1.26731 0
M  V30 1292 C 130.077 0.929335 3.25805 0
M  V30 1293 C 128.636 0.640006 3.70919 0
M  V30 1294 C 127.783 1.12784 2.53328 0
M  V30 1295 H 130.734 1.04389 1.19535 0
M  V30 1296 H 130.755 0.246633 3.797 0
M  V30 1297 H 130.267 2.00821 3.32103 0
M  V30 1298 H 128.368 -0.428051 3.70133 0
M  V30 1299 H 128.481 1.20788 4.63624 0
M  V30 1300 H 126.845 0.548033 2.48734 0
M  V30 1301 H 127.628 2.21387 2.62379 0
M  V30 1302 N 130.073 -1.45103 0.615059 0
M  V30 1303 C 131.298 -2.07064 0.117988 0
M  V30 1304 C 131.723 -1.4554 -1.19163 0
M  V30 1305 O 131.081 -0.550855 -1.72729 0
M  V30 1306 C 131.129 -3.606 -0.000288387 0
M  V30 1307 O 130.233 -3.98847 -1.04856 0
M  V30 1308 H 129.574 -0.659467 0.0774581 0
M  V30 1309 H 132.104 -1.86236 0.847186 0
M  V30 1310 H 132.114 -4.07529 -0.196091 0
M  V30 1311 H 130.789 -4.04765 0.955932 0
M  V30 1312 H 129.366 -3.63577 -0.828619 0
M  V30 1313 N 131.551 -0.354651 -1.53558 0
M  V30 1314 C 132.776 0.242153 -2.05981 0
M  V30 1315 C 133.201 1.42553 -1.2272 0
M  V30 1316 O 132.559 1.79656 -0.243604 0
M  V30 1317 C 132.607 0.624367 -3.55154 0
M  V30 1318 O 131.711 1.72301 -3.74681 0
M  V30 1319 H 131.052 0.0378432 -0.662921 0
M  V30 1320 H 133.582 -0.512087 -1.98088 0
M  V30 1321 H 133.592 0.898433 -3.97985 0
M  V30 1322 H 132.267 -0.240989 -4.15201 0
M  V30 1323 H 130.844 1.44535 -3.4375 0
M  V30 1324 N 133.029 1.57378 -0.0835403 0
M  V30 1325 C 133.976 2.13384 0.879539 0
M  V30 1326 C 134.946 1.04936 1.28754 0
M  V30 1327 O 136.131 1.32662 1.37133 0
M  V30 1328 C 133.271 2.70932 2.13752 0
M  V30 1329 C 132.384 3.93575 1.7811 0
M  V30 1330 C 131.519 4.39326 2.98607 0
M  V30 1331 C 130.558 5.54587 2.59037 0
M  V30 1332 N 129.695 5.95243 3.72331 0
M  V30 1333 H 134.535 2.9537 0.395076 0
M  V30 1334 H 132.072 1.45953 0.183349 0
M  V30 1335 H 134.03 3.02411 2.87408 0
M  V30 1336 H 132.66 1.91693 2.59718 0
M  V30 1337 H 131.712 3.68483 0.94469 0
M  V30 1338 H 133.024 4.77258 1.45005 0
M  V30 1339 H 132.178 4.72528 3.80529 0
M  V30 1340 H 130.917 3.5452 3.34913 0
M  V30 1341 H 129.922 5.21024 1.75539 0
M  V30 1342 H 131.147 6.41133 2.23887 0
M  V30 1343 H 129.093 5.13385 4.08378 0
M  V30 1344 H 129.01 6.73694 3.43034 0
M  V30 1345 H 130.278 6.33072 4.54797 0
M  V30 1346 N 134.507 -0.190092 1.56449 0
M  V30 1347 C 135.735 -0.925772 1.85033 0
M  V30 1348 C 136.15 -1.76638 0.666658 0
M  V30 1349 O 135.507 -1.78822 -0.364565 0
M  V30 1350 C 135.558 -1.81786 3.12468 0
M  V30 1351 O 135.279 -1.01118 4.26271 0
M  V30 1352 C 136.78 -2.6648 3.54265 0
M  V30 1353 H 134 -0.269872 0.614337 0
M  V30 1354 H 136.544 -0.195837 2.0356 0
M  V30 1355 H 134.699 -2.50136 2.95822 0
M  V30 1356 H 135.113 -1.61956 4.98869 0
M  V30 1357 H 136.587 -3.24722 4.46385 0
M  V30 1358 H 137.064 -3.40434 2.77491 0
M  V30 1359 H 137.67 -2.03493 3.73458 0
M  V30 1360 N 135.985 -1.50799 -0.457987 0
M  V30 1361 C 137.233 -1.62121 -1.2067 0
M  V30 1362 C 137.554 -0.329793 -1.92191 0
M  V30 1363 O 136.824 0.653409 -1.84682 0
M  V30 1364 H 135.404 -0.597441 -0.448411 0
M  V30 1365 H 138.066 -1.87637 -0.527096 0
M  V30 1366 H 137.162 -2.43882 -1.94751 0
M  V30 1367 N 137.463 0.71206 -1.40597 0
M  V30 1368 C 138.688 1.50617 -1.42581 0
M  V30 1369 C 139.113 1.88079 -0.0282102 0
M  V30 1370 O 138.471 1.53511 0.964579 0
M  V30 1371 C 138.519 2.7557 -2.3258 0
M  V30 1372 O 137.623 3.72414 -1.77148 0
M  V30 1373 H 136.964 0.453966 -0.484573 0
M  V30 1374 H 139.494 0.876649 -1.84868 0
M  V30 1375 H 139.504 3.2406 -2.47889 0
M  V30 1376 H 138.179 2.47639 -3.34138 0
M  V30 1377 H 136.756 3.31276 -1.71204 0
M  V30 1378 N 138.941 1.26152 0.944643 0
M  V30 1379 C 140.187 1.11657 1.69294 0
M  V30 1380 C 140.52 -0.339926 1.91202 0
M  V30 1381 O 139.795 -1.24994 1.49019 0
M  V30 1382 C 140.078 1.88236 3.06984 0
M  V30 1383 C 139.931 3.41772 2.92424 0
M  V30 1384 C 141.25 1.67343 4.07043 0
M  V30 1385 H 138.369 0.407004 0.614424 0
M  V30 1386 H 141.011 1.55106 1.09737 0
M  V30 1387 H 139.161 1.51308 3.57824 0
M  V30 1388 H 140.833 3.88433 2.48832 0
M  V30 1389 H 139.076 3.68974 2.28124 0
M  V30 1390 H 139.747 3.90579 3.90067 0
M  V30 1391 H 142.223 1.99509 3.65151 0
M  V30 1392 H 141.099 2.23346 5.01406 0
M  V30 1393 H 141.36 0.617158 4.37771 0
M  V30 1394 N 140.419 -1.14872 1.07899 0
M  V30 1395 C 141.647 -1.89661 0.82683 0
M  V30 1396 C 142.062 -1.78312 -0.620519 0
M  V30 1397 O 141.419 -1.13888 -1.42604 0
M  V30 1398 C 141.47 -3.39817 1.23316 0
M  V30 1399 O 141.191 -3.50845 2.62372 0
M  V30 1400 C 142.692 -4.31615 1.0111 0
M  V30 1401 H 139.912 -0.60092 0.298557 0
M  V30 1402 H 142.456 -1.4551 1.43691 0
M  V30 1403 H 140.611 -3.8161 0.667286 0
M  V30 1404 H 141.025 -4.44076 2.79101 0
M  V30 1405 H 142.499 -5.35367 1.34486 0
M  V30 1406 H 142.976 -4.39169 -0.0522168 0
M  V30 1407 H 143.582 -3.95572 1.56215 0
M  V30 1408 N 141.898 -0.863906 -1.31812 0
M  V30 1409 C 143.126 -0.486111 -2.01108 0
M  V30 1410 C 143.541 0.919755 -1.64882 0
M  V30 1411 O 142.898 1.60162 -0.874893 0
M  V30 1412 C 142.949 -0.626435 -3.56031 0
M  V30 1413 O 142.67 -1.97693 -3.90959 0
M  V30 1414 C 144.171 -0.248857 -4.42601 0
M  V30 1415 H 141.391 -0.190052 -0.643523 0
M  V30 1416 H 143.935 -1.1634 -1.68182 0
M  V30 1417 H 142.09 0.00322717 -3.874 0
M  V30 1418 H 142.504 -1.98034 -4.85678 0
M  V30 1419 H 143.978 -0.398016 -5.50563 0
M  V30 1420 H 144.455 0.811489 -4.31638 0
M  V30 1421 H 145.061 -0.853971 -4.16638 0
M  V30 1422 N 143.376 1.44774 -0.622745 0
M  V30 1423 C 144.604 2.06487 -0.130722 0
M  V30 1424 C 145.019 1.46476 1.19123 0
M  V30 1425 O 144.376 0.584502 1.72887 0
M  V30 1426 C 144.427 3.615 -0.000807207 0
M  V30 1427 O 144.148 4.19274 -1.27048 0
M  V30 1428 C 145.649 4.40229 0.520898 0
M  V30 1429 H 142.869 0.666704 -0.0758106 0
M  V30 1430 H 145.413 1.85779 -0.854774 0
M  V30 1431 H 143.568 3.81498 0.673643 0
M  V30 1432 H 143.982 5.12622 -1.1099 0
M  V30 1433 H 145.456 5.49144 0.560838 0
M  V30 1434 H 145.933 4.1108 1.54627 0
M  V30 1435 H 146.539 4.25131 -0.120018 0
M  V30 1436 N 144.854 0.36279 1.53368 0
M  V30 1437 C 146.084 -0.228281 2.05335 0
M  V30 1438 C 146.492 -1.43226 1.23625 0
M  V30 1439 O 145.835 -1.81717 0.269206 0
M  V30 1440 C 145.897 -0.688549 3.52845 0
M  V30 1441 C 145.561 0.398362 4.5526 0
M  V30 1442 C 146.558 1.24732 5.04716 0
M  V30 1443 C 144.243 0.557805 4.99193 0
M  V30 1444 C 146.237 2.2411 5.96702 0
M  V30 1445 C 143.924 1.55495 5.90986 0
M  V30 1446 C 144.922 2.39503 6.39631 0
M  V30 1447 O 144.61 3.37517 7.29615 0
M  V30 1448 H 144.342 -0.044395 0.674541 0
M  V30 1449 H 146.896 0.518668 1.98744 0
M  V30 1450 H 145.126 -1.48706 3.56964 0
M  V30 1451 H 146.815 -1.20231 3.87685 0
M  V30 1452 H 147.581 1.13532 4.71525 0
M  V30 1453 H 143.46 -0.0862959 4.60919 0
M  V30 1454 H 147.004 2.89718 6.34594 0
M  V30 1455 H 142.901 1.66744 6.23592 0
M  V30 1456 H 143.669 3.33213 7.47604 0
M  V30 1457 N 146.332 -1.57332 0.0918853 0
M  V30 1458 C 147.572 -1.96117 -0.575988 0
M  V30 1459 C 147.936 -0.972499 -1.65549 0
M  V30 1460 O 149.137 -1.24872 -2.38034 0
M  V30 1461 C 147.408 -3.39407 -1.11973 0
M  V30 1462 S 148.967 -4.00185 -1.79992 0
M  V30 1463 H 145.785 -0.685682 -0.188045 0
M  V30 1464 H 148.387 -1.94755 0.170525 0
M  V30 1465 H 147.091 -4.09131 -0.322504 0
M  V30 1466 H 146.622 -3.44358 -1.90214 0
M  V30 1467 H 148.637 -3.88728 -3.08391 0
M  V30 1468 N 147.81 0.181792 -1.56548 0
M  V30 1469 C 149.05 0.906711 -1.83189 0
M  V30 1470 C 149.414 1.79882 -0.671312 0
M  V30 1471 O 150.615 2.56054 -0.81792 0
M  V30 1472 C 148.886 1.69023 -3.14906 0
M  V30 1473 S 150.445 2.46535 -3.62996 0
M  V30 1474 H 147.263 0.303877 -0.642791 0
M  V30 1475 H 149.865 0.169107 -1.94767 0
M  V30 1476 H 148.569 1.02571 -3.97376 0
M  V30 1477 H 148.1 2.46941 -3.06241 0
M  V30 1478 H 150.115 3.71014 -3.29489 0
M  V30 1479 N 149.288 1.51039 0.449983 0
M  V30 1480 C 150.236 1.71995 1.5659 0
M  V30 1481 C 151.23 0.586029 1.5894 0
M  V30 1482 O 152.436 0.76709 1.62837 0
M  V30 1483 H 148.811 0.543233 0.520001 0
M  V30 1484 H 150.782 2.65562 1.36085 0
M  V30 1485 C 149.531 1.8506 2.9436 0
M  V30 1486 H 148.854 2.71712 2.93279 0
M  V30 1487 H 150.294 2.0374 3.71842 0
M  V30 1488 C 148.753 0.607277 3.31382 0
M  V30 1489 O 149.283 -0.243903 4.00959 0
M  V30 1490 N 147.489 0.455073 2.87015 0
M  V30 1491 H 147.036 1.14879 2.30566 0
M  V30 1492 H 146.994 -0.375611 3.12148 0
M  V30 1493 N 150.766 -0.704594 1.40972 0
M  V30 1494 C 151.698 -1.82974 1.38033 0
M  V30 1495 C 152.711 -1.60305 0.283931 0
M  V30 1496 O 153.9 -1.69975 0.545042 0
M  V30 1497 C 151 -3.19578 1.12795 0
M  V30 1498 C 150.173 -3.69352 2.34302 0
M  V30 1499 C 149.232 -4.84601 2.05058 0
M  V30 1500 O 148.258 -4.96682 2.7802 0
M  V30 1501 N 149.46 -5.71194 1.03528 0
M  V30 1502 H 152.225 -1.85991 2.35005 0
M  V30 1503 H 149.786 -0.886567 1.35468 0
M  V30 1504 H 151.778 -3.9429 0.911987 0
M  V30 1505 H 150.348 -3.11642 0.24452 0
M  V30 1506 H 149.568 -2.85649 2.71659 0
M  V30 1507 H 150.856 -3.99345 3.1528 0
M  V30 1508 H 150.254 -5.64054 0.431217 0
M  V30 1509 H 148.811 -6.45843 0.879205 0
M  V30 1510 N 152.244 -1.26651 -0.937939 0
M  V30 1511 C 153.521 -1.0313 -1.66204 0
M  V30 1512 C 153.901 0.437256 -2.06522 0
M  V30 1513 O 153.249 1.41831 -1.79154 0
M  V30 1514 C 153.459 -1.98314 -2.87181 0
M  V30 1515 C 154.807 -2.27107 -3.58758 0
M  V30 1516 O 155.831 -1.96205 -2.97291 0
M  V30 1517 O 154.69 -2.79736 -4.69479 0
M  V30 1518 H 151.784 -0.392384 -0.727986 0
M  V30 1519 H 154.33 -1.37874 -0.989382 0
M  V30 1520 H 153.102 -2.97399 -2.54302 0
M  V30 1521 H 152.725 -1.64068 -3.6217 0
M  V30 1522 N 153.722 1.14298 -1.08507 0
M  V30 1523 C 154.672 2.17449 -0.685569 0
M  V30 1524 C 155.656 1.58167 0.295315 0
M  V30 1525 O 156.848 1.76675 0.107172 0
M  V30 1526 C 153.977 3.43161 -0.0975318 0
M  V30 1527 C 153.063 4.09471 -1.10426 0
M  V30 1528 N 153.454 4.51089 -2.28806 0
M  V30 1529 C 151.752 4.35976 -0.940258 0
M  V30 1530 C 152.453 5.02654 -2.9277 0
M  V30 1531 N 151.429 4.96927 -2.20374 0
M  V30 1532 H 155.231 2.47369 -1.587 0
M  V30 1533 H 152.745 1.30992 -0.959936 0
M  V30 1534 H 154.742 4.16388 0.20664 0
M  V30 1535 H 153.402 3.14719 0.798872 0
M  V30 1536 H 154.413 4.44097 -2.66455 0
M  V30 1537 H 151.09 4.17386 -0.0977441 0
M  V30 1538 H 152.48 5.44723 -3.93352 0
M  V30 1539 N 155.201 0.870884 1.31352 0
M  V30 1540 C 156.441 0.488783 1.9847 0
M  V30 1541 C 156.805 -0.941536 1.67329 0
M  V30 1542 O 158.006 -1.42903 2.27667 0
M  V30 1543 C 156.277 0.739688 3.49662 0
M  V30 1544 S 157.836 0.457582 4.36408 0
M  V30 1545 H 154.654 0.18242 0.6872 0
M  V30 1546 H 157.256 1.12711 1.59739 0
M  V30 1547 H 155.96 1.77944 3.69816 0
M  V30 1548 H 155.491 0.0883905 3.93301 0
M  V30 1549 H 157.506 -0.709752 4.91098 0
M  V30 1550 N 156.679 -1.44442 0.630414 0
M  V30 1551 C 157.627 -2.32437 -0.0871428 0
M  V30 1552 C 158.621 -1.47304 -0.836525 0
M  V30 1553 O 159.827 -1.63653 -0.749506 0
M  V30 1554 H 156.202 -0.750533 -0.0469495 0
M  V30 1555 H 158.173 -2.90709 0.673096 0
M  V30 1556 C 156.922 -3.31288 -1.05563 0
M  V30 1557 H 156.245 -3.96805 -0.488426 0
M  V30 1558 H 157.685 -3.9554 -1.52721 0
M  V30 1559 C 156.144 -2.6016 -2.14052 0
M  V30 1560 O 156.674 -2.39997 -3.22124 0
M  V30 1561 N 154.88 -2.19911 -1.89967 0
M  V30 1562 H 154.427 -2.36509 -1.02085 0
M  V30 1563 H 154.385 -1.72646 -2.62756 0
M  V30 1564 N 158.157 -0.370918 -1.53173 0
M  V30 1565 C 159.104 0.473035 -2.259 0
M  V30 1566 C 160.074 1.07311 -1.26781 0
M  V30 1567 O 161.259 1.1046 -1.55574 0
M  V30 1568 C 158.399 1.60405 -3.05556 0
M  V30 1569 C 157.512 1.02863 -4.19575 0
M  V30 1570 C 156.647 2.12918 -4.86661 0
M  V30 1571 C 155.686 1.52869 -5.92704 0
M  V30 1572 N 154.823 2.56779 -6.53459 0
M  V30 1573 H 159.663 -0.153649 -2.97604 0
M  V30 1574 H 157.2 -0.0875946 -1.46839 0
M  V30 1575 H 159.158 2.27034 -3.50016 0
M  V30 1576 H 157.788 2.20131 -2.36097 0
M  V30 1577 H 156.84 0.252465 -3.79561 0
M  V30 1578 H 158.152 0.549642 -4.95762 0
M  V30 1579 H 157.306 2.87356 -5.34333 0
M  V30 1580 H 156.045 2.6417 -4.09958 0
M  V30 1581 H 155.05 0.769479 -5.44389 0
M  V30 1582 H 156.275 1.02435 -6.7133 0
M  V30 1583 H 154.221 3.07235 -5.79606 0
M  V30 1584 H 154.138 2.13583 -7.25202 0
M  V30 1585 H 155.406 3.30903 -7.05779 0
M  V30 1586 N 159.635 1.57281 -0.100228 0
M  V30 1587 C 160.884 1.93713 0.561984 0
M  V30 1588 C 161.197 0.984492 1.69018 0
M  V30 1589 O 162.403 1.24273 2.41389 0
M  V30 1590 C 160.859 3.4421 1.05106 0
M  V30 1591 C 160.467 4.47975 -0.0476628 0
M  V30 1592 C 162.211 3.89595 1.68571 0
M  V30 1593 C 160.118 5.89631 0.457055 0
M  V30 1594 H 159.048 0.723082 0.2137 0
M  V30 1595 H 161.699 1.82644 -0.177057 0
M  V30 1596 H 160.081 3.50449 1.84395 0
M  V30 1597 H 161.255 4.53385 -0.823333 0
M  V30 1598 H 159.57 4.1223 -0.587816 0
M  V30 1599 H 162.167 4.92832 2.07414 0
M  V30 1600 H 162.51 3.28526 2.55688 0
M  V30 1601 H 163.043 3.86078 0.958562 0
M  V30 1602 H 159.782 6.54411 -0.377616 0
M  V30 1603 H 159.302 5.87681 1.19962 0
M  V30 1604 H 160.981 6.40363 0.92437 0
M  V30 1605 N 161.113 -0.173488 1.56642 0
M  V30 1606 C 162.023 -1.23482 1.99473 0
M  V30 1607 C 163.039 -1.48567 0.905752 0
M  V30 1608 O 164.215 -1.60758 1.21321 0
M  V30 1609 C 161.28 -2.55444 2.34413 0
M  V30 1610 C 160.341 -2.38241 3.57127 0
M  V30 1611 C 159.574 -3.63909 3.90392 0
M  V30 1612 O 159.797 -4.68996 3.24653 0
M  V30 1613 O 158.731 -3.58149 4.83749 0
M  V30 1614 H 162.557 -0.901279 2.90018 0
M  V30 1615 H 160.142 -0.380185 1.44482 0
M  V30 1616 H 162.024 -3.33292 2.57865 0
M  V30 1617 H 160.699 -2.88382 1.4703 0
M  V30 1618 H 159.606 -1.58431 3.38896 0
M  V30 1619 H 160.939 -2.10228 4.45045 0
M  V30 1620 N 162.591 -1.51276 -0.441967 0
M  V30 1621 C 163.521 -1.752 -1.54361 0
M  V30 1622 C 164.502 -0.601682 -1.59103 0
M  V30 1623 O 165.687 -0.843913 -1.74905 0
M  V30 1624 C 162.817 -1.87282 -2.92477 0
M  V30 1625 C 161.771 -3.02687 -3.02596 0
M  V30 1626 C 161.097 -2.99947 -4.42647 0
M  V30 1627 C 162.397 -4.4273 -2.77106 0
M  V30 1628 H 164.091 -2.67442 -1.34592 0
M  V30 1629 H 161.637 -1.28694 -0.646048 0
M  V30 1630 H 163.59 -2.02602 -3.695 0
M  V30 1631 H 162.314 -0.916844 -3.13467 0
M  V30 1632 H 160.973 -2.87065 -2.28012 0
M  V30 1633 H 160.621 -2.02136 -4.60597 0
M  V30 1634 H 160.321 -3.77439 -4.50348 0
M  V30 1635 H 161.845 -3.17354 -5.2165 0
M  V30 1636 H 163.259 -4.58727 -3.43864 0
M  V30 1637 H 161.656 -5.21893 -2.96222 0
M  V30 1638 H 162.726 -4.53087 -1.72744 0
M  V30 1639 N 164.069 0.697108 -1.41344 0
M  V30 1640 C 165.48 1.27697 -1.36199 0
M  V30 1641 C 165.831 1.9615 -0.0443463 0
M  V30 1642 O 164.956 1.98689 0.857419 0
M  V30 1643 C 165.551 2.32223 -2.46694 0
M  V30 1644 C 164.11 2.8579 -2.44952 0
M  V30 1645 C 163.257 1.59807 -2.26621 0
M  V30 1646 H 166.208 0.491968 -1.50882 0
M  V30 1647 H 166.229 3.1348 -2.15664 0
M  V30 1648 H 165.741 1.82373 -3.42581 0
M  V30 1649 H 163.842 3.3982 -1.52817 0
M  V30 1650 H 163.955 3.36325 -3.41207 0
M  V30 1651 H 162.319 1.8556 -1.7447 0
M  V30 1652 H 163.102 1.11956 -3.24532 0
M  V30 1653 N 165.547 1.27147 0.931209 0
M  V30 1654 C 166.775 1.16082 1.71267 0
M  V30 1655 C 167.19 -0.282772 1.8667 0
M  V30 1656 O 166.547 -1.19283 1.38122 0
M  V30 1657 C 166.598 1.8358 3.11417 0
M  V30 1658 O 166.319 3.22299 2.96741 0
M  V30 1659 C 167.82 1.78597 4.05732 0
M  V30 1660 H 165.04 0.403758 0.535929 0
M  V30 1661 H 167.584 1.67953 1.16671 0
M  V30 1662 H 165.739 1.35623 3.62885 0
M  V30 1663 H 166.153 3.55851 3.85319 0
M  V30 1664 H 167.627 2.30444 5.01597 0
M  V30 1665 H 168.104 0.754564 4.3267 0
M  V30 1666 H 168.71 2.26152 3.60188 0
M  V30 1667 N 167.025 -1.13721 1.09112 0
M  V30 1668 C 168.253 -1.88773 0.846899 0
M  V30 1669 C 168.668 -1.7896 -0.601572 0
M  V30 1670 O 168.025 -1.15394 -1.41388 0
M  V30 1671 C 168.076 -3.3849 1.26913 0
M  V30 1672 O 167.797 -3.48043 2.66079 0
M  V30 1673 C 169.298 -4.30518 1.05682 0
M  V30 1674 H 166.518 -0.59772 0.304914 0
M  V30 1675 H 169.062 -1.43977 1.45227 0
M  V30 1676 H 167.217 -3.80881 0.707723 0
M  V30 1677 H 167.631 -4.4109 2.83795 0
M  V30 1678 H 169.105 -5.3391 1.40156 0
M  V30 1679 H 169.582 -4.392 -0.00563416 0
M  V30 1680 H 170.188 -3.93893 1.60402 0
M  V30 1681 N 168.503 -0.877838 -1.30888 0
M  V30 1682 C 169.749 -0.493426 -1.96706 0
M  V30 1683 C 170.082 0.953504 -1.6918 0
M  V30 1684 O 169.357 1.67266 -0.992594 0
M  V30 1685 C 169.64 -0.760429 -3.51979 0
M  V30 1686 C 169.493 -2.25747 -3.89048 0
M  V30 1687 C 170.812 -0.232148 -4.39487 0
M  V30 1688 H 167.931 -0.180746 -0.714493 0
M  V30 1689 H 170.573 -1.10052 -1.54882 0
M  V30 1690 H 168.723 -0.243715 -3.87735 0
M  V30 1691 H 170.395 -2.84204 -3.63354 0
M  V30 1692 H 168.638 -2.72694 -3.37373 0
M  V30 1693 H 169.309 -2.39491 -4.97341 0
M  V30 1694 H 171.785 -0.674314 -4.106 0
M  V30 1695 H 170.661 -0.448355 -5.47066 0
M  V30 1696 H 170.922 0.866297 -4.33529 0
M  V30 1697 N 169.982 1.44106 -0.638065 0
M  V30 1698 C 170.929 2.30715 0.062701 0
M  V30 1699 C 171.899 1.43882 0.829883 0
M  V30 1700 O 173.084 1.72775 0.809532 0
M  V30 1701 C 170.224 3.29258 1.03358 0
M  V30 1702 C 169.337 4.31192 0.26409 0
M  V30 1703 C 168.472 5.16825 1.22741 0
M  V30 1704 C 167.511 6.10462 0.447475 0
M  V30 1705 N 166.648 6.8877 1.36161 0
M  V30 1706 H 171.488 2.90096 -0.681781 0
M  V30 1707 H 169.025 1.42925 -0.347988 0
M  V30 1708 H 170.983 3.84886 1.60992 0
M  V30 1709 H 169.613 2.71562 1.74511 0
M  V30 1710 H 168.665 3.77981 -0.428295 0
M  V30 1711 H 169.977 4.97619 -0.343052 0
M  V30 1712 H 169.131 5.77004 1.87487 0
M  V30 1713 H 167.87 4.50488 1.86847 0
M  V30 1714 H 166.875 5.49386 -0.213433 0
M  V30 1715 H 168.1 6.78837 -0.188968 0
M  V30 1716 H 166.046 6.25096 1.98975 0
M  V30 1717 H 165.963 7.51663 0.808656 0
M  V30 1718 H 167.231 7.53467 1.99769 0
M  V30 1719 N 171.46 0.379036 1.52974 0
M  V30 1720 C 172.685 -0.209353 2.06341 0
M  V30 1721 C 173.11 -1.40583 1.24972 0
M  V30 1722 O 172.468 -1.79246 0.272155 0
M  V30 1723 C 172.516 -0.567786 3.56102 0
M  V30 1724 O 171.62 -1.66318 3.77375 0
M  V30 1725 H 170.961 -0.0272919 0.663439 0
M  V30 1726 H 173.491 0.543536 1.97248 0
M  V30 1727 H 173.501 -0.835003 3.99364 0
M  V30 1728 H 172.176 0.307013 4.14765 0
M  V30 1729 H 170.753 -1.39048 3.46006 0
M  V30 1730 N 172.938 -1.57226 0.108567 0
M  V30 1731 C 174.163 -1.99604 -0.563303 0
M  V30 1732 C 174.588 -0.987563 -1.6009 0
M  V30 1733 O 173.946 0.0421687 -1.81251 0
M  V30 1734 C 173.994 -3.40902 -1.17552 0
M  V30 1735 O 173.098 -3.42896 -2.2912 0
M  V30 1736 H 172.439 -0.648704 -0.1417 0
M  V30 1737 H 174.969 -2.03679 0.193961 0
M  V30 1738 H 174.979 -3.78886 -1.51357 0
M  V30 1739 H 173.654 -4.1382 -0.415445 0
M  V30 1740 H 172.231 -3.1672 -1.96832 0
M  V30 1741 N 174.416 0.165178 -1.56732 0
M  V30 1742 C 175.827 0.727046 -1.71962 0
M  V30 1743 C 176.178 1.82508 -0.720078 0
M  V30 1744 O 175.303 2.16082 0.117242 0
M  V30 1745 C 175.898 1.32559 -3.11791 0
M  V30 1746 C 174.457 1.83422 -3.28684 0
M  V30 1747 C 173.604 0.715567 -2.67908 0
M  V30 1748 H 176.555 -0.0602896 -1.58585 0
M  V30 1749 H 176.576 2.19533 -3.10782 0
M  V30 1750 H 176.088 0.526195 -3.84516 0
M  V30 1751 H 174.189 2.65986 -2.60926 0
M  V30 1752 H 174.302 1.97543 -4.36478 0
M  V30 1753 H 172.666 1.13758 -2.27884 0
M  V30 1754 H 173.449 -0.0720836 -3.43224 0
M  V30 1755 N 175.894 1.51508 0.433938 0
M  V30 1756 C 177.142 1.6402 1.18075 0
M  V30 1757 C 177.463 0.360328 1.91642 0
M  V30 1758 O 176.733 -0.623945 1.85698 0
M  V30 1759 H 175.313 0.6045 0.43885 0
M  V30 1760 H 177.975 1.88452 0.497178 0
M  V30 1761 H 177.071 2.46949 1.90847 0
M  V30 1762 N 177.372 -0.689602 1.41712 0
M  V30 1763 C 178.302 -1.81577 1.46806 0
M  V30 1764 C 179.283 -1.66945 0.326105 0
M  V30 1765 O 180.468 -1.86588 0.538377 0
M  V30 1766 C 177.598 -3.19762 1.35535 0
M  V30 1767 C 176.552 -3.49107 2.47605 0
M  V30 1768 C 175.878 -4.86711 2.21397 0
M  V30 1769 C 177.178 -3.47483 3.89939 0
M  V30 1770 H 178.872 -1.7757 2.41058 0
M  V30 1771 H 176.418 -0.852887 1.16025 0
M  V30 1772 H 178.371 -3.98263 1.3771 0
M  V30 1773 H 177.095 -3.24409 0.377708 0
M  V30 1774 H 175.754 -2.72959 2.44722 0
M  V30 1775 H 175.402 -4.8799 1.21961 0
M  V30 1776 H 175.102 -5.0731 2.96497 0
M  V30 1777 H 176.626 -5.67515 2.25297 0
M  V30 1778 H 178.04 -4.1598 3.94505 0
M  V30 1779 H 176.437 -3.79615 4.64771 0
M  V30 1780 H 177.507 -2.46341 4.17665 0
M  V30 1781 N 178.85 -1.27639 -0.924453 0
M  V30 1782 C 180.098 -1.13941 -1.66918 0
M  V30 1783 C 180.419 0.314589 -1.92446 0
M  V30 1784 O 179.689 1.21964 -1.53303 0
M  V30 1785 H 178.269 -0.418678 -0.618642 0
M  V30 1786 H 180.931 -1.60213 -1.10985 0
M  V30 1787 H 180.027 -1.67094 -2.63602 0
M  V30 1788 N 180.328 1.1314 -1.09713 0
M  V30 1789 C 181.739 1.66029 -0.853885 0
M  V30 1790 C 182.09 1.86241 0.617142 0
M  V30 1791 O 181.215 1.5834 1.47503 0
M  V30 1792 C 181.81 3.01599 -1.5435 0
M  V30 1793 C 180.369 3.51467 -1.34714 0
M  V30 1794 C 179.516 2.26648 -1.59769 0
M  V30 1795 H 182.467 0.970226 -1.25588 0
M  V30 1796 H 182.488 3.67709 -0.978267 0
M  V30 1797 H 182 2.86856 -2.6141 0
M  V30 1798 H 180.101 3.71408 -0.297838 0
M  V30 1799 H 180.214 4.314 -2.08401 0
M  V30 1800 H 178.578 2.33385 -1.01998 0
M  V30 1801 H 179.361 2.14467 -2.68065 0
M  V30 1802 N 181.806 0.884767 1.30421 0
M  V30 1803 C 183.052 0.503851 1.96441 0
M  V30 1804 C 183.385 -0.944518 1.69684 0
M  V30 1805 O 182.66 -1.66737 1.00145 0
M  V30 1806 C 182.943 0.779085 3.51571 0
M  V30 1807 C 182.796 2.27807 3.87846 0
M  V30 1808 C 184.115 0.255452 4.39358 0
M  V30 1809 H 181.234 0.184533 0.713524 0
M  V30 1810 H 183.876 1.10872 1.54297 0
M  V30 1811 H 182.026 0.264274 3.876 0
M  V30 1812 H 183.698 2.86127 3.61841 0
M  V30 1813 H 181.941 2.74479 3.35922 0
M  V30 1814 H 182.612 2.42125 4.96064 0
M  V30 1815 H 185.088 0.696079 4.10236 0
M  V30 1816 H 183.964 0.477361 5.4682 0
M  V30 1817 H 184.225 -0.843293 4.33983 0
M  V30 1818 N 183.284 -1.43765 0.645699 0
M  V30 1819 C 184.194 -2.34544 -0.0512957 0
M  V30 1820 C 185.21 -1.53455 -0.82022 0
M  V30 1821 O 186.386 -1.86133 -0.769176 0
M  V30 1822 C 183.451 -3.31636 -1.01087 0
M  V30 1823 C 182.512 -4.2863 -0.239712 0
M  V30 1824 C 181.745 -5.21084 -1.15358 0
M  V30 1825 O 181.968 -5.1779 -2.39269 0
M  V30 1826 O 180.902 -5.98593 -0.630038 0
M  V30 1827 H 184.728 -2.95624 0.695718 0
M  V30 1828 H 182.313 -1.43781 0.405882 0
M  V30 1829 H 184.195 -3.9136 -1.56254 0
M  V30 1830 H 182.87 -2.73069 -1.73824 0
M  V30 1831 H 181.777 -3.72408 0.355356 0
M  V30 1832 H 183.11 -4.90157 0.447936 0
M  V30 1833 N 184.763 -0.387143 -1.52771 0
M  V30 1834 C 185.693 0.440551 -2.29306 0
M  V30 1835 C 186.674 1.06535 -1.32606 0
M  V30 1836 O 187.859 1.07853 -1.61497 0
M  V30 1837 C 184.989 1.56919 -3.09829 0
M  V30 1838 C 183.943 1.07054 -4.14395 0
M  V30 1839 C 183.269 2.29109 -4.83129 0
M  V30 1840 C 184.569 0.140015 -5.22112 0
M  V30 1841 H 186.263 -0.198026 -2.98744 0
M  V30 1842 H 183.809 -0.09668 -1.43675 0
M  V30 1843 H 185.762 2.15503 -3.62128 0
M  V30 1844 H 184.486 2.23532 -2.3812 0
M  V30 1845 H 183.145 0.507247 -3.63074 0
M  V30 1846 H 182.793 2.94227 -4.0797 0
M  V30 1847 H 182.493 1.96406 -5.53804 0
M  V30 1848 H 184.017 2.88339 -5.38231 0
M  V30 1849 H 185.431 0.633978 -5.69784 0
M  V30 1850 H 183.828 -0.0971485 -6.00021 0
M  V30 1851 H 184.898 -0.811711 -4.78058 0
M  V30 1852 N 186.241 1.57166 -0.116904 0
M  V30 1853 C 187.204 2.14039 0.819742 0
M  V30 1854 C 188.204 1.07477 1.19605 0
M  V30 1855 O 189.394 1.33263 1.1219 0
M  V30 1856 C 186.526 2.67891 2.10826 0
M  V30 1857 H 187.719 2.98128 0.325511 0
M  V30 1858 H 185.272 1.55739 0.132312 0
M  V30 1859 H 186.007 1.87384 2.64685 0
M  V30 1860 H 185.792 3.45823 1.84793 0
M  V30 1861 H 187.282 3.11809 2.77785 0
M  V30 1862 N 187.719 -0.156864 1.56817 0
M  V30 1863 C 188.682 -1.17781 1.96622 0
M  V30 1864 C 189.682 -1.36401 0.851555 0
M  V30 1865 O 190.872 -1.33561 1.11836 0
M  V30 1866 C 188.004 -2.54008 2.27361 0
M  V30 1867 H 189.197 -0.836564 2.87996 0
M  V30 1868 H 186.75 -0.39985 1.51099 0
M  V30 1869 H 187.485 -2.9312 1.38748 0
M  V30 1870 H 187.27 -2.41856 3.08623 0
M  V30 1871 H 188.76 -3.27558 2.59029 0
M  V30 1872 N 189.197 -1.51736 -0.425897 0
M  V30 1873 C 190.443 -1.65214 -1.1761 0
M  V30 1874 C 190.776 -0.372778 -1.90589 0
M  V30 1875 O 190.051 0.628139 -1.84078 0
M  V30 1876 C 190.334 -2.86312 -2.18398 0
M  V30 1877 C 190.187 -4.24254 -1.49426 0
M  V30 1878 C 191.506 -3.02925 -3.19256 0
M  V30 1879 H 188.625 -0.601263 -0.426206 0
M  V30 1880 H 191.267 -1.8425 -0.463882 0
M  V30 1881 H 189.417 -2.70213 -2.79137 0
M  V30 1882 H 191.089 -4.52046 -0.919362 0
M  V30 1883 H 189.332 -4.26426 -0.796432 0
M  V30 1884 H 190.003 -5.05001 -2.22885 0
M  V30 1885 H 192.479 -3.1781 -2.68581 0
M  V30 1886 H 191.355 -3.89199 -3.8706 0
M  V30 1887 H 191.616 -2.15497 -3.86023 0
M  V30 1888 N 190.675 0.682077 -1.42076 0
M  V30 1889 C 191.924 1.43786 -1.41451 0
M  V30 1890 C 192.237 1.95574 -0.0317074 0
M  V30 1891 O 193.443 2.71326 0.0971462 0
M  V30 1892 C 191.899 2.60071 -2.48779 0
M  V30 1893 C 191.507 2.15013 -3.93031 0
M  V30 1894 C 193.251 3.37626 -2.57311 0
M  V30 1895 C 191.158 3.28336 -4.91883 0
M  V30 1896 H 190.088 0.540143 -0.526082 0
M  V30 1897 H 192.739 0.739157 -1.67955 0
M  V30 1898 H 191.121 3.32275 -2.15429 0
M  V30 1899 H 192.295 1.5001 -4.35699 0
M  V30 1900 H 190.61 1.50416 -3.88284 0
M  V30 1901 H 193.207 4.22012 -3.28345 0
M  V30 1902 H 193.55 3.83727 -1.61429 0
M  V30 1903 H 194.083 2.72488 -2.89819 0
M  V30 1904 H 190.822 2.87234 -5.89217 0
M  V30 1905 H 190.342 3.92145 -4.53853 0
M  V30 1906 H 192.021 3.93913 -5.13265 0
M  V30 1907 N 192.153 1.28127 0.917671 0
M  V30 1908 C 193.116 1.11744 2.00115 0
M  V30 1909 C 194.116 0.0583052 1.60694 0
M  V30 1910 O 195.306 0.303755 1.71531 0
M  V30 1911 C 192.438 0.704862 3.33533 0
M  V30 1912 H 193.631 2.07966 2.16079 0
M  V30 1913 H 191.184 1.11058 1.09981 0
M  V30 1914 H 191.919 -0.258299 3.2327 0
M  V30 1915 H 191.704 1.4699 3.63505 0
M  V30 1916 H 193.194 0.612768 4.1308 0
M  V30 1917 N 193.631 -1.12557 1.10312 0
M  V30 1918 C 194.879 -1.83675 0.843091 0
M  V30 1919 C 195.2 -1.84435 -0.633131 0
M  V30 1920 O 194.47 -1.30657 -1.45964 0
M  V30 1921 H 193.05 -0.680138 0.308904 0
M  V30 1922 H 195.712 -1.36301 1.39313 0
M  V30 1923 H 194.808 -2.87908 1.2048 0
M  V30 1924 N 195.109 -0.891671 -1.2995 0
M  V30 1925 C 196.52 -0.563104 -1.78006 0
M  V30 1926 C 196.871 0.920978 -1.73241 0
M  V30 1927 O 195.996 1.71987 -1.31337 0
M  V30 1928 C 196.591 -1.01539 -3.23226 0
M  V30 1929 C 195.15 -0.738124 -3.69092 0
M  V30 1930 C 194.297 -1.19461 -2.50249 0
M  V30 1931 H 197.248 -1.07522 -1.16725 0
M  V30 1932 H 197.269 -0.347217 -3.78912 0
M  V30 1933 H 196.781 -2.09555 -3.26662 0
M  V30 1934 H 194.882 0.329766 -3.71138 0
M  V30 1935 H 194.995 -1.33037 -4.60259 0
M  V30 1936 H 193.359 -0.613787 -2.47194 0
M  V30 1937 H 194.142 -2.28265 -2.56417 0
M  V30 1938 N 196.587 1.43421 -0.653314 0
M  V30 1939 C 197.833 2.02111 -0.166992 0
M  V30 1940 C 198.166 1.51423 1.21592 0
M  V30 1941 O 197.441 0.707389 1.8118 0
M  V30 1942 C 197.724 3.5966 -0.177948 0
M  V30 1943 C 197.577 4.20579 -1.59478 0
M  V30 1944 C 198.896 4.37413 0.4856 0
M  V30 1945 H 196.015 0.734374 -0.0621557 0
M  V30 1946 H 198.657 1.70717 -0.834016 0
M  V30 1947 H 196.807 3.86537 0.390032 0
M  V30 1948 H 198.479 4.04732 -2.21336 0
M  V30 1949 H 196.722 3.77226 -2.14204 0
M  V30 1950 H 197.393 5.29665 -1.5543 0
M  V30 1951 H 199.869 4.161 0.00234528 0
M  V30 1952 H 198.745 5.47075 0.447207 0
M  V30 1953 H 199.006 4.13672 1.55974 0
M  V30 1954 N 198.065 0.39524 1.52563 0
M  V30 1955 C 199.305 -0.184744 2.03563 0
M  V30 1956 C 199.669 -1.43548 1.27507 0
M  V30 1957 O 200.87 -2.093 1.68662 0
M  V30 1958 C 199.141 -0.440294 3.54678 0
M  V30 1959 S 200.7 -0.989712 4.27493 0
M  V30 1960 H 197.518 -0.0515075 0.709132 0
M  V30 1961 H 200.12 0.544957 1.87751 0
M  V30 1962 H 198.824 0.477005 4.07618 0
M  V30 1963 H 198.355 -1.19825 3.74707 0
M  V30 1964 H 200.37 -2.27155 4.41152 0
M  V30 1965 N 199.544 -1.57102 0.125237 0
M  V30 1966 C 200.791 -1.95407 -0.531248 0
M  V30 1967 C 201.119 -1.0089 -1.66287 0
M  V30 1968 O 200.374 -0.0339431 -1.95671 0
M  V30 1969 C 200.673 -3.40096 -1.09862 0
M  V30 1970 C 200.339 -4.50815 -0.0876989 0
M  V30 1971 C 199.001 -4.80824 0.19026 0
M  V30 1972 C 201.353 -5.17724 0.600902 0
M  V30 1973 C 198.681 -5.75058 1.163 0
M  V30 1974 C 201.033 -6.13005 1.56231 0
M  V30 1975 C 199.697 -6.41403 1.8482 0
M  V30 1976 H 198.967 -0.715046 -0.194397 0
M  V30 1977 H 201.614 -1.90373 0.207463 0
M  V30 1978 H 199.919 -3.41855 -1.91422 0
M  V30 1979 H 201.616 -3.6705 -1.61478 0
M  V30 1980 H 198.206 -4.27444 -0.314528 0
M  V30 1981 H 202.39 -4.94691 0.399333 0
M  V30 1982 H 197.646 -5.95362 1.39117 0
M  V30 1983 H 201.82 -6.63934 2.10153 0
M  V30 1984 H 199.447 -7.14229 2.60349 0
M  V30 1985 N 201.022 0.148545 -1.56898 0
M  V30 1986 C 202.268 0.862694 -1.83536 0
M  V30 1987 C 202.601 1.80889 -0.706604 0
M  V30 1988 O 201.876 1.92328 0.289885 0
M  V30 1989 C 202.159 1.63853 -3.20662 0
M  V30 1990 C 202.012 0.713925 -4.44098 0
M  V30 1991 C 203.331 2.60133 -3.54991 0
M  V30 1992 H 200.45 0.312179 -0.667618 0
M  V30 1993 H 203.092 0.127953 -1.89569 0
M  V30 1994 H 201.242 2.26489 -3.1565 0
M  V30 1995 H 202.914 0.098686 -4.61194 0
M  V30 1996 H 201.157 0.0234019 -4.33794 0
M  V30 1997 H 201.828 1.29278 -5.36648 0
M  V30 1998 H 204.304 2.07616 -3.60603 0
M  V30 1999 H 203.18 3.11468 -4.51972 0
M  V30 2000 H 203.441 3.41417 -2.80868 0
M  V30 2001 N 202.5 1.5196 0.417844 0
M  V30 2002 C 203.74 1.67262 1.17486 0
M  V30 2003 C 204.104 0.38983 1.88001 0
M  V30 2004 O 205.305 0.418845 2.65517 0
M  V30 2005 C 203.576 2.85526 2.14965 0
M  V30 2006 S 205.135 3.21263 2.98891 0
M  V30 2007 H 201.953 0.589077 0.398132 0
M  V30 2008 H 204.555 1.89927 0.463452 0
M  V30 2009 H 203.259 3.77145 1.61833 0
M  V30 2010 H 202.79 2.65107 2.90657 0
M  V30 2011 H 204.805 2.69208 4.16823 0
M  V30 2012 N 203.978 -0.674533 1.42435 0
M  V30 2013 C 205.227 -1.43034 1.42212 0
M  V30 2014 C 205.54 -1.95555 0.0420788 0
M  V30 2015 O 206.746 -2.71374 -0.0827558 0
M  V30 2016 C 205.202 -2.58748 2.50155 0
M  V30 2017 C 204.81 -2.12925 3.94166 0
M  V30 2018 C 206.554 -3.36257 2.59098 0
M  V30 2019 C 204.461 -3.25723 4.93618 0
M  V30 2020 H 203.391 -0.537345 0.528939 0
M  V30 2021 H 206.042 -0.73024 1.68344 0
M  V30 2022 H 204.424 -3.31128 2.17188 0
M  V30 2023 H 205.598 -1.47697 4.36488 0
M  V30 2024 H 203.913 -1.48354 3.89076 0
M  V30 2025 H 206.51 -4.20264 3.30578 0
M  V30 2026 H 206.853 -3.82866 1.63461 0
M  V30 2027 H 207.386 -2.70947 2.9126 0
M  V30 2028 H 204.125 -2.84105 5.90732 0
M  V30 2029 H 203.645 -3.89732 4.55926 0
M  V30 2030 H 205.324 -3.91186 5.15347 0
M  V30 2031 N 205.456 -1.28612 -0.910864 0
M  V30 2032 C 206.681 -1.1891 -1.69927 0
M  V30 2033 C 207.106 0.248372 -1.86453 0
M  V30 2034 O 206.464 1.17961 -1.37676 0
M  V30 2035 C 206.512 -1.89578 -3.06745 0
M  V30 2036 O 205.616 -1.20521 -3.94396 0
M  V30 2037 H 204.957 -0.412632 -0.520222 0
M  V30 2038 H 207.487 -1.69985 -1.1387 0
M  V30 2039 H 207.497 -1.97597 -3.56958 0
M  V30 2040 H 206.172 -2.94136 -2.94035 0
M  V30 2041 H 204.749 -1.20684 -3.52831 0
M  V30 2042 N 206.934 1.1197 -1.10907 0
M  V30 2043 C 207.864 2.19928 -0.784473 0
M  V30 2044 C 208.845 1.6833 0.244726 0
M  V30 2045 O 210.03 1.93892 0.109418 0
M  V30 2046 C 207.16 3.46597 -0.220827 0
M  V30 2047 C 206.114 4.11376 -1.18127 0
M  V30 2048 C 205.44 5.32554 -0.478594 0
M  V30 2049 C 206.74 4.56945 -2.52979 0
M  V30 2050 H 208.434 2.47337 -1.68715 0
M  V30 2051 H 205.98 1.18879 -0.812642 0
M  V30 2052 H 207.933 4.21396 0.0184278 0
M  V30 2053 H 206.657 3.1863 0.717113 0
M  V30 2054 H 205.316 3.38564 -1.40606 0
M  V30 2055 H 204.964 5.00856 0.463976 0
M  V30 2056 H 204.664 5.76844 -1.11912 0
M  V30 2057 H 206.188 6.10096 -0.248 0
M  V30 2058 H 207.602 5.23093 -2.3462 0
M  V30 2059 H 205.999 5.1203 -3.12962 0
M  V30 2060 H 207.069 3.70676 -3.12614 0
M  V30 2061 N 208.412 0.89855 1.29475 0
M  V30 2062 C 209.345 0.319981 2.25945 0
M  V30 2063 C 210.323 -0.567189 1.52387 0
M  V30 2064 O 211.507 -0.514254 1.8135 0
M  V30 2065 C 208.634 -0.544013 3.34303 0
M  V30 2066 C 207.68 0.275682 4.25608 0
M  V30 2067 S 208.513 1.67272 5.08704 0
M  V30 2068 C 209.669 0.815621 6.20563 0
M  V30 2069 H 209.902 1.13767 2.74671 0
M  V30 2070 H 207.435 0.69882 1.3768 0
M  V30 2071 H 209.393 -1.03673 3.97193 0
M  V30 2072 H 208.054 -1.33593 2.84274 0
M  V30 2073 H 207.247 -0.384263 5.02533 0
M  V30 2074 H 206.849 0.701496 3.67362 0
M  V30 2075 H 209.141 0.0385042 6.77489 0
M  V30 2076 H 210.084 1.55691 6.90772 0
M  V30 2077 H 210.492 0.370516 5.63283 0
M  V30 2078 N 209.89 -1.43072 0.660911 0
M  V30 2079 C 210.82 -2.33497 -0.0122829 0
M  V30 2080 C 211.801 -1.49903 -0.803925 0
M  V30 2081 O 212.986 -1.78546 -0.763864 0
M  V30 2082 C 210.116 -3.33363 -0.973994 0
M  V30 2083 C 209.07 -4.27003 -0.291928 0
M  V30 2084 C 208.396 -5.16967 -1.36562 0
M  V30 2085 C 209.696 -5.15816 0.820462 0
M  V30 2086 H 211.39 -2.90038 0.742873 0
M  V30 2087 H 208.936 -1.39461 0.358688 0
M  V30 2088 H 210.889 -3.95524 -1.45392 0
M  V30 2089 H 209.613 -2.75095 -1.7604 0
M  V30 2090 H 208.272 -3.66217 0.167623 0
M  V30 2091 H 207.92 -4.55034 -2.14366 0
M  V30 2092 H 207.62 -5.80441 -0.914454 0
M  V30 2093 H 209.144 -5.82003 -1.84675 0
M  V30 2094 H 210.558 -5.71742 0.422366 0
M  V30 2095 H 208.955 -5.8805 1.19656 0
M  V30 2096 H 210.025 -4.55045 1.67518 0
M  V30 2097 N 211.368 -0.403325 -1.52352 0
M  V30 2098 C 212.301 0.469463 -2.23319 0
M  V30 2099 C 213.279 1.05272 -1.23922 0
M  V30 2100 O 214.463 1.10169 -1.52954 0
M  V30 2101 C 211.59 1.6511 -2.9573 0
M  V30 2102 C 210.636 1.19178 -4.0951 0
M  V30 2103 S 211.469 0.161718 -5.35256 0
M  V30 2104 C 212.625 1.34882 -6.11194 0
M  V30 2105 H 212.858 -0.133134 -2.97002 0
M  V30 2106 H 210.391 -0.187588 -1.53256 0
M  V30 2107 H 212.349 2.3287 -3.38056 0
M  V30 2108 H 211.01 2.22503 -2.21701 0
M  V30 2109 H 210.203 2.07444 -4.59329 0
M  V30 2110 H 209.805 0.592911 -3.6927 0
M  V30 2111 H 212.097 2.27345 -6.38217 0
M  V30 2112 H 213.04 0.89128 -7.02468 0
M  V30 2113 H 213.448 1.57198 -5.42171 0
M  V30 2114 N 212.846 1.57033 -0.133567 0
M  V30 2115 C 214.092 1.95976 0.521649 0
M  V30 2116 C 214.425 1.01779 1.65393 0
M  V30 2117 O 213.7 0.0576581 1.94415 0
M  V30 2118 C 213.983 3.44738 1.04057 0
M  V30 2119 C 213.836 4.49711 -0.0892897 0
M  V30 2120 C 215.155 3.95682 1.92675 0
M  V30 2121 H 212.274 0.712579 0.188149 0
M  V30 2122 H 214.916 1.88813 -0.212076 0
M  V30 2123 H 213.066 3.50973 1.66583 0
M  V30 2124 H 214.738 4.55565 -0.725152 0
M  V30 2125 H 212.981 4.27261 -0.750378 0
M  V30 2126 H 213.652 5.51099 0.315284 0
M  V30 2127 H 216.128 3.91841 1.39998 0
M  V30 2128 H 215.004 5.00262 2.25897 0
M  V30 2129 H 215.265 3.37239 2.85872 0
M  V30 2130 N 214.325 -0.140222 1.56975 0
M  V30 2131 C 215.555 -0.865181 1.87612 0
M  V30 2132 C 215.963 -1.74942 0.72055 0
M  V30 2133 O 215.306 -1.80917 -0.318561 0
M  V30 2134 C 215.368 -1.76782 3.13031 0
M  V30 2135 C 215.032 -1.06005 4.44536 0
M  V30 2136 C 216.029 -0.410768 5.18275 0
M  V30 2137 C 213.714 -1.04754 4.91255 0
M  V30 2138 C 215.708 0.241572 6.36942 0
M  V30 2139 C 213.395 -0.391394 6.09845 0
M  V30 2140 C 214.393 0.252029 6.82535 0
M  V30 2141 O 214.081 0.897757 7.98871 0
M  V30 2142 H 213.813 -0.255188 0.625983 0
M  V30 2143 H 216.367 -0.135653 2.04952 0
M  V30 2144 H 214.597 -2.53846 2.91718 0
M  V30 2145 H 216.286 -2.36533 3.29859 0
M  V30 2146 H 217.052 -0.412195 4.83245 0
M  V30 2147 H 212.931 -1.53777 4.34596 0
M  V30 2148 H 216.475 0.744375 6.93617 0
M  V30 2149 H 212.372 -0.387656 6.44335 0
M  V30 2150 H 213.14 0.800102 8.1458 0
M  V30 2151 N 215.803 -1.52179 -0.40978 0
M  V30 2152 C 217.052 -1.65434 -1.15388 0
M  V30 2153 C 217.365 -0.390056 -1.91671 0
M  V30 2154 O 218.571 -0.402399 -2.68501 0
M  V30 2155 C 217.027 -2.92279 -2.10003 0
M  V30 2156 C 216.635 -4.25813 -1.39239 0
M  V30 2157 C 218.379 -3.14897 -2.84675 0
M  V30 2158 C 216.286 -5.43782 -2.32498 0
M  V30 2159 H 215.216 -0.616267 -0.434432 0
M  V30 2160 H 217.867 -1.78666 -0.418401 0
M  V30 2161 H 216.249 -2.72744 -2.871 0
M  V30 2162 H 217.423 -4.55828 -0.675099 0
M  V30 2163 H 215.738 -4.09292 -0.766097 0
M  V30 2164 H 218.335 -4.0021 -3.54593 0
M  V30 2165 H 218.678 -2.29103 -3.47588 0
M  V30 2166 H 219.211 -3.34901 -2.14677 0
M  V30 2167 H 215.95 -6.3192 -1.74233 0
M  V30 2168 H 215.47 -5.18106 -3.02201 0
M  V30 2169 H 217.149 -5.76834 -2.93038 0
M  V30 2170 N 217.281 0.66697 -1.42791 0
M  V30 2171 C 218.521 1.43892 -1.4517 0
M  V30 2172 C 218.885 1.91877 -0.0687551 0
M  V30 2173 O 220.086 2.6878 0.0327455 0
M  V30 2174 C 218.357 2.59839 -2.45395 0
M  V30 2175 S 219.916 3.48572 -2.66539 0
M  V30 2176 H 216.734 0.491356 -0.513897 0
M  V30 2177 H 219.336 0.775656 -1.79454 0
M  V30 2178 H 218.04 2.22838 -3.44632 0
M  V30 2179 H 217.571 3.3103 -2.12562 0
M  V30 2180 H 219.586 4.56094 -1.95429 0
M  V30 2181 N 218.759 1.29093 0.90403 0
M  V30 2182 C 219.709 1.10482 1.99443 0
M  V30 2183 C 220.693 0.0255401 1.6088 0
M  V30 2184 O 221.885 0.24677 1.75271 0
M  V30 2185 C 219.014 0.778882 3.34348 0
M  V30 2186 C 218.1 1.89749 3.79284 0
M  V30 2187 N 218.491 3.14045 3.96497 0
M  V30 2188 C 216.789 1.78955 4.08523 0
M  V30 2189 C 217.49 3.86996 4.34292 0
M  V30 2190 N 216.466 3.14909 4.43095 0
M  V30 2191 H 220.268 2.04778 2.10815 0
M  V30 2192 H 217.782 1.20155 1.09255 0
M  V30 2193 H 219.779 0.62661 4.12164 0
M  V30 2194 H 218.439 -0.156205 3.24324 0
M  V30 2195 H 219.45 3.49548 3.82148 0
M  V30 2196 H 216.127 0.926886 4.07081 0
M  V30 2197 H 217.517 4.93941 4.55491 0
M  V30 2198 N 220.237 -1.11381 1.11499 0
M  V30 2199 C 221.185 -2.19522 0.768956 0
M  V30 2200 C 222.179 -1.67693 -0.239857 0
M  V30 2201 O 223.385 -1.79727 -0.0990755 0
M  V30 2202 H 219.76 -0.715711 0.230786 0
M  V30 2203 H 221.731 -2.45954 1.68964 0
M  V30 2204 C 220.48 -3.46945 0.229073 0
M  V30 2205 H 219.803 -3.8718 0.996596 0
M  V30 2206 H 221.243 -4.23993 0.0251441 0
M  V30 2207 C 219.702 -3.2042 -1.04079 0
M  V30 2208 O 220.232 -3.41178 -2.12038 0
M  V30 2209 N 218.438 -2.74151 -0.963823 0
M  V30 2210 H 217.985 -2.57459 -0.0851722 0
M  V30 2211 H 217.943 -2.56781 -1.81414 0
M  V30 2212 N 221.715 -0.905404 -1.28997 0
M  V30 2213 C 223.131 -0.60233 -1.47798 0
M  V30 2214 C 223.331 0.854645 -1.82478 0
M  V30 2215 O 222.387 1.63439 -1.92468 0
M  V30 2216 C 223.7 -1.53306 -2.58685 0
M  V30 2217 C 225.248 -1.53887 -2.72558 0
M  V30 2218 C 225.723 -2.45602 -3.86579 0
M  V30 2219 N 227.214 -2.43681 -3.93921 0
M  V30 2220 C 227.949 -3.11347 -4.81509 0
M  V30 2221 N 227.445 -3.88313 -5.73746 0
M  V30 2222 N 229.238 -3.00476 -4.75048 0
M  V30 2223 H 221.389 -1.84765 -1.04764 0
M  V30 2224 H 223.652 -0.792025 -0.520961 0
M  V30 2225 H 223.358 -2.57141 -2.39941 0
M  V30 2226 H 223.232 -1.25787 -3.55609 0
M  V30 2227 H 225.619 -0.507941 -2.90696 0
M  V30 2228 H 225.7 -1.85447 -1.76191 0
M  V30 2229 H 225.344 -3.48792 -3.69197 0
M  V30 2230 H 225.274 -2.11349 -4.82327 0
M  V30 2231 H 227.765 -1.87767 -3.27951 0
M  V30 2232 H 228.078 -4.36985 -6.37389 0
M  V30 2233 H 226.423 -3.92419 -5.73614 0
M  V30 2234 H 229.614 -2.39858 -4.01977 0
M  V30 2235 H 229.787 -3.53485 -5.43095 0
M  V30 2236 N 223.193 1.4272 -0.668489 0
M  V30 2237 C 224.421 2.05966 -0.196348 0
M  V30 2238 C 224.836 1.50191 1.14403 0
M  V30 2239 O 224.193 0.639208 1.7094 0
M  V30 2240 C 224.244 3.61314 -0.115815 0
M  V30 2241 O 223.965 4.1502 -1.40322 0
M  V30 2242 C 225.466 4.41663 0.380579 0
M  V30 2243 H 222.686 0.663954 -0.0969829 0
M  V30 2244 H 225.23 1.82966 -0.913446 0
M  V30 2245 H 223.385 3.83448 0.551931 0
M  V30 2246 H 223.799 5.08832 -1.27243 0
M  V30 2247 H 225.273 5.5065 0.385848 0
M  V30 2248 H 225.75 4.15792 1.41471 0
M  V30 2249 H 226.356 4.24534 -0.255209 0
M  V30 2250 N 224.671 0.411399 1.52136 0
M  V30 2251 C 225.917 -0.163888 2.02137 0
M  V30 2252 C 226.25 -1.44597 1.29636 0
M  V30 2253 O 225.525 -1.90272 0.403353 0
M  V30 2254 C 225.808 -0.40927 3.57767 0
M  V30 2255 C 225.661 0.889643 4.40914 0
M  V30 2256 C 226.98 -1.19042 4.23694 0
M  V30 2257 H 224.099 -0.0580896 0.734707 0
M  V30 2258 H 226.741 0.54531 1.82007 0
M  V30 2259 H 224.891 -1.0134 3.7505 0
M  V30 2260 H 226.563 1.52575 4.35337 0
M  V30 2261 H 224.806 1.50011 4.07037 0
M  V30 2262 H 225.477 0.672314 5.4789 0
M  V30 2263 H 227.953 -0.678942 4.10524 0
M  V30 2264 H 226.829 -1.33086 5.32522 0
M  V30 2265 H 227.09 -2.21166 3.82803 0
M  V30 2266 N 226.149 -1.5696 0.141893 0
M  V30 2267 C 227.398 -1.95135 -0.510427 0
M  V30 2268 C 227.711 -1.02896 -1.66348 0
M  V30 2269 O 228.917 -1.30629 -2.38009 0
M  V30 2270 C 227.373 -3.46876 -0.959427 0
M  V30 2271 C 226.981 -4.47691 0.166419 0
M  V30 2272 C 228.725 -3.93927 -1.58183 0
M  V30 2273 C 226.632 -5.90636 -0.300565 0
M  V30 2274 H 225.562 -0.728494 -0.194454 0
M  V30 2275 H 228.213 -1.8211 0.22542 0
M  V30 2276 H 226.595 -3.55215 -1.75038 0
M  V30 2277 H 227.769 -4.51043 0.94325 0
M  V30 2278 H 226.084 -4.10527 0.696905 0
M  V30 2279 H 228.681 -4.98158 -1.94275 0
M  V30 2280 H 229.024 -3.3519 -2.46888 0
M  V30 2281 H 229.557 -3.88484 -0.855863 0
M  V30 2282 H 226.296 -6.5318 0.550989 0
M  V30 2283 H 225.816 -5.90655 -1.04338 0
M  V30 2284 H 227.495 -6.42588 -0.754265 0
M  V30 2285 N 227.627 0.131896 -1.57047 0
M  V30 2286 C 228.577 1.1679 -1.95816 0
M  V30 2287 C 229.561 1.37756 -0.831393 0
M  V30 2288 O 230.753 1.39065 -1.09499 0
M  V30 2289 C 227.882 2.49778 -2.35512 0
M  V30 2290 C 226.968 2.32342 -3.54793 0
M  V30 2291 N 227.359 1.8469 -4.70875 0
M  V30 2292 C 225.657 2.63043 -3.60173 0
M  V30 2293 C 226.358 1.80656 -5.52936 0
M  V30 2294 N 225.334 2.24528 -4.95064 0
M  V30 2295 H 229.136 0.791818 -2.83033 0
M  V30 2296 H 226.65 0.339791 -1.58805 0
M  V30 2297 H 228.647 3.24692 -2.61498 0
M  V30 2298 H 227.307 2.88156 -1.49654 0
M  V30 2299 H 228.318 1.54429 -4.9434 0
M  V30 2300 H 224.995 3.05193 -2.84892 0
M  V30 2301 H 226.385 1.45178 -6.56028 0
M  V30 2302 N 229.106 1.52395 0.401703 0
M  V30 2303 C 230.056 1.72649 1.48917 0
M  V30 2304 C 231.04 0.580436 1.50066 0
M  V30 2305 O 232.232 0.83779 1.55917 0
M  V30 2306 C 229.361 1.88729 2.86769 0
M  V30 2307 C 228.447 3.09228 2.90239 0
M  V30 2308 N 228.838 4.31805 2.63396 0
M  V30 2309 C 227.136 3.09214 3.21408 0
M  V30 2310 C 227.837 5.13326 2.73625 0
M  V30 2311 N 226.813 4.48735 3.06819 0
M  V30 2312 H 230.615 2.65058 1.26971 0
M  V30 2313 H 228.129 1.50528 0.609504 0
M  V30 2314 H 230.126 2.01358 3.65049 0
M  V30 2315 H 228.786 0.975252 3.09708 0
M  V30 2316 H 229.797 4.60154 2.37653 0
M  V30 2317 H 226.474 2.27774 3.49893 0
M  V30 2318 H 227.864 6.21003 2.56524 0
M  V30 2319 N 230.584 -0.659388 1.43143 0
M  V30 2320 C 232 -0.974337 1.26407 0
M  V30 2321 C 232.2 -2.007 0.179341 0
M  V30 2322 O 231.256 -2.4856 -0.444295 0
M  V30 2323 C 232.569 -1.46447 2.62628 0
M  V30 2324 C 234.117 -1.58144 2.7011 0
M  V30 2325 C 234.592 -2.1055 4.06734 0
M  V30 2326 N 236.083 -2.17861 4.08767 0
M  V30 2327 C 236.818 -2.59519 5.1131 0
M  V30 2328 N 236.314 -3.00518 6.24228 0
M  V30 2329 N 238.107 -2.59404 4.98664 0
M  V30 2330 H 230.258 0.0240528 2.12386 0
M  V30 2331 H 232.521 -0.0518065 0.946583 0
M  V30 2332 H 232.227 -0.780123 3.42939 0
M  V30 2333 H 232.101 -2.44058 2.87603 0
M  V30 2334 H 234.488 -2.25682 1.90136 0
M  V30 2335 H 234.569 -0.589828 2.48907 0
M  V30 2336 H 234.213 -1.43616 4.87172 0
M  V30 2337 H 234.143 -3.10531 4.25298 0
M  V30 2338 H 236.634 -1.88975 3.27257 0
M  V30 2339 H 236.947 -3.31036 6.98309 0
M  V30 2340 H 235.292 -2.98337 6.2771 0
M  V30 2341 H 238.483 -2.26747 4.09516 0
M  V30 2342 H 238.656 -2.91548 5.78709 0
M  V30 2343 N 232.062 -1.29571 -0.897171 0
M  V30 2344 C 233.308 -1.17863 -1.65034 0
M  V30 2345 C 233.641 0.268729 -1.92332 0
M  V30 2346 O 232.916 1.19378 -1.53555 0
M  V30 2347 C 233.199 -1.995 -2.99786 0
M  V30 2348 C 233.052 -3.5239 -2.79538 0
M  V30 2349 C 234.371 -1.82335 -4.00552 0
M  V30 2350 H 231.49 -0.429528 -0.598895 0
M  V30 2351 H 234.132 -1.59072 -1.03905 0
M  V30 2352 H 232.282 -1.64485 -3.51962 0
M  V30 2353 H 233.954 -3.97401 -2.34244 0
M  V30 2354 H 232.197 -3.77187 -2.14273 0
M  V30 2355 H 232.868 -4.04787 -3.75302 0
M  V30 2356 H 235.344 -2.12924 -3.57495 0
M  V30 2357 H 234.22 -2.41801 -4.92771 0
M  V30 2358 H 234.481 -0.779209 -4.35179 0
M  V30 2359 N 233.54 1.10788 -1.12088 0
M  V30 2360 C 234.951 1.64181 -0.88891 0
M  V30 2361 C 235.302 1.87508 0.577498 0
M  V30 2362 O 234.427 1.61434 1.44112 0
M  V30 2363 C 235.022 2.98257 -1.60712 0
M  V30 2364 C 233.581 3.4853 -1.42139 0
M  V30 2365 C 232.728 2.23208 -1.6454 0
M  V30 2366 H 235.679 0.943368 -1.27618 0
M  V30 2367 H 235.7 3.65552 -1.05604 0
M  V30 2368 H 235.212 2.81246 -2.67436 0
M  V30 2369 H 233.313 3.70692 -0.376552 0
M  V30 2370 H 233.426 4.26882 -2.17505 0
M  V30 2371 H 231.79 2.31169 -1.06925 0
M  V30 2372 H 232.573 2.08733 -2.72554 0
M  V30 2373 N 235.018 0.912232 1.28515 0
M  V30 2374 C 235.966 0.389597 2.29314 0
M  V30 2375 C 236.96 -0.517915 1.61289 0
M  V30 2376 O 238.166 -0.399328 1.75515 0
M  V30 2377 H 234.541 0.107386 0.744293 0
M  V30 2378 H 236.512 1.25286 2.70825 0
M  V30 2379 C 235.261 -0.356496 3.45868 0
M  V30 2380 H 234.584 0.332608 3.98414 0
M  V30 2381 H 236.024 -0.686851 4.184 0
M  V30 2382 C 234.483 -1.56383 2.98406 0
M  V30 2383 O 235.013 -2.66294 3.00749 0
M  V30 2384 N 233.219 -1.41029 2.54085 0
M  V30 2385 H 232.766 -0.516089 2.52377 0
M  V30 2386 H 232.724 -2.21939 2.22689 0
M  V30 2387 N 236.496 -1.42363 0.676048 0
M  V30 2388 C 237.406 -2.346 -0.00153389 0
M  V30 2389 C 238.422 -1.5516 -0.787485 0
M  V30 2390 O 239.598 -1.87723 -0.729521 0
M  V30 2391 C 236.663 -3.33705 -0.940298 0
M  V30 2392 C 235.724 -4.29042 -0.148739 0
M  V30 2393 C 234.957 -5.23413 -1.04279 0
M  V30 2394 O 235.18 -5.22749 -2.28232 0
M  V30 2395 O 234.114 -5.99795 -0.502925 0
M  V30 2396 H 237.94 -2.94082 0.758268 0
M  V30 2397 H 235.525 -1.42888 0.436289 0
M  V30 2398 H 237.407 -3.94586 -1.47917 0
M  V30 2399 H 236.082 -2.76695 -1.67993 0
M  V30 2400 H 234.989 -3.71571 0.43427 0
M  V30 2401 H 236.322 -4.89097 0.551805 0
M  V30 2402 N 237.974 -0.419461 -1.51915 0
M  V30 2403 C 238.884 0.407528 -2.31033 0
M  V30 2404 C 239.9 1.04413 -1.3919 0
M  V30 2405 O 241.076 1.0434 -1.72265 0
M  V30 2406 C 238.141 1.50365 -3.12396 0
M  V30 2407 C 237.202 0.889029 -4.19994 0
M  V30 2408 C 236.435 1.93291 -4.97468 0
M  V30 2409 O 236.658 3.15259 -4.75361 0
M  V30 2410 O 235.592 1.53339 -5.8204 0
M  V30 2411 H 239.418 -0.237865 -3.02767 0
M  V30 2412 H 237.003 -0.182413 -1.48282 0
M  V30 2413 H 238.885 2.13975 -3.63032 0
M  V30 2414 H 237.56 2.13345 -2.43445 0
M  V30 2415 H 236.467 0.215353 -3.7348 0
M  V30 2416 H 237.8 0.302991 -4.91267 0
M  V30 2417 N 239.452 1.56882 -0.150215 0
M  V30 2418 C 240.729 1.87844 0.545327 0
M  V30 2419 C 241.109 1.0567 1.82749 0
M  V30 2420 O 240.457 0.144442 2.28043 0
M  V30 2421 C 240.667 3.39526 0.80767 0
M  V30 2422 C 242.015 4.08814 1.14703 0
M  V30 2423 O 243.039 3.44723 0.896917 0
M  V30 2424 O 241.898 5.22004 1.61784 0
M  V30 2425 H 238.992 0.778677 0.278553 0
M  V30 2426 H 241.538 1.68666 -0.187068 0
M  V30 2427 H 240.31 3.91173 -0.0996096 0
M  V30 2428 H 239.933 3.64243 1.59413 0
M  V30 2429 N 240.93 -0.123565 1.57115 0
M  V30 2430 C 242.341 -0.681198 1.73829 0
M  V30 2431 C 242.692 -1.80535 0.768214 0
M  V30 2432 O 241.817 -2.16317 -0.0599103 0
M  V30 2433 C 242.412 -1.24246 3.15196 0
M  V30 2434 C 240.971 -1.74643 3.33432 0
M  V30 2435 C 240.118 -0.644284 2.69711 0
M  V30 2436 H 243.069 0.102315 1.5837 0
M  V30 2437 H 243.09 -2.11216 3.16493 0
M  V30 2438 H 242.602 -0.424062 3.85776 0
M  V30 2439 H 240.703 -2.58974 2.67886 0
M  V30 2440 H 240.816 -1.85902 4.41562 0
M  V30 2441 H 239.18 -1.07676 2.3082 0
M  V30 2442 H 239.963 0.163058 3.42913 0
M  V30 2443 N 242.408 -1.52605 -0.393616 0
M  V30 2444 C 243.633 -1.71592 -1.16495 0
M  V30 2445 C 244.058 -0.43133 -1.83088 0
M  V30 2446 O 243.416 0.612523 -1.7064 0
M  V30 2447 C 243.464 -2.86318 -2.19213 0
M  V30 2448 O 242.568 -2.52969 -3.257 0
M  V30 2449 H 241.909 -0.570734 -0.33935 0
M  V30 2450 H 244.439 -1.99377 -0.459324 0
M  V30 2451 H 244.449 -3.1168 -2.63286 0
M  V30 2452 H 243.124 -3.79511 -1.7013 0
M  V30 2453 H 241.701 -2.38332 -2.86797 0
M  V30 2454 N 243.887 0.651787 -1.4349 0
M  V30 2455 C 244.817 1.77621 -1.51569 0
M  V30 2456 C 245.798 1.66022 -0.370253 0
M  V30 2457 O 246.983 1.85095 -0.587658 0
M  V30 2458 C 244.113 3.16056 -1.43966 0
M  V30 2459 C 243.067 3.4242 -2.56774 0
M  V30 2460 C 242.393 4.8067 -2.34223 0
M  V30 2461 C 243.693 3.37023 -3.99015 0
M  V30 2462 H 245.387 1.71117 -2.45681 0
M  V30 2463 H 242.933 0.821825 -1.18246 0
M  V30 2464 H 244.886 3.94472 -1.48221 0
M  V30 2465 H 243.61 3.23293 -0.463586 0
M  V30 2466 H 242.269 2.66375 -2.51873 0
M  V30 2467 H 241.917 4.84585 -1.34856 0
M  V30 2468 H 241.617 4.9927 -3.09844 0
M  V30 2469 H 243.141 5.61342 -2.40265 0
M  V30 2470 H 244.555 4.05374 -4.05395 0
M  V30 2471 H 242.952 3.67159 -4.74673 0
M  V30 2472 H 244.022 2.3518 -4.2405 0
M  V30 2473 N 245.365 1.30045 0.890287 0
M  V30 2474 C 246.642 1.09227 1.62262 0
M  V30 2475 C 247.022 -0.360305 2.08002 0
M  V30 2476 O 246.37 -1.35084 1.84295 0
M  V30 2477 C 246.58 2.08835 2.79623 0
M  V30 2478 C 247.928 2.40266 3.50082 0
M  V30 2479 O 248.952 2.07104 2.89804 0
M  V30 2480 O 247.811 2.96967 4.58773 0
M  V30 2481 H 244.905 0.419132 0.712922 0
M  V30 2482 H 247.451 1.41451 0.937529 0
M  V30 2483 H 246.223 3.06633 2.43089 0
M  V30 2484 H 245.846 1.77397 3.55832 0
M  V30 2485 N 246.843 -1.10192 1.12674 0
M  V30 2486 C 248.259 -1.34235 0.863317 0
M  V30 2487 C 248.459 -1.95062 -0.505277 0
M  V30 2488 O 247.515 -2.19192 -1.25345 0
M  V30 2489 C 248.828 -2.2616 1.98172 0
M  V30 2490 C 250.376 -2.3969 2.0129 0
M  V30 2491 C 250.851 -3.34946 3.1237 0
M  V30 2492 N 252.342 -3.42515 3.11829 0
M  V30 2493 C 253.077 -4.16199 3.94419 0
M  V30 2494 N 252.573 -4.92747 4.87004 0
M  V30 2495 N 254.366 -4.11843 3.82547 0
M  V30 2496 H 246.517 -0.690798 2.00853 0
M  V30 2497 H 248.78 -0.366774 0.874174 0
M  V30 2498 H 248.486 -1.8868 2.96804 0
M  V30 2499 H 248.36 -3.26488 1.88906 0
M  V30 2500 H 250.747 -2.76438 1.03276 0
M  V30 2501 H 250.828 -1.39169 2.14629 0
M  V30 2502 H 250.472 -2.98923 4.10619 0
M  V30 2503 H 250.402 -4.35353 2.96269 0
M  V30 2504 H 252.893 -2.87926 2.44759 0
M  V30 2505 H 253.206 -5.46376 5.46528 0
M  V30 2506 H 251.551 -4.91862 4.91016 0
M  V30 2507 H 254.742 -3.51136 3.0955 0
M  V30 2508 H 254.915 -4.69007 4.47142 0
M  V30 2509 N 248.321 -0.919034 -1.28029 0
M  V30 2510 C 249.732 -0.600735 -1.76771 0
M  V30 2511 C 250.083 0.884024 -1.75156 0
M  V30 2512 O 249.208 1.69163 -1.34956 0
M  V30 2513 C 249.803 -1.08372 -3.21 0
M  V30 2514 C 248.362 -0.816248 -3.67443 0
M  V30 2515 C 247.509 -1.24742 -2.47658 0
M  V30 2516 H 250.46 -1.09974 -1.14418 0
M  V30 2517 H 250.481 -0.427512 -3.78091 0
M  V30 2518 H 249.993 -2.16437 -3.22144 0
M  V30 2519 H 248.094 0.250968 -3.71754 0
M  V30 2520 H 248.207 -1.4277 -4.57333 0
M  V30 2521 H 246.571 -0.666083 -2.45836 0
M  V30 2522 H 247.354 -2.33653 -2.51518 0
M  V30 2523 N 249.799 1.42003 -0.683588 0
M  V30 2524 C 251.046 2.01413 -0.209514 0
M  V30 2525 C 251.374 1.54088 1.1869 0
M  V30 2526 O 250.629 0.737591 1.81268 0
M  V30 2527 C 250.928 3.56827 -0.202357 0
M  V30 2528 C 250.594 4.23617 -1.54464 0
M  V30 2529 C 249.256 4.41577 -1.91215 0
M  V30 2530 C 251.608 4.61178 -2.42826 0
M  V30 2531 C 248.936 4.9437 -3.15935 0
M  V30 2532 C 251.288 5.15355 -3.66867 0
M  V30 2533 C 249.952 5.31528 -4.03776 0
M  V30 2534 H 249.222 0.737023 -0.0766668 0
M  V30 2535 H 251.869 1.70067 -0.880312 0
M  V30 2536 H 250.174 3.87892 0.551969 0
M  V30 2537 H 251.871 4.00588 0.181793 0
M  V30 2538 H 248.461 4.10004 -1.24877 0
M  V30 2539 H 252.645 4.46968 -2.15717 0
M  V30 2540 H 247.901 5.05076 -3.44541 0
M  V30 2541 H 252.075 5.43402 -4.35531 0
M  V30 2542 H 249.702 5.72199 -5.00492 0
M  V30 2543 N 251.277 0.427512 1.51691 0
M  V30 2544 C 252.526 -0.143679 2.01188 0
M  V30 2545 C 252.839 -1.44642 1.31674 0
M  V30 2546 O 254.045 -2.09997 1.72086 0
M  V30 2547 C 252.501 -0.306602 3.58592 0
M  V30 2548 C 252.109 0.985125 4.37035 0
M  V30 2549 C 253.853 -0.832091 4.16265 0
M  V30 2550 C 251.76 0.788382 5.86122 0
M  V30 2551 H 250.69 -0.0574701 0.751807 0
M  V30 2552 H 253.341 0.555772 1.74881 0
M  V30 2553 H 251.723 -1.06882 3.81303 0
M  V30 2554 H 252.897 1.75492 4.26074 0
M  V30 2555 H 251.212 1.4384 3.90767 0
M  V30 2556 H 253.809 -0.995617 5.25349 0
M  V30 2557 H 254.152 -1.81186 3.74803 0
M  V30 2558 H 254.685 -0.128444 3.97593 0
M  V30 2559 H 251.424 1.74025 6.31978 0
M  V30 2560 H 250.944 0.0582143 5.99772 0
M  V30 2561 H 252.623 0.437722 6.45518 0
M  V30 2562 N 252.755 -1.56801 0.158532 0
M  V30 2563 C 253.98 -2.01295 -0.499516 0
M  V30 2564 C 254.405 -1.03799 -1.56867 0
M  V30 2565 O 253.763 -0.0155162 -1.81293 0
M  V30 2566 C 253.811 -3.44469 -1.06647 0
M  V30 2567 O 252.915 -3.50012 -2.18095 0
M  V30 2568 H 252.256 -0.652884 -0.12099 0
M  V30 2569 H 254.786 -2.02958 0.258661 0
M  V30 2570 H 254.796 -3.8351 -1.39227 0
M  V30 2571 H 253.471 -4.14932 -0.283581 0
M  V30 2572 H 252.048 -3.22822 -1.86656 0
M  V30 2573 N 254.233 0.115231 -1.57178 0
M  V30 2574 C 255.143 1.15994 -2.03918 0
M  V30 2575 C 256.159 1.45103 -0.960268 0
M  V30 2576 O 257.335 1.56144 -1.27204 0
M  V30 2577 C 254.4 2.46568 -2.43732 0
M  V30 2578 C 253.461 2.24822 -3.65723 0
M  V30 2579 C 252.694 3.4917 -4.03629 0
M  V30 2580 O 252.917 4.56623 -3.41835 0
M  V30 2581 O 251.851 3.39949 -4.96708 0
M  V30 2582 H 255.677 0.793019 -2.93164 0
M  V30 2583 H 253.262 0.3263 -1.45793 0
M  V30 2584 H 255.144 3.23492 -2.70057 0
M  V30 2585 H 253.819 2.82726 -1.57631 0
M  V30 2586 H 252.726 1.45744 -3.44542 0
M  V30 2587 H 254.059 1.93566 -4.52541 0
M  V30 2588 N 255.711 1.52812 0.385517 0
M  V30 2589 C 256.959 1.67694 1.12797 0
M  V30 2590 C 257.28 0.421115 1.90399 0
M  V30 2591 O 256.55 -0.564551 1.87589 0
M  V30 2592 H 255.13 0.618155 0.419396 0
M  V30 2593 H 257.792 1.89938 0.436972 0
M  V30 2594 H 256.888 2.52896 1.82894 0
M  V30 2595 N 257.189 -0.644168 1.43834 0
M  V30 2596 C 258.417 -1.43147 1.49387 0
M  V30 2597 C 258.832 -1.88452 0.114583 0
M  V30 2598 O 258.189 -1.60047 -0.876989 0
M  V30 2599 C 258.24 -2.66046 2.44748 0
M  V30 2600 O 257.961 -2.22633 3.77314 0
M  V30 2601 C 259.462 -3.59311 2.59635 0
M  V30 2602 H 256.682 -0.439447 0.507077 0
M  V30 2603 H 259.226 -0.78895 1.88669 0
M  V30 2604 H 257.381 -3.26418 2.08638 0
M  V30 2605 H 257.795 -3.02216 4.28679 0
M  V30 2606 H 259.269 -4.42187 3.30416 0
M  V30 2607 H 259.746 -4.07259 1.64427 0
M  V30 2608 H 260.352 -3.04816 2.96593 0
M  V30 2609 N 258.668 -1.30515 -0.883378 0
M  V30 2610 C 259.896 -1.22359 -1.66841 0
M  V30 2611 C 260.311 0.213296 -1.87591 0
M  V30 2612 O 259.668 1.14075 -1.42454 0
M  V30 2613 C 259.719 -1.95011 -3.04389 0
M  V30 2614 O 259.44 -3.3309 -2.84575 0
M  V30 2615 C 260.941 -1.93532 -3.98824 0
M  V30 2616 H 258.161 -0.423371 -0.520575 0
M  V30 2617 H 260.705 -1.72167 -1.10357 0
M  V30 2618 H 258.86 -1.48997 -3.57601 0
M  V30 2619 H 259.274 -3.69907 -3.71846 0
M  V30 2620 H 260.748 -2.48902 -4.92699 0
M  V30 2621 H 261.225 -0.914627 -4.29571 0
M  V30 2622 H 261.831 -2.39364 -3.51547 0
M  V30 2623 N 260.146 1.09593 -1.13257 0
M  V30 2624 C 261.076 2.18214 -0.830946 0
M  V30 2625 C 262.057 1.68812 0.208966 0
M  V30 2626 O 263.242 1.9408 0.0682666 0
M  V30 2627 C 260.372 3.46051 -0.294296 0
M  V30 2628 C 259.326 4.08778 -1.26826 0
M  V30 2629 C 258.652 5.31419 -0.591449 0
M  V30 2630 C 259.952 4.51476 -2.62615 0
M  V30 2631 H 261.646 2.43703 -1.73923 0
M  V30 2632 H 259.192 1.17128 -0.837675 0
M  V30 2633 H 261.145 4.2134 -0.0709606 0
M  V30 2634 H 259.869 3.20079 0.649366 0
M  V30 2635 H 258.528 3.35505 -1.47756 0
M  V30 2636 H 258.176 5.01727 0.357633 0
M  V30 2637 H 257.876 5.74341 -1.24123 0
M  V30 2638 H 259.4 6.09433 -0.377355 0
M  V30 2639 H 260.814 5.17999 -2.45663 0
M  V30 2640 H 259.211 5.05277 -3.23752 0
M  V30 2641 H 260.281 3.63962 -3.20406 0
M  V30 2642 N 261.624 0.925811 1.2754 0
M  V30 2643 C 262.571 0.422045 2.26908 0
M  V30 2644 C 263.541 -0.510029 1.58076 0
M  V30 2645 O 264.726 -0.429599 1.85901 0
M  V30 2646 C 261.866 -0.320837 3.43605 0
M  V30 2647 C 260.979 0.64513 4.27156 0
M  V30 2648 C 260.114 -0.117405 5.3107 0
M  V30 2649 C 259.153 0.841391 6.0629 0
M  V30 2650 N 258.29 0.111604 7.02011 0
M  V30 2651 H 263.13 1.27441 2.69375 0
M  V30 2652 H 260.667 0.639697 1.32462 0
M  V30 2653 H 262.625 -0.76785 4.10073 0
M  V30 2654 H 261.255 -1.13745 3.02096 0
M  V30 2655 H 260.307 1.21067 3.6062 0
M  V30 2656 H 261.619 1.37797 4.79389 0
M  V30 2657 H 260.773 -0.624422 6.03478 0
M  V30 2658 H 259.512 -0.883219 4.79636 0
M  V30 2659 H 258.517 1.35967 5.32722 0
M  V30 2660 H 259.742 1.60696 6.59813 0
M  V30 2661 H 257.688 -0.635999 6.5291 0
M  V30 2662 H 257.605 0.784044 7.51923 0
M  V30 2663 H 258.873 -0.374823 7.78598 0
M  V30 2664 N 263.102 -1.41638 0.69111 0
M  V30 2665 C 264.379 -1.95036 0.148421 0
M  V30 2666 C 264.759 -1.63072 -1.34055 0
M  V30 2667 O 264.107 -0.93538 -2.08478 0
M  V30 2668 C 264.317 -3.46279 0.434951 0
M  V30 2669 C 265.665 -4.23069 0.360275 0
M  V30 2670 O 266.689 -3.54277 0.369613 0
M  V30 2671 O 265.548 -5.45583 0.316534 0
M  V30 2672 H 262.642 -0.826908 0.0123654 0
M  V30 2673 H 265.188 -1.5138 0.766963 0
M  V30 2674 H 263.96 -3.6281 1.46576 0
M  V30 2675 H 263.583 -3.97019 -0.214787 0
M  V30 2676 N 264.58 -0.43555 -1.51462 0
M  V30 2677 C 265.51 0.367376 -2.30592 0
M  V30 2678 C 266.491 1.02263 -1.35928 0
M  V30 2679 O 267.676 1.02661 -1.64847 0
M  V30 2680 C 264.806 1.46983 -3.14664 0
M  V30 2681 C 263.76 0.938161 -4.17591 0
M  V30 2682 C 263.086 2.13622 -4.90173 0
M  V30 2683 C 264.386 -0.0261621 -5.22293 0
M  V30 2684 H 266.08 -0.292969 -2.97963 0
M  V30 2685 H 263.626 -0.14234 -1.43295 0
M  V30 2686 H 265.579 2.03873 -3.688 0
M  V30 2687 H 264.303 2.15843 -2.4511 0
M  V30 2688 H 262.962 0.391481 -3.64504 0
M  V30 2689 H 262.61 2.81098 -4.17124 0
M  V30 2690 H 262.31 1.78688 -5.59772 0
M  V30 2691 H 263.834 2.7107 -5.47132 0
M  V30 2692 H 265.248 0.452384 -5.71512 0
M  V30 2693 H 263.645 -0.287992 -5.99409 0
M  V30 2694 H 264.715 -0.963391 -4.75233 0
M  V30 2695 N 266.058 1.56714 -0.166846 0
M  V30 2696 C 267.307 1.95922 0.479318 0
M  V30 2697 C 267.62 1.05529 1.6469 0
M  V30 2698 O 268.826 1.34399 2.35901 0
M  V30 2699 C 267.282 3.48359 0.90412 0
M  V30 2700 C 266.89 4.47369 -0.237621 0
M  V30 2701 C 268.634 3.96394 1.51896 0
M  V30 2702 C 266.541 5.91039 0.206561 0
M  V30 2703 H 265.471 0.731495 0.18284 0
M  V30 2704 H 268.122 1.81728 -0.254363 0
M  V30 2705 H 266.504 3.57955 1.69365 0
M  V30 2706 H 267.678 4.49485 -1.01489 0
M  V30 2707 H 265.993 4.09366 -0.762128 0
M  V30 2708 H 268.59 5.01186 1.86325 0
M  V30 2709 H 268.933 3.39075 2.41524 0
M  V30 2710 H 269.466 3.89796 0.79395 0
M  V30 2711 H 266.205 6.52221 -0.654834 0
M  V30 2712 H 265.725 5.9224 0.949282 0
M  V30 2713 H 267.404 6.43707 0.651939 0
M  V30 2714 N 267.536 -0.106894 1.57237 0
M  V30 2715 C 268.766 -0.825191 1.89405 0
M  V30 2716 C 269.174 -1.73374 0.757496 0
M  V30 2717 O 268.517 -1.81552 -0.280115 0
M  V30 2718 C 268.579 -1.70102 3.1671 0
M  V30 2719 C 268.243 -0.965523 4.46684 0
M  V30 2720 C 269.24 -0.300741 5.19029 0
M  V30 2721 C 266.925 -0.943105 4.93367 0
M  V30 2722 C 268.919 0.376622 6.36286 0
M  V30 2723 C 266.606 -0.261949 6.10538 0
M  V30 2724 C 267.604 0.396748 6.81847 0
M  V30 2725 O 267.292 1.06701 7.96787 0
M  V30 2726 H 267.024 -0.241852 0.631255 0
M  V30 2727 H 269.578 -0.0921491 2.05193 0
M  V30 2728 H 267.808 -2.47601 2.97036 0
M  V30 2729 H 269.497 -2.29483 3.34802 0
M  V30 2730 H 270.263 -0.309599 4.84011 0
M  V30 2731 H 266.142 -1.44524 4.3776 0
M  V30 2732 H 269.686 0.891334 6.91882 0
M  V30 2733 H 265.583 -0.250896 6.45012 0
M  V30 2734 H 266.351 0.972707 8.127 0
M  V30 2735 N 269.014 -1.53014 -0.377408 0
M  V30 2736 C 270.291 -1.59215 -1.13622 0
M  V30 2737 C 270.671 -0.392407 -2.07421 0
M  V30 2738 O 270.019 0.618342 -2.19975 0
M  V30 2739 C 270.229 -2.93669 -1.88573 0
M  V30 2740 C 271.577 -3.47822 -2.43526 0
M  V30 2741 O 272.601 -2.9562 -1.98715 0
M  V30 2742 O 271.46 -4.39055 -3.25412 0
M  V30 2743 H 268.554 -0.642625 -0.52054 0
M  V30 2744 H 271.1 -1.65353 -0.381625 0
M  V30 2745 H 269.872 -3.7243 -1.20048 0
M  V30 2746 H 269.495 -2.90968 -2.70968 0
M  V30 2747 N 270.492 0.636531 -1.44174 0
M  V30 2748 C 271.425 1.76139 -1.45087 0
M  V30 2749 C 272.403 1.59611 -0.310326 0
M  V30 2750 O 273.587 1.81568 -0.506477 0
M  V30 2751 C 270.714 3.13648 -1.27839 0
M  V30 2752 C 269.76 3.48838 -2.45386 0
M  V30 2753 S 270.593 3.46927 -4.07924 0
M  V30 2754 C 271.749 4.87064 -3.9309 0
M  V30 2755 H 271.982 1.75096 -2.40268 0
M  V30 2756 H 269.515 0.810666 -1.31406 0
M  V30 2757 H 271.473 3.93002 -1.18575 0
M  V30 2758 H 270.134 3.12235 -0.341787 0
M  V30 2759 H 269.327 4.48886 -2.29167 0
M  V30 2760 H 268.929 2.76935 -2.51362 0
M  V30 2761 H 271.221 5.76153 -3.56446 0
M  V30 2762 H 272.164 5.08337 -4.92949 0
M  V30 2763 H 272.572 4.61384 -3.25246 0
M  V30 2764 N 271.97 1.30982 0.876444 0
M  V30 2765 C 273.198 1.23242 1.6619 0
M  V30 2766 C 273.613 -0.203345 1.87702 0
M  V30 2767 O 272.97 -1.13317 1.43057 0
M  V30 2768 C 273.021 1.96623 3.03351 0
M  V30 2769 O 272.742 3.34594 2.82804 0
M  V30 2770 C 274.243 1.95644 3.97792 0
M  V30 2771 H 271.463 0.426126 0.518322 0
M  V30 2772 H 274.007 1.7275 1.09442 0
M  V30 2773 H 272.162 1.50892 3.56806 0
M  V30 2774 H 272.576 3.71873 3.69879 0
M  V30 2775 H 274.05 2.51511 4.91372 0
M  V30 2776 H 274.527 0.937395 4.2908 0
M  V30 2777 H 275.133 2.41225 3.50272 0
M  V30 2778 N 273.449 -1.08991 1.13837 0
M  V30 2779 C 274.677 -1.85011 0.926202 0
M  V30 2780 C 275.092 -1.8135 -0.525127 0
M  V30 2781 O 274.449 -1.21287 -1.36366 0
M  V30 2782 C 274.5 -3.32802 1.41155 0
M  V30 2783 O 274.221 -3.36444 2.80601 0
M  V30 2784 C 275.722 -4.25649 1.23847 0
M  V30 2785 H 272.942 -0.584249 0.32999 0
M  V30 2786 H 275.486 -1.37688 1.51202 0
M  V30 2787 H 273.641 -3.77536 0.868631 0
M  V30 2788 H 274.055 -4.28657 3.02248 0
M  V30 2789 H 275.529 -5.27485 1.62675 0
M  V30 2790 H 276.006 -4.38828 0.18065 0
M  V30 2791 H 276.612 -3.86735 1.76964 0
M  V30 2792 N 274.927 -0.932562 -1.27047 0
M  V30 2793 C 276.152 -0.591474 -1.98787 0
M  V30 2794 C 276.577 0.824601 -1.69062 0
M  V30 2795 O 275.935 1.5541 -0.933677 0
M  V30 2796 C 275.983 -0.829808 -3.50922 0
M  V30 2797 O 275.087 0.102266 -4.12273 0
M  V30 2798 H 274.428 -0.227185 -0.623926 0
M  V30 2799 H 276.958 -1.25314 -1.61733 0
M  V30 2800 H 276.968 -0.747292 -4.01098 0
M  V30 2801 H 275.643 -1.86201 -3.7189 0
M  V30 2802 H 274.22 -0.0305761 -3.72887 0
M  V30 2803 N 276.405 1.4127 -0.698611 0
M  V30 2804 C 277.653 2.00782 -0.230409 0
M  V30 2805 C 277.974 1.5562 1.17505 0
M  V30 2806 O 277.244 0.78815 1.79346 0
M  V30 2807 H 275.824 0.742464 -0.0821944 0
M  V30 2808 H 278.486 1.72852 -0.90045 0
M  V30 2809 H 277.582 3.11095 -0.25021 0
M  V30 2810 N 277.883 0.443576 1.51229 0
M  V30 2811 C 279.108 -0.121648 2.07043 0
M  V30 2812 C 279.533 -1.35156 1.30823 0
M  V30 2813 O 278.891 -1.7793 0.347934 0
M  V30 2814 C 278.939 -0.41624 3.5819 0
M  V30 2815 O 278.043 -1.50163 3.8409 0
M  V30 2816 H 277.384 0.000871367 0.663999 0
M  V30 2817 H 279.914 0.626706 1.94765 0
M  V30 2818 H 279.924 -0.664867 4.02546 0
M  V30 2819 H 278.599 0.482653 4.1309 0
M  V30 2820 H 277.176 -1.24248 3.51592 0
M  V30 2821 N 279.361 -1.56624 0.175154 0
M  V30 2822 C 280.609 -1.96609 -0.467885 0
M  V30 2823 C 280.93 -1.06238 -1.63519 0
M  V30 2824 O 280.2 -0.129523 -1.95471 0
M  V30 2825 H 278.78 -0.726008 -0.175845 0
M  V30 2826 H 281.442 -1.93195 0.257234 0
M  V30 2827 H 280.538 -3.00989 -0.825342 0
M  V30 2828 N 280.839 0.0985539 -1.57292 0
M  V30 2829 C 282.064 0.820196 -1.90493 0
M  V30 2830 C 282.489 1.71658 -0.769094 0
M  V30 2831 O 281.847 1.79133 0.279495 0
M  V30 2832 C 281.895 1.61242 -3.22542 0
M  V30 2833 O 280.999 2.72108 -3.09888 0
M  V30 2834 H 280.34 0.225547 -0.62452 0
M  V30 2835 H 282.87 0.0748159 -2.04463 0
M  V30 2836 H 282.88 1.99737 -3.55766 0
M  V30 2837 H 281.555 0.954535 -4.04798 0
M  V30 2838 H 280.132 2.36667 -2.88172 0
M  V30 2839 N 282.317 1.53212 0.369288 0
M  V30 2840 C 283.565 1.68881 1.11012 0
M  V30 2841 C 283.886 0.441285 1.89941 0
M  V30 2842 O 283.156 -0.544623 1.88177 0
M  V30 2843 H 281.736 0.622569 0.412816 0
M  V30 2844 H 284.398 1.90391 0.416802 0
M  V30 2845 H 283.494 2.54822 1.80201 0
M  V30 2846 N 283.795 -0.628877 1.44509 0
M  V30 2847 C 284.725 -1.75187 1.54376 0
M  V30 2848 C 285.706 -1.65411 0.396618 0
M  V30 2849 O 286.891 -1.84137 0.617031 0
M  V30 2850 C 284.021 -3.13725 1.48976 0
M  V30 2851 C 282.975 -3.38291 2.62189 0
M  V30 2852 C 282.301 -4.76883 2.41841 0
M  V30 2853 C 283.601 -3.30632 4.04326 0
M  V30 2854 H 285.295 -1.67187 2.48373 0
M  V30 2855 H 282.841 -0.802909 1.19538 0
M  V30 2856 H 284.794 -3.92064 1.54478 0
M  V30 2857 H 283.518 -3.22515 0.514961 0
M  V30 2858 H 282.177 -2.62334 2.56079 0
M  V30 2859 H 281.825 -4.82378 1.42548 0
M  V30 2860 H 281.525 -4.94278 3.17747 0
M  V30 2861 H 283.049 -5.57449 2.49165 0
M  V30 2862 H 284.463 -3.98873 4.11793 0
M  V30 2863 H 282.86 -3.59561 4.80454 0
M  V30 2864 H 283.93 -2.28404 4.27738 0
M  V30 2865 N 285.273 -1.31445 -0.869486 0
M  V30 2866 C 286.684 -1.19042 -1.43826 0
M  V30 2867 C 287.035 0.202919 -1.95148 0
M  V30 2868 O 286.16 1.10071 -1.86315 0
M  V30 2869 C 286.755 -2.15499 -2.6143 0
M  V30 2870 C 285.314 -2.07028 -3.14351 0
M  V30 2871 C 284.461 -2.04701 -1.87063 0
M  V30 2872 H 287.412 -1.43489 -0.677984 0
M  V30 2873 H 287.433 -1.74488 -3.38134 0
M  V30 2874 H 286.945 -3.16899 -2.24046 0
M  V30 2875 H 285.046 -1.08825 -3.56354 0
M  V30 2876 H 285.159 -2.96157 -3.766 0
M  V30 2877 H 283.523 -1.49724 -2.06046 0
M  V30 2878 H 284.306 -3.07857 -1.51917 0
M  V30 2879 N 286.751 1.08385 -1.14413 0
M  V30 2880 C 287.681 2.17321 -0.854044 0
M  V30 2881 C 288.662 1.69024 0.191049 0
M  V30 2882 O 289.847 1.94141 0.0476779 0
M  V30 2883 C 286.977 3.45719 -0.330983 0
M  V30 2884 C 285.931 4.07409 -1.31155 0
M  V30 2885 C 285.257 5.30762 -0.64778 0
M  V30 2886 C 286.557 4.48665 -2.67388 0
M  V30 2887 H 288.251 2.41845 -1.76498 0
M  V30 2888 H 285.797 1.16233 -0.850051 0
M  V30 2889 H 287.75 4.21241 -0.115645 0
M  V30 2890 H 286.474 3.2075 0.615381 0
M  V30 2891 H 285.133 3.33919 -1.51306 0
M  V30 2892 H 284.781 5.02078 0.304398 0
M  V30 2893 H 284.481 5.72992 -1.30207 0
M  V30 2894 H 286.005 6.08998 -0.441972 0
M  V30 2895 H 287.419 5.15364 -2.51143 0
M  V30 2896 H 285.816 5.01814 -3.29093 0
M  V30 2897 H 286.886 3.60543 -3.24248 0
M  V30 2898 N 288.23 0.939286 1.26551 0
M  V30 2899 C 289.16 0.465044 2.28822 0
M  V30 2900 C 290.141 -0.480692 1.63167 0
M  V30 2901 O 291.326 -0.382955 1.90387 0
M  V30 2902 C 288.456 -0.27234 3.46231 0
M  V30 2903 C 287.41 0.58666 4.2396 0
M  V30 2904 C 286.736 -0.280573 5.33963 0
M  V30 2905 C 288.036 1.85704 4.88171 0
M  V30 2906 H 289.73 1.31979 2.68741 0
M  V30 2907 H 287.276 0.636061 1.29191 0
M  V30 2908 H 289.229 -0.615133 4.16886 0
M  V30 2909 H 287.953 -1.16121 3.0526 0
M  V30 2910 H 286.612 0.91232 3.55067 0
M  V30 2911 H 286.26 -1.16874 4.89234 0
M  V30 2912 H 285.96 0.29076 5.8688 0
M  V30 2913 H 287.484 -0.618678 6.07458 0
M  V30 2914 H 288.898 1.58161 5.51052 0
M  V30 2915 H 287.295 2.37279 5.51197 0
M  V30 2916 H 288.365 2.56957 4.11219 0
M  V30 2917 N 289.708 -1.40897 0.706093 0
M  V30 2918 C 290.954 -2.01352 0.241889 0
M  V30 2919 C 291.287 -1.55832 -1.15888 0
M  V30 2920 O 290.562 -0.774145 -1.7843 0
M  V30 2921 C 290.845 -3.58752 0.311311 0
M  V30 2922 C 290.698 -4.1437 1.74978 0
M  V30 2923 C 292.017 -4.38914 -0.322922 0
M  V30 2924 H 289.136 -0.731562 0.0893687 0
M  V30 2925 H 291.778 -1.67504 0.896802 0
M  V30 2926 H 289.928 -3.87718 -0.246302 0
M  V30 2927 H 291.6 -3.96239 2.36205 0
M  V30 2928 H 289.843 -3.69016 2.28057 0
M  V30 2929 H 290.514 -5.23532 1.74981 0
M  V30 2930 H 292.99 -4.15822 0.152089 0
M  V30 2931 H 291.866 -5.48358 -0.243855 0
M  V30 2932 H 292.127 -4.19176 -1.40513 0
M  V30 2933 N 291.186 -0.45159 -1.50991 0
M  V30 2934 C 292.118 0.388634 -2.25881 0
M  V30 2935 C 293.131 0.974041 -1.30446 0
M  V30 2936 O 294.32 0.865758 -1.56099 0
M  V30 2937 C 291.42 1.5571 -3.01011 0
M  V30 2938 C 290.593 1.08801 -4.23652 0
M  V30 2939 C 289.652 2.12825 -4.8124 0
M  V30 2940 O 288.678 1.71678 -5.42693 0
M  V30 2941 N 289.88 3.45453 -4.66522 0
M  V30 2942 H 292.645 -0.25329 -2.98628 0
M  V30 2943 H 290.206 -0.281268 -1.59438 0
M  V30 2944 H 292.198 2.24952 -3.3642 0
M  V30 2945 H 290.768 2.10409 -2.31186 0
M  V30 2946 H 289.988 0.22215 -3.93574 0
M  V30 2947 H 291.276 0.752213 -5.03209 0
M  V30 2948 H 290.674 3.81605 -4.17605 0
M  V30 2949 H 289.231 4.10549 -5.06254 0
M  V30 2950 N 292.664 1.56529 -0.183458 0
M  V30 2951 C 294.08 1.58664 0.172554 0
M  V30 2952 C 294.28 1.19925 1.61926 0
M  V30 2953 O 293.336 0.916534 2.35278 0
M  V30 2954 C 294.649 3.00463 -0.119262 0
M  V30 2955 C 296.197 3.12945 -0.0584396 0
M  V30 2956 C 296.672 4.56857 -0.323408 0
M  V30 2957 N 298.163 4.62403 -0.271612 0
M  V30 2958 C 298.898 5.71626 -0.450639 0
M  V30 2959 N 298.394 6.89362 -0.689384 0
M  V30 2960 N 300.187 5.60775 -0.385701 0
M  V30 2961 H 292.338 1.79994 -1.12765 0
M  V30 2962 H 294.601 0.834808 -0.449222 0
M  V30 2963 H 294.307 3.33326 -1.12192 0
M  V30 2964 H 294.181 3.72659 0.583544 0
M  V30 2965 H 296.568 2.79902 0.934805 0
M  V30 2966 H 296.649 2.4316 -0.794144 0
M  V30 2967 H 296.293 4.9061 -1.31392 0
M  V30 2968 H 296.223 5.24816 0.43305 0
M  V30 2969 H 298.714 3.77785 -0.0932256 0
M  V30 2970 H 299.027 7.68489 -0.815113 0
M  V30 2971 H 297.372 6.91196 -0.726142 0
M  V30 2972 H 300.563 4.67674 -0.199687 0
M  V30 2973 H 300.736 6.4584 -0.528646 0
M  V30 2974 N 294.142 -0.090211 1.57342 0
M  V30 2975 C 295.37 -0.806224 1.90546 0
M  V30 2976 C 295.785 -1.72041 0.777644 0
M  V30 2977 O 295.142 -1.80778 -0.250103 0
M  V30 2978 C 295.193 -1.61546 3.23396 0
M  V30 2979 O 294.914 -0.738043 4.31839 0
M  V30 2980 C 296.415 -2.4341 3.70495 0
M  V30 2981 H 293.635 -0.230256 0.630257 0
M  V30 2982 H 296.179 -0.0659843 2.04394 0
M  V30 2983 H 294.334 -2.30816 3.11131 0
M  V30 2984 H 294.748 -1.29901 5.08159 0
M  V30 2985 H 296.222 -2.95676 4.66133 0
M  V30 2986 H 296.699 -3.22098 2.98579 0
M  V30 2987 H 297.305 -1.79331 3.85643 0
M  V30 2988 N 295.62 -1.53406 -0.361157 0
M  V30 2989 C 296.869 -1.69022 -1.10066 0
M  V30 2990 C 297.182 -0.450838 -1.90333 0
M  V30 2991 O 298.388 -0.487617 -2.67085 0
M  V30 2992 C 296.844 -2.98812 -2.00598 0
M  V30 2993 C 296.452 -4.30027 -1.25621 0
M  V30 2994 C 298.196 -3.23795 -2.74513 0
M  V30 2995 C 296.103 -5.50903 -2.1508 0
M  V30 2996 H 295.033 -0.629776 -0.414606 0
M  V30 2997 H 297.684 -1.79907 -0.361348 0
M  V30 2998 H 296.066 -2.8174 -2.78278 0
M  V30 2999 H 297.24 -4.57745 -0.529739 0
M  V30 3000 H 295.555 -4.11522 -0.635496 0
M  V30 3001 H 298.152 -4.11289 -3.41681 0
M  V30 3002 H 298.495 -2.40045 -3.40123 0
M  V30 3003 H 299.028 -3.41561 -2.03914 0
M  V30 3004 H 295.767 -6.37143 -1.54041 0
M  V30 3005 H 295.287 -5.27459 -2.85565 0
M  V30 3006 H 296.966 -5.85865 -2.74538 0
M  V30 3007 N 297.098 0.621204 -1.44841 0
M  V30 3008 C 298.061 1.71459 -1.521 0
M  V30 3009 C 299.061 1.55696 -0.401933 0
M  V30 3010 O 300.251 1.61011 -0.664925 0
M  V30 3011 C 297.383 3.10624 -1.40447 0
M  V30 3012 H 298.576 1.66394 -2.49506 0
M  V30 3013 H 296.129 0.835745 -1.3208 0
M  V30 3014 H 296.864 3.21277 -0.441737 0
M  V30 3015 H 296.649 3.23473 -2.21602 0
M  V30 3016 H 298.139 3.90293 -1.4853 0
M  V30 3017 N 298.576 1.31904 0.862503 0
M  V30 3018 C 299.992 1.10724 1.14945 0
M  V30 3019 C 300.192 -0.117421 2.01158 0
M  V30 3020 O 299.248 -0.804595 2.39338 0
M  V30 3021 C 300.561 2.38267 1.83437 0
M  V30 3022 C 302.109 2.43949 1.96106 0
M  V30 3023 C 302.584 3.71394 2.68013 0
M  V30 3024 N 304.075 3.72331 2.75543 0
M  V30 3025 C 304.81 4.67641 3.31812 0
M  V30 3026 N 304.306 5.73313 3.88953 0
M  V30 3027 N 306.099 4.5515 3.29841 0
M  V30 3028 H 298.25 2.10436 0.288191 0
M  V30 3029 H 300.513 0.928705 0.190292 0
M  V30 3030 H 300.219 3.27759 1.27542 0
M  V30 3031 H 300.093 2.48633 2.83657 0
M  V30 3032 H 302.48 1.54922 2.51164 0
M  V30 3033 H 302.561 2.37543 0.949059 0
M  V30 3034 H 302.205 4.60791 2.13621 0
M  V30 3035 H 302.135 3.75069 3.69636 0
M  V30 3036 H 304.626 2.95947 2.34997 0
M  V30 3037 H 304.939 6.42107 4.30022 0
M  V30 3038 H 303.284 5.77077 3.87308 0
M  V30 3039 H 306.475 3.71766 2.84443 0
M  V30 3040 H 306.648 5.29604 3.73394 0
M  V30 3041 N 300.054 -1.07777 1.14986 0
M  V30 3042 C 301.282 -1.84018 0.945773 0
M  V30 3043 C 301.697 -1.81897 -0.505863 0
M  V30 3044 O 301.054 -1.22726 -1.35072 0
M  V30 3045 C 301.105 -3.31287 1.44677 0
M  V30 3046 O 300.826 -3.33449 2.84154 0
M  V30 3047 C 302.327 -4.24311 1.28355 0
M  V30 3048 H 299.547 -0.580716 0.336169 0
M  V30 3049 H 302.091 -1.36077 1.52654 0
M  V30 3050 H 300.246 -3.76594 0.908625 0
M  V30 3051 H 300.66 -4.25427 3.06777 0
M  V30 3052 H 302.134 -5.2573 1.68261 0
M  V30 3053 H 302.611 -4.38612 0.227184 0
M  V30 3054 H 303.217 -3.84836 1.81056 0
M  V30 3055 N 301.532 -0.945985 -1.26051 0
M  V30 3056 C 302.781 -0.591836 -1.92822 0
M  V30 3057 C 303.094 0.873956 -1.7499 0
M  V30 3058 O 304.3 1.33769 -2.36259 0
M  V30 3059 C 302.756 -1.00776 -3.45503 0
M  V30 3060 C 302.364 -2.4955 -3.7206 0
M  V30 3061 C 304.108 -0.725735 -4.1825 0
M  V30 3062 C 302.015 -2.84988 -5.18205 0
M  V30 3063 H 300.945 -0.217635 -0.721908 0
M  V30 3064 H 303.596 -1.14927 -1.43052 0
M  V30 3065 H 301.978 -0.378812 -3.94184 0
M  V30 3066 H 303.152 -3.1739 -3.34066 0
M  V30 3067 H 301.467 -2.75133 -3.12555 0
M  V30 3068 H 304.064 -0.966771 -5.25887 0
M  V30 3069 H 304.407 0.337639 -4.14929 0
M  V30 3070 H 304.94 -1.31463 -3.7545 0
M  V30 3071 H 301.679 -3.90307 -5.26631 0
M  V30 3072 H 301.199 -2.21813 -5.57278 0
M  V30 3073 H 302.878 -2.73712 -5.86252 0
M  V30 3074 N 303.011 1.40521 -0.713556 0
M  V30 3075 C 304.257 2.01221 -0.252564 0
M  V30 3076 C 304.59 1.56444 1.1506 0
M  V30 3077 O 303.865 0.783597 1.78017 0
M  V30 3078 C 304.148 3.58582 -0.330332 0
M  V30 3079 C 304.001 4.13437 -1.77173 0
M  V30 3080 C 305.32 4.39079 0.299641 0
M  V30 3081 H 302.439 0.731077 -0.0932471 0
M  V30 3082 H 305.081 1.67026 -0.905673 0
M  V30 3083 H 303.231 3.87844 0.225737 0
M  V30 3084 H 304.903 3.9498 -2.38303 0
M  V30 3085 H 303.146 3.67801 -2.3001 0
M  V30 3086 H 303.817 5.22597 -1.77755 0
M  V30 3087 H 306.293 4.15735 -0.174139 0
M  V30 3088 H 305.169 5.4848 0.214771 0
M  V30 3089 H 305.43 4.19915 1.38288 0
M  V30 3090 N 304.489 0.459591 1.5075 0
M  V30 3091 C 305.419 -0.330644 2.31147 0
M  V30 3092 C 306.4 -1.00087 1.37538 0
M  V30 3093 O 307.585 -1.00025 1.66459 0
M  V30 3094 C 304.715 -1.41958 3.16962 0
M  V30 3095 C 303.669 -0.871608 4.19031 0
M  V30 3096 C 302.995 -2.05797 4.9351 0
M  V30 3097 C 304.295 0.109251 5.22186 0
M  V30 3098 H 305.989 0.340336 2.97459 0
M  V30 3099 H 303.535 0.165119 1.4305 0
M  V30 3100 H 305.488 -1.9798 3.71997 0
M  V30 3101 H 304.212 -2.11917 2.48513 0
M  V30 3102 H 302.871 -0.333442 3.6508 0
M  V30 3103 H 302.519 -2.74427 4.21544 0
M  V30 3104 H 302.219 -1.6976 5.62544 0
M  V30 3105 H 303.743 -2.62331 5.51375 0
M  V30 3106 H 305.157 -0.361405 5.7216 0
M  V30 3107 H 303.554 0.383316 5.98875 0
M  V30 3108 H 304.624 1.03887 4.73641 0
M  V30 3109 N 305.967 -1.56429 0.191757 0
M  V30 3110 C 306.899 -2.16154 -0.762245 0
M  V30 3111 C 307.912 -1.12247 -1.17917 0
M  V30 3112 O 309.101 -1.39353 -1.11548 0
M  V30 3113 C 306.201 -2.70606 -2.04024 0
M  V30 3114 C 305.374 -3.99381 -1.78364 0
M  V30 3115 C 304.433 -4.38692 -2.90578 0
M  V30 3116 O 303.459 -5.06179 -2.6033 0
M  V30 3117 N 304.661 -4.01922 -4.18854 0
M  V30 3118 H 307.426 -2.98643 -0.251526 0
M  V30 3119 H 304.987 -1.61897 0.00967373 0
M  V30 3120 H 306.979 -2.93891 -2.78227 0
M  V30 3121 H 305.549 -1.9259 -2.46227 0
M  V30 3122 H 304.769 -3.84262 -0.879581 0
M  V30 3123 H 306.057 -4.83445 -1.58614 0
M  V30 3124 H 305.455 -3.47631 -4.46283 0
M  V30 3125 H 304.012 -4.30165 -4.89695 0
M  V30 3126 N 307.445 0.0818655 -1.57387 0
M  V30 3127 C 308.355 1.11642 -2.06333 0
M  V30 3128 C 309.371 1.43033 -0.99083 0
M  V30 3129 O 310.547 1.53411 -1.30488 0
M  V30 3130 C 307.612 2.41342 -2.48907 0
M  V30 3131 C 306.673 2.17014 -3.7041 0
M  V30 3132 C 305.906 3.4053 -4.10944 0
M  V30 3133 O 306.129 4.4927 -3.51444 0
M  V30 3134 O 305.063 3.29336 -5.03807 0
M  V30 3135 H 308.889 0.730657 -2.9478 0
M  V30 3136 H 306.474 0.295301 -1.46452 0
M  V30 3137 H 308.356 3.17691 -2.76858 0
M  V30 3138 H 307.031 2.79319 -1.63593 0
M  V30 3139 H 305.938 1.38403 -3.47556 0
M  V30 3140 H 307.271 1.83923 -4.56545 0
M  V30 3141 N 308.923 1.53595 0.353017 0
M  V30 3142 C 310.148 1.7462 1.11904 0
M  V30 3143 C 310.573 0.479721 1.8188 0
M  V30 3144 O 309.931 -0.567066 1.72204 0
M  V30 3145 C 309.979 2.92029 2.11545 0
M  V30 3146 O 309.083 2.61516 3.18878 0
M  V30 3147 H 308.424 0.579531 0.324099 0
M  V30 3148 H 310.954 2.00525 0.406301 0
M  V30 3149 H 310.964 3.18551 2.5493 0
M  V30 3150 H 309.639 3.83888 1.60008 0
M  V30 3151 H 308.216 2.45852 2.80377 0
M  V30 3152 N 310.401 -0.613514 1.45168 0
M  V30 3153 C 311.65 -1.36874 1.4815 0
M  V30 3154 C 311.963 -1.952 0.124982 0
M  V30 3155 O 313.169 -2.71481 0.0324176 0
M  V30 3156 C 311.625 -2.47905 2.60904 0
M  V30 3157 C 311.233 -1.96016 4.02842 0
M  V30 3158 C 312.977 -3.24965 2.73126 0
M  V30 3159 C 310.884 -3.04494 5.06988 0
M  V30 3160 H 309.814 -0.514428 0.551253 0
M  V30 3161 H 312.465 -0.658182 1.7129 0
M  V30 3162 H 310.847 -3.21618 2.31037 0
M  V30 3163 H 312.021 -1.29051 4.4236 0
M  V30 3164 H 310.336 -1.31719 3.95018 0
M  V30 3165 H 312.933 -4.05865 3.48106 0
M  V30 3166 H 313.276 -3.75588 1.79553 0
M  V30 3167 H 313.809 -2.5835 3.0249 0
M  V30 3168 H 310.548 -2.58795 6.0225 0
M  V30 3169 H 310.068 -3.70044 4.72046 0
M  V30 3170 H 311.747 -3.68976 5.31475 0
M  V30 3171 N 311.879 -1.3236 -0.855495 0
M  V30 3172 C 313.127 -1.22629 -1.60644 0
M  V30 3173 C 313.448 0.212136 -1.93843 0
M  V30 3174 O 312.718 1.13666 -1.59552 0
M  V30 3175 H 311.298 -0.450882 -0.595579 0
M  V30 3176 H 313.96 -1.65871 -1.02337 0
M  V30 3177 H 313.056 -1.80832 -2.54374 0
M  V30 3178 N 313.357 1.07166 -1.15556 0
M  V30 3179 C 314.304 2.14417 -0.854055 0
M  V30 3180 C 315.274 1.64965 0.193806 0
M  V30 3181 O 316.459 1.90703 0.0609443 0
M  V30 3182 C 313.599 3.43304 -0.351574 0
M  V30 3183 C 312.712 4.06537 -1.46123 0
M  V30 3184 C 311.847 5.23266 -0.914677 0
M  V30 3185 C 310.886 5.78464 -2.00114 0
M  V30 3186 N 310.023 6.86521 -1.47083 0
M  V30 3187 H 314.863 2.39548 -1.77259 0
M  V30 3188 H 312.4 1.17543 -0.884425 0
M  V30 3189 H 314.358 4.17179 -0.0419409 0
M  V30 3190 H 312.988 3.18419 0.530037 0
M  V30 3191 H 312.04 3.30297 -1.88701 0
M  V30 3192 H 313.352 4.43567 -2.28144 0
M  V30 3193 H 312.506 6.04131 -0.557698 0
M  V30 3194 H 311.245 4.87658 -0.0636583 0
M  V30 3195 H 310.25 4.96243 -2.36692 0
M  V30 3196 H 311.475 6.16126 -2.85597 0
M  V30 3197 H 309.421 6.52849 -0.642198 0
M  V30 3198 H 309.338 7.22446 -2.22729 0
M  V30 3199 H 310.606 7.71087 -1.14215 0
M  V30 3200 N 314.835 0.952656 1.25548 0
M  V30 3201 C 316.083 0.605176 1.92826 0
M  V30 3202 C 316.404 -0.860261 1.74999 0
M  V30 3203 O 315.674 -1.6125 1.11244 0
M  V30 3204 H 314.254 0.220832 0.713612 0
M  V30 3205 H 316.916 1.21047 1.52754 0
M  V30 3206 H 316.012 0.832798 3.00784 0
M  V30 3207 N 316.313 -1.40141 0.720998 0
M  V30 3208 C 317.729 -1.54632 0.395113 0
M  V30 3209 C 317.929 -1.69115 -1.09555 0
M  V30 3210 O 316.985 -1.68377 -1.88163 0
M  V30 3211 C 318.298 -2.77177 1.1659 0
M  V30 3212 C 319.846 -2.91 1.15274 0
M  V30 3213 C 320.321 -4.16465 1.90579 0
M  V30 3214 N 321.812 -4.23476 1.87675 0
M  V30 3215 C 322.547 -5.19475 2.42762 0
M  V30 3216 N 322.043 -6.21348 3.06428 0
M  V30 3217 N 323.836 -5.11592 2.32874 0
M  V30 3218 H 315.987 -1.28986 1.68749 0
M  V30 3219 H 318.25 -0.62412 0.713567 0
M  V30 3220 H 317.956 -2.72771 2.22011 0
M  V30 3221 H 317.83 -3.69442 0.76108 0
M  V30 3222 H 320.217 -2.94907 0.106702 0
M  V30 3223 H 320.298 -1.99838 1.59682 0
M  V30 3224 H 319.942 -4.1332 2.95176 0
M  V30 3225 H 319.872 -5.06646 1.43587 0
M  V30 3226 H 322.363 -3.50497 1.41281 0
M  V30 3227 H 322.676 -6.91034 3.45965 0
M  V30 3228 H 321.021 -6.21777 3.10514 0
M  V30 3229 H 324.212 -4.30936 1.82789 0
M  V30 3230 H 324.385 -5.86233 2.76106 0
M  V30 3231 N 317.792 -0.46758 -1.50504 0
M  V30 3232 C 319.039 0.0886219 -2.02306 0
M  V30 3233 C 319.367 1.40037 -1.34981 0
M  V30 3234 O 318.622 1.90136 -0.463318 0
M  V30 3235 C 318.921 0.323995 -3.55928 0
M  V30 3236 C 318.587 -0.905618 -4.41712 0
M  V30 3237 C 317.249 -1.24275 -4.64875 0
M  V30 3238 C 319.601 -1.72448 -4.91845 0
M  V30 3239 C 316.929 -2.39888 -5.35417 0
M  V30 3240 C 319.281 -2.87185 -5.63656 0
M  V30 3241 C 317.945 -3.21317 -5.85074 0
M  V30 3242 H 317.215 0.0324291 -0.74029 0
M  V30 3243 H 319.862 -0.620945 -1.81153 0
M  V30 3244 H 318.167 1.11577 -3.75577 0
M  V30 3245 H 319.864 0.76826 -3.93572 0
M  V30 3246 H 316.454 -0.632956 -4.239 0
M  V30 3247 H 320.638 -1.4772 -4.73806 0
M  V30 3248 H 315.894 -2.66611 -5.50208 0
M  V30 3249 H 320.068 -3.50985 -6.01484 0
M  V30 3250 H 317.695 -4.1101 -6.39511 0
M  V30 3251 N 319.27 1.56325 -0.20005 0
M  V30 3252 C 320.518 1.97329 0.436547 0
M  V30 3253 C 320.839 1.08826 1.61808 0
M  V30 3254 O 320.109 0.160604 1.95241 0
M  V30 3255 H 318.689 0.728714 0.164272 0
M  V30 3256 H 321.351 1.92761 -0.287937 0
M  V30 3257 H 320.447 3.02264 0.777353 0
M  V30 3258 N 320.748 -0.0735177 1.57428 0
M  V30 3259 C 321.658 -1.10547 2.06922 0
M  V30 3260 C 322.674 -1.42506 0.998402 0
M  V30 3261 O 323.85 -1.52717 1.31299 0
M  V30 3262 C 320.915 -2.40019 2.50184 0
M  V30 3263 C 319.976 -2.15046 3.71556 0
M  V30 3264 C 319.209 -3.38345 4.12745 0
M  V30 3265 O 319.432 -4.47399 3.53822 0
M  V30 3266 O 318.366 -3.2666 5.05546 0
M  V30 3267 H 322.192 -0.715013 2.95163 0
M  V30 3268 H 319.777 -0.287531 1.46607 0
M  V30 3269 H 321.659 -3.16218 2.78539 0
M  V30 3270 H 320.334 -2.78447 1.65072 0
M  V30 3271 H 319.241 -1.36558 3.48285 0
M  V30 3272 H 320.574 -1.81499 4.57514 0
M  V30 3273 N 322.226 -1.5378 -0.344866 0
M  V30 3274 C 323.472 -1.71216 -1.08687 0
M  V30 3275 C 323.805 -0.473281 -1.88345 0
M  V30 3276 O 323.08 0.52968 -1.87149 0
M  V30 3277 C 323.363 -2.97486 -2.02914 0
M  V30 3278 C 323.216 -4.31579 -1.26727 0
M  V30 3279 C 324.535 -3.19422 -3.0275 0
M  V30 3280 H 321.654 -0.62301 -0.393735 0
M  V30 3281 H 324.296 -1.8645 -0.365563 0
M  V30 3282 H 322.446 -2.84629 -2.64421 0
M  V30 3283 H 324.118 -4.56284 -0.67845 0
M  V30 3284 H 322.361 -4.30049 -0.569273 0
M  V30 3285 H 323.032 -5.16106 -1.95803 0
M  V30 3286 H 325.508 -3.316 -2.51357 0
M  V30 3287 H 324.384 -4.09169 -3.65885 0
M  V30 3288 H 324.645 -2.35656 -3.74057 0
M  V30 3289 N 323.704 0.605807 -1.45491 0
M  V30 3290 C 324.95 1.36481 -1.50813 0
M  V30 3291 C 325.305 1.91826 -0.148469 0
M  V30 3292 O 324.598 1.72211 0.839869 0
M  V30 3293 C 324.792 2.53012 -2.52428 0
M  V30 3294 C 324.621 2.09078 -3.98141 0
M  V30 3295 C 323.391 1.95167 -4.66088 0
M  V30 3296 C 325.589 1.66438 -4.86624 0
M  V30 3297 N 323.571 1.45062 -5.96515 0
M  V30 3298 C 324.942 1.27761 -6.06694 0
M  V30 3299 C 326.997 1.54046 -4.7347 0
M  V30 3300 C 325.7 0.779286 -7.15066 0
M  V30 3301 C 327.726 1.05618 -5.81892 0
M  V30 3302 C 327.088 0.67906 -7.01119 0
M  V30 3303 H 323.187 0.493267 -0.606805 0
M  V30 3304 H 325.771 0.692347 -1.81974 0
M  V30 3305 H 323.942 3.17851 -2.23215 0
M  V30 3306 H 325.674 3.19897 -2.47887 0
M  V30 3307 H 322.429 2.16407 -4.21266 0
M  V30 3308 H 322.853 1.22237 -6.65873 0
M  V30 3309 H 327.495 1.81827 -3.81705 0
M  V30 3310 H 325.213 0.489026 -8.06619 0
M  V30 3311 H 328.799 0.964529 -5.73749 0
M  V30 3312 H 327.679 0.310091 -7.83587 0
M  V30 3313 N 325.182 1.32811 0.848464 0
M  V30 3314 C 326.598 1.11937 1.13764 0
M  V30 3315 C 326.798 -0.0960789 2.01271 0
M  V30 3316 O 325.854 -0.779165 2.40178 0
M  V30 3317 C 327.167 2.402 1.809 0
M  V30 3318 C 328.715 2.46016 1.93508 0
M  V30 3319 C 329.19 3.74215 2.64059 0
M  V30 3320 N 330.681 3.75232 2.71579 0
M  V30 3321 C 331.416 4.71134 3.26833 0
M  V30 3322 N 330.912 5.77406 3.8285 0
M  V30 3323 N 332.705 4.58623 3.24995 0
M  V30 3324 H 324.856 2.1073 0.265855 0
M  V30 3325 H 327.119 0.930671 0.180431 0
M  V30 3326 H 326.825 3.29093 1.24058 0
M  V30 3327 H 326.699 2.51628 2.81004 0
M  V30 3328 H 329.086 1.57577 2.49506 0
M  V30 3329 H 329.167 2.38536 0.923811 0
M  V30 3330 H 328.811 4.63031 2.08722 0
M  V30 3331 H 328.741 3.78968 3.65637 0
M  V30 3332 H 331.232 2.98423 2.31845 0
M  V30 3333 H 331.545 6.46632 4.23187 0
M  V30 3334 H 329.89 5.81152 3.81165 0
M  V30 3335 H 333.081 3.74762 2.80484 0
M  V30 3336 H 333.254 5.33535 3.67756 0
M  V30 3337 N 326.66 -1.06551 1.16123 0
M  V30 3338 C 327.908 -1.78947 0.939267 0
M  V30 3339 C 328.229 -1.87532 -0.534476 0
M  V30 3340 O 327.499 -1.38211 -1.38833 0
M  V30 3341 H 326.079 -0.662807 0.344523 0
M  V30 3342 H 328.741 -1.28725 1.46342 0
M  V30 3343 H 327.837 -2.81117 1.35572 0
M  V30 3344 N 328.138 -0.959301 -1.25041 0
M  V30 3345 C 329.085 -0.482057 -2.2571 0
M  V30 3346 C 330.055 0.467939 -1.59372 0
M  V30 3347 O 331.24 0.380159 -1.86974 0
M  V30 3348 C 328.38 0.229623 -3.44335 0
M  V30 3349 C 327.493 -0.758156 -4.25295 0
M  V30 3350 C 326.628 -0.0234403 -5.31195 0
M  V30 3351 C 325.667 -1.00184 -6.03846 0
M  V30 3352 N 324.804 -0.29769 -7.01469 0
M  V30 3353 H 329.644 -1.34538 -2.65901 0
M  V30 3354 H 327.181 -0.674592 -1.3072 0
M  V30 3355 H 329.139 0.658856 -4.11965 0
M  V30 3356 H 327.769 1.05696 -3.05005 0
M  V30 3357 H 326.821 -1.30586 -3.57284 0
M  V30 3358 H 328.133 -1.50458 -4.75567 0
M  V30 3359 H 327.287 0.464201 -6.04922 0
M  V30 3360 H 326.026 0.755741 -4.81809 0
M  V30 3361 H 325.031 -1.50044 -5.2893 0
M  V30 3362 H 326.256 -1.78133 -6.55321 0
M  V30 3363 H 324.202 0.462668 -6.54366 0
M  V30 3364 H 324.119 -0.983128 -7.4958 0
M  V30 3365 H 325.387 0.16826 -7.79318 0
M  V30 3366 N 329.616 1.39756 -0.72842 0
M  V30 3367 C 330.862 2.01425 -0.282761 0
M  V30 3368 C 331.217 1.56754 1.11561 0
M  V30 3369 O 330.51 0.783482 1.74849 0
M  V30 3370 C 330.704 3.56002 -0.315776 0
M  V30 3371 C 330.533 4.1568 -1.71582 0
M  V30 3372 C 329.303 4.48555 -2.32651 0
M  V30 3373 C 331.501 4.39667 -2.66829 0
M  V30 3374 N 329.483 4.93698 -3.64877 0
M  V30 3375 C 330.854 4.86942 -3.8378 0
M  V30 3376 C 332.909 4.21724 -2.64675 0
M  V30 3377 C 331.612 5.18158 -4.98904 0
M  V30 3378 C 333.638 4.54049 -3.78937 0
M  V30 3379 C 333 5.01525 -4.94623 0
M  V30 3380 H 329.099 0.76756 -0.149583 0
M  V30 3381 H 331.683 1.69784 -0.952976 0
M  V30 3382 H 329.854 3.87046 0.324057 0
M  V30 3383 H 331.586 4.0443 0.147808 0
M  V30 3384 H 328.341 4.36128 -1.84633 0
M  V30 3385 H 328.765 5.20635 -4.32744 0
M  V30 3386 H 333.407 3.84228 -1.76433 0
M  V30 3387 H 331.125 5.54562 -5.87781 0
M  V30 3388 H 334.711 4.41795 -3.78561 0
M  V30 3389 H 333.591 5.26065 -5.81572 0
M  V30 3390 N 331.094 0.475555 1.50254 0
M  V30 3391 C 332.51 0.12997 1.5907 0
M  V30 3392 C 332.71 -1.36385 1.48328 0
M  V30 3393 O 331.766 -2.13754 1.34407 0
M  V30 3394 C 333.079 0.684139 2.92814 0
M  V30 3395 C 334.627 0.647965 3.0622 0
M  V30 3396 C 335.102 1.17975 4.42545 0
M  V30 3397 N 336.593 1.13936 4.48969 0
M  V30 3398 C 337.328 1.52129 5.52851 0
M  V30 3399 N 336.824 1.97793 6.63965 0
M  V30 3400 N 338.617 1.43704 5.4342 0
M  V30 3401 H 330.768 1.44706 1.55479 0
M  V30 3402 H 333.031 0.598691 0.735033 0
M  V30 3403 H 332.737 1.73079 3.06164 0
M  V30 3404 H 332.611 0.130204 3.76975 0
M  V30 3405 H 334.998 -0.38979 2.92514 0
M  V30 3406 H 335.079 1.23876 2.23805 0
M  V30 3407 H 334.723 2.21616 4.57 0
M  V30 3408 H 334.653 0.565138 5.23559 0
M  V30 3409 H 337.144 0.804488 3.69238 0
M  V30 3410 H 337.457 2.25072 7.39299 0
M  V30 3411 H 335.802 2.01749 6.65073 0
M  V30 3412 H 338.993 1.07867 4.55502 0
M  V30 3413 H 339.166 1.73794 6.24259 0
M  V30 3414 N 332.573 -1.56217 0.208337 0
M  V30 3415 C 333.821 -1.97558 -0.426076 0
M  V30 3416 C 334.142 -1.09683 -1.61229 0
M  V30 3417 O 333.412 -0.170956 -1.95153 0
M  V30 3418 H 331.992 -0.729575 -0.160405 0
M  V30 3419 H 334.654 -1.92606 0.298155 0
M  V30 3420 H 333.75 -3.02672 -0.761312 0
M  V30 3421 N 334.051 0.0651679 -1.57465 0
M  V30 3422 C 334.961 1.09448 -2.07505 0
M  V30 3423 C 335.977 1.41974 -1.00595 0
M  V30 3424 O 337.153 1.52018 -1.32107 0
M  V30 3425 C 334.218 2.38689 -2.51453 0
M  V30 3426 C 333.279 2.13073 -3.72691 0
M  V30 3427 C 332.512 3.36152 -4.14533 0
M  V30 3428 O 332.735 4.45517 -3.56189 0
M  V30 3429 O 331.669 3.23974 -5.07272 0
M  V30 3430 H 335.495 0.69935 -2.95538 0
M  V30 3431 H 333.08 0.279752 -1.46757 0
M  V30 3432 H 334.962 3.14736 -2.80212 0
M  V30 3433 H 333.637 2.77568 -1.66546 0
M  V30 3434 H 332.544 1.34709 -3.49005 0
M  V30 3435 H 333.877 1.79071 -4.5847 0
M  V30 3436 N 335.529 1.53961 0.336706 0
M  V30 3437 C 336.439 1.85432 1.43708 0
M  V30 3438 C 337.455 0.745053 1.57242 0
M  V30 3439 O 338.631 1.03804 1.72588 0
M  V30 3440 C 335.696 2.06349 2.78605 0
M  V30 3441 C 334.757 3.30191 2.74358 0
M  V30 3442 C 333.99 3.50101 4.02822 0
M  V30 3443 O 334.213 2.7371 5.00439 0
M  V30 3444 O 333.147 4.43547 4.06878 0
M  V30 3445 H 336.973 2.78975 1.20028 0
M  V30 3446 H 334.558 1.39701 0.52952 0
M  V30 3447 H 336.44 2.21513 3.58483 0
M  V30 3448 H 335.115 1.15995 3.02203 0
M  V30 3449 H 334.022 3.20425 1.93078 0
M  V30 3450 H 335.355 4.2056 2.55715 0
M  V30 3451 N 337.007 -0.598083 1.45811 0
M  V30 3452 C 338.253 -1.35882 1.50545 0
M  V30 3453 C 338.586 -1.93616 0.150445 0
M  V30 3454 O 337.861 -1.75604 -0.83628 0
M  V30 3455 C 338.144 -2.49966 2.59208 0
M  V30 3456 C 337.997 -1.97367 4.04186 0
M  V30 3457 C 339.316 -3.52068 2.64076 0
M  V30 3458 H 336.435 -0.492717 0.548087 0
M  V30 3459 H 339.077 -0.673319 1.77669 0
M  V30 3460 H 337.227 -3.08443 2.3621 0
M  V30 3461 H 338.899 -1.43466 4.38423 0
M  V30 3462 H 337.142 -1.283 4.14393 0
M  V30 3463 H 337.813 -2.79649 4.75921 0
M  V30 3464 H 340.289 -3.03448 2.84708 0
M  V30 3465 H 339.165 -4.2937 3.41954 0
M  V30 3466 H 339.426 -4.08304 1.69531 0
M  V30 3467 N 338.485 -1.33259 -0.841409 0
M  V30 3468 C 339.448 -1.23221 -1.9326 0
M  V30 3469 C 340.448 -0.151895 -1.60081 0
M  V30 3470 O 341.638 -0.403246 -1.69468 0
M  V30 3471 C 338.77 -0.898123 -3.28856 0
M  V30 3472 H 339.963 -2.2021 -2.03587 0
M  V30 3473 H 337.516 -1.17281 -1.03319 0
M  V30 3474 H 338.251 0.0693841 -3.24226 0
M  V30 3475 H 338.036 -1.67934 -3.54317 0
M  V30 3476 H 339.526 -0.852563 -4.08805 0
M  V30 3477 N 339.963 1.05934 -1.16686 0
M  V30 3478 C 341.209 1.79065 -0.95203 0
M  V30 3479 C 341.542 1.87147 0.518629 0
M  V30 3480 O 340.817 1.36574 1.38484 0
M  V30 3481 C 341.1 3.23359 -1.58464 0
M  V30 3482 C 340.953 3.23336 -3.12689 0
M  V30 3483 C 342.272 4.21004 -1.28232 0
M  V30 3484 H 339.391 0.65005 -0.34728 0
M  V30 3485 H 342.033 1.23868 -1.44072 0
M  V30 3486 H 340.183 3.70493 -1.16908 0
M  V30 3487 H 341.855 2.84336 -3.6325 0
M  V30 3488 H 340.098 2.61886 -3.4583 0
M  V30 3489 H 340.769 4.25144 -3.52075 0
M  V30 3490 H 343.245 3.8233 -1.64203 0
M  V30 3491 H 342.121 5.20225 -1.75092 0
M  V30 3492 H 342.382 4.41639 -0.201791 0
M  V30 3493 N 341.441 0.965919 1.2453 0
M  V30 3494 C 342.388 0.49402 2.25451 0
M  V30 3495 C 343.358 -0.45948 1.59618 0
M  V30 3496 O 344.543 -0.370238 1.87173 0
M  V30 3497 C 341.683 -0.211359 3.44452 0
M  V30 3498 C 340.796 0.7807 4.24887 0
M  V30 3499 C 339.931 0.0516105 5.31175 0
M  V30 3500 C 338.97 1.03385 6.03306 0
M  V30 3501 N 338.107 0.334887 7.01301 0
M  V30 3502 H 342.947 1.35946 2.65184 0
M  V30 3503 H 340.484 0.681515 1.3036 0
M  V30 3504 H 342.442 -0.637 4.12308 0
M  V30 3505 H 341.072 -1.04077 3.05562 0
M  V30 3506 H 340.124 1.32479 3.56586 0
M  V30 3507 H 341.436 1.52978 4.74762 0
M  V30 3508 H 340.59 -0.432114 6.05159 0
M  V30 3509 H 339.329 -0.730179 4.82203 0
M  V30 3510 H 338.334 1.52847 5.28127 0
M  V30 3511 H 339.559 1.81606 6.54367 0
M  V30 3512 H 337.505 -0.427959 6.54603 0
M  V30 3513 H 337.422 1.02287 7.49048 0
M  V30 3514 H 338.69 -0.126928 7.79397 0
M  V30 3515 N 342.919 -1.39368 0.735821 0
M  V30 3516 C 344.168 -1.99733 0.281004 0
M  V30 3517 C 344.481 -1.59055 -1.13846 0
M  V30 3518 O 345.687 -2.12262 -1.69284 0
M  V30 3519 C 344.143 -3.57057 0.451462 0
M  V30 3520 C 343.751 -4.06697 1.87886 0
M  V30 3521 C 345.495 -4.2446 0.0584616 0
M  V30 3522 C 343.402 -5.56598 1.99883 0
M  V30 3523 H 342.332 -0.747163 0.101311 0
M  V30 3524 H 344.983 -1.59357 0.909819 0
M  V30 3525 H 343.365 -3.95234 -0.246263 0
M  V30 3526 H 344.539 -3.79853 2.60861 0
M  V30 3527 H 342.854 -3.5196 2.22515 0
M  V30 3528 H 345.451 -5.34549 0.127099 0
M  V30 3529 H 345.794 -4.04444 -0.986433 0
M  V30 3530 H 346.327 -3.9146 0.707374 0
M  V30 3531 H 343.066 -5.81494 3.02564 0
M  V30 3532 H 342.586 -5.85242 1.31346 0
M  V30 3533 H 344.265 -6.22022 1.78039 0
M  V30 3534 N 344.397 -0.483516 -1.5 0
M  V30 3535 C 345.644 0.0671597 -2.02389 0
M  V30 3536 C 345.972 1.38597 -1.36459 0
M  V30 3537 O 345.227 1.89634 -0.483458 0
M  V30 3538 C 345.526 0.286226 -3.56252 0
M  V30 3539 C 345.192 -0.952416 -4.40726 0
M  V30 3540 C 343.854 -1.29199 -4.63531 0
M  V30 3541 C 346.206 -1.77655 -4.89988 0
M  V30 3542 C 343.534 -2.45553 -5.32842 0
M  V30 3543 C 345.886 -2.93147 -5.60578 0
M  V30 3544 C 344.55 -3.27505 -5.81633 0
M  V30 3545 H 343.82 0.0245755 -0.740592 0
M  V30 3546 H 346.467 -0.640124 -1.80485 0
M  V30 3547 H 344.772 1.07587 -3.76739 0
M  V30 3548 H 346.469 0.726473 -3.94365 0
M  V30 3549 H 343.059 -0.677881 -4.23205 0
M  V30 3550 H 347.243 -1.52737 -4.72213 0
M  V30 3551 H 342.499 -2.72431 -5.47349 0
M  V30 3552 H 346.673 -3.57344 -5.97727 0
M  V30 3553 H 344.3 -4.1777 -6.35116 0
M  V30 3554 N 345.875 1.56104 -0.216619 0
M  V30 3555 C 347.1 2.0301 0.424462 0
M  V30 3556 C 347.525 1.0955 1.52907 0
M  V30 3557 O 346.883 0.0827914 1.81111 0
M  V30 3558 C 346.931 3.4819 0.937883 0
M  V30 3559 O 346.035 3.57865 2.04955 0
M  V30 3560 H 345.376 0.656925 0.0966755 0
M  V30 3561 H 347.906 2.01859 -0.33381 0
M  V30 3562 H 347.916 3.88413 1.24897 0
M  V30 3563 H 346.591 4.15699 0.129387 0
M  V30 3564 H 345.168 3.29527 1.74546 0
M  V30 3565 N 347.353 -0.0568162 1.57498 0
M  V30 3566 C 348.578 -0.769402 1.92601 0
M  V30 3567 C 349.003 -1.69559 0.814336 0
M  V30 3568 O 348.361 -1.79811 -0.231903 0
M  V30 3569 C 348.409 -1.52634 3.26704 0
M  V30 3570 O 347.513 -2.63797 3.16994 0
M  V30 3571 H 346.854 -0.208909 0.63028 0
M  V30 3572 H 349.384 -0.0205798 2.0459 0
M  V30 3573 H 349.394 -1.90234 3.60936 0
M  V30 3574 H 348.069 -0.846875 4.07186 0
M  V30 3575 H 346.646 -2.28943 2.94346 0
M  V30 3576 N 348.832 -1.54138 -0.328536 0
M  V30 3577 C 350.248 -1.44736 -0.672574 0
M  V30 3578 C 350.448 -0.616217 -1.91846 0
M  V30 3579 O 349.504 -0.113067 -2.52247 0
M  V30 3580 C 350.817 -2.884 -0.851217 0
M  V30 3581 C 352.365 -2.98271 -0.948877 0
M  V30 3582 C 352.84 -4.43074 -1.15973 0
M  V30 3583 N 354.331 -4.46665 -1.22658 0
M  V30 3584 C 355.066 -5.55857 -1.40751 0
M  V30 3585 N 354.562 -6.75026 -1.5592 0
M  V30 3586 N 356.355 -5.43495 -1.4342 0
M  V30 3587 H 348.506 -2.06661 0.490421 0
M  V30 3588 H 350.769 -0.934812 0.157579 0
M  V30 3589 H 350.475 -3.51699 -0.00704236 0
M  V30 3590 H 350.349 -3.34225 -1.74853 0
M  V30 3591 H 352.736 -2.35102 -1.78356 0
M  V30 3592 H 352.817 -2.55785 -0.0281435 0
M  V30 3593 H 352.461 -5.06827 -0.329915 0
M  V30 3594 H 352.391 -4.83165 -2.09426 0
M  V30 3595 H 354.882 -3.60797 -1.124 0
M  V30 3596 H 355.195 -7.54004 -1.69404 0
M  V30 3597 H 353.54 -6.77944 -1.53027 0
M  V30 3598 H 356.731 -4.49349 -1.31162 0
M  V30 3599 H 356.904 -6.28649 -1.57178 0
M  V30 3600 N 350.31 0.590341 -1.46126 0
M  V30 3601 C 351.22 1.72793 -1.58681 0
M  V30 3602 C 352.236 1.67516 -0.470566 0
M  V30 3603 O 353.412 1.87562 -0.733642 0
M  V30 3604 C 350.477 3.09287 -1.5666 0
M  V30 3605 C 349.538 3.25886 -2.79458 0
M  V30 3606 C 348.771 4.55869 -2.77524 0
M  V30 3607 O 348.994 5.3928 -1.85832 0
M  V30 3608 O 347.928 4.75552 -3.68964 0
M  V30 3609 H 351.754 1.65149 -2.54872 0
M  V30 3610 H 349.339 0.756486 -1.28832 0
M  V30 3611 H 351.221 3.90577 -1.58202 0
M  V30 3612 H 349.896 3.17385 -0.636271 0
M  V30 3613 H 348.803 2.44119 -2.83472 0
M  V30 3614 H 350.136 3.22675 -3.71674 0
M  V30 3615 N 351.788 1.33704 0.83433 0
M  V30 3616 C 352.698 1.26382 1.97648 0
M  V30 3617 C 353.714 0.173548 1.73132 0
M  V30 3618 O 354.89 0.397962 1.97429 0
M  V30 3619 C 351.955 1.00769 3.31733 0
M  V30 3620 C 351.016 2.1884 3.69334 0
M  V30 3621 C 350.249 1.9444 4.9702 0
M  V30 3622 O 350.472 0.896961 5.63303 0
M  V30 3623 O 349.406 2.81093 5.32231 0
M  V30 3624 H 353.232 2.22444 2.06767 0
M  V30 3625 H 350.817 1.13795 0.968037 0
M  V30 3626 H 352.699 0.882186 4.12062 0
M  V30 3627 H 351.374 0.0773783 3.23608 0
M  V30 3628 H 350.281 2.36946 2.89495 0
M  V30 3629 H 351.614 3.10221 3.82131 0
M  V30 3630 N 353.266 -1.05314 1.17247 0
M  V30 3631 C 354.682 -1.30452 0.919473 0
M  V30 3632 C 354.882 -1.9703 -0.42209 0
M  V30 3633 O 353.938 -2.24311 -1.15935 0
M  V30 3634 C 355.251 -2.17551 2.07586 0
M  V30 3635 C 356.799 -2.30937 2.11275 0
M  V30 3636 C 357.274 -3.21396 3.26296 0
M  V30 3637 N 358.765 -3.28981 3.26076 0
M  V30 3638 C 359.5 -3.99095 4.11716 0
M  V30 3639 N 358.996 -4.71648 5.07465 0
M  V30 3640 N 360.789 -3.95247 3.9967 0
M  V30 3641 H 352.94 -0.604988 2.03602 0
M  V30 3642 H 355.203 -0.329368 0.888944 0
M  V30 3643 H 354.909 -1.75921 3.0454 0
M  V30 3644 H 354.783 -3.18182 2.02584 0
M  V30 3645 H 357.17 -2.71809 1.14907 0
M  V30 3646 H 357.251 -1.2994 2.20339 0
M  V30 3647 H 356.895 -2.81238 4.22927 0
M  V30 3648 H 356.825 -4.22395 3.14467 0
M  V30 3649 H 359.316 -2.77286 2.5675 0
M  V30 3650 H 359.629 -5.22705 5.6921 0
M  V30 3651 H 357.974 -4.70594 5.11435 0
M  V30 3652 H 361.165 -3.37691 3.24164 0
M  V30 3653 H 361.338 -4.4962 4.66632 0
M  V30 3654 N 354.744 -0.972509 -1.24016 0
M  V30 3655 C 355.969 -0.654417 -1.96805 0
M  V30 3656 C 356.394 0.770398 -1.716 0
M  V30 3657 O 355.752 1.52361 -0.982647 0
M  V30 3658 C 355.8 -0.941031 -3.48105 0
M  V30 3659 O 354.904 -0.0289472 -4.1239 0
M  V30 3660 H 354.245 -0.24692 -0.616382 0
M  V30 3661 H 356.775 -1.30396 -1.57664 0
M  V30 3662 H 356.785 -0.87452 -3.98517 0
M  V30 3663 H 355.46 -1.97939 -3.65777 0
M  V30 3664 H 354.037 -0.149192 -3.72601 0
M  V30 3665 N 356.222 1.38976 -0.743202 0
M  V30 3666 C 357.468 2.01114 -0.304109 0
M  V30 3667 C 357.823 1.57929 1.09892 0
M  V30 3668 O 357.116 0.801983 1.74008 0
M  V30 3669 C 357.31 3.55647 -0.353517 0
M  V30 3670 C 357.139 4.13837 -1.75981 0
M  V30 3671 C 355.909 4.46062 -2.37395 0
M  V30 3672 C 358.107 4.36812 -2.71477 0
M  V30 3673 N 356.089 4.898 -3.70093 0
M  V30 3674 C 357.46 4.82844 -3.88923 0
M  V30 3675 C 359.515 4.18893 -2.69134 0
M  V30 3676 C 358.218 5.12837 -5.04371 0
M  V30 3677 C 360.244 4.50005 -3.83731 0
M  V30 3678 C 359.606 4.96251 -4.99914 0
M  V30 3679 H 355.705 0.765931 -0.157716 0
M  V30 3680 H 358.289 1.68763 -0.970931 0
M  V30 3681 H 356.46 3.87368 0.282987 0
M  V30 3682 H 358.192 4.04564 0.104904 0
M  V30 3683 H 354.947 4.34145 -1.89248 0
M  V30 3684 H 355.371 5.16016 -4.38242 0
M  V30 3685 H 360.013 3.82335 -1.80499 0
M  V30 3686 H 357.731 5.48297 -5.9363 0
M  V30 3687 H 361.317 4.37755 -3.83225 0
M  V30 3688 H 360.197 5.19867 -5.87118 0
M  V30 3689 N 357.7 0.491464 1.49741 0
M  V30 3690 C 358.947 -0.0564256 2.02421 0
M  V30 3691 C 359.275 -1.37872 1.37192 0
M  V30 3692 O 358.53 -1.89375 0.493508 0
M  V30 3693 C 358.829 -0.267329 3.56399 0
M  V30 3694 C 358.495 0.975775 4.40215 0
M  V30 3695 C 357.157 1.31655 4.62839 0
M  V30 3696 C 359.509 1.80251 4.89039 0
M  V30 3697 C 356.837 2.48375 5.31532 0
M  V30 3698 C 359.189 2.96116 5.59015 0
M  V30 3699 C 357.853 3.30585 5.79888 0
M  V30 3700 H 357.123 -0.0206476 0.740712 0
M  V30 3701 H 359.77 0.649686 1.80143 0
M  V30 3702 H 358.075 -1.05588 3.77304 0
M  V30 3703 H 359.772 -0.705549 3.94744 0
M  V30 3704 H 356.362 0.700315 4.2284 0
M  V30 3705 H 360.546 1.55239 4.71396 0
M  V30 3706 H 355.802 2.7533 5.45897 0
M  V30 3707 H 359.976 3.60509 5.95824 0
M  V30 3708 H 357.603 4.21132 6.32892 0
M  V30 3709 N 359.178 -1.55987 0.224894 0
M  V30 3710 C 360.594 -1.59066 -0.130426 0
M  V30 3711 C 360.794 -1.24176 -1.5869 0
M  V30 3712 O 359.85 -0.978592 -2.32766 0
M  V30 3713 C 361.163 -3.00042 0.198883 0
M  V30 3714 C 362.711 -3.1268 0.141391 0
M  V30 3715 C 363.186 -4.55839 0.444422 0
M  V30 3716 N 364.677 -4.6152 0.394115 0
M  V30 3717 C 365.412 -5.70231 0.602038 0
M  V30 3718 N 364.908 -6.87291 0.871914 0
M  V30 3719 N 366.701 -5.59555 0.534245 0
M  V30 3720 H 358.852 -1.76941 1.17497 0
M  V30 3721 H 361.115 -0.822604 0.471197 0
M  V30 3722 H 360.821 -3.30234 1.2099 0
M  V30 3723 H 360.695 -3.74075 -0.484535 0
M  V30 3724 H 363.082 -2.82283 -0.860265 0
M  V30 3725 H 363.163 -2.40969 0.858335 0
M  V30 3726 H 362.807 -4.86954 1.44353 0
M  V30 3727 H 362.737 -5.2578 -0.293752 0
M  V30 3728 H 365.228 -3.77405 0.193356 0
M  V30 3729 H 365.541 -7.66058 1.01858 0
M  V30 3730 H 363.886 -6.89028 0.909145 0
M  V30 3731 H 367.077 -4.6698 0.323612 0
M  V30 3732 H 367.25 -6.44211 0.699693 0
M  V30 3733 N 360.656 0.0484629 -1.57525 0
M  V30 3734 C 361.566 1.07241 -2.08654 0
M  V30 3735 C 362.582 1.409 -1.02095 0
M  V30 3736 O 363.758 1.50609 -1.33712 0
M  V30 3737 C 360.823 2.36008 -2.5397 0
M  V30 3738 C 359.884 2.09108 -3.7493 0
M  V30 3739 C 359.117 3.31736 -4.18075 0
M  V30 3740 O 359.34 4.41714 -3.60895 0
M  V30 3741 O 358.274 3.18576 -5.10679 0
M  V30 3742 H 362.1 0.667965 -2.96263 0
M  V30 3743 H 359.685 0.26417 -1.47046 0
M  V30 3744 H 361.567 3.11747 -2.83535 0
M  V30 3745 H 360.242 2.75786 -1.69481 0
M  V30 3746 H 359.149 1.31 -3.50414 0
M  V30 3747 H 360.482 1.74198 -4.60343 0
M  V30 3748 N 362.134 1.5431 0.320358 0
M  V30 3749 C 363.097 1.83195 1.3774 0
M  V30 3750 C 364.097 0.703906 1.44575 0
M  V30 3751 O 365.287 0.972214 1.44546 0
M  V30 3752 C 362.419 1.99487 2.76438 0
M  V30 3753 H 363.612 2.77642 1.1338 0
M  V30 3754 H 361.165 1.46076 0.556012 0
M  V30 3755 H 361.9 1.07262 3.06048 0
M  V30 3756 H 361.685 2.81575 2.7287 0
M  V30 3757 H 363.175 2.23271 3.52902 0
M  V30 3758 N 363.613 -0.582584 1.46437 0
M  V30 3759 C 364.523 -1.71949 1.59595 0
M  V30 3760 C 365.539 -1.67264 0.479443 0
M  V30 3761 O 366.715 -1.87171 0.743579 0
M  V30 3762 C 363.78 -3.08452 1.58298 0
M  V30 3763 C 362.841 -3.244 2.81182 0
M  V30 3764 C 362.074 -4.54391 2.79937 0
M  V30 3765 O 362.297 -5.38287 1.8869 0
M  V30 3766 O 361.231 -4.73588 3.71481 0
M  V30 3767 H 365.057 -1.63795 2.55744 0
M  V30 3768 H 362.642 -0.749643 1.29231 0
M  V30 3769 H 364.524 -3.89732 1.60271 0
M  V30 3770 H 363.199 -3.17043 0.653094 0
M  V30 3771 H 362.106 -2.42613 2.84763 0
M  V30 3772 H 363.439 -3.20699 3.7338 0
M  V30 3773 N 365.091 -1.34144 -0.827227 0
M  V30 3774 C 366.34 -1.25602 -1.5782 0
M  V30 3775 C 366.653 0.173445 -1.94829 0
M  V30 3776 O 367.859 0.380984 -2.68814 0
M  V30 3777 C 366.315 -2.20151 -2.84713 0
M  V30 3778 C 365.923 -3.68331 -2.55021 0
M  V30 3779 C 367.667 -2.20508 -3.62735 0
M  V30 3780 C 365.574 -4.54762 -3.78082 0
M  V30 3781 H 364.504 -0.466573 -0.592306 0
M  V30 3782 H 367.155 -1.59283 -0.911116 0
M  V30 3783 H 365.537 -1.79417 -3.53023 0
M  V30 3784 H 366.711 -4.17577 -1.94849 0
M  V30 3785 H 365.026 -3.7038 -1.90283 0
M  V30 3786 H 367.623 -2.82306 -4.54101 0
M  V30 3787 H 367.966 -1.20322 -3.98533 0
M  V30 3788 H 368.499 -2.59664 -3.01362 0
M  V30 3789 H 365.238 -5.55867 -3.47407 0
M  V30 3790 H 364.758 -4.10254 -4.37552 0
M  V30 3791 H 366.437 -4.69153 -4.45538 0
M  V30 3792 N 366.569 1.04691 -1.17803 0
M  V30 3793 C 367.799 1.81183 -0.992788 0
M  V30 3794 C 368.207 1.8347 0.462098 0
M  V30 3795 O 367.55 1.2643 1.33271 0
M  V30 3796 C 367.612 3.28363 -1.46349 0
M  V30 3797 C 367.276 3.49749 -2.94151 0
M  V30 3798 C 368.273 3.41456 -3.92051 0
M  V30 3799 C 365.958 3.76548 -3.32441 0
M  V30 3800 C 367.952 3.59656 -5.26238 0
M  V30 3801 C 365.639 3.94396 -4.66792 0
M  V30 3802 C 366.637 3.8595 -5.635 0
M  V30 3803 O 366.325 4.03294 -6.9542 0
M  V30 3804 H 366.057 0.577622 -0.351182 0
M  V30 3805 H 368.611 1.32876 -1.5663 0
M  V30 3806 H 366.841 3.77609 -0.833574 0
M  V30 3807 H 368.53 3.86395 -1.24313 0
M  V30 3808 H 369.296 3.20723 -3.63815 0
M  V30 3809 H 365.175 3.82224 -2.57732 0
M  V30 3810 H 368.719 3.52979 -6.01707 0
M  V30 3811 H 364.616 4.14622 -4.94731 0
M  V30 3812 H 365.384 4.2049 -7.02232 0
M  V30 3813 N 368.047 0.979072 1.23499 0
M  V30 3814 C 368.979 0.476271 2.24197 0
M  V30 3815 C 369.992 -0.421166 1.57258 0
M  V30 3816 O 371.181 -0.225515 1.7707 0
M  V30 3817 C 368.281 -0.330503 3.37285 0
M  V30 3818 C 367.454 0.559744 4.33804 0
M  V30 3819 C 366.513 -0.192954 5.25846 0
M  V30 3820 O 365.539 0.416978 5.67671 0
M  V30 3821 N 366.741 -1.47932 5.61334 0
M  V30 3822 H 369.506 1.34211 2.67969 0
M  V30 3823 H 367.067 0.852189 1.37657 0
M  V30 3824 H 369.059 -0.842361 3.95836 0
M  V30 3825 H 367.629 -1.09734 2.92707 0
M  V30 3826 H 366.849 1.25245 3.73775 0
M  V30 3827 H 368.137 1.1665 4.95248 0
M  V30 3828 H 367.535 -1.9964 5.29302 0
M  V30 3829 H 366.092 -1.93664 6.22364 0
M  V30 3830 N 369.525 -1.3858 0.750561 0
M  V30 3831 C 370.753 -2.04471 0.316098 0
M  V30 3832 C 371.168 -1.56606 -1.05452 0
M  V30 3833 O 370.525 -0.737784 -1.66922 0
M  V30 3834 C 370.576 -3.60025 0.326275 0
M  V30 3835 O 370.297 -4.06133 1.6428 0
M  V30 3836 C 371.798 -4.43131 -0.122429 0
M  V30 3837 H 369.018 -0.65717 0.135528 0
M  V30 3838 H 371.562 -1.77329 1.01857 0
M  V30 3839 H 369.717 -3.86014 -0.327431 0
M  V30 3840 H 370.131 -5.00547 1.56693 0
M  V30 3841 H 371.605 -5.51963 -0.0641473 0
M  V30 3842 H 372.082 -4.23333 -1.16988 0
M  V30 3843 H 372.688 -4.22323 0.50229 0
M  V30 3844 N 371.003 -0.499398 -1.49478 0
M  V30 3845 C 372.249 0.0457576 -2.02748 0
M  V30 3846 C 372.582 1.36793 -1.37846 0
M  V30 3847 O 371.857 1.87596 -0.513601 0
M  V30 3848 C 372.14 0.199986 -3.59544 0
M  V30 3849 C 371.993 -1.1452 -4.34977 0
M  V30 3850 C 373.312 0.94137 -4.29914 0
M  V30 3851 H 370.431 0.0151552 -0.736844 0
M  V30 3852 H 373.073 -0.650498 -1.78518 0
M  V30 3853 H 371.223 0.793007 -3.8032 0
M  V30 3854 H 372.895 -1.77697 -4.25701 0
M  V30 3855 H 371.138 -1.73488 -3.97598 0
M  V30 3856 H 371.809 -0.990607 -5.43039 0
M  V30 3857 H 374.285 0.43844 -4.13784 0
M  V30 3858 H 373.161 1.01812 -5.39375 0
M  V30 3859 H 373.422 1.98471 -3.95046 0
M  V30 3860 N 372.481 1.55866 -0.233164 0
M  V30 3861 C 373.414 2.16794 0.712442 0
M  V30 3862 C 374.392 1.1158 1.18273 0
M  V30 3863 O 375.576 1.39897 1.26337 0
M  V30 3864 C 372.703 2.75757 1.96661 0
M  V30 3865 C 371.749 3.93902 1.63533 0
M  V30 3866 S 372.582 5.30223 0.74995 0
M  V30 3867 C 373.738 5.92631 2.01343 0
M  V30 3868 H 373.971 2.96662 0.194617 0
M  V30 3869 H 371.504 1.5439 -0.0177425 0
M  V30 3870 H 373.462 3.10367 2.68668 0
M  V30 3871 H 372.123 1.9586 2.45556 0
M  V30 3872 H 371.316 4.33702 2.56747 0
M  V30 3873 H 370.918 3.60499 0.995804 0
M  V30 3874 H 373.21 6.09312 2.96219 0
M  V30 3875 H 374.153 6.88388 1.65915 0
M  V30 3876 H 374.561 5.21571 2.15925 0
M  V30 3877 N 373.959 -0.0401083 1.57549 0
M  V30 3878 C 374.889 -1.04384 2.08869 0
M  V30 3879 C 375.87 -1.38407 0.988817 0
M  V30 3880 O 377.055 -1.47483 1.26342 0
M  V30 3881 C 374.185 -2.34808 2.55895 0
M  V30 3882 C 373.139 -2.15057 3.70047 0
M  V30 3883 C 372.465 -3.51145 4.03239 0
M  V30 3884 C 373.765 -1.54576 4.98902 0
M  V30 3885 H 375.459 -0.616666 2.92981 0
M  V30 3886 H 373.005 -0.295184 1.40942 0
M  V30 3887 H 374.958 -3.05346 2.90417 0
M  V30 3888 H 373.682 -2.79565 1.68853 0
M  V30 3889 H 372.341 -1.46954 3.35857 0
M  V30 3890 H 371.989 -3.93529 3.13279 0
M  V30 3891 H 371.689 -3.38758 4.80122 0
M  V30 3892 H 373.213 -4.23062 4.40285 0
M  V30 3893 H 374.627 -2.15017 5.31451 0
M  V30 3894 H 373.024 -1.52796 5.80322 0
M  V30 3895 H 374.094 -0.51039 4.82206 0
M  V30 3896 N 375.437 -1.54477 -0.31217 0
M  V30 3897 C 376.853 -1.45442 -0.657185 0
M  V30 3898 C 377.053 -0.63653 -1.91182 0
M  V30 3899 O 376.109 -0.139815 -2.52113 0
M  V30 3900 C 377.422 -2.89287 -0.82058 0
M  V30 3901 C 378.97 -2.9926 -0.917188 0
M  V30 3902 C 379.445 -4.44279 -1.11267 0
M  V30 3903 N 380.936 -4.4794 -1.17914 0
M  V30 3904 C 381.671 -5.57318 -1.34848 0
M  V30 3905 N 381.167 -6.76642 -1.48752 0
M  V30 3906 N 382.96 -5.44986 -1.37647 0
M  V30 3907 H 375.111 -2.06129 0.512313 0
M  V30 3908 H 377.374 -0.933088 0.167485 0
M  V30 3909 H 377.08 -3.51687 0.0302604 0
M  V30 3910 H 376.954 -3.36061 -1.71298 0
M  V30 3911 H 379.341 -2.36981 -1.75852 0
M  V30 3912 H 379.422 -2.558 -0.00101257 0
M  V30 3913 H 379.066 -5.07149 -0.27614 0
M  V30 3914 H 378.996 -4.85359 -2.04289 0
M  V30 3915 H 381.487 -3.61969 -1.08567 0
M  V30 3916 H 381.8 -7.55758 -1.61397 0
M  V30 3917 H 380.145 -6.79529 -1.45828 0
M  V30 3918 H 383.336 -4.50715 -1.26388 0
M  V30 3919 H 383.509 -6.3028 -1.50501 0
M  V30 3920 N 376.915 0.57481 -1.46744 0
M  V30 3921 C 377.865 1.67838 -1.54319 0
M  V30 3922 C 378.849 1.55759 -0.40346 0
M  V30 3923 O 380.041 1.6454 -0.652347 0
M  V30 3924 C 377.17 3.06624 -1.5439 0
M  V30 3925 C 376.256 3.23971 -2.73685 0
M  V30 3926 N 376.647 3.11447 -3.9854 0
M  V30 3927 C 374.945 3.5493 -2.70075 0
M  V30 3928 C 375.646 3.31011 -4.78337 0
M  V30 3929 N 374.622 3.56533 -4.10348 0
M  V30 3930 H 378.424 1.56698 -2.48642 0
M  V30 3931 H 375.938 0.779071 -1.42493 0
M  V30 3932 H 377.935 3.85839 -1.57905 0
M  V30 3933 H 376.595 3.1889 -0.611493 0
M  V30 3934 H 377.606 2.89145 -4.29669 0
M  V30 3935 H 374.283 3.73832 -1.85893 0
M  V30 3936 H 375.673 3.26445 -5.87268 0
M  V30 3937 N 378.394 1.34581 0.820102 0
M  V30 3938 C 379.304 1.28471 1.96297 0
M  V30 3939 C 380.32 0.191902 1.72939 0
M  V30 3940 O 381.496 0.418879 1.96996 0
M  V30 3941 C 378.561 1.04281 3.30645 0
M  V30 3942 C 377.622 2.22745 3.66992 0
M  V30 3943 C 376.855 1.997 4.9493 0
M  V30 3944 O 377.078 0.956656 5.6232 0
M  V30 3945 O 376.012 2.86723 5.2922 0
M  V30 3946 H 379.838 2.24624 2.04396 0
M  V30 3947 H 377.423 1.14816 0.955913 0
M  V30 3948 H 379.305 0.925841 4.11104 0
M  V30 3949 H 377.98 0.111697 3.23507 0
M  V30 3950 H 376.887 2.40003 2.86966 0
M  V30 3951 H 378.22 3.14257 3.78819 0
M  V30 3952 N 379.872 -1.04064 1.18357 0
M  V30 3953 C 380.82 -2.14187 0.907007 0
M  V30 3954 C 381.814 -1.68879 -0.132725 0
M  V30 3955 O 383.02 -1.79993 0.0154248 0
M  V30 3956 H 379.395 -0.699585 0.275835 0
M  V30 3957 H 381.366 -2.34711 1.84264 0
M  V30 3958 C 380.115 -3.44785 0.449254 0
M  V30 3959 H 379.438 -3.80058 1.24081 0
M  V30 3960 H 380.878 -4.22974 0.294737 0
M  V30 3961 C 379.337 -3.26391 -0.834909 0
M  V30 3962 O 379.867 -3.53973 -1.89911 0
M  V30 3963 N 378.073 -2.79726 -0.787523 0
M  V30 3964 H 377.62 -2.5748 0.0787347 0
M  V30 3965 H 377.578 -2.67798 -1.64716 0
M  V30 3966 N 381.35 -0.985608 -1.22978 0
M  V30 3967 C 382.599 -0.652881 -1.90841 0
M  V30 3968 C 382.912 0.817842 -1.77681 0
M  V30 3969 O 384.118 1.26185 -2.40395 0
M  V30 3970 C 382.574 -1.11717 -3.42122 0
M  V30 3971 C 382.182 -2.6126 -3.63933 0
M  V30 3972 C 383.926 -0.85843 -4.1573 0
M  V30 3973 C 381.833 -3.0133 -5.08876 0
M  V30 3974 H 380.763 -0.240491 -0.714619 0
M  V30 3975 H 383.414 -1.1942 -1.39324 0
M  V30 3976 H 381.796 -0.504027 -3.92779 0
M  V30 3977 H 382.97 -3.27858 -3.23799 0
M  V30 3978 H 381.285 -2.84937 -3.03644 0
M  V30 3979 H 383.882 -1.13359 -5.22546 0
M  V30 3980 H 384.225 0.205461 -4.15793 0
M  V30 3981 H 384.758 -1.43341 -3.71077 0
M  V30 3982 H 381.497 -4.06864 -5.13947 0
M  V30 3983 H 381.017 -2.3943 -5.49939 0
M  V30 3984 H 382.696 -2.92224 -5.77247 0
M  V30 3985 N 382.828 1.3818 -0.7579 0
M  V30 3986 C 383.758 2.33027 -0.148597 0
M  V30 3987 C 384.739 1.55085 0.69875 0
M  V30 3988 O 385.924 1.83384 0.639053 0
M  V30 3989 C 383.054 3.3928 0.742034 0
M  V30 3990 C 382.008 4.28 -0.00291946 0
M  V30 3991 C 381.334 5.25146 1.00625 0
M  V30 3992 C 382.634 5.08938 -1.17385 0
M  V30 3993 H 384.328 2.84231 -0.940909 0
M  V30 3994 H 381.874 1.36659 -0.453908 0
M  V30 3995 H 383.827 4.046 1.17799 0
M  V30 3996 H 382.551 2.86569 1.56671 0
M  V30 3997 H 381.21 3.64192 -0.419504 0
M  V30 3998 H 380.858 4.68721 1.8251 0
M  V30 3999 H 380.558 5.85361 0.512428 0
M  V30 4000 H 382.082 5.93342 1.44143 0
M  V30 4001 H 383.496 5.67474 -0.815224 0
M  V30 4002 H 381.893 5.7841 -1.59882 0
M  V30 4003 H 382.963 4.42424 -1.98468 0
M  V30 4004 N 384.306 0.507319 1.49211 0
M  V30 4005 C 385.554 -0.0348839 2.0207 0
M  V30 4006 C 385.875 -1.36898 1.38866 0
M  V30 4007 O 385.145 -1.88133 0.546151 0
M  V30 4008 H 383.725 -0.0158812 0.746831 0
M  V30 4009 H 386.387 0.665998 1.83168 0
M  V30 4010 H 385.483 -0.159917 3.1169 0
M  V30 4011 N 385.784 -1.5574 0.241426 0
M  V30 4012 C 387.031 -1.9881 -0.384836 0
M  V30 4013 C 387.359 -1.12947 -1.58346 0
M  V30 4014 O 386.614 -0.178993 -1.9488 0
M  V30 4015 C 386.913 -3.47308 -0.843317 0
M  V30 4016 C 386.579 -4.50223 0.246946 0
M  V30 4017 C 385.241 -4.78088 0.546399 0
M  V30 4018 C 387.593 -5.11841 0.983282 0
M  V30 4019 C 384.921 -5.64846 1.58636 0
M  V30 4020 C 387.273 -5.99727 2.01272 0
M  V30 4021 C 385.937 -6.25927 2.31888 0
M  V30 4022 H 385.207 -0.727496 -0.140821 0
M  V30 4023 H 387.854 -1.8831 0.348106 0
M  V30 4024 H 386.159 -3.55112 -1.65537 0
M  V30 4025 H 387.856 -3.78017 -1.33806 0
M  V30 4026 H 384.446 -4.286 0.00340639 0
M  V30 4027 H 388.63 -4.90366 0.765182 0
M  V30 4028 H 383.886 -5.83403 1.82896 0
M  V30 4029 H 388.06 -6.46517 2.58823 0
M  V30 4030 H 385.687 -6.92949 3.12611 0
M  V30 4031 N 387.262 0.0317525 -1.57568 0
M  V30 4032 C 388.511 0.722131 -1.8833 0
M  V30 4033 C 388.824 1.76664 -0.839587 0
M  V30 4034 O 390.03 2.50942 -1.03635 0
M  V30 4035 C 388.486 1.33544 -3.34207 0
M  V30 4036 C 388.094 0.327415 -4.46802 0
M  V30 4037 C 389.838 2.00585 -3.7412 0
M  V30 4038 C 387.745 0.948915 -5.83738 0
M  V30 4039 H 386.675 0.273466 -0.702661 0
M  V30 4040 H 389.326 -0.0235811 -1.83485 0
M  V30 4041 H 387.708 2.13077 -3.33788 0
M  V30 4042 H 388.882 -0.441006 -4.58685 0
M  V30 4043 H 387.197 -0.240758 -4.15703 0
M  V30 4044 H 389.794 2.47932 -4.73744 0
M  V30 4045 H 390.137 2.82285 -3.05975 0
M  V30 4046 H 390.67 1.27831 -3.76702 0
M  V30 4047 H 387.409 0.171387 -6.55276 0
M  V30 4048 H 386.929 1.68724 -5.7558 0
M  V30 4049 H 388.608 1.45705 -6.3038 0
M  V30 4050 N 388.74 1.54641 0.303973 0
M  V30 4051 C 389.703 1.84646 1.35789 0
M  V30 4052 C 390.703 0.7192 1.4382 0
M  V30 4053 O 391.893 0.987491 1.43507 0
M  V30 4054 C 389.025 2.02407 2.74307 0
M  V30 4055 H 390.218 2.78829 1.10429 0
M  V30 4056 H 387.771 1.46658 0.540487 0
M  V30 4057 H 388.506 1.10502 3.04893 0
M  V30 4058 H 388.291 2.84453 2.69868 0
M  V30 4059 H 389.781 2.27002 3.50514 0
M  V30 4060 N 390.218 -0.567019 1.47046 0
M  V30 4061 C 391.181 -1.65696 1.58359 0
M  V30 4062 C 392.181 -1.54097 0.459441 0
M  V30 4063 O 393.371 -1.58432 0.724225 0
M  V30 4064 C 390.503 -3.05197 1.51879 0
M  V30 4065 H 391.696 -1.57019 2.5551 0
M  V30 4066 H 389.249 -0.786148 1.3509 0
M  V30 4067 H 389.984 -3.19417 0.560673 0
M  V30 4068 H 389.769 -3.15025 2.33455 0
M  V30 4069 H 391.259 -3.84511 1.62913 0
M  V30 4070 N 391.696 -1.35014 -0.812953 0
M  V30 4071 C 392.973 -1.18502 -1.55617 0
M  V30 4072 C 393.353 0.238421 -2.09749 0
M  V30 4073 O 392.701 1.2411 -1.91857 0
M  V30 4074 C 392.911 -2.24783 -2.66971 0
M  V30 4075 C 394.259 -2.60268 -3.35478 0
M  V30 4076 O 395.283 -2.23648 -2.77236 0
M  V30 4077 O 394.142 -3.2321 -4.40678 0
M  V30 4078 H 391.236 -0.459984 -0.687272 0
M  V30 4079 H 393.782 -1.46677 -0.853464 0
M  V30 4080 H 392.554 -3.20284 -2.24798 0
M  V30 4081 H 392.177 -1.97841 -3.44884 0
M  V30 4082 N 393.175 1.03435 -1.18907 0
M  V30 4083 C 394.123 2.13703 -0.918353 0
M  V30 4084 C 395.117 1.68947 0.123767 0
M  V30 4085 O 396.323 1.79983 -0.0249701 0
M  V30 4086 H 392.698 0.698112 -0.279542 0
M  V30 4087 H 394.669 2.33731 -1.85506 0
M  V30 4088 C 393.418 3.44542 -0.467532 0
M  V30 4089 H 392.741 3.79394 -1.26095 0
M  V30 4090 H 394.181 4.22812 -0.317164 0
M  V30 4091 C 392.64 3.26829 0.817588 0
M  V30 4092 O 393.17 3.54975 1.88031 0
M  V30 4093 N 391.376 2.80139 0.772677 0
M  V30 4094 H 390.923 2.57434 -0.0923883 0
M  V30 4095 H 390.881 2.68668 1.63294 0
M  V30 4096 N 394.653 0.992116 1.22453 0
M  V30 4097 C 395.6 0.541731 2.24352 0
M  V30 4098 C 396.57 -0.425519 1.60557 0
M  V30 4099 O 397.755 -0.330453 1.87917 0
M  V30 4100 C 394.895 -0.138248 3.44823 0
M  V30 4101 C 394.008 0.870649 4.23136 0
M  V30 4102 C 393.143 0.164269 5.30946 0
M  V30 4103 C 392.182 1.16159 6.00977 0
M  V30 4104 N 391.319 0.483568 7.00433 0
M  V30 4105 H 396.159 1.41541 2.62241 0
M  V30 4106 H 393.696 0.709013 1.28885 0
M  V30 4107 H 395.654 -0.5494 4.13567 0
M  V30 4108 H 394.284 -0.975721 3.077 0
M  V30 4109 H 393.336 1.40013 3.53696 0
M  V30 4110 H 394.648 1.63014 4.7141 0
M  V30 4111 H 393.802 -0.303653 6.0594 0
M  V30 4112 H 392.541 -0.627733 4.83643 0
M  V30 4113 H 391.546 1.64015 5.24766 0
M  V30 4114 H 392.771 1.95445 6.50368 0
M  V30 4115 H 390.717 -0.289012 6.55363 0
M  V30 4116 H 390.634 1.18152 7.4671 0
M  V30 4117 H 391.902 0.0384219 7.79491 0
M  V30 4118 N 396.131 -1.37776 0.765217 0
M  V30 4119 C 397.408 -1.93975 0.251596 0
M  V30 4120 C 397.788 -1.69949 -1.25222 0
M  V30 4121 O 397.136 -1.04457 -2.03226 0
M  V30 4122 C 397.346 -3.43487 0.617895 0
M  V30 4123 C 398.694 -4.20564 0.584029 0
M  V30 4124 O 399.718 -3.5182 0.556888 0
M  V30 4125 O 398.577 -5.43138 0.605291 0
M  V30 4126 H 395.671 -0.82509 0.0561806 0
M  V30 4127 H 398.217 -1.47101 0.846128 0
M  V30 4128 H 396.989 -3.5453 1.65602 0
M  V30 4129 H 396.612 -3.976 -0.00403411 0
M  V30 4130 N 397.609 -0.515225 -1.4894 0
M  V30 4131 C 398.557 0.269115 -2.31038 0
M  V30 4132 C 399.551 0.949443 -1.40292 0
M  V30 4133 O 400.757 0.87551 -1.57273 0
M  V30 4134 H 397.132 0.10565 -0.744542 0
M  V30 4135 H 399.103 -0.443096 -2.95092 0
M  V30 4136 C 397.852 1.31213 -3.21991 0
M  V30 4137 H 397.175 0.798034 -3.91754 0
M  V30 4138 H 398.615 1.83263 -3.82349 0
M  V30 4139 C 397.074 2.33791 -2.42576 0
M  V30 4140 O 397.604 3.3995 -2.14003 0
M  V30 4141 N 395.81 2.06625 -2.0434 0
M  V30 4142 H 395.357 1.20314 -2.27777 0
M  V30 4143 H 395.315 2.75483 -1.51514 0
M  V30 4144 N 399.087 1.5561 -0.249682 0
M  V30 4145 C 400.335 1.98618 0.373548 0
M  V30 4146 C 400.656 1.13919 1.58264 0
M  V30 4147 O 399.926 0.222637 1.94631 0
M  V30 4148 H 398.506 0.733571 0.141006 0
M  V30 4149 H 401.168 1.91748 -0.349117 0
M  V30 4150 H 400.264 3.04584 0.680796 0
M  V30 4151 N 400.565 -0.0233959 1.57583 0
M  V30 4152 C 401.793 -0.724682 1.93794 0
M  V30 4153 C 402.208 -1.68588 0.849912 0
M  V30 4154 O 401.565 -1.81676 -0.173204 0
M  V30 4155 C 401.616 -1.47684 3.29957 0
M  V30 4156 O 401.337 -0.554222 4.3458 0
M  V30 4157 C 402.838 -2.27477 3.80485 0
M  V30 4158 H 400.058 -0.203317 0.639455 0
M  V30 4159 H 402.602 0.0207653 2.04489 0
M  V30 4160 H 400.757 -2.17412 3.20641 0
M  V30 4161 H 401.171 -1.08232 5.13212 0
M  V30 4162 H 402.645 -2.7564 4.78254 0
M  V30 4163 H 403.122 -3.09144 3.11972 0
M  V30 4164 H 403.728 -1.62813 3.92902 0
M  V30 4165 N 402.043 -1.548 -0.295768 0
M  V30 4166 C 403.289 -1.75517 -1.02789 0
M  V30 4167 C 403.644 -0.537266 -1.84746 0
M  V30 4168 O 402.937 0.470299 -1.85738 0
M  V30 4169 C 403.131 -2.98797 -1.961 0
M  V30 4170 C 402.96 -4.3246 -1.23321 0
M  V30 4171 C 401.73 -4.96131 -0.95822 0
M  V30 4172 C 403.928 -5.10365 -0.635024 0
M  V30 4173 N 401.91 -6.1357 -0.201257 0
M  V30 4174 C 403.281 -6.19999 -0.0110937 0
M  V30 4175 C 405.336 -4.94957 -0.540594 0
M  V30 4176 C 404.039 -7.15904 0.698136 0
M  V30 4177 C 406.065 -5.91197 0.154992 0
M  V30 4178 C 405.427 -7.00203 0.767752 0
M  V30 4179 H 401.526 -0.694786 -0.358882 0
M  V30 4180 H 404.11 -1.92281 -0.305943 0
M  V30 4181 H 402.281 -2.83448 -2.6554 0
M  V30 4182 H 404.013 -3.08017 -2.62502 0
M  V30 4183 H 400.768 -4.56595 -1.25771 0
M  V30 4184 H 401.192 -6.76802 0.16389 0
M  V30 4185 H 405.834 -4.10803 -1.00003 0
M  V30 4186 H 403.552 -7.99595 1.16933 0
M  V30 4187 H 407.138 -5.81353 0.228069 0
M  V30 4188 H 406.018 -7.73393 1.29743 0
M  V30 4189 N 403.521 0.559213 -1.47345 0
M  V30 4190 C 404.749 1.34194 -1.57479 0
M  V30 4191 C 405.164 1.87463 -0.224261 0
M  V30 4192 O 404.521 1.64888 0.782185 0
M  V30 4193 C 404.572 2.51324 -2.59843 0
M  V30 4194 O 404.293 2.00256 -3.89653 0
M  V30 4195 C 405.794 3.43563 -2.80142 0
M  V30 4196 H 403.014 0.409136 -0.531835 0
M  V30 4197 H 405.558 0.677609 -1.92947 0
M  V30 4198 H 403.713 3.13699 -2.27314 0
M  V30 4199 H 404.127 2.76708 -4.4557 0
M  V30 4200 H 405.601 4.2217 -3.55635 0
M  V30 4201 H 406.078 3.9698 -1.87892 0
M  V30 4202 H 406.684 2.87005 -3.1386 0
M  V30 4203 N 404.999 1.35443 0.805782 0
M  V30 4204 C 405.931 1.24285 1.92577 0
M  V30 4205 C 406.944 0.165962 1.61952 0
M  V30 4206 O 408.133 0.419303 1.73505 0
M  V30 4207 C 405.233 0.891272 3.2697 0
M  V30 4208 C 404.406 2.06669 3.85495 0
M  V30 4209 C 403.465 1.69077 4.98297 0
M  V30 4210 O 402.491 2.4096 5.15681 0
M  V30 4211 N 403.693 0.614869 5.77234 0
M  V30 4212 H 406.458 2.20777 2.02676 0
M  V30 4213 H 404.019 1.28623 0.983243 0
M  V30 4214 H 406.011 0.621256 3.99903 0
M  V30 4215 H 404.581 0.016004 3.12596 0
M  V30 4216 H 403.801 2.50046 3.04747 0
M  V30 4217 H 405.089 2.85237 4.21328 0
M  V30 4218 H 404.487 0.017648 5.65697 0
M  V30 4219 H 403.044 0.404636 6.50543 0
M  V30 4220 N 406.477 -1.02803 1.19454 0
M  V30 4221 C 407.407 -2.12999 0.956758 0
M  V30 4222 C 408.388 -1.69743 -0.110188 0
M  V30 4223 O 409.573 -1.94148 0.0450038 0
M  V30 4224 C 406.703 -3.43746 0.495553 0
M  V30 4225 C 405.657 -4.00688 1.50443 0
M  V30 4226 C 404.983 -5.27067 0.900275 0
M  V30 4227 C 406.283 -4.35397 2.8849 0
M  V30 4228 H 407.977 -2.33148 1.87836 0
M  V30 4229 H 405.523 -1.12045 0.904539 0
M  V30 4230 H 407.476 -4.2021 0.316493 0
M  V30 4231 H 406.2 -3.23321 -0.461646 0
M  V30 4232 H 404.859 -3.2632 1.67065 0
M  V30 4233 H 404.507 -5.02959 -0.064503 0
M  V30 4234 H 404.207 -5.66127 1.57397 0
M  V30 4235 H 405.731 -6.06196 0.73203 0
M  V30 4236 H 407.145 -5.02795 2.75446 0
M  V30 4237 H 405.542 -4.85541 3.52661 0
M  V30 4238 H 406.612 -3.44662 3.41081 0
M  V30 4239 N 407.956 -0.998596 -1.21925 0
M  V30 4240 C 409.202 -0.688337 -1.91399 0
M  V30 4241 C 409.557 0.771805 -1.76241 0
M  V30 4242 O 408.85 1.55153 -1.1242 0
M  V30 4243 C 409.044 -1.03648 -3.42041 0
M  V30 4244 C 408.873 -2.52892 -3.71855 0
M  V30 4245 C 407.643 -3.19389 -3.91559 0
M  V30 4246 C 409.841 -3.5103 -3.75875 0
M  V30 4247 N 407.823 -4.5805 -4.08734 0
M  V30 4248 C 409.194 -4.75174 -3.98259 0
M  V30 4249 C 411.249 -3.45257 -3.58751 0
M  V30 4250 C 409.952 -5.94247 -4.05294 0
M  V30 4251 C 411.978 -4.63712 -3.67049 0
M  V30 4252 C 411.34 -5.86658 -3.89887 0
M  V30 4253 H 407.439 -0.303251 -0.720807 0
M  V30 4254 H 410.023 -1.27977 -1.46731 0
M  V30 4255 H 408.194 -0.473569 -3.85502 0
M  V30 4256 H 409.926 -0.681619 -3.98919 0
M  V30 4257 H 406.681 -2.69846 -3.89205 0
M  V30 4258 H 407.105 -5.29989 -4.21237 0
M  V30 4259 H 411.747 -2.51215 -3.40075 0
M  V30 4260 H 409.465 -6.88687 -4.22772 0
M  V30 4261 H 413.051 -4.6084 -3.5513 0
M  V30 4262 H 411.931 -6.76786 -3.96144 0
M  V30 4263 N 409.434 1.37368 -0.772513 0
M  V30 4264 C 410.364 2.32856 -0.173304 0
M  V30 4265 C 411.345 1.55818 0.682262 0
M  V30 4266 O 412.53 1.84052 0.619566 0
M  V30 4267 C 409.66 3.40048 0.706007 0
M  V30 4268 C 408.614 4.27973 -0.0483144 0
M  V30 4269 C 407.94 5.26184 0.950491 0
M  V30 4270 C 409.24 5.07665 -1.22776 0
M  V30 4271 H 410.934 2.83217 -0.971002 0
M  V30 4272 H 408.48 1.3617 -0.468377 0
M  V30 4273 H 410.433 4.05827 1.13501 0
M  V30 4274 H 409.157 2.88214 1.53623 0
M  V30 4275 H 407.816 3.63726 -0.458107 0
M  V30 4276 H 407.464 4.7063 1.77529 0
M  V30 4277 H 407.164 5.85872 0.450314 0
M  V30 4278 H 408.688 5.94838 1.37842 0
M  V30 4279 H 410.102 5.66578 -0.875366 0
M  V30 4280 H 408.499 5.76681 -1.66007 0
M  V30 4281 H 409.569 4.40294 -2.03149 0
M  V30 4282 N 410.912 0.523116 1.48665 0
M  V30 4283 C 412.158 -0.0134963 2.02796 0
M  V30 4284 C 412.491 -1.34582 1.40004 0
M  V30 4285 O 411.766 -1.86756 0.543381 0
M  V30 4286 C 412.049 -0.14276 3.59817 0
M  V30 4287 C 411.902 1.21425 4.331 0
M  V30 4288 C 413.221 -0.872856 4.31357 0
M  V30 4289 H 410.34 -0.00343074 0.736992 0
M  V30 4290 H 412.982 0.678816 1.7746 0
M  V30 4291 H 411.132 -0.732401 3.81534 0
M  V30 4292 H 412.804 1.84447 4.2282 0
M  V30 4293 H 411.047 1.79791 3.94788 0
M  V30 4294 H 411.718 1.07687 5.41394 0
M  V30 4295 H 414.194 -0.372555 4.14429 0
M  V30 4296 H 413.07 -0.932185 5.40927 0
M  V30 4297 H 413.331 -1.92161 3.98154 0
M  V30 4298 N 412.39 -1.55475 0.257931 0
M  V30 4299 C 413.615 -2.04064 -0.370488 0
M  V30 4300 C 414.04 -1.13565 -1.49948 0
M  V30 4301 O 413.398 -0.130781 -1.80828 0
M  V30 4302 C 413.446 -3.50554 -0.845237 0
M  V30 4303 O 412.55 -3.63173 -1.95394 0
M  V30 4304 H 411.891 -0.659257 -0.0792243 0
M  V30 4305 H 414.421 -2.00903 0.387212 0
M  V30 4306 H 414.431 -3.91588 -1.14555 0
M  V30 4307 H 413.106 -4.15896 -0.0191259 0
M  V30 4308 H 411.683 -3.34039 -1.65748 0
M  V30 4309 N 413.868 0.0150385 -1.57593 0
M  V30 4310 C 415.145 0.7392 -1.81094 0
M  V30 4311 C 415.525 1.92817 -0.859344 0
M  V30 4312 O 414.873 2.28301 0.095362 0
M  V30 4313 C 415.083 1.15907 -3.29191 0
M  V30 4314 C 416.431 1.56918 -3.9454 0
M  V30 4315 O 417.455 1.25328 -3.33424 0
M  V30 4316 O 416.314 2.15604 -5.02173 0
M  V30 4317 H 413.408 0.358631 -0.745193 0
M  V30 4318 H 415.954 -0.00926156 -1.69697 0
M  V30 4319 H 414.726 0.310921 -3.90063 0
M  V30 4320 H 414.349 1.96711 -3.45529 0
M  V30 4321 N 415.346 1.54954 0.287554 0
M  V30 4322 C 416.576 1.78622 1.03816 0
M  V30 4323 C 416.984 0.552451 1.80955 0
M  V30 4324 O 416.327 -0.487665 1.77109 0
M  V30 4325 C 416.389 2.94975 2.055 0
M  V30 4326 C 416.053 4.32565 1.47433 0
M  V30 4327 C 417.05 5.12096 0.897436 0
M  V30 4328 C 414.735 4.79195 1.50591 0
M  V30 4329 C 416.729 6.36383 0.359851 0
M  V30 4330 C 414.416 6.03441 0.964459 0
M  V30 4331 C 415.414 6.81872 0.392413 0
M  V30 4332 O 415.102 8.03777 -0.140788 0
M  V30 4333 H 414.834 0.599144 0.313053 0
M  V30 4334 H 417.388 2.02761 0.328225 0
M  V30 4335 H 415.618 2.66493 2.80211 0
M  V30 4336 H 417.307 3.06097 2.6657 0
M  V30 4337 H 418.073 4.77209 0.865841 0
M  V30 4338 H 413.952 4.18167 1.94055 0
M  V30 4339 H 417.496 6.97545 -0.0872951 0
M  V30 4340 H 413.393 6.37813 0.993246 0
M  V30 4341 H 414.161 8.18495 -0.0287617 0
M  V30 4342 N 416.824 -0.551391 1.4764 0
M  V30 4343 C 417.774 -1.65362 1.56969 0
M  V30 4344 C 418.758 -1.55098 0.428189 0
M  V30 4345 O 419.95 -1.63481 0.678441 0
M  V30 4346 C 417.079 -3.04129 1.59249 0
M  V30 4347 C 416.165 -3.19576 2.78804 0
M  V30 4348 N 416.556 -3.05067 4.03445 0
M  V30 4349 C 414.854 -3.50588 2.75688 0
M  V30 4350 C 415.555 -3.2336 4.83543 0
M  V30 4351 N 414.531 -3.4996 4.15968 0
M  V30 4352 H 418.333 -1.52722 2.51104 0
M  V30 4353 H 415.847 -0.756303 1.43714 0
M  V30 4354 H 417.844 -3.83278 1.64024 0
M  V30 4355 H 416.504 -3.17877 0.662148 0
M  V30 4356 H 417.515 -2.82273 4.34215 0
M  V30 4357 H 414.192 -3.70827 1.91817 0
M  V30 4358 H 415.582 -3.17061 5.92387 0
M  V30 4359 N 418.302 -1.35869 -0.798587 0
M  V30 4360 C 419.212 -1.31578 -1.94228 0
M  V30 4361 C 420.228 -0.21939 -1.72611 0
M  V30 4362 O 421.404 -0.450167 -1.96305 0
M  V30 4363 C 418.469 -1.09528 -3.28944 0
M  V30 4364 C 417.53 -2.28556 -3.63402 0
M  V30 4365 C 416.763 -2.07549 -4.9169 0
M  V30 4366 O 416.986 -1.046 -5.60727 0
M  V30 4367 O 415.92 -2.95106 -5.24591 0
M  V30 4368 H 419.746 -2.27847 -2.00796 0
M  V30 4369 H 417.331 -1.16322 -0.937526 0
M  V30 4370 H 419.213 -0.991127 -4.09579 0
M  V30 4371 H 417.888 -0.16315 -3.23289 0
M  V30 4372 H 416.795 -2.44538 -2.83112 0
M  V30 4373 H 418.128 -3.20244 -3.73771 0
M  V30 4374 N 419.78 1.02168 -1.19998 0
M  V30 4375 C 420.73 2.08969 -0.911921 0
M  V30 4376 C 421.714 1.60404 0.12621 0
M  V30 4377 O 422.906 1.76817 -0.0804706 0
M  V30 4378 C 420.035 3.402 -0.460277 0
M  V30 4379 C 419.121 3.9548 -1.53155 0
M  V30 4380 N 419.512 4.24332 -2.75275 0
M  V30 4381 C 417.81 4.23572 -1.39653 0
M  V30 4382 C 418.511 4.68834 -3.44339 0
M  V30 4383 N 417.487 4.70804 -2.71744 0
M  V30 4384 H 421.289 2.29178 -1.83997 0
M  V30 4385 H 418.803 1.20094 -1.09322 0
M  V30 4386 H 420.8 4.16235 -0.235337 0
M  V30 4387 H 419.46 3.21408 0.4612 0
M  V30 4388 H 420.471 4.13393 -3.11973 0
M  V30 4389 H 417.148 4.14005 -0.539067 0
M  V30 4390 H 418.538 5.00019 -4.4881 0
M  V30 4391 N 421.258 1.00505 1.21394 0
M  V30 4392 C 422.506 0.686415 1.90086 0
M  V30 4393 C 422.827 -0.785264 1.7849 0
M  V30 4394 O 422.097 -1.56387 1.17983 0
M  V30 4395 H 420.677 0.2509 0.703604 0
M  V30 4396 H 423.339 1.27417 1.47482 0
M  V30 4397 H 422.435 0.959621 2.96981 0
M  V30 4398 N 422.737 -1.36956 0.779787 0
M  V30 4399 C 423.962 -2.04283 0.358224 0
M  V30 4400 C 424.387 -1.58422 -1.01411 0
M  V30 4401 O 423.745 -0.748179 -1.65142 0
M  V30 4402 C 423.793 -3.58152 0.419479 0
M  V30 4403 O 422.897 -4.08342 -0.577142 0
M  V30 4404 H 422.238 -0.645967 0.153698 0
M  V30 4405 H 424.768 -1.75108 1.05822 0
M  V30 4406 H 424.778 -4.07041 0.279636 0
M  V30 4407 H 423.453 -3.90886 1.42061 0
M  V30 4408 H 422.03 -3.70751 -0.399755 0
M  V30 4409 N 424.215 -0.530993 -1.48385 0
M  V30 4410 C 425.145 0.219985 -2.32461 0
M  V30 4411 C 426.126 0.934111 -1.42156 0
M  V30 4412 O 427.311 0.919694 -1.71042 0
M  V30 4413 C 424.441 1.26674 -3.23375 0
M  V30 4414 C 423.395 0.67069 -4.22712 0
M  V30 4415 C 422.721 1.82017 -5.02766 0
M  V30 4416 C 424.021 -0.358268 -5.2107 0
M  V30 4417 H 425.715 -0.48187 -2.95497 0
M  V30 4418 H 423.261 -0.233182 -1.42099 0
M  V30 4419 H 425.214 1.80006 -3.81019 0
M  V30 4420 H 423.938 1.99818 -2.58341 0
M  V30 4421 H 422.597 0.158878 -3.66256 0
M  V30 4422 H 422.245 2.54002 -4.34157 0
M  V30 4423 H 421.945 1.42727 -5.70003 0
M  V30 4424 H 423.469 2.35725 -5.63264 0
M  V30 4425 H 424.883 0.0880081 -5.73232 0
M  V30 4426 H 423.28 -0.66861 -5.96364 0
M  V30 4427 H 424.35 -1.26367 -4.68145 0
M  V30 4428 N 425.693 1.55336 -0.266172 0
M  V30 4429 C 426.94 1.99397 0.353158 0
M  V30 4430 C 427.268 1.15451 1.56529 0
M  V30 4431 O 426.523 0.209974 1.9457 0
M  V30 4432 C 426.822 3.48606 0.787957 0
M  V30 4433 C 426.488 4.49773 -0.318541 0
M  V30 4434 C 425.15 4.77158 -0.62239 0
M  V30 4435 C 427.502 5.10212 -1.06459 0
M  V30 4436 C 424.83 5.62251 -1.67602 0
M  V30 4437 C 427.182 5.96449 -2.10788 0
M  V30 4438 C 425.846 6.22158 -2.41817 0
M  V30 4439 H 425.116 0.729644 0.12923 0
M  V30 4440 H 427.763 1.87732 -0.37802 0
M  V30 4441 H 426.068 3.57701 1.59866 0
M  V30 4442 H 427.765 3.80098 1.27775 0
M  V30 4443 H 424.355 4.2854 -0.0715925 0
M  V30 4444 H 428.539 4.89086 -0.843098 0
M  V30 4445 H 423.795 5.80419 -1.92155 0
M  V30 4446 H 427.969 6.42317 -2.69076 0
M  V30 4447 H 425.596 6.87888 -3.23596 0
M  V30 4448 N 427.171 -0.0066808 1.57599 0
M  V30 4449 C 428.448 -0.729586 1.81484 0
M  V30 4450 C 428.828 -1.92359 0.869558 0
M  V30 4451 O 428.176 -2.28348 -0.0832533 0
M  V30 4452 C 428.386 -1.1416 3.29801 0
M  V30 4453 C 429.734 -1.54823 3.95367 0
M  V30 4454 O 430.758 -1.23558 3.34084 0
M  V30 4455 O 429.617 -2.12937 5.03309 0
M  V30 4456 H 426.711 -0.354674 0.747085 0
M  V30 4457 H 429.257 0.0182609 1.6969 0
M  V30 4458 H 428.029 -0.290231 3.90222 0
M  V30 4459 H 427.652 -1.94876 3.46568 0
M  V30 4460 N 428.649 -1.55105 -0.279332 0
M  V30 4461 C 429.879 -1.7917 -1.02867 0
M  V30 4462 C 430.287 -0.56204 -1.80659 0
M  V30 4463 O 429.63 0.478266 -1.77365 0
M  V30 4464 C 429.692 -2.96061 -2.03932 0
M  V30 4465 C 429.356 -4.33341 -1.45137 0
M  V30 4466 C 430.353 -5.12565 -0.870266 0
M  V30 4467 C 428.038 -4.79987 -1.48048 0
M  V30 4468 C 430.032 -6.36565 -0.326097 0
M  V30 4469 C 427.719 -6.03944 -0.932443 0
M  V30 4470 C 428.717 -6.8207 -0.356247 0
M  V30 4471 O 428.405 -8.03691 0.183412 0
M  V30 4472 H 428.137 -0.600796 -0.309872 0
M  V30 4473 H 430.691 -2.02932 -0.317468 0
M  V30 4474 H 428.921 -2.67975 -2.78794 0
M  V30 4475 H 430.61 -3.07506 -2.64943 0
M  V30 4476 H 431.376 -4.77661 -0.840521 0
M  V30 4477 H 427.255 -4.1919 -1.91835 0
M  V30 4478 H 430.799 -6.97489 0.124286 0
M  V30 4479 H 426.696 -6.3833 -0.959407 0
M  V30 4480 H 427.464 -8.18468 0.0721681 0
M  V30 4481 N 430.127 0.543554 -1.4793 0
M  V30 4482 C 431.057 1.65888 -1.64327 0
M  V30 4483 C 432.038 1.62818 -0.492383 0
M  V30 4484 O 433.223 1.80226 -0.723338 0
M  V30 4485 C 430.353 3.04506 -1.67013 0
M  V30 4486 C 429.307 3.2243 -2.81466 0
M  V30 4487 C 428.633 4.61972 -2.69233 0
M  V30 4488 C 429.933 3.06496 -4.22915 0
M  V30 4489 H 431.627 1.52421 -2.57698 0
M  V30 4490 H 429.173 0.731849 -1.24016 0
M  V30 4491 H 431.126 3.82391 -1.77074 0
M  V30 4492 H 429.85 3.18964 -0.70212 0
M  V30 4493 H 428.509 2.46957 -2.70938 0
M  V30 4494 H 428.157 4.73247 -1.7043 0
M  V30 4495 H 427.857 4.74911 -3.46025 0
M  V30 4496 H 429.381 5.41974 -2.81242 0
M  V30 4497 H 430.795 3.74186 -4.34348 0
M  V30 4498 H 429.192 3.30938 -5.006 0
M  V30 4499 H 430.262 2.03077 -4.40327 0
M  V30 4500 N 431.605 1.3629 0.791371 0
M  V30 4501 C 432.553 1.30514 1.92533 0
M  V30 4502 C 433.547 0.197285 1.68247 0
M  V30 4503 O 434.753 0.364176 1.76278 0
M  V30 4504 H 431.128 0.406263 0.632815 0
M  V30 4505 H 433.099 2.26282 1.94523 0
M  V30 4506 C 431.848 1.10933 3.29529 0
M  V30 4507 H 431.171 1.95427 3.48781 0
M  V30 4508 H 432.611 1.10937 4.0923 0
M  V30 4509 C 431.07 -0.186123 3.36385 0
M  V30 4510 O 431.6 -1.17664 3.84081 0
M  V30 4511 N 429.806 -0.230128 2.89687 0
M  V30 4512 H 429.353 0.576545 2.51065 0
M  V30 4513 H 429.311 -1.09658 2.94657 0
M  V30 4514 N 433.083 -1.0153 1.20538 0
M  V30 4515 C 434.499 -1.27461 0.96051 0
M  V30 4516 C 434.699 -1.98273 -0.359193 0
M  V30 4517 O 433.755 -2.27886 -1.0874 0
M  V30 4518 C 435.068 -2.10837 2.14402 0
M  V30 4519 C 436.616 -2.24099 2.18515 0
M  V30 4520 C 437.091 -3.10852 3.36355 0
M  V30 4521 N 438.582 -3.18441 3.36377 0
M  V30 4522 C 439.317 -3.85795 4.24205 0
M  V30 4523 N 438.813 -4.55264 5.22213 0
M  V30 4524 N 440.606 -3.82331 4.12043 0
M  V30 4525 H 432.757 -0.539907 2.05423 0
M  V30 4526 H 435.02 -0.30092 0.898972 0
M  V30 4527 H 434.726 -1.66144 3.09983 0
M  V30 4528 H 434.6 -3.11576 2.12604 0
M  V30 4529 H 436.987 -2.68016 1.23497 0
M  V30 4530 H 437.068 -1.22865 2.24361 0
M  V30 4531 H 436.712 -2.6764 4.31661 0
M  V30 4532 H 436.642 -4.12177 3.27746 0
M  V30 4533 H 439.133 -2.68978 2.65442 0
M  V30 4534 H 439.446 -5.04331 5.85551 0
M  V30 4535 H 437.791 -4.54085 5.26148 0
M  V30 4536 H 440.982 -3.27207 3.34743 0
M  V30 4537 H 441.155 -4.34547 4.807 0
M  V30 4538 N 434.561 -1.01147 -1.20859 0
M  V30 4539 C 435.791 -0.715872 -1.93801 0
M  V30 4540 C 436.199 0.726592 -1.74692 0
M  V30 4541 O 435.542 1.50397 -1.05482 0
M  V30 4542 C 435.604 -0.965269 -3.46299 0
M  V30 4543 C 435.268 -2.39584 -3.89164 0
M  V30 4544 C 436.265 -3.3764 -3.95342 0
M  V30 4545 C 433.95 -2.73522 -4.21297 0
M  V30 4546 C 435.944 -4.67698 -4.33056 0
M  V30 4547 C 433.631 -4.03794 -4.58687 0
M  V30 4548 C 434.629 -5.00693 -4.64538 0
M  V30 4549 O 434.317 -6.28635 -5.01072 0
M  V30 4550 H 434.049 -0.262524 -0.622942 0
M  V30 4551 H 436.603 -1.35413 -1.54443 0
M  V30 4552 H 434.833 -0.269847 -3.85757 0
M  V30 4553 H 436.522 -0.662051 -4.00464 0
M  V30 4554 H 437.288 -3.12757 -3.70686 0
M  V30 4555 H 433.167 -1.9879 -4.15937 0
M  V30 4556 H 436.711 -5.4333 -4.37537 0
M  V30 4557 H 432.608 -4.28459 -4.82797 0
M  V30 4558 H 433.376 -6.32847 -5.19083 0
M  V30 4559 N 436.039 1.36541 -0.78704 0
M  V30 4560 C 437.267 2.03561 -0.370199 0
M  V30 4561 C 437.682 1.59347 1.01263 0
M  V30 4562 O 437.039 0.781781 1.64907 0
M  V30 4563 C 437.09 3.59033 -0.421614 0
M  V30 4564 O 436.811 4.01634 -1.7499 0
M  V30 4565 C 438.312 4.433 0.00489763 0
M  V30 4566 H 435.532 0.653346 -0.152904 0
M  V30 4567 H 438.076 1.74566 -1.06522 0
M  V30 4568 H 436.231 3.86746 0.224971 0
M  V30 4569 H 436.645 4.96217 -1.69909 0
M  V30 4570 H 438.119 5.51939 -0.0822184 0
M  V30 4571 H 438.596 4.26285 1.05723 0
M  V30 4572 H 439.202 4.20843 -0.614085 0
M  V30 4573 N 437.518 0.538854 1.48102 0
M  V30 4574 C 438.764 0.00801365 2.02798 0
M  V30 4575 C 439.097 -1.3309 1.41424 0
M  V30 4576 O 438.372 -1.86169 0.563158 0
M  V30 4577 C 438.655 -0.104589 3.59948 0
M  V30 4578 C 438.508 1.26012 4.31788 0
M  V30 4579 C 439.827 -0.827055 4.32259 0
M  V30 4580 H 436.946 0.00438624 0.736987 0
M  V30 4581 H 439.588 0.6976 1.7673 0
M  V30 4582 H 437.738 -0.691893 3.82289 0
M  V30 4583 H 439.41 1.88922 4.2084 0
M  V30 4584 H 437.653 1.83968 3.92859 0
M  V30 4585 H 438.324 1.13424 5.40221 0
M  V30 4586 H 440.8 -0.328578 4.14801 0
M  V30 4587 H 439.676 -0.87476 5.41885 0
M  V30 4588 H 439.937 -1.87927 4.0017 0
M  V30 4589 N 438.996 -1.55193 0.274407 0
M  V30 4590 C 440.224 -2.03987 -0.345943 0
M  V30 4591 C 440.639 -1.15279 -1.4952 0
M  V30 4592 O 439.996 -0.172759 -1.8168 0
M  V30 4593 C 440.047 -3.51898 -0.827631 0
M  V30 4594 O 439.768 -4.37231 0.275855 0
M  V30 4595 C 441.269 -4.16577 -1.51587 0
M  V30 4596 H 438.489 -0.666335 -0.0789892 0
M  V30 4597 H 441.033 -2.00423 0.406294 0
M  V30 4598 H 439.188 -3.55909 -1.52996 0
M  V30 4599 H 439.602 -5.24415 -0.0943638 0
M  V30 4600 H 441.076 -5.21678 -1.80433 0
M  V30 4601 H 441.553 -3.64707 -2.44716 0
M  V30 4602 H 442.159 -4.16568 -0.857409 0
M  V30 4603 N 440.474 -0.00167713 -1.576 0
M  V30 4604 C 441.72 0.683832 -1.90923 0
M  V30 4605 C 442.053 1.7333 -0.875799 0
M  V30 4606 O 441.328 1.94215 0.10525 0
M  V30 4607 C 441.611 1.32543 -3.3482 0
M  V30 4608 C 441.464 0.287387 -4.48881 0
M  V30 4609 C 442.783 2.25114 -3.78169 0
M  V30 4610 H 439.902 0.247125 -0.694333 0
M  V30 4611 H 442.544 -0.0533149 -1.89925 0
M  V30 4612 H 440.694 1.95372 -3.35801 0
M  V30 4613 H 442.366 -0.341346 -4.60035 0
M  V30 4614 H 440.609 -0.39017 -4.32042 0
M  V30 4615 H 441.28 0.775393 -5.46527 0
M  V30 4616 H 443.756 1.723 -3.7875 0
M  V30 4617 H 442.632 2.66971 -4.79602 0
M  V30 4618 H 442.893 3.13092 -3.12131 0
M  V30 4619 N 441.952 1.55251 0.271103 0
M  V30 4620 C 442.862 1.9136 1.35714 0
M  V30 4621 C 443.878 0.811075 1.5394 0
M  V30 4622 O 445.054 1.11031 1.6803 0
M  V30 4623 C 442.119 2.1798 2.69603 0
M  V30 4624 C 441.18 3.4153 2.60107 0
M  V30 4625 C 440.413 3.66871 3.8761 0
M  V30 4626 O 440.636 2.94689 4.8838 0
M  V30 4627 O 439.57 4.60405 3.87699 0
M  V30 4628 H 443.396 2.83815 1.08088 0
M  V30 4629 H 440.981 1.41821 0.469792 0
M  V30 4630 H 442.863 2.36518 3.48765 0
M  V30 4631 H 441.538 1.28708 2.97012 0
M  V30 4632 H 440.445 3.28325 1.79314 0
M  V30 4633 H 441.778 4.31027 2.37647 0
M  V30 4634 N 443.43 -0.535701 1.48216 0
M  V30 4635 C 444.678 -1.28928 1.55634 0
M  V30 4636 C 444.999 -1.93645 0.229514 0
M  V30 4637 O 444.269 -1.81038 -0.74846 0
M  V30 4638 H 442.849 -0.47884 0.573342 0
M  V30 4639 H 445.511 -0.623853 1.84646 0
M  V30 4640 H 444.607 -2.07157 2.33436 0
M  V30 4641 N 444.908 -1.36708 -0.784132 0
M  V30 4642 C 445.841 -1.25827 -1.90375 0
M  V30 4643 C 446.819 -0.141331 -1.61985 0
M  V30 4644 O 448.003 -0.313389 -1.85877 0
M  V30 4645 C 445.13 -0.942621 -3.25319 0
M  V30 4646 C 444.176 -2.07474 -3.72635 0
M  V30 4647 S 445.009 -3.69317 -3.8777 0
M  V30 4648 C 446.165 -3.39876 -5.25581 0
M  V30 4649 H 446.398 -2.20593 -1.99314 0
M  V30 4650 H 443.931 -1.22186 -0.943926 0
M  V30 4651 H 445.889 -0.767321 -4.03265 0
M  V30 4652 H 444.55 -0.0126566 -3.14097 0
M  V30 4653 H 443.743 -1.80858 -4.70432 0
M  V30 4654 H 443.345 -2.20953 -3.01754 0
M  V30 4655 H 445.637 -2.94097 -6.10339 0
M  V30 4656 H 446.58 -4.36956 -5.57203 0
M  V30 4657 H 446.988 -2.75098 -4.92931 0
M  V30 4658 N 446.386 1.0089 -1.21074 0
M  V30 4659 C 447.635 1.74019 -1.01981 0
M  V30 4660 C 447.948 1.90408 0.447665 0
M  V30 4661 O 449.154 2.60707 0.757906 0
M  V30 4662 C 447.61 3.13026 -1.77603 0
M  V30 4663 C 447.218 3.04623 -3.28495 0
M  V30 4664 C 448.962 3.90312 -1.66904 0
M  V30 4665 C 446.869 4.38685 -3.96623 0
M  V30 4666 H 445.799 0.652422 -0.377971 0
M  V30 4667 H 448.45 1.12755 -1.44771 0
M  V30 4668 H 446.832 3.74878 -1.27604 0
M  V30 4669 H 448.006 2.52032 -3.85767 0
M  V30 4670 H 446.321 2.40827 -3.39693 0
M  V30 4671 H 448.918 4.8951 -2.15138 0
M  V30 4672 H 449.261 4.11558 -0.62658 0
M  V30 4673 H 449.794 3.35104 -2.14359 0
M  V30 4674 H 446.533 4.22641 -5.01054 0
M  V30 4675 H 446.053 4.91252 -3.4414 0
M  V30 4676 H 447.732 5.075 -4.01314 0
M  V30 4677 N 447.864 1.01787 1.20321 0
M  V30 4678 C 448.811 0.589197 2.23153 0
M  V30 4679 C 449.781 -0.391367 1.61423 0
M  V30 4680 O 450.966 -0.290518 1.88575 0
M  V30 4681 C 448.106 -0.0650747 3.45039 0
M  V30 4682 C 447.219 0.960207 4.21194 0
M  V30 4683 C 446.354 0.276854 5.30478 0
M  V30 4684 C 445.393 1.2888 5.98378 0
M  V30 4685 N 444.53 0.632031 6.99249 0
M  V30 4686 H 449.37 1.47071 2.59179 0
M  V30 4687 H 446.907 0.736192 1.27352 0
M  V30 4688 H 448.865 -0.461552 4.14639 0
M  V30 4689 H 447.495 -0.910233 3.09701 0
M  V30 4690 H 446.547 1.47484 3.50646 0
M  V30 4691 H 447.859 1.72977 4.67847 0
M  V30 4692 H 447.013 -0.175056 6.06447 0
M  V30 4693 H 445.752 -0.525004 4.84866 0
M  V30 4694 H 444.757 1.75109 5.21169 0
M  V30 4695 H 445.982 2.09196 6.46076 0
M  V30 4696 H 443.928 -0.149935 6.55829 0
M  V30 4697 H 443.845 1.33964 7.44036 0
M  V30 4698 H 445.113 0.203755 7.79234 0
M  V30 4699 N 449.342 -1.36122 0.79427 0
M  V30 4700 C 450.272 -2.32551 0.210328 0
M  V30 4701 C 451.253 -1.56884 -0.657386 0
M  V30 4702 O 452.438 -1.85014 -0.590207 0
M  V30 4703 C 449.568 -3.41128 -0.651819 0
M  V30 4704 C 448.522 -4.27842 0.116395 0
M  V30 4705 C 447.848 -5.2763 -0.86666 0
M  V30 4706 C 449.148 -5.05647 1.30837 0
M  V30 4707 H 450.842 -2.81636 1.01594 0
M  V30 4708 H 448.388 -1.35407 0.489981 0
M  V30 4709 H 450.341 -4.07581 -1.07031 0
M  V30 4710 H 449.065 -2.90622 -1.49019 0
M  V30 4711 H 447.724 -3.62952 0.515915 0
M  V30 4712 H 447.372 -4.73395 -1.70019 0
M  V30 4713 H 447.072 -5.86514 -0.35705 0
M  V30 4714 H 448.596 -5.96955 -1.28361 0
M  V30 4715 H 450.01 -5.65113 0.965393 0
M  V30 4716 H 448.407 -5.73967 1.75161 0
M  V30 4717 H 449.477 -4.37006 2.10128 0
M  V30 4718 N 450.82 -0.546701 -1.47814 0
M  V30 4719 C 451.783 0.196287 -2.28358 0
M  V30 4720 C 452.783 0.852437 -1.36346 0
M  V30 4721 O 453.973 0.709913 -1.59078 0
M  V30 4722 C 451.105 1.28579 -3.15722 0
M  V30 4723 H 452.298 -0.511086 -2.95513 0
M  V30 4724 H 449.851 -0.303248 -1.5333 0
M  V30 4725 H 450.586 2.0259 -2.53235 0
M  V30 4726 H 450.371 0.820229 -3.83425 0
M  V30 4727 H 451.861 1.80793 -3.76435 0
M  V30 4728 N 452.299 1.55045 -0.282633 0
M  V30 4729 C 453.229 2.2579 0.595066 0
M  V30 4730 C 454.21 1.25074 1.15284 0
M  V30 4731 O 455.395 1.5381 1.18559 0
M  V30 4732 C 452.525 2.98472 1.77572 0
M  V30 4733 C 451.479 4.0618 1.34914 0
M  V30 4734 C 450.805 4.66477 2.6135 0
M  V30 4735 C 452.105 5.1996 0.493821 0
M  V30 4736 H 453.799 2.994 0.00505653 0
M  V30 4737 H 451.345 1.44 0.000992001 0
M  V30 4738 H 453.298 3.46677 2.39568 0
M  V30 4739 H 452.022 2.2241 2.39168 0
M  V30 4740 H 450.681 3.58797 0.752338 0
M  V30 4741 H 450.329 3.87074 3.2122 0
M  V30 4742 H 450.029 5.39207 2.33516 0
M  V30 4743 H 451.553 5.17435 3.24181 0
M  V30 4744 H 452.967 5.64172 1.01898 0
M  V30 4745 H 451.364 5.99299 0.310047 0
M  V30 4746 H 452.434 4.82462 -0.485593 0
M  V30 4747 N 453.777 0.010035 1.57597 0
M  V30 4748 C 455.002 -0.687021 1.95691 0
M  V30 4749 C 455.427 -1.65952 0.885519 0
M  V30 4750 O 454.785 -1.80633 -0.15543 0
M  V30 4751 C 454.833 -1.3864 3.32884 0
M  V30 4752 O 453.937 -2.50115 3.27897 0
M  V30 4753 H 453.278 -0.181989 0.638573 0
M  V30 4754 H 455.808 0.0662122 2.04493 0
M  V30 4755 H 455.818 -1.74754 3.6868 0
M  V30 4756 H 454.493 -0.673411 4.10412 0
M  V30 4757 H 453.07 -2.16253 3.03791 0
M  V30 4758 N 455.255 -1.55392 -0.262866 0
M  V30 4759 C 456.483 -1.80513 -1.01108 0
M  V30 4760 C 456.898 -0.583533 -1.79556 0
M  V30 4761 O 456.255 0.447585 -1.76926 0
M  V30 4762 C 456.306 -3.03648 -1.96164 0
M  V30 4763 O 456.027 -4.2109 -1.20893 0
M  V30 4764 C 457.528 -3.41448 -2.82715 0
M  V30 4765 H 454.748 -0.601079 -0.298236 0
M  V30 4766 H 457.292 -2.02425 -0.290582 0
M  V30 4767 H 455.447 -2.83832 -2.63663 0
M  V30 4768 H 455.861 -4.90771 -1.85051 0
M  V30 4769 H 457.335 -4.30751 -3.45192 0
M  V30 4770 H 457.812 -2.61308 -3.53008 0
M  V30 4771 H 458.418 -3.63559 -2.20693 0
M  V30 4772 N 456.733 0.527833 -1.48498 0
M  V30 4773 C 457.696 1.61439 -1.62696 0
M  V30 4774 C 458.696 1.52824 -0.500136 0
M  V30 4775 O 459.886 1.56456 -0.765976 0
M  V30 4776 C 457.018 3.01063 -1.59918 0
M  V30 4777 H 458.211 1.50189 -2.59583 0
M  V30 4778 H 455.764 0.750055 -1.37127 0
M  V30 4779 H 456.499 3.17818 -0.645163 0
M  V30 4780 H 456.284 3.08725 -2.41726 0
M  V30 4781 H 457.774 3.80057 -1.73051 0
M  V30 4782 N 458.211 1.37122 0.776871 0
M  V30 4783 C 459.436 1.354 1.57104 0
M  V30 4784 C 459.861 -0.0595562 1.88006 0
M  V30 4785 O 459.219 -1.03514 1.48844 0
M  V30 4786 C 459.267 2.19472 2.8612 0
M  V30 4787 O 458.371 1.59582 3.80273 0
M  V30 4788 H 457.712 0.462869 0.476076 0
M  V30 4789 H 460.242 1.80577 0.961932 0
M  V30 4790 H 460.252 2.32502 3.35271 0
M  V30 4791 H 458.927 3.22222 2.62956 0
M  V30 4792 H 457.504 1.55564 3.38902 0
M  V30 4793 N 459.689 -1.00246 1.21608 0
M  V30 4794 C 460.937 -1.73717 1.0328 0
M  V30 4795 C 461.258 -1.90102 -0.434318 0
M  V30 4796 O 460.528 -1.45376 -1.31311 0
M  V30 4797 H 459.108 -0.643613 0.379172 0
M  V30 4798 H 461.77 -1.20787 1.52959 0
M  V30 4799 H 460.866 -2.73535 1.50283 0
M  V30 4800 N 461.167 -1.02423 -1.1978 0
M  V30 4801 C 462.097 -0.62157 -2.25075 0
M  V30 4802 C 463.078 0.367148 -1.6609 0
M  V30 4803 O 464.263 0.250892 -1.92573 0
M  V30 4804 C 461.393 0.0331826 -3.47284 0
M  V30 4805 C 460.347 -0.877323 -4.18912 0
M  V30 4806 C 459.673 -0.0879296 -5.34628 0
M  V30 4807 C 460.973 -2.18892 -4.74219 0
M  V30 4808 H 462.667 -1.50179 -2.59011 0
M  V30 4809 H 460.213 -0.723547 -1.24502 0
M  V30 4810 H 462.166 0.326488 -4.20133 0
M  V30 4811 H 460.89 0.948164 -3.12534 0
M  V30 4812 H 459.549 -1.15475 -3.47938 0
M  V30 4813 H 459.197 0.828941 -4.96123 0
M  V30 4814 H 458.897 -0.694359 -5.83483 0
M  V30 4815 H 460.421 0.198743 -6.10276 0
M  V30 4816 H 461.835 -1.95746 -5.38847 0
M  V30 4817 H 460.232 -2.74686 -5.33542 0
M  V30 4818 H 461.302 -2.84674 -3.92541 0
M  V30 4819 N 462.645 1.35699 -0.801477 0
M  V30 4820 C 463.608 2.28199 -0.213994 0
M  V30 4821 C 464.608 1.49359 0.595691 0
M  V30 4822 O 465.798 1.69186 0.414921 0
M  V30 4823 C 462.93 3.33587 0.702297 0
M  V30 4824 H 464.123 2.81666 -1.02976 0
M  V30 4825 H 461.676 1.45467 -0.571759 0
M  V30 4826 H 462.411 2.85297 1.54195 0
M  V30 4827 H 462.196 3.91906 0.123484 0
M  V30 4828 H 463.686 4.02638 1.10783 0
M  V30 4829 N 464.123 0.554532 1.47522 0
M  V30 4830 C 465.073 -0.215008 2.26984 0
M  V30 4831 C 466.057 -0.88774 1.34194 0
M  V30 4832 O 467.249 -0.786489 1.58567 0
M  V30 4833 C 464.378 -1.24604 3.19889 0
M  V30 4834 C 463.464 -0.576857 4.20159 0
M  V30 4835 N 463.855 0.351541 5.04577 0
M  V30 4836 C 462.153 -0.831104 4.38188 0
M  V30 4837 C 462.854 0.739995 5.76974 0
M  V30 4838 N 461.83 0.0954407 5.43516 0
M  V30 4839 H 465.632 0.498843 2.89636 0
M  V30 4840 H 463.146 0.374279 1.58028 0
M  V30 4841 H 465.143 -1.81128 3.75498 0
M  V30 4842 H 463.803 -1.96101 2.58794 0
M  V30 4843 H 464.814 0.725556 5.12792 0
M  V30 4844 H 461.491 -1.53479 3.88266 0
M  V30 4845 H 462.881 1.50271 6.5488 0
M  V30 4846 N 465.601 -1.54893 0.290851 0
M  V30 4847 C 466.531 -2.26103 -0.583084 0
M  V30 4848 C 467.512 -1.25684 -1.14619 0
M  V30 4849 O 468.697 -1.54436 -1.17741 0
M  V30 4850 C 465.827 -2.99409 -1.75987 0
M  V30 4851 C 464.781 -4.0689 -1.32758 0
M  V30 4852 C 464.107 -4.67856 -2.58872 0
M  V30 4853 C 465.407 -5.20215 -0.46624 0
M  V30 4854 H 467.101 -2.99398 0.0108214 0
M  V30 4855 H 464.647 -1.43998 0.00664468 0
M  V30 4856 H 466.6 -3.47943 -2.37727 0
M  V30 4857 H 465.324 -2.23675 -2.37985 0
M  V30 4858 H 463.983 -3.59191 -0.733299 0
M  V30 4859 H 463.631 -3.88772 -3.19163 0
M  V30 4860 H 463.331 -5.40438 -2.30653 0
M  V30 4861 H 464.855 -5.19147 -3.21433 0
M  V30 4862 H 466.269 -5.64704 -0.989047 0
M  V30 4863 H 464.666 -5.99455 -0.27826 0
M  V30 4864 H 465.736 -4.82198 0.511173 0
M  V30 4865 N 467.08 -0.0183926 -1.57589 0
M  V30 4866 C 468.03 0.975944 -2.06057 0
M  V30 4867 C 469.014 1.29204 -0.958908 0
M  V30 4868 O 470.206 1.27995 -1.22255 0
M  V30 4869 C 467.335 2.26194 -2.58247 0
M  V30 4870 C 466.421 1.97467 -3.75323 0
M  V30 4871 N 466.812 1.38968 -4.86335 0
M  V30 4872 C 465.11 2.27515 -3.83605 0
M  V30 4873 C 465.811 1.27131 -5.67638 0
M  V30 4874 N 464.787 1.76319 -5.14211 0
M  V30 4875 H 468.589 0.518444 -2.89291 0
M  V30 4876 H 466.103 0.18688 -1.61321 0
M  V30 4877 H 468.1 2.98289 -2.91255 0
M  V30 4878 H 466.76 2.7258 -1.76438 0
M  V30 4879 H 467.771 1.06608 -5.06809 0
M  V30 4880 H 464.448 2.76649 -3.12684 0
M  V30 4881 H 465.838 0.819882 -6.66879 0
M  V30 4882 N 468.558 1.5553 0.254621 0
M  V30 4883 C 469.491 1.84624 1.34124 0
M  V30 4884 C 470.469 0.700693 1.46728 0
M  V30 4885 O 471.653 0.94564 1.63064 0
M  V30 4886 C 468.78 2.02412 2.71564 0
M  V30 4887 C 467.826 3.25028 2.7615 0
M  V30 4888 S 468.659 4.81893 2.33538 0
M  V30 4889 C 469.815 5.02677 3.72917 0
M  V30 4890 H 470.048 2.76501 1.09245 0
M  V30 4891 H 467.581 1.47537 0.455211 0
M  V30 4892 H 469.539 2.13345 3.50705 0
M  V30 4893 H 468.2 1.11391 2.93685 0
M  V30 4894 H 467.393 3.34418 3.77069 0
M  V30 4895 H 466.995 3.12781 2.05046 0
M  V30 4896 H 469.287 4.89546 4.68349 0
M  V30 4897 H 470.23 6.0468 3.68467 0
M  V30 4898 H 470.638 4.30561 3.65072 0
M  V30 4899 N 470.036 -0.519951 1.48776 0
M  V30 4900 C 470.946 -1.65025 1.66745 0
M  V30 4901 C 471.962 -1.6508 0.549954 0
M  V30 4902 O 473.138 -1.83848 0.822295 0
M  V30 4903 C 470.203 -3.0146 1.71238 0
M  V30 4904 C 469.264 -3.12182 2.94688 0
M  V30 4905 C 468.497 -4.42109 2.98958 0
M  V30 4906 O 468.72 -5.29799 2.1135 0
M  V30 4907 O 467.654 -4.57406 3.91233 0
M  V30 4908 H 471.48 -1.52801 2.62461 0
M  V30 4909 H 469.065 -0.694157 1.32294 0
M  V30 4910 H 470.947 -3.82584 1.76657 0
M  V30 4911 H 469.622 -3.13988 0.786975 0
M  V30 4912 H 468.529 -2.30316 2.94797 0
M  V30 4913 H 469.862 -3.04574 3.86646 0
M  V30 4914 N 471.514 -1.37532 -0.769588 0
M  V30 4915 C 472.763 -1.32183 -1.5235 0
M  V30 4916 C 473.076 0.0906555 -1.9539 0
M  V30 4917 O 474.282 0.266628 -2.70188 0
M  V30 4918 C 472.738 -2.32029 -2.75119 0
M  V30 4919 C 472.346 -3.78816 -2.3917 0
M  V30 4920 C 474.09 -2.35694 -3.53056 0
M  V30 4921 C 471.997 -4.70388 -3.58453 0
M  V30 4922 H 470.927 -0.491275 -0.571984 0
M  V30 4923 H 473.578 -1.63004 -0.842739 0
M  V30 4924 H 471.96 -1.94229 -3.45096 0
M  V30 4925 H 473.134 -4.25466 -1.76962 0
M  V30 4926 H 471.449 -3.78117 -1.74402 0
M  V30 4927 H 474.046 -3.01312 -4.41718 0
M  V30 4928 H 474.389 -1.37117 -3.93071 0
M  V30 4929 H 474.922 -2.72212 -2.90078 0
M  V30 4930 H 471.661 -5.70102 -3.23518 0
M  V30 4931 H 471.181 -4.28442 -4.19758 0
M  V30 4932 H 472.86 -4.87628 -4.25239 0
M  V30 4933 N 472.992 0.995999 -1.22138 0
M  V30 4934 C 474.238 1.73767 -1.04561 0
M  V30 4935 C 474.571 1.89633 0.418698 0
M  V30 4936 O 473.846 1.43723 1.3105 0
M  V30 4937 C 474.129 3.14505 -1.75382 0
M  V30 4938 C 473.982 3.06306 -3.29388 0
M  V30 4939 C 475.301 4.13615 -1.50369 0
M  V30 4940 H 472.42 0.630728 -0.38125 0
M  V30 4941 H 475.062 1.16057 -1.50435 0
M  V30 4942 H 473.212 3.63775 -1.36383 0
M  V30 4943 H 474.884 2.64681 -3.77812 0
M  V30 4944 H 473.127 2.43186 -3.59226 0
M  V30 4945 H 473.798 4.05884 -3.74116 0
M  V30 4946 H 476.274 3.73089 -1.84239 0
M  V30 4947 H 475.15 5.10212 -2.02421 0
M  V30 4948 H 475.411 4.39949 -0.435611 0
M  V30 4949 N 474.47 1.03057 1.19235 0
M  V30 4950 C 475.718 0.726581 1.88587 0
M  V30 4951 C 476.039 -0.747227 1.80115 0
M  V30 4952 O 475.309 -1.53849 1.21274 0
M  V30 4953 H 473.889 0.265768 0.698124 0
M  V30 4954 H 476.551 1.30516 1.44746 0
M  V30 4955 H 475.647 1.0224 2.94879 0
M  V30 4956 N 475.948 -1.35272 0.808662 0
M  V30 4957 C 477.176 -2.02946 0.402537 0
M  V30 4958 C 477.591 -1.60937 -0.987147 0
M  V30 4959 O 476.948 -0.807917 -1.63643 0
M  V30 4960 C 476.999 -3.58317 0.47868 0
M  V30 4961 O 476.72 -3.98799 1.81358 0
M  V30 4962 C 478.221 -4.43251 0.0656281 0
M  V30 4963 H 475.441 -0.650831 0.163279 0
M  V30 4964 H 477.985 -1.72849 1.09286 0
M  V30 4965 H 476.14 -3.87055 -0.163415 0
M  V30 4966 H 476.554 -4.93451 1.77781 0
M  V30 4967 H 478.028 -5.51738 0.170017 0
M  V30 4968 H 478.505 -4.27913 -0.989278 0
M  V30 4969 H 479.111 -4.19813 0.68096 0
M  V30 4970 N 477.426 -0.562348 -1.47226 0
M  V30 4971 C 478.358 0.220011 -2.28142 0
M  V30 4972 C 479.371 0.874596 -1.37312 0
M  V30 4973 O 480.56 0.747583 -1.62091 0
M  V30 4974 C 477.66 1.32953 -3.11732 0
M  V30 4975 C 476.833 0.770759 -4.30556 0
M  V30 4976 C 475.892 1.76541 -4.95701 0
M  V30 4977 O 474.918 1.3095 -5.53932 0
M  V30 4978 N 476.12 3.09896 -4.90861 0
M  V30 4979 H 478.885 -0.474107 -2.95926 0
M  V30 4980 H 476.446 -0.398761 -1.56912 0
M  V30 4981 H 478.438 1.99378 -3.5218 0
M  V30 4982 H 477.008 1.92681 -2.46156 0
M  V30 4983 H 476.228 -0.0704056 -3.94137 0
M  V30 4984 H 477.516 0.376872 -5.07402 0
M  V30 4985 H 476.914 3.49577 -4.44761 0
M  V30 4986 H 475.471 3.71865 -5.35313 0
M  V30 4987 N 478.904 1.54736 -0.299062 0
M  V30 4988 C 480.152 1.99706 0.31017 0
M  V30 4989 C 480.473 1.18896 1.54559 0
M  V30 4990 O 479.743 0.284445 1.93824 0
M  V30 4991 H 478.323 0.737686 0.117596 0
M  V30 4992 H 480.985 1.9054 -0.409943 0
M  V30 4993 H 480.081 3.06596 0.58355 0
M  V30 4994 N 480.382 0.0267497 1.57577 0
M  V30 4995 C 481.329 -0.955894 2.10075 0
M  V30 4996 C 482.299 -1.32453 1.00226 0
M  V30 4997 O 483.484 -1.41826 1.27632 0
M  V30 4998 C 480.624 -2.2338 2.6305 0
M  V30 4999 C 479.737 -1.92183 3.86898 0
M  V30 5000 C 478.872 -3.14251 4.28275 0
M  V30 5001 C 477.911 -2.78862 5.44888 0
M  V30 5002 N 477.048 -3.93548 5.81433 0
M  V30 5003 H 481.888 -0.501303 2.93753 0
M  V30 5004 H 479.425 -0.235847 1.45197 0
M  V30 5005 H 481.383 -2.98124 2.91853 0
M  V30 5006 H 480.013 -2.6646 1.82205 0
M  V30 5007 H 479.065 -1.07692 3.64838 0
M  V30 5008 H 480.377 -1.62117 4.7172 0
M  V30 5009 H 479.531 -3.97317 4.58502 0
M  V30 5010 H 478.27 -3.47476 3.42215 0
M  V30 5011 H 477.275 -1.94208 5.14357 0
M  V30 5012 H 478.5 -2.46855 6.32645 0
M  V30 5013 H 476.446 -4.2662 4.98328 0
M  V30 5014 H 476.363 -3.67098 6.6089 0
M  V30 5015 H 477.631 -4.77325 6.16264 0
M  V30 5016 N 481.861 -1.55662 -0.24637 0
M  V30 5017 C 483.272 -1.67953 -0.81539 0
M  V30 5018 C 483.623 -0.624302 -1.86002 0
M  V30 5019 O 482.748 0.229328 -2.15181 0
M  V30 5020 C 483.343 -3.04484 -1.48576 0
M  V30 5021 C 481.902 -3.18713 -2.00248 0
M  V30 5022 C 481.049 -2.6383 -0.853766 0
M  V30 5023 H 484 -1.58685 -0.0221692 0
M  V30 5024 H 484.021 -2.98959 -2.3538 0
M  V30 5025 H 483.533 -3.81264 -0.725222 0
M  V30 5026 H 481.634 -2.46757 -2.79181 0
M  V30 5027 H 481.747 -4.25628 -2.1995 0
M  V30 5028 H 480.111 -2.21667 -1.25442 0
M  V30 5029 H 480.894 -3.43135 -0.106302 0
M  V30 5030 N 483.339 0.512053 -1.4905 0
M  V30 5031 C 484.302 1.59704 -1.64399 0
M  V30 5032 C 485.302 1.52285 -0.516317 0
M  V30 5033 O 486.492 1.55635 -0.782527 0
M  V30 5034 C 483.624 2.9935 -1.63102 0
M  V30 5035 H 484.817 1.47428 -2.61161 0
M  V30 5036 H 482.37 0.735469 -1.37915 0
M  V30 5037 H 483.105 3.17116 -0.678836 0
M  V30 5038 H 482.89 3.06144 -2.44986 0
M  V30 5039 H 484.38 3.782 -1.77072 0
M  V30 5040 N 484.817 1.37938 0.762283 0
M  V30 5041 C 486.066 1.32989 1.51647 0
M  V30 5042 C 486.379 -0.0802922 1.95435 0
M  V30 5043 O 487.585 -0.252295 2.70325 0
M  V30 5044 C 486.041 2.33485 2.73885 0
M  V30 5045 C 485.649 3.80079 2.37157 0
M  V30 5046 C 487.393 2.37563 3.51801 0
M  V30 5047 C 485.3 4.72283 3.55954 0
M  V30 5048 H 484.23 0.494301 0.56937 0
M  V30 5049 H 486.881 1.63448 0.834083 0
M  V30 5050 H 485.263 1.96056 3.44061 0
M  V30 5051 H 486.437 4.26398 1.74704 0
M  V30 5052 H 484.752 3.79037 1.72395 0
M  V30 5053 H 487.349 3.0365 4.40114 0
M  V30 5054 H 487.692 1.39199 3.92338 0
M  V30 5055 H 488.225 2.73747 2.8863 0
M  V30 5056 H 484.964 5.7181 3.2049 0
M  V30 5057 H 484.484 4.30663 4.1748 0
M  V30 5058 H 486.163 4.89876 4.22647 0
M  V30 5059 N 486.295 -0.989507 1.22664 0
M  V30 5060 C 487.258 -2.06183 1.00106 0
M  V30 5061 C 488.258 -1.60765 -0.0337726 0
M  V30 5062 O 489.448 -1.72989 0.205072 0
M  V30 5063 C 486.58 -3.37021 0.51279 0
M  V30 5064 H 487.773 -2.27629 1.95256 0
M  V30 5065 H 485.326 -1.16158 1.0458 0
M  V30 5066 H 486.061 -3.21261 -0.442917 0
M  V30 5067 H 485.846 -3.71323 1.25942 0
M  V30 5068 H 487.336 -4.1591 0.375315 0
M  V30 5069 N 487.773 -1.03688 -1.18687 0
M  V30 5070 C 488.723 -0.595067 -2.20098 0
M  V30 5071 C 489.707 0.360465 -1.5681 0
M  V30 5072 O 490.899 0.180136 -1.76081 0
M  V30 5073 C 488.028 0.0444495 -3.43271 0
M  V30 5074 C 487.114 -0.934002 -4.13687 0
M  V30 5075 N 487.505 -2.09957 -4.60165 0
M  V30 5076 C 485.803 -0.759177 -4.39491 0
M  V30 5077 C 486.504 -2.71735 -5.1433 0
M  V30 5078 N 485.48 -1.99638 -5.05614 0
M  V30 5079 H 489.282 -1.48336 -2.5372 0
M  V30 5080 H 486.796 -0.904949 -1.3485 0
M  V30 5081 H 488.793 0.37864 -4.15177 0
M  V30 5082 H 487.453 0.928325 -3.11147 0
M  V30 5083 H 488.464 -2.47863 -4.54735 0
M  V30 5084 H 485.141 0.0749292 -4.17433 0
M  V30 5085 H 486.531 -3.70492 -5.60523 0
M  V30 5086 N 489.251 1.34841 -0.815825 0
M  V30 5087 C 490.667 1.51543 -0.500697 0
M  V30 5088 C 490.867 1.76261 0.976444 0
M  V30 5089 O 489.923 1.8094 1.76117 0
M  V30 5090 C 491.236 2.68487 -1.35407 0
M  V30 5091 C 492.784 2.82368 -1.35046 0
M  V30 5092 C 493.259 4.02347 -2.18816 0
M  V30 5093 N 494.75 4.09542 -2.16402 0
M  V30 5094 C 495.485 5.01517 -2.77971 0
M  V30 5095 N 494.981 5.98763 -3.48503 0
M  V30 5096 N 496.774 4.94334 -2.67563 0
M  V30 5097 H 488.925 1.17055 -1.77234 0
M  V30 5098 H 491.188 0.573481 -0.754866 0
M  V30 5099 H 490.894 2.56829 -2.40274 0
M  V30 5100 H 490.768 3.63321 -1.01377 0
M  V30 5101 H 493.155 2.93471 -0.309604 0
M  V30 5102 H 493.236 1.88363 -1.73069 0
M  V30 5103 H 492.88 3.92004 -3.22948 0
M  V30 5104 H 492.81 4.95551 -1.78148 0
M  V30 5105 H 495.301 3.39932 -1.65091 0
M  V30 5106 H 495.614 6.6556 -3.92747 0
M  V30 5107 H 493.959 5.98909 -3.52609 0
M  V30 5108 H 497.15 4.1732 -2.12041 0
M  V30 5109 H 497.323 5.6582 -3.15834 0
M  V30 5110 N 490.729 0.570148 1.46925 0
M  V30 5111 C 492.006 -0.0153259 1.95594 0
M  V30 5112 C 492.386 -1.47232 1.51281 0
M  V30 5113 O 491.734 -2.15574 0.757624 0
M  V30 5114 C 491.944 0.143624 3.48704 0
M  V30 5115 C 493.292 0.00494484 4.246 0
M  V30 5116 O 494.316 0.0718214 3.56128 0
M  V30 5117 O 493.175 -0.141175 5.46318 0
M  V30 5118 H 490.269 -0.0568819 0.825041 0
M  V30 5119 H 492.815 0.637583 1.57267 0
M  V30 5120 H 491.587 1.15699 3.73804 0
M  V30 5121 H 491.21 -0.5463 3.93829 0
M  V30 5122 N 492.207 -1.54576 0.307264 0
M  V30 5123 C 493.137 -2.26708 -0.55907 0
M  V30 5124 C 494.118 -1.26893 -1.1328 0
M  V30 5125 O 495.303 -1.55677 -1.16097 0
M  V30 5126 C 492.433 -3.01259 -1.72801 0
M  V30 5127 C 491.387 -4.08275 -1.28435 0
M  V30 5128 C 490.713 -4.70575 -2.53895 0
M  V30 5129 C 492.013 -5.2068 -0.411038 0
M  V30 5130 H 493.707 -2.9937 0.042576 0
M  V30 5131 H 491.253 -1.43983 0.0219173 0
M  V30 5132 H 493.206 -3.50444 -2.34023 0
M  V30 5133 H 491.93 -2.26187 -2.356 0
M  V30 5134 H 490.589 -3.59949 -0.695161 0
M  V30 5135 H 490.237 -3.92136 -3.15021 0
M  V30 5136 H 489.937 -5.42854 -2.24908 0
M  V30 5137 H 491.461 -5.22527 -3.15908 0
M  V30 5138 H 492.875 -5.65721 -0.929097 0
M  V30 5139 H 491.272 -5.99716 -0.214664 0
M  V30 5140 H 492.342 -4.81629 0.562287 0
M  V30 5141 N 493.685 -0.035106 -1.57561 0
M  V30 5142 C 494.632 0.94474 -2.10578 0
M  V30 5143 C 495.602 1.3192 -1.00927 0
M  V30 5144 O 496.787 1.41147 -1.28382 0
M  V30 5145 C 493.927 2.21982 -2.64231 0
M  V30 5146 C 493.04 1.90128 -3.87911 0
M  V30 5147 C 492.175 3.11975 -4.29936 0
M  V30 5148 C 491.214 2.75968 -5.46359 0
M  V30 5149 N 490.351 3.90459 -5.83512 0
M  V30 5150 H 495.191 0.485717 -2.94015 0
M  V30 5151 H 492.728 0.228143 -1.4532 0
M  V30 5152 H 494.686 2.96572 -2.9343 0
M  V30 5153 H 493.316 2.6549 -1.83616 0
M  V30 5154 H 492.368 1.05755 -3.65404 0
M  V30 5155 H 493.68 1.59613 -4.72573 0
M  V30 5156 H 492.834 3.9488 -4.60603 0
M  V30 5157 H 491.573 3.45657 -3.44053 0
M  V30 5158 H 490.578 1.91478 -5.1538 0
M  V30 5159 H 491.803 2.43497 -6.33945 0
M  V30 5160 H 489.749 4.23971 -5.00584 0
M  V30 5161 H 489.666 3.63588 -6.62827 0
M  V30 5162 H 490.934 4.7405 -6.18787 0
M  V30 5163 N 495.163 1.55791 0.238111 0
M  V30 5164 C 496.388 1.8244 0.986432 0
M  V30 5165 C 496.813 0.613314 1.7782 0
M  V30 5166 O 496.171 -0.437767 1.75935 0
M  V30 5167 C 496.219 3.06917 1.893 0
M  V30 5168 O 495.323 2.84449 2.98601 0
M  V30 5169 H 494.664 0.601975 0.280218 0
M  V30 5170 H 497.194 2.02987 0.256437 0
M  V30 5171 H 497.204 3.36583 2.30598 0
M  V30 5172 H 495.879 3.947 1.31091 0
M  V30 5173 H 494.456 2.65972 2.61368 0
M  V30 5174 N 496.642 -0.504142 1.49319 0
M  V30 5175 C 497.589 -1.60603 1.65756 0
M  V30 5176 C 498.559 -1.58425 0.499082 0
M  V30 5177 O 499.744 -1.76459 0.725728 0
M  V30 5178 C 496.884 -2.98764 1.72726 0
M  V30 5179 C 495.997 -3.10982 2.99857 0
M  V30 5180 C 495.132 -4.39857 2.97824 0
M  V30 5181 C 494.171 -4.45697 4.19548 0
M  V30 5182 N 493.308 -5.65995 4.15444 0
M  V30 5183 H 498.148 -1.45895 2.59843 0
M  V30 5184 H 495.685 -0.709891 1.28837 0
M  V30 5185 H 497.643 -3.78839 1.74747 0
M  V30 5186 H 496.273 -3.12183 0.821075 0
M  V30 5187 H 495.325 -2.23991 3.07461 0
M  V30 5188 H 496.637 -3.11157 3.89849 0
M  V30 5189 H 495.791 -5.2825 2.98391 0
M  V30 5190 H 494.53 -4.42242 2.05604 0
M  V30 5191 H 493.535 -3.55707 4.19229 0
M  V30 5192 H 494.76 -4.4503 5.12957 0
M  V30 5193 H 492.706 -5.69229 3.26059 0
M  V30 5194 H 492.623 -5.67773 4.99169 0
M  V30 5195 H 493.891 -6.56604 4.20109 0
M  V30 5196 N 498.12 -1.38341 -0.754957 0
M  V30 5197 C 499.068 -1.35573 -1.89005 0
M  V30 5198 C 500.062 -0.241824 -1.67665 0
M  V30 5199 O 501.268 -0.410785 -1.7525 0
M  V30 5200 H 497.643 -0.422898 -0.621821 0
M  V30 5201 H 499.614 -2.31359 -1.88455 0
M  V30 5202 C 498.363 -1.19631 -3.26471 0
M  V30 5203 H 497.686 -2.04605 -3.43477 0
M  V30 5204 H 499.126 -1.21748 -4.06144 0
M  V30 5205 C 497.585 0.0968705 -3.36761 0
M  V30 5206 O 498.115 1.07439 -3.87066 0
M  V30 5207 N 496.321 0.153242 -2.90196 0
M  V30 5208 H 495.868 -0.642908 -2.49448 0
M  V30 5209 H 495.826 1.01807 -2.9746 0
M  V30 5210 N 499.598 0.982988 -1.23187 0
M  V30 5211 C 500.847 1.71817 -1.05649 0
M  V30 5212 C 501.16 1.91315 0.407176 0
M  V30 5213 O 502.366 2.62256 0.702436 0
M  V30 5214 C 500.822 3.09188 -1.84203 0
M  V30 5215 C 500.43 2.97586 -3.34882 0
M  V30 5216 C 502.174 3.86684 -1.75146 0
M  V30 5217 C 500.081 4.30173 -4.05839 0
M  V30 5218 H 499.011 0.644258 -0.391724 0
M  V30 5219 H 501.662 1.09659 -1.4713 0
M  V30 5220 H 500.044 3.72087 -1.35527 0
M  V30 5221 H 501.218 2.43793 -3.91026 0
M  V30 5222 H 499.533 2.33567 -3.44725 0
M  V30 5223 H 502.13 4.84836 -2.25473 0
M  V30 5224 H 502.473 4.10136 -0.713737 0
M  V30 5225 H 503.006 3.30482 -2.21419 0
M  V30 5226 H 499.745 4.11918 -5.09906 0
M  V30 5227 H 499.265 4.83841 -3.54482 0
M  V30 5228 H 500.944 4.98873 -4.11989 0
M  V30 5229 N 501.076 1.04316 1.18135 0
M  V30 5230 C 502.006 0.657299 2.24058 0
M  V30 5231 C 502.987 -0.340678 1.66654 0
M  V30 5232 O 504.172 -0.220223 1.92947 0
M  V30 5233 C 501.302 0.0220715 3.47293 0
M  V30 5234 C 500.256 0.943857 4.17463 0
M  V30 5235 C 499.582 0.172973 5.3442 0
M  V30 5236 C 500.882 2.26409 4.70677 0
M  V30 5237 H 502.576 1.5428 2.56589 0
M  V30 5238 H 500.122 0.743263 1.23335 0
M  V30 5239 H 502.075 -0.259607 4.206 0
M  V30 5240 H 500.799 -0.898323 3.14003 0
M  V30 5241 H 499.458 1.20996 3.46057 0
M  V30 5242 H 499.106 -0.749907 4.97379 0
M  V30 5243 H 498.806 0.787098 5.82304 0
M  V30 5244 H 500.33 -0.101628 6.10515 0
M  V30 5245 H 501.744 2.04294 5.35665 0
M  V30 5246 H 500.141 2.8314 5.29105 0
M  V30 5247 H 501.211 2.90883 3.87962 0
M  V30 5248 N 502.554 -1.34406 0.822964 0
M  V30 5249 C 503.8 -1.98578 0.411666 0
M  V30 5250 C 504.133 -1.65093 -1.02264 0
M  V30 5251 O 503.408 -0.92258 -1.71227 0
M  V30 5252 C 503.691 -3.54823 0.614235 0
M  V30 5253 C 503.544 -3.9805 2.09466 0
M  V30 5254 C 504.863 -4.40071 0.050221 0
M  V30 5255 H 501.982 -0.721355 0.151047 0
M  V30 5256 H 504.624 -1.59301 1.03554 0
M  V30 5257 H 502.774 -3.88411 0.0831774 0
M  V30 5258 H 504.446 -3.74795 2.68936 0
M  V30 5259 H 502.689 -3.4836 2.5851 0
M  V30 5260 H 503.36 -5.06819 2.18721 0
M  V30 5261 H 505.836 -4.13037 0.503953 0
M  V30 5262 H 504.712 -5.48452 0.221759 0
M  V30 5263 H 504.973 -4.29576 -1.04482 0
M  V30 5264 N 504.032 -0.577932 -1.46621 0
M  V30 5265 C 504.979 0.158048 -2.30258 0
M  V30 5266 C 505.949 0.888669 -1.40328 0
M  V30 5267 O 507.134 0.880283 -1.6928 0
M  V30 5268 C 504.274 1.16884 -3.24703 0
M  V30 5269 C 503.387 0.442163 -4.29731 0
M  V30 5270 C 502.522 1.44007 -5.11308 0
M  V30 5271 C 501.561 0.69952 -6.0809 0
M  V30 5272 N 500.698 1.64525 -6.82551 0
M  V30 5273 H 505.538 -0.561242 -2.92667 0
M  V30 5274 H 503.075 -0.288591 -1.44241 0
M  V30 5275 H 505.033 1.7677 -3.779 0
M  V30 5276 H 503.663 1.85591 -2.64113 0
M  V30 5277 H 502.715 -0.271632 -3.79429 0
M  V30 5278 H 504.027 -0.136992 -4.98612 0
M  V30 5279 H 503.181 2.11186 -5.68758 0
M  V30 5280 H 501.92 2.05315 -4.42377 0
M  V30 5281 H 500.925 0.0139217 -5.49798 0
M  V30 5282 H 502.15 0.091894 -6.79038 0
M  V30 5283 H 500.096 2.24653 -6.16334 0
M  V30 5284 H 500.013 1.11878 -7.47676 0
M  V30 5285 H 501.281 2.30754 -7.44562 0
M  V30 5286 N 505.51 1.54411 -0.315457 0
M  V30 5287 C 506.457 2.24048 0.554166 0
M  V30 5288 C 507.427 1.2283 1.11812 0
M  V30 5289 O 508.612 1.51491 1.15997 0
M  V30 5290 C 505.752 2.99574 1.71316 0
M  V30 5291 C 504.865 4.15594 1.17922 0
M  V30 5292 C 504 4.78669 2.30324 0
M  V30 5293 C 503.039 5.86807 1.74137 0
M  V30 5294 N 502.176 6.43777 2.8017 0
M  V30 5295 H 507.016 2.97964 -0.0462602 0
M  V30 5296 H 504.553 1.47059 -0.0346009 0
M  V30 5297 H 506.511 3.41604 2.39505 0
M  V30 5298 H 505.141 2.28008 2.285 0
M  V30 5299 H 504.193 3.78404 0.389136 0
M  V30 5300 H 505.505 4.93459 0.728012 0
M  V30 5301 H 504.659 5.23626 3.06433 0
M  V30 5302 H 503.398 4.00168 2.78778 0
M  V30 5303 H 502.403 5.41261 0.965236 0
M  V30 5304 H 503.628 6.67201 1.2657 0
M  V30 5305 H 501.574 5.68153 3.2793 0
M  V30 5306 H 501.491 7.17031 2.39588 0
M  V30 5307 H 502.759 6.9339 3.56132 0
M  V30 5308 N 506.988 0.0434614 1.5754 0
M  V30 5309 C 507.936 -0.951465 2.1225 0
M  V30 5310 C 508.93 -1.3274 1.05245 0
M  V30 5311 O 510.136 -1.30795 1.23663 0
M  V30 5312 H 506.511 -0.324667 0.678303 0
M  V30 5313 H 508.482 -0.464855 2.94757 0
M  V30 5314 C 507.231 -2.21972 2.67626 0
M  V30 5315 H 506.554 -1.93923 3.4962 0
M  V30 5316 H 507.994 -2.89765 3.09536 0
M  V30 5317 C 506.453 -2.95919 1.61038 0
M  V30 5318 O 506.983 -3.8857 1.01862 0
M  V30 5319 N 505.189 -2.58511 1.32741 0
M  V30 5320 H 504.736 -1.83244 1.81051 0
M  V30 5321 H 504.694 -3.08296 0.616531 0
M  V30 5322 N 508.466 -1.55915 -0.229846 0
M  V30 5323 C 509.714 -1.7819 -0.953565 0
M  V30 5324 C 510.035 -0.610504 -1.85197 0
M  V30 5325 O 509.305 0.372988 -1.92316 0
M  V30 5326 H 507.885 -0.657208 -0.355087 0
M  V30 5327 H 510.547 -1.9337 -0.243693 0
M  V30 5328 H 509.643 -2.70011 -1.56527 0
M  V30 5329 N 509.944 0.496216 -1.49584 0
M  V30 5330 C 511.172 1.27394 -1.63029 0
M  V30 5331 C 511.587 1.86344 -0.303569 0
M  V30 5332 O 510.944 1.68057 0.711547 0
M  V30 5333 C 510.995 2.40077 -2.70269 0
M  V30 5334 O 510.716 1.83549 -3.97796 0
M  V30 5335 C 512.217 3.31372 -2.94462 0
M  V30 5336 H 509.437 0.386211 -0.54871 0
M  V30 5337 H 511.981 0.595163 -1.95648 0
M  V30 5338 H 510.136 3.03775 -2.40415 0
M  V30 5339 H 510.55 2.57561 -4.56905 0
M  V30 5340 H 512.024 4.06707 -3.73221 0
M  V30 5341 H 512.501 3.88654 -2.0456 0
M  V30 5342 H 513.107 2.73435 -3.25751 0
M  V30 5343 N 511.423 1.38739 0.74761 0
M  V30 5344 C 512.663 1.36695 1.51966 0
M  V30 5345 C 513.027 -0.0411889 1.91956 0
M  V30 5346 O 514.228 -0.186543 2.68152 0
M  V30 5347 C 512.499 2.30119 2.73459 0
M  V30 5348 S 514.058 2.4615 3.63257 0
M  V30 5349 H 510.876 0.484929 0.519966 0
M  V30 5350 H 513.478 1.7472 0.877104 0
M  V30 5351 H 512.182 3.31312 2.422 0
M  V30 5352 H 511.713 1.93265 3.42655 0
M  V30 5353 H 513.728 1.69001 4.66533 0
M  V30 5354 N 512.901 -0.976442 1.23707 0
M  V30 5355 C 514.141 -1.73331 1.08332 0
M  V30 5356 C 514.505 -1.88346 -0.372781 0
M  V30 5357 O 515.706 -2.60877 -0.647813 0
M  V30 5358 C 513.977 -3.09159 1.7932 0
M  V30 5359 S 515.536 -4.00376 1.79567 0
M  V30 5360 H 512.354 -0.596045 0.387622 0
M  V30 5361 H 514.956 -1.16625 1.56904 0
M  V30 5362 H 513.66 -2.95884 2.84395 0
M  V30 5363 H 513.191 -3.70932 1.31046 0
M  V30 5364 H 515.206 -4.88742 0.857094 0
M  V30 5365 N 514.379 -1.04941 -1.1758 0
M  V30 5366 C 515.628 -0.753124 -1.87112 0
M  V30 5367 C 515.941 0.722507 -1.81767 0
M  V30 5368 O 517.147 1.13265 -2.46746 0
M  V30 5369 C 515.603 -1.29695 -3.35719 0
M  V30 5370 C 515.211 -2.80184 -3.49572 0
M  V30 5371 C 516.955 -1.07759 -4.10595 0
M  V30 5372 C 514.862 -3.2788 -4.92187 0
M  V30 5373 H 513.792 -0.278034 -0.700866 0
M  V30 5374 H 516.443 -1.26637 -1.32798 0
M  V30 5375 H 514.825 -0.711522 -3.89555 0
M  V30 5376 H 515.999 -3.44561 -3.05965 0
M  V30 5377 H 514.314 -3.00632 -2.88113 0
M  V30 5378 H 516.911 -1.40899 -5.15802 0
M  V30 5379 H 517.254 -0.0152302 -4.16297 0
M  V30 5380 H 517.787 -1.62809 -3.62957 0
M  V30 5381 H 514.526 -4.33535 -4.91658 0
M  V30 5382 H 514.046 -2.68245 -5.36475 0
M  V30 5383 H 515.725 -3.22412 -5.60945 0
M  V30 5384 N 515.857 1.33968 -0.830081 0
M  V30 5385 C 516.82 2.27694 -0.26235 0
M  V30 5386 C 517.82 1.50589 0.563876 0
M  V30 5387 O 519.01 1.70028 0.378941 0
M  V30 5388 C 516.142 3.35002 0.63138 0
M  V30 5389 H 517.335 2.79419 -1.08928 0
M  V30 5390 H 514.888 1.44221 -0.602486 0
M  V30 5391 H 515.623 2.88504 1.48109 0
M  V30 5392 H 515.408 3.92079 0.0403276 0
M  V30 5393 H 516.898 4.04897 1.02217 0
M  V30 5394 N 517.335 0.585699 1.46312 0
M  V30 5395 C 518.612 0.00542031 1.95599 0
M  V30 5396 C 518.992 -1.45619 1.52834 0
M  V30 5397 O 518.34 -2.14759 0.780446 0
M  V30 5398 C 518.55 0.180601 3.48532 0
M  V30 5399 C 519.898 0.049979 4.24571 0
M  V30 5400 O 520.922 0.109589 3.56031 0
M  V30 5401 O 519.781 -0.0832226 5.46437 0
M  V30 5402 H 516.875 -0.0481281 0.825598 0
M  V30 5403 H 519.421 0.654227 1.56582 0
M  V30 5404 H 518.193 1.19657 3.72556 0
M  V30 5405 H 517.816 -0.504498 3.94386 0
M  V30 5406 N 518.813 -1.54241 0.323641 0
M  V30 5407 C 519.743 -2.27289 -0.534993 0
M  V30 5408 C 520.724 -1.28087 -1.11927 0
M  V30 5409 O 521.909 -1.56899 -1.14439 0
M  V30 5410 C 519.039 -3.03075 -1.69596 0
M  V30 5411 C 517.993 -4.09614 -1.24098 0
M  V30 5412 C 517.319 -4.73242 -2.4889 0
M  V30 5413 C 518.619 -5.21087 -0.355789 0
M  V30 5414 H 520.313 -2.99308 0.0743257 0
M  V30 5415 H 517.859 -1.43952 0.0371874 0
M  V30 5416 H 519.812 -3.52907 -2.30293 0
M  V30 5417 H 518.536 -2.28673 -2.33187 0
M  V30 5418 H 517.195 -3.60666 -0.656945 0
M  V30 5419 H 516.843 -3.95455 -3.10845 0
M  V30 5420 H 516.543 -5.45209 -2.19138 0
M  V30 5421 H 518.067 -5.25848 -3.10348 0
M  V30 5422 H 519.481 -5.66675 -0.869042 0
M  V30 5423 H 517.878 -5.9991 -0.151045 0
M  V30 5424 H 518.948 -4.81005 0.613339 0
M  V30 5425 N 520.291 -0.0518155 -1.57515 0
M  V30 5426 C 521.539 0.620595 -1.92336 0
M  V30 5427 C 521.86 1.71345 -0.930907 0
M  V30 5428 O 521.13 1.95885 0.0241341 0
M  V30 5429 H 519.71 0.232226 -0.709986 0
M  V30 5430 H 522.372 -0.104969 -1.94617 0
M  V30 5431 H 521.468 1.05879 -2.93592 0
M  V30 5432 N 521.769 1.56035 0.221574 0
M  V30 5433 C 522.699 1.95434 1.2778 0
M  V30 5434 C 523.68 0.822564 1.48889 0
M  V30 5435 O 524.865 1.08486 1.61072 0
M  V30 5436 C 521.995 2.27102 2.62759 0
M  V30 5437 C 520.949 3.4277 2.56306 0
M  V30 5438 C 520.275 3.60043 3.95314 0
M  V30 5439 C 521.575 4.77742 2.11093 0
M  V30 5440 H 523.269 2.83912 0.950504 0
M  V30 5441 H 520.815 1.36596 0.455791 0
M  V30 5442 H 522.768 2.53256 3.36807 0
M  V30 5443 H 521.492 1.35478 2.97176 0
M  V30 5444 H 520.151 3.16664 1.84715 0
M  V30 5445 H 519.799 2.65794 4.27039 0
M  V30 5446 H 519.499 4.37841 3.91879 0
M  V30 5447 H 521.023 3.88545 4.71025 0
M  V30 5448 H 522.437 5.03102 2.74885 0
M  V30 5449 H 520.834 5.58823 2.18716 0
M  V30 5450 H 521.904 4.731 1.06321 0
M  V30 5451 N 523.247 -0.488276 1.49845 0
M  V30 5452 C 524.21 -1.57069 1.66919 0
M  V30 5453 C 525.21 -1.51445 0.540479 0
M  V30 5454 O 526.4 -1.5437 0.807188 0
M  V30 5455 C 523.532 -2.96718 1.67844 0
M  V30 5456 H 524.725 -1.43254 2.63474 0
M  V30 5457 H 522.278 -0.713435 1.39068 0
M  V30 5458 H 523.013 -3.15996 0.7292 0
M  V30 5459 H 522.798 -3.02208 2.49826 0
M  V30 5460 H 524.288 -3.75335 1.83066 0
M  V30 5461 N 524.725 -1.39134 -0.740242 0
M  V30 5462 C 525.971 -1.36273 -1.50192 0
M  V30 5463 C 526.304 0.0430136 -1.94152 0
M  V30 5464 O 525.579 1.00691 -1.66408 0
M  V30 5465 C 525.862 -2.33041 -2.74525 0
M  V30 5466 C 525.715 -3.82535 -2.36617 0
M  V30 5467 C 527.034 -2.27723 -3.76604 0
M  V30 5468 H 524.153 -0.496323 -0.544823 0
M  V30 5469 H 526.795 -1.70085 -0.846815 0
M  V30 5470 H 524.945 -2.04337 -3.30422 0
M  V30 5471 H 526.617 -4.21967 -1.86391 0
M  V30 5472 H 524.86 -3.99565 -1.68909 0
M  V30 5473 H 525.531 -4.45723 -3.2563 0
M  V30 5474 H 528.007 -2.53091 -3.30279 0
M  V30 5475 H 526.883 -2.97519 -4.61274 0
M  V30 5476 H 527.144 -1.28049 -4.2315 0
M  V30 5477 N 526.204 0.969867 -1.24223 0
M  V30 5478 C 527.62 1.23809 -1.00716 0
M  V30 5479 C 527.82 1.99469 0.285358 0
M  V30 5480 O 526.876 2.31764 1.00207 0
M  V30 5481 C 528.189 2.02734 -2.2208 0
M  V30 5482 C 529.737 2.15834 -2.26681 0
M  V30 5483 C 530.212 2.98154 -3.47661 0
M  V30 5484 N 531.703 3.05737 -3.47964 0
M  V30 5485 C 532.438 3.69785 -4.38231 0
M  V30 5486 N 531.934 4.35569 -5.3875 0
M  V30 5487 N 533.727 3.66775 -4.25949 0
M  V30 5488 H 525.878 0.463294 -2.07286 0
M  V30 5489 H 528.141 0.267348 -0.909521 0
M  V30 5490 H 527.847 1.54524 -3.15935 0
M  V30 5491 H 527.721 3.0347 -2.24021 0
M  V30 5492 H 530.108 2.63248 -1.33359 0
M  V30 5493 H 530.189 1.14453 -2.28767 0
M  V30 5494 H 529.833 2.51435 -4.41297 0
M  V30 5495 H 529.763 3.99729 -3.42818 0
M  V30 5496 H 532.254 2.58941 -2.75242 0
M  V30 5497 H 532.567 4.82251 -6.03866 0
M  V30 5498 H 530.912 4.34244 -5.42639 0
M  V30 5499 H 534.103 3.14558 -3.46657 0
M  V30 5500 H 534.276 4.16407 -4.96497 0
M  V30 5501 N 527.682 1.05563 1.17022 0
M  V30 5502 C 528.632 0.630007 2.19123 0
M  V30 5503 C 529.616 -0.335472 1.57364 0
M  V30 5504 O 530.808 -0.1521 1.76345 0
M  V30 5505 C 527.937 0.0101676 3.43298 0
M  V30 5506 C 527.023 0.999698 4.12149 0
M  V30 5507 N 527.414 2.17251 4.56766 0
M  V30 5508 C 525.712 0.829 4.38228 0
M  V30 5509 C 526.413 2.79883 5.09942 0
M  V30 5510 N 525.389 2.07656 5.02374 0
M  V30 5511 H 529.191 1.52353 2.51328 0
M  V30 5512 H 526.705 0.926288 1.33393 0
M  V30 5513 H 528.702 -0.312541 4.15727 0
M  V30 5514 H 527.362 -0.878707 3.12584 0
M  V30 5515 H 528.373 2.55067 4.50734 0
M  V30 5516 H 525.05 -0.00850974 4.17499 0
M  V30 5517 H 526.44 3.79362 5.54558 0
M  V30 5518 N 529.16 -1.33526 0.837174 0
M  V30 5519 C 530.437 -1.92369 0.354065 0
M  V30 5520 C 530.817 -1.76348 -1.16038 0
M  V30 5521 O 530.165 -1.15083 -1.97403 0
M  V30 5522 C 530.375 -3.39728 0.799101 0
M  V30 5523 C 531.723 -4.16877 0.806139 0
M  V30 5524 O 532.747 -3.48373 0.742597 0
M  V30 5525 O 531.606 -5.39166 0.892345 0
M  V30 5526 H 528.7 -0.820952 0.0998378 0
M  V30 5527 H 531.246 -1.42409 0.922913 0
M  V30 5528 H 530.018 -3.45254 1.84162 0
M  V30 5529 H 529.641 -3.97062 0.206731 0
M  V30 5530 N 530.638 -0.59345 -1.46 0
M  V30 5531 C 531.863 -0.0872365 -2.07216 0
M  V30 5532 C 532.288 1.2131 -1.43755 0
M  V30 5533 O 531.646 1.73528 -0.525152 0
M  V30 5534 C 531.694 0.0538197 -3.6056 0
M  V30 5535 O 530.798 1.10765 -3.97247 0
M  V30 5536 H 530.139 -0.0676598 -0.660544 0
M  V30 5537 H 532.669 -0.819445 -1.87473 0
M  V30 5538 H 532.679 0.256567 -4.07193 0
M  V30 5539 H 531.354 -0.895739 -4.0614 0
M  V30 5540 H 529.931 0.882501 -3.62307 0
M  V30 5541 N 532.116 1.54067 -0.331816 0
M  V30 5542 C 533.079 2.23275 0.517768 0
M  V30 5543 C 534.079 1.22897 1.03697 0
M  V30 5544 O 535.269 1.47419 0.928084 0
M  V30 5545 C 532.401 2.94326 1.72004 0
M  V30 5546 H 533.594 2.99773 -0.0873507 0
M  V30 5547 H 531.147 1.56079 -0.0830042 0
M  V30 5548 H 531.882 2.21986 2.36417 0
M  V30 5549 H 531.667 3.67941 1.35507 0
M  V30 5550 H 533.157 3.47031 2.32291 0
M  V30 5551 N 533.594 0.0601682 1.57485 0
M  V30 5552 C 534.822 -0.620937 1.97363 0
M  V30 5553 C 535.237 -1.63846 0.938082 0
M  V30 5554 O 534.594 -1.82339 -0.0766578 0
M  V30 5555 C 534.645 -1.29987 3.37321 0
M  V30 5556 O 534.366 -0.323081 4.36907 0
M  V30 5557 C 535.867 -2.06989 3.92008 0
M  V30 5558 H 533.087 -0.169135 0.649334 0
M  V30 5559 H 535.631 0.129132 2.04092 0
M  V30 5560 H 533.786 -2.0011 3.31715 0
M  V30 5561 H 534.2 -0.808754 5.18227 0
M  V30 5562 H 535.674 -2.49901 4.92192 0
M  V30 5563 H 536.151 -2.92173 3.2792 0
M  V30 5564 H 536.757 -1.41757 4.0098 0
M  V30 5565 N 535.072 -1.5615 -0.213296 0
M  V30 5566 C 536.349 -1.70349 -0.961281 0
M  V30 5567 C 536.729 -0.609791 -2.02101 0
M  V30 5568 O 536.077 0.381987 -2.25285 0
M  V30 5569 C 536.287 -3.11982 -1.56424 0
M  V30 5570 C 537.635 -3.71649 -2.05334 0
M  V30 5571 O 538.659 -3.14995 -1.66302 0
M  V30 5572 O 537.518 -4.71038 -2.77102 0
M  V30 5573 H 534.612 -0.694121 -0.449582 0
M  V30 5574 H 537.158 -1.68464 -0.204426 0
M  V30 5575 H 535.93 -3.83046 -0.799457 0
M  V30 5576 H 535.553 -3.18019 -2.38641 0
M  V30 5577 N 536.55 0.480323 -1.50102 0
M  V30 5578 C 537.778 1.25657 -1.64371 0
M  V30 5579 C 538.193 1.86011 -0.323316 0
M  V30 5580 O 537.55 1.68803 0.693682 0
M  V30 5581 C 537.601 2.37197 -2.728 0
M  V30 5582 O 537.322 1.7932 -3.9972 0
M  V30 5583 C 538.823 3.2823 -2.9796 0
M  V30 5584 H 536.043 0.380369 -0.552775 0
M  V30 5585 H 538.587 0.574379 -1.96268 0
M  V30 5586 H 536.742 3.01208 -2.43623 0
M  V30 5587 H 537.156 2.52701 -4.59611 0
M  V30 5588 H 538.63 4.02725 -3.77513 0
M  V30 5589 H 539.107 3.86462 -2.08671 0
M  V30 5590 H 539.713 2.69964 -3.28633 0
M  V30 5591 N 538.028 1.39524 0.732853 0
M  V30 5592 C 539.277 1.36175 1.48792 0
M  V30 5593 C 539.59 -0.0388195 1.95561 0
M  V30 5594 O 540.796 -0.194899 2.708 0
M  V30 5595 C 539.252 2.39242 2.68871 0
M  V30 5596 C 538.86 3.85024 2.29042 0
M  V30 5597 C 540.604 2.44972 3.46683 0
M  V30 5598 C 538.511 4.79727 3.45856 0
M  V30 5599 H 537.441 0.506267 0.558757 0
M  V30 5600 H 540.092 1.65181 0.799226 0
M  V30 5601 H 538.474 2.0331 3.39825 0
M  V30 5602 H 539.648 4.30008 1.6562 0
M  V30 5603 H 537.963 3.82609 1.64316 0
M  V30 5604 H 540.56 3.12918 4.33574 0
M  V30 5605 H 540.903 1.4749 3.89297 0
M  V30 5606 H 541.436 2.79808 2.82759 0
M  V30 5607 H 538.175 5.78479 3.08289 0
M  V30 5608 H 537.695 4.39421 4.08251 0
M  V30 5609 H 539.374 4.98731 4.12161 0
M  V30 5610 N 539.506 -0.963266 1.24736 0
M  V30 5611 C 540.783 -1.68248 0.9976 0
M  V30 5612 C 541.163 -2.05599 -0.478776 0
M  V30 5613 O 540.511 -1.7626 -1.45412 0
M  V30 5614 C 540.721 -2.91118 1.92487 0
M  V30 5615 C 542.069 -3.63261 2.19833 0
M  V30 5616 O 543.093 -3.01184 1.90176 0
M  V30 5617 O 541.952 -4.75019 2.7022 0
M  V30 5618 H 539.046 -0.735744 0.377637 0
M  V30 5619 H 541.592 -1.01696 1.35853 0
M  V30 5620 H 540.364 -2.60242 2.92215 0
M  V30 5621 H 539.987 -3.65402 1.56738 0
M  V30 5622 N 540.985 -1.06182 -1.16461 0
M  V30 5623 C 542.234 -0.772927 -1.86303 0
M  V30 5624 C 542.547 0.703187 -1.82523 0
M  V30 5625 O 543.753 1.10641 -2.47933 0
M  V30 5626 C 542.209 -1.33249 -3.34324 0
M  V30 5627 C 541.817 -2.83876 -3.46581 0
M  V30 5628 C 543.561 -1.12108 -4.09429 0
M  V30 5629 C 541.468 -3.33082 -4.88682 0
M  V30 5630 H 540.398 -0.285452 -0.697878 0
M  V30 5631 H 543.049 -1.28039 -1.31447 0
M  V30 5632 H 541.431 -0.7528 -3.88779 0
M  V30 5633 H 542.605 -3.47786 -3.02293 0
M  V30 5634 H 540.92 -3.03671 -2.84909 0
M  V30 5635 H 543.517 -1.46361 -5.14279 0
M  V30 5636 H 543.86 -0.0593832 -4.16258 0
M  V30 5637 H 544.393 -1.6665 -3.6121 0
M  V30 5638 H 541.132 -4.38726 -4.87032 0
M  V30 5639 H 540.652 -2.73919 -5.33599 0
M  V30 5640 H 542.331 -3.28344 -5.57494 0
M  V30 5641 N 542.463 1.3308 -0.844243 0
M  V30 5642 C 543.426 2.27403 -0.286485 0
M  V30 5643 C 544.426 1.51179 0.547872 0
M  V30 5644 O 545.616 1.70421 0.360886 0
M  V30 5645 C 542.748 3.35653 0.595813 0
M  V30 5646 H 543.941 2.78248 -1.11885 0
M  V30 5647 H 541.494 1.43574 -0.617749 0
M  V30 5648 H 542.229 2.90058 1.4504 0
M  V30 5649 H 542.014 3.921 -0.00125994 0
M  V30 5650 H 543.504 4.05958 0.979168 0
M  V30 5651 N 543.941 0.601185 1.45683 0
M  V30 5652 C 545.352 0.179659 1.85834 0
M  V30 5653 C 545.703 -1.26189 1.50236 0
M  V30 5654 O 544.828 -1.95587 0.925987 0
M  V30 5655 C 545.423 0.319277 3.37292 0
M  V30 5656 C 543.982 -0.0475092 3.7637 0
M  V30 5657 C 543.129 0.646692 2.69654 0
M  V30 5658 H 546.08 0.808268 1.36575 0
M  V30 5659 H 546.101 -0.4503 3.77826 0
M  V30 5660 H 545.613 1.36855 3.6317 0
M  V30 5661 H 543.714 -1.0962 3.5611 0
M  V30 5662 H 543.827 0.34168 4.7788 0
M  V30 5663 H 542.191 0.0849971 2.54558 0
M  V30 5664 H 542.974 1.69797 2.98369 0
M  V30 5665 N 545.419 -1.53889 0.339982 0
M  V30 5666 C 546.367 -2.26391 -0.533822 0
M  V30 5667 C 547.361 -1.28404 -1.10493 0
M  V30 5668 O 548.567 -1.46124 -1.05108 0
M  V30 5669 H 544.942 -0.727385 -0.190828 0
M  V30 5670 H 546.913 -2.98233 0.0997484 0
M  V30 5671 C 545.662 -3.04707 -1.67479 0
M  V30 5672 H 544.985 -3.79934 -1.2446 0
M  V30 5673 H 546.425 -3.58657 -2.26144 0
M  V30 5674 C 544.884 -2.13989 -2.60212 0
M  V30 5675 O 545.414 -1.73361 -3.62366 0
M  V30 5676 N 543.62 -1.79141 -2.28816 0
M  V30 5677 H 543.167 -2.12378 -1.45785 0
M  V30 5678 H 543.125 -1.18725 -2.91121 0
M  V30 5679 N 546.897 -0.0685191 -1.57451 0
M  V30 5680 C 547.847 0.909895 -2.09057 0
M  V30 5681 C 548.831 1.26088 -0.999528 0
M  V30 5682 O 550.023 1.24041 -1.26265 0
M  V30 5683 C 547.152 2.17863 -2.65312 0
M  V30 5684 C 546.238 1.85427 -3.81415 0
M  V30 5685 N 546.629 1.23426 -4.9051 0
M  V30 5686 C 544.927 2.15196 -3.90649 0
M  V30 5687 C 545.628 1.09008 -5.71395 0
M  V30 5688 N 544.604 1.59871 -5.1956 0
M  V30 5689 H 548.406 0.426145 -2.90794 0
M  V30 5690 H 545.92 0.135462 -1.61834 0
M  V30 5691 H 547.917 2.88872 -3.00597 0
M  V30 5692 H 546.577 2.66829 -1.85021 0
M  V30 5693 H 547.588 0.904305 -5.09944 0
M  V30 5694 H 544.265 2.66562 -3.21327 0
M  V30 5695 H 545.655 0.607305 -6.6915 0
M  V30 5696 N 548.375 1.56261 0.205012 0
M  V30 5697 C 549.791 1.49623 0.555433 0
M  V30 5698 C 549.991 0.766719 1.86343 0
M  V30 5699 O 549.047 0.313158 2.50551 0
M  V30 5700 C 550.36 2.94253 0.619347 0
M  V30 5701 C 551.908 3.04868 0.708855 0
M  V30 5702 C 552.383 4.50888 0.803969 0
M  V30 5703 N 553.874 4.54999 0.867758 0
M  V30 5704 C 554.609 5.65284 0.96135 0
M  V30 5705 N 554.105 6.85282 1.01786 0
M  V30 5706 N 555.898 5.53174 0.997771 0
M  V30 5707 H 548.049 2.0211 -0.653094 0
M  V30 5708 H 550.312 0.919333 -0.231366 0
M  V30 5709 H 550.018 3.50643 -0.272458 0
M  V30 5710 H 549.892 3.47063 1.47741 0
M  V30 5711 H 552.279 2.48532 1.5911 0
M  V30 5712 H 552.36 2.55199 -0.175205 0
M  V30 5713 H 552.004 5.07846 -0.0738798 0
M  V30 5714 H 551.934 4.98279 1.70369 0
M  V30 5715 H 554.425 3.68588 0.833735 0
M  V30 5716 H 554.738 7.65081 1.08951 0
M  V30 5717 H 553.083 6.8796 0.986706 0
M  V30 5718 H 556.274 4.5835 0.950392 0
M  V30 5719 H 556.447 6.39151 1.06725 0
M  V30 5720 N 549.853 -0.472356 1.50355 0
M  V30 5721 C 551.099 -1.22634 1.6152 0
M  V30 5722 C 551.432 -1.91645 0.313995 0
M  V30 5723 O 550.707 -1.82059 -0.684446 0
M  V30 5724 C 550.99 -2.27099 2.7946 0
M  V30 5725 C 550.843 -1.62402 4.19459 0
M  V30 5726 C 552.162 -3.28421 2.92964 0
M  V30 5727 H 549.281 -0.444494 0.587873 0
M  V30 5728 H 551.923 -0.520321 1.82737 0
M  V30 5729 H 550.073 -2.87314 2.61501 0
M  V30 5730 H 551.745 -1.05793 4.49005 0
M  V30 5731 H 549.988 -0.927184 4.23776 0
M  V30 5732 H 550.659 -2.38309 4.97909 0
M  V30 5733 H 553.135 -2.78227 3.09401 0
M  V30 5734 H 552.011 -3.98845 3.77113 0
M  V30 5735 H 552.272 -3.92467 2.03525 0
M  V30 5736 N 551.331 -1.39911 -0.725443 0
M  V30 5737 C 552.579 -1.37382 -1.48224 0
M  V30 5738 C 552.9 0.0264107 -1.94982 0
M  V30 5739 O 552.17 0.979408 -1.6966 0
M  V30 5740 H 550.75 -0.505596 -0.549892 0
M  V30 5741 H 553.412 -1.7487 -0.860608 0
M  V30 5742 H 552.508 -2.04254 -2.3598 0
M  V30 5743 N 552.809 0.956637 -1.25245 0
M  V30 5744 C 554.037 1.73571 -1.12608 0
M  V30 5745 C 554.452 1.86063 0.320324 0
M  V30 5746 O 553.809 1.35691 1.22042 0
M  V30 5747 C 553.86 3.15053 -1.77268 0
M  V30 5748 O 553.581 3.03174 -3.16255 0
M  V30 5749 C 555.082 4.09248 -1.70386 0
M  V30 5750 H 552.302 0.543955 -0.392879 0
M  V30 5751 H 554.846 1.20031 -1.65568 0
M  V30 5752 H 553.001 3.65543 -1.28284 0
M  V30 5753 H 553.415 3.9241 -3.48015 0
M  V30 5754 H 554.889 5.06138 -2.20291 0
M  V30 5755 H 555.366 4.34102 -0.667239 0
M  V30 5756 H 555.972 3.64672 -2.18849 0
M  V30 5757 N 554.287 1.06798 1.15896 0
M  V30 5758 C 555.234 0.683314 2.20453 0
M  V30 5759 C 556.204 -0.32255 1.62938 0
M  V30 5760 O 557.389 -0.210276 1.89638 0
M  V30 5761 C 554.529 0.0813266 3.45004 0
M  V30 5762 C 553.642 1.13799 4.16742 0
M  V30 5763 C 552.777 0.501598 5.28826 0
M  V30 5764 C 551.816 1.54144 5.92373 0
M  V30 5765 N 550.953 0.928038 6.9594 0
M  V30 5766 H 555.793 1.57932 2.52708 0
M  V30 5767 H 553.33 0.789544 1.24115 0
M  V30 5768 H 555.288 -0.285274 4.16224 0
M  V30 5769 H 553.918 -0.77806 3.13283 0
M  V30 5770 H 552.97 1.62223 3.44075 0
M  V30 5771 H 554.282 1.92664 4.60089 0
M  V30 5772 H 553.436 0.0823162 6.06644 0
M  V30 5773 H 552.175 -0.318883 4.86656 0
M  V30 5774 H 551.18 1.97056 5.13273 0
M  V30 5775 H 552.405 2.3641 6.36621 0
M  V30 5776 H 550.351 0.12836 6.55874 0
M  V30 5777 H 550.268 1.65401 7.37685 0
M  V30 5778 H 551.536 0.534071 7.77668 0
M  V30 5779 N 555.766 -1.3263 0.851289 0
M  V30 5780 C 557.182 -1.50162 0.5407 0
M  V30 5781 C 557.382 -1.78788 -0.929369 0
M  V30 5782 O 556.438 -1.85545 -1.71258 0
M  V30 5783 C 557.751 -2.64803 1.42478 0
M  V30 5784 C 559.299 -2.78688 1.42485 0
M  V30 5785 C 559.774 -3.96405 2.29407 0
M  V30 5786 N 561.265 -4.0366 2.27184 0
M  V30 5787 C 562 -4.93971 2.9117 0
M  V30 5788 N 561.496 -5.89313 3.64256 0
M  V30 5789 N 563.289 -4.87066 2.80576 0
M  V30 5790 H 555.44 -1.12315 1.80275 0
M  V30 5791 H 557.703 -0.553266 0.769806 0
M  V30 5792 H 557.409 -2.50368 2.46999 0
M  V30 5793 H 557.283 -3.60506 1.10974 0
M  V30 5794 H 559.67 -2.92547 0.387304 0
M  V30 5795 H 559.751 -1.83708 1.78002 0
M  V30 5796 H 559.395 -3.83304 3.33228 0
M  V30 5797 H 559.325 -4.90654 1.91224 0
M  V30 5798 H 561.816 -3.35435 1.74045 0
M  V30 5799 H 562.129 -6.54913 4.10255 0
M  V30 5800 H 560.474 -5.8935 3.68364 0
M  V30 5801 H 563.665 -4.11552 2.23031 0
M  V30 5802 H 563.838 -5.57248 3.30725 0
M  V30 5803 N 557.244 -0.608902 -1.45362 0
M  V30 5804 C 558.474 -0.110852 -2.06302 0
M  V30 5805 C 558.882 1.21062 -1.45398 0
M  V30 5806 O 558.225 1.74861 -0.562976 0
M  V30 5807 C 558.287 0.101793 -3.59356 0
M  V30 5808 C 557.951 -1.13808 -4.42602 0
M  V30 5809 C 558.948 -2.05653 -4.77496 0
M  V30 5810 C 556.633 -1.36727 -4.83333 0
M  V30 5811 C 558.627 -3.18745 -5.51978 0
M  V30 5812 C 556.314 -2.5012 -5.57569 0
M  V30 5813 C 557.312 -3.40957 -5.91809 0
M  V30 5814 O 557 -4.52376 -6.64538 0
M  V30 5815 H 556.732 -0.0666001 -0.672711 0
M  V30 5816 H 559.286 -0.836942 -1.87575 0
M  V30 5817 H 557.516 0.88279 -3.76489 0
M  V30 5818 H 559.205 0.551607 -4.02134 0
M  V30 5819 H 559.971 -1.89172 -4.46586 0
M  V30 5820 H 555.85 -0.669216 -4.56117 0
M  V30 5821 H 559.394 -3.8967 -5.78622 0
M  V30 5822 H 555.291 -2.66553 -5.87894 0
M  V30 5823 H 556.059 -4.51075 -6.82989 0
M  V30 5824 N 558.722 1.53707 -0.348139 0
M  V30 5825 C 559.655 2.21481 0.549667 0
M  V30 5826 C 560.633 1.20046 1.09671 0
M  V30 5827 O 561.817 1.48883 1.15612 0
M  V30 5828 C 558.944 2.89585 1.75664 0
M  V30 5829 C 557.99 4.04948 1.33864 0
M  V30 5830 S 558.823 5.34325 0.354577 0
M  V30 5831 C 559.979 6.05934 1.56828 0
M  V30 5832 H 560.212 2.97289 -0.0259755 0
M  V30 5833 H 557.745 1.53833 -0.132216 0
M  V30 5834 H 559.703 3.29441 2.44906 0
M  V30 5835 H 558.364 2.13535 2.30351 0
M  V30 5836 H 557.557 4.51552 2.23868 0
M  V30 5837 H 557.159 3.66893 0.725651 0
M  V30 5838 H 559.451 6.29606 2.50205 0
M  V30 5839 H 560.394 6.98799 1.14395 0
M  V30 5840 H 560.802 5.36151 1.76642 0
M  V30 5841 N 560.2 0.0768682 1.57412 0
M  V30 5842 C 561.163 -0.873949 2.11884 0
M  V30 5843 C 562.163 -1.22301 1.04398 0
M  V30 5844 O 563.353 -1.15545 1.30365 0
M  V30 5845 C 560.485 -2.17575 2.62438 0
M  V30 5846 H 561.678 -0.401278 2.97203 0
M  V30 5847 H 559.231 -0.171904 1.55352 0
M  V30 5848 H 559.966 -2.69368 1.80587 0
M  V30 5849 H 559.751 -1.93534 3.41009 0
M  V30 5850 H 561.241 -2.85631 3.04639 0
M  V30 5851 N 561.678 -1.56367 -0.196722 0
M  V30 5852 C 563.089 -1.70462 -0.761545 0
M  V30 5853 C 563.44 -0.683161 -1.83922 0
M  V30 5854 O 562.565 0.160753 -2.15802 0
M  V30 5855 C 563.16 -3.09057 -1.38814 0
M  V30 5856 C 561.719 -3.24922 -1.90007 0
M  V30 5857 C 560.866 -2.66412 -0.769399 0
M  V30 5858 H 563.817 -1.58675 0.0283263 0
M  V30 5859 H 563.838 -3.06296 -2.2575 0
M  V30 5860 H 563.35 -3.83378 -0.603559 0
M  V30 5861 H 561.451 -2.55514 -2.71189 0
M  V30 5862 H 561.564 -4.3241 -2.06297 0
M  V30 5863 H 559.928 -2.25546 -1.18326 0
M  V30 5864 H 560.711 -3.433 0.00291773 0
M  V30 5865 N 563.156 0.464375 -1.50603 0
M  V30 5866 C 564.066 1.58723 -1.72754 0
M  V30 5867 C 565.082 1.62925 -0.610844 0
M  V30 5868 O 566.258 1.8067 -0.889963 0
M  V30 5869 C 563.323 2.94897 -1.82309 0
M  V30 5870 C 562.384 3.0103 -3.06071 0
M  V30 5871 C 561.617 4.30708 -3.1516 0
M  V30 5872 O 561.84 5.2159 -2.30868 0
M  V30 5873 O 560.774 4.42571 -4.0794 0
M  V30 5874 H 564.6 1.42954 -2.67951 0
M  V30 5875 H 562.185 0.644579 -1.3478 0
M  V30 5876 H 564.067 3.75764 -1.90735 0
M  V30 5877 H 562.742 3.10851 -0.902967 0
M  V30 5878 H 561.649 2.19217 -3.03142 0
M  V30 5879 H 562.982 2.90014 -3.97684 0
M  V30 5880 N 564.634 1.40294 0.718013 0
M  V30 5881 C 565.88 1.38645 1.48005 0
M  V30 5882 C 566.213 -0.0121202 1.94196 0
M  V30 5883 O 565.488 -0.980309 1.67989 0
M  V30 5884 C 565.771 2.37379 2.70782 0
M  V30 5885 C 565.624 3.8625 2.30501 0
M  V30 5886 C 566.943 2.33685 3.72933 0
M  V30 5887 H 564.062 0.504928 0.536858 0
M  V30 5888 H 566.704 1.71411 0.819649 0
M  V30 5889 H 564.854 2.09568 3.27129 0
M  V30 5890 H 566.526 4.24879 1.79655 0
M  V30 5891 H 564.769 4.02202 1.6253 0
M  V30 5892 H 565.44 4.50847 3.18498 0
M  V30 5893 H 567.916 2.58314 3.2621 0
M  V30 5894 H 566.792 3.0482 4.56482 0
M  V30 5895 H 567.053 1.34765 4.21059 0
M  V30 5896 N 566.112 -0.949982 1.2575 0
M  V30 5897 C 567.042 -2.06483 1.09028 0
M  V30 5898 C 568.023 -1.701 -0.00201532 0
M  V30 5899 O 569.208 -1.93469 0.168383 0
M  V30 5900 C 566.338 -3.39899 0.71316 0
M  V30 5901 C 565.292 -3.90309 1.75621 0
M  V30 5902 C 564.618 -5.20274 1.23365 0
M  V30 5903 C 565.918 -4.16169 3.15596 0
M  V30 5904 H 567.612 -2.20731 2.02283 0
M  V30 5905 H 565.158 -1.06066 0.973964 0
M  V30 5906 H 567.111 -4.17346 0.58309 0
M  V30 5907 H 565.835 -3.25602 -0.255091 0
M  V30 5908 H 564.494 -3.15035 1.8748 0
M  V30 5909 H 564.142 -5.02351 0.255491 0
M  V30 5910 H 563.842 -5.54971 1.93082 0
M  V30 5911 H 565.366 -6.00314 1.11607 0
M  V30 5912 H 566.78 -4.84259 3.06864 0
M  V30 5913 H 565.177 -4.62131 3.82825 0
M  V30 5914 H 566.247 -3.22273 3.6231 0
M  V30 5915 N 567.59 -1.07411 -1.15328 0
M  V30 5916 C 568.867 -0.710732 -1.82231 0
M  V30 5917 C 569.247 0.806732 -1.95077 0
M  V30 5918 O 568.595 1.72139 -1.50268 0
M  V30 5919 C 568.805 -1.42586 -3.18544 0
M  V30 5920 C 570.153 -1.57836 -3.94174 0
M  V30 5921 O 571.177 -1.38669 -3.281 0
M  V30 5922 O 570.036 -1.8938 -5.12638 0
M  V30 5923 H 567.13 -0.25297 -0.78736 0
M  V30 5924 H 569.676 -1.17508 -1.22434 0
M  V30 5925 H 568.448 -2.46008 -3.04296 0
M  V30 5926 H 568.071 -0.952332 -3.86026 0
M  V30 5927 N 569.068 1.32177 -0.85831 0
M  V30 5928 C 570.345 1.91781 -0.384624 0
M  V30 5929 C 570.725 1.78171 1.13217 0
M  V30 5930 O 570.073 1.18209 1.95548 0
M  V30 5931 C 570.283 3.38414 -0.853047 0
M  V30 5932 C 571.631 4.15542 -0.872359 0
M  V30 5933 O 572.655 3.47148 -0.797926 0
M  V30 5934 O 571.514 5.37678 -0.978009 0
M  V30 5935 H 568.608 0.819259 -0.112886 0
M  V30 5936 H 571.154 1.40923 -0.945453 0
M  V30 5937 H 569.926 3.4228 -1.89632 0
M  V30 5938 H 569.549 3.96683 -0.269874 0
M  V30 5939 N 570.547 0.616602 1.45037 0
M  V30 5940 C 571.772 0.120192 2.07051 0
M  V30 5941 C 572.197 -1.19008 1.45666 0
M  V30 5942 O 571.555 -1.7267 0.552692 0
M  V30 5943 C 571.603 0.00354901 3.606 0
M  V30 5944 O 570.707 -1.04431 3.98958 0
M  V30 5945 H 570.048 0.0781599 0.659384 0
M  V30 5946 H 572.578 0.849167 1.86146 0
M  V30 5947 H 572.588 -0.191754 4.07549 0
M  V30 5948 H 571.263 0.960239 4.04663 0
M  V30 5949 H 569.84 -0.824749 3.63665 0
M  V30 5950 N 572.025 -1.5352 0.356285 0
M  V30 5951 C 573.274 -2.00298 -0.237373 0
M  V30 5952 C 573.587 -1.24784 -1.50627 0
M  V30 5953 O 574.793 -1.62103 -2.17795 0
M  V30 5954 C 573.249 -3.56771 -0.473545 0
M  V30 5955 C 572.857 -4.41154 0.780183 0
M  V30 5956 C 574.601 -4.1193 -1.02537 0
M  V30 5957 C 572.508 -5.89161 0.514108 0
M  V30 5958 H 571.438 -0.748307 -0.092478 0
M  V30 5959 H 574.089 -1.77283 0.473588 0
M  V30 5960 H 572.471 -3.75902 -1.24553 0
M  V30 5961 H 573.645 -4.33797 1.55425 0
M  V30 5962 H 571.96 -3.97052 1.25455 0
M  V30 5963 H 574.557 -5.20133 -1.2396 0
M  V30 5964 H 574.9 -3.65943 -1.98473 0
M  V30 5965 H 575.433 -3.96561 -0.313775 0
M  V30 5966 H 572.172 -6.39408 1.44355 0
M  V30 5967 H 571.692 -5.9939 -0.221632 0
M  V30 5968 H 573.371 -6.46857 0.136122 0
M  V30 5969 N 573.503 -0.0852151 -1.57369 0
M  V30 5970 C 574.451 0.894856 -2.14698 0
M  V30 5971 C 575.445 1.29903 -1.08727 0
M  V30 5972 O 576.651 1.27471 -1.27088 0
M  V30 5973 H 573.026 0.306569 -0.686673 0
M  V30 5974 H 574.997 0.386542 -2.95886 0
M  V30 5975 C 573.746 2.14798 -2.73417 0
M  V30 5976 H 573.069 1.84585 -3.54638 0
M  V30 5977 H 574.509 2.81456 -3.1711 0
M  V30 5978 C 572.968 2.91546 -1.68828 0
M  V30 5979 O 573.498 3.85733 -1.12129 0
M  V30 5980 N 571.704 2.54901 -1.39549 0
M  V30 5981 H 571.251 1.7838 -1.85845 0
M  V30 5982 H 571.209 3.06553 -0.698054 0
M  V30 5983 N 574.981 1.5647 0.188427 0
M  V30 5984 C 575.914 1.90146 1.26173 0
M  V30 5985 C 576.892 0.762294 1.43624 0
M  V30 5986 O 578.076 1.01395 1.58907 0
M  V30 5987 C 575.203 2.13748 2.62735 0
M  V30 5988 C 574.249 3.36448 2.62116 0
M  V30 5989 S 575.082 4.91364 2.12889 0
M  V30 5990 C 576.238 5.18041 3.51261 0
M  V30 5991 H 576.471 2.80886 0.974192 0
M  V30 5992 H 574.004 1.49335 0.392226 0
M  V30 5993 H 575.962 2.28028 3.41341 0
M  V30 5994 H 574.623 1.23747 2.88696 0
M  V30 5995 H 573.816 3.50109 3.62546 0
M  V30 5996 H 573.418 3.21196 1.91596 0
M  V30 5997 H 575.71 5.0897 4.47164 0
M  V30 5998 H 576.653 6.19764 3.42489 0
M  V30 5999 H 577.061 4.45657 3.46482 0
M  V30 6000 N 576.459 -0.456382 1.50847 0
M  V30 6001 C 577.406 -1.55249 1.70782 0
M  V30 6002 C 578.376 -1.56757 0.549231 0
M  V30 6003 O 579.561 -1.74061 0.7815 0
M  V30 6004 C 576.701 -2.93118 1.82143 0
M  V30 6005 C 575.814 -3.01285 3.09598 0
M  V30 6006 C 574.949 -4.30159 3.11667 0
M  V30 6007 C 573.988 -4.32124 4.33515 0
M  V30 6008 N 573.125 -5.52492 4.3324 0
M  V30 6009 H 577.965 -1.37555 2.64353 0
M  V30 6010 H 575.502 -0.668543 1.3103 0
M  V30 6011 H 577.46 -3.73088 1.86711 0
M  V30 6012 H 576.09 -3.09413 0.919978 0
M  V30 6013 H 575.142 -2.14096 3.14431 0
M  V30 6014 H 576.454 -2.98597 3.99551 0
M  V30 6015 H 575.608 -5.18489 3.15046 0
M  V30 6016 H 574.347 -4.35477 2.1957 0
M  V30 6017 H 573.352 -3.42189 4.30333 0
M  V30 6018 H 574.577 -4.28485 5.26856 0
M  V30 6019 H 572.523 -5.58567 3.44004 0
M  V30 6020 H 572.44 -5.51605 5.16979 0
M  V30 6021 H 573.708 -6.42906 4.40786 0
M  V30 6022 N 577.937 -1.40673 -0.710563 0
M  V30 6023 C 578.887 -1.37812 -1.81636 0
M  V30 6024 C 579.871 -0.254853 -1.58869 0
M  V30 6025 O 581.063 -0.494356 -1.69956 0
M  V30 6026 C 578.192 -1.24802 -3.19811 0
M  V30 6027 C 577.278 -2.41931 -3.48325 0
M  V30 6028 N 577.669 -3.67411 -3.47625 0
M  V30 6029 C 575.967 -2.35419 -3.78806 0
M  V30 6030 C 576.668 -4.45008 -3.74623 0
M  V30 6031 N 575.644 -3.74916 -3.93623 0
M  V30 6032 H 579.446 -2.32766 -1.79436 0
M  V30 6033 H 576.96 -1.34516 -0.909909 0
M  V30 6034 H 578.957 -1.20835 -3.99004 0
M  V30 6035 H 577.617 -0.308202 -3.23234 0
M  V30 6036 H 578.628 -4.00503 -3.28356 0
M  V30 6037 H 575.305 -1.4983 -3.89689 0
M  V30 6038 H 576.695 -5.53884 -3.80344 0
M  V30 6039 N 579.415 0.9433 -1.26252 0
M  V30 6040 C 580.662 1.68925 -1.11672 0
M  V30 6041 C 580.99 1.91499 0.340329 0
M  V30 6042 O 580.245 1.49189 1.26653 0
M  V30 6043 C 580.544 3.07073 -1.82868 0
M  V30 6044 C 580.21 3.04262 -3.32769 0
M  V30 6045 C 578.872 3.03203 -3.7366 0
M  V30 6046 C 581.224 2.96729 -4.28487 0
M  V30 6047 C 578.552 2.92373 -5.0866 0
M  V30 6048 C 580.904 2.87442 -5.63525 0
M  V30 6049 C 579.568 2.84724 -6.03729 0
M  V30 6050 H 578.838 0.618141 -0.408635 0
M  V30 6051 H 581.485 1.10124 -1.56668 0
M  V30 6052 H 579.79 3.69486 -1.30335 0
M  V30 6053 H 581.487 3.63635 -1.69029 0
M  V30 6054 H 578.077 3.05865 -3.00241 0
M  V30 6055 H 582.261 2.96658 -3.97879 0
M  V30 6056 H 577.517 2.88645 -5.38975 0
M  V30 6057 H 581.691 2.80576 -6.37377 0
M  V30 6058 H 579.318 2.76089 -7.08293 0
M  V30 6059 N 580.893 1.08022 1.14757 0
M  V30 6060 C 581.803 0.718292 2.23333 0
M  V30 6061 C 582.819 -0.273477 1.71837 0
M  V30 6062 O 583.995 -0.118406 2.01052 0
M  V30 6063 C 581.06 0.128855 3.4646 0
M  V30 6064 C 580.121 1.17473 4.12915 0
M  V30 6065 C 579.354 0.61333 5.30164 0
M  V30 6066 O 579.577 -0.568458 5.6756 0
M  V30 6067 O 578.511 1.3615 5.86299 0
M  V30 6068 H 582.337 1.62394 2.56636 0
M  V30 6069 H 579.922 0.853628 1.22611 0
M  V30 6070 H 581.804 -0.197249 4.20938 0
M  V30 6071 H 580.479 -0.750014 3.14891 0
M  V30 6072 H 579.386 1.5533 3.40328 0
M  V30 6073 H 580.719 2.02574 4.48581 0
M  V30 6074 N 582.371 -1.3172 0.865308 0
M  V30 6075 C 583.596 -2.01591 0.487415 0
M  V30 6076 C 584.021 -1.6455 -0.911307 0
M  V30 6077 O 583.379 -0.851689 -1.6005 0
M  V30 6078 C 583.427 -3.54759 0.646401 0
M  V30 6079 O 582.531 -4.11185 -0.316284 0
M  V30 6080 H 581.872 -0.634884 0.194468 0
M  V30 6081 H 584.402 -1.68024 1.16744 0
M  V30 6082 H 584.412 -4.04438 0.537932 0
M  V30 6083 H 583.087 -3.8106 1.66632 0
M  V30 6084 H 581.664 -3.72543 -0.163162 0
M  V30 6085 N 583.85 -0.624285 -1.44708 0
M  V30 6086 C 585.096 -0.126051 -2.02107 0
M  V30 6087 C 585.425 1.2496 -1.49048 0
M  V30 6088 O 584.68 1.84163 -0.662005 0
M  V30 6089 C 584.979 -0.0546353 -3.57358 0
M  V30 6090 C 584.644 -1.36815 -4.29642 0
M  V30 6091 C 583.307 -1.72792 -4.49106 0
M  V30 6092 C 585.659 -2.23549 -4.70824 0
M  V30 6093 C 582.986 -2.95222 -5.07012 0
M  V30 6094 C 585.339 -3.45243 -5.30085 0
M  V30 6095 C 584.003 -3.81452 -5.47769 0
M  V30 6096 H 583.273 -0.0461252 -0.739563 0
M  V30 6097 H 585.92 -0.809236 -1.73562 0
M  V30 6098 H 584.225 0.711891 -3.85278 0
M  V30 6099 H 585.922 0.347282 -3.99493 0
M  V30 6100 H 582.512 -1.07817 -4.14817 0
M  V30 6101 H 586.696 -1.9705 -4.55505 0
M  V30 6102 H 581.952 -3.23361 -5.18891 0
M  V30 6103 H 586.125 -4.12689 -5.60946 0
M  V30 6104 H 583.753 -4.76403 -5.92405 0
M  V30 6105 N 585.328 1.53329 -0.364422 0
M  V30 6106 C 586.275 2.25698 0.482607 0
M  V30 6107 C 587.245 1.26325 1.07848 0
M  V30 6108 O 588.43 1.55104 1.11119 0
M  V30 6109 C 585.57 3.04873 1.61699 0
M  V30 6110 C 584.683 4.19135 1.0464 0
M  V30 6111 C 583.818 4.85754 2.14979 0
M  V30 6112 C 582.857 5.9205 1.5538 0
M  V30 6113 N 581.994 6.52365 2.59547 0
M  V30 6114 H 586.834 2.97666 -0.141032 0
M  V30 6115 H 584.371 1.46875 -0.0813692 0
M  V30 6116 H 586.329 3.49051 2.28516 0
M  V30 6117 H 584.959 2.35162 2.2113 0
M  V30 6118 H 584.011 3.79451 0.268553 0
M  V30 6119 H 585.323 4.95525 0.570653 0
M  V30 6120 H 584.477 5.3311 2.89619 0
M  V30 6121 H 583.216 4.08834 2.65906 0
M  V30 6122 H 582.221 5.44058 0.792549 0
M  V30 6123 H 583.446 6.7089 1.0528 0
M  V30 6124 H 581.392 5.78298 3.09689 0
M  V30 6125 H 581.309 7.2429 2.16655 0
M  V30 6126 H 582.577 7.0437 3.33892 0
M  V30 6127 N 586.806 0.0935595 1.57322 0
M  V30 6128 C 588.222 -0.263091 1.57417 0
M  V30 6129 C 588.422 -1.68526 1.1046 0
M  V30 6130 O 587.478 -2.40139 0.780357 0
M  V30 6131 C 588.791 -0.0529201 3.00653 0
M  V30 6132 C 590.339 -0.120788 3.12767 0
M  V30 6133 C 590.814 0.0613707 4.57959 0
M  V30 6134 N 592.305 0.00648534 4.632 0
M  V30 6135 C 593.04 0.122699 5.73269 0
M  V30 6136 N 592.536 0.29366 6.92177 0
M  V30 6137 N 594.329 0.0640787 5.62063 0
M  V30 6138 H 586.48 1.02277 1.86154 0
M  V30 6139 H 588.743 0.4007 0.859153 0
M  V30 6140 H 588.449 0.929279 3.39201 0
M  V30 6141 H 588.323 -0.795899 3.68708 0
M  V30 6142 H 590.71 -1.09349 2.74093 0
M  V30 6143 H 590.791 0.653656 2.47307 0
M  V30 6144 H 590.435 1.03093 4.97327 0
M  V30 6145 H 590.365 -0.732748 5.21477 0
M  V30 6146 H 592.856 -0.123173 3.77699 0
M  V30 6147 H 593.169 0.37389 7.71895 0
M  V30 6148 H 591.514 0.329307 6.94219 0
M  V30 6149 H 594.705 -0.0683396 4.6805 0
M  V30 6150 H 594.878 0.158097 6.47807 0
M  V30 6151 N 588.284 -1.56567 -0.180126 0
M  V30 6152 C 589.247 -1.94852 -1.20686 0
M  V30 6153 C 590.247 -0.831212 -1.3765 0
M  V30 6154 O 591.437 -1.09841 -1.35206 0
M  V30 6155 C 588.569 -2.23565 -2.57355 0
M  V30 6156 H 589.762 -2.86722 -0.879225 0
M  V30 6157 H 587.315 -1.50489 -0.422237 0
M  V30 6158 H 588.05 -1.34381 -2.95148 0
M  V30 6159 H 587.835 -3.04999 -2.46411 0
M  V30 6160 H 589.325 -2.54137 -3.31367 0
M  V30 6161 N 589.762 0.448376 -1.51087 0
M  V30 6162 C 591.039 1.20926 -1.53741 0
M  V30 6163 C 591.419 2.09025 -0.295222 0
M  V30 6164 O 590.767 2.16851 0.720283 0
M  V30 6165 C 590.977 2.02067 -2.84552 0
M  V30 6166 C 592.325 2.59486 -3.36084 0
M  V30 6167 O 593.349 2.12289 -2.86028 0
M  V30 6168 O 592.208 3.45539 -4.23397 0
M  V30 6169 H 589.302 0.549951 -0.617643 0
M  V30 6170 H 591.848 0.458344 -1.63393 0
M  V30 6171 H 590.62 1.37291 -3.66425 0
M  V30 6172 H 590.243 2.84246 -2.78011 0
M  V30 6173 N 591.24 1.41047 0.703093 0
M  V30 6174 C 592.489 1.39301 1.4587 0
M  V30 6175 C 592.802 0.00267077 1.956 0
M  V30 6176 O 594.008 -0.137414 2.71152 0
M  V30 6177 C 592.464 2.44891 2.63735 0
M  V30 6178 C 592.072 3.89796 2.20824 0
M  V30 6179 C 593.816 2.5227 3.41409 0
M  V30 6180 C 591.723 4.86955 3.35602 0
M  V30 6181 H 590.653 0.518005 0.547893 0
M  V30 6182 H 593.304 1.66839 0.764009 0
M  V30 6183 H 591.686 2.10472 3.35436 0
M  V30 6184 H 592.86 4.33424 1.56461 0
M  V30 6185 H 591.175 3.86008 1.56163 0
M  V30 6186 H 593.772 3.22044 4.26839 0
M  V30 6187 H 594.115 1.55714 3.86081 0
M  V30 6188 H 594.648 2.85742 2.7676 0
M  V30 6189 H 591.387 5.84888 2.9595 0
M  V30 6190 H 590.907 4.47982 3.98839 0
M  V30 6191 H 592.586 5.07361 4.01489 0
M  V30 6192 N 592.718 -0.936591 1.26751 0
M  V30 6193 C 593.948 -1.71509 1.15188 0
M  V30 6194 C 594.356 -1.86885 -0.295037 0
M  V30 6195 O 593.699 -1.37915 -1.21347 0
M  V30 6196 C 593.761 -3.13853 1.75318 0
M  V30 6197 C 593.425 -3.21845 3.24445 0
M  V30 6198 C 594.422 -3.04771 4.21201 0
M  V30 6199 C 592.107 -3.45088 3.64992 0
M  V30 6200 C 594.101 -3.10816 5.56482 0
M  V30 6201 C 591.788 -3.50767 5.00405 0
M  V30 6202 C 592.786 -3.33648 5.9596 0
M  V30 6203 O 592.474 -3.39045 7.28906 0
M  V30 6204 H 592.206 -0.543658 0.401761 0
M  V30 6205 H 594.76 -1.18234 1.67958 0
M  V30 6206 H 592.99 -3.6857 1.17016 0
M  V30 6207 H 594.679 -3.73634 1.58596 0
M  V30 6208 H 595.445 -2.86665 3.91214 0
M  V30 6209 H 591.324 -3.57467 2.91098 0
M  V30 6210 H 594.868 -2.97372 6.31043 0
M  V30 6211 H 590.765 -3.68396 5.30052 0
M  V30 6212 H 591.533 -3.55558 7.37238 0
M  V30 6213 N 594.196 -1.08629 -1.14182 0
M  V30 6214 C 595.159 -0.722027 -2.1753 0
M  V30 6215 C 596.159 0.244305 -1.58933 0
M  V30 6216 O 597.349 0.0235545 -1.74184 0
M  V30 6217 C 594.481 -0.0663966 -3.40835 0
M  V30 6218 H 595.674 -1.63719 -2.51269 0
M  V30 6219 H 593.227 -0.884442 -1.28869 0
M  V30 6220 H 593.962 0.860389 -3.12678 0
M  V30 6221 H 593.747 -0.761598 -3.84632 0
M  V30 6222 H 595.237 0.173346 -4.1724 0
M  V30 6223 N 595.674 1.31259 -0.872281 0
M  V30 6224 C 596.607 2.26544 -0.274394 0
M  V30 6225 C 597.585 1.51213 0.597776 0
M  V30 6226 O 598.769 1.80277 0.550687 0
M  V30 6227 C 595.896 3.33139 0.611256 0
M  V30 6228 C 594.942 4.26077 -0.189876 0
M  V30 6229 S 595.775 5.11971 -1.56989 0
M  V30 6230 C 596.931 6.2208 -0.690427 0
M  V30 6231 H 597.164 2.76908 -1.0821 0
M  V30 6232 H 594.697 1.3906 -0.670939 0
M  V30 6233 H 596.655 3.95024 1.11654 0
M  V30 6234 H 595.316 2.81525 1.39294 0
M  V30 6235 H 594.509 5.01657 0.485433 0
M  V30 6236 H 594.111 3.68701 -0.627339 0
M  V30 6237 H 596.403 6.77429 0.098001 0
M  V30 6238 H 597.346 6.93768 -1.41742 0
M  V30 6239 H 597.754 5.63915 -0.256953 0
M  V30 6240 N 597.152 0.631951 1.44375 0
M  V30 6241 C 598.4 0.136497 2.01639 0
M  V30 6242 C 598.721 -1.24637 1.49969 0
M  V30 6243 O 597.991 -1.82827 0.70363 0
M  V30 6244 H 596.571 0.0474703 0.74549 0
M  V30 6245 H 599.233 0.818837 1.76865 0
M  V30 6246 H 598.329 0.104817 3.11924 0
M  V30 6247 N 598.631 -1.53133 0.372548 0
M  V30 6248 C 599.561 -2.28876 -0.462412 0
M  V30 6249 C 600.542 -1.31583 -1.07796 0
M  V30 6250 O 601.727 -1.60461 -1.09389 0
M  V30 6251 C 598.857 -3.08317 -1.59868 0
M  V30 6252 C 597.811 -4.13355 -1.11003 0
M  V30 6253 C 597.137 -4.8092 -2.33708 0
M  V30 6254 C 598.437 -5.21955 -0.18983 0
M  V30 6255 H 600.131 -2.9892 0.169511 0
M  V30 6256 H 597.677 -1.43761 0.0829658 0
M  V30 6257 H 599.63 -3.60055 -2.18949 0
M  V30 6258 H 598.354 -2.35976 -2.25794 0
M  V30 6259 H 597.013 -3.62573 -0.541869 0
M  V30 6260 H 596.661 -4.05144 -2.98106 0
M  V30 6261 H 596.361 -5.51904 -2.01682 0
M  V30 6262 H 597.885 -5.35455 -2.93462 0
M  V30 6263 H 599.299 -5.69153 -0.688319 0
M  V30 6264 H 597.696 -6.00087 0.0398887 0
M  V30 6265 H 598.766 -4.78811 0.766057 0
M  V30 6266 N 600.109 -0.101901 -1.5727 0
M  V30 6267 C 601.355 0.561027 -1.94885 0
M  V30 6268 C 601.688 1.6741 -0.984258 0
M  V30 6269 O 600.963 1.94491 -0.0184767 0
M  V30 6270 C 601.246 1.10982 -3.42571 0
M  V30 6271 C 601.099 0.00133418 -4.498 0
M  V30 6272 C 602.418 2.00608 -3.9172 0
M  V30 6273 H 599.537 0.202467 -0.708644 0
M  V30 6274 H 602.179 -0.173992 -1.89202 0
M  V30 6275 H 600.329 1.73621 -3.47546 0
M  V30 6276 H 602.001 -0.63322 -4.56933 0
M  V30 6277 H 600.244 -0.664143 -4.28686 0
M  V30 6278 H 600.915 0.426253 -5.50352 0
M  V30 6279 H 603.391 1.47864 -3.88941 0
M  V30 6280 H 602.267 2.3593 -4.95609 0
M  V30 6281 H 602.528 2.92608 -3.3141 0
M  V30 6282 N 601.587 1.56661 0.17182 0
M  V30 6283 C 602.834 1.81965 0.888529 0
M  V30 6284 C 603.162 0.6789 1.82267 0
M  V30 6285 O 602.417 -0.333875 1.92831 0
M  V30 6286 C 602.716 3.13435 1.71736 0
M  V30 6287 C 602.382 4.41159 0.932184 0
M  V30 6288 C 601.044 4.75851 0.715481 0
M  V30 6289 C 603.396 5.19803 0.381387 0
M  V30 6290 C 600.724 5.86666 -0.063126 0
M  V30 6291 C 603.076 6.31433 -0.384129 0
M  V30 6292 C 601.74 6.64692 -0.611637 0
M  V30 6293 H 601.01 0.665859 0.325136 0
M  V30 6294 H 603.657 1.90884 0.153495 0
M  V30 6295 H 601.962 2.99857 2.52177 0
M  V30 6296 H 603.659 3.30224 2.27493 0
M  V30 6297 H 600.249 4.13947 1.11112 0
M  V30 6298 H 604.433 4.93396 0.536148 0
M  V30 6299 H 599.689 6.10892 -0.249136 0
M  V30 6300 H 603.863 6.91577 -0.818185 0
M  V30 6301 H 601.49 7.50398 -1.21684 0
M  V30 6302 N 603.065 -0.440357 1.51323 0
M  V30 6303 C 604.311 -1.18874 1.65047 0
M  V30 6304 C 604.666 -1.88988 0.360742 0
M  V30 6305 O 603.959 -1.80479 -0.643272 0
M  V30 6306 C 604.153 -2.2339 2.78984 0
M  V30 6307 C 603.982 -1.63534 4.18911 0
M  V30 6308 C 602.752 -1.42158 4.84891 0
M  V30 6309 C 604.95 -1.11324 5.02107 0
M  V30 6310 N 602.932 -0.778679 6.08942 0
M  V30 6311 C 604.303 -0.595421 6.17134 0
M  V30 6312 C 606.358 -1.00471 4.87658 0
M  V30 6313 C 605.061 0.0202557 7.19297 0
M  V30 6314 C 607.087 -0.402928 5.90026 0
M  V30 6315 C 606.449 0.10436 7.04323 0
M  V30 6316 H 602.548 -0.422771 0.657866 0
M  V30 6317 H 605.132 -0.485814 1.88542 0
M  V30 6318 H 603.303 -2.91074 2.57158 0
M  V30 6319 H 605.035 -2.90366 2.81904 0
M  V30 6320 H 601.79 -1.68247 4.42707 0
M  V30 6321 H 602.214 -0.474755 6.75333 0
M  V30 6322 H 606.856 -1.38278 3.99548 0
M  V30 6323 H 604.574 0.410468 8.07057 0
M  V30 6324 H 608.16 -0.320897 5.80914 0
M  V30 6325 H 607.04 0.562697 7.82179 0
M  V30 6326 N 604.543 -1.41418 -0.695603 0
M  V30 6327 C 605.453 -1.45622 -1.83933 0
M  V30 6328 C 606.469 -0.346825 -1.70508 0
M  V30 6329 O 607.645 -0.59454 -1.92424 0
M  V30 6330 C 604.71 -1.33627 -3.19914 0
M  V30 6331 C 603.771 -2.54882 -3.45447 0
M  V30 6332 C 603.004 -2.43449 -4.7494 0
M  V30 6333 O 603.227 -1.45905 -5.51424 0
M  V30 6334 O 602.161 -3.33206 -5.01256 0
M  V30 6335 H 605.987 -2.42114 -1.83342 0
M  V30 6336 H 603.572 -1.22956 -0.848658 0
M  V30 6337 H 605.454 -1.29221 -4.01098 0
M  V30 6338 H 604.129 -0.402508 -3.21188 0
M  V30 6339 H 603.036 -2.64865 -2.64192 0
M  V30 6340 H 604.369 -3.47087 -3.48987 0
M  V30 6341 N 606.021 0.929856 -1.27246 0
M  V30 6342 C 607.27 1.67182 -1.12842 0
M  V30 6343 C 607.583 1.9287 0.325666 0
M  V30 6344 O 608.789 2.64999 0.590572 0
M  V30 6345 C 607.245 3.01097 -1.97151 0
M  V30 6346 C 606.853 2.83115 -3.47203 0
M  V30 6347 C 608.597 3.78907 -1.91389 0
M  V30 6348 C 606.504 4.12573 -4.23719 0
M  V30 6349 H 605.434 0.627064 -0.418697 0
M  V30 6350 H 608.085 1.0332 -1.51649 0
M  V30 6351 H 606.467 3.66004 -1.51186 0
M  V30 6352 H 607.641 2.26989 -4.01015 0
M  V30 6353 H 605.956 2.18736 -3.54321 0
M  V30 6354 H 608.553 4.74837 -2.45834 0
M  V30 6355 H 608.896 4.0674 -0.887047 0
M  V30 6356 H 609.429 3.20794 -2.35237 0
M  V30 6357 H 606.168 3.8992 -5.26918 0
M  V30 6358 H 605.688 4.68371 -3.74685 0
M  V30 6359 H 607.367 4.8095 -4.32777 0
M  V30 6360 N 607.499 1.09233 1.13605 0
M  V30 6361 C 608.462 0.733553 2.17144 0
M  V30 6362 C 609.462 -0.235873 1.59061 0
M  V30 6363 O 610.652 -0.0143167 1.74194 0
M  V30 6364 C 607.784 0.084471 3.40795 0
M  V30 6365 H 608.977 1.65049 2.50397 0
M  V30 6366 H 606.53 0.891264 1.28399 0
M  V30 6367 H 607.265 -0.843795 3.1313 0
M  V30 6368 H 607.05 0.781985 3.84223 0
M  V30 6369 H 608.54 -0.151216 4.17326 0
M  V30 6370 N 608.977 -1.30795 0.87923 0
M  V30 6371 C 610.393 -1.48981 0.57243 0
M  V30 6372 C 610.593 -1.80719 -0.891236 0
M  V30 6373 O 609.649 -1.89136 -1.67283 0
M  V30 6374 C 610.962 -2.61721 1.48063 0
M  V30 6375 C 612.51 -2.75603 1.48365 0
M  V30 6376 C 612.985 -3.91449 2.37763 0
M  V30 6377 N 614.476 -3.98751 2.35695 0
M  V30 6378 C 615.211 -4.87684 3.01583 0
M  V30 6379 N 614.707 -5.81454 3.76674 0
M  V30 6380 N 616.5 -4.81005 2.90844 0
M  V30 6381 H 608.651 -1.08465 1.82617 0
M  V30 6382 H 610.914 -0.536813 0.781368 0
M  V30 6383 H 610.62 -2.45073 2.52254 0
M  V30 6384 H 610.494 -3.58071 1.18596 0
M  V30 6385 H 612.881 -2.9166 0.44927 0
M  V30 6386 H 612.962 -1.79891 1.81859 0
M  V30 6387 H 612.606 -3.76149 3.41283 0
M  V30 6388 H 612.536 -4.86487 2.01589 0
M  V30 6389 H 615.027 -3.31668 1.81121 0
M  V30 6390 H 615.34 -6.46063 4.24054 0
M  V30 6391 H 613.685 -5.81403 3.80782 0
M  V30 6392 H 616.876 -4.06728 2.31711 0
M  V30 6393 H 617.049 -5.50107 3.42471 0
M  V30 6394 N 610.455 -0.639598 -1.44038 0
M  V30 6395 C 611.871 -0.305953 -1.5664 0
M  V30 6396 C 612.071 1.19055 -1.62567 0
M  V30 6397 O 611.127 1.97492 -1.57331 0
M  V30 6398 C 612.44 -1.00533 -2.83397 0
M  V30 6399 C 613.988 -0.984278 -2.97121 0
M  V30 6400 C 614.463 -1.66428 -4.26691 0
M  V30 6401 N 615.954 -1.63127 -4.33525 0
M  V30 6402 C 616.689 -2.12629 -5.32519 0
M  V30 6403 N 616.185 -2.70359 -6.3787 0
M  V30 6404 N 617.978 -2.03208 -5.24083 0
M  V30 6405 H 610.129 -1.6109 -1.38434 0
M  V30 6406 H 612.392 -0.676672 -0.663942 0
M  V30 6407 H 612.098 -2.06034 -2.85032 0
M  V30 6408 H 611.972 -0.548362 -3.73193 0
M  V30 6409 H 614.359 0.0622792 -2.95034 0
M  V30 6410 H 614.44 -1.47981 -2.08651 0
M  V30 6411 H 614.084 -2.71034 -4.29538 0
M  V30 6412 H 614.014 -1.14351 -5.14034 0
M  V30 6413 H 616.505 -1.20987 -3.58009 0
M  V30 6414 H 616.818 -3.05842 -7.09704 0
M  V30 6415 H 615.163 -2.74414 -6.38531 0
M  V30 6416 H 618.354 -1.57823 -4.40692 0
M  V30 6417 H 618.527 -2.42097 -6.01077 0
M  V30 6418 N 611.933 1.52934 -0.380664 0
M  V30 6419 C 613.173 2.03378 0.204161 0
M  V30 6420 C 613.537 1.26132 1.44758 0
M  V30 6421 O 614.738 1.66657 2.109 0
M  V30 6422 C 613.009 3.54241 0.474118 0
M  V30 6423 S 614.568 4.26529 1.03046 0
M  V30 6424 H 611.386 0.708608 0.0582719 0
M  V30 6425 H 613.988 1.88263 -0.527017 0
M  V30 6426 H 612.692 4.08055 -0.438088 0
M  V30 6427 H 612.223 3.73547 1.23396 0
M  V30 6428 H 614.238 4.38964 2.31354 0
M  V30 6429 N 613.412 0.11024 1.57214 0
M  V30 6430 C 614.637 -0.561179 1.99664 0
M  V30 6431 C 615.062 -1.59985 0.989266 0
M  V30 6432 O 614.42 -1.81255 -0.0402399 0
M  V30 6433 C 614.468 -1.17189 3.41027 0
M  V30 6434 O 613.572 -2.28755 3.4314 0
M  V30 6435 H 612.913 -0.14101 0.648855 0
M  V30 6436 H 615.443 0.196128 2.03658 0
M  V30 6437 H 615.453 -1.50954 3.79047 0
M  V30 6438 H 614.128 -0.411041 4.13864 0
M  V30 6439 H 612.705 -1.96495 3.16929 0
M  V30 6440 N 614.89 -1.56749 -0.16351 0
M  V30 6441 C 616.139 -1.81626 -0.877211 0
M  V30 6442 C 616.452 -0.688791 -1.83071 0
M  V30 6443 O 617.658 -0.822697 -2.58735 0
M  V30 6444 C 616.114 -3.21858 -1.61045 0
M  V30 6445 C 615.722 -4.42494 -0.700195 0
M  V30 6446 C 617.466 -3.56021 -2.31192 0
M  V30 6447 C 615.373 -5.73748 -1.43412 0
M  V30 6448 H 614.303 -0.67731 -0.331312 0
M  V30 6449 H 616.954 -1.83039 -0.13006 0
M  V30 6450 H 615.336 -3.14784 -2.40264 0
M  V30 6451 H 616.51 -4.60766 0.0555849 0
M  V30 6452 H 614.825 -4.1626 -0.10799 0
M  V30 6453 H 617.422 -4.51333 -2.8671 0
M  V30 6454 H 617.765 -2.81277 -3.06902 0
M  V30 6455 H 618.298 -3.64682 -1.58909 0
M  V30 6456 H 615.037 -6.51543 -0.719186 0
M  V30 6457 H 614.557 -5.5944 -2.16302 0
M  V30 6458 H 616.236 -6.15975 -1.9795 0
M  V30 6459 N 616.368 0.432326 -1.51554 0
M  V30 6460 C 617.616 1.17901 -1.64146 0
M  V30 6461 C 617.937 1.91604 -0.362367 0
M  V30 6462 O 617.207 1.85764 0.621968 0
M  V30 6463 H 615.787 0.438206 -0.604966 0
M  V30 6464 H 618.449 0.495172 -1.88505 0
M  V30 6465 H 617.545 1.90584 -2.47152 0
M  V30 6466 N 617.846 1.41785 0.688094 0
M  V30 6467 C 619.094 1.41264 1.4453 0
M  V30 6468 C 619.415 0.0252946 1.94984 0
M  V30 6469 O 618.685 -0.934081 1.72197 0
M  V30 6470 H 617.265 0.519998 0.536294 0
M  V30 6471 H 619.927 1.7709 0.813941 0
M  V30 6472 H 619.023 2.10439 2.30482 0
M  V30 6473 N 619.324 -0.923095 1.27737 0
M  V30 6474 C 620.573 -1.66581 1.13727 0
M  V30 6475 C 620.886 -1.9304 -0.315433 0
M  V30 6476 O 622.092 -2.65309 -0.57651 0
M  V30 6477 C 620.548 -3.00047 1.98745 0
M  V30 6478 C 620.156 -2.8127 3.48699 0
M  V30 6479 C 621.9 -3.77887 1.93395 0
M  V30 6480 C 619.807 -4.1032 4.25901 0
M  V30 6481 H 618.737 -0.624834 0.422017 0
M  V30 6482 H 621.388 -1.02514 1.52194 0
M  V30 6483 H 619.77 -3.65197 1.53125 0
M  V30 6484 H 620.944 -2.24859 4.02213 0
M  V30 6485 H 619.259 -2.16854 3.55476 0
M  V30 6486 H 621.856 -4.73526 2.48348 0
M  V30 6487 H 622.199 -4.06264 0.908605 0
M  V30 6488 H 622.732 -3.19541 2.36935 0
M  V30 6489 H 619.471 -3.8712 5.28978 0
M  V30 6490 H 618.991 -4.66377 3.77163 0
M  V30 6491 H 620.67 -4.78648 4.35321 0
M  V30 6492 N 620.802 -1.09834 -1.13024 0
M  V30 6493 C 621.752 -0.710899 -2.16634 0
M  V30 6494 C 622.736 0.276836 -1.58501 0
M  V30 6495 O 623.928 0.0865457 -1.76788 0
M  V30 6496 C 621.057 -0.137574 -3.43024 0
M  V30 6497 C 620.143 -1.15198 -4.08155 0
M  V30 6498 N 620.534 -2.34054 -4.48388 0
M  V30 6499 C 618.832 -0.991074 -4.34849 0
M  V30 6500 C 619.533 -2.98616 -4.99203 0
M  V30 6501 N 618.509 -2.26159 -4.94321 0
M  V30 6502 H 622.311 -1.61576 -2.455 0
M  V30 6503 H 619.825 -0.975158 -1.29863 0
M  V30 6504 H 621.822 0.158031 -4.166 0
M  V30 6505 H 620.482 0.762088 -3.1563 0
M  V30 6506 H 621.493 -2.7162 -4.40957 0
M  V30 6507 H 618.17 -0.146448 -4.17243 0
M  V30 6508 H 619.56 -3.99683 -5.40096 0
M  V30 6509 N 622.28 1.30327 -0.886154 0
M  V30 6510 C 623.19 2.31854 -0.357866 0
M  V30 6511 C 624.206 1.65392 0.540502 0
M  V30 6512 O 625.382 1.96683 0.433339 0
M  V30 6513 C 622.447 3.44171 0.417999 0
M  V30 6514 C 621.508 4.26257 -0.510263 0
M  V30 6515 C 620.741 5.3321 0.228669 0
M  V30 6516 O 620.964 5.51542 1.45458 0
M  V30 6517 O 619.898 6.0042 -0.421832 0
M  V30 6518 H 623.724 2.78995 -1.19982 0
M  V30 6519 H 621.309 1.34518 -0.650028 0
M  V30 6520 H 623.191 4.12588 0.857251 0
M  V30 6521 H 621.866 2.99164 1.23623 0
M  V30 6522 H 620.773 3.60533 -0.99835 0
M  V30 6523 H 622.106 4.74871 -1.29454 0
M  V30 6524 N 623.758 0.647228 1.43697 0
M  V30 6525 C 625.035 0.0883758 1.954 0
M  V30 6526 C 625.415 -1.39006 1.58873 0
M  V30 6527 O 624.763 -2.11255 0.87083 0
M  V30 6528 C 624.973 0.328263 3.47453 0
M  V30 6529 C 626.321 0.230009 4.23977 0
M  V30 6530 O 627.345 0.260496 3.55246 0
M  V30 6531 O 626.204 0.148615 5.46298 0
M  V30 6532 H 623.298 -0.0130683 0.826897 0
M  V30 6533 H 625.844 0.72005 1.53666 0
M  V30 6534 H 624.616 1.3535 3.67146 0
M  V30 6535 H 624.239 -0.336772 3.96171 0
M  V30 6536 N 625.236 -1.5273 0.388769 0
M  V30 6537 C 626.466 -2.05693 -0.193397 0
M  V30 6538 C 626.874 -1.26038 -1.41107 0
M  V30 6539 O 626.217 -0.30001 -1.81234 0
M  V30 6540 C 626.279 -3.53962 -0.628561 0
M  V30 6541 C 625.943 -4.54519 0.475576 0
M  V30 6542 C 626.94 -5.02526 1.33281 0
M  V30 6543 C 624.625 -4.98174 0.642453 0
M  V30 6544 C 626.619 -5.92812 2.34205 0
M  V30 6545 C 624.306 -5.88262 1.65503 0
M  V30 6546 C 625.304 -6.35473 2.50325 0
M  V30 6547 O 624.992 -7.23781 3.49852 0
M  V30 6548 H 624.724 -0.675197 -0.0329395 0
M  V30 6549 H 627.278 -1.97835 0.552326 0
M  V30 6550 H 625.508 -3.59437 -1.42625 0
M  V30 6551 H 627.197 -3.89669 -1.13633 0
M  V30 6552 H 627.963 -4.6953 1.21519 0
M  V30 6553 H 623.842 -4.60999 -0.00805093 0
M  V30 6554 H 627.386 -6.29585 3.00447 0
M  V30 6555 H 623.283 -6.20672 1.77304 0
M  V30 6556 H 624.051 -7.4184 3.45855 0
M  V30 6557 N 626.714 -0.118576 -1.57153 0
M  V30 6558 C 627.646 0.862247 -2.12363 0
M  V30 6559 C 628.659 1.23025 -1.06625 0
M  V30 6560 O 629.848 1.17927 -1.33998 0
M  V30 6561 C 626.948 2.16425 -2.60794 0
M  V30 6562 C 626.121 1.96801 -3.90626 0
M  V30 6563 C 625.18 3.10726 -4.2466 0
M  V30 6564 O 624.206 2.83659 -4.93484 0
M  V30 6565 N 625.408 4.37147 -3.81946 0
M  V30 6566 H 628.173 0.390564 -2.97144 0
M  V30 6567 H 625.734 0.0658591 -1.61766 0
M  V30 6568 H 627.726 2.91633 -2.80593 0
M  V30 6569 H 626.296 2.54943 -1.80895 0
M  V30 6570 H 625.516 1.05787 -3.7974 0
M  V30 6571 H 626.804 1.80993 -4.7552 0
M  V30 6572 H 626.202 4.62014 -3.26435 0
M  V30 6573 H 624.759 5.09229 -4.06853 0
M  V30 6574 N 628.193 1.56834 0.155195 0
M  V30 6575 C 629.123 2.00678 1.19376 0
M  V30 6576 C 630.104 0.884973 1.45266 0
M  V30 6577 O 631.289 1.1522 1.56326 0
M  V30 6578 C 628.419 2.38042 2.5289 0
M  V30 6579 C 627.373 3.53332 2.41538 0
M  V30 6580 C 626.699 3.76485 3.79688 0
M  V30 6581 C 627.999 4.86265 1.9064 0
M  V30 6582 H 629.693 2.87688 0.829232 0
M  V30 6583 H 627.239 1.38407 0.397445 0
M  V30 6584 H 629.192 2.67314 3.25763 0
M  V30 6585 H 627.916 1.4796 2.91162 0
M  V30 6586 H 626.575 3.24213 1.71117 0
M  V30 6587 H 626.223 2.83667 4.15382 0
M  V30 6588 H 625.923 4.54068 3.72956 0
M  V30 6589 H 627.447 4.08174 4.54122 0
M  V30 6590 H 628.861 5.14308 2.53299 0
M  V30 6591 H 627.258 5.67597 1.94818 0
M  V30 6592 H 628.328 4.77184 0.861596 0
M  V30 6593 N 629.671 -0.424282 1.51781 0
M  V30 6594 C 631.082 -1.00368 1.57427 0
M  V30 6595 C 631.433 -1.91962 0.40558 0
M  V30 6596 O 630.558 -2.111 -0.47601 0
M  V30 6597 C 631.153 -1.82707 2.85313 0
M  V30 6598 C 629.712 -2.35675 2.93487 0
M  V30 6599 C 628.859 -1.1524 2.5222 0
M  V30 6600 H 631.81 -0.205064 1.5737 0
M  V30 6601 H 631.831 -2.68294 2.69812 0
M  V30 6602 H 631.343 -1.16017 3.70353 0
M  V30 6603 H 629.444 -3.05781 2.12906 0
M  V30 6604 H 629.557 -2.67578 3.97415 0
M  V30 6605 H 627.921 -1.50174 2.05718 0
M  V30 6606 H 628.704 -0.5014 3.39619 0
M  V30 6607 N 631.149 -1.42148 -0.680565 0
M  V30 6608 C 632.379 -1.45485 -1.46689 0
M  V30 6609 C 632.787 -0.0629451 -1.89095 0
M  V30 6610 O 632.13 0.931397 -1.58337 0
M  V30 6611 C 632.192 -2.31397 -2.75129 0
M  V30 6612 C 631.856 -3.79353 -2.54834 0
M  V30 6613 C 632.853 -4.71148 -2.19808 0
M  V30 6614 C 630.538 -4.23557 -2.70008 0
M  V30 6615 C 632.532 -6.05139 -2.00215 0
M  V30 6616 C 630.219 -5.57609 -2.50031 0
M  V30 6617 C 631.217 -6.48216 -2.15187 0
M  V30 6618 O 630.905 -7.79792 -1.95397 0
M  V30 6619 H 630.637 -0.497139 -0.458071 0
M  V30 6620 H 633.191 -1.87252 -0.844139 0
M  V30 6621 H 631.421 -1.84468 -3.39865 0
M  V30 6622 H 633.11 -2.26257 -3.36991 0
M  V30 6623 H 633.876 -4.38282 -2.07686 0
M  V30 6624 H 629.755 -3.53327 -2.96109 0
M  V30 6625 H 633.299 -6.75823 -1.72941 0
M  V30 6626 H 629.196 -5.9005 -2.61748 0
M  V30 6627 H 629.964 -7.91091 -2.10042 0
M  V30 6628 N 632.627 0.916307 -1.28225 0
M  V30 6629 C 633.857 1.69654 -1.17902 0
M  V30 6630 C 634.265 1.87331 0.265268 0
M  V30 6631 O 633.608 1.39828 1.19137 0
M  V30 6632 C 633.67 3.11024 -1.80289 0
M  V30 6633 C 633.334 3.16643 -3.29525 0
M  V30 6634 C 634.331 2.98032 -4.25997 0
M  V30 6635 C 632.016 3.39238 -3.70436 0
M  V30 6636 C 634.01 3.01924 -5.61356 0
M  V30 6637 C 631.697 3.42762 -5.05922 0
M  V30 6638 C 632.695 3.24125 -6.01192 0
M  V30 6639 O 632.383 3.27406 -7.34208 0
M  V30 6640 H 632.115 0.537197 -0.41036 0
M  V30 6641 H 634.669 1.15547 -1.69817 0
M  V30 6642 H 632.899 3.66662 -1.22865 0
M  V30 6643 H 634.588 3.71063 -1.6452 0
M  V30 6644 H 635.354 2.80405 -3.95725 0
M  V30 6645 H 631.233 3.52791 -2.96749 0
M  V30 6646 H 634.777 2.87295 -6.35694 0
M  V30 6647 H 630.674 3.59916 -5.35846 0
M  V30 6648 H 631.442 3.43784 -7.42802 0
M  V30 6649 N 634.105 1.10431 1.1244 0
M  V30 6650 C 635.382 0.758797 1.80282 0
M  V30 6651 C 635.762 -0.754727 1.97147 0
M  V30 6652 O 635.11 -1.68094 1.54779 0
M  V30 6653 C 635.32 1.50982 3.14651 0
M  V30 6654 C 636.668 1.68232 3.8985 0
M  V30 6655 O 637.692 1.47319 3.24308 0
M  V30 6656 O 636.551 2.02905 5.07437 0
M  V30 6657 H 633.645 0.273756 0.780376 0
M  V30 6658 H 636.191 1.20713 1.19275 0
M  V30 6659 H 634.963 2.53989 2.97666 0
M  V30 6660 H 634.586 1.05435 3.83366 0
M  V30 6661 N 635.583 -1.29855 0.893053 0
M  V30 6662 C 636.513 -2.3035 0.382249 0
M  V30 6663 C 637.494 -1.61328 -0.539203 0
M  V30 6664 O 638.679 -1.88882 -0.451342 0
M  V30 6665 C 635.809 -3.45024 -0.396983 0
M  V30 6666 C 634.763 -4.258 0.433437 0
M  V30 6667 C 634.089 -5.32605 -0.472889 0
M  V30 6668 C 635.389 -4.94549 1.67984 0
M  V30 6669 H 637.083 -2.73325 1.22205 0
M  V30 6670 H 634.629 -1.314 0.589073 0
M  V30 6671 H 636.582 -4.14398 -0.765024 0
M  V30 6672 H 635.306 -3.00875 -1.2705 0
M  V30 6673 H 633.965 -3.58125 0.783723 0
M  V30 6674 H 633.613 -4.84702 -1.34435 0
M  V30 6675 H 633.313 -5.87547 0.0789958 0
M  V30 6676 H 634.837 -6.04832 -0.837269 0
M  V30 6677 H 636.251 -5.56395 1.38192 0
M  V30 6678 H 634.648 -5.59393 2.17254 0
M  V30 6679 H 635.718 -4.20215 2.41965 0
M  V30 6680 N 637.061 -0.65484 -1.43351 0
M  V30 6681 C 638.307 -0.169142 -2.02093 0
M  V30 6682 C 638.64 1.21431 -1.51553 0
M  V30 6683 O 637.915 1.81105 -0.709317 0
M  V30 6684 C 638.198 -0.181775 -3.59641 0
M  V30 6685 C 638.051 -1.59926 -4.20409 0
M  V30 6686 C 639.37 0.480945 -4.37464 0
M  V30 6687 H 636.489 -0.0629371 -0.734308 0
M  V30 6688 H 639.131 -0.835833 -1.70628 0
M  V30 6689 H 637.281 0.385918 -3.86578 0
M  V30 6690 H 638.953 -2.21766 -4.04497 0
M  V30 6691 H 637.196 -2.14605 -3.76998 0
M  V30 6692 H 637.867 -1.55994 -5.295 0
M  V30 6693 H 640.343 -0.00208273 -4.161 0
M  V30 6694 H 639.219 0.441384 -5.47122 0
M  V30 6695 H 639.48 1.55533 -4.13838 0
M  V30 6696 N 638.539 1.52521 -0.396863 0
M  V30 6697 C 639.95 1.86547 0.0754868 0
M  V30 6698 C 640.301 1.31621 1.45501 0
M  V30 6699 O 639.426 0.650563 2.0639 0
M  V30 6700 C 640.021 3.38495 0.143754 0
M  V30 6701 C 638.58 3.72205 0.560413 0
M  V30 6702 C 637.727 2.75954 -0.272856 0
M  V30 6703 H 640.678 1.46323 -0.614434 0
M  V30 6704 H 640.699 3.68153 0.961425 0
M  V30 6705 H 640.211 3.78442 -0.860415 0
M  V30 6706 H 638.312 3.3783 1.57167 0
M  V30 6707 H 638.425 4.78074 0.313314 0
M  V30 6708 H 636.789 2.53339 0.263 0
M  V30 6709 H 637.572 3.1874 -1.27515 0
M  V30 6710 N 640.017 0.126909 1.57088 0
M  V30 6711 C 641.242 -0.53997 2.00248 0
M  V30 6712 C 641.667 -1.58927 1.00618 0
M  V30 6713 O 641.025 -1.81288 -0.0210131 0
M  V30 6714 C 641.073 -1.13565 3.4225 0
M  V30 6715 O 640.177 -2.25103 3.45547 0
M  V30 6716 H 639.518 -0.13412 0.650314 0
M  V30 6717 H 642.048 0.217718 2.03438 0
M  V30 6718 H 642.058 -1.46925 3.80627 0
M  V30 6719 H 640.733 -0.367122 4.14277 0
M  V30 6720 H 639.31 -1.93123 3.18995 0
M  V30 6721 N 641.495 -1.56914 -0.146875 0
M  V30 6722 C 642.772 -1.74273 -0.888165 0
M  V30 6723 C 643.152 -0.69496 -1.99333 0
M  V30 6724 O 642.5 0.286093 -2.26702 0
M  V30 6725 C 642.71 -3.18336 -1.43051 0
M  V30 6726 C 644.058 -3.80024 -1.89387 0
M  V30 6727 O 645.082 -3.21765 -1.52792 0
M  V30 6728 O 643.941 -4.82367 -2.56874 0
M  V30 6729 H 641.035 -0.712565 -0.419738 0
M  V30 6730 H 643.581 -1.6918 -0.132791 0
M  V30 6731 H 642.353 -3.86092 -0.636274 0
M  V30 6732 H 641.976 -3.27854 -2.24938 0
M  V30 6733 N 642.974 0.416227 -1.52004 0
M  V30 6734 C 644.385 0.995319 -1.57957 0
M  V30 6735 C 644.736 1.91744 -0.415754 0
M  V30 6736 O 643.861 2.11349 0.464808 0
M  V30 6737 C 644.456 1.81191 -2.86278 0
M  V30 6738 C 643.015 2.34115 -2.94732 0
M  V30 6739 C 642.162 1.139 -2.52828 0
M  V30 6740 H 645.113 0.196716 -1.57476 0
M  V30 6741 H 645.134 2.66859 -2.71231 0
M  V30 6742 H 644.646 1.14051 -3.70963 0
M  V30 6743 H 642.747 3.04647 -2.14525 0
M  V30 6744 H 642.86 2.65466 -3.98829 0
M  V30 6745 H 641.224 1.49081 -2.06511 0
M  V30 6746 H 642.007 0.483383 -3.3988 0
M  V30 6747 N 644.452 1.42507 0.673017 0
M  V30 6748 C 645.677 1.4668 1.46627 0
M  V30 6749 C 646.102 0.080066 1.8793 0
M  V30 6750 O 645.46 -0.921879 1.56112 0
M  V30 6751 C 645.508 2.40091 2.69051 0
M  V30 6752 O 644.612 1.8735 3.67387 0
M  V30 6753 H 643.953 0.496908 0.44043 0
M  V30 6754 H 646.483 1.87215 0.825334 0
M  V30 6755 H 646.493 2.56731 3.17101 0
M  V30 6756 H 645.168 3.4084 2.3833 0
M  V30 6757 H 643.745 1.80274 3.26429 0
M  V30 6758 N 645.93 -0.909495 1.28709 0
M  V30 6759 C 647.176 -1.66151 1.16283 0
M  V30 6760 C 647.509 -1.92067 -0.287069 0
M  V30 6761 O 646.784 -1.52409 -1.20837 0
M  V30 6762 C 647.067 -3.01676 1.9663 0
M  V30 6763 C 646.92 -2.82888 3.49707 0
M  V30 6764 C 648.239 -4.02274 1.78504 0
M  V30 6765 H 645.358 -0.602966 0.423793 0
M  V30 6766 H 648 -1.05418 1.58073 0
M  V30 6767 H 646.15 -3.53515 1.61119 0
M  V30 6768 H 647.822 -2.38026 3.95147 0
M  V30 6769 H 646.065 -2.17862 3.75125 0
M  V30 6770 H 646.736 -3.79147 4.01187 0
M  V30 6771 H 649.212 -3.59511 2.09503 0
M  V30 6772 H 648.088 -4.95056 2.37088 0
M  V30 6773 H 648.349 -4.35903 0.737647 0
M  V30 6774 N 647.408 -1.11026 -1.11852 0
M  V30 6775 C 648.318 -0.777252 -2.2135 0
M  V30 6776 C 649.334 0.227821 -1.72502 0
M  V30 6777 O 650.51 0.0650587 -2.01295 0
M  V30 6778 C 647.575 -0.220668 -3.45997 0
M  V30 6779 C 646.636 -1.2838 -4.09655 0
M  V30 6780 C 645.869 -0.753678 -5.28352 0
M  V30 6781 O 646.092 0.417779 -5.68868 0
M  V30 6782 O 645.026 -1.51647 -5.82483 0
M  V30 6783 H 648.852 -1.69141 -2.5224 0
M  V30 6784 H 646.437 -0.885836 -1.20305 0
M  V30 6785 H 648.319 0.0855756 -4.21313 0
M  V30 6786 H 646.994 0.666262 -3.16769 0
M  V30 6787 H 645.901 -1.64299 -3.3609 0
M  V30 6788 H 647.234 -2.14396 -4.43052 0
M  V30 6789 N 648.886 1.2938 -0.899927 0
M  V30 6790 C 649.796 2.31462 -0.382437 0
M  V30 6791 C 650.812 1.65956 0.522929 0
M  V30 6792 O 651.988 1.97131 0.412454 0
M  V30 6793 C 649.053 3.44595 0.381472 0
M  V30 6794 C 648.114 4.25692 -0.555444 0
M  V30 6795 C 647.347 5.33422 0.172102 0
M  V30 6796 O 647.57 5.53053 1.396 0
M  V30 6797 O 646.504 5.99939 -0.485491 0
M  V30 6798 H 650.33 2.77706 -1.22934 0
M  V30 6799 H 647.915 1.33821 -0.664259 0
M  V30 6800 H 649.797 4.13474 0.813442 0
M  V30 6801 H 648.472 3.00458 1.20443 0
M  V30 6802 H 647.379 3.59453 -1.03653 0
M  V30 6803 H 648.712 4.73471 -1.34483 0
M  V30 6804 N 650.364 0.662433 1.43002 0
M  V30 6805 C 651.297 -0.073459 2.28082 0
M  V30 6806 C 652.275 -0.820869 1.40358 0
M  V30 6807 O 653.459 -0.818545 1.698 0
M  V30 6808 C 650.586 -1.11097 3.19961 0
M  V30 6809 C 649.632 -0.460557 4.24006 0
M  V30 6810 S 650.465 0.772717 5.29896 0
M  V30 6811 C 651.621 -0.264028 6.25343 0
M  V30 6812 H 651.854 0.648227 2.90147 0
M  V30 6813 H 649.387 0.451566 1.47649 0
M  V30 6814 H 651.345 -1.70452 3.73439 0
M  V30 6815 H 650.006 -1.80503 2.57056 0
M  V30 6816 H 649.199 -1.24299 4.88432 0
M  V30 6817 H 648.801 0.0591038 3.73953 0
M  V30 6818 H 651.093 -1.12748 6.68052 0
M  V30 6819 H 652.036 0.345443 7.07257 0
M  V30 6820 H 652.444 -0.603964 5.6126 0
M  V30 6821 N 651.842 -1.52309 0.404946 0
M  V30 6822 C 653.258 -1.59503 0.0556255 0
M  V30 6823 C 653.458 -1.41805 -1.43156 0
M  V30 6824 O 652.514 -1.2429 -2.19792 0
M  V30 6825 C 653.827 -2.95687 0.546801 0
M  V30 6826 C 655.375 -3.08909 0.504413 0
M  V30 6827 C 655.85 -4.47566 0.97203 0
M  V30 6828 N 657.341 -4.53795 0.928679 0
M  V30 6829 C 658.076 -5.59346 1.26174 0
M  V30 6830 N 657.572 -6.72469 1.66604 0
M  V30 6831 N 659.365 -5.49532 1.18198 0
M  V30 6832 H 651.516 -1.6206 1.37296 0
M  V30 6833 H 653.779 -0.762161 0.563751 0
M  V30 6834 H 653.485 -3.13905 1.58609 0
M  V30 6835 H 653.359 -3.77172 -0.0457905 0
M  V30 6836 H 655.746 -2.90378 -0.525819 0
M  V30 6837 H 655.827 -2.2934 1.13301 0
M  V30 6838 H 655.471 -4.6684 2.00057 0
M  V30 6839 H 655.401 -5.25625 0.320292 0
M  V30 6840 H 657.892 -3.72588 0.631369 0
M  V30 6841 H 658.205 -7.48993 1.9034 0
M  V30 6842 H 656.55 -6.73761 1.70504 0
M  V30 6843 H 659.741 -4.60038 0.865011 0
M  V30 6844 H 659.914 -6.31687 1.44485 0
M  V30 6845 N 653.32 -0.135238 -1.57019 0
M  V30 6846 C 654.267 0.808908 -2.1616 0
M  V30 6847 C 655.237 1.25234 -1.09113 0
M  V30 6848 O 656.422 1.32697 -1.37099 0
M  V30 6849 C 653.562 2.04729 -2.77813 0
M  V30 6850 C 652.675 1.65074 -3.99218 0
M  V30 6851 C 651.81 2.84002 -4.48906 0
M  V30 6852 C 650.849 2.40663 -5.62803 0
M  V30 6853 N 649.986 3.5256 -6.07162 0
M  V30 6854 H 654.826 0.297751 -2.96509 0
M  V30 6855 H 652.363 0.135264 -1.46477 0
M  V30 6856 H 654.321 2.7731 -3.11697 0
M  V30 6857 H 652.951 2.53275 -2.00128 0
M  V30 6858 H 652.003 0.823029 -3.7139 0
M  V30 6859 H 653.315 1.29236 -4.81767 0
M  V30 6860 H 652.469 3.64788 -4.84783 0
M  V30 6861 H 651.208 3.23076 -3.65339 0
M  V30 6862 H 650.213 1.58314 -5.26514 0
M  V30 6863 H 651.438 2.02687 -6.48147 0
M  V30 6864 H 649.384 3.91278 -5.26534 0
M  V30 6865 H 649.301 3.20699 -6.84608 0
M  V30 6866 H 650.569 4.33738 -6.47682 0
M  V30 6867 N 654.798 1.5699 0.138552 0
M  V30 6868 C 656.044 1.84081 0.85099 0
M  V30 6869 C 656.377 0.718107 1.80435 0
M  V30 6870 O 655.652 -0.277633 1.92508 0
M  V30 6871 C 655.935 3.21699 1.61808 0
M  V30 6872 C 655.788 4.44544 0.685633 0
M  V30 6873 C 657.107 3.5664 2.57868 0
M  V30 6874 H 654.226 0.669592 0.307922 0
M  V30 6875 H 656.868 1.89646 0.11588 0
M  V30 6876 H 655.018 3.17086 2.24474 0
M  V30 6877 H 656.69 4.61248 0.0693179 0
M  V30 6878 H 654.933 4.338 -0.00421993 0
M  V30 6879 H 655.604 5.3746 1.25858 0
M  V30 6880 H 658.08 3.61918 2.05316 0
M  V30 6881 H 656.956 4.53946 3.08584 0
M  V30 6882 H 657.217 2.83036 3.39622 0
M  V30 6883 N 656.276 -0.40816 1.52223 0
M  V30 6884 C 657.522 -1.15673 1.66576 0
M  V30 6885 C 657.855 -1.90141 0.394996 0
M  V30 6886 O 657.13 -1.84798 -0.606613 0
M  V30 6887 C 657.413 -2.15042 2.88841 0
M  V30 6888 C 657.266 -1.44465 4.25969 0
M  V30 6889 C 658.585 -3.15699 3.0663 0
M  V30 6890 H 655.704 -0.41916 0.606196 0
M  V30 6891 H 658.346 -0.442348 1.84779 0
M  V30 6892 H 656.496 -2.75964 2.73452 0
M  V30 6893 H 658.168 -0.866544 4.53088 0
M  V30 6894 H 656.411 -0.746612 4.27327 0
M  V30 6895 H 657.082 -2.16976 5.07568 0
M  V30 6896 H 659.558 -2.64854 3.20923 0
M  V30 6897 H 658.434 -3.82491 3.9369 0
M  V30 6898 H 658.695 -3.83481 2.19987 0
M  V30 6899 N 657.755 -1.42862 -0.66545 0
M  V30 6900 C 658.995 -1.45323 -1.43738 0
M  V30 6901 C 659.359 -0.0707969 -1.91869 0
M  V30 6902 O 660.56 0.0298852 -2.68783 0
M  V30 6903 C 658.831 -2.45671 -2.59577 0
M  V30 6904 S 660.39 -2.6691 -3.48288 0
M  V30 6905 H 657.208 -0.51442 -0.490809 0
M  V30 6906 H 659.81 -1.79537 -0.773745 0
M  V30 6907 H 658.514 -3.44869 -2.22471 0
M  V30 6908 H 658.045 -2.12914 -3.30804 0
M  V30 6909 H 660.06 -1.95914 -4.55886 0
M  V30 6910 N 659.233 0.902656 -1.29189 0
M  V30 6911 C 660.143 2.03946 -1.15944 0
M  V30 6912 C 661.159 1.738 -0.0833803 0
M  V30 6913 O 662.335 1.9923 -0.29487 0
M  V30 6914 C 659.4 3.36519 -0.834006 0
M  V30 6915 C 658.461 3.80203 -1.9936 0
M  V30 6916 C 657.694 5.06449 -1.68359 0
M  V30 6917 O 657.917 5.67202 -0.603141 0
M  V30 6918 O 656.851 5.46114 -2.53067 0
M  V30 6919 H 660.677 2.18043 -2.11403 0
M  V30 6920 H 658.262 1.02584 -1.08613 0
M  V30 6921 H 660.144 4.16089 -0.666949 0
M  V30 6922 H 658.819 3.23573 0.0908245 0
M  V30 6923 H 657.726 3.01413 -2.21588 0
M  V30 6924 H 659.059 3.97729 -2.89952 0
M  V30 6925 N 660.711 1.11618 1.11262 0
M  V30 6926 C 661.643 0.734015 2.17129 0
M  V30 6927 C 662.656 -0.235243 1.61091 0
M  V30 6928 O 663.845 -0.0178597 1.78491 0
M  V30 6929 C 660.945 0.0643682 3.38839 0
M  V30 6930 C 660.118 1.06092 4.24339 0
M  V30 6931 C 659.177 0.420482 5.24517 0
M  V30 6932 O 658.203 1.07495 5.58957 0
M  V30 6933 N 659.405 -0.815828 5.74739 0
M  V30 6934 H 662.17 1.64492 2.50524 0
M  V30 6935 H 659.731 1.00664 1.26801 0
M  V30 6936 H 661.723 -0.375851 4.02951 0
M  V30 6937 H 660.293 -0.749147 3.03491 0
M  V30 6938 H 659.513 1.67903 3.56654 0
M  V30 6939 H 660.801 1.73507 4.78302 0
M  V30 6940 H 660.199 -1.36668 5.48943 0
M  V30 6941 H 658.756 -1.199 6.40677 0
M  V30 6942 N 662.189 -1.289 0.906776 0
M  V30 6943 C 663.136 -2.2751 0.388313 0
M  V30 6944 C 664.106 -1.57301 -0.533439 0
M  V30 6945 O 665.291 -1.85243 -0.457148 0
M  V30 6946 C 662.431 -3.43091 -0.37181 0
M  V30 6947 C 661.544 -4.28066 0.581647 0
M  V30 6948 C 660.679 -5.30837 -0.19623 0
M  V30 6949 C 659.718 -6.07472 0.751294 0
M  V30 6950 N 658.855 -7.021 0.00737727 0
M  V30 6951 H 663.695 -2.71237 1.23428 0
M  V30 6952 H 661.232 -1.33397 0.619962 0
M  V30 6953 H 663.19 -4.08888 -0.828641 0
M  V30 6954 H 661.82 -3.00374 -1.18218 0
M  V30 6955 H 660.872 -3.62378 1.157 0
M  V30 6956 H 662.184 -4.81382 1.30665 0
M  V30 6957 H 661.338 -6.02485 -0.71394 0
M  V30 6958 H 660.077 -4.78272 -0.954324 0
M  V30 6959 H 659.082 -5.34682 1.28044 0
M  V30 6960 H 660.307 -6.62126 1.50883 0
M  V30 6961 H 658.253 -6.51894 -0.732854 0
M  V30 6962 H 658.17 -7.53004 0.672334 0
M  V30 6963 H 659.438 -7.77956 -0.490365 0
M  V30 6964 N 663.667 -0.670007 -1.42649 0
M  V30 6965 C 664.597 -0.00258501 -2.335 0
M  V30 6966 C 665.578 0.794364 -1.50412 0
M  V30 6967 O 666.763 0.75248 -1.79029 0
M  V30 6968 C 663.893 0.952748 -3.33976 0
M  V30 6969 C 662.847 0.264733 -4.2718 0
M  V30 6970 C 662.173 1.33267 -5.17826 0
M  V30 6971 C 663.473 -0.853289 -5.15283 0
M  V30 6972 H 665.167 -0.761326 -2.89559 0
M  V30 6973 H 662.713 -0.367561 -1.3923 0
M  V30 6974 H 664.666 1.4287 -3.96442 0
M  V30 6975 H 663.39 1.74285 -2.7621 0
M  V30 6976 H 662.049 -0.190938 -3.66102 0
M  V30 6977 H 661.697 2.11464 -4.5639 0
M  V30 6978 H 661.397 0.877476 -5.81011 0
M  V30 6979 H 662.921 1.80965 -5.83167 0
M  V30 6980 H 664.335 -0.458763 -5.71462 0
M  V30 6981 H 662.732 -1.23398 -5.87276 0
M  V30 6982 H 663.802 -1.70412 -4.53969 0
M  V30 6983 N 665.145 1.52092 -0.413018 0
M  V30 6984 C 666.561 1.59471 -0.0640836 0
M  V30 6985 C 666.761 1.42562 1.42402 0
M  V30 6986 O 665.817 1.25453 2.19129 0
M  V30 6987 C 667.13 2.95392 -0.562474 0
M  V30 6988 C 668.678 3.08637 -0.520788 0
M  V30 6989 C 669.153 4.47044 -0.995752 0
M  V30 6990 N 670.644 4.53296 -0.952732 0
M  V30 6991 C 671.379 5.58669 -1.29138 0
M  V30 6992 N 670.875 6.71576 -1.70168 0
M  V30 6993 N 672.668 5.48898 -1.2111 0
M  V30 6994 H 664.819 1.6133 -1.38153 0
M  V30 6995 H 667.082 0.75916 -0.567785 0
M  V30 6996 H 666.788 3.13059 -1.60271 0
M  V30 6997 H 666.662 3.77191 0.0257875 0
M  V30 6998 H 669.049 2.90652 0.510412 0
M  V30 6999 H 669.13 2.28735 -1.14515 0
M  V30 7000 H 668.774 4.65773 -2.0253 0
M  V30 7001 H 668.704 5.25448 -0.348162 0
M  V30 7002 H 671.195 3.72248 -0.651119 0
M  V30 7003 H 671.508 7.47973 -1.9431 0
M  V30 7004 H 669.853 6.72847 -1.74075 0
M  V30 7005 H 673.044 4.59573 -0.889396 0
M  V30 7006 H 673.217 6.30912 -1.47833 0
M  V30 7007 N 666.623 0.143563 1.56945 0
M  V30 7008 C 668.034 -0.37783 1.82837 0
M  V30 7009 C 668.385 -1.64967 1.06209 0
M  V30 7010 O 667.51 -2.14221 0.306291 0
M  V30 7011 C 668.105 -0.692274 3.31652 0
M  V30 7012 C 666.664 -1.1582 3.58138 0
M  V30 7013 C 665.811 -0.17951 2.76718 0
M  V30 7014 H 668.762 0.368317 1.54367 0
M  V30 7015 H 668.783 -1.54729 3.47619 0
M  V30 7016 H 668.295 0.233572 3.87397 0
M  V30 7017 H 666.396 -2.10011 3.07776 0
M  V30 7018 H 666.509 -1.08655 4.66616 0
M  V30 7019 H 664.873 -0.671458 2.4569 0
M  V30 7020 H 665.656 0.739865 3.35233 0
M  V30 7021 N 668.101 -1.57061 -0.130224 0
M  V30 7022 C 669.049 -2.00486 -1.17933 0
M  V30 7023 C 670.043 -0.899933 -1.43519 0
M  V30 7024 O 671.249 -1.08514 -1.43613 0
M  V30 7025 H 667.624 -0.638441 -0.397363 0
M  V30 7026 H 669.595 -2.87848 -0.786501 0
M  V30 7027 C 668.344 -2.41565 -2.50084 0
M  V30 7028 H 667.667 -3.26148 -2.31231 0
M  V30 7029 H 669.107 -2.75757 -3.22078 0
M  V30 7030 C 667.566 -1.27485 -3.11848 0
M  V30 7031 O 668.096 -0.584688 -3.97422 0
M  V30 7032 N 666.302 -1.03478 -2.71552 0
M  V30 7033 H 665.849 -1.59779 -2.02061 0
M  V30 7034 H 665.807 -0.27341 -3.13209 0
M  V30 7035 N 669.579 0.400081 -1.52437 0
M  V30 7036 C 670.828 1.14332 -1.66166 0
M  V30 7037 C 671.141 1.91419 -0.402253 0
M  V30 7038 O 672.347 2.6824 -0.419487 0
M  V30 7039 C 670.803 2.08137 -2.9361 0
M  V30 7040 C 670.411 1.36524 -4.26691 0
M  V30 7041 C 672.155 2.82664 -3.16703 0
M  V30 7042 C 670.062 2.29031 -5.45251 0
M  V30 7043 H 668.992 0.430499 -0.61902 0
M  V30 7044 H 671.643 0.407017 -1.78929 0
M  V30 7045 H 670.025 2.85358 -2.74567 0
M  V30 7046 H 671.199 0.646061 -4.56249 0
M  V30 7047 H 669.514 0.74002 -4.09771 0
M  V30 7048 H 672.111 3.52037 -4.0246 0
M  V30 7049 H 672.454 3.46122 -2.31312 0
M  V30 7050 H 672.987 2.12541 -3.36261 0
M  V30 7051 H 669.726 1.70206 -6.33017 0
M  V30 7052 H 669.246 2.98896 -5.2002 0
M  V30 7053 H 670.925 2.89359 -5.78689 0
M  V30 7054 N 671.057 1.43213 0.657864 0
M  V30 7055 C 672.468 1.39669 1.23893 0
M  V30 7056 C 672.819 0.0984217 1.95953 0
M  V30 7057 O 671.944 -0.8023 2.00978 0
M  V30 7058 C 672.539 2.53004 2.25332 0
M  V30 7059 C 671.098 2.5274 2.78926 0
M  V30 7060 C 670.245 2.30941 1.53497 0
M  V30 7061 H 673.196 1.52181 0.450172 0
M  V30 7062 H 673.217 2.24226 3.07413 0
M  V30 7063 H 672.729 3.4748 1.72856 0
M  V30 7064 H 670.83 1.6213 3.35477 0
M  V30 7065 H 670.943 3.50352 3.26787 0
M  V30 7066 H 669.307 1.7952 1.80678 0
M  V30 7067 H 670.09 3.27496 1.02963 0
M  V30 7068 N 672.536 -0.895792 1.29666 0
M  V30 7069 C 673.484 -2.02173 1.15017 0
M  V30 7070 C 674.478 -1.69276 0.0647651 0
M  V30 7071 O 675.684 -1.7859 0.224846 0
M  V30 7072 H 672.059 -0.662719 0.355397 0
M  V30 7073 H 674.03 -2.11666 2.10334 0
M  V30 7074 C 672.779 -3.37212 0.847555 0
M  V30 7075 H 672.102 -3.6303 1.67479 0
M  V30 7076 H 673.542 -4.16668 0.785106 0
M  V30 7077 C 672.001 -3.33891 -0.44929 0
M  V30 7078 O 672.531 -3.73673 -1.47415 0
M  V30 7079 N 670.737 -2.86991 -0.456547 0
M  V30 7080 H 670.284 -2.54813 0.377925 0
M  V30 7081 H 670.242 -2.85152 -1.32423 0
M  V30 7082 N 674.014 -1.12206 -1.10668 0
M  V30 7083 C 675.43 -0.857619 -1.346 0
M  V30 7084 C 675.63 0.513542 -1.94846 0
M  V30 7085 O 674.686 1.26273 -2.18658 0
M  V30 7086 C 675.999 -1.97212 -2.26998 0
M  V30 7087 C 677.547 -2.00272 -2.40542 0
M  V30 7088 C 678.022 -3.10948 -3.36267 0
M  V30 7089 N 679.513 -3.10375 -3.43834 0
M  V30 7090 C 680.248 -3.92651 -4.17867 0
M  V30 7091 N 679.744 -4.84911 -4.94807 0
M  V30 7092 N 681.537 -3.80798 -4.1346 0
M  V30 7093 H 673.688 -2.00558 -0.699306 0
M  V30 7094 H 675.951 -0.872612 -0.370477 0
M  V30 7095 H 675.657 -2.96002 -1.89936 0
M  V30 7096 H 675.531 -1.87521 -3.27286 0
M  V30 7097 H 677.918 -1.02103 -2.76874 0
M  V30 7098 H 677.999 -2.14037 -1.40077 0
M  V30 7099 H 677.643 -4.09348 -3.00661 0
M  V30 7100 H 677.573 -2.94421 -4.36605 0
M  V30 7101 H 680.064 -2.43536 -2.88961 0
M  V30 7102 H 680.377 -5.44207 -5.48688 0
M  V30 7103 H 678.722 -4.88926 -4.93939 0
M  V30 7104 H 681.913 -3.08058 -3.52445 0
M  V30 7105 H 682.086 -4.4515 -4.70898 0
M  V30 7106 N 675.492 1.28418 -0.913599 0
M  V30 7107 C 676.738 1.95627 -0.556933 0
M  V30 7108 C 677.093 1.706 0.889565 0
M  V30 7109 O 676.386 1.01637 1.6242 0
M  V30 7110 C 676.58 3.48283 -0.802099 0
M  V30 7111 C 676.409 3.88151 -2.27088 0
M  V30 7112 C 675.179 4.1232 -2.92096 0
M  V30 7113 C 677.377 3.98819 -3.24728 0
M  V30 7114 N 675.359 4.3886 -4.29272 0
M  V30 7115 C 676.73 4.29571 -4.47067 0
M  V30 7116 C 678.785 3.81342 -3.20129 0
M  V30 7117 C 677.488 4.44667 -5.65388 0
M  V30 7118 C 679.514 3.97656 -4.37749 0
M  V30 7119 C 678.876 4.2878 -5.58862 0
M  V30 7120 H 674.975 0.739715 -0.253664 0
M  V30 7121 H 677.559 1.55074 -1.1773 0
M  V30 7122 H 675.73 3.87826 -0.211007 0
M  V30 7123 H 677.462 4.02623 -0.409478 0
M  V30 7124 H 674.217 4.06611 -2.42826 0
M  V30 7125 H 674.641 4.56214 -5.00198 0
M  V30 7126 H 679.283 3.56331 -2.2757 0
M  V30 7127 H 677.001 4.68509 -6.58426 0
M  V30 7128 H 680.587 3.85569 -4.35692 0
M  V30 7129 H 679.467 4.41136 -6.48359 0
M  V30 7130 N 676.97 0.677563 1.42291 0
M  V30 7131 C 677.902 -0.0380218 2.29168 0
M  V30 7132 C 678.915 -0.762714 1.43828 0
M  V30 7133 O 680.104 -0.616413 1.67519 0
M  V30 7134 C 677.204 -1.07761 3.21311 0
M  V30 7135 C 676.377 -0.42618 4.35319 0
M  V30 7136 C 675.436 -1.36592 5.08162 0
M  V30 7137 O 674.462 -0.865174 5.62586 0
M  V30 7138 N 675.664 -2.69909 5.13935 0
M  V30 7139 H 678.429 0.707766 2.91223 0
M  V30 7140 H 675.99 0.52219 1.53247 0
M  V30 7141 H 677.982 -1.70761 3.6691 0
M  V30 7142 H 676.552 -1.72511 2.60689 0
M  V30 7143 H 675.772 0.383385 3.92331 0
M  V30 7144 H 677.06 0.0275277 5.08793 0
M  V30 7145 H 676.458 -3.13129 4.71134 0
M  V30 7146 H 675.015 -3.2815 5.6317 0
M  V30 7147 N 678.448 -1.51871 0.421078 0
M  V30 7148 C 679.673 -2.0684 -0.152371 0
M  V30 7149 C 680.098 -1.28802 -1.37083 0
M  V30 7150 O 679.456 -0.321482 -1.78427 0
M  V30 7151 C 679.504 -3.57532 -0.469368 0
M  V30 7152 O 678.608 -3.81818 -1.55848 0
M  V30 7153 H 677.949 -0.663939 -0.00898586 0
M  V30 7154 H 680.479 -1.95674 0.597724 0
M  V30 7155 H 680.489 -4.01515 -0.724553 0
M  V30 7156 H 679.164 -4.13761 0.421276 0
M  V30 7157 H 677.741 -3.49709 -1.29453 0
M  V30 7158 N 679.926 -0.151884 -1.56866 0
M  V30 7159 C 681.166 0.500695 -1.98173 0
M  V30 7160 C 681.53 1.61715 -1.03499 0
M  V30 7161 O 682.731 2.33093 -1.33869 0
M  V30 7162 C 681.002 0.989333 -3.43434 0
M  V30 7163 S 682.561 1.64583 -4.06765 0
M  V30 7164 H 679.379 0.16173 -0.692361 0
M  V30 7165 H 681.981 -0.244754 -1.93962 0
M  V30 7166 H 680.685 0.166072 -4.10064 0
M  V30 7167 H 680.216 1.76929 -3.51368 0
M  V30 7168 H 682.231 2.93326 -4.00218 0
M  V30 7169 N 681.404 1.57128 0.121893 0
M  V30 7170 C 682.314 2.03425 1.16857 0
M  V30 7171 C 683.33 0.954108 1.45509 0
M  V30 7172 O 684.506 1.26541 1.56682 0
M  V30 7173 C 681.571 2.42685 2.47599 0
M  V30 7174 C 680.632 3.64767 2.2637 0
M  V30 7175 C 679.865 4.02145 3.50878 0
M  V30 7176 O 680.088 3.39897 4.58068 0
M  V30 7177 O 679.022 4.95262 3.42051 0
M  V30 7178 H 682.848 2.92825 0.80544 0
M  V30 7179 H 680.433 1.45654 0.332477 0
M  V30 7180 H 682.315 2.68684 3.24634 0
M  V30 7181 H 680.99 1.56432 2.83392 0
M  V30 7182 H 679.897 3.43922 1.47203 0
M  V30 7183 H 681.23 4.51716 1.95482 0
M  V30 7184 N 682.882 -0.391992 1.52647 0
M  V30 7185 C 683.845 -1.46135 1.7657 0
M  V30 7186 C 684.845 -1.47701 0.635698 0
M  V30 7187 O 686.035 -1.48924 0.903728 0
M  V30 7188 C 683.167 -2.85443 1.86374 0
M  V30 7189 H 684.36 -1.26208 2.72051 0
M  V30 7190 H 681.913 -0.623549 1.43323 0
M  V30 7191 H 682.648 -3.10718 0.928685 0
M  V30 7192 H 682.433 -2.85708 2.68539 0
M  V30 7193 H 683.923 -3.62933 2.06566 0
M  V30 7194 N 684.36 -1.4356 -0.65026 0
M  V30 7195 C 685.29 -1.51758 -1.77459 0
M  V30 7196 C 686.271 -0.372019 -1.65982 0
M  V30 7197 O 687.456 -0.589627 -1.85033 0
M  V30 7198 C 684.586 -1.44302 -3.15902 0
M  V30 7199 C 683.54 -2.57138 -3.42146 0
M  V30 7200 C 682.866 -2.34735 -4.8042 0
M  V30 7201 C 684.166 -3.99373 -3.36598 0
M  V30 7202 H 685.86 -2.45863 -1.70855 0
M  V30 7203 H 683.406 -1.18333 -0.820566 0
M  V30 7204 H 685.359 -1.48641 -3.94314 0
M  V30 7205 H 684.083 -0.467026 -3.23244 0
M  V30 7206 H 682.742 -2.52157 -2.66106 0
M  V30 7207 H 682.39 -1.35372 -4.84441 0
M  V30 7208 H 682.09 -3.10375 -4.9894 0
M  V30 7209 H 683.614 -2.40862 -5.61086 0
M  V30 7210 H 685.028 -4.05826 -4.04942 0
M  V30 7211 H 683.425 -4.75063 -3.66654 0
M  V30 7212 H 684.495 -4.243 -2.34729 0
M  V30 7213 N 685.838 0.888903 -1.30139 0
M  V30 7214 C 687.254 1.17153 -1.08385 0
M  V30 7215 C 687.454 2.0088 0.157925 0
M  V30 7216 O 686.51 2.37668 0.852652 0
M  V30 7217 C 687.823 1.882 -2.34523 0
M  V30 7218 C 689.371 2.00981 -2.39949 0
M  V30 7219 C 689.846 2.75441 -3.65918 0
M  V30 7220 N 691.337 2.82989 -3.66704 0
M  V30 7221 C 692.072 3.41167 -4.60861 0
M  V30 7222 N 691.568 4.00425 -5.6536 0
M  V30 7223 N 693.361 3.38944 -4.48412 0
M  V30 7224 H 685.512 0.33053 -2.09812 0
M  V30 7225 H 687.775 0.208964 -0.924683 0
M  V30 7226 H 687.481 1.34119 -3.25123 0
M  V30 7227 H 687.355 2.88609 -2.42868 0
M  V30 7228 H 689.742 2.54234 -1.4983 0
M  V30 7229 H 689.823 0.996725 -2.35582 0
M  V30 7230 H 689.467 2.22861 -4.56394 0
M  V30 7231 H 689.397 3.77118 -3.67546 0
M  V30 7232 H 691.888 2.40912 -2.91153 0
M  V30 7233 H 692.201 4.42871 -6.33313 0
M  V30 7234 H 690.546 3.98856 -5.69157 0
M  V30 7235 H 693.737 2.91875 -3.6596 0
M  V30 7236 H 693.91 3.83989 -5.21974 0
M  V30 7237 N 687.317 1.12792 1.10072 0
M  V30 7238 C 688.563 0.886857 1.82381 0
M  V30 7239 C 688.896 -0.58576 1.85155 0
M  V30 7240 O 688.171 -1.43317 1.31493 0
M  V30 7241 C 688.454 1.46703 3.28862 0
M  V30 7242 C 688.307 3.00829 3.34398 0
M  V30 7243 C 689.626 1.12971 4.25353 0
M  V30 7244 H 686.745 0.32362 0.662148 0
M  V30 7245 H 689.387 1.39513 1.28982 0
M  V30 7246 H 687.537 1.03476 3.74466 0
M  V30 7247 H 689.209 3.52764 2.97247 0
M  V30 7248 H 687.452 3.36164 2.74183 0
M  V30 7249 H 688.123 3.36519 4.3756 0
M  V30 7250 H 690.599 1.50313 3.88001 0
M  V30 7251 H 689.475 1.56223 5.26199 0
M  V30 7252 H 689.736 0.0424452 4.4208 0
M  V30 7253 N 688.795 -1.27931 0.920396 0
M  V30 7254 C 689.728 -2.2537 0.358285 0
M  V30 7255 C 690.706 -1.53328 -0.541242 0
M  V30 7256 O 691.89 -1.82196 -0.483399 0
M  V30 7257 C 689.017 -3.35178 -0.487193 0
M  V30 7258 C 688.063 -4.25079 0.347881 0
M  V30 7259 S 688.896 -5.05792 1.75883 0
M  V30 7260 C 690.052 -6.19089 0.920832 0
M  V30 7261 H 690.285 -2.72701 1.18413 0
M  V30 7262 H 687.818 -1.36474 0.722088 0
M  V30 7263 H 689.776 -3.98895 -0.96916 0
M  V30 7264 H 688.437 -2.865 -1.28749 0
M  V30 7265 H 687.63 -5.03113 -0.298912 0
M  V30 7266 H 687.232 -3.66119 0.763748 0
M  V30 7267 H 689.524 -6.77326 0.15349 0
M  V30 7268 H 690.467 -6.8803 1.67394 0
M  V30 7269 H 690.875 -5.62573 0.466069 0
M  V30 7270 N 690.273 -0.685099 -1.4193 0
M  V30 7271 C 691.236 -0.0222632 -2.29189 0
M  V30 7272 C 692.236 0.7186 -1.4385 0
M  V30 7273 O 693.426 0.555058 -1.6512 0
M  V30 7274 C 690.558 0.979013 -3.2654 0
M  V30 7275 H 691.751 -0.790424 -2.89296 0
M  V30 7276 H 689.304 -0.448012 -1.49742 0
M  V30 7277 H 690.039 1.77531 -2.71392 0
M  V30 7278 H 689.824 0.451037 -3.89497 0
M  V30 7279 H 691.314 1.44091 -3.91954 0
M  V30 7280 N 691.751 1.51645 -0.429126 0
M  V30 7281 C 692.698 2.27542 0.386446 0
M  V30 7282 C 693.668 1.30786 1.02393 0
M  V30 7283 O 694.853 1.59678 1.0444 0
M  V30 7284 C 691.993 3.11457 1.48623 0
M  V30 7285 C 691.106 4.23196 0.867691 0
M  V30 7286 C 690.241 4.94435 1.94183 0
M  V30 7287 C 689.28 5.98108 1.30129 0
M  V30 7288 N 688.417 6.62786 2.31644 0
M  V30 7289 H 693.257 2.968 -0.267155 0
M  V30 7290 H 690.794 1.46397 -0.143591 0
M  V30 7291 H 692.752 3.58429 2.13506 0
M  V30 7292 H 691.382 2.44329 2.10957 0
M  V30 7293 H 690.434 3.80248 0.107373 0
M  V30 7294 H 691.746 4.97499 0.35997 0
M  V30 7295 H 690.9 5.44914 2.66747 0
M  V30 7296 H 689.639 4.19744 2.48326 0
M  V30 7297 H 688.644 5.4693 0.561082 0
M  V30 7298 H 689.869 6.74751 0.767303 0
M  V30 7299 H 687.815 5.90913 2.84883 0
M  V30 7300 H 687.732 7.32828 1.85741 0
M  V30 7301 H 689 7.17897 3.03717 0
M  V30 7302 N 693.229 0.160201 1.56784 0
M  V30 7303 C 694.478 -0.487619 1.95717 0
M  V30 7304 C 694.791 -1.65136 1.0483 0
M  V30 7305 O 695.997 -2.36468 1.33398 0
M  V30 7306 C 694.453 -0.91888 3.47972 0
M  V30 7307 C 694.061 0.218655 4.47466 0
M  V30 7308 C 695.805 -1.53575 3.95746 0
M  V30 7309 C 693.712 -0.231614 5.90946 0
M  V30 7310 H 692.642 -0.185939 0.730714 0
M  V30 7311 H 695.293 0.246657 1.81835 0
M  V30 7312 H 693.675 -1.70881 3.57234 0
M  V30 7313 H 694.849 0.995825 4.49911 0
M  V30 7314 H 693.164 0.744767 4.09685 0
M  V30 7315 H 695.761 -1.88448 5.00391 0
M  V30 7316 H 696.104 -2.42959 3.38048 0
M  V30 7317 H 696.637 -0.810467 3.89456 0
M  V30 7318 H 693.376 0.62718 6.52493 0
M  V30 7319 H 692.896 -0.974379 5.91833 0
M  V30 7320 H 694.575 -0.67922 6.43425 0
M  V30 7321 N 694.707 -1.5719 -0.113559 0
M  V30 7322 C 695.64 -1.9595 -1.16957 0
M  V30 7323 C 696.618 -0.829951 -1.39823 0
M  V30 7324 O 697.802 -1.08861 -1.53888 0
M  V30 7325 C 694.929 -2.2604 -2.52237 0
M  V30 7326 C 693.975 -3.48571 -2.45765 0
M  V30 7327 S 694.808 -5.00962 -1.89203 0
M  V30 7328 C 695.964 -5.3421 -3.26145 0
M  V30 7329 H 696.197 -2.85214 -0.839069 0
M  V30 7330 H 693.73 -1.51036 -0.320529 0
M  V30 7331 H 695.688 -2.44054 -3.30073 0
M  V30 7332 H 694.349 -1.3738 -2.82463 0
M  V30 7333 H 693.542 -3.67008 -3.45429 0
M  V30 7334 H 693.144 -3.29972 -1.76053 0
M  V30 7335 H 695.436 -5.29725 -4.22371 0
M  V30 7336 H 696.379 -6.35398 -3.12529 0
M  V30 7337 H 696.787 -4.61681 -3.24825 0
M  V30 7338 N 696.185 0.383891 -1.52853 0
M  V30 7339 C 697.601 0.724316 -1.42218 0
M  V30 7340 C 697.801 1.93943 -0.546654 0
M  V30 7341 O 696.857 2.5249 -0.0220562 0
M  V30 7342 C 698.17 0.954635 -2.85144 0
M  V30 7343 C 699.718 1.05579 -2.94656 0
M  V30 7344 C 700.193 1.3187 -4.38605 0
M  V30 7345 N 701.684 1.38681 -4.41952 0
M  V30 7346 C 702.419 1.60699 -5.50421 0
M  V30 7347 N 701.915 1.80154 -6.68967 0
M  V30 7348 N 703.708 1.6292 -5.37972 0
M  V30 7349 H 695.859 -0.4156 -2.08294 0
M  V30 7350 H 698.122 -0.123776 -0.939885 0
M  V30 7351 H 697.828 0.133829 -3.51445 0
M  V30 7352 H 697.702 1.86788 -3.27704 0
M  V30 7353 H 700.089 1.86716 -2.2852 0
M  V30 7354 H 700.17 0.120338 -2.55517 0
M  V30 7355 H 699.814 0.512416 -5.05309 0
M  V30 7356 H 699.744 2.26708 -4.75301 0
M  V30 7357 H 702.235 1.25334 -3.56511 0
M  V30 7358 H 702.548 1.96476 -7.47407 0
M  V30 7359 H 700.893 1.77368 -6.71986 0
M  V30 7360 H 704.084 1.47276 -4.44328 0
M  V30 7361 H 704.257 1.79739 -6.22574 0
M  V30 7362 N 697.663 1.43903 0.642637 0
M  V30 7363 C 698.573 1.52349 1.78401 0
M  V30 7364 C 699.589 0.409869 1.69104 0
M  V30 7365 O 700.765 0.665548 1.90085 0
M  V30 7366 C 697.83 1.45408 3.14734 0
M  V30 7367 C 696.891 2.67528 3.35749 0
M  V30 7368 C 696.124 2.60909 4.65577 0
M  V30 7369 O 696.347 1.6627 5.45628 0
M  V30 7370 O 695.281 3.5158 4.88544 0
M  V30 7371 H 699.107 2.48752 1.7423 0
M  V30 7372 H 696.692 1.26021 0.802439 0
M  V30 7373 H 698.574 1.44019 3.96026 0
M  V30 7374 H 697.249 0.521437 3.19473 0
M  V30 7375 H 696.156 2.74487 2.5418 0
M  V30 7376 H 697.489 3.598 3.35864 0
M  V30 7377 N 699.141 -0.881989 1.30609 0
M  V30 7378 C 700.381 -1.64817 1.20891 0
M  V30 7379 C 700.745 -1.90593 -0.232043 0
M  V30 7380 O 701.946 -2.64964 -0.452516 0
M  V30 7381 C 700.217 -2.95006 2.01758 0
M  V30 7382 S 701.776 -3.85953 2.08771 0
M  V30 7383 H 698.594 -0.565651 0.430767 0
M  V30 7384 H 701.196 -1.04665 1.65122 0
M  V30 7385 H 699.9 -2.73973 3.0556 0
M  V30 7386 H 699.431 -3.60189 1.582 0
M  V30 7387 H 701.446 -4.81037 1.21727 0
M  V30 7388 N 700.619 -1.13374 -1.09472 0
M  V30 7389 C 701.865 -0.906459 -1.82085 0
M  V30 7390 C 702.22 0.5614 -1.84027 0
M  V30 7391 O 701.513 1.41012 -1.29716 0
M  V30 7392 C 701.707 -1.42759 -3.2765 0
M  V30 7393 C 701.536 -2.94459 -3.39888 0
M  V30 7394 C 700.306 -3.62798 -3.51718 0
M  V30 7395 C 702.504 -3.92398 -3.32457 0
M  V30 7396 N 700.486 -5.02516 -3.52635 0
M  V30 7397 C 701.857 -5.18304 -3.40237 0
M  V30 7398 C 703.912 -3.84671 -3.16122 0
M  V30 7399 C 702.615 -6.37386 -3.33364 0
M  V30 7400 C 704.641 -5.03287 -3.10574 0
M  V30 7401 C 704.003 -6.28055 -3.18945 0
M  V30 7402 H 700.102 -0.385097 -0.680606 0
M  V30 7403 H 702.686 -1.44187 -1.30836 0
M  V30 7404 H 700.857 -0.919102 -3.77369 0
M  V30 7405 H 702.589 -1.14136 -3.88272 0
M  V30 7406 H 699.344 -3.13317 -3.55147 0
M  V30 7407 H 699.768 -5.75421 -3.56679 0
M  V30 7408 H 704.41 -2.89094 -3.0852 0
M  V30 7409 H 702.128 -7.33219 -3.3973 0
M  V30 7410 H 705.714 -4.99047 -2.9907 0
M  V30 7411 H 704.594 -7.18299 -3.14668 0
M  V30 7412 N 702.098 1.27442 -0.927168 0
M  V30 7413 C 703.328 1.9821 -0.582775 0
M  V30 7414 C 703.736 1.69361 0.843406 0
M  V30 7415 O 703.079 0.950381 1.57205 0
M  V30 7416 C 703.141 3.52048 -0.728165 0
M  V30 7417 C 702.805 4.04518 -2.12637 0
M  V30 7418 C 703.802 4.17332 -3.10048 0
M  V30 7419 C 701.487 4.38879 -2.44317 0
M  V30 7420 C 703.481 4.6378 -4.37249 0
M  V30 7421 C 701.168 4.85018 -3.71753 0
M  V30 7422 C 702.166 4.97428 -4.68033 0
M  V30 7423 O 701.854 5.42556 -5.93202 0
M  V30 7424 H 701.586 0.639314 -0.219667 0
M  V30 7425 H 704.14 1.63272 -1.24626 0
M  V30 7426 H 702.37 3.86699 -0.00758143 0
M  V30 7427 H 704.059 4.04033 -0.388906 0
M  V30 7428 H 704.825 3.91046 -2.86894 0
M  V30 7429 H 700.704 4.28462 -1.70121 0
M  V30 7430 H 704.248 4.73382 -5.12402 0
M  V30 7431 H 700.145 5.10746 -3.94726 0
M  V30 7432 H 700.913 5.60811 -5.96182 0
M  V30 7433 N 703.576 0.692616 1.41565 0
M  V30 7434 C 704.539 0.0344174 2.29174 0
M  V30 7435 C 705.539 -0.710961 1.44229 0
M  V30 7436 O 706.729 -0.546293 1.65412 0
M  V30 7437 C 703.861 -0.961682 3.27054 0
M  V30 7438 H 705.054 0.805755 2.88873 0
M  V30 7439 H 702.607 0.455947 1.49502 0
M  V30 7440 H 703.342 -1.76089 2.72329 0
M  V30 7441 H 703.127 -0.430375 3.89731 0
M  V30 7442 H 704.617 -1.4201 3.92712 0
M  V30 7443 N 705.054 -1.51416 0.437162 0
M  V30 7444 C 706.002 -2.29328 -0.388765 0
M  V30 7445 C 706.996 -1.35171 -1.02104 0
M  V30 7446 O 708.202 -1.52513 -0.956024 0
M  V30 7447 H 704.577 -0.738048 -0.144183 0
M  V30 7448 H 706.548 -2.96995 0.289212 0
M  V30 7449 C 705.297 -3.14741 -1.47761 0
M  V30 7450 H 704.62 -3.8708 -1.00045 0
M  V30 7451 H 706.06 -3.72313 -2.02877 0
M  V30 7452 C 704.519 -2.30105 -2.46076 0
M  V30 7453 O 705.049 -1.96055 -3.50607 0
M  V30 7454 N 703.255 -1.93331 -2.1696 0
M  V30 7455 H 702.802 -2.2122 -1.31983 0
M  V30 7456 H 702.76 -1.36999 -2.82982 0
M  V30 7457 N 706.532 -0.168513 -1.56696 0
M  V30 7458 C 707.78 0.476216 -1.96409 0
M  V30 7459 C 708.101 1.63968 -1.05544 0
M  V30 7460 O 707.371 1.95525 -0.121235 0
M  V30 7461 H 705.951 0.178921 -0.725256 0
M  V30 7462 H 708.613 -0.249042 -1.93302 0
M  V30 7463 H 707.709 0.838094 -3.00637 0
M  V30 7464 N 708.01 1.57248 0.105221 0
M  V30 7465 C 708.973 2.00388 1.11252 0
M  V30 7466 C 709.973 0.89594 1.33527 0
M  V30 7467 O 711.163 1.16166 1.29811 0
M  V30 7468 C 708.295 2.35589 2.46395 0
M  V30 7469 H 709.488 2.90591 0.741424 0
M  V30 7470 H 707.041 1.52332 0.349956 0
M  V30 7471 H 707.776 1.4831 2.884 0
M  V30 7472 H 707.561 3.16408 2.31578 0
M  V30 7473 H 709.051 2.69658 3.18864 0
M  V30 7474 N 709.488 -0.375779 1.53054 0
M  V30 7475 C 710.451 -1.44254 1.7811 0
M  V30 7476 C 711.451 -1.47018 0.651328 0
M  V30 7477 O 712.641 -1.47957 0.919472 0
M  V30 7478 C 709.773 -2.8345 1.89391 0
M  V30 7479 H 710.966 -1.23316 2.73374 0
M  V30 7480 H 708.519 -0.608312 1.43977 0
M  V30 7481 H 709.254 -3.09716 0.961589 0
M  V30 7482 H 709.039 -2.82844 2.71555 0
M  V30 7483 H 710.529 -3.60722 2.10404 0
M  V30 7484 N 710.966 -1.44241 -0.634997 0
M  V30 7485 C 712.382 -1.28043 -0.952742 0
M  V30 7486 C 712.582 -0.21338 -2.00367 0
M  V30 7487 O 711.638 0.402042 -2.49279 0
M  V30 7488 C 712.951 -2.65076 -1.41968 0
M  V30 7489 C 714.499 -2.72755 -1.53537 0
M  V30 7490 C 714.974 -4.10249 -2.03616 0
M  V30 7491 N 716.465 -4.12406 -2.10892 0
M  V30 7492 C 717.2 -5.15641 -2.50803 0
M  V30 7493 N 716.696 -6.29239 -2.89879 0
M  V30 7494 N 718.489 -5.02995 -2.50903 0
M  V30 7495 H 710.64 -2.12315 0.060098 0
M  V30 7496 H 712.903 -0.947326 -0.0357325 0
M  V30 7497 H 712.609 -3.44213 -0.721804 0
M  V30 7498 H 712.483 -2.91704 -2.39141 0
M  V30 7499 H 714.87 -1.93939 -2.22422 0
M  V30 7500 H 714.951 -2.49872 -0.547496 0
M  V30 7501 H 714.595 -4.8954 -1.35327 0
M  V30 7502 H 714.525 -4.30507 -3.03268 0
M  V30 7503 H 717.016 -3.30417 -1.83393 0
M  V30 7504 H 717.329 -7.03827 -3.19135 0
M  V30 7505 H 715.674 -6.32683 -2.8764 0
M  V30 7506 H 718.865 -4.13306 -2.19763 0
M  V30 7507 H 719.038 -5.83574 -2.81683 0
M  V30 7508 N 712.444 0.87505 -1.31075 0
M  V30 7509 C 713.374 1.99775 -1.20881 0
M  V30 7510 C 714.355 1.69822 -0.0971612 0
M  V30 7511 O 715.54 1.92158 -0.280895 0
M  V30 7512 C 712.67 3.35163 -0.910118 0
M  V30 7513 C 711.624 3.79406 -1.98078 0
M  V30 7514 C 710.95 5.12197 -1.53488 0
M  V30 7515 C 712.25 3.97061 -3.39323 0
M  V30 7516 H 713.944 2.08562 -2.14808 0
M  V30 7517 H 711.49 1.00207 -1.03415 0
M  V30 7518 H 713.443 4.13237 -0.825423 0
M  V30 7519 H 712.167 3.26536 0.064822 0
M  V30 7520 H 710.826 3.03568 -2.05528 0
M  V30 7521 H 710.474 5.00007 -0.547941 0
M  V30 7522 H 710.174 5.4277 -2.2511 0
M  V30 7523 H 711.698 5.92785 -1.46417 0
M  V30 7524 H 713.112 4.65545 -3.34576 0
M  V30 7525 H 711.509 4.39025 -4.09118 0
M  V30 7526 H 712.579 3.00601 -3.80483 0
M  V30 7527 N 713.922 1.13953 1.08869 0
M  V30 7528 C 715.15 0.92817 1.84912 0
M  V30 7529 C 715.565 -0.523197 1.81406 0
M  V30 7530 O 714.922 -1.36237 1.21432 0
M  V30 7531 C 714.973 1.41509 3.32652 0
M  V30 7532 O 714.694 2.80959 3.36145 0
M  V30 7533 C 716.195 1.243 4.25517 0
M  V30 7534 H 713.415 0.330612 0.583898 0
M  V30 7535 H 715.959 1.51349 1.37527 0
M  V30 7536 H 714.114 0.872648 3.77444 0
M  V30 7537 H 714.528 3.02704 4.28335 0
M  V30 7538 H 716.002 1.63237 5.27312 0
M  V30 7539 H 716.479 0.18532 4.38809 0
M  V30 7540 H 717.085 1.77375 3.86546 0
M  V30 7541 N 715.4 -1.26948 0.933913 0
M  V30 7542 C 716.363 -2.24889 0.442457 0
M  V30 7543 C 717.363 -1.54594 -0.442426 0
M  V30 7544 O 718.553 -1.72502 -0.242629 0
M  V30 7545 C 715.685 -3.3896 -0.363173 0
M  V30 7546 H 716.878 -2.69879 1.30787 0
M  V30 7547 H 714.431 -1.38978 0.715187 0
M  V30 7548 H 715.166 -2.99361 -1.24714 0
M  V30 7549 H 714.951 -3.9116 0.271366 0
M  V30 7550 H 716.441 -4.11739 -0.697186 0
M  V30 7551 N 716.879 -0.700114 -1.41195 0
M  V30 7552 C 717.809 -0.0521132 -2.33442 0
M  V30 7553 C 718.79 0.76228 -1.52063 0
M  V30 7554 O 719.975 0.714336 -1.80585 0
M  V30 7555 C 717.105 0.881693 -3.35922 0
M  V30 7556 C 716.059 0.174062 -4.27646 0
M  V30 7557 C 715.385 1.22254 -5.20536 0
M  V30 7558 C 716.685 -0.962396 -5.13357 0
M  V30 7559 H 718.379 -0.822574 -2.87879 0
M  V30 7560 H 715.925 -0.397011 -1.38419 0
M  V30 7561 H 717.878 1.34429 -3.99383 0
M  V30 7562 H 716.602 1.68387 -2.79845 0
M  V30 7563 H 715.261 -0.268551 -3.65615 0
M  V30 7564 H 714.909 2.01736 -4.60773 0
M  V30 7565 H 714.609 0.754038 -5.82742 0
M  V30 7566 H 716.133 1.68555 -5.86874 0
M  V30 7567 H 717.547 -0.579875 -5.7036 0
M  V30 7568 H 715.944 -1.35828 -5.84526 0
M  V30 7569 H 717.014 -1.80003 -4.50252 0
M  V30 7570 N 718.357 1.51182 -0.445186 0
M  V30 7571 C 719.773 1.59299 -0.0978954 0
M  V30 7572 C 719.973 1.4555 1.39346 0
M  V30 7573 O 719.029 1.30073 2.16419 0
M  V30 7574 C 720.342 2.94133 -0.625005 0
M  V30 7575 C 721.89 3.07463 -0.586137 0
M  V30 7576 C 722.365 4.44832 -1.09035 0
M  V30 7577 N 723.856 4.51173 -1.04867 0
M  V30 7578 C 724.591 5.55804 -1.40959 0
M  V30 7579 N 724.087 6.67816 -1.84375 0
M  V30 7580 N 725.88 5.46205 -1.32726 0
M  V30 7581 H 718.031 1.58363 -1.41544 0
M  V30 7582 H 720.294 0.746946 -0.58376 0
M  V30 7583 H 720 3.09589 -1.66876 0
M  V30 7584 H 719.874 3.77161 -0.0542262 0
M  V30 7585 H 722.261 2.9167 0.448646 0
M  V30 7586 H 722.342 2.26255 -1.19341 0
M  V30 7587 H 721.986 4.61372 -2.12364 0
M  V30 7588 H 721.916 5.24591 -0.459539 0
M  V30 7589 H 724.407 3.70783 -0.729932 0
M  V30 7590 H 724.72 7.43683 -2.10131 0
M  V30 7591 H 723.065 6.69003 -1.88308 0
M  V30 7592 H 726.256 4.57583 -0.986678 0
M  V30 7593 H 726.429 6.27634 -1.61182 0
M  V30 7594 N 719.835 0.176821 1.56605 0
M  V30 7595 C 721.084 -0.466833 1.96223 0
M  V30 7596 C 721.397 -1.64015 1.06576 0
M  V30 7597 O 722.603 -2.3504 1.35898 0
M  V30 7598 C 721.059 -0.881921 3.48927 0
M  V30 7599 C 720.667 0.266102 4.47209 0
M  V30 7600 C 722.411 -1.49368 3.97353 0
M  V30 7601 C 720.318 -0.168923 5.91159 0
M  V30 7602 H 719.248 -0.178178 0.732645 0
M  V30 7603 H 721.899 0.265929 1.81563 0
M  V30 7604 H 720.281 -1.67082 3.59026 0
M  V30 7605 H 721.455 1.04349 4.4883 0
M  V30 7606 H 719.77 0.788178 4.08872 0
M  V30 7607 H 722.367 -1.8313 5.02362 0
M  V30 7608 H 722.71 -2.3936 3.40606 0
M  V30 7609 H 723.243 -0.769114 3.90294 0
M  V30 7610 H 719.982 0.696351 6.51791 0
M  V30 7611 H 719.502 -0.911552 5.92833 0
M  V30 7612 H 721.181 -0.610938 6.44109 0
M  V30 7613 N 721.313 -1.57302 -0.09688 0
M  V30 7614 C 722.26 -2.01933 -1.11766 0
M  V30 7615 C 723.23 -0.895329 -1.39904 0
M  V30 7616 O 724.415 -1.16119 -1.51397 0
M  V30 7617 C 721.555 -2.44726 -2.43317 0
M  V30 7618 C 720.668 -3.70639 -2.21925 0
M  V30 7619 C 719.803 -4.02318 -3.46862 0
M  V30 7620 C 718.842 -5.21346 -3.20725 0
M  V30 7621 N 717.979 -5.48787 -4.37924 0
M  V30 7622 H 722.819 -2.88919 -0.730075 0
M  V30 7623 H 720.356 -1.42901 -0.348962 0
M  V30 7624 H 722.314 -2.6758 -3.20088 0
M  V30 7625 H 720.944 -1.60753 -2.79926 0
M  V30 7626 H 719.996 -3.55271 -1.35965 0
M  V30 7627 H 721.308 -4.57557 -1.98603 0
M  V30 7628 H 720.462 -4.25939 -4.32042 0
M  V30 7629 H 719.201 -3.13918 -3.73238 0
M  V30 7630 H 718.206 -4.97547 -2.33938 0
M  V30 7631 H 719.431 -6.11343 -2.95697 0
M  V30 7632 H 717.377 -4.63346 -4.64378 0
M  V30 7633 H 717.294 -6.30073 -4.17785 0
M  V30 7634 H 718.562 -5.76943 -5.24173 0
M  V30 7635 N 722.791 0.367657 -1.53252 0
M  V30 7636 C 723.738 1.45028 -1.79543 0
M  V30 7637 C 724.708 1.53288 -0.63969 0
M  V30 7638 O 725.893 1.69209 -0.881653 0
M  V30 7639 C 723.033 2.82 -1.98923 0
M  V30 7640 C 722.146 2.82722 -3.26638 0
M  V30 7641 C 721.281 4.11257 -3.36216 0
M  V30 7642 C 720.32 4.06113 -4.57972 0
M  V30 7643 N 719.457 5.26293 -4.64715 0
M  V30 7644 H 724.297 1.21908 -2.71923 0
M  V30 7645 H 721.834 0.591011 -1.34705 0
M  V30 7646 H 723.792 3.61568 -2.08146 0
M  V30 7647 H 722.422 3.03523 -1.09881 0
M  V30 7648 H 721.474 1.95399 -3.26379 0
M  V30 7649 H 722.786 2.74794 -4.16281 0
M  V30 7650 H 721.94 4.99239 -3.44739 0
M  V30 7651 H 720.679 4.21935 -2.44586 0
M  V30 7652 H 719.684 3.16517 -4.49552 0
M  V30 7653 H 720.909 3.97039 -5.50942 0
M  V30 7654 H 718.855 5.37561 -3.75985 0
M  V30 7655 H 718.772 5.20526 -5.4826 0
M  V30 7656 H 720.04 6.16113 -4.77519 0
M  V30 7657 N 724.269 1.44576 0.627338 0
M  V30 7658 C 725.497 1.51048 1.41394 0
M  V30 7659 C 725.912 0.136568 1.88305 0
M  V30 7660 O 725.269 -0.858251 1.6106 0
M  V30 7661 C 725.32 2.47837 2.63172 0
M  V30 7662 O 725.041 3.79887 2.18215 0
M  V30 7663 C 726.542 2.63811 3.56257 0
M  V30 7664 H 723.762 0.512171 0.4335 0
M  V30 7665 H 726.306 1.89576 0.766878 0
M  V30 7666 H 724.461 2.12433 3.23961 0
M  V30 7667 H 724.875 4.32177 2.97192 0
M  V30 7668 H 726.349 3.35554 4.38301 0
M  V30 7669 H 726.826 1.69169 4.05313 0
M  V30 7670 H 727.432 3.0013 3.01333 0
M  V30 7671 N 725.747 -0.868086 1.31537 0
M  V30 7672 C 726.677 -1.99131 1.21939 0
M  V30 7673 C 727.658 -1.69768 0.106166 0
M  V30 7674 O 728.843 -1.92006 0.291081 0
M  V30 7675 C 725.973 -3.34676 0.927879 0
M  V30 7676 C 724.927 -3.7835 2.00088 0
M  V30 7677 C 724.253 -5.11375 1.56203 0
M  V30 7678 C 725.553 -3.95256 3.41424 0
M  V30 7679 H 727.247 -2.07419 2.15911 0
M  V30 7680 H 724.793 -0.996569 1.03945 0
M  V30 7681 H 726.746 -4.12793 0.847327 0
M  V30 7682 H 725.47 -3.26565 -0.0475042 0
M  V30 7683 H 724.129 -3.02474 2.07135 0
M  V30 7684 H 723.777 -4.99709 0.57445 0
M  V30 7685 H 723.477 -5.41568 2.27985 0
M  V30 7686 H 725.001 -5.92001 1.49558 0
M  V30 7687 H 726.415 -4.63764 3.3704 0
M  V30 7688 H 724.812 -4.36849 4.1144 0
M  V30 7689 H 725.882 -2.98579 3.82072 0
M  V30 7690 N 727.225 -1.14528 -1.08264 0
M  V30 7691 C 728.45 -0.938381 -1.84957 0
M  V30 7692 C 728.875 0.508044 -1.81109 0
M  V30 7693 O 728.233 1.36146 -1.19724 0
M  V30 7694 C 728.281 -1.44568 -3.30352 0
M  V30 7695 O 727.385 -0.638745 -4.07423 0
M  V30 7696 H 726.726 -0.335394 -0.573068 0
M  V30 7697 H 729.256 -1.52287 -1.36637 0
M  V30 7698 H 729.266 -1.45449 -3.81194 0
M  V30 7699 H 727.941 -2.49876 -3.32468 0
M  V30 7700 H 726.518 -0.698801 -3.66294 0
M  V30 7701 N 728.703 1.26451 -0.940633 0
M  V30 7702 C 729.635 2.25556 -0.407104 0
M  V30 7703 C 730.648 1.55888 0.469324 0
M  V30 7704 O 731.837 1.76292 0.279858 0
M  V30 7705 C 728.937 3.36109 0.434064 0
M  V30 7706 C 728.11 4.3532 -0.426082 0
M  V30 7707 C 727.169 5.25004 0.354563 0
M  V30 7708 O 726.195 5.68684 -0.242219 0
M  V30 7709 N 727.397 5.5652 1.65123 0
M  V30 7710 H 730.162 2.7197 -1.25907 0
M  V30 7711 H 727.723 1.40212 -0.809456 0
M  V30 7712 H 729.715 3.93059 0.963684 0
M  V30 7713 H 728.285 2.89194 1.18683 0
M  V30 7714 H 727.505 3.77449 -1.13692 0
M  V30 7715 H 728.793 4.986 -1.01366 0
M  V30 7716 H 728.191 5.22912 2.15822 0
M  V30 7717 H 726.748 6.16115 2.12711 0
M  V30 7718 N 730.181 0.707592 1.40822 0
M  V30 7719 C 731.111 0.0644925 2.33411 0
M  V30 7720 C 732.092 -0.754205 1.52466 0
M  V30 7721 O 733.277 -0.704749 1.80961 0
M  V30 7722 C 730.407 -0.863865 3.36385 0
M  V30 7723 C 729.361 -0.15138 4.27732 0
M  V30 7724 C 728.687 -1.19491 5.21177 0
M  V30 7725 C 729.987 0.989607 5.12839 0
M  V30 7726 H 731.681 0.837829 2.87438 0
M  V30 7727 H 729.227 0.404346 1.38207 0
M  V30 7728 H 731.18 -1.32309 4.0009 0
M  V30 7729 H 729.904 -1.66901 2.80734 0
M  V30 7730 H 728.563 0.287937 3.65467 0
M  V30 7731 H 728.211 -1.9929 4.61836 0
M  V30 7732 H 727.911 -0.723123 5.83134 0
M  V30 7733 H 729.435 -1.6544 5.8776 0
M  V30 7734 H 730.849 0.610114 5.70044 0
M  V30 7735 H 729.246 1.38926 5.83798 0
M  V30 7736 H 730.316 1.82389 4.49291 0
M  V30 7737 N 731.66 -1.50943 0.453197 0
M  V30 7738 C 732.885 -2.07116 -0.108463 0
M  V30 7739 C 733.31 -1.31681 -1.3432 0
M  V30 7740 O 732.668 -0.359256 -1.77705 0
M  V30 7741 C 732.716 -3.58447 -0.393424 0
M  V30 7742 O 731.82 -3.85038 -1.47714 0
M  V30 7743 H 731.161 -0.66398 0.0050993 0
M  V30 7744 H 733.691 -1.94362 0.639095 0
M  V30 7745 H 733.701 -4.02961 -0.639222 0
M  V30 7746 H 732.376 -4.12774 0.508946 0
M  V30 7747 H 730.953 -3.52376 -1.22006 0
M  V30 7748 N 733.138 -0.185124 -1.56509 0
M  V30 7749 C 734.07 0.771401 -2.15829 0
M  V30 7750 C 735.083 1.18392 -1.11747 0
M  V30 7751 O 736.272 1.12137 -1.38879 0
M  V30 7752 C 733.372 2.05169 -2.69739 0
M  V30 7753 C 732.545 1.80056 -3.98621 0
M  V30 7754 C 731.604 2.92435 -4.37456 0
M  V30 7755 O 730.63 2.62473 -5.05071 0
M  V30 7756 N 731.832 4.20554 -4.00143 0
M  V30 7757 H 734.597 0.264184 -2.98533 0
M  V30 7758 H 732.158 -0.00281069 -1.619 0
M  V30 7759 H 734.15 2.7947 -2.92709 0
M  V30 7760 H 732.72 2.47041 -1.91545 0
M  V30 7761 H 731.94 0.895862 -3.83885 0
M  V30 7762 H 733.228 1.60662 -4.82768 0
M  V30 7763 H 732.626 4.47753 -3.45736 0
M  V30 7764 H 731.183 4.91514 -4.28085 0
M  V30 7765 N 734.616 1.57351 0.0885366 0
M  V30 7766 C 735.548 1.99221 1.13329 0
M  V30 7767 C 736.561 0.895705 1.35945 0
M  V30 7768 O 737.75 1.17376 1.34481 0
M  V30 7769 C 734.85 2.3016 2.48756 0
M  V30 7770 C 734.023 3.61444 2.46327 0
M  V30 7771 C 733.082 3.80244 3.63732 0
M  V30 7772 O 732.108 4.52024 3.45924 0
M  V30 7773 N 733.31 3.2132 4.8346 0
M  V30 7774 H 736.075 2.89456 0.776862 0
M  V30 7775 H 733.636 1.59505 0.277428 0
M  V30 7776 H 735.628 2.39925 3.25911 0
M  V30 7777 H 734.198 1.459 2.76464 0
M  V30 7778 H 733.418 3.62588 1.54673 0
M  V30 7779 H 734.706 4.47678 2.41789 0
M  V30 7780 H 734.104 2.63028 5.00832 0
M  V30 7781 H 732.661 3.3656 5.58185 0
M  V30 7782 N 736.094 -0.359525 1.53444 0
M  V30 7783 C 737.004 -1.46445 1.83278 0
M  V30 7784 C 738.02 -1.5833 0.721629 0
M  V30 7785 O 739.196 -1.7411 1.01231 0
M  V30 7786 C 736.261 -2.81638 2.02191 0
M  V30 7787 C 735.322 -2.7923 3.26082 0
M  V30 7788 C 734.555 -4.07974 3.44082 0
M  V30 7789 O 734.778 -5.04447 2.66251 0
M  V30 7790 O 733.712 -4.13417 4.37458 0
M  V30 7791 H 737.538 -1.24156 2.77162 0
M  V30 7792 H 735.123 -0.550201 1.389 0
M  V30 7793 H 737.005 -3.61732 2.16167 0
M  V30 7794 H 735.68 -3.03892 1.11496 0
M  V30 7795 H 734.587 -1.97813 3.17523 0
M  V30 7796 H 735.92 -2.6193 4.16718 0
M  V30 7797 N 737.572 -1.44907 -0.619662 0
M  V30 7798 C 738.82 -1.47999 -1.37625 0
M  V30 7799 C 739.141 -0.118295 -1.94641 0
M  V30 7800 O 738.411 0.85086 -1.76457 0
M  V30 7801 H 736.991 -0.544993 -0.510873 0
M  V30 7802 H 739.653 -1.80772 -0.728522 0
M  V30 7803 H 738.749 -2.21196 -2.20179 0
M  V30 7804 N 739.05 0.861098 -1.31996 0
M  V30 7805 C 740.299 1.60965 -1.21545 0
M  V30 7806 C 740.612 1.94325 0.222972 0
M  V30 7807 O 741.818 2.67757 0.449272 0
M  V30 7808 C 740.274 2.90223 -2.12834 0
M  V30 7809 C 739.882 2.64313 -3.61722 0
M  V30 7810 C 741.626 3.68229 -2.11205 0
M  V30 7811 C 739.533 3.89532 -4.44993 0
M  V30 7812 H 738.463 0.603988 -0.451348 0
M  V30 7813 H 741.114 0.951358 -1.56912 0
M  V30 7814 H 739.496 3.57475 -1.70375 0
M  V30 7815 H 740.67 2.05413 -4.12483 0
M  V30 7816 H 738.985 1.99647 -3.65418 0
M  V30 7817 H 741.582 4.61138 -2.70658 0
M  V30 7818 H 741.925 4.01466 -1.1014 0
M  V30 7819 H 742.458 3.07873 -2.51911 0
M  V30 7820 H 739.197 3.61441 -5.46846 0
M  V30 7821 H 738.717 4.47851 -3.98985 0
M  V30 7822 H 740.396 4.57334 -4.57663 0
M  V30 7823 N 740.528 1.15101 1.07655 0
M  V30 7824 C 741.475 0.844958 2.14777 0
M  V30 7825 C 742.445 -0.200798 1.64882 0
M  V30 7826 O 743.63 -0.0690278 1.90675 0
M  V30 7827 C 740.77 0.337018 3.4345 0
M  V30 7828 C 739.883 1.44398 4.07153 0
M  V30 7829 C 739.018 0.892487 5.23649 0
M  V30 7830 C 738.057 1.9766 5.79307 0
M  V30 7831 N 737.194 1.44171 6.87138 0
M  V30 7832 H 742.034 1.76242 2.40297 0
M  V30 7833 H 739.571 0.879435 1.17917 0
M  V30 7834 H 741.529 0.024256 4.17193 0
M  V30 7835 H 740.159 -0.543531 3.18191 0
M  V30 7836 H 739.211 1.87299 3.31094 0
M  V30 7837 H 740.523 2.26262 4.4453 0
M  V30 7838 H 739.677 0.532083 6.04362 0
M  V30 7839 H 738.416 0.0429854 4.87681 0
M  V30 7840 H 737.421 2.34586 4.97242 0
M  V30 7841 H 738.646 2.82982 6.17331 0
M  V30 7842 H 736.592 0.614518 6.53115 0
M  V30 7843 H 736.509 2.19665 7.23383 0
M  V30 7844 H 737.777 1.10945 7.71564 0
M  V30 7845 N 742.006 -1.2595 0.947325 0
M  V30 7846 C 742.939 -2.24559 0.406009 0
M  V30 7847 C 743.917 -1.54441 -0.508598 0
M  V30 7848 O 745.101 -1.83181 -0.444644 0
M  V30 7849 C 742.228 -3.36136 -0.415987 0
M  V30 7850 C 741.274 -4.24245 0.437969 0
M  V30 7851 S 742.107 -5.01948 1.86572 0
M  V30 7852 C 743.263 -6.16997 1.05194 0
M  V30 7853 H 743.496 -2.70128 1.24171 0
M  V30 7854 H 741.029 -1.34912 0.750874 0
M  V30 7855 H 742.987 -4.00861 -0.88433 0
M  V30 7856 H 741.648 -2.89167 -1.22643 0
M  V30 7857 H 740.841 -5.03634 -0.192127 0
M  V30 7858 H 740.443 -3.64416 0.841235 0
M  V30 7859 H 742.735 -6.76848 0.297126 0
M  V30 7860 H 743.678 -6.84324 1.8195 0
M  V30 7861 H 744.086 -5.61458 0.585294 0
M  V30 7862 O 743.523 -0.8533 -1.37117 0
M  V30 7863 H 744.214 -0.44662 -1.88481 0
M  V30 END ATOM
M  V30 BEGIN BOND
M  V30 END BOND
M  V30 END CTAB
M  END
$$$$
