drugbank_target|P14625 Endoplasmin (DB00615; DB02103; DB02424; DB02935; DB03719; DB03758; DB08464; DB08465; DB09130)
 OpenBabel12092119483D

  0  0  0     0  0            999 V3000
M  V30 BEGIN CTAB
M  V30 COUNTS 12891 12996 0 0 0
M  V30 BEGIN ATOM
M  V30 1 H -0.908 1.98254 -0.117106 0
M  V30 2 N 0 1.576 0 0
M  V30 3 C 0.933 2.03868 1.02534 0
M  V30 4 C 1.911 0.928543 1.3348 0
M  V30 5 O 3.095 1.19667 1.45644 0
M  V30 6 C 0.222 2.43627 2.35294 0
M  V30 7 C -0.732 3.65373 2.2001 0
M  V30 8 S 0.101 5.13292 1.52614 0
M  V30 9 C 1.257 5.56322 2.86805 0
M  V30 10 H 1.49 2.90518 0.631377 0
M  V30 11 H -0.977 1.52953 0.210867 0
M  V30 12 H 0.981 2.67203 3.11629 0
M  V30 13 H -0.358 1.57376 2.7183 0
M  V30 14 H -1.165 3.90944 3.18086 0
M  V30 15 H -1.563 3.418 1.51819 0
M  V30 16 H 0.729 5.58782 3.83104 0
M  V30 17 H 1.672 6.56266 2.65933 0
M  V30 18 H 2.08 4.83886 2.90714 0
M  V30 19 N 1.4781 -0.272755 1.55222 0
M  V30 20 C 2.8941 -0.619959 1.47067 0
M  V30 21 C 3.0941 -1.895 0.684978 0
M  V30 22 O 2.1501 -2.51675 0.203931 0
M  V30 23 C 3.4631 -0.746693 2.91282 0
M  V30 24 C 5.0111 -0.840731 3.01497 0
M  V30 25 C 5.4861 -0.99924 4.46967 0
M  V30 26 N 6.9771 -1.06476 4.50796 0
M  V30 27 C 7.7121 -1.20621 5.6057 0
M  V30 28 N 7.2081 -1.31483 6.80209 0
M  V30 29 N 9.0011 -1.23733 5.48312 0
M  V30 30 H 1.1521 0.564606 2.04758 0
M  V30 31 H 3.4151 0.191177 0.928523 0
M  V30 32 H 3.1211 0.119753 3.51496 0
M  V30 33 H 2.9951 -1.6269 3.40311 0
M  V30 34 H 5.3821 -1.69764 2.41379 0
M  V30 35 H 5.4631 0.0640874 2.5572 0
M  V30 36 H 5.1071 -0.146984 5.07687 0
M  V30 37 H 5.0371 -1.91871 4.90401 0
M  V30 38 H 7.5281 -0.993196 3.64615 0
M  V30 39 H 7.8411 -1.42111 7.59621 0
M  V30 40 H 6.1861 -1.28487 6.8302 0
M  V30 41 H 9.3771 -1.14877 4.53785 0
M  V30 42 H 9.5501 -1.34412 6.33906 0
M  V30 43 N 2.9562 -1.48159 -0.537278 0
M  V30 44 C 3.9192 -1.61665 -1.62472 0
M  V30 45 C 4.9192 -0.490395 -1.5314 0
M  V30 46 O 6.1092 -0.755998 -1.5694 0
M  V30 47 C 3.2412 -1.57997 -3.02076 0
M  V30 48 H 4.4342 -2.58621 -1.51839 0
M  V30 49 H 1.9872 -1.36647 -0.758771 0
M  V30 50 H 2.7222 -0.624913 -3.18222 0
M  V30 51 H 2.5072 -2.39755 -3.10258 0
M  V30 52 H 3.9972 -1.70627 -3.81151 0
M  V30 53 N 4.4343 0.785586 -1.36625 0
M  V30 54 C 5.3643 1.91259 -1.33949 0
M  V30 55 C 6.3453 1.68795 -0.210325 0
M  V30 56 O 7.5303 1.89854 -0.408561 0
M  V30 57 C 4.6603 3.28339 -1.13186 0
M  V30 58 C 3.6143 3.65335 -2.22967 0
M  V30 59 C 2.9403 5.00806 -1.87342 0
M  V30 60 C 4.2403 3.7352 -3.65075 0
M  V30 61 H 5.9343 1.93755 -2.28253 0
M  V30 62 H 3.4803 0.930788 -1.09874 0
M  V30 63 H 5.4333 4.06804 -1.09948 0
M  V30 64 H 4.1573 3.2624 -0.153332 0
M  V30 65 H 2.8163 2.89169 -2.25337 0
M  V30 66 H 2.4643 4.95233 -0.880545 0
M  V30 67 H 2.1643 5.26529 -2.60846 0
M  V30 68 H 3.6883 5.81687 -1.85667 0
M  V30 69 H 5.1023 4.42168 -3.64911 0
M  V30 70 H 3.4993 4.10731 -4.37516 0
M  V30 71 H 4.5693 2.74527 -3.99703 0
M  V30 72 N 5.9124 1.20967 1.01018 0
M  V30 73 C 7.1584 1.0353 1.7508 0
M  V30 74 C 7.5134 -0.42734 1.87594 0
M  V30 75 O 6.8064 -1.31298 1.3954 0
M  V30 76 C 7.0004 1.65997 3.16512 0
M  V30 77 C 6.8294 3.18184 3.17788 0
M  V30 78 C 5.5994 3.87198 3.24662 0
M  V30 79 C 7.7974 4.15334 3.03319 0
M  V30 80 N 5.7794 5.26618 3.15509 0
M  V30 81 C 7.1504 5.41472 3.02007 0
M  V30 82 C 9.2054 4.06449 2.87583 0
M  V30 83 C 7.9084 6.5975 2.86571 0
M  V30 84 C 9.9344 5.24357 2.73503 0
M  V30 85 C 9.2964 6.49404 2.72862 0
M  V30 86 H 5.3954 0.433137 0.651089 0
M  V30 87 H 7.9794 1.5324 1.20107 0
M  V30 88 H 6.1504 1.18863 3.69765 0
M  V30 89 H 7.8824 1.41816 3.79039 0
M  V30 90 H 4.6374 3.38093 3.31648 0
M  V30 91 H 5.0614 5.99626 3.14289 0
M  V30 92 H 9.7034 3.10573 2.86887 0
M  V30 93 H 7.4214 7.55792 2.86015 0
M  V30 94 H 11.0074 5.19299 2.62334 0
M  V30 95 H 9.8874 7.39105 2.62093 0
M  V30 96 N 7.3905 -1.2043 1.01659 0
M  V30 97 C 8.6365 -1.90079 0.706963 0
M  V30 98 C 8.9695 -1.78648 -0.761474 0
M  V30 99 O 8.2445 -1.17069 -1.55323 0
M  V30 100 C 8.5275 -3.41469 1.14327 0
M  V30 101 C 8.3805 -3.61833 2.67201 0
M  V30 102 C 9.6995 -4.34261 0.714529 0
M  V30 103 H 6.8185 -0.690254 0.2583 0
M  V30 104 H 9.4605 -1.41826 1.26433 0
M  V30 105 H 7.6105 -3.82696 0.669056 0
M  V30 106 H 9.2825 -3.2986 3.22475 0
M  V30 107 H 7.5255 -3.05304 3.08175 0
M  V30 108 H 8.1965 -4.67955 2.92783 0
M  V30 109 H 10.6725 -4.00682 1.12221 0
M  V30 110 H 9.5485 -5.38806 1.04784 0
M  V30 111 H 9.8095 -4.40431 -0.383799 0
M  V30 112 N 8.8686 -0.792821 -1.36206 0
M  V30 113 C 9.7986 -0.207853 -2.32573 0
M  V30 114 C 10.7796 0.659055 -1.56813 0
M  V30 115 O 11.9646 0.592176 -1.84951 0
M  V30 116 C 9.0946 0.655449 -3.41059 0
M  V30 117 C 8.0486 -0.111842 -4.27854 0
M  V30 118 C 7.3746 0.872274 -5.27537 0
M  V30 119 C 8.6746 -1.30299 -5.05786 0
M  V30 120 H 10.3686 -1.01294 -2.81744 0
M  V30 121 H 7.9146 -0.48854 -1.3546 0
M  V30 122 H 9.8676 1.07464 -4.07467 0
M  V30 123 H 8.5916 1.49328 -2.90463 0
M  V30 124 H 7.2506 -0.512053 -3.63006 0
M  V30 125 H 6.8986 1.70523 -4.73214 0
M  V30 126 H 6.5986 0.363291 -5.86476 0
M  V30 127 H 8.1226 1.28996 -5.96818 0
M  V30 128 H 9.5366 -0.959379 -5.65216 0
M  V30 129 H 7.9336 -1.7455 -5.74154 0
M  V30 130 H 9.0036 -2.09663 -4.37229 0
M  V30 131 N 10.3467 1.47872 -0.545128 0
M  V30 132 C 11.5947 2.02093 -0.016553 0
M  V30 133 C 11.9157 1.42305 1.3332 0
M  V30 134 O 11.1857 0.593853 1.86682 0
M  V30 135 H 9.7657 0.746993 -0.00313038 0
M  V30 136 H 12.4277 1.81414 -0.712397 0
M  V30 137 H 11.5237 3.11996 0.0805422 0
M  V30 138 N 11.8248 0.280983 1.55075 0
M  V30 139 C 12.7548 -0.597469 2.25727 0
M  V30 140 C 13.7358 -1.15417 1.24952 0
M  V30 141 O 14.9208 -1.18722 1.53684 0
M  V30 142 C 12.0508 -1.7789 2.98283 0
M  V30 143 C 11.0048 -1.35347 4.06036 0
M  V30 144 C 10.3308 -2.61846 4.66198 0
M  V30 145 C 11.6308 -0.499354 5.19907 0
M  V30 146 H 13.3248 -0.00824265 2.99399 0
M  V30 147 H 10.8708 -0.0025244 1.44 0
M  V30 148 H 12.8238 -2.39937 3.46422 0
M  V30 149 H 11.5478 -2.39405 2.22155 0
M  V30 150 H 10.2068 -0.756156 3.58717 0
M  V30 151 H 9.8548 -3.21632 3.86732 0
M  V30 152 H 9.5548 -2.3409 5.38958 0
M  V30 153 H 11.0788 -3.24732 5.1709 0
M  V30 154 H 12.4928 -1.02498 5.64063 0
M  V30 155 H 10.8898 -0.316424 5.99265 0
M  V30 156 H 11.9598 0.480459 4.82514 0
M  V30 157 N 13.3029 -1.57598 0.00835791 0
M  V30 158 C 14.5429 -1.92788 -0.679136 0
M  V30 159 C 14.9069 -0.883378 -1.70471 0
M  V30 160 O 16.1079 -1.12079 -2.44319 0
M  V30 161 C 14.3789 -3.32994 -1.29807 0
M  V30 162 S 15.9379 -3.90082 -2.00952 0
M  V30 163 H 12.7559 -0.67475 -0.224127 0
M  V30 164 H 15.3579 -1.95385 0.0670497 0
M  V30 165 H 14.0619 -4.06846 -0.538922 0
M  V30 166 H 13.5929 -3.33791 -2.082 0
M  V30 167 H 15.6079 -3.71834 -3.28563 0
M  V30 168 N 14.781 0.264519 -1.55364 0
M  V30 169 C 16.021 1.00254 -1.78125 0
M  V30 170 C 16.385 1.83187 -0.575017 0
M  V30 171 O 17.586 2.60029 -0.681042 0
M  V30 172 C 15.857 1.85478 -3.05504 0
M  V30 173 S 17.416 2.6543 -3.49417 0
M  V30 174 H 14.234 0.337522 -0.625779 0
M  V30 175 H 16.836 0.272111 -1.93597 0
M  V30 176 H 15.54 1.23491 -3.9138 0
M  V30 177 H 15.071 2.62827 -2.92721 0
M  V30 178 H 17.086 3.87958 -3.09359 0
M  V30 179 N 16.2591 1.48442 0.529413 0
M  V30 180 C 17.5051 1.5672 1.28711 0
M  V30 181 C 17.8381 0.2406 1.92704 0
M  V30 182 O 17.1131 -0.753454 1.79313 0
M  V30 183 C 17.3961 2.70587 2.37603 0
M  V30 184 C 17.2491 4.12953 1.78297 0
M  V30 185 C 18.5681 2.80212 3.39366 0
M  V30 186 H 15.6871 0.570474 0.466613 0
M  V30 187 H 18.3291 1.80617 0.589706 0
M  V30 188 H 16.4791 2.50342 2.97088 0
M  V30 189 H 18.1511 4.44639 1.22858 0
M  V30 190 H 16.3941 4.19927 1.0883 0
M  V30 191 H 17.0651 4.88448 2.57144 0
M  V30 192 H 19.5411 2.98553 2.89836 0
M  V30 193 H 18.4171 3.61611 4.12951 0
M  V30 194 H 18.6781 1.88393 3.99951 0
M  V30 195 N 17.7372 -0.778329 1.37039 0
M  V30 196 C 18.6672 -1.90546 1.34962 0
M  V30 197 C 19.6482 -1.68681 0.219274 0
M  V30 198 O 20.8332 -1.89634 0.418624 0
M  V30 199 C 17.9632 -3.27734 1.14925 0
M  V30 200 C 16.9172 -3.64147 2.24902 0
M  V30 201 C 16.2432 -4.99806 1.89996 0
M  V30 202 C 17.5432 -3.71579 3.67051 0
M  V30 203 H 19.2372 -1.92541 2.29277 0
M  V30 204 H 16.7832 -0.924948 1.10366 0
M  V30 205 H 18.7362 -4.06215 1.12104 0
M  V30 206 H 17.4602 -3.26154 0.170631 0
M  V30 207 H 16.1192 -2.8797 2.26868 0
M  V30 208 H 15.7672 -4.94759 0.906796 0
M  V30 209 H 15.4672 -5.25139 2.63634 0
M  V30 210 H 16.9912 -5.80694 1.88749 0
M  V30 211 H 18.4052 -4.40227 3.67251 0
M  V30 212 H 16.8022 -4.08405 4.39688 0
M  V30 213 H 17.8722 -2.72404 4.01154 0
M  V30 214 N 19.2153 -1.21501 -1.00376 0
M  V30 215 C 20.1453 -0.999478 -2.11028 0
M  V30 216 C 21.1263 0.0759671 -1.6993 0
M  V30 217 O 22.3113 -0.0841106 -1.94018 0
M  V30 218 C 19.4413 -0.564709 -3.42678 0
M  V30 219 C 18.3953 -1.58486 -3.97576 0
M  V30 220 C 17.7213 -1.00628 -5.25146 0
M  V30 221 C 19.0213 -2.97204 -4.29496 0
M  V30 222 H 20.7153 -1.92495 -2.29317 0
M  V30 223 H 18.2613 -0.92693 -1.102 0
M  V30 224 H 20.2143 -0.401091 -4.19487 0
M  V30 225 H 18.9383 0.396411 -3.24185 0
M  V30 226 H 17.5973 -1.73606 -3.22888 0
M  V30 227 H 17.2453 -0.0368439 -5.02987 0
M  V30 228 H 16.9453 -1.68771 -5.62841 0
M  V30 229 H 18.4693 -0.854015 -6.04598 0
M  V30 230 H 19.8833 -2.8552 -4.97143 0
M  V30 231 H 18.2803 -3.62372 -4.78338 0
M  V30 232 H 19.3503 -3.47956 -3.3772 0
M  V30 233 N 20.6934 1.19889 -1.02296 0
M  V30 234 C 21.9214 1.9339 -0.735399 0
M  V30 235 C 22.3364 1.75148 0.704887 0
M  V30 236 O 21.6934 1.06954 1.47875 0
M  V30 237 C 21.7444 3.45313 -1.06962 0
M  V30 238 O 21.4654 3.62964 -2.45334 0
M  V30 239 C 22.9664 4.35948 -0.804021 0
M  V30 240 H 20.1864 0.61448 -0.269546 0
M  V30 241 H 22.7304 1.522 -1.36585 0
M  V30 242 H 20.8854 3.84359 -0.484455 0
M  V30 243 H 21.2994 4.56886 -2.57595 0
M  V30 244 H 22.7734 5.41174 -1.0879 0
M  V30 245 H 23.2504 4.3842 0.261691 0
M  V30 246 H 23.8564 4.02574 -1.37164 0
M  V30 247 N 22.1715 0.800033 1.35784 0
M  V30 248 C 23.4185 0.377342 1.98953 0
M  V30 249 C 23.7465 -1.05378 1.6348 0
M  V30 250 O 23.0015 -1.74459 0.886707 0
M  V30 251 C 23.3005 0.500276 3.53881 0
M  V30 252 C 22.9665 1.89375 4.09204 0
M  V30 253 C 21.6285 2.27499 4.24025 0
M  V30 254 C 23.9805 2.8057 4.39238 0
M  V30 255 C 21.3085 3.562 4.66195 0
M  V30 256 C 23.6605 4.0871 4.82844 0
M  V30 257 C 22.3245 4.46843 4.95871 0
M  V30 258 H 21.5945 0.138079 0.728021 0
M  V30 259 H 24.2415 1.01955 1.62103 0
M  V30 260 H 22.5465 -0.225405 3.91151 0
M  V30 261 H 24.2435 0.154097 4.00704 0
M  V30 262 H 20.8335 1.58753 3.98115 0
M  V30 263 H 25.0175 2.52367 4.27346 0
M  V30 264 H 20.2735 3.85602 4.74469 0
M  V30 265 H 24.4475 4.79481 5.05046 0
M  V30 266 H 22.0745 5.46623 5.28306 0
M  V30 267 N 23.6496 -1.47581 0.552962 0
M  V30 268 C 24.8976 -2.02082 0.0272703 0
M  V30 269 C 25.2186 -1.4301 -1.32563 0
M  V30 270 O 24.4886 -0.603745 -1.86365 0
M  V30 271 H 23.0686 -0.746966 0.00709182 0
M  V30 272 H 25.7306 -1.81033 0.722008 0
M  V30 273 H 24.8266 -3.12034 -0.0639951 0
M  V30 274 N 25.1277 -0.289203 -1.54924 0
M  V30 275 C 26.3527 0.329299 -2.04769 0
M  V30 276 C 26.7777 1.4763 -1.16564 0
M  V30 277 O 26.1357 1.80527 -0.167186 0
M  V30 278 C 26.1837 0.774438 -3.52186 0
M  V30 279 O 25.2877 1.88038 -3.67036 0
M  V30 280 H 24.6287 0.0659259 -0.660719 0
M  V30 281 H 27.1587 -0.42761 -2.00082 0
M  V30 282 H 27.1687 1.06642 -3.93816 0
M  V30 283 H 25.8437 -0.0646707 -4.1585 0
M  V30 284 H 24.4207 1.58985 -3.3731 0
M  V30 285 N 26.6058 1.57591 -0.0167156 0
M  V30 286 C 27.8518 1.91567 0.665582 0
M  V30 287 C 28.1848 0.892298 1.72487 0
M  V30 288 O 27.4598 -0.0867127 1.94307 0
M  V30 289 C 27.7428 3.36069 1.29342 0
M  V30 290 C 27.5958 4.49135 0.244541 0
M  V30 291 C 28.9148 3.803 2.21495 0
M  V30 292 H 26.0338 0.69666 0.240488 0
M  V30 293 H 28.6758 1.89866 -0.0714356 0
M  V30 294 H 26.8258 3.3765 1.92158 0
M  V30 295 H 28.4978 4.59689 -0.385228 0
M  V30 296 H 26.7408 4.3165 -0.431379 0
M  V30 297 H 27.4118 5.47242 0.723207 0
M  V30 298 H 29.8878 3.80377 1.68678 0
M  V30 299 H 28.7638 4.82127 2.62382 0
M  V30 300 H 29.0248 3.15104 3.101 0
M  V30 301 N 28.0839 -0.256276 1.55502 0
M  V30 302 C 29.4999 -0.604325 1.47716 0
M  V30 303 C 29.6999 -1.88763 0.705039 0
M  V30 304 O 28.7559 -2.51445 0.230613 0
M  V30 305 C 30.0689 -0.715756 2.92057 0
M  V30 306 C 31.6169 -0.808706 3.02372 0
M  V30 307 C 32.0919 -0.951777 4.48001 0
M  V30 308 N 33.5829 -1.01688 4.519 0
M  V30 309 C 34.3179 -1.14668 5.61817 0
M  V30 310 N 33.8139 -1.24261 6.81565 0
M  V30 311 N 35.6069 -1.1791 5.49594 0
M  V30 312 H 27.7579 0.586291 2.04148 0
M  V30 313 H 30.0209 0.201015 0.926443 0
M  V30 314 H 29.7269 0.157027 3.51349 0
M  V30 315 H 29.6009 -1.59071 3.42018 0
M  V30 316 H 31.9879 -1.67195 2.43166 0
M  V30 317 H 32.0689 0.0912063 2.55637 0
M  V30 318 H 31.7129 -0.0931291 5.07815 0
M  V30 319 H 31.6429 -1.86659 4.92408 0
M  V30 320 H 34.1339 -0.954468 3.65648 0
M  V30 321 H 34.4469 -1.34046 7.61086 0
M  V30 322 H 32.7919 -1.21236 6.84344 0
M  V30 323 H 35.9829 -1.10057 4.54978 0
M  V30 324 H 36.1559 -1.27681 6.35296 0
M  V30 325 N 29.562 -1.4872 -0.521534 0
M  V30 326 C 30.525 -1.63379 -1.60748 0
M  V30 327 C 31.525 -0.50661 -1.52611 0
M  V30 328 O 32.715 -0.772601 -1.5613 0
M  V30 329 C 29.847 -1.61192 -3.00383 0
M  V30 330 H 31.04 -2.60217 -1.49087 0
M  V30 331 H 28.593 -1.37444 -0.744235 0
M  V30 332 H 29.328 -0.65863 -3.17541 0
M  V30 333 H 29.113 -2.43032 -3.07698 0
M  V30 334 H 30.603 -1.7466 -3.7932 0
M  V30 335 N 31.0401 0.771051 -1.3745 0
M  V30 336 C 32.3171 1.519 -1.23231 0
M  V30 337 C 32.6971 2.10383 0.173809 0
M  V30 338 O 32.0451 1.95583 1.18151 0
M  V30 339 C 32.2551 2.59933 -2.32886 0
M  V30 340 C 33.6031 3.27316 -2.70461 0
M  V30 341 O 34.6271 2.70228 -2.32068 0
M  V30 342 O 33.4861 4.30531 -3.36608 0
M  V30 343 H 30.5801 0.672803 -0.480901 0
M  V30 344 H 33.1261 0.807957 -1.49232 0
M  V30 345 H 31.8981 2.14842 -3.27045 0
M  V30 346 H 31.5211 3.38637 -2.08353 0
M  V30 347 N 32.5182 1.22032 0.997298 0
M  V30 348 C 33.7952 0.950823 1.70935 0
M  V30 349 C 34.1752 -0.535292 2.042 0
M  V30 350 O 33.5232 -1.50217 1.72183 0
M  V30 351 C 33.7332 1.84386 2.96315 0
M  V30 352 C 35.0812 2.09732 3.69185 0
M  V30 353 O 36.1052 1.81798 3.06314 0
M  V30 354 O 34.9642 2.57018 4.82291 0
M  V30 355 H 32.0582 0.357204 0.745878 0
M  V30 356 H 34.6042 1.32997 1.05404 0
M  V30 357 H 33.3762 2.84928 2.68201 0
M  V30 358 H 32.9992 1.46602 3.69586 0
M  V30 359 N 33.9963 -1.19345 1.0293 0
M  V30 360 C 34.9063 -2.26245 0.620515 0
M  V30 361 C 35.9223 -1.70486 -0.347928 0
M  V30 362 O 37.0983 -2.00347 -0.205704 0
M  V30 363 C 34.1633 -3.46693 -0.0218957 0
M  V30 364 C 33.2243 -4.17632 0.994102 0
M  V30 365 C 32.4573 -5.32329 0.382253 0
M  V30 366 O 32.6803 -5.64552 -0.814676 0
M  V30 367 O 31.6143 -5.91664 1.10531 0
M  V30 368 H 35.4403 -2.63453 1.51083 0
M  V30 369 H 33.0253 -1.26207 0.799513 0
M  V30 370 H 34.9073 -4.19683 -0.380072 0
M  V30 371 H 33.5823 -3.11333 -0.886209 0
M  V30 372 H 32.4893 -3.4676 1.40387 0
M  V30 373 H 33.8223 -4.56964 1.8288 0
M  V30 374 N 35.4744 -0.807222 -1.35358 0
M  V30 375 C 36.7204 -0.388463 -1.99045 0
M  V30 376 C 37.0534 1.04184 -1.63888 0
M  V30 377 O 36.3284 1.72292 -0.902535 0
M  V30 378 C 36.6114 -0.572783 -3.55515 0
M  V30 379 C 36.4644 -2.04807 -4.00468 0
M  V30 380 C 37.7834 0.00114064 -4.401 0
M  V30 381 H 34.9024 -0.142619 -0.723069 0
M  V30 382 H 37.5444 -1.01687 -1.60498 0
M  V30 383 H 35.6944 -0.0378425 -3.88482 0
M  V30 384 H 37.3664 -2.64544 -3.77908 0
M  V30 385 H 35.6094 -2.54427 -3.51353 0
M  V30 386 H 36.2804 -2.12792 -5.09337 0
M  V30 387 H 38.7564 -0.455716 -4.13597 0
M  V30 388 H 37.6324 -0.157737 -5.48673 0
M  V30 389 H 37.8934 1.09488 -4.28328 0
M  V30 390 N 36.9525 1.47285 -0.560781 0
M  V30 391 C 38.2295 1.9558 0.0277798 0
M  V30 392 C 38.6095 1.5034 1.48192 0
M  V30 393 O 37.9575 0.743882 2.16052 0
M  V30 394 C 38.1675 3.48789 -0.121418 0
M  V30 395 C 39.5155 4.24594 0.0220912 0
M  V30 396 O 40.5395 3.56166 -0.0491439 0
M  V30 397 O 39.3985 5.46217 0.175958 0
M  V30 398 H 36.4925 0.824663 0.0621342 0
M  V30 399 H 39.0385 1.5767 -0.627556 0
M  V30 400 H 37.8105 3.74533 -1.13316 0
M  V30 401 H 37.4335 3.93473 0.571366 0
M  V30 402 N 38.4306 0.297415 1.54768 0
M  V30 403 C 39.6766 -0.313376 2.00364 0
M  V30 404 C 40.0096 -1.53815 1.18553 0
M  V30 405 O 39.2846 -1.92739 0.261103 0
M  V30 406 C 39.5676 -0.673525 3.53745 0
M  V30 407 C 39.4206 0.560133 4.46299 0
M  V30 408 C 40.7396 -1.50143 4.13697 0
M  V30 409 H 37.8586 -0.112428 0.728374 0
M  V30 410 H 40.5006 0.4088 1.8555 0
M  V30 411 H 38.6506 -1.28881 3.665 0
M  V30 412 H 40.3226 1.19863 4.45455 0
M  V30 413 H 38.5656 1.19405 4.17043 0
M  V30 414 H 39.2366 0.26405 5.51368 0
M  V30 415 H 41.7126 -0.981588 4.04356 0
M  V30 416 H 40.5886 -1.72221 5.21182 0
M  V30 417 H 40.8496 -2.48952 3.65343 0
M  V30 418 N 39.9087 -1.5758 0.0250728 0
M  V30 419 C 41.1857 -1.82917 -0.692873 0
M  V30 420 C 41.5657 -0.908137 -1.90568 0
M  V30 421 O 40.9137 0.0372298 -2.2847 0
M  V30 422 C 41.1237 -3.32034 -1.07492 0
M  V30 423 C 42.4717 -3.98406 -1.46826 0
M  V30 424 O 43.4957 -3.36505 -1.16801 0
M  V30 425 O 42.3547 -5.07497 -2.02754 0
M  V30 426 H 39.4487 -0.754079 -0.33955 0
M  V30 427 H 41.9947 -1.69619 0.0524456 0
M  V30 428 H 40.7667 -3.90728 -0.211552 0
M  V30 429 H 40.3897 -3.50424 -1.87854 0
M  V30 430 N 41.3868 0.248026 -1.55636 0
M  V30 431 C 42.6348 0.974295 -1.77065 0
M  V30 432 C 42.9558 1.85897 -0.588849 0
M  V30 433 O 42.2258 1.91868 0.395407 0
M  V30 434 H 40.8058 0.362733 -0.653019 0
M  V30 435 H 43.4678 0.266244 -1.93073 0
M  V30 436 H 42.5638 1.59667 -2.68166 0
M  V30 437 N 42.8649 1.48995 0.513639 0
M  V30 438 C 44.0929 1.61531 1.29288 0
M  V30 439 C 44.5079 0.281801 1.86685 0
M  V30 440 O 43.8649 -0.731111 1.67215 0
M  V30 441 C 43.9159 2.67449 2.43215 0
M  V30 442 O 43.6369 3.95626 1.88179 0
M  V30 443 C 45.1379 2.90575 3.34785 0
M  V30 444 H 42.3579 0.544165 0.392588 0
M  V30 445 H 44.9019 1.9494 0.617956 0
M  V30 446 H 43.0569 2.36853 3.0656 0
M  V30 447 H 43.4709 4.53868 2.62876 0
M  V30 448 H 44.9449 3.68449 4.11035 0
M  V30 449 H 45.4219 2.00011 3.91015 0
M  V30 450 H 46.0279 3.22538 2.77218 0
M  V30 451 N 44.343 -0.763751 1.37857 0
M  V30 452 C 45.589 -1.52483 1.33704 0
M  V30 453 C 45.922 -1.94051 -0.0759612 0
M  V30 454 O 45.197 -1.64675 -1.03501 0
M  V30 455 C 45.48 -2.78441 2.28348 0
M  V30 456 C 45.333 -2.43075 3.78463 0
M  V30 457 C 46.652 -3.80415 2.21298 0
M  V30 458 H 43.771 -0.553169 0.487005 0
M  V30 459 H 46.413 -0.875562 1.68624 0
M  V30 460 H 44.563 -3.33842 1.987 0
M  V30 461 H 46.235 -1.93527 4.18742 0
M  V30 462 H 44.478 -1.75666 3.96641 0
M  V30 463 H 45.149 -3.33149 4.40132 0
M  V30 464 H 47.625 -3.34527 2.47449 0
M  V30 465 H 46.501 -4.66257 2.89647 0
M  V30 466 H 46.762 -4.25262 1.20849 0
M  V30 467 N 45.8211 -1.22559 -0.990812 0
M  V30 468 C 46.7311 -1.01394 -2.11557 0
M  V30 469 C 47.7471 0.0383962 -1.73958 0
M  V30 470 O 48.9231 -0.154787 -2.00804 0
M  V30 471 C 45.9881 -0.596569 -3.41529 0
M  V30 472 C 45.0491 -1.72276 -3.93217 0
M  V30 473 C 44.2821 -1.32521 -5.16985 0
M  V30 474 O 44.5051 -0.204909 -5.70032 0
M  V30 475 O 43.4391 -2.14247 -5.62478 0
M  V30 476 H 47.2651 -1.95633 -2.32296 0
M  V30 477 H 44.8501 -1.01172 -1.0993 0
M  V30 478 H 46.7321 -0.374263 -4.19735 0
M  V30 479 H 45.4071 0.316939 -3.22145 0
M  V30 480 H 44.3141 -1.99961 -3.16174 0
M  V30 481 H 45.6471 -2.61421 -4.17037 0
M  V30 482 N 47.2992 1.18797 -1.03562 0
M  V30 483 C 48.2092 2.25913 -0.632505 0
M  V30 484 C 49.2252 1.70668 0.338882 0
M  V30 485 O 50.4012 2.00453 0.195076 0
M  V30 486 C 47.4662 3.467 0.00350942 0
M  V30 487 C 46.5272 4.17098 -1.01624 0
M  V30 488 C 45.7602 5.32119 -0.410478 0
M  V30 489 O 45.9832 5.64976 0.784725 0
M  V30 490 O 44.9172 5.9107 -1.13667 0
M  V30 491 H 48.7432 2.62648 -1.52478 0
M  V30 492 H 46.3282 1.25781 -0.806195 0
M  V30 493 H 48.2102 4.19878 0.35781 0
M  V30 494 H 46.8852 3.11798 0.869686 0
M  V30 495 H 45.7922 3.4601 -1.42224 0
M  V30 496 H 47.1252 4.55987 -1.85301 0
M  V30 497 N 48.7773 0.814389 1.34928 0
M  V30 498 C 50.0543 0.321363 1.92942 0
M  V30 499 C 50.4343 -1.19014 1.74353 0
M  V30 500 O 49.7823 -1.99328 1.11716 0
M  V30 501 C 49.9923 0.741323 3.41036 0
M  V30 502 C 51.3403 0.735266 4.18185 0
M  V30 503 O 52.3643 0.68336 3.49584 0
M  V30 504 O 51.2233 0.800703 5.40602 0
M  V30 505 H 48.3173 0.0858893 0.822528 0
M  V30 506 H 50.8633 0.898609 1.43955 0
M  V30 507 H 49.6353 1.78276 3.4833 0
M  V30 508 H 49.2583 0.139307 3.97356 0
M  V30 509 N 50.2554 -1.46986 0.568584 0
M  V30 510 C 51.1854 -2.32946 -0.160753 0
M  V30 511 C 52.1664 -1.44487 -0.897631 0
M  V30 512 O 53.3514 -1.73327 -0.875867 0
M  V30 513 C 50.4814 -3.26494 -1.18403 0
M  V30 514 C 49.4354 -4.24282 -0.562895 0
M  V30 515 C 48.7614 -5.07236 -1.69163 0
M  V30 516 C 50.0614 -5.19989 0.490761 0
M  V30 517 H 51.7554 -2.94175 0.556916 0
M  V30 518 H 49.3014 -1.4146 0.26927 0
M  V30 519 H 51.2544 -3.85477 -1.70251 0
M  V30 520 H 49.9784 -2.63343 -1.93179 0
M  V30 521 H 48.6374 -3.66541 -0.0656164 0
M  V30 522 H 48.2854 -4.4048 -2.42871 0
M  V30 523 H 47.9854 -5.7345 -1.28174 0
M  V30 524 H 49.5094 -5.6908 -2.21314 0
M  V30 525 H 50.9234 -5.73271 0.0579047 0
M  V30 526 H 49.3204 -5.94469 0.820165 0
M  V30 527 H 50.3904 -4.64777 1.3824 0
M  V30 528 N 51.7335 -0.305618 -1.54608 0
M  V30 529 C 52.9815 0.301701 -1.99835 0
M  V30 530 C 53.3025 1.54054 -1.19551 0
M  V30 531 O 52.5725 1.93702 -0.292658 0
M  V30 532 H 51.1525 0.114468 -0.738178 0
M  V30 533 H 53.8145 -0.418016 -1.90364 0
M  V30 534 H 52.9105 0.570548 -3.06841 0
M  V30 535 N 53.2116 1.57565 -0.0334293 0
M  V30 536 C 54.1586 2.10478 0.946981 0
M  V30 537 C 55.1286 1.00787 1.32027 0
M  V30 538 O 56.3136 1.28232 1.41284 0
M  V30 539 C 53.4536 2.63994 2.22263 0
M  V30 540 C 52.5666 3.87709 1.90541 0
M  V30 541 C 51.7016 4.29604 3.12433 0
M  V30 542 C 50.7406 5.46065 2.76549 0
M  V30 543 N 49.8776 5.83096 3.9108 0
M  V30 544 H 54.7176 2.93963 0.488846 0
M  V30 545 H 52.2546 1.45296 0.22969 0
M  V30 546 H 54.2126 2.93114 2.96884 0
M  V30 547 H 52.8426 1.83333 2.65685 0
M  V30 548 H 51.8946 3.65291 1.06144 0
M  V30 549 H 53.2066 4.72403 1.60116 0
M  V30 550 H 52.3606 4.60182 3.9537 0
M  V30 551 H 51.0996 3.43685 3.46023 0
M  V30 552 H 50.1046 5.15176 1.92026 0
M  V30 553 H 51.3296 6.33685 2.44171 0
M  V30 554 H 49.2756 5.00132 4.24504 0
M  V30 555 H 49.1926 6.6244 3.64293 0
M  V30 556 H 50.4606 6.18282 4.74708 0
M  V30 557 N 54.6897 -0.239769 1.55765 0
M  V30 558 C 55.9147 -0.988373 1.82335 0
M  V30 559 C 56.3397 -1.77886 0.611421 0
M  V30 560 O 55.6977 -1.75889 -0.439639 0
M  V30 561 C 55.7457 -1.89627 3.06715 0
M  V30 562 O 54.8497 -2.98904 2.84131 0
M  V30 563 H 54.1907 -0.280858 0.601677 0
M  V30 564 H 56.7207 -0.258597 2.02959 0
M  V30 565 H 56.7307 -2.30957 3.36338 0
M  V30 566 H 55.4057 -1.31511 3.9456 0
M  V30 567 H 53.9827 -2.61651 2.65694 0
M  V30 568 N 56.1678 -1.49265 -0.50573 0
M  V30 569 C 57.5838 -1.35923 -0.836486 0
M  V30 570 C 57.7838 -0.388704 -1.97715 0
M  V30 571 O 56.8398 0.181336 -2.51848 0
M  V30 572 C 58.1528 -2.76531 -1.18115 0
M  V30 573 C 59.7008 -2.85197 -1.28964 0
M  V30 574 C 60.1758 -4.26561 -1.66761 0
M  V30 575 N 61.6668 -4.2935 -1.73819 0
M  V30 576 C 62.4018 -5.35693 -2.045 0
M  V30 577 N 61.8978 -6.52287 -2.33438 0
M  V30 578 N 63.6908 -5.23105 -2.05711 0
M  V30 579 H 55.8418 -2.10965 0.246519 0
M  V30 580 H 58.1048 -0.9468 0.0476887 0
M  V30 581 H 57.8108 -3.49226 -0.416398 0
M  V30 582 H 57.6848 -3.11599 -2.1257 0
M  V30 583 H 60.0718 -2.12742 -2.04511 0
M  V30 584 H 60.1528 -2.53718 -0.325704 0
M  V30 585 H 59.7968 -4.99541 -0.917656 0
M  V30 586 H 59.7268 -4.55502 -2.64246 0
M  V30 587 H 62.2178 -3.4526 -1.53635 0
M  V30 588 H 62.5308 -7.29158 -2.56024 0
M  V30 589 H 60.8758 -6.55521 -2.30905 0
M  V30 590 H 64.0668 -4.31026 -1.82577 0
M  V30 591 H 64.2398 -6.06078 -2.29289 0
M  V30 592 N 57.6459 0.756429 -1.3826 0
M  V30 593 C 58.5559 1.9009 -1.37488 0
M  V30 594 C 59.5719 1.71855 -0.272366 0
M  V30 595 O 60.7479 1.94827 -0.510318 0
M  V30 596 C 57.8129 3.25421 -1.19592 0
M  V30 597 C 56.8739 3.56202 -2.39622 0
M  V30 598 C 56.1069 4.85075 -2.2257 0
M  V30 599 O 56.3299 5.57246 -1.21793 0
M  V30 600 O 55.2639 5.15269 -3.11098 0
M  V30 601 H 59.0899 1.93695 -2.33914 0
M  V30 602 H 56.6749 0.901313 -1.1915 0
M  V30 603 H 58.5569 4.06337 -1.11661 0
M  V30 604 H 57.2319 3.22634 -0.262486 0
M  V30 605 H 56.1389 2.75458 -2.53128 0
M  V30 606 H 57.4719 3.63747 -3.31586 0
M  V30 607 N 59.124 1.23083 0.984299 0
M  V30 608 C 60.372 1.05848 1.72165 0
M  V30 609 C 60.693 -0.406049 1.90726 0
M  V30 610 O 59.963 -1.29139 1.47309 0
M  V30 611 H 58.543 0.388685 0.637913 0
M  V30 612 H 61.205 1.54736 1.18503 0
M  V30 613 H 60.301 1.54327 2.71274 0
M  V30 614 N 60.6021 -1.18246 1.0419 0
M  V30 615 C 61.8271 -1.92736 0.765996 0
M  V30 616 C 62.2521 -1.75728 -0.67091 0
M  V30 617 O 61.6101 -1.06825 -1.46486 0
M  V30 618 C 61.6581 -3.42148 1.13875 0
M  V30 619 O 60.7621 -4.11548 0.264954 0
M  V30 620 H 60.1031 -0.601238 0.281797 0
M  V30 621 H 62.6331 -1.49942 1.39207 0
M  V30 622 H 62.6431 -3.92858 1.1012 0
M  V30 623 H 61.3181 -3.53848 2.18551 0
M  V30 624 H 59.8951 -3.71137 0.362226 0
M  V30 625 N 62.0802 -0.821533 -1.34494 0
M  V30 626 C 63.4962 -0.507117 -1.51329 0
M  V30 627 C 63.6962 0.968964 -1.76673 0
M  V30 628 O 62.7522 1.75348 -1.81685 0
M  V30 629 C 64.0652 -1.36544 -2.67911 0
M  V30 630 C 65.6132 -1.36242 -2.81793 0
M  V30 631 C 66.0882 -2.2052 -4.01416 0
M  V30 632 N 67.5792 -2.18136 -4.08621 0
M  V30 633 C 68.3142 -2.80095 -5.00334 0
M  V30 634 N 67.8102 -3.51039 -5.9728 0
M  V30 635 N 69.6032 -2.69656 -4.93196 0
M  V30 636 H 61.7542 -1.77729 -1.16302 0
M  V30 637 H 64.0172 -0.757291 -0.570276 0
M  V30 638 H 63.7232 -2.41361 -2.55808 0
M  V30 639 H 63.5972 -1.02917 -3.62888 0
M  V30 640 H 65.9842 -0.322041 -2.93338 0
M  V30 641 H 66.0652 -1.73866 -1.87628 0
M  V30 642 H 65.7092 -3.24607 -3.90631 0
M  V30 643 H 65.6392 -1.80247 -4.94791 0
M  V30 644 H 68.1302 -1.6653 -3.39229 0
M  V30 645 H 68.4432 -3.95565 -6.63889 0
M  V30 646 H 66.7882 -3.55145 -5.97409 0
M  V30 647 H 69.9792 -2.13808 -4.16418 0
M  V30 648 H 70.1522 -3.1823 -5.64476 0
M  V30 649 N 63.5583 1.46682 -0.576371 0
M  V30 650 C 64.7863 2.06798 -0.0649635 0
M  V30 651 C 65.2013 1.42612 1.23723 0
M  V30 652 O 64.5583 0.529203 1.74659 0
M  V30 653 C 64.6093 3.6132 0.114202 0
M  V30 654 O 64.3303 4.23104 -1.13644 0
M  V30 655 C 65.8313 4.38349 0.66069 0
M  V30 656 H 63.0513 0.668778 -0.0545616 0
M  V30 657 H 65.5953 1.88404 -0.795237 0
M  V30 658 H 63.7503 3.79162 0.794673 0
M  V30 659 H 64.1643 5.15894 -0.946253 0
M  V30 660 H 65.6383 5.47081 0.73526 0
M  V30 661 H 66.1153 4.05953 1.67627 0
M  V30 662 H 66.7213 4.25297 0.0152951 0
M  V30 663 N 65.0364 0.313813 1.54444 0
M  V30 664 C 66.3134 -0.345447 1.92525 0
M  V30 665 C 66.6934 -1.70667 1.24242 0
M  V30 666 O 66.0414 -2.25273 0.382654 0
M  V30 667 C 66.2514 -0.44737 3.46121 0
M  V30 668 C 67.5994 -0.712238 4.18584 0
M  V30 669 O 68.6234 -0.530678 3.52225 0
M  V30 670 O 67.4824 -1.06183 5.36085 0
M  V30 671 H 64.5764 -0.195407 0.803583 0
M  V30 672 H 67.1224 0.362813 1.65776 0
M  V30 673 H 65.8944 0.509043 3.87975 0
M  V30 674 H 65.5174 -1.20359 3.78945 0
M  V30 675 N 66.5145 -1.57545 0.0417849 0
M  V30 676 C 67.7915 -1.83642 -0.673433 0
M  V30 677 C 68.1715 -0.928298 -1.89594 0
M  V30 678 O 67.5195 0.0129955 -2.28496 0
M  V30 679 C 67.7295 -3.33155 -1.03964 0
M  V30 680 C 69.0775 -3.99941 -1.42592 0
M  V30 681 O 70.1015 -3.37725 -1.13226 0
M  V30 682 O 68.9605 -5.09619 -1.9736 0
M  V30 683 H 66.0545 -0.757638 -0.331533 0
M  V30 684 H 68.6005 -1.69554 0.070433 0
M  V30 685 H 67.3725 -3.9093 -0.170098 0
M  V30 686 H 66.9955 -3.52396 -1.84126 0
M  V30 687 N 67.9926 0.231505 -1.5589 0
M  V30 688 C 68.9026 1.308 -1.94752 0
M  V30 689 C 69.9186 1.51826 -0.849989 0
M  V30 690 O 71.0946 1.6515 -1.15271 0
M  V30 691 C 68.1596 2.63968 -2.24771 0
M  V30 692 C 67.2206 2.51331 -3.48039 0
M  V30 693 C 66.4536 3.78148 -3.76616 0
M  V30 694 O 66.6766 4.80722 -3.07022 0
M  V30 695 O 65.6106 3.75857 -4.70123 0
M  V30 696 H 69.4366 1.0083 -2.86474 0
M  V30 697 H 67.0216 0.433547 -1.42971 0
M  V30 698 H 68.9036 3.42633 -2.45318 0
M  V30 699 H 67.5786 2.9364 -1.36225 0
M  V30 700 H 66.4856 1.709 -3.32782 0
M  V30 701 H 67.8186 2.26601 -4.36936 0
M  V30 702 N 69.4707 1.49531 0.497807 0
M  V30 703 C 70.7167 1.59415 1.25358 0
M  V30 704 C 71.0497 0.281422 1.9215 0
M  V30 705 O 70.3247 -0.715249 1.80871 0
M  V30 706 C 70.6077 2.75566 2.3181 0
M  V30 707 C 70.4607 4.16642 1.69498 0
M  V30 708 C 71.7797 2.87347 3.33346 0
M  V30 709 H 68.8987 0.580244 0.454408 0
M  V30 710 H 71.5407 1.81827 0.551262 0
M  V30 711 H 69.6907 2.56587 2.91711 0
M  V30 712 H 71.3627 4.47145 1.13399 0
M  V30 713 H 69.6057 4.22141 0.998978 0
M  V30 714 H 70.2767 4.93792 2.46725 0
M  V30 715 H 72.7527 3.04634 2.83438 0
M  V30 716 H 71.6287 3.70289 4.05188 0
M  V30 717 H 71.8897 1.96834 3.95865 0
M  V30 718 N 70.9488 -0.749086 1.3866 0
M  V30 719 C 72.1948 -1.51056 1.35314 0
M  V30 720 C 72.5278 -1.94121 -0.0553751 0
M  V30 721 O 71.8028 -1.65763 -1.01749 0
M  V30 722 C 72.0858 -2.76003 2.31288 0
M  V30 723 C 71.9388 -2.39047 3.8102 0
M  V30 724 C 73.2578 -3.78046 2.2532 0
M  V30 725 H 70.3768 -0.547972 0.492844 0
M  V30 726 H 73.0188 -0.857628 1.69543 0
M  V30 727 H 71.1688 -3.31716 2.02229 0
M  V30 728 H 72.8408 -1.89074 4.20771 0
M  V30 729 H 71.0838 -1.71449 3.98482 0
M  V30 730 H 71.7548 -3.28462 4.4364 0
M  V30 731 H 74.2308 -3.31884 2.50983 0
M  V30 732 H 73.1068 -4.63159 2.94576 0
M  V30 733 H 73.3678 -4.23957 1.25352 0
M  V30 734 N 72.4269 -1.23603 -0.977757 0
M  V30 735 C 73.3589 -0.977369 -2.07317 0
M  V30 736 C 74.3719 0.0495845 -1.62724 0
M  V30 737 O 75.5609 -0.186261 -1.77526 0
M  V30 738 C 72.6609 -0.451216 -3.35883 0
M  V30 739 C 71.8339 -1.53896 -4.09432 0
M  V30 740 C 70.8929 -1.01721 -5.16274 0
M  V30 741 O 69.9189 -1.70676 -5.43009 0
M  V30 742 N 71.1209 0.153594 -5.80297 0
M  V30 743 H 73.8859 -1.92047 -2.30082 0
M  V30 744 H 71.4469 -1.14497 -1.14465 0
M  V30 745 H 73.4389 -0.0871574 -4.04606 0
M  V30 746 H 72.0089 0.397368 -3.10064 0
M  V30 747 H 71.2289 -2.07566 -3.35127 0
M  V30 748 H 72.5169 -2.27037 -4.55337 0
M  V30 749 H 71.9149 0.730323 -5.60966 0
M  V30 750 H 70.4719 0.458892 -6.50183 0
M  V30 751 N 73.905 1.17692 -1.04816 0
M  V30 752 C 75.321 1.39863 -0.768794 0
M  V30 753 C 75.521 1.91118 0.638451 0
M  V30 754 O 74.577 2.10036 1.40146 0
M  V30 755 C 75.89 2.39274 -1.82122 0
M  V30 756 C 77.438 2.52987 -1.843 0
M  V30 757 C 77.913 3.55669 -2.88555 0
M  V30 758 N 79.404 3.63183 -2.87493 0
M  V30 759 C 80.139 4.42381 -3.64811 0
M  V30 760 N 79.635 5.25125 -4.51903 0
M  V30 761 N 81.428 4.37217 -3.53267 0
M  V30 762 H 73.579 0.82752 -1.95617 0
M  V30 763 H 75.842 0.426123 -0.846831 0
M  V30 764 H 75.548 2.08678 -2.83102 0
M  V30 765 H 75.422 3.38725 -1.65967 0
M  V30 766 H 77.809 2.82896 -0.839869 0
M  V30 767 H 77.89 1.53623 -2.04532 0
M  V30 768 H 77.534 3.26499 -3.89051 0
M  V30 769 H 77.464 4.54728 -2.65575 0
M  V30 770 H 79.955 3.04103 -2.24343 0
M  V30 771 H 80.268 5.82728 -5.07591 0
M  V30 772 H 78.613 5.24519 -4.55966 0
M  V30 773 H 81.804 3.71626 -2.84625 0
M  V30 774 H 81.977 4.98696 -4.13771 0
M  V30 775 N 75.3831 0.828654 1.34056 0
M  V30 776 C 76.2931 0.256725 2.33191 0
M  V30 777 C 77.3091 -0.611898 1.62886 0
M  V30 778 O 78.4851 -0.51844 1.94613 0
M  V30 779 C 75.5501 -0.567238 3.42028 0
M  V30 780 C 74.6111 0.324458 4.28072 0
M  V30 781 C 73.8441 -0.460274 5.31712 0
M  V30 782 O 74.0671 -1.693 5.44696 0
M  V30 783 O 73.0011 0.160391 6.01686 0
M  V30 784 H 76.8271 1.07739 2.83947 0
M  V30 785 H 74.4121 0.59093 1.37217 0
M  V30 786 H 76.2941 -1.03582 4.08471 0
M  V30 787 H 74.9691 -1.36513 2.93506 0
M  V30 788 H 73.8761 0.840659 3.64532 0
M  V30 789 H 75.2091 1.08685 4.8005 0
M  V30 790 N 76.8612 -1.46375 0.584142 0
M  V30 791 C 77.7712 -2.34115 -0.150728 0
M  V30 792 C 78.7872 -1.49838 -0.884567 0
M  V30 793 O 79.9632 -1.82704 -0.847429 0
M  V30 794 C 77.0282 -3.2705 -1.15062 0
M  V30 795 C 76.0892 -4.27228 -0.421293 0
M  V30 796 C 75.3222 -5.15722 -1.37355 0
M  V30 797 O 75.5452 -5.07176 -2.61014 0
M  V30 798 O 74.4792 -5.95383 -0.883355 0
M  V30 799 H 78.3052 -2.98309 0.569708 0
M  V30 800 H 75.8902 -1.45373 0.344535 0
M  V30 801 H 77.7722 -3.84381 -1.72712 0
M  V30 802 H 76.4472 -2.65451 -1.8525 0
M  V30 803 H 75.3542 -3.7358 0.197085 0
M  V30 804 H 76.6872 -4.91616 0.239641 0
M  V30 805 N 78.3393 -0.321999 -1.54275 0
M  V30 806 C 79.2493 0.553631 -2.27974 0
M  V30 807 C 80.2653 1.13054 -1.32268 0
M  V30 808 O 81.4413 1.15084 -1.6528 0
M  V30 809 C 78.5063 1.69927 -3.02201 0
M  V30 810 C 77.5673 1.15433 -4.1349 0
M  V30 811 C 76.8003 2.24537 -4.84168 0
M  V30 812 O 77.0233 3.44852 -4.5435 0
M  V30 813 O 75.9573 1.90044 -5.7111 0
M  V30 814 H 79.7833 -0.0448345 -3.03667 0
M  V30 815 H 77.3683 -0.0877418 -1.49142 0
M  V30 816 H 79.2503 2.3663 -3.48689 0
M  V30 817 H 77.9253 2.28395 -2.29385 0
M  V30 818 H 76.8323 0.452436 -3.71354 0
M  V30 819 H 78.1653 0.614805 -4.88345 0
M  V30 820 N 79.8174 1.5752 -0.0501392 0
M  V30 821 C 80.7804 2.1037 0.909786 0
M  V30 822 C 81.7804 1.02308 1.24056 0
M  V30 823 O 82.9704 1.28385 1.17741 0
M  V30 824 C 80.1024 2.58708 2.21998 0
M  V30 825 H 81.2954 2.96479 0.451665 0
M  V30 826 H 78.8484 1.55038 0.198248 0
M  V30 827 H 79.5834 1.75989 2.72394 0
M  V30 828 H 79.3684 3.37675 1.99295 0
M  V30 829 H 80.8584 2.99747 2.9076 0
M  V30 830 N 81.2955 -0.223234 1.56011 0
M  V30 831 C 82.5445 -0.945912 1.78144 0
M  V30 832 C 82.8575 -1.85567 0.618396 0
M  V30 833 O 84.0635 -2.61688 0.723318 0
M  V30 834 C 82.5195 -1.73216 3.15475 0
M  V30 835 C 82.1275 -0.868619 4.39499 0
M  V30 836 C 83.8715 -2.44615 3.46935 0
M  V30 837 C 81.7785 -1.65212 5.67855 0
M  V30 838 H 80.7085 -0.356929 0.664167 0
M  V30 839 H 83.3595 -0.199845 1.82409 0
M  V30 840 H 81.7415 -2.52107 3.05382 0
M  V30 841 H 82.9155 -0.120366 4.60643 0
M  V30 842 H 81.2305 -0.26683 4.15544 0
M  V30 843 H 83.8275 -3.03732 4.40058 0
M  V30 844 H 84.1705 -3.17417 2.69355 0
M  V30 845 H 84.7035 -1.72715 3.58349 0
M  V30 846 H 81.4425 -0.967407 6.48322 0
M  V30 847 H 80.9625 -2.37503 5.50774 0
M  V30 848 H 82.6415 -2.21322 6.07968 0
M  V30 849 N 82.7736 -1.49793 -0.48987 0
M  V30 850 C 83.7056 -1.63413 -1.60713 0
M  V30 851 C 84.7186 -0.516329 -1.54395 0
M  V30 852 O 85.9076 -0.788812 -1.60125 0
M  V30 853 C 83.0076 -1.58516 -2.99543 0
M  V30 854 C 82.1806 -2.86016 -3.30928 0
M  V30 855 C 81.2396 -2.74018 -4.49222 0
M  V30 856 O 80.2656 -3.47964 -4.50455 0
M  V30 857 N 81.4676 -1.86309 -5.4979 0
M  V30 858 H 84.2326 -2.59777 -1.49452 0
M  V30 859 H 81.7936 -1.47022 -0.677955 0
M  V30 860 H 83.7856 -1.48128 -3.76617 0
M  V30 861 H 82.3556 -0.69965 -3.0467 0
M  V30 862 H 81.5756 -3.10672 -2.42645 0
M  V30 863 H 82.8636 -3.70521 -3.487 0
M  V30 864 H 82.2616 -1.2551 -5.51601 0
M  V30 865 H 80.8186 -1.81837 -6.25922 0
M  V30 866 N 84.2517 0.741722 -1.39055 0
M  V30 867 C 85.1817 1.869 -1.39966 0
M  V30 868 C 86.1627 1.6804 -0.26392 0
M  V30 869 O 87.3477 1.88458 -0.468755 0
M  V30 870 C 84.4777 3.24572 -1.23574 0
M  V30 871 C 83.4317 3.58056 -2.34477 0
M  V30 872 C 82.7577 4.94593 -2.0318 0
M  V30 873 C 84.0577 3.61716 -3.76774 0
M  V30 874 H 85.7517 1.86395 -2.34302 0
M  V30 875 H 83.2977 0.895361 -1.1278 0
M  V30 876 H 85.2507 4.031 -1.22834 0
M  V30 877 H 83.9747 3.25587 -0.257045 0
M  V30 878 H 82.6337 2.81854 -2.34423 0
M  V30 879 H 82.2817 4.92181 -1.03765 0
M  V30 880 H 81.9817 5.17964 -2.77465 0
M  V30 881 H 83.5057 5.75486 -2.04079 0
M  V30 882 H 84.9197 4.30335 -3.78794 0
M  V30 883 H 83.3167 3.96603 -4.50362 0
M  V30 884 H 84.3867 2.61672 -4.08235 0
M  V30 885 N 85.7298 1.2412 0.971189 0
M  V30 886 C 87.0068 0.986867 1.6888 0
M  V30 887 C 87.3868 -0.491857 2.0529 0
M  V30 888 O 86.7348 -1.46531 1.75331 0
M  V30 889 C 86.9448 1.9063 2.92338 0
M  V30 890 C 88.2928 2.17515 3.64654 0
M  V30 891 O 89.3168 1.88254 3.02388 0
M  V30 892 O 88.1758 2.6719 4.7673 0
M  V30 893 H 85.2698 0.372944 0.738134 0
M  V30 894 H 87.8158 1.35203 1.02559 0
M  V30 895 H 86.5878 2.90552 2.62097 0
M  V30 896 H 86.2108 1.54408 3.66393 0
M  V30 897 N 87.2079 -1.17134 1.05439 0
M  V30 898 C 88.4559 -1.87085 0.764429 0
M  V30 899 C 88.7769 -1.81584 -0.710787 0
M  V30 900 O 88.0469 -1.24349 -1.51374 0
M  V30 901 H 86.6269 -0.692627 0.279779 0
M  V30 902 H 89.2889 -1.42087 1.33406 0
M  V30 903 H 88.3849 -2.92759 1.0816 0
M  V30 904 N 88.686 -0.835752 -1.33615 0
M  V30 905 C 89.616 -0.281739 -2.31794 0
M  V30 906 C 90.597 0.608833 -1.58831 0
M  V30 907 O 91.782 0.533035 -1.86741 0
M  V30 908 C 88.912 0.546612 -3.42971 0
M  V30 909 C 87.866 -0.247904 -4.27281 0
M  V30 910 C 87.192 0.704001 -5.30045 0
M  V30 911 C 88.492 -1.46324 -5.01385 0
M  V30 912 H 90.186 -1.10206 -2.78379 0
M  V30 913 H 87.732 -0.531388 -1.33837 0
M  V30 914 H 89.685 0.944467 -4.1068 0
M  V30 915 H 88.409 1.40011 -2.95067 0
M  V30 916 H 87.068 -0.627281 -3.61194 0
M  V30 917 H 86.716 1.55381 -4.78399 0
M  V30 918 H 86.416 0.176524 -5.87335 0
M  V30 919 H 87.94 1.09944 -6.0062 0
M  V30 920 H 89.354 -1.13871 -5.61877 0
M  V30 921 H 87.751 -1.92728 -5.6831 0
M  V30 922 H 88.821 -2.23467 -4.30338 0
M  V30 923 N 90.1641 1.46063 -0.591896 0
M  V30 924 C 91.1121 2.32124 0.148739 0
M  V30 925 C 92.1061 1.45035 0.875286 0
M  V30 926 O 93.3121 1.61609 0.792632 0
M  V30 927 H 89.6871 0.749024 0.066832 0
M  V30 928 H 91.6581 2.92392 -0.595783 0
M  V30 929 C 90.4071 3.28373 1.1431 0
M  V30 930 H 89.7301 3.95371 0.59346 0
M  V30 931 H 91.1701 3.91352 1.63155 0
M  V30 932 C 89.6291 2.54393 2.20875 0
M  V30 933 O 90.1591 2.31373 3.28374 0
M  V30 934 N 88.3651 2.14797 1.95731 0
M  V30 935 H 87.9121 2.33719 1.08319 0
M  V30 936 H 87.8701 1.65619 2.67241 0
M  V30 937 N 91.6422 0.330177 1.54103 0
M  V30 938 C 92.6052 -0.520144 2.2322 0
M  V30 939 C 93.6052 -1.03828 1.22786 0
M  V30 940 O 94.7952 -0.929652 1.4732 0
M  V30 941 C 91.9272 -1.72317 2.94142 0
M  V30 942 H 93.1202 0.0841605 2.99782 0
M  V30 943 H 90.6732 0.0813433 1.56088 0
M  V30 944 H 91.4082 -2.36653 2.21734 0
M  V30 945 H 91.1932 -1.35898 3.67796 0
M  V30 946 H 92.6832 -2.3266 3.46784 0
M  V30 947 N 93.1203 -1.57491 0.0584922 0
M  V30 948 C 94.3453 -1.97711 -0.62652 0
M  V30 949 C 94.7703 -0.936132 -1.63151 0
M  V30 950 O 94.1283 0.099811 -1.81025 0
M  V30 951 C 94.1763 -3.36989 -1.28338 0
M  V30 952 O 93.2803 -3.35433 -2.39913 0
M  V30 953 H 92.6213 -0.643868 -0.162266 0
M  V30 954 H 95.1513 -2.04193 0.129064 0
M  V30 955 H 95.1613 -3.73879 -1.63335 0
M  V30 956 H 93.8363 -4.12289 -0.546889 0
M  V30 957 H 92.4133 -3.10298 -2.06809 0
M  V30 958 N 94.5984 0.214957 -1.56127 0
M  V30 959 C 95.5304 1.29004 -1.89448 0
M  V30 960 C 96.5434 1.42716 -0.783326 0
M  V30 961 O 97.7324 1.43496 -1.06166 0
M  V30 962 C 94.8324 2.66482 -2.09381 0
M  V30 963 C 94.0054 2.74633 -3.40434 0
M  V30 964 C 93.0644 3.9317 -3.49719 0
M  V30 965 O 92.0904 3.812 -4.227 0
M  V30 966 N 93.2924 5.07765 -2.81346 0
M  V30 967 H 96.0574 1.00743 -2.82261 0
M  V30 968 H 93.6184 0.40497 -1.56753 0
M  V30 969 H 95.6104 3.44173 -2.12901 0
M  V30 970 H 94.1804 2.87314 -1.23163 0
M  V30 971 H 93.4004 1.83368 -3.48955 0
M  V30 972 H 94.6884 2.77054 -4.26754 0
M  V30 973 H 94.0864 5.20386 -2.21843 0
M  V30 974 H 92.6434 5.83474 -2.90519 0
M  V30 975 N 96.0765 1.50051 0.48192 0
M  V30 976 C 97.3255 1.59741 1.23149 0
M  V30 977 C 97.6385 0.298163 1.93314 0
M  V30 978 O 98.8445 0.273835 2.70116 0
M  V30 979 C 97.3005 2.81926 2.23708 0
M  V30 980 C 96.9085 4.18685 1.59396 0
M  V30 981 C 98.6525 3.00956 2.99375 0
M  V30 982 C 96.5595 5.3207 2.58178 0
M  V30 983 H 95.4895 0.594838 0.46334 0
M  V30 984 H 98.1405 1.76467 0.503169 0
M  V30 985 H 96.5225 2.58736 2.99786 0
M  V30 986 H 97.6965 4.52088 0.891811 0
M  V30 987 H 96.0115 4.05171 0.960503 0
M  V30 988 H 98.6085 3.82836 3.73283 0
M  V30 989 H 98.9515 2.12258 3.58123 0
M  V30 990 H 99.4845 3.24277 2.30411 0
M  V30 991 H 96.2235 6.22888 2.04184 0
M  V30 992 H 95.7435 5.03098 3.26577 0
M  V30 993 H 97.4225 5.62196 3.20225 0
M  V30 994 N 97.5546 -0.734337 1.39446 0
M  V30 995 C 98.9706 -1.03997 1.21065 0
M  V30 996 C 99.1706 -2.01369 0.0727019 0
M  V30 997 O 98.2266 -2.45856 -0.575426 0
M  V30 998 C 99.5396 -1.60163 2.54496 0
M  V30 999 C 101.088 -1.7224 2.61347 0
M  V30 1000 C 101.563 -2.31814 3.95002 0
M  V30 1001 N 103.054 -2.39223 3.96644 0
M  V30 1002 C 103.789 -2.86258 4.96834 0
M  V30 1003 N 103.285 -3.33184 6.07421 0
M  V30 1004 N 105.078 -2.85473 4.84213 0
M  V30 1005 H 97.2286 -0.0885624 2.12215 0
M  V30 1006 H 99.4916 -0.10191 0.942506 0
M  V30 1007 H 99.1976 -0.960811 3.38321 0
M  V30 1008 H 99.0716 -2.5896 2.74262 0
M  V30 1009 H 101.459 -2.35443 1.77906 0
M  V30 1010 H 101.54 -0.720939 2.4543 0
M  V30 1011 H 101.184 -1.69238 4.78875 0
M  V30 1012 H 101.114 -3.32638 4.08239 0
M  V30 1013 H 103.605 -2.06057 3.16779 0
M  V30 1014 H 103.918 -3.67586 6.7978 0
M  V30 1015 H 102.263 -3.31191 6.11013 0
M  V30 1016 H 105.454 -2.48136 3.96921 0
M  V30 1017 H 105.627 -3.21814 5.62441 0
M  V30 1018 N 99.0327 -1.24633 -0.964593 0
M  V30 1019 C 99.9427 -1.05859 -2.09359 0
M  V30 1020 C 100.959 0.00148855 -1.74 0
M  V30 1021 O 102.135 -0.197346 -2.00431 0
M  V30 1022 C 99.1997 -0.668879 -3.40187 0
M  V30 1023 C 98.2607 -1.80578 -3.89474 0
M  V30 1024 C 97.4937 -1.43457 -5.14058 0
M  V30 1025 O 97.7167 -0.325775 -5.69469 0
M  V30 1026 O 96.6507 -2.2613 -5.57807 0
M  V30 1027 H 100.477 -2.00516 -2.28094 0
M  V30 1028 H 98.0617 -1.03481 -1.0776 0
M  V30 1029 H 99.9437 -0.463211 -4.18846 0
M  V30 1030 H 98.6187 0.248536 -3.22744 0
M  V30 1031 H 97.5257 -2.06623 -3.11862 0
M  V30 1032 H 98.8587 -2.70208 -4.11398 0
M  V30 1033 N 100.511 1.16574 -1.06058 0
M  V30 1034 C 101.441 2.23057 -0.690488 0
M  V30 1035 C 102.422 1.67141 0.315901 0
M  V30 1036 O 103.607 1.93253 0.191556 0
M  V30 1037 C 100.737 3.47222 -0.073625 0
M  V30 1038 C 99.6908 4.16016 -1.00573 0
M  V30 1039 C 99.0168 5.34104 -0.252289 0
M  V30 1040 C 100.317 4.67264 -2.33371 0
M  V30 1041 H 102.011 2.54271 -1.58072 0
M  V30 1042 H 99.5568 1.22218 -0.76149 0
M  V30 1043 H 101.51 4.20939 0.19714 0
M  V30 1044 H 100.234 3.15302 0.85161 0
M  V30 1045 H 98.8928 3.44223 -1.2612 0
M  V30 1046 H 98.5408 4.98437 0.675988 0
M  V30 1047 H 98.2408 5.81072 -0.873455 0
M  V30 1048 H 99.7648 6.10599 0.0109857 0
M  V30 1049 H 101.179 5.32573 -2.12223 0
M  V30 1050 H 99.5758 5.24843 -2.90963 0
M  V30 1051 H 100.646 3.83602 -2.96611 0
M  V30 1052 N 101.989 0.842826 1.3317 0
M  V30 1053 C 103.405 0.531128 1.50503 0
M  V30 1054 C 103.605 -0.940734 1.78192 0
M  V30 1055 O 102.661 -1.72436 1.84451 0
M  V30 1056 C 103.974 1.40789 2.65705 0
M  V30 1057 C 105.522 1.40708 2.79589 0
M  V30 1058 C 105.997 2.26878 3.97857 0
M  V30 1059 N 107.488 2.24609 4.05099 0
M  V30 1060 C 108.223 2.88019 4.95815 0
M  V30 1061 N 107.719 3.60496 5.9162 0
M  V30 1062 N 109.512 2.77469 4.88843 0
M  V30 1063 H 101.663 1.79557 1.1346 0
M  V30 1064 H 103.926 0.766267 0.558156 0
M  V30 1065 H 103.632 2.454 2.51936 0
M  V30 1066 H 103.506 1.08677 3.61205 0
M  V30 1067 H 105.893 0.368668 2.92788 0
M  V30 1068 H 105.974 1.76829 1.84838 0
M  V30 1069 H 105.618 3.3078 3.85418 0
M  V30 1070 H 105.548 1.88096 4.91861 0
M  V30 1071 H 108.039 1.71906 3.36536 0
M  V30 1072 H 108.352 4.06076 6.57512 0
M  V30 1073 H 106.697 3.64604 5.91683 0
M  V30 1074 H 109.888 2.20406 4.12963 0
M  V30 1075 H 110.061 3.2717 5.59342 0
M  V30 1076 N 103.467 -1.45747 0.599634 0
M  V30 1077 C 104.377 -2.34262 -0.125888 0
M  V30 1078 C 105.393 -1.50768 -0.868625 0
M  V30 1079 O 106.569 -1.83592 -0.828003 0
M  V30 1080 C 103.634 -3.28252 -1.11587 0
M  V30 1081 C 102.695 -4.27651 -0.375956 0
M  V30 1082 C 101.928 -5.1715 -1.31877 0
M  V30 1083 O 102.151 -5.09916 -2.55621 0
M  V30 1084 O 101.085 -5.96286 -0.820157 0
M  V30 1085 H 104.911 -2.97688 0.601315 0
M  V30 1086 H 102.496 -1.44999 0.359934 0
M  V30 1087 H 104.378 -3.86191 -1.68626 0
M  V30 1088 H 103.053 -2.67401 -1.82424 0
M  V30 1089 H 101.96 -3.7335 0.236698 0
M  V30 1090 H 103.293 -4.91334 0.29177 0
M  V30 1091 N 104.945 -0.338344 -1.53925 0
M  V30 1092 C 105.892 0.520845 -2.24846 0
M  V30 1093 C 106.862 1.09976 -1.24477 0
M  V30 1094 O 108.047 1.13735 -1.53196 0
M  V30 1095 C 105.187 1.6685 -3.02084 0
M  V30 1096 C 104.3 1.11739 -4.17299 0
M  V30 1097 C 103.435 2.23193 -4.82036 0
M  V30 1098 C 102.474 1.65407 -5.89328 0
M  V30 1099 N 101.611 2.70582 -6.47866 0
M  V30 1100 H 106.451 -0.0904881 -2.97863 0
M  V30 1101 H 103.988 -0.0564282 -1.46992 0
M  V30 1102 H 105.946 2.34407 -3.45122 0
M  V30 1103 H 104.576 2.2509 -2.31375 0
M  V30 1104 H 103.628 0.332919 -3.7894 0
M  V30 1105 H 104.94 0.654677 -4.94485 0
M  V30 1106 H 104.094 2.98626 -5.28117 0
M  V30 1107 H 102.833 2.72807 -4.04262 0
M  V30 1108 H 101.838 0.884779 -5.42634 0
M  V30 1109 H 103.063 1.16652 -6.69006 0
M  V30 1110 H 101.009 3.1946 -5.72959 0
M  V30 1111 H 100.926 2.28917 -7.20509 0
M  V30 1112 H 102.194 3.45799 -6.98601 0
M  V30 1113 N 106.423 1.57458 -0.0668435 0
M  V30 1114 C 107.648 1.9804 0.616027 0
M  V30 1115 C 108.073 0.944771 1.62652 0
M  V30 1116 O 107.431 -0.0902094 1.81075 0
M  V30 1117 C 107.479 3.37665 1.26549 0
M  V30 1118 O 106.583 3.36701 2.38131 0
M  V30 1119 H 105.924 0.644719 0.158849 0
M  V30 1120 H 108.454 2.04121 -0.139891 0
M  V30 1121 H 108.464 3.7474 1.6135 0
M  V30 1122 H 107.139 4.12573 0.525016 0
M  V30 1123 H 105.716 3.1139 2.0516 0
M  V30 1124 N 107.901 -0.206675 1.56239 0
M  V30 1125 C 108.811 -1.27686 1.96808 0
M  V30 1126 C 109.827 -1.50455 0.874035 0
M  V30 1127 O 111.003 -1.63295 1.17884 0
M  V30 1128 C 108.068 -2.60358 2.28942 0
M  V30 1129 C 107.129 -2.45762 3.51994 0
M  V30 1130 C 106.362 -3.72108 3.82585 0
M  V30 1131 O 106.585 -4.75776 3.14631 0
M  V30 1132 O 105.519 -3.6833 4.76043 0
M  V30 1133 H 109.345 -0.962593 2.88041 0
M  V30 1134 H 106.93 -0.410746 1.43643 0
M  V30 1135 H 108.812 -3.38687 2.50737 0
M  V30 1136 H 107.487 -2.91435 1.4088 0
M  V30 1137 H 106.394 -1.65584 3.35459 0
M  V30 1138 H 107.727 -2.19621 4.40486 0
M  V30 1139 N 109.379 -1.50304 -0.473955 0
M  V30 1140 C 110.326 -1.68959 -1.57231 0
M  V30 1141 C 111.296 -0.530899 -1.57387 0
M  V30 1142 O 112.481 -0.761133 -1.74961 0
M  V30 1143 C 109.621 -1.7871 -2.95223 0
M  V30 1144 C 108.734 -3.06061 -3.04878 0
M  V30 1145 C 107.869 -3.06626 -4.33767 0
M  V30 1146 C 106.908 -4.28443 -4.37154 0
M  V30 1147 N 106.045 -4.26763 -5.5751 0
M  V30 1148 H 110.885 -2.6273 -1.40631 0
M  V30 1149 H 108.422 -1.30241 -0.683789 0
M  V30 1150 H 110.38 -1.82344 -3.75242 0
M  V30 1151 H 109.01 -0.883806 -3.10465 0
M  V30 1152 H 108.062 -3.11911 -2.17751 0
M  V30 1153 H 109.374 -3.96039 -3.0324 0
M  V30 1154 H 108.528 -3.08973 -5.22131 0
M  V30 1155 H 107.267 -2.14473 -4.3801 0
M  V30 1156 H 106.272 -4.2631 -3.47188 0
M  V30 1157 H 107.497 -5.2182 -4.34605 0
M  V30 1158 H 105.443 -3.37462 -5.62544 0
M  V30 1159 H 105.36 -5.10507 -5.57601 0
M  V30 1160 H 106.628 -4.33253 -6.48006 0
M  V30 1161 N 110.857 0.726932 -1.39834 0
M  V30 1162 C 112.104 1.48664 -1.37496 0
M  V30 1163 C 112.432 1.94482 0.0264678 0
M  V30 1164 O 111.687 1.67692 1.00886 0
M  V30 1165 C 111.986 2.73495 -2.30077 0
M  V30 1166 C 111.652 2.46502 -3.77555 0
M  V30 1167 C 110.314 2.3885 -4.17737 0
M  V30 1168 C 112.666 2.23604 -4.70798 0
M  V30 1169 C 109.994 2.06352 -5.49214 0
M  V30 1170 C 112.346 1.92622 -6.02561 0
M  V30 1171 C 111.01 1.83444 -6.41798 0
M  V30 1172 H 110.28 0.544001 -0.503135 0
M  V30 1173 H 112.927 0.833657 -1.72402 0
M  V30 1174 H 111.232 3.43575 -1.88317 0
M  V30 1175 H 112.929 3.31549 -2.25558 0
M  V30 1176 H 109.519 2.5334 -3.45712 0
M  V30 1177 H 113.703 2.28479 -4.40581 0
M  V30 1178 H 108.959 1.97776 -5.78528 0
M  V30 1179 H 113.133 1.73914 -6.74334 0
M  V30 1180 H 110.76 1.58029 -7.43593 0
M  V30 1181 N 112.336 1.25143 0.95797 0
M  V30 1182 C 113.299 1.05321 2.03569 0
M  V30 1183 C 114.299 0.007152 1.60798 0
M  V30 1184 O 115.489 0.24903 1.72411 0
M  V30 1185 C 112.621 0.598394 3.35607 0
M  V30 1186 H 113.814 2.00986 2.22586 0
M  V30 1187 H 111.367 1.07502 1.13459 0
M  V30 1188 H 112.102 -0.361014 3.22284 0
M  V30 1189 H 111.887 1.35351 3.67998 0
M  V30 1190 H 113.377 0.48104 4.1482 0
M  V30 1191 N 113.814 -1.1601 1.06675 0
M  V30 1192 C 115.061 -1.86633 0.785781 0
M  V30 1193 C 115.389 -1.81929 -0.687896 0
M  V30 1194 O 114.644 -1.23253 -1.52011 0
M  V30 1195 C 114.943 -3.35547 1.23057 0
M  V30 1196 C 114.609 -3.60448 2.70902 0
M  V30 1197 C 113.271 -3.66954 3.11285 0
M  V30 1198 C 115.623 -3.7071 3.66365 0
M  V30 1199 C 112.951 -3.81225 4.45965 0
M  V30 1200 C 115.303 -3.86503 5.00797 0
M  V30 1201 C 113.967 -3.91252 5.40813 0
M  V30 1202 H 113.237 -0.682937 0.287538 0
M  V30 1203 H 115.884 -1.37146 1.33654 0
M  V30 1204 H 114.189 -3.87193 0.59907 0
M  V30 1205 H 115.886 -3.88583 0.990163 0
M  V30 1206 H 112.476 -3.56021 2.38636 0
M  V30 1207 H 116.66 -3.64991 3.36296 0
M  V30 1208 H 111.916 -3.83155 4.76447 0
M  V30 1209 H 116.09 -3.93385 5.74649 0
M  V30 1210 H 113.717 -4.02062 6.45174 0
M  V30 1211 N 115.292 -0.849877 -1.32721 0
M  V30 1212 C 116.224 -0.248332 -2.27851 0
M  V30 1213 C 117.237 0.577218 -1.52224 0
M  V30 1214 O 118.426 0.402489 -1.73903 0
M  V30 1215 C 115.526 0.668107 -3.32249 0
M  V30 1216 C 114.699 -0.120534 -4.37234 0
M  V30 1217 C 113.758 0.720932 -5.21238 0
M  V30 1218 O 112.784 0.156166 -5.68986 0
M  V30 1219 N 113.986 2.03647 -5.43607 0
M  V30 1220 H 116.751 -1.06575 -2.80111 0
M  V30 1221 H 114.312 -0.709395 -1.45531 0
M  V30 1222 H 116.304 1.23627 -3.85355 0
M  V30 1223 H 114.874 1.38621 -2.80184 0
M  V30 1224 H 114.094 -0.870108 -3.84477 0
M  V30 1225 H 115.382 -0.662406 -5.0447 0
M  V30 1226 H 114.78 2.51871 -5.06535 0
M  V30 1227 H 113.337 2.55287 -5.99727 0
M  V30 1228 N 116.77 1.45427 -0.607355 0
M  V30 1229 C 117.733 2.28974 0.101693 0
M  V30 1230 C 118.733 1.39754 0.795329 0
M  V30 1231 O 119.923 1.61878 0.643527 0
M  V30 1232 C 117.055 3.20768 1.15414 0
M  V30 1233 H 118.248 2.93147 -0.632844 0
M  V30 1234 H 115.801 1.51945 -0.366391 0
M  V30 1235 H 116.536 2.61395 1.91945 0
M  V30 1236 H 116.321 3.86489 0.66098 0
M  V30 1237 H 117.811 3.83589 1.65073 0
M  V30 1238 N 118.248 0.346503 1.53744 0
M  V30 1239 C 119.158 -0.517293 2.28826 0
M  V30 1240 C 120.174 -1.10935 1.3405 0
M  V30 1241 O 121.35 -1.1244 1.6709 0
M  V30 1242 C 118.415 -1.65098 3.04866 0
M  V30 1243 C 117.476 -1.0884 4.15274 0
M  V30 1244 C 116.709 -2.16806 4.87679 0
M  V30 1245 O 116.932 -3.3758 4.59778 0
M  V30 1246 O 115.866 -1.80934 5.74061 0
M  V30 1247 H 119.692 0.0931396 3.03557 0
M  V30 1248 H 117.277 0.111458 1.48984 0
M  V30 1249 H 119.159 -2.31053 3.5241 0
M  V30 1250 H 117.834 -2.24717 2.32989 0
M  V30 1251 H 116.741 -0.3933 3.72027 0
M  V30 1252 H 118.074 -0.537036 4.89261 0
M  V30 1253 N 119.726 -1.57421 0.075193 0
M  V30 1254 C 120.972 -1.93905 -0.594025 0
M  V30 1255 C 121.305 -0.955701 -1.69056 0
M  V30 1256 O 120.58 0.0145373 -1.94495 0
M  V30 1257 C 120.863 -3.40638 -1.1678 0
M  V30 1258 C 120.716 -4.49733 -0.0776792 0
M  V30 1259 C 122.035 -3.88259 -2.07228 0
M  V30 1260 H 119.154 -0.705105 -0.214466 0
M  V30 1261 H 121.796 -1.8947 0.141854 0
M  V30 1262 H 119.946 -3.44549 -1.79494 0
M  V30 1263 H 121.618 -4.57942 0.555573 0
M  V30 1264 H 119.861 -4.29751 0.591286 0
M  V30 1265 H 120.532 -5.49549 -0.519603 0
M  V30 1266 H 123.008 -3.86376 -1.54445 0
M  V30 1267 H 121.884 -4.91533 -2.44308 0
M  V30 1268 H 122.145 -3.26396 -2.98191 0
M  V30 1269 N 121.204 0.198386 -1.56346 0
M  V30 1270 C 122.152 1.26538 -1.95169 0
M  V30 1271 C 123.146 1.47295 -0.836685 0
M  V30 1272 O 124.352 1.48195 -1.02167 0
M  V30 1273 H 120.727 0.424744 -0.620561 0
M  V30 1274 H 122.698 0.910904 -2.84157 0
M  V30 1275 C 121.447 2.6035 -2.30463 0
M  V30 1276 H 120.77 2.45192 -3.15786 0
M  V30 1277 H 122.21 3.33762 -2.61494 0
M  V30 1278 C 120.669 3.17096 -1.13806 0
M  V30 1279 O 121.199 3.99588 -0.41135 0
M  V30 1280 N 119.405 2.75795 -0.915736 0
M  V30 1281 H 118.952 2.08816 -1.50843 0
M  V30 1282 H 118.91 3.14101 -0.136979 0
M  V30 1283 N 122.682 1.50554 0.465978 0
M  V30 1284 C 124.098 1.38093 0.800154 0
M  V30 1285 C 124.298 0.440988 1.96615 0
M  V30 1286 O 123.354 -0.114499 2.5224 0
M  V30 1287 C 124.667 2.79565 1.10742 0
M  V30 1288 C 126.215 2.88516 1.21357 0
M  V30 1289 C 126.69 4.30833 1.55393 0
M  V30 1290 N 128.181 4.33807 1.62375 0
M  V30 1291 C 128.916 5.40927 1.90225 0
M  V30 1292 N 128.412 6.58247 2.16062 0
M  V30 1293 N 130.205 5.28376 1.9177 0
M  V30 1294 H 122.356 2.10237 -0.302366 0
M  V30 1295 H 124.619 0.945203 -0.0727746 0
M  V30 1296 H 124.325 3.50208 0.323661 0
M  V30 1297 H 124.199 3.17125 2.04234 0
M  V30 1298 H 126.586 2.1809 1.98799 0
M  V30 1299 H 126.667 2.54492 0.258321 0
M  V30 1300 H 126.311 5.01799 0.784889 0
M  V30 1301 H 126.241 4.62347 2.52076 0
M  V30 1302 H 128.732 3.49212 1.44427 0
M  V30 1303 H 129.045 7.3569 2.36601 0
M  V30 1304 H 127.39 6.61413 2.13444 0
M  V30 1305 H 130.581 4.35715 1.71085 0
M  V30 1306 H 130.754 6.11944 2.13139 0
M  V30 1307 N 124.16 -0.719506 1.40217 0
M  V30 1308 C 125.093 -1.84298 1.34571 0
M  V30 1309 C 126.071 -1.61149 0.216741 0
M  V30 1310 O 127.255 -1.84212 0.399756 0
M  V30 1311 C 124.382 -3.20568 1.09335 0
M  V30 1312 C 123.428 -3.62551 2.24631 0
M  V30 1313 S 124.261 -3.7012 3.87004 0
M  V30 1314 C 125.417 -5.09154 3.64024 0
M  V30 1315 H 125.65 -1.88807 2.2965 0
M  V30 1316 H 123.183 -0.885901 1.26456 0
M  V30 1317 H 125.141 -3.99246 0.954602 0
M  V30 1318 H 123.802 -3.13696 0.159164 0
M  V30 1319 H 122.995 -4.61483 2.02606 0
M  V30 1320 H 122.597 -2.91119 2.34789 0
M  V30 1321 H 124.889 -5.95955 3.22248 0
M  V30 1322 H 125.832 -5.36213 4.62473 0
M  V30 1323 H 126.24 -4.79562 2.97793 0
M  V30 1324 N 125.638 -1.25649 -0.95132 0
M  V30 1325 C 126.571 -1.00644 -2.04807 0
M  V30 1326 C 127.549 0.0654271 -1.62468 0
M  V30 1327 O 128.733 -0.074911 -1.88351 0
M  V30 1328 C 125.86 -0.522052 -3.34653 0
M  V30 1329 C 124.906 -1.58495 -3.95957 0
M  V30 1330 S 125.739 -3.17108 -4.31512 0
M  V30 1331 C 126.895 -2.70412 -5.64471 0
M  V30 1332 H 127.128 -1.93508 -2.25703 0
M  V30 1333 H 124.661 -1.09216 -1.09139 0
M  V30 1334 H 126.619 -0.24923 -4.09743 0
M  V30 1335 H 125.28 0.386146 -3.11717 0
M  V30 1336 H 124.473 -1.1968 -4.89584 0
M  V30 1337 H 124.075 -1.80862 -3.2736 0
M  V30 1338 H 126.367 -2.14245 -6.42733 0
M  V30 1339 H 127.31 -3.62693 -6.08161 0
M  V30 1340 H 127.718 -2.10302 -5.23864 0
M  V30 1341 N 127.117 1.15442 -1.07289 0
M  V30 1342 C 128.064 2.20161 -0.692653 0
M  V30 1343 C 129.034 1.63073 0.31564 0
M  V30 1344 O 130.219 1.89725 0.202235 0
M  V30 1345 C 127.359 3.44967 -0.0959509 0
M  V30 1346 C 126.472 4.16256 -1.15564 0
M  V30 1347 C 125.607 5.28609 -0.524011 0
M  V30 1348 C 124.646 5.91715 -1.56653 0
M  V30 1349 N 123.783 6.9554 -0.957531 0
M  V30 1350 H 128.623 2.52037 -1.59002 0
M  V30 1351 H 126.16 1.2378 -0.794798 0
M  V30 1352 H 128.118 4.16341 0.267628 0
M  V30 1353 H 126.748 3.1361 0.764772 0
M  V30 1354 H 125.8 3.43385 -1.6368 0
M  V30 1355 H 127.112 4.59268 -1.94613 0
M  V30 1356 H 126.266 6.06604 -0.108032 0
M  V30 1357 H 125.005 4.86787 0.29825 0
M  V30 1358 H 124.01 5.12433 -1.9923 0
M  V30 1359 H 125.235 6.35614 -2.39107 0
M  V30 1360 H 123.181 6.55814 -0.156162 0
M  V30 1361 H 123.098 7.36977 -1.68526 0
M  V30 1362 H 124.366 7.77435 -0.567032 0
M  V30 1363 N 128.595 0.856903 1.32268 0
M  V30 1364 C 129.525 0.31858 2.31316 0
M  V30 1365 C 130.506 -0.583487 1.59779 0
M  V30 1366 O 131.691 -0.503259 1.87566 0
M  V30 1367 C 128.821 -0.491979 3.43798 0
M  V30 1368 C 127.775 0.315849 4.26833 0
M  V30 1369 C 127.101 -0.619586 5.31098 0
M  V30 1370 C 128.401 1.54282 4.98993 0
M  V30 1371 H 130.095 1.14621 2.76591 0
M  V30 1372 H 127.641 0.552613 1.32974 0
M  V30 1373 H 129.594 -0.879012 4.1213 0
M  V30 1374 H 128.318 -1.35299 2.97257 0
M  V30 1375 H 126.977 0.684664 3.6015 0
M  V30 1376 H 126.625 -1.47751 4.8081 0
M  V30 1377 H 126.325 -0.0830621 5.87541 0
M  V30 1378 H 127.849 -1.00375 6.02293 0
M  V30 1379 H 129.263 1.22796 5.59995 0
M  V30 1380 H 127.66 2.01745 5.65172 0
M  V30 1381 H 128.73 2.30285 4.26728 0
M  V30 1382 N 130.073 -1.45103 0.615059 0
M  V30 1383 C 131.322 -2.01396 0.110718 0
M  V30 1384 C 131.635 -1.48834 -1.26916 0
M  V30 1385 O 132.841 -1.97152 -1.86664 0
M  V30 1386 C 131.297 -3.59599 0.14723 0
M  V30 1387 C 130.905 -4.21158 1.52743 0
M  V30 1388 C 132.649 -4.23428 -0.30148 0
M  V30 1389 C 130.556 -5.71535 1.51992 0
M  V30 1390 H 129.486 -0.753061 0.0376241 0
M  V30 1391 H 132.137 -1.66494 0.77149 0
M  V30 1392 H 130.519 -3.91724 -0.580339 0
M  V30 1393 H 131.693 -4.00594 2.2773 0
M  V30 1394 H 130.008 -3.69552 1.91886 0
M  V30 1395 H 132.605 -5.33703 -0.326392 0
M  V30 1396 H 132.948 -3.94629 -1.32565 0
M  V30 1397 H 133.481 -3.96047 0.373065 0
M  V30 1398 H 130.22 -6.05044 2.52193 0
M  V30 1399 H 129.74 -5.94268 0.81274 0
M  V30 1400 H 131.419 -6.34873 1.24681 0
M  V30 1401 N 131.551 -0.354651 -1.53558 0
M  V30 1402 C 132.8 0.239504 -2.00273 0
M  V30 1403 C 133.113 1.50759 -1.24623 0
M  V30 1404 O 134.319 2.17968 -1.61871 0
M  V30 1405 C 132.775 0.477341 -3.5672 0
M  V30 1406 C 132.383 -0.775488 -4.41237 0
M  V30 1407 C 134.127 1.02975 -4.11821 0
M  V30 1408 C 132.034 -0.507838 -5.89216 0
M  V30 1409 H 130.964 0.0932743 -0.748208 0
M  V30 1410 H 133.615 -0.471701 -1.77334 0
M  V30 1411 H 131.997 1.24953 -3.7577 0
M  V30 1412 H 133.171 -1.54963 -4.33962 0
M  V30 1413 H 131.486 -1.25033 -3.97185 0
M  V30 1414 H 134.083 1.24513 -5.2 0
M  V30 1415 H 134.426 1.98862 -3.65731 0
M  V30 1416 H 134.959 0.317994 -3.96527 0
M  V30 1417 H 131.698 -1.43674 -6.39561 0
M  V30 1418 H 131.218 0.228011 -5.99366 0
M  V30 1419 H 132.897 -0.129238 -6.46871 0
M  V30 1420 N 133.029 1.57378 -0.0835403 0
M  V30 1421 C 133.977 2.14602 0.89714 0
M  V30 1422 C 134.971 1.08589 1.30018 0
M  V30 1423 O 136.177 1.26952 1.27606 0
M  V30 1424 H 132.552 0.686346 0.3073 0
M  V30 1425 H 134.523 2.95845 0.38969 0
M  V30 1426 C 133.272 2.73188 2.15089 0
M  V30 1427 H 132.595 3.54442 1.84962 0
M  V30 1428 H 134.035 3.1681 2.81793 0
M  V30 1429 C 132.494 1.68517 2.91725 0
M  V30 1430 O 133.024 1.11718 3.85852 0
M  V30 1431 N 131.23 1.39277 2.55049 0
M  V30 1432 H 130.777 1.85655 1.78577 0
M  V30 1433 H 130.735 0.694791 3.06627 0
M  V30 1434 N 134.507 -0.190092 1.56449 0
M  V30 1435 C 135.732 -0.929864 1.85387 0
M  V30 1436 C 136.157 -1.7585 0.667704 0
M  V30 1437 O 135.515 -1.77198 -0.383459 0
M  V30 1438 C 135.563 -1.79773 3.12593 0
M  V30 1439 O 134.667 -2.89713 2.93496 0
M  V30 1440 H 134.008 -0.261574 0.610307 0
M  V30 1441 H 136.538 -0.193896 2.03679 0
M  V30 1442 H 136.548 -2.20139 3.43515 0
M  V30 1443 H 135.223 -1.18892 3.98544 0
M  V30 1444 H 133.8 -2.53065 2.73884 0
M  V30 1445 N 135.985 -1.50799 -0.457987 0
M  V30 1446 C 136.915 -1.73553 -1.5621 0
M  V30 1447 C 137.896 -0.584774 -1.59732 0
M  V30 1448 O 139.081 -0.825314 -1.7579 0
M  V30 1449 C 136.211 -1.84169 -2.94447 0
M  V30 1450 C 135.165 -2.99461 -3.0579 0
M  V30 1451 C 134.491 -2.95235 -4.45803 0
M  V30 1452 C 135.791 -4.39766 -2.81786 0
M  V30 1453 H 137.485 -2.66 -1.37421 0
M  V30 1454 H 135.031 -1.28002 -0.659662 0
M  V30 1455 H 136.984 -1.98672 -3.71628 0
M  V30 1456 H 135.708 -0.883545 -3.14422 0
M  V30 1457 H 134.367 -2.8463 -2.31044 0
M  V30 1458 H 134.015 -1.97239 -4.62715 0
M  V30 1459 H 133.715 -3.72642 -4.54326 0
M  V30 1460 H 135.239 -3.11803 -5.24987 0
M  V30 1461 H 136.653 -4.55054 -3.4871 0
M  V30 1462 H 135.05 -5.18722 -3.0174 0
M  V30 1463 H 136.12 -4.51229 -1.7754 0
M  V30 1464 N 137.463 0.71206 -1.40597 0
M  V30 1465 C 138.693 1.49894 -1.42181 0
M  V30 1466 C 139.101 1.89189 -0.0208078 0
M  V30 1467 O 138.444 1.56223 0.966436 0
M  V30 1468 C 138.506 2.80215 -2.25211 0
M  V30 1469 C 138.17 2.63221 -3.73582 0
M  V30 1470 C 139.167 2.30249 -4.66135 0
M  V30 1471 C 136.852 2.79376 -4.17438 0
M  V30 1472 C 138.846 2.13645 -6.00529 0
M  V30 1473 C 136.533 2.6239 -5.51901 0
M  V30 1474 C 137.531 2.29573 -6.43262 0
M  V30 1475 O 137.219 2.12719 -7.75246 0
M  V30 1476 H 136.951 0.469031 -0.486812 0
M  V30 1477 H 139.505 0.88564 -1.85326 0
M  V30 1478 H 137.735 3.4389 -1.76852 0
M  V30 1479 H 139.424 3.41947 -2.18694 0
M  V30 1480 H 140.19 2.17398 -4.33547 0
M  V30 1481 H 136.069 3.03906 -3.46644 0
M  V30 1482 H 139.613 1.87953 -6.71803 0
M  V30 1483 H 135.51 2.74826 -5.84073 0
M  V30 1484 H 136.278 2.27611 -7.86216 0
M  V30 1485 N 138.941 1.26152 0.944643 0
M  V30 1486 C 139.888 1.07408 2.04285 0
M  V30 1487 C 140.858 -0.0198413 1.66088 0
M  V30 1488 O 142.043 0.139264 1.90291 0
M  V30 1489 C 139.183 0.70945 3.37729 0
M  V30 1490 C 138.296 1.87926 3.88983 0
M  V30 1491 C 137.431 1.45807 5.10797 0
M  V30 1492 C 136.47 2.5964 5.54305 0
M  V30 1493 N 135.607 2.18226 6.67324 0
M  V30 1494 H 140.447 2.01389 2.1965 0
M  V30 1495 H 137.984 1.00275 1.07626 0
M  V30 1496 H 139.942 0.478948 4.14442 0
M  V30 1497 H 138.572 -0.193389 3.2222 0
M  V30 1498 H 137.624 2.22279 3.08701 0
M  V30 1499 H 138.936 2.73377 4.17213 0
M  V30 1500 H 138.09 1.18781 5.94959 0
M  V30 1501 H 136.829 0.574414 4.84305 0
M  V30 1502 H 135.834 2.87399 4.68702 0
M  V30 1503 H 137.059 3.48599 5.828 0
M  V30 1504 H 135.005 1.3229 6.42523 0
M  V30 1505 H 134.922 2.97221 6.95123 0
M  V30 1506 H 136.19 1.94403 7.54869 0
M  V30 1507 N 140.419 -1.14872 1.07899 0
M  V30 1508 C 141.367 -2.21857 0.698727 0
M  V30 1509 C 142.361 -1.66845 -0.293086 0
M  V30 1510 O 143.567 -1.79321 -0.156204 0
M  V30 1511 H 139.942 -0.722691 0.207899 0
M  V30 1512 H 141.913 -2.51205 1.61054 0
M  V30 1513 C 140.662 -3.47498 0.11858 0
M  V30 1514 H 139.985 -3.90154 0.872914 0
M  V30 1515 H 141.425 -4.23858 -0.109759 0
M  V30 1516 C 139.884 -3.16947 -1.1422 0
M  V30 1517 O 140.414 -3.3426 -2.22785 0
M  V30 1518 N 138.62 -2.70946 -1.05055 0
M  V30 1519 H 138.167 -2.57058 -0.167038 0
M  V30 1520 H 138.125 -2.50879 -1.89491 0
M  V30 1521 N 141.898 -0.863906 -1.31812 0
M  V30 1522 C 142.845 -0.313303 -2.28664 0
M  V30 1523 C 143.815 0.584868 -1.55462 0
M  V30 1524 O 145 0.517805 -1.83639 0
M  V30 1525 C 142.14 0.48441 -3.41683 0
M  V30 1526 C 141.253 -0.440594 -4.29747 0
M  V30 1527 C 140.388 0.370652 -5.29905 0
M  V30 1528 C 139.427 -0.551164 -6.09613 0
M  V30 1529 N 138.564 0.223462 -7.01744 0
M  V30 1530 H 143.404 -1.14444 -2.75148 0
M  V30 1531 H 140.941 -0.575769 -1.35364 0
M  V30 1532 H 142.899 0.962627 -4.05943 0
M  V30 1533 H 141.529 1.28029 -2.96325 0
M  V30 1534 H 140.581 -1.03724 -3.65986 0
M  V30 1535 H 141.893 -1.14767 -4.85417 0
M  V30 1536 H 141.047 0.911638 -5.99812 0
M  V30 1537 H 139.786 1.11105 -4.74876 0
M  V30 1538 H 138.791 -1.10396 -5.38603 0
M  V30 1539 H 140.016 -1.29032 -6.66729 0
M  V30 1540 H 137.962 0.946787 -6.49132 0
M  V30 1541 H 137.879 -0.424399 -7.54808 0
M  V30 1542 H 139.147 0.745876 -7.75923 0
M  V30 1543 N 143.376 1.44774 -0.622745 0
M  V30 1544 C 144.286 2.34433 0.0886031 0
M  V30 1545 C 145.302 1.52131 0.844529 0
M  V30 1546 O 146.478 1.84886 0.798691 0
M  V30 1547 C 143.543 3.29986 1.0635 0
M  V30 1548 C 142.604 4.28195 0.307873 0
M  V30 1549 C 141.837 5.19183 1.23633 0
M  V30 1550 O 142.06 5.13918 2.47476 0
M  V30 1551 O 140.994 5.97515 0.725189 0
M  V30 1552 H 144.82 2.96693 -0.648599 0
M  V30 1553 H 142.405 1.44408 -0.382957 0
M  V30 1554 H 144.287 3.88825 1.6246 0
M  V30 1555 H 142.962 2.70269 1.78146 0
M  V30 1556 H 141.869 3.72927 -0.296064 0
M  V30 1557 H 143.202 4.90808 -0.3699 0
M  V30 1558 N 144.854 0.36279 1.53368 0
M  V30 1559 C 146.103 -0.22888 2.00397 0
M  V30 1560 C 146.416 -1.50096 1.25421 0
M  V30 1561 O 147.622 -2.17106 1.63025 0
M  V30 1562 C 146.078 -0.458417 3.56969 0
M  V30 1563 C 145.686 0.798877 4.4082 0
M  V30 1564 C 147.43 -1.00789 4.12361 0
M  V30 1565 C 145.337 0.539078 5.88938 0
M  V30 1566 H 144.267 -0.089305 0.748693 0
M  V30 1567 H 146.918 0.481099 1.77081 0
M  V30 1568 H 145.3 -1.22959 3.76427 0
M  V30 1569 H 146.474 1.57262 4.33134 0
M  V30 1570 H 144.789 1.27137 3.96516 0
M  V30 1571 H 147.386 -1.21754 5.20653 0
M  V30 1572 H 147.729 -1.9692 3.66781 0
M  V30 1573 H 148.262 -0.296961 3.9669 0
M  V30 1574 H 145.001 1.47064 6.3879 0
M  V30 1575 H 144.521 -0.196222 5.99479 0
M  V30 1576 H 146.2 0.163542 6.46793 0
M  V30 1577 N 146.332 -1.57332 0.0918853 0
M  V30 1578 C 147.579 -1.94236 -0.572577 0
M  V30 1579 C 147.907 -0.973398 -1.6839 0
M  V30 1580 O 147.162 0.00756912 -1.95699 0
M  V30 1581 C 147.461 -3.37689 -1.17051 0
M  V30 1582 C 147.127 -4.50527 -0.183304 0
M  V30 1583 C 145.789 -4.81119 0.0882276 0
M  V30 1584 C 148.141 -5.18883 0.49095 0
M  V30 1585 C 145.469 -5.77395 1.04076 0
M  V30 1586 C 147.821 -6.1618 1.43193 0
M  V30 1587 C 146.485 -6.45179 1.71173 0
M  V30 1588 H 145.755 -0.710762 -0.209521 0
M  V30 1589 H 148.402 -1.9077 0.167036 0
M  V30 1590 H 146.707 -3.37718 -1.9863 0
M  V30 1591 H 148.404 -3.63543 -1.69227 0
M  V30 1592 H 144.994 -4.26681 -0.405124 0
M  V30 1593 H 149.178 -4.95427 0.294312 0
M  V30 1594 H 144.434 -5.98179 1.26457 0
M  V30 1595 H 148.608 -6.68243 1.96023 0
M  V30 1596 H 146.235 -7.1959 2.4514 0
M  V30 1597 N 147.81 0.181792 -1.56548 0
M  V30 1598 C 148.74 1.22765 -1.98623 0
M  V30 1599 C 149.721 1.46747 -0.860189 0
M  V30 1600 O 150.906 1.58259 -1.12551 0
M  V30 1601 C 148.036 2.56894 -2.33715 0
M  V30 1602 C 146.99 2.475 -3.49182 0
M  V30 1603 C 146.316 3.86023 -3.69986 0
M  V30 1604 C 147.616 1.98866 -4.82959 0
M  V30 1605 H 149.31 0.877942 -2.86239 0
M  V30 1606 H 146.856 0.42088 -1.37712 0
M  V30 1607 H 148.809 3.30253 -2.61746 0
M  V30 1608 H 147.533 2.93632 -1.42997 0
M  V30 1609 H 146.192 1.76596 -3.21262 0
M  V30 1610 H 145.84 4.20136 -2.76576 0
M  V30 1611 H 145.54 3.80609 -4.47672 0
M  V30 1612 H 147.064 4.60984 -4.00407 0
M  V30 1613 H 148.478 2.61992 -5.09934 0
M  V30 1614 H 146.875 2.04424 -5.64208 0
M  V30 1615 H 147.945 0.942465 -4.75653 0
M  V30 1616 N 149.288 1.51039 0.449983 0
M  V30 1617 C 150.704 1.38934 0.785462 0
M  V30 1618 C 150.904 0.461817 1.96136 0
M  V30 1619 O 149.96 -0.0877389 2.52348 0
M  V30 1620 C 151.273 2.80724 1.0777 0
M  V30 1621 C 152.821 2.89787 1.1829 0
M  V30 1622 C 153.296 4.32457 1.50815 0
M  V30 1623 N 154.787 4.35505 1.57764 0
M  V30 1624 C 155.522 5.42914 1.84477 0
M  V30 1625 N 155.018 6.60502 2.09068 0
M  V30 1626 N 156.811 5.3038 1.86155 0
M  V30 1627 H 148.962 2.09904 -0.324647 0
M  V30 1628 H 151.225 0.944378 -0.0827957 0
M  V30 1629 H 150.931 3.50531 0.286498 0
M  V30 1630 H 150.805 3.19273 2.00859 0
M  V30 1631 H 153.192 2.20186 1.96474 0
M  V30 1632 H 153.273 2.54752 0.231314 0
M  V30 1633 H 152.917 5.02603 0.731622 0
M  V30 1634 H 152.847 4.64995 2.47158 0
M  V30 1635 H 155.338 3.50724 1.40715 0
M  V30 1636 H 155.651 7.38158 2.28785 0
M  V30 1637 H 153.996 6.63639 2.06416 0
M  V30 1638 H 157.187 4.37505 1.66454 0
M  V30 1639 H 157.36 6.1417 2.06637 0
M  V30 1640 N 150.766 -0.704594 1.40972 0
M  V30 1641 C 151.676 -1.84856 1.44448 0
M  V30 1642 C 152.692 -1.70726 0.335961 0
M  V30 1643 O 153.868 -1.92799 0.582276 0
M  V30 1644 C 150.933 -3.20758 1.31587 0
M  V30 1645 C 149.994 -3.47063 2.52677 0
M  V30 1646 C 149.227 -4.76481 2.4042 0
M  V30 1647 O 149.45 -5.52341 1.42391 0
M  V30 1648 O 148.384 -5.03367 3.30007 0
M  V30 1649 H 152.21 -1.8488 2.40942 0
M  V30 1650 H 149.795 -0.85647 1.22413 0
M  V30 1651 H 151.677 -4.01913 1.26665 0
M  V30 1652 H 150.352 -3.21438 0.382049 0
M  V30 1653 H 149.259 -2.65873 2.63177 0
M  V30 1654 H 150.592 -3.5119 3.44858 0
M  V30 1655 N 152.244 -1.26651 -0.937939 0
M  V30 1656 C 153.174 -1.10993 -2.05433 0
M  V30 1657 C 154.155 -0.0142161 -1.70094 0
M  V30 1658 O 155.34 -0.186837 -1.93299 0
M  V30 1659 C 152.47 -0.745561 -3.39203 0
M  V30 1660 C 151.424 -1.79337 -3.88616 0
M  V30 1661 C 150.75 -1.28324 -5.19073 0
M  V30 1662 C 152.05 -3.19553 -4.13138 0
M  V30 1663 H 153.744 -2.0438 -2.1879 0
M  V30 1664 H 151.29 -0.984041 -1.05131 0
M  V30 1665 H 153.243 -0.622888 -4.16771 0
M  V30 1666 H 151.967 0.22401 -3.25831 0
M  V30 1667 H 150.626 -1.90477 -3.13231 0
M  V30 1668 H 150.274 -0.303414 -5.02084 0
M  V30 1669 H 149.974 -1.98369 -5.53103 0
M  V30 1670 H 151.498 -1.1733 -5.99221 0
M  V30 1671 H 152.912 -3.11471 -4.81309 0
M  V30 1672 H 151.309 -3.87218 -4.58457 0
M  V30 1673 H 152.379 -3.65368 -3.18801 0
M  V30 1674 N 153.722 1.14298 -1.08507 0
M  V30 1675 C 154.971 1.84708 -0.810305 0
M  V30 1676 C 155.284 1.83903 0.666271 0
M  V30 1677 O 156.49 2.50112 1.05624 0
M  V30 1678 C 154.946 3.31572 -1.39957 0
M  V30 1679 C 154.554 3.40791 -2.90801 0
M  V30 1680 C 156.298 4.07087 -1.20334 0
M  V30 1681 C 154.205 4.81872 -3.4286 0
M  V30 1682 H 153.135 0.691985 -0.299454 0
M  V30 1683 H 155.786 1.28841 -1.30661 0
M  V30 1684 H 154.168 3.87183 -0.830976 0
M  V30 1685 H 155.342 2.95225 -3.53806 0
M  V30 1686 H 153.657 2.78732 -3.0935 0
M  V30 1687 H 156.254 5.11225 -1.56693 0
M  V30 1688 H 156.597 4.16054 -0.143237 0
M  V30 1689 H 157.13 3.57779 -1.73893 0
M  V30 1690 H 153.869 4.78094 -4.48449 0
M  V30 1691 H 153.389 5.27972 -2.84615 0
M  V30 1692 H 155.068 5.50765 -3.39509 0
M  V30 1693 N 155.201 0.870884 1.31352 0
M  V30 1694 C 156.426 0.495957 2.01383 0
M  V30 1695 C 156.851 -0.904324 1.64935 0
M  V30 1696 O 156.209 -1.59687 0.858466 0
M  V30 1697 C 156.257 0.661433 3.54482 0
M  V30 1698 O 155.361 -0.298851 4.11316 0
M  V30 1699 H 154.702 0.197158 0.634054 0
M  V30 1700 H 157.232 1.17455 1.67527 0
M  V30 1701 H 157.242 0.555072 4.04207 0
M  V30 1702 H 155.917 1.68246 3.8035 0
M  V30 1703 H 154.494 -0.147368 3.72609 0
M  V30 1704 N 156.679 -1.44442 0.630414 0
M  V30 1705 C 157.627 -2.32437 -0.0871428 0
M  V30 1706 C 158.621 -1.47304 -0.836525 0
M  V30 1707 O 159.827 -1.63653 -0.749506 0
M  V30 1708 H 156.202 -0.750533 -0.0469495 0
M  V30 1709 H 158.173 -2.90709 0.673096 0
M  V30 1710 C 156.922 -3.31288 -1.05563 0
M  V30 1711 H 156.245 -3.96805 -0.488426 0
M  V30 1712 H 157.685 -3.9554 -1.52721 0
M  V30 1713 C 156.144 -2.6016 -2.14052 0
M  V30 1714 O 156.674 -2.39997 -3.22124 0
M  V30 1715 N 154.88 -2.19911 -1.89967 0
M  V30 1716 H 154.427 -2.36509 -1.02085 0
M  V30 1717 H 154.385 -1.72646 -2.62756 0
M  V30 1718 N 158.157 -0.370918 -1.53173 0
M  V30 1719 C 159.12 0.460778 -2.24521 0
M  V30 1720 C 160.12 1.00536 -1.25496 0
M  V30 1721 O 161.31 0.890266 -1.49733 0
M  V30 1722 C 158.442 1.64457 -2.98608 0
M  V30 1723 H 159.635 -0.163613 -2.99453 0
M  V30 1724 H 157.188 -0.122699 -1.55818 0
M  V30 1725 H 157.923 2.30691 -2.2793 0
M  V30 1726 H 157.708 1.26099 -3.7127 0
M  V30 1727 H 159.198 2.23384 -3.5283 0
M  V30 1728 N 159.635 1.57281 -0.100228 0
M  V30 1729 C 160.86 1.99302 0.573881 0
M  V30 1730 C 161.285 0.979059 1.60611 0
M  V30 1731 O 160.643 -0.0517803 1.81226 0
M  V30 1732 C 160.691 3.40274 1.19358 0
M  V30 1733 O 159.795 3.41676 2.30935 0
M  V30 1734 H 159.136 0.647944 0.145138 0
M  V30 1735 H 161.666 2.03779 -0.183156 0
M  V30 1736 H 161.676 3.78078 1.53365 0
M  V30 1737 H 160.351 4.13594 0.437385 0
M  V30 1738 H 158.928 3.15672 1.98509 0
M  V30 1739 N 161.113 -0.173488 1.56642 0
M  V30 1740 C 162.39 -0.917617 1.7274 0
M  V30 1741 C 162.77 -2.00484 0.661027 0
M  V30 1742 O 162.118 -2.26184 -0.32453 0
M  V30 1743 C 162.328 -1.48433 3.15862 0
M  V30 1744 C 163.676 -1.95809 3.76754 0
M  V30 1745 O 164.7 -1.58231 3.19126 0
M  V30 1746 O 163.559 -2.65024 4.77938 0
M  V30 1747 H 160.653 -0.431772 0.705338 0
M  V30 1748 H 163.199 -0.161487 1.6893 0
M  V30 1749 H 161.971 -0.701715 3.84957 0
M  V30 1750 H 161.594 -2.30471 3.23989 0
M  V30 1751 N 162.591 -1.51276 -0.441967 0
M  V30 1752 C 163.554 -1.7167 -1.51862 0
M  V30 1753 C 164.554 -0.586793 -1.49711 0
M  V30 1754 O 165.744 -0.854276 -1.51815 0
M  V30 1755 C 162.876 -1.76889 -2.91416 0
M  V30 1756 H 164.069 -2.67754 -1.35084 0
M  V30 1757 H 161.622 -1.41196 -0.670333 0
M  V30 1758 H 162.357 -0.826026 -3.13604 0
M  V30 1759 H 162.142 -2.59001 -2.94382 0
M  V30 1760 H 163.632 -1.94522 -3.69528 0
M  V30 1761 N 164.069 0.697108 -1.41344 0
M  V30 1762 C 164.999 1.82353 -1.45841 0
M  V30 1763 C 165.98 1.67115 -0.317247 0
M  V30 1764 O 167.165 1.86871 -0.528474 0
M  V30 1765 C 164.295 3.20476 -1.33838 0
M  V30 1766 C 163.249 3.50415 -2.4575 0
M  V30 1767 C 162.575 4.87878 -2.18813 0
M  V30 1768 C 163.875 3.49546 -3.88091 0
M  V30 1769 H 165.569 1.78846 -2.40113 0
M  V30 1770 H 163.115 0.859028 -1.15571 0
M  V30 1771 H 165.068 3.98988 -1.35596 0
M  V30 1772 H 163.792 3.24604 -0.360498 0
M  V30 1773 H 162.451 2.74253 -2.43271 0
M  V30 1774 H 162.099 4.8863 -1.19371 0
M  V30 1775 H 161.799 5.08875 -2.93803 0
M  V30 1776 H 163.323 5.68702 -2.22284 0
M  V30 1777 H 164.737 4.18066 -3.92293 0
M  V30 1778 H 163.134 3.82075 -4.62751 0
M  V30 1779 H 164.204 2.48552 -4.16353 0
M  V30 1780 N 165.547 1.27147 0.931209 0
M  V30 1781 C 166.824 1.0401 1.65654 0
M  V30 1782 C 167.204 -0.426297 2.06751 0
M  V30 1783 O 166.552 -1.40879 1.79904 0
M  V30 1784 C 166.762 1.99834 2.86125 0
M  V30 1785 C 168.11 2.29007 3.57549 0
M  V30 1786 O 169.134 1.97779 2.96246 0
M  V30 1787 O 167.993 2.82222 4.67989 0
M  V30 1788 H 165.087 0.396239 0.725895 0
M  V30 1789 H 167.633 1.38397 0.982056 0
M  V30 1790 H 166.405 2.98744 2.52721 0
M  V30 1791 H 166.028 1.65987 3.61295 0
M  V30 1792 N 167.025 -1.13721 1.09112 0
M  V30 1793 C 167.972 -2.19031 0.727591 0
M  V30 1794 C 168.942 -1.63555 -0.289656 0
M  V30 1795 O 170.127 -1.90023 -0.172026 0
M  V30 1796 C 167.267 -3.4477 0.15082 0
M  V30 1797 C 166.38 -4.14365 1.22172 0
M  V30 1798 C 165.515 -5.27709 0.608042 0
M  V30 1799 C 164.554 -5.89147 1.66047 0
M  V30 1800 N 163.691 -6.93929 1.06806 0
M  V30 1801 H 168.531 -2.49475 1.62991 0
M  V30 1802 H 166.068 -1.22499 0.81439 0
M  V30 1803 H 168.026 -4.16714 -0.201358 0
M  V30 1804 H 166.656 -3.14787 -0.714783 0
M  V30 1805 H 165.708 -3.40737 1.69122 0
M  V30 1806 H 167.02 -4.56114 2.01895 0
M  V30 1807 H 166.174 -6.06355 0.204523 0
M  V30 1808 H 164.913 -4.872 -0.220769 0
M  V30 1809 H 163.918 -5.09198 2.07357 0
M  V30 1810 H 165.143 -6.31729 2.49189 0
M  V30 1811 H 163.089 -6.55483 0.260476 0
M  V30 1812 H 163.006 -7.34202 1.8023 0
M  V30 1813 H 164.274 -7.76434 0.690644 0
M  V30 1814 N 168.503 -0.877838 -1.30888 0
M  V30 1815 C 169.752 -0.488793 -1.95688 0
M  V30 1816 C 170.065 0.965485 -1.70111 0
M  V30 1817 O 171.271 1.46104 -2.28836 0
M  V30 1818 C 169.727 -0.823201 -3.50359 0
M  V30 1819 C 169.335 -2.29477 -3.84765 0
M  V30 1820 C 171.079 -0.503009 -4.21509 0
M  V30 1821 C 168.986 -2.57118 -5.32583 0
M  V30 1822 H 167.916 -0.179062 -0.732429 0
M  V30 1823 H 170.567 -1.07183 -1.48943 0
M  V30 1824 H 168.949 -0.169331 -3.95638 0
M  V30 1825 H 170.123 -2.99236 -3.5042 0
M  V30 1826 H 168.438 -2.58178 -3.267 0
M  V30 1827 H 171.035 -0.68665 -5.30273 0
M  V30 1828 H 171.378 0.557109 -4.12555 0
M  V30 1829 H 171.911 -1.11376 -3.8189 0
M  V30 1830 H 168.65 -3.61843 -5.4658 0
M  V30 1831 H 168.17 -1.91961 -5.68253 0
M  V30 1832 H 169.849 -2.42251 -5.99936 0
M  V30 1833 N 169.982 1.44106 -0.638065 0
M  V30 1834 C 171.398 1.56672 -0.304286 0
M  V30 1835 C 171.598 1.6244 1.19228 0
M  V30 1836 O 170.654 1.57121 1.9766 0
M  V30 1837 C 171.967 2.83503 -1.00231 0
M  V30 1838 C 173.515 2.97226 -0.981116 0
M  V30 1839 C 173.99 4.26868 -1.65974 0
M  V30 1840 N 175.481 4.33698 -1.62666 0
M  V30 1841 C 176.216 5.32745 -2.12063 0
M  V30 1842 N 175.712 6.38157 -2.6968 0
M  V30 1843 N 177.505 5.24299 -2.02651 0
M  V30 1844 H 169.656 1.38605 -1.60942 0
M  V30 1845 H 171.919 0.664661 -0.675965 0
M  V30 1846 H 171.625 2.85251 -2.0573 0
M  V30 1847 H 171.499 3.73251 -0.54439 0
M  V30 1848 H 173.886 2.95027 0.0654188 0
M  V30 1849 H 173.967 2.08808 -1.47759 0
M  V30 1850 H 173.611 4.29826 -2.70576 0
M  V30 1851 H 173.541 5.14156 -1.13804 0
M  V30 1852 H 176.032 3.58138 -1.20606 0
M  V30 1853 H 176.345 7.10029 -3.05087 0
M  V30 1854 H 174.69 6.38823 -2.73734 0
M  V30 1855 H 177.881 4.4086 -1.57353 0
M  V30 1856 H 178.054 6.01334 -2.41457 0
M  V30 1857 N 171.46 0.379036 1.52974 0
M  V30 1858 C 172.39 -0.452706 2.29069 0
M  V30 1859 C 173.371 -1.07237 1.32039 0
M  V30 1860 O 174.556 -1.08708 1.60923 0
M  V30 1861 C 171.686 -1.5856 3.08992 0
M  V30 1862 C 170.64 -1.0925 4.13822 0
M  V30 1863 C 169.966 -2.31668 4.81907 0
M  V30 1864 C 171.266 -0.167702 5.22031 0
M  V30 1865 H 172.96 0.182181 2.98845 0
M  V30 1866 H 170.506 0.0890592 1.43724 0
M  V30 1867 H 172.459 -2.1742 3.6098 0
M  V30 1868 H 171.183 -2.24792 2.36931 0
M  V30 1869 H 169.842 -0.526494 3.628 0
M  V30 1870 H 169.49 -2.96386 4.06404 0
M  V30 1871 H 169.19 -1.9934 5.52754 0
M  V30 1872 H 170.714 -2.91189 5.36695 0
M  V30 1873 H 172.128 -0.664186 5.6944 0
M  V30 1874 H 170.525 0.0653265 6.00064 0
M  V30 1875 H 171.595 0.786347 4.78482 0
M  V30 1876 N 172.938 -1.57226 0.108567 0
M  V30 1877 C 174.187 -1.94008 -0.551703 0
M  V30 1878 C 174.5 -0.993442 -1.68494 0
M  V30 1879 O 175.706 -1.25551 -2.40726 0
M  V30 1880 C 174.162 -3.44763 -1.03279 0
M  V30 1881 C 173.77 -4.47943 0.0714193 0
M  V30 1882 C 175.514 -3.90483 -1.66503 0
M  V30 1883 C 173.421 -5.89865 -0.425779 0
M  V30 1884 H 172.351 -0.724206 -0.209863 0
M  V30 1885 H 175.002 -1.82547 0.186741 0
M  V30 1886 H 173.384 -3.51422 -1.82533 0
M  V30 1887 H 174.558 -4.52942 0.847365 0
M  V30 1888 H 172.873 -4.11913 0.609669 0
M  V30 1889 H 175.47 -4.93925 -2.04798 0
M  V30 1890 H 175.813 -3.29877 -2.53942 0
M  V30 1891 H 176.346 -3.86581 -0.938074 0
M  V30 1892 H 173.085 -6.54202 0.412316 0
M  V30 1893 H 172.605 -5.88309 -1.16843 0
M  V30 1894 H 174.284 -6.40844 -0.890397 0
M  V30 1895 N 174.416 0.165178 -1.56732 0
M  V30 1896 C 175.641 0.900253 -1.86843 0
M  V30 1897 C 176.066 1.74766 -0.695596 0
M  V30 1898 O 175.424 1.77786 0.35522 0
M  V30 1899 C 175.472 1.74777 -3.15413 0
M  V30 1900 O 174.576 2.85007 -2.98068 0
M  V30 1901 H 173.917 0.251832 -0.614391 0
M  V30 1902 H 176.447 0.161468 -2.03962 0
M  V30 1903 H 176.457 2.14646 -3.46974 0
M  V30 1904 H 175.132 1.12537 -4.00385 0
M  V30 1905 H 173.709 2.48676 -2.77875 0
M  V30 1906 N 175.894 1.51508 0.433938 0
M  V30 1907 C 176.824 1.76016 1.53429 0
M  V30 1908 C 177.805 0.610112 1.58782 0
M  V30 1909 O 178.99 0.853177 1.74455 0
M  V30 1910 C 176.12 1.88831 2.9148 0
M  V30 1911 C 175.074 3.04288 3.00987 0
M  V30 1912 C 174.4 3.0229 4.4105 0
M  V30 1913 C 175.7 4.44193 2.74754 0
M  V30 1914 H 177.394 2.68152 1.33171 0
M  V30 1915 H 174.94 1.29035 0.639214 0
M  V30 1916 H 176.893 2.04559 3.6842 0
M  V30 1917 H 175.617 0.933455 3.12976 0
M  V30 1918 H 174.276 2.8827 2.26486 0
M  V30 1919 H 173.924 2.04576 4.59519 0
M  V30 1920 H 173.624 3.79822 4.4834 0
M  V30 1921 H 175.148 3.20116 5.1996 0
M  V30 1922 H 176.562 4.60544 3.41426 0
M  V30 1923 H 174.959 5.23457 2.9345 0
M  V30 1924 H 176.029 4.53996 1.70339 0
M  V30 1925 N 177.372 -0.689602 1.41712 0
M  V30 1926 C 178.6 -1.47827 1.44758 0
M  V30 1927 C 179.015 -1.88721 0.0545703 0
M  V30 1928 O 178.372 -1.57176 -0.927463 0
M  V30 1929 C 178.423 -2.73698 2.3616 0
M  V30 1930 O 178.144 -2.34524 3.7004 0
M  V30 1931 C 179.645 -3.67389 2.48072 0
M  V30 1932 H 176.865 -0.455357 0.49284 0
M  V30 1933 H 179.409 -0.848574 1.86063 0
M  V30 1934 H 177.564 -3.32891 1.98148 0
M  V30 1935 H 177.978 -3.15701 4.18847 0
M  V30 1936 H 179.452 -4.52475 3.16181 0
M  V30 1937 H 179.929 -4.12284 1.51388 0
M  V30 1938 H 180.535 -3.14097 2.86746 0
M  V30 1939 N 178.85 -1.27639 -0.924453 0
M  V30 1940 C 180.127 -1.04887 -1.651 0
M  V30 1941 C 180.507 0.415327 -2.06974 0
M  V30 1942 O 179.855 1.39923 -1.80648 0
M  V30 1943 C 180.065 -2.01348 -2.85061 0
M  V30 1944 C 181.413 -2.30899 -3.56329 0
M  V30 1945 O 182.437 -1.99348 -2.95193 0
M  V30 1946 O 181.296 -2.84699 -4.66485 0
M  V30 1947 H 178.39 -0.400083 -0.723784 0
M  V30 1948 H 180.936 -1.38916 -0.974703 0
M  V30 1949 H 179.708 -3.0008 -2.51133 0
M  V30 1950 H 179.331 -1.679 -3.6041 0
M  V30 1951 N 180.328 1.1314 -1.09713 0
M  V30 1952 C 181.238 2.22242 -0.751367 0
M  V30 1953 C 182.254 1.72224 0.247938 0
M  V30 1954 O 183.43 2.01205 0.0885463 0
M  V30 1955 C 180.495 3.46231 -0.180274 0
M  V30 1956 C 179.556 4.11125 -1.2359 0
M  V30 1957 C 178.789 5.29195 -0.691966 0
M  V30 1958 O 179.012 5.68342 0.48414 0
M  V30 1959 O 177.946 5.84214 -1.44838 0
M  V30 1960 H 181.772 2.54197 -1.66186 0
M  V30 1961 H 179.357 1.21331 -0.871735 0
M  V30 1962 H 181.239 4.21185 0.134739 0
M  V30 1963 H 179.914 3.1597 0.703185 0
M  V30 1964 H 178.821 3.37985 -1.60366 0
M  V30 1965 H 180.154 4.45524 -2.09211 0
M  V30 1966 N 181.806 0.884767 1.30421 0
M  V30 1967 C 182.754 0.340869 2.30089 0
M  V30 1968 C 183.748 -0.55201 1.60154 0
M  V30 1969 O 184.954 -0.436467 1.74628 0
M  V30 1970 H 181.329 0.0915739 0.746404 0
M  V30 1971 H 183.3 1.19513 2.73421 0
M  V30 1972 C 182.049 -0.429779 3.45034 0
M  V30 1973 H 181.372 0.248024 3.9903 0
M  V30 1974 H 182.812 -0.775445 4.16849 0
M  V30 1975 C 181.271 -1.62677 2.95022 0
M  V30 1976 O 181.801 -2.72614 2.95033 0
M  V30 1977 N 180.007 -1.46387 2.51036 0
M  V30 1978 H 179.554 -0.569506 2.51226 0
M  V30 1979 H 179.512 -2.26612 2.17932 0
M  V30 1980 N 183.284 -1.43765 0.645699 0
M  V30 1981 C 184.247 -2.29163 -0.0409488 0
M  V30 1982 C 185.247 -1.41813 -0.757996 0
M  V30 1983 O 186.437 -1.63527 -0.600382 0
M  V30 1984 C 183.569 -3.23716 -1.06869 0
M  V30 1985 H 184.762 -2.91366 0.710345 0
M  V30 1986 H 182.315 -1.5092 0.406547 0
M  V30 1987 H 183.05 -2.66393 -1.84947 0
M  V30 1988 H 182.835 -3.88105 -0.558277 0
M  V30 1989 H 184.325 -3.87831 -1.54845 0
M  V30 1990 N 184.763 -0.387143 -1.52771 0
M  V30 1991 C 185.693 0.440551 -2.29306 0
M  V30 1992 C 186.674 1.06535 -1.32606 0
M  V30 1993 O 187.859 1.07853 -1.61497 0
M  V30 1994 C 184.989 1.56919 -3.09829 0
M  V30 1995 C 183.943 1.07054 -4.14395 0
M  V30 1996 C 183.269 2.29109 -4.83129 0
M  V30 1997 C 184.569 0.140015 -5.22112 0
M  V30 1998 H 186.263 -0.198026 -2.98744 0
M  V30 1999 H 183.809 -0.09668 -1.43675 0
M  V30 2000 H 185.762 2.15503 -3.62128 0
M  V30 2001 H 184.486 2.23532 -2.3812 0
M  V30 2002 H 183.145 0.507247 -3.63074 0
M  V30 2003 H 182.793 2.94227 -4.0797 0
M  V30 2004 H 182.493 1.96406 -5.53804 0
M  V30 2005 H 184.017 2.88339 -5.38231 0
M  V30 2006 H 185.431 0.633978 -5.69784 0
M  V30 2007 H 183.828 -0.0971485 -6.00021 0
M  V30 2008 H 184.898 -0.811711 -4.78058 0
M  V30 2009 N 186.241 1.57166 -0.116904 0
M  V30 2010 C 187.466 1.999 0.55271 0
M  V30 2011 C 187.891 0.996039 1.59564 0
M  V30 2012 O 187.249 -0.032556 1.81271 0
M  V30 2013 C 187.297 3.4152 1.15742 0
M  V30 2014 O 186.401 3.44106 2.27299 0
M  V30 2015 H 185.742 0.649447 0.138258 0
M  V30 2016 H 188.272 2.03573 -0.204759 0
M  V30 2017 H 188.282 3.79684 1.49346 0
M  V30 2018 H 186.957 4.14034 0.393493 0
M  V30 2019 H 185.534 3.17759 1.9515 0
M  V30 2020 N 187.719 -0.156864 1.56817 0
M  V30 2021 C 188.967 -0.869404 1.82444 0
M  V30 2022 C 189.288 -1.82147 0.69623 0
M  V30 2023 O 188.558 -1.93847 -0.28287 0
M  V30 2024 H 187.138 -0.324043 0.673056 0
M  V30 2025 H 189.8 -0.153224 1.94297 0
M  V30 2026 H 188.896 -1.43761 2.77019 0
M  V30 2027 N 189.197 -1.51736 -0.425897 0
M  V30 2028 C 190.145 -1.74464 -1.53834 0
M  V30 2029 C 191.139 -0.611241 -1.57988 0
M  V30 2030 O 192.345 -0.792899 -1.61596 0
M  V30 2031 H 188.72 -0.551437 -0.511293 0
M  V30 2032 H 190.691 -2.67694 -1.31843 0
M  V30 2033 C 189.44 -1.8972 -2.91379 0
M  V30 2034 H 188.763 -2.76344 -2.88919 0
M  V30 2035 H 190.203 -2.09629 -3.68553 0
M  V30 2036 C 188.662 -0.65992 -3.30374 0
M  V30 2037 O 189.192 0.180083 -4.01296 0
M  V30 2038 N 187.398 -0.500677 -2.86254 0
M  V30 2039 H 186.945 -1.18532 -2.28709 0
M  V30 2040 H 186.903 0.325903 -3.12706 0
M  V30 2041 N 190.675 0.682077 -1.42076 0
M  V30 2042 C 191.585 1.82535 -1.47371 0
M  V30 2043 C 192.601 1.7017 -0.363079 0
M  V30 2044 O 193.777 1.91848 -0.612875 0
M  V30 2045 C 190.842 3.18624 -1.36674 0
M  V30 2046 C 189.903 3.42999 -2.58167 0
M  V30 2047 C 189.136 4.72595 -2.4797 0
M  V30 2048 O 189.359 5.50006 -1.5116 0
M  V30 2049 O 188.293 4.98054 -3.37974 0
M  V30 2050 H 192.119 1.81023 -2.43853 0
M  V30 2051 H 189.704 0.836887 -1.2376 0
M  V30 2052 H 191.586 3.99847 -1.33043 0
M  V30 2053 H 190.261 3.20789 -0.433138 0
M  V30 2054 H 189.168 2.61653 -2.67373 0
M  V30 2055 H 190.501 3.45659 -3.50401 0
M  V30 2056 N 192.153 1.28127 0.917671 0
M  V30 2057 C 193.063 1.13556 2.05286 0
M  V30 2058 C 194.079 0.0630914 1.73886 0
M  V30 2059 O 195.255 0.271598 1.9956 0
M  V30 2060 C 192.32 0.794676 3.3747 0
M  V30 2061 C 191.381 1.94909 3.82504 0
M  V30 2062 C 190.614 1.62437 5.0838 0
M  V30 2063 O 190.837 0.536905 5.67867 0
M  V30 2064 O 189.771 2.46677 5.4903 0
M  V30 2065 H 193.597 2.08844 2.20495 0
M  V30 2066 H 191.182 1.07409 1.03845 0
M  V30 2067 H 193.064 0.618344 4.16839 0
M  V30 2068 H 191.739 -0.128581 3.23445 0
M  V30 2069 H 190.646 2.18055 3.03978 0
M  V30 2070 H 191.979 2.85291 4.01086 0
M  V30 2071 N 193.631 -1.12557 1.10312 0
M  V30 2072 C 194.561 -2.20341 0.772798 0
M  V30 2073 C 195.542 -1.68198 -0.25365 0
M  V30 2074 O 196.727 -1.93831 -0.119699 0
M  V30 2075 C 193.857 -3.46709 0.202443 0
M  V30 2076 C 192.811 -4.11996 1.15943 0
M  V30 2077 C 192.137 -5.328 0.450345 0
M  V30 2078 C 193.437 -4.5828 2.50552 0
M  V30 2079 H 195.131 -2.48229 1.674 0
M  V30 2080 H 192.677 -1.19308 0.806326 0
M  V30 2081 H 194.63 -4.2138 -0.0407752 0
M  V30 2082 H 193.354 -3.18245 -0.734001 0
M  V30 2083 H 192.013 -3.39305 1.38808 0
M  V30 2084 H 191.661 -5.00602 -0.490531 0
M  V30 2085 H 191.361 -5.7743 1.08851 0
M  V30 2086 H 192.885 -6.10219 0.215642 0
M  V30 2087 H 194.299 -5.2433 2.31843 0
M  V30 2088 H 192.696 -5.13683 3.10242 0
M  V30 2089 H 193.766 -3.72329 3.10643 0
M  V30 2090 N 195.109 -0.891671 -1.2995 0
M  V30 2091 C 196.337 -0.52866 -2.00032 0
M  V30 2092 C 196.752 0.884574 -1.66795 0
M  V30 2093 O 196.109 1.5827 -0.908669 0
M  V30 2094 C 196.16 -0.701814 -3.54622 0
M  V30 2095 O 195.881 -2.05942 -3.86678 0
M  V30 2096 C 197.382 -0.342683 -4.41973 0
M  V30 2097 H 194.602 -0.203659 -0.639347 0
M  V30 2098 H 197.146 -1.19881 -1.65677 0
M  V30 2099 H 195.301 -0.0789468 -3.8732 0
M  V30 2100 H 195.715 -2.08291 -4.81368 0
M  V30 2101 H 197.189 -0.514709 -5.49595 0
M  V30 2102 H 197.666 0.71975 -4.33262 0
M  V30 2103 H 198.272 -0.942154 -4.14733 0
M  V30 2104 N 196.587 1.43421 -0.653314 0
M  V30 2105 C 197.833 2.02111 -0.166992 0
M  V30 2106 C 198.166 1.51423 1.21592 0
M  V30 2107 O 197.441 0.707389 1.8118 0
M  V30 2108 C 197.724 3.5966 -0.177948 0
M  V30 2109 C 197.577 4.20579 -1.59478 0
M  V30 2110 C 198.896 4.37413 0.4856 0
M  V30 2111 H 196.015 0.734374 -0.0621557 0
M  V30 2112 H 198.657 1.70717 -0.834016 0
M  V30 2113 H 196.807 3.86537 0.390032 0
M  V30 2114 H 198.479 4.04732 -2.21336 0
M  V30 2115 H 196.722 3.77226 -2.14204 0
M  V30 2116 H 197.393 5.29665 -1.5543 0
M  V30 2117 H 199.869 4.161 0.00234528 0
M  V30 2118 H 198.745 5.47075 0.447207 0
M  V30 2119 H 199.006 4.13672 1.55974 0
M  V30 2120 N 198.065 0.39524 1.52563 0
M  V30 2121 C 199.012 -0.437036 2.26624 0
M  V30 2122 C 199.982 -1.05281 1.28472 0
M  V30 2123 O 201.167 -1.07971 1.57311 0
M  V30 2124 C 198.307 -1.55524 3.08069 0
M  V30 2125 C 197.42 -0.961745 4.21158 0
M  V30 2126 C 196.555 -2.05149 4.89987 0
M  V30 2127 C 195.594 -1.4342 5.95061 0
M  V30 2128 N 194.731 -2.46351 6.57462 0
M  V30 2129 H 199.571 0.200976 2.97322 0
M  V30 2130 H 197.108 0.110944 1.46681 0
M  V30 2131 H 199.066 -2.21437 3.53584 0
M  V30 2132 H 197.696 -2.16348 2.3957 0
M  V30 2133 H 196.748 -0.192048 3.79915 0
M  V30 2134 H 198.06 -0.470701 4.96574 0
M  V30 2135 H 197.214 -2.78819 5.38837 0
M  V30 2136 H 195.953 -2.57615 4.14109 0
M  V30 2137 H 194.958 -0.682774 5.45544 0
M  V30 2138 H 196.183 -0.917416 6.72875 0
M  V30 2139 H 194.129 -2.97975 5.8442 0
M  V30 2140 H 194.046 -2.02019 7.28508 0
M  V30 2141 H 195.314 -3.19633 7.10954 0
M  V30 2142 N 199.544 -1.57102 0.125237 0
M  V30 2143 C 200.793 -1.94582 -0.531095 0
M  V30 2144 C 201.106 -1.01126 -1.6743 0
M  V30 2145 O 202.312 -1.28097 -2.39381 0
M  V30 2146 C 200.768 -3.45839 -0.996164 0
M  V30 2147 C 200.376 -4.47842 0.118926 0
M  V30 2148 C 202.12 -3.92227 -1.62352 0
M  V30 2149 C 200.027 -5.90284 -0.363192 0
M  V30 2150 H 198.957 -0.726391 -0.20217 0
M  V30 2151 H 201.608 -1.82339 0.206092 0
M  V30 2152 H 199.99 -3.53338 -1.78796 0
M  V30 2153 H 201.164 -4.52018 0.895358 0
M  V30 2154 H 199.479 -4.11243 0.653324 0
M  V30 2155 H 202.076 -4.96069 -1.99548 0
M  V30 2156 H 202.419 -3.32552 -2.50429 0
M  V30 2157 H 202.952 -3.87554 -0.897019 0
M  V30 2158 H 199.691 -6.53728 0.481679 0
M  V30 2159 H 199.211 -5.89515 -1.10597 0
M  V30 2160 H 200.89 -6.41752 -0.822377 0
M  V30 2161 N 201.022 0.148545 -1.56898 0
M  V30 2162 C 201.969 1.18345 -1.98149 0
M  V30 2163 C 202.939 1.42772 -0.848848 0
M  V30 2164 O 204.124 1.55132 -1.11079 0
M  V30 2165 C 201.264 2.51231 -2.36594 0
M  V30 2166 C 200.377 2.33991 -3.63142 0
M  V30 2167 C 199.512 3.59902 -3.90697 0
M  V30 2168 C 198.551 3.37692 -5.1052 0
M  V30 2169 N 197.688 4.5573 -5.34092 0
M  V30 2170 H 202.528 0.82467 -2.86362 0
M  V30 2171 H 200.065 0.395756 -1.41676 0
M  V30 2172 H 202.023 3.28713 -2.56912 0
M  V30 2173 H 200.653 2.85059 -1.51463 0
M  V30 2174 H 199.705 1.47572 -3.50609 0
M  V30 2175 H 201.017 2.13539 -4.5078 0
M  V30 2176 H 200.171 4.45813 -4.11505 0
M  V30 2177 H 198.91 3.83357 -3.01477 0
M  V30 2178 H 197.915 2.5017 -4.89587 0
M  V30 2179 H 199.14 3.15637 -6.0129 0
M  V30 2180 H 197.086 4.79361 -4.47827 0
M  V30 2181 H 197.003 4.38274 -6.15996 0
M  V30 2182 H 198.271 5.42858 -5.59397 0
M  V30 2183 N 202.5 1.5196 0.417844 0
M  V30 2184 C 203.74 1.67262 1.17486 0
M  V30 2185 C 204.104 0.38983 1.88001 0
M  V30 2186 O 205.305 0.418845 2.65517 0
M  V30 2187 C 203.576 2.85526 2.14965 0
M  V30 2188 S 205.135 3.21263 2.98891 0
M  V30 2189 H 201.953 0.589077 0.398132 0
M  V30 2190 H 204.555 1.89927 0.463452 0
M  V30 2191 H 203.259 3.77145 1.61833 0
M  V30 2192 H 202.79 2.65107 2.90657 0
M  V30 2193 H 204.805 2.69208 4.16823 0
M  V30 2194 N 203.978 -0.674533 1.42435 0
M  V30 2195 C 205.255 -1.4305 1.33402 0
M  V30 2196 C 205.635 -2.11081 -0.0284674 0
M  V30 2197 O 204.983 -2.03257 -1.04397 0
M  V30 2198 C 205.193 -2.43272 2.50239 0
M  V30 2199 C 206.541 -3.07907 2.92367 0
M  V30 2200 O 207.565 -2.53599 2.50132 0
M  V30 2201 O 206.424 -4.0632 3.65467 0
M  V30 2202 H 203.518 -0.638076 0.526106 0
M  V30 2203 H 206.064 -0.703235 1.54443 0
M  V30 2204 H 204.836 -1.91803 3.41068 0
M  V30 2205 H 204.459 -3.23479 2.31186 0
M  V30 2206 N 205.456 -1.28612 -0.910864 0
M  V30 2207 C 206.403 -1.12786 -2.01365 0
M  V30 2208 C 207.373 -0.024201 -1.66082 0
M  V30 2209 O 208.558 -0.189667 -1.89855 0
M  V30 2210 C 205.698 -0.798743 -3.35729 0
M  V30 2211 C 204.811 -1.98173 -3.83864 0
M  V30 2212 C 203.946 -1.59298 -5.06752 0
M  V30 2213 C 202.985 -2.74245 -5.47226 0
M  V30 2214 N 202.122 -2.35842 -6.61304 0
M  V30 2215 H 206.962 -2.07142 -2.14234 0
M  V30 2216 H 204.499 -1.03093 -1.0493 0
M  V30 2217 H 206.457 -0.588662 -4.13026 0
M  V30 2218 H 205.087 0.10789 -3.2262 0
M  V30 2219 H 204.139 -2.30386 -3.02699 0
M  V30 2220 H 205.451 -2.84343 -4.09818 0
M  V30 2221 H 204.605 -1.34513 -5.916 0
M  V30 2222 H 203.344 -0.702618 -4.82612 0
M  V30 2223 H 202.349 -2.99725 -4.60918 0
M  V30 2224 H 203.574 -3.63928 -5.73353 0
M  V30 2225 H 201.52 -1.49279 -6.38789 0
M  V30 2226 H 201.437 -3.15546 -6.86998 0
M  V30 2227 H 202.705 -2.14348 -7.4945 0
M  V30 2228 N 206.934 1.1197 -1.10907 0
M  V30 2229 C 207.844 2.21433 -0.774896 0
M  V30 2230 C 208.86 1.72478 0.229657 0
M  V30 2231 O 210.036 2.01288 0.0672008 0
M  V30 2232 C 207.101 3.4602 -0.216986 0
M  V30 2233 C 206.162 4.09791 -1.27944 0
M  V30 2234 C 205.395 5.28431 -0.748055 0
M  V30 2235 O 205.618 5.68823 0.423833 0
M  V30 2236 O 204.552 5.82644 -1.51027 0
M  V30 2237 H 208.378 2.5242 -1.68873 0
M  V30 2238 H 205.963 1.20399 -0.884555 0
M  V30 2239 H 207.845 4.21304 0.090059 0
M  V30 2240 H 206.52 3.16698 0.669633 0
M  V30 2241 H 205.427 3.36265 -1.63941 0
M  V30 2242 H 206.76 4.4328 -2.13925 0
M  V30 2243 N 208.412 0.89855 1.29475 0
M  V30 2244 C 209.359 0.373819 2.27753 0
M  V30 2245 C 210.329 -0.543444 1.56958 0
M  V30 2246 O 211.514 -0.468934 1.84948 0
M  V30 2247 C 208.654 -0.393648 3.42848 0
M  V30 2248 C 207.767 0.554379 4.28428 0
M  V30 2249 C 206.902 -0.230026 5.30702 0
M  V30 2250 C 205.941 0.712599 6.07938 0
M  V30 2251 N 205.078 -0.0373283 7.0209 0
M  V30 2252 H 209.918 1.21699 2.72017 0
M  V30 2253 H 207.455 0.611456 1.33789 0
M  V30 2254 H 209.413 -0.85466 4.08352 0
M  V30 2255 H 208.043 -1.20128 2.99615 0
M  V30 2256 H 207.095 1.13391 3.63107 0
M  V30 2257 H 208.407 1.27597 4.82204 0
M  V30 2258 H 207.561 -0.752288 6.02018 0
M  V30 2259 H 206.3 -0.984758 4.77654 0
M  V30 2260 H 205.305 1.24637 5.35486 0
M  V30 2261 H 206.53 1.46664 6.63074 0
M  V30 2262 H 204.476 -0.774348 6.51414 0
M  V30 2263 H 204.393 0.624374 7.53417 0
M  V30 2264 H 205.661 -0.539891 7.77628 0
M  V30 2265 N 209.89 -1.43072 0.660911 0
M  V30 2266 C 210.838 -2.32569 -0.0378199 0
M  V30 2267 C 211.832 -1.49046 -0.805092 0
M  V30 2268 O 213.038 -1.65206 -0.714624 0
M  V30 2269 H 209.413 -0.75136 -0.031019 0
M  V30 2270 H 211.384 -2.89216 0.734609 0
M  V30 2271 C 210.133 -3.33453 -0.985124 0
M  V30 2272 H 209.456 -3.97752 -0.404147 0
M  V30 2273 H 210.896 -3.98691 -1.44297 0
M  V30 2274 C 209.355 -2.64642 -2.08486 0
M  V30 2275 O 209.885 -2.46776 -3.16961 0
M  V30 2276 N 208.091 -2.23891 -1.8526 0
M  V30 2277 H 207.638 -2.38621 -0.970449 0
M  V30 2278 H 207.596 -1.78181 -2.59034 0
M  V30 2279 N 211.368 -0.403325 -1.52352 0
M  V30 2280 C 212.298 0.416205 -2.29761 0
M  V30 2281 C 213.279 1.05123 -1.33728 0
M  V30 2282 O 214.464 1.06134 -1.62632 0
M  V30 2283 C 211.594 1.53624 -3.11475 0
M  V30 2284 C 210.548 1.02653 -4.15507 0
M  V30 2285 C 209.874 2.23971 -4.85532 0
M  V30 2286 C 211.174 0.08463 -5.22231 0
M  V30 2287 H 212.868 -0.229701 -2.98518 0
M  V30 2288 H 210.414 -0.111913 -1.43564 0
M  V30 2289 H 212.367 2.1165 -3.64393 0
M  V30 2290 H 211.091 2.20994 -2.40477 0
M  V30 2291 H 209.75 0.46871 -3.63591 0
M  V30 2292 H 209.398 2.89883 -4.11068 0
M  V30 2293 H 209.098 1.90521 -5.55856 0
M  V30 2294 H 210.622 2.82614 -5.41259 0
M  V30 2295 H 212.036 0.573509 -5.70424 0
M  V30 2296 H 210.433 -0.160783 -5.99885 0
M  V30 2297 H 211.503 -0.86237 -4.7717 0
M  V30 2298 N 212.846 1.57033 -0.133567 0
M  V30 2299 C 213.776 2.1909 0.807567 0
M  V30 2300 C 214.757 1.13517 1.26681 0
M  V30 2301 O 215.942 1.41809 1.32679 0
M  V30 2302 C 213.072 2.80188 2.05212 0
M  V30 2303 C 212.026 3.91471 1.73015 0
M  V30 2304 C 211.352 4.39443 3.04622 0
M  V30 2305 C 212.652 5.12886 0.987168 0
M  V30 2306 H 214.346 2.97988 0.290403 0
M  V30 2307 H 211.892 1.43335 0.138239 0
M  V30 2308 H 213.845 3.22264 2.71521 0
M  V30 2309 H 212.569 1.98601 2.59278 0
M  V30 2310 H 211.228 3.49993 1.0909 0
M  V30 2311 H 210.876 3.54695 3.56651 0
M  V30 2312 H 210.576 5.14495 2.83847 0
M  V30 2313 H 212.1 4.8418 3.72024 0
M  V30 2314 H 213.514 5.51891 1.55208 0
M  V30 2315 H 211.911 5.93615 0.87985 0
M  V30 2316 H 212.981 4.84894 -0.0235286 0
M  V30 2317 N 214.325 -0.140222 1.56975 0
M  V30 2318 C 215.275 -1.17827 1.95194 0
M  V30 2319 C 216.259 -1.38195 0.824075 0
M  V30 2320 O 217.451 -1.39643 1.0876 0
M  V30 2321 C 214.58 -2.51024 2.34184 0
M  V30 2322 C 213.666 -2.3422 3.53556 0
M  V30 2323 N 214.057 -1.87185 4.69889 0
M  V30 2324 C 212.355 -2.64949 3.58773 0
M  V30 2325 C 213.056 -1.83586 5.5197 0
M  V30 2326 N 212.032 -2.2715 4.93866 0
M  V30 2327 H 215.834 -0.806817 2.82609 0
M  V30 2328 H 213.348 -0.348208 1.58623 0
M  V30 2329 H 215.345 -3.26074 2.59772 0
M  V30 2330 H 214.005 -2.88945 1.48124 0
M  V30 2331 H 215.016 -1.57048 4.93514 0
M  V30 2332 H 211.693 -3.067 2.8327 0
M  V30 2333 H 213.083 -1.48655 6.55249 0
M  V30 2334 N 215.803 -1.52179 -0.40978 0
M  V30 2335 C 217.049 -1.66453 -1.15851 0
M  V30 2336 C 217.382 -0.392972 -1.90182 0
M  V30 2337 O 216.657 0.608579 -1.84734 0
M  V30 2338 C 216.94 -2.88612 -2.15349 0
M  V30 2339 C 216.793 -4.25815 -1.44918 0
M  V30 2340 C 218.112 -3.06294 -3.16026 0
M  V30 2341 H 215.231 -0.60575 -0.419805 0
M  V30 2342 H 217.873 -1.84732 -0.444314 0
M  V30 2343 H 216.023 -2.73158 -2.76255 0
M  V30 2344 H 217.695 -4.52995 -0.871365 0
M  V30 2345 H 215.938 -4.27247 -0.751159 0
M  V30 2346 H 216.609 -5.07337 -2.17516 0
M  V30 2347 H 219.085 -3.20641 -2.65195 0
M  V30 2348 H 217.961 -3.93283 -3.8291 0
M  V30 2349 H 218.222 -2.19579 -3.83715 0
M  V30 2350 N 217.281 0.66697 -1.42791 0
M  V30 2351 C 218.509 1.45505 -1.47091 0
M  V30 2352 C 218.924 1.8861 -0.0845873 0
M  V30 2353 O 218.281 1.58632 0.90234 0
M  V30 2354 C 218.332 2.69906 -2.40485 0
M  V30 2355 O 218.053 2.28608 -3.73725 0
M  V30 2356 C 219.554 3.63396 -2.53886 0
M  V30 2357 H 216.774 0.447459 -0.500022 0
M  V30 2358 H 219.318 0.818866 -1.8739 0
M  V30 2359 H 217.473 3.29696 -2.03419 0
M  V30 2360 H 217.887 3.08997 -4.23817 0
M  V30 2361 H 219.361 4.47387 -3.2334 0
M  V30 2362 H 219.838 4.09824 -1.57927 0
M  V30 2363 H 220.444 3.09495 -2.91706 0
M  V30 2364 N 218.759 1.29093 0.90403 0
M  V30 2365 C 220.036 1.075 1.63411 0
M  V30 2366 C 220.416 -0.382346 2.07609 0
M  V30 2367 O 219.764 -1.37031 1.82851 0
M  V30 2368 C 219.974 2.05858 2.81822 0
M  V30 2369 C 221.322 2.36539 3.52611 0
M  V30 2370 O 222.346 2.04019 2.91984 0
M  V30 2371 O 221.205 2.92085 4.61897 0
M  V30 2372 H 218.299 0.411547 0.717327 0
M  V30 2373 H 220.845 1.40449 0.952479 0
M  V30 2374 H 219.617 3.04037 2.46327 0
M  V30 2375 H 219.24 1.73613 3.57693 0
M  V30 2376 N 220.237 -1.11381 1.11499 0
M  V30 2377 C 221.465 -1.86934 0.88675 0
M  V30 2378 C 221.88 -1.80195 -0.563476 0
M  V30 2379 O 221.237 -1.18367 -1.38908 0
M  V30 2380 C 221.288 -3.35722 1.34064 0
M  V30 2381 O 221.009 -3.4232 2.73401 0
M  V30 2382 C 222.51 -4.2818 1.14791 0
M  V30 2383 H 219.73 -0.591117 0.317523 0
M  V30 2384 H 222.274 -1.40865 1.48248 0
M  V30 2385 H 220.429 -3.79294 0.788355 0
M  V30 2386 H 220.843 -4.34971 2.93087 0
M  V30 2387 H 222.317 -5.30817 1.5145 0
M  V30 2388 H 222.794 -4.39113 0.0875279 0
M  V30 2389 H 223.4 -3.90402 1.68721 0
M  V30 2390 N 221.715 -0.905404 -1.28997 0
M  V30 2391 C 222.963 -0.533192 -1.9494 0
M  V30 2392 C 223.284 0.924618 -1.71685 0
M  V30 2393 O 222.554 1.65268 -1.05183 0
M  V30 2394 H 221.134 -0.194194 -0.721317 0
M  V30 2395 H 223.796 -1.15294 -1.57141 0
M  V30 2396 H 222.892 -0.72059 -3.03667 0
M  V30 2397 N 223.193 1.4272 -0.668489 0
M  V30 2398 C 224.439 2.01923 -0.188419 0
M  V30 2399 C 224.772 1.52704 1.19979 0
M  V30 2400 O 224.047 0.726566 1.8042 0
M  V30 2401 C 224.33 3.59451 -0.216085 0
M  V30 2402 C 224.183 4.18864 -1.6393 0
M  V30 2403 C 225.502 4.37903 0.439179 0
M  V30 2404 H 222.621 0.733674 -0.0699412 0
M  V30 2405 H 225.263 1.69822 -0.852076 0
M  V30 2406 H 223.413 3.86929 0.349012 0
M  V30 2407 H 225.085 4.02362 -2.25616 0
M  V30 2408 H 223.328 3.74933 -2.18193 0
M  V30 2409 H 223.999 5.27987 -1.61039 0
M  V30 2410 H 226.475 4.16079 -0.0417878 0
M  V30 2411 H 225.351 5.47519 0.389157 0
M  V30 2412 H 225.612 4.15303 1.51577 0
M  V30 2413 N 224.671 0.411399 1.52136 0
M  V30 2414 C 225.919 -0.163322 2.01439 0
M  V30 2415 C 226.24 -1.45453 1.29879 0
M  V30 2416 O 225.51 -1.91225 0.4254 0
M  V30 2417 H 224.09 -0.0633447 0.744309 0
M  V30 2418 H 226.752 0.548161 1.87033 0
M  V30 2419 H 225.848 -0.357817 3.10042 0
M  V30 2420 N 226.149 -1.5696 0.141893 0
M  V30 2421 C 227.082 -2.12271 -0.837627 0
M  V30 2422 C 228.06 -1.04495 -1.24578 0
M  V30 2423 O 229.244 -1.32293 -1.34278 0
M  V30 2424 C 226.371 -2.63822 -2.12404 0
M  V30 2425 C 225.417 -3.83698 -1.86221 0
M  V30 2426 S 226.25 -5.24948 -1.05781 0
M  V30 2427 C 227.406 -5.79884 -2.35552 0
M  V30 2428 H 227.639 -2.95023 -0.367249 0
M  V30 2429 H 225.172 -1.54231 -0.0723014 0
M  V30 2430 H 227.13 -2.94175 -2.86307 0
M  V30 2431 H 225.791 -1.8121 -2.56557 0
M  V30 2432 H 224.984 -4.17995 -2.81596 0
M  V30 2433 H 224.586 -3.5408 -1.20429 0
M  V30 2434 H 226.878 -5.91005 -3.31239 0
M  V30 2435 H 227.821 -6.77544 -2.05767 0
M  V30 2436 H 228.229 -5.08095 -2.45967 0
M  V30 2437 N 227.627 0.131896 -1.57047 0
M  V30 2438 C 228.855 0.856461 -1.88341 0
M  V30 2439 C 229.27 1.74042 -0.731757 0
M  V30 2440 O 228.627 1.80051 0.297945 0
M  V30 2441 C 228.678 1.70064 -3.18999 0
M  V30 2442 O 228.399 0.852278 -4.2973 0
M  V30 2443 C 229.9 2.53148 -3.63911 0
M  V30 2444 H 227.12 0.246885 -0.62393 0
M  V30 2445 H 229.664 0.120152 -2.04147 0
M  V30 2446 H 227.819 2.38984 -3.04902 0
M  V30 2447 H 228.233 1.43329 -5.04537 0
M  V30 2448 H 229.707 3.07931 -4.58129 0
M  V30 2449 H 230.184 3.29901 -2.89935 0
M  V30 2450 H 230.79 1.89492 -3.80753 0
M  V30 2451 N 229.106 1.52395 0.401703 0
M  V30 2452 C 230.522 1.41363 0.740864 0
M  V30 2453 C 230.722 0.523982 1.94568 0
M  V30 2454 O 229.778 -0.00741204 2.52499 0
M  V30 2455 C 231.091 2.84011 0.987847 0
M  V30 2456 C 232.639 2.93404 1.09011 0
M  V30 2457 C 233.114 4.37036 1.3698 0
M  V30 2458 N 234.605 4.40304 1.43829 0
M  V30 2459 C 235.34 5.48508 1.67112 0
M  V30 2460 N 234.836 6.66819 1.87949 0
M  V30 2461 N 236.629 5.36034 1.69187 0
M  V30 2462 H 228.78 2.08765 -0.391262 0
M  V30 2463 H 231.043 0.941265 -0.112798 0
M  V30 2464 H 230.749 3.51265 0.174835 0
M  V30 2465 H 230.623 3.25502 1.906 0
M  V30 2466 H 233.01 2.26325 1.8937 0
M  V30 2467 H 233.091 2.55359 0.15015 0
M  V30 2468 H 232.735 5.04676 0.571353 0
M  V30 2469 H 232.665 4.72623 2.3224 0
M  V30 2470 H 235.156 3.55024 1.29486 0
M  V30 2471 H 235.469 7.45063 2.05185 0
M  V30 2472 H 233.814 6.6987 1.85199 0
M  V30 2473 H 237.005 4.42579 1.52451 0
M  V30 2474 H 237.178 6.20434 1.86993 0
M  V30 2475 N 230.584 -0.659388 1.43143 0
M  V30 2476 C 231.494 -1.80167 1.50256 0
M  V30 2477 C 232.51 -1.69571 0.390106 0
M  V30 2478 O 233.686 -1.90849 0.643319 0
M  V30 2479 C 230.751 -3.16409 1.41725 0
M  V30 2480 C 229.812 -3.38848 2.63591 0
M  V30 2481 C 229.045 -4.68591 2.55458 0
M  V30 2482 O 229.268 -5.47532 1.59891 0
M  V30 2483 O 228.202 -4.92614 3.45854 0
M  V30 2484 H 232.028 -1.77121 2.46702 0
M  V30 2485 H 229.613 -0.817092 1.25076 0
M  V30 2486 H 231.495 -3.9768 1.39387 0
M  V30 2487 H 230.17 -3.20059 0.484118 0
M  V30 2488 H 229.077 -2.57366 2.71502 0
M  V30 2489 H 230.41 -3.4004 3.55856 0
M  V30 2490 N 232.062 -1.29571 -0.897171 0
M  V30 2491 C 232.972 -1.16808 -2.03453 0
M  V30 2492 C 233.988 -0.0907471 -1.73763 0
M  V30 2493 O 235.164 -0.303312 -1.99103 0
M  V30 2494 C 232.229 -0.848264 -3.36163 0
M  V30 2495 C 231.29 -2.0097 -3.79354 0
M  V30 2496 C 230.523 -1.70505 -5.05731 0
M  V30 2497 O 230.746 -0.62718 -5.66941 0
M  V30 2498 O 229.68 -2.5538 -5.45036 0
M  V30 2499 H 233.506 -2.12325 -2.17144 0
M  V30 2500 H 231.091 -1.09047 -1.02123 0
M  V30 2501 H 232.973 -0.684581 -4.15802 0
M  V30 2502 H 231.648 0.0771071 -3.23608 0
M  V30 2503 H 230.555 -2.22863 -3.00471 0
M  V30 2504 H 231.888 -2.91636 -3.96496 0
M  V30 2505 N 233.54 1.10788 -1.12088 0
M  V30 2506 C 234.47 2.19083 -0.807755 0
M  V30 2507 C 235.451 1.6858 0.226859 0
M  V30 2508 O 236.636 1.93997 0.0888475 0
M  V30 2509 C 233.766 3.46344 -0.257576 0
M  V30 2510 C 232.72 4.101 -1.22483 0
M  V30 2511 C 232.046 5.32016 -0.535052 0
M  V30 2512 C 233.346 4.54236 -2.57811 0
M  V30 2513 H 235.04 2.45534 -1.71328 0
M  V30 2514 H 232.586 1.1801 -0.825205 0
M  V30 2515 H 234.539 4.21392 -0.0262679 0
M  V30 2516 H 233.263 3.19373 0.683278 0
M  V30 2517 H 231.922 3.37054 -1.44189 0
M  V30 2518 H 231.57 5.01319 0.410827 0
M  V30 2519 H 231.27 5.75625 -1.18024 0
M  V30 2520 H 232.794 6.09799 -0.312695 0
M  V30 2521 H 234.208 5.20575 -2.40155 0
M  V30 2522 H 232.605 5.08682 -3.18375 0
M  V30 2523 H 233.675 3.6734 -3.16528 0
M  V30 2524 N 235.018 0.912232 1.28515 0
M  V30 2525 C 236.264 0.545405 1.95328 0
M  V30 2526 C 236.597 -0.908313 1.71649 0
M  V30 2527 O 235.872 -1.64575 1.03659 0
M  V30 2528 C 236.155 0.853483 3.4984 0
M  V30 2529 C 236.008 2.35982 3.82926 0
M  V30 2530 C 237.327 0.348589 4.38717 0
M  V30 2531 H 234.446 0.199626 0.709449 0
M  V30 2532 H 237.088 1.1412 1.5191 0
M  V30 2533 H 235.238 0.34643 3.86952 0
M  V30 2534 H 236.91 2.93738 3.55691 0
M  V30 2535 H 235.153 2.81543 3.30024 0
M  V30 2536 H 235.824 2.52593 4.90816 0
M  V30 2537 H 238.3 0.78294 4.08668 0
M  V30 2538 H 237.176 0.593242 5.45685 0
M  V30 2539 H 237.437 -0.751049 4.35674 0
M  V30 2540 N 236.496 -1.42363 0.676048 0
M  V30 2541 C 237.443 -2.308 -0.00150904 0
M  V30 2542 C 238.413 -1.46032 -0.791444 0
M  V30 2543 O 239.598 -1.74861 -0.76344 0
M  V30 2544 C 236.738 -3.31883 -0.945919 0
M  V30 2545 C 235.851 -4.31741 -0.149675 0
M  V30 2546 C 234.986 -5.19898 -1.08995 0
M  V30 2547 C 234.025 -6.11434 -0.285465 0
M  V30 2548 N 233.162 -6.92138 -1.17851 0
M  V30 2549 H 238.002 -2.88187 0.758455 0
M  V30 2550 H 235.539 -1.41952 0.38576 0
M  V30 2551 H 237.497 -3.89019 -1.50731 0
M  V30 2552 H 236.127 -2.76093 -1.6725 0
M  V30 2553 H 235.179 -3.76713 0.528359 0
M  V30 2554 H 236.491 -4.96534 0.474866 0
M  V30 2555 H 235.645 -5.81772 -1.72123 0
M  V30 2556 H 234.384 -4.55284 -1.74837 0
M  V30 2557 H 233.389 -5.48627 0.359018 0
M  V30 2558 H 234.614 -6.78097 0.368883 0
M  V30 2559 H 232.56 -6.30152 -1.82332 0
M  V30 2560 H 232.477 -7.53542 -0.609082 0
M  V30 2561 H 233.745 -7.58499 -1.79722 0
M  V30 2562 N 237.974 -0.419461 -1.51915 0
M  V30 2563 C 238.922 0.415502 -2.28859 0
M  V30 2564 C 239.916 1.03674 -1.3397 0
M  V30 2565 O 241.122 0.973757 -1.51387 0
M  V30 2566 H 237.497 0.152786 -0.736315 0
M  V30 2567 H 239.468 -0.254531 -2.97312 0
M  V30 2568 C 238.217 1.51425 -3.12995 0
M  V30 2569 H 237.54 1.04556 -3.85886 0
M  V30 2570 H 238.98 2.07208 -3.6992 0
M  V30 2571 C 237.439 2.48745 -2.27217 0
M  V30 2572 O 237.969 3.52871 -1.9195 0
M  V30 2573 N 236.175 2.19202 -1.90785 0
M  V30 2574 H 235.722 1.34556 -2.19664 0
M  V30 2575 H 235.68 2.84561 -1.33687 0
M  V30 2576 N 239.452 1.56882 -0.150215 0
M  V30 2577 C 240.382 2.19935 0.784284 0
M  V30 2578 C 241.363 1.14854 1.25469 0
M  V30 2579 O 242.548 1.43209 1.31168 0
M  V30 2580 C 239.678 2.82349 2.02229 0
M  V30 2581 C 238.632 3.93285 1.68853 0
M  V30 2582 C 237.958 4.42649 2.99944 0
M  V30 2583 C 239.258 5.13904 0.932714 0
M  V30 2584 H 240.952 2.9828 0.258781 0
M  V30 2585 H 238.498 1.43473 0.123029 0
M  V30 2586 H 240.451 3.25126 2.68088 0
M  V30 2587 H 239.175 2.0134 2.57157 0
M  V30 2588 H 237.834 3.5113 1.05371 0
M  V30 2589 H 237.482 3.58458 3.52869 0
M  V30 2590 H 237.182 5.17476 2.78374 0
M  V30 2591 H 238.706 4.88099 3.66868 0
M  V30 2592 H 240.12 5.53506 1.49345 0
M  V30 2593 H 238.517 5.94515 0.81684 0
M  V30 2594 H 239.587 4.84842 -0.0749568 0
M  V30 2595 N 240.93 -0.123565 1.57115 0
M  V30 2596 C 242.178 -0.83051 1.84247 0
M  V30 2597 C 242.499 -1.80629 0.73471 0
M  V30 2598 O 241.769 -1.94403 -0.241688 0
M  V30 2599 H 240.349 -0.309694 0.679778 0
M  V30 2600 H 243.011 -0.111976 1.94578 0
M  V30 2601 H 242.107 -1.37852 2.80006 0
M  V30 2602 N 242.408 -1.52605 -0.393616 0
M  V30 2603 C 243.636 -1.71294 -1.16043 0
M  V30 2604 C 244.051 -0.429259 -1.83855 0
M  V30 2605 O 243.408 0.595921 -1.72496 0
M  V30 2606 C 243.459 -2.8593 -2.21193 0
M  V30 2607 O 243.18 -4.09329 -1.56146 0
M  V30 2608 C 244.681 -3.16259 -3.10636 0
M  V30 2609 H 241.901 -0.573641 -0.348104 0
M  V30 2610 H 244.445 -1.99234 -0.461092 0
M  V30 2611 H 242.6 -2.60465 -2.86769 0
M  V30 2612 H 243.014 -4.73323 -2.25978 0
M  V30 2613 H 244.488 -3.99946 -3.80456 0
M  V30 2614 H 244.965 -2.3045 -3.73884 0
M  V30 2615 H 245.571 -3.43547 -2.50711 0
M  V30 2616 N 243.887 0.651787 -1.4349 0
M  V30 2617 C 245.136 1.40754 -1.44469 0
M  V30 2618 C 245.449 1.95463 -0.0731845 0
M  V30 2619 O 246.655 2.71471 0.0395721 0
M  V30 2620 C 245.111 2.54735 -2.5424 0
M  V30 2621 C 244.719 2.06628 -3.97504 0
M  V30 2622 C 246.463 3.32092 -2.64414 0
M  V30 2623 C 244.37 3.17829 -4.98737 0
M  V30 2624 H 243.3 0.528862 -0.53742 0
M  V30 2625 H 245.951 0.703365 -1.69485 0
M  V30 2626 H 244.333 3.2763 -2.22428 0
M  V30 2627 H 245.507 1.40734 -4.38783 0
M  V30 2628 H 243.822 1.42146 -3.91387 0
M  V30 2629 H 246.419 4.14952 -3.37223 0
M  V30 2630 H 246.762 3.80217 -1.69532 0
M  V30 2631 H 247.295 2.66279 -2.95534 0
M  V30 2632 H 244.034 2.74671 -5.95177 0
M  V30 2633 H 243.554 3.82429 -4.62069 0
M  V30 2634 H 245.233 3.82937 -5.21505 0
M  V30 2635 N 245.365 1.30045 0.890287 0
M  V30 2636 C 246.328 1.15963 1.977 0
M  V30 2637 C 247.328 0.0923777 1.60534 0
M  V30 2638 O 248.518 0.340071 1.70848 0
M  V30 2639 C 245.65 0.775451 3.31963 0
M  V30 2640 H 246.843 2.12502 2.11619 0
M  V30 2641 H 244.396 1.13366 1.07601 0
M  V30 2642 H 245.131 -0.189671 3.23745 0
M  V30 2643 H 244.916 1.54668 3.60306 0
M  V30 2644 H 246.406 0.700251 4.11687 0
M  V30 2645 N 246.843 -1.10192 1.12674 0
M  V30 2646 C 247.79 -2.16606 0.796906 0
M  V30 2647 C 248.76 -1.64394 -0.237476 0
M  V30 2648 O 249.945 -1.90474 -0.111484 0
M  V30 2649 C 247.085 -3.44116 0.26043 0
M  V30 2650 C 246.198 -4.10268 1.35293 0
M  V30 2651 C 245.333 -5.25507 0.775621 0
M  V30 2652 C 244.372 -5.83567 1.84706 0
M  V30 2653 N 243.509 -6.90179 1.28829 0
M  V30 2654 H 248.349 -2.44163 1.70846 0
M  V30 2655 H 245.886 -1.19846 0.85295 0
M  V30 2656 H 247.844 -4.17143 -0.0686814 0
M  V30 2657 H 246.474 -3.16901 -0.614274 0
M  V30 2658 H 245.526 -3.35184 1.79877 0
M  V30 2659 H 246.838 -4.4946 2.16303 0
M  V30 2660 H 245.992 -6.05398 0.397327 0
M  V30 2661 H 244.731 -4.87656 -0.0656581 0
M  V30 2662 H 243.736 -5.02344 2.23452 0
M  V30 2663 H 244.961 -6.23482 2.69161 0
M  V30 2664 H 242.907 -6.54322 0.468881 0
M  V30 2665 H 242.824 -7.28097 2.03497 0
M  V30 2666 H 244.092 -7.73844 0.937311 0
M  V30 2667 N 248.321 -0.919034 -1.28029 0
M  V30 2668 C 249.546 -0.570357 -1.99403 0
M  V30 2669 C 249.971 0.842486 -1.68178 0
M  V30 2670 O 249.329 1.56391 -0.917141 0
M  V30 2671 C 249.377 -0.792541 -3.51783 0
M  V30 2672 O 248.481 0.145988 -4.12142 0
M  V30 2673 H 247.822 -0.220555 -0.6263 0
M  V30 2674 H 250.352 -1.23592 -1.63053 0
M  V30 2675 H 250.362 -0.704708 -4.01868 0
M  V30 2676 H 249.037 -1.82247 -3.73844 0
M  V30 2677 H 247.614 0.00897528 -3.72899 0
M  V30 2678 N 249.799 1.42003 -0.683588 0
M  V30 2679 C 251.047 2.01015 -0.209101 0
M  V30 2680 C 251.368 1.54365 1.19149 0
M  V30 2681 O 250.638 0.769083 1.80172 0
M  V30 2682 H 249.218 0.743294 -0.074315 0
M  V30 2683 H 251.88 1.73798 -0.882066 0
M  V30 2684 H 250.976 3.11343 -0.2172 0
M  V30 2685 N 251.277 0.427512 1.51691 0
M  V30 2686 C 252.505 -0.141191 2.06418 0
M  V30 2687 C 252.92 -1.37303 1.29589 0
M  V30 2688 O 252.277 -1.79059 0.352732 0
M  V30 2689 C 252.328 -0.473266 3.58389 0
M  V30 2690 O 252.049 0.709673 4.32314 0
M  V30 2691 C 253.55 -1.09371 4.29596 0
M  V30 2692 H 250.77 -0.0122747 0.670888 0
M  V30 2693 H 253.314 0.603764 1.95384 0
M  V30 2694 H 251.469 -1.16812 3.69369 0
M  V30 2695 H 251.883 0.42807 5.2275 0
M  V30 2696 H 253.357 -1.27613 5.37046 0
M  V30 2697 H 253.834 -2.072 3.87253 0
M  V30 2698 H 254.44 -0.43853 4.23033 0
M  V30 2699 N 252.755 -1.56801 0.158532 0
M  V30 2700 C 253.98 -2.01295 -0.499516 0
M  V30 2701 C 254.405 -1.03799 -1.56867 0
M  V30 2702 O 253.763 -0.0155162 -1.81293 0
M  V30 2703 C 253.811 -3.44469 -1.06647 0
M  V30 2704 O 252.915 -3.50012 -2.18095 0
M  V30 2705 H 252.256 -0.652884 -0.12099 0
M  V30 2706 H 254.786 -2.02958 0.258661 0
M  V30 2707 H 254.796 -3.8351 -1.39227 0
M  V30 2708 H 253.471 -4.14932 -0.283581 0
M  V30 2709 H 252.048 -3.22822 -1.86656 0
M  V30 2710 N 254.233 0.115231 -1.57178 0
M  V30 2711 C 255.143 1.15994 -2.03918 0
M  V30 2712 C 256.159 1.45103 -0.960268 0
M  V30 2713 O 257.335 1.56144 -1.27204 0
M  V30 2714 C 254.4 2.46568 -2.43732 0
M  V30 2715 C 253.461 2.24822 -3.65723 0
M  V30 2716 C 252.694 3.4917 -4.03629 0
M  V30 2717 O 252.917 4.56623 -3.41835 0
M  V30 2718 O 251.851 3.39949 -4.96708 0
M  V30 2719 H 255.677 0.793019 -2.93164 0
M  V30 2720 H 253.262 0.3263 -1.45793 0
M  V30 2721 H 255.144 3.23492 -2.70057 0
M  V30 2722 H 253.819 2.82726 -1.57631 0
M  V30 2723 H 252.726 1.45744 -3.44542 0
M  V30 2724 H 254.059 1.93566 -4.52541 0
M  V30 2725 N 255.711 1.52812 0.385517 0
M  V30 2726 C 256.958 1.68026 1.1302 0
M  V30 2727 C 257.286 0.421934 1.89868 0
M  V30 2728 O 256.541 -0.595749 1.86412 0
M  V30 2729 C 256.84 2.86856 2.13187 0
M  V30 2730 C 256.506 4.24159 1.5297 0
M  V30 2731 C 255.168 4.61501 1.36274 0
M  V30 2732 C 257.52 5.09627 1.09223 0
M  V30 2733 C 254.848 5.81966 0.743837 0
M  V30 2734 C 257.2 6.30719 0.487411 0
M  V30 2735 C 255.864 6.6679 0.307777 0
M  V30 2736 H 255.134 0.614849 0.413571 0
M  V30 2737 H 257.781 1.86962 0.414405 0
M  V30 2738 H 256.086 2.6235 2.90998 0
M  V30 2739 H 257.783 2.95821 2.70722 0
M  V30 2740 H 254.373 3.94746 1.66954 0
M  V30 2741 H 258.557 4.81343 1.20922 0
M  V30 2742 H 253.813 6.08519 0.592891 0
M  V30 2743 H 257.987 6.96259 0.140143 0
M  V30 2744 H 255.614 7.60001 -0.173879 0
M  V30 2745 N 257.189 -0.644168 1.43834 0
M  V30 2746 C 258.119 -1.76814 1.52509 0
M  V30 2747 C 259.1 -1.65823 0.379052 0
M  V30 2748 O 260.285 -1.84781 0.597466 0
M  V30 2749 C 257.415 -3.15288 1.4564 0
M  V30 2750 C 256.369 -3.41053 2.58586 0
M  V30 2751 C 255.695 -4.79421 2.36769 0
M  V30 2752 C 256.995 -3.34902 4.00797 0
M  V30 2753 H 258.689 -1.69812 2.46586 0
M  V30 2754 H 256.235 -0.815542 1.1868 0
M  V30 2755 H 258.188 -3.93681 1.50311 0
M  V30 2756 H 256.912 -3.23043 0.480725 0
M  V30 2757 H 255.571 -2.65035 2.53282 0
M  V30 2758 H 255.219 -4.83863 1.37424 0
M  V30 2759 H 254.919 -4.9762 3.12487 0
M  V30 2760 H 256.443 -5.6006 2.43238 0
M  V30 2761 H 257.857 -4.03218 4.07539 0
M  V30 2762 H 256.254 -3.64637 4.76613 0
M  V30 2763 H 257.324 -2.32928 4.25291 0
M  V30 2764 N 258.668 -1.30515 -0.883378 0
M  V30 2765 C 259.616 -1.16941 -2.01066 0
M  V30 2766 C 260.61 -0.0809148 -1.69207 0
M  V30 2767 O 261.816 -0.241877 -1.78367 0
M  V30 2768 H 258.191 -0.361705 -0.659298 0
M  V30 2769 H 260.162 -2.12344 -2.09649 0
M  V30 2770 C 258.911 -0.879694 -3.36388 0
M  V30 2771 H 258.234 -1.70936 -3.61415 0
M  V30 2772 H 259.674 -0.82483 -4.159 0
M  V30 2773 C 258.133 0.417409 -3.34304 0
M  V30 2774 O 258.663 1.43843 -3.75063 0
M  V30 2775 N 256.869 0.429141 -2.87414 0
M  V30 2776 H 256.416 -0.402222 -2.5444 0
M  V30 2777 H 256.374 1.29696 -2.86403 0
M  V30 2778 N 260.146 1.09593 -1.13257 0
M  V30 2779 C 261.093 2.1618 -0.808381 0
M  V30 2780 C 262.063 1.64517 0.228754 0
M  V30 2781 O 263.248 1.9053 0.101381 0
M  V30 2782 C 260.388 3.43973 -0.278675 0
M  V30 2783 C 259.501 4.09545 -1.37466 0
M  V30 2784 C 258.636 5.25088 -0.803479 0
M  V30 2785 C 257.675 5.82579 -1.87799 0
M  V30 2786 N 256.812 6.89486 -1.32488 0
M  V30 2787 H 261.652 2.43254 -1.72138 0
M  V30 2788 H 259.189 1.19392 -0.859294 0
M  V30 2789 H 261.147 4.17174 0.0465583 0
M  V30 2790 H 259.777 3.17223 0.597459 0
M  V30 2791 H 258.829 3.34226 -1.81652 0
M  V30 2792 H 260.141 4.48307 -2.18684 0
M  V30 2793 H 259.295 6.05178 -0.429427 0
M  V30 2794 H 258.034 4.87684 0.0397956 0
M  V30 2795 H 257.039 5.01152 -2.26113 0
M  V30 2796 H 258.264 6.22045 -2.72463 0
M  V30 2797 H 256.21 6.54064 -0.503575 0
M  V30 2798 H 256.127 7.27007 -2.07355 0
M  V30 2799 H 257.395 7.73336 -0.978336 0
M  V30 2800 N 261.624 0.925811 1.2754 0
M  V30 2801 C 262.557 0.367836 2.25216 0
M  V30 2802 C 263.535 -0.534738 1.53556 0
M  V30 2803 O 264.719 -0.475672 1.824 0
M  V30 2804 C 261.846 -0.47298 3.35381 0
M  V30 2805 C 260.892 0.365898 4.24928 0
M  V30 2806 S 261.725 1.78025 5.05042 0
M  V30 2807 C 262.881 0.947068 6.18693 0
M  V30 2808 H 263.114 1.19568 2.72196 0
M  V30 2809 H 260.647 0.727867 1.36167 0
M  V30 2810 H 262.605 -0.952242 3.99303 0
M  V30 2811 H 261.266 -1.27533 2.87044 0
M  V30 2812 H 260.459 -0.277582 5.03235 0
M  V30 2813 H 260.061 0.779261 3.65792 0
M  V30 2814 H 262.353 0.182201 6.77255 0
M  V30 2815 H 263.296 1.70309 6.87314 0
M  V30 2816 H 263.704 0.489913 5.6237 0
M  V30 2817 N 263.102 -1.41638 0.69111 0
M  V30 2818 C 264.33 -2.05628 0.22909 0
M  V30 2819 C 264.745 -1.51992 -1.11999 0
M  V30 2820 O 264.102 -0.666322 -1.69901 0
M  V30 2821 C 264.153 -3.61084 0.173283 0
M  V30 2822 O 263.874 -4.12735 1.46907 0
M  V30 2823 C 265.375 -4.42213 -0.310266 0
M  V30 2824 H 262.595 -0.662327 0.107534 0
M  V30 2825 H 265.139 -1.81489 0.942438 0
M  V30 2826 H 263.294 -3.84278 -0.490858 0
M  V30 2827 H 263.708 -5.06743 1.35322 0
M  V30 2828 H 265.182 -5.51194 -0.298196 0
M  V30 2829 H 265.659 -4.1799 -1.34838 0
M  V30 2830 H 266.265 -4.24074 0.322716 0
M  V30 2831 N 264.58 -0.43555 -1.51462 0
M  V30 2832 C 265.49 0.383001 -2.31453 0
M  V30 2833 C 266.506 1.02931 -1.4029 0
M  V30 2834 O 267.682 1.02507 -1.73362 0
M  V30 2835 C 264.747 1.47043 -3.13973 0
M  V30 2836 C 263.808 0.844433 -4.20913 0
M  V30 2837 C 263.041 1.88004 -4.9949 0
M  V30 2838 O 263.264 3.10199 -4.78678 0
M  V30 2839 O 262.198 1.47157 -5.83634 0
M  V30 2840 H 266.024 -0.269964 -3.02498 0
M  V30 2841 H 263.609 -0.19813 -1.4808 0
M  V30 2842 H 265.491 2.10113 -3.65281 0
M  V30 2843 H 264.166 2.10751 -2.45695 0
M  V30 2844 H 263.073 0.175729 -3.73687 0
M  V30 2845 H 264.406 0.250869 -4.9156 0
M  V30 2846 N 266.058 1.56714 -0.166846 0
M  V30 2847 C 267.021 2.16539 0.751232 0
M  V30 2848 C 268.021 1.11228 1.16125 0
M  V30 2849 O 269.211 1.36765 1.07894 0
M  V30 2850 C 266.343 2.74462 2.02196 0
M  V30 2851 H 267.536 2.99013 0.230499 0
M  V30 2852 H 265.089 1.56081 0.0826982 0
M  V30 2853 H 265.824 1.95709 2.58589 0
M  V30 2854 H 265.609 3.51527 1.73698 0
M  V30 2855 H 267.099 3.20489 2.67725 0
M  V30 2856 N 267.536 -0.106894 1.57237 0
M  V30 2857 C 268.468 -1.15646 1.97885 0
M  V30 2858 C 269.481 -1.36981 0.879779 0
M  V30 2859 O 270.67 -1.35841 1.15799 0
M  V30 2860 C 267.77 -2.51425 2.27241 0
M  V30 2861 C 266.943 -2.50529 3.58545 0
M  V30 2862 C 266.002 -3.68145 3.75973 0
M  V30 2863 O 265.028 -3.51176 4.47956 0
M  V30 2864 N 266.23 -4.87177 3.15656 0
M  V30 2865 H 268.995 -0.81059 2.8853 0
M  V30 2866 H 266.556 -0.296024 1.59171 0
M  V30 2867 H 268.548 -3.28689 2.36105 0
M  V30 2868 H 267.118 -2.78147 1.42663 0
M  V30 2869 H 266.338 -1.58894 3.60758 0
M  V30 2870 H 267.626 -2.46997 4.44826 0
M  V30 2871 H 267.024 -5.03868 2.57165 0
M  V30 2872 H 265.581 -5.62075 3.30023 0
M  V30 2873 N 269.014 -1.53014 -0.377408 0
M  V30 2874 C 269.924 -1.81557 -1.48574 0
M  V30 2875 C 270.94 -0.703102 -1.59162 0
M  V30 2876 O 272.116 -0.99192 -1.75279 0
M  V30 2877 C 269.181 -1.9889 -2.83978 0
M  V30 2878 C 268.242 -3.22801 -2.83016 0
M  V30 2879 C 267.475 -3.39298 -4.11962 0
M  V30 2880 O 267.698 -2.60345 -5.0752 0
M  V30 2881 O 266.632 -4.32604 -4.18494 0
M  V30 2882 H 270.458 -2.75695 -1.27382 0
M  V30 2883 H 268.043 -1.38248 -0.566373 0
M  V30 2884 H 269.925 -2.11931 -3.6423 0
M  V30 2885 H 268.6 -1.07942 -3.05172 0
M  V30 2886 H 267.507 -3.15193 -2.01505 0
M  V30 2887 H 268.84 -4.13632 -2.66775 0
M  V30 2888 N 270.492 0.636531 -1.44174 0
M  V30 2889 C 271.769 1.39463 -1.37148 0
M  V30 2890 C 272.149 2.11082 -0.027507 0
M  V30 2891 O 271.497 2.05954 0.989716 0
M  V30 2892 C 271.707 2.36552 -2.56601 0
M  V30 2893 C 273.055 3.00048 -3.00427 0
M  V30 2894 O 274.079 2.46878 -2.56767 0
M  V30 2895 O 272.938 3.96488 -3.76111 0
M  V30 2896 H 270.032 0.623903 -0.542839 0
M  V30 2897 H 272.578 0.662039 -1.56253 0
M  V30 2898 H 271.35 1.82692 -3.46034 0
M  V30 2899 H 270.973 3.17236 -2.39681 0
M  V30 2900 N 271.97 1.30982 0.876444 0
M  V30 2901 C 273.218 1.20058 1.62575 0
M  V30 2902 C 273.539 -0.242947 1.93481 0
M  V30 2903 O 272.809 -1.1619 1.57724 0
M  V30 2904 H 271.389 0.44135 0.602677 0
M  V30 2905 H 274.051 1.64222 1.04962 0
M  V30 2906 H 273.147 1.76762 2.57219 0
M  V30 2907 N 273.449 -1.08991 1.13837 0
M  V30 2908 C 274.381 -2.15606 0.777612 0
M  V30 2909 C 275.394 -1.61533 -0.202739 0
M  V30 2910 O 276.583 -1.78491 0.0181055 0
M  V30 2911 C 273.683 -3.3864 0.132623 0
M  V30 2912 C 272.856 -4.22115 1.1462 0
M  V30 2913 C 271.915 -5.23564 0.526074 0
M  V30 2914 O 270.941 -5.56678 1.18735 0
M  V30 2915 N 272.143 -5.76266 -0.699866 0
M  V30 2916 H 274.908 -2.47159 1.69506 0
M  V30 2917 H 272.469 -1.24747 1.03198 0
M  V30 2918 H 274.461 -4.03626 -0.29459 0
M  V30 2919 H 273.031 -3.04938 -0.687849 0
M  V30 2920 H 272.251 -3.53199 1.75055 0
M  V30 2921 H 273.539 -4.74709 1.83109 0
M  V30 2922 H 272.937 -5.51585 -1.25581 0
M  V30 2923 H 271.494 -6.42963 -1.06968 0
M  V30 2924 N 274.927 -0.932562 -1.27047 0
M  V30 2925 C 276.152 -0.591474 -1.98787 0
M  V30 2926 C 276.577 0.824601 -1.69062 0
M  V30 2927 O 275.935 1.5541 -0.933677 0
M  V30 2928 C 275.983 -0.829808 -3.50922 0
M  V30 2929 O 275.087 0.102266 -4.12273 0
M  V30 2930 H 274.428 -0.227185 -0.623926 0
M  V30 2931 H 276.958 -1.25314 -1.61733 0
M  V30 2932 H 276.968 -0.747292 -4.01098 0
M  V30 2933 H 275.643 -1.86201 -3.7189 0
M  V30 2934 H 274.22 -0.0305761 -3.72887 0
M  V30 2935 N 276.405 1.4127 -0.698611 0
M  V30 2936 C 277.633 2.05503 -0.239992 0
M  V30 2937 C 278.048 1.52584 1.11191 0
M  V30 2938 O 277.405 0.675323 1.69545 0
M  V30 2939 C 277.456 3.60987 -0.192429 0
M  V30 2940 O 277.177 4.1195 -1.49094 0
M  V30 2941 C 278.678 4.42371 0.28681 0
M  V30 2942 H 275.898 0.661748 -0.111045 0
M  V30 2943 H 278.442 1.80987 -0.95205 0
M  V30 2944 H 276.597 3.84533 0.470472 0
M  V30 2945 H 277.011 5.06018 -1.38007 0
M  V30 2946 H 278.485 5.51344 0.26896 0
M  V30 2947 H 278.962 4.18699 1.32619 0
M  V30 2948 H 279.568 4.23897 -0.345201 0
M  V30 2949 N 277.883 0.443576 1.51229 0
M  V30 2950 C 279.108 -0.121648 2.07043 0
M  V30 2951 C 279.533 -1.35156 1.30823 0
M  V30 2952 O 278.891 -1.7793 0.347934 0
M  V30 2953 C 278.939 -0.41624 3.5819 0
M  V30 2954 O 278.043 -1.50163 3.8409 0
M  V30 2955 H 277.384 0.000871367 0.663999 0
M  V30 2956 H 279.914 0.626706 1.94765 0
M  V30 2957 H 279.924 -0.664867 4.02546 0
M  V30 2958 H 278.599 0.482653 4.1309 0
M  V30 2959 H 277.176 -1.24248 3.51592 0
M  V30 2960 N 279.361 -1.56624 0.175154 0
M  V30 2961 C 280.271 -2.21741 -0.766042 0
M  V30 2962 C 281.287 -1.21023 -1.25018 0
M  V30 2963 O 282.463 -1.53697 -1.3015 0
M  V30 2964 C 279.528 -2.84839 -1.97655 0
M  V30 2965 C 278.589 -4.00769 -1.53892 0
M  V30 2966 C 277.822 -4.60849 -2.69173 0
M  V30 2967 O 278.045 -4.19823 -3.86141 0
M  V30 2968 O 276.979 -5.50655 -2.43028 0
M  V30 2969 H 280.805 -3.02738 -0.241585 0
M  V30 2970 H 278.39 -1.49305 -0.053222 0
M  V30 2971 H 280.272 -3.24834 -2.68442 0
M  V30 2972 H 278.947 -2.06836 -2.48999 0
M  V30 2973 H 277.854 -3.65436 -0.80044 0
M  V30 2974 H 279.187 -4.80376 -1.07236 0
M  V30 2975 N 280.839 0.0985539 -1.57292 0
M  V30 2976 C 281.769 1.12064 -2.04851 0
M  V30 2977 C 282.75 1.41981 -0.936767 0
M  V30 2978 O 283.935 1.52071 -1.20781 0
M  V30 2979 C 281.065 2.44144 -2.47004 0
M  V30 2980 C 280.019 2.28643 -3.6181 0
M  V30 2981 C 279.345 3.65869 -3.89929 0
M  V30 2982 C 280.645 1.72986 -4.92822 0
M  V30 2983 H 282.339 0.724979 -2.9049 0
M  V30 2984 H 279.885 0.34729 -1.39749 0
M  V30 2985 H 281.838 3.15914 -2.78884 0
M  V30 2986 H 280.562 2.85639 -1.5836 0
M  V30 2987 H 279.221 1.59318 -3.30172 0
M  V30 2988 H 278.869 4.04885 -2.98458 0
M  V30 2989 H 278.569 3.56344 -4.67218 0
M  V30 2990 H 280.093 4.39112 -4.2428 0
M  V30 2991 H 281.507 2.34593 -5.23105 0
M  V30 2992 H 279.904 1.74229 -5.74251 0
M  V30 2993 H 280.974 0.689007 -4.7998 0
M  V30 2994 N 282.317 1.53212 0.369288 0
M  V30 2995 C 283.566 1.68436 1.10961 0
M  V30 2996 C 283.879 0.440738 1.9057 0
M  V30 2997 O 285.085 0.473446 2.6734 0
M  V30 2998 C 283.541 2.97744 2.0218 0
M  V30 2999 C 283.149 4.29355 1.279 0
M  V30 3000 C 284.893 3.22334 2.76226 0
M  V30 3001 C 282.8 5.49755 2.17999 0
M  V30 3002 H 281.73 0.627568 0.41794 0
M  V30 3003 H 284.381 1.79713 0.370884 0
M  V30 3004 H 282.763 2.8026 2.79768 0
M  V30 3005 H 283.937 4.57458 0.554007 0
M  V30 3006 H 282.252 4.11179 0.657311 0
M  V30 3007 H 284.849 4.09471 3.43857 0
M  V30 3008 H 285.192 2.38238 3.41392 0
M  V30 3009 H 285.725 3.40475 2.05723 0
M  V30 3010 H 282.464 6.36318 1.57417 0
M  V30 3011 H 281.984 5.25937 2.88359 0
M  V30 3012 H 283.663 5.84401 2.77641 0
M  V30 3013 N 283.795 -0.628877 1.44509 0
M  V30 3014 C 285.043 -1.38565 1.4712 0
M  V30 3015 C 285.364 -1.94712 0.105899 0
M  V30 3016 O 284.634 -1.75912 -0.862079 0
M  V30 3017 H 283.214 -0.514333 0.541729 0
M  V30 3018 H 285.876 -0.740018 1.80305 0
M  V30 3019 H 284.972 -2.21583 2.19789 0
M  V30 3020 N 285.273 -1.31445 -0.869486 0
M  V30 3021 C 286.205 -1.14955 -1.98287 0
M  V30 3022 C 287.218 -0.0885037 -1.62559 0
M  V30 3023 O 288.407 -0.336044 -1.75308 0
M  V30 3024 C 285.507 -0.734255 -3.3085 0
M  V30 3025 C 284.68 -1.88042 -3.94917 0
M  V30 3026 C 283.739 -1.4511 -5.05796 0
M  V30 3027 O 282.765 -2.16082 -5.2659 0
M  V30 3028 N 283.967 -0.338763 -5.79511 0
M  V30 3029 H 286.732 -2.10856 -2.12979 0
M  V30 3030 H 284.293 -1.23786 -1.04349 0
M  V30 3031 H 286.285 -0.42975 -4.02412 0
M  V30 3032 H 284.855 0.133158 -3.12316 0
M  V30 3033 H 284.075 -2.35222 -3.1633 0
M  V30 3034 H 285.363 -2.6481 -4.34457 0
M  V30 3035 H 284.761 0.252274 -5.65137 0
M  V30 3036 H 283.318 -0.0937925 -6.51733 0
M  V30 3037 N 286.751 1.08385 -1.14413 0
M  V30 3038 C 287.998 1.80776 -0.912482 0
M  V30 3039 C 288.326 1.86236 0.560934 0
M  V30 3040 O 287.581 1.33431 1.43159 0
M  V30 3041 C 287.88 3.26273 -1.45879 0
M  V30 3042 C 287.546 3.4093 -2.95089 0
M  V30 3043 C 286.208 3.44638 -3.35824 0
M  V30 3044 C 288.56 3.44591 -3.91033 0
M  V30 3045 C 285.888 3.49597 -4.71167 0
M  V30 3046 C 288.24 3.51086 -5.26233 0
M  V30 3047 C 286.904 3.53067 -5.6648 0
M  V30 3048 H 286.174 0.661507 -0.333901 0
M  V30 3049 H 288.821 1.27613 -1.42784 0
M  V30 3050 H 287.126 3.82146 -0.864376 0
M  V30 3051 H 288.823 3.80839 -1.2555 0
M  V30 3052 H 285.413 3.38736 -2.62594 0
M  V30 3053 H 289.597 3.40957 -3.60641 0
M  V30 3054 H 284.853 3.49424 -5.0171 0
M  V30 3055 H 289.027 3.52864 -6.00383 0
M  V30 3056 H 286.654 3.56662 -6.71339 0
M  V30 3057 N 288.23 0.939286 1.26551 0
M  V30 3058 C 289.478 0.58469 1.93457 0
M  V30 3059 C 289.799 -0.878774 1.74076 0
M  V30 3060 O 289.069 -1.62421 1.09528 0
M  V30 3061 H 287.649 0.21325 0.715914 0
M  V30 3062 H 290.311 1.1942 1.54029 0
M  V30 3063 H 289.407 0.800849 3.0165 0
M  V30 3064 N 289.708 -1.40897 0.706093 0
M  V30 3065 C 290.954 -2.01352 0.241889 0
M  V30 3066 C 291.287 -1.55832 -1.15888 0
M  V30 3067 O 290.562 -0.774145 -1.7843 0
M  V30 3068 C 290.845 -3.58752 0.311311 0
M  V30 3069 C 290.698 -4.1437 1.74978 0
M  V30 3070 C 292.017 -4.38914 -0.322922 0
M  V30 3071 H 289.136 -0.731562 0.0893687 0
M  V30 3072 H 291.778 -1.67504 0.896802 0
M  V30 3073 H 289.928 -3.87718 -0.246302 0
M  V30 3074 H 291.6 -3.96239 2.36205 0
M  V30 3075 H 289.843 -3.69016 2.28057 0
M  V30 3076 H 290.514 -5.23532 1.74981 0
M  V30 3077 H 292.99 -4.15822 0.152089 0
M  V30 3078 H 291.866 -5.48358 -0.243855 0
M  V30 3079 H 292.127 -4.19176 -1.40513 0
M  V30 3080 N 291.186 -0.45159 -1.50991 0
M  V30 3081 C 292.434 0.109857 -2.01801 0
M  V30 3082 C 292.755 1.41958 -1.3369 0
M  V30 3083 O 292.025 1.9003 -0.475951 0
M  V30 3084 H 290.605 0.0435884 -0.745727 0
M  V30 3085 H 293.267 -0.597557 -1.85514 0
M  V30 3086 H 292.363 0.275489 -3.10882 0
M  V30 3087 N 292.664 1.56529 -0.183458 0
M  V30 3088 C 293.911 1.97244 0.458357 0
M  V30 3089 C 294.239 1.06992 1.62428 0
M  V30 3090 O 293.494 0.106542 1.9541 0
M  V30 3091 C 293.793 3.43939 0.971637 0
M  V30 3092 C 293.459 4.5083 -0.0796784 0
M  V30 3093 C 292.121 4.79786 -0.368584 0
M  V30 3094 C 294.473 5.15138 -0.792638 0
M  V30 3095 C 291.801 5.70345 -1.37563 0
M  V30 3096 C 294.153 6.06784 -1.78875 0
M  V30 3097 C 292.817 6.34102 -2.08497 0
M  V30 3098 H 292.087 0.721768 0.167725 0
M  V30 3099 H 294.734 1.89472 -0.277976 0
M  V30 3100 H 293.039 3.48724 1.78602 0
M  V30 3101 H 294.736 3.72791 1.47744 0
M  V30 3102 H 291.326 4.28317 0.155668 0
M  V30 3103 H 295.51 4.92868 -0.582659 0
M  V30 3104 H 290.766 5.89789 -1.61118 0
M  V30 3105 H 294.94 6.55677 -2.3465 0
M  V30 3106 H 292.567 7.04074 -2.86678 0
M  V30 3107 N 294.142 -0.090211 1.57342 0
M  V30 3108 C 295.372 -0.805055 1.90269 0
M  V30 3109 C 295.78 -1.72561 0.775842 0
M  V30 3110 O 295.123 -1.81839 -0.260843 0
M  V30 3111 C 295.185 -1.66734 3.18497 0
M  V30 3112 C 294.849 -0.918092 4.47683 0
M  V30 3113 C 295.846 -0.245674 5.19319 0
M  V30 3114 C 293.531 -0.890724 4.94339 0
M  V30 3115 C 295.525 0.444088 6.35851 0
M  V30 3116 C 293.212 -0.197179 6.10782 0
M  V30 3117 C 294.21 0.469044 6.81388 0
M  V30 3118 O 293.898 1.15146 7.95611 0
M  V30 3119 H 293.63 -0.235143 0.633785 0
M  V30 3120 H 296.184 -0.0703805 2.05279 0
M  V30 3121 H 294.414 -2.44437 2.99646 0
M  V30 3122 H 296.103 -2.25919 3.37217 0
M  V30 3123 H 296.869 -0.258246 4.84312 0
M  V30 3124 H 292.748 -1.39873 4.39268 0
M  V30 3125 H 296.292 0.964667 6.90898 0
M  V30 3126 H 292.189 -0.18247 6.45242 0
M  V30 3127 H 292.957 1.05885 8.11622 0
M  V30 3128 N 295.62 -1.53406 -0.361157 0
M  V30 3129 C 296.845 -1.74024 -1.12829 0
M  V30 3130 C 297.27 -0.470069 -1.82132 0
M  V30 3131 O 296.628 0.57619 -1.719 0
M  V30 3132 C 296.676 -2.90903 -2.13091 0
M  V30 3133 O 295.78 -2.59821 -3.20261 0
M  V30 3134 H 295.121 -0.577804 -0.327168 0
M  V30 3135 H 297.651 -2.00307 -0.41693 0
M  V30 3136 H 297.661 -3.17194 -2.56616 0
M  V30 3137 H 296.336 -3.83034 -1.62042 0
M  V30 3138 H 294.913 -2.44362 -2.81677 0
M  V30 3139 N 297.098 0.621204 -1.44841 0
M  V30 3140 C 298.061 1.71459 -1.521 0
M  V30 3141 C 299.061 1.55696 -0.401933 0
M  V30 3142 O 300.251 1.61011 -0.664925 0
M  V30 3143 C 297.383 3.10624 -1.40447 0
M  V30 3144 H 298.576 1.66394 -2.49506 0
M  V30 3145 H 296.129 0.835745 -1.3208 0
M  V30 3146 H 296.864 3.21277 -0.441737 0
M  V30 3147 H 296.649 3.23473 -2.21602 0
M  V30 3148 H 298.139 3.90293 -1.4853 0
M  V30 3149 N 298.576 1.31904 0.862503 0
M  V30 3150 C 299.823 1.22017 1.61611 0
M  V30 3151 C 300.151 -0.21991 1.93253 0
M  V30 3152 O 299.406 -1.17076 1.56817 0
M  V30 3153 C 299.705 2.01713 2.95037 0
M  V30 3154 C 299.371 3.51145 2.82857 0
M  V30 3155 C 298.033 3.91889 2.79243 0
M  V30 3156 C 300.385 4.46204 2.69353 0
M  V30 3157 C 297.713 5.25947 2.59993 0
M  V30 3158 C 300.065 5.80397 2.5164 0
M  V30 3159 C 298.729 6.20352 2.46413 0
M  V30 3160 H 297.999 0.44649 0.591378 0
M  V30 3161 H 300.646 1.63248 1.00111 0
M  V30 3162 H 298.951 1.53185 3.60613 0
M  V30 3163 H 300.648 1.91437 3.52353 0
M  V30 3164 H 297.238 3.1878 2.86491 0
M  V30 3165 H 301.422 4.15652 2.71196 0
M  V30 3166 H 296.678 5.5597 2.54376 0
M  V30 3167 H 300.852 6.53676 2.40169 0
M  V30 3168 H 298.479 7.24172 2.31256 0
M  V30 3169 N 300.054 -1.07777 1.14986 0
M  V30 3170 C 300.984 -2.16865 0.865557 0
M  V30 3171 C 301.965 -1.69123 -0.182083 0
M  V30 3172 O 303.15 -1.94164 -0.0373815 0
M  V30 3173 C 300.28 -3.45539 0.349313 0
M  V30 3174 C 299.234 -4.06708 1.33313 0
M  V30 3175 C 298.56 -5.30411 0.675918 0
M  V30 3176 C 299.86 -4.47241 2.69764 0
M  V30 3177 H 301.554 -2.40905 1.77778 0
M  V30 3178 H 299.1 -1.15781 0.856203 0
M  V30 3179 H 301.053 -4.21174 0.137983 0
M  V30 3180 H 299.777 -3.21072 -0.598362 0
M  V30 3181 H 298.436 -3.33112 1.53075 0
M  V30 3182 H 298.084 -5.02232 -0.277767 0
M  V30 3183 H 297.784 -5.72293 1.33244 0
M  V30 3184 H 299.308 -6.08755 0.474262 0
M  V30 3185 H 300.722 -5.14025 2.53873 0
M  V30 3186 H 299.119 -5.00062 3.3175 0
M  V30 3187 H 300.189 -3.58818 3.26156 0
M  V30 3188 N 301.532 -0.945985 -1.26051 0
M  V30 3189 C 302.778 -0.597002 -1.93814 0
M  V30 3190 C 303.111 0.862484 -1.73997 0
M  V30 3191 O 302.386 1.61769 -1.07986 0
M  V30 3192 C 302.669 -0.945937 -3.47454 0
M  V30 3193 C 302.522 -2.46052 -3.76535 0
M  V30 3194 C 303.841 -0.464785 -4.37639 0
M  V30 3195 H 300.96 -0.218366 -0.703907 0
M  V30 3196 H 303.602 -1.18107 -1.48831 0
M  V30 3197 H 301.752 -0.448902 -3.85898 0
M  V30 3198 H 303.424 -3.03065 -3.47778 0
M  V30 3199 H 301.667 -2.90194 -3.22444 0
M  V30 3200 H 302.338 -2.65517 -4.83947 0
M  V30 3201 H 304.814 -0.891016 -4.06448 0
M  V30 3202 H 303.69 -0.737712 -5.4392 0
M  V30 3203 H 303.951 0.635274 -4.37512 0
M  V30 3204 N 303.011 1.40521 -0.713556 0
M  V30 3205 C 303.974 2.29098 -0.0684347 0
M  V30 3206 C 304.974 1.45268 0.689472 0
M  V30 3207 O 306.164 1.66205 0.521677 0
M  V30 3208 C 303.296 3.28446 0.913024 0
M  V30 3209 H 304.489 2.87645 -0.84855 0
M  V30 3210 H 302.042 1.48809 -0.47809 0
M  V30 3211 H 302.777 2.74913 1.72027 0
M  V30 3212 H 302.562 3.90327 0.372472 0
M  V30 3213 H 304.052 3.94777 1.36165 0
M  V30 3214 N 304.489 0.459591 1.5075 0
M  V30 3215 C 305.766 -0.160371 1.94941 0
M  V30 3216 C 306.146 -1.58048 1.39943 0
M  V30 3217 O 305.494 -2.206 0.595629 0
M  V30 3218 C 305.704 -0.115432 3.48809 0
M  V30 3219 C 307.052 -0.310026 4.23467 0
M  V30 3220 O 308.076 -0.192543 3.55679 0
M  V30 3221 O 306.935 -0.546031 5.43765 0
M  V30 3222 H 304.029 -0.117925 0.818549 0
M  V30 3223 H 306.575 0.519169 1.61563 0
M  V30 3224 H 305.347 0.87652 3.81357 0
M  V30 3225 H 304.97 -0.836928 3.88692 0
M  V30 3226 N 305.967 -1.56429 0.191757 0
M  V30 3227 C 306.914 -2.18936 -0.730454 0
M  V30 3228 C 307.884 -1.13557 -1.21219 0
M  V30 3229 O 309.069 -1.41794 -1.27668 0
M  V30 3230 C 306.209 -2.85013 -1.9458 0
M  V30 3231 C 305.322 -4.04909 -1.50574 0
M  V30 3232 C 304.457 -4.58853 -2.67634 0
M  V30 3233 C 303.496 -5.71114 -2.20217 0
M  V30 3234 N 302.633 -6.19478 -3.30442 0
M  V30 3235 H 307.473 -2.97389 -0.190664 0
M  V30 3236 H 305.01 -1.46869 -0.0823694 0
M  V30 3237 H 306.968 -3.21492 -2.65893 0
M  V30 3238 H 305.598 -2.09129 -2.45896 0
M  V30 3239 H 304.65 -3.74115 -0.688605 0
M  V30 3240 H 305.962 -4.86113 -1.11784 0
M  V30 3241 H 305.116 -4.97619 -3.47074 0
M  V30 3242 H 303.855 -3.76749 -3.09696 0
M  V30 3243 H 302.86 -5.31879 -1.3923 0
M  V30 3244 H 304.085 -6.55033 -1.79189 0
M  V30 3245 H 302.031 -5.40297 -3.72041 0
M  V30 3246 H 301.948 -6.95725 -2.9581 0
M  V30 3247 H 303.216 -6.62898 -4.10106 0
M  V30 3248 N 307.445 0.0818655 -1.57387 0
M  V30 3249 C 308.691 0.784074 -1.8703 0
M  V30 3250 C 309.024 1.77729 -0.782689 0
M  V30 3251 O 308.299 1.93384 0.208051 0
M  V30 3252 C 308.582 1.50105 -3.27323 0
M  V30 3253 C 308.435 0.524925 -4.46727 0
M  V30 3254 C 309.754 2.44843 -3.65705 0
M  V30 3255 H 306.873 0.283582 -0.680257 0
M  V30 3256 H 309.515 0.0474352 -1.89941 0
M  V30 3257 H 307.665 2.12897 -3.24972 0
M  V30 3258 H 309.337 -0.0970111 -4.61198 0
M  V30 3259 H 307.58 -0.160606 -4.33503 0
M  V30 3260 H 308.251 1.064 -5.41648 0
M  V30 3261 H 310.727 1.92135 -3.69085 0
M  V30 3262 H 309.603 2.92018 -4.64776 0
M  V30 3263 H 309.864 3.29197 -2.95096 0
M  V30 3264 N 308.923 1.53595 0.353017 0
M  V30 3265 C 310.172 1.69603 1.09168 0
M  V30 3266 C 310.485 0.460925 1.90092 0
M  V30 3267 O 311.691 0.501774 2.66823 0
M  V30 3268 C 310.147 2.99872 1.9901 0
M  V30 3269 C 309.755 4.30687 1.23339 0
M  V30 3270 C 311.499 3.25246 2.72792 0
M  V30 3271 C 309.406 5.52036 2.12156 0
M  V30 3272 H 308.336 0.631966 0.411261 0
M  V30 3273 H 310.987 1.80096 0.351802 0
M  V30 3274 H 309.369 2.83212 2.7678 0
M  V30 3275 H 310.543 4.58019 0.505456 0
M  V30 3276 H 308.858 4.11853 0.613663 0
M  V30 3277 H 311.455 4.13095 3.39495 0
M  V30 3278 H 311.798 2.41846 3.38846 0
M  V30 3279 H 312.331 3.42638 2.021 0
M  V30 3280 H 309.07 6.37951 1.50659 0
M  V30 3281 H 308.59 5.28966 2.82764 0
M  V30 3282 H 310.269 5.87313 2.71427 0
M  V30 3283 N 310.401 -0.613514 1.45168 0
M  V30 3284 C 311.647 -1.37471 1.49096 0
M  V30 3285 C 311.98 -1.93765 0.129901 0
M  V30 3286 O 311.255 -1.74707 -0.854858 0
M  V30 3287 C 311.538 -2.52701 2.56542 0
M  V30 3288 C 311.391 -2.01643 4.0207 0
M  V30 3289 C 312.71 -3.54849 2.60327 0
M  V30 3290 H 309.829 -0.498502 0.54283 0
M  V30 3291 H 312.471 -0.692125 1.76945 0
M  V30 3292 H 310.621 -3.10931 2.32926 0
M  V30 3293 H 312.293 -1.48108 4.36877 0
M  V30 3294 H 310.536 -1.32688 4.13009 0
M  V30 3295 H 311.207 -2.84681 4.72928 0
M  V30 3296 H 313.683 -3.0645 2.81474 0
M  V30 3297 H 312.559 -4.32973 3.37381 0
M  V30 3298 H 312.82 -4.10079 1.6519 0
M  V30 3299 N 311.879 -1.3236 -0.855495 0
M  V30 3300 C 313.107 -1.2587 -1.64208 0
M  V30 3301 C 313.522 0.173457 -1.88002 0
M  V30 3302 O 312.879 1.11027 -1.44842 0
M  V30 3303 C 312.93 -2.01424 -3.00184 0
M  V30 3304 O 312.651 -3.39051 -2.77445 0
M  V30 3305 C 314.152 -2.01948 -3.94629 0
M  V30 3306 H 311.372 -0.434318 -0.511477 0
M  V30 3307 H 313.916 -1.74469 -1.0668 0
M  V30 3308 H 312.071 -1.56549 -3.5436 0
M  V30 3309 H 312.485 -3.77711 -3.63916 0
M  V30 3310 H 313.959 -2.59297 -4.87308 0
M  V30 3311 H 314.436 -1.00554 -4.27534 0
M  V30 3312 H 315.042 -2.46767 -3.4639 0
M  V30 3313 N 313.357 1.07166 -1.15556 0
M  V30 3314 C 314.582 1.84053 -0.955988 0
M  V30 3315 C 315.007 1.81586 0.490739 0
M  V30 3316 O 314.365 1.21018 1.34997 0
M  V30 3317 C 314.413 3.28957 -1.47714 0
M  V30 3318 O 313.517 4.06795 -0.677593 0
M  V30 3319 H 312.858 0.569842 -0.340847 0
M  V30 3320 H 315.388 1.35178 -1.53584 0
M  V30 3321 H 315.398 3.79788 -1.4908 0
M  V30 3322 H 314.073 3.30068 -2.53037 0
M  V30 3323 H 312.65 3.6561 -0.733721 0
M  V30 3324 N 314.835 0.952656 1.25548 0
M  V30 3325 C 315.782 0.47008 2.25962 0
M  V30 3326 C 316.752 -0.476384 1.59122 0
M  V30 3327 O 317.937 -0.39007 1.8677 0
M  V30 3328 C 315.077 -0.247881 3.44209 0
M  V30 3329 C 314.19 0.735591 4.25691 0
M  V30 3330 C 313.325 -0.0047306 5.312 0
M  V30 3331 C 312.364 0.969805 6.04368 0
M  V30 3332 N 311.501 0.260486 7.01617 0
M  V30 3333 H 316.341 1.33126 2.66611 0
M  V30 3334 H 313.878 0.66765 1.31076 0
M  V30 3335 H 315.836 -0.680695 4.1161 0
M  V30 3336 H 314.466 -1.07312 3.0444 0
M  V30 3337 H 313.518 1.28689 3.57971 0
M  V30 3338 H 314.83 1.47934 4.76358 0
M  V30 3339 H 313.984 -0.496275 6.04667 0
M  V30 3340 H 312.723 -0.781282 4.81401 0
M  V30 3341 H 311.728 1.47237 5.29718 0
M  V30 3342 H 312.953 1.74655 6.56256 0
M  V30 3343 H 310.899 -0.497364 6.54112 0
M  V30 3344 H 310.816 0.943362 7.50091 0
M  V30 3345 H 312.084 -0.209587 7.79218 0
M  V30 3346 N 316.313 -1.40141 0.720998 0
M  V30 3347 C 317.263 -2.27949 0.0482544 0
M  V30 3348 C 318.247 -1.43538 -0.727021 0
M  V30 3349 O 319.439 -1.6658 -0.598332 0
M  V30 3350 C 316.568 -3.32126 -0.868729 0
M  V30 3351 C 315.654 -4.24008 -0.0883515 0
M  V30 3352 N 316.045 -4.97154 0.931226 0
M  V30 3353 C 314.343 -4.4485 -0.320105 0
M  V30 3354 C 315.044 -5.64587 1.4006 0
M  V30 3355 N 314.02 -5.38787 0.721752 0
M  V30 3356 H 317.822 -2.81948 0.829609 0
M  V30 3357 H 315.336 -1.52656 0.554067 0
M  V30 3358 H 317.333 -3.93884 -1.36605 0
M  V30 3359 H 315.993 -2.79687 -1.6494 0
M  V30 3360 H 317.004 -5.01 1.31222 0
M  V30 3361 H 313.681 -4.03378 -1.07668 0
M  V30 3362 H 315.071 -6.33175 2.24808 0
M  V30 3363 N 317.792 -0.46758 -1.50504 0
M  V30 3364 C 318.74 0.342482 -2.30065 0
M  V30 3365 C 319.734 0.993596 -1.37201 0
M  V30 3366 O 320.94 0.925102 -1.54408 0
M  V30 3367 H 317.315 0.129283 -0.740803 0
M  V30 3368 H 319.286 -0.34899 -2.96352 0
M  V30 3369 C 318.035 1.4139 -3.17654 0
M  V30 3370 H 317.358 0.922264 -3.89017 0
M  V30 3371 H 318.798 1.95335 -3.76325 0
M  V30 3372 C 317.257 2.4139 -2.35016 0
M  V30 3373 O 317.787 3.46586 -2.03079 0
M  V30 3374 N 315.993 2.13021 -1.97662 0
M  V30 3375 H 315.54 1.27499 -2.23834 0
M  V30 3376 H 315.498 2.80164 -1.42673 0
M  V30 3377 N 319.27 1.56325 -0.20005 0
M  V30 3378 C 320.218 2.20666 0.735482 0
M  V30 3379 C 321.212 1.17934 1.21605 0
M  V30 3380 O 322.418 1.36068 1.17837 0
M  V30 3381 H 318.793 0.70725 0.255542 0
M  V30 3382 H 320.764 2.9792 0.169166 0
M  V30 3383 C 319.513 2.88391 1.94232 0
M  V30 3384 H 318.836 3.67185 1.58161 0
M  V30 3385 H 320.276 3.3684 2.57517 0
M  V30 3386 C 318.735 1.89692 2.78421 0
M  V30 3387 O 319.265 1.40032 3.76502 0
M  V30 3388 N 317.471 1.57813 2.44015 0
M  V30 3389 H 317.018 1.9839 1.64314 0
M  V30 3390 H 316.976 0.920325 3.00628 0
M  V30 3391 N 320.748 -0.0735177 1.57428 0
M  V30 3392 C 322.025 -0.805903 1.78226 0
M  V30 3393 C 322.405 -1.95874 0.787189 0
M  V30 3394 O 321.753 -2.2779 -0.180029 0
M  V30 3395 C 321.963 -1.28045 3.24662 0
M  V30 3396 C 323.311 -1.71453 3.88444 0
M  V30 3397 O 324.335 -1.37616 3.28543 0
M  V30 3398 O 323.194 -2.34093 4.93825 0
M  V30 3399 H 320.288 -0.386041 0.73137 0
M  V30 3400 H 322.834 -0.0537269 1.69615 0
M  V30 3401 H 321.606 -0.455476 3.8864 0
M  V30 3402 H 321.229 -2.094 3.37991 0
M  V30 3403 N 322.226 -1.5378 -0.344866 0
M  V30 3404 C 323.454 -1.74899 -1.10534 0
M  V30 3405 C 323.869 -0.487534 -1.82397 0
M  V30 3406 O 323.226 0.540741 -1.74305 0
M  V30 3407 C 323.277 -2.92822 -2.11984 0
M  V30 3408 O 322.998 -4.14089 -1.43044 0
M  V30 3409 C 324.499 -3.25982 -3.00417 0
M  V30 3410 H 321.719 -0.584426 -0.329678 0
M  V30 3411 H 324.263 -2.006 -0.397474 0
M  V30 3412 H 322.418 -2.69457 -2.78338 0
M  V30 3413 H 322.832 -4.80272 -2.10805 0
M  V30 3414 H 324.306 -4.11848 -3.67539 0
M  V30 3415 H 324.783 -2.42228 -3.66363 0
M  V30 3416 H 325.389 -3.51349 -2.39654 0
M  V30 3417 N 323.704 0.605807 -1.45491 0
M  V30 3418 C 324.636 1.73031 -1.5031 0
M  V30 3419 C 325.649 1.57968 -0.393687 0
M  V30 3420 O 326.838 1.65817 -0.660839 0
M  V30 3421 C 323.938 3.11049 -1.34543 0
M  V30 3422 C 323.111 3.52334 -2.59189 0
M  V30 3423 C 322.17 4.69323 -2.37954 0
M  V30 3424 O 321.196 4.7635 -3.11575 0
M  V30 3425 N 322.398 5.62705 -1.4263 0
M  V30 3426 H 325.163 1.6936 -2.4726 0
M  V30 3427 H 322.724 0.79114 -1.41254 0
M  V30 3428 H 324.716 3.87071 -1.18144 0
M  V30 3429 H 323.286 3.09217 -0.458623 0
M  V30 3430 H 322.506 2.66256 -2.90691 0
M  V30 3431 H 323.794 3.76677 -3.42041 0
M  V30 3432 H 323.192 5.59744 -0.818758 0
M  V30 3433 H 321.749 6.38252 -1.32202 0
M  V30 3434 N 325.182 1.32811 0.848464 0
M  V30 3435 C 326.132 1.18842 1.94578 0
M  V30 3436 C 327.116 0.0937517 1.60627 0
M  V30 3437 O 328.308 0.320887 1.74067 0
M  V30 3438 C 325.437 0.91999 3.30743 0
M  V30 3439 C 324.523 2.05665 3.70894 0
M  V30 3440 N 324.914 3.30579 3.8282 0
M  V30 3441 C 323.212 1.9612 4.00566 0
M  V30 3442 C 323.913 4.05067 4.17487 0
M  V30 3443 N 322.889 3.33419 4.2934 0
M  V30 3444 H 326.691 2.13536 2.0194 0
M  V30 3445 H 324.205 1.2468 1.0406 0
M  V30 3446 H 326.202 0.800859 4.09136 0
M  V30 3447 H 324.862 -0.0185076 3.24695 0
M  V30 3448 H 325.873 3.65441 3.66978 0
M  V30 3449 H 322.55 1.09871 4.02784 0
M  V30 3450 H 323.94 5.12815 4.34131 0
M  V30 3451 N 326.66 -1.06551 1.16123 0
M  V30 3452 C 327.909 -1.78687 0.935622 0
M  V30 3453 C 328.222 -1.88056 -0.538001 0
M  V30 3454 O 329.428 -2.56794 -0.88143 0
M  V30 3455 C 327.884 -3.21143 1.62466 0
M  V30 3456 C 327.492 -3.19949 3.13587 0
M  V30 3457 C 329.236 -3.9783 1.48092 0
M  V30 3458 C 327.143 -4.57108 3.75241 0
M  V30 3459 H 326.073 -0.669712 0.346412 0
M  V30 3460 H 328.724 -1.19534 1.39226 0
M  V30 3461 H 327.106 -3.80539 1.09572 0
M  V30 3462 H 328.28 -2.70151 3.73303 0
M  V30 3463 H 326.595 -2.5676 3.27816 0
M  V30 3464 H 329.192 -4.99217 1.91538 0
M  V30 3465 H 329.535 -4.14078 0.429507 0
M  V30 3466 H 330.068 -3.4495 1.98127 0
M  V30 3467 H 326.807 -4.46065 4.80319 0
M  V30 3468 H 326.327 -5.07111 3.20309 0
M  V30 3469 H 328.006 -5.26069 3.76644 0
M  V30 3470 N 328.138 -0.959301 -1.25041 0
M  V30 3471 C 329.384 -0.627096 -1.93492 0
M  V30 3472 C 329.739 0.827484 -1.73696 0
M  V30 3473 O 329.032 1.58651 -1.07427 0
M  V30 3474 C 329.226 -0.927136 -3.45165 0
M  V30 3475 C 329.055 -2.40933 -3.79712 0
M  V30 3476 C 327.825 -3.0677 -4.01522 0
M  V30 3477 C 330.023 -3.38894 -3.86853 0
M  V30 3478 N 328.005 -4.44815 -4.231 0
M  V30 3479 C 329.376 -4.62263 -4.13174 0
M  V30 3480 C 331.431 -3.33668 -3.69554 0
M  V30 3481 C 330.134 -5.81052 -4.23995 0
M  V30 3482 C 332.16 -4.518 -3.81616 0
M  V30 3483 C 331.522 -5.73957 -4.08354 0
M  V30 3484 H 327.621 -0.280166 -0.73009 0
M  V30 3485 H 330.205 -1.23244 -1.50729 0
M  V30 3486 H 328.376 -0.350685 -3.86814 0
M  V30 3487 H 330.108 -0.554361 -4.00885 0
M  V30 3488 H 326.863 -2.57327 -3.97593 0
M  V30 3489 H 327.287 -5.16319 -4.37885 0
M  V30 3490 H 331.929 -2.40268 -3.47895 0
M  V30 3491 H 329.647 -6.74888 -4.44468 0
M  V30 3492 H 333.233 -4.49309 -3.69612 0
M  V30 3493 H 332.113 -6.6384 -4.17475 0
M  V30 3494 N 329.616 1.39756 -0.72842 0
M  V30 3495 C 330.526 2.34444 -0.0855374 0
M  V30 3496 C 331.542 1.57976 0.729356 0
M  V30 3497 O 332.718 1.90301 0.659346 0
M  V30 3498 C 329.783 3.36965 0.815798 0
M  V30 3499 C 328.844 4.29299 -0.0105996 0
M  V30 3500 C 328.077 5.26923 0.84781 0
M  V30 3501 O 328.3 5.30859 2.08673 0
M  V30 3502 O 327.234 6.01249 0.279969 0
M  V30 3503 H 331.06 2.91065 -0.866892 0
M  V30 3504 H 328.645 1.4117 -0.48902 0
M  V30 3505 H 330.527 3.99804 1.33171 0
M  V30 3506 H 329.202 2.82739 1.57608 0
M  V30 3507 H 328.109 3.69703 -0.571877 0
M  V30 3508 H 329.442 4.86712 -0.73295 0
M  V30 3509 N 331.094 0.475555 1.50254 0
M  V30 3510 C 332.319 -0.0777042 2.07254 0
M  V30 3511 C 332.744 -1.3235 1.3366 0
M  V30 3512 O 332.102 -1.77152 0.385597 0
M  V30 3513 C 332.15 -0.340169 3.58992 0
M  V30 3514 O 331.254 -1.41982 3.87188 0
M  V30 3515 H 330.595 0.0149556 0.663832 0
M  V30 3516 H 333.125 0.667878 1.93392 0
M  V30 3517 H 333.135 -0.579332 4.03866 0
M  V30 3518 H 331.81 0.570167 4.11973 0
M  V30 3519 H 330.387 -1.16762 3.54148 0
M  V30 3520 N 332.573 -1.56217 0.208337 0
M  V30 3521 C 333.85 -1.89739 -0.475234 0
M  V30 3522 C 334.23 -1.1238 -1.78701 0
M  V30 3523 O 333.578 -0.228979 -2.2735 0
M  V30 3524 C 333.788 -3.42289 -0.681101 0
M  V30 3525 C 335.136 -4.12789 -0.994507 0
M  V30 3526 O 336.16 -3.47814 -0.768357 0
M  V30 3527 O 335.019 -5.27649 -1.42299 0
M  V30 3528 H 332.113 -0.788478 -0.249461 0
M  V30 3529 H 334.659 -1.67855 0.249538 0
M  V30 3530 H 333.431 -3.90534 0.244722 0
M  V30 3531 H 333.054 -3.69909 -1.45785 0
M  V30 3532 N 334.051 0.0651679 -1.57465 0
M  V30 3533 C 335.276 0.779605 -1.9219 0
M  V30 3534 C 335.701 1.69988 -0.805333 0
M  V30 3535 O 335.059 1.79685 0.241435 0
M  V30 3536 C 335.107 1.54364 -3.2589 0
M  V30 3537 O 334.211 2.65474 -3.1559 0
M  V30 3538 H 333.552 0.212249 -0.629163 0
M  V30 3539 H 336.082 0.0314294 -2.04576 0
M  V30 3540 H 336.092 1.92146 -3.59922 0
M  V30 3541 H 334.767 0.868457 -4.06732 0
M  V30 3542 H 333.344 2.30501 -2.93128 0
M  V30 3543 N 335.529 1.53961 0.336706 0
M  V30 3544 C 336.477 1.83136 1.43401 0
M  V30 3545 C 337.471 0.702313 1.54156 0
M  V30 3546 O 338.677 0.885765 1.56698 0
M  V30 3547 H 335.052 0.580309 0.478273 0
M  V30 3548 H 337.023 2.74925 1.16012 0
M  V30 3549 C 335.772 2.06385 2.79822 0
M  V30 3550 H 335.095 2.92718 2.72316 0
M  V30 3551 H 336.535 2.30761 3.55704 0
M  V30 3552 C 334.994 0.851414 3.25964 0
M  V30 3553 O 335.524 0.0541904 4.01663 0
M  V30 3554 N 333.73 0.66672 2.82848 0
M  V30 3555 H 333.277 1.31665 2.21409 0
M  V30 3556 H 333.235 -0.143032 3.14074 0
M  V30 3557 N 337.007 -0.598083 1.45811 0
M  V30 3558 C 337.917 -1.73632 1.57763 0
M  V30 3559 C 338.933 -1.67763 0.461676 0
M  V30 3560 O 340.109 -1.87949 0.723685 0
M  V30 3561 C 337.174 -3.10114 1.55018 0
M  V30 3562 C 336.235 -3.27364 2.77726 0
M  V30 3563 C 335.468 -4.57334 2.75102 0
M  V30 3564 O 335.691 -5.40258 1.8297 0
M  V30 3565 O 334.625 -4.77502 3.66437 0
M  V30 3566 H 338.451 -1.66498 2.53992 0
M  V30 3567 H 336.036 -0.763308 1.28429 0
M  V30 3568 H 337.918 -3.9141 1.56129 0
M  V30 3569 H 336.593 -3.17718 0.619431 0
M  V30 3570 H 335.5 -2.45619 2.82174 0
M  V30 3571 H 336.833 -3.24641 3.69958 0
M  V30 3572 N 338.485 -1.33259 -0.841409 0
M  V30 3573 C 339.732 -1.24572 -1.5965 0
M  V30 3574 C 340.06 0.189137 -1.93578 0
M  V30 3575 O 339.315 1.14566 -1.5866 0
M  V30 3576 C 339.614 -2.06381 -2.9179 0
M  V30 3577 C 339.28 -3.556 -2.77235 0
M  V30 3578 C 337.942 -3.96282 -2.72973 0
M  V30 3579 C 340.294 -4.50433 -2.62221 0
M  V30 3580 C 337.622 -5.30017 -2.51592 0
M  V30 3581 C 339.974 -5.84327 -2.42374 0
M  V30 3582 C 338.638 -6.24194 -2.36512 0
M  V30 3583 H 337.908 -0.455842 -0.5842 0
M  V30 3584 H 340.555 -1.6482 -0.975016 0
M  V30 3585 H 338.86 -1.58903 -3.5813 0
M  V30 3586 H 340.557 -1.97019 -3.49263 0
M  V30 3587 H 337.147 -3.23298 -2.81384 0
M  V30 3588 H 341.331 -4.19914 -2.64549 0
M  V30 3589 H 336.587 -5.59947 -2.45499 0
M  V30 3590 H 340.761 -6.57414 -2.29739 0
M  V30 3591 H 338.388 -7.27759 -2.19706 0
M  V30 3592 N 339.963 1.05934 -1.16686 0
M  V30 3593 C 341.188 1.83029 -0.975455 0
M  V30 3594 C 341.613 1.82096 0.471452 0
M  V30 3595 O 340.971 1.22443 1.33706 0
M  V30 3596 C 341.019 3.27372 -1.51195 0
M  V30 3597 O 340.123 4.06054 -0.720701 0
M  V30 3598 H 339.464 0.566194 -0.346872 0
M  V30 3599 H 341.994 1.33541 -1.55009 0
M  V30 3600 H 342.004 3.78186 -1.53099 0
M  V30 3601 H 340.679 3.27366 -2.56523 0
M  V30 3602 H 339.256 3.64812 -0.772458 0
M  V30 3603 N 341.441 0.965919 1.2453 0
M  V30 3604 C 342.687 0.62776 1.92839 0
M  V30 3605 C 343.02 -0.834694 1.75347 0
M  V30 3606 O 342.295 -1.60031 1.10546 0
M  V30 3607 C 342.578 1.00109 3.45905 0
M  V30 3608 C 342.431 2.52011 3.72573 0
M  V30 3609 C 343.75 0.53435 4.36844 0
M  V30 3610 H 340.869 0.229537 0.700344 0
M  V30 3611 H 343.511 1.2046 1.46933 0
M  V30 3612 H 341.661 0.510238 3.85135 0
M  V30 3613 H 343.333 3.08559 3.42912 0
M  V30 3614 H 341.576 2.95287 3.17786 0
M  V30 3615 H 342.247 2.73183 4.79661 0
M  V30 3616 H 344.723 0.955565 4.04979 0
M  V30 3617 H 343.599 0.824152 5.42678 0
M  V30 3618 H 343.86 -0.565589 4.38467 0
M  V30 3619 N 342.919 -1.39368 0.735821 0
M  V30 3620 C 344.168 -1.99733 0.281004 0
M  V30 3621 C 344.481 -1.59055 -1.13846 0
M  V30 3622 O 345.687 -2.12262 -1.69284 0
M  V30 3623 C 344.143 -3.57057 0.451462 0
M  V30 3624 C 343.751 -4.06697 1.87886 0
M  V30 3625 C 345.495 -4.2446 0.0584616 0
M  V30 3626 C 343.402 -5.56598 1.99883 0
M  V30 3627 H 342.332 -0.747163 0.101311 0
M  V30 3628 H 344.983 -1.59357 0.909819 0
M  V30 3629 H 343.365 -3.95234 -0.246263 0
M  V30 3630 H 344.539 -3.79853 2.60861 0
M  V30 3631 H 342.854 -3.5196 2.22515 0
M  V30 3632 H 345.451 -5.34549 0.127099 0
M  V30 3633 H 345.794 -4.04444 -0.986433 0
M  V30 3634 H 346.327 -3.9146 0.707374 0
M  V30 3635 H 343.066 -5.81494 3.02564 0
M  V30 3636 H 342.586 -5.85242 1.31346 0
M  V30 3637 H 344.265 -6.22022 1.78039 0
M  V30 3638 N 344.397 -0.483516 -1.5 0
M  V30 3639 C 345.36 0.292965 -2.2732 0
M  V30 3640 C 346.36 0.909499 -1.32608 0
M  V30 3641 O 347.55 0.776745 -1.55924 0
M  V30 3642 C 344.682 1.41854 -3.09984 0
M  V30 3643 H 345.875 -0.385289 -2.97415 0
M  V30 3644 H 343.428 -0.237942 -1.54478 0
M  V30 3645 H 344.163 2.13148 -2.44414 0
M  V30 3646 H 343.948 0.982114 -3.79601 0
M  V30 3647 H 345.438 1.96597 -3.68429 0
M  V30 3648 N 345.875 1.56104 -0.216619 0
M  V30 3649 C 347.152 1.89988 0.465165 0
M  V30 3650 C 347.532 1.13326 1.78102 0
M  V30 3651 O 346.88 0.241033 2.27225 0
M  V30 3652 C 347.09 3.42646 0.662939 0
M  V30 3653 C 348.438 4.13311 0.972602 0
M  V30 3654 O 349.462 3.48217 0.749901 0
M  V30 3655 O 348.321 5.28396 1.39499 0
M  V30 3656 H 345.415 0.78979 0.245276 0
M  V30 3657 H 347.961 1.67721 -0.258436 0
M  V30 3658 H 346.733 3.90399 -0.26543 0
M  V30 3659 H 346.356 3.70677 1.43821 0
M  V30 3660 N 347.353 -0.0568162 1.57498 0
M  V30 3661 C 348.764 -0.606858 1.76562 0
M  V30 3662 C 349.115 -1.77114 0.844094 0
M  V30 3663 O 348.24 -2.16376 0.0318911 0
M  V30 3664 C 348.835 -1.10766 3.20182 0
M  V30 3665 C 347.394 -1.60344 3.40539 0
M  V30 3666 C 346.541 -0.529311 2.72201 0
M  V30 3667 H 349.492 0.169393 1.57793 0
M  V30 3668 H 349.513 -1.97602 3.25167 0
M  V30 3669 H 349.025 -0.26006 3.87228 0
M  V30 3670 H 347.126 -2.47379 2.78629 0
M  V30 3671 H 347.239 -1.67006 4.4905 0
M  V30 3672 H 345.603 -0.977893 2.35179 0
M  V30 3673 H 346.386 0.308352 3.41912 0
M  V30 3674 N 348.832 -1.54138 -0.328536 0
M  V30 3675 C 350.248 -1.44736 -0.672574 0
M  V30 3676 C 350.448 -0.616217 -1.91846 0
M  V30 3677 O 349.504 -0.113067 -2.52247 0
M  V30 3678 C 350.817 -2.884 -0.851217 0
M  V30 3679 C 352.365 -2.98271 -0.948877 0
M  V30 3680 C 352.84 -4.43074 -1.15973 0
M  V30 3681 N 354.331 -4.46665 -1.22658 0
M  V30 3682 C 355.066 -5.55857 -1.40751 0
M  V30 3683 N 354.562 -6.75026 -1.5592 0
M  V30 3684 N 356.355 -5.43495 -1.4342 0
M  V30 3685 H 348.506 -2.06661 0.490421 0
M  V30 3686 H 350.769 -0.934812 0.157579 0
M  V30 3687 H 350.475 -3.51699 -0.00704236 0
M  V30 3688 H 350.349 -3.34225 -1.74853 0
M  V30 3689 H 352.736 -2.35102 -1.78356 0
M  V30 3690 H 352.817 -2.55785 -0.0281435 0
M  V30 3691 H 352.461 -5.06827 -0.329915 0
M  V30 3692 H 352.391 -4.83165 -2.09426 0
M  V30 3693 H 354.882 -3.60797 -1.124 0
M  V30 3694 H 355.195 -7.54004 -1.69404 0
M  V30 3695 H 353.54 -6.77944 -1.53027 0
M  V30 3696 H 356.731 -4.49349 -1.31162 0
M  V30 3697 H 356.904 -6.28649 -1.57178 0
M  V30 3698 N 350.31 0.590341 -1.46126 0
M  V30 3699 C 351.558 1.34616 -1.50742 0
M  V30 3700 C 351.879 1.94363 -0.157486 0
M  V30 3701 O 351.149 1.78136 0.815136 0
M  V30 3702 H 349.729 0.499789 -0.555175 0
M  V30 3703 H 352.391 0.691953 -1.82203 0
M  V30 3704 H 351.487 2.15678 -2.25587 0
M  V30 3705 N 351.788 1.33704 0.83433 0
M  V30 3706 C 352.736 1.24323 1.96587 0
M  V30 3707 C 353.73 0.143659 1.6879 0
M  V30 3708 O 354.936 0.30791 1.77347 0
M  V30 3709 H 351.311 0.385925 0.645419 0
M  V30 3710 H 353.282 2.19978 2.01624 0
M  V30 3711 C 352.031 1.00394 3.32891 0
M  V30 3712 H 351.354 1.84231 3.54822 0
M  V30 3713 H 352.794 0.97862 4.12552 0
M  V30 3714 C 351.253 -0.293047 3.35623 0
M  V30 3715 O 351.783 -1.29823 3.80143 0
M  V30 3716 N 349.989 -0.322174 2.88809 0
M  V30 3717 H 349.536 0.496379 2.52772 0
M  V30 3718 H 349.494 -1.18977 2.91019 0
M  V30 3719 N 353.266 -1.05314 1.17247 0
M  V30 3720 C 354.494 -1.81971 0.984593 0
M  V30 3721 C 354.909 -1.82929 -0.467166 0
M  V30 3722 O 354.266 -1.25564 -1.32438 0
M  V30 3723 C 354.317 -3.28143 1.51672 0
M  V30 3724 O 354.038 -3.27347 2.91163 0
M  V30 3725 C 355.539 -4.21493 1.37326 0
M  V30 3726 H 352.759 -0.573455 0.348411 0
M  V30 3727 H 355.303 -1.32808 1.55506 0
M  V30 3728 H 353.458 -3.74582 0.988302 0
M  V30 3729 H 353.872 -4.18824 3.15732 0
M  V30 3730 H 355.346 -5.22043 1.79375 0
M  V30 3731 H 355.823 -4.38031 0.320169 0
M  V30 3732 H 356.429 -3.80909 1.89178 0
M  V30 3733 N 354.744 -0.972509 -1.24016 0
M  V30 3734 C 355.674 -0.525548 -2.27509 0
M  V30 3735 C 356.655 0.437262 -1.64384 0
M  V30 3736 O 357.84 0.332343 -1.91335 0
M  V30 3737 C 354.97 0.180448 -3.46831 0
M  V30 3738 C 353.924 -0.698859 -4.22256 0
M  V30 3739 C 353.25 0.138903 -5.3452 0
M  V30 3740 C 354.55 -1.98582 -4.83076 0
M  V30 3741 H 356.244 -1.39058 -2.65148 0
M  V30 3742 H 353.79 -0.67009 -1.27459 0
M  V30 3743 H 355.743 0.504387 -4.18371 0
M  V30 3744 H 354.467 1.07987 -3.08231 0
M  V30 3745 H 353.126 -1.00614 -3.52523 0
M  V30 3746 H 352.774 1.03862 -4.9216 0
M  V30 3747 H 352.474 -0.446259 -5.85903 0
M  V30 3748 H 353.998 0.457404 -6.08884 0
M  V30 3749 H 355.412 -1.72715 -5.46665 0
M  V30 3750 H 353.809 -2.5181 -5.44713 0
M  V30 3751 H 354.879 -2.67769 -4.04262 0
M  V30 3752 N 356.222 1.38976 -0.743202 0
M  V30 3753 C 357.47 1.99948 -0.29417 0
M  V30 3754 C 357.791 1.59279 1.12495 0
M  V30 3755 O 357.061 0.844808 1.76748 0
M  V30 3756 H 355.641 0.739473 -0.105774 0
M  V30 3757 H 358.303 1.699 -0.954986 0
M  V30 3758 H 357.399 3.10142 -0.349056 0
M  V30 3759 N 357.7 0.491464 1.49741 0
M  V30 3760 C 359.116 0.146835 1.58923 0
M  V30 3761 C 359.316 -1.34804 1.49767 0
M  V30 3762 O 358.372 -2.12317 1.36667 0
M  V30 3763 C 359.685 0.715157 2.92072 0
M  V30 3764 C 361.233 0.680407 3.05515 0
M  V30 3765 C 361.708 1.22663 4.41269 0
M  V30 3766 N 363.199 1.18691 4.47735 0
M  V30 3767 C 363.934 1.57984 5.51207 0
M  V30 3768 N 363.43 2.04824 6.6183 0
M  V30 3769 N 365.223 1.49459 5.41866 0
M  V30 3770 H 357.374 1.46347 1.53936 0
M  V30 3771 H 359.637 0.606453 0.728642 0
M  V30 3772 H 359.343 1.76317 3.04311 0
M  V30 3773 H 359.217 0.17018 3.76816 0
M  V30 3774 H 361.604 -0.358743 2.92911 0
M  V30 3775 H 361.685 1.26242 2.22478 0
M  V30 3776 H 361.329 2.26451 4.54623 0
M  V30 3777 H 361.259 0.620637 5.2293 0
M  V30 3778 H 363.75 0.843605 3.68364 0
M  V30 3779 H 364.063 2.32901 7.3687 0
M  V30 3780 H 362.408 2.08791 6.62896 0
M  V30 3781 H 365.599 1.12692 4.54333 0
M  V30 3782 H 365.772 1.80406 6.22381 0
M  V30 3783 N 359.178 -1.55987 0.224894 0
M  V30 3784 C 360.426 -1.97998 -0.405099 0
M  V30 3785 C 360.747 -1.11387 -1.60056 0
M  V30 3786 O 360.017 -0.191645 -1.9496 0
M  V30 3787 H 358.597 -0.731235 -0.152658 0
M  V30 3788 H 361.259 -1.92279 0.318567 0
M  V30 3789 H 360.355 -3.03463 -0.729167 0
M  V30 3790 N 360.656 0.0484629 -1.57525 0
M  V30 3791 C 361.884 0.755421 -1.92616 0
M  V30 3792 C 362.299 1.69919 -0.822984 0
M  V30 3793 O 361.656 1.81378 0.202085 0
M  V30 3794 C 361.707 1.52915 -3.27566 0
M  V30 3795 O 361.428 0.62329 -4.33644 0
M  V30 3796 C 362.929 2.33502 -3.76818 0
M  V30 3797 H 360.149 0.213465 -0.63614 0
M  V30 3798 H 362.693 0.0117698 -2.04497 0
M  V30 3799 H 360.848 2.22486 -3.17142 0
M  V30 3800 H 361.262 1.16383 -5.11425 0
M  V30 3801 H 362.736 2.83214 -4.73808 0
M  V30 3802 H 363.213 3.14068 -3.07014 0
M  V30 3803 H 363.819 1.69043 -3.90262 0
M  V30 3804 N 362.134 1.5431 0.320358 0
M  V30 3805 C 363.362 1.76636 1.07738 0
M  V30 3806 C 363.777 0.51649 1.81598 0
M  V30 3807 O 363.134 -0.512942 1.75143 0
M  V30 3808 C 363.185 2.96158 2.07299 0
M  V30 3809 O 362.906 4.16313 1.36438 0
M  V30 3810 C 364.407 3.3072 2.95193 0
M  V30 3811 H 361.627 0.589597 0.320339 0
M  V30 3812 H 364.171 2.01207 0.36551 0
M  V30 3813 H 362.326 2.73851 2.74016 0
M  V30 3814 H 362.74 4.83565 2.03138 0
M  V30 3815 H 364.214 4.17643 3.60941 0
M  V30 3816 H 364.691 2.48026 3.62463 0
M  V30 3817 H 365.297 3.55117 2.34034 0
M  V30 3818 N 363.613 -0.582584 1.46437 0
M  V30 3819 C 364.862 -1.337 1.5102 0
M  V30 3820 C 365.175 -1.94891 0.166359 0
M  V30 3821 O 366.381 -2.71351 0.0899954 0
M  V30 3822 C 364.837 -2.42315 2.66104 0
M  V30 3823 C 364.445 -1.87427 4.06909 0
M  V30 3824 C 366.189 -3.19099 2.79958 0
M  V30 3825 C 364.096 -2.93672 5.13333 0
M  V30 3826 H 363.026 -0.502619 0.562041 0
M  V30 3827 H 365.677 -0.621701 1.72647 0
M  V30 3828 H 364.059 -3.16645 2.37807 0
M  V30 3829 H 365.233 -1.19639 4.44998 0
M  V30 3830 H 363.548 -1.2331 3.97723 0
M  V30 3831 H 366.145 -3.9839 3.56636 0
M  V30 3832 H 366.488 -3.71695 1.87479 0
M  V30 3833 H 367.021 -2.51875 3.07902 0
M  V30 3834 H 363.76 -2.45962 6.07604 0
M  V30 3835 H 363.28 -3.59948 4.79789 0
M  V30 3836 H 364.959 -3.5762 5.39182 0
M  V30 3837 N 365.091 -1.34144 -0.827227 0
M  V30 3838 C 366.319 -1.29325 -1.61501 0
M  V30 3839 C 366.734 0.13354 -1.88327 0
M  V30 3840 O 366.091 1.0793 -1.47164 0
M  V30 3841 C 366.142 -2.07746 -2.95844 0
M  V30 3842 O 365.863 -3.4486 -2.70191 0
M  V30 3843 C 367.364 -2.10273 -3.90256 0
M  V30 3844 H 364.584 -0.445069 -0.50215 0
M  V30 3845 H 367.128 -1.76693 -1.02955 0
M  V30 3846 H 365.283 -1.6403 -3.5096 0
M  V30 3847 H 365.697 -3.85345 -3.55822 0
M  V30 3848 H 367.171 -2.69575 -4.81698 0
M  V30 3849 H 367.648 -1.096 -4.25305 0
M  V30 3850 H 368.254 -2.54059 -3.41078 0
M  V30 3851 N 366.569 1.04691 -1.17803 0
M  V30 3852 C 367.499 2.14494 -0.92275 0
M  V30 3853 C 368.48 1.69546 0.137179 0
M  V30 3854 O 369.665 1.94195 -0.0141108 0
M  V30 3855 C 366.795 3.44491 -0.440803 0
M  V30 3856 C 365.749 4.03031 -1.4405 0
M  V30 3857 C 365.075 5.28432 -0.81631 0
M  V30 3858 C 366.375 4.39932 -2.81527 0
M  V30 3859 H 368.069 2.36107 -1.84103 0
M  V30 3860 H 365.615 1.1347 -0.886599 0
M  V30 3861 H 367.568 4.2066 -0.249602 0
M  V30 3862 H 366.292 3.22546 0.513025 0
M  V30 3863 H 364.951 3.28937 -1.61853 0
M  V30 3864 H 364.599 5.02792 0.144511 0
M  V30 3865 H 364.299 5.68559 -1.48371 0
M  V30 3866 H 365.823 6.07284 -0.635496 0
M  V30 3867 H 367.237 5.07113 -2.67412 0
M  V30 3868 H 365.634 4.9109 -3.44892 0
M  V30 3869 H 366.704 3.50045 -3.35554 0
M  V30 3870 N 368.047 0.979072 1.23499 0
M  V30 3871 C 369.293 0.648178 1.92163 0
M  V30 3872 C 369.626 -0.816049 1.76222 0
M  V30 3873 O 368.901 -1.58849 1.12237 0
M  V30 3874 C 369.184 1.03773 3.44824 0
M  V30 3875 C 369.037 2.55948 3.69879 0
M  V30 3876 C 370.356 0.580653 4.36253 0
M  V30 3877 H 367.475 0.236952 0.69787 0
M  V30 3878 H 370.117 1.22012 1.45647 0
M  V30 3879 H 368.267 0.551058 3.84572 0
M  V30 3880 H 369.939 3.12179 3.3962 0
M  V30 3881 H 368.182 2.98641 3.14636 0
M  V30 3882 H 368.853 2.78255 4.76737 0
M  V30 3883 H 371.329 0.998465 4.03943 0
M  V30 3884 H 370.205 0.881663 5.41773 0
M  V30 3885 H 370.466 -0.519052 4.39042 0
M  V30 3886 N 369.525 -1.3858 0.750561 0
M  V30 3887 C 370.455 -2.33102 0.136237 0
M  V30 3888 C 371.436 -1.54713 -0.706965 0
M  V30 3889 O 372.621 -1.83043 -0.648769 0
M  V30 3890 C 369.751 -3.38882 -0.760017 0
M  V30 3891 C 368.705 -4.27995 -0.0197785 0
M  V30 3892 C 368.031 -5.24605 -1.03408 0
M  V30 3893 C 369.331 -5.09554 1.14684 0
M  V30 3894 H 371.025 -2.84726 0.925822 0
M  V30 3895 H 368.571 -1.36898 0.446654 0
M  V30 3896 H 370.524 -4.0397 -1.19943 0
M  V30 3897 H 369.248 -2.85734 -1.58189 0
M  V30 3898 H 367.907 -3.64409 0.400184 0
M  V30 3899 H 367.555 -4.67746 -1.84994 0
M  V30 3900 H 367.255 -5.85081 -0.543464 0
M  V30 3901 H 368.779 -5.9257 -1.47288 0
M  V30 3902 H 370.193 -5.67899 0.785118 0
M  V30 3903 H 368.59 -5.7925 1.56812 0
M  V30 3904 H 369.66 -4.4347 1.96118 0
M  V30 3905 N 371.003 -0.499398 -1.49478 0
M  V30 3906 C 371.95 0.279881 -2.29097 0
M  V30 3907 C 372.92 0.961805 -1.3542 0
M  V30 3908 O 374.105 0.968777 -1.64376 0
M  V30 3909 C 371.245 1.33932 -3.18051 0
M  V30 3910 C 370.358 0.669333 -4.26783 0
M  V30 3911 C 369.493 1.70907 -5.02955 0
M  V30 3912 C 368.532 1.02087 -6.03527 0
M  V30 3913 N 367.669 2.00474 -6.7287 0
M  V30 3914 H 372.509 -0.405317 -2.95231 0
M  V30 3915 H 370.046 -0.211726 -1.45568 0
M  V30 3916 H 372.004 1.96553 -3.67998 0
M  V30 3917 H 370.634 1.9933 -2.53904 0
M  V30 3918 H 369.686 -0.0701234 -3.80335 0
M  V30 3919 H 370.998 0.127503 -4.98637 0
M  V30 3920 H 370.152 2.41037 -5.56764 0
M  V30 3921 H 368.891 2.28476 -4.30871 0
M  V30 3922 H 367.896 0.305338 -5.48951 0
M  V30 3923 H 369.121 0.451708 -6.77596 0
M  V30 3924 H 367.067 2.57007 -6.03559 0
M  V30 3925 H 366.984 1.51353 -7.40694 0
M  V30 3926 H 368.252 2.69897 -7.31284 0
M  V30 3927 N 372.481 1.55866 -0.233164 0
M  V30 3928 C 373.391 2.24431 0.683217 0
M  V30 3929 C 374.407 1.2558 1.2044 0
M  V30 3930 O 375.583 1.58422 1.24356 0
M  V30 3931 C 372.648 2.91979 1.86947 0
M  V30 3932 C 371.709 4.06204 1.38912 0
M  V30 3933 C 370.942 4.70522 2.51883 0
M  V30 3934 O 371.165 4.33865 3.70293 0
M  V30 3935 O 370.099 5.59296 2.22423 0
M  V30 3936 H 373.925 3.03426 0.129059 0
M  V30 3937 H 371.51 1.494 -0.0022283 0
M  V30 3938 H 373.392 3.34573 2.56201 0
M  V30 3939 H 372.067 2.15935 2.41151 0
M  V30 3940 H 370.974 3.68155 0.664259 0
M  V30 3941 H 372.307 4.84025 0.893328 0
M  V30 3942 N 373.959 -0.0401083 1.57549 0
M  V30 3943 C 374.869 -1.06133 2.0922 0
M  V30 3944 C 375.885 -1.40356 1.0284 0
M  V30 3945 O 377.061 -1.49897 1.34509 0
M  V30 3946 C 374.126 -2.34658 2.55218 0
M  V30 3947 C 373.187 -2.07117 3.76033 0
M  V30 3948 C 372.42 -3.29514 4.19829 0
M  V30 3949 O 372.643 -4.39794 3.63232 0
M  V30 3950 O 371.577 -3.15863 5.12362 0
M  V30 3951 H 375.403 -0.652244 2.96613 0
M  V30 3952 H 372.988 -0.256368 1.47184 0
M  V30 3953 H 374.87 -3.10239 2.85184 0
M  V30 3954 H 373.545 -2.74883 1.70941 0
M  V30 3955 H 372.452 -1.29139 3.51104 0
M  V30 3956 H 373.785 -1.71754 4.61261 0
M  V30 3957 N 375.437 -1.54477 -0.31217 0
M  V30 3958 C 376.4 -1.83923 -1.36766 0
M  V30 3959 C 377.4 -0.711563 -1.44199 0
M  V30 3960 O 378.59 -0.979866 -1.44029 0
M  V30 3961 C 375.722 -2.0095 -2.75376 0
M  V30 3962 H 376.915 -2.78239 -1.11906 0
M  V30 3963 H 374.468 -1.46369 -0.548257 0
M  V30 3964 H 375.203 -1.08883 -3.05475 0
M  V30 3965 H 374.988 -2.83018 -2.71373 0
M  V30 3966 H 376.478 -2.2514 -3.51713 0
M  V30 3967 N 376.915 0.57481 -1.46744 0
M  V30 3968 C 378.14 1.36341 -1.56288 0
M  V30 3969 C 378.565 1.86954 -0.207347 0
M  V30 3970 O 377.923 1.62006 0.813871 0
M  V30 3971 C 377.971 2.52147 -2.57787 0
M  V30 3972 O 377.075 3.53834 -2.11838 0
M  V30 3973 H 376.416 0.405713 -0.525636 0
M  V30 3974 H 378.946 0.696453 -1.92382 0
M  V30 3975 H 378.956 2.98958 -2.77648 0
M  V30 3976 H 377.631 2.14663 -3.5622 0
M  V30 3977 H 376.208 3.1345 -2.01999 0
M  V30 3978 N 378.394 1.34581 0.820102 0
M  V30 3979 C 379.671 1.17675 1.56244 0
M  V30 3980 C 380.051 -0.249541 2.0962 0
M  V30 3981 O 379.399 -1.25125 1.91196 0
M  V30 3982 C 379.609 2.23364 2.6816 0
M  V30 3983 C 380.957 2.58485 3.36854 0
M  V30 3984 O 381.981 2.22175 2.78418 0
M  V30 3985 O 380.84 3.20868 4.42386 0
M  V30 3986 H 377.934 0.456333 0.689702 0
M  V30 3987 H 380.48 1.46222 0.861231 0
M  V30 3988 H 379.252 3.19087 2.26493 0
M  V30 3989 H 378.875 1.96009 3.45928 0
M  V30 3990 N 379.872 -1.04064 1.18357 0
M  V30 3991 C 381.102 -1.80654 1.00238 0
M  V30 3992 C 381.51 -1.83713 -0.452362 0
M  V30 3993 O 380.853 -1.27135 -1.32599 0
M  V30 3994 C 380.915 -3.27582 1.48088 0
M  V30 3995 C 380.579 -3.48184 2.96002 0
M  V30 3996 C 381.576 -3.39372 3.93856 0
M  V30 3997 C 379.261 -3.7478 3.34433 0
M  V30 3998 C 381.255 -3.5686 5.28138 0
M  V30 3999 C 378.942 -3.91915 4.68877 0
M  V30 4000 C 379.94 -3.82956 5.65539 0
M  V30 4001 O 379.628 -3.996 6.97549 0
M  V30 4002 H 379.36 -0.575751 0.354241 0
M  V30 4003 H 381.914 -1.32044 1.57333 0
M  V30 4004 H 380.144 -3.77161 0.853588 0
M  V30 4005 H 381.833 -3.8573 1.2636 0
M  V30 4006 H 382.599 -3.18789 3.65511 0
M  V30 4007 H 378.478 -3.80852 2.59756 0
M  V30 4008 H 382.022 -3.49783 6.03571 0
M  V30 4009 H 377.919 -4.11992 4.96923 0
M  V30 4010 H 378.687 -4.1676 7.04452 0
M  V30 4011 N 381.35 -0.985608 -1.22978 0
M  V30 4012 C 382.28 -0.549649 -2.26939 0
M  V30 4013 C 383.261 0.419803 -1.64838 0
M  V30 4014 O 384.446 0.31203 -1.91677 0
M  V30 4015 C 381.576 0.143652 -3.47003 0
M  V30 4016 C 380.53 -0.743606 -4.21491 0
M  V30 4017 C 379.856 0.0822027 -5.34637 0
M  V30 4018 C 381.156 -2.03694 -4.80943 0
M  V30 4019 H 382.85 -1.41862 -2.63658 0
M  V30 4020 H 380.396 -0.683571 -1.26741 0
M  V30 4021 H 382.349 0.459985 -4.18882 0
M  V30 4022 H 381.073 1.04711 -3.09359 0
M  V30 4023 H 379.732 -1.04347 -3.51436 0
M  V30 4024 H 379.38 0.986359 -4.93234 0
M  V30 4025 H 379.08 -0.508377 -5.85397 0
M  V30 4026 H 380.604 0.392797 -6.09335 0
M  V30 4027 H 382.018 -1.78504 -5.44802 0
M  V30 4028 H 380.415 -2.57573 -5.42011 0
M  V30 4029 H 381.485 -2.72042 -4.01399 0
M  V30 4030 N 382.828 1.3818 -0.7579 0
M  V30 4031 C 383.738 2.3421 -0.135247 0
M  V30 4032 C 384.754 1.59487 0.695683 0
M  V30 4033 O 385.93 1.91657 0.618832 0
M  V30 4034 C 382.995 3.3862 0.744139 0
M  V30 4035 C 382.056 4.2918 -0.101658 0
M  V30 4036 C 381.289 5.28603 0.735851 0
M  V30 4037 O 381.512 5.35166 1.97366 0
M  V30 4038 O 380.446 6.01707 0.152372 0
M  V30 4039 H 384.272 2.8916 -0.928436 0
M  V30 4040 H 381.857 1.40101 -0.518855 0
M  V30 4041 H 383.739 4.02539 1.2466 0
M  V30 4042 H 382.414 2.86019 1.51575 0
M  V30 4043 H 381.321 3.68407 -0.650167 0
M  V30 4044 H 382.654 4.85048 -0.836024 0
M  V30 4045 N 384.306 0.507319 1.49211 0
M  V30 4046 C 385.236 -0.256939 2.32082 0
M  V30 4047 C 386.217 -0.956609 1.40652 0
M  V30 4048 O 387.402 -0.946788 1.69557 0
M  V30 4049 C 384.532 -1.31802 3.21318 0
M  V30 4050 C 383.486 -0.737855 4.21592 0
M  V30 4051 C 382.812 -1.89992 4.99807 0
M  V30 4052 C 384.112 0.275325 5.21574 0
M  V30 4053 H 385.806 0.434798 2.96226 0
M  V30 4054 H 383.352 0.210546 1.42452 0
M  V30 4055 H 385.305 -1.86045 3.78107 0
M  V30 4056 H 384.029 -2.03903 2.5513 0
M  V30 4057 H 382.688 -0.217126 3.65956 0
M  V30 4058 H 382.336 -2.60877 4.30061 0
M  V30 4059 H 382.036 -1.51777 5.6766 0
M  V30 4060 H 383.56 -2.44657 5.59442 0
M  V30 4061 H 384.974 -0.179193 5.7302 0
M  V30 4062 H 383.371 0.573649 5.97352 0
M  V30 4063 H 384.441 1.18903 4.70096 0
M  V30 4064 N 385.784 -1.5574 0.241426 0
M  V30 4065 C 387.061 -1.90704 -0.434881 0
M  V30 4066 C 387.441 -1.16145 -1.76277 0
M  V30 4067 O 386.789 -0.277152 -2.26813 0
M  V30 4068 C 386.999 -3.43657 -0.608343 0
M  V30 4069 C 388.347 -4.14806 -0.906725 0
M  V30 4070 O 389.371 -3.49366 -0.694408 0
M  V30 4071 O 388.23 -5.30548 -1.31075 0
M  V30 4072 H 385.324 -0.793592 -0.23268 0
M  V30 4073 H 387.87 -1.67288 0.285086 0
M  V30 4074 H 386.642 -3.89927 0.327505 0
M  V30 4075 H 386.265 -3.72918 -1.37906 0
M  V30 4076 N 387.262 0.0317525 -1.57568 0
M  V30 4077 C 388.49 0.734949 -1.93407 0
M  V30 4078 C 388.905 1.69036 -0.84096 0
M  V30 4079 O 388.262 1.81582 0.182836 0
M  V30 4080 C 388.313 1.49432 -3.29169 0
M  V30 4081 O 388.034 0.577261 -4.3428 0
M  V30 4082 C 389.535 2.29492 -3.79273 0
M  V30 4083 H 386.755 0.206706 -0.638368 0
M  V30 4084 H 389.299 -0.00992046 -2.04498 0
M  V30 4085 H 387.454 2.1911 -3.19483 0
M  V30 4086 H 387.868 1.10952 -5.1263 0
M  V30 4087 H 389.342 2.78172 -4.76785 0
M  V30 4088 H 389.819 3.10794 -3.10328 0
M  V30 4089 H 390.425 1.64894 -3.92033 0
M  V30 4090 N 388.74 1.54641 0.303973 0
M  V30 4091 C 389.989 1.7299 1.03717 0
M  V30 4092 C 390.302 0.521168 1.88529 0
M  V30 4093 O 391.508 0.586408 2.65092 0
M  V30 4094 C 389.964 3.06051 1.89369 0
M  V30 4095 C 389.572 4.34393 1.09574 0
M  V30 4096 C 391.316 3.3376 2.62306 0
M  V30 4097 C 389.223 5.58506 1.94486 0
M  V30 4098 H 388.153 0.64473 0.390947 0
M  V30 4099 H 390.804 1.81124 0.294328 0
M  V30 4100 H 389.186 2.91874 2.67629 0
M  V30 4101 H 390.36 4.59396 0.359485 0
M  V30 4102 H 388.675 4.13597 0.482324 0
M  V30 4103 H 391.272 4.23687 3.26181 0
M  V30 4104 H 391.615 2.52503 3.3098 0
M  V30 4105 H 392.148 3.48894 1.91097 0
M  V30 4106 H 388.887 6.42422 1.30287 0
M  V30 4107 H 388.407 5.37694 2.65792 0
M  V30 4108 H 390.086 5.95651 2.52605 0
M  V30 4109 N 390.218 -0.567019 1.47046 0
M  V30 4110 C 391.165 -1.67489 1.58796 0
M  V30 4111 C 392.135 -1.60399 0.43144 0
M  V30 4112 O 393.32 -1.79378 0.650233 0
M  V30 4113 C 390.46 -3.05821 1.59899 0
M  V30 4114 C 389.573 -3.2342 2.86397 0
M  V30 4115 C 388.708 -4.52093 2.789 0
M  V30 4116 C 387.747 -4.6309 4.00267 0
M  V30 4117 N 386.884 -5.83106 3.91064 0
M  V30 4118 H 391.724 -1.56785 2.53422 0
M  V30 4119 H 389.261 -0.763896 1.2571 0
M  V30 4120 H 391.219 -3.8591 1.58522 0
M  V30 4121 H 389.849 -3.15384 0.687929 0
M  V30 4122 H 388.901 -2.3683 2.97684 0
M  V30 4123 H 390.213 -3.27412 3.76301 0
M  V30 4124 H 389.367 -5.4043 2.75718 0
M  V30 4125 H 388.106 -4.50565 1.86662 0
M  V30 4126 H 387.111 -3.73168 4.03765 0
M  V30 4127 H 388.336 -4.66386 4.93621 0
M  V30 4128 H 386.282 -5.82546 3.01623 0
M  V30 4129 H 386.199 -5.88434 4.74638 0
M  V30 4130 H 387.467 -6.73831 3.91882 0
M  V30 4131 N 391.696 -1.35014 -0.812953 0
M  V30 4132 C 392.644 -1.27435 -1.94585 0
M  V30 4133 C 393.638 -0.170494 -1.6854 0
M  V30 4134 O 394.844 -0.336085 -1.76835 0
M  V30 4135 H 391.219 -0.396144 -0.639198 0
M  V30 4136 H 393.19 -2.23158 -1.98098 0
M  V30 4137 C 391.939 -1.05677 -3.31252 0
M  V30 4138 H 391.262 -1.89853 -3.51846 0
M  V30 4139 H 392.702 -1.04413 -4.10943 0
M  V30 4140 C 391.161 0.239615 -3.36047 0
M  V30 4141 O 391.691 1.23759 -3.8216 0
M  V30 4142 N 389.897 0.276186 -2.89285 0
M  V30 4143 H 389.444 -0.53653 -2.51951 0
M  V30 4144 H 389.402 1.14332 -2.92875 0
M  V30 4145 N 393.175 1.03435 -1.18907 0
M  V30 4146 C 394.105 2.13503 -0.945448 0
M  V30 4147 C 395.086 1.69682 0.119189 0
M  V30 4148 O 396.271 1.94169 -0.034707 0
M  V30 4149 C 393.401 3.44004 -0.477316 0
M  V30 4150 C 392.355 4.0148 -1.48316 0
M  V30 4151 C 391.681 5.27537 -0.872311 0
M  V30 4152 C 392.981 4.36921 -2.86177 0
M  V30 4153 H 394.675 2.34141 -1.86597 0
M  V30 4154 H 392.221 1.12523 -0.898584 0
M  V30 4155 H 394.174 4.20372 -0.294204 0
M  V30 4156 H 392.898 3.23072 0.478786 0
M  V30 4157 H 391.557 3.27201 -1.65332 0
M  V30 4158 H 391.205 5.02917 0.0911752 0
M  V30 4159 H 390.905 5.66954 -1.54393 0
M  V30 4160 H 392.429 6.06576 -0.699871 0
M  V30 4161 H 393.843 5.04248 -2.72776 0
M  V30 4162 H 392.24 4.87405 -3.50081 0
M  V30 4163 H 393.31 3.46466 -3.39248 0
M  V30 4164 N 394.653 0.992116 1.22453 0
M  V30 4165 C 395.899 0.668523 1.91464 0
M  V30 4166 C 396.232 -0.797313 1.77078 0
M  V30 4167 O 395.507 -1.5765 1.13916 0
M  V30 4168 C 395.79 1.07424 3.43703 0
M  V30 4169 C 395.643 2.59857 3.67143 0
M  V30 4170 C 396.962 0.626891 4.35612 0
M  V30 4171 H 394.081 0.244341 0.695318 0
M  V30 4172 H 396.723 1.2355 1.44345 0
M  V30 4173 H 394.873 0.591816 3.83966 0
M  V30 4174 H 396.545 3.15764 3.3629 0
M  V30 4175 H 394.788 3.01961 3.11451 0
M  V30 4176 H 395.459 2.83296 4.73759 0
M  V30 4177 H 397.935 1.04125 4.02861 0
M  V30 4178 H 396.811 0.939076 5.40807 0
M  V30 4179 H 397.072 -0.472457 4.39568 0
M  V30 4180 N 396.131 -1.37776 0.765217 0
M  V30 4181 C 397.078 -2.30342 0.145274 0
M  V30 4182 C 398.048 -1.5077 -0.696971 0
M  V30 4183 O 399.233 -1.79362 -0.650689 0
M  V30 4184 C 396.373 -3.37227 -0.732939 0
M  V30 4185 C 395.486 -4.31819 0.125199 0
M  V30 4186 C 394.621 -5.25777 -0.757107 0
M  V30 4187 C 393.66 -6.12012 0.103963 0
M  V30 4188 N 392.797 -6.98232 -0.735953 0
M  V30 4189 H 397.637 -2.8278 0.940195 0
M  V30 4190 H 395.174 -1.39211 0.475255 0
M  V30 4191 H 397.132 -3.97818 -1.25686 0
M  V30 4192 H 395.762 -2.86171 -1.49353 0
M  V30 4193 H 394.814 -3.7259 0.766865 0
M  V30 4194 H 396.126 -4.92509 0.789683 0
M  V30 4195 H 395.28 -5.91541 -1.34776 0
M  V30 4196 H 394.019 -4.65481 -1.45529 0
M  V30 4197 H 393.024 -5.45233 0.707197 0
M  V30 4198 H 394.249 -6.74379 0.799381 0
M  V30 4199 H 392.195 -6.40472 -1.41887 0
M  V30 4200 H 392.112 -7.55891 -0.128624 0
M  V30 4201 H 393.38 -7.68393 -1.31121 0
M  V30 4202 N 397.609 -0.515225 -1.4894 0
M  V30 4203 C 398.556 0.255567 -2.29381 0
M  V30 4204 C 399.526 0.947387 -1.36432 0
M  V30 4205 O 400.711 0.951288 -1.65394 0
M  V30 4206 C 397.851 1.30551 -3.19453 0
M  V30 4207 C 396.964 0.624029 -4.27469 0
M  V30 4208 C 396.099 1.65563 -5.0474 0
M  V30 4209 C 395.138 0.956802 -6.04576 0
M  V30 4210 N 394.275 1.93326 -6.74959 0
M  V30 4211 H 399.115 -0.436607 -2.94784 0
M  V30 4212 H 396.652 -0.227154 -1.45336 0
M  V30 4213 H 398.61 1.92639 -3.70062 0
M  V30 4214 H 397.24 1.96626 -2.56004 0
M  V30 4215 H 396.292 -0.110459 -3.8024 0
M  V30 4216 H 397.604 0.0746092 -4.98744 0
M  V30 4217 H 396.758 2.35119 -5.59289 0
M  V30 4218 H 395.497 2.23893 -4.3327 0
M  V30 4219 H 394.502 0.247097 -5.49244 0
M  V30 4220 H 395.727 0.379814 -6.78037 0
M  V30 4221 H 393.673 2.50591 -6.06251 0
M  V30 4222 H 393.59 1.43489 -7.42258 0
M  V30 4223 H 394.858 2.62126 -7.34105 0
M  V30 4224 N 399.087 1.5561 -0.249682 0
M  V30 4225 C 400.317 2.03116 0.377803 0
M  V30 4226 C 400.725 1.12822 1.51881 0
M  V30 4227 O 400.068 0.13562 1.83199 0
M  V30 4228 C 400.13 3.46866 0.944693 0
M  V30 4229 C 399.794 4.56955 -0.0644259 0
M  V30 4230 C 400.791 5.12485 -0.874957 0
M  V30 4231 C 398.476 5.01936 -0.19132 0
M  V30 4232 C 400.47 6.11491 -1.79881 0
M  V30 4233 C 398.157 6.00773 -1.11868 0
M  V30 4234 C 399.155 6.5543 -1.92095 0
M  V30 4235 O 398.843 7.5234 -2.83267 0
M  V30 4236 H 398.575 0.669489 0.0935961 0
M  V30 4237 H 401.129 2.02004 -0.371966 0
M  V30 4238 H 399.359 3.45136 1.74407 0
M  V30 4239 H 401.048 3.77856 1.48255 0
M  V30 4240 H 401.814 4.78564 -0.787523 0
M  V30 4241 H 397.693 4.59055 0.423072 0
M  V30 4242 H 401.237 6.54078 -2.42543 0
M  V30 4243 H 397.134 6.34114 -1.20703 0
M  V30 4244 H 397.902 7.69966 -2.7766 0
M  V30 4245 N 400.565 -0.0233959 1.57583 0
M  V30 4246 C 401.79 -0.728376 1.94189 0
M  V30 4247 C 402.215 -1.67793 0.850119 0
M  V30 4248 O 401.573 -1.80262 -0.19371 0
M  V30 4249 C 401.621 -1.45669 3.29868 0
M  V30 4250 O 400.725 -2.57013 3.22518 0
M  V30 4251 H 400.066 -0.195493 0.63457 0
M  V30 4252 H 402.596 0.0228214 2.04587 0
M  V30 4253 H 402.606 -1.82535 3.6489 0
M  V30 4254 H 401.281 -0.760314 4.08891 0
M  V30 4255 H 399.858 -2.22648 2.99136 0
M  V30 4256 N 402.043 -1.548 -0.295768 0
M  V30 4257 C 402.975 -1.82492 -1.3867 0
M  V30 4258 C 403.988 -0.708134 -1.46592 0
M  V30 4259 O 405.177 -0.985686 -1.48817 0
M  V30 4260 C 402.277 -1.95256 -2.76999 0
M  V30 4261 C 401.45 -3.25709 -2.91946 0
M  V30 4262 C 400.509 -3.28824 -4.10806 0
M  V30 4263 O 399.535 -4.02328 -4.02643 0
M  V30 4264 N 400.737 -2.5459 -5.21694 0
M  V30 4265 H 403.502 -2.76646 -1.15269 0
M  V30 4266 H 401.063 -1.54438 -0.485849 0
M  V30 4267 H 403.055 -1.94736 -3.54768 0
M  V30 4268 H 401.625 -1.08072 -2.93324 0
M  V30 4269 H 400.845 -3.38959 -2.01247 0
M  V30 4270 H 402.133 -4.11786 -2.98847 0
M  V30 4271 H 401.531 -1.94512 -5.31208 0
M  V30 4272 H 400.088 -2.59818 -5.97778 0
M  V30 4273 N 403.521 0.559213 -1.47345 0
M  V30 4274 C 404.768 1.31648 -1.53867 0
M  V30 4275 C 405.096 1.93468 -0.200104 0
M  V30 4276 O 404.351 1.78295 0.806799 0
M  V30 4277 C 404.65 2.44853 -2.6035 0
M  V30 4278 C 404.316 2.00876 -4.03683 0
M  V30 4279 C 402.978 1.88599 -4.42701 0
M  V30 4280 C 405.33 1.67279 -4.93626 0
M  V30 4281 C 402.658 1.41017 -5.69501 0
M  V30 4282 C 405.01 1.21169 -6.20887 0
M  V30 4283 C 403.674 1.07487 -6.58789 0
M  V30 4284 H 402.944 0.481734 -0.56304 0
M  V30 4285 H 405.591 0.627301 -1.80934 0
M  V30 4286 H 403.896 3.19318 -2.27032 0
M  V30 4287 H 405.593 3.03039 -2.62619 0
M  V30 4288 H 402.183 2.11374 -3.72853 0
M  V30 4289 H 406.367 1.75638 -4.64182 0
M  V30 4290 H 401.623 1.29086 -5.97618 0
M  V30 4291 H 405.797 0.942345 -6.89995 0
M  V30 4292 H 403.424 0.703946 -7.56934 0
M  V30 4293 N 404.999 1.35443 0.805782 0
M  V30 4294 C 406.248 1.28097 1.55801 0
M  V30 4295 C 406.561 -0.142428 1.95081 0
M  V30 4296 O 407.767 -0.33817 2.69386 0
M  V30 4297 C 406.223 2.24653 2.81174 0
M  V30 4298 C 405.831 3.72342 2.49129 0
M  V30 4299 C 407.575 2.2625 3.59181 0
M  V30 4300 C 405.482 4.60719 3.70799 0
M  V30 4301 H 404.412 0.475937 0.584808 0
M  V30 4302 H 407.063 1.60712 0.885661 0
M  V30 4303 H 405.445 1.85011 3.50124 0
M  V30 4304 H 406.619 4.20624 1.88181 0
M  V30 4305 H 404.934 3.73361 1.84366 0
M  V30 4306 H 407.531 2.89495 4.49552 0
M  V30 4307 H 407.874 1.26647 3.96568 0
M  V30 4308 H 408.407 2.64426 2.97193 0
M  V30 4309 H 405.146 5.61324 3.3852 0
M  V30 4310 H 404.666 4.17163 4.3097 0
M  V30 4311 H 406.345 4.76182 4.38018 0
M  V30 4312 N 406.477 -1.02803 1.19454 0
M  V30 4313 C 407.425 -2.13213 0.929673 0
M  V30 4314 C 408.419 -1.69011 -0.114806 0
M  V30 4315 O 409.625 -1.79967 0.0345147 0
M  V30 4316 H 406 -0.69662 0.28324 0
M  V30 4317 H 407.971 -2.32744 1.86743 0
M  V30 4318 C 406.72 -3.4429 0.485797 0
M  V30 4319 H 406.043 -3.7872 1.28105 0
M  V30 4320 H 407.483 -4.22638 0.339582 0
M  V30 4321 C 405.942 -3.27258 -0.800244 0
M  V30 4322 O 406.472 -3.55967 -1.86146 0
M  V30 4323 N 404.678 -2.80545 -0.75781 0
M  V30 4324 H 404.225 -2.57382 0.106039 0
M  V30 4325 H 404.183 -2.6953 -1.61867 0
M  V30 4326 N 407.956 -0.998596 -1.21925 0
M  V30 4327 C 409.203 -0.677663 -1.90824 0
M  V30 4328 C 409.531 0.790905 -1.77693 0
M  V30 4329 O 408.786 1.58817 -1.14349 0
M  V30 4330 C 409.085 -1.03648 -3.42041 0
M  V30 4331 C 408.751 -2.49825 -3.75364 0
M  V30 4332 C 407.413 -2.8977 -3.8417 0
M  V30 4333 C 409.765 -3.44545 -3.91073 0
M  V30 4334 C 407.093 -4.23412 -4.06127 0
M  V30 4335 C 409.445 -4.77853 -4.14535 0
M  V30 4336 C 408.109 -5.17531 -4.21566 0
M  V30 4337 H 407.379 -0.247975 -0.698276 0
M  V30 4338 H 410.026 -1.25584 -1.44571 0
M  V30 4339 H 408.331 -0.376457 -3.89987 0
M  V30 4340 H 410.028 -0.766113 -3.93614 0
M  V30 4341 H 406.618 -2.17866 -3.69097 0
M  V30 4342 H 410.802 -3.14853 -3.83642 0
M  V30 4343 H 406.058 -4.53734 -4.09799 0
M  V30 4344 H 410.232 -5.51189 -4.25633 0
M  V30 4345 H 407.859 -6.21102 -4.38333 0
M  V30 4346 N 409.434 1.37368 -0.772513 0
M  V30 4347 C 410.845 1.8231 -0.402493 0
M  V30 4348 C 411.196 1.6436 1.07146 0
M  V30 4349 O 410.321 1.15514 1.82991 0
M  V30 4350 C 410.916 3.30979 -0.723776 0
M  V30 4351 C 409.475 3.74195 -0.406802 0
M  V30 4352 C 408.622 2.59885 -0.967218 0
M  V30 4353 H 411.573 1.25829 -0.967099 0
M  V30 4354 H 411.594 3.80499 -0.00870832 0
M  V30 4355 H 411.106 3.44011 -1.7966 0
M  V30 4356 H 409.207 3.66732 0.658673 0
M  V30 4357 H 409.32 4.7027 -0.915588 0
M  V30 4358 H 407.684 2.51674 -0.391416 0
M  V30 4359 H 408.467 2.7571 -2.04546 0
M  V30 4360 N 410.912 0.523116 1.48665 0
M  V30 4361 C 412.161 -0.01544 2.01694 0
M  V30 4362 C 412.474 -1.35975 1.40606 0
M  V30 4363 O 413.68 -1.98627 1.85093 0
M  V30 4364 C 412.136 -0.0779303 3.59816 0
M  V30 4365 C 411.744 1.26107 4.29885 0
M  V30 4366 C 413.488 -0.565678 4.20714 0
M  V30 4367 C 411.395 1.15954 5.79921 0
M  V30 4368 H 410.325 -0.00954163 0.75394 0
M  V30 4369 H 412.976 0.665865 1.70993 0
M  V30 4370 H 411.358 -0.824165 3.87329 0
M  V30 4371 H 412.532 2.02233 4.14051 0
M  V30 4372 H 410.847 1.68401 3.80828 0
M  V30 4373 H 413.444 -0.6595 5.30617 0
M  V30 4374 H 413.787 -1.56984 3.85567 0
M  V30 4375 H 414.32 0.12467 3.97605 0
M  V30 4376 H 411.059 2.13864 6.19631 0
M  V30 4377 H 410.579 0.439529 5.98187 0
M  V30 4378 H 412.258 0.847361 6.41427 0
M  V30 4379 N 412.39 -1.55475 0.257931 0
M  V30 4380 C 413.62 -2.03314 -0.367026 0
M  V30 4381 C 414.028 -1.13625 -1.51281 0
M  V30 4382 O 413.371 -0.145334 -1.83124 0
M  V30 4383 C 413.433 -3.47362 -0.926284 0
M  V30 4384 C 413.097 -4.56914 0.0886584 0
M  V30 4385 C 414.094 -5.12013 0.902123 0
M  V30 4386 C 411.779 -5.01827 0.217936 0
M  V30 4387 C 413.773 -6.10529 1.83122 0
M  V30 4388 C 411.46 -6.00172 1.15052 0
M  V30 4389 C 412.458 -6.54402 1.95568 0
M  V30 4390 O 412.146 -7.50827 2.87253 0
M  V30 4391 H 411.878 -0.669976 -0.0900443 0
M  V30 4392 H 414.432 -2.01804 0.382673 0
M  V30 4393 H 412.662 -3.46056 -1.72575 0
M  V30 4394 H 414.351 -3.78637 -1.46249 0
M  V30 4395 H 415.117 -4.78139 0.812891 0
M  V30 4396 H 410.996 -4.59272 -0.398721 0
M  V30 4397 H 414.54 -6.52783 2.46008 0
M  V30 4398 H 410.437 -6.33465 1.24064 0
M  V30 4399 H 411.205 -7.68483 2.81739 0
M  V30 4400 N 413.868 0.0150385 -1.57593 0
M  V30 4401 C 415.114 0.704043 -1.90187 0
M  V30 4402 C 415.447 1.74249 -0.857366 0
M  V30 4403 O 414.722 1.94092 0.125843 0
M  V30 4404 C 415.005 1.36087 -3.33395 0
M  V30 4405 C 414.858 0.334981 -4.48551 0
M  V30 4406 C 416.177 2.29112 -3.7576 0
M  V30 4407 H 413.296 0.254475 -0.691673 0
M  V30 4408 H 415.938 -0.0331678 -1.89971 0
M  V30 4409 H 414.088 1.98922 -3.3371 0
M  V30 4410 H 415.76 -0.292534 -4.60372 0
M  V30 4411 H 414.003 -0.344325 -4.32431 0
M  V30 4412 H 414.674 0.833316 -5.45674 0
M  V30 4413 H 417.15 1.76308 -3.76902 0
M  V30 4414 H 416.026 2.72043 -4.76743 0
M  V30 4415 H 416.287 3.16385 -3.08793 0
M  V30 4416 N 415.346 1.54954 0.287554 0
M  V30 4417 C 416.592 1.76059 1.01856 0
M  V30 4418 C 416.947 0.547056 1.84459 0
M  V30 4419 O 416.24 -0.460442 1.85985 0
M  V30 4420 C 416.434 2.99833 1.94512 0
M  V30 4421 C 416.263 4.33108 1.21026 0
M  V30 4422 C 415.033 4.96632 0.931896 0
M  V30 4423 C 417.231 5.10694 0.607949 0
M  V30 4424 N 415.213 6.13668 0.168716 0
M  V30 4425 C 416.584 6.19996 -0.0217865 0
M  V30 4426 C 418.639 4.95236 0.514338 0
M  V30 4427 C 417.342 7.15524 -0.736092 0
M  V30 4428 C 419.368 5.91106 -0.186343 0
M  V30 4429 C 418.73 6.99786 -0.804875 0
M  V30 4430 H 414.829 0.696679 0.355193 0
M  V30 4431 H 417.413 1.92441 0.295741 0
M  V30 4432 H 415.584 2.84853 2.64033 0
M  V30 4433 H 417.316 3.09405 2.60865 0
M  V30 4434 H 414.071 4.57255 1.23348 0
M  V30 4435 H 414.495 6.76705 -0.199781 0
M  V30 4436 H 419.137 4.11328 0.978234 0
M  V30 4437 H 416.855 7.98964 -1.21172 0
M  V30 4438 H 420.441 5.81224 -0.258897 0
M  V30 4439 H 419.321 7.72694 -1.33843 0
M  V30 4440 N 416.824 -0.551391 1.4764 0
M  V30 4441 C 418.049 -1.33837 1.58437 0
M  V30 4442 C 418.474 -1.866 0.237063 0
M  V30 4443 O 417.832 -1.6328 -0.787994 0
M  V30 4444 C 417.88 -2.48014 2.61766 0
M  V30 4445 O 416.984 -3.50419 2.1744 0
M  V30 4446 H 416.325 -0.397299 0.532024 0
M  V30 4447 H 418.855 -0.665759 1.93465 0
M  V30 4448 H 418.865 -2.94503 2.82369 0
M  V30 4449 H 417.54 -2.08969 3.5959 0
M  V30 4450 H 416.117 -3.10196 2.06961 0
M  V30 4451 N 418.302 -1.35869 -0.798587 0
M  V30 4452 C 419.527 -1.32883 -1.59238 0
M  V30 4453 C 419.952 0.0894587 -1.87887 0
M  V30 4454 O 419.31 1.05869 -1.47178 0
M  V30 4455 C 419.358 -2.14892 -2.89575 0
M  V30 4456 O 418.462 -1.53512 -3.82763 0
M  V30 4457 H 417.803 -0.455236 -0.48338 0
M  V30 4458 H 420.333 -1.79024 -0.990539 0
M  V30 4459 H 420.343 -2.27139 -3.38928 0
M  V30 4460 H 419.018 -3.17998 -2.68049 0
M  V30 4461 H 417.595 -1.50153 -3.41334 0
M  V30 4462 N 419.78 1.02168 -1.19998 0
M  V30 4463 C 420.727 2.10601 -0.944228 0
M  V30 4464 C 421.697 1.65639 0.123664 0
M  V30 4465 O 422.882 1.9079 -0.0199941 0
M  V30 4466 C 420.022 3.41504 -0.496865 0
M  V30 4467 C 419.135 3.99973 -1.63234 0
M  V30 4468 C 418.27 5.18915 -1.13579 0
M  V30 4469 C 417.309 5.69456 -2.24468 0
M  V30 4470 N 416.446 6.79665 -1.76068 0
M  V30 4471 H 421.286 2.31814 -1.8726 0
M  V30 4472 H 418.823 1.13686 -0.933483 0
M  V30 4473 H 420.781 4.16626 -0.218843 0
M  V30 4474 H 419.411 3.2038 0.394508 0
M  V30 4475 H 418.463 3.21997 -2.0254 0
M  V30 4476 H 419.775 4.33492 -2.46752 0
M  V30 4477 H 418.929 6.01222 -0.813429 0
M  V30 4478 H 417.668 4.8695 -0.270434 0
M  V30 4479 H 416.673 4.85757 -2.57526 0
M  V30 4480 H 417.898 6.03459 -3.11472 0
M  V30 4481 H 415.844 6.49538 -0.918516 0
M  V30 4482 H 415.761 7.12349 -2.5317 0
M  V30 4483 H 417.029 7.65549 -1.46817 0
M  V30 4484 N 421.258 1.00505 1.21394 0
M  V30 4485 C 422.486 0.706609 1.9446 0
M  V30 4486 C 422.901 -0.73081 1.74082 0
M  V30 4487 O 422.258 -1.49446 1.04747 0
M  V30 4488 C 422.309 1.01824 3.46863 0
M  V30 4489 O 422.03 2.39919 3.66566 0
M  V30 4490 C 423.531 0.739216 4.37093 0
M  V30 4491 H 420.751 0.260394 0.618414 0
M  V30 4492 H 423.295 1.34311 1.54211 0
M  V30 4493 H 421.45 0.427343 3.85036 0
M  V30 4494 H 421.864 2.50784 4.6066 0
M  V30 4495 H 423.338 1.00744 5.42729 0
M  V30 4496 H 423.815 -0.326746 4.37983 0
M  V30 4497 H 424.421 1.31173 4.04566 0
M  V30 4498 N 422.737 -1.36956 0.779787 0
M  V30 4499 C 423.647 -2.33965 0.172491 0
M  V30 4500 C 424.663 -1.60574 -0.670222 0
M  V30 4501 O 425.839 -1.92617 -0.588263 0
M  V30 4502 C 422.904 -3.39761 -0.690173 0
M  V30 4503 C 421.965 -4.28964 0.169924 0
M  V30 4504 C 421.198 -5.29707 -0.651662 0
M  V30 4505 O 421.421 -5.38238 -1.88827 0
M  V30 4506 O 420.355 -6.01873 -0.0566264 0
M  V30 4507 H 424.181 -2.87647 0.974321 0
M  V30 4508 H 421.766 -1.39258 0.541078 0
M  V30 4509 H 423.648 -4.04471 -1.1824 0
M  V30 4510 H 422.323 -2.88394 -1.47006 0
M  V30 4511 H 421.23 -3.67326 0.708696 0
M  V30 4512 H 422.563 -4.83656 0.913085 0
M  V30 4513 N 424.215 -0.530993 -1.48385 0
M  V30 4514 C 425.443 -0.00134122 -2.069 0
M  V30 4515 C 425.858 1.2805 -1.3874 0
M  V30 4516 O 425.215 1.76204 -0.475244 0
M  V30 4517 C 425.266 0.225256 -3.60798 0
M  V30 4518 O 424.987 -1.0058 -4.26398 0
M  V30 4519 C 426.488 0.795172 -4.3611 0
M  V30 4520 H 423.708 -0.0339704 -0.67014 0
M  V30 4521 H 426.252 -0.736926 -1.90761 0
M  V30 4522 H 424.407 0.910891 -3.76539 0
M  V30 4523 H 424.821 -0.787165 -5.1856 0
M  V30 4524 H 426.295 0.903143 -5.44562 0
M  V30 4525 H 426.772 1.80031 -4.00606 0
M  V30 4526 H 427.378 0.146069 -4.25049 0
M  V30 4527 N 425.693 1.55336 -0.266172 0
M  V30 4528 C 426.939 1.99692 0.353681 0
M  V30 4529 C 427.272 1.1543 1.56172 0
M  V30 4530 O 426.547 0.222218 1.93226 0
M  V30 4531 C 426.83 3.52316 0.74466 0
M  V30 4532 C 426.683 4.47337 -0.470101 0
M  V30 4533 C 428.002 4.10588 1.58447 0
M  V30 4534 H 425.121 0.725961 0.12708 0
M  V30 4535 H 427.763 1.86336 -0.371333 0
M  V30 4536 H 425.913 3.63829 1.36239 0
M  V30 4537 H 427.585 4.4778 -1.10864 0
M  V30 4538 H 425.828 4.19364 -1.10978 0
M  V30 4539 H 426.499 5.51788 -0.15291 0
M  V30 4540 H 428.975 4.02297 1.06286 0
M  V30 4541 H 427.851 5.17607 1.82686 0
M  V30 4542 H 428.112 3.60253 2.56262 0
M  V30 4543 N 427.171 -0.0066808 1.57599 0
M  V30 4544 C 428.081 -1.01671 2.11424 0
M  V30 4545 C 429.097 -1.38143 1.05795 0
M  V30 4546 O 430.273 -1.47011 1.37658 0
M  V30 4547 C 427.338 -2.29192 2.60139 0
M  V30 4548 C 426.399 -1.99094 3.80342 0
M  V30 4549 C 425.632 -3.20535 4.26724 0
M  V30 4550 O 425.855 -4.3199 3.72479 0
M  V30 4551 O 424.789 -3.04924 5.18946 0
M  V30 4552 H 428.615 -0.589181 2.9793 0
M  V30 4553 H 426.2 -0.225091 1.47695 0
M  V30 4554 H 428.082 -3.0412 2.917 0
M  V30 4555 H 426.757 -2.71195 1.76733 0
M  V30 4556 H 425.664 -1.21663 3.53764 0
M  V30 4557 H 426.997 -1.61931 4.648 0
M  V30 4558 N 428.649 -1.55105 -0.279332 0
M  V30 4559 C 429.559 -1.90638 -1.36727 0
M  V30 4560 C 430.575 -0.802899 -1.54368 0
M  V30 4561 O 431.751 -1.10138 -1.68616 0
M  V30 4562 C 428.816 -2.16547 -2.70755 0
M  V30 4563 C 427.877 -3.40146 -2.61915 0
M  V30 4564 C 427.11 -3.6481 -3.8955 0
M  V30 4565 O 427.333 -2.92095 -4.89935 0
M  V30 4566 O 426.267 -4.58343 -3.90135 0
M  V30 4567 H 430.093 -2.83237 -1.09591 0
M  V30 4568 H 427.678 -1.4157 -0.477306 0
M  V30 4569 H 429.56 -2.34665 -3.50014 0
M  V30 4570 H 428.235 -1.27131 -2.9769 0
M  V30 4571 H 427.142 -3.2737 -1.81052 0
M  V30 4572 H 428.475 -4.29761 -2.3993 0
M  V30 4573 N 430.127 0.543554 -1.4793 0
M  V30 4574 C 431.538 1.12561 -1.48953 0
M  V30 4575 C 431.889 1.94578 -0.251754 0
M  V30 4576 O 431.014 2.0665 0.642255 0
M  V30 4577 C 431.609 2.04801 -2.69892 0
M  V30 4578 C 430.168 2.58251 -2.73831 0
M  V30 4579 C 429.315 1.34918 -2.42265 0
M  V30 4580 H 432.266 0.32947 -1.55242 0
M  V30 4581 H 432.287 2.88886 -2.47639 0
M  V30 4582 H 431.799 1.4508 -3.59963 0
M  V30 4583 H 429.9 3.21732 -1.87934 0
M  V30 4584 H 430.013 2.98312 -3.74895 0
M  V30 4585 H 428.377 1.66046 -1.93134 0
M  V30 4586 H 429.16 0.769693 -3.3456 0
M  V30 4587 N 431.605 1.3629 0.791371 0
M  V30 4588 C 432.538 1.24816 1.9104 0
M  V30 4589 C 433.516 0.132739 1.62057 0
M  V30 4590 O 434.7 0.303527 1.8604 0
M  V30 4591 C 431.827 0.925355 3.25814 0
M  V30 4592 C 430.873 2.05495 3.7373 0
M  V30 4593 S 431.706 3.67255 3.89723 0
M  V30 4594 C 432.862 3.37084 5.27376 0
M  V30 4595 H 433.095 2.19533 2.00481 0
M  V30 4596 H 430.628 1.21684 0.950393 0
M  V30 4597 H 432.586 0.745924 4.03666 0
M  V30 4598 H 431.247 -0.00400098 3.141 0
M  V30 4599 H 430.44 1.7836 4.71385 0
M  V30 4600 H 430.042 2.1935 3.02922 0
M  V30 4601 H 432.334 2.90856 6.1189 0
M  V30 4602 H 433.277 4.33995 5.59512 0
M  V30 4603 H 433.685 2.7248 4.94383 0
M  V30 4604 N 433.083 -1.0153 1.20538 0
M  V30 4605 C 433.993 -2.13557 0.971113 0
M  V30 4606 C 435.009 -1.73845 -0.0734366 0
M  V30 4607 O 436.185 -2.01075 0.114299 0
M  V30 4608 C 433.25 -3.42661 0.527639 0
M  V30 4609 C 432.311 -3.96608 1.64319 0
M  V30 4610 C 431.544 -5.1955 1.22078 0
M  V30 4611 O 431.767 -5.70329 0.0900198 0
M  V30 4612 O 430.701 -5.66681 2.02871 0
M  V30 4613 H 434.527 -2.3619 1.90913 0
M  V30 4614 H 432.112 -1.11946 0.989362 0
M  V30 4615 H 433.994 -4.20404 0.289621 0
M  V30 4616 H 432.669 -3.21441 -0.381779 0
M  V30 4617 H 431.576 -3.20139 1.93551 0
M  V30 4618 H 432.909 -4.22219 2.52966 0
M  V30 4619 N 434.561 -1.01147 -1.20859 0
M  V30 4620 C 435.471 -0.58686 -2.27141 0
M  V30 4621 C 436.487 0.373198 -1.69951 0
M  V30 4622 O 437.663 0.235423 -2.00019 0
M  V30 4623 C 434.728 0.0733602 -3.46622 0
M  V30 4624 C 433.789 -0.931995 -4.19061 0
M  V30 4625 C 433.022 -0.303186 -5.32838 0
M  V30 4626 O 433.245 0.898395 -5.63281 0
M  V30 4627 O 432.179 -1.01735 -5.9324 0
M  V30 4628 H 436.005 -1.47155 -2.65667 0
M  V30 4629 H 433.59 -0.780689 -1.2738 0
M  V30 4630 H 435.472 0.442333 -4.19072 0
M  V30 4631 H 434.147 0.932329 -3.09983 0
M  V30 4632 H 433.054 -1.35224 -3.48805 0
M  V30 4633 H 434.387 -1.76076 -4.59628 0
M  V30 4634 N 436.039 1.36541 -0.78704 0
M  V30 4635 C 436.949 2.3387 -0.184896 0
M  V30 4636 C 437.965 1.60927 0.661697 0
M  V30 4637 O 439.141 1.92927 0.57804 0
M  V30 4638 C 436.206 3.40122 0.672145 0
M  V30 4639 C 435.267 4.28867 -0.19267 0
M  V30 4640 C 434.5 5.30045 0.623561 0
M  V30 4641 O 434.723 5.39232 1.8597 0
M  V30 4642 O 433.657 6.01895 0.0247068 0
M  V30 4643 H 437.483 2.87126 -0.989562 0
M  V30 4644 H 435.068 1.38969 -0.548455 0
M  V30 4645 H 436.95 4.05093 1.16094 0
M  V30 4646 H 435.625 2.89169 1.45474 0
M  V30 4647 H 434.532 3.66945 -0.728166 0
M  V30 4648 H 435.865 4.83165 -0.938722 0
M  V30 4649 N 437.518 0.538854 1.48102 0
M  V30 4650 C 438.428 -0.222648 2.33541 0
M  V30 4651 C 439.444 -0.930225 1.47047 0
M  V30 4652 O 440.62 -0.903211 1.80011 0
M  V30 4653 C 437.685 -1.25064 3.23357 0
M  V30 4654 C 436.746 -0.552469 4.2573 0
M  V30 4655 C 435.979 -1.53149 5.11254 0
M  V30 4656 O 436.202 -2.76487 4.9891 0
M  V30 4657 O 435.136 -1.06602 5.92385 0
M  V30 4658 H 438.962 0.477707 2.99919 0
M  V30 4659 H 436.547 0.299669 1.46364 0
M  V30 4660 H 438.429 -1.8445 3.78888 0
M  V30 4661 H 437.104 -1.93325 2.59629 0
M  V30 4662 H 436.011 0.082114 3.7401 0
M  V30 4663 H 437.344 0.0883526 4.92121 0
M  V30 4664 N 438.996 -1.55193 0.274407 0
M  V30 4665 C 439.959 -2.212 -0.600279 0
M  V30 4666 C 440.959 -1.18963 -1.08187 0
M  V30 4667 O 442.149 -1.43873 -0.982158 0
M  V30 4668 C 439.281 -2.87739 -1.82809 0
M  V30 4669 H 440.474 -2.9989 -0.0239682 0
M  V30 4670 H 438.027 -1.5628 0.0250192 0
M  V30 4671 H 438.762 -2.13058 -2.44493 0
M  V30 4672 H 438.547 -3.62658 -1.49069 0
M  V30 4673 H 440.037 -3.38171 -2.45011 0
M  V30 4674 N 440.474 -0.00167713 -1.576 0
M  V30 4675 C 441.437 0.974046 -2.07473 0
M  V30 4676 C 442.437 1.27143 -0.984444 0
M  V30 4677 O 443.627 1.21633 -1.24703 0
M  V30 4678 C 440.759 2.29849 -2.51759 0
M  V30 4679 H 441.952 0.54262 -2.9495 0
M  V30 4680 H 439.505 0.245829 -1.54355 0
M  V30 4681 H 440.24 2.77677 -1.67529 0
M  V30 4682 H 440.025 2.09584 -3.31386 0
M  V30 4683 H 441.515 2.9984 -2.90664 0
M  V30 4684 N 441.952 1.55251 0.271103 0
M  V30 4685 C 442.899 1.88261 1.33516 0
M  V30 4686 C 443.869 0.734296 1.48988 0
M  V30 4687 O 445.054 0.985741 1.63364 0
M  V30 4688 C 442.194 2.16168 2.69008 0
M  V30 4689 C 441.307 3.43678 2.61743 0
M  V30 4690 C 440.442 3.61276 3.89427 0
M  V30 4691 C 439.481 4.82472 3.7668 0
M  V30 4692 N 438.618 4.96717 4.96202 0
M  V30 4693 H 443.458 2.79015 1.04665 0
M  V30 4694 H 440.995 1.38137 0.505618 0
M  V30 4695 H 442.953 2.30349 3.47844 0
M  V30 4696 H 441.583 1.28646 2.96057 0
M  V30 4697 H 440.635 3.37959 1.74607 0
M  V30 4698 H 441.947 4.3265 2.48224 0
M  V30 4699 H 441.101 3.75284 4.76704 0
M  V30 4700 H 439.84 2.70492 4.05814 0
M  V30 4701 H 438.845 4.68465 2.87786 0
M  V30 4702 H 440.07 5.74692 3.61809 0
M  V30 4703 H 438.016 4.08865 5.12997 0
M  V30 4704 H 437.933 5.79738 4.85222 0
M  V30 4705 H 439.201 5.15113 5.85046 0
M  V30 4706 N 443.43 -0.535701 1.48216 0
M  V30 4707 C 444.34 -1.66785 1.64985 0
M  V30 4708 C 445.356 -1.65654 0.532414 0
M  V30 4709 O 446.532 -1.8471 0.80275 0
M  V30 4710 C 443.597 -3.0326 1.68031 0
M  V30 4711 C 442.658 -3.1529 2.9136 0
M  V30 4712 C 441.891 -4.45255 2.94252 0
M  V30 4713 O 442.114 -5.32011 2.05719 0
M  V30 4714 O 441.048 -4.6153 3.86359 0
M  V30 4715 H 444.874 -1.55576 2.60825 0
M  V30 4716 H 442.459 -0.70815 1.31551 0
M  V30 4717 H 444.341 -3.84436 1.72589 0
M  V30 4718 H 443.016 -3.14805 0.753628 0
M  V30 4719 H 441.923 -2.3343 2.92337 0
M  V30 4720 H 443.256 -3.08658 3.83394 0
M  V30 4721 N 444.908 -1.36708 -0.784132 0
M  V30 4722 C 445.818 -1.3363 -1.92822 0
M  V30 4723 C 446.834 -0.237686 -1.72369 0
M  V30 4724 O 448.01 -0.470962 -1.95816 0
M  V30 4725 C 445.075 -1.13011 -3.27764 0
M  V30 4726 C 444.136 -2.32397 -3.60957 0
M  V30 4727 C 443.369 -2.12752 -4.89461 0
M  V30 4728 O 443.592 -1.10541 -5.59586 0
M  V30 4729 O 442.526 -3.00653 -5.21432 0
M  V30 4730 H 446.352 -2.29964 -1.98369 0
M  V30 4731 H 443.937 -1.1731 -0.925136 0
M  V30 4732 H 445.819 -1.03451 -4.08504 0
M  V30 4733 H 444.494 -0.19743 -3.23097 0
M  V30 4734 H 443.401 -2.47527 -2.80502 0
M  V30 4735 H 444.734 -3.2419 -3.70354 0
M  V30 4736 N 446.386 1.0089 -1.21074 0
M  V30 4737 C 447.333 2.09588 -0.966512 0
M  V30 4738 C 448.303 1.65761 0.106089 0
M  V30 4739 O 449.488 1.90758 -0.0402287 0
M  V30 4740 C 446.628 3.40958 -0.533058 0
M  V30 4741 C 445.741 3.9822 -1.67467 0
M  V30 4742 C 444.876 5.17682 -1.19076 0
M  V30 4743 C 443.915 5.67043 -2.30496 0
M  V30 4744 N 443.052 6.77759 -1.83267 0
M  V30 4745 H 447.892 2.29815 -1.89708 0
M  V30 4746 H 445.429 1.12689 -0.945489 0
M  V30 4747 H 447.387 4.1637 -0.263019 0
M  V30 4748 H 446.017 3.20781 0.360505 0
M  V30 4749 H 445.069 3.1983 -2.05944 0
M  V30 4750 H 446.381 4.3085 -2.51336 0
M  V30 4751 H 445.535 6.00326 -0.877151 0
M  V30 4752 H 444.274 4.86635 -0.322066 0
M  V30 4753 H 443.279 4.82999 -2.62664 0
M  V30 4754 H 444.504 6.00121 -3.17855 0
M  V30 4755 H 442.45 6.48527 -0.987356 0
M  V30 4756 H 442.367 7.09624 -2.60711 0
M  V30 4757 H 443.635 7.63949 -1.54928 0
M  V30 4758 N 447.864 1.01787 1.20321 0
M  V30 4759 C 448.774 0.598898 2.26827 0
M  V30 4760 C 449.79 -0.36418 1.70146 0
M  V30 4761 O 450.966 -0.224812 2.00141 0
M  V30 4762 C 448.031 -0.0549769 3.46656 0
M  V30 4763 C 447.092 0.954205 4.18561 0
M  V30 4764 C 446.325 0.331439 5.3267 0
M  V30 4765 O 446.548 -0.86851 5.63749 0
M  V30 4766 O 445.482 1.0488 5.92692 0
M  V30 4767 H 449.308 1.48562 2.64883 0
M  V30 4768 H 446.893 0.787434 1.26964 0
M  V30 4769 H 448.775 -0.420102 4.19301 0
M  V30 4770 H 447.45 -0.915876 3.10473 0
M  V30 4771 H 446.357 1.37072 3.48083 0
M  V30 4772 H 447.69 1.78511 4.58688 0
M  V30 4773 N 449.342 -1.36122 0.79427 0
M  V30 4774 C 450.252 -2.33769 0.197296 0
M  V30 4775 C 451.268 -1.61276 -0.653153 0
M  V30 4776 O 452.444 -1.9323 -0.5678 0
M  V30 4777 C 449.509 -3.40474 -0.654098 0
M  V30 4778 C 448.57 -4.28759 0.215411 0
M  V30 4779 C 447.803 -5.30368 -0.595443 0
M  V30 4780 O 448.026 -5.40211 -1.83107 0
M  V30 4781 O 446.96 -6.019 0.00721351 0
M  V30 4782 H 450.786 -2.86597 1.00478 0
M  V30 4783 H 448.371 -1.38676 0.555818 0
M  V30 4784 H 450.253 -4.05703 -1.13944 0
M  V30 4785 H 448.928 -2.89937 -1.43938 0
M  V30 4786 H 447.835 -3.66554 0.747615 0
M  V30 4787 H 449.168 -4.82661 0.964332 0
M  V30 4788 N 450.82 -0.546701 -1.47814 0
M  V30 4789 C 452.045 -0.021268 -2.07389 0
M  V30 4790 C 452.47 1.25822 -1.39822 0
M  V30 4791 O 451.828 1.75111 -0.46968 0
M  V30 4792 C 451.876 0.168502 -3.60206 0
M  V30 4793 O 450.98 1.23347 -3.93522 0
M  V30 4794 H 450.321 -0.0466108 -0.662362 0
M  V30 4795 H 452.851 -0.759387 -1.89985 0
M  V30 4796 H 452.861 0.385982 -4.0617 0
M  V30 4797 H 451.536 -0.766075 -4.08784 0
M  V30 4798 H 450.113 0.997319 -3.59316 0
M  V30 4799 N 452.299 1.55045 -0.282633 0
M  V30 4800 C 453.576 1.9179 0.384166 0
M  V30 4801 C 453.956 1.20778 1.73136 0
M  V30 4802 O 453.304 0.33719 2.25998 0
M  V30 4803 C 453.514 3.45149 0.517014 0
M  V30 4804 C 454.862 4.17064 0.796427 0
M  V30 4805 O 455.886 3.51084 0.601535 0
M  V30 4806 O 454.745 5.33837 1.16962 0
M  V30 4807 H 451.839 0.799483 0.211558 0
M  V30 4808 H 454.385 1.66474 -0.32934 0
M  V30 4809 H 453.157 3.88922 -0.430772 0
M  V30 4810 H 452.78 3.76443 1.2797 0
M  V30 4811 N 453.777 0.010035 1.57597 0
M  V30 4812 C 455.054 -0.710296 1.82248 0
M  V30 4813 C 455.434 -1.91426 0.889911 0
M  V30 4814 O 454.782 -2.28424 -0.0590292 0
M  V30 4815 C 454.992 -1.10655 3.30993 0
M  V30 4816 C 456.34 -1.50621 3.96987 0
M  V30 4817 O 457.364 -1.20007 3.35375 0
M  V30 4818 O 456.223 -2.07587 5.05539 0
M  V30 4819 H 453.317 -0.34673 0.750804 0
M  V30 4820 H 455.863 0.0362578 1.69661 0
M  V30 4821 H 454.635 -0.248826 3.90508 0
M  V30 4822 H 454.258 -1.91189 3.48615 0
M  V30 4823 N 455.255 -1.55392 -0.262866 0
M  V30 4824 C 456.165 -1.92077 -1.34698 0
M  V30 4825 C 457.181 -0.819227 -1.53508 0
M  V30 4826 O 458.357 -1.11921 -1.67439 0
M  V30 4827 C 455.422 -2.19407 -2.68443 0
M  V30 4828 C 454.483 -3.42905 -2.58292 0
M  V30 4829 C 453.716 -3.68921 -3.85659 0
M  V30 4830 O 453.939 -2.97275 -4.8681 0
M  V30 4831 O 452.873 -4.62455 -3.85252 0
M  V30 4832 H 456.699 -2.84384 -1.06581 0
M  V30 4833 H 454.284 -1.42069 -0.462264 0
M  V30 4834 H 456.166 -2.38365 -3.47506 0
M  V30 4835 H 454.841 -1.30282 -2.96325 0
M  V30 4836 H 453.748 -3.29272 -1.7757 0
M  V30 4837 H 455.081 -4.32282 -2.35358 0
M  V30 4838 N 456.733 0.527833 -1.48498 0
M  V30 4839 C 457.696 1.61439 -1.62696 0
M  V30 4840 C 458.696 1.52824 -0.500136 0
M  V30 4841 O 459.886 1.56456 -0.765976 0
M  V30 4842 C 457.018 3.01063 -1.59918 0
M  V30 4843 H 458.211 1.50189 -2.59583 0
M  V30 4844 H 455.764 0.750055 -1.37127 0
M  V30 4845 H 456.499 3.17818 -0.645163 0
M  V30 4846 H 456.284 3.08725 -2.41726 0
M  V30 4847 H 457.774 3.80057 -1.73051 0
M  V30 4848 N 458.211 1.37122 0.776871 0
M  V30 4849 C 459.174 1.32301 1.8716 0
M  V30 4850 C 460.174 0.228099 1.59174 0
M  V30 4851 O 461.364 0.483642 1.67352 0
M  V30 4852 C 458.496 1.054 3.24197 0
M  V30 4853 H 459.689 2.29673 1.92848 0
M  V30 4854 H 457.242 1.22077 0.97606 0
M  V30 4855 H 457.977 0.0853872 3.24188 0
M  V30 4856 H 457.762 1.84648 3.45901 0
M  V30 4857 H 459.252 1.04664 4.04271 0
M  V30 4858 N 459.689 -1.00246 1.21608 0
M  V30 4859 C 460.935 -1.74319 1.03638 0
M  V30 4860 C 461.268 -1.89408 -0.428749 0
M  V30 4861 O 460.543 -1.43026 -1.3181 0
M  V30 4862 C 460.826 -3.15431 1.73711 0
M  V30 4863 C 460.679 -3.08049 3.27759 0
M  V30 4864 C 461.998 -4.14407 1.48173 0
M  V30 4865 H 459.117 -0.632741 0.377899 0
M  V30 4866 H 461.759 -1.16853 1.49818 0
M  V30 4867 H 459.909 -3.64493 1.34452 0
M  V30 4868 H 461.581 -2.66681 3.76403 0
M  V30 4869 H 459.824 -2.45088 3.57931 0
M  V30 4870 H 460.495 -4.07862 3.71958 0
M  V30 4871 H 462.971 -3.74061 1.82258 0
M  V30 4872 H 461.847 -5.11279 1.99713 0
M  V30 4873 H 462.108 -4.40174 0.412273 0
M  V30 4874 N 461.167 -1.02423 -1.1978 0
M  V30 4875 C 462.077 -0.610919 -2.26506 0
M  V30 4876 C 463.093 0.355152 -1.70337 0
M  V30 4877 O 464.269 0.214195 -2.00258 0
M  V30 4878 C 461.334 0.0365921 -3.46681 0
M  V30 4879 C 460.395 -0.976389 -4.18049 0
M  V30 4880 C 459.628 -0.359683 -5.32487 0
M  V30 4881 O 459.851 0.838601 -5.64202 0
M  V30 4882 O 458.785 -1.08022 -5.92127 0
M  V30 4883 H 462.611 -1.49965 -2.64091 0
M  V30 4884 H 460.196 -0.794156 -1.26545 0
M  V30 4885 H 462.078 0.39786 -4.19518 0
M  V30 4886 H 460.753 0.899398 -3.10954 0
M  V30 4887 H 459.66 -1.38916 -3.47352 0
M  V30 4888 H 460.993 -1.80941 -4.57735 0
M  V30 4889 N 462.645 1.35699 -0.801477 0
M  V30 4890 C 463.555 2.33661 -0.209691 0
M  V30 4891 C 464.571 1.6162 0.644591 0
M  V30 4892 O 465.747 1.93529 0.557545 0
M  V30 4893 C 462.812 3.40816 0.636033 0
M  V30 4894 C 461.873 4.28639 -0.238147 0
M  V30 4895 C 461.106 5.30676 0.567307 0
M  V30 4896 O 461.329 5.41174 1.8024 0
M  V30 4897 O 460.263 6.01887 -0.0391336 0
M  V30 4898 H 464.089 2.8606 -1.01996 0
M  V30 4899 H 461.674 1.38379 -0.563164 0
M  V30 4900 H 463.556 4.06301 1.11791 0
M  V30 4901 H 462.231 2.90696 1.42399 0
M  V30 4902 H 461.138 3.66152 -0.767044 0
M  V30 4903 H 462.471 4.82143 -0.989915 0
M  V30 4904 N 464.123 0.554532 1.47522 0
M  V30 4905 C 465.033 -0.197865 2.33764 0
M  V30 4906 C 466.049 -0.914576 1.48025 0
M  V30 4907 O 467.225 -0.884067 1.80959 0
M  V30 4908 C 464.29 -1.21628 3.24665 0
M  V30 4909 C 463.351 -0.507283 4.26292 0
M  V30 4910 C 462.584 -1.47718 5.1285 0
M  V30 4911 O 462.807 -2.7118 5.01814 0
M  V30 4912 O 461.741 -1.00313 5.93482 0
M  V30 4913 H 465.567 0.50949 2.99396 0
M  V30 4914 H 463.152 0.315176 1.46038 0
M  V30 4915 H 465.034 -1.80421 3.80823 0
M  V30 4916 H 463.709 -1.9056 2.61665 0
M  V30 4917 H 462.616 0.121778 3.73902 0
M  V30 4918 H 463.949 0.140544 4.91999 0
M  V30 4919 N 465.601 -1.54893 0.290851 0
M  V30 4920 C 466.511 -2.26812 -0.59945 0
M  V30 4921 C 467.527 -1.29963 -1.15696 0
M  V30 4922 O 468.703 -1.62928 -1.18391 0
M  V30 4923 C 465.768 -2.98716 -1.75982 0
M  V30 4924 C 464.829 -4.1108 -1.2374 0
M  V30 4925 C 464.062 -4.79546 -2.34246 0
M  V30 4926 O 464.285 -4.47309 -3.53936 0
M  V30 4927 O 463.219 -5.67165 -2.01512 0
M  V30 4928 H 467.045 -3.03696 -0.0163561 0
M  V30 4929 H 464.63 -1.49289 0.0576755 0
M  V30 4930 H 466.512 -3.43851 -2.43607 0
M  V30 4931 H 465.187 -2.24737 -2.3297 0
M  V30 4932 H 464.094 -3.70367 -0.527163 0
M  V30 4933 H 465.427 -4.87007 -0.71307 0
M  V30 4934 N 467.08 -0.0183926 -1.57589 0
M  V30 4935 C 467.99 0.982943 -2.13015 0
M  V30 4936 C 469.006 1.36443 -1.07979 0
M  V30 4937 O 470.182 1.44802 -1.3998 0
M  V30 4938 C 467.247 2.25024 -2.63752 0
M  V30 4939 C 466.308 1.93018 -3.83461 0
M  V30 4940 C 465.541 3.13706 -4.31769 0
M  V30 4941 O 465.764 4.2601 -3.79305 0
M  V30 4942 O 464.698 2.96629 -5.23732 0
M  V30 4943 H 468.524 0.541709 -2.9883 0
M  V30 4944 H 466.109 0.201565 -1.48034 0
M  V30 4945 H 467.991 2.99441 -2.96502 0
M  V30 4946 H 466.666 2.68349 -1.81026 0
M  V30 4947 H 465.573 1.16019 -3.55655 0
M  V30 4948 H 466.906 1.54516 -4.67317 0
M  V30 4949 N 468.558 1.5553 0.254621 0
M  V30 4950 C 469.468 1.92789 1.33677 0
M  V30 4951 C 470.484 0.827356 1.53071 0
M  V30 4952 O 471.66 1.12807 1.66843 0
M  V30 4953 C 468.725 2.20827 2.67275 0
M  V30 4954 C 467.786 3.4427 2.5647 0
M  V30 4955 C 467.019 3.70961 3.83697 0
M  V30 4956 O 467.242 2.99852 4.85227 0
M  V30 4957 O 466.176 4.64491 3.82794 0
M  V30 4958 H 470.002 2.84945 1.05071 0
M  V30 4959 H 467.587 1.42312 0.454723 0
M  V30 4960 H 469.469 2.40204 3.46237 0
M  V30 4961 H 468.144 1.31851 2.9563 0
M  V30 4962 H 467.051 3.30209 1.75821 0
M  V30 4963 H 468.384 4.33524 2.33062 0
M  V30 4964 N 470.036 -0.519951 1.48776 0
M  V30 4965 C 470.983 -1.62352 1.64044 0
M  V30 4966 C 471.953 -1.58945 0.482251 0
M  V30 4967 O 473.138 -1.77219 0.706971 0
M  V30 4968 C 470.278 -3.00579 1.69547 0
M  V30 4969 C 469.391 -3.14145 2.96541 0
M  V30 4970 C 468.526 -4.42991 2.93142 0
M  V30 4971 C 467.565 -4.50122 4.14797 0
M  V30 4972 N 466.702 -5.7037 4.09418 0
M  V30 4973 H 471.542 -1.48643 2.58281 0
M  V30 4974 H 469.079 -0.723516 1.28077 0
M  V30 4975 H 471.037 -3.80671 1.70719 0
M  V30 4976 H 469.667 -3.13036 0.787918 0
M  V30 4977 H 468.719 -2.27239 3.05068 0
M  V30 4978 H 470.031 -3.15275 3.86527 0
M  V30 4979 H 469.185 -5.31385 2.92772 0
M  V30 4980 H 467.924 -4.44398 2.00902 0
M  V30 4981 H 466.929 -3.60133 4.15433 0
M  V30 4982 H 468.154 -4.50445 5.08208 0
M  V30 4983 H 466.1 -5.72655 3.20004 0
M  V30 4984 H 466.017 -5.73036 4.93119 0
M  V30 4985 H 467.285 -6.61023 4.13121 0
M  V30 4986 N 471.514 -1.37532 -0.769588 0
M  V30 4987 C 472.461 -1.3347 -1.88293 0
M  V30 4988 C 473.431 -0.199891 -1.64893 0
M  V30 4989 O 474.616 -0.389594 -1.8678 0
M  V30 4990 C 471.756 -1.14968 -3.25387 0
M  V30 4991 C 470.869 -2.37698 -3.60727 0
M  V30 4992 C 470.004 -2.12051 -4.8704 0
M  V30 4993 C 469.043 -3.30636 -5.15117 0
M  V30 4994 N 468.18 -3.04527 -6.3262 0
M  V30 4995 H 473.02 -2.28658 -1.911 0
M  V30 4996 H 470.557 -1.13622 -0.934257 0
M  V30 4997 H 472.515 -1.02261 -4.04473 0
M  V30 4998 H 471.145 -0.234263 -3.21949 0
M  V30 4999 H 470.197 -2.61137 -2.76608 0
M  V30 5000 H 471.509 -3.26131 -3.77413 0
M  V30 5001 H 470.663 -1.96388 -5.74035 0
M  V30 5002 H 469.402 -1.20959 -4.72462 0
M  V30 5003 H 468.407 -3.46836 -4.26597 0
M  V30 5004 H 469.632 -4.22582 -5.31603 0
M  V30 5005 H 467.578 -2.16067 -6.19396 0
M  V30 5006 H 467.495 -3.86503 -6.49732 0
M  V30 5007 H 468.763 -2.92485 -7.22546 0
M  V30 5008 N 472.992 0.995999 -1.22138 0
M  V30 5009 C 474.403 1.54961 -1.04135 0
M  V30 5010 C 474.754 1.92159 0.396147 0
M  V30 5011 O 473.879 1.74435 1.28069 0
M  V30 5012 C 474.474 2.81581 -1.88408 0
M  V30 5013 C 473.033 3.33396 -1.74712 0
M  V30 5014 C 472.18 2.06509 -1.85066 0
M  V30 5015 H 475.131 0.817436 -1.36028 0
M  V30 5016 H 475.152 3.53822 -1.39966 0
M  V30 5017 H 474.664 2.54476 -2.93025 0
M  V30 5018 H 472.765 3.65416 -0.728159 0
M  V30 5019 H 472.878 4.04208 -2.57202 0
M  V30 5020 H 471.242 2.19925 -1.28472 0
M  V30 5021 H 472.025 1.81804 -2.91208 0
M  V30 5022 N 474.47 1.03057 1.19235 0
M  V30 5023 C 475.417 0.612832 2.22515 0
M  V30 5024 C 476.387 -0.374224 1.61829 0
M  V30 5025 O 477.572 -0.270501 1.88873 0
M  V30 5026 C 474.712 -0.028475 3.45088 0
M  V30 5027 C 473.825 1.00483 4.20151 0
M  V30 5028 C 472.96 0.333102 5.30155 0
M  V30 5029 C 471.999 1.3522 5.96977 0
M  V30 5030 N 471.136 0.70616 6.9854 0
M  V30 5031 H 475.976 1.49812 2.57605 0
M  V30 5032 H 473.513 0.749658 1.26564 0
M  V30 5033 H 475.471 -0.417548 4.15105 0
M  V30 5034 H 474.101 -0.877334 3.10649 0
M  V30 5035 H 473.153 1.51194 3.49062 0
M  V30 5036 H 474.465 1.77929 4.65986 0
M  V30 5037 H 473.619 -0.110725 6.06599 0
M  V30 5038 H 472.358 -0.473547 4.85396 0
M  V30 5039 H 471.363 1.80627 5.19282 0
M  V30 5040 H 472.588 2.16037 6.4382 0
M  V30 5041 H 470.534 -0.0803667 6.55951 0
M  V30 5042 H 470.451 1.41848 7.42573 0
M  V30 5043 H 471.719 0.286391 7.78974 0
M  V30 5044 N 475.948 -1.35272 0.808662 0
M  V30 5045 C 477.176 -2.02946 0.402537 0
M  V30 5046 C 477.591 -1.60937 -0.987147 0
M  V30 5047 O 476.948 -0.807917 -1.63643 0
M  V30 5048 C 476.999 -3.58317 0.47868 0
M  V30 5049 O 476.72 -3.98799 1.81358 0
M  V30 5050 C 478.221 -4.43251 0.0656281 0
M  V30 5051 H 475.441 -0.650831 0.163279 0
M  V30 5052 H 477.985 -1.72849 1.09286 0
M  V30 5053 H 476.14 -3.87055 -0.163415 0
M  V30 5054 H 476.554 -4.93451 1.77781 0
M  V30 5055 H 478.028 -5.51738 0.170017 0
M  V30 5056 H 478.505 -4.27913 -0.989278 0
M  V30 5057 H 479.111 -4.19813 0.68096 0
M  V30 5058 N 477.426 -0.562348 -1.47226 0
M  V30 5059 C 478.373 0.182461 -2.30078 0
M  V30 5060 C 479.343 0.903503 -1.39377 0
M  V30 5061 O 480.528 0.898188 -1.68337 0
M  V30 5062 C 477.668 1.20322 -3.23445 0
M  V30 5063 C 476.781 0.487717 -4.29238 0
M  V30 5064 C 475.916 1.49422 -5.09752 0
M  V30 5065 C 474.955 0.763976 -6.07314 0
M  V30 5066 N 474.092 1.71755 -6.80768 0
M  V30 5067 H 478.932 -0.530169 -2.93246 0
M  V30 5068 H 476.469 -0.273276 -1.44539 0
M  V30 5069 H 478.427 1.80768 -3.76004 0
M  V30 5070 H 477.057 1.88382 -2.6213 0
M  V30 5071 H 476.109 -0.231374 -3.79696 0
M  V30 5072 H 477.421 -0.0841003 -4.98729 0
M  V30 5073 H 476.575 2.17206 -5.66486 0
M  V30 5074 H 475.314 2.09995 -4.40174 0
M  V30 5075 H 474.319 0.0722344 -5.49753 0
M  V30 5076 H 475.544 0.16391 -6.78902 0
M  V30 5077 H 473.49 2.31177 -6.13916 0
M  V30 5078 H 473.407 1.19802 -7.46447 0
M  V30 5079 H 474.675 2.38638 -7.42073 0
M  V30 5080 N 478.904 1.54736 -0.299062 0
M  V30 5081 C 479.851 2.23448 0.577899 0
M  V30 5082 C 480.821 1.21637 1.13109 0
M  V30 5083 O 482.006 1.50252 1.17597 0
M  V30 5084 C 479.146 2.9774 1.74484 0
M  V30 5085 C 478.259 4.1432 1.22323 0
M  V30 5086 C 477.394 4.76199 2.35388 0
M  V30 5087 C 476.433 5.84927 1.80351 0
M  V30 5088 N 475.57 6.4077 2.86982 0
M  V30 5089 H 480.41 2.97996 -0.0146545 0
M  V30 5090 H 477.947 1.47088 -0.0190013 0
M  V30 5091 H 479.905 3.39045 2.43114 0
M  V30 5092 H 478.535 2.25572 2.30905 0
M  V30 5093 H 477.587 3.7797 0.429249 0
M  V30 5094 H 478.899 4.92659 0.780309 0
M  V30 5095 H 478.053 5.20346 3.11969 0
M  V30 5096 H 476.792 3.97188 2.83006 0
M  V30 5097 H 475.797 5.40207 1.02259 0
M  V30 5098 H 477.022 6.65821 1.3364 0
M  V30 5099 H 474.968 5.64643 3.33938 0
M  V30 5100 H 474.885 7.1445 2.4718 0
M  V30 5101 H 476.153 6.89574 3.63466 0
M  V30 5102 N 480.382 0.0267497 1.57577 0
M  V30 5103 C 481.628 -0.653371 1.91987 0
M  V30 5104 C 481.961 -1.71915 0.903263 0
M  V30 5105 O 481.236 -1.94358 -0.0743387 0
M  V30 5106 C 481.519 -1.272 3.36886 0
M  V30 5107 C 481.372 -0.215938 4.49281 0
M  V30 5108 C 482.691 -2.19069 3.81703 0
M  V30 5109 H 479.81 -0.236047 0.698177 0
M  V30 5110 H 482.452 0.0835236 1.89816 0
M  V30 5111 H 480.602 -1.90005 3.38866 0
M  V30 5112 H 482.274 0.41449 4.59434 0
M  V30 5113 H 480.517 0.458855 4.31366 0
M  V30 5114 H 481.188 -0.688347 5.47691 0
M  V30 5115 H 483.664 -1.66253 3.81444 0
M  V30 5116 H 482.54 -2.59307 4.83788 0
M  V30 5117 H 482.801 -3.08087 3.17072 0
M  V30 5118 N 481.861 -1.55662 -0.24637 0
M  V30 5119 C 482.771 -1.93495 -1.32653 0
M  V30 5120 C 483.787 -0.835462 -1.5263 0
M  V30 5121 O 484.963 -1.1369 -1.66242 0
M  V30 5122 C 482.028 -2.22242 -2.66101 0
M  V30 5123 C 481.089 -3.45625 -2.54641 0
M  V30 5124 C 480.322 -3.72991 -3.81724 0
M  V30 5125 O 480.545 -3.02421 -4.8363 0
M  V30 5126 O 479.479 -4.66515 -3.80325 0
M  V30 5127 H 483.305 -2.85498 -1.03559 0
M  V30 5128 H 480.89 -1.42551 -0.44717 0
M  V30 5129 H 482.772 -2.42037 -3.44958 0
M  V30 5130 H 481.447 -1.33417 -2.94926 0
M  V30 5131 H 480.354 -3.31136 -1.74067 0
M  V30 5132 H 481.687 -4.34754 -2.3076 0
M  V30 5133 N 483.339 0.512053 -1.4905 0
M  V30 5134 C 484.286 1.6148 -1.64902 0
M  V30 5135 C 485.256 1.58687 -0.490673 0
M  V30 5136 O 486.441 1.76842 -0.71636 0
M  V30 5137 C 483.581 2.99676 -1.71139 0
M  V30 5138 C 482.694 3.12568 -2.98203 0
M  V30 5139 C 481.829 4.4143 -2.95487 0
M  V30 5140 C 480.868 4.47916 -4.17179 0
M  V30 5141 N 480.005 5.68191 -4.12437 0
M  V30 5142 H 484.845 1.47271 -2.59066 0
M  V30 5143 H 482.382 0.716713 -1.28459 0
M  V30 5144 H 484.34 3.79761 -1.72736 0
M  V30 5145 H 482.97 3.12614 -0.804508 0
M  V30 5146 H 482.022 2.25618 -3.06269 0
M  V30 5147 H 483.334 3.1322 -3.88194 0
M  V30 5148 H 482.488 5.29825 -2.95585 0
M  V30 5149 H 481.227 4.43326 -2.03256 0
M  V30 5150 H 480.232 3.57925 -4.17337 0
M  V30 5151 H 481.457 4.47744 -5.1059 0
M  V30 5152 H 479.403 5.7095 -3.23036 0
M  V30 5153 H 479.32 5.70413 -4.96151 0
M  V30 5154 H 480.588 6.58823 -4.16621 0
M  V30 5155 N 484.817 1.37938 0.762283 0
M  V30 5156 C 486.045 1.36883 1.55147 0
M  V30 5157 C 486.46 -0.0435348 1.8875 0
M  V30 5158 O 485.817 -1.00786 1.52146 0
M  V30 5159 C 485.868 2.21624 2.85596 0
M  V30 5160 O 485.589 3.57358 2.5343 0
M  V30 5161 C 487.09 2.28653 3.7978 0
M  V30 5162 H 484.31 0.468521 0.480343 0
M  V30 5163 H 486.854 1.81404 0.944079 0
M  V30 5164 H 485.009 1.80588 3.42734 0
M  V30 5165 H 485.423 4.01883 3.37032 0
M  V30 5166 H 486.897 2.9225 4.68288 0
M  V30 5167 H 487.374 1.29767 4.19592 0
M  V30 5168 H 487.98 2.70043 3.28568 0
M  V30 5169 N 486.295 -0.989507 1.22664 0
M  V30 5170 C 487.541 -1.7321 1.05481 0
M  V30 5171 C 487.874 -1.89852 -0.408635 0
M  V30 5172 O 487.149 -1.44416 -1.30285 0
M  V30 5173 C 487.432 -3.1357 1.77047 0
M  V30 5174 C 487.285 -3.04555 3.31008 0
M  V30 5175 C 488.604 -4.12812 1.5256 0
M  V30 5176 H 485.723 -0.628697 0.384589 0
M  V30 5177 H 488.365 -1.15258 1.51049 0
M  V30 5178 H 486.515 -3.63046 1.3831 0
M  V30 5179 H 488.187 -2.62674 3.7921 0
M  V30 5180 H 486.43 -2.41278 3.6051 0
M  V30 5181 H 487.101 -4.03894 3.76263 0
M  V30 5182 H 489.577 -3.72106 1.86215 0
M  V30 5183 H 488.453 -5.09132 2.05124 0
M  V30 5184 H 488.714 -4.39711 0.458936 0
M  V30 5185 N 487.773 -1.03688 -1.18687 0
M  V30 5186 C 489.019 -0.74888 -1.89112 0
M  V30 5187 C 489.374 0.715345 -1.78607 0
M  V30 5188 O 488.667 1.51498 -1.17299 0
M  V30 5189 C 488.861 -1.14477 -3.3857 0
M  V30 5190 C 488.69 -2.64594 -3.63621 0
M  V30 5191 C 487.46 -3.31685 -3.812 0
M  V30 5192 C 489.658 -3.62811 -3.64517 0
M  V30 5193 N 487.64 -4.70822 -3.93955 0
M  V30 5194 C 489.011 -4.87603 -3.8294 0
M  V30 5195 C 491.066 -3.56495 -3.47585 0
M  V30 5196 C 489.769 -6.0684 -3.86184 0
M  V30 5197 C 491.795 -4.75155 -3.52111 0
M  V30 5198 C 491.157 -5.98765 -3.71026 0
M  V30 5199 H 487.256 -0.32603 -0.710794 0
M  V30 5200 H 489.84 -1.3258 -1.42586 0
M  V30 5201 H 488.011 -0.595974 -3.838 0
M  V30 5202 H 489.743 -0.808187 -3.96548 0
M  V30 5203 H 486.498 -2.82091 -3.80423 0
M  V30 5204 H 486.922 -5.43122 -4.04163 0
M  V30 5205 H 491.564 -2.61907 -3.31911 0
M  V30 5206 H 489.282 -7.01788 -4.00648 0
M  V30 5207 H 492.868 -4.71905 -3.40289 0
M  V30 5208 H 491.748 -6.89047 -3.74412 0
M  V30 5209 N 489.251 1.34841 -0.815825 0
M  V30 5210 C 490.528 1.92908 -0.323416 0
M  V30 5211 C 490.908 1.74479 1.18828 0
M  V30 5212 O 490.256 1.11928 1.99209 0
M  V30 5213 C 490.466 3.40957 -0.744952 0
M  V30 5214 C 491.814 4.18107 -0.739716 0
M  V30 5215 O 492.838 3.49511 -0.68708 0
M  V30 5216 O 491.697 5.40517 -0.806456 0
M  V30 5217 H 488.791 0.822436 -0.0867646 0
M  V30 5218 H 491.337 1.4386 -0.90014 0
M  V30 5219 H 490.109 3.4814 -1.78646 0
M  V30 5220 H 489.732 3.97341 -0.143535 0
M  V30 5221 N 490.729 0.570148 1.46925 0
M  V30 5222 C 491.975 0.0593124 2.03314 0
M  V30 5223 C 492.33 -1.28139 1.43521 0
M  V30 5224 O 491.623 -1.82411 0.586245 0
M  V30 5225 C 491.817 -0.0780336 3.57315 0
M  V30 5226 C 491.646 1.2478 4.32042 0
M  V30 5227 C 490.416 1.81859 4.7144 0
M  V30 5228 C 492.614 2.16808 4.66368 0
M  V30 5229 N 490.596 3.08313 5.30864 0
M  V30 5230 C 491.967 3.27845 5.2623 0
M  V30 5231 C 494.022 2.16643 4.48297 0
M  V30 5232 C 492.725 4.38832 5.69929 0
M  V30 5233 C 494.751 3.26652 4.93004 0
M  V30 5234 C 494.113 4.36408 5.52926 0
M  V30 5235 H 490.212 0.0641804 0.779362 0
M  V30 5236 H 492.796 0.760285 1.79242 0
M  V30 5237 H 490.967 -0.748151 3.81126 0
M  V30 5238 H 492.699 -0.59211 4.00345 0
M  V30 5239 H 489.454 1.35502 4.53802 0
M  V30 5240 H 489.878 3.72802 5.65108 0
M  V30 5241 H 494.52 1.33065 4.01315 0
M  V30 5242 H 492.238 5.23162 6.15896 0
M  V30 5243 H 495.824 3.27627 4.80782 0
M  V30 5244 H 494.704 5.20127 5.86888 0
M  V30 5245 N 492.207 -1.54576 0.307264 0
M  V30 5246 C 493.117 -2.27435 -0.57536 0
M  V30 5247 C 494.133 -1.31183 -1.14311 0
M  V30 5248 O 495.309 -1.64175 -1.16656 0
M  V30 5249 C 492.374 -3.00566 -1.72803 0
M  V30 5250 C 491.435 -4.12369 -1.19373 0
M  V30 5251 C 490.668 -4.82003 -2.29147 0
M  V30 5252 O 490.891 -4.51038 -3.49171 0
M  V30 5253 O 489.825 -5.69271 -1.95485 0
M  V30 5254 H 493.651 -3.03696 0.0158558 0
M  V30 5255 H 491.236 -1.49219 0.0735064 0
M  V30 5256 H 493.118 -3.46416 -2.39946 0
M  V30 5257 H 491.793 -2.27195 -2.30574 0
M  V30 5258 H 490.7 -3.70905 -0.487851 0
M  V30 5259 H 492.033 -4.87736 -0.661376 0
M  V30 5260 N 493.685 -0.035106 -1.57561 0
M  V30 5261 C 494.615 0.942993 -2.13612 0
M  V30 5262 C 495.596 1.33531 -1.05373 0
M  V30 5263 O 496.781 1.41287 -1.33235 0
M  V30 5264 C 493.911 2.22332 -2.66807 0
M  V30 5265 C 492.865 1.97156 -3.79886 0
M  V30 5266 C 492.191 3.31506 -4.19533 0
M  V30 5267 C 493.491 1.30596 -5.05709 0
M  V30 5268 H 495.185 0.476179 -2.95589 0
M  V30 5269 H 492.731 0.227602 -1.4219 0
M  V30 5270 H 494.684 2.91142 -3.04654 0
M  V30 5271 H 493.408 2.7119 -1.81999 0
M  V30 5272 H 492.067 1.30763 -3.42486 0
M  V30 5273 H 491.715 3.78134 -3.31698 0
M  V30 5274 H 491.415 3.15465 -4.95738 0
M  V30 5275 H 492.939 4.01574 -4.59968 0
M  V30 5276 H 494.353 1.89416 -5.41105 0
M  V30 5277 H 492.75 1.24934 -5.86951 0
M  V30 5278 H 493.82 0.279742 -4.84092 0
M  V30 5279 N 495.163 1.55791 0.238111 0
M  V30 5280 C 496.096 1.86036 1.32158 0
M  V30 5281 C 497.074 0.716216 1.45976 0
M  V30 5282 O 498.258 0.962882 1.62052 0
M  V30 5283 C 495.385 2.05281 2.69402 0
M  V30 5284 C 494.431 3.27939 2.72687 0
M  V30 5285 S 495.264 4.84342 2.28413 0
M  V30 5286 C 496.42 5.06604 3.67565 0
M  V30 5287 H 496.653 2.77644 1.06306 0
M  V30 5288 H 494.186 1.48012 0.439537 0
M  V30 5289 H 496.144 2.17053 3.48423 0
M  V30 5290 H 494.805 1.14499 2.92487 0
M  V30 5291 H 493.998 3.38398 3.73501 0
M  V30 5292 H 493.6 3.14938 2.01717 0
M  V30 5293 H 495.892 4.94486 4.6313 0
M  V30 5294 H 496.835 6.08554 3.62033 0
M  V30 5295 H 497.243 4.34409 3.60485 0
M  V30 5296 N 496.642 -0.504142 1.49319 0
M  V30 5297 C 497.59 -1.62689 1.66238 0
M  V30 5298 C 498.584 -1.6095 0.528349 0
M  V30 5299 O 499.79 -1.65496 0.707887 0
M  V30 5300 H 496.165 -0.539247 0.524134 0
M  V30 5301 H 498.136 -1.45571 2.60484 0
M  V30 5302 C 496.885 -3.00841 1.74328 0
M  V30 5303 H 496.208 -3.02884 2.60963 0
M  V30 5304 H 497.648 -3.78945 1.90202 0
M  V30 5305 C 496.107 -3.33355 0.487416 0
M  V30 5306 O 496.637 -3.99819 -0.388294 0
M  V30 5307 N 494.843 -2.88469 0.351306 0
M  V30 5308 H 494.39 -2.34557 1.06492 0
M  V30 5309 H 494.348 -3.10591 -0.487899 0
M  V30 5310 N 498.12 -1.38341 -0.754957 0
M  V30 5311 C 499.397 -1.24995 -1.50451 0
M  V30 5312 C 499.777 0.149244 -2.10572 0
M  V30 5313 O 499.125 1.15861 -1.96948 0
M  V30 5314 C 499.335 -2.35904 -2.57197 0
M  V30 5315 C 500.683 -2.74262 -3.24138 0
M  V30 5316 O 501.707 -2.35205 -2.67501 0
M  V30 5317 O 500.566 -3.4161 -4.26574 0
M  V30 5318 H 497.66 -0.48872 -0.667144 0
M  V30 5319 H 500.206 -1.50165 -0.790486 0
M  V30 5320 H 498.978 -3.2953 -2.11011 0
M  V30 5321 H 498.601 -2.12291 -3.36182 0
M  V30 5322 N 499.598 0.982988 -1.23187 0
M  V30 5323 C 500.847 1.71817 -1.05649 0
M  V30 5324 C 501.16 1.91315 0.407176 0
M  V30 5325 O 502.366 2.62256 0.702436 0
M  V30 5326 C 500.822 3.09188 -1.84203 0
M  V30 5327 C 500.43 2.97586 -3.34882 0
M  V30 5328 C 502.174 3.86684 -1.75146 0
M  V30 5329 C 500.081 4.30173 -4.05839 0
M  V30 5330 H 499.011 0.644258 -0.391724 0
M  V30 5331 H 501.662 1.09659 -1.4713 0
M  V30 5332 H 500.044 3.72087 -1.35527 0
M  V30 5333 H 501.218 2.43793 -3.91026 0
M  V30 5334 H 499.533 2.33567 -3.44725 0
M  V30 5335 H 502.13 4.84836 -2.25473 0
M  V30 5336 H 502.473 4.10136 -0.713737 0
M  V30 5337 H 503.006 3.30482 -2.21419 0
M  V30 5338 H 499.745 4.11918 -5.09906 0
M  V30 5339 H 499.265 4.83841 -3.54482 0
M  V30 5340 H 500.944 4.98873 -4.11989 0
M  V30 5341 N 501.076 1.04316 1.18135 0
M  V30 5342 C 502.023 0.636398 2.21853 0
M  V30 5343 C 502.993 -0.357039 1.62217 0
M  V30 5344 O 504.178 -0.250453 1.89149 0
M  V30 5345 C 501.318 0.00812779 3.45099 0
M  V30 5346 C 500.431 1.04933 4.19062 0
M  V30 5347 C 499.566 0.389313 5.29771 0
M  V30 5348 C 498.605 1.41544 5.9551 0
M  V30 5349 N 497.742 0.78021 6.97751 0
M  V30 5350 H 502.582 1.52536 2.56002 0
M  V30 5351 H 500.119 0.76304 1.25762 0
M  V30 5352 H 502.077 -0.373497 4.15525 0
M  V30 5353 H 500.707 -0.844336 3.11562 0
M  V30 5354 H 499.759 1.54888 3.47439 0
M  V30 5355 H 501.071 1.82862 4.64072 0
M  V30 5356 H 500.225 -0.0463805 6.06682 0
M  V30 5357 H 498.964 -0.422038 4.8587 0
M  V30 5358 H 497.969 1.86124 5.17337 0
M  V30 5359 H 499.194 2.22854 6.41493 0
M  V30 5360 H 497.14 -0.0107899 6.55999 0
M  V30 5361 H 497.057 1.49716 7.41027 0
M  V30 5362 H 498.325 0.368996 7.78626 0
M  V30 5363 N 502.554 -1.34406 0.822964 0
M  V30 5364 C 503.965 -1.8069 0.469879 0
M  V30 5365 C 504.316 -1.68223 -1.00972 0
M  V30 5366 O 503.441 -1.22226 -1.78577 0
M  V30 5367 C 504.036 -3.28064 0.846118 0
M  V30 5368 C 502.595 -3.72428 0.545402 0
M  V30 5369 C 501.742 -2.56116 1.06301 0
M  V30 5370 H 504.693 -1.22153 1.01313 0
M  V30 5371 H 504.714 -3.80205 0.149922 0
M  V30 5372 H 504.226 -3.37107 1.92304 0
M  V30 5373 H 502.327 -3.68924 -0.522109 0
M  V30 5374 H 502.44 -4.66548 1.0895 0
M  V30 5375 H 500.804 -2.50048 0.484554 0
M  V30 5376 H 501.587 -2.67928 2.14638 0
M  V30 5377 N 504.032 -0.577932 -1.46621 0
M  V30 5378 C 505.281 -0.0594281 -2.01612 0
M  V30 5379 C 505.594 1.30663 -1.45556 0
M  V30 5380 O 506.8 1.91621 -1.92337 0
M  V30 5381 C 505.256 -0.0556666 -3.59857 0
M  V30 5382 C 504.864 -1.41975 -4.24908 0
M  V30 5383 C 506.608 0.409143 -4.22524 0
M  V30 5384 C 504.515 -1.37397 -5.75218 0
M  V30 5385 H 503.445 -0.0184469 -0.753774 0
M  V30 5386 H 506.096 -0.728869 -1.68404 0
M  V30 5387 H 504.478 0.679843 -3.90121 0
M  V30 5388 H 505.652 -2.17461 -4.0626 0
M  V30 5389 H 503.967 -1.82419 -3.74316 0
M  V30 5390 H 506.564 0.46211 -5.32699 0
M  V30 5391 H 506.907 1.42565 -3.91128 0
M  V30 5392 H 507.44 -0.272152 -3.96868 0
M  V30 5393 H 504.179 -2.36714 -6.11267 0
M  V30 5394 H 503.699 -0.661239 -5.96144 0
M  V30 5395 H 505.378 -1.08484 -6.3784 0
M  V30 5396 N 505.51 1.54411 -0.315457 0
M  V30 5397 C 506.756 2.01425 0.282775 0
M  V30 5398 C 507.111 1.19978 1.5041 0
M  V30 5399 O 506.404 0.271766 1.89663 0
M  V30 5400 C 506.598 3.50936 0.676652 0
M  V30 5401 C 506.427 4.46856 -0.504954 0
M  V30 5402 C 505.197 4.95275 -1.00152 0
M  V30 5403 C 507.395 4.96141 -1.35456 0
M  V30 5404 N 505.377 5.75081 -2.14838 0
M  V30 5405 C 506.748 5.73791 -2.3487 0
M  V30 5406 C 508.803 4.78299 -1.38327 0
M  V30 5407 C 507.506 6.35498 -3.36949 0
M  V30 5408 C 509.532 5.40836 -2.39271 0
M  V30 5409 C 508.894 6.1833 -3.37413 0
M  V30 5410 H 504.993 0.779078 0.0675398 0
M  V30 5411 H 507.577 1.8946 -0.448656 0
M  V30 5412 H 505.748 3.63162 1.37723 0
M  V30 5413 H 507.48 3.84728 1.25566 0
M  V30 5414 H 504.235 4.70107 -0.574123 0
M  V30 5415 H 504.659 6.19664 -2.72665 0
M  V30 5416 H 509.301 4.17956 -0.638196 0
M  V30 5417 H 507.019 6.94967 -4.12367 0
M  V30 5418 H 510.605 5.28952 -2.42284 0
M  V30 5419 H 509.485 6.65861 -4.14244 0
M  V30 5420 N 506.988 0.0434614 1.5754 0
M  V30 5421 C 507.92 -0.962586 2.08007 0
M  V30 5422 C 508.933 -1.27972 1.00634 0
M  V30 5423 O 510.122 -1.24186 1.28219 0
M  V30 5424 C 507.222 -2.28621 2.50171 0
M  V30 5425 C 506.395 -2.15214 3.80791 0
M  V30 5426 C 505.454 -3.30633 4.09351 0
M  V30 5427 O 504.48 -3.0688 4.79388 0
M  V30 5428 N 505.682 -4.54873 3.60654 0
M  V30 5429 H 508.447 -0.531891 2.94942 0
M  V30 5430 H 506.008 -0.142965 1.61268 0
M  V30 5431 H 508 -3.04689 2.66359 0
M  V30 5432 H 506.57 -2.63283 1.68525 0
M  V30 5433 H 505.79 -1.23785 3.74261 0
M  V30 5434 H 507.078 -2.03475 4.66343 0
M  V30 5435 H 506.476 -4.77063 3.04019 0
M  V30 5436 H 505.033 -5.2806 3.82094 0
M  V30 5437 N 508.466 -1.55915 -0.229846 0
M  V30 5438 C 509.882 -1.48721 -0.579166 0
M  V30 5439 C 510.082 -0.736976 -1.87539 0
M  V30 5440 O 509.138 -0.273258 -2.51017 0
M  V30 5441 C 510.451 -2.9323 -0.666082 0
M  V30 5442 C 511.999 -3.03701 -0.757267 0
M  V30 5443 C 512.474 -4.49552 -0.8756 0
M  V30 5444 N 513.965 -4.53561 -0.940035 0
M  V30 5445 C 514.7 -5.63683 -1.05116 0
M  V30 5446 N 514.196 -6.83576 -1.12675 0
M  V30 5447 N 515.989 -5.51516 -1.08565 0
M  V30 5448 H 508.14 -2.03123 0.620857 0
M  V30 5449 H 510.403 -0.922898 0.21671 0
M  V30 5450 H 510.109 -3.51032 0.21664 0
M  V30 5451 H 509.983 -3.44668 -1.53243 0
M  V30 5452 H 512.37 -2.45969 -1.63043 0
M  V30 5453 H 512.451 -2.55446 0.134583 0
M  V30 5454 H 512.095 -5.079 -0.00692351 0
M  V30 5455 H 512.025 -4.95506 -1.78274 0
M  V30 5456 H 514.516 -3.67215 -0.892269 0
M  V30 5457 H 514.829 -7.63251 -1.21109 0
M  V30 5458 H 513.174 -6.86303 -1.09603 0
M  V30 5459 H 516.365 -4.5678 -1.02319 0
M  V30 5460 H 516.538 -6.37372 -1.1688 0
M  V30 5461 N 509.944 0.496216 -1.49584 0
M  V30 5462 C 511.355 1.07765 -1.52459 0
M  V30 5463 C 511.706 1.93679 -0.31353 0
M  V30 5464 O 510.831 2.08588 0.576186 0
M  V30 5465 C 511.426 1.96111 -2.76271 0
M  V30 5466 C 509.985 2.49409 -2.81908 0
M  V30 5467 C 509.132 1.27142 -2.46435 0
M  V30 5468 H 512.083 0.279914 -1.56212 0
M  V30 5469 H 512.104 2.80862 -2.56704 0
M  V30 5470 H 511.616 1.33555 -3.64396 0
M  V30 5471 H 509.717 3.1559 -1.98074 0
M  V30 5472 H 509.83 2.86234 -3.84196 0
M  V30 5473 H 508.194 1.59818 -1.98319 0
M  V30 5474 H 508.977 0.662866 -3.3684 0
M  V30 5475 N 511.423 1.38739 0.74761 0
M  V30 5476 C 512.648 1.38702 1.54197 0
M  V30 5477 C 513.073 -0.019664 1.8809 0
M  V30 5478 O 512.431 -1.00333 1.51006 0
M  V30 5479 C 512.479 2.25492 2.814 0
M  V30 5480 O 511.583 1.67613 3.76802 0
M  V30 5481 H 510.924 0.472863 0.466151 0
M  V30 5482 H 513.454 1.82577 0.923413 0
M  V30 5483 H 513.464 2.39561 3.30264 0
M  V30 5484 H 512.139 3.27727 2.56062 0
M  V30 5485 H 510.716 1.62718 3.35526 0
M  V30 5486 N 512.901 -0.976442 1.23707 0
M  V30 5487 C 513.848 -2.06952 1.02174 0
M  V30 5488 C 514.818 -1.65984 -0.0621034 0
M  V30 5489 O 516.003 -1.90584 0.0907906 0
M  V30 5490 C 513.143 -3.39425 0.62327 0
M  V30 5491 C 512.256 -3.9364 1.77966 0
M  V30 5492 C 511.391 -5.14343 1.3276 0
M  V30 5493 C 510.43 -5.60733 2.45449 0
M  V30 5494 N 509.567 -6.72662 2.01172 0
M  V30 5495 H 514.407 -2.24704 1.95734 0
M  V30 5496 H 511.944 -1.10143 0.975034 0
M  V30 5497 H 513.902 -4.15526 0.37332 0
M  V30 5498 H 512.532 -3.21624 -0.275329 0
M  V30 5499 H 511.584 -3.14258 2.14351 0
M  V30 5500 H 512.896 -4.24035 2.62671 0
M  V30 5501 H 512.05 -5.97789 1.03601 0
M  V30 5502 H 510.789 -4.8561 0.450975 0
M  V30 5503 H 509.794 -4.75865 2.75378 0
M  V30 5504 H 511.019 -5.91483 3.33654 0
M  V30 5505 H 508.965 -6.45681 1.15895 0
M  V30 5506 H 508.882 -7.02462 2.79434 0
M  V30 5507 H 510.15 -7.59572 1.75129 0
M  V30 5508 N 514.379 -1.04941 -1.1758 0
M  V30 5509 C 515.289 -0.658826 -2.25159 0
M  V30 5510 C 516.305 0.318941 -1.71052 0
M  V30 5511 O 517.481 0.171669 -2.00667 0
M  V30 5512 C 514.546 -0.0369522 -3.4668 0
M  V30 5513 C 513.607 -1.06484 -4.15884 0
M  V30 5514 C 512.84 -0.472551 -5.31604 0
M  V30 5515 O 513.063 0.718736 -5.65854 0
M  V30 5516 O 511.997 -1.20557 -5.89703 0
M  V30 5517 H 515.823 -1.55533 -2.60851 0
M  V30 5518 H 513.408 -0.820819 -1.24832 0
M  V30 5519 H 515.29 0.308784 -4.20267 0
M  V30 5520 H 513.965 0.833238 -3.12792 0
M  V30 5521 H 512.872 -1.46253 -3.44327 0
M  V30 5522 H 514.205 -1.9061 -4.53794 0
M  V30 5523 N 515.857 1.33968 -0.830081 0
M  V30 5524 C 517.103 1.98357 -0.422191 0
M  V30 5525 C 517.436 1.65633 1.01387 0
M  V30 5526 O 516.711 0.931648 1.70735 0
M  V30 5527 C 516.994 3.54492 -0.633043 0
M  V30 5528 C 516.847 3.96934 -2.11574 0
M  V30 5529 C 518.166 4.40039 -0.0735584 0
M  V30 5530 H 515.285 0.720544 -0.154871 0
M  V30 5531 H 517.927 1.58749 -1.04397 0
M  V30 5532 H 516.077 3.88361 -0.103775 0
M  V30 5533 H 517.749 3.73363 -2.7092 0
M  V30 5534 H 515.992 3.46984 -2.60354 0
M  V30 5535 H 516.663 5.05651 -2.21406 0
M  V30 5536 H 519.139 4.12764 -0.52585 0
M  V30 5537 H 518.015 5.48327 -0.250841 0
M  V30 5538 H 518.276 4.30124 1.02202 0
M  V30 5539 N 517.335 0.585699 1.46312 0
M  V30 5540 C 518.245 -0.148236 2.34131 0
M  V30 5541 C 519.261 -0.882972 1.49932 0
M  V30 5542 O 520.437 -0.845484 1.82794 0
M  V30 5543 C 517.502 -1.14714 3.27172 0
M  V30 5544 C 516.563 -0.416746 4.27272 0
M  V30 5545 C 515.796 -1.36806 5.15868 0
M  V30 5546 O 516.019 -2.60475 5.07454 0
M  V30 5547 O 514.953 -0.877018 5.95476 0
M  V30 5548 H 518.779 0.572882 2.98248 0
M  V30 5549 H 516.364 0.346082 1.45336 0
M  V30 5550 H 518.246 -1.72303 3.84564 0
M  V30 5551 H 516.921 -1.84967 2.65648 0
M  V30 5552 H 515.828 0.201061 3.73559 0
M  V30 5553 H 517.161 0.244872 4.9159 0
M  V30 5554 N 518.813 -1.54241 0.323641 0
M  V30 5555 C 519.723 -2.28033 -0.551205 0
M  V30 5556 C 520.739 -1.32388 -1.12913 0
M  V30 5557 O 521.915 -1.65403 -1.14908 0
M  V30 5558 C 518.98 -3.02382 -1.69606 0
M  V30 5559 C 518.041 -4.13612 -1.14993 0
M  V30 5560 C 517.274 -4.84407 -2.24022 0
M  V30 5561 O 517.497 -4.54716 -3.44368 0
M  V30 5562 O 516.431 -5.71312 -1.89436 0
M  V30 5563 H 520.257 -3.03662 0.048066 0
M  V30 5564 H 517.842 -1.49133 0.0893289 0
M  V30 5565 H 519.724 -3.48941 -2.36259 0
M  V30 5566 H 518.399 -2.29628 -2.28151 0
M  V30 5567 H 517.306 -3.71402 -0.448484 0
M  V30 5568 H 518.639 -4.8841 -0.609608 0
M  V30 5569 N 520.291 -0.0518155 -1.57515 0
M  V30 5570 C 521.568 0.661727 -1.84067 0
M  V30 5571 C 521.948 1.88999 -0.940351 0
M  V30 5572 O 521.296 2.285 -0.00155404 0
M  V30 5573 C 521.506 1.01841 -3.3381 0
M  V30 5574 C 522.854 1.40043 -4.00841 0
M  V30 5575 O 523.878 1.11073 -3.38439 0
M  V30 5576 O 522.737 1.94111 -5.10865 0
M  V30 5577 H 519.831 0.326702 -0.759733 0
M  V30 5578 H 522.377 -0.0812277 -1.69505 0
M  V30 5579 H 521.149 0.145202 -3.91031 0
M  V30 5580 H 520.772 1.81879 -3.53562 0
M  V30 5581 N 521.769 1.56035 0.221574 0
M  V30 5582 C 522.679 1.95581 1.29558 0
M  V30 5583 C 523.695 0.859639 1.51282 0
M  V30 5584 O 524.871 1.16321 1.64413 0
M  V30 5585 C 521.936 2.26447 2.62531 0
M  V30 5586 C 520.997 3.49632 2.4911 0
M  V30 5587 C 520.23 3.79017 3.75742 0
M  V30 5588 O 520.453 3.10077 4.78757 0
M  V30 5589 O 519.387 4.72507 3.72855 0
M  V30 5590 H 523.213 2.8711 0.990035 0
M  V30 5591 H 520.798 1.43244 0.424434 0
M  V30 5592 H 522.68 2.47494 3.41064 0
M  V30 5593 H 521.355 1.38092 2.92766 0
M  V30 5594 H 520.262 3.33864 1.68777 0
M  V30 5595 H 521.595 4.3837 2.23814 0
M  V30 5596 N 523.247 -0.488276 1.49845 0
M  V30 5597 C 524.477 -1.26344 1.63465 0
M  V30 5598 C 524.885 -1.86637 0.310379 0
M  V30 5599 O 524.228 -1.69184 -0.715712 0
M  V30 5600 C 524.29 -2.42407 2.65479 0
M  V30 5601 C 523.954 -2.02886 4.09495 0
M  V30 5602 C 524.951 -1.56124 4.95904 0
M  V30 5603 C 522.636 -2.12131 4.55308 0
M  V30 5604 C 524.63 -1.19129 6.26169 0
M  V30 5605 C 522.317 -1.74747 5.85582 0
M  V30 5606 C 523.315 -1.28322 6.70837 0
M  V30 5607 O 523.003 -0.914491 7.98682 0
M  V30 5608 H 522.735 -0.388921 0.552916 0
M  V30 5609 H 525.289 -0.591288 1.96705 0
M  V30 5610 H 523.519 -3.12739 2.27445 0
M  V30 5611 H 525.208 -3.04409 2.68495 0
M  V30 5612 H 525.974 -1.48417 4.61733 0
M  V30 5613 H 521.853 -2.47217 3.89107 0
M  V30 5614 H 525.397 -0.828211 6.92666 0
M  V30 5615 H 521.294 -1.82109 6.19279 0
M  V30 5616 H 522.062 -1.04485 8.11804 0
M  V30 5617 N 524.725 -1.39134 -0.740242 0
M  V30 5618 C 525.672 -1.37434 -1.8542 0
M  V30 5619 C 526.642 -0.234822 -1.64432 0
M  V30 5620 O 527.827 -0.429125 -1.85912 0
M  V30 5621 C 524.967 -1.21844 -3.22875 0
M  V30 5622 C 524.08 -2.45296 -3.55603 0
M  V30 5623 C 523.215 -2.22334 -4.82432 0
M  V30 5624 C 522.254 -3.41488 -5.07988 0
M  V30 5625 N 521.391 -3.17877 -6.26018 0
M  V30 5626 H 526.231 -2.3266 -1.86207 0
M  V30 5627 H 523.768 -1.15578 -0.909946 0
M  V30 5628 H 525.726 -1.10818 -4.02213 0
M  V30 5629 H 524.356 -0.3025 -3.21379 0
M  V30 5630 H 523.408 -2.66945 -2.71006 0
M  V30 5631 H 524.72 -3.34063 -3.7041 0
M  V30 5632 H 523.874 -2.0852 -5.69741 0
M  V30 5633 H 522.613 -1.30954 -4.6979 0
M  V30 5634 H 521.618 -3.55807 -4.19144 0
M  V30 5635 H 522.843 -4.33763 -5.22519 0
M  V30 5636 H 520.789 -2.29156 -6.14673 0
M  V30 5637 H 520.706 -4.00198 -6.41387 0
M  V30 5638 H 521.974 -3.07746 -7.16179 0
M  V30 5639 N 526.204 0.969867 -1.24223 0
M  V30 5640 C 527.167 2.04564 -1.03373 0
M  V30 5641 C 528.167 1.60798 0.00819206 0
M  V30 5642 O 529.357 1.72641 -0.232567 0
M  V30 5643 C 526.489 3.36163 -0.566343 0
M  V30 5644 H 527.682 2.24494 -1.98853 0
M  V30 5645 H 525.235 1.1448 -1.06415 0
M  V30 5646 H 525.97 3.21925 0.391751 0
M  V30 5647 H 525.755 3.69273 -1.31834 0
M  V30 5648 H 527.245 4.1526 -0.441435 0
M  V30 5649 N 527.682 1.05563 1.17022 0
M  V30 5650 C 528.929 0.767937 1.87374 0
M  V30 5651 C 529.257 -0.705224 1.81265 0
M  V30 5652 O 528.512 -1.5318 1.21796 0
M  V30 5653 C 528.811 1.19849 3.36706 0
M  V30 5654 C 528.477 2.6745 3.63017 0
M  V30 5655 C 527.139 3.0777 3.69907 0
M  V30 5656 C 529.491 3.62811 3.74189 0
M  V30 5657 C 526.819 4.42307 3.85463 0
M  V30 5658 C 529.171 4.97087 3.91264 0
M  V30 5659 C 527.835 5.37055 3.96394 0
M  V30 5660 H 527.105 0.281008 0.68565 0
M  V30 5661 H 529.752 1.32339 1.38415 0
M  V30 5662 H 528.057 0.562096 3.87747 0
M  V30 5663 H 529.754 0.953038 3.8951 0
M  V30 5664 H 526.344 2.35228 3.58282 0
M  V30 5665 H 530.528 3.32798 3.68183 0
M  V30 5666 H 525.784 4.72769 3.87684 0
M  V30 5667 H 529.958 5.70869 3.9885 0
M  V30 5668 H 527.585 6.41308 4.082 0
M  V30 5669 N 529.16 -1.33526 0.837174 0
M  V30 5670 C 530.39 -2.01754 0.444848 0
M  V30 5671 C 530.798 -1.63149 -0.958072 0
M  V30 5672 O 530.141 -0.839827 -1.63379 0
M  V30 5673 C 530.203 -3.56228 0.483917 0
M  V30 5674 C 529.867 -4.18205 1.84265 0
M  V30 5675 C 530.864 -4.37699 2.80563 0
M  V30 5676 C 528.549 -4.54667 2.13503 0
M  V30 5677 C 530.543 -4.928 4.04261 0
M  V30 5678 C 528.23 -5.09475 3.37458 0
M  V30 5679 C 529.228 -5.28488 4.32654 0
M  V30 5680 O 528.916 -5.82132 5.54417 0
M  V30 5681 H 528.648 -0.652928 0.175104 0
M  V30 5682 H 531.202 -1.71469 1.13082 0
M  V30 5683 H 529.432 -3.85833 -0.258826 0
M  V30 5684 H 531.121 -4.05752 0.109653 0
M  V30 5685 H 531.887 -4.0988 2.59274 0
M  V30 5686 H 527.766 -4.39164 1.40201 0
M  V30 5687 H 531.31 -5.07555 4.78574 0
M  V30 5688 H 527.207 -5.36725 3.58604 0
M  V30 5689 H 527.975 -6.00548 5.56133 0
M  V30 5690 N 530.638 -0.59345 -1.46 0
M  V30 5691 C 531.585 0.133618 -2.30413 0
M  V30 5692 C 532.555 0.873736 -1.41262 0
M  V30 5693 O 533.74 0.862279 -1.70204 0
M  V30 5694 C 530.88 1.13434 -3.25924 0
M  V30 5695 C 529.993 0.39656 -4.30176 0
M  V30 5696 C 529.128 1.38575 -5.12806 0
M  V30 5697 C 528.167 0.634984 -6.08797 0
M  V30 5698 N 527.304 1.57276 -6.84258 0
M  V30 5699 H 532.144 -0.592252 -2.92055 0
M  V30 5700 H 529.681 -0.303874 -1.43927 0
M  V30 5701 H 531.639 1.72752 -3.79753 0
M  V30 5702 H 530.269 1.82779 -2.66067 0
M  V30 5703 H 529.321 -0.311861 -3.79119 0
M  V30 5704 H 530.633 -0.189869 -4.98438 0
M  V30 5705 H 529.787 2.05141 -5.70966 0
M  V30 5706 H 528.526 2.00611 -4.44529 0
M  V30 5707 H 527.531 -0.0443925 -5.49782 0
M  V30 5708 H 528.756 0.0198678 -6.79097 0
M  V30 5709 H 526.702 2.18103 -6.18682 0
M  V30 5710 H 526.619 1.03941 -7.48821 0
M  V30 5711 H 527.887 2.22844 -7.46968 0
M  V30 5712 N 532.116 1.54067 -0.331816 0
M  V30 5713 C 533.341 2.05599 0.272705 0
M  V30 5714 C 533.766 1.2059 1.44359 0
M  V30 5715 O 533.124 0.216907 1.79998 0
M  V30 5716 C 533.172 3.54188 0.677021 0
M  V30 5717 O 532.276 3.72082 1.77844 0
M  V30 5718 H 531.617 0.662286 0.0476801 0
M  V30 5719 H 534.147 1.98826 -0.482624 0
M  V30 5720 H 534.157 3.96608 0.957415 0
M  V30 5721 H 532.832 4.15513 -0.179325 0
M  V30 5722 H 531.409 3.41566 1.49622 0
M  V30 5723 N 533.594 0.0601682 1.57485 0
M  V30 5724 C 534.841 -0.611594 1.93043 0
M  V30 5725 C 535.169 -1.70317 0.939274 0
M  V30 5726 O 534.424 -1.95644 -0.046996 0
M  V30 5727 C 534.723 -1.23831 3.35262 0
M  V30 5728 C 534.389 -0.274037 4.50066 0
M  V30 5729 C 533.051 -0.00872394 4.81199 0
M  V30 5730 C 535.403 0.386308 5.19766 0
M  V30 5731 C 532.731 0.924218 5.79375 0
M  V30 5732 C 535.083 1.3075 6.1894 0
M  V30 5733 C 533.747 1.58139 6.48497 0
M  V30 5734 H 533.017 -0.223798 0.706396 0
M  V30 5735 H 535.664 0.128566 1.91068 0
M  V30 5736 H 533.969 -2.05394 3.33647 0
M  V30 5737 H 535.666 -1.76517 3.60059 0
M  V30 5738 H 532.256 -0.491008 4.25778 0
M  V30 5739 H 536.44 0.194436 4.95919 0
M  V30 5740 H 531.696 1.1438 6.00606 0
M  V30 5741 H 535.87 1.82519 6.72056 0
M  V30 5742 H 533.497 2.30593 7.24383 0
M  V30 5743 N 535.072 -1.5615 -0.213296 0
M  V30 5744 C 536.297 -1.83986 -0.957282 0
M  V30 5745 C 536.722 -0.641526 -1.76822 0
M  V30 5746 O 536.08 0.409722 -1.7661 0
M  V30 5747 C 536.128 -3.09889 -1.84393 0
M  V30 5748 O 535.232 -2.89163 -2.94038 0
M  V30 5749 H 534.573 -0.606357 -0.270605 0
M  V30 5750 H 537.103 -2.03369 -0.224111 0
M  V30 5751 H 537.113 -3.40209 -2.25215 0
M  V30 5752 H 535.788 -3.96735 -1.24795 0
M  V30 5753 H 534.365 -2.70097 -2.57103 0
M  V30 5754 N 536.55 0.480323 -1.50102 0
M  V30 5755 C 537.497 1.57946 -1.6829 0
M  V30 5756 C 538.467 1.57611 -0.524223 0
M  V30 5757 O 539.652 1.75282 -0.753709 0
M  V30 5758 C 536.792 2.95978 -1.77457 0
M  V30 5759 C 535.905 3.06173 -3.04766 0
M  V30 5760 C 535.04 4.35063 -3.04784 0
M  V30 5761 C 534.079 4.38966 -4.26586 0
M  V30 5762 N 533.216 5.59314 -4.24396 0
M  V30 5763 H 538.056 1.41743 -2.62131 0
M  V30 5764 H 535.593 0.689304 -1.2995 0
M  V30 5765 H 537.551 3.76011 -1.80752 0
M  V30 5766 H 536.181 3.10837 -0.870637 0
M  V30 5767 H 535.233 2.19071 -3.10986 0
M  V30 5768 H 536.545 3.04916 -3.9475 0
M  V30 5769 H 535.699 5.23436 -3.06757 0
M  V30 5770 H 534.438 4.38915 -2.12614 0
M  V30 5771 H 533.443 3.48992 -4.24835 0
M  V30 5772 H 534.668 4.36813 -5.19972 0
M  V30 5773 H 532.614 5.63969 -3.35074 0
M  V30 5774 H 532.531 5.5976 -5.08138 0
M  V30 5775 H 533.799 6.49837 -4.30502 0
M  V30 5776 N 538.028 1.39524 0.732853 0
M  V30 5777 C 538.938 1.40695 1.87729 0
M  V30 5778 C 539.954 0.301496 1.71368 0
M  V30 5779 O 541.13 0.543313 1.93933 0
M  V30 5780 C 538.195 1.25098 3.23344 0
M  V30 5781 C 537.256 2.45634 3.52083 0
M  V30 5782 C 536.489 2.30772 4.81228 0
M  V30 5783 O 536.712 1.31233 5.55098 0
M  V30 5784 O 535.646 3.19799 5.09914 0
M  V30 5785 H 539.472 2.37168 1.89697 0
M  V30 5786 H 537.057 1.20663 0.880959 0
M  V30 5787 H 538.939 1.18541 4.04383 0
M  V30 5788 H 537.614 0.317209 3.22142 0
M  V30 5789 H 536.521 2.57767 2.71122 0
M  V30 5790 H 537.854 3.37712 3.58066 0
M  V30 5791 N 539.506 -0.963266 1.24736 0
M  V30 5792 C 540.731 -1.74699 1.11781 0
M  V30 5793 C 541.156 -1.85267 -0.325258 0
M  V30 5794 O 540.514 -1.32681 -1.23553 0
M  V30 5795 C 540.562 -3.14322 1.76731 0
M  V30 5796 O 539.666 -3.99043 1.04109 0
M  V30 5797 H 539.007 -0.53684 0.390767 0
M  V30 5798 H 541.537 -1.20801 1.65131 0
M  V30 5799 H 541.547 -3.64824 1.82668 0
M  V30 5800 H 540.222 -3.05946 2.81726 0
M  V30 5801 H 538.799 -3.5752 1.05991 0
M  V30 5802 N 540.985 -1.06182 -1.16461 0
M  V30 5803 C 542.262 -0.691364 -1.82974 0
M  V30 5804 C 542.642 0.827377 -1.9421 0
M  V30 5805 O 541.99 1.73723 -1.48434 0
M  V30 5806 C 542.2 -1.39199 -3.20038 0
M  V30 5807 C 543.548 -1.53647 -3.95825 0
M  V30 5808 O 544.572 -1.35181 -3.29552 0
M  V30 5809 O 543.431 -1.83932 -5.14618 0
M  V30 5810 H 540.525 -0.244605 -0.789998 0
M  V30 5811 H 543.071 -1.16203 -1.23673 0
M  V30 5812 H 541.843 -2.42766 -3.06888 0
M  V30 5813 H 541.466 -0.911335 -3.87015 0
M  V30 5814 N 542.463 1.3308 -0.844243 0
M  V30 5815 C 543.74 1.92178 -0.364261 0
M  V30 5816 C 544.12 1.76961 1.15101 0
M  V30 5817 O 543.468 1.16128 1.9679 0
M  V30 5818 C 543.678 3.393 -0.817106 0
M  V30 5819 C 545.026 4.16444 -0.828236 0
M  V30 5820 O 546.05 3.47975 -0.761062 0
M  V30 5821 O 544.909 5.38685 -0.920926 0
M  V30 5822 H 542.003 0.820411 -0.10419 0
M  V30 5823 H 544.549 1.41918 -0.930453 0
M  V30 5824 H 543.321 3.44272 -1.85991 0
M  V30 5825 H 542.944 3.96947 -0.227785 0
M  V30 5826 N 543.941 0.601185 1.45683 0
M  V30 5827 C 545.352 0.179659 1.85834 0
M  V30 5828 C 545.703 -1.26189 1.50236 0
M  V30 5829 O 544.828 -1.95587 0.925987 0
M  V30 5830 C 545.423 0.319277 3.37292 0
M  V30 5831 C 543.982 -0.0475092 3.7637 0
M  V30 5832 C 543.129 0.646692 2.69654 0
M  V30 5833 H 546.08 0.808268 1.36575 0
M  V30 5834 H 546.101 -0.4503 3.77826 0
M  V30 5835 H 545.613 1.36855 3.6317 0
M  V30 5836 H 543.714 -1.0962 3.5611 0
M  V30 5837 H 543.827 0.34168 4.7788 0
M  V30 5838 H 542.191 0.0849971 2.54558 0
M  V30 5839 H 542.974 1.69797 2.98369 0
M  V30 5840 N 545.419 -1.53889 0.339982 0
M  V30 5841 C 546.352 -2.21187 -0.561405 0
M  V30 5842 C 547.33 -1.19463 -1.10306 0
M  V30 5843 O 548.514 -1.48268 -1.164 0
M  V30 5844 C 545.641 -2.8865 -1.77198 0
M  V30 5845 C 544.687 -4.04232 -1.3601 0
M  V30 5846 S 545.52 -5.34129 -0.382909 0
M  V30 5847 C 546.676 -6.05094 -1.60039 0
M  V30 5848 H 546.909 -2.97298 0.0102092 0
M  V30 5849 H 544.442 -1.53901 0.124056 0
M  V30 5850 H 546.4 -3.28138 -2.4665 0
M  V30 5851 H 545.061 -2.12311 -2.3148 0
M  V30 5852 H 544.254 -4.50358 -2.2626 0
M  V30 5853 H 543.856 -3.66503 -0.745098 0
M  V30 5854 H 546.148 -6.2827 -2.53541 0
M  V30 5855 H 547.091 -6.98182 -1.18099 0
M  V30 5856 H 547.499 -5.35207 -1.79483 0
M  V30 5857 N 546.897 -0.0685191 -1.57451 0
M  V30 5858 C 547.86 0.885173 -2.11417 0
M  V30 5859 C 548.86 1.22853 -1.03748 0
M  V30 5860 O 550.05 1.16235 -1.2975 0
M  V30 5861 C 547.182 2.18964 -2.61281 0
M  V30 5862 H 548.375 0.417034 -2.96986 0
M  V30 5863 H 545.928 0.18014 -1.55258 0
M  V30 5864 H 546.663 2.70321 -1.79156 0
M  V30 5865 H 546.448 1.9534 -3.39977 0
M  V30 5866 H 547.938 2.87242 -3.0312 0
M  V30 5867 N 548.375 1.56261 0.205012 0
M  V30 5868 C 549.605 1.83874 0.942018 0
M  V30 5869 C 550.013 0.647595 1.77772 0
M  V30 5870 O 549.356 -0.393098 1.79445 0
M  V30 5871 C 549.418 3.05453 1.89575 0
M  V30 5872 C 549.082 4.39772 1.24296 0
M  V30 5873 C 550.079 5.16133 0.624724 0
M  V30 5874 C 547.764 4.86504 1.24978 0
M  V30 5875 C 549.758 6.37396 0.0220117 0
M  V30 5876 C 547.445 6.07705 0.643232 0
M  V30 5877 C 548.443 6.82993 0.0304164 0
M  V30 5878 O 548.131 8.019 -0.566654 0
M  V30 5879 H 547.863 0.614896 0.280854 0
M  V30 5880 H 550.417 2.04215 0.220285 0
M  V30 5881 H 548.647 2.80972 2.65691 0
M  V30 5882 H 550.336 3.19797 2.4997 0
M  V30 5883 H 551.102 4.81127 0.611666 0
M  V30 5884 H 546.981 4.27865 1.71616 0
M  V30 5885 H 550.525 6.96102 -0.456926 0
M  V30 5886 H 546.422 6.42181 0.653759 0
M  V30 5887 H 547.19 8.17192 -0.462588 0
M  V30 5888 N 549.853 -0.472356 1.50355 0
M  V30 5889 C 551.102 -1.2213 1.60522 0
M  V30 5890 C 551.415 -1.9312 0.310466 0
M  V30 5891 O 552.621 -2.69936 0.291029 0
M  V30 5892 C 551.077 -2.21909 2.83345 0
M  V30 5893 C 550.685 -1.56727 4.19691 0
M  V30 5894 C 552.429 -2.97453 3.02856 0
M  V30 5895 C 550.336 -2.54785 5.33703 0
M  V30 5896 H 549.266 -0.459543 0.597776 0
M  V30 5897 H 551.917 -0.491922 1.76783 0
M  V30 5898 H 550.299 -2.98133 2.60639 0
M  V30 5899 H 551.473 -0.863007 4.52646 0
M  V30 5900 H 549.788 -0.934685 4.05774 0
M  V30 5901 H 552.385 -3.70838 3.85205 0
M  V30 5902 H 552.728 -3.56764 2.14534 0
M  V30 5903 H 553.261 -2.28342 3.25737 0
M  V30 5904 H 550 -2.00214 6.24175 0
M  V30 5905 H 549.52 -3.23367 5.05167 0
M  V30 5906 H 551.199 -3.16639 5.64224 0
M  V30 5907 N 551.331 -1.39911 -0.725443 0
M  V30 5908 C 552.281 -1.35878 -1.83088 0
M  V30 5909 C 553.265 -0.237989 -1.5913 0
M  V30 5910 O 554.457 -0.476302 -1.70471 0
M  V30 5911 C 551.586 -1.21403 -3.21117 0
M  V30 5912 C 550.672 -2.38223 -3.50871 0
M  V30 5913 N 551.063 -3.63703 -3.51502 0
M  V30 5914 C 549.361 -2.31388 -3.81281 0
M  V30 5915 C 550.062 -4.4101 -3.79322 0
M  V30 5916 N 549.038 -3.7072 -3.97577 0
M  V30 5917 H 552.84 -2.3085 -1.81895 0
M  V30 5918 H 550.354 -1.33543 -0.924125 0
M  V30 5919 H 552.351 -1.16597 -4.00263 0
M  V30 5920 H 551.011 -0.273902 -3.23543 0
M  V30 5921 H 552.022 -3.96998 -3.32586 0
M  V30 5922 H 548.699 -1.45689 -3.91256 0
M  V30 5923 H 550.089 -5.49819 -3.86198 0
M  V30 5924 N 552.809 0.956637 -1.25245 0
M  V30 5925 C 554.056 1.701 -1.09874 0
M  V30 5926 C 554.384 1.91128 0.36062 0
M  V30 5927 O 553.639 1.47837 1.28229 0
M  V30 5928 C 553.938 3.08996 -1.79601 0
M  V30 5929 C 553.604 3.07774 -3.29523 0
M  V30 5930 C 552.266 3.07149 -3.70423 0
M  V30 5931 C 554.618 3.01257 -4.25316 0
M  V30 5932 C 551.946 2.97752 -5.0553 0
M  V30 5933 C 554.298 2.93403 -5.60444 0
M  V30 5934 C 552.962 2.91111 -6.00675 0
M  V30 5935 H 552.232 0.62244 -0.402056 0
M  V30 5936 H 554.879 1.1178 -1.55491 0
M  V30 5937 H 553.184 3.70848 -1.26408 0
M  V30 5938 H 554.881 3.65407 -1.65162 0
M  V30 5939 H 551.471 3.09032 -2.9698 0
M  V30 5940 H 555.655 3.00861 -3.9471 0
M  V30 5941 H 550.911 2.94346 -5.35883 0
M  V30 5942 H 555.085 2.87321 -6.34366 0
M  V30 5943 H 552.712 2.83586 -7.05325 0
M  V30 5944 N 554.287 1.06798 1.15896 0
M  V30 5945 C 555.515 0.808694 1.90441 0
M  V30 5946 C 555.93 -0.637506 1.77711 0
M  V30 5947 O 555.287 -1.43684 1.12522 0
M  V30 5948 C 555.338 1.20068 3.40978 0
M  V30 5949 O 555.059 2.59013 3.53333 0
M  V30 5950 C 556.56 0.96987 4.3256 0
M  V30 5951 H 553.78 0.292809 0.603742 0
M  V30 5952 H 556.324 1.42296 1.46874 0
M  V30 5953 H 554.479 0.630842 3.82229 0
M  V30 5954 H 554.893 2.7485 4.46719 0
M  V30 5955 H 556.367 1.29371 5.36626 0
M  V30 5956 H 556.844 -0.0941209 4.39099 0
M  V30 5957 H 557.45 1.52433 3.97044 0
M  V30 5958 N 555.766 -1.3263 0.851289 0
M  V30 5959 C 556.729 -2.27247 0.298541 0
M  V30 5960 C 557.729 -1.51467 -0.539847 0
M  V30 5961 O 558.919 -1.7061 -0.351843 0
M  V30 5962 C 556.051 -3.35964 -0.578004 0
M  V30 5963 H 557.244 -2.7765 1.13359 0
M  V30 5964 H 554.797 -1.43245 0.625354 0
M  V30 5965 H 555.532 -2.90823 -1.435 0
M  V30 5966 H 555.317 -3.92094 0.0220539 0
M  V30 5967 H 556.807 -4.06472 -0.957626 0
M  V30 5968 N 557.244 -0.608902 -1.45362 0
M  V30 5969 C 558.154 0.110969 -2.34337 0
M  V30 5970 C 559.17 0.859007 -1.51318 0
M  V30 5971 O 560.346 0.816296 -1.84116 0
M  V30 5972 C 557.411 1.09494 -3.28956 0
M  V30 5973 C 556.472 0.348718 -4.27881 0
M  V30 5974 C 555.705 1.28582 -5.17979 0
M  V30 5975 O 555.928 2.52369 -5.11533 0
M  V30 5976 O 554.862 0.782172 -5.96796 0
M  V30 5977 H 558.688 -0.620258 -2.97299 0
M  V30 5978 H 556.273 -0.36916 -1.44767 0
M  V30 5979 H 558.155 1.66163 -3.87257 0
M  V30 5980 H 556.83 1.80717 -2.68557 0
M  V30 5981 H 555.737 -0.260465 -3.73192 0
M  V30 5982 H 557.07 -0.323049 -4.91139 0
M  V30 5983 N 558.722 1.53707 -0.348139 0
M  V30 5984 C 559.97 2.00591 0.246478 0
M  V30 5985 C 560.291 1.23753 1.50699 0
M  V30 5986 O 559.561 0.345964 1.92821 0
M  V30 5987 H 558.141 0.741053 0.0940679 0
M  V30 5988 H 560.803 1.89139 -0.470354 0
M  V30 5989 H 559.899 3.08297 0.485714 0
M  V30 5990 N 560.2 0.0768682 1.57412 0
M  V30 5991 C 561.11 -0.903207 2.16516 0
M  V30 5992 C 562.126 -1.32341 1.12968 0
M  V30 5993 O 563.302 -1.39507 1.45258 0
M  V30 5994 C 560.367 -2.1508 2.71922 0
M  V30 5995 C 559.428 -1.78653 3.90361 0
M  V30 5996 C 558.661 -2.97465 4.43114 0
M  V30 5997 O 558.884 -4.11638 3.94854 0
M  V30 5998 O 557.818 -2.76987 5.3438 0
M  V30 5999 H 561.644 -0.430427 3.00634 0
M  V30 6000 H 559.229 -0.146485 1.4868 0
M  V30 6001 H 561.111 -2.8823 3.07411 0
M  V30 6002 H 559.786 -2.61446 1.9086 0
M  V30 6003 H 558.693 -1.0274 3.59716 0
M  V30 6004 H 560.026 -1.37066 4.7273 0
M  V30 6005 N 561.678 -1.56367 -0.196722 0
M  V30 6006 C 562.924 -1.80796 -0.918725 0
M  V30 6007 C 563.257 -0.650645 -1.82976 0
M  V30 6008 O 562.532 0.348889 -1.91345 0
M  V30 6009 C 562.815 -3.15472 -1.73636 0
M  V30 6010 C 562.668 -4.41693 -0.85015 0
M  V30 6011 C 563.987 -3.46824 -2.70927 0
M  V30 6012 H 561.106 -0.657702 -0.332561 0
M  V30 6013 H 563.748 -1.89086 -0.186186 0
M  V30 6014 H 561.898 -3.08536 -2.36088 0
M  V30 6015 H 563.57 -4.60673 -0.240459 0
M  V30 6016 H 561.813 -4.33517 -0.156785 0
M  V30 6017 H 562.484 -5.32419 -1.45719 0
M  V30 6018 H 564.96 -3.54049 -2.18607 0
M  V30 6019 H 563.836 -4.4218 -3.25219 0
M  V30 6020 H 564.097 -2.70236 -3.49893 0
M  V30 6021 N 563.156 0.464375 -1.50603 0
M  V30 6022 C 564.384 1.23907 -1.65695 0
M  V30 6023 C 564.799 1.85658 -0.343027 0
M  V30 6024 O 564.156 1.69529 0.675739 0
M  V30 6025 C 564.207 2.3429 -2.75301 0
M  V30 6026 O 563.928 1.7507 -4.01599 0
M  V30 6027 C 565.429 3.25051 -3.01424 0
M  V30 6028 H 562.649 0.374485 -0.556778 0
M  V30 6029 H 565.193 0.55353 -1.96866 0
M  V30 6030 H 563.348 2.98607 -2.46804 0
M  V30 6031 H 563.762 2.47812 -4.62266 0
M  V30 6032 H 565.236 3.98699 -3.81763 0
M  V30 6033 H 565.713 3.84227 -2.12758 0
M  V30 6034 H 566.319 2.66463 -3.31477 0
M  V30 6035 N 564.634 1.40294 0.718013 0
M  V30 6036 C 565.881 1.3844 1.47786 0
M  V30 6037 C 566.209 -0.0140838 1.94495 0
M  V30 6038 O 565.464 -0.998165 1.68331 0
M  V30 6039 C 565.763 2.31814 2.72024 0
M  V30 6040 C 565.429 3.79117 2.44093 0
M  V30 6041 C 564.091 4.19249 2.36185 0
M  V30 6042 C 566.443 4.72212 2.20602 0
M  V30 6043 C 563.771 5.50516 2.02851 0
M  V30 6044 C 566.123 6.03775 1.88781 0
M  V30 6045 C 564.787 6.42953 1.79354 0
M  V30 6046 H 564.057 0.506588 0.540786 0
M  V30 6047 H 566.704 1.72929 0.822663 0
M  V30 6048 H 565.009 1.90501 3.42369 0
M  V30 6049 H 566.706 2.27664 3.30106 0
M  V30 6050 H 563.296 3.47318 2.51133 0
M  V30 6051 H 567.48 4.42026 2.25669 0
M  V30 6052 H 562.736 5.79776 1.94088 0
M  V30 6053 H 566.91 6.75428 1.69617 0
M  V30 6054 H 564.537 7.44584 1.53291 0
M  V30 6055 N 566.112 -0.949982 1.2575 0
M  V30 6056 C 567.059 -2.04738 1.06541 0
M  V30 6057 C 568.029 -1.66078 -0.0268818 0
M  V30 6058 O 569.214 -1.90348 0.131196 0
M  V30 6059 C 566.354 -3.38027 0.695127 0
M  V30 6060 C 565.467 -3.89776 1.86276 0
M  V30 6061 C 564.602 -5.11411 1.4364 0
M  V30 6062 C 563.641 -5.554 2.57287 0
M  V30 6063 N 562.778 -6.68244 2.15395 0
M  V30 6064 H 567.618 -2.20502 2.00457 0
M  V30 6065 H 565.155 -1.0805 0.998178 0
M  V30 6066 H 567.113 -4.14641 0.461375 0
M  V30 6067 H 565.743 -3.22135 -0.207046 0
M  V30 6068 H 564.795 -3.0964 2.20969 0
M  V30 6069 H 566.107 -4.18368 2.71606 0
M  V30 6070 H 565.261 -5.95457 1.16257 0
M  V30 6071 H 564 -4.84545 0.553879 0
M  V30 6072 H 563.005 -4.69916 2.85409 0
M  V30 6073 H 564.23 -5.84272 3.46125 0
M  V30 6074 H 562.176 -6.43078 1.29565 0
M  V30 6075 H 562.093 -6.96377 2.94272 0
M  V30 6076 H 563.361 -7.55687 1.91201 0
M  V30 6077 N 567.59 -1.07411 -1.15328 0
M  V30 6078 C 568.815 -0.818856 -1.90551 0
M  V30 6079 C 569.24 0.622194 -1.77512 0
M  V30 6080 O 568.598 1.43484 -1.10824 0
M  V30 6081 C 568.646 -1.23267 -3.38877 0
M  V30 6082 O 567.75 -0.378345 -4.10661 0
M  V30 6083 H 567.091 -0.29827 -0.593238 0
M  V30 6084 H 569.621 -1.43289 -1.46046 0
M  V30 6085 H 569.631 -1.20912 -3.89672 0
M  V30 6086 H 568.306 -2.28226 -3.47686 0
M  V30 6087 H 566.883 -0.464437 -3.69996 0
M  V30 6088 N 569.068 1.32177 -0.85831 0
M  V30 6089 C 570.317 1.96392 -0.459689 0
M  V30 6090 C 570.63 1.68659 0.990632 0
M  V30 6091 O 571.836 2.26641 1.49485 0
M  V30 6092 C 570.292 3.51542 -0.7711 0
M  V30 6093 C 569.9 3.8813 -2.2374 0
M  V30 6094 C 571.644 4.2221 -0.44038 0
M  V30 6095 C 569.551 5.36341 -2.49183 0
M  V30 6096 H 568.481 0.735007 -0.168169 0
M  V30 6097 H 571.132 1.50518 -1.0496 0
M  V30 6098 H 569.514 3.95846 -0.11058 0
M  V30 6099 H 570.688 3.54824 -2.94001 0
M  V30 6100 H 569.003 3.30497 -2.533 0
M  V30 6101 H 571.6 5.31234 -0.607855 0
M  V30 6102 H 571.943 4.11683 0.618291 0
M  V30 6103 H 572.476 3.83502 -1.05695 0
M  V30 6104 H 569.215 5.51892 -3.53689 0
M  V30 6105 H 568.735 5.7104 -1.83504 0
M  V30 6106 H 570.414 6.03466 -2.33318 0
M  V30 6107 N 570.547 0.616602 1.45037 0
M  V30 6108 C 571.477 -0.0840787 2.33349 0
M  V30 6109 C 572.458 -0.849641 1.4736 0
M  V30 6110 O 573.643 -0.818407 1.76113 0
M  V30 6111 C 570.773 -1.07604 3.3021 0
M  V30 6112 C 569.727 -0.423096 4.25904 0
M  V30 6113 C 569.053 -1.52394 5.12523 0
M  V30 6114 C 570.353 0.661457 5.18095 0
M  V30 6115 H 572.047 0.653333 2.92185 0
M  V30 6116 H 569.593 0.315634 1.40498 0
M  V30 6117 H 571.546 -1.57485 3.90866 0
M  V30 6118 H 570.27 -1.84416 2.69552 0
M  V30 6119 H 568.929 0.05493 3.66559 0
M  V30 6120 H 568.577 -2.28257 4.48227 0
M  V30 6121 H 568.277 -1.09251 5.77354 0
M  V30 6122 H 569.801 -2.02485 5.76049 0
M  V30 6123 H 571.215 0.246353 5.7277 0
M  V30 6124 H 569.612 1.01517 5.91451 0
M  V30 6125 H 570.682 1.53446 4.59981 0
M  V30 6126 N 572.025 -1.5352 0.356285 0
M  V30 6127 C 573.272 -2.01117 -0.236303 0
M  V30 6128 C 573.6 -1.24381 -1.49531 0
M  V30 6129 O 572.855 -0.323057 -1.93015 0
M  V30 6130 C 573.154 -3.52607 -0.583369 0
M  V30 6131 C 572.82 -4.47151 0.58023 0
M  V30 6132 C 571.482 -4.72718 0.899528 0
M  V30 6133 C 573.834 -5.03137 1.36024 0
M  V30 6134 C 571.162 -5.51523 2.00098 0
M  V30 6135 C 573.514 -5.83145 2.45204 0
M  V30 6136 C 572.178 -6.07001 2.77679 0
M  V30 6137 H 571.448 -0.735938 -0.0864695 0
M  V30 6138 H 574.095 -1.85209 0.48683 0
M  V30 6139 H 572.4 -3.66413 -1.38739 0
M  V30 6140 H 574.097 -3.86901 -1.05397 0
M  V30 6141 H 570.687 -4.27394 0.321322 0
M  V30 6142 H 574.871 -4.83339 1.12682 0
M  V30 6143 H 570.127 -5.68229 2.25668 0
M  V30 6144 H 574.301 -6.25537 3.06067 0
M  V30 6145 H 571.928 -6.67851 3.63151 0
M  V30 6146 N 573.503 -0.0852151 -1.57369 0
M  V30 6147 C 574.749 0.581666 -1.94279 0
M  V30 6148 C 575.082 1.68444 -0.966446 0
M  V30 6149 O 574.357 1.945 0.00215277 0
M  V30 6150 C 574.64 1.14609 -3.41375 0
M  V30 6151 C 574.493 0.0490414 -4.49773 0
M  V30 6152 C 575.812 2.04751 -3.8957 0
M  V30 6153 H 572.931 0.209972 -0.706456 0
M  V30 6154 H 575.573 -0.153915 -1.89376 0
M  V30 6155 H 573.723 1.77297 -3.45685 0
M  V30 6156 H 575.395 -0.584721 -4.57579 0
M  V30 6157 H 573.638 -0.618638 -4.29366 0
M  V30 6158 H 574.309 0.484601 -5.49869 0
M  V30 6159 H 576.785 1.51981 -3.87351 0
M  V30 6160 H 575.661 2.41173 -4.93079 0
M  V30 6161 H 575.922 2.96107 -3.28288 0
M  V30 6162 N 574.981 1.5647 0.188427 0
M  V30 6163 C 576.392 1.70864 0.752494 0
M  V30 6164 C 576.743 0.692905 1.83557 0
M  V30 6165 O 575.868 -0.149307 2.15884 0
M  V30 6166 C 576.463 3.09789 1.37173 0
M  V30 6167 C 575.022 3.25925 1.88281 0
M  V30 6168 C 574.169 2.66817 0.755259 0
M  V30 6169 H 577.12 1.58657 -0.0367408 0
M  V30 6170 H 577.141 3.07489 2.24122 0
M  V30 6171 H 576.653 3.83693 0.583219 0
M  V30 6172 H 574.754 2.56948 2.6983 0
M  V30 6173 H 574.867 4.33498 2.04001 0
M  V30 6174 H 573.231 2.2617 1.17128 0
M  V30 6175 H 574.014 3.43294 -0.0211237 0
M  V30 6176 N 576.459 -0.456382 1.50847 0
M  V30 6177 C 577.687 -1.23026 1.66349 0
M  V30 6178 C 578.102 -1.85473 0.352868 0
M  V30 6179 O 577.459 -1.69885 -0.666739 0
M  V30 6180 C 577.51 -2.32827 2.76539 0
M  V30 6181 O 577.231 -1.72938 4.02522 0
M  V30 6182 C 578.732 -3.23448 3.03144 0
M  V30 6183 H 575.952 -0.371527 0.558756 0
M  V30 6184 H 578.496 -0.543082 1.97157 0
M  V30 6185 H 576.651 -2.97294 2.48384 0
M  V30 6186 H 577.065 -2.45357 4.63573 0
M  V30 6187 H 578.539 -3.96669 3.83872 0
M  V30 6188 H 579.016 -3.83094 2.14793 0
M  V30 6189 H 579.622 -2.64702 3.32886 0
M  V30 6190 N 577.937 -1.40673 -0.710563 0
M  V30 6191 C 579.162 -1.42741 -1.50465 0
M  V30 6192 C 579.587 -0.0302116 -1.88076 0
M  V30 6193 O 578.945 0.962945 -1.53613 0
M  V30 6194 C 578.993 -2.32873 -2.75322 0
M  V30 6195 O 578.097 -1.77544 -3.72226 0
M  V30 6196 H 577.438 -0.485056 -0.45345 0
M  V30 6197 H 579.968 -1.84961 -0.874681 0
M  V30 6198 H 579.978 -2.48233 -3.23797 0
M  V30 6199 H 578.653 -3.34401 -2.47283 0
M  V30 6200 H 577.23 -1.71556 -3.31093 0
M  V30 6201 N 579.415 0.9433 -1.26252 0
M  V30 6202 C 580.378 2.02326 -1.07689 0
M  V30 6203 C 581.378 1.60779 -0.0259174 0
M  V30 6204 O 582.568 1.72108 -0.269134 0
M  V30 6205 C 579.7 3.34886 -0.63752 0
M  V30 6206 H 580.893 2.20225 -2.0357 0
M  V30 6207 H 578.446 1.12197 -1.08819 0
M  V30 6208 H 579.181 3.22684 0.323377 0
M  V30 6209 H 578.966 3.66393 -1.39637 0
M  V30 6210 H 580.456 4.14231 -0.529418 0
M  V30 6211 N 580.893 1.08022 1.14757 0
M  V30 6212 C 582.304 0.829144 1.67279 0
M  V30 6213 C 582.655 -0.644721 1.85305 0
M  V30 6214 O 581.78 -1.49838 1.56133 0
M  V30 6215 C 582.375 1.49855 3.03857 0
M  V30 6216 C 580.934 1.29482 3.53428 0
M  V30 6217 C 580.081 1.56386 2.28995 0
M  V30 6218 H 583.032 1.24134 0.988762 0
M  V30 6219 H 583.053 0.923572 3.69121 0
M  V30 6220 H 582.565 2.57123 2.90705 0
M  V30 6221 H 580.666 0.242669 3.71809 0
M  V30 6222 H 580.779 2.01974 4.34446 0
M  V30 6223 H 579.143 0.985217 2.34874 0
M  V30 6224 H 579.926 2.64851 2.18423 0
M  V30 6225 N 582.371 -1.3172 0.865308 0
M  V30 6226 C 583.787 -1.4958 0.556596 0
M  V30 6227 C 583.987 -1.79763 -0.910353 0
M  V30 6228 O 583.043 -1.87351 -1.6928 0
M  V30 6229 C 584.356 -2.63277 1.45279 0
M  V30 6230 C 585.904 -2.77161 1.45433 0
M  V30 6231 C 586.379 -3.93949 2.33598 0
M  V30 6232 N 587.87 -4.01228 2.31453 0
M  V30 6233 C 588.605 -4.90855 2.96393 0
M  V30 6234 N 588.101 -5.85416 3.70486 0
M  V30 6235 N 589.894 -4.84063 2.85726 0
M  V30 6236 H 582.045 -1.10396 1.81456 0
M  V30 6237 H 584.308 -0.54507 0.775631 0
M  V30 6238 H 584.014 -2.47734 2.49641 0
M  V30 6239 H 583.888 -3.59309 1.14792 0
M  V30 6240 H 586.275 -2.9212 0.41831 0
M  V30 6241 H 586.356 -1.8181 1.79941 0
M  V30 6242 H 586 -3.79748 3.37274 0
M  V30 6243 H 585.93 -4.88598 1.96417 0
M  V30 6244 H 588.421 -3.3357 1.77593 0
M  V30 6245 H 588.734 -6.50525 4.17178 0
M  V30 6246 H 587.079 -5.85409 3.74594 0
M  V30 6247 H 590.27 -4.09163 2.27384 0
M  V30 6248 H 590.443 -5.53708 3.36617 0
M  V30 6249 N 583.85 -0.624285 -1.44708 0
M  V30 6250 C 585.098 -0.125802 -2.01708 0
M  V30 6251 C 585.418 1.2543 -1.49306 0
M  V30 6252 O 584.689 1.83198 -0.693924 0
M  V30 6253 H 583.269 -0.0435161 -0.745731 0
M  V30 6254 H 585.931 -0.809446 -1.77296 0
M  V30 6255 H 585.027 -0.0882734 -3.11975 0
M  V30 6256 N 585.328 1.53329 -0.364422 0
M  V30 6257 C 586.258 2.28627 0.474543 0
M  V30 6258 C 587.239 1.31009 1.08492 0
M  V30 6259 O 588.424 1.59878 1.10239 0
M  V30 6260 C 585.554 3.07465 1.61501 0
M  V30 6261 C 584.508 4.1276 1.13194 0
M  V30 6262 C 583.834 4.79674 2.36255 0
M  V30 6263 C 585.134 5.21847 0.217507 0
M  V30 6264 H 586.828 2.99005 -0.153656 0
M  V30 6265 H 584.374 1.43803 -0.0753406 0
M  V30 6266 H 586.327 3.58889 2.20855 0
M  V30 6267 H 585.051 2.34775 2.27042 0
M  V30 6268 H 583.71 3.62281 0.56109 0
M  V30 6269 H 583.358 4.03557 3.00251 0
M  V30 6270 H 583.058 5.50827 2.04606 0
M  V30 6271 H 584.582 5.33892 2.96297 0
M  V30 6272 H 585.996 5.6878 0.718493 0
M  V30 6273 H 584.393 6.00099 -0.00806408 0
M  V30 6274 H 585.463 4.7921 -0.740653 0
M  V30 6275 N 586.806 0.0935595 1.57322 0
M  V30 6276 C 588.053 -0.570509 1.94297 0
M  V30 6277 C 588.381 -1.68286 0.97519 0
M  V30 6278 O 587.636 -1.95699 -0.00548655 0
M  V30 6279 C 587.935 -1.16692 3.37813 0
M  V30 6280 C 587.601 -0.178509 4.50547 0
M  V30 6281 C 586.263 0.0933475 4.81109 0
M  V30 6282 C 588.615 0.496472 5.1883 0
M  V30 6283 C 585.943 1.0469 5.77284 0
M  V30 6284 C 588.295 1.43849 6.16028 0
M  V30 6285 C 586.959 1.71859 6.44997 0
M  V30 6286 H 586.229 -0.208764 0.710984 0
M  V30 6287 H 588.876 0.169066 1.90752 0
M  V30 6288 H 587.181 -1.98271 3.37929 0
M  V30 6289 H 588.878 -1.6884 3.63722 0
M  V30 6290 H 585.468 -0.400584 4.26724 0
M  V30 6291 H 589.652 0.299584 4.95395 0
M  V30 6292 H 584.908 1.27094 5.98044 0
M  V30 6293 H 589.082 1.96734 6.68034 0
M  V30 6294 H 586.709 2.45906 7.19329 0
M  V30 6295 N 588.284 -1.56567 -0.180126 0
M  V30 6296 C 589.561 -1.7235 -0.924931 0
M  V30 6297 C 589.941 -0.652523 -2.00762 0
M  V30 6298 O 589.289 0.334115 -2.26044 0
M  V30 6299 C 589.499 -3.1523 -1.49771 0
M  V30 6300 C 590.847 -3.75921 -1.97405 0
M  V30 6301 O 591.871 -3.18452 -1.59583 0
M  V30 6302 O 590.73 -4.7681 -2.67048 0
M  V30 6303 H 587.824 -0.703502 -0.434758 0
M  V30 6304 H 590.37 -1.6886 -0.168647 0
M  V30 6305 H 589.142 -3.84656 -0.718027 0
M  V30 6306 H 588.765 -3.23009 -2.31842 0
M  V30 6307 N 589.762 0.448376 -1.51087 0
M  V30 6308 C 590.672 1.56882 -1.74428 0
M  V30 6309 C 591.688 1.62268 -0.62809 0
M  V30 6310 O 592.864 1.79716 -0.909075 0
M  V30 6311 C 589.929 2.92947 -1.85426 0
M  V30 6312 C 588.99 2.97766 -3.09247 0
M  V30 6313 C 588.223 4.27341 -3.19711 0
M  V30 6314 O 588.446 5.19112 -2.36387 0
M  V30 6315 O 587.38 4.38219 -4.12611 0
M  V30 6316 H 591.206 1.40104 -2.69452 0
M  V30 6317 H 588.791 0.630247 -1.35456 0
M  V30 6318 H 590.673 3.73719 -1.94709 0
M  V30 6319 H 589.348 3.09876 -0.935887 0
M  V30 6320 H 588.255 2.15989 -3.0545 0
M  V30 6321 H 589.588 2.8578 -4.00738 0
M  V30 6322 N 591.24 1.41047 0.703093 0
M  V30 6323 C 592.47 1.43133 1.48985 0
M  V30 6324 C 592.878 0.0328537 1.89171 0
M  V30 6325 O 592.221 -0.956469 1.56835 0
M  V30 6326 C 592.283 2.26991 2.78775 0
M  V30 6327 C 591.947 3.7525 2.60837 0
M  V30 6328 C 592.944 4.67591 2.27276 0
M  V30 6329 C 590.629 4.19208 2.76712 0
M  V30 6330 C 592.623 6.01877 2.09817 0
M  V30 6331 C 590.31 5.53561 2.5887 0
M  V30 6332 C 591.308 6.4471 2.25472 0
M  V30 6333 O 590.996 7.76584 2.07778 0
M  V30 6334 H 590.728 0.489788 0.465922 0
M  V30 6335 H 593.282 1.85886 0.873822 0
M  V30 6336 H 591.512 1.79038 3.42757 0
M  V30 6337 H 593.201 2.20867 3.40547 0
M  V30 6338 H 593.967 4.34923 2.14633 0
M  V30 6339 H 589.846 3.48572 3.01693 0
M  V30 6340 H 593.39 6.72986 1.83671 0
M  V30 6341 H 589.287 5.85811 2.71102 0
M  V30 6342 H 590.055 7.87649 2.22601 0
M  V30 6343 N 592.718 -0.936591 1.26751 0
M  V30 6344 C 593.966 -1.67998 1.12343 0
M  V30 6345 C 594.287 -1.92137 -0.332938 0
M  V30 6346 O 593.557 -1.52132 -1.23421 0
M  V30 6347 H 592.137 -0.622609 0.412756 0
M  V30 6348 H 594.799 -1.12509 1.59147 0
M  V30 6349 H 593.895 -2.65185 1.64571 0
M  V30 6350 N 594.196 -1.08629 -1.14182 0
M  V30 6351 C 595.421 -0.83902 -1.89671 0
M  V30 6352 C 595.846 0.603332 -1.78161 0
M  V30 6353 O 595.204 1.42301 -1.12339 0
M  V30 6354 C 595.252 -1.26854 -3.37551 0
M  V30 6355 O 594.356 -0.42188 -4.10236 0
M  V30 6356 H 593.697 -0.304545 -0.590041 0
M  V30 6357 H 596.227 -1.4483 -1.44518 0
M  V30 6358 H 596.237 -1.25038 -3.88368 0
M  V30 6359 H 594.912 -2.31901 -3.45246 0
M  V30 6360 H 593.489 -0.503654 -3.69483 0
M  V30 6361 N 595.674 1.31259 -0.872281 0
M  V30 6362 C 596.621 2.28459 -0.327857 0
M  V30 6363 C 597.591 1.55831 0.574957 0
M  V30 6364 O 598.776 1.83965 0.506101 0
M  V30 6365 C 595.916 3.41985 0.462644 0
M  V30 6366 C 595.029 4.29458 -0.467949 0
M  V30 6367 C 594.164 5.30131 0.336903 0
M  V30 6368 C 593.203 6.0925 -0.58997 0
M  V30 6369 N 592.34 7.01872 0.178775 0
M  V30 6370 H 597.18 2.74414 -1.16193 0
M  V30 6371 H 594.717 1.34994 -0.584376 0
M  V30 6372 H 596.675 4.06547 0.936759 0
M  V30 6373 H 595.305 2.97134 1.2614 0
M  V30 6374 H 594.357 3.65318 -1.06052 0
M  V30 6375 H 595.669 4.84677 -1.17856 0
M  V30 6376 H 594.823 6.0038 0.873427 0
M  V30 6377 H 593.562 4.75573 1.08079 0
M  V30 6378 H 592.567 5.37889 -1.13823 0
M  V30 6379 H 593.792 6.65894 -1.33275 0
M  V30 6380 H 591.738 6.49721 0.905435 0
M  V30 6381 H 591.655 7.54522 -0.472452 0
M  V30 6382 H 592.923 7.76382 0.696454 0
M  V30 6383 N 597.152 0.631951 1.44375 0
M  V30 6384 C 598.099 -0.0724807 2.30686 0
M  V30 6385 C 599.069 -0.835975 1.43529 0
M  V30 6386 O 600.254 -0.816849 1.7243 0
M  V30 6387 C 597.394 -1.04753 3.28817 0
M  V30 6388 C 596.507 -0.282367 4.31076 0
M  V30 6389 C 595.642 -1.2493 5.163 0
M  V30 6390 C 594.681 -0.473349 6.10267 0
M  V30 6391 N 593.818 -1.39079 6.88187 0
M  V30 6392 H 598.658 0.669477 2.90383 0
M  V30 6393 H 596.195 0.341927 1.43071 0
M  V30 6394 H 598.153 -1.62623 3.842 0
M  V30 6395 H 596.783 -1.75661 2.70819 0
M  V30 6396 H 595.835 0.412268 3.78159 0
M  V30 6397 H 597.147 0.321955 4.9776 0
M  V30 6398 H 596.301 -1.89931 5.76204 0
M  V30 6399 H 595.04 -1.88755 4.49692 0
M  V30 6400 H 594.045 0.190142 5.49471 0
M  V30 6401 H 595.27 0.16019 6.78911 0
M  V30 6402 H 593.216 -2.01623 6.24247 0
M  V30 6403 H 593.133 -0.840513 7.51313 0
M  V30 6404 H 594.401 -2.02961 7.52613 0
M  V30 6405 N 598.631 -1.53133 0.372548 0
M  V30 6406 C 599.856 -2.0625 -0.218098 0
M  V30 6407 C 600.281 -1.24375 -1.41111 0
M  V30 6408 O 599.639 -0.264554 -1.79359 0
M  V30 6409 C 599.687 -3.55858 -0.582876 0
M  V30 6410 O 598.791 -3.76667 -1.67917 0
M  V30 6411 H 598.132 -0.663317 -0.030104 0
M  V30 6412 H 600.662 -1.97477 0.535169 0
M  V30 6413 H 600.672 -3.99007 -0.851925 0
M  V30 6414 H 599.347 -4.14892 0.289428 0
M  V30 6415 H 597.924 -3.45413 -1.40513 0
M  V30 6416 N 600.109 -0.101901 -1.5727 0
M  V30 6417 C 601.386 0.602832 -1.86079 0
M  V30 6418 C 601.766 1.85912 -1 0
M  V30 6419 O 601.114 2.28379 -0.0742488 0
M  V30 6420 C 601.324 0.911694 -3.36881 0
M  V30 6421 C 602.672 1.2722 -4.05093 0
M  V30 6422 O 603.696 1.0025 -3.41802 0
M  V30 6423 O 602.555 1.7776 -5.16782 0
M  V30 6424 H 599.649 0.302366 -0.769743 0
M  V30 6425 H 602.195 -0.135113 -1.69161 0
M  V30 6426 H 600.967 0.0207256 -3.91295 0
M  V30 6427 H 600.59 1.70538 -3.59169 0
M  V30 6428 N 601.587 1.56661 0.17182 0
M  V30 6429 C 602.817 1.85831 0.902804 0
M  V30 6430 C 603.225 0.685157 1.76358 0
M  V30 6431 O 602.568 -0.354947 1.80238 0
M  V30 6432 C 602.63 3.09406 1.83053 0
M  V30 6433 C 602.294 4.4231 1.1494 0
M  V30 6434 C 603.291 5.17342 0.515104 0
M  V30 6435 C 600.976 4.89045 1.14631 0
M  V30 6436 C 602.97 6.37299 -0.113194 0
M  V30 6437 C 600.657 6.08933 0.514184 0
M  V30 6438 C 601.655 6.82904 -0.114463 0
M  V30 6439 O 601.343 8.00518 -0.736622 0
M  V30 6440 H 601.075 0.620715 0.267748 0
M  V30 6441 H 603.629 2.04637 0.176918 0
M  V30 6442 H 601.859 2.86544 2.59672 0
M  V30 6443 H 603.548 3.25027 2.4313 0
M  V30 6444 H 604.314 4.82317 0.509474 0
M  V30 6445 H 600.193 4.31409 1.62502 0
M  V30 6446 H 603.737 6.94976 -0.604477 0
M  V30 6447 H 599.634 6.43423 0.517395 0
M  V30 6448 H 600.402 8.16027 -0.635822 0
M  V30 6449 N 603.065 -0.440357 1.51323 0
M  V30 6450 C 604.314 -1.18697 1.63076 0
M  V30 6451 C 604.627 -1.92418 0.35136 0
M  V30 6452 O 605.833 -2.69258 0.348221 0
M  V30 6453 C 604.289 -2.15849 2.87988 0
M  V30 6454 C 603.897 -1.47789 4.22921 0
M  V30 6455 C 605.641 -2.90962 3.09098 0
M  V30 6456 C 603.548 -2.43407 5.38987 0
M  V30 6457 H 602.478 -0.44676 0.607389 0
M  V30 6458 H 605.129 -0.454313 1.77787 0
M  V30 6459 H 603.511 -2.92537 2.66905 0
M  V30 6460 H 604.685 -0.7668 4.54375 0
M  V30 6461 H 603 -0.848404 4.07665 0
M  V30 6462 H 605.597 -3.62584 3.92985 0
M  V30 6463 H 605.94 -3.52133 2.22053 0
M  V30 6464 H 606.473 -2.21381 3.30507 0
M  V30 6465 H 603.212 -1.86929 6.28282 0
M  V30 6466 H 602.732 -3.12579 5.11913 0
M  V30 6467 H 604.411 -3.046 5.70813 0
M  V30 6468 N 604.543 -1.41418 -0.695603 0
M  V30 6469 C 605.49 -1.43264 -1.80954 0
M  V30 6470 C 606.46 -0.287016 -1.63601 0
M  V30 6471 O 607.645 -0.488054 -1.84452 0
M  V30 6472 C 604.785 -1.32054 -3.18835 0
M  V30 6473 C 603.898 -2.56485 -3.4762 0
M  V30 6474 C 603.033 -2.3757 -4.75115 0
M  V30 6475 C 602.072 -3.57477 -4.96867 0
M  V30 6476 N 601.209 -3.37632 -6.15588 0
M  V30 6477 H 606.049 -2.38467 -1.78711 0
M  V30 6478 H 603.586 -1.18415 -0.872715 0
M  V30 6479 H 605.544 -1.23558 -3.98484 0
M  V30 6480 H 604.174 -0.404592 -3.20254 0
M  V30 6481 H 603.226 -2.75432 -2.62376 0
M  V30 6482 H 604.538 -3.45678 -3.59594 0
M  V30 6483 H 603.692 -2.2654 -5.62818 0
M  V30 6484 H 602.431 -1.45834 -4.65386 0
M  V30 6485 H 601.436 -3.68961 -4.07612 0
M  V30 6486 H 602.661 -4.50167 -5.08455 0
M  V30 6487 H 600.607 -2.48596 -6.07072 0
M  V30 6488 H 600.524 -4.20401 -6.2833 0
M  V30 6489 H 601.792 -3.30375 -7.06026 0
M  V30 6490 N 606.021 0.929856 -1.27246 0
M  V30 6491 C 606.951 2.04722 -1.12299 0
M  V30 6492 C 607.932 1.70082 -0.0250464 0
M  V30 6493 O 609.117 1.93176 -0.199141 0
M  V30 6494 C 606.247 3.38721 -0.767145 0
M  V30 6495 C 605.201 3.87466 -1.81808 0
M  V30 6496 C 604.527 5.18246 -1.31626 0
M  V30 6497 C 605.827 4.11095 -3.22177 0
M  V30 6498 H 607.521 2.17485 -2.05769 0
M  V30 6499 H 605.067 1.04503 -0.990715 0
M  V30 6500 H 607.02 4.16366 -0.649413 0
M  V30 6501 H 605.744 3.25967 0.203259 0
M  V30 6502 H 604.403 3.12012 -1.92468 0
M  V30 6503 H 604.051 5.01881 -0.335378 0
M  V30 6504 H 603.751 5.51829 -2.01887 0
M  V30 6505 H 605.275 5.98462 -1.21143 0
M  V30 6506 H 606.689 4.79316 -3.1453 0
M  V30 6507 H 605.086 4.55982 -3.90129 0
M  V30 6508 H 606.156 3.16468 -3.67391 0
M  V30 6509 N 607.499 1.09233 1.13605 0
M  V30 6510 C 608.729 0.847677 1.88409 0
M  V30 6511 C 609.137 -0.604524 1.79282 0
M  V30 6512 O 608.48 -1.42773 1.15592 0
M  V30 6513 C 608.542 1.20153 3.38827 0
M  V30 6514 C 608.206 2.65824 3.71735 0
M  V30 6515 C 609.203 3.64072 3.71143 0
M  V30 6516 C 606.888 3.01894 4.01454 0
M  V30 6517 C 608.882 4.96419 3.99808 0
M  V30 6518 C 606.569 4.34433 4.29781 0
M  V30 6519 C 607.567 5.31505 4.28942 0
M  V30 6520 O 607.255 6.61659 4.56576 0
M  V30 6521 H 606.987 0.304813 0.603378 0
M  V30 6522 H 609.541 1.4573 1.44748 0
M  V30 6523 H 607.771 0.534946 3.82982 0
M  V30 6524 H 609.46 0.936349 3.94952 0
M  V30 6525 H 610.226 3.37549 3.4826 0
M  V30 6526 H 606.105 2.26971 4.01255 0
M  V30 6527 H 609.649 5.7218 3.99069 0
M  V30 6528 H 605.546 4.607 4.52135 0
M  V30 6529 H 606.314 6.67102 4.74254 0
M  V30 6530 N 608.977 -1.30795 0.87923 0
M  V30 6531 C 610.223 -1.96653 0.495519 0
M  V30 6532 C 610.556 -1.69282 -0.951703 0
M  V30 6533 O 609.831 -0.994374 -1.6716 0
M  V30 6534 C 610.114 -3.51898 0.764174 0
M  V30 6535 C 609.967 -3.88808 2.2616 0
M  V30 6536 C 611.286 -4.39462 0.236825 0
M  V30 6537 H 608.405 -0.7143 0.181507 0
M  V30 6538 H 611.047 -1.54765 1.10217 0
M  V30 6539 H 609.197 -3.87709 0.247841 0
M  V30 6540 H 610.869 -3.63051 2.8459 0
M  V30 6541 H 609.112 -3.37082 2.73053 0
M  V30 6542 H 609.783 -4.97086 2.4002 0
M  V30 6543 H 612.259 -4.10528 0.678683 0
M  V30 6544 H 611.135 -5.47018 0.454176 0
M  V30 6545 H 611.396 -4.33621 -0.861683 0
M  V30 6546 N 610.455 -0.639598 -1.44038 0
M  V30 6547 C 611.871 -0.305953 -1.5664 0
M  V30 6548 C 612.071 1.19055 -1.62567 0
M  V30 6549 O 611.127 1.97492 -1.57331 0
M  V30 6550 C 612.44 -1.00533 -2.83397 0
M  V30 6551 C 613.988 -0.984278 -2.97121 0
M  V30 6552 C 614.463 -1.66428 -4.26691 0
M  V30 6553 N 615.954 -1.63127 -4.33525 0
M  V30 6554 C 616.689 -2.12629 -5.32519 0
M  V30 6555 N 616.185 -2.70359 -6.3787 0
M  V30 6556 N 617.978 -2.03208 -5.24083 0
M  V30 6557 H 610.129 -1.6109 -1.38434 0
M  V30 6558 H 612.392 -0.676672 -0.663942 0
M  V30 6559 H 612.098 -2.06034 -2.85032 0
M  V30 6560 H 611.972 -0.548362 -3.73193 0
M  V30 6561 H 614.359 0.0622792 -2.95034 0
M  V30 6562 H 614.44 -1.47981 -2.08651 0
M  V30 6563 H 614.084 -2.71034 -4.29538 0
M  V30 6564 H 614.014 -1.14351 -5.14034 0
M  V30 6565 H 616.505 -1.20987 -3.58009 0
M  V30 6566 H 616.818 -3.05842 -7.09704 0
M  V30 6567 H 615.163 -2.74414 -6.38531 0
M  V30 6568 H 618.354 -1.57823 -4.40692 0
M  V30 6569 H 618.527 -2.42097 -6.01077 0
M  V30 6570 N 611.933 1.52934 -0.380664 0
M  V30 6571 C 613.349 1.59571 -0.0302429 0
M  V30 6572 C 613.549 1.39509 1.45394 0
M  V30 6573 O 612.605 1.20777 2.21741 0
M  V30 6574 C 613.918 2.96519 -0.499691 0
M  V30 6575 C 615.466 3.09672 -0.455204 0
M  V30 6576 C 615.941 4.49056 -0.900703 0
M  V30 6577 N 617.432 4.55215 -0.856367 0
M  V30 6578 C 618.167 5.61282 -1.17259 0
M  V30 6579 N 617.663 6.75035 -1.55885 0
M  V30 6580 N 619.456 5.51343 -1.0944 0
M  V30 6581 H 611.607 1.64224 -1.347 0
M  V30 6582 H 613.87 0.771033 -0.551554 0
M  V30 6583 H 613.576 3.16388 -1.53595 0
M  V30 6584 H 613.45 3.77052 0.105789 0
M  V30 6585 H 615.837 2.89504 0.571949 0
M  V30 6586 H 615.918 2.31113 -1.09638 0
M  V30 6587 H 615.562 4.69964 -1.92604 0
M  V30 6588 H 615.492 5.26068 -0.236629 0
M  V30 6589 H 617.983 3.73546 -0.572013 0
M  V30 6590 H 618.296 7.51926 -1.784 0
M  V30 6591 H 616.641 6.76388 -1.59764 0
M  V30 6592 H 619.832 4.61356 -0.791713 0
M  V30 6593 H 620.005 6.33905 -1.34417 0
M  V30 6594 N 613.412 0.11024 1.57214 0
M  V30 6595 C 614.658 -0.550684 1.9518 0
M  V30 6596 C 614.991 -1.66885 0.993122 0
M  V30 6597 O 614.266 -1.94479 0.0287907 0
M  V30 6598 C 614.549 -1.09163 3.43155 0
M  V30 6599 C 614.402 0.0225198 4.49794 0
M  V30 6600 C 615.721 -1.98527 3.92778 0
M  V30 6601 H 612.84 -0.198706 0.709708 0
M  V30 6602 H 615.482 0.184024 1.89107 0
M  V30 6603 H 613.632 -1.71775 3.48462 0
M  V30 6604 H 615.304 0.657443 4.56591 0
M  V30 6605 H 613.547 0.686868 4.28328 0
M  V30 6606 H 614.218 -0.39706 5.5057 0
M  V30 6607 H 616.694 -1.458 3.8972 0
M  V30 6608 H 615.57 -2.33298 4.96853 0
M  V30 6609 H 615.831 -2.90846 3.32958 0
M  V30 6610 N 614.89 -1.56749 -0.16351 0
M  V30 6611 C 616.137 -1.82434 -0.878866 0
M  V30 6612 C 616.465 -0.688557 -1.81904 0
M  V30 6613 O 615.72 0.323644 -1.93005 0
M  V30 6614 C 616.019 -3.14342 -1.70071 0
M  V30 6615 C 615.685 -4.41647 -0.908775 0
M  V30 6616 C 614.347 -4.76224 -0.690236 0
M  V30 6617 C 616.699 -5.19998 -0.353815 0
M  V30 6618 C 614.027 -5.86624 0.0942374 0
M  V30 6619 C 616.379 -6.3122 0.41761 0
M  V30 6620 C 615.043 -6.64358 0.646879 0
M  V30 6621 H 614.313 -0.667574 -0.3216 0
M  V30 6622 H 616.96 -1.90963 -0.14337 0
M  V30 6623 H 615.265 -3.0119 -2.50583 0
M  V30 6624 H 616.962 -3.31426 -2.25738 0
M  V30 6625 H 613.552 -4.1453 -1.08916 0
M  V30 6626 H 617.736 -4.93673 -0.509975 0
M  V30 6627 H 612.992 -6.10751 0.281529 0
M  V30 6628 H 617.166 -6.91133 0.854849 0
M  V30 6629 H 614.793 -7.49742 1.25662 0
M  V30 6630 N 616.368 0.432326 -1.51554 0
M  V30 6631 C 617.617 1.17831 -1.63703 0
M  V30 6632 C 617.93 1.92229 -0.36156 0
M  V30 6633 O 619.136 2.69069 -0.362495 0
M  V30 6634 C 617.592 2.14318 -2.89129 0
M  V30 6635 C 617.2 1.45544 -4.23699 0
M  V30 6636 C 618.944 2.89319 -3.10636 0
M  V30 6637 C 616.851 2.40545 -5.4027 0
M  V30 6638 H 615.781 0.443533 -0.60975 0
M  V30 6639 H 618.432 0.444878 -1.78026 0
M  V30 6640 H 616.814 2.91117 -2.68452 0
M  V30 6641 H 617.988 0.742693 -4.54775 0
M  V30 6642 H 616.303 0.826772 -4.0811 0
M  V30 6643 H 618.9 3.60495 -3.94902 0
M  V30 6644 H 619.243 3.50951 -2.23918 0
M  V30 6645 H 619.776 2.19625 -3.31677 0
M  V30 6646 H 616.515 1.83594 -6.29264 0
M  V30 6647 H 616.035 3.09859 -5.13563 0
M  V30 6648 H 617.714 3.01569 -5.72421 0
M  V30 6649 N 617.846 1.41785 0.688094 0
M  V30 6650 C 619.074 1.44915 1.47673 0
M  V30 6651 C 619.489 0.0565786 1.88715 0
M  V30 6652 O 618.846 -0.92579 1.57275 0
M  V30 6653 C 618.897 2.36452 2.73446 0
M  V30 6654 O 618.618 3.7029 2.34131 0
M  V30 6655 C 620.119 2.48463 3.67125 0
M  V30 6656 H 617.339 0.493324 0.454832 0
M  V30 6657 H 619.883 1.86153 0.846594 0
M  V30 6658 H 618.038 1.98502 3.3268 0
M  V30 6659 H 618.452 4.19183 3.15255 0
M  V30 6660 H 619.926 3.16662 4.52138 0
M  V30 6661 H 620.403 1.51826 4.12123 0
M  V30 6662 H 621.009 2.8708 3.13792 0
M  V30 6663 N 619.324 -0.923095 1.27737 0
M  V30 6664 C 620.601 -1.64989 1.05062 0
M  V30 6665 C 620.981 -2.07018 -0.413124 0
M  V30 6666 O 620.329 -1.80797 -1.39731 0
M  V30 6667 C 620.539 -2.84847 2.01652 0
M  V30 6668 C 621.887 -3.56083 2.31279 0
M  V30 6669 O 622.911 -2.94981 1.99662 0
M  V30 6670 O 621.77 -4.66182 2.85196 0
M  V30 6671 H 618.864 -0.723357 0.400853 0
M  V30 6672 H 621.41 -0.973224 1.3902 0
M  V30 6673 H 620.182 -2.50814 3.00347 0
M  V30 6674 H 619.805 -3.60231 1.68284 0
M  V30 6675 N 620.802 -1.09834 -1.13024 0
M  V30 6676 C 622.079 -0.749225 -1.80682 0
M  V30 6677 C 622.459 0.765171 -1.96744 0
M  V30 6678 O 621.807 1.68912 -1.53886 0
M  V30 6679 C 622.017 -1.49311 -3.15448 0
M  V30 6680 C 623.365 -1.66162 -3.90737 0
M  V30 6681 O 624.389 -1.45597 -3.25085 0
M  V30 6682 O 623.248 -2.00211 -5.08505 0
M  V30 6683 H 620.342 -0.269614 -0.781817 0
M  V30 6684 H 622.888 -1.20078 -1.19914 0
M  V30 6685 H 621.66 -2.52407 -2.99009 0
M  V30 6686 H 621.283 -1.034 -3.8392 0
M  V30 6687 N 622.28 1.30327 -0.886154 0
M  V30 6688 C 623.527 1.96097 -0.505192 0
M  V30 6689 C 623.855 1.69952 0.945868 0
M  V30 6690 O 623.11 0.997653 1.68361 0
M  V30 6691 C 623.409 3.49906 -0.728042 0
M  V30 6692 C 623.075 3.96103 -2.15437 0
M  V30 6693 C 621.737 4.08428 -2.5444 0
M  V30 6694 C 624.089 4.20177 -3.08384 0
M  V30 6695 C 621.417 4.42189 -3.85598 0
M  V30 6696 C 623.769 4.55407 -4.39075 0
M  V30 6697 C 622.433 4.65941 -4.7797 0
M  V30 6698 H 621.703 0.71757 -0.184863 0
M  V30 6699 H 624.35 1.55171 -1.12223 0
M  V30 6700 H 622.655 3.9179 -0.027978 0
M  V30 6701 H 624.352 3.98869 -0.412862 0
M  V30 6702 H 620.942 3.87017 -1.84162 0
M  V30 6703 H 625.126 4.10134 -2.7947 0
M  V30 6704 H 620.382 4.48544 -4.15473 0
M  V30 6705 H 624.556 4.72986 -5.11133 0
M  V30 6706 H 622.183 4.91856 -5.79639 0
M  V30 6707 N 623.758 0.647228 1.43697 0
M  V30 6708 C 624.708 -0.0702191 2.27892 0
M  V30 6709 C 625.692 -0.800601 1.39568 0
M  V30 6710 O 626.884 -0.684055 1.63247 0
M  V30 6711 C 624.013 -1.04008 3.27165 0
M  V30 6712 C 623.099 -0.308484 4.22977 0
M  V30 6713 N 623.49 0.671721 5.0132 0
M  V30 6714 C 621.788 -0.550751 4.42586 0
M  V30 6715 C 622.489 1.10543 5.711 0
M  V30 6716 N 621.465 0.440903 5.41809 0
M  V30 6717 H 625.267 0.682031 2.85877 0
M  V30 6718 H 622.781 0.474022 1.55328 0
M  V30 6719 H 624.778 -1.56881 3.86256 0
M  V30 6720 H 623.438 -1.79246 2.70742 0
M  V30 6721 H 624.449 1.0502 5.0714 0
M  V30 6722 H 621.126 -1.28476 3.97241 0
M  V30 6723 H 622.516 1.91614 6.43998 0
M  V30 6724 N 625.236 -1.5273 0.388769 0
M  V30 6725 C 626.513 -1.93981 -0.251133 0
M  V30 6726 C 626.893 -1.32418 -1.64404 0
M  V30 6727 O 626.241 -0.492074 -2.23139 0
M  V30 6728 C 626.451 -3.47891 -0.27802 0
M  V30 6729 C 627.799 -4.21559 -0.507229 0
M  V30 6730 O 628.823 -3.54394 -0.358252 0
M  V30 6731 O 627.682 -5.40626 -0.799094 0
M  V30 6732 H 624.776 -0.812157 -0.15598 0
M  V30 6733 H 627.322 -1.63809 0.443237 0
M  V30 6734 H 626.094 -3.8503 0.697669 0
M  V30 6735 H 625.717 -3.84364 -1.01733 0
M  V30 6736 N 626.714 -0.118576 -1.57153 0
M  V30 6737 C 627.647 0.869046 -2.11004 0
M  V30 6738 C 628.625 1.26115 -1.02634 0
M  V30 6739 O 629.809 1.36228 -1.30285 0
M  V30 6740 C 626.936 2.16297 -2.6064 0
M  V30 6741 C 625.982 1.91896 -3.80891 0
M  V30 6742 S 626.815 1.13562 -5.2332 0
M  V30 6743 C 627.971 2.44135 -5.76324 0
M  V30 6744 H 628.204 0.411005 -2.94445 0
M  V30 6745 H 625.737 0.0951891 -1.54106 0
M  V30 6746 H 627.695 2.90642 -2.89892 0
M  V30 6747 H 626.356 2.59219 -1.77382 0
M  V30 6748 H 625.549 2.8777 -4.13768 0
M  V30 6749 H 625.151 1.25672 -3.52253 0
M  V30 6750 H 627.443 3.39976 -5.86022 0
M  V30 6751 H 628.386 2.15803 -6.74414 0
M  V30 6752 H 628.794 2.53483 -5.04387 0
M  V30 6753 N 628.193 1.56834 0.155195 0
M  V30 6754 C 629.126 1.9278 1.22111 0
M  V30 6755 C 630.104 0.792588 1.41975 0
M  V30 6756 O 631.288 1.04743 1.5672 0
M  V30 6757 C 628.415 2.19273 2.58142 0
M  V30 6758 C 627.461 3.41932 2.54921 0
M  V30 6759 S 628.294 4.95769 2.02418 0
M  V30 6760 C 629.45 5.25375 3.40194 0
M  V30 6761 H 629.683 2.82889 0.914393 0
M  V30 6762 H 627.216 1.50133 0.360461 0
M  V30 6763 H 629.174 2.35217 3.36427 0
M  V30 6764 H 627.835 1.29843 2.86007 0
M  V30 6765 H 627.028 3.57721 3.55038 0
M  V30 6766 H 626.63 3.25188 1.8474 0
M  V30 6767 H 628.922 5.1834 4.36268 0
M  V30 6768 H 629.865 6.26889 3.29266 0
M  V30 6769 H 630.273 4.52906 3.36951 0
M  V30 6770 N 629.671 -0.424282 1.51781 0
M  V30 6771 C 631.082 -1.00368 1.57427 0
M  V30 6772 C 631.433 -1.91962 0.40558 0
M  V30 6773 O 630.558 -2.111 -0.47601 0
M  V30 6774 C 631.153 -1.82707 2.85313 0
M  V30 6775 C 629.712 -2.35675 2.93487 0
M  V30 6776 C 628.859 -1.1524 2.5222 0
M  V30 6777 H 631.81 -0.205064 1.5737 0
M  V30 6778 H 631.831 -2.68294 2.69812 0
M  V30 6779 H 631.343 -1.16017 3.70353 0
M  V30 6780 H 629.444 -3.05781 2.12906 0
M  V30 6781 H 629.557 -2.67578 3.97415 0
M  V30 6782 H 627.921 -1.50174 2.05718 0
M  V30 6783 H 628.704 -0.5014 3.39619 0
M  V30 6784 N 631.149 -1.42148 -0.680565 0
M  V30 6785 C 632.096 -1.45175 -1.79424 0
M  V30 6786 C 633.066 -0.304352 -1.63288 0
M  V30 6787 O 634.251 -0.507591 -1.83924 0
M  V30 6788 C 631.391 -1.35429 -3.17416 0
M  V30 6789 C 630.504 -2.60158 -3.4488 0
M  V30 6790 C 629.639 -2.42596 -4.72568 0
M  V30 6791 C 628.678 -3.62727 -4.93047 0
M  V30 6792 N 627.815 -3.44143 -6.11973 0
M  V30 6793 H 632.655 -2.40349 -1.76172 0
M  V30 6794 H 630.192 -1.19334 -0.860107 0
M  V30 6795 H 632.15 -1.27777 -3.97151 0
M  V30 6796 H 630.78 -0.438536 -3.19807 0
M  V30 6797 H 629.832 -2.78199 -2.5944 0
M  V30 6798 H 631.144 -3.49473 -3.55908 0
M  V30 6799 H 630.298 -2.32497 -5.60384 0
M  V30 6800 H 629.037 -1.50761 -4.63813 0
M  V30 6801 H 628.042 -3.73264 -4.03676 0
M  V30 6802 H 629.267 -4.55534 -5.03652 0
M  V30 6803 H 627.213 -2.5502 -6.04401 0
M  V30 6804 H 627.13 -4.27041 -6.23836 0
M  V30 6805 H 628.398 -3.37845 -7.02482 0
M  V30 6806 N 632.627 0.916307 -1.28225 0
M  V30 6807 C 633.857 1.69654 -1.17902 0
M  V30 6808 C 634.265 1.87331 0.265268 0
M  V30 6809 O 633.608 1.39828 1.19137 0
M  V30 6810 C 633.67 3.11024 -1.80289 0
M  V30 6811 C 633.334 3.16643 -3.29525 0
M  V30 6812 C 634.331 2.98032 -4.25997 0
M  V30 6813 C 632.016 3.39238 -3.70436 0
M  V30 6814 C 634.01 3.01924 -5.61356 0
M  V30 6815 C 631.697 3.42762 -5.05922 0
M  V30 6816 C 632.695 3.24125 -6.01192 0
M  V30 6817 O 632.383 3.27406 -7.34208 0
M  V30 6818 H 632.115 0.537197 -0.41036 0
M  V30 6819 H 634.669 1.15547 -1.69817 0
M  V30 6820 H 632.899 3.66662 -1.22865 0
M  V30 6821 H 634.588 3.71063 -1.6452 0
M  V30 6822 H 635.354 2.80405 -3.95725 0
M  V30 6823 H 631.233 3.52791 -2.96749 0
M  V30 6824 H 634.777 2.87295 -6.35694 0
M  V30 6825 H 630.674 3.59916 -5.35846 0
M  V30 6826 H 631.442 3.43784 -7.42802 0
M  V30 6827 N 634.105 1.10431 1.1244 0
M  V30 6828 C 635.035 0.775143 2.20258 0
M  V30 6829 C 636.016 -0.25186 1.68225 0
M  V30 6830 O 637.201 -0.117637 1.93843 0
M  V30 6831 C 634.331 0.206133 3.46688 0
M  V30 6832 C 633.285 1.16382 4.11873 0
M  V30 6833 C 632.611 0.456014 5.32752 0
M  V30 6834 C 633.911 2.5104 4.58013 0
M  V30 6835 H 635.605 1.67665 2.4805 0
M  V30 6836 H 633.151 0.807595 1.19222 0
M  V30 6837 H 635.104 -0.036291 4.21384 0
M  V30 6838 H 633.828 -0.730614 3.18323 0
M  V30 6839 H 632.487 1.39169 3.39157 0
M  V30 6840 H 632.135 -0.485203 5.00654 0
M  V30 6841 H 631.835 1.09466 5.77314 0
M  V30 6842 H 633.359 0.222135 6.10196 0
M  V30 6843 H 634.773 2.32401 5.24083 0
M  V30 6844 H 633.17 3.10789 5.13352 0
M  V30 6845 H 634.24 3.11039 3.71998 0
M  V30 6846 N 635.583 -1.29855 0.893053 0
M  V30 6847 C 636.531 -2.29867 0.355512 0
M  V30 6848 C 637.525 -1.60502 -0.541801 0
M  V30 6849 O 638.731 -1.74902 -0.425339 0
M  V30 6850 H 635.106 -0.745805 0.0963247 0
M  V30 6851 H 637.077 -2.72655 1.21252 0
M  V30 6852 C 635.826 -3.453 -0.407801 0
M  V30 6853 H 635.149 -3.98864 0.273426 0
M  V30 6854 H 636.589 -4.17334 -0.748887 0
M  V30 6855 C 635.048 -2.96051 -1.60795 0
M  V30 6856 O 635.578 -2.96763 -2.7073 0
M  V30 6857 N 633.784 -2.51963 -1.44786 0
M  V30 6858 H 633.331 -2.51583 -0.553498 0
M  V30 6859 H 633.289 -2.1937 -2.2522 0
M  V30 6860 N 637.061 -0.65484 -1.43351 0
M  V30 6861 C 638.308 -0.168892 -2.01794 0
M  V30 6862 C 638.636 1.2177 -1.51665 0
M  V30 6863 O 637.891 1.82717 -0.70092 0
M  V30 6864 C 638.19 -0.130424 -3.57162 0
M  V30 6865 C 637.856 -1.45898 -4.26643 0
M  V30 6866 C 636.518 -1.82279 -4.4534 0
M  V30 6867 C 638.87 -2.33485 -4.65976 0
M  V30 6868 C 636.198 -3.0591 -5.00635 0
M  V30 6869 C 638.55 -3.5641 -5.22642 0
M  V30 6870 C 637.214 -3.92985 -5.39555 0
M  V30 6871 H 636.484 -0.061802 -0.738418 0
M  V30 6872 H 639.131 -0.845869 -1.71806 0
M  V30 6873 H 637.436 0.630008 -3.86702 0
M  V30 6874 H 639.133 0.262465 -4.0014 0
M  V30 6875 H 635.723 -1.16591 -4.12437 0
M  V30 6876 H 639.907 -2.06668 -4.51223 0
M  V30 6877 H 635.163 -3.34295 -5.11915 0
M  V30 6878 H 639.337 -4.24495 -5.52066 0
M  V30 6879 H 636.964 -4.88862 -5.82167 0
M  V30 6880 N 638.539 1.52521 -0.396863 0
M  V30 6881 C 639.785 2.01971 0.183169 0
M  V30 6882 C 640.118 1.2825 1.45827 0
M  V30 6883 O 639.393 0.385179 1.90648 0
M  V30 6884 C 639.676 3.5736 0.443391 0
M  V30 6885 C 639.529 4.41743 -0.84753 0
M  V30 6886 C 640.848 4.22539 1.2308 0
M  V30 6887 H 637.967 0.734119 0.0650976 0
M  V30 6888 H 640.609 1.82519 -0.527918 0
M  V30 6889 H 638.759 3.74066 1.04914 0
M  V30 6890 H 640.431 4.36773 -1.48414 0
M  V30 6891 H 638.674 4.0845 -1.4612 0
M  V30 6892 H 639.345 5.48507 -0.620003 0
M  V30 6893 H 641.821 4.09857 0.718084 0
M  V30 6894 H 640.697 5.31227 1.38162 0
M  V30 6895 H 640.958 3.80675 2.24808 0
M  V30 6896 N 640.017 0.126909 1.57088 0
M  V30 6897 C 640.964 -0.82036 2.15728 0
M  V30 6898 C 641.934 -1.25811 1.08447 0
M  V30 6899 O 643.119 -1.33422 1.36393 0
M  V30 6900 C 640.259 -2.06199 2.76724 0
M  V30 6901 C 639.372 -1.67188 3.98337 0
M  V30 6902 C 638.507 -2.86378 4.47393 0
M  V30 6903 C 637.546 -2.43644 5.61519 0
M  V30 6904 N 636.683 -3.55775 6.05284 0
M  V30 6905 H 641.523 -0.313472 2.96347 0
M  V30 6906 H 639.06 -0.14303 1.46403 0
M  V30 6907 H 641.018 -2.78959 3.10222 0
M  V30 6908 H 639.648 -2.54333 1.98782 0
M  V30 6909 H 638.7 -0.842714 3.70948 0
M  V30 6910 H 640.012 -1.31789 4.81075 0
M  V30 6911 H 639.166 -3.67353 4.82842 0
M  V30 6912 H 637.905 -3.25009 3.63621 0
M  V30 6913 H 636.91 -1.61104 5.25667 0
M  V30 6914 H 638.135 -2.06122 6.47063 0
M  V30 6915 H 636.081 -3.94065 5.24451 0
M  V30 6916 H 635.998 -3.24325 6.82898 0
M  V30 6917 H 637.266 -4.37166 6.45373 0
M  V30 6918 N 641.495 -1.56914 -0.146875 0
M  V30 6919 C 642.743 -1.82994 -0.85777 0
M  V30 6920 C 643.064 -0.707814 -1.817 0
M  V30 6921 O 642.334 0.270521 -1.94023 0
M  V30 6922 H 640.914 -0.675106 -0.319751 0
M  V30 6923 H 643.576 -1.9439 -0.140849 0
M  V30 6924 H 642.672 -2.77928 -1.41994 0
M  V30 6925 N 642.974 0.416227 -1.52004 0
M  V30 6926 C 644.22 1.16555 -1.6596 0
M  V30 6927 C 644.553 1.90347 -0.384906 0
M  V30 6928 O 643.828 1.84474 0.616405 0
M  V30 6929 C 644.111 2.1657 -2.87696 0
M  V30 6930 C 643.964 1.46722 -4.25197 0
M  V30 6931 C 645.283 3.17321 -3.04951 0
M  V30 6932 H 642.402 0.422369 -0.603965 0
M  V30 6933 H 645.044 0.452141 -1.84542 0
M  V30 6934 H 643.194 2.77411 -2.71985 0
M  V30 6935 H 644.866 0.89056 -4.52622 0
M  V30 6936 H 643.109 0.769263 -4.26925 0
M  V30 6937 H 643.78 2.19665 -5.0641 0
M  V30 6938 H 646.256 2.66552 -3.19514 0
M  V30 6939 H 645.132 3.84573 -3.91656 0
M  V30 6940 H 645.393 3.84643 -2.17951 0
M  V30 6941 N 644.452 1.42507 0.673017 0
M  V30 6942 C 645.698 1.43284 1.43519 0
M  V30 6943 C 646.031 0.049668 1.94136 0
M  V30 6944 O 645.306 -0.926369 1.71022 0
M  V30 6945 C 645.589 2.45874 2.63093 0
M  V30 6946 C 645.442 3.93388 2.18096 0
M  V30 6947 C 646.761 2.45431 3.6531 0
M  V30 6948 H 643.88 0.521752 0.520522 0
M  V30 6949 H 646.522 1.73932 0.764701 0
M  V30 6950 H 644.672 2.19869 3.20296 0
M  V30 6951 H 646.344 4.30379 1.66046 0
M  V30 6952 H 644.587 4.07169 1.49652 0
M  V30 6953 H 645.258 4.60752 3.03993 0
M  V30 6954 H 647.734 2.68561 3.17827 0
M  V30 6955 H 646.61 3.19189 4.46553 0
M  V30 6956 H 646.871 1.48092 4.16559 0
M  V30 6957 N 645.93 -0.909495 1.28709 0
M  V30 6958 C 647.207 -1.63865 1.06806 0
M  V30 6959 C 647.587 -2.07445 -0.391143 0
M  V30 6960 O 646.935 -1.82269 -1.37805 0
M  V30 6961 C 647.145 -2.82692 2.04661 0
M  V30 6962 C 648.493 -3.5361 2.35042 0
M  V30 6963 O 649.517 -2.92847 2.02779 0
M  V30 6964 O 648.376 -4.63131 2.90124 0
M  V30 6965 H 645.47 -0.719065 0.408502 0
M  V30 6966 H 648.016 -0.958424 1.40044 0
M  V30 6967 H 646.788 -2.47614 3.0299 0
M  V30 6968 H 646.411 -3.58426 1.72095 0
M  V30 6969 N 647.408 -1.11026 -1.11852 0
M  V30 6970 C 648.633 -0.879064 -1.87849 0
M  V30 6971 C 649.058 0.565406 -1.79401 0
M  V30 6972 O 648.416 1.39886 -1.15333 0
M  V30 6973 C 648.464 -1.33985 -3.34784 0
M  V30 6974 O 647.568 -0.508803 -4.09249 0
M  V30 6975 H 646.909 -0.316992 -0.583448 0
M  V30 6976 H 649.439 -1.47863 -1.41413 0
M  V30 6977 H 649.449 -1.33248 -3.85628 0
M  V30 6978 H 648.124 -2.39172 -3.40249 0
M  V30 6979 H 646.701 -0.581913 -3.68332 0
M  V30 6980 N 648.886 1.2938 -0.899927 0
M  V30 6981 C 650.163 1.9046 -0.445443 0
M  V30 6982 C 650.543 1.81683 1.07492 0
M  V30 6983 O 649.891 1.24371 1.91688 0
M  V30 6984 C 650.101 3.35529 -0.960279 0
M  V30 6985 C 651.449 4.12556 -1.00412 0
M  V30 6986 O 652.473 3.44434 -0.907965 0
M  V30 6987 O 651.332 5.34294 -1.14857 0
M  V30 6988 H 648.426 0.815253 -0.138893 0
M  V30 6989 H 650.972 1.37844 -0.989808 0
M  V30 6990 H 649.744 3.36074 -2.00425 0
M  V30 6991 H 649.367 3.95624 -0.395939 0
M  V30 6992 N 650.364 0.662433 1.43002 0
M  V30 6993 C 651.641 0.109096 1.95296 0
M  V30 6994 C 652.021 -1.37313 1.60338 0
M  V30 6995 O 651.369 -2.1032 0.893187 0
M  V30 6996 C 651.579 0.365096 3.47085 0
M  V30 6997 C 652.927 0.274964 4.23709 0
M  V30 6998 O 653.951 0.29816 3.5495 0
M  V30 6999 O 652.81 0.206549 5.4611 0
M  V30 7000 H 649.904 -0.00429724 0.826989 0
M  V30 7001 H 652.45 0.736308 1.52894 0
M  V30 7002 H 651.222 1.39237 3.65689 0
M  V30 7003 H 650.845 -0.294733 3.96506 0
M  V30 7004 N 651.842 -1.52309 0.404946 0
M  V30 7005 C 652.772 -2.29805 -0.41376 0
M  V30 7006 C 653.753 -1.3384 -1.0498 0
M  V30 7007 O 654.938 -1.62745 -1.05961 0
M  V30 7008 C 652.068 -3.11639 -1.53292 0
M  V30 7009 C 651.022 -4.15616 -1.02211 0
M  V30 7010 C 650.348 -4.8577 -2.23455 0
M  V30 7011 C 651.648 -5.2224 -0.0790725 0
M  V30 7012 H 653.342 -2.98493 0.232878 0
M  V30 7013 H 650.888 -1.43552 0.113441 0
M  V30 7014 H 652.841 -3.64618 -2.11262 0
M  V30 7015 H 651.565 -2.40712 -2.20738 0
M  V30 7016 H 650.224 -3.63641 -0.46484 0
M  V30 7017 H 649.872 -4.11376 -2.89445 0
M  V30 7018 H 649.572 -5.56058 -1.89929 0
M  V30 7019 H 651.096 -5.4156 -2.82038 0
M  V30 7020 H 652.51 -5.70485 -0.567438 0
M  V30 7021 H 650.907 -5.99867 0.167167 0
M  V30 7022 H 651.977 -4.77078 0.867447 0
M  V30 7023 N 653.32 -0.135238 -1.57019 0
M  V30 7024 C 654.731 0.387521 -1.82634 0
M  V30 7025 C 655.082 1.65528 -1.05332 0
M  V30 7026 O 654.207 2.14381 -0.294926 0
M  V30 7027 C 654.802 0.709852 -3.3128 0
M  V30 7028 C 653.361 1.17718 -3.57518 0
M  V30 7029 C 652.508 0.194183 -2.76619 0
M  V30 7030 H 655.459 -0.360126 -1.5456 0
M  V30 7031 H 655.48 1.5657 -3.46794 0
M  V30 7032 H 654.992 -0.213024 -3.87515 0
M  V30 7033 H 653.093 2.1164 -3.06658 0
M  V30 7034 H 653.206 1.11128 -4.66034 0
M  V30 7035 H 651.57 0.684478 -2.4533 0
M  V30 7036 H 652.353 -0.722076 -3.3562 0
M  V30 7037 N 654.798 1.5699 0.138552 0
M  V30 7038 C 655.728 2.01933 1.17241 0
M  V30 7039 C 656.709 0.90033 1.44319 0
M  V30 7040 O 657.894 1.16872 1.55095 0
M  V30 7041 C 655.024 2.40711 2.50351 0
M  V30 7042 C 653.978 3.55874 2.37776 0
M  V30 7043 C 653.304 3.80491 3.75674 0
M  V30 7044 C 654.604 4.8826 1.85472 0
M  V30 7045 H 656.298 2.88551 0.798672 0
M  V30 7046 H 653.844 1.3882 0.382743 0
M  V30 7047 H 655.797 2.70754 3.22909 0
M  V30 7048 H 654.521 1.5104 2.89576 0
M  V30 7049 H 653.18 3.2601 1.67669 0
M  V30 7050 H 652.828 2.88057 4.12349 0
M  V30 7051 H 652.528 4.57998 3.68119 0
M  V30 7052 H 654.052 4.12967 4.49767 0
M  V30 7053 H 655.466 5.16965 2.4783 0
M  V30 7054 H 653.863 5.69631 1.88787 0
M  V30 7055 H 654.933 4.78071 0.810935 0
M  V30 7056 N 656.276 -0.40816 1.52223 0
M  V30 7057 C 657.224 -1.51788 1.76248 0
M  V30 7058 C 658.218 -1.57264 0.629638 0
M  V30 7059 O 659.424 -1.60659 0.811704 0
M  V30 7060 H 655.799 -0.504823 0.557367 0
M  V30 7061 H 657.77 -1.2871 2.69214 0
M  V30 7062 C 656.519 -2.89145 1.93107 0
M  V30 7063 H 655.842 -2.85674 2.79697 0
M  V30 7064 H 657.282 -3.66082 2.13916 0
M  V30 7065 C 655.741 -3.29581 0.698431 0
M  V30 7066 O 656.271 -4.01479 -0.133238 0
M  V30 7067 N 654.477 -2.85651 0.53405 0
M  V30 7068 H 654.024 -2.2731 1.21194 0
M  V30 7069 H 653.982 -3.13065 -0.289387 0
M  V30 7070 N 657.755 -1.42862 -0.66545 0
M  V30 7071 C 659.001 -1.44043 -1.42757 0
M  V30 7072 C 659.334 -0.0599629 -1.94107 0
M  V30 7073 O 658.609 0.917286 -1.71511 0
M  V30 7074 C 658.892 -2.47266 -2.61786 0
M  V30 7075 C 658.745 -3.94539 -2.16007 0
M  V30 7076 C 660.064 -2.47365 -3.64003 0
M  V30 7077 H 657.183 -0.524506 -0.517748 0
M  V30 7078 H 659.825 -1.74335 -0.755466 0
M  V30 7079 H 657.975 -2.21565 -3.19126 0
M  V30 7080 H 659.647 -4.31254 -1.63762 0
M  V30 7081 H 657.89 -4.07957 -1.47491 0
M  V30 7082 H 658.561 -4.62357 -3.01546 0
M  V30 7083 H 661.037 -2.70243 -3.16399 0
M  V30 7084 H 659.913 -3.21552 -4.44854 0
M  V30 7085 H 660.174 -1.50299 -4.15767 0
M  V30 7086 N 659.233 0.902656 -1.29189 0
M  V30 7087 C 660.458 1.69167 -1.19989 0
M  V30 7088 C 660.883 1.86607 0.236495 0
M  V30 7089 O 660.241 1.38425 1.17082 0
M  V30 7090 C 660.289 3.05532 -1.91527 0
M  V30 7091 O 659.393 3.93621 -1.2303 0
M  V30 7092 H 658.734 0.517584 -0.415936 0
M  V30 7093 H 661.264 1.12785 -1.70706 0
M  V30 7094 H 661.274 3.55693 -1.99866 0
M  V30 7095 H 659.949 2.92156 -2.96003 0
M  V30 7096 H 658.526 3.52055 -1.22928 0
M  V30 7097 N 660.711 1.11618 1.11262 0
M  V30 7098 C 662.127 0.850468 1.35053 0
M  V30 7099 C 662.327 -0.523868 1.94571 0
M  V30 7100 O 661.383 -1.2743 2.17986 0
M  V30 7101 C 662.696 1.96005 2.28041 0
M  V30 7102 C 664.244 1.98993 2.416 0
M  V30 7103 C 664.719 3.0916 3.37911 0
M  V30 7104 N 666.21 3.08547 3.45475 0
M  V30 7105 C 666.945 3.9043 4.19943 0
M  V30 7106 N 666.441 4.8228 4.97371 0
M  V30 7107 N 668.234 3.786 4.15474 0
M  V30 7108 H 660.385 2.00184 0.709932 0
M  V30 7109 H 662.648 0.870635 0.375099 0
M  V30 7110 H 662.354 2.9499 1.91503 0
M  V30 7111 H 662.228 1.85782 3.28275 0
M  V30 7112 H 664.615 1.00633 2.77411 0
M  V30 7113 H 664.696 2.13292 1.4121 0
M  V30 7114 H 664.34 4.07748 3.02827 0
M  V30 7115 H 664.27 2.92102 4.3816 0
M  V30 7116 H 666.761 2.42 2.90249 0
M  V30 7117 H 667.074 5.41289 5.51567 0
M  V30 7118 H 665.419 4.863 4.96525 0
M  V30 7119 H 668.61 3.06185 3.54074 0
M  V30 7120 H 668.783 4.42647 4.73253 0
M  V30 7121 N 662.189 -1.289 0.906776 0
M  V30 7122 C 663.099 -2.31256 0.394707 0
M  V30 7123 C 664.115 -1.66231 -0.514121 0
M  V30 7124 O 665.291 -1.97347 -0.401994 0
M  V30 7125 C 662.356 -3.44792 -0.363191 0
M  V30 7126 C 661.417 -4.25391 0.578012 0
M  V30 7127 C 660.65 -5.33506 -0.143811 0
M  V30 7128 O 660.873 -5.53786 -1.36665 0
M  V30 7129 O 659.807 -5.99673 0.5173 0
M  V30 7130 H 663.633 -2.77051 1.24405 0
M  V30 7131 H 661.218 -1.33466 0.671346 0
M  V30 7132 H 663.1 -4.139 -0.791503 0
M  V30 7133 H 661.775 -3.01093 -1.18848 0
M  V30 7134 H 660.682 -3.58899 1.05558 0
M  V30 7135 H 662.015 -4.72752 1.36992 0
M  V30 7136 N 663.667 -0.670007 -1.42649 0
M  V30 7137 C 664.895 -0.19854 -2.05945 0
M  V30 7138 C 665.31 1.14243 -1.50313 0
M  V30 7139 O 664.667 1.70872 -0.641027 0
M  V30 7140 C 664.718 -0.11966 -3.61302 0
M  V30 7141 O 664.439 -1.40764 -4.1487 0
M  V30 7142 C 665.94 0.375878 -4.41704 0
M  V30 7143 H 663.16 -0.0976894 -0.663851 0
M  V30 7144 H 665.704 -0.915392 -1.82868 0
M  V30 7145 H 663.859 0.547851 -3.83507 0
M  V30 7146 H 664.273 -1.27784 -5.08696 0
M  V30 7147 H 665.747 0.379988 -5.50691 0
M  V30 7148 H 666.224 1.41028 -4.15942 0
M  V30 7149 H 666.83 -0.259727 -4.24506 0
M  V30 7150 N 665.145 1.52092 -0.413018 0
M  V30 7151 C 666.075 2.30021 0.401567 0
M  V30 7152 C 667.056 1.34395 1.04269 0
M  V30 7153 O 668.241 1.63304 1.05097 0
M  V30 7154 C 665.371 3.12447 1.51638 0
M  V30 7155 C 664.325 4.16153 1.00005 0
M  V30 7156 C 663.651 4.86948 2.20875 0
M  V30 7157 C 664.951 5.22275 0.0513757 0
M  V30 7158 H 666.645 2.98365 -0.248704 0
M  V30 7159 H 664.191 1.4349 -0.121052 0
M  V30 7160 H 666.144 3.65733 2.09326 0
M  V30 7161 H 664.868 2.41879 2.19458 0
M  V30 7162 H 663.527 3.63882 0.445549 0
M  V30 7163 H 663.175 4.12905 2.8726 0
M  V30 7164 H 662.875 5.57057 1.86978 0
M  V30 7165 H 664.399 5.43048 2.79162 0
M  V30 7166 H 665.813 5.70778 0.537176 0
M  V30 7167 H 664.21 5.9977 -0.198977 0
M  V30 7168 H 665.28 4.76611 -0.892736 0
M  V30 7169 N 666.623 0.143563 1.56945 0
M  V30 7170 C 667.555 -0.828353 2.13708 0
M  V30 7171 C 668.568 -1.21313 1.08568 0
M  V30 7172 O 669.757 -1.1578 1.35857 0
M  V30 7173 C 666.857 -2.12248 2.64204 0
M  V30 7174 C 666.03 -1.90561 3.93707 0
M  V30 7175 C 665.089 -3.03931 4.29549 0
M  V30 7176 O 664.115 -2.75772 4.97934 0
M  V30 7177 N 665.317 -4.31016 3.88852 0
M  V30 7178 H 668.082 -0.343242 2.97728 0
M  V30 7179 H 665.643 -0.0401152 1.6185 0
M  V30 7180 H 667.635 -2.87132 2.85197 0
M  V30 7181 H 666.205 -2.52033 1.84928 0
M  V30 7182 H 665.425 -0.997327 3.81375 0
M  V30 7183 H 666.713 -1.73405 4.78339 0
M  V30 7184 H 666.111 -4.56762 3.33743 0
M  V30 7185 H 664.668 -5.02691 4.14903 0
M  V30 7186 N 668.101 -1.57061 -0.130224 0
M  V30 7187 C 669.033 -1.96147 -1.18571 0
M  V30 7188 C 670.046 -0.859347 -1.38272 0
M  V30 7189 O 671.235 -1.13769 -1.37545 0
M  V30 7190 C 668.335 -2.23484 -2.54771 0
M  V30 7191 C 667.508 -3.54786 -2.55824 0
M  V30 7192 C 666.567 -3.70467 -3.73686 0
M  V30 7193 O 665.593 -4.42693 -3.57787 0
M  V30 7194 N 666.795 -3.08389 -4.91809 0
M  V30 7195 H 669.56 -2.87295 -0.853333 0
M  V30 7196 H 667.121 -1.58714 -0.319621 0
M  V30 7197 H 669.113 -2.312 -3.32158 0
M  V30 7198 H 667.683 -1.38518 -2.80235 0
M  V30 7199 H 666.903 -3.5836 -1.64232 0
M  V30 7200 H 668.191 -4.4111 -2.53573 0
M  V30 7201 H 667.589 -2.49656 -5.0763 0
M  V30 7202 H 666.146 -3.21642 -5.66912 0
M  V30 7203 N 669.579 0.400081 -1.52437 0
M  V30 7204 C 670.529 1.48734 -1.72807 0
M  V30 7205 C 671.513 1.50004 -0.582032 0
M  V30 7206 O 672.705 1.55828 -0.839449 0
M  V30 7207 C 669.834 2.86568 -1.89034 0
M  V30 7208 C 668.92 2.8991 -3.09537 0
M  V30 7209 N 669.311 2.62937 -4.32086 0
M  V30 7210 C 667.609 3.21078 -3.09556 0
M  V30 7211 C 668.31 2.73079 -5.13617 0
M  V30 7212 N 667.286 3.06342 -4.49061 0
M  V30 7213 H 671.088 1.26689 -2.65193 0
M  V30 7214 H 668.602 0.607902 -1.50593 0
M  V30 7215 H 670.599 3.64834 -2.01746 0
M  V30 7216 H 669.259 3.09604 -0.978547 0
M  V30 7217 H 670.27 2.37163 -4.60406 0
M  V30 7218 H 666.947 3.49651 -2.28146 0
M  V30 7219 H 668.337 2.55863 -6.21276 0
M  V30 7220 N 671.057 1.43213 0.657864 0
M  V30 7221 C 672.004 1.48011 1.77092 0
M  V30 7222 C 672.974 0.330291 1.62783 0
M  V30 7223 O 674.159 0.536787 1.83094 0
M  V30 7224 C 671.299 1.40461 3.15222 0
M  V30 7225 C 670.412 2.65612 3.40697 0
M  V30 7226 C 669.547 2.50083 4.68649 0
M  V30 7227 C 668.586 3.70525 4.87214 0
M  V30 7228 N 667.723 3.53835 6.0642 0
M  V30 7229 H 672.563 2.43121 1.72326 0
M  V30 7230 H 670.1 1.20687 0.841013 0
M  V30 7231 H 672.058 1.34079 3.95068 0
M  V30 7232 H 670.688 0.489359 3.19069 0
M  V30 7233 H 669.74 2.82292 2.54982 0
M  V30 7234 H 671.052 3.5509 3.50303 0
M  V30 7235 H 670.206 2.41383 5.56614 0
M  V30 7236 H 668.945 1.58121 4.61356 0
M  V30 7237 H 667.95 3.79639 3.97686 0
M  V30 7238 H 669.175 4.63489 4.96341 0
M  V30 7239 H 667.121 2.64604 6.00267 0
M  V30 7240 H 667.038 4.36912 6.16963 0
M  V30 7241 H 668.306 3.48978 6.97019 0
M  V30 7242 N 672.536 -0.895792 1.29666 0
M  V30 7243 C 673.466 -2.01673 1.17688 0
M  V30 7244 C 674.447 -1.69955 0.0701317 0
M  V30 7245 O 675.632 -1.9258 0.250289 0
M  V30 7246 C 672.762 -3.36568 0.856681 0
M  V30 7247 C 671.716 -3.82509 1.92017 0
M  V30 7248 C 671.042 -5.14574 1.4532 0
M  V30 7249 C 672.342 -4.02409 3.32963 0
M  V30 7250 H 674.036 -2.11953 2.11463 0
M  V30 7251 H 671.582 -1.01839 1.01807 0
M  V30 7252 H 673.535 -4.14498 0.759577 0
M  V30 7253 H 672.259 -3.26391 -0.116763 0
M  V30 7254 H 670.918 -3.068 2.00673 0
M  V30 7255 H 670.566 -5.00815 0.468325 0
M  V30 7256 H 670.266 -5.46283 2.16447 0
M  V30 7257 H 671.79 -5.9504 1.36968 0
M  V30 7258 H 673.204 -4.70808 3.27127 0
M  V30 7259 H 671.601 -4.45478 4.02082 0
M  V30 7260 H 672.671 -3.06616 3.75652 0
M  V30 7261 N 674.014 -1.12206 -1.10668 0
M  V30 7262 C 674.944 -0.810086 -2.18997 0
M  V30 7263 C 675.925 0.225065 -1.68604 0
M  V30 7264 O 677.11 0.086783 -1.94006 0
M  V30 7265 C 674.24 -0.261262 -3.46316 0
M  V30 7266 C 673.194 -1.2292 -4.09969 0
M  V30 7267 C 672.52 -0.540713 -5.31959 0
M  V30 7268 C 673.82 -2.58295 -4.53962 0
M  V30 7269 H 675.514 -1.7159 -2.45352 0
M  V30 7270 H 673.06 -0.82646 -1.17922 0
M  V30 7271 H 675.013 -0.0307522 -4.21389 0
M  V30 7272 H 673.737 0.679879 -3.19445 0
M  V30 7273 H 672.396 -1.44548 -3.369 0
M  V30 7274 H 672.044 0.405492 -5.01363 0
M  V30 7275 H 671.744 -1.18637 -5.75499 0
M  V30 7276 H 673.268 -0.319184 -6.09765 0
M  V30 7277 H 674.682 -2.40709 -5.20319 0
M  V30 7278 H 673.079 -3.18916 -5.08343 0
M  V30 7279 H 674.149 -3.16918 -3.67002 0
M  V30 7280 N 675.492 1.28418 -0.913599 0
M  V30 7281 C 676.439 2.27301 -0.400373 0
M  V30 7282 C 677.409 1.57582 0.52509 0
M  V30 7283 O 678.594 1.85482 0.447318 0
M  V30 7284 C 675.734 3.43284 0.35361 0
M  V30 7285 C 674.847 4.27752 -0.604341 0
M  V30 7286 C 673.982 5.30934 0.168075 0
M  V30 7287 C 673.021 6.07065 -0.783499 0
M  V30 7288 N 672.158 7.02086 -0.0446112 0
M  V30 7289 H 676.998 2.70579 -1.24865 0
M  V30 7290 H 674.535 1.33067 -0.627028 0
M  V30 7291 H 676.493 4.09322 0.806945 0
M  V30 7292 H 675.123 3.00997 1.16623 0
M  V30 7293 H 674.175 3.61759 -1.17621 0
M  V30 7294 H 675.487 4.80682 -1.33216 0
M  V30 7295 H 674.641 6.02855 0.681979 0
M  V30 7296 H 673.38 4.78771 0.928947 0
M  V30 7297 H 672.385 5.33995 -1.30878 0
M  V30 7298 H 673.61 6.61317 -1.54392 0
M  V30 7299 H 671.556 6.52273 0.698272 0
M  V30 7300 H 671.473 7.52637 -0.712258 0
M  V30 7301 H 672.741 7.78205 0.449102 0
M  V30 7302 N 676.97 0.677563 1.42291 0
M  V30 7303 C 678.216 0.201272 2.01799 0
M  V30 7304 C 678.549 -1.19004 1.53465 0
M  V30 7305 O 677.824 -1.79953 0.738039 0
M  V30 7306 C 678.107 0.238968 3.59306 0
M  V30 7307 C 677.96 1.66594 4.17812 0
M  V30 7308 C 679.279 -0.411287 4.38174 0
M  V30 7309 H 676.398 0.0746114 0.733214 0
M  V30 7310 H 679.04 0.862872 1.69276 0
M  V30 7311 H 677.19 -0.324368 3.87144 0
M  V30 7312 H 678.862 2.28173 4.00917 0
M  V30 7313 H 677.105 2.20576 3.73536 0
M  V30 7314 H 677.776 1.64398 5.26951 0
M  V30 7315 H 680.252 0.0682804 4.16044 0
M  V30 7316 H 679.128 -0.354286 5.47755 0
M  V30 7317 H 679.389 -1.4893 4.1626 0
M  V30 7318 N 678.448 -1.51871 0.421078 0
M  V30 7319 C 679.697 -2.01125 -0.152206 0
M  V30 7320 C 680.01 -1.3106 -1.45199 0
M  V30 7321 O 681.216 -1.71195 -2.10724 0
M  V30 7322 C 679.672 -3.58458 -0.3218 0
M  V30 7323 C 679.28 -4.37448 0.96659 0
M  V30 7324 C 681.024 -4.15908 -0.84973 0
M  V30 7325 C 678.931 -5.86451 0.763529 0
M  V30 7326 H 677.861 -0.751556 -0.0606565 0
M  V30 7327 H 680.512 -1.75115 0.548354 0
M  V30 7328 H 678.894 -3.80847 -1.08498 0
M  V30 7329 H 680.068 -4.26814 1.73684 0
M  V30 7330 H 678.383 -3.91373 1.42183 0
M  V30 7331 H 680.98 -5.24922 -1.01788 0
M  V30 7332 H 681.323 -3.74031 -1.82774 0
M  V30 7333 H 681.856 -3.97535 -0.145297 0
M  V30 7334 H 678.595 -6.3271 1.71344 0
M  V30 7335 H 678.115 -5.99791 0.0327889 0
M  V30 7336 H 679.794 -6.45697 0.410354 0
M  V30 7337 N 679.926 -0.151884 -1.56866 0
M  V30 7338 C 681.342 0.204486 -1.58285 0
M  V30 7339 C 681.542 1.6431 -1.16639 0
M  V30 7340 O 680.598 2.37077 -0.868946 0
M  V30 7341 C 681.911 -0.0587019 -3.00643 0
M  V30 7342 C 683.459 0.00462303 -3.13 0
M  V30 7343 C 683.934 -0.231297 -4.57416 0
M  V30 7344 N 685.425 -0.178394 -4.62856 0
M  V30 7345 C 686.16 -0.335379 -5.72418 0
M  V30 7346 N 685.656 -0.550355 -6.90611 0
M  V30 7347 N 687.449 -0.272641 -5.61438 0
M  V30 7348 H 679.6 -1.09116 -1.82229 0
M  V30 7349 H 681.863 -0.432311 -0.843689 0
M  V30 7350 H 681.569 -1.05453 -3.35518 0
M  V30 7351 H 681.443 0.658508 -3.71407 0
M  V30 7352 H 683.83 0.991009 -2.77962 0
M  V30 7353 H 683.911 -0.744992 -2.44711 0
M  V30 7354 H 683.555 -1.2148 -4.93158 0
M  V30 7355 H 683.485 0.5387 -5.23837 0
M  V30 7356 H 685.976 -0.0170923 -3.77896 0
M  V30 7357 H 686.289 -0.660116 -7.69976 0
M  V30 7358 H 684.634 -0.586736 -6.92519 0
M  V30 7359 H 687.825 -0.105421 -4.67981 0
M  V30 7360 H 687.998 -0.398418 -6.46774 0
M  V30 7361 N 681.404 1.57128 0.121893 0
M  V30 7362 C 682.351 2.0013 1.14964 0
M  V30 7363 C 683.321 0.872959 1.4131 0
M  V30 7364 O 684.506 1.13696 1.53225 0
M  V30 7365 C 681.646 2.40824 2.4718 0
M  V30 7366 C 680.759 3.67061 2.27794 0
M  V30 7367 C 679.894 3.96749 3.53219 0
M  V30 7368 C 678.933 5.16178 3.28978 0
M  V30 7369 N 678.07 5.41751 4.46599 0
M  V30 7370 H 682.91 2.8772 0.775947 0
M  V30 7371 H 680.447 1.42328 0.371652 0
M  V30 7372 H 682.405 2.62454 3.24305 0
M  V30 7373 H 681.035 1.56279 2.82448 0
M  V30 7374 H 680.087 3.53063 1.416 0
M  V30 7375 H 681.399 4.5434 2.05857 0
M  V30 7376 H 680.553 4.19012 4.38764 0
M  V30 7377 H 679.292 3.07941 3.78185 0
M  V30 7378 H 678.297 4.93762 2.41824 0
M  V30 7379 H 679.522 6.06561 3.05386 0
M  V30 7380 H 677.468 4.55899 4.71691 0
M  V30 7381 H 677.385 6.23347 4.27756 0
M  V30 7382 H 678.653 5.68531 5.33285 0
M  V30 7383 N 682.882 -0.391992 1.52647 0
M  V30 7384 C 683.829 -1.47866 1.77213 0
M  V30 7385 C 684.799 -1.54286 0.615223 0
M  V30 7386 O 685.984 -1.7059 0.854622 0
M  V30 7387 C 683.124 -2.85129 1.94411 0
M  V30 7388 C 682.237 -2.87883 3.22098 0
M  V30 7389 C 681.372 -4.16553 3.29631 0
M  V30 7390 C 680.411 -4.13348 4.51453 0
M  V30 7391 N 679.548 -5.33619 4.56284 0
M  V30 7392 H 684.388 -1.26219 2.6995 0
M  V30 7393 H 681.925 -0.612367 1.33748 0
M  V30 7394 H 683.883 -3.64833 2.02367 0
M  V30 7395 H 682.513 -3.05232 1.05038 0
M  V30 7396 H 681.565 -2.00567 3.23229 0
M  V30 7397 H 682.877 -2.81382 4.11856 0
M  V30 7398 H 682.031 -5.0466 3.36753 0
M  V30 7399 H 680.77 -4.25773 2.37842 0
M  V30 7400 H 679.775 -3.23629 4.44459 0
M  V30 7401 H 681 -4.05754 5.44555 0
M  V30 7402 H 678.946 -5.43474 3.67385 0
M  V30 7403 H 678.863 -5.29182 5.3991 0
M  V30 7404 H 680.131 -6.23632 4.67657 0
M  V30 7405 N 684.36 -1.4356 -0.65026 0
M  V30 7406 C 685.29 -1.51758 -1.77459 0
M  V30 7407 C 686.271 -0.372019 -1.65982 0
M  V30 7408 O 687.456 -0.589627 -1.85033 0
M  V30 7409 C 684.586 -1.44302 -3.15902 0
M  V30 7410 C 683.54 -2.57138 -3.42146 0
M  V30 7411 C 682.866 -2.34735 -4.8042 0
M  V30 7412 C 684.166 -3.99373 -3.36598 0
M  V30 7413 H 685.86 -2.45863 -1.70855 0
M  V30 7414 H 683.406 -1.18333 -0.820566 0
M  V30 7415 H 685.359 -1.48641 -3.94314 0
M  V30 7416 H 684.083 -0.467026 -3.23244 0
M  V30 7417 H 682.742 -2.52157 -2.66106 0
M  V30 7418 H 682.39 -1.35372 -4.84441 0
M  V30 7419 H 682.09 -3.10375 -4.9894 0
M  V30 7420 H 683.614 -2.40862 -5.61086 0
M  V30 7421 H 685.028 -4.05826 -4.04942 0
M  V30 7422 H 683.425 -4.75063 -3.66654 0
M  V30 7423 H 684.495 -4.243 -2.34729 0
M  V30 7424 N 685.838 0.888903 -1.30139 0
M  V30 7425 C 687.084 1.6428 -1.18912 0
M  V30 7426 C 687.417 1.92499 0.256477 0
M  V30 7427 O 686.692 1.54312 1.18397 0
M  V30 7428 C 686.975 2.9851 -2.01405 0
M  V30 7429 C 686.828 2.77288 -3.54163 0
M  V30 7430 C 688.147 3.99383 -1.84882 0
M  V30 7431 H 685.266 0.596148 -0.433333 0
M  V30 7432 H 687.908 1.0289 -1.5973 0
M  V30 7433 H 686.058 3.50907 -1.66722 0
M  V30 7434 H 687.73 2.31709 -3.98884 0
M  V30 7435 H 685.973 2.11867 -3.78543 0
M  V30 7436 H 686.644 3.72717 -4.07168 0
M  V30 7437 H 689.12 3.56132 -2.15196 0
M  V30 7438 H 687.996 4.91222 -2.44934 0
M  V30 7439 H 688.257 4.34674 -0.806902 0
M  V30 7440 N 687.317 1.12792 1.10072 0
M  V30 7441 C 688.733 0.864745 1.34143 0
M  V30 7442 C 688.933 -0.503201 1.95116 0
M  V30 7443 O 687.989 -1.25111 2.19325 0
M  V30 7444 C 689.302 1.98413 2.25949 0
M  V30 7445 C 690.85 2.01545 2.39476 0
M  V30 7446 C 691.325 3.12727 3.34613 0
M  V30 7447 N 692.816 3.12194 3.42183 0
M  V30 7448 C 693.551 3.94862 4.15779 0
M  V30 7449 N 693.047 4.87528 4.92228 0
M  V30 7450 N 694.84 3.82985 4.11435 0
M  V30 7451 H 686.991 2.00926 0.68866 0
M  V30 7452 H 689.254 0.874564 0.365844 0
M  V30 7453 H 688.96 2.97005 1.88364 0
M  V30 7454 H 688.834 1.89254 3.26287 0
M  V30 7455 H 691.221 1.0357 2.76328 0
M  V30 7456 H 691.302 2.14777 1.3894 0
M  V30 7457 H 690.946 4.10936 2.98486 0
M  V30 7458 H 690.876 2.96732 4.35037 0
M  V30 7459 H 693.367 2.45065 2.87666 0
M  V30 7460 H 693.68 5.47109 5.45794 0
M  V30 7461 H 692.025 4.91539 4.9134 0
M  V30 7462 H 695.216 3.09923 3.50807 0
M  V30 7463 H 695.389 4.47641 4.68531 0
M  V30 7464 N 688.795 -1.27931 0.920396 0
M  V30 7465 C 689.742 -2.27085 0.412422 0
M  V30 7466 C 690.712 -1.57858 -0.516725 0
M  V30 7467 O 691.897 -1.85717 -0.437475 0
M  V30 7468 C 689.037 -3.43466 -0.335399 0
M  V30 7469 C 688.15 -4.27425 0.627017 0
M  V30 7470 C 687.285 -5.31016 -0.139916 0
M  V30 7471 C 686.324 -6.06641 0.815683 0
M  V30 7472 N 685.461 -7.02052 0.0818439 0
M  V30 7473 H 690.301 -2.69913 1.26298 0
M  V30 7474 H 687.838 -1.32732 0.634076 0
M  V30 7475 H 689.796 -4.09744 -0.785226 0
M  V30 7476 H 688.426 -3.01611 -1.15025 0
M  V30 7477 H 687.478 -3.6113 1.19537 0
M  V30 7478 H 688.79 -4.79969 1.35763 0
M  V30 7479 H 687.944 -6.03208 -0.649998 0
M  V30 7480 H 686.683 -4.79257 -0.903543 0
M  V30 7481 H 685.688 -5.33294 1.33708 0
M  V30 7482 H 686.913 -6.60489 1.57897 0
M  V30 7483 H 684.859 -6.52634 -0.663671 0
M  V30 7484 H 684.776 -7.52249 0.752163 0
M  V30 7485 H 686.044 -7.78432 -0.407825 0
M  V30 7486 N 690.273 -0.685099 -1.4193 0
M  V30 7487 C 691.501 -0.220372 -2.05723 0
M  V30 7488 C 691.916 1.12642 -1.51516 0
M  V30 7489 O 691.273 1.70182 -0.659114 0
M  V30 7490 C 691.324 -0.157974 -3.61155 0
M  V30 7491 O 691.045 -1.45156 -4.13354 0
M  V30 7492 C 692.546 0.329009 -4.42077 0
M  V30 7493 H 689.766 -0.104725 -0.662777 0
M  V30 7494 H 692.31 -0.934736 -1.81887 0
M  V30 7495 H 690.465 0.507144 -3.84066 0
M  V30 7496 H 690.879 -1.33172 -5.07312 0
M  V30 7497 H 692.353 0.321559 -5.51063 0
M  V30 7498 H 692.83 1.36608 -4.17414 0
M  V30 7499 H 693.436 -0.304737 -4.24207 0
M  V30 7500 N 691.751 1.51645 -0.429126 0
M  V30 7501 C 692.681 2.30434 0.377148 0
M  V30 7502 C 693.662 1.35493 1.02838 0
M  V30 7503 O 694.847 1.6441 1.03359 0
M  V30 7504 C 691.977 3.14038 1.48315 0
M  V30 7505 C 690.931 4.1719 0.955855 0
M  V30 7506 C 690.257 4.89263 2.15698 0
M  V30 7507 C 691.557 5.223 -0.00402136 0
M  V30 7508 H 693.251 2.98085 -0.280336 0
M  V30 7509 H 690.797 1.43354 -0.136265 0
M  V30 7510 H 692.75 3.67933 2.05435 0
M  V30 7511 H 691.474 2.44193 2.16881 0
M  V30 7512 H 690.133 3.64335 0.406929 0
M  V30 7513 H 689.781 4.15929 2.82864 0
M  V30 7514 H 689.481 5.59009 1.81059 0
M  V30 7515 H 691.005 5.45978 2.73387 0
M  V30 7516 H 692.419 5.71315 0.476607 0
M  V30 7517 H 690.816 5.99525 -0.26258 0
M  V30 7518 H 691.886 4.75638 -0.943236 0
M  V30 7519 N 693.229 0.160201 1.56784 0
M  V30 7520 C 694.506 -0.533355 1.88188 0
M  V30 7521 C 694.886 -1.82072 1.06831 0
M  V30 7522 O 694.234 -2.27946 0.158959 0
M  V30 7523 C 694.444 -0.786034 3.40033 0
M  V30 7524 C 695.792 -1.12097 4.09536 0
M  V30 7525 O 696.816 -0.874949 3.45287 0
M  V30 7526 O 695.675 -1.58457 5.23023 0
M  V30 7527 H 692.769 -0.273589 0.780434 0
M  V30 7528 H 695.315 0.197803 1.68543 0
M  V30 7529 H 694.087 0.124515 3.91102 0
M  V30 7530 H 693.71 -1.57091 3.65251 0
M  V30 7531 N 694.707 -1.5719 -0.113559 0
M  V30 7532 C 695.64 -1.9595 -1.16957 0
M  V30 7533 C 696.618 -0.829951 -1.39823 0
M  V30 7534 O 697.802 -1.08861 -1.53888 0
M  V30 7535 C 694.929 -2.2604 -2.52237 0
M  V30 7536 C 693.975 -3.48571 -2.45765 0
M  V30 7537 S 694.808 -5.00962 -1.89203 0
M  V30 7538 C 695.964 -5.3421 -3.26145 0
M  V30 7539 H 696.197 -2.85214 -0.839069 0
M  V30 7540 H 693.73 -1.51036 -0.320529 0
M  V30 7541 H 695.688 -2.44054 -3.30073 0
M  V30 7542 H 694.349 -1.3738 -2.82463 0
M  V30 7543 H 693.542 -3.67008 -3.45429 0
M  V30 7544 H 693.144 -3.29972 -1.76053 0
M  V30 7545 H 695.436 -5.29725 -4.22371 0
M  V30 7546 H 696.379 -6.35398 -3.12529 0
M  V30 7547 H 696.787 -4.61681 -3.24825 0
M  V30 7548 N 696.185 0.383891 -1.52853 0
M  V30 7549 C 697.434 1.12563 -1.67369 0
M  V30 7550 C 697.747 1.90982 -0.422533 0
M  V30 7551 O 698.953 2.6778 -0.447914 0
M  V30 7552 C 697.409 2.05011 -2.95801 0
M  V30 7553 C 697.017 1.31991 -4.28115 0
M  V30 7554 C 698.761 2.79289 -3.19684 0
M  V30 7555 C 696.668 2.23235 -5.4765 0
M  V30 7556 H 695.598 0.42391 -0.623552 0
M  V30 7557 H 698.249 0.388016 -1.79351 0
M  V30 7558 H 696.631 2.82429 -2.77578 0
M  V30 7559 H 697.805 0.597633 -4.56908 0
M  V30 7560 H 696.12 0.696517 -4.10533 0
M  V30 7561 H 698.717 3.47749 -4.06171 0
M  V30 7562 H 699.06 3.43649 -2.3497 0
M  V30 7563 H 699.593 2.08962 -3.38496 0
M  V30 7564 H 696.332 1.63482 -6.34786 0
M  V30 7565 H 695.852 2.93364 -5.23161 0
M  V30 7566 H 697.531 2.83205 -5.81725 0
M  V30 7567 N 697.663 1.43903 0.642637 0
M  V30 7568 C 698.61 1.49881 1.75512 0
M  V30 7569 C 699.58 0.347538 1.62423 0
M  V30 7570 O 700.765 0.556177 1.82514 0
M  V30 7571 C 697.905 1.43797 3.13714 0
M  V30 7572 C 697.018 2.6921 3.37861 0
M  V30 7573 C 696.153 2.5504 4.6597 0
M  V30 7574 C 695.192 3.75671 4.83257 0
M  V30 7575 N 694.329 3.60247 6.02633 0
M  V30 7576 H 699.169 2.44935 1.69737 0
M  V30 7577 H 696.706 1.21572 0.828165 0
M  V30 7578 H 698.664 1.38262 3.93624 0
M  V30 7579 H 697.294 0.523173 3.18532 0
M  V30 7580 H 696.346 2.8498 2.51973 0
M  V30 7581 H 697.658 3.58786 3.46517 0
M  V30 7582 H 696.812 2.47273 5.54023 0
M  V30 7583 H 695.551 1.63006 4.59653 0
M  V30 7584 H 694.556 3.83836 3.93637 0
M  V30 7585 H 695.781 4.68728 4.91397 0
M  V30 7586 H 693.727 2.70955 5.97427 0
M  V30 7587 H 693.644 4.43431 6.12295 0
M  V30 7588 H 694.912 3.56351 6.93278 0
M  V30 7589 N 699.141 -0.881989 1.30609 0
M  V30 7590 C 700.088 -1.98803 1.17244 0
M  V30 7591 C 701.058 -1.65987 0.0611905 0
M  V30 7592 O 702.243 -1.89385 0.231911 0
M  V30 7593 C 699.383 -3.33867 0.87333 0
M  V30 7594 C 698.496 -3.79354 2.06675 0
M  V30 7595 C 697.631 -5.03078 1.70547 0
M  V30 7596 C 696.67 -5.40981 2.86366 0
M  V30 7597 N 695.807 -6.55886 2.50514 0
M  V30 7598 H 700.647 -2.09566 2.11863 0
M  V30 7599 H 698.184 -1.02607 1.05405 0
M  V30 7600 H 700.142 -4.11612 0.680519 0
M  V30 7601 H 698.772 -3.2278 -0.0359983 0
M  V30 7602 H 697.824 -2.97492 2.37071 0
M  V30 7603 H 699.136 -4.03382 2.93401 0
M  V30 7604 H 698.29 -5.88457 1.47658 0
M  V30 7605 H 697.029 -4.80927 0.809947 0
M  V30 7606 H 696.034 -4.54127 3.09917 0
M  V30 7607 H 697.259 -5.65104 3.76609 0
M  V30 7608 H 695.205 -6.35306 1.63471 0
M  V30 7609 H 695.122 -6.79799 3.30771 0
M  V30 7610 H 696.39 -7.44489 2.30989 0
M  V30 7611 N 700.619 -1.13374 -1.09472 0
M  V30 7612 C 701.868 -0.889844 -1.8101 0
M  V30 7613 C 702.181 0.585686 -1.86625 0
M  V30 7614 O 703.387 0.946497 -2.54467 0
M  V30 7615 C 701.843 -1.54241 -3.25174 0
M  V30 7616 C 701.451 -3.05343 -3.27826 0
M  V30 7617 C 703.195 -1.37919 -4.0147 0
M  V30 7618 C 701.102 -3.63486 -4.6651 0
M  V30 7619 H 700.032 -0.329256 -0.678311 0
M  V30 7620 H 702.683 -1.36139 -1.23038 0
M  V30 7621 H 701.065 -0.998525 -3.83204 0
M  V30 7622 H 702.239 -3.66307 -2.79563 0
M  V30 7623 H 700.554 -3.21175 -2.65019 0
M  V30 7624 H 703.151 -1.78771 -5.03929 0
M  V30 7625 H 703.494 -0.323987 -4.15037 0
M  V30 7626 H 704.027 -1.89284 -3.49881 0
M  V30 7627 H 700.766 -4.68811 -4.58145 0
M  V30 7628 H 700.286 -3.073 -5.15099 0
M  V30 7629 H 701.965 -3.63134 -5.35484 0
M  V30 7630 N 702.098 1.27442 -0.927168 0
M  V30 7631 C 703.061 2.2512 -0.430525 0
M  V30 7632 C 704.061 1.54357 0.450619 0
M  V30 7633 O 705.251 1.72371 0.251774 0
M  V30 7634 C 702.383 3.38763 0.381144 0
M  V30 7635 H 703.576 2.70569 -1.29354 0
M  V30 7636 H 701.129 1.39355 -0.707806 0
M  V30 7637 H 701.864 2.98695 1.263 0
M  V30 7638 H 701.649 3.91298 -0.250618 0
M  V30 7639 H 703.139 4.11364 0.719012 0
M  V30 7640 N 703.576 0.692616 1.41565 0
M  V30 7641 C 704.853 0.150496 1.9502 0
M  V30 7642 C 705.233 -1.33881 1.63215 0
M  V30 7643 O 704.581 -2.08378 0.937598 0
M  V30 7644 C 704.791 0.438636 3.46233 0
M  V30 7645 C 706.139 0.364777 4.2303 0
M  V30 7646 O 707.163 0.373383 3.54238 0
M  V30 7647 O 706.022 0.32234 5.45549 0
M  V30 7648 H 703.116 0.0132454 0.826894 0
M  V30 7649 H 705.662 0.768574 1.51298 0
M  V30 7650 H 704.434 1.46962 3.62654 0
M  V30 7651 H 704.057 -0.210562 3.97042 0
M  V30 7652 N 705.054 -1.51416 0.437162 0
M  V30 7653 C 706.331 -1.94682 -0.189292 0
M  V30 7654 C 706.711 -1.37581 -1.60108 0
M  V30 7655 O 706.059 -0.562815 -2.2146 0
M  V30 7656 C 706.269 -3.48599 -0.167201 0
M  V30 7657 C 707.617 -4.2296 -0.372856 0
M  V30 7658 O 708.641 -3.55354 -0.245323 0
M  V30 7659 O 707.5 -5.42895 -0.626693 0
M  V30 7660 H 704.594 -0.816708 -0.130063 0
M  V30 7661 H 707.14 -1.62316 0.495128 0
M  V30 7662 H 705.912 -3.82616 0.81981 0
M  V30 7663 H 705.535 -3.87406 -0.894537 0
M  V30 7664 N 706.532 -0.168513 -1.56696 0
M  V30 7665 C 707.479 0.762875 -2.17828 0
M  V30 7666 C 708.449 1.22892 -1.11745 0
M  V30 7667 O 709.634 1.29759 -1.39883 0
M  V30 7668 C 706.774 1.9879 -2.82093 0
M  V30 7669 C 705.887 1.56568 -4.02629 0
M  V30 7670 C 705.022 2.74416 -4.54829 0
M  V30 7671 C 704.061 2.28671 -5.67782 0
M  V30 7672 N 703.198 3.39602 -6.14504 0
M  V30 7673 H 708.038 0.23479 -2.97074 0
M  V30 7674 H 705.575 0.104163 -1.46731 0
M  V30 7675 H 707.533 2.70636 -3.17509 0
M  V30 7676 H 706.163 2.48973 -2.05456 0
M  V30 7677 H 705.215 0.744067 -3.73052 0
M  V30 7678 H 706.527 1.18988 -4.844 0
M  V30 7679 H 705.681 3.54423 -4.92412 0
M  V30 7680 H 704.42 3.15254 -3.7211 0
M  V30 7681 H 703.425 1.4711 -5.29753 0
M  V30 7682 H 704.65 1.88894 -6.52301 0
M  V30 7683 H 702.596 3.80021 -5.34715 0
M  V30 7684 H 702.513 3.06105 -6.91257 0
M  V30 7685 H 703.781 4.19902 -6.56737 0
M  V30 7686 N 708.01 1.57248 0.105221 0
M  V30 7687 C 709.24 1.89492 0.823175 0
M  V30 7688 C 709.648 0.75934 1.73294 0
M  V30 7689 O 708.991 -0.278182 1.81581 0
M  V30 7690 C 709.053 3.16891 1.69765 0
M  V30 7691 C 708.717 4.46787 0.960769 0
M  V30 7692 C 709.714 5.19061 0.295218 0
M  V30 7693 C 707.399 4.93467 0.937854 0
M  V30 7694 C 709.393 6.36246 -0.383393 0
M  V30 7695 C 707.08 6.10566 0.255452 0
M  V30 7696 C 708.078 6.81804 -0.404003 0
M  V30 7697 O 707.766 7.96673 -1.07549 0
M  V30 7698 H 707.498 0.631512 0.24118 0
M  V30 7699 H 710.052 2.05203 0.0899655 0
M  V30 7700 H 708.282 2.973 2.47285 0
M  V30 7701 H 709.971 3.35046 2.29126 0
M  V30 7702 H 710.737 4.84044 0.304448 0
M  V30 7703 H 706.616 4.37913 1.44058 0
M  V30 7704 H 710.16 6.91787 -0.898696 0
M  V30 7705 H 706.057 6.45039 0.244032 0
M  V30 7706 H 706.825 8.12596 -0.981355 0
M  V30 7707 N 709.488 -0.375779 1.53054 0
M  V30 7708 C 710.436 -1.48015 1.79428 0
M  V30 7709 C 711.43 -1.55893 0.662854 0
M  V30 7710 O 712.636 -1.58901 0.845599 0
M  V30 7711 H 709.011 -0.492887 0.56795 0
M  V30 7712 H 710.982 -1.22971 2.71884 0
M  V30 7713 C 709.731 -2.84984 1.99197 0
M  V30 7714 H 709.054 -2.79677 2.85693 0
M  V30 7715 H 710.494 -3.61462 2.21633 0
M  V30 7716 C 708.953 -3.28025 0.768183 0
M  V30 7717 O 709.483 -4.01671 -0.0480482 0
M  V30 7718 N 707.689 -2.84454 0.594521 0
M  V30 7719 H 707.236 -2.24688 1.25988 0
M  V30 7720 H 707.194 -3.13609 -0.222916 0
M  V30 7721 N 710.966 -1.44241 -0.634997 0
M  V30 7722 C 712.243 -1.37296 -1.39317 0
M  V30 7723 C 712.623 -0.0297532 -2.11079 0
M  V30 7724 O 711.971 0.987524 -2.06059 0
M  V30 7725 C 712.181 -2.56853 -2.36279 0
M  V30 7726 C 713.529 -3.00747 -2.99728 0
M  V30 7727 O 714.553 -2.5703 -2.46605 0
M  V30 7728 O 713.412 -3.76533 -3.96087 0
M  V30 7729 H 710.506 -0.543503 -0.623325 0
M  V30 7730 H 713.052 -1.56324 -0.660376 0
M  V30 7731 H 711.824 -3.46228 -1.82324 0
M  V30 7732 H 711.447 -2.40019 -3.16981 0
M  V30 7733 N 712.444 0.87505 -1.31075 0
M  V30 7734 C 713.672 1.66058 -1.23419 0
M  V30 7735 C 714.087 1.87723 0.201347 0
M  V30 7736 O 713.444 1.43178 1.13165 0
M  V30 7737 C 713.495 3.03142 -1.96945 0
M  V30 7738 O 713.216 2.82448 -3.34895 0
M  V30 7739 C 714.717 3.97583 -1.96067 0
M  V30 7740 H 711.937 0.517868 -0.426677 0
M  V30 7741 H 714.481 1.09258 -1.72867 0
M  V30 7742 H 712.636 3.56645 -1.51271 0
M  V30 7743 H 713.05 3.69483 -3.72267 0
M  V30 7744 H 714.524 4.91104 -2.52034 0
M  V30 7745 H 715.001 4.2898 -0.941961 0
M  V30 7746 H 715.607 3.50015 -2.41597 0
M  V30 7747 N 713.922 1.13953 1.08869 0
M  V30 7748 C 715.169 0.90481 1.81161 0
M  V30 7749 C 715.497 -0.568824 1.85996 0
M  V30 7750 O 714.752 -1.43723 1.32823 0
M  V30 7751 C 715.051 1.44495 3.26888 0
M  V30 7752 C 714.717 2.93641 3.42178 0
M  V30 7753 C 713.379 3.34361 3.46059 0
M  V30 7754 C 715.731 3.89568 3.46246 0
M  V30 7755 C 713.059 4.69681 3.51592 0
M  V30 7756 C 715.411 5.2474 3.53314 0
M  V30 7757 C 714.075 5.64979 3.55465 0
M  V30 7758 H 713.345 0.331094 0.662916 0
M  V30 7759 H 715.992 1.42242 1.28217 0
M  V30 7760 H 714.297 0.848169 3.82509 0
M  V30 7761 H 715.994 1.23934 3.81368 0
M  V30 7762 H 712.584 2.61156 3.39846 0
M  V30 7763 H 716.768 3.59192 3.42483 0
M  V30 7764 H 712.024 5.00224 3.51547 0
M  V30 7765 H 716.198 5.98882 3.55406 0
M  V30 7766 H 713.825 6.69821 3.59505 0
M  V30 7767 N 715.4 -1.26948 0.933913 0
M  V30 7768 C 716.646 -1.94716 0.587985 0
M  V30 7769 C 717.001 -1.71994 -0.862312 0
M  V30 7770 O 716.294 -1.04208 -1.60783 0
M  V30 7771 C 716.488 -3.46963 0.857406 0
M  V30 7772 C 716.317 -3.84489 2.33234 0
M  V30 7773 C 715.087 -4.07621 2.98618 0
M  V30 7774 C 717.285 -3.93602 3.31031 0
M  V30 7775 N 715.267 -4.31976 4.362 0
M  V30 7776 C 716.638 -4.22404 4.53845 0
M  V30 7777 C 718.693 -3.76201 3.26155 0
M  V30 7778 C 717.396 -4.35615 5.72391 0
M  V30 7779 C 719.422 -3.90641 4.4402 0
M  V30 7780 C 718.784 -4.19835 5.65613 0
M  V30 7781 H 714.883 -0.735586 0.2654 0
M  V30 7782 H 717.467 -1.53181 1.20182 0
M  V30 7783 H 715.638 -3.87442 0.27268 0
M  V30 7784 H 717.37 -4.01921 0.47348 0
M  V30 7785 H 714.125 -4.02696 2.49264 0
M  V30 7786 H 714.549 -4.48199 5.07392 0
M  V30 7787 H 719.191 -3.52665 2.3321 0
M  V30 7788 H 716.909 -4.57975 6.65796 0
M  V30 7789 H 720.495 -3.78589 4.41771 0
M  V30 7790 H 719.375 -4.30765 6.55295 0
M  V30 7791 N 716.879 -0.700114 -1.41195 0
M  V30 7792 C 717.826 -0.0376652 -2.30769 0
M  V30 7793 C 718.796 0.766544 -1.47354 0
M  V30 7794 O 719.981 0.73365 -1.76131 0
M  V30 7795 C 717.121 0.889452 -3.33441 0
M  V30 7796 C 716.234 0.076373 -4.31932 0
M  V30 7797 C 715.369 1.00155 -5.21673 0
M  V30 7798 C 714.408 0.181644 -6.1183 0
M  V30 7799 N 713.545 1.06087 -6.94039 0
M  V30 7800 H 718.385 -0.80726 -2.86858 0
M  V30 7801 H 715.922 -0.409798 -1.41277 0
M  V30 7802 H 717.88 1.44107 -3.91522 0
M  V30 7803 H 716.51 1.6254 -2.78892 0
M  V30 7804 H 715.562 -0.592223 -3.75762 0
M  V30 7805 H 716.874 -0.559076 -4.95657 0
M  V30 7806 H 716.028 1.62223 -5.8461 0
M  V30 7807 H 714.767 1.67085 -4.58186 0
M  V30 7808 H 713.772 -0.452085 -5.47938 0
M  V30 7809 H 714.997 -0.483925 -6.77374 0
M  V30 7810 H 712.943 1.7161 -6.33156 0
M  V30 7811 H 712.86 0.481094 -7.54468 0
M  V30 7812 H 714.128 1.66822 -7.6144 0
M  V30 7813 N 718.357 1.51182 -0.445186 0
M  V30 7814 C 719.267 2.31692 0.368255 0
M  V30 7815 C 720.283 1.40942 1.02036 0
M  V30 7816 O 721.459 1.74011 1.01401 0
M  V30 7817 C 718.524 3.14903 1.45041 0
M  V30 7818 C 717.585 4.21442 0.817615 0
M  V30 7819 C 716.818 5.00677 1.8482 0
M  V30 7820 O 717.041 4.80644 3.07145 0
M  V30 7821 O 715.975 5.84559 1.43438 0
M  V30 7822 H 719.801 3.0232 -0.289219 0
M  V30 7823 H 717.386 1.47951 -0.207555 0
M  V30 7824 H 719.268 3.66612 2.07783 0
M  V30 7825 H 717.943 2.47031 2.09182 0
M  V30 7826 H 716.85 3.73791 0.151931 0
M  V30 7827 H 718.183 4.9171 0.219564 0
M  V30 7828 N 719.835 0.176821 1.56605 0
M  V30 7829 C 721.082 -0.466715 1.97048 0
M  V30 7830 C 721.41 -1.6288 1.06302 0
M  V30 7831 O 720.665 -1.95453 0.0982571 0
M  V30 7832 C 720.964 -0.986208 3.43524 0
M  V30 7833 C 720.63 0.0605667 4.50859 0
M  V30 7834 C 719.292 0.348242 4.79938 0
M  V30 7835 C 721.644 0.770794 5.15469 0
M  V30 7836 C 718.972 1.35144 5.70923 0
M  V30 7837 C 721.324 1.76301 6.07537 0
M  V30 7838 C 719.988 2.05808 6.3498 0
M  V30 7839 H 719.258 -0.170783 0.721051 0
M  V30 7840 H 721.905 0.269942 1.89588 0
M  V30 7841 H 720.21 -1.80079 3.47964 0
M  V30 7842 H 721.907 -1.49323 3.72161 0
M  V30 7843 H 718.497 -0.173823 4.28247 0
M  V30 7844 H 722.681 0.56176 4.9311 0
M  V30 7845 H 717.937 1.58616 5.90467 0
M  V30 7846 H 722.111 2.31868 6.56666 0
M  V30 7847 H 719.738 2.8369 7.05283 0
M  V30 7848 N 721.313 -1.57302 -0.09688 0
M  V30 7849 C 722.561 -1.8563 -0.799117 0
M  V30 7850 C 722.882 -0.765263 -1.79356 0
M  V30 7851 O 722.152 0.208657 -1.94786 0
M  V30 7852 H 720.732 -0.684937 -0.298111 0
M  V30 7853 H 723.394 -1.9474 -0.0789341 0
M  V30 7854 H 722.49 -2.82305 -1.3308 0
M  V30 7855 N 722.791 0.367657 -1.53252 0
M  V30 7856 C 724.019 1.13119 -1.73239 0
M  V30 7857 C 724.434 1.831 -0.460404 0
M  V30 7858 O 723.791 1.73483 0.566557 0
M  V30 7859 C 723.842 2.16308 -2.89643 0
M  V30 7860 O 723.563 1.49175 -4.1192 0
M  V30 7861 C 725.064 3.05224 -3.21486 0
M  V30 7862 H 722.284 0.338318 -0.579467 0
M  V30 7863 H 724.828 0.42721 -1.99988 0
M  V30 7864 H 722.983 2.82307 -2.65295 0
M  V30 7865 H 723.397 2.17912 -4.7709 0
M  V30 7866 H 724.871 3.73613 -4.06346 0
M  V30 7867 H 725.348 3.69919 -2.36763 0
M  V30 7868 H 725.954 2.44843 -3.47753 0
M  V30 7869 N 724.269 1.44576 0.627338 0
M  V30 7870 C 725.217 1.52039 1.76031 0
M  V30 7871 C 726.211 0.391796 1.64807 0
M  V30 7872 O 727.417 0.5669 1.7084 0
M  V30 7873 H 723.792 0.477165 0.581221 0
M  V30 7874 H 725.763 2.47387 1.6686 0
M  V30 7875 C 724.512 1.48539 3.14375 0
M  V30 7876 H 723.835 2.34699 3.23661 0
M  V30 7877 H 725.275 1.57821 3.93534 0
M  V30 7878 C 723.734 0.20672 3.36265 0
M  V30 7879 O 724.264 -0.72154 3.95167 0
M  V30 7880 N 722.47 0.108654 2.90397 0
M  V30 7881 H 722.017 0.864884 2.42647 0
M  V30 7882 H 721.975 -0.746121 3.05418 0
M  V30 7883 N 725.747 -0.868086 1.31537 0
M  V30 7884 C 726.996 -1.61607 1.20689 0
M  V30 7885 C 727.309 -1.94204 -0.233275 0
M  V30 7886 O 728.515 -2.67515 -0.463465 0
M  V30 7887 C 726.971 -2.91348 2.11292 0
M  V30 7888 C 726.579 -2.66227 3.60315 0
M  V30 7889 C 728.323 -3.69344 2.09249 0
M  V30 7890 C 726.23 -3.91887 4.42921 0
M  V30 7891 H 725.16 -0.606373 0.448138 0
M  V30 7892 H 727.811 -0.959666 1.56405 0
M  V30 7893 H 726.193 -3.58374 1.68477 0
M  V30 7894 H 727.367 -2.07597 4.11388 0
M  V30 7895 H 725.682 -2.01582 3.64354 0
M  V30 7896 H 728.279 -4.62567 2.68209 0
M  V30 7897 H 728.622 -4.02044 1.0801 0
M  V30 7898 H 729.155 -3.09205 2.50274 0
M  V30 7899 H 725.894 -3.64336 5.44922 0
M  V30 7900 H 725.414 -4.49961 3.96605 0
M  V30 7901 H 727.093 -4.59754 4.55231 0
M  V30 7902 N 727.225 -1.14528 -1.08264 0
M  V30 7903 C 728.172 -0.833556 -2.15222 0
M  V30 7904 C 729.142 0.209539 -1.64773 0
M  V30 7905 O 730.327 0.0791388 -1.90636 0
M  V30 7906 C 727.467 -0.318799 -3.43624 0
M  V30 7907 C 726.58 -1.42237 -4.07913 0
M  V30 7908 C 725.715 -0.864704 -5.24115 0
M  V30 7909 C 724.754 -1.94585 -5.80347 0
M  V30 7910 N 723.891 -1.40525 -6.87893 0
M  V30 7911 H 728.731 -1.74965 -2.41228 0
M  V30 7912 H 726.268 -0.873169 -1.18381 0
M  V30 7913 H 728.226 -0.00213088 -4.172 0
M  V30 7914 H 726.856 0.560397 -3.17898 0
M  V30 7915 H 725.908 -1.8554 -3.32083 0
M  V30 7916 H 727.22 -2.23901 -4.45724 0
M  V30 7917 H 726.374 -0.500025 -6.04636 0
M  V30 7918 H 725.113 -0.0171219 -4.87697 0
M  V30 7919 H 724.118 -2.31946 -4.98479 0
M  V30 7920 H 725.343 -2.79704 -6.18823 0
M  V30 7921 H 723.289 -0.579873 -6.53432 0
M  V30 7922 H 723.206 -2.15825 -7.24538 0
M  V30 7923 H 724.474 -1.06852 -7.72142 0
M  V30 7924 N 728.703 1.26451 -0.940633 0
M  V30 7925 C 729.633 2.28773 -0.467479 0
M  V30 7926 C 730.614 1.63218 0.478955 0
M  V30 7927 O 731.799 1.90427 0.380929 0
M  V30 7928 C 728.929 3.46259 0.268656 0
M  V30 7929 C 727.883 4.23898 -0.591171 0
M  V30 7930 C 727.209 5.33993 0.274891 0
M  V30 7931 C 728.509 4.87974 -1.86223 0
M  V30 7932 H 730.203 2.68601 -1.32265 0
M  V30 7933 H 727.749 1.29123 -0.637436 0
M  V30 7934 H 729.702 4.16951 0.610696 0
M  V30 7935 H 728.426 3.05383 1.15796 0
M  V30 7936 H 727.085 3.54969 -0.916098 0
M  V30 7937 H 726.733 4.89358 1.16353 0
M  V30 7938 H 726.433 5.86849 -0.297006 0
M  V30 7939 H 727.957 6.07523 0.612213 0
M  V30 7940 H 729.371 5.50883 -1.58747 0
M  V30 7941 H 727.768 5.50945 -2.37866 0
M  V30 7942 H 728.838 4.10945 -2.57394 0
M  V30 7943 N 730.181 0.707592 1.40822 0
M  V30 7944 C 731.429 0.243189 2.00632 0
M  V30 7945 C 731.75 -1.16512 1.56365 0
M  V30 7946 O 731.02 -1.78841 0.799553 0
M  V30 7947 H 729.6 0.0869203 0.741926 0
M  V30 7948 H 732.262 0.911438 1.72275 0
M  V30 7949 H 731.358 0.270014 3.1093 0
M  V30 7950 N 731.66 -1.50943 0.453197 0
M  V30 7951 C 732.906 -2.02512 -0.108082 0
M  V30 7952 C 733.239 -1.33574 -1.40967 0
M  V30 7953 O 732.514 -0.455671 -1.89087 0
M  V30 7954 C 732.797 -3.58759 -0.310453 0
M  V30 7955 C 732.65 -4.38293 1.0109 0
M  V30 7956 C 733.969 -4.26816 -1.07313 0
M  V30 7957 H 731.088 -0.73603 -0.0378064 0
M  V30 7958 H 733.73 -1.80433 0.595295 0
M  V30 7959 H 731.88 -3.77702 -0.909582 0
M  V30 7960 H 733.552 -4.30964 1.64523 0
M  V30 7961 H 731.795 -4.02745 1.61179 0
M  V30 7962 H 732.466 -5.45828 0.82315 0
M  V30 7963 H 734.942 -4.1224 -0.565473 0
M  V30 7964 H 733.818 -5.35989 -1.1835 0
M  V30 7965 H 734.079 -3.88757 -2.10525 0
M  V30 7966 N 733.138 -0.185124 -1.56509 0
M  V30 7967 C 734.387 0.456421 -1.96468 0
M  V30 7968 C 734.7 1.63448 -1.07444 0
M  V30 7969 O 735.906 2.34316 -1.37143 0
M  V30 7970 C 734.362 0.863404 -3.4939 0
M  V30 7971 C 733.97 -0.289815 -4.47062 0
M  V30 7972 C 735.714 1.47259 -3.98139 0
M  V30 7973 C 733.621 0.137571 -5.9124 0
M  V30 7974 H 732.551 0.17429 -0.733579 0
M  V30 7975 H 735.202 -0.275554 -1.81419 0
M  V30 7976 H 733.584 1.65176 -3.59907 0
M  V30 7977 H 734.758 -1.06728 -4.4827 0
M  V30 7978 H 733.073 -0.809851 -4.08449 0
M  V30 7979 H 735.67 1.80463 -5.03326 0
M  V30 7980 H 736.013 2.3755 -3.41871 0
M  V30 7981 H 736.546 0.748405 -3.90696 0
M  V30 7982 H 733.285 -0.730907 -6.51412 0
M  V30 7983 H 732.805 0.8801 -5.93308 0
M  V30 7984 H 734.484 0.576771 -6.44424 0
M  V30 7985 N 734.616 1.57351 0.0885366 0
M  V30 7986 C 735.526 2.05858 1.12516 0
M  V30 7987 C 736.542 0.984758 1.43452 0
M  V30 7988 O 737.718 1.29836 1.53963 0
M  V30 7989 C 734.783 2.47882 2.42395 0
M  V30 7990 C 733.844 3.69487 2.18582 0
M  V30 7991 C 733.077 4.09497 3.42268 0
M  V30 7992 O 733.3 3.49536 4.50755 0
M  V30 7993 O 732.234 5.02406 3.31469 0
M  V30 7994 H 736.06 2.94467 0.743146 0
M  V30 7995 H 733.645 1.46326 0.301507 0
M  V30 7996 H 735.527 2.75509 3.18862 0
M  V30 7997 H 734.202 1.62408 2.8001 0
M  V30 7998 H 733.109 3.46967 1.39875 0
M  V30 7999 H 734.442 4.55761 1.85857 0
M  V30 8000 N 736.094 -0.359525 1.53444 0
M  V30 8001 C 737.371 -1.11756 1.6053 0
M  V30 8002 C 737.751 -2.06949 0.416587 0
M  V30 8003 O 737.099 -2.20681 -0.592628 0
M  V30 8004 C 737.309 -1.85133 2.95849 0
M  V30 8005 C 738.657 -2.3945 3.50641 0
M  V30 8006 O 739.681 -1.95251 2.97918 0
M  V30 8007 O 738.54 -3.20266 4.42823 0
M  V30 8008 H 735.634 -0.513005 0.648656 0
M  V30 8009 H 738.18 -0.362301 1.65787 0
M  V30 8010 H 736.952 -1.15694 3.73806 0
M  V30 8011 H 736.575 -2.67554 2.9411 0
M  V30 8012 N 737.572 -1.44907 -0.619662 0
M  V30 8013 C 738.522 -1.49085 -1.72504 0
M  V30 8014 C 739.506 -0.355372 -1.56926 0
M  V30 8015 O 740.698 -0.601441 -1.66468 0
M  V30 8016 C 737.827 -1.44889 -3.11227 0
M  V30 8017 C 736.913 -2.63593 -3.32234 0
M  V30 8018 N 737.304 -3.88775 -3.23555 0
M  V30 8019 C 735.602 -2.59033 -3.63067 0
M  V30 8020 C 736.303 -4.67932 -3.45564 0
M  V30 8021 N 735.279 -3.9919 -3.68983 0
M  V30 8022 H 739.081 -2.43706 -1.6427 0
M  V30 8023 H 736.595 -1.4003 -0.82252 0
M  V30 8024 H 738.592 -1.45966 -3.90512 0
M  V30 8025 H 737.252 -0.513143 -3.2062 0
M  V30 8026 H 738.263 -4.20574 -3.02221 0
M  V30 8027 H 734.94 -1.7431 -3.79371 0
M  V30 8028 H 736.33 -5.76952 -3.44349 0
M  V30 8029 N 739.05 0.861098 -1.31996 0
M  V30 8030 C 740.275 1.65264 -1.2531 0
M  V30 8031 C 740.7 1.87265 0.177007 0
M  V30 8032 O 740.058 1.4208 1.12619 0
M  V30 8033 C 740.106 2.99284 -2.0115 0
M  V30 8034 O 739.21 3.89508 -1.3549 0
M  V30 8035 H 738.551 0.50409 -0.432192 0
M  V30 8036 H 741.081 1.07297 -1.74208 0
M  V30 8037 H 741.091 3.49154 -2.11081 0
M  V30 8038 H 739.766 2.82591 -3.05148 0
M  V30 8039 H 738.343 3.47966 -1.34066 0
M  V30 8040 N 740.528 1.15101 1.07655 0
M  V30 8041 C 741.476 0.840714 2.16875 0
M  V30 8042 C 742.47 -0.184594 1.68391 0
M  V30 8043 O 743.676 -0.0399315 1.79956 0
M  V30 8044 H 740.051 0.254192 0.707736 0
M  V30 8045 H 742.022 1.76959 2.40266 0
M  V30 8046 C 740.771 0.343018 3.46004 0
M  V30 8047 H 740.094 1.12335 3.83694 0
M  V30 8048 H 741.534 0.16453 4.23681 0
M  V30 8049 C 739.993 -0.934881 3.23669 0
M  V30 8050 O 740.523 -2.00706 3.47965 0
M  V30 8051 N 738.729 -0.873167 2.77172 0
M  V30 8052 H 738.276 -0.000479072 2.576 0
M  V30 8053 H 738.234 -1.72873 2.62607 0
M  V30 8054 N 742.006 -1.2595 0.947325 0
M  V30 8055 C 743.422 -1.45737 0.650597 0
M  V30 8056 C 743.622 -1.85189 -0.794188 0
M  V30 8057 O 742.678 -1.97738 -1.57022 0
M  V30 8058 C 743.991 -2.53505 1.61728 0
M  V30 8059 C 745.539 -2.67351 1.62765 0
M  V30 8060 C 746.014 -3.78296 2.58179 0
M  V30 8061 N 747.505 -3.85696 2.56501 0
M  V30 8062 C 748.24 -4.71012 3.2701 0
M  V30 8063 N 747.736 -5.60669 4.06966 0
M  V30 8064 N 749.529 -4.64912 3.15932 0
M  V30 8065 H 741.68 -0.986327 1.8811 0
M  V30 8066 H 743.943 -0.494639 0.808725 0
M  V30 8067 H 743.649 -2.31357 2.6489 0
M  V30 8068 H 743.523 -3.51281 1.3741 0
M  V30 8069 H 745.91 -2.88869 0.603241 0
M  V30 8070 H 745.991 -1.69998 1.91139 0
M  V30 8071 H 745.635 -3.5753 3.60742 0
M  V30 8072 H 745.565 -4.75117 2.27093 0
M  V30 8073 H 748.056 -3.21601 1.98447 0
M  V30 8074 H 748.369 -6.22677 4.57704 0
M  V30 8075 H 746.714 -5.60402 4.11066 0
M  V30 8076 H 749.905 -3.93874 2.52945 0
M  V30 8077 H 750.078 -5.3118 3.71149 0
M  V30 8078 N 743.484 -0.715051 -1.40445 0
M  V30 8079 C 744.712 -0.263959 -2.05209 0
M  V30 8080 C 745.127 1.09403 -1.53871 0
M  V30 8081 O 744.484 1.68746 -0.695064 0
M  V30 8082 C 744.535 -0.234545 -3.60738 0
M  V30 8083 O 744.256 -1.53891 -4.10182 0
M  V30 8084 C 745.757 0.235164 -4.42676 0
M  V30 8085 H 742.977 -0.11876 -0.660407 0
M  V30 8086 H 745.521 -0.973107 -1.79864 0
M  V30 8087 H 743.676 0.425563 -3.85055 0
M  V30 8088 H 744.09 -1.43903 -5.04373 0
M  V30 8089 H 745.564 0.204598 -5.51621 0
M  V30 8090 H 746.041 1.27724 -4.20218 0
M  V30 8091 H 746.647 -0.394649 -4.23465 0
M  V30 8092 N 744.962 1.50701 -0.461195 0
M  V30 8093 C 746.378 1.59187 -0.114786 0
M  V30 8094 C 746.578 1.4702 1.37794 0
M  V30 8095 O 745.634 1.32361 2.15027 0
M  V30 8096 C 746.947 2.93453 -0.656167 0
M  V30 8097 C 748.495 3.06824 -0.618715 0
M  V30 8098 C 748.97 4.4365 -1.13747 0
M  V30 8099 N 750.461 4.50035 -1.09646 0
M  V30 8100 C 751.196 5.54278 -1.46846 0
M  V30 8101 N 750.692 6.65822 -1.91448 0
M  V30 8102 N 752.485 5.44767 -1.38512 0
M  V30 8103 H 744.636 1.56853 -1.43216 0
M  V30 8104 H 746.899 0.740712 -0.59165 0
M  V30 8105 H 746.605 3.07802 -1.7015 0
M  V30 8106 H 746.479 3.77082 -0.0942261 0
M  V30 8107 H 748.866 2.92129 0.417685 0
M  V30 8108 H 748.947 2.24976 -1.21734 0
M  V30 8109 H 748.591 4.59093 -2.17245 0
M  V30 8110 H 748.521 5.24074 -0.515153 0
M  V30 8111 H 751.012 3.69988 -0.769217 0
M  V30 8112 H 751.325 7.41413 -2.18007 0
M  V30 8113 H 749.67 6.66968 -1.95393 0
M  V30 8114 H 752.861 4.56511 -1.03516 0
M  V30 8115 H 753.034 6.25889 -1.6783 0
M  V30 8116 N 746.441 0.193421 1.56409 0
M  V30 8117 C 747.371 -0.723334 2.22014 0
M  V30 8118 C 748.352 -1.22254 1.1827 0
M  V30 8119 O 749.537 -1.27168 1.46771 0
M  V30 8120 C 746.667 -1.94366 2.87818 0
M  V30 8121 C 745.621 -1.57943 3.97791 0
M  V30 8122 C 744.947 -2.87623 4.50752 0
M  V30 8123 C 746.247 -0.790639 5.16281 0
M  V30 8124 H 747.941 -0.176426 2.9888 0
M  V30 8125 H 745.487 -0.0834166 1.43758 0
M  V30 8126 H 747.44 -2.5902 3.32396 0
M  V30 8127 H 746.164 -2.51507 2.08355 0
M  V30 8128 H 744.823 -0.956482 3.53903 0
M  V30 8129 H 744.471 -3.4285 3.68053 0
M  V30 8130 H 744.171 -2.63998 5.24956 0
M  V30 8131 H 745.695 -3.53268 4.9803 0
M  V30 8132 H 747.109 -1.34024 5.57414 0
M  V30 8133 H 745.506 -0.65258 5.96541 0
M  V30 8134 H 746.576 0.208633 4.84451 0
M  V30 8135 N 747.919 -1.57396 -0.0801906 0
M  V30 8136 C 748.882 -2.02133 -1.0805 0
M  V30 8137 C 749.882 -0.91707 -1.32085 0
M  V30 8138 O 751.072 -1.18217 -1.27947 0
M  V30 8139 C 748.204 -2.39479 -2.42616 0
M  V30 8140 H 749.397 -2.91733 -0.6951 0
M  V30 8141 H 746.95 -1.52869 -0.325677 0
M  V30 8142 H 747.685 -1.52879 -2.86004 0
M  V30 8143 H 747.47 -3.20052 -2.26515 0
M  V30 8144 H 748.96 -2.74697 -3.14534 0
M  V30 8145 N 749.397 0.351382 -1.53633 0
M  V30 8146 C 750.344 1.43115 -1.81071 0
M  V30 8147 C 751.314 1.52601 -0.655913 0
M  V30 8148 O 752.499 1.68264 -0.89955 0
M  V30 8149 C 749.639 2.79874 -2.01903 0
M  V30 8150 C 748.752 2.79242 -3.29618 0
M  V30 8151 C 747.887 4.07667 -3.40559 0
M  V30 8152 C 746.926 4.01233 -4.62254 0
M  V30 8153 N 746.063 5.21334 -4.70271 0
M  V30 8154 H 750.903 1.19017 -2.73201 0
M  V30 8155 H 748.44 0.576691 -1.35324 0
M  V30 8156 H 750.398 3.5934 -2.11969 0
M  V30 8157 H 749.028 3.0234 -1.13094 0
M  V30 8158 H 748.08 1.91927 -3.28433 0
M  V30 8159 H 749.392 2.70363 -4.19172 0
M  V30 8160 H 748.546 4.95555 -3.50015 0
M  V30 8161 H 747.285 4.19317 -2.49047 0
M  V30 8162 H 746.29 3.11732 -4.52884 0
M  V30 8163 H 747.515 3.91173 -5.55122 0
M  V30 8164 H 745.461 5.33543 -3.81665 0
M  V30 8165 H 745.378 5.14681 -5.5375 0
M  V30 8166 H 746.646 6.11014 -4.84027 0
M  V30 8167 N 750.875 1.45233 0.611969 0
M  V30 8168 C 751.805 1.5641 1.73373 0
M  V30 8169 C 752.786 0.415896 1.64937 0
M  V30 8170 O 753.971 0.638478 1.83404 0
M  V30 8171 C 751.101 1.52627 3.11965 0
M  V30 8172 C 750.055 2.66119 3.35208 0
M  V30 8173 C 749.381 2.4739 4.74028 0
M  V30 8174 C 750.681 4.08157 3.25891 0
M  V30 8175 H 752.375 2.50307 1.64277 0
M  V30 8176 H 749.921 1.20467 0.788904 0
M  V30 8177 H 751.874 1.59043 3.90235 0
M  V30 8178 H 750.598 0.552564 3.21892 0
M  V30 8179 H 749.257 2.59123 2.59327 0
M  V30 8180 H 748.905 1.48168 4.80682 0
M  V30 8181 H 748.605 3.23494 4.90536 0
M  V30 8182 H 750.129 2.55653 5.54503 0
M  V30 8183 H 751.543 4.1642 3.9404 0
M  V30 8184 H 749.94 4.84617 3.5393 0
M  V30 8185 H 751.01 4.30374 2.23397 0
M  V30 8186 N 752.353 -0.854086 1.3245 0
M  V30 8187 C 753.283 -1.97827 1.24044 0
M  V30 8188 C 754.264 -1.69646 0.124166 0
M  V30 8189 O 755.449 -1.91687 0.31143 0
M  V30 8190 C 752.579 -3.33673 0.963324 0
M  V30 8191 C 751.533 -3.76207 2.04089 0
M  V30 8192 C 750.859 -5.0969 1.61618 0
M  V30 8193 C 752.159 -3.91612 3.45597 0
M  V30 8194 H 753.853 -2.05118 2.18099 0
M  V30 8195 H 751.399 -0.985489 1.04996 0
M  V30 8196 H 753.352 -4.11871 0.891061 0
M  V30 8197 H 752.076 -3.26597 -0.0128649 0
M  V30 8198 H 750.735 -3.0026 2.10332 0
M  V30 8199 H 750.383 -4.99072 0.627418 0
M  V30 8200 H 750.083 -5.3912 2.33717 0
M  V30 8201 H 751.607 -5.90381 1.55829 0
M  V30 8202 H 753.021 -4.60163 3.4194 0
M  V30 8203 H 751.418 -4.3246 4.16051 0
M  V30 8204 H 752.488 -2.9451 3.85217 0
M  V30 8205 N 753.831 -1.1567 -1.07043 0
M  V30 8206 C 755.247 -0.900006 -1.31803 0
M  V30 8207 C 755.447 0.451293 -1.96381 0
M  V30 8208 O 754.503 1.19252 -2.22565 0
M  V30 8209 C 755.816 -2.04334 -2.20609 0
M  V30 8210 C 757.364 -2.07823 -2.34048 0
M  V30 8211 C 757.839 -3.21488 -3.26204 0
M  V30 8212 N 759.33 -3.21156 -3.33786 0
M  V30 8213 C 760.065 -4.05746 -4.05163 0
M  V30 8214 N 759.561 -5.00407 -4.79129 0
M  V30 8215 N 761.354 -3.93759 -4.01136 0
M  V30 8216 H 753.505 -2.02681 -0.635146 0
M  V30 8217 H 755.768 -0.883956 -0.342528 0
M  V30 8218 H 755.474 -3.01895 -1.80423 0
M  V30 8219 H 755.348 -1.97838 -3.21154 0
M  V30 8220 H 757.735 -1.1086 -2.73485 0
M  V30 8221 H 757.816 -2.18386 -1.33197 0
M  V30 8222 H 757.46 -4.18706 -2.87485 0
M  V30 8223 H 757.39 -3.08162 -4.27017 0
M  V30 8224 H 759.881 -2.52606 -2.81067 0
M  V30 8225 H 760.194 -5.61387 -5.31097 0
M  V30 8226 H 758.539 -5.04393 -4.78135 0
M  V30 8227 H 761.73 -3.19115 -3.42466 0
M  V30 8228 H 761.903 -4.59906 -4.56498 0
M  V30 8229 N 755.309 1.25446 -0.953992 0
M  V30 8230 C 756.556 1.93143 -0.608429 0
M  V30 8231 C 756.884 1.74727 0.854451 0
M  V30 8232 O 756.139 1.0855 1.62836 0
M  V30 8233 C 756.438 3.45555 -0.912496 0
M  V30 8234 C 756.104 3.84126 -2.36131 0
M  V30 8235 C 754.766 3.94367 -2.75732 0
M  V30 8236 C 757.118 4.0324 -3.30223 0
M  V30 8237 C 754.446 4.21127 -4.08496 0
M  V30 8238 C 756.798 4.31493 -4.62598 0
M  V30 8239 C 755.462 4.3995 -5.01996 0
M  V30 8240 H 754.732 0.706762 -0.22264 0
M  V30 8241 H 757.379 1.49005 -1.20291 0
M  V30 8242 H 755.684 3.91091 -0.235618 0
M  V30 8243 H 757.381 3.9612 -0.623714 0
M  V30 8244 H 753.971 3.76711 -2.04418 0
M  V30 8245 H 758.155 3.94744 -3.00817 0
M  V30 8246 H 753.411 4.2589 -4.38665 0
M  V30 8247 H 757.585 4.45227 -5.35486 0
M  V30 8248 H 755.212 4.60439 -6.04896 0
M  V30 8249 N 756.787 0.722489 1.40064 0
M  V30 8250 C 757.719 0.0349057 2.29173 0
M  V30 8251 C 758.732 -0.716571 1.46182 0
M  V30 8252 O 759.921 -0.562806 1.69395 0
M  V30 8253 C 757.021 -0.974839 3.24577 0
M  V30 8254 C 756.194 -0.287471 4.36454 0
M  V30 8255 C 755.253 -1.20356 5.12251 0
M  V30 8256 O 754.279 -0.685753 5.65054 0
M  V30 8257 N 755.481 -2.53422 5.22262 0
M  V30 8258 H 758.246 0.800058 2.88824 0
M  V30 8259 H 755.807 0.57068 1.51509 0
M  V30 8260 H 757.799 -1.59002 3.72157 0
M  V30 8261 H 756.369 -1.6413 2.66046 0
M  V30 8262 H 755.589 0.508008 3.90913 0
M  V30 8263 H 756.877 0.189382 5.08447 0
M  V30 8264 H 756.275 -2.97981 4.80857 0
M  V30 8265 H 754.832 -3.10067 5.73325 0
M  V30 8266 N 758.265 -1.50454 0.469181 0
M  V30 8267 C 759.49 -2.0722 -0.0864892 0
M  V30 8268 C 759.915 -1.33098 -1.32916 0
M  V30 8269 O 759.273 -0.378084 -1.77314 0
M  V30 8270 C 759.321 -3.58845 -0.355384 0
M  V30 8271 O 758.425 -3.86583 -1.43622 0
M  V30 8272 H 757.766 -0.663889 0.0121414 0
M  V30 8273 H 760.296 -1.93674 0.659674 0
M  V30 8274 H 760.306 -4.03617 -0.596447 0
M  V30 8275 H 758.981 -4.12211 0.552698 0
M  V30 8276 H 757.558 -3.5365 -1.18262 0
M  V30 8277 N 759.743 -0.201713 -1.56304 0
M  V30 8278 C 760.968 0.443815 -2.02596 0
M  V30 8279 C 761.393 1.53945 -1.08086 0
M  V30 8280 O 760.751 1.81182 -0.0655056 0
M  V30 8281 C 760.799 0.971066 -3.47279 0
M  V30 8282 O 759.903 2.0836 -3.55893 0
M  V30 8283 H 759.244 0.10294 -0.655972 0
M  V30 8284 H 761.774 -0.314533 -2.02168 0
M  V30 8285 H 761.784 1.28598 -3.87204 0
M  V30 8286 H 760.459 0.169048 -4.15556 0
M  V30 8287 H 759.036 1.77683 -3.27846 0
M  V30 8288 N 761.222 1.57436 0.0718424 0
M  V30 8289 C 762.172 2.00132 1.09229 0
M  V30 8290 C 763.156 0.883379 1.34481 0
M  V30 8291 O 764.348 1.14728 1.34783 0
M  V30 8292 C 761.477 2.44876 2.40605 0
M  V30 8293 C 760.563 3.63405 2.18627 0
M  V30 8294 N 760.954 4.77583 1.66579 0
M  V30 8295 C 759.252 3.69953 2.491 0
M  V30 8296 C 759.953 5.5943 1.59415 0
M  V30 8297 N 758.929 5.03275 2.05464 0
M  V30 8298 H 762.731 2.85849 0.683185 0
M  V30 8299 H 760.245 1.59987 0.278914 0
M  V30 8300 H 762.242 2.73703 3.14471 0
M  V30 8301 H 760.902 1.60546 2.82232 0
M  V30 8302 H 761.913 4.99875 1.35443 0
M  V30 8303 H 758.59 2.96336 2.94094 0
M  V30 8304 H 759.98 6.61093 1.20026 0
M  V30 8305 N 762.7 -0.34323 1.53817 0
M  V30 8306 C 763.65 -1.42217 1.78208 0
M  V30 8307 C 764.634 -1.4774 0.637304 0
M  V30 8308 O 765.826 -1.52605 0.896705 0
M  V30 8309 C 762.955 -2.79354 1.9954 0
M  V30 8310 C 762.041 -2.78222 3.20084 0
M  V30 8311 N 762.432 -2.46719 4.41547 0
M  V30 8312 C 760.73 -3.09368 3.21259 0
M  V30 8313 C 761.431 -2.53828 5.23399 0
M  V30 8314 N 760.407 -2.89464 4.60121 0
M  V30 8315 H 764.209 -1.16759 2.69712 0
M  V30 8316 H 761.723 -0.551592 1.52746 0
M  V30 8317 H 763.72 -3.57095 2.15148 0
M  V30 8318 H 762.38 -3.05759 1.09278 0
M  V30 8319 H 763.391 -2.19912 4.68891 0
M  V30 8320 H 760.068 -3.40942 2.40966 0
M  V30 8321 H 761.458 -2.32629 6.30344 0
M  V30 8322 N 764.178 -1.45556 -0.604258 0
M  V30 8323 C 765.589 -1.44171 -1.18624 0
M  V30 8324 C 765.94 -0.171081 -1.95453 0
M  V30 8325 O 765.065 0.727156 -2.03817 0
M  V30 8326 C 765.66 -2.61193 -2.15786 0
M  V30 8327 C 764.219 -2.62918 -2.69353 0
M  V30 8328 C 763.366 -2.36479 -1.4482 0
M  V30 8329 H 766.317 -1.53747 -0.393381 0
M  V30 8330 H 766.338 -2.35481 -2.98879 0
M  V30 8331 H 765.85 -3.53656 -1.59841 0
M  V30 8332 H 763.951 -1.7447 -3.29228 0
M  V30 8333 H 764.064 -3.6224 -3.13559 0
M  V30 8334 H 762.428 -1.86103 -1.73891 0
M  V30 8335 H 763.211 -3.31091 -0.907376 0
M  V30 8336 N 765.656 0.84705 -1.32902 0
M  V30 8337 C 766.884 1.63403 -1.26913 0
M  V30 8338 C 767.299 1.88108 0.161483 0
M  V30 8339 O 766.656 1.45546 1.10103 0
M  V30 8340 C 766.707 2.98896 -2.03331 0
M  V30 8341 O 766.428 2.75281 -3.40811 0
M  V30 8342 C 767.929 3.93335 -2.04457 0
M  V30 8343 H 765.149 0.508701 -0.437566 0
M  V30 8344 H 767.693 1.05567 -1.75145 0
M  V30 8345 H 765.848 3.53356 -1.58802 0
M  V30 8346 H 766.262 3.61504 -3.8002 0
M  V30 8347 H 767.736 4.85647 -2.62394 0
M  V30 8348 H 768.213 4.26885 -1.03274 0
M  V30 8349 H 768.819 3.44812 -2.48967 0
M  V30 8350 N 767.134 1.16236 1.06428 0
M  V30 8351 C 768.411 0.853294 1.76006 0
M  V30 8352 C 768.791 -0.649162 2.00871 0
M  V30 8353 O 768.139 -1.59653 1.63472 0
M  V30 8354 C 768.349 1.67448 3.06206 0
M  V30 8355 C 769.697 1.8866 3.80385 0
M  V30 8356 O 770.721 1.64303 3.16043 0
M  V30 8357 O 769.58 2.29518 4.95968 0
M  V30 8358 H 766.674 0.314737 0.764767 0
M  V30 8359 H 769.22 1.26865 1.12709 0
M  V30 8360 H 767.992 2.69411 2.83784 0
M  V30 8361 H 767.615 1.25608 3.77238 0
M  V30 8362 N 768.612 -1.24939 0.960631 0
M  V30 8363 C 769.861 -1.92118 0.614298 0
M  V30 8364 C 770.174 -1.75998 -0.853474 0
M  V30 8365 O 771.38 -2.37804 -1.31003 0
M  V30 8366 C 769.836 -3.44303 1.04801 0
M  V30 8367 C 769.444 -3.69123 2.53875 0
M  V30 8368 C 771.188 -4.17375 0.774497 0
M  V30 8369 C 769.095 -5.14843 2.91016 0
M  V30 8370 H 768.025 -0.719319 0.226045 0
M  V30 8371 H 770.676 -1.41701 1.16589 0
M  V30 8372 H 769.058 -3.93715 0.42479 0
M  V30 8373 H 770.232 -3.30339 3.21267 0
M  V30 8374 H 768.547 -3.09323 2.78762 0
M  V30 8375 H 771.144 -5.24723 1.02808 0
M  V30 8376 H 771.487 -4.15294 -0.289192 0
M  V30 8377 H 772.02 -3.7389 1.35835 0
M  V30 8378 H 768.759 -5.2204 3.96427 0
M  V30 8379 H 768.279 -5.54652 2.28302 0
M  V30 8380 H 769.958 -5.83017 2.80535 0
M  V30 8381 N 770.09 -0.729906 -1.39679 0
M  V30 8382 C 771.318 -0.285709 -2.04918 0
M  V30 8383 C 771.733 1.07765 -1.55023 0
M  V30 8384 O 771.09 1.67999 -0.712923 0
M  V30 8385 C 771.141 -0.272793 -3.60469 0
M  V30 8386 O 770.862 -1.58233 -4.08527 0
M  V30 8387 C 772.363 0.188199 -4.429 0
M  V30 8388 H 769.583 -0.125758 -0.65911 0
M  V30 8389 H 772.127 -0.992129 -1.78821 0
M  V30 8390 H 770.282 0.384699 -3.85485 0
M  V30 8391 H 770.696 -1.49245 -5.02818 0
M  V30 8392 H 772.17 0.14608 -5.51807 0
M  V30 8393 H 772.647 1.2326 -4.21549 0
M  V30 8394 H 773.253 -0.439541 -4.23023 0
M  V30 8395 N 771.568 1.50203 -0.477153 0
M  V30 8396 C 772.793 2.07263 0.0754986 0
M  V30 8397 C 773.218 1.33801 1.32208 0
M  V30 8398 O 772.576 0.387482 1.77111 0
M  V30 8399 C 772.624 3.59028 0.336348 0
M  V30 8400 O 771.728 3.87339 1.4157 0
M  V30 8401 H 771.069 0.663815 -0.015662 0
M  V30 8402 H 773.599 1.93321 -0.669936 0
M  V30 8403 H 773.609 4.03927 0.575034 0
M  V30 8404 H 772.284 4.11912 -0.574551 0
M  V30 8405 H 770.861 3.54272 1.16385 0
M  V30 8406 N 773.046 0.209999 1.56195 0
M  V30 8407 C 773.976 -0.699746 2.22769 0
M  V30 8408 C 774.957 -1.20993 1.1956 0
M  V30 8409 O 776.142 -1.25605 1.48112 0
M  V30 8410 C 773.272 -1.91302 2.89863 0
M  V30 8411 C 772.226 -1.53715 3.99444 0
M  V30 8412 C 771.552 -2.82826 4.53777 0
M  V30 8413 C 772.852 -0.735836 5.17091 0
M  V30 8414 H 774.546 -0.144716 2.9905 0
M  V30 8415 H 772.092 -0.0681645 1.43839 0
M  V30 8416 H 774.045 -2.5548 3.35124 0
M  V30 8417 H 772.769 -2.49283 2.11011 0
M  V30 8418 H 771.428 -0.918892 3.54897 0
M  V30 8419 H 771.076 -3.38927 3.71669 0
M  V30 8420 H 770.776 -2.58415 5.27727 0
M  V30 8421 H 772.3 -3.47966 5.01749 0
M  V30 8422 H 773.714 -1.28105 5.58804 0
M  V30 8423 H 772.111 -0.589272 5.972 0
M  V30 8424 H 773.181 0.260004 4.84202 0
M  V30 8425 N 774.524 -1.57472 -0.0634922 0
M  V30 8426 C 775.801 -1.78736 -0.794538 0
M  V30 8427 C 776.181 -0.799645 -1.95369 0
M  V30 8428 O 775.529 0.165521 -2.279 0
M  V30 8429 C 775.739 -3.25471 -1.25975 0
M  V30 8430 C 777.087 -3.89528 -1.68976 0
M  V30 8431 O 778.111 -3.29412 -1.35521 0
M  V30 8432 O 776.97 -4.95305 -2.30944 0
M  V30 8433 H 774.064 -0.733813 -0.381376 0
M  V30 8434 H 776.61 -1.69646 -0.0429258 0
M  V30 8435 H 775.382 -3.88922 -0.430721 0
M  V30 8436 H 775.005 -3.39317 -2.07243 0
M  V30 8437 N 776.003 0.335068 -1.53997 0
M  V30 8438 C 776.935 1.4327 -1.78903 0
M  V30 8439 C 777.948 1.48347 -0.670598 0
M  V30 8440 O 779.137 1.51277 -0.947494 0
M  V30 8441 C 776.237 2.81878 -1.88144 0
M  V30 8442 C 775.41 3.00141 -3.18174 0
M  V30 8443 C 774.469 4.19041 -3.18263 0
M  V30 8444 O 773.495 4.12751 -3.9195 0
M  V30 8445 N 774.697 5.28004 -2.41231 0
M  V30 8446 H 777.462 1.22272 -2.73623 0
M  V30 8447 H 775.023 0.524996 -1.53152 0
M  V30 8448 H 777.015 3.59609 -1.85644 0
M  V30 8449 H 775.585 2.9598 -1.00572 0
M  V30 8450 H 774.805 2.09808 -3.33728 0
M  V30 8451 H 776.093 3.0923 -4.04047 0
M  V30 8452 H 775.491 5.35986 -1.8093 0
M  V30 8453 H 774.048 6.04196 -2.44521 0
M  V30 8454 N 777.481 1.45874 0.596531 0
M  V30 8455 C 778.711 1.5379 1.37958 0
M  V30 8456 C 779.119 0.173086 1.88407 0
M  V30 8457 O 778.462 -0.837498 1.63498 0
M  V30 8458 C 778.524 2.47044 2.61169 0
M  V30 8459 C 778.188 3.93565 2.32283 0
M  V30 8460 C 779.185 4.83162 1.91965 0
M  V30 8461 C 776.87 4.38579 2.44854 0
M  V30 8462 C 778.864 6.15782 1.64593 0
M  V30 8463 C 776.551 5.71238 2.17095 0
M  V30 8464 C 777.549 6.59659 1.77028 0
M  V30 8465 O 777.237 7.89857 1.49601 0
M  V30 8466 H 776.969 0.523 0.428307 0
M  V30 8467 H 779.523 1.91855 0.733529 0
M  V30 8468 H 777.753 2.0397 3.28532 0
M  V30 8469 H 779.442 2.4552 3.23226 0
M  V30 8470 H 780.208 4.49646 1.8178 0
M  V30 8471 H 776.087 3.6999 2.75006 0
M  V30 8472 H 779.631 6.84757 1.33245 0
M  V30 8473 H 775.528 6.04306 2.26901 0
M  V30 8474 H 776.296 8.01991 1.63561 0
M  V30 8475 N 778.959 -0.83999 1.33349 0
M  V30 8476 C 780.205 -1.59753 1.24927 0
M  V30 8477 C 780.538 -1.93318 -0.184855 0
M  V30 8478 O 779.813 -1.586 -1.12589 0
M  V30 8479 C 780.096 -2.90829 2.12345 0
M  V30 8480 C 779.949 -2.63953 3.6421 0
M  V30 8481 C 781.268 -3.92246 1.99577 0
M  V30 8482 H 778.387 -0.579654 0.45516 0
M  V30 8483 H 781.029 -0.968909 1.63439 0
M  V30 8484 H 779.179 -3.44478 1.79631 0
M  V30 8485 H 780.851 -2.16745 4.07209 0
M  V30 8486 H 779.094 -1.97671 3.86146 0
M  V30 8487 H 779.765 -3.57348 4.20721 0
M  V30 8488 H 782.241 -3.479 2.28265 0
M  V30 8489 H 781.117 -4.81793 2.62996 0
M  V30 8490 H 781.378 -4.3138 0.967673 0
M  V30 8491 N 780.437 -1.16799 -1.0581 0
M  V30 8492 C 781.347 -0.893492 -2.16919 0
M  V30 8493 C 782.363 0.136061 -1.73467 0
M  V30 8494 O 783.539 -0.0417348 -2.01357 0
M  V30 8495 C 780.604 -0.403763 -3.44341 0
M  V30 8496 C 779.665 -1.49914 -4.02274 0
M  V30 8497 C 778.898 -1.03269 -5.23614 0
M  V30 8498 O 779.121 0.115647 -5.70283 0
M  V30 8499 O 778.055 -1.8231 -5.73626 0
M  V30 8500 H 781.881 -1.82274 -2.42919 0
M  V30 8501 H 779.466 -0.948361 -1.1544 0
M  V30 8502 H 781.348 -0.137874 -4.21174 0
M  V30 8503 H 780.023 0.497413 -3.19855 0
M  V30 8504 H 778.93 -1.81883 -3.26909 0
M  V30 8505 H 780.263 -2.3758 -4.31064 0
M  V30 8506 N 781.915 1.24427 -0.967243 0
M  V30 8507 C 783.331 1.44684 -0.6737 0
M  V30 8508 C 783.531 1.86429 0.764625 0
M  V30 8509 O 782.587 2.00211 1.53857 0
M  V30 8510 C 783.9 2.509 -1.6574 0
M  V30 8511 C 785.448 2.64728 -1.66998 0
M  V30 8512 C 785.923 3.7414 -2.64165 0
M  V30 8513 N 787.414 3.81567 -2.62604 0
M  V30 8514 C 788.149 4.6575 -3.34462 0
M  V30 8515 N 787.645 5.54124 -4.15835 0
M  V30 8516 N 789.438 4.59827 -3.23288 0
M  V30 8517 H 781.589 0.956276 -1.89655 0
M  V30 8518 H 783.852 0.48171 -0.816492 0
M  V30 8519 H 783.558 2.27113 -2.68538 0
M  V30 8520 H 783.432 3.4905 -1.42981 0
M  V30 8521 H 785.819 2.87872 -0.649121 0
M  V30 8522 H 785.9 1.66936 -1.93819 0
M  V30 8523 H 785.544 3.51745 -3.66384 0
M  V30 8524 H 785.474 4.71444 -2.34623 0
M  V30 8525 H 787.965 3.18403 -2.03539 0
M  V30 8526 H 788.278 6.15316 -4.67553 0
M  V30 8527 H 786.623 5.53791 -4.19929 0
M  V30 8528 H 789.814 3.898 -2.59179 0
M  V30 8529 H 789.987 5.25208 -3.79553 0
M  V30 8530 N 783.393 0.737304 1.3929 0
M  V30 8531 C 784.326 0.0475454 2.2815 0
M  V30 8532 C 785.304 -0.745314 1.44512 0
M  V30 8533 O 786.488 -0.727387 1.739 0
M  V30 8534 C 783.615 -0.939803 3.254 0
M  V30 8535 C 782.661 -0.235153 4.25851 0
M  V30 8536 S 783.494 1.05252 5.25055 0
M  V30 8537 C 784.65 0.0678242 6.25863 0
M  V30 8538 H 784.883 0.801117 2.86303 0
M  V30 8539 H 782.416 0.529197 1.45048 0
M  V30 8540 H 784.374 -1.50417 3.81949 0
M  V30 8541 H 783.035 -1.66623 2.66262 0
M  V30 8542 H 782.228 -0.982336 4.94334 0
M  V30 8543 H 781.83 0.257245 3.73114 0
M  V30 8544 H 784.122 -0.771779 6.7309 0
M  V30 8545 H 785.065 0.719858 7.04431 0
M  V30 8546 H 785.473 -0.305604 5.63672 0
M  V30 8547 N 784.871 -1.49948 0.485112 0
M  V30 8548 C 785.818 -2.28819 -0.301729 0
M  V30 8549 C 786.788 -1.34496 -0.974683 0
M  V30 8550 O 787.973 -1.63444 -0.984418 0
M  V30 8551 C 785.113 -3.16758 -1.36961 0
M  V30 8552 C 784.226 -4.26125 -0.710027 0
M  V30 8553 C 783.361 -5.01302 -1.75699 0
M  V30 8554 C 782.4 -6.02525 -1.07841 0
M  V30 8555 N 781.537 -6.70927 -2.06886 0
M  V30 8556 H 786.377 -2.95604 0.377127 0
M  V30 8557 H 783.914 -1.45764 0.197826 0
M  V30 8558 H 785.872 -3.66106 -2.00056 0
M  V30 8559 H 784.502 -2.51991 -2.01744 0
M  V30 8560 H 783.554 -3.80385 0.0338278 0
M  V30 8561 H 784.866 -4.98493 -0.175079 0
M  V30 8562 H 784.02 -5.54438 -2.46339 0
M  V30 8563 H 782.759 -4.28672 -2.32577 0
M  V30 8564 H 781.764 -5.48635 -0.357706 0
M  V30 8565 H 782.989 -6.77134 -0.516345 0
M  V30 8566 H 780.935 -6.01079 -2.62755 0
M  V30 8567 H 780.852 -7.39216 -1.58414 0
M  V30 8568 H 782.12 -7.28675 -2.76863 0
M  V30 8569 N 786.349 -0.21828 -1.56081 0
M  V30 8570 C 787.259 0.704602 -2.23769 0
M  V30 8571 C 788.275 1.21633 -1.24425 0
M  V30 8572 O 789.451 1.25862 -1.57228 0
M  V30 8573 C 786.516 1.89725 -2.90182 0
M  V30 8574 C 785.577 1.42782 -4.0486 0
M  V30 8575 C 784.81 2.56361 -4.68097 0
M  V30 8576 O 785.033 3.74417 -4.30312 0
M  V30 8577 O 783.967 2.2775 -5.57148 0
M  V30 8578 H 787.793 0.158007 -3.03289 0
M  V30 8579 H 785.378 0.0120279 -1.49395 0
M  V30 8580 H 787.26 2.59382 -3.32113 0
M  V30 8581 H 785.935 2.432 -2.13624 0
M  V30 8582 H 784.842 0.699359 -3.67505 0
M  V30 8583 H 786.175 0.939474 -4.83151 0
M  V30 8584 N 787.827 1.57504 0.0551401 0
M  V30 8585 C 788.774 2.04825 1.06373 0
M  V30 8586 C 789.744 0.932108 1.37481 0
M  V30 8587 O 790.929 1.20093 1.48265 0
M  V30 8588 C 788.069 2.51091 2.36743 0
M  V30 8589 C 787.182 3.76392 2.12021 0
M  V30 8590 C 786.317 4.11373 3.36074 0
M  V30 8591 C 785.356 5.29666 3.0679 0
M  V30 8592 N 784.493 5.60205 4.2322 0
M  V30 8593 H 789.333 2.90753 0.653216 0
M  V30 8594 H 786.87 1.43776 0.310951 0
M  V30 8595 H 788.828 2.75973 3.12881 0
M  V30 8596 H 787.458 1.68118 2.75565 0
M  V30 8597 H 786.51 3.58751 1.26498 0
M  V30 8598 H 787.822 4.62662 1.86401 0
M  V30 8599 H 786.976 4.37245 4.20597 0
M  V30 8600 H 785.715 3.23704 3.64784 0
M  V30 8601 H 784.72 5.03574 2.20664 0
M  V30 8602 H 785.945 6.18968 2.79385 0
M  V30 8603 H 783.891 4.75495 4.5193 0
M  V30 8604 H 783.808 6.40928 4.00933 0
M  V30 8605 H 785.076 5.90637 5.08692 0
M  V30 8606 N 789.305 -0.326896 1.54172 0
M  V30 8607 C 790.237 -1.42319 1.79661 0
M  V30 8608 C 791.25 -1.47989 0.678456 0
M  V30 8609 O 792.439 -1.50773 0.955503 0
M  V30 8610 C 789.539 -2.80876 1.89636 0
M  V30 8611 C 788.712 -2.98449 3.19761 0
M  V30 8612 C 787.771 -4.17347 3.2048 0
M  V30 8613 O 786.797 -4.10667 3.94134 0
M  V30 8614 N 787.999 -5.26717 2.44027 0
M  V30 8615 H 790.764 -1.20819 2.74268 0
M  V30 8616 H 788.325 -0.516866 1.53428 0
M  V30 8617 H 790.317 -3.58619 1.87549 0
M  V30 8618 H 788.887 -2.95442 1.02141 0
M  V30 8619 H 788.107 -2.08035 3.34836 0
M  V30 8620 H 789.395 -3.07083 4.05681 0
M  V30 8621 H 788.793 -5.35019 1.8377 0
M  V30 8622 H 787.35 -6.02891 2.47721 0
M  V30 8623 N 790.784 -1.46188 -0.588786 0
M  V30 8624 C 792.061 -1.41659 -1.34878 0
M  V30 8625 C 792.441 -0.0968913 -2.10878 0
M  V30 8626 O 791.789 0.921468 -2.09096 0
M  V30 8627 C 791.999 -2.6424 -2.27988 0
M  V30 8628 C 793.347 -3.1013 -2.90008 0
M  V30 8629 O 794.371 -2.64745 -2.38303 0
M  V30 8630 O 793.23 -3.88944 -3.83908 0
M  V30 8631 H 790.324 -0.563058 -0.605718 0
M  V30 8632 H 792.87 -1.58346 -0.610309 0
M  V30 8633 H 791.642 -3.51853 -1.71217 0
M  V30 8634 H 791.265 -2.49982 -3.09184 0
M  V30 8635 N 792.262 0.832906 -1.33792 0
M  V30 8636 C 793.209 1.94314 -1.24541 0
M  V30 8637 C 794.179 1.65646 -0.122753 0
M  V30 8638 O 795.364 1.88394 -0.30204 0
M  V30 8639 C 792.504 3.30395 -0.996641 0
M  V30 8640 C 791.617 3.71422 -2.20612 0
M  V30 8641 C 790.752 4.96401 -1.89101 0
M  V30 8642 C 789.791 5.2998 -3.06247 0
M  V30 8643 N 788.928 6.46137 -2.74685 0
M  V30 8644 H 793.768 2.01559 -2.19495 0
M  V30 8645 H 791.305 0.986243 -1.09141 0
M  V30 8646 H 793.263 4.08803 -0.832817 0
M  V30 8647 H 791.893 3.22691 -0.0838242 0
M  V30 8648 H 790.945 2.88488 -2.47949 0
M  V30 8649 H 792.257 3.92215 -3.0817 0
M  V30 8650 H 791.411 5.82572 -1.69396 0
M  V30 8651 H 790.15 4.7759 -0.987882 0
M  V30 8652 H 789.155 4.42312 -3.26559 0
M  V30 8653 H 790.38 5.50737 -3.97323 0
M  V30 8654 H 788.326 6.28801 -1.86938 0
M  V30 8655 H 788.243 6.67054 -3.55774 0
M  V30 8656 H 789.511 7.35403 -2.58461 0
M  V30 8657 N 793.74 1.17359 1.05189 0
M  V30 8658 C 794.989 0.956412 1.77583 0
M  V30 8659 C 795.302 -0.516018 1.88671 0
M  V30 8660 O 796.508 -0.851401 2.57805 0
M  V30 8661 C 794.964 1.66203 3.19225 0
M  V30 8662 C 794.572 3.17299 3.16267 0
M  V30 8663 C 796.316 1.52725 3.96075 0
M  V30 8664 C 794.223 3.8055 4.52698 0
M  V30 8665 H 793.153 0.354204 0.665624 0
M  V30 8666 H 795.804 1.40612 1.17901 0
M  V30 8667 H 794.186 1.14006 3.79234 0
M  V30 8668 H 795.36 3.76431 2.65776 0
M  V30 8669 H 793.675 3.3079 2.52917 0
M  V30 8670 H 796.272 1.97351 4.96947 0
M  V30 8671 H 796.615 0.477803 4.13549 0
M  V30 8672 H 797.148 2.02139 3.42614 0
M  V30 8673 H 793.887 4.85492 4.4043 0
M  V30 8674 H 793.407 3.26206 5.03339 0
M  V30 8675 H 795.086 3.82757 5.21638 0
M  V30 8676 N 795.218 -1.23913 0.973828 0
M  V30 8677 C 796.448 -1.95911 0.655938 0
M  V30 8678 C 796.856 -1.72375 -0.779967 0
M  V30 8679 O 796.199 -1.00807 -1.5357 0
M  V30 8680 C 796.261 -3.49103 0.858324 0
M  V30 8681 C 795.925 -3.96347 2.27504 0
M  V30 8682 C 796.922 -4.05537 3.25324 0
M  V30 8683 C 794.607 -4.29509 2.60437 0
M  V30 8684 C 796.601 -4.47233 4.5416 0
M  V30 8685 C 794.288 -4.70887 3.89498 0
M  V30 8686 C 795.286 -4.79714 4.86172 0
M  V30 8687 O 794.974 -5.20166 6.1293 0
M  V30 8688 H 794.706 -0.630721 0.243244 0
M  V30 8689 H 797.26 -1.58534 1.30599 0
M  V30 8690 H 795.49 -3.86405 0.151097 0
M  V30 8691 H 797.179 -4.02311 0.538592 0
M  V30 8692 H 797.945 -3.80128 3.0121 0
M  V30 8693 H 793.824 -4.21853 1.85906 0
M  V30 8694 H 797.368 -4.54038 5.29618 0
M  V30 8695 H 793.265 -4.95744 4.1341 0
M  V30 8696 H 794.033 -5.38298 6.16586 0
M  V30 8697 N 796.696 -0.74468 -1.38897 0
M  V30 8698 C 797.943 -0.296884 -2.00312 0
M  V30 8699 C 798.271 1.11878 -1.59102 0
M  V30 8700 O 797.526 1.7789 -0.815702 0
M  V30 8701 C 797.825 -0.357302 -3.55609 0
M  V30 8702 C 797.491 -1.72736 -4.16501 0
M  V30 8703 C 796.153 -2.10232 -4.32846 0
M  V30 8704 C 798.505 -2.62647 -4.50184 0
M  V30 8705 C 795.833 -3.3713 -4.80167 0
M  V30 8706 C 798.185 -3.88926 -4.98918 0
M  V30 8707 C 796.849 -4.26503 -5.1347 0
M  V30 8708 H 796.119 -0.108638 -0.732993 0
M  V30 8709 H 798.766 -0.953419 -1.66079 0
M  V30 8710 H 797.071 0.382805 -3.89925 0
M  V30 8711 H 798.768 0.0074596 -4.00999 0
M  V30 8712 H 795.358 -1.42585 -4.04187 0
M  V30 8713 H 799.542 -2.34945 -4.37166 0
M  V30 8714 H 794.798 -3.66174 -4.89619 0
M  V30 8715 H 798.972 -4.58745 -5.23952 0
M  V30 8716 H 796.599 -5.24896 -5.49898 0
M  V30 8717 N 798.174 1.49689 -0.493057 0
M  V30 8718 C 799.107 2.25712 0.336062 0
M  V30 8719 C 800.085 1.29953 0.977294 0
M  V30 8720 O 801.269 1.59225 1.00895 0
M  V30 8721 C 798.396 3.0501 1.47263 0
M  V30 8722 C 797.442 4.15863 0.946575 0
M  V30 8723 S 798.275 5.35272 -0.156323 0
M  V30 8724 C 799.431 6.18123 0.983601 0
M  V30 8725 H 799.664 2.95688 -0.309215 0
M  V30 8726 H 797.197 1.51872 -0.278238 0
M  V30 8727 H 799.155 3.51284 2.12391 0
M  V30 8728 H 797.816 2.34519 2.08949 0
M  V30 8729 H 797.009 4.70834 1.7981 0
M  V30 8730 H 796.611 3.72139 0.372647 0
M  V30 8731 H 798.903 6.50588 1.89056 0
M  V30 8732 H 799.846 7.06521 0.472687 0
M  V30 8733 H 800.254 5.50547 1.24735 0
M  V30 8734 N 799.652 0.226554 1.55963 0
M  V30 8735 C 800.615 -0.668015 2.19249 0
M  V30 8736 C 801.615 -1.11794 1.1558 0
M  V30 8737 O 802.805 -1.02593 1.40784 0
M  V30 8738 C 799.937 -1.91571 2.81981 0
M  V30 8739 H 801.13 -0.116175 2.99675 0
M  V30 8740 H 798.683 -0.0230497 1.56283 0
M  V30 8741 H 799.418 -2.50929 2.05439 0
M  V30 8742 H 799.203 -1.6015 3.57903 0
M  V30 8743 H 800.693 -2.55294 3.30477 0
M  V30 8744 N 801.13 -1.57531 -0.0467866 0
M  V30 8745 C 802.378 -1.88078 -0.739656 0
M  V30 8746 C 802.699 -0.821936 -1.76831 0
M  V30 8747 O 801.969 0.146582 -1.95351 0
M  V30 8748 H 800.549 -0.694075 -0.276169 0
M  V30 8749 H 803.211 -1.94893 -0.0169391 0
M  V30 8750 H 802.307 -2.86396 -1.24031 0
M  V30 8751 N 802.608 0.318715 -1.54344 0
M  V30 8752 C 803.833 1.07987 -1.77069 0
M  V30 8753 C 804.258 1.80766 -0.520117 0
M  V30 8754 O 803.616 1.73424 0.528566 0
M  V30 8755 C 803.664 2.04987 -2.96669 0
M  V30 8756 O 802.768 3.12974 -2.68554 0
M  V30 8757 H 802.109 0.311109 -0.586606 0
M  V30 8758 H 804.639 0.361533 -2.0138 0
M  V30 8759 H 804.649 2.47771 -3.2415 0
M  V30 8760 H 803.324 1.51417 -3.87357 0
M  V30 8761 H 801.901 2.74831 -2.52037 0
M  V30 8762 N 804.086 1.46499 0.581025 0
M  V30 8763 C 805.311 1.55708 1.37002 0
M  V30 8764 C 805.736 0.19942 1.8704 0
M  V30 8765 O 805.094 -0.820731 1.61659 0
M  V30 8766 C 805.142 2.56716 2.53238 0
M  V30 8767 O 804.246 2.10336 3.54729 0
M  V30 8768 H 803.587 0.523912 0.407937 0
M  V30 8769 H 806.117 1.92085 0.704602 0
M  V30 8770 H 806.127 2.76378 3.00132 0
M  V30 8771 H 804.802 3.55307 2.16171 0
M  V30 8772 H 803.379 2.00669 3.14303 0
M  V30 8773 N 805.565 -0.825799 1.34232 0
M  V30 8774 C 806.981 -1.11848 1.13851 0
M  V30 8775 C 807.181 -2.01405 -0.0619031 0
M  V30 8776 O 806.237 -2.41465 -0.738287 0
M  V30 8777 C 807.55 -1.76797 2.43235 0
M  V30 8778 C 809.098 -1.89304 2.49265 0
M  V30 8779 C 809.573 -2.57669 3.78643 0
M  V30 8780 N 811.064 -2.65171 3.79788 0
M  V30 8781 C 811.799 -3.1879 4.76614 0
M  V30 8782 N 811.295 -3.72995 5.83821 0
M  V30 8783 N 813.088 -3.17164 4.64073 0
M  V30 8784 H 805.239 -0.230049 2.11151 0
M  V30 8785 H 807.502 -0.164609 0.9336 0
M  V30 8786 H 807.208 -1.18455 3.31152 0
M  V30 8787 H 807.082 -2.76693 2.56361 0
M  V30 8788 H 809.469 -2.46796 1.6179 0
M  V30 8789 H 809.55 -0.883191 2.4007 0
M  V30 8790 H 809.194 -2.00833 4.66507 0
M  V30 8791 H 809.124 -3.59152 3.8512 0
M  V30 8792 H 811.615 -2.26746 3.02315 0
M  V30 8793 H 811.928 -4.12151 6.53721 0
M  V30 8794 H 810.273 -3.71246 5.87538 0
M  V30 8795 H 813.464 -2.74082 3.79469 0
M  V30 8796 H 813.637 -3.58647 5.397 0
M  V30 8797 N 807.043 -1.17915 -1.04565 0
M  V30 8798 C 807.99 -0.901605 -2.12461 0
M  V30 8799 C 808.96 0.157011 -1.65356 0
M  V30 8800 O 810.145 0.0184494 -1.90791 0
M  V30 8801 C 807.285 -0.42796 -3.42436 0
M  V30 8802 C 806.398 -1.55142 -4.03181 0
M  V30 8803 C 805.533 -1.03101 -5.21098 0
M  V30 8804 C 804.572 -2.1295 -5.73863 0
M  V30 8805 N 803.709 -1.62339 -6.83074 0
M  V30 8806 H 808.549 -1.82551 -2.3554 0
M  V30 8807 H 806.086 -0.910389 -1.15544 0
M  V30 8808 H 808.044 -0.134859 -4.16982 0
M  V30 8809 H 806.674 0.458977 -3.1952 0
M  V30 8810 H 805.726 -1.96011 -3.26012 0
M  V30 8811 H 807.038 -2.37968 -4.38375 0
M  V30 8812 H 806.192 -0.692132 -6.02739 0
M  V30 8813 H 804.931 -0.17227 -4.87396 0
M  V30 8814 H 803.936 -2.47687 -4.90847 0
M  V30 8815 H 805.161 -2.9925 -6.09611 0
M  V30 8816 H 803.107 -0.787464 -6.51256 0
M  V30 8817 H 803.024 -2.38767 -7.17305 0
M  V30 8818 H 804.292 -1.31363 -7.68351 0
M  V30 8819 N 808.521 1.23394 -0.980386 0
M  V30 8820 C 809.431 2.28561 -0.528864 0
M  V30 8821 C 810.447 1.68946 0.416329 0
M  V30 8822 O 811.623 1.99355 0.286251 0
M  V30 8823 C 808.688 3.46323 0.16155 0
M  V30 8824 C 807.749 4.21297 -0.825044 0
M  V30 8825 C 806.982 5.33437 -0.167483 0
M  V30 8826 O 807.205 5.60812 1.04146 0
M  V30 8827 O 806.139 5.95637 -0.866047 0
M  V30 8828 H 809.965 2.69326 -1.40346 0
M  V30 8829 H 807.55 1.29325 -0.748019 0
M  V30 8830 H 809.432 4.17811 0.548841 0
M  V30 8831 H 808.107 3.0751 1.01092 0
M  V30 8832 H 807.014 3.52134 -1.26303 0
M  V30 8833 H 808.347 4.6396 -1.64322 0
M  V30 8834 N 809.999 0.752036 1.385 0
M  V30 8835 C 810.962 0.131587 2.28822 0
M  V30 8836 C 811.962 -0.649149 1.47115 0
M  V30 8837 O 813.152 -0.475645 1.67581 0
M  V30 8838 C 810.284 -0.822101 3.30839 0
M  V30 8839 H 811.477 0.927551 2.85196 0
M  V30 8840 H 809.03 0.518945 1.47434 0
M  V30 8841 H 809.765 -1.6438 2.79553 0
M  V30 8842 H 809.55 -0.264689 3.91206 0
M  V30 8843 H 811.04 -1.25226 3.98382 0
M  V30 8844 N 811.477 -1.49425 0.500989 0
M  V30 8845 C 812.387 -2.32899 -0.282011 0
M  V30 8846 C 813.403 -1.44632 -0.967346 0
M  V30 8847 O 814.579 -1.77654 -0.94873 0
M  V30 8848 C 811.644 -3.20069 -1.33253 0
M  V30 8849 C 810.705 -4.24186 -0.660636 0
M  V30 8850 C 809.938 -5.07191 -1.6611 0
M  V30 8851 O 810.161 -4.91712 -2.89094 0
M  V30 8852 O 809.095 -5.8948 -1.21643 0
M  V30 8853 H 812.921 -3.01038 0.401224 0
M  V30 8854 H 810.506 -1.47079 0.262323 0
M  V30 8855 H 812.388 -3.74071 -1.94033 0
M  V30 8856 H 811.063 -2.54625 -1.9987 0
M  V30 8857 H 809.97 -3.74098 -0.0130959 0
M  V30 8858 H 811.303 -4.92186 -0.0369179 0
M  V30 8859 N 812.955 -0.234822 -1.55841 0
M  V30 8860 C 814.18 0.400741 -2.03492 0
M  V30 8861 C 814.605 1.51618 -1.11327 0
M  V30 8862 O 813.963 1.81002 -0.103922 0
M  V30 8863 C 814.011 0.897184 -3.49261 0
M  V30 8864 O 813.115 2.00764 -3.60233 0
M  V30 8865 H 812.456 0.0890023 -0.658008 0
M  V30 8866 H 814.986 -0.357345 -2.01455 0
M  V30 8867 H 814.996 1.20356 -3.89844 0
M  V30 8868 H 813.671 0.0808639 -4.15821 0
M  V30 8869 H 812.248 1.70689 -3.31541 0
M  V30 8870 N 814.433 1.57553 0.0384317 0
M  V30 8871 C 815.658 1.93485 0.746872 0
M  V30 8872 C 816.083 0.834069 1.68597 0
M  V30 8873 O 815.441 -0.210902 1.80069 0
M  V30 8874 C 815.489 3.28463 1.4881 0
M  V30 8875 O 814.593 3.20051 2.60079 0
M  V30 8876 H 813.934 0.632675 0.201539 0
M  V30 8877 H 816.464 2.046 -0.00329815 0
M  V30 8878 H 816.474 3.63132 1.86009 0
M  V30 8879 H 815.149 4.08147 0.799297 0
M  V30 8880 H 813.726 2.96998 2.25492 0
M  V30 8881 N 815.911 -0.310526 1.54511 0
M  V30 8882 C 817.322 -0.884142 1.64438 0
M  V30 8883 C 817.673 -1.88425 0.546855 0
M  V30 8884 O 816.798 -2.14049 -0.31811 0
M  V30 8885 C 817.393 -1.6104 2.9808 0
M  V30 8886 C 815.952 -2.13255 3.1016 0
M  V30 8887 C 815.099 -0.96213 2.60074 0
M  V30 8888 H 818.05 -0.0877666 1.58457 0
M  V30 8889 H 818.071 -2.47541 2.8897 0
M  V30 8890 H 817.583 -0.882255 3.77939 0
M  V30 8891 H 815.684 -2.89145 2.35002 0
M  V30 8892 H 815.797 -2.37361 4.16169 0
M  V30 8893 H 814.161 -1.34501 2.16291 0
M  V30 8894 H 814.944 -0.248098 3.42402 0
M  V30 8895 N 817.389 -1.46805 -0.573248 0
M  V30 8896 C 818.636 -1.52604 -1.3311 0
M  V30 8897 C 818.964 -0.181633 -1.9365 0
M  V30 8898 O 818.219 0.823775 -1.77517 0
M  V30 8899 C 818.518 -2.58001 -2.47326 0
M  V30 8900 C 818.184 -4.01747 -2.04719 0
M  V30 8901 C 816.846 -4.40881 -1.92814 0
M  V30 8902 C 819.198 -4.92008 -1.71982 0
M  V30 8903 C 816.526 -5.68129 -1.46445 0
M  V30 8904 C 818.878 -6.19703 -1.27089 0
M  V30 8905 C 817.542 -6.57733 -1.13768 0
M  V30 8906 H 816.812 -0.558417 -0.487084 0
M  V30 8907 H 819.459 -1.80327 -0.644538 0
M  V30 8908 H 817.764 -2.23974 -3.2147 0
M  V30 8909 H 819.461 -2.59715 -3.05531 0
M  V30 8910 H 816.051 -3.70819 -2.14922 0
M  V30 8911 H 820.235 -4.62485 -1.8006 0
M  V30 8912 H 815.491 -5.96359 -1.34783 0
M  V30 8913 H 819.665 -6.89064 -1.00814 0
M  V30 8914 H 817.292 -7.56228 -0.776142 0
M  V30 8915 N 818.867 0.818669 -1.34668 0
M  V30 8916 C 820.113 1.57746 -1.27453 0
M  V30 8917 C 820.446 1.93588 0.154077 0
M  V30 8918 O 819.721 1.60371 1.10051 0
M  V30 8919 C 820.004 2.87414 -2.16945 0
M  V30 8920 C 819.857 2.58125 -3.68363 0
M  V30 8921 C 821.176 3.89021 -2.05792 0
M  V30 8922 H 818.295 0.572339 -0.464324 0
M  V30 8923 H 820.937 0.942784 -1.64959 0
M  V30 8924 H 819.087 3.41576 -1.85089 0
M  V30 8925 H 820.759 2.10239 -4.10606 0
M  V30 8926 H 819.002 1.91503 -3.89242 0
M  V30 8927 H 819.673 3.5061 -4.26353 0
M  V30 8928 H 822.149 3.44224 -2.33771 0
M  V30 8929 H 821.025 4.77548 -2.70628 0
M  V30 8930 H 821.286 4.29786 -1.03618 0
M  V30 8931 N 820.346 1.18468 1.03938 0
M  V30 8932 C 821.256 0.927889 2.1547 0
M  V30 8933 C 822.272 -0.108447 1.73662 0
M  V30 8934 O 823.448 0.0737636 2.01265 0
M  V30 8935 C 820.513 0.458494 3.43655 0
M  V30 8936 C 819.574 1.56295 3.99838 0
M  V30 8937 C 818.807 1.11586 5.21904 0
M  V30 8938 O 819.03 -0.0249057 5.70395 0
M  V30 8939 O 817.964 1.91412 5.70653 0
M  V30 8940 H 821.79 1.86116 2.39989 0
M  V30 8941 H 819.375 0.966607 1.13917 0
M  V30 8942 H 821.257 0.204861 4.20902 0
M  V30 8943 H 819.932 -0.446464 3.20606 0
M  V30 8944 H 818.839 1.87061 3.23974 0
M  V30 8945 H 820.172 2.44408 4.2723 0
M  V30 8946 N 821.824 -1.22873 0.986916 0
M  V30 8947 C 823.24 -1.43594 0.696633 0
M  V30 8948 C 823.44 -1.87622 -0.734869 0
M  V30 8949 O 822.496 -2.02633 -1.50652 0
M  V30 8950 C 823.809 -2.48231 1.69711 0
M  V30 8951 C 825.357 -2.62037 1.71188 0
M  V30 8952 C 825.832 -3.6989 2.70084 0
M  V30 8953 N 827.323 -3.77341 2.68641 0
M  V30 8954 C 828.058 -4.6037 3.41829 0
M  V30 8955 N 827.554 -5.47438 4.24598 0
M  V30 8956 N 829.347 -4.54626 3.30563 0
M  V30 8957 H 821.498 -0.925982 1.91153 0
M  V30 8958 H 823.761 -0.46866 0.824052 0
M  V30 8959 H 823.467 -2.22812 2.72117 0
M  V30 8960 H 823.341 -3.46731 1.48516 0
M  V30 8961 H 825.728 -2.86803 0.694837 0
M  V30 8962 H 825.809 -1.63831 1.96451 0
M  V30 8963 H 825.453 -3.45872 3.71934 0
M  V30 8964 H 825.383 -4.67652 2.42093 0
M  V30 8965 H 827.874 -3.15124 2.08578 0
M  V30 8966 H 828.187 -6.078 4.77283 0
M  V30 8967 H 826.532 -5.4704 4.28687 0
M  V30 8968 H 829.723 -3.85627 2.65347 0
M  V30 8969 H 829.896 -5.19103 3.8786 0
M  V30 8970 N 823.302 -0.75937 -1.38099 0
M  V30 8971 C 824.232 -0.151077 -2.33011 0
M  V30 8972 C 825.213 0.697099 -1.5516 0
M  V30 8973 O 826.398 0.637101 -1.83452 0
M  V30 8974 C 823.528 0.738423 -3.39359 0
M  V30 8975 C 822.482 -0.0074741 -4.27999 0
M  V30 8976 C 821.808 1.00066 -5.25253 0
M  V30 8977 C 823.108 -1.17926 -5.08813 0
M  V30 8978 H 824.802 -0.943933 -2.84131 0
M  V30 8979 H 822.348 -0.455362 -1.36611 0
M  V30 8980 H 824.301 1.17369 -4.04725 0
M  V30 8981 H 823.025 1.56366 -2.86735 0
M  V30 8982 H 821.684 -0.423379 -3.64147 0
M  V30 8983 H 821.332 1.82012 -4.68914 0
M  V30 8984 H 821.032 0.506199 -5.85416 0
M  V30 8985 H 822.556 1.43512 -5.93495 0
M  V30 8986 H 823.97 -0.821262 -5.67387 0
M  V30 8987 H 822.367 -1.60497 -5.78239 0
M  V30 8988 H 823.437 -1.98938 -4.42212 0
M  V30 8989 N 824.78 1.49157 -0.508906 0
M  V30 8990 C 825.71 2.32109 0.254469 0
M  V30 8991 C 826.691 1.40754 0.955111 0
M  V30 8992 O 827.876 1.69658 0.944983 0
M  V30 8993 C 825.006 3.21458 1.3146 0
M  V30 8994 C 823.96 4.2167 0.733368 0
M  V30 8995 C 823.286 5.00009 1.8946 0
M  V30 8996 C 824.586 5.21544 -0.280875 0
M  V30 8997 H 826.28 2.9618 -0.43795 0
M  V30 8998 H 823.826 1.4243 -0.212062 0
M  V30 8999 H 825.779 3.78305 1.85643 0
M  V30 9000 H 824.503 2.55346 2.03632 0
M  V30 9001 H 823.162 3.65979 0.213231 0
M  V30 9002 H 822.81 4.30338 2.60419 0
M  V30 9003 H 822.51 5.67821 1.51173 0
M  V30 9004 H 824.034 5.59702 2.44061 0
M  V30 9005 H 825.448 5.73039 0.173095 0
M  V30 9006 H 823.845 5.97291 -0.580006 0
M  V30 9007 H 824.915 4.69969 -1.19404 0
M  V30 9008 N 826.258 0.243083 1.55714 0
M  V30 9009 C 827.205 -0.658078 2.21219 0
M  V30 9010 C 828.175 -1.1742 1.17481 0
M  V30 9011 O 829.36 -1.22937 1.45915 0
M  V30 9012 C 826.5 -1.85104 2.91257 0
M  V30 9013 C 825.613 -1.3718 4.09641 0
M  V30 9014 C 824.748 -2.52403 4.67404 0
M  V30 9015 C 823.787 -2.01321 5.78045 0
M  V30 9016 N 822.924 -3.09896 6.30007 0
M  V30 9017 H 827.764 -0.0927854 2.97856 0
M  V30 9018 H 825.301 -0.0340375 1.47061 0
M  V30 9019 H 827.259 -2.55179 3.3006 0
M  V30 9020 H 825.889 -2.38887 2.17101 0
M  V30 9021 H 824.941 -0.565232 3.76177 0
M  V30 9022 H 826.253 -0.957409 4.89525 0
M  V30 9023 H 825.407 -3.30525 5.08761 0
M  V30 9024 H 824.146 -2.97142 3.86728 0
M  V30 9025 H 823.151 -1.21667 5.36169 0
M  V30 9026 H 824.376 -1.57556 6.6057 0
M  V30 9027 H 822.322 -3.54077 5.52237 0
M  V30 9028 H 822.239 -2.72776 7.05074 0
M  V30 9029 H 823.507 -3.8809 6.76023 0
M  V30 9030 N 827.736 -1.57571 -0.0300757 0
M  V30 9031 C 828.683 -2.06492 -1.03101 0
M  V30 9032 C 829.653 -0.953862 -1.3598 0
M  V30 9033 O 830.838 -1.22436 -1.46335 0
M  V30 9034 C 827.978 -2.54826 -2.32718 0
M  V30 9035 C 827.091 -3.79718 -2.06006 0
M  V30 9036 C 826.226 -4.16668 -3.29487 0
M  V30 9037 C 825.265 -5.3448 -2.98324 0
M  V30 9038 N 824.402 -5.66867 -4.14254 0
M  V30 9039 H 829.242 -2.91755 -0.606877 0
M  V30 9040 H 826.779 -1.44252 -0.288038 0
M  V30 9041 H 828.737 -2.80916 -3.08451 0
M  V30 9042 H 827.367 -1.72481 -2.72856 0
M  V30 9043 H 826.419 -3.60718 -1.20774 0
M  V30 9044 H 827.731 -4.65569 -1.79017 0
M  V30 9045 H 826.885 -4.43881 -4.13588 0
M  V30 9046 H 825.624 -3.29466 -3.59588 0
M  V30 9047 H 824.629 -5.07021 -2.12625 0
M  V30 9048 H 825.854 -6.23334 -2.69502 0
M  V30 9049 H 823.8 -4.82625 -4.44308 0
M  V30 9050 H 823.717 -6.47226 -3.90685 0
M  V30 9051 H 824.985 -5.98656 -4.99231 0
M  V30 9052 N 829.214 0.302327 -1.54673 0
M  V30 9053 C 830.462 1.03565 -1.73547 0
M  V30 9054 C 830.783 1.87843 -0.523448 0
M  V30 9055 O 830.053 1.90367 0.462295 0
M  V30 9056 H 828.633 0.385358 -0.639928 0
M  V30 9057 H 831.295 0.333632 -1.92023 0
M  V30 9058 H 830.391 1.68952 -2.62415 0
M  V30 9059 N 830.692 1.47107 0.565454 0
M  V30 9060 C 831.922 1.56681 1.34664 0
M  V30 9061 C 832.33 0.213011 1.87997 0
M  V30 9062 O 831.673 -0.802629 1.65238 0
M  V30 9063 C 831.735 2.52528 2.55871 0
M  V30 9064 C 831.399 3.98403 2.23883 0
M  V30 9065 C 832.396 4.87125 1.81673 0
M  V30 9066 C 830.081 4.43674 2.35496 0
M  V30 9067 C 832.075 6.19135 1.51494 0
M  V30 9068 C 829.762 5.75714 2.0493 0
M  V30 9069 C 830.76 6.63266 1.62996 0
M  V30 9070 O 830.448 7.92853 1.32813 0
M  V30 9071 H 830.18 0.531967 0.417117 0
M  V30 9072 H 832.734 1.93368 0.692669 0
M  V30 9073 H 830.964 2.10893 3.24131 0
M  V30 9074 H 832.653 2.5232 3.17945 0
M  V30 9075 H 833.419 4.534 1.72201 0
M  V30 9076 H 829.298 3.7574 2.67096 0
M  V30 9077 H 832.842 6.87429 1.1869 0
M  V30 9078 H 828.739 6.08983 2.14031 0
M  V30 9079 H 829.507 8.0528 1.46513 0
M  V30 9080 N 832.17 -0.811516 1.35101 0
M  V30 9081 C 833.08 -1.95475 1.29718 0
M  V30 9082 C 834.096 -1.72813 0.202909 0
M  V30 9083 O 835.272 -1.96725 0.431414 0
M  V30 9084 C 832.337 -3.29975 1.06385 0
M  V30 9085 C 831.398 -3.65566 2.25077 0
M  V30 9086 C 830.631 -4.93648 2.02848 0
M  V30 9087 O 830.854 -5.617 0.992442 0
M  V30 9088 O 829.788 -5.27384 2.90087 0
M  V30 9089 H 833.614 -2.02961 2.25921 0
M  V30 9090 H 831.199 -0.948583 1.15422 0
M  V30 9091 H 833.081 -4.10506 0.951999 0
M  V30 9092 H 831.756 -3.2343 0.132294 0
M  V30 9093 H 830.663 -2.85432 2.41825 0
M  V30 9094 H 831.996 -3.7681 3.16662 0
M  V30 9095 N 833.648 -1.19017 -1.03309 0
M  V30 9096 C 834.894 -0.991681 -1.769 0
M  V30 9097 C 835.227 0.476813 -1.88255 0
M  V30 9098 O 834.502 1.35407 -1.39625 0
M  V30 9099 C 834.785 -1.65627 -3.19749 0
M  V30 9100 C 834.638 -3.19813 -3.1629 0
M  V30 9101 C 835.957 -1.37579 -4.18043 0
M  V30 9102 H 833.076 -0.361674 -0.642153 0
M  V30 9103 H 835.718 -1.46795 -1.20628 0
M  V30 9104 H 833.868 -1.25132 -3.67796 0
M  V30 9105 H 835.54 -3.69494 -2.76174 0
M  V30 9106 H 833.783 -3.51578 -2.54117 0
M  V30 9107 H 834.454 -3.61457 -4.17196 0
M  V30 9108 H 836.93 -1.72679 -3.78578 0
M  V30 9109 H 835.806 -1.86636 -5.16196 0
M  V30 9110 H 836.067 -0.300118 -4.4108 0
M  V30 9111 N 835.127 1.22348 -0.993418 0
M  V30 9112 C 836.376 1.90422 -0.665019 0
M  V30 9113 C 836.689 1.78199 0.806512 0
M  V30 9114 O 837.895 2.41193 1.24652 0
M  V30 9115 C 836.351 3.41403 -1.13893 0
M  V30 9116 C 835.959 3.62262 -2.63572 0
M  V30 9117 C 837.703 4.15175 -0.884884 0
M  V30 9118 C 835.61 5.06947 -3.04564 0
M  V30 9119 H 834.54 0.713073 -0.245037 0
M  V30 9120 H 837.191 1.3856 -1.20305 0
M  V30 9121 H 835.573 3.9245 -0.529027 0
M  V30 9122 H 836.747 3.21705 -3.29913 0
M  V30 9123 H 835.062 3.01824 -2.86865 0
M  V30 9124 H 837.659 5.21813 -1.16684 0
M  V30 9125 H 838.002 4.15915 0.178982 0
M  V30 9126 H 838.535 3.70157 -1.45701 0
M  V30 9127 H 835.274 5.11346 -4.10128 0
M  V30 9128 H 834.794 5.48404 -2.42927 0
M  V30 9129 H 836.473 5.75374 -2.95894 0
M  V30 9130 N 836.605 0.766683 1.37694 0
M  V30 9131 C 837.835 0.339446 2.03792 0
M  V30 9132 C 838.243 -1.04153 1.57952 0
M  V30 9133 O 837.586 -1.67521 0.753826 0
M  V30 9134 C 837.648 0.29822 3.58261 0
M  V30 9135 C 837.312 1.62293 4.27212 0
M  V30 9136 C 838.309 2.57447 4.51682 0
M  V30 9137 C 835.994 1.89597 4.65143 0
M  V30 9138 C 837.988 3.78117 5.13134 0
M  V30 9139 C 835.675 3.10538 5.26317 0
M  V30 9140 C 836.673 4.04617 5.50249 0
M  V30 9141 O 836.361 5.23429 6.10145 0
M  V30 9142 H 836.093 0.140952 0.661142 0
M  V30 9143 H 838.647 1.04022 1.77111 0
M  V30 9144 H 836.877 -0.458897 3.83967 0
M  V30 9145 H 838.566 -0.101263 4.05774 0
M  V30 9146 H 839.332 2.37633 4.22795 0
M  V30 9147 H 835.211 1.17199 4.45854 0
M  V30 9148 H 838.755 4.51563 5.3173 0
M  V30 9149 H 834.652 3.3024 5.54628 0
M  V30 9150 H 835.42 5.24187 6.28626 0
M  V30 9151 N 838.083 -1.48885 0.516809 0
M  V30 9152 C 839.013 -2.32241 -0.242157 0
M  V30 9153 C 839.994 -1.41258 -0.947633 0
M  V30 9154 O 841.179 -1.70156 -0.935973 0
M  V30 9155 C 838.309 -3.22151 -1.29754 0
M  V30 9156 C 837.263 -4.22053 -0.710995 0
M  V30 9157 C 836.589 -5.01007 -1.86806 0
M  V30 9158 C 837.889 -5.21388 0.30853 0
M  V30 9159 H 839.583 -2.95943 0.453651 0
M  V30 9160 H 837.129 -1.42316 0.219612 0
M  V30 9161 H 839.082 -3.79284 -1.83634 0
M  V30 9162 H 837.806 -2.56423 -2.02274 0
M  V30 9163 H 836.465 -3.66087 -0.193819 0
M  V30 9164 H 836.113 -4.31713 -2.58133 0
M  V30 9165 H 835.813 -5.68615 -1.48159 0
M  V30 9166 H 837.337 -5.60989 -2.4109 0
M  V30 9167 H 838.751 -5.73122 -0.142703 0
M  V30 9168 H 837.148 -5.96975 0.611673 0
M  V30 9169 H 838.218 -4.69329 1.21894 0
M  V30 9170 N 839.561 -0.251338 -1.55583 0
M  V30 9171 C 840.789 0.376187 -2.03451 0
M  V30 9172 C 841.204 1.51215 -1.13047 0
M  V30 9173 O 840.561 1.81917 -0.145769 0
M  V30 9174 C 840.612 0.879779 -3.50631 0
M  V30 9175 O 840.333 -0.210917 -4.37592 0
M  V30 9176 C 841.834 1.57754 -4.14281 0
M  V30 9177 H 839.054 0.0888722 -0.665089 0
M  V30 9178 H 841.598 -0.376497 -2.01004 0
M  V30 9179 H 839.753 1.58263 -3.53598 0
M  V30 9180 H 840.167 0.172203 -5.24217 0
M  V30 9181 H 841.641 1.88158 -5.18942 0
M  V30 9182 H 842.118 2.50103 -3.61034 0
M  V30 9183 H 842.724 0.919154 -4.15249 0
M  V30 9184 N 841.039 1.57585 0.0217189 0
M  V30 9185 C 841.949 2.10444 1.03684 0
M  V30 9186 C 842.965 1.04472 1.39146 0
M  V30 9187 O 844.141 1.36249 1.48317 0
M  V30 9188 C 841.206 2.5794 2.31664 0
M  V30 9189 C 840.267 3.78425 2.02714 0
M  V30 9190 C 839.5 4.23646 3.24592 0
M  V30 9191 O 839.723 3.6834 4.35525 0
M  V30 9192 O 838.657 5.16013 3.09862 0
M  V30 9193 H 842.483 2.97354 0.617584 0
M  V30 9194 H 840.068 1.47473 0.239174 0
M  V30 9195 H 841.95 2.88785 3.06889 0
M  V30 9196 H 840.625 1.74138 2.7287 0
M  V30 9197 H 839.532 3.52587 1.25033 0
M  V30 9198 H 840.865 4.63234 1.66359 0
M  V30 9199 N 842.517 -0.29412 1.54831 0
M  V30 9200 C 843.928 -0.866651 1.65366 0
M  V30 9201 C 844.279 -1.87834 0.56681 0
M  V30 9202 O 843.404 -2.14374 -0.295389 0
M  V30 9203 C 843.999 -1.57869 2.99771 0
M  V30 9204 C 842.558 -2.09954 3.12404 0
M  V30 9205 C 841.705 -0.934492 2.6108 0
M  V30 9206 H 844.656 -0.0709551 1.58541 0
M  V30 9207 H 844.677 -2.44462 2.91579 0
M  V30 9208 H 844.189 -0.84212 3.78853 0
M  V30 9209 H 842.29 -2.86637 2.38055 0
M  V30 9210 H 842.403 -2.32934 4.18663 0
M  V30 9211 H 840.767 -1.32199 2.17705 0
M  V30 9212 H 841.55 -0.211768 3.42646 0
M  V30 9213 N 843.995 -1.47404 -0.557645 0
M  V30 9214 C 845.241 -1.54235 -1.31679 0
M  V30 9215 C 845.574 -0.203782 -1.93128 0
M  V30 9216 O 844.849 0.787536 -1.77843 0
M  V30 9217 C 845.132 -2.66003 -2.42723 0
M  V30 9218 C 844.985 -4.09475 -1.86145 0
M  V30 9219 C 846.304 -2.73685 -3.44652 0
M  V30 9220 H 843.423 -0.561466 -0.477415 0
M  V30 9221 H 846.065 -1.79459 -0.624067 0
M  V30 9222 H 844.215 -2.44627 -3.01811 0
M  V30 9223 H 845.887 -4.42213 -1.31321 0
M  V30 9224 H 844.13 -4.17774 -1.16823 0
M  V30 9225 H 844.801 -4.83451 -2.66418 0
M  V30 9226 H 847.277 -2.92968 -2.95481 0
M  V30 9227 H 846.153 -3.53665 -4.19777 0
M  V30 9228 H 846.414 -1.80726 -4.03473 0
M  V30 9229 N 845.473 0.80434 -1.35529 0
M  V30 9230 C 846.75 1.5486 -1.1949 0
M  V30 9231 C 847.13 2.09897 0.22506 0
M  V30 9232 O 846.478 1.92643 1.22886 0
M  V30 9233 C 846.688 2.65535 -2.26478 0
M  V30 9234 C 848.036 3.33814 -2.62399 0
M  V30 9235 O 849.06 2.75807 -2.25409 0
M  V30 9236 O 847.919 4.38612 -3.26009 0
M  V30 9237 H 845.013 0.68433 -0.464351 0
M  V30 9238 H 847.559 0.844107 -1.47217 0
M  V30 9239 H 846.331 2.22754 -3.21709 0
M  V30 9240 H 845.954 3.43617 -2.00033 0
M  V30 9241 N 846.951 1.19563 1.02676 0
M  V30 9242 C 847.861 0.950691 2.14474 0
M  V30 9243 C 848.877 -0.0900219 1.73767 0
M  V30 9244 O 850.053 0.0951063 2.01175 0
M  V30 9245 C 847.118 0.494917 3.43149 0
M  V30 9246 C 846.179 1.60527 3.98158 0
M  V30 9247 C 845.412 1.17115 5.20692 0
M  V30 9248 O 845.635 0.0355937 5.70389 0
M  V30 9249 O 844.569 1.97454 5.68591 0
M  V30 9250 H 848.395 1.88651 2.38001 0
M  V30 9251 H 845.98 0.978635 1.12885 0
M  V30 9252 H 847.862 0.249492 4.20661 0
M  V30 9253 H 846.537 -0.412434 3.21062 0
M  V30 9254 H 845.444 1.90487 3.21971 0
M  V30 9255 H 846.777 2.48925 4.24614 0
M  V30 9256 N 848.429 -1.21819 0.999893 0
M  V30 9257 C 849.659 -1.94475 0.697346 0
M  V30 9258 C 850.067 -1.73991 -0.743228 0
M  V30 9259 O 849.41 -1.04042 -1.51397 0
M  V30 9260 C 849.472 -3.47204 0.932181 0
M  V30 9261 C 849.136 -3.91432 2.3586 0
M  V30 9262 C 850.133 -3.98545 3.33853 0
M  V30 9263 C 847.818 -4.23888 2.69489 0
M  V30 9264 C 849.812 -4.37499 4.63545 0
M  V30 9265 C 847.499 -4.62519 3.99399 0
M  V30 9266 C 848.497 -4.69294 4.96238 0
M  V30 9267 O 848.185 -5.07048 6.23825 0
M  V30 9268 H 847.917 -0.625419 0.256567 0
M  V30 9269 H 850.471 -1.55728 1.33933 0
M  V30 9270 H 848.701 -3.85997 0.233025 0
M  V30 9271 H 850.39 -4.01078 0.623807 0
M  V30 9272 H 851.156 -3.73654 3.09205 0
M  V30 9273 H 847.035 -4.17815 1.94812 0
M  V30 9274 H 850.579 -4.42702 5.3913 0
M  V30 9275 H 846.476 -4.86864 4.23833 0
M  V30 9276 H 847.244 -5.25098 6.27865 0
M  V30 9277 N 849.908 -0.773975 -1.37286 0
M  V30 9278 C 851.148 -0.344505 -2.01476 0
M  V30 9279 C 851.512 1.05966 -1.6011 0
M  V30 9280 O 852.713 1.58937 -2.16778 0
M  V30 9281 C 850.984 -0.485816 -3.54083 0
M  V30 9282 S 852.543 -0.141939 -4.3857 0
M  V30 9283 H 849.361 -0.13243 -0.698558 0
M  V30 9284 H 851.963 -1.00908 -1.67445 0
M  V30 9285 H 850.667 -1.50835 -3.81677 0
M  V30 9286 H 850.198 0.195232 -3.92915 0
M  V30 9287 H 852.213 1.06177 -4.84707 0
M  V30 9288 N 851.386 1.48609 -0.524698 0
M  V30 9289 C 852.635 2.01696 0.0132937 0
M  V30 9290 C 852.948 1.40751 1.35825 0
M  V30 9291 O 854.154 1.85304 1.9843 0
M  V30 9292 C 852.61 3.59824 0.0741012 0
M  V30 9293 C 852.218 4.2975 -1.26564 0
M  V30 9294 C 853.962 4.20774 0.5612 0
M  V30 9295 C 851.869 5.79798 -1.16571 0
M  V30 9296 H 850.799 0.753949 0.00873931 0
M  V30 9297 H 853.45 1.70922 -0.667684 0
M  V30 9298 H 851.832 3.87416 0.820043 0
M  V30 9299 H 853.006 4.13836 -2.02674 0
M  V30 9300 H 851.321 3.80649 -1.68806 0
M  V30 9301 H 853.918 5.30687 0.653853 0
M  V30 9302 H 854.261 3.85734 1.56573 0
M  V30 9303 H 854.794 3.97591 -0.128901 0
M  V30 9304 H 851.533 6.19403 -2.14523 0
M  V30 9305 H 851.053 5.9814 -0.445894 0
M  V30 9306 H 852.732 6.41337 -0.854186 0
M  V30 9307 N 852.864 0.259585 1.55447 0
M  V30 9308 C 853.796 -0.667548 2.19263 0
M  V30 9309 C 854.809 -1.12925 1.17268 0
M  V30 9310 O 855.998 -1.05384 1.44071 0
M  V30 9311 C 853.098 -1.92066 2.7922 0
M  V30 9312 C 852.271 -1.60832 4.06758 0
M  V30 9313 C 851.33 -2.71231 4.50911 0
M  V30 9314 O 850.356 -2.38077 5.17019 0
M  V30 9315 N 851.558 -4.00984 4.19752 0
M  V30 9316 H 854.323 -0.121449 2.99454 0
M  V30 9317 H 851.884 0.0800519 1.61702 0
M  V30 9318 H 853.876 -2.65186 3.0571 0
M  V30 9319 H 852.446 -2.37621 2.03113 0
M  V30 9320 H 851.666 -0.711685 3.87722 0
M  V30 9321 H 852.954 -1.37445 4.89884 0
M  V30 9322 H 852.352 -4.30748 3.66706 0
M  V30 9323 H 850.909 -4.7053 4.51048 0
M  V30 9324 N 854.342 -1.57594 -0.0133615 0
M  V30 9325 C 855.305 -2.06534 -0.993799 0
M  V30 9326 C 856.305 -0.972267 -1.28077 0
M  V30 9327 O 857.495 -1.23537 -1.22818 0
M  V30 9328 C 854.627 -2.49554 -2.3224 0
M  V30 9329 H 855.82 -2.94419 -0.570741 0
M  V30 9330 H 853.373 -1.54113 -0.260546 0
M  V30 9331 H 854.108 -1.64872 -2.79263 0
M  V30 9332 H 853.893 -3.29371 -2.12737 0
M  V30 9333 H 855.383 -2.8779 -3.026 0
M  V30 9334 N 855.82 0.285905 -1.54985 0
M  V30 9335 C 856.75 1.35752 -1.89983 0
M  V30 9336 C 857.731 1.52163 -0.760295 0
M  V30 9337 O 858.916 1.65421 -1.01733 0
M  V30 9338 C 856.046 2.71925 -2.16042 0
M  V30 9339 C 855 2.70261 -3.31878 0
M  V30 9340 C 854.326 4.09864 -3.43388 0
M  V30 9341 C 855.626 2.30667 -4.68604 0
M  V30 9342 H 857.32 1.06709 -2.79738 0
M  V30 9343 H 854.866 0.511884 -1.34595 0
M  V30 9344 H 856.819 3.46992 -2.39113 0
M  V30 9345 H 855.543 3.02523 -1.23074 0
M  V30 9346 H 854.202 1.97651 -3.08755 0
M  V30 9347 H 853.85 4.37664 -2.47909 0
M  V30 9348 H 853.55 4.09648 -4.21262 0
M  V30 9349 H 855.074 4.86689 -3.68736 0
M  V30 9350 H 856.488 2.95453 -4.91305 0
M  V30 9351 H 854.885 2.41637 -5.49301 0
M  V30 9352 H 855.955 1.25793 -4.68299 0
M  V30 9353 N 857.298 1.47698 0.54982 0
M  V30 9354 C 858.709 1.48474 1.13191 0
M  V30 9355 C 859.06 0.243504 1.94683 0
M  V30 9356 O 858.185 -0.651009 2.06375 0
M  V30 9357 C 858.78 2.69022 2.05944 0
M  V30 9358 C 857.339 2.72733 2.5941 0
M  V30 9359 C 856.486 2.41691 1.35944 0
M  V30 9360 H 859.437 1.55101 0.336048 0
M  V30 9361 H 859.458 2.46412 2.89934 0
M  V30 9362 H 858.97 3.59345 1.46605 0
M  V30 9363 H 857.071 1.86568 3.22526 0
M  V30 9364 H 857.184 3.73628 2.99899 0
M  V30 9365 H 855.548 1.92428 1.66864 0
M  V30 9366 H 856.331 3.34231 0.783869 0
M  V30 9367 N 858.776 -0.797141 1.35954 0
M  V30 9368 C 859.686 -1.94088 1.31784 0
M  V30 9369 C 860.702 -1.72588 0.221227 0
M  V30 9370 O 861.878 -1.96256 0.452255 0
M  V30 9371 C 858.943 -3.28828 1.09878 0
M  V30 9372 C 858.004 -3.63158 2.28942 0
M  V30 9373 C 857.237 -4.91469 2.08072 0
M  V30 9374 O 857.46 -5.60616 1.05196 0
M  V30 9375 O 856.394 -5.24277 2.95664 0
M  V30 9376 H 860.22 -2.00554 2.28061 0
M  V30 9377 H 857.805 -0.936288 1.16422 0
M  V30 9378 H 859.687 -4.09473 0.995485 0
M  V30 9379 H 858.362 -3.23271 0.16659 0
M  V30 9380 H 857.269 -2.82851 2.44839 0
M  V30 9381 H 858.602 -3.7343 3.20641 0
M  V30 9382 N 860.254 -1.20106 -1.0204 0
M  V30 9383 C 861.501 -1.00889 -1.75578 0
M  V30 9384 C 861.829 0.459415 -1.88996 0
M  V30 9385 O 861.084 1.35735 -1.40977 0
M  V30 9386 C 861.383 -1.63308 -3.17908 0
M  V30 9387 C 861.049 -3.13091 -3.24476 0
M  V30 9388 C 859.711 -3.53968 -3.25976 0
M  V30 9389 C 862.063 -4.09093 -3.22944 0
M  V30 9390 C 859.391 -4.89381 -3.2361 0
M  V30 9391 C 861.743 -5.44447 -3.22119 0
M  V30 9392 C 860.407 -5.84742 -3.2192 0
M  V30 9393 H 859.677 -0.36918 -0.642485 0
M  V30 9394 H 862.324 -1.49475 -1.19706 0
M  V30 9395 H 860.629 -1.06974 -3.76914 0
M  V30 9396 H 862.326 -1.45958 -3.73493 0
M  V30 9397 H 858.916 -2.80526 -3.24042 0
M  V30 9398 H 863.1 -3.78549 -3.20958 0
M  V30 9399 H 858.356 -5.1987 -3.21785 0
M  V30 9400 H 862.53 -6.18584 -3.19885 0
M  V30 9401 H 860.157 -6.89642 -3.19841 0
M  V30 9402 N 861.732 1.21287 -1.00634 0
M  V30 9403 C 863.009 1.86 -0.605257 0
M  V30 9404 C 863.389 1.90139 0.917072 0
M  V30 9405 O 862.737 1.40169 1.80458 0
M  V30 9406 C 862.947 3.26183 -1.24119 0
M  V30 9407 C 864.295 4.02562 -1.35015 0
M  V30 9408 O 865.319 3.35499 -1.19661 0
M  V30 9409 O 864.178 5.22638 -1.59726 0
M  V30 9410 H 861.272 0.800549 -0.207486 0
M  V30 9411 H 863.818 1.28959 -1.10307 0
M  V30 9412 H 862.59 3.17878 -2.28186 0
M  V30 9413 H 862.213 3.90845 -0.729807 0
M  V30 9414 N 863.21 0.781244 1.36873 0
M  V30 9415 C 864.458 0.349198 1.9906 0
M  V30 9416 C 864.779 -1.0806 1.62321 0
M  V30 9417 O 864.049 -1.74351 0.893229 0
M  V30 9418 H 862.629 0.126126 0.736275 0
M  V30 9419 H 865.291 1.00148 1.67202 0
M  V30 9420 H 864.387 0.434451 3.09061 0
M  V30 9421 N 864.689 -1.48329 0.532571 0
M  V30 9422 C 865.636 -2.29663 -0.228779 0
M  V30 9423 C 866.606 -1.37529 -0.931401 0
M  V30 9424 O 867.791 -1.66493 -0.931921 0
M  V30 9425 C 864.931 -3.20955 -1.26814 0
M  V30 9426 C 864.044 -4.28168 -0.574099 0
M  V30 9427 C 863.179 -5.06638 -1.59661 0
M  V30 9428 C 862.218 -6.05651 -0.88618 0
M  V30 9429 N 861.355 -6.77169 -1.85436 0
M  V30 9430 H 866.195 -2.94255 0.47098 0
M  V30 9431 H 863.732 -1.45061 0.2441 0
M  V30 9432 H 865.69 -3.72285 -1.88307 0
M  V30 9433 H 864.32 -2.58281 -1.93625 0
M  V30 9434 H 863.372 -3.80085 0.154827 0
M  V30 9435 H 864.684 -4.98797 -0.0163984 0
M  V30 9436 H 863.838 -5.61995 -2.28576 0
M  V30 9437 H 862.577 -4.35854 -2.18821 0
M  V30 9438 H 861.582 -5.49495 -0.182981 0
M  V30 9439 H 862.807 -6.78434 -0.300659 0
M  V30 9440 H 860.753 -6.09134 -2.43499 0
M  V30 9441 H 860.67 -7.43882 -1.34816 0
M  V30 9442 H 861.938 -7.37114 -2.53541 0
M  V30 9443 N 866.167 -0.267825 -1.55308 0
M  V30 9444 C 867.583 0.0865107 -1.59365 0
M  V30 9445 C 867.783 1.55205 -1.28505 0
M  V30 9446 O 866.839 2.29978 -1.04241 0
M  V30 9447 C 868.152 -0.28155 -2.99379 0
M  V30 9448 C 869.7 -0.227565 -3.12172 0
M  V30 9449 C 870.175 -0.569959 -4.5444 0
M  V30 9450 N 871.666 -0.521238 -4.60258 0
M  V30 9451 C 872.401 -0.759061 -5.68354 0
M  V30 9452 N 871.897 -1.06112 -6.84626 0
M  V30 9453 N 873.69 -0.688351 -5.57869 0
M  V30 9454 H 865.841 -1.22332 -1.73633 0
M  V30 9455 H 868.104 -0.493703 -0.809297 0
M  V30 9456 H 867.81 -1.3005 -3.26772 0
M  V30 9457 H 867.684 0.381192 -3.75269 0
M  V30 9458 H 870.071 0.782093 -2.84548 0
M  V30 9459 H 870.152 -0.924461 -2.38511 0
M  V30 9460 H 869.796 -1.57727 -4.82788 0
M  V30 9461 H 869.726 0.148646 -5.2639 0
M  V30 9462 H 872.217 -0.297359 -3.76728 0
M  V30 9463 H 872.53 -1.22945 -7.62958 0
M  V30 9464 H 870.875 -1.09881 -6.86259 0
M  V30 9465 H 874.066 -0.452268 -4.6591 0
M  V30 9466 H 874.239 -0.877081 -6.42037 0
M  V30 9467 N 867.645 1.57599 0.00500368 0
M  V30 9468 C 868.892 1.90349 0.690895 0
M  V30 9469 C 869.22 0.868045 1.74055 0
M  V30 9470 O 868.475 -0.127855 1.95282 0
M  V30 9471 C 868.774 3.29855 1.37588 0
M  V30 9472 C 868.44 4.48548 0.459906 0
M  V30 9473 C 867.102 4.80752 0.207693 0
M  V30 9474 C 869.454 5.20919 -0.171054 0
M  V30 9475 C 866.782 5.82701 -0.683855 0
M  V30 9476 C 869.134 6.23818 -1.05045 0
M  V30 9477 C 867.798 6.54481 -1.31189 0
M  V30 9478 H 867.068 0.696538 0.252816 0
M  V30 9479 H 869.715 1.91436 -0.0494495 0
M  V30 9480 H 868.02 3.24869 2.19015 0
M  V30 9481 H 869.717 3.52452 1.91255 0
M  V30 9482 H 866.307 4.23384 0.666648 0
M  V30 9483 H 870.491 4.96299 0.0107942 0
M  V30 9484 H 865.747 6.04822 -0.894467 0
M  V30 9485 H 869.921 6.79029 -1.54574 0
M  V30 9486 H 867.548 7.33299 -2.00442 0
M  V30 9487 N 869.123 -0.277682 1.55134 0
M  V30 9488 C 870.055 -1.36531 1.84098 0
M  V30 9489 C 871.068 -1.45756 0.725194 0
M  V30 9490 O 872.257 -1.47656 1.00299 0
M  V30 9491 C 869.357 -2.74701 1.98476 0
M  V30 9492 C 868.53 -2.88125 3.29094 0
M  V30 9493 C 867.589 -4.0694 3.33596 0
M  V30 9494 O 866.615 -3.9792 4.06999 0
M  V30 9495 N 867.817 -5.18687 2.60661 0
M  V30 9496 H 870.582 -1.12032 2.77973 0
M  V30 9497 H 868.143 -0.467793 1.54995 0
M  V30 9498 H 870.135 -3.52471 1.98863 0
M  V30 9499 H 868.705 -2.92043 1.11488 0
M  V30 9500 H 867.925 -1.97277 3.41285 0
M  V30 9501 H 869.213 -2.94021 4.15246 0
M  V30 9502 H 868.611 -5.28901 2.00699 0
M  V30 9503 H 867.168 -5.94705 2.66776 0
M  V30 9504 N 870.601 -1.47988 -0.541979 0
M  V30 9505 C 871.549 -1.62044 -1.66867 0
M  V30 9506 C 872.543 -0.487217 -1.62242 0
M  V30 9507 O 873.749 -0.66554 -1.67244 0
M  V30 9508 H 870.124 -0.51024 -0.552412 0
M  V30 9509 H 872.095 -2.56695 -1.52153 0
M  V30 9510 C 870.844 -1.66615 -3.0518 0
M  V30 9511 H 870.167 -2.5317 -3.09427 0
M  V30 9512 H 871.607 -1.80496 -3.83663 0
M  V30 9513 C 870.066 -0.402421 -3.34488 0
M  V30 9514 O 870.596 0.48992 -3.98701 0
M  V30 9515 N 868.802 -0.277778 -2.89269 0
M  V30 9516 H 868.349 -1.00488 -2.37192 0
M  V30 9517 H 868.307 0.566784 -3.09249 0
M  V30 9518 N 872.079 0.78992 -1.36375 0
M  V30 9519 C 873.325 1.55007 -1.3077 0
M  V30 9520 C 873.658 1.93871 0.112979 0
M  V30 9521 O 872.933 1.6267 1.06625 0
M  V30 9522 C 873.216 2.82748 -2.22993 0
M  V30 9523 C 873.069 2.50253 -3.73756 0
M  V30 9524 C 874.388 3.84569 -2.13998 0
M  V30 9525 H 871.507 0.562362 -0.476359 0
M  V30 9526 H 874.149 0.907582 -1.66922 0
M  V30 9527 H 872.299 3.37573 -1.92292 0
M  V30 9528 H 873.971 2.01482 -4.14973 0
M  V30 9529 H 872.214 1.83203 -3.93216 0
M  V30 9530 H 872.885 3.41487 -4.33694 0
M  V30 9531 H 875.361 3.39188 -2.4102 0
M  V30 9532 H 874.237 4.717 -2.80697 0
M  V30 9533 H 874.498 4.27491 -1.12711 0
M  V30 9534 N 873.557 1.20646 1.01402 0
M  V30 9535 C 874.52 0.959314 2.08158 0
M  V30 9536 C 875.52 -0.0661558 1.60664 0
M  V30 9537 O 876.71 0.170177 1.73367 0
M  V30 9538 C 873.842 0.444785 3.37986 0
M  V30 9539 H 875.035 1.90631 2.31517 0
M  V30 9540 H 872.588 1.02219 1.18241 0
M  V30 9541 H 873.323 -0.507553 3.20304 0
M  V30 9542 H 873.108 1.18435 3.73785 0
M  V30 9543 H 874.598 0.291443 4.16582 0
M  V30 9544 N 875.035 -1.20752 1.01276 0
M  V30 9545 C 875.982 -2.234 0.579732 0
M  V30 9546 C 876.952 -1.61256 -0.398206 0
M  V30 9547 O 878.137 -1.8845 -0.29851 0
M  V30 9548 C 875.277 -3.45008 -0.0797006 0
M  V30 9549 C 874.39 -4.21597 0.942343 0
M  V30 9550 C 873.525 -5.30591 0.254364 0
M  V30 9551 C 872.564 -5.98919 1.26343 0
M  V30 9552 N 871.701 -6.99511 0.602384 0
M  V30 9553 H 876.541 -2.59801 1.45971 0
M  V30 9554 H 874.078 -1.27663 0.730787 0
M  V30 9555 H 876.036 -4.1444 -0.479125 0
M  V30 9556 H 874.666 -3.09312 -0.923354 0
M  V30 9557 H 873.718 -3.51268 1.45996 0
M  V30 9558 H 875.03 -4.68576 1.70992 0
M  V30 9559 H 874.184 -6.06368 -0.200763 0
M  V30 9560 H 872.923 -4.84639 -0.545553 0
M  V30 9561 H 871.928 -5.21906 1.72898 0
M  V30 9562 H 873.153 -6.46957 2.06456 0
M  V30 9563 H 871.099 -6.55759 -0.177734 0
M  V30 9564 H 871.016 -7.44597 1.30809 0
M  V30 9565 H 872.284 -7.79313 0.17072 0
M  V30 9566 N 876.513 -0.788492 -1.36457 0
M  V30 9567 C 877.423 -0.187385 -2.3385 0
M  V30 9568 C 878.439 0.659984 -1.60998 0
M  V30 9569 O 879.615 0.575986 -1.92988 0
M  V30 9570 C 876.68 0.668525 -3.40194 0
M  V30 9571 C 875.741 -0.197234 -4.28847 0
M  V30 9572 C 874.974 0.61792 -5.30111 0
M  V30 9573 O 875.197 1.85396 -5.3943 0
M  V30 9574 O 874.131 0.0183016 -6.01897 0
M  V30 9575 H 877.957 -0.992617 -2.87021 0
M  V30 9576 H 875.542 -0.549934 -1.3891 0
M  V30 9577 H 877.424 1.15663 -4.05216 0
M  V30 9578 H 876.099 1.45166 -2.89324 0
M  V30 9579 H 875.006 -0.73207 -3.66867 0
M  V30 9580 H 876.339 -0.943863 -4.83065 0
M  V30 9581 N 877.991 1.48044 -0.54043 0
M  V30 9582 C 879.239 2.02097 -0.0101367 0
M  V30 9583 C 879.56 1.41881 1.33771 0
M  V30 9584 O 878.83 0.587923 1.8687 0
M  V30 9585 H 877.41 0.747 -0.000758716 0
M  V30 9586 H 880.072 1.81639 -0.706634 0
M  V30 9587 H 879.168 3.11969 0.0904474 0
M  V30 9588 N 879.47 0.276058 1.55163 0
M  V30 9589 C 880.716 -0.340959 1.99913 0
M  V30 9590 C 881.049 -1.55434 1.16422 0
M  V30 9591 O 880.324 -1.93081 0.234517 0
M  V30 9592 C 880.607 -0.722211 3.52783 0
M  V30 9593 C 880.46 0.498575 4.47028 0
M  V30 9594 C 881.779 -1.5583 4.11589 0
M  V30 9595 H 878.898 -0.122455 0.726756 0
M  V30 9596 H 881.54 0.38319 1.86096 0
M  V30 9597 H 879.69 -1.33919 3.64689 0
M  V30 9598 H 881.362 1.13713 4.47065 0
M  V30 9599 H 879.605 1.13646 4.18649 0
M  V30 9600 H 880.276 0.188041 5.5168 0
M  V30 9601 H 882.752 -1.03722 4.02965 0
M  V30 9602 H 881.628 -1.79387 5.1876 0
M  V30 9603 H 881.889 -2.53963 3.61877 0
M  V30 9604 N 880.948 -1.576 0.00335426 0
M  V30 9605 C 881.895 -2.08632 -0.986975 0
M  V30 9606 C 882.865 -0.982491 -1.33927 0
M  V30 9607 O 884.05 -1.25513 -1.43705 0
M  V30 9608 C 881.19 -2.59705 -2.27261 0
M  V30 9609 C 880.303 -3.84002 -1.97905 0
M  V30 9610 C 879.438 -4.23563 -3.20574 0
M  V30 9611 C 878.477 -5.40688 -2.8692 0
M  V30 9612 N 877.614 -5.75526 -4.02136 0
M  V30 9613 H 882.454 -2.92977 -0.544855 0
M  V30 9614 H 879.991 -1.44831 -0.257376 0
M  V30 9615 H 881.949 -2.87395 -3.02423 0
M  V30 9616 H 880.579 -1.7823 -2.69136 0
M  V30 9617 H 879.631 -3.63199 -1.13096 0
M  V30 9618 H 880.943 -4.69261 -1.69102 0
M  V30 9619 H 880.097 -4.52554 -4.04079 0
M  V30 9620 H 878.836 -3.37019 -3.52518 0
M  V30 9621 H 877.841 -5.11417 -2.01822 0
M  V30 9622 H 879.066 -6.2891 -2.5622 0
M  V30 9623 H 877.012 -4.9194 -4.33971 0
M  V30 9624 H 876.929 -6.55367 -3.76869 0
M  V30 9625 H 878.197 -6.0911 -4.8642 0
M  V30 9626 N 882.426 0.269451 -1.5528 0
M  V30 9627 C 883.673 1.00058 -1.76053 0
M  V30 9628 C 884.001 1.86156 -0.563592 0
M  V30 9629 O 883.256 1.90366 0.453806 0
M  V30 9630 C 883.555 1.91 -3.02082 0
M  V30 9631 C 883.221 1.20623 -4.34466 0
M  V30 9632 C 881.883 1.01165 -4.70446 0
M  V30 9633 C 884.235 0.705695 -5.164 0
M  V30 9634 C 881.563 0.303865 -5.85913 0
M  V30 9635 C 883.915 0.0114838 -6.32599 0
M  V30 9636 C 882.579 -0.19478 -6.67216 0
M  V30 9637 H 881.849 0.366138 -0.644223 0
M  V30 9638 H 884.496 0.272563 -1.8955 0
M  V30 9639 H 882.801 2.70435 -2.835 0
M  V30 9640 H 884.498 2.47698 -3.15352 0
M  V30 9641 H 881.088 1.36781 -4.06188 0
M  V30 9642 H 885.272 0.84364 -4.89077 0
M  V30 9643 H 880.528 0.133368 -6.11255 0
M  V30 9644 H 884.702 -0.384111 -6.9534 0
M  V30 9645 H 882.329 -0.745201 -7.56539 0
M  V30 9646 N 883.904 1.48273 0.534124 0
M  V30 9647 C 885.181 1.46567 1.29528 0
M  V30 9648 C 885.561 0.17509 2.10373 0
M  V30 9649 O 884.909 -0.843228 2.12372 0
M  V30 9650 C 885.119 2.72519 2.18023 0
M  V30 9651 C 886.467 3.2068 2.78298 0
M  V30 9652 O 887.491 2.73408 2.28313 0
M  V30 9653 O 886.35 4.02924 3.69208 0
M  V30 9654 H 883.444 0.585151 0.584403 0
M  V30 9655 H 885.99 1.60502 0.551119 0
M  V30 9656 H 884.762 3.57965 1.5804 0
M  V30 9657 H 884.385 2.61285 2.99693 0
M  V30 9658 N 885.382 -0.782676 1.36792 0
M  V30 9659 C 886.292 -1.92679 1.33835 0
M  V30 9660 C 887.308 -1.72344 0.23952 0
M  V30 9661 O 888.484 -1.95766 0.473045 0
M  V30 9662 C 885.549 -3.27644 1.1336 0
M  V30 9663 C 884.61 -3.6071 2.32781 0
M  V30 9664 C 883.843 -4.89234 2.13273 0
M  V30 9665 O 884.066 -5.59468 1.11136 0
M  V30 9666 O 883 -5.21112 3.01208 0
M  V30 9667 H 886.826 -1.98124 2.30175 0
M  V30 9668 H 884.411 -0.923887 1.17408 0
M  V30 9669 H 886.293 -4.08394 1.03886 0
M  V30 9670 H 884.968 -3.23076 0.200868 0
M  V30 9671 H 883.875 -2.80238 2.47825 0
M  V30 9672 H 885.208 -3.70008 3.24584 0
M  V30 9673 N 886.86 -1.21182 -1.00761 0
M  V30 9674 C 888.085 -1.05411 -1.78615 0
M  V30 9675 C 888.51 0.391837 -1.83973 0
M  V30 9676 O 887.868 1.28256 -1.28141 0
M  V30 9677 C 887.916 -1.65285 -3.20489 0
M  V30 9678 O 887.02 -0.896558 -4.02536 0
M  V30 9679 H 886.361 -0.37116 -0.550578 0
M  V30 9680 H 888.891 -1.60669 -1.26676 0
M  V30 9681 H 888.901 -1.69397 -3.71172 0
M  V30 9682 H 887.576 -2.70514 -3.15904 0
M  V30 9683 H 886.153 -0.930335 -3.61108 0
M  V30 9684 N 888.338 1.20213 -1.01915 0
M  V30 9685 C 889.248 2.26763 -0.601311 0
M  V30 9686 C 890.264 1.70185 0.362369 0
M  V30 9687 O 891.44 2.00165 0.222682 0
M  V30 9688 C 888.505 3.46662 0.0512879 0
M  V30 9689 C 887.566 4.18459 -0.958659 0
M  V30 9690 C 886.799 5.32634 -0.337107 0
M  V30 9691 O 887.022 5.63841 0.86251 0
M  V30 9692 O 885.956 5.9258 -1.05511 0
M  V30 9693 H 889.782 2.64725 -1.48844 0
M  V30 9694 H 887.367 1.2688 -0.788784 0
M  V30 9695 H 889.249 4.19345 0.41564 0
M  V30 9696 H 887.924 3.1057 0.912572 0
M  V30 9697 H 886.831 3.47937 -1.37442 0
M  V30 9698 H 888.164 4.58498 -1.78999 0
M  V30 9699 N 889.816 0.795718 1.36037 0
M  V30 9700 C 890.763 0.196548 2.29962 0
M  V30 9701 C 891.733 -0.663213 1.52285 0
M  V30 9702 O 892.918 -0.610574 1.80767 0
M  V30 9703 C 890.058 -0.657639 3.38776 0
M  V30 9704 C 889.171 0.221358 4.31433 0
M  V30 9705 C 888.306 -0.6398 5.27333 0
M  V30 9706 C 887.345 0.240265 6.11628 0
M  V30 9707 N 886.482 -0.580237 6.99698 0
M  V30 9708 H 891.322 1.00295 2.80615 0
M  V30 9709 H 888.859 0.506147 1.38118 0
M  V30 9710 H 890.817 -1.16793 4.00519 0
M  V30 9711 H 889.447 -1.42941 2.89426 0
M  V30 9712 H 888.499 0.84967 3.70789 0
M  V30 9713 H 889.811 0.899195 4.90628 0
M  V30 9714 H 888.965 -1.21566 5.94396 0
M  V30 9715 H 887.704 -1.35124 4.68607 0
M  V30 9716 H 886.709 0.828474 5.43522 0
M  V30 9717 H 887.934 0.949403 6.72431 0
M  V30 9718 H 885.88 -1.27585 6.43473 0
M  V30 9719 H 885.797 0.0397853 7.5599 0
M  V30 9720 H 887.065 -1.13972 7.71123 0
M  V30 9721 N 891.294 -1.47756 0.548274 0
M  V30 9722 C 892.522 -2.06884 0.0254873 0
M  V30 9723 C 892.937 -1.40225 -1.26422 0
M  V30 9724 O 892.294 -0.495776 -1.75637 0
M  V30 9725 C 892.345 -3.61036 -0.183134 0
M  V30 9726 O 892.066 -4.25195 1.05549 0
M  V30 9727 C 893.567 -4.37008 -0.744222 0
M  V30 9728 H 890.787 -0.669697 0.041789 0
M  V30 9729 H 893.331 -1.89888 0.759138 0
M  V30 9730 H 891.486 -3.77576 -0.866886 0
M  V30 9731 H 891.9 -5.17606 0.847629 0
M  V30 9732 H 893.374 -5.45579 -0.839529 0
M  V30 9733 H 893.851 -4.0268 -1.75344 0
M  V30 9734 H 894.457 -4.25191 -0.0964542 0
M  V30 9735 N 892.772 -0.284283 -1.55015 0
M  V30 9736 C 893.719 0.599194 -2.22886 0
M  V30 9737 C 894.689 1.14264 -1.20553 0
M  V30 9738 O 895.874 1.19025 -1.49123 0
M  V30 9739 C 893.014 1.77317 -2.96062 0
M  V30 9740 C 892.127 1.26271 -4.13134 0
M  V30 9741 C 891.262 2.39922 -4.73931 0
M  V30 9742 C 890.301 1.85925 -5.8318 0
M  V30 9743 N 889.438 2.93084 -6.38002 0
M  V30 9744 H 894.278 0.0137816 -2.97997 0
M  V30 9745 H 891.815 -0.00496503 -1.47099 0
M  V30 9746 H 893.773 2.46339 -3.36709 0
M  V30 9747 H 892.403 2.33047 -2.23358 0
M  V30 9748 H 891.455 0.465296 -3.77544 0
M  V30 9749 H 892.767 0.827284 -4.91892 0
M  V30 9750 H 891.921 3.1692 -5.17346 0
M  V30 9751 H 890.66 2.86784 -3.9447 0
M  V30 9752 H 889.665 1.07409 -5.39206 0
M  V30 9753 H 890.89 1.39987 -6.64515 0
M  V30 9754 H 888.836 3.3931 -5.61431 0
M  V30 9755 H 888.753 2.53986 -7.12058 0
M  V30 9756 H 890.021 3.7003 -6.86075 0
M  V30 9757 N 894.251 1.57596 -0.0117121 0
M  V30 9758 C 895.161 2.12596 0.991964 0
M  V30 9759 C 896.177 1.07399 1.36899 0
M  V30 9760 O 897.353 1.39365 1.45394 0
M  V30 9761 C 894.418 2.62796 2.2614 0
M  V30 9762 C 893.479 3.8264 1.94642 0
M  V30 9763 C 892.712 4.30435 3.15533 0
M  V30 9764 O 892.935 3.77495 4.27614 0
M  V30 9765 O 891.869 5.22469 2.98847 0
M  V30 9766 H 895.695 2.98597 0.554371 0
M  V30 9767 H 893.28 1.47947 0.207839 0
M  V30 9768 H 895.162 2.9523 3.00695 0
M  V30 9769 H 893.837 1.79886 2.69114 0
M  V30 9770 H 892.744 3.5516 1.17526 0
M  V30 9771 H 894.077 4.66658 1.56496 0
M  V30 9772 N 895.729 -0.261212 1.5542 0
M  V30 9773 C 896.954 -1.01341 1.80955 0
M  V30 9774 C 897.379 -1.78711 0.586849 0
M  V30 9775 O 896.737 -1.75266 -0.463837 0
M  V30 9776 C 896.785 -1.93835 3.04073 0
M  V30 9777 O 895.889 -3.02791 2.79985 0
M  V30 9778 H 895.23 -0.289123 0.597749 0
M  V30 9779 H 897.76 -0.286543 2.02584 0
M  V30 9780 H 897.77 -2.3557 3.33123 0
M  V30 9781 H 896.445 -1.36936 3.9271 0
M  V30 9782 H 895.022 -2.65287 2.62063 0
M  V30 9783 N 897.207 -1.48554 -0.526253 0
M  V30 9784 C 898.623 -1.34757 -0.855138 0
M  V30 9785 C 898.823 -0.36142 -1.98232 0
M  V30 9786 O 897.879 0.216026 -2.51574 0
M  V30 9787 C 899.192 -2.74877 -1.21915 0
M  V30 9788 C 900.74 -2.83393 -1.32882 0
M  V30 9789 C 901.215 -4.24223 -1.72624 0
M  V30 9790 N 902.706 -4.26913 -1.7972 0
M  V30 9791 C 903.441 -5.32824 -2.11863 0
M  V30 9792 N 902.937 -6.49008 -2.42405 0
M  V30 9793 N 904.73 -5.20221 -2.12901 0
M  V30 9794 H 896.881 -2.11284 0.217422 0
M  V30 9795 H 899.144 -0.947367 0.0346362 0
M  V30 9796 H 898.85 -3.48619 -0.464486 0
M  V30 9797 H 898.724 -3.0864 -2.16844 0
M  V30 9798 H 901.111 -2.09904 -2.07424 0
M  V30 9799 H 901.192 -2.53245 -0.360638 0
M  V30 9800 H 900.836 -4.98229 -0.986411 0
M  V30 9801 H 900.766 -4.51817 -2.70498 0
M  V30 9802 H 903.257 -3.4311 -1.58379 0
M  V30 9803 H 903.57 -7.25561 -2.66048 0
M  V30 9804 H 901.915 -6.52277 -2.39917 0
M  V30 9805 H 905.106 -4.28469 -1.885 0
M  V30 9806 H 905.279 -6.02861 -2.37619 0
M  V30 9807 N 898.685 0.775411 -1.37205 0
M  V30 9808 C 899.595 1.91967 -1.34855 0
M  V30 9809 C 900.611 1.72214 -0.248656 0
M  V30 9810 O 901.787 1.95512 -0.483421 0
M  V30 9811 C 898.852 3.27038 -1.15096 0
M  V30 9812 C 897.913 3.5947 -2.34691 0
M  V30 9813 C 897.146 4.88097 -2.15865 0
M  V30 9814 O 897.369 5.58871 -1.14102 0
M  V30 9815 O 896.303 5.19507 -3.03967 0
M  V30 9816 H 900.129 1.969 -2.31223 0
M  V30 9817 H 897.714 0.917647 -1.17897 0
M  V30 9818 H 899.596 4.07837 -1.0605 0
M  V30 9819 H 898.271 3.22965 -0.217999 0
M  V30 9820 H 897.178 2.7892 -2.49308 0
M  V30 9821 H 898.511 3.68282 -3.26541 0
M  V30 9822 N 900.163 1.21714 1.00117 0
M  V30 9823 C 901.126 0.981338 2.07129 0
M  V30 9824 C 902.126 -0.0491116 1.60725 0
M  V30 9825 O 903.316 0.188555 1.73177 0
M  V30 9826 C 900.448 0.480608 3.37495 0
M  V30 9827 H 901.641 1.93075 2.29482 0
M  V30 9828 H 899.194 1.03467 1.17151 0
M  V30 9829 H 899.929 -0.473552 3.20824 0
M  V30 9830 H 899.714 1.22393 3.72508 0
M  V30 9831 H 901.204 0.33561 4.16249 0
M  V30 9832 N 901.641 -1.19671 1.02551 0
M  V30 9833 C 902.887 -1.89548 0.721069 0
M  V30 9834 C 903.22 -1.79209 -0.748176 0
M  V30 9835 O 902.495 -1.1822 -1.54448 0
M  V30 9836 C 902.778 -3.4061 1.16861 0
M  V30 9837 C 902.631 -3.59838 2.69883 0
M  V30 9838 C 903.95 -4.33718 0.746782 0
M  V30 9839 H 901.069 -0.688315 0.263422 0
M  V30 9840 H 903.711 -1.40883 1.27483 0
M  V30 9841 H 901.861 -3.82188 0.697477 0
M  V30 9842 H 903.533 -3.27454 3.24917 0
M  V30 9843 H 901.776 -3.03005 3.10435 0
M  V30 9844 H 902.447 -4.65766 2.96253 0
M  V30 9845 H 904.923 -3.99837 1.15195 0
M  V30 9846 H 903.799 -5.38012 1.08786 0
M  V30 9847 H 904.06 -4.40704 -0.351057 0
M  V30 9848 N 903.119 -0.802921 -1.35613 0
M  V30 9849 C 904.029 -0.212177 -2.33639 0
M  V30 9850 C 905.045 0.642871 -1.61689 0
M  V30 9851 O 906.221 0.555485 -1.93588 0
M  V30 9852 C 903.286 0.632406 -3.40883 0
M  V30 9853 C 902.347 -0.242708 -4.28613 0
M  V30 9854 C 901.58 0.56166 -5.30736 0
M  V30 9855 O 901.803 1.79664 -5.41366 0
M  V30 9856 O 900.737 -0.0455387 -6.01883 0
M  V30 9857 H 904.563 -1.023 -2.85952 0
M  V30 9858 H 902.148 -0.564636 -1.38319 0
M  V30 9859 H 904.03 1.11358 -4.0642 0
M  V30 9860 H 902.705 1.42089 -2.90848 0
M  V30 9861 H 901.612 -0.77094 -3.6607 0
M  V30 9862 H 902.945 -0.995046 -4.82037 0
M  V30 9863 N 904.597 1.47463 -0.556102 0
M  V30 9864 C 905.544 2.29998 0.192213 0
M  V30 9865 C 906.514 1.38993 0.909403 0
M  V30 9866 O 907.699 1.67954 0.905316 0
M  V30 9867 C 904.839 3.22932 1.21692 0
M  V30 9868 C 903.952 4.29027 0.505908 0
M  V30 9869 C 903.087 5.09114 1.51581 0
M  V30 9870 C 902.126 6.06984 0.789714 0
M  V30 9871 N 901.263 6.80033 1.74639 0
M  V30 9872 H 906.103 2.93468 -0.517734 0
M  V30 9873 H 903.64 1.44654 -0.267147 0
M  V30 9874 H 905.598 3.75234 1.8236 0
M  V30 9875 H 904.228 2.61329 1.89491 0
M  V30 9876 H 903.28 3.7979 -0.215276 0
M  V30 9877 H 904.592 4.9876 -0.062958 0
M  V30 9878 H 903.746 5.6556 2.19606 0
M  V30 9879 H 902.485 4.3928 2.11859 0
M  V30 9880 H 901.49 5.49717 0.0955382 0
M  V30 9881 H 902.715 6.78827 0.192688 0
M  V30 9882 H 900.661 6.12931 2.33777 0
M  V30 9883 H 900.578 7.45933 1.22965 0
M  V30 9884 H 901.846 7.41054 2.41782 0
M  V30 9885 N 906.075 0.2925 1.54862 0
M  V30 9886 C 906.985 -0.597036 2.26876 0
M  V30 9887 C 908.001 -1.15558 1.30086 0
M  V30 9888 O 909.177 -1.18217 1.63054 0
M  V30 9889 C 906.242 -1.75664 2.98903 0
M  V30 9890 C 905.303 -1.23303 4.11212 0
M  V30 9891 C 904.536 -2.33736 4.79795 0
M  V30 9892 O 904.759 -3.53459 4.47686 0
M  V30 9893 O 903.693 -2.00908 5.67379 0
M  V30 9894 H 907.519 -0.0131242 3.03697 0
M  V30 9895 H 905.104 0.0592642 1.49282 0
M  V30 9896 H 906.986 -2.43241 3.4411 0
M  V30 9897 H 905.661 -2.32731 2.24984 0
M  V30 9898 H 904.568 -0.523222 3.70423 0
M  V30 9899 H 905.901 -0.707887 4.87083 0
M  V30 9900 N 907.553 -1.57587 0.0200696 0
M  V30 9901 C 908.8 -1.91424 -0.660525 0
M  V30 9902 C 909.128 -0.895626 -1.72652 0
M  V30 9903 O 908.383 0.096771 -1.95461 0
M  V30 9904 C 908.682 -3.32002 -1.32323 0
M  V30 9905 C 908.348 -4.49223 -0.388487 0
M  V30 9906 C 907.01 -4.81021 -0.131184 0
M  V30 9907 C 909.362 -5.20581 0.253906 0
M  V30 9908 C 906.69 -5.81539 0.776471 0
M  V30 9909 C 909.042 -6.22067 1.14956 0
M  V30 9910 C 907.706 -6.52311 1.41584 0
M  V30 9911 H 906.976 -0.700472 -0.241703 0
M  V30 9912 H 909.623 -1.91333 0.0798991 0
M  V30 9913 H 907.928 -3.28312 -2.13819 0
M  V30 9914 H 909.625 -3.5545 -1.85623 0
M  V30 9915 H 906.215 -4.24391 -0.599207 0
M  V30 9916 H 910.399 -4.96253 0.068164 0
M  V30 9917 H 905.655 -6.03322 0.990575 0
M  V30 9918 H 909.829 -6.76484 1.65357 0
M  V30 9919 H 907.456 -7.30017 2.12083 0
M  V30 9920 N 909.032 0.252966 -1.55557 0
M  V30 9921 C 909.942 1.33472 -1.92931 0
M  V30 9922 C 910.958 1.52983 -0.828985 0
M  V30 9923 O 912.134 1.66723 -1.12984 0
M  V30 9924 C 909.199 2.6704 -2.21112 0
M  V30 9925 C 908.26 2.56103 -3.44542 0
M  V30 9926 C 907.493 3.83302 -3.71369 0
M  V30 9927 O 907.716 4.84907 -3.00368 0
M  V30 9928 O 906.65 3.823 -4.64898 0
M  V30 9929 H 910.476 1.04768 -2.85057 0
M  V30 9930 H 908.061 0.453208 -1.4236 0
M  V30 9931 H 909.943 3.45981 -2.40572 0
M  V30 9932 H 908.618 2.95489 -1.32166 0
M  V30 9933 H 907.525 1.7547 -3.30396 0
M  V30 9934 H 908.858 2.32601 -4.33772 0
M  V30 9935 N 910.51 1.48831 0.518367 0
M  V30 9936 C 911.921 1.50842 1.10016 0
M  V30 9937 C 912.272 0.284744 1.94123 0
M  V30 9938 O 911.397 -0.607088 2.0771 0
M  V30 9939 C 911.992 2.73329 2.00191 0
M  V30 9940 C 910.551 2.78175 2.53566 0
M  V30 9941 C 909.698 2.4452 1.30786 0
M  V30 9942 H 912.649 1.55779 0.303073 0
M  V30 9943 H 912.67 2.52506 2.84642 0
M  V30 9944 H 912.182 3.62374 1.3895 0
M  V30 9945 H 910.283 1.93368 3.18496 0
M  V30 9946 H 910.396 3.79905 2.91906 0
M  V30 9947 H 908.76 1.95924 1.62744 0
M  V30 9948 H 909.543 3.35819 0.712797 0
M  V30 9949 N 911.988 -0.768124 1.37614 0
M  V30 9950 C 912.918 -1.89537 1.36374 0
M  V30 9951 C 913.899 -1.68513 0.231803 0
M  V30 9952 O 915.084 -1.89318 0.432705 0
M  V30 9953 C 912.214 -3.26871 1.17358 0
M  V30 9954 C 911.168 -3.62466 2.27602 0
M  V30 9955 C 910.494 -4.9838 1.93705 0
M  V30 9956 C 911.794 -3.68841 3.69802 0
M  V30 9957 H 913.488 -1.90832 2.30702 0
M  V30 9958 H 911.034 -0.91672 1.11051 0
M  V30 9959 H 912.987 -4.05371 1.15119 0
M  V30 9960 H 911.711 -3.26018 0.194865 0
M  V30 9961 H 910.37 -2.86276 2.29002 0
M  V30 9962 H 910.018 -4.94071 0.943539 0
M  V30 9963 H 909.718 -5.23165 2.6753 0
M  V30 9964 H 911.242 -5.79276 1.93059 0
M  V30 9965 H 912.656 -4.37485 3.70513 0
M  V30 9966 H 911.053 -4.05126 4.42711 0
M  V30 9967 H 912.123 -2.69415 4.03167 0
M  V30 9968 N 913.466 -1.22244 -0.994698 0
M  V30 9969 C 914.396 -1.01513 -2.10279 0
M  V30 9970 C 915.377 0.0633365 -1.69982 0
M  V30 9971 O 916.562 -0.0985268 -1.9395 0
M  V30 9972 C 913.692 -0.59016 -3.42249 0
M  V30 9973 C 912.646 -1.61436 -3.96387 0
M  V30 9974 C 911.972 -1.04528 -5.24383 0
M  V30 9975 C 913.272 -3.00388 -4.27276 0
M  V30 9976 H 914.966 -1.94194 -2.2788 0
M  V30 9977 H 912.512 -0.935094 -1.09508 0
M  V30 9978 H 914.465 -0.432254 -4.19177 0
M  V30 9979 H 913.189 0.372308 -3.24471 0
M  V30 9980 H 911.848 -1.76001 -3.21589 0
M  V30 9981 H 911.496 -0.0742225 -5.02945 0
M  V30 9982 H 911.196 -1.72949 -5.61571 0
M  V30 9983 H 912.72 -0.898922 -6.03947 0
M  V30 9984 H 914.134 -2.89207 -4.95007 0
M  V30 9985 H 912.531 -3.65916 -4.75631 0
M  V30 9986 H 913.601 -3.50456 -3.35125 0
M  V30 9987 N 914.944 1.19125 -1.03184 0
M  V30 9988 C 915.892 2.24492 -0.608781 0
M  V30 9989 C 916.886 1.65529 0.360065 0
M  V30 9990 O 918.092 1.78546 0.22832 0
M  V30 9991 H 914.467 0.73048 -0.178616 0
M  V30 9992 H 916.438 2.5749 -1.50803 0
M  V30 9993 C 915.187 3.47693 0.0215126 0
M  V30 9994 H 914.51 3.93354 -0.715024 0
M  V30 9995 H 915.95 4.23072 0.280429 0
M  V30 9996 C 914.409 3.12088 1.26896 0
M  V30 9997 O 914.939 3.25013 2.36071 0
M  V30 9998 N 913.145 2.66494 1.15886 0
M  V30 9999 H 912.692 2.56176 0.270463 0
M  V30 10000 H 912.65 2.43042 1.99444 0
M  V30 10001 N 916.422 0.810101 1.35185 0
M  V30 10002 C 917.668 0.401839 1.99391 0
M  V30 10003 C 918.023 -1.02059 1.63101 0
M  V30 10004 O 917.316 -1.69889 0.8859 0
M  V30 10005 C 917.51 0.526561 3.535 0
M  V30 10006 C 917.339 1.95956 4.04761 0
M  V30 10007 C 916.109 2.58869 4.33953 0
M  V30 10008 C 918.307 2.92459 4.23051 0
M  V30 10009 N 916.289 3.93542 4.71166 0
M  V30 10010 C 917.66 4.12011 4.633 0
M  V30 10011 C 919.715 2.89244 4.05268 0
M  V30 10012 C 918.418 5.28784 4.87627 0
M  V30 10013 C 920.444 4.05223 4.30753 0
M  V30 10014 C 919.806 5.23524 4.71277 0
M  V30 10015 H 915.905 0.194886 0.757327 0
M  V30 10016 H 918.489 1.05209 1.63827 0
M  V30 10017 H 916.66 -0.0937151 3.88287 0
M  V30 10018 H 918.392 0.0925434 4.04594 0
M  V30 10019 H 915.147 2.10198 4.24398 0
M  V30 10020 H 915.571 4.62889 4.94027 0
M  V30 10021 H 920.213 1.98932 3.73076 0
M  V30 10022 H 917.931 6.19666 5.18691 0
M  V30 10023 H 921.517 4.04121 4.18542 0
M  V30 10024 H 920.397 6.11776 4.90612 0
M  V30 10025 N 917.9 -1.47166 0.563914 0
M  V30 10026 C 918.833 -2.27058 -0.227989 0
M  V30 10027 C 919.811 -1.34468 -0.914179 0
M  V30 10028 O 920.995 -1.63857 -0.931829 0
M  V30 10029 C 918.122 -3.11689 -1.32543 0
M  V30 10030 C 917.168 -4.19906 -0.747084 0
M  V30 10031 S 918.001 -5.33916 0.41153 0
M  V30 10032 C 919.157 -6.22112 -0.687566 0
M  V30 10033 H 919.39 -2.93876 0.449939 0
M  V30 10034 H 916.923 -1.50372 0.350382 0
M  V30 10035 H 918.881 -3.61017 -1.95389 0
M  V30 10036 H 917.542 -2.44221 -1.97522 0
M  V30 10037 H 916.735 -4.78876 -1.57141 0
M  V30 10038 H 916.337 -3.73493 -0.194671 0
M  V30 10039 H 918.629 -6.58867 -1.578 0
M  V30 10040 H 919.572 -7.07971 -0.135058 0
M  V30 10041 H 919.98 -5.55871 -0.983255 0
M  V30 10042 N 919.378 -0.300708 -1.54705 0
M  V30 10043 C 920.325 0.57552 -2.23509 0
M  V30 10044 C 921.295 1.12979 -1.21758 0
M  V30 10045 O 922.48 1.17437 -1.50377 0
M  V30 10046 C 919.62 1.74167 -2.97926 0
M  V30 10047 C 918.733 1.21882 -4.1445 0
M  V30 10048 C 917.868 2.34881 -4.7645 0
M  V30 10049 C 916.907 1.79729 -5.85119 0
M  V30 10050 N 916.044 2.863 -6.41075 0
M  V30 10051 H 920.884 -0.0178257 -2.97995 0
M  V30 10052 H 918.421 -0.0205666 -1.47086 0
M  V30 10053 H 920.379 2.42753 -3.39303 0
M  V30 10054 H 919.009 2.30665 -2.25817 0
M  V30 10055 H 918.061 0.425227 -3.78016 0
M  V30 10056 H 919.373 0.775065 -4.92741 0
M  V30 10057 H 918.527 3.11415 -5.20678 0
M  V30 10058 H 917.266 2.82584 -3.97489 0
M  V30 10059 H 916.271 1.01684 -5.40315 0
M  V30 10060 H 917.496 1.32931 -6.65963 0
M  V30 10061 H 915.442 3.33337 -5.64998 0
M  V30 10062 H 915.359 2.46419 -7.14712 0
M  V30 10063 H 916.627 3.62732 -6.89961 0
M  V30 10064 N 920.856 1.57574 -0.0284266 0
M  V30 10065 C 922.133 1.83064 0.688979 0
M  V30 10066 C 922.513 0.91219 1.90374 0
M  V30 10067 O 921.861 -0.0323672 2.28477 0
M  V30 10068 C 922.071 3.32262 1.06785 0
M  V30 10069 C 923.419 3.98717 1.45978 0
M  V30 10070 O 924.443 3.36753 1.16085 0
M  V30 10071 O 923.302 5.07927 2.01673 0
M  V30 10072 H 920.396 0.7548 0.337944 0
M  V30 10073 H 922.942 1.69607 -0.0560555 0
M  V30 10074 H 921.714 3.90772 0.203235 0
M  V30 10075 H 921.337 3.50823 1.87107 0
M  V30 10076 N 922.334 -0.244713 1.55689 0
M  V30 10077 C 923.281 -1.30301 1.905 0
M  V30 10078 C 924.251 -1.4772 0.759478 0
M  V30 10079 O 925.436 -1.61667 1.01333 0
M  V30 10080 C 922.576 -2.653 2.20703 0
M  V30 10081 C 921.689 -2.55872 3.48071 0
M  V30 10082 C 920.824 -3.83238 3.67834 0
M  V30 10083 C 919.863 -3.68436 4.88796 0
M  V30 10084 N 919 -4.877 5.05068 0
M  V30 10085 H 923.84 -0.999143 2.80751 0
M  V30 10086 H 921.377 -0.482099 1.38976 0
M  V30 10087 H 923.335 -3.43884 2.36219 0
M  V30 10088 H 921.965 -2.93831 1.33653 0
M  V30 10089 H 921.017 -1.68846 3.40874 0
M  V30 10090 H 922.329 -2.40845 4.36801 0
M  V30 10091 H 921.483 -4.70266 3.83321 0
M  V30 10092 H 920.222 -4.01165 2.77341 0
M  V30 10093 H 919.227 -2.79793 4.73282 0
M  V30 10094 H 920.452 -3.52003 5.8075 0
M  V30 10095 H 918.398 -5.05983 4.17513 0
M  V30 10096 H 918.315 -4.75312 5.8789 0
M  V30 10097 H 919.583 -5.76219 5.24969 0
M  V30 10098 N 923.813 -1.49104 -0.510467 0
M  V30 10099 C 924.776 -1.64569 -1.59529 0
M  V30 10100 C 925.776 -0.517937 -1.5223 0
M  V30 10101 O 926.966 -0.784183 -1.55551 0
M  V30 10102 C 924.098 -1.6342 -2.99177 0
M  V30 10103 H 925.291 -2.61318 -1.4715 0
M  V30 10104 H 922.844 -1.37993 -0.734001 0
M  V30 10105 H 923.579 -0.68221 -3.17043 0
M  V30 10106 H 923.364 -2.45312 -3.05883 0
M  V30 10107 H 924.854 -1.77474 -3.78011 0
M  V30 10108 N 925.291 0.760815 -1.38019 0
M  V30 10109 C 926.221 1.88811 -1.37377 0
M  V30 10110 C 927.202 1.68388 -0.240737 0
M  V30 10111 O 928.387 1.89086 -0.442739 0
M  V30 10112 C 925.517 3.26244 -1.1909 0
M  V30 10113 C 924.471 3.61254 -2.29521 0
M  V30 10114 C 923.797 4.97346 -1.96345 0
M  V30 10115 C 925.097 3.66874 -3.71753 0
M  V30 10116 H 926.791 1.89606 -2.31711 0
M  V30 10117 H 924.337 0.910818 -1.11535 0
M  V30 10118 H 926.29 4.04755 -1.17267 0
M  V30 10119 H 925.014 3.2591 -0.212152 0
M  V30 10120 H 923.673 2.85057 -2.30517 0
M  V30 10121 H 923.321 4.93564 -0.969728 0
M  V30 10122 H 923.021 5.21739 -2.703 0
M  V30 10123 H 924.545 5.78244 -1.96129 0
M  V30 10124 H 925.959 4.35514 -3.72828 0
M  V30 10125 H 924.356 4.02772 -4.44853 0
M  V30 10126 H 925.426 2.67273 -4.0459 0
M  V30 10127 N 926.769 1.22769 0.988202 0
M  V30 10128 C 927.716 1.00195 2.07917 0
M  V30 10129 C 928.686 -0.0779391 1.65917 0
M  V30 10130 O 929.871 0.0726005 1.90662 0
M  V30 10131 C 927.011 0.590853 3.40004 0
M  V30 10132 C 926.124 1.74202 3.9532 0
M  V30 10133 C 925.259 1.27846 5.15586 0
M  V30 10134 C 924.298 2.40087 5.63049 0
M  V30 10135 N 923.435 1.94744 6.74551 0
M  V30 10136 H 928.275 1.93581 2.26562 0
M  V30 10137 H 925.812 0.96448 1.11068 0
M  V30 10138 H 927.77 0.333653 4.15864 0
M  V30 10139 H 926.4 -0.306007 3.21346 0
M  V30 10140 H 925.452 2.11342 3.16289 0
M  V30 10141 H 926.764 2.58612 4.26522 0
M  V30 10142 H 925.918 0.978919 5.9875 0
M  V30 10143 H 924.657 0.404617 4.86019 0
M  V30 10144 H 923.662 2.70824 4.78471 0
M  V30 10145 H 924.887 3.27995 5.9464 0
M  V30 10146 H 922.833 1.09729 6.46758 0
M  V30 10147 H 922.75 2.72718 7.05096 0
M  V30 10148 H 924.018 1.67873 7.61209 0
M  V30 10149 N 928.247 -1.18576 1.03814 0
M  V30 10150 C 929.524 -1.8433 0.654358 0
M  V30 10151 C 929.904 -1.92504 -0.866338 0
M  V30 10152 O 929.252 -1.44904 -1.76678 0
M  V30 10153 C 929.462 -3.22778 1.32723 0
M  V30 10154 C 930.81 -3.98841 1.45641 0
M  V30 10155 O 931.834 -3.32209 1.28514 0
M  V30 10156 O 930.693 -5.18219 1.73526 0
M  V30 10157 H 927.787 -0.794766 0.228638 0
M  V30 10158 H 930.333 -1.25989 1.13687 0
M  V30 10159 H 929.105 -3.11717 2.36534 0
M  V30 10160 H 928.728 -3.88772 0.833176 0
M  V30 10161 N 929.725 -0.817259 -1.34754 0
M  V30 10162 C 930.672 -0.233108 -2.2962 0
M  V30 10163 C 931.642 0.638902 -1.53321 0
M  V30 10164 O 932.827 0.581739 -1.81715 0
M  V30 10165 C 929.967 0.603659 -3.39779 0
M  V30 10166 C 929.08 -0.289967 -4.31026 0
M  V30 10167 C 928.215 0.555825 -5.28284 0
M  V30 10168 C 927.254 -0.337539 -6.11169 0
M  V30 10169 N 926.391 0.468847 -7.00533 0
M  V30 10170 H 931.231 -1.04747 -2.78984 0
M  V30 10171 H 928.768 -0.528056 -1.37295 0
M  V30 10172 H 930.726 1.10407 -4.02326 0
M  V30 10173 H 929.356 1.38319 -2.91664 0
M  V30 10174 H 928.408 -0.908552 -3.69391 0
M  V30 10175 H 929.72 -0.977136 -4.89135 0
M  V30 10176 H 928.874 1.12094 -5.96255 0
M  V30 10177 H 927.613 1.27652 -4.70698 0
M  V30 10178 H 926.618 -0.914839 -5.42135 0
M  V30 10179 H 927.843 -1.05626 -6.70835 0
M  V30 10180 H 925.789 1.17332 -6.45422 0
M  V30 10181 H 925.706 -0.160052 -7.55831 0
M  V30 10182 H 926.974 1.01689 -7.72839 0
M  V30 10183 N 931.203 1.46865 -0.571711 0
M  V30 10184 C 932.452 2.01636 -0.050881 0
M  V30 10185 C 932.765 1.45001 1.31279 0
M  V30 10186 O 933.971 1.91523 1.92435 0
M  V30 10187 C 932.427 3.59877 -0.0404114 0
M  V30 10188 C 932.035 4.25506 -1.40172 0
M  V30 10189 C 933.779 4.22346 0.42705 0
M  V30 10190 C 931.686 5.75795 -1.34958 0
M  V30 10191 H 930.616 0.753846 -0.0152514 0
M  V30 10192 H 933.267 1.68711 -0.721723 0
M  V30 10193 H 931.649 3.89829 0.696374 0
M  V30 10194 H 932.823 4.07178 -2.15737 0
M  V30 10195 H 931.138 3.75086 -1.8083 0
M  V30 10196 H 933.735 5.32499 0.484688 0
M  V30 10197 H 934.078 3.9052 1.44222 0
M  V30 10198 H 934.611 3.9698 -0.255326 0
M  V30 10199 H 931.35 6.12265 -2.3412 0
M  V30 10200 H 930.87 5.96419 -0.635962 0
M  V30 10201 H 932.549 6.38294 -1.05779 0
M  V30 10202 N 932.681 0.308908 1.54543 0
M  V30 10203 C 933.591 -0.572939 2.27496 0
M  V30 10204 C 934.607 -1.14171 1.31305 0
M  V30 10205 O 935.783 -1.16481 1.64299 0
M  V30 10206 C 932.848 -1.72483 3.0075 0
M  V30 10207 C 931.909 -1.18934 4.12496 0
M  V30 10208 C 931.142 -2.28634 4.82247 0
M  V30 10209 O 931.365 -3.48691 4.5141 0
M  V30 10210 O 930.299 -1.94879 5.69478 0
M  V30 10211 H 934.125 0.0190877 3.03694 0
M  V30 10212 H 931.71 0.0750943 1.49211 0
M  V30 10213 H 933.592 -2.39578 3.46671 0
M  V30 10214 H 932.267 -2.30332 2.2744 0
M  V30 10215 H 931.174 -0.483904 3.70957 0
M  V30 10216 H 932.507 -0.656185 4.87806 0
M  V30 10217 N 934.159 -1.57557 0.0367827 0
M  V30 10218 C 935.106 -2.10679 -0.942499 0
M  V30 10219 C 936.076 -1.01068 -1.31812 0
M  V30 10220 O 937.261 -1.28533 -1.41011 0
M  V30 10221 C 934.401 -2.64467 -2.21701 0
M  V30 10222 C 933.514 -3.88114 -1.89715 0
M  V30 10223 C 932.649 -4.30268 -3.11518 0
M  V30 10224 C 931.688 -5.46652 -2.75387 0
M  V30 10225 N 930.825 -5.83927 -3.89838 0
M  V30 10226 H 935.665 -2.94066 -0.482588 0
M  V30 10227 H 933.202 -1.45344 -0.226597 0
M  V30 10228 H 935.16 -2.93745 -2.96259 0
M  V30 10229 H 933.79 -1.83898 -2.65295 0
M  V30 10230 H 932.842 -3.65516 -1.05366 0
M  V30 10231 H 934.154 -4.72743 -1.5911 0
M  V30 10232 H 933.308 -4.61023 -3.94389 0
M  V30 10233 H 932.047 -3.44421 -3.4529 0
M  V30 10234 H 931.052 -5.15583 -1.90929 0
M  V30 10235 H 932.277 -6.34204 -2.42822 0
M  V30 10236 H 930.223 -5.01035 -4.23438 0
M  V30 10237 H 930.14 -6.63214 -3.62883 0
M  V30 10238 H 931.408 -6.19291 -4.73391 0
M  V30 10239 N 935.637 0.236453 -1.55816 0
M  V30 10240 C 936.6 1.27633 -1.90375 0
M  V30 10241 C 937.6 1.40557 -0.781048 0
M  V30 10242 O 938.79 1.39078 -1.04895 0
M  V30 10243 C 935.922 2.65247 -2.14142 0
M  V30 10244 H 937.115 0.982019 -2.83366 0
M  V30 10245 H 934.668 0.476215 -1.48869 0
M  V30 10246 H 935.403 2.99801 -1.23653 0
M  V30 10247 H 935.188 2.57246 -2.95917 0
M  V30 10248 H 936.678 3.40313 -2.42026 0
M  V30 10249 N 937.115 1.49373 0.502552 0
M  V30 10250 C 938.361 1.59016 1.25864 0
M  V30 10251 C 938.694 0.27532 1.92238 0
M  V30 10252 O 937.969 -0.720988 1.80643 0
M  V30 10253 C 938.252 2.74828 2.32683 0
M  V30 10254 C 938.105 4.16102 1.7082 0
M  V30 10255 C 939.424 2.86288 3.34256 0
M  V30 10256 H 936.543 0.578798 0.456248 0
M  V30 10257 H 939.185 1.81651 0.557032 0
M  V30 10258 H 937.335 2.5566 2.92524 0
M  V30 10259 H 939.007 4.46782 1.14818 0
M  V30 10260 H 937.25 4.21822 1.01238 0
M  V30 10261 H 937.921 4.93006 2.48292 0
M  V30 10262 H 940.397 3.03733 2.84404 0
M  V30 10263 H 939.273 3.69001 4.06362 0
M  V30 10264 H 939.534 1.95576 3.96488 0
M  V30 10265 N 938.594 -0.753485 1.38421 0
M  V30 10266 C 939.84 -1.51485 1.34834 0
M  V30 10267 C 940.173 -1.94102 -0.0615381 0
M  V30 10268 O 939.448 -1.65439 -1.02274 0
M  V30 10269 C 939.731 -2.76736 2.30411 0
M  V30 10270 C 939.584 -2.40256 3.80259 0
M  V30 10271 C 940.903 -3.7876 2.24119 0
M  V30 10272 H 938.022 -0.549534 0.491102 0
M  V30 10273 H 940.664 -0.863006 1.6927 0
M  V30 10274 H 938.814 -3.32357 2.01175 0
M  V30 10275 H 940.486 -1.90409 4.20169 0
M  V30 10276 H 938.729 -1.72714 3.97935 0
M  V30 10277 H 939.4 -3.29869 4.42595 0
M  V30 10278 H 941.876 -3.32679 2.49928 0
M  V30 10279 H 940.752 -4.64092 2.93104 0
M  V30 10280 H 941.013 -4.24352 1.24006 0
M  V30 10281 N 940.072 -1.23292 -0.981677 0
M  V30 10282 C 941.297 -1.09176 -1.76339 0
M  V30 10283 C 941.722 0.352726 -1.84763 0
M  V30 10284 O 941.08 1.25509 -1.30832 0
M  V30 10285 C 941.128 -1.72046 -3.16911 0
M  V30 10286 O 940.232 -0.98174 -4.00544 0
M  V30 10287 H 939.573 -0.382755 -0.542581 0
M  V30 10288 H 942.103 -1.63319 -1.23239 0
M  V30 10289 H 942.113 -1.77232 -3.67495 0
M  V30 10290 H 940.788 -2.77154 -3.10095 0
M  V30 10291 H 939.365 -1.00672 -3.59054 0
M  V30 10292 N 941.55 1.18024 -1.04442 0
M  V30 10293 C 942.482 2.21294 -0.596799 0
M  V30 10294 C 943.495 1.59305 0.33552 0
M  V30 10295 O 944.684 1.7803 0.129443 0
M  V30 10296 C 941.784 3.38578 0.147648 0
M  V30 10297 C 940.957 4.30143 -0.793484 0
M  V30 10298 C 940.016 5.2612 -0.0916561 0
M  V30 10299 O 939.042 5.64586 -0.72331 0
M  V30 10300 N 940.244 5.68512 1.17364 0
M  V30 10301 H 943.009 2.6032 -1.48504 0
M  V30 10302 H 940.57 1.32847 -0.925374 0
M  V30 10303 H 942.562 3.99812 0.627098 0
M  V30 10304 H 941.132 2.98212 0.937466 0
M  V30 10305 H 940.352 3.66456 -1.45272 0
M  V30 10306 H 941.64 4.88216 -1.43258 0
M  V30 10307 H 941.038 5.39322 1.70729 0
M  V30 10308 H 939.595 6.31925 1.5973 0
M  V30 10309 N 943.028 0.824394 1.34319 0
M  V30 10310 C 944.444 0.510336 1.51221 0
M  V30 10311 C 944.644 -0.965201 1.76879 0
M  V30 10312 O 943.7 -1.74961 1.82057 0
M  V30 10313 C 945.013 1.37114 2.6762 0
M  V30 10314 C 946.561 1.36842 2.81502 0
M  V30 10315 C 947.036 2.21374 4.00946 0
M  V30 10316 N 948.527 2.19005 4.08156 0
M  V30 10317 C 949.262 2.81159 4.99737 0
M  V30 10318 N 948.758 3.52309 5.96532 0
M  V30 10319 N 950.551 2.70706 4.9262 0
M  V30 10320 H 942.702 1.77976 1.15924 0
M  V30 10321 H 944.965 0.758503 0.568663 0
M  V30 10322 H 944.671 2.41905 2.55294 0
M  V30 10323 H 944.545 1.03689 3.62669 0
M  V30 10324 H 946.932 0.328284 2.93268 0
M  V30 10325 H 947.013 1.74265 1.87257 0
M  V30 10326 H 946.657 3.25437 3.8994 0
M  V30 10327 H 946.587 1.813 4.94407 0
M  V30 10328 H 949.078 1.67252 3.38874 0
M  V30 10329 H 949.391 3.96977 6.63045 0
M  V30 10330 H 947.736 3.56415 5.96652 0
M  V30 10331 H 950.927 2.14694 4.15962 0
M  V30 10332 H 951.1 3.19431 5.63798 0
M  V30 10333 N 944.506 -1.46559 0.579492 0
M  V30 10334 C 945.436 -2.33059 -0.143437 0
M  V30 10335 C 946.417 -1.4515 -0.886868 0
M  V30 10336 O 947.602 -1.73973 -0.862961 0
M  V30 10337 C 944.732 -3.27364 -1.15973 0
M  V30 10338 C 943.686 -4.24689 -0.531348 0
M  V30 10339 C 943.012 -5.08479 -1.65388 0
M  V30 10340 C 944.312 -5.1961 0.529391 0
M  V30 10341 H 946.006 -2.93753 0.578762 0
M  V30 10342 H 943.552 -1.41256 0.279775 0
M  V30 10343 H 945.505 -3.86732 -1.67382 0
M  V30 10344 H 944.229 -2.64771 -1.91217 0
M  V30 10345 H 942.888 -3.6658 -0.0383749 0
M  V30 10346 H 942.536 -4.42273 -2.3959 0
M  V30 10347 H 942.236 -5.74387 -1.23909 0
M  V30 10348 H 943.76 -5.70709 -2.17079 0
M  V30 10349 H 945.174 -5.73212 0.100506 0
M  V30 10350 H 943.571 -5.93843 0.86432 0
M  V30 10351 H 944.641 -4.63737 1.4169 0
M  V30 10352 N 945.984 -0.3171 -1.54377 0
M  V30 10353 C 947.212 0.289558 -2.04864 0
M  V30 10354 C 947.627 1.46284 -1.19359 0
M  V30 10355 O 946.984 1.81135 -0.222795 0
M  V30 10356 C 947.035 0.730273 -3.54047 0
M  V30 10357 O 946.756 -0.396325 -4.36304 0
M  V30 10358 C 948.257 1.40041 -4.20599 0
M  V30 10359 H 945.477 0.0605836 -0.668259 0
M  V30 10360 H 948.021 -0.461411 -1.99227 0
M  V30 10361 H 946.176 1.43123 -3.59992 0
M  V30 10362 H 946.59 -0.0502901 -5.24476 0
M  V30 10363 H 948.064 1.65979 -5.26455 0
M  V30 10364 H 948.541 2.34565 -3.71316 0
M  V30 10365 H 949.147 0.742206 -4.18774 0
M  V30 10366 N 947.462 1.57535 -0.0451378 0
M  V30 10367 C 948.372 2.14653 0.946646 0
M  V30 10368 C 949.388 1.10279 1.3459 0
M  V30 10369 O 950.564 1.42417 1.42405 0
M  V30 10370 C 947.629 2.67533 2.20515 0
M  V30 10371 C 946.69 3.86682 1.86481 0
M  V30 10372 C 945.923 4.37031 3.06332 0
M  V30 10373 O 946.146 3.86481 4.1951 0
M  V30 10374 O 945.08 5.28691 2.87697 0
M  V30 10375 H 948.906 2.99706 0.49091 0
M  V30 10376 H 946.491 1.48355 0.17641 0
M  V30 10377 H 948.373 3.01542 2.94365 0
M  V30 10378 H 947.048 1.85554 2.65238 0
M  V30 10379 H 945.955 3.57573 1.09966 0
M  V30 10380 H 947.288 4.69873 1.46562 0
M  V30 10381 N 948.94 -0.228186 1.55939 0
M  V30 10382 C 950.165 -0.974795 1.83064 0
M  V30 10383 C 950.59 -1.77426 0.624624 0
M  V30 10384 O 949.948 -1.76211 -0.426556 0
M  V30 10385 C 949.996 -1.87342 3.08116 0
M  V30 10386 O 949.1 -2.96784 2.86344 0
M  V30 10387 H 948.441 -0.276379 0.603747 0
M  V30 10388 H 950.971 -0.243507 2.03146 0
M  V30 10389 H 950.981 -2.28451 3.38045 0
M  V30 10390 H 949.656 -1.28575 3.95526 0
M  V30 10391 H 948.233 -2.59669 2.67631 0
M  V30 10392 N 950.418 -1.49637 -0.494624 0
M  V30 10393 C 951.829 -1.52573 -1.07603 0
M  V30 10394 C 952.18 -0.315591 -1.93645 0
M  V30 10395 O 951.305 0.573966 -2.08649 0
M  V30 10396 C 951.9 -2.7648 -1.95817 0
M  V30 10397 C 950.459 -2.82173 -2.49109 0
M  V30 10398 C 949.606 -2.4657 -1.2688 0
M  V30 10399 H 952.557 -1.56242 -0.278251 0
M  V30 10400 H 952.578 -2.57003 -2.80588 0
M  V30 10401 H 952.09 -3.64538 -1.33167 0
M  V30 10402 H 950.191 -1.9841 -3.15379 0
M  V30 10403 H 950.304 -3.84501 -2.85825 0
M  V30 10404 H 948.668 -1.98489 -1.59607 0
M  V30 10405 H 949.451 -3.3691 -0.659281 0
M  V30 10406 N 951.896 0.746133 -1.38819 0
M  V30 10407 C 953.136 1.51821 -1.36857 0
M  V30 10408 C 953.5 1.9196 0.0391461 0
M  V30 10409 O 954.701 2.68172 0.183689 0
M  V30 10410 C 952.972 2.73214 -2.3041 0
M  V30 10411 S 954.531 3.62995 -2.46536 0
M  V30 10412 H 951.349 0.51945 -0.485482 0
M  V30 10413 H 953.951 0.875244 -1.74813 0
M  V30 10414 H 952.655 2.41847 -3.31569 0
M  V30 10415 H 952.186 3.42449 -1.9363 0
M  V30 10416 H 954.201 4.66353 -1.69498 0
M  V30 10417 N 953.375 1.23811 0.975125 0
M  V30 10418 C 954.338 1.02505 2.05001 0
M  V30 10419 C 955.338 -0.0150084 1.60793 0
M  V30 10420 O 956.528 0.225246 1.72738 0
M  V30 10421 C 953.66 0.552087 3.364 0
M  V30 10422 H 954.853 1.979 2.25335 0
M  V30 10423 H 952.406 1.05929 1.1493 0
M  V30 10424 H 953.141 -0.405394 3.21756 0
M  V30 10425 H 952.926 1.30267 3.69828 0
M  V30 10426 H 954.416 0.423828 4.15444 0
M  V30 10427 N 954.853 -1.17469 1.05066 0
M  V30 10428 C 955.783 -2.23635 0.671552 0
M  V30 10429 C 956.764 -1.66867 -0.33006 0
M  V30 10430 O 957.949 -1.93084 -0.207933 0
M  V30 10431 C 955.079 -3.47272 0.0441845 0
M  V30 10432 C 954.033 -4.16854 0.97042 0
M  V30 10433 C 953.359 -5.34299 0.206998 0
M  V30 10434 C 954.659 -4.69225 2.29401 0
M  V30 10435 H 956.353 -2.55602 1.55911 0
M  V30 10436 H 953.899 -1.2286 0.751101 0
M  V30 10437 H 955.852 -4.20756 -0.23282 0
M  V30 10438 H 954.576 -3.14568 -0.878311 0
M  V30 10439 H 953.235 -3.4528 1.23197 0
M  V30 10440 H 952.883 -4.97846 -0.718222 0
M  V30 10441 H 952.583 -5.81792 0.82416 0
M  V30 10442 H 954.107 -6.10568 -0.0627525 0
M  V30 10443 H 955.521 -5.34353 2.077 0
M  V30 10444 H 953.918 -5.27291 2.86503 0
M  V30 10445 H 954.988 -3.86102 2.93348 0
M  V30 10446 N 956.331 -0.831506 -1.3388 0
M  V30 10447 C 957.577 -0.424302 -1.98312 0
M  V30 10448 C 957.91 1.01211 -1.65741 0
M  V30 10449 O 957.185 1.70636 -0.933464 0
M  V30 10450 C 957.468 -0.636815 -3.54424 0
M  V30 10451 C 957.321 -2.11997 -3.96708 0
M  V30 10452 C 958.64 -0.0782411 -4.4003 0
M  V30 10453 H 955.759 -0.155637 -0.720379 0
M  V30 10454 H 958.401 -1.04566 -1.58638 0
M  V30 10455 H 956.551 -0.107907 -3.8835 0
M  V30 10456 H 958.223 -2.71317 -3.73075 0
M  V30 10457 H 956.466 -2.60723 -3.46707 0
M  V30 10458 H 957.137 -2.21944 -5.05416 0
M  V30 10459 H 959.613 -0.530243 -4.12708 0
M  V30 10460 H 958.489 -0.256676 -5.483 0
M  V30 10461 H 958.75 1.01745 -4.30233 0
M  V30 10462 N 957.809 1.4625 -0.587256 0
M  V30 10463 C 958.772 2.28812 0.133238 0
M  V30 10464 C 959.772 1.38645 0.814513 0
M  V30 10465 O 960.962 1.60975 0.665774 0
M  V30 10466 C 958.094 3.19147 1.19824 0
M  V30 10467 H 959.287 2.93991 -0.592386 0
M  V30 10468 H 956.84 1.52435 -0.345416 0
M  V30 10469 H 957.575 2.58725 1.95529 0
M  V30 10470 H 957.36 3.85541 0.71418 0
M  V30 10471 H 958.85 3.81278 1.70344 0
M  V30 10472 N 959.287 0.325282 1.54207 0
M  V30 10473 C 960.512 -0.281418 2.05482 0
M  V30 10474 C 960.937 -1.44869 1.19977 0
M  V30 10475 O 960.295 -1.80088 0.209275 0
M  V30 10476 C 960.343 -0.692029 3.53897 0
M  V30 10477 O 959.447 -1.7942 3.71325 0
M  V30 10478 H 958.788 -0.0504872 0.662078 0
M  V30 10479 H 961.318 0.474191 1.99029 0
M  V30 10480 H 961.328 -0.974219 3.96198 0
M  V30 10481 H 960.003 0.161709 4.15586 0
M  V30 10482 H 958.58 -1.51069 3.40929 0
M  V30 10483 N 960.765 -1.57509 0.0534917 0
M  V30 10484 C 961.697 -2.08616 -0.949322 0
M  V30 10485 C 962.71 -1.01446 -1.27328 0
M  V30 10486 O 963.899 -1.29007 -1.23367 0
M  V30 10487 C 960.999 -2.51622 -2.27024 0
M  V30 10488 C 960.172 -3.82154 -2.12785 0
M  V30 10489 C 959.231 -4.11448 -3.2802 0
M  V30 10490 O 958.257 -4.81333 -3.03822 0
M  V30 10491 N 959.459 -3.63543 -4.52567 0
M  V30 10492 H 962.224 -2.95275 -0.5131 0
M  V30 10493 H 959.785 -1.61355 -0.132693 0
M  V30 10494 H 961.777 -2.68293 -3.02986 0
M  V30 10495 H 960.347 -1.70198 -2.62205 0
M  V30 10496 H 959.567 -3.75041 -1.21399 0
M  V30 10497 H 960.855 -4.67629 -2.00501 0
M  V30 10498 H 960.253 -3.07051 -4.75117 0
M  V30 10499 H 958.81 -3.85448 -5.25617 0
M  V30 10500 N 962.243 0.219913 -1.56058 0
M  V30 10501 C 963.473 0.959521 -1.82967 0
M  V30 10502 C 963.881 1.78382 -0.630602 0
M  V30 10503 O 963.224 1.79062 0.410203 0
M  V30 10504 C 963.286 1.92481 -3.0363 0
M  V30 10505 C 962.95 1.28487 -4.38566 0
M  V30 10506 C 963.947 0.673946 -5.15513 0
M  V30 10507 C 961.632 1.29615 -4.85289 0
M  V30 10508 C 963.626 0.0828324 -6.37346 0
M  V30 10509 C 961.313 0.701191 -6.07064 0
M  V30 10510 C 962.311 0.0955877 -6.82933 0
M  V30 10511 O 961.999 -0.490109 -8.02405 0
M  V30 10512 H 961.731 0.286709 -0.612188 0
M  V30 10513 H 964.285 0.239761 -2.03996 0
M  V30 10514 H 962.515 2.6836 -2.78424 0
M  V30 10515 H 964.204 2.5301 -3.17397 0
M  V30 10516 H 964.97 0.657548 -4.80522 0
M  V30 10517 H 960.849 1.75691 -4.26208 0
M  V30 10518 H 964.393 -0.390482 -6.96506 0
M  V30 10519 H 960.29 0.715007 -6.41528 0
M  V30 10520 H 961.058 -0.384588 -8.17596 0
M  V30 10521 N 963.721 1.49897 0.486681 0
M  V30 10522 C 964.969 1.59789 1.23742 0
M  V30 10523 C 965.29 0.293056 1.92785 0
M  V30 10524 O 964.56 -0.688534 1.83401 0
M  V30 10525 H 963.14 0.588775 0.459731 0
M  V30 10526 H 965.802 1.86597 0.562808 0
M  V30 10527 H 964.898 2.40121 1.9937 0
M  V30 10528 N 965.199 -0.738761 1.39212 0
M  V30 10529 C 966.445 -1.49942 1.37437 0
M  V30 10530 C 966.8 -1.92375 -0.0309496 0
M  V30 10531 O 966.093 -1.63635 -0.996706 0
M  V30 10532 C 966.287 -2.75435 2.2775 0
M  V30 10533 C 966.116 -2.45273 3.76924 0
M  V30 10534 C 964.886 -2.37755 4.45871 0
M  V30 10535 C 967.084 -2.11064 4.68995 0
M  V30 10536 N 965.066 -2.00023 5.804 0
M  V30 10537 C 966.437 -1.83746 5.92147 0
M  V30 10538 C 968.492 -1.975 4.57054 0
M  V30 10539 C 967.195 -1.4423 7.04692 0
M  V30 10540 C 969.221 -1.59388 5.69517 0
M  V30 10541 C 968.583 -1.32951 6.91739 0
M  V30 10542 H 964.682 -0.547671 0.558194 0
M  V30 10543 H 967.266 -0.858925 1.7473 0
M  V30 10544 H 965.437 -3.3727 1.92622 0
M  V30 10545 H 967.169 -3.41607 2.16995 0
M  V30 10546 H 963.924 -2.54725 3.99264 0
M  V30 10547 H 964.348 -1.83761 6.51583 0
M  V30 10548 H 968.99 -2.16609 3.63099 0
M  V30 10549 H 966.708 -1.23863 7.98551 0
M  V30 10550 H 970.294 -1.49504 5.62263 0
M  V30 10551 H 969.174 -1.039 7.77287 0
M  V30 10552 N 966.677 -1.24326 -0.968545 0
M  V30 10553 C 967.902 -1.1104 -1.75171 0
M  V30 10554 C 968.327 0.333109 -1.85127 0
M  V30 10555 O 967.685 1.24115 -1.32156 0
M  V30 10556 C 967.733 -1.75397 -3.15068 0
M  V30 10557 O 966.837 -1.02417 -3.9948 0
M  V30 10558 H 966.178 -0.388488 -0.538491 0
M  V30 10559 H 968.708 -1.64617 -1.215 0
M  V30 10560 H 968.718 -1.8112 -3.65595 0
M  V30 10561 H 967.393 -2.80427 -3.07138 0
M  V30 10562 H 965.97 -1.04475 -3.57966 0
M  V30 10563 N 968.156 1.1691 -1.05688 0
M  V30 10564 C 969.404 1.86922 -0.768409 0
M  V30 10565 C 969.725 1.81735 0.706921 0
M  V30 10566 O 968.995 1.24671 1.51109 0
M  V30 10567 H 967.575 0.69203 -0.281253 0
M  V30 10568 H 970.237 1.41803 -1.33708 0
M  V30 10569 H 969.333 2.92528 -1.08783 0
M  V30 10570 N 969.634 0.838594 1.33437 0
M  V30 10571 C 970.582 0.260158 2.31141 0
M  V30 10572 C 971.576 -0.607706 1.58124 0
M  V30 10573 O 972.782 -0.497298 1.72994 0
M  V30 10574 H 969.157 0.0654031 0.74915 0
M  V30 10575 H 971.128 1.09874 2.77435 0
M  V30 10576 C 969.877 -0.550234 3.43319 0
M  V30 10577 H 969.2 0.108262 3.99653 0
M  V30 10578 H 970.64 -0.920815 4.1388 0
M  V30 10579 C 969.099 -1.729 2.89149 0
M  V30 10580 O 969.629 -2.82769 2.85315 0
M  V30 10581 N 967.835 -1.5508 2.45761 0
M  V30 10582 H 967.382 -0.657055 2.49079 0
M  V30 10583 H 967.34 -2.34099 2.0987 0
M  V30 10584 N 971.112 -1.45937 0.595003 0
M  V30 10585 C 972.045 -2.27491 -0.179775 0
M  V30 10586 C 973.023 -1.36376 -0.88545 0
M  V30 10587 O 974.207 -1.65797 -0.896863 0
M  V30 10588 C 971.334 -3.1443 -1.25902 0
M  V30 10589 C 970.38 -4.21396 -0.657847 0
M  V30 10590 S 971.213 -5.32923 0.524689 0
M  V30 10591 C 972.369 -6.2343 -0.555452 0
M  V30 10592 H 972.602 -2.92855 0.512173 0
M  V30 10593 H 970.135 -1.49595 0.382199 0
M  V30 10594 H 972.093 -3.65081 -1.87687 0
M  V30 10595 H 970.754 -2.48356 -1.92297 0
M  V30 10596 H 969.947 -4.82102 -1.46948 0
M  V30 10597 H 969.549 -3.73822 -0.115403 0
M  V30 10598 H 971.841 -6.62066 -1.43789 0
M  V30 10599 H 972.784 -7.08098 0.0151431 0
M  V30 10600 H 973.192 -5.57831 -0.865125 0
M  V30 10601 N 972.59 -0.333456 -1.54032 0
M  V30 10602 C 973.5 0.536674 -2.28379 0
M  V30 10603 C 974.516 1.12068 -1.33104 0
M  V30 10604 O 975.692 1.13853 -1.66131 0
M  V30 10605 C 972.757 1.67677 -3.03456 0
M  V30 10606 C 971.818 1.12357 -4.14336 0
M  V30 10607 C 971.051 2.20933 -4.85823 0
M  V30 10608 O 971.274 3.41466 -4.569 0
M  V30 10609 O 970.208 1.85795 -5.72507 0
M  V30 10610 H 974.034 -0.0674003 -3.03625 0
M  V30 10611 H 971.619 -0.098823 -1.49073 0
M  V30 10612 H 973.501 2.34032 -3.50438 0
M  V30 10613 H 972.176 2.26684 -2.31076 0
M  V30 10614 H 971.083 0.424827 -3.7168 0
M  V30 10615 H 972.416 0.578497 -4.88789 0
M  V30 10616 N 974.068 1.57479 -0.061844 0
M  V30 10617 C 975.484 1.56855 0.294753 0
M  V30 10618 C 975.684 1.07042 1.70717 0
M  V30 10619 O 974.74 0.731817 2.41662 0
M  V30 10620 C 976.053 3.00486 0.113484 0
M  V30 10621 C 977.601 3.1246 0.183778 0
M  V30 10622 C 978.076 4.5799 0.0309092 0
M  V30 10623 N 979.567 4.63119 0.0868393 0
M  V30 10624 C 980.302 5.734 -0.00717446 0
M  V30 10625 N 979.798 6.92628 -0.154144 0
M  V30 10626 N 981.591 5.62078 0.0491763 0
M  V30 10627 H 973.742 1.88176 -0.985058 0
M  V30 10628 H 976.005 0.867051 -0.383309 0
M  V30 10629 H 975.711 3.41004 -0.86075 0
M  V30 10630 H 975.585 3.67029 0.870023 0
M  V30 10631 H 977.972 2.71834 1.14849 0
M  V30 10632 H 978.053 2.48574 -0.603697 0
M  V30 10633 H 977.697 4.99303 -0.930526 0
M  V30 10634 H 977.627 5.19895 0.837664 0
M  V30 10635 H 980.118 3.77374 0.199245 0
M  V30 10636 H 980.431 7.72492 -0.218296 0
M  V30 10637 H 978.776 6.94742 -0.189372 0
M  V30 10638 H 981.967 4.67817 0.162626 0
M  V30 10639 H 982.14 6.47994 -0.0275478 0
M  V30 10640 N 975.546 -0.211634 1.56173 0
M  V30 10641 C 976.795 -0.932647 1.78842 0
M  V30 10642 C 977.108 -1.85103 0.63217 0
M  V30 10643 O 978.314 -2.61143 0.742746 0
M  V30 10644 C 976.77 -1.70866 3.16753 0
M  V30 10645 C 976.378 -0.835934 4.40132 0
M  V30 10646 C 978.122 -2.4203 3.48743 0
M  V30 10647 C 976.029 -1.60987 5.69067 0
M  V30 10648 H 974.959 -0.351983 0.666801 0
M  V30 10649 H 977.61 -0.186284 1.82552 0
M  V30 10650 H 975.992 -2.4983 3.07247 0
M  V30 10651 H 977.166 -0.0861298 4.60719 0
M  V30 10652 H 975.481 -0.235941 4.15731 0
M  V30 10653 H 978.078 -3.00453 4.42303 0
M  V30 10654 H 978.421 -3.15406 2.71707 0
M  V30 10655 H 978.954 -1.70048 3.59623 0
M  V30 10656 H 975.693 -0.9192 6.49023 0
M  V30 10657 H 975.213 -2.33403 5.52524 0
M  V30 10658 H 976.892 -2.16798 6.09596 0
M  V30 10659 N 977.024 -1.50153 -0.478725 0
M  V30 10660 C 977.957 -1.63089 -1.59616 0
M  V30 10661 C 978.935 -0.479211 -1.55378 0
M  V30 10662 O 980.119 -0.697715 -1.75112 0
M  V30 10663 C 977.246 -1.60643 -2.9818 0
M  V30 10664 C 976.292 -2.81279 -3.206 0
M  V30 10665 S 977.125 -4.42681 -3.0132 0
M  V30 10666 C 978.281 -4.42915 -4.42241 0
M  V30 10667 H 978.514 -2.57612 -1.48402 0
M  V30 10668 H 976.047 -1.39321 -0.665513 0
M  V30 10669 H 978.005 -1.59917 -3.7807 0
M  V30 10670 H 976.666 -0.673684 -3.0679 0
M  V30 10671 H 975.859 -2.7585 -4.21809 0
M  V30 10672 H 975.461 -2.79533 -2.4847 0
M  V30 10673 H 977.753 -4.16007 -5.34737 0
M  V30 10674 H 978.696 -5.44477 -4.52715 0
M  V30 10675 H 979.104 -3.72715 -4.23962 0
M  V30 10676 N 978.502 0.731368 -1.39602 0
M  V30 10677 C 979.449 1.84541 -1.38612 0
M  V30 10678 C 980.419 1.64279 -0.245287 0
M  V30 10679 O 981.604 1.85635 -0.440954 0
M  V30 10680 C 978.744 3.22092 -1.23897 0
M  V30 10681 C 977.857 3.54034 -2.47555 0
M  V30 10682 C 976.992 4.81007 -2.25402 0
M  V30 10683 C 976.031 5.05804 -3.44716 0
M  V30 10684 N 975.168 6.23981 -3.21857 0
M  V30 10685 H 980.008 1.84722 -2.33841 0
M  V30 10686 H 977.545 0.902569 -1.16156 0
M  V30 10687 H 979.503 4.01499 -1.13376 0
M  V30 10688 H 978.133 3.2118 -0.322958 0
M  V30 10689 H 977.185 2.69301 -2.68665 0
M  V30 10690 H 978.497 3.68275 -3.36415 0
M  V30 10691 H 977.651 5.68401 -2.12143 0
M  V30 10692 H 976.39 4.68946 -1.33943 0
M  V30 10693 H 975.395 4.1687 -3.58468 0
M  V30 10694 H 976.62 5.19747 -4.37081 0
M  V30 10695 H 974.566 6.13202 -2.33065 0
M  V30 10696 H 974.483 6.38826 -4.04274 0
M  V30 10697 H 975.751 7.14205 -3.123 0
M  V30 10698 N 979.98 1.24838 0.961938 0
M  V30 10699 C 980.943 1.04674 2.03902 0
M  V30 10700 C 981.943 0.00204674 1.608 0
M  V30 10701 O 983.133 0.243555 1.72489 0
M  V30 10702 C 980.265 0.587736 3.35795 0
M  V30 10703 H 981.458 2.00278 2.23223 0
M  V30 10704 H 979.011 1.07142 1.138 0
M  V30 10705 H 979.746 -0.371244 3.22168 0
M  V30 10706 H 979.531 1.34182 3.68426 0
M  V30 10707 H 981.021 0.467867 4.14971 0
M  V30 10708 N 981.458 -1.16348 1.06306 0
M  V30 10709 C 982.39 -2.20316 0.631929 0
M  V30 10710 C 983.403 -1.59819 -0.310133 0
M  V30 10711 O 984.592 -1.78213 -0.101103 0
M  V30 10712 C 981.692 -3.3877 -0.0937645 0
M  V30 10713 C 980.865 -4.28826 0.861816 0
M  V30 10714 C 979.924 -5.25908 0.175346 0
M  V30 10715 O 978.95 -5.63363 0.813039 0
M  V30 10716 N 980.152 -5.70307 -1.08305 0
M  V30 10717 H 982.917 -2.57925 1.52626 0
M  V30 10718 H 980.478 -1.31358 0.946392 0
M  V30 10719 H 982.47 -4.00759 -0.563412 0
M  V30 10720 H 981.04 -2.99666 -0.889904 0
M  V30 10721 H 980.26 -3.64098 1.51083 0
M  V30 10722 H 981.548 -4.85875 1.51007 0
M  V30 10723 H 980.946 -5.4197 -1.62127 0
M  V30 10724 H 979.503 -6.34387 -1.49656 0
M  V30 10725 N 982.937 -0.845659 -1.3299 0
M  V30 10726 C 983.9 -0.288905 -2.27372 0
M  V30 10727 C 984.9 0.546263 -1.51237 0
M  V30 10728 O 986.09 0.359072 -1.70459 0
M  V30 10729 C 983.222 0.59224 -3.35716 0
M  V30 10730 H 984.415 -1.12181 -2.78128 0
M  V30 10731 H 981.968 -0.619276 -1.43508 0
M  V30 10732 H 982.703 1.44732 -2.90212 0
M  V30 10733 H 982.488 -0.00543255 -3.921 0
M  V30 10734 H 983.978 0.974848 -4.06062 0
M  V30 10735 N 984.415 1.45619 -0.602734 0
M  V30 10736 C 985.645 2.06348 -0.102105 0
M  V30 10737 C 986.053 1.44884 1.21677 0
M  V30 10738 O 985.396 0.555559 1.75098 0
M  V30 10739 C 985.458 3.59309 0.117026 0
M  V30 10740 C 985.122 4.43081 -1.11931 0
M  V30 10741 C 986.119 4.78364 -2.03627 0
M  V30 10742 C 983.804 4.83908 -1.34677 0
M  V30 10743 C 985.798 5.53325 -3.16403 0
M  V30 10744 C 983.485 5.58624 -2.47754 0
M  V30 10745 C 984.483 5.93249 -3.38445 0
M  V30 10746 O 984.171 6.6645 -4.49555 0
M  V30 10747 H 983.903 0.672988 -0.0637478 0
M  V30 10748 H 986.457 1.87928 -0.828983 0
M  V30 10749 H 984.687 3.76111 0.898742 0
M  V30 10750 H 986.376 4.01897 0.568649 0
M  V30 10751 H 987.142 4.47384 -1.87277 0
M  V30 10752 H 983.021 4.56396 -0.649875 0
M  V30 10753 H 986.565 5.80268 -3.87214 0
M  V30 10754 H 982.462 5.89019 -2.64059 0
M  V30 10755 H 983.23 6.84895 -4.48175 0
M  V30 10756 N 985.893 0.34162 1.53853 0
M  V30 10757 C 986.825 -0.550383 2.22494 0
M  V30 10758 C 987.838 -1.0655 1.23089 0
M  V30 10759 O 989.027 -0.975985 1.49455 0
M  V30 10760 C 986.127 -1.76995 2.89009 0
M  V30 10761 C 985.3 -1.39045 4.14711 0
M  V30 10762 C 984.359 -2.46947 4.64654 0
M  V30 10763 O 983.385 -2.10336 5.28912 0
M  V30 10764 N 984.587 -3.7817 4.40418 0
M  V30 10765 H 987.352 0.037456 2.99677 0
M  V30 10766 H 984.913 0.165654 1.6105 0
M  V30 10767 H 986.905 -2.48608 3.19337 0
M  V30 10768 H 985.475 -2.2652 2.15424 0
M  V30 10769 H 984.695 -0.505161 3.9095 0
M  V30 10770 H 985.983 -1.11284 4.96481 0
M  V30 10771 H 985.381 -4.10704 3.89023 0
M  V30 10772 H 983.938 -4.45959 4.75356 0
M  V30 10773 N 987.371 -1.57444 0.0701946 0
M  V30 10774 C 988.599 -1.97754 -0.608358 0
M  V30 10775 C 989.014 -0.948496 -1.63245 0
M  V30 10776 O 988.371 0.065046 -1.82384 0
M  V30 10777 C 988.422 -3.38142 -1.27836 0
M  V30 10778 O 988.143 -4.37104 -0.295255 0
M  V30 10779 C 989.644 -3.93318 -2.04489 0
M  V30 10780 H 986.864 -0.650398 -0.164997 0
M  V30 10781 H 989.408 -2.04006 0.142124 0
M  V30 10782 H 987.563 -3.32982 -1.97994 0
M  V30 10783 H 987.977 -5.18732 -0.77574 0
M  V30 10784 H 989.451 -4.93774 -2.46762 0
M  V30 10785 H 989.928 -3.29774 -2.90079 0
M  V30 10786 H 990.534 -4.01875 -1.39201 0
M  V30 10787 N 988.849 0.203349 -1.56283 0
M  V30 10788 C 990.097 0.923183 -1.79782 0
M  V30 10789 C 990.418 1.84134 -0.64185 0
M  V30 10790 O 989.688 1.92922 0.340292 0
M  V30 10791 H 988.268 0.343881 -0.66314 0
M  V30 10792 H 990.93 0.210837 -1.93756 0
M  V30 10793 H 990.026 1.51921 -2.72629 0
M  V30 10794 N 990.327 1.50405 0.470755 0
M  V30 10795 C 991.274 1.69293 1.56871 0
M  V30 10796 C 992.244 0.534248 1.57274 0
M  V30 10797 O 993.429 0.764855 1.74799 0
M  V30 10798 C 990.569 1.79338 2.94842 0
M  V30 10799 C 989.682 3.06709 3.04226 0
M  V30 10800 C 988.817 3.07548 4.33114 0
M  V30 10801 C 987.856 4.29372 4.36241 0
M  V30 10802 N 986.993 4.27949 5.56601 0
M  V30 10803 H 991.833 2.63029 1.40071 0
M  V30 10804 H 989.37 1.30386 0.681016 0
M  V30 10805 H 991.328 1.83143 3.74853 0
M  V30 10806 H 989.958 0.890411 3.10277 0
M  V30 10807 H 989.01 3.12374 2.17086 0
M  V30 10808 H 990.322 3.96684 3.02396 0
M  V30 10809 H 989.476 3.10084 5.21472 0
M  V30 10810 H 988.215 2.15404 4.37553 0
M  V30 10811 H 987.22 4.27048 3.4628 0
M  V30 10812 H 988.445 5.22743 4.33493 0
M  V30 10813 H 986.391 3.38658 5.61824 0
M  V30 10814 H 986.308 5.11692 5.56513 0
M  V30 10815 H 987.576 4.34631 6.47083 0
M  V30 10816 N 991.805 -0.723954 1.39988 0
M  V30 10817 C 993.082 -1.4763 1.28316 0
M  V30 10818 C 993.462 -2.10852 -0.102302 0
M  V30 10819 O 992.81 -1.9948 -1.11445 0
M  V30 10820 C 993.02 -2.51878 2.41574 0
M  V30 10821 C 994.368 -3.17948 2.81415 0
M  V30 10822 O 995.392 -2.62195 2.41106 0
M  V30 10823 O 994.251 -4.18858 3.51027 0
M  V30 10824 H 991.345 -0.656092 0.50346 0
M  V30 10825 H 993.891 -0.75684 1.51888 0
M  V30 10826 H 992.663 -2.03618 3.34149 0
M  V30 10827 H 992.286 -3.3137 2.19727 0
M  V30 10828 N 993.283 -1.25346 -0.955304 0
M  V30 10829 C 994.532 -1.0945 -1.69421 0
M  V30 10830 C 994.845 0.364459 -1.92175 0
M  V30 10831 O 996.051 0.643843 -2.63755 0
M  V30 10832 C 994.507 -1.91045 -3.05008 0
M  V30 10833 C 994.115 -3.41428 -2.90053 0
M  V30 10834 C 995.859 -1.83716 -3.82686 0
M  V30 10835 C 993.766 -4.1532 -4.21026 0
M  V30 10836 H 992.696 -0.405978 -0.635372 0
M  V30 10837 H 995.347 -1.49536 -1.06354 0
M  V30 10838 H 993.729 -1.43781 -3.68975 0
M  V30 10839 H 994.903 -3.9636 -2.35022 0
M  V30 10840 H 993.218 -3.49842 -2.25831 0
M  V30 10841 H 995.815 -2.36217 -4.79693 0
M  V30 10842 H 996.158 -0.804919 -4.08444 0
M  V30 10843 H 996.691 -2.28726 -3.25468 0
M  V30 10844 H 993.43 -5.18955 -4.00457 0
M  V30 10845 H 992.95 -3.65172 -4.75825 0
M  V30 10846 H 994.629 -4.22999 -4.89572 0
M  V30 10847 N 994.761 1.15782 -1.06922 0
M  V30 10848 C 995.986 1.90896 -0.810771 0
M  V30 10849 C 996.411 1.77246 0.629714 0
M  V30 10850 O 995.769 1.10215 1.43953 0
M  V30 10851 C 995.817 3.39397 -1.21829 0
M  V30 10852 O 994.921 4.10818 -0.360934 0
M  V30 10853 H 994.262 0.594497 -0.295752 0
M  V30 10854 H 996.792 1.46652 -1.42669 0
M  V30 10855 H 996.802 3.90181 -1.19259 0
M  V30 10856 H 995.477 3.4865 -2.2675 0
M  V30 10857 H 994.054 3.7019 -0.448748 0
M  V30 10858 N 996.239 0.8527 1.3254 0
M  V30 10859 C 997.467 0.469044 2.01513 0
M  V30 10860 C 997.882 -0.933701 1.64096 0
M  V30 10861 O 997.239 -1.60898 0.861283 0
M  V30 10862 C 997.29 0.596228 3.56549 0
M  V30 10863 O 997.011 1.94371 3.92621 0
M  V30 10864 C 998.512 0.211324 4.42796 0
M  V30 10865 H 995.732 0.184589 0.645111 0
M  V30 10866 H 998.276 1.1491 1.69163 0
M  V30 10867 H 996.431 -0.0360712 3.87383 0
M  V30 10868 H 996.845 1.93909 4.87339 0
M  V30 10869 H 998.319 0.351324 5.50881 0
M  V30 10870 H 998.796 -0.848055 4.30935 0
M  V30 10871 H 999.402 0.818617 4.17347 0
M  V30 10872 N 997.718 -1.45297 0.610449 0
M  V30 10873 C 998.666 -2.32295 -0.119167 0
M  V30 10874 C 999.66 -1.46138 -0.856746 0
M  V30 10875 O 1000.87 -1.62605 -0.771988 0
M  V30 10876 H 997.241 -0.749815 -0.0572881 0
M  V30 10877 H 999.212 -2.91609 0.63297 0
M  V30 10878 C 997.961 -3.29802 -1.10119 0
M  V30 10879 H 997.284 -3.96095 -0.543063 0
M  V30 10880 H 998.724 -3.93398 -1.58158 0
M  V30 10881 C 997.183 -2.57185 -2.17617 0
M  V30 10882 O 997.713 -2.35535 -3.25401 0
M  V30 10883 N 995.919 -2.17272 -1.9298 0
M  V30 10884 H 995.466 -2.3508 -1.05334 0
M  V30 10885 H 995.424 -1.69009 -2.6511 0
M  V30 10886 N 999.196 -0.349774 -1.5367 0
M  V30 10887 C 1000.43 0.245682 -2.05134 0
M  V30 10888 C 1000.83 1.44269 -1.22406 0
M  V30 10889 O 1000.18 1.81938 -0.25379 0
M  V30 10890 C 1000.24 0.718439 -3.52248 0
M  V30 10891 C 999.903 -0.35975 -4.55582 0
M  V30 10892 C 1000.9 -1.20449 -5.05755 0
M  V30 10893 C 998.585 -0.515463 -4.99648 0
M  V30 10894 C 1000.58 -2.19043 -5.98581 0
M  V30 10895 C 998.266 -1.50479 -5.92283 0
M  V30 10896 C 999.264 -2.34072 -6.41638 0
M  V30 10897 O 998.952 -3.31319 -7.3245 0
M  V30 10898 H 998.684 0.0501122 -0.67414 0
M  V30 10899 H 1001.24 -0.5018 -1.99176 0
M  V30 10900 H 999.468 1.51727 -3.55691 0
M  V30 10901 H 1001.16 1.23513 -3.86651 0
M  V30 10902 H 1001.92 -1.09531 -4.7247 0
M  V30 10903 H 997.802 0.12537 -4.60829 0
M  V30 10904 H 1001.35 -2.84327 -6.37027 0
M  V30 10905 H 997.243 -1.61451 -6.24983 0
M  V30 10906 H 998.011 -3.26863 -7.50402 0
M  V30 10907 N 1000.67 1.57404 -0.0785433 0
M  V30 10908 C 1001.9 1.97787 0.596995 0
M  V30 10909 C 1002.31 0.955904 1.63276 0
M  V30 10910 O 1001.65 -0.0649169 1.83585 0
M  V30 10911 C 1001.72 3.34499 1.31723 0
M  V30 10912 C 1001.38 4.54933 0.434144 0
M  V30 10913 C 1002.38 5.18969 -0.311015 0
M  V30 10914 C 1000.06 5.01029 0.357046 0
M  V30 10915 C 1002.06 6.27457 -1.12142 0
M  V30 10916 C 999.744 6.09389 -0.457029 0
M  V30 10917 C 1000.74 6.72466 -1.19493 0
M  V30 10918 O 1000.43 7.78738 -1.99556 0
M  V30 10919 H 1000.16 0.655294 0.166028 0
M  V30 10920 H 1002.72 2.04855 -0.149517 0
M  V30 10921 H 1000.95 3.24064 2.10996 0
M  V30 10922 H 1002.63 3.5944 1.88567 0
M  V30 10923 H 1003.4 4.84297 -0.261084 0
M  V30 10924 H 999.28 4.51706 0.921026 0
M  V30 10925 H 1002.82 6.76622 -1.69788 0
M  V30 10926 H 998.721 6.43494 -0.508499 0
M  V30 10927 H 999.489 7.95648 -1.9206 0
M  V30 10928 N 1002.15 -0.195058 1.56388 0
M  V30 10929 C 1003.11 -1.2254 1.93692 0
M  V30 10930 C 1004.11 -1.38437 0.81804 0
M  V30 10931 O 1005.3 -1.36248 1.08545 0
M  V30 10932 C 1002.44 -2.59476 2.21099 0
M  V30 10933 H 1003.63 -0.906544 2.8587 0
M  V30 10934 H 1001.18 -0.436577 1.50079 0
M  V30 10935 H 1001.92 -2.96417 1.31558 0
M  V30 10936 H 1001.7 -2.4931 3.02634 0
M  V30 10937 H 1003.19 -3.33777 2.50964 0
M  V30 10938 N 1003.63 -1.50653 -0.462772 0
M  V30 10939 C 1004.85 -1.66103 -1.24196 0
M  V30 10940 C 1005.28 -0.347421 -1.84864 0
M  V30 10941 O 1004.64 0.689673 -1.6767 0
M  V30 10942 C 1004.69 -2.76027 -2.32037 0
M  V30 10943 O 1003.79 -2.37859 -3.36893 0
M  V30 10944 H 1003.13 -0.554672 -0.365014 0
M  V30 10945 H 1005.66 -1.97076 -0.549734 0
M  V30 10946 H 1005.67 -2.99354 -2.77221 0
M  V30 10947 H 1004.35 -3.71361 -1.87253 0
M  V30 10948 H 1002.92 -2.2501 -2.97363 0
M  V30 10949 N 1005.11 0.71652 -1.4037 0
M  V30 10950 C 1006.04 1.84138 -1.36477 0
M  V30 10951 C 1007.05 1.6054 -0.27033 0
M  V30 10952 O 1008.24 1.70431 -0.530612 0
M  V30 10953 C 1005.34 3.20523 -1.10082 0
M  V30 10954 C 1004.52 3.71326 -2.31162 0
M  V30 10955 C 1003.57 4.86322 -2.00942 0
M  V30 10956 O 1002.6 4.99022 -2.73799 0
M  V30 10957 N 1003.8 5.72051 -0.986812 0
M  V30 10958 H 1006.57 1.87977 -2.3342 0
M  V30 10959 H 1004.13 0.89802 -1.34712 0
M  V30 10960 H 1006.12 3.95049 -0.878526 0
M  V30 10961 H 1004.69 3.11838 -0.21809 0
M  V30 10962 H 1003.91 2.87941 -2.69227 0
M  V30 10963 H 1005.2 4.02003 -3.11883 0
M  V30 10964 H 1004.6 5.64399 -0.383381 0
M  V30 10965 H 1003.15 6.46565 -0.824419 0
M  V30 10966 N 1006.59 1.25851 0.948643 0
M  V30 10967 C 1007.53 1.06759 2.04625 0
M  V30 10968 C 1008.5 -0.0251144 1.66081 0
M  V30 10969 O 1009.69 0.133221 1.90334 0
M  V30 10970 C 1006.83 0.698724 3.37952 0
M  V30 10971 C 1005.94 1.8669 3.89578 0
M  V30 10972 C 1005.08 1.44184 5.11258 0
M  V30 10973 C 1004.12 2.57878 5.55126 0
M  V30 10974 N 1003.25 2.16106 6.68014 0
M  V30 10975 H 1008.09 2.00691 2.20289 0
M  V30 10976 H 1005.63 0.999327 1.07944 0
M  V30 10977 H 1007.59 0.465788 4.14592 0
M  V30 10978 H 1006.22 -0.203618 3.22157 0
M  V30 10979 H 1005.27 2.21298 3.09405 0
M  V30 10980 H 1006.58 2.72051 4.18079 0
M  V30 10981 H 1005.74 1.16891 5.95333 0
M  V30 10982 H 1004.47 0.559035 4.84485 0
M  V30 10983 H 1003.48 2.85909 4.69612 0
M  V30 10984 H 1004.7 3.46747 5.83904 0
M  V30 10985 H 1002.65 1.3025 6.42939 0
M  V30 10986 H 1002.57 2.95012 6.96063 0
M  V30 10987 H 1003.84 1.92005 7.55483 0
M  V30 10988 N 1008.06 -1.15214 1.07534 0
M  V30 10989 C 1009.01 -2.20013 0.697337 0
M  V30 10990 C 1009.98 -1.6314 -0.312168 0
M  V30 10991 O 1011.17 -1.89768 -0.198196 0
M  V30 10992 C 1008.31 -3.44945 0.103293 0
M  V30 10993 C 1007.42 -4.16009 1.1645 0
M  V30 10994 C 1006.55 -5.28496 0.535261 0
M  V30 10995 C 1005.59 -5.9138 1.57912 0
M  V30 10996 N 1004.73 -6.95335 0.972332 0
M  V30 10997 H 1009.57 -2.51698 1.59538 0
M  V30 10998 H 1007.11 -1.2361 0.797431 0
M  V30 10999 H 1009.07 -4.16397 -0.258766 0
M  V30 11000 H 1007.7 -3.13772 -0.758096 0
M  V30 11001 H 1006.75 -3.43035 1.64411 0
M  V30 11002 H 1008.06 -4.58853 1.9559 0
M  V30 11003 H 1007.21 -6.06579 0.120942 0
M  V30 11004 H 1005.95 -4.8685 -0.287889 0
M  V30 11005 H 1004.96 -5.12008 2.0032 0
M  V30 11006 H 1006.18 -6.35103 2.40459 0
M  V30 11007 H 1004.13 -6.55779 0.170119 0
M  V30 11008 H 1004.05 -7.36616 1.70095 0
M  V30 11009 H 1005.31 -7.77312 0.583577 0
M  V30 11010 N 1009.54 -0.859717 -1.32086 0
M  V30 11011 C 1010.77 -0.479724 -2.01262 0
M  V30 11012 C 1011.19 0.924985 -1.64589 0
M  V30 11013 O 1010.54 1.60439 -0.869803 0
M  V30 11014 C 1010.59 -0.615128 -3.56228 0
M  V30 11015 O 1010.31 -1.96451 -3.91585 0
M  V30 11016 C 1011.82 -0.234804 -4.42678 0
M  V30 11017 H 1009.04 -0.188007 -0.644123 0
M  V30 11018 H 1011.58 -1.15805 -1.68551 0
M  V30 11019 H 1009.73 0.0155268 -3.87397 0
M  V30 11020 H 1010.15 -1.96491 -4.86304 0
M  V30 11021 H 1011.62 -0.380534 -5.50687 0
M  V30 11022 H 1012.1 0.825189 -4.31378 0
M  V30 11023 H 1012.71 -0.840739 -4.16907 0
M  V30 11024 N 1011.02 1.44971 -0.618145 0
M  V30 11025 C 1012.27 2.02159 -0.117482 0
M  V30 11026 C 1012.6 1.48517 1.2559 0
M  V30 11027 O 1011.85 0.654192 1.84442 0
M  V30 11028 C 1012.15 3.57378 -0.0394861 0
M  V30 11029 C 1011.82 4.30218 -1.34993 0
M  V30 11030 C 1010.48 4.49835 -1.70886 0
M  V30 11031 C 1012.83 4.71768 -2.21551 0
M  V30 11032 C 1010.16 5.08258 -2.9307 0
M  V30 11033 C 1012.51 5.31543 -3.42993 0
M  V30 11034 C 1011.17 5.49381 -3.79126 0
M  V30 11035 H 1010.44 0.739752 -0.0429897 0
M  V30 11036 H 1013.09 1.73903 -0.801871 0
M  V30 11037 H 1011.4 3.84973 0.728217 0
M  V30 11038 H 1013.09 3.99343 0.364213 0
M  V30 11039 H 1009.68 4.15271 -1.06057 0
M  V30 11040 H 1013.87 4.56336 -1.95117 0
M  V30 11041 H 1009.12 5.20257 -3.21158 0
M  V30 11042 H 1013.3 5.62691 -4.10308 0
M  V30 11043 H 1010.92 5.94419 -4.73888 0
M  V30 11044 N 1012.5 0.357919 1.53482 0
M  V30 11045 C 1013.41 -0.500273 2.29204 0
M  V30 11046 C 1014.42 -1.09936 1.3487 0
M  V30 11047 O 1015.6 -1.11195 1.67921 0
M  V30 11048 C 1012.67 -1.62828 3.06085 0
M  V30 11049 C 1011.73 -1.05751 4.16071 0
M  V30 11050 C 1010.96 -2.13176 4.89277 0
M  V30 11051 O 1011.18 -3.34153 4.62274 0
M  V30 11052 O 1010.12 -1.76663 5.7539 0
M  V30 11053 H 1013.94 0.115696 3.0348 0
M  V30 11054 H 1011.53 0.122527 1.48897 0
M  V30 11055 H 1013.41 -2.28427 3.54117 0
M  V30 11056 H 1012.08 -2.22979 2.34653 0
M  V30 11057 H 1010.99 -0.365642 3.72309 0
M  V30 11058 H 1012.32 -0.500661 4.89647 0
M  V30 11059 N 1013.98 -1.5736 0.0868897 0
M  V30 11060 C 1015.23 -1.93229 -0.578387 0
M  V30 11061 C 1015.54 -0.970127 -1.69847 0
M  V30 11062 O 1016.74 -1.22222 -2.42434 0
M  V30 11063 C 1015.2 -3.43307 -1.0802 0
M  V30 11064 C 1014.81 -4.47999 0.00968135 0
M  V30 11065 C 1016.55 -3.88151 -1.71868 0
M  V30 11066 C 1014.46 -5.89223 -0.507029 0
M  V30 11067 H 1013.39 -0.721245 -0.219823 0
M  V30 11068 H 1016.04 -1.82787 0.161566 0
M  V30 11069 H 1014.42 -3.48873 -1.87359 0
M  V30 11070 H 1015.6 -4.54067 0.784865 0
M  V30 11071 H 1013.91 -4.12714 0.552845 0
M  V30 11072 H 1016.51 -4.91056 -2.11585 0
M  V30 11073 H 1016.85 -3.26347 -2.58464 0
M  V30 11074 H 1017.38 -3.85252 -0.991259 0
M  V30 11075 H 1014.12 -6.54708 0.322121 0
M  V30 11076 H 1013.64 -5.86643 -1.2494 0
M  V30 11077 H 1015.32 -6.39556 -0.978628 0
M  V30 11078 N 1015.45 0.186762 -1.56489 0
M  V30 11079 C 1016.4 1.25084 -1.96104 0
M  V30 11080 C 1017.4 1.4667 -0.847609 0
M  V30 11081 O 1018.6 1.47432 -1.03266 0
M  V30 11082 H 1014.98 0.420121 -0.623701 0
M  V30 11083 H 1016.95 0.889761 -2.84826 0
M  V30 11084 C 1015.7 2.5863 -2.32392 0
M  V30 11085 H 1015.02 2.42838 -3.176 0
M  V30 11086 H 1016.46 3.3181 -2.63967 0
M  V30 11087 C 1014.92 3.16241 -1.16159 0
M  V30 11088 O 1015.45 3.99272 -0.441034 0
M  V30 11089 N 1013.66 2.75106 -0.936206 0
M  V30 11090 H 1013.2 2.0769 -1.5239 0
M  V30 11091 H 1013.16 3.13991 -0.160317 0
M  V30 11092 N 1016.93 1.50896 0.454776 0
M  V30 11093 C 1018.34 1.55372 1.0352 0
M  V30 11094 C 1018.69 0.366822 1.9274 0
M  V30 11095 O 1017.82 -0.518444 2.10098 0
M  V30 11096 C 1018.41 2.81574 1.88418 0
M  V30 11097 C 1016.97 2.88679 2.4154 0
M  V30 11098 C 1016.12 2.49847 1.20298 0
M  V30 11099 H 1019.07 1.56924 0.236729 0
M  V30 11100 H 1019.09 2.64352 2.73676 0
M  V30 11101 H 1018.6 3.67941 1.23455 0
M  V30 11102 H 1016.71 2.06702 3.10008 0
M  V30 11103 H 1016.82 3.91944 2.7553 0
M  V30 11104 H 1015.18 2.02651 1.54288 0
M  V30 11105 H 1015.97 3.3854 0.569723 0
M  V30 11106 N 1018.41 -0.709066 1.40748 0
M  V30 11107 C 1019.83 -1.01797 1.22921 0
M  V30 11108 C 1020.03 -2.01205 0.109011 0
M  V30 11109 O 1019.08 -2.46854 -0.530987 0
M  V30 11110 C 1020.4 -1.55546 2.57344 0
M  V30 11111 C 1021.94 -1.67498 2.64412 0
M  V30 11112 C 1022.42 -2.24652 3.99119 0
M  V30 11113 N 1023.91 -2.3203 4.00895 0
M  V30 11114 C 1024.64 -2.7725 5.01917 0
M  V30 11115 N 1024.14 -3.22174 6.13332 0
M  V30 11116 N 1025.93 -2.76692 4.89283 0
M  V30 11117 H 1018.08 -0.0502704 2.12341 0
M  V30 11118 H 1020.35 -0.0848933 0.944191 0
M  V30 11119 H 1020.05 -0.899631 3.39999 0
M  V30 11120 H 1019.93 -2.53971 2.78888 0
M  V30 11121 H 1022.31 -2.32196 1.82123 0
M  V30 11122 H 1022.4 -0.676553 2.46691 0
M  V30 11123 H 1022.04 -1.60573 4.81849 0
M  V30 11124 H 1021.97 -3.25221 4.14173 0
M  V30 11125 H 1024.46 -2.00309 3.20444 0
M  V30 11126 H 1024.77 -3.55265 6.86299 0
M  V30 11127 H 1023.12 -3.20116 6.16888 0
M  V30 11128 H 1026.31 -2.40936 4.01332 0
M  V30 11129 H 1026.48 -3.11617 5.68154 0
M  V30 11130 N 1019.89 -1.26353 -0.941956 0
M  V30 11131 C 1020.84 -1.04513 -2.02635 0
M  V30 11132 C 1021.82 0.0222314 -1.60885 0
M  V30 11133 O 1023.02 -0.194629 -1.75927 0
M  V30 11134 C 1020.14 -0.679282 -3.36512 0
M  V30 11135 C 1019.23 -1.78406 -3.8475 0
M  V30 11136 N 1019.62 -3.02136 -4.05645 0
M  V30 11137 C 1017.92 -1.66748 -4.13656 0
M  V30 11138 C 1018.62 -3.73932 -4.45589 0
M  V30 11139 N 1017.6 -3.01616 -4.52248 0
M  V30 11140 H 1021.4 -1.9843 -2.16801 0
M  V30 11141 H 1018.91 -1.16858 -1.12774 0
M  V30 11142 H 1020.91 -0.503975 -4.13843 0
M  V30 11143 H 1019.57 0.252418 -3.23717 0
M  V30 11144 H 1020.58 -3.38049 -3.92356 0
M  V30 11145 H 1017.26 -0.805627 -4.09653 0
M  V30 11146 H 1018.65 -4.80201 -4.69954 0
M  V30 11147 N 1021.37 1.14642 -1.08144 0
M  V30 11148 C 1022.78 1.6719 -0.830923 0
M  V30 11149 C 1023.13 1.85373 0.642749 0
M  V30 11150 O 1022.25 1.56293 1.49671 0
M  V30 11151 C 1022.85 3.03697 -1.50179 0
M  V30 11152 C 1021.41 3.5329 -1.29858 0
M  V30 11153 C 1020.56 2.28828 -1.5663 0
M  V30 11154 H 1023.51 0.987441 -1.24239 0
M  V30 11155 H 1023.53 3.69023 -0.9275 0
M  V30 11156 H 1023.04 2.90431 -2.57432 0
M  V30 11157 H 1021.14 3.71783 -0.246626 0
M  V30 11158 H 1021.25 4.34231 -2.02436 0
M  V30 11159 H 1019.62 2.34769 -0.987716 0
M  V30 11160 H 1020.4 2.18141 -2.65084 0
M  V30 11161 N 1022.85 0.866709 1.31628 0
M  V30 11162 C 1023.78 0.335762 2.31073 0
M  V30 11163 C 1024.76 -0.571597 1.60209 0
M  V30 11164 O 1025.94 -0.489306 1.87935 0
M  V30 11165 C 1023.07 -0.466416 3.44154 0
M  V30 11166 C 1022.03 0.347561 4.26586 0
M  V30 11167 C 1021.35 -0.5801 5.31544 0
M  V30 11168 C 1022.65 1.57986 4.97833 0
M  V30 11169 H 1024.35 1.16673 2.75731 0
M  V30 11170 H 1021.89 0.56248 1.3256 0
M  V30 11171 H 1023.84 -0.84836 4.12772 0
M  V30 11172 H 1022.57 -1.33086 2.98254 0
M  V30 11173 H 1021.23 0.71141 3.59631 0
M  V30 11174 H 1020.88 -1.44174 4.81895 0
M  V30 11175 H 1020.58 -0.0393965 5.87587 0
M  V30 11176 H 1022.1 -0.958958 6.03023 0
M  V30 11177 H 1023.51 1.26954 5.59067 0
M  V30 11178 H 1021.91 2.05939 5.63657 0
M  V30 11179 H 1022.98 2.3345 4.25005 0
M  V30 11180 N 1024.32 -1.44642 0.625825 0
M  V30 11181 C 1025.57 -2.01308 0.125682 0
M  V30 11182 C 1025.89 -1.49773 -1.25807 0
M  V30 11183 O 1027.09 -1.98533 -1.85194 0
M  V30 11184 C 1025.55 -3.59479 0.17395 0
M  V30 11185 C 1025.16 -4.20011 1.55868 0
M  V30 11186 C 1026.9 -4.2364 -0.270005 0
M  V30 11187 C 1024.81 -5.7039 1.56235 0
M  V30 11188 H 1023.74 -0.75276 0.0432194 0
M  V30 11189 H 1026.39 -1.65916 0.783842 0
M  V30 11190 H 1024.77 -3.92145 -0.551212 0
M  V30 11191 H 1025.94 -3.98891 2.307 0
M  V30 11192 H 1024.26 -3.68116 1.94627 0
M  V30 11193 H 1026.86 -5.33931 -0.28672 0
M  V30 11194 H 1027.2 -3.95603 -1.29629 0
M  V30 11195 H 1027.73 -3.95759 0.402487 0
M  V30 11196 H 1024.47 -6.03154 2.56683 0
M  V30 11197 H 1023.99 -5.93648 0.856881 0
M  V30 11198 H 1025.67 -6.33929 1.29396 0
M  V30 11199 N 1025.8 -0.366053 -1.5329 0
M  V30 11200 C 1027.22 -0.0150149 -1.59593 0
M  V30 11201 C 1027.42 1.46719 -1.38116 0
M  V30 11202 O 1026.47 2.22884 -1.18656 0
M  V30 11203 C 1027.79 -0.471374 -2.96982 0
M  V30 11204 C 1029.33 -0.425634 -3.10092 0
M  V30 11205 C 1029.81 -0.857812 -4.49895 0
M  V30 11206 N 1031.3 -0.81289 -4.56011 0
M  V30 11207 C 1032.04 -1.11898 -5.62376 0
M  V30 11208 N 1031.53 -1.49436 -6.76491 0
M  V30 11209 N 1033.32 -1.04174 -5.52362 0
M  V30 11210 H 1025.48 -1.33127 -1.65502 0
M  V30 11211 H 1027.74 -0.544172 -0.776261 0
M  V30 11212 H 1027.44 -1.50569 -3.1784 0
M  V30 11213 H 1027.32 0.141764 -3.76934 0
M  V30 11214 H 1029.71 0.599548 -2.88945 0
M  V30 11215 H 1029.79 -1.07427 -2.32149 0
M  V30 11216 H 1029.43 -1.88111 -4.7178 0
M  V30 11217 H 1029.36 -0.186419 -5.2627 0
M  V30 11218 H 1031.85 -0.536343 -3.74075 0
M  V30 11219 H 1032.16 -1.71217 -7.53594 0
M  V30 11220 H 1030.51 -1.53302 -6.77882 0
M  V30 11221 H 1033.7 -0.747654 -4.62091 0
M  V30 11222 H 1033.87 -1.28362 -6.35159 0
M  V30 11223 N 1027.28 1.57312 -0.0952337 0
M  V30 11224 C 1028.56 1.85822 0.610715 0
M  V30 11225 C 1028.94 0.992114 1.86334 0
M  V30 11226 O 1028.28 0.0645669 2.28409 0
M  V30 11227 C 1028.49 3.36492 0.925967 0
M  V30 11228 C 1029.84 4.0455 1.28936 0
M  V30 11229 O 1030.87 3.41374 1.01698 0
M  V30 11230 O 1029.73 5.16024 1.79949 0
M  V30 11231 H 1026.82 0.768454 0.305626 0
M  V30 11232 H 1029.37 1.69217 -0.127941 0
M  V30 11233 H 1028.14 3.91282 0.0373127 0
M  V30 11234 H 1027.76 3.58443 1.7206 0
M  V30 11235 N 1028.76 -0.17846 1.56586 0
M  V30 11236 C 1029.69 -1.2496 1.90946 0
M  V30 11237 C 1030.67 -1.43136 0.771424 0
M  V30 11238 O 1031.85 -1.58258 1.02405 0
M  V30 11239 C 1028.98 -2.61368 2.15417 0
M  V30 11240 C 1028.03 -2.59969 3.3811 0
M  V30 11241 S 1028.86 -2.09756 4.9271 0
M  V30 11242 C 1030.01 -3.47956 5.20267 0
M  V30 11243 H 1030.25 -0.956287 2.815 0
M  V30 11244 H 1027.78 -0.382709 1.49582 0
M  V30 11245 H 1029.74 -3.39882 2.30197 0
M  V30 11246 H 1028.4 -2.87903 1.25582 0
M  V30 11247 H 1027.59 -3.60309 3.52411 0
M  V30 11248 H 1027.19 -1.89547 3.2241 0
M  V30 11249 H 1029.49 -4.43914 5.11807 0
M  V30 11250 H 1030.43 -3.38536 6.21932 0
M  V30 11251 H 1030.84 -3.43637 4.47855 0
M  V30 11252 N 1030.24 -1.51135 -0.446768 0
M  V30 11253 C 1031.17 -1.74709 -1.54916 0
M  V30 11254 C 1032.15 -0.596628 -1.59293 0
M  V30 11255 O 1033.33 -0.838356 -1.75172 0
M  V30 11256 C 1030.46 -1.86353 -2.9307 0
M  V30 11257 C 1029.42 -3.01725 -3.03556 0
M  V30 11258 C 1028.74 -2.9854 -4.43597 0
M  V30 11259 C 1030.04 -4.41848 -2.7851 0
M  V30 11260 H 1031.74 -2.67014 -1.3544 0
M  V30 11261 H 1029.28 -1.28489 -0.650131 0
M  V30 11262 H 1031.23 -2.01428 -3.70141 0
M  V30 11263 H 1029.96 -0.906887 -3.13756 0
M  V30 11264 H 1028.62 -2.86339 -2.28922 0
M  V30 11265 H 1028.27 -2.00673 -4.61237 0
M  V30 11266 H 1027.97 -3.76008 -4.51544 0
M  V30 11267 H 1029.49 -3.15696 -5.22655 0
M  V30 11268 H 1030.9 -4.57633 -3.45319 0
M  V30 11269 H 1029.3 -5.2095 -2.97877 0
M  V30 11270 H 1030.37 -4.52536 -1.74182 0
M  V30 11271 N 1031.71 0.701592 -1.41122 0
M  V30 11272 C 1033.13 1.01143 -1.23459 0
M  V30 11273 C 1033.33 2.01144 -0.11968 0
M  V30 11274 O 1032.39 2.47132 0.517889 0
M  V30 11275 C 1033.7 1.54179 -2.58165 0
M  V30 11276 C 1035.25 1.66093 -2.65296 0
M  V30 11277 C 1035.72 2.22532 -4.00304 0
M  V30 11278 N 1037.21 2.299 -4.0212 0
M  V30 11279 C 1037.95 2.74584 -5.0338 0
M  V30 11280 N 1037.44 3.18917 -6.15032 0
M  V30 11281 N 1039.24 2.74094 -4.90743 0
M  V30 11282 H 1031.39 0.0390087 -2.12364 0
M  V30 11283 H 1033.65 0.0798848 -0.944628 0
M  V30 11284 H 1033.36 0.881587 -3.40472 0
M  V30 11285 H 1033.23 2.52488 -2.80231 0
M  V30 11286 H 1035.62 2.31227 -1.83352 0
M  V30 11287 H 1035.7 0.663461 -2.47046 0
M  V30 11288 H 1035.34 1.58016 -4.82694 0
M  V30 11289 H 1035.27 3.2302 -4.15891 0
M  V30 11290 H 1037.76 1.98607 -3.21502 0
M  V30 11291 H 1038.08 3.5162 -6.88174 0
M  V30 11292 H 1036.42 3.1684 -6.18577 0
M  V30 11293 H 1039.61 2.38804 -4.02604 0
M  V30 11294 H 1039.79 3.086 -5.69798 0
M  V30 11295 N 1033.19 1.2685 0.935242 0
M  V30 11296 C 1034.61 1.04091 1.20984 0
M  V30 11297 C 1034.81 -0.230242 2.0018 0
M  V30 11298 O 1033.86 -0.93778 2.3444 0
M  V30 11299 C 1035.18 2.27586 1.96533 0
M  V30 11300 C 1036.72 2.32547 2.09501 0
M  V30 11301 C 1037.2 3.55751 2.88454 0
M  V30 11302 N 1038.69 3.56263 2.96025 0
M  V30 11303 C 1039.43 4.48262 3.57559 0
M  V30 11304 N 1038.92 5.50557 4.20546 0
M  V30 11305 N 1040.71 4.35901 3.5489 0
M  V30 11306 H 1032.87 2.08484 0.405954 0
M  V30 11307 H 1035.13 0.916548 0.242164 0
M  V30 11308 H 1034.83 3.20076 1.45753 0
M  V30 11309 H 1034.71 2.32305 2.97177 0
M  V30 11310 H 1037.1 1.40568 2.5947 0
M  V30 11311 H 1037.18 2.31836 1.08101 0
M  V30 11312 H 1036.82 4.48063 2.3917 0
M  V30 11313 H 1036.75 3.53711 3.90123 0
M  V30 11314 H 1039.24 2.82278 2.51252 0
M  V30 11315 H 1039.55 6.16935 4.65415 0
M  V30 11316 H 1037.9 5.54407 4.19115 0
M  V30 11317 H 1041.09 3.552 3.04879 0
M  V30 11318 H 1041.26 5.07792 4.02557 0
M  V30 11319 N 1034.67 -1.14067 1.0875 0
M  V30 11320 C 1035.92 -1.84535 0.814235 0
M  V30 11321 C 1036.23 -1.84044 -0.662355 0
M  V30 11322 O 1037.44 -2.50336 -1.05091 0
M  V30 11323 C 1035.89 -3.31273 1.40663 0
M  V30 11324 C 1035.5 -3.40171 2.91526 0
M  V30 11325 C 1037.25 -4.0683 1.21201 0
M  V30 11326 C 1035.15 -4.81141 3.43885 0
M  V30 11327 H 1034.08 -0.691346 0.300926 0
M  V30 11328 H 1036.73 -1.28562 1.30935 0
M  V30 11329 H 1035.12 -3.87005 0.839215 0
M  V30 11330 H 1036.29 -2.94471 3.54434 0
M  V30 11331 H 1034.61 -2.78073 3.09942 0
M  V30 11332 H 1037.2 -5.10891 1.57781 0
M  V30 11333 H 1037.55 -4.16022 0.152092 0
M  V30 11334 H 1038.08 -3.57408 1.74655 0
M  V30 11335 H 1034.82 -4.77138 4.49466 0
M  V30 11336 H 1034.34 -5.27365 2.85738 0
M  V30 11337 H 1036.02 -5.50042 3.40681 0
M  V30 11338 N 1036.15 -0.873678 -1.31166 0
M  V30 11339 C 1037.1 -0.330288 -2.28424 0
M  V30 11340 C 1038.07 0.573299 -1.55893 0
M  V30 11341 O 1039.25 0.504143 -1.84019 0
M  V30 11342 C 1036.39 0.459004 -3.42034 0
M  V30 11343 C 1035.5 -0.472519 -4.29408 0
M  V30 11344 C 1034.64 0.331261 -5.30166 0
M  V30 11345 C 1033.68 -0.596453 -6.09187 0
M  V30 11346 N 1032.81 0.171305 -7.01891 0
M  V30 11347 H 1037.65 -1.16485 -2.7429 0
M  V30 11348 H 1035.19 -0.585813 -1.34932 0
M  V30 11349 H 1037.15 0.932432 -4.06647 0
M  V30 11350 H 1035.78 1.25824 -2.97268 0
M  V30 11351 H 1034.83 -1.06441 -3.65205 0
M  V30 11352 H 1036.14 -1.18372 -4.84551 0
M  V30 11353 H 1035.3 0.867038 -6.00473 0
M  V30 11354 H 1034.04 1.07573 -4.75688 0
M  V30 11355 H 1033.04 -1.14395 -5.37767 0
M  V30 11356 H 1034.27 -1.33983 -6.65752 0
M  V30 11357 H 1032.21 0.89852 -6.49817 0
M  V30 11358 H 1032.13 -0.480481 -7.54472 0
M  V30 11359 H 1033.4 0.688192 -7.76456 0
M  V30 11360 N 1037.63 1.44308 -0.633487 0
M  V30 11361 C 1038.54 2.34492 0.0711787 0
M  V30 11362 C 1039.55 1.52754 0.8332 0
M  V30 11363 O 1040.73 1.85475 0.784929 0
M  V30 11364 C 1037.79 3.30767 1.03895 0
M  V30 11365 C 1036.85 4.28412 0.276043 0
M  V30 11366 C 1036.09 5.20087 1.19772 0
M  V30 11367 O 1036.31 5.15743 2.4365 0
M  V30 11368 O 1035.24 5.98038 0.680764 0
M  V30 11369 H 1039.07 2.96203 -0.67063 0
M  V30 11370 H 1036.66 1.4412 -0.393678 0
M  V30 11371 H 1038.54 3.90021 1.59566 0
M  V30 11372 H 1037.21 2.71586 1.76133 0
M  V30 11373 H 1036.12 3.72696 -0.32377 0
M  V30 11374 H 1037.45 4.9052 -0.406364 0
M  V30 11375 N 1039.1 0.374177 1.53094 0
M  V30 11376 C 1040.38 -0.269632 1.93733 0
M  V30 11377 C 1040.76 -1.6566 1.30843 0
M  V30 11378 O 1040.11 -2.23598 0.470759 0
M  V30 11379 C 1040.32 -0.311204 3.4761 0
M  V30 11380 C 1041.67 -0.547432 4.21056 0
M  V30 11381 O 1042.69 -0.392053 3.54036 0
M  V30 11382 O 1041.55 -0.850645 5.39839 0
M  V30 11383 H 1038.64 -0.163723 0.810632 0
M  V30 11384 H 1041.19 0.427586 1.64225 0
M  V30 11385 H 1039.96 0.660897 3.85678 0
M  V30 11386 H 1039.59 -1.05397 3.83376 0
M  V30 11387 N 1040.58 -1.57259 0.103575 0
M  V30 11388 C 1041.49 -2.18018 -0.866327 0
M  V30 11389 C 1042.51 -1.15198 -1.30404 0
M  V30 11390 O 1043.68 -1.47605 -1.37021 0
M  V30 11391 C 1040.75 -2.75533 -2.10434 0
M  V30 11392 C 1039.81 -3.93337 -1.72002 0
M  V30 11393 C 1039.04 -4.481 -2.89901 0
M  V30 11394 O 1039.27 -4.01784 -4.04877 0
M  V30 11395 O 1038.2 -5.39004 -2.67877 0
M  V30 11396 H 1042.03 -3.01322 -0.379338 0
M  V30 11397 H 1039.61 -1.48907 -0.121228 0
M  V30 11398 H 1041.49 -3.12259 -2.8297 0
M  V30 11399 H 1040.17 -1.9527 -2.58169 0
M  V30 11400 H 1039.08 -3.61408 -0.966193 0
M  V30 11401 H 1040.41 -4.74989 -1.29022 0
M  V30 11402 N 1042.06 0.170153 -1.56679 0
M  V30 11403 C 1043.34 0.913938 -1.72935 0
M  V30 11404 C 1043.72 2.00342 -0.665293 0
M  V30 11405 O 1043.07 2.26252 0.319715 0
M  V30 11406 C 1043.28 1.47761 -3.16177 0
M  V30 11407 C 1044.62 1.95007 -3.7717 0
M  V30 11408 O 1045.65 1.57552 -3.19462 0
M  V30 11409 O 1044.51 2.64007 -4.78501 0
M  V30 11410 H 1041.6 0.43027 -0.706256 0
M  V30 11411 H 1044.15 0.157891 -1.68964 0
M  V30 11412 H 1042.92 0.69352 -3.85105 0
M  V30 11413 H 1042.54 2.2978 -3.24479 0
M  V30 11414 N 1043.54 1.5137 0.438746 0
M  V30 11415 C 1044.82 1.54508 1.19944 0
M  V30 11416 C 1045.2 0.308525 2.08833 0
M  V30 11417 O 1044.54 -0.706461 2.17305 0
M  V30 11418 C 1044.75 2.85833 2.00251 0
M  V30 11419 C 1046.1 3.37729 2.5734 0
M  V30 11420 O 1047.13 2.87374 2.10463 0
M  V30 11421 O 1045.98 4.25589 3.42836 0
M  V30 11422 H 1043.08 0.621132 0.546007 0
M  V30 11423 H 1045.62 1.63682 0.447931 0
M  V30 11424 H 1044.4 3.67291 1.34955 0
M  V30 11425 H 1044.02 2.79815 2.8247 0
M  V30 11426 N 1045.02 -0.694098 1.41492 0
M  V30 11427 C 1045.96 -1.80801 1.43456 0
M  V30 11428 C 1046.93 -1.63571 0.288757 0
M  V30 11429 O 1048.12 -1.844 0.490017 0
M  V30 11430 C 1045.26 -3.18694 1.32394 0
M  V30 11431 C 1044.37 -3.47346 2.56855 0
M  V30 11432 C 1043.51 -4.74862 2.38075 0
M  V30 11433 C 1042.55 -4.96486 3.58005 0
M  V30 11434 N 1041.68 -6.15229 3.38287 0
M  V30 11435 H 1046.52 -1.78457 2.38657 0
M  V30 11436 H 1044.06 -0.871455 1.18508 0
M  V30 11437 H 1046.02 -3.98352 1.23982 0
M  V30 11438 H 1044.65 -3.20211 0.407999 0
M  V30 11439 H 1043.7 -2.62083 2.75711 0
M  V30 11440 H 1045.01 -3.59226 3.4606 0
M  V30 11441 H 1044.17 -5.62577 2.27139 0
M  V30 11442 H 1042.9 -4.6523 1.46329 0
M  V30 11443 H 1041.91 -4.07219 3.69395 0
M  V30 11444 H 1043.13 -5.07976 4.50708 0
M  V30 11445 H 1041.08 -6.06807 2.49242 0
M  V30 11446 H 1041 -6.27883 4.21069 0
M  V30 11447 H 1042.27 -7.05674 3.31126 0
M  V30 11448 N 1046.49 -1.27344 -0.928501 0
M  V30 11449 C 1047.72 -1.16447 -1.7102 0
M  V30 11450 C 1048.14 0.278799 -1.8673 0
M  V30 11451 O 1047.49 1.18989 -1.38376 0
M  V30 11452 C 1047.55 -1.84242 -3.11026 0
M  V30 11453 O 1047.27 -3.2293 -2.96054 0
M  V30 11454 C 1048.77 -1.7946 -4.05351 0
M  V30 11455 H 1045.99 -0.404898 -0.535069 0
M  V30 11456 H 1048.53 -1.68201 -1.16313 0
M  V30 11457 H 1046.69 -1.36395 -3.62595 0
M  V30 11458 H 1047.1 -3.5667 -3.8456 0
M  V30 11459 H 1048.57 -2.31511 -5.01105 0
M  V30 11460 H 1049.05 -0.763771 -4.32508 0
M  V30 11461 H 1049.66 -2.26918 -3.59706 0
M  V30 11462 N 1047.97 1.13488 -1.09353 0
M  V30 11463 C 1049.22 1.85022 -0.830354 0
M  V30 11464 C 1049.55 1.83266 0.64242 0
M  V30 11465 O 1048.83 1.27024 1.47293 0
M  V30 11466 C 1049.11 3.33218 -1.36521 0
M  V30 11467 C 1048.96 3.43491 -2.90404 0
M  V30 11468 C 1050.28 4.28626 -0.998381 0
M  V30 11469 H 1047.4 0.671786 -0.303105 0
M  V30 11470 H 1050.04 1.33211 -1.3548 0
M  V30 11471 H 1048.19 3.77471 -0.919117 0
M  V30 11472 H 1049.86 3.07954 -3.43456 0
M  V30 11473 H 1048.11 2.84391 -3.27573 0
M  V30 11474 H 1048.78 4.47702 -3.22905 0
M  V30 11475 H 1051.25 3.9244 -1.38311 0
M  V30 11476 H 1050.13 5.30754 -1.39968 0
M  V30 11477 H 1050.39 4.42001 0.093517 0
M  V30 11478 N 1049.45 0.880621 1.30701 0
M  V30 11479 C 1050.38 0.360251 2.30704 0
M  V30 11480 C 1051.36 -0.554572 1.60806 0
M  V30 11481 O 1052.55 -0.469345 1.88443 0
M  V30 11482 C 1049.68 -0.429888 3.44629 0
M  V30 11483 C 1048.63 0.392786 4.26194 0
M  V30 11484 C 1047.96 -0.52369 5.32129 0
M  V30 11485 C 1049.26 1.63258 4.96129 0
M  V30 11486 H 1050.95 1.19591 2.74478 0
M  V30 11487 H 1048.5 0.576508 1.31956 0
M  V30 11488 H 1050.45 -0.804532 4.13649 0
M  V30 11489 H 1049.17 -1.29916 2.99649 0
M  V30 11490 H 1047.83 0.749514 3.58856 0
M  V30 11491 H 1047.48 -1.39054 4.83397 0
M  V30 11492 H 1047.18 0.0229272 5.87596 0
M  V30 11493 H 1048.71 -0.894946 6.04006 0
M  V30 11494 H 1050.12 1.32877 5.57689 0
M  V30 11495 H 1048.52 2.11906 5.61441 0
M  V30 11496 H 1049.59 2.37944 4.22505 0
M  V30 11497 N 1050.93 -1.4397 0.641131 0
M  V30 11498 C 1052.21 -1.95436 0.0800918 0
M  V30 11499 C 1052.59 -1.58282 -1.39678 0
M  V30 11500 O 1051.93 -0.861867 -2.11623 0
M  V30 11501 C 1052.14 -3.47589 0.313531 0
M  V30 11502 C 1053.49 -4.2407 0.212034 0
M  V30 11503 O 1054.52 -3.55353 0.245434 0
M  V30 11504 O 1053.38 -5.46356 0.125455 0
M  V30 11505 H 1050.47 -0.826834 -0.0165735 0
M  V30 11506 H 1053.02 -1.5397 0.71353 0
M  V30 11507 H 1051.79 -3.67716 1.33793 0
M  V30 11508 H 1051.41 -3.96025 -0.353563 0
M  V30 11509 N 1052.41 -0.382291 -1.52893 0
M  V30 11510 C 1053.34 0.447829 -2.29165 0
M  V30 11511 C 1054.32 1.06956 -1.32267 0
M  V30 11512 O 1055.5 1.08365 -1.61154 0
M  V30 11513 C 1052.63 1.57902 -3.09329 0
M  V30 11514 C 1051.59 1.08369 -4.14053 0
M  V30 11515 C 1050.91 2.30641 -4.82399 0
M  V30 11516 C 1052.21 0.156591 -5.22065 0
M  V30 11517 H 1053.91 -0.188541 -2.98806 0
M  V30 11518 H 1051.45 -0.0921179 -1.43705 0
M  V30 11519 H 1053.41 2.16652 -3.61442 0
M  V30 11520 H 1052.13 2.24287 -2.37409 0
M  V30 11521 H 1050.79 0.518772 -3.62911 0
M  V30 11522 H 1050.44 2.9552 -4.07034 0
M  V30 11523 H 1050.14 1.98163 -5.53177 0
M  V30 11524 H 1051.66 2.90047 -5.37313 0
M  V30 11525 H 1053.08 0.652065 -5.6958 0
M  V30 11526 H 1051.47 -0.0780978 -6.00049 0
M  V30 11527 H 1052.54 -0.796529 -4.78313 0
M  V30 11528 N 1053.89 1.57202 -0.111913 0
M  V30 11529 C 1054.85 2.13778 0.826534 0
M  V30 11530 C 1055.85 1.07097 1.19945 0
M  V30 11531 O 1057.04 1.32906 1.12613 0
M  V30 11532 C 1054.17 2.6722 2.11675 0
M  V30 11533 H 1055.36 2.98023 0.334975 0
M  V30 11534 H 1052.92 1.55696 0.137256 0
M  V30 11535 H 1053.65 1.86542 2.65278 0
M  V30 11536 H 1053.44 3.45235 1.8589 0
M  V30 11537 H 1054.93 3.10926 2.78774 0
M  V30 11538 N 1055.36 -0.161842 1.56767 0
M  V30 11539 C 1056.61 -0.878224 1.82798 0
M  V30 11540 C 1056.94 -1.81481 0.691242 0
M  V30 11541 O 1056.22 -1.92075 -0.30618 0
M  V30 11542 C 1056.5 -1.66565 3.19262 0
M  V30 11543 C 1056.35 -0.751551 4.43477 0
M  V30 11544 C 1057.67 -2.63134 3.52773 0
M  V30 11545 H 1054.79 -0.317828 0.664947 0
M  V30 11546 H 1057.43 -0.14402 1.89453 0
M  V30 11547 H 1055.58 -2.29157 3.13719 0
M  V30 11548 H 1057.26 -0.137783 4.61094 0
M  V30 11549 H 1055.5 -0.0601785 4.33758 0
M  V30 11550 H 1056.17 -1.33823 5.35533 0
M  V30 11551 H 1058.65 -2.10666 3.5883 0
M  V30 11552 H 1057.52 -3.15289 4.49315 0
M  V30 11553 H 1057.78 -3.43786 2.77963 0
M  V30 11554 N 1056.84 -1.516 -0.430713 0
M  V30 11555 C 1058.09 -1.6484 -1.18134 0
M  V30 11556 C 1058.42 -0.366725 -1.90706 0
M  V30 11557 O 1057.7 0.63398 -1.83878 0
M  V30 11558 C 1057.98 -2.85617 -2.19306 0
M  V30 11559 C 1057.83 -4.23778 -1.50773 0
M  V30 11560 C 1059.15 -3.01909 -3.20217 0
M  V30 11561 H 1056.27 -0.599907 -0.428113 0
M  V30 11562 H 1058.91 -1.84102 -0.46973 0
M  V30 11563 H 1057.06 -2.69325 -2.79993 0
M  V30 11564 H 1058.73 -4.51752 -0.93371 0
M  V30 11565 H 1056.98 -4.26171 -0.809966 0
M  V30 11566 H 1057.65 -5.04291 -2.24487 0
M  V30 11567 H 1060.12 -3.16956 -2.69589 0
M  V30 11568 H 1059 -3.87968 -3.88293 0
M  V30 11569 H 1059.26 -2.1427 -3.86705 0
M  V30 11570 N 1058.32 0.686584 -1.41858 0
M  V30 11571 C 1059.25 1.81264 -1.47193 0
M  V30 11572 C 1060.23 1.66875 -0.329657 0
M  V30 11573 O 1061.42 1.86473 -0.542347 0
M  V30 11574 C 1058.55 3.19472 -1.36216 0
M  V30 11575 C 1057.5 3.4858 -2.48347 0
M  V30 11576 C 1056.83 4.86239 -2.22432 0
M  V30 11577 C 1058.13 3.46653 -3.90678 0
M  V30 11578 H 1059.82 1.77057 -2.41436 0
M  V30 11579 H 1057.37 0.850415 -1.16206 0
M  V30 11580 H 1059.32 3.97969 -1.38558 0
M  V30 11581 H 1058.04 3.24327 -0.384611 0
M  V30 11582 H 1056.7 2.72437 -2.45303 0
M  V30 11583 H 1056.35 4.8773 -1.22999 0
M  V30 11584 H 1056.05 5.06677 -2.97577 0
M  V30 11585 H 1057.57 5.67034 -2.26505 0
M  V30 11586 H 1058.99 4.15139 -3.95389 0
M  V30 11587 H 1057.38 3.78625 -4.65578 0
M  V30 11588 H 1058.45 2.45451 -4.18189 0
M  V30 11589 N 1059.8 1.27835 0.921735 0
M  V30 11590 C 1061.04 1.14523 1.67005 0
M  V30 11591 C 1061.37 -0.307776 1.92049 0
M  V30 11592 O 1060.63 -1.24103 1.51317 0
M  V30 11593 C 1060.93 1.88054 3.03925 0
M  V30 11594 C 1060.59 3.37886 2.9857 0
M  V30 11595 C 1059.25 3.78752 2.96817 0
M  V30 11596 C 1061.61 4.33462 2.89414 0
M  V30 11597 C 1058.93 5.13549 2.83698 0
M  V30 11598 C 1061.29 5.68322 2.77836 0
M  V30 11599 C 1059.95 6.08475 2.74436 0
M  V30 11600 H 1059.22 0.419068 0.611116 0
M  V30 11601 H 1061.87 1.58515 1.07449 0
M  V30 11602 H 1060.17 1.36587 3.67221 0
M  V30 11603 H 1061.87 1.75176 3.60714 0
M  V30 11604 H 1058.46 3.05389 3.00725 0
M  V30 11605 H 1062.64 4.02857 2.89862 0
M  V30 11606 H 1057.9 5.43796 2.79456 0
M  V30 11607 H 1062.07 6.42048 2.69717 0
M  V30 11608 H 1059.7 7.12877 2.64027 0
M  V30 11609 N 1061.28 -1.12907 1.09954 0
M  V30 11610 C 1062.19 -2.22082 0.756095 0
M  V30 11611 C 1063.2 -1.72277 -0.244272 0
M  V30 11612 O 1064.38 -2.01224 -0.0842637 0
M  V30 11613 C 1061.44 -3.46192 0.187642 0
M  V30 11614 C 1060.5 -4.10861 1.24465 0
M  V30 11615 C 1059.74 -5.29047 0.703227 0
M  V30 11616 O 1059.96 -5.68443 -0.472043 0
M  V30 11617 O 1058.89 -5.83904 1.46082 0
M  V30 11618 H 1062.72 -2.53842 1.66727 0
M  V30 11619 H 1060.3 -1.21145 0.874316 0
M  V30 11620 H 1062.19 -4.21212 -0.125774 0
M  V30 11621 H 1060.86 -3.16119 -0.696459 0
M  V30 11622 H 1059.77 -3.37643 1.61085 0
M  V30 11623 H 1061.1 -4.45078 2.10159 0
M  V30 11624 N 1062.75 -0.88754 -1.30232 0
M  V30 11625 C 1063.98 -0.522306 -2.00199 0
M  V30 11626 C 1064.4 0.889866 -1.66514 0
M  V30 11627 O 1063.75 1.58558 -0.903639 0
M  V30 11628 C 1063.8 -0.690551 -3.54843 0
M  V30 11629 O 1063.53 -2.04713 -3.8733 0
M  V30 11630 C 1065.03 -0.328649 -4.4208 0
M  V30 11631 H 1062.25 -0.201628 -0.63999 0
M  V30 11632 H 1064.79 -1.19355 -1.66056 0
M  V30 11633 H 1062.95 -0.0666493 -3.87343 0
M  V30 11634 H 1063.36 -2.06762 -4.82027 0
M  V30 11635 H 1064.83 -0.497257 -5.49756 0
M  V30 11636 H 1065.31 0.733502 -4.33032 0
M  V30 11637 H 1065.92 -0.928982 -4.1503 0
M  V30 11638 N 1064.23 1.43628 -0.648757 0
M  V30 11639 C 1065.2 2.29172 0.0360713 0
M  V30 11640 C 1066.2 1.41974 0.754976 0
M  V30 11641 O 1067.39 1.63654 0.5969 0
M  V30 11642 C 1064.52 3.23942 1.0618 0
M  V30 11643 H 1065.71 2.91214 -0.716544 0
M  V30 11644 H 1063.26 1.50833 -0.409759 0
M  V30 11645 H 1064 2.66786 1.8438 0
M  V30 11646 H 1063.78 3.88223 0.550016 0
M  V30 11647 H 1065.27 3.8816 1.54019 0
M  V30 11648 N 1065.71 0.390394 1.52688 0
M  V30 11649 C 1066.94 -0.191485 2.06012 0
M  V30 11650 C 1067.35 -1.40422 1.26202 0
M  V30 11651 O 1066.71 -1.79866 0.308963 0
M  V30 11652 C 1066.76 -0.560521 3.57128 0
M  V30 11653 O 1066.48 0.60404 4.33916 0
M  V30 11654 C 1067.98 -1.19814 4.26801 0
M  V30 11655 H 1065.2 -0.0286311 0.670389 0
M  V30 11656 H 1067.75 0.555939 1.96798 0
M  V30 11657 H 1065.9 -1.25784 3.66411 0
M  V30 11658 H 1066.32 0.300467 5.23639 0
M  V30 11659 H 1067.79 -1.40672 5.33775 0
M  V30 11660 H 1068.27 -2.16582 3.82085 0
M  V30 11661 H 1068.87 -0.541558 4.21838 0
M  V30 11662 N 1067.19 -1.57141 0.120249 0
M  V30 11663 C 1068.12 -2.18398 -0.826112 0
M  V30 11664 C 1069.1 -1.12439 -1.27638 0
M  V30 11665 O 1070.28 -1.40679 -1.33877 0
M  V30 11666 C 1067.41 -2.78438 -2.0758 0
M  V30 11667 C 1066.37 -3.89991 -1.76327 0
M  V30 11668 C 1065.69 -4.36844 -3.08336 0
M  V30 11669 C 1066.99 -5.12031 -1.03062 0
M  V30 11670 H 1068.69 -2.97731 -0.315656 0
M  V30 11671 H 1066.23 -1.43213 -0.150387 0
M  V30 11672 H 1068.19 -3.19951 -2.74243 0
M  V30 11673 H 1066.91 -1.96396 -2.60953 0
M  V30 11674 H 1065.57 -3.49055 -1.12053 0
M  V30 11675 H 1065.22 -3.51659 -3.59646 0
M  V30 11676 H 1064.92 -5.1207 -2.88199 0
M  V30 11677 H 1066.44 -4.81009 -3.76116 0
M  V30 11678 H 1067.86 -5.50555 -1.59881 0
M  V30 11679 H 1066.25 -5.92848 -0.930146 0
M  V30 11680 H 1067.32 -4.84897 -0.017582 0
M  V30 11681 N 1068.67 0.153526 -1.5685 0
M  V30 11682 C 1070.08 0.505939 -1.51368 0
M  V30 11683 C 1070.28 1.83721 -0.82757 0
M  V30 11684 O 1069.34 2.49385 -0.395364 0
M  V30 11685 C 1070.65 0.522269 -2.9613 0
M  V30 11686 C 1072.2 0.608238 -3.07033 0
M  V30 11687 C 1072.67 0.655292 -4.53288 0
M  V30 11688 N 1074.17 0.717695 -4.57606 0
M  V30 11689 C 1074.9 0.774977 -5.68139 0
M  V30 11690 N 1074.4 0.792003 -6.88258 0
M  V30 11691 N 1076.19 0.81536 -5.56155 0
M  V30 11692 H 1068.34 -0.71919 -1.99853 0
M  V30 11693 H 1070.6 -0.261466 -0.91123 0
M  V30 11694 H 1070.31 -0.387595 -3.49558 0
M  V30 11695 H 1070.18 1.3625 -3.51733 0
M  V30 11696 H 1072.57 1.50852 -2.53629 0
M  V30 11697 H 1072.65 -0.259014 -2.54485 0
M  V30 11698 H 1072.3 -0.240809 -5.07329 0
M  V30 11699 H 1072.23 1.53894 -5.03611 0
M  V30 11700 H 1074.72 0.7121 -3.7113 0
M  V30 11701 H 1075.03 0.837378 -7.6825 0
M  V30 11702 H 1073.37 0.759986 -6.90832 0
M  V30 11703 H 1076.57 0.799183 -4.61227 0
M  V30 11704 H 1076.74 0.856537 -6.42314 0
M  V30 11705 N 1070.14 1.51827 0.422667 0
M  V30 11706 C 1071.37 1.69337 1.19748 0
M  V30 11707 C 1071.79 0.396312 1.83878 0
M  V30 11708 O 1071.15 -0.644976 1.6944 0
M  V30 11709 C 1071.2 2.82082 2.24637 0
M  V30 11710 O 1070.3 2.46708 3.30468 0
M  V30 11711 H 1069.65 0.564154 0.35018 0
M  V30 11712 H 1072.18 1.98465 0.497289 0
M  V30 11713 H 1072.19 3.06599 2.69186 0
M  V30 11714 H 1070.86 3.76195 1.77341 0
M  V30 11715 H 1069.44 2.32815 2.91293 0
M  V30 11716 N 1071.62 -0.679052 1.4222 0
M  V30 11717 C 1072.87 -1.43627 1.42182 0
M  V30 11718 C 1073.19 -1.94964 0.0377095 0
M  V30 11719 O 1072.46 -1.72788 -0.923098 0
M  V30 11720 H 1071.04 -0.532972 0.523402 0
M  V30 11721 H 1073.7 -0.802649 1.77605 0
M  V30 11722 H 1072.8 -2.29137 2.11902 0
M  V30 11723 N 1073.1 -1.28322 -0.914942 0
M  V30 11724 C 1074.33 -1.18083 -1.69529 0
M  V30 11725 C 1074.74 0.263274 -1.87359 0
M  V30 11726 O 1074.08 1.18988 -1.39955 0
M  V30 11727 C 1074.14 -1.8062 -3.10832 0
M  V30 11728 C 1073.81 -3.29861 -3.16292 0
M  V30 11729 C 1074.8 -4.26313 -2.97578 0
M  V30 11730 C 1072.49 -3.70797 -3.38843 0
M  V30 11731 C 1074.48 -5.61677 -3.01326 0
M  V30 11732 C 1072.17 -5.06287 -3.42223 0
M  V30 11733 C 1073.17 -6.01537 -3.23485 0
M  V30 11734 O 1072.86 -7.34556 -3.26624 0
M  V30 11735 H 1072.59 -0.410931 -0.53676 0
M  V30 11736 H 1075.14 -1.6994 -1.15367 0
M  V30 11737 H 1073.37 -1.23255 -3.66531 0
M  V30 11738 H 1075.06 -1.64915 -3.70888 0
M  V30 11739 H 1075.83 -3.96023 -2.79984 0
M  V30 11740 H 1071.71 -2.97124 -3.52475 0
M  V30 11741 H 1075.25 -6.36 -2.86618 0
M  V30 11742 H 1071.15 -5.36228 -3.59346 0
M  V30 11743 H 1071.92 -7.43167 -3.42994 0
M  V30 11744 N 1074.58 1.12322 -1.10551 0
M  V30 11745 C 1075.51 2.20176 -0.777486 0
M  V30 11746 C 1076.49 1.68252 0.250069 0
M  V30 11747 O 1077.67 1.93856 0.115574 0
M  V30 11748 C 1074.8 3.46666 -0.209822 0
M  V30 11749 C 1073.76 4.11749 -1.1682 0
M  V30 11750 C 1073.08 5.32703 -0.461684 0
M  V30 11751 C 1074.38 4.57746 -2.51527 0
M  V30 11752 H 1076.08 2.47872 -1.67928 0
M  V30 11753 H 1073.62 1.19136 -0.808863 0
M  V30 11754 H 1075.58 4.21388 0.0318068 0
M  V30 11755 H 1074.3 3.18401 0.727226 0
M  V30 11756 H 1072.96 3.39009 -1.3953 0
M  V30 11757 H 1072.61 5.00706 0.479875 0
M  V30 11758 H 1072.31 5.77197 -1.1008 0
M  V30 11759 H 1073.83 6.10172 -0.228629 0
M  V30 11760 H 1075.25 5.23835 -2.32958 0
M  V30 11761 H 1073.64 5.13021 -3.11335 0
M  V30 11762 H 1074.71 3.71667 -3.11435 0
M  V30 11763 N 1076.06 0.894434 1.2976 0
M  V30 11764 C 1076.99 0.3847 2.30309 0
M  V30 11765 C 1077.97 -0.537486 1.61385 0
M  V30 11766 O 1079.15 -0.449332 1.8893 0
M  V30 11767 C 1076.28 -0.393311 3.45066 0
M  V30 11768 C 1075.24 0.437968 4.25753 0
M  V30 11769 C 1074.56 -0.467221 5.32655 0
M  V30 11770 C 1075.86 1.6851 4.9437 0
M  V30 11771 H 1077.56 1.22496 2.73194 0
M  V30 11772 H 1075.1 0.590471 1.31337 0
M  V30 11773 H 1077.06 -0.760614 4.14479 0
M  V30 11774 H 1075.78 -1.2673 3.0101 0
M  V30 11775 H 1074.44 0.787533 3.58041 0
M  V30 11776 H 1074.09 -1.33919 4.84845 0
M  V30 11777 H 1073.79 0.0852482 5.87538 0
M  V30 11778 H 1075.31 -0.830833 6.04921 0
M  V30 11779 H 1076.72 1.38784 5.56248 0
M  V30 11780 H 1075.12 2.17849 5.59162 0
M  V30 11781 H 1076.19 2.42412 4.19958 0
M  V30 11782 N 1077.53 -1.43282 0.656365 0
M  V30 11783 C 1078.95 -1.85012 0.250475 0
M  V30 11784 C 1079.3 -1.54944 -1.20361 0
M  V30 11785 O 1078.42 -0.999983 -1.9191 0
M  V30 11786 C 1079.02 -3.35827 0.447815 0
M  V30 11787 C 1077.58 -3.76277 0.0962151 0
M  V30 11788 C 1076.72 -2.66988 0.749168 0
M  V30 11789 H 1079.67 -1.3339 0.85982 0
M  V30 11790 H 1079.69 -3.7927 -0.305726 0
M  V30 11791 H 1079.21 -3.5768 1.5062 0
M  V30 11792 H 1077.31 -3.60035 -0.959449 0
M  V30 11793 H 1077.42 -4.76227 0.523875 0
M  V30 11794 H 1075.78 -2.54048 0.18212 0
M  V30 11795 H 1076.57 -2.91669 1.81064 0
M  V30 11796 N 1079.01 -0.398486 -1.52479 0
M  V30 11797 C 1080.29 0.238776 -1.94137 0
M  V30 11798 C 1080.67 1.63558 -1.33462 0
M  V30 11799 O 1080.02 2.22821 -0.506272 0
M  V30 11800 C 1080.23 0.255863 -3.48061 0
M  V30 11801 C 1081.58 0.480376 -4.21874 0
M  V30 11802 O 1082.6 0.335679 -3.54615 0
M  V30 11803 O 1081.46 0.764654 -5.41124 0
M  V30 11804 H 1078.55 0.150806 -0.813134 0
M  V30 11805 H 1081.1 -0.453659 -1.63524 0
M  V30 11806 H 1079.87 -0.722171 -3.84578 0
M  V30 11807 H 1079.49 0.99284 -3.85004 0
M  V30 11808 N 1080.49 1.57075 -0.12858 0
M  V30 11809 C 1081.72 1.99876 0.534544 0
M  V30 11810 C 1082.13 1.00843 1.59612 0
M  V30 11811 O 1081.49 0.00268947 1.825 0
M  V30 11812 C 1081.54 3.42654 1.15198 0
M  V30 11813 O 1081.26 4.37899 0.132823 0
M  V30 11814 C 1082.76 4.00637 1.8975 0
M  V30 11815 H 1079.98 0.656073 0.140744 0
M  V30 11816 H 1082.53 2.03337 -0.217742 0
M  V30 11817 H 1080.68 3.40101 1.85499 0
M  V30 11818 H 1081.1 5.21253 0.582682 0
M  V30 11819 H 1082.57 5.02592 2.28266 0
M  V30 11820 H 1083.05 3.40313 2.7764 0
M  V30 11821 H 1083.65 4.06764 1.2419 0
M  V30 11822 N 1081.97 -0.145205 1.5693 0
M  V30 11823 C 1082.92 -1.17923 1.98401 0
M  V30 11824 C 1083.89 -1.42591 0.851885 0
M  V30 11825 O 1085.07 -1.54896 1.11409 0
M  V30 11826 C 1082.21 -2.50727 2.37128 0
M  V30 11827 C 1081.32 -2.33218 3.63639 0
M  V30 11828 C 1080.46 -3.5907 3.91462 0
M  V30 11829 C 1079.5 -3.36605 5.11237 0
M  V30 11830 N 1078.64 -4.54592 5.35061 0
M  V30 11831 H 1083.48 -0.818573 2.86537 0
M  V30 11832 H 1081.01 -0.392739 1.4176 0
M  V30 11833 H 1082.97 -3.28165 2.57611 0
M  V30 11834 H 1081.6 -2.84736 1.52069 0
M  V30 11835 H 1080.65 -1.46826 3.50922 0
M  V30 11836 H 1081.96 -2.12579 4.51234 0
M  V30 11837 H 1081.12 -4.44936 4.12453 0
M  V30 11838 H 1079.86 -3.82715 3.02293 0
M  V30 11839 H 1078.86 -2.49127 4.90118 0
M  V30 11840 H 1080.09 -3.14357 6.01961 0
M  V30 11841 H 1078.03 -4.78406 4.48847 0
M  V30 11842 H 1077.95 -4.36962 6.16928 0
M  V30 11843 H 1079.22 -5.41666 5.60551 0
M  V30 11844 N 1083.45 -1.52049 -0.414609 0
M  V30 11845 C 1084.41 -1.74382 -1.4874 0
M  V30 11846 C 1085.41 -0.613701 -1.48628 0
M  V30 11847 O 1086.6 -0.88152 -1.50249 0
M  V30 11848 C 1083.73 -1.82116 -2.88178 0
M  V30 11849 H 1084.93 -2.70147 -1.30233 0
M  V30 11850 H 1082.48 -1.42382 -0.644756 0
M  V30 11851 H 1083.21 -0.882457 -3.12063 0
M  V30 11852 H 1083 -2.64268 -2.89663 0
M  V30 11853 H 1084.49 -2.01155 -3.65959 0
M  V30 11854 N 1084.93 0.6715 -1.42579 0
M  V30 11855 C 1086.16 1.4576 -1.46416 0
M  V30 11856 C 1086.56 1.89051 -0.0749843 0
M  V30 11857 O 1085.91 1.58927 0.921296 0
M  V30 11858 C 1085.97 2.7365 -2.33144 0
M  V30 11859 C 1085.63 2.52414 -3.80968 0
M  V30 11860 C 1086.63 2.16804 -4.72538 0
M  V30 11861 C 1084.31 2.67306 -4.25268 0
M  V30 11862 C 1086.31 1.96358 -6.06401 0
M  V30 11863 C 1084 2.46475 -5.5919 0
M  V30 11864 C 1084.99 2.11055 -6.49573 0
M  V30 11865 O 1084.68 1.90428 -7.8102 0
M  V30 11866 H 1084.41 0.454896 -0.500045 0
M  V30 11867 H 1086.97 0.832198 -1.87786 0
M  V30 11868 H 1085.2 3.38684 -1.86629 0
M  V30 11869 H 1086.89 3.35543 -2.28398 0
M  V30 11870 H 1087.65 2.04891 -4.39596 0
M  V30 11871 H 1083.53 2.93854 -3.55206 0
M  V30 11872 H 1087.08 1.68634 -6.76911 0
M  V30 11873 H 1082.97 2.57985 -5.91704 0
M  V30 11874 H 1083.74 2.05 -7.92412 0
M  V30 11875 N 1086.4 1.28806 0.908124 0
M  V30 11876 C 1087.65 1.16058 1.65454 0
M  V30 11877 C 1087.97 -0.290057 1.92831 0
M  V30 11878 O 1087.24 -1.20001 1.54843 0
M  V30 11879 H 1085.82 0.426522 0.61326 0
M  V30 11880 H 1088.48 1.61614 1.08936 0
M  V30 11881 H 1087.58 1.70437 2.61453 0
M  V30 11882 N 1087.88 -1.11734 1.11145 0
M  V30 11883 C 1089.16 -1.79795 0.770261 0
M  V30 11884 C 1089.54 -1.97624 -0.742158 0
M  V30 11885 O 1088.89 -1.55847 -1.67105 0
M  V30 11886 C 1089.1 -3.13684 1.52982 0
M  V30 11887 C 1090.44 -3.88771 1.70711 0
M  V30 11888 O 1091.47 -3.23363 1.49381 0
M  V30 11889 O 1090.33 -5.06134 2.06132 0
M  V30 11890 H 1087.42 -0.778617 0.27872 0
M  V30 11891 H 1089.97 -1.18504 1.2147 0
M  V30 11892 H 1088.74 -2.96043 2.55879 0
M  V30 11893 H 1088.36 -3.82687 1.07873 0
M  V30 11894 N 1089.36 -0.901303 -1.29284 0
M  V30 11895 C 1090.78 -0.597634 -1.47988 0
M  V30 11896 C 1090.98 0.860434 -1.82205 0
M  V30 11897 O 1090.03 1.64049 -1.91948 0
M  V30 11898 C 1091.34 -1.52484 -2.5917 0
M  V30 11899 C 1092.89 -1.53021 -2.73045 0
M  V30 11900 C 1093.37 -2.44373 -3.87357 0
M  V30 11901 N 1094.86 -2.42429 -3.94693 0
M  V30 11902 C 1095.59 -3.09817 -4.82495 0
M  V30 11903 N 1095.09 -3.86489 -5.74976 0
M  V30 11904 N 1096.88 -2.98966 -4.76 0
M  V30 11905 H 1089.03 -1.84432 -1.0535 0
M  V30 11906 H 1091.3 -0.790367 -0.523473 0
M  V30 11907 H 1091 -2.56378 -2.40756 0
M  V30 11908 H 1090.88 -1.24657 -3.56006 0
M  V30 11909 H 1093.26 -0.498709 -2.90855 0
M  V30 11910 H 1093.34 -1.84886 -1.76779 0
M  V30 11911 H 1092.99 -3.47618 -3.70302 0
M  V30 11912 H 1092.92 -2.09817 -4.82995 0
M  V30 11913 H 1095.41 -1.86724 -3.28546 0
M  V30 11914 H 1095.72 -4.34959 -6.38773 0
M  V30 11915 H 1094.07 -3.90596 -5.74857 0
M  V30 11916 H 1097.26 -2.38581 -4.02737 0
M  V30 11917 H 1097.43 -3.51758 -5.44215 0
M  V30 11918 N 1090.84 1.42931 -0.663954 0
M  V30 11919 C 1092.09 2.00904 -0.179011 0
M  V30 11920 C 1092.4 1.53056 1.21791 0
M  V30 11921 O 1093.61 2.03374 1.79865 0
M  V30 11922 C 1092.06 3.58892 -0.269198 0
M  V30 11923 C 1091.67 4.15731 -1.66949 0
M  V30 11924 C 1093.41 4.24207 0.157589 0
M  V30 11925 C 1091.32 5.66047 -1.71303 0
M  V30 11926 H 1090.25 0.75135 -0.0631623 0
M  V30 11927 H 1092.9 1.6378 -0.827556 0
M  V30 11928 H 1091.28 3.93469 0.447048 0
M  V30 11929 H 1092.46 3.92634 -2.41195 0
M  V30 11930 H 1090.77 3.62826 -2.04318 0
M  V30 11931 H 1093.37 5.34503 0.145057 0
M  V30 11932 H 1093.71 3.98901 1.19095 0
M  V30 11933 H 1094.25 3.94552 -0.507274 0
M  V30 11934 H 1090.98 5.96136 -2.72584 0
M  V30 11935 H 1090.5 5.91167 -1.01398 0
M  V30 11936 H 1092.18 6.30275 -1.46158 0
M  V30 11937 N 1092.32 0.406567 1.52266 0
M  V30 11938 C 1093.23 -0.4271 2.30679 0
M  V30 11939 C 1094.24 -1.0559 1.383 0
M  V30 11940 O 1095.42 -1.05797 1.71374 0
M  V30 11941 C 1092.48 -1.53008 3.1111 0
M  V30 11942 C 1091.54 -0.924604 4.19225 0
M  V30 11943 C 1090.78 -1.97502 4.95811 0
M  V30 11944 O 1091 -3.19277 4.72671 0
M  V30 11945 O 1089.93 -1.58268 5.80719 0
M  V30 11946 H 1093.76 0.212187 3.02958 0
M  V30 11947 H 1091.34 0.169835 1.48432 0
M  V30 11948 H 1093.23 -2.17046 3.61205 0
M  V30 11949 H 1091.9 -2.15401 2.41628 0
M  V30 11950 H 1090.81 -0.247009 3.73284 0
M  V30 11951 H 1092.14 -0.34463 4.90992 0
M  V30 11952 N 1093.79 -1.57004 0.136909 0
M  V30 11953 C 1095.21 -1.58082 -0.21958 0
M  V30 11954 C 1095.41 -1.15065 -1.65415 0
M  V30 11955 O 1094.47 -0.846284 -2.37896 0
M  V30 11956 C 1095.78 -3.00685 0.0300112 0
M  V30 11957 C 1097.33 -3.12981 -0.0344899 0
M  V30 11958 C 1097.8 -4.57615 0.187639 0
M  V30 11959 N 1099.29 -4.63005 0.134219 0
M  V30 11960 C 1100.03 -5.72712 0.280743 0
M  V30 11961 N 1099.52 -6.91104 0.48443 0
M  V30 11962 N 1101.32 -5.61673 0.219055 0
M  V30 11963 H 1093.47 -1.83262 1.07372 0
M  V30 11964 H 1095.73 -0.847776 0.424241 0
M  V30 11965 H 1095.44 -3.36509 1.02247 0
M  V30 11966 H 1095.31 -3.70762 -0.693918 0
M  V30 11967 H 1097.7 -2.77004 -1.01749 0
M  V30 11968 H 1097.78 -2.45411 0.721608 0
M  V30 11969 H 1097.42 -4.94295 1.16769 0
M  V30 11970 H 1097.35 -5.23299 -0.588661 0
M  V30 11971 H 1099.84 -3.77895 -0.0189681 0
M  V30 11972 H 1100.16 -7.7057 0.586613 0
M  V30 11973 H 1098.5 -6.93047 0.520627 0
M  V30 11974 H 1101.69 -4.68061 0.0607606 0
M  V30 11975 H 1101.87 -6.47125 0.336683 0
M  V30 11976 N 1095.27 0.136881 -1.57004 0
M  V30 11977 C 1096.21 1.19853 -1.94192 0
M  V30 11978 C 1097.18 1.4104 -0.809103 0
M  V30 11979 O 1098.37 1.55487 -1.06565 0
M  V30 11980 C 1095.49 2.55565 -2.22271 0
M  V30 11981 C 1094.54 2.50913 -3.44884 0
M  V30 11982 S 1095.37 1.96619 -4.98098 0
M  V30 11983 C 1096.53 3.34039 -5.2931 0
M  V30 11984 H 1096.76 0.881316 -2.83937 0
M  V30 11985 H 1094.3 0.342915 -1.50544 0
M  V30 11986 H 1096.25 3.33659 -2.39127 0
M  V30 11987 H 1094.91 2.84472 -1.33172 0
M  V30 11988 H 1094.11 3.50839 -3.6184 0
M  V30 11989 H 1093.71 1.80932 -3.27322 0
M  V30 11990 H 1096 4.30189 -5.23397 0
M  V30 11991 H 1096.94 3.21927 -6.30689 0
M  V30 11992 H 1097.35 3.31642 -4.56808 0
M  V30 11993 N 1096.75 1.52266 0.40654 0
M  V30 11994 C 1097.68 1.78755 1.50229 0
M  V30 11995 C 1098.66 0.638652 1.57655 0
M  V30 11996 O 1099.85 0.884505 1.72888 0
M  V30 11997 C 1096.98 1.94057 2.88026 0
M  V30 11998 C 1095.93 3.09667 2.95449 0
M  V30 11999 C 1095.26 3.10196 4.35526 0
M  V30 12000 C 1096.56 4.49077 2.66697 0
M  V30 12001 H 1098.25 2.70511 1.28313 0
M  V30 12002 H 1095.8 1.30167 0.615836 0
M  V30 12003 H 1097.75 2.11171 3.64671 0
M  V30 12004 H 1096.47 0.989755 3.11242 0
M  V30 12005 H 1095.13 2.92308 2.2125 0
M  V30 12006 H 1094.78 2.12831 4.55754 0
M  V30 12007 H 1094.48 3.87847 4.41416 0
M  V30 12008 H 1096 3.29443 5.14101 0
M  V30 12009 H 1097.42 4.66628 3.33064 0
M  V30 12010 H 1095.82 5.28665 2.8396 0
M  V30 12011 H 1096.89 4.56995 1.62122 0
M  V30 12012 N 1098.23 -0.663929 1.42933 0
M  V30 12013 C 1099.64 -0.978346 1.26097 0
M  V30 12014 C 1099.84 -2.00756 0.172968 0
M  V30 12015 O 1098.9 -2.48418 -0.452184 0
M  V30 12016 C 1100.21 -1.4728 2.62162 0
M  V30 12017 C 1101.76 -1.59001 2.69606 0
M  V30 12018 C 1102.24 -2.1184 4.06064 0
M  V30 12019 N 1103.73 -2.19158 4.08074 0
M  V30 12020 C 1104.46 -2.61141 5.10483 0
M  V30 12021 N 1103.96 -3.02498 6.23271 0
M  V30 12022 N 1105.75 -2.60986 4.97838 0
M  V30 12023 H 1097.9 0.0173096 2.12393 0
M  V30 12024 H 1100.17 -0.0548116 0.946414 0
M  V30 12025 H 1099.87 -0.791008 3.42689 0
M  V30 12026 H 1099.75 -2.4497 2.86827 0
M  V30 12027 H 1102.13 -2.26284 1.89418 0
M  V30 12028 H 1102.21 -0.597728 2.48718 0
M  V30 12029 H 1101.86 -1.45162 4.86714 0
M  V30 12030 H 1101.79 -3.1188 4.2431 0
M  V30 12031 H 1104.28 -1.90013 3.26655 0
M  V30 12032 H 1104.59 -3.33251 6.97254 0
M  V30 12033 H 1102.94 -3.00328 6.2676 0
M  V30 12034 H 1106.13 -2.28046 4.08794 0
M  V30 12035 H 1106.3 -2.93384 5.7778 0
M  V30 12036 N 1099.71 -1.29285 -0.901281 0
M  V30 12037 C 1100.64 -1.16832 -2.0217 0
M  V30 12038 C 1101.62 -0.0629265 -1.69984 0
M  V30 12039 O 1102.8 -0.242123 -1.92685 0
M  V30 12040 C 1099.93 -0.842406 -3.36929 0
M  V30 12041 C 1098.89 -1.90394 -3.8332 0
M  V30 12042 C 1098.21 -1.43138 -5.15185 0
M  V30 12043 C 1099.51 -3.31254 -4.03817 0
M  V30 12044 H 1101.21 -2.10562 -2.12847 0
M  V30 12045 H 1098.75 -1.01375 -1.0227 0
M  V30 12046 H 1100.71 -0.741999 -4.14816 0
M  V30 12047 H 1099.43 0.130598 -3.26339 0
M  V30 12048 H 1098.09 -1.99371 -3.07647 0
M  V30 12049 H 1097.74 -0.447091 -5.01009 0
M  V30 12050 H 1097.44 -2.14129 -5.47195 0
M  V30 12051 H 1098.96 -1.34444 -5.95615 0
M  V30 12052 H 1100.37 -3.25129 -4.72191 0
M  V30 12053 H 1098.77 -4.00189 -4.47178 0
M  V30 12054 H 1099.84 -3.74349 -3.08206 0
M  V30 12055 N 1101.18 1.11143 -1.11736 0
M  V30 12056 C 1102.41 1.87285 -0.891007 0
M  V30 12057 C 1102.83 1.79758 0.553971 0
M  V30 12058 O 1102.19 1.16221 1.39149 0
M  V30 12059 C 1102.24 3.33924 -1.36114 0
M  V30 12060 O 1101.34 4.08917 -0.534851 0
M  V30 12061 H 1100.69 0.581418 -0.320701 0
M  V30 12062 H 1103.22 1.40469 -1.4876 0
M  V30 12063 H 1103.23 3.84772 -1.35701 0
M  V30 12064 H 1101.9 3.38719 -2.41334 0
M  V30 12065 H 1100.48 3.67954 -0.605355 0
M  V30 12066 N 1102.66 0.908147 1.28804 0
M  V30 12067 C 1103.59 0.409106 2.29888 0
M  V30 12068 C 1104.57 -0.520338 1.61946 0
M  V30 12069 O 1105.76 -0.429268 1.89396 0
M  V30 12070 C 1102.89 -0.35669 3.45463 0
M  V30 12071 C 1101.84 0.4831 4.25265 0
M  V30 12072 C 1101.17 -0.4107 5.3312 0
M  V30 12073 C 1102.47 1.73744 4.92555 0
M  V30 12074 H 1104.16 1.25386 2.7188 0
M  V30 12075 H 1101.71 0.604368 1.30703 0
M  V30 12076 H 1103.66 -0.71661 4.15262 0
M  V30 12077 H 1102.39 -1.2353 3.02337 0
M  V30 12078 H 1101.04 0.825464 3.57186 0
M  V30 12079 H 1100.69 -1.28769 4.86238 0
M  V30 12080 H 1100.39 0.14756 5.87415 0
M  V30 12081 H 1101.92 -0.766626 6.05768 0
M  V30 12082 H 1103.33 1.44676 5.54745 0
M  V30 12083 H 1101.73 2.23767 5.5682 0
M  V30 12084 H 1102.8 2.46853 4.17363 0
M  V30 12085 N 1104.14 -1.42577 0.671525 0
M  V30 12086 C 1105.09 -2.32591 -0.0205354 0
M  V30 12087 C 1106.08 -1.4964 -0.793993 0
M  V30 12088 O 1107.29 -1.65733 -0.702327 0
M  V30 12089 H 1103.66 -0.75157 -0.0254344 0
M  V30 12090 H 1105.63 -2.88662 0.756082 0
M  V30 12091 C 1104.38 -3.34175 -0.960316 0
M  V30 12092 H 1103.71 -3.98041 -0.374577 0
M  V30 12093 H 1105.15 -3.99752 -1.4133 0
M  V30 12094 C 1103.61 -2.66184 -2.06513 0
M  V30 12095 O 1104.14 -2.49125 -3.15119 0
M  V30 12096 N 1102.34 -2.25261 -1.83591 0
M  V30 12097 H 1101.89 -2.39336 -0.952689 0
M  V30 12098 H 1101.85 -1.80101 -2.57703 0
M  V30 12099 N 1105.62 -0.414636 -1.52048 0
M  V30 12100 C 1106.87 0.16073 -2.01059 0
M  V30 12101 C 1107.18 1.45753 -1.30443 0
M  V30 12102 O 1108.39 2.11448 -1.703 0
M  V30 12103 C 1106.84 0.336993 -3.58319 0
M  V30 12104 C 1106.45 -0.948037 -4.37854 0
M  V30 12105 C 1108.19 0.867353 -4.15545 0
M  V30 12106 C 1106.1 -0.738662 -5.86769 0
M  V30 12107 H 1105.03 0.0638419 -0.751292 0
M  V30 12108 H 1107.68 -0.540925 -1.75346 0
M  V30 12109 H 1106.06 1.10111 -3.80383 0
M  V30 12110 H 1107.24 -1.71873 -4.27547 0
M  V30 12111 H 1105.55 -1.40522 -3.91972 0
M  V30 12112 H 1108.15 1.04012 -5.24486 0
M  V30 12113 H 1108.49 1.84358 -3.73253 0
M  V30 12114 H 1109.03 0.162148 -3.97469 0
M  V30 12115 H 1105.77 -1.6866 -6.3343 0
M  V30 12116 H 1105.29 -0.00736294 -5.998 0
M  V30 12117 H 1106.96 -0.382978 -6.45866 0
M  V30 12118 N 1107.1 1.56929 -0.145233 0
M  V30 12119 C 1108.37 1.8767 0.551288 0
M  V30 12120 C 1108.75 1.05089 1.83083 0
M  V30 12121 O 1108.1 0.137201 2.28088 0
M  V30 12122 C 1108.31 3.39268 0.818445 0
M  V30 12123 C 1109.66 4.08447 1.16 0
M  V30 12124 O 1110.68 3.44436 0.907857 0
M  V30 12125 O 1109.54 5.21488 1.63441 0
M  V30 12126 H 1106.64 0.777788 0.281024 0
M  V30 12127 H 1109.18 1.68724 -0.181712 0
M  V30 12128 H 1107.95 3.91203 -0.0871897 0
M  V30 12129 H 1107.58 3.63735 1.60569 0
M  V30 12130 N 1108.58 -0.128553 1.57075 0
M  V30 12131 C 1109.99 -0.686713 1.73612 0
M  V30 12132 C 1110.34 -1.80778 0.762478 0
M  V30 12133 O 1109.46 -2.16297 -0.0667779 0
M  V30 12134 C 1110.06 -1.25246 3.148 0
M  V30 12135 C 1108.62 -1.757 3.32876 0
M  V30 12136 C 1107.76 -0.652844 2.69506 0
M  V30 12137 H 1110.71 0.0972859 1.58402 0
M  V30 12138 H 1110.74 -2.1222 3.15821 0
M  V30 12139 H 1110.25 -0.436308 3.8564 0
M  V30 12140 H 1108.35 -2.59824 2.67063 0
M  V30 12141 H 1108.46 -1.87302 4.4097 0
M  V30 12142 H 1106.83 -1.08408 2.30477 0
M  V30 12143 H 1107.61 0.15217 3.42963 0
M  V30 12144 N 1110.05 -1.5248 -0.398459 0
M  V30 12145 C 1111.33 -1.57634 -1.15805 0
M  V30 12146 C 1111.71 -0.363785 -2.07942 0
M  V30 12147 O 1111.06 0.648598 -2.19101 0
M  V30 12148 C 1111.27 -2.91042 -1.92602 0
M  V30 12149 C 1112.62 -3.44433 -2.48296 0
M  V30 12150 O 1113.64 -2.92853 -2.0277 0
M  V30 12151 O 1112.5 -4.34529 -3.31432 0
M  V30 12152 H 1109.59 -0.63539 -0.529347 0
M  V30 12153 H 1112.14 -1.64812 -0.404376 0
M  V30 12154 H 1110.91 -3.7074 -1.25169 0
M  V30 12155 H 1110.53 -2.87206 -2.74952 0
M  V30 12156 N 1111.53 0.65634 -1.43283 0
M  V30 12157 C 1112.49 1.75117 -1.47874 0
M  V30 12158 C 1113.49 1.56629 -0.363846 0
M  V30 12159 O 1114.68 1.62584 -0.625464 0
M  V30 12160 C 1111.82 3.13957 -1.32831 0
M  V30 12161 H 1113.01 1.72429 -2.45374 0
M  V30 12162 H 1110.56 0.867704 -1.30002 0
M  V30 12163 H 1111.3 3.22259 -0.36326 0
M  V30 12164 H 1111.08 3.28781 -2.13649 0
M  V30 12165 H 1112.57 3.93799 -1.38969 0
M  V30 12166 N 1113.01 1.29761 0.894412 0
M  V30 12167 C 1113.96 1.15341 1.99912 0
M  V30 12168 C 1114.93 0.0453488 1.66038 0
M  V30 12169 O 1116.11 0.213829 1.89598 0
M  V30 12170 C 1113.25 0.841432 3.34685 0
M  V30 12171 C 1112.36 2.03046 3.81309 0
M  V30 12172 C 1111.5 1.65739 5.04682 0
M  V30 12173 C 1110.54 2.81191 5.43689 0
M  V30 12174 N 1109.68 2.44244 6.58247 0
M  V30 12175 H 1114.52 2.09854 2.11578 0
M  V30 12176 H 1112.05 1.04421 1.03608 0
M  V30 12177 H 1114.01 0.641211 4.12243 0
M  V30 12178 H 1112.64 -0.066797 3.22731 0
M  V30 12179 H 1111.69 2.34222 2.9974 0
M  V30 12180 H 1113 2.89538 4.06164 0
M  V30 12181 H 1112.16 1.42036 5.8984 0
M  V30 12182 H 1110.9 0.764019 4.81678 0
M  V30 12183 H 1109.9 3.0557 4.57064 0
M  V30 12184 H 1111.13 3.712 5.68672 0
M  V30 12185 H 1109.07 1.57402 6.36837 0
M  V30 12186 H 1108.99 3.24269 6.82924 0
M  V30 12187 H 1110.26 2.23875 7.46659 0
M  V30 12188 N 1114.49 -1.10549 1.12324 0
M  V30 12189 C 1115.73 -1.82755 0.879117 0
M  V30 12190 C 1116.07 -1.84905 -0.593604 0
M  V30 12191 O 1115.34 -1.30884 -1.43873 0
M  V30 12192 C 1115.62 -3.29481 1.45308 0
M  V30 12193 C 1115.48 -3.3567 2.99408 0
M  V30 12194 C 1116.8 -4.25828 1.11167 0
M  V30 12195 H 1113.92 -0.663513 0.32081 0
M  V30 12196 H 1116.56 -1.29572 1.38965 0
M  V30 12197 H 1114.71 -3.74902 1.01887 0
M  V30 12198 H 1116.38 -2.98739 3.515 0
M  V30 12199 H 1114.62 -2.75606 3.34998 0
M  V30 12200 H 1115.29 -4.38983 3.34661 0
M  V30 12201 H 1117.77 -3.88635 1.48667 0
M  V30 12202 H 1116.65 -5.26857 1.53991 0
M  V30 12203 H 1116.91 -4.42094 0.0237046 0
M  V30 12204 N 1115.97 -0.914965 -1.28321 0
M  V30 12205 C 1116.88 -0.409424 -2.31 0
M  V30 12206 C 1117.89 0.503526 -1.66555 0
M  V30 12207 O 1119.07 0.38942 -1.97599 0
M  V30 12208 C 1116.13 0.34123 -3.45017 0
M  V30 12209 C 1115.19 -0.605087 -4.25014 0
M  V30 12210 C 1114.43 0.109837 -5.33587 0
M  V30 12211 O 1114.65 1.33136 -5.54645 0
M  V30 12212 O 1113.58 -0.555474 -5.99331 0
M  V30 12213 H 1117.41 -1.26167 -2.76253 0
M  V30 12214 H 1114.99 -0.679831 -1.33036 0
M  V30 12215 H 1116.88 0.765132 -4.14396 0
M  V30 12216 H 1115.55 1.16929 -3.01843 0
M  V30 12217 H 1114.46 -1.07841 -3.58219 0
M  V30 12218 H 1115.79 -1.39999 -4.7187 0
M  V30 12219 N 1117.44 1.42219 -0.679077 0
M  V30 12220 C 1118.35 2.346 -0.00345919 0
M  V30 12221 C 1119.37 1.55327 0.784181 0
M  V30 12222 O 1120.55 1.87878 0.725524 0
M  V30 12223 C 1117.61 3.33905 0.933194 0
M  V30 12224 C 1116.67 4.29073 0.139607 0
M  V30 12225 C 1115.9 5.23634 1.03165 0
M  V30 12226 O 1116.13 5.23234 2.27119 0
M  V30 12227 O 1115.06 5.99901 0.490159 0
M  V30 12228 H 1118.89 2.9392 -0.764525 0
M  V30 12229 H 1116.47 1.42794 -0.439329 0
M  V30 12230 H 1118.35 3.949 1.47077 0
M  V30 12231 H 1117.03 2.77052 1.67404 0
M  V30 12232 H 1115.94 3.71478 -0.442177 0
M  V30 12233 H 1117.27 4.88979 -0.562214 0
M  V30 12234 N 1118.92 0.422693 1.51826 0
M  V30 12235 C 1119.83 -0.40261 2.31119 0
M  V30 12236 C 1120.85 -1.04117 1.39412 0
M  V30 12237 O 1122.02 -1.03973 1.72486 0
M  V30 12238 C 1119.09 -1.49699 3.12716 0
M  V30 12239 C 1118.15 -0.880088 4.20182 0
M  V30 12240 C 1117.38 -1.92232 4.97878 0
M  V30 12241 O 1117.61 -3.14246 4.76031 0
M  V30 12242 O 1116.54 -1.521 5.82365 0
M  V30 12243 H 1120.37 0.244308 3.02716 0
M  V30 12244 H 1117.95 0.185569 1.48243 0
M  V30 12245 H 1119.83 -2.13202 3.63487 0
M  V30 12246 H 1118.51 -2.12826 2.43899 0
M  V30 12247 H 1117.41 -0.207404 3.73525 0
M  V30 12248 H 1118.75 -0.292535 4.9133 0
M  V30 12249 N 1120.4 -1.5685 0.153553 0
M  V30 12250 C 1121.81 -1.83074 -0.36618 0
M  V30 12251 C 1122.16 -1.07257 -1.64288 0
M  V30 12252 O 1121.29 -0.319925 -2.14022 0
M  V30 12253 C 1121.88 -3.32086 -0.671142 0
M  V30 12254 C 1120.44 -3.58868 -1.13537 0
M  V30 12255 C 1119.59 -2.76827 -0.161887 0
M  V30 12256 H 1122.54 -1.54129 0.378139 0
M  V30 12257 H 1122.56 -3.48598 -1.52512 0
M  V30 12258 H 1122.07 -3.8724 0.258234 0
M  V30 12259 H 1120.17 -3.09107 -2.08047 0
M  V30 12260 H 1120.29 -4.67299 -1.05682 0
M  V30 12261 H 1118.65 -2.46112 -0.6558 0
M  V30 12262 H 1119.43 -3.34755 0.761195 0
M  V30 12263 N 1121.88 0.120221 -1.57141 0
M  V30 12264 C 1122.79 1.16641 -2.03549 0
M  V30 12265 C 1123.8 1.45407 -0.955656 0
M  V30 12266 O 1124.98 1.56547 -1.26708 0
M  V30 12267 C 1122.04 2.4734 -2.42948 0
M  V30 12268 C 1121.11 2.25982 -3.65008 0
M  V30 12269 C 1120.34 3.50449 -4.02518 0
M  V30 12270 O 1120.56 4.57706 -3.40384 0
M  V30 12271 O 1119.5 3.41524 -4.95626 0
M  V30 12272 H 1123.32 0.802323 -2.9291 0
M  V30 12273 H 1120.91 0.330927 -1.45689 0
M  V30 12274 H 1122.79 3.24348 -2.69029 0
M  V30 12275 H 1121.46 2.83225 -1.56733 0
M  V30 12276 H 1120.37 1.46837 -3.44078 0
M  V30 12277 H 1121.7 1.95002 -4.51924 0
M  V30 12278 N 1123.36 1.52689 0.390367 0
M  V30 12279 C 1124.27 1.8029 1.50108 0
M  V30 12280 C 1125.28 0.689582 1.59752 0
M  V30 12281 O 1126.46 0.977024 1.76114 0
M  V30 12282 C 1123.52 1.96475 2.85654 0
M  V30 12283 C 1122.58 3.2039 2.85743 0
M  V30 12284 C 1121.82 3.35793 4.14824 0
M  V30 12285 O 1122.04 2.56033 5.09709 0
M  V30 12286 O 1120.97 4.2904 4.22147 0
M  V30 12287 H 1124.8 2.74605 1.29715 0
M  V30 12288 H 1122.39 1.37763 0.578074 0
M  V30 12289 H 1124.27 2.08835 3.66013 0
M  V30 12290 H 1122.94 1.05351 3.06077 0
M  V30 12291 H 1121.85 3.13473 2.0417 0
M  V30 12292 H 1123.18 4.11356 2.70272 0
M  V30 12293 N 1124.83 -0.648732 1.43629 0
M  V30 12294 C 1125.74 -1.79046 1.51591 0
M  V30 12295 C 1126.76 -1.69276 0.402697 0
M  V30 12296 O 1127.94 -1.90366 0.657484 0
M  V30 12297 C 1125 -3.15347 1.44073 0
M  V30 12298 C 1124.06 -3.3688 2.66102 0
M  V30 12299 C 1123.3 -4.66679 2.58933 0
M  V30 12300 O 1123.52 -5.46328 1.63956 0
M  V30 12301 O 1122.45 -4.9003 3.49506 0
M  V30 12302 H 1126.28 -1.75283 2.48011 0
M  V30 12303 H 1123.86 -0.807774 1.2568 0
M  V30 12304 H 1125.75 -3.96633 1.42339 0
M  V30 12305 H 1124.42 -3.19691 0.50789 0
M  V30 12306 H 1123.33 -2.55341 2.73407 0
M  V30 12307 H 1124.66 -3.37386 3.58373 0
M  V30 12308 N 1126.31 -1.30234 -0.887518 0
M  V30 12309 C 1127.72 -1.17048 -1.45453 0
M  V30 12310 C 1128.07 0.229793 -1.9485 0
M  V30 12311 O 1127.2 1.12628 -1.84781 0
M  V30 12312 C 1127.79 -2.11876 -2.64375 0
M  V30 12313 C 1126.35 -2.02676 -3.17174 0
M  V30 12314 C 1125.5 -2.02104 -1.89866 0
M  V30 12315 H 1128.45 -1.42541 -0.697694 0
M  V30 12316 H 1128.47 -1.69811 -3.40506 0
M  V30 12317 H 1127.98 -3.13781 -2.28392 0
M  V30 12318 H 1126.09 -1.03904 -3.57819 0
M  V30 12319 H 1126.2 -2.90939 -3.80646 0
M  V30 12320 H 1124.56 -1.4687 -2.0809 0
M  V30 12321 H 1125.35 -3.05735 -1.56145 0
M  V30 12322 N 1127.79 1.09952 -1.12909 0
M  V30 12323 C 1128.7 2.19999 -0.81471 0
M  V30 12324 C 1129.72 1.72864 0.19851 0
M  V30 12325 O 1130.89 2.01376 0.0308832 0
M  V30 12326 C 1127.96 3.45573 -0.279363 0
M  V30 12327 C 1127.02 4.07417 -1.35314 0
M  V30 12328 C 1126.25 5.26996 -0.843247 0
M  V30 12329 O 1126.47 5.69495 0.321164 0
M  V30 12330 O 1125.41 5.79826 -1.61511 0
M  V30 12331 H 1129.23 2.49333 -1.73398 0
M  V30 12332 H 1126.82 1.18784 -0.906128 0
M  V30 12333 H 1128.7 4.21398 0.0140531 0
M  V30 12334 H 1127.38 3.17854 0.612401 0
M  V30 12335 H 1126.28 3.33253 -1.6998 0
M  V30 12336 H 1127.62 4.39349 -2.21885 0
M  V30 12337 N 1129.27 0.921757 1.27833 0
M  V30 12338 C 1130.18 0.421668 2.30779 0
M  V30 12339 C 1131.19 -0.494686 1.6682 0
M  V30 12340 O 1132.37 -0.378935 1.97803 0
M  V30 12341 C 1129.44 -0.322928 3.45193 0
M  V30 12342 C 1128.5 0.627618 4.24687 0
M  V30 12343 C 1127.73 -0.0815385 5.33638 0
M  V30 12344 O 1127.95 -1.30193 5.55343 0
M  V30 12345 O 1126.89 0.58725 5.99028 0
M  V30 12346 H 1130.71 1.2763 2.7558 0
M  V30 12347 H 1128.3 0.686877 1.32674 0
M  V30 12348 H 1130.18 -0.743145 4.14796 0
M  V30 12349 H 1128.85 -1.15326 3.02459 0
M  V30 12350 H 1127.76 1.09739 3.57642 0
M  V30 12351 H 1129.09 1.425 4.71121 0
M  V30 12352 N 1130.75 -1.41857 0.686609 0
M  V30 12353 C 1131.97 -2.05699 0.222561 0
M  V30 12354 C 1132.39 -1.51636 -1.12481 0
M  V30 12355 O 1131.75 -0.660925 -1.70112 0
M  V30 12356 C 1131.8 -3.61138 0.161818 0
M  V30 12357 O 1131.52 -4.13199 1.45596 0
M  V30 12358 C 1133.02 -4.42112 -0.324304 0
M  V30 12359 H 1130.24 -0.662665 0.10543 0
M  V30 12360 H 1132.78 -1.81788 0.936671 0
M  V30 12361 H 1130.94 -3.8412 -0.503056 0
M  V30 12362 H 1131.35 -5.0717 1.33712 0
M  V30 12363 H 1132.83 -5.51097 -0.315694 0
M  V30 12364 H 1133.3 -4.1756 -1.36164 0
M  V30 12365 H 1133.91 -4.24174 0.309251 0
M  V30 12366 N 1132.22 -0.430739 -1.51599 0
M  V30 12367 C 1133.19 0.372319 -2.26156 0
M  V30 12368 C 1134.19 0.955338 -1.29344 0
M  V30 12369 O 1135.38 0.830823 -1.53111 0
M  V30 12370 C 1132.51 1.52613 -3.04831 0
M  V30 12371 H 1133.7 -0.280996 -2.98581 0
M  V30 12372 H 1131.26 -0.183749 -1.55216 0
M  V30 12373 H 1131.99 2.21569 -2.36807 0
M  V30 12374 H 1131.78 1.11433 -3.75932 0
M  V30 12375 H 1133.27 2.09366 -3.61325 0
M  V30 12376 N 1133.7 1.56767 -0.161869 0
M  V30 12377 C 1134.61 2.21083 0.784814 0
M  V30 12378 C 1135.63 1.19959 1.26039 0
M  V30 12379 O 1136.8 1.52588 1.31449 0
M  V30 12380 C 1133.87 2.83153 2.00063 0
M  V30 12381 C 1132.93 3.9945 1.57285 0
M  V30 12382 C 1132.16 4.5855 2.7307 0
M  V30 12383 O 1132.39 4.16534 3.89686 0
M  V30 12384 O 1131.32 5.48575 2.47688 0
M  V30 12385 H 1135.15 3.02522 0.267243 0
M  V30 12386 H 1132.73 1.49255 0.0658783 0
M  V30 12387 H 1134.61 3.22546 2.71186 0
M  V30 12388 H 1133.29 2.04718 2.50744 0
M  V30 12389 H 1132.2 3.64745 0.831393 0
M  V30 12390 H 1133.53 4.7945 1.11304 0
M  V30 12391 N 1135.18 -0.111886 1.57202 0
M  V30 12392 C 1136.46 -0.849125 1.76208 0
M  V30 12393 C 1136.84 -1.97735 0.73919 0
M  V30 12394 O 1136.19 -2.27283 -0.235523 0
M  V30 12395 C 1136.4 -1.35924 3.21443 0
M  V30 12396 C 1137.74 -1.80874 3.84148 0
M  V30 12397 O 1138.77 -1.45587 3.25089 0
M  V30 12398 O 1137.63 -2.46065 4.87969 0
M  V30 12399 H 1134.72 -0.403761 0.721738 0
M  V30 12400 H 1137.27 -0.0950726 1.69433 0
M  V30 12401 H 1136.04 -0.550113 3.87414 0
M  V30 12402 H 1135.66 -2.17579 3.32784 0
M  V30 12403 N 1136.66 -1.52894 -0.382264 0
M  V30 12404 C 1137.89 -1.72152 -1.14766 0
M  V30 12405 C 1138.3 -0.442911 -1.83531 0
M  V30 12406 O 1137.66 0.583085 -1.72935 0
M  V30 12407 C 1137.71 -2.87566 -2.19062 0
M  V30 12408 O 1137.43 -4.10478 -1.53099 0
M  V30 12409 C 1138.93 -3.18559 -3.08277 0
M  V30 12410 H 1136.15 -0.576212 -0.343832 0
M  V30 12411 H 1138.7 -1.99571 -0.446273 0
M  V30 12412 H 1136.85 -2.62589 -2.84826 0
M  V30 12413 H 1137.26 -4.74989 -2.22454 0
M  V30 12414 H 1138.74 -4.02763 -3.77473 0
M  V30 12415 H 1139.22 -2.33222 -3.72161 0
M  V30 12416 H 1139.82 -3.454 -2.48151 0
M  V30 12417 N 1138.14 0.641106 -1.43971 0
M  V30 12418 C 1139.37 1.42829 -1.49692 0
M  V30 12419 C 1139.78 1.88427 -0.118594 0
M  V30 12420 O 1139.14 1.60234 0.873581 0
M  V30 12421 C 1139.19 2.65524 -2.45314 0
M  V30 12422 O 1138.91 2.2183 -3.77787 0
M  V30 12423 C 1140.41 3.58758 -2.60399 0
M  V30 12424 H 1137.63 0.438367 -0.508011 0
M  V30 12425 H 1140.17 0.784933 -1.88836 0
M  V30 12426 H 1138.33 3.25973 -2.09332 0
M  V30 12427 H 1138.74 3.01303 -4.29321 0
M  V30 12428 H 1140.22 4.41483 -3.31357 0
M  V30 12429 H 1140.69 4.06909 -1.65294 0
M  V30 12430 H 1141.3 3.04184 -2.97241 0
M  V30 12431 N 1139.62 1.30703 0.880598 0
M  V30 12432 C 1140.53 1.19389 2.01949 0
M  V30 12433 C 1141.54 0.112868 1.73634 0
M  V30 12434 O 1142.72 0.328643 1.98701 0
M  V30 12435 C 1139.78 0.891004 3.35055 0
M  V30 12436 C 1138.84 2.05784 3.76764 0
M  V30 12437 C 1138.08 1.76931 5.03519 0
M  V30 12438 O 1138.3 0.699326 5.66097 0
M  V30 12439 O 1137.23 2.623 5.4174 0
M  V30 12440 H 1141.06 2.15073 2.14423 0
M  V30 12441 H 1138.64 1.10339 1.00726 0
M  V30 12442 H 1140.53 0.737476 4.14897 0
M  V30 12443 H 1139.2 -0.0358909 3.2368 0
M  V30 12444 H 1138.11 2.26672 2.97608 0
M  V30 12445 H 1139.44 2.96661 3.9275 0
M  V30 12446 N 1141.09 -1.09351 1.1349 0
M  V30 12447 C 1142.37 -1.78121 0.808225 0
M  V30 12448 C 1142.75 -1.99154 -0.700072 0
M  V30 12449 O 1142.1 -1.59356 -1.63762 0
M  V30 12450 C 1142.31 -3.10368 1.59601 0
M  V30 12451 C 1143.66 -3.85063 1.78919 0
M  V30 12452 O 1144.68 -3.20122 1.56206 0
M  V30 12453 O 1143.54 -5.01648 2.16821 0
M  V30 12454 H 1140.63 -0.77253 0.295173 0
M  V30 12455 H 1143.18 -1.15901 1.23956 0
M  V30 12456 H 1141.95 -2.90549 2.62101 0
M  V30 12457 H 1141.57 -3.80312 1.15967 0
M  V30 12458 N 1142.57 -0.928524 -1.27343 0
M  V30 12459 C 1143.8 -0.585734 -1.98436 0
M  V30 12460 C 1144.21 0.83644 -1.69261 0
M  V30 12461 O 1143.57 1.55603 -0.953626 0
M  V30 12462 C 1143.62 -0.803092 -3.52467 0
M  V30 12463 O 1143.34 -2.16932 -3.80621 0
M  V30 12464 C 1144.84 -0.469127 -4.40811 0
M  V30 12465 H 1142.06 -0.221887 -0.633251 0
M  V30 12466 H 1144.61 -1.24577 -1.62175 0
M  V30 12467 H 1142.76 -0.189846 -3.86935 0
M  V30 12468 H 1143.18 -2.21992 -4.75205 0
M  V30 12469 H 1144.65 -0.671906 -5.47895 0
M  V30 12470 H 1145.13 0.595365 -4.35146 0
M  V30 12471 H 1145.73 -1.06055 -4.11865 0
M  V30 12472 N 1144.05 1.41491 -0.694123 0
M  V30 12473 C 1144.96 2.34583 -0.0283414 0
M  V30 12474 C 1145.98 1.5615 0.767662 0
M  V30 12475 O 1147.15 1.88637 0.705556 0
M  V30 12476 C 1144.22 3.34876 0.897726 0
M  V30 12477 C 1143.28 4.29197 0.0940905 0
M  V30 12478 C 1142.51 5.24699 0.976051 0
M  V30 12479 O 1142.73 5.25613 2.21556 0
M  V30 12480 O 1141.67 6.00387 0.426503 0
M  V30 12481 H 1145.49 2.93092 -0.795656 0
M  V30 12482 H 1143.08 1.4232 -0.45445 0
M  V30 12483 H 1144.96 3.96438 1.4288 0
M  V30 12484 H 1143.64 2.78812 1.64456 0
M  V30 12485 H 1142.54 3.70988 -0.481552 0
M  V30 12486 H 1143.88 4.88355 -0.614045 0
M  V30 12487 N 1145.53 0.438773 1.51369 0
M  V30 12488 C 1146.46 -0.407771 2.25543 0
M  V30 12489 C 1147.47 -0.985065 1.29616 0
M  V30 12490 O 1148.66 -0.878961 1.55359 0
M  V30 12491 C 1145.76 -1.58257 2.9968 0
M  V30 12492 C 1144.93 -1.12389 4.22714 0
M  V30 12493 C 1143.99 -2.16897 4.79418 0
M  V30 12494 O 1143.02 -1.76273 5.41218 0
M  V30 12495 N 1144.22 -3.49396 4.63576 0
M  V30 12496 H 1146.99 0.227963 2.98832 0
M  V30 12497 H 1144.55 0.267741 1.59671 0
M  V30 12498 H 1146.54 -2.27796 3.34501 0
M  V30 12499 H 1145.11 -2.12362 2.29393 0
M  V30 12500 H 1144.33 -0.255509 3.93371 0
M  V30 12501 H 1145.62 -0.794848 5.02553 0
M  V30 12502 H 1145.02 -3.85132 4.14355 0
M  V30 12503 H 1143.57 -4.14826 5.02755 0
M  V30 12504 N 1147.01 -1.56678 0.170181 0
M  V30 12505 C 1148.28 -1.88524 -0.521362 0
M  V30 12506 C 1148.66 -1.07989 -1.81388 0
M  V30 12507 O 1148.01 -0.17347 -2.27841 0
M  V30 12508 C 1148.22 -3.40527 -0.764367 0
M  V30 12509 C 1149.57 -4.10241 -1.09487 0
M  V30 12510 O 1150.59 -3.45837 -0.852945 0
M  V30 12511 O 1149.45 -5.24022 -1.55124 0
M  V30 12512 H 1146.55 -0.782161 -0.268614 0
M  V30 12513 H 1149.09 -1.68414 0.208531 0
M  V30 12514 H 1147.86 -3.91015 0.149416 0
M  V30 12515 H 1147.49 -3.66244 -1.54762 0
M  V30 12516 N 1148.48 0.103547 -1.57259 0
M  V30 12517 C 1149.39 1.14475 -2.04774 0
M  V30 12518 C 1150.41 1.44385 -0.971025 0
M  V30 12519 O 1151.59 1.55195 -1.28361 0
M  V30 12520 C 1148.65 2.4475 -2.45558 0
M  V30 12521 C 1147.71 2.22098 -3.67384 0
M  V30 12522 C 1146.94 3.4616 -4.06213 0
M  V30 12523 O 1147.17 4.5407 -3.45219 0
M  V30 12524 O 1146.1 3.36248 -4.9922 0
M  V30 12525 H 1149.93 0.771211 -2.93745 0
M  V30 12526 H 1147.51 0.315456 -1.46032 0
M  V30 12527 H 1149.39 3.21476 -2.72454 0
M  V30 12528 H 1148.07 2.81547 -1.59728 0
M  V30 12529 H 1146.98 1.43179 -3.45616 0
M  V30 12530 H 1148.31 1.90197 -4.53967 0
M  V30 12531 N 1149.96 1.53094 0.37415 0
M  V30 12532 C 1151.24 1.59456 1.13283 0
M  V30 12533 C 1151.62 0.396821 2.07337 0
M  V30 12534 O 1150.97 -0.613659 2.20106 0
M  V30 12535 C 1151.18 2.94069 1.87948 0
M  V30 12536 C 1152.52 3.4834 2.42785 0
M  V30 12537 O 1153.55 2.96042 1.98085 0
M  V30 12538 O 1152.41 4.39747 3.24477 0
M  V30 12539 H 1149.5 0.643731 0.519171 0
M  V30 12540 H 1152.05 1.65434 0.378105 0
M  V30 12541 H 1150.82 3.72685 1.19255 0
M  V30 12542 H 1150.44 2.91544 2.70348 0
M  V30 12543 N 1151.44 -0.633461 1.44309 0
M  V30 12544 C 1152.35 -1.77428 1.53481 0
M  V30 12545 C 1153.37 -1.68839 0.420628 0
M  V30 12546 O 1154.54 -1.89658 0.677638 0
M  V30 12547 C 1151.61 -3.13801 1.47409 0
M  V30 12548 C 1150.67 -3.34039 2.6966 0
M  V30 12549 C 1149.9 -4.63907 2.63868 0
M  V30 12550 O 1150.12 -5.44559 1.69741 0
M  V30 12551 O 1149.06 -4.86295 3.54684 0
M  V30 12552 H 1152.88 -1.72642 2.49857 0
M  V30 12553 H 1150.47 -0.794399 1.26529 0
M  V30 12554 H 1152.35 -3.95101 1.46537 0
M  V30 12555 H 1151.03 -3.19134 0.541769 0
M  V30 12556 H 1149.93 -2.52427 2.761 0
M  V30 12557 H 1151.27 -3.33566 3.61931 0
M  V30 12558 N 1152.92 -1.31168 -0.873655 0
M  V30 12559 C 1153.83 -1.20458 -2.01313 0
M  V30 12560 C 1154.84 -0.122074 -1.73571 0
M  V30 12561 O 1156.02 -0.339176 -1.98523 0
M  V30 12562 C 1153.09 -0.90876 -3.34578 0
M  V30 12563 C 1152.15 -2.07779 -3.75668 0
M  V30 12564 C 1151.38 -1.79599 -5.02573 0
M  V30 12565 O 1151.6 -0.729338 -5.65718 0
M  V30 12566 O 1150.54 -2.65169 -5.40341 0
M  V30 12567 H 1154.36 -2.16207 -2.13279 0
M  V30 12568 H 1151.95 -1.10871 -1.00139 0
M  V30 12569 H 1153.83 -0.759469 -4.145 0
M  V30 12570 H 1152.5 0.0187249 -3.23695 0
M  V30 12571 H 1151.41 -2.28247 -2.96402 0
M  V30 12572 H 1152.74 -2.9874 -3.91172 0
M  V30 12573 N 1154.4 1.08748 -1.14068 0
M  V30 12574 C 1155.33 2.14886 -0.768052 0
M  V30 12575 C 1156.31 1.60682 0.248979 0
M  V30 12576 O 1157.49 1.87988 0.138852 0
M  V30 12577 C 1154.62 3.38412 -0.139747 0
M  V30 12578 C 1153.66 4.11357 -1.12639 0
M  V30 12579 S 1154.5 4.64645 -2.66206 0
M  V30 12580 C 1155.65 5.91461 -2.04755 0
M  V30 12581 H 1155.89 2.46163 -1.66706 0
M  V30 12582 H 1153.42 1.20804 -0.961549 0
M  V30 12583 H 1155.38 4.09929 0.21635 0
M  V30 12584 H 1154.04 3.0534 0.736638 0
M  V30 12585 H 1153.23 4.99987 -0.634719 0
M  V30 12586 H 1152.83 3.45735 -1.4263 0
M  V30 12587 H 1155.13 6.62859 -1.40086 0
M  V30 12588 H 1156.07 6.45319 -2.91494 0
M  V30 12589 H 1156.48 5.44308 -1.49629 0
M  V30 12590 N 1155.87 0.935264 1.26849 0
M  V30 12591 C 1157.15 0.497797 1.8916 0
M  V30 12592 C 1157.53 -1.02441 1.84578 0
M  V30 12593 O 1156.88 -1.88185 1.29609 0
M  V30 12594 C 1157.09 1.05244 3.32753 0
M  V30 12595 C 1158.44 1.11751 4.0963 0
M  V30 12596 O 1159.46 1.0026 3.41799 0
M  V30 12597 O 1158.32 1.29548 5.30923 0
M  V30 12598 H 1155.41 0.161322 0.811113 0
M  V30 12599 H 1157.96 1.02744 1.35062 0
M  V30 12600 H 1156.73 2.09617 3.30419 0
M  V30 12601 H 1156.36 0.504889 3.94381 0
M  V30 12602 N 1157.35 -1.41121 0.701616 0
M  V30 12603 C 1158.6 -2.01428 0.235495 0
M  V30 12604 C 1158.93 -1.55463 -1.16382 0
M  V30 12605 O 1158.21 -0.768477 -1.78675 0
M  V30 12606 C 1158.49 -3.58849 0.299919 0
M  V30 12607 C 1158.34 -4.14924 1.73661 0
M  V30 12608 C 1159.66 -4.38809 -0.336856 0
M  V30 12609 H 1156.78 -0.731842 0.0870456 0
M  V30 12610 H 1159.42 -1.67787 0.891479 0
M  V30 12611 H 1157.57 -3.87638 -0.258611 0
M  V30 12612 H 1159.24 -3.96987 2.34945 0
M  V30 12613 H 1157.49 -3.69738 2.26884 0
M  V30 12614 H 1158.16 -5.24085 1.73318 0
M  V30 12615 H 1160.63 -4.15868 0.138886 0
M  V30 12616 H 1159.51 -5.48278 -0.261264 0
M  V30 12617 H 1159.77 -4.18728 -1.41843 0
M  V30 12618 N 1158.83 -0.446794 -1.51134 0
M  V30 12619 C 1160.08 0.116263 -2.01765 0
M  V30 12620 C 1160.4 1.42382 -1.33238 0
M  V30 12621 O 1159.67 1.9018 -0.469915 0
M  V30 12622 H 1158.25 0.0459558 -0.745585 0
M  V30 12623 H 1160.91 -0.591664 -1.85702 0
M  V30 12624 H 1160.01 0.285358 -3.10793 0
M  V30 12625 N 1160.31 1.56586 -0.178487 0
M  V30 12626 C 1161.54 2.01475 0.470684 0
M  V30 12627 C 1161.95 1.0587 1.56323 0
M  V30 12628 O 1161.31 0.060749 1.82399 0
M  V30 12629 C 1161.36 3.46145 1.04238 0
M  V30 12630 O 1161.08 4.381 -0.0065582 0
M  V30 12631 C 1162.58 4.06471 1.76908 0
M  V30 12632 H 1159.8 0.660219 0.119801 0
M  V30 12633 H 1162.35 2.02542 -0.282322 0
M  V30 12634 H 1160.5 3.45831 1.74585 0
M  V30 12635 H 1160.91 5.22843 0.416554 0
M  V30 12636 H 1162.39 5.096 2.12161 0
M  V30 12637 H 1162.87 3.48974 2.66672 0
M  V30 12638 H 1163.47 4.10509 1.11186 0
M  V30 12639 N 1161.79 -0.095206 1.57312 0
M  V30 12640 C 1163.06 -0.830388 1.77099 0
M  V30 12641 C 1163.44 -1.9694 0.760121 0
M  V30 12642 O 1162.79 -2.2752 -0.211403 0
M  V30 12643 C 1163 -1.32507 3.22867 0
M  V30 12644 C 1164.35 -1.7679 3.86045 0
M  V30 12645 O 1165.37 -1.42131 3.26615 0
M  V30 12646 O 1164.23 -2.40876 4.90552 0
M  V30 12647 H 1161.33 -0.396083 0.72598 0
M  V30 12648 H 1163.87 -0.0770965 1.69525 0
M  V30 12649 H 1162.64 -0.508992 3.87975 0
M  V30 12650 H 1162.27 -2.14037 3.35073 0
M  V30 12651 N 1163.26 -1.53291 -0.366026 0
M  V30 12652 C 1164.17 -1.82656 -1.47221 0
M  V30 12653 C 1165.19 -0.71491 -1.58635 0
M  V30 12654 O 1166.37 -1.00492 -1.74538 0
M  V30 12655 C 1163.43 -2.00995 -2.82492 0
M  V30 12656 C 1162.49 -3.24895 -2.8061 0
M  V30 12657 C 1161.73 -3.4235 -4.09429 0
M  V30 12658 O 1161.95 -2.6411 -5.05571 0
M  V30 12659 O 1160.88 -4.35702 -4.15268 0
M  V30 12660 H 1164.71 -2.76634 -1.2533 0
M  V30 12661 H 1162.29 -1.38665 -0.556084 0
M  V30 12662 H 1164.18 -2.14632 -3.62645 0
M  V30 12663 H 1162.85 -1.10207 -3.04362 0
M  V30 12664 H 1161.76 -3.16682 -1.99157 0
M  V30 12665 H 1163.09 -4.15604 -2.63694 0
M  V30 12666 N 1164.74 0.6258 -1.44643 0
M  V30 12667 C 1165.65 1.76611 -1.5442 0
M  V30 12668 C 1166.67 1.68614 -0.429576 0
M  V30 12669 O 1167.84 1.89296 -0.687686 0
M  V30 12670 C 1164.91 3.13015 -1.49071 0
M  V30 12671 C 1163.97 3.32604 -2.71428 0
M  V30 12672 C 1163.2 4.62501 -2.66325 0
M  V30 12673 O 1163.43 5.43651 -1.72626 0
M  V30 12674 O 1162.36 4.84408 -3.57258 0
M  V30 12675 H 1166.19 1.71315 -2.50769 0
M  V30 12676 H 1163.77 0.787677 -1.26949 0
M  V30 12677 H 1165.65 3.94318 -1.48631 0
M  V30 12678 H 1164.33 3.18842 -0.558686 0
M  V30 12679 H 1163.24 2.50959 -2.77435 0
M  V30 12680 H 1164.57 3.31642 -3.63695 0
M  V30 12681 N 1166.22 1.31629 0.866686 0
M  V30 12682 C 1167.13 1.21524 2.00671 0
M  V30 12683 C 1168.15 0.131277 1.73504 0
M  V30 12684 O 1169.32 0.349699 1.98341 0
M  V30 12685 C 1166.39 0.926491 3.34091 0
M  V30 12686 C 1165.45 2.09769 3.7456 0
M  V30 12687 C 1164.68 1.82262 5.01614 0
M  V30 12688 O 1164.9 0.759329 5.65323 0
M  V30 12689 O 1163.84 2.68031 5.38928 0
M  V30 12690 H 1167.66 2.17335 2.1213 0
M  V30 12691 H 1165.25 1.11401 0.995499 0
M  V30 12692 H 1167.13 0.78144 4.14091 0
M  V30 12693 H 1165.81 -0.00155829 3.237 0
M  V30 12694 H 1164.71 2.29816 2.95187 0
M  V30 12695 H 1166.05 3.0081 3.89582 0
M  V30 12696 N 1167.7 -1.08142 1.14644 0
M  V30 12697 C 1168.61 -2.18675 0.849607 0
M  V30 12698 C 1169.63 -1.73158 -0.170983 0
M  V30 12699 O 1170.8 -2.014 0.0011579 0
M  V30 12700 C 1167.87 -3.45084 0.334305 0
M  V30 12701 C 1166.93 -4.05213 1.41779 0
M  V30 12702 C 1166.16 -5.25588 0.926981 0
M  V30 12703 O 1166.38 -5.69934 -0.230522 0
M  V30 12704 O 1165.32 -5.77183 1.70715 0
M  V30 12705 H 1169.14 -2.46542 1.77343 0
M  V30 12706 H 1166.73 -1.17328 0.924911 0
M  V30 12707 H 1168.61 -4.21367 0.0529893 0
M  V30 12708 H 1167.29 -3.18788 -0.561755 0
M  V30 12709 H 1166.19 -3.30507 1.7526 0
M  V30 12710 H 1167.53 -4.35764 2.28847 0
M  V30 12711 N 1169.18 -0.941978 -1.26351 0
M  V30 12712 C 1170.41 -0.606748 -1.97803 0
M  V30 12713 C 1170.82 0.818441 -1.70138 0
M  V30 12714 O 1170.18 1.54583 -0.970076 0
M  V30 12715 C 1170.23 -0.840431 -3.51595 0
M  V30 12716 O 1169.95 -2.20957 -3.78299 0
M  V30 12717 C 1171.45 -0.515855 -4.40288 0
M  V30 12718 H 1168.67 -0.228591 -0.630862 0
M  V30 12719 H 1171.21 -1.2629 -1.60845 0
M  V30 12720 H 1169.37 -0.230875 -3.86711 0
M  V30 12721 H 1169.78 -2.2702 -4.72824 0
M  V30 12722 H 1171.26 -0.72998 -5.47152 0
M  V30 12723 H 1171.73 0.549178 -4.35753 0
M  V30 12724 H 1172.34 -1.10417 -4.10717 0
M  V30 12725 N 1170.66 1.40747 -0.709091 0
M  V30 12726 C 1171.62 2.29118 -0.0611607 0
M  V30 12727 C 1172.62 1.45049 0.694081 0
M  V30 12728 O 1173.81 1.66039 0.526952 0
M  V30 12729 C 1170.94 3.28154 0.923447 0
M  V30 12730 H 1172.13 2.87913 -0.839413 0
M  V30 12731 H 1169.69 1.4896 -0.473363 0
M  V30 12732 H 1170.42 2.74366 1.72899 0
M  V30 12733 H 1170.21 3.90207 0.384862 0
M  V30 12734 H 1171.7 3.94343 1.37417 0
M  V30 12735 N 1172.13 0.454803 1.50895 0
M  V30 12736 C 1173.08 -0.347769 2.28165 0
M  V30 12737 C 1174.05 -1.00158 1.32505 0
M  V30 12738 O 1175.24 -1.01715 1.61427 0
M  V30 12739 C 1172.38 -1.43315 3.13934 0
M  V30 12740 C 1171.49 -0.795736 4.24608 0
M  V30 12741 C 1170.62 -1.85763 4.9766 0
M  V30 12742 C 1169.66 -1.19959 6.0023 0
M  V30 12743 N 1168.8 -2.20361 6.66622 0
M  V30 12744 H 1173.64 0.317493 2.96304 0
M  V30 12745 H 1171.18 0.168418 1.46133 0
M  V30 12746 H 1173.13 -2.07391 3.62001 0
M  V30 12747 H 1171.76 -2.0678 2.47875 0
M  V30 12748 H 1170.82 -0.0428173 3.80376 0
M  V30 12749 H 1172.13 -0.275477 4.98039 0
M  V30 12750 H 1171.28 -2.5746 5.49363 0
M  V30 12751 H 1170.02 -2.41166 4.23899 0
M  V30 12752 H 1169.03 -0.46817 5.47803 0
M  V30 12753 H 1170.25 -0.652666 6.75956 0
M  V30 12754 H 1168.2 -2.74812 5.95663 0
M  V30 12755 H 1168.11 -1.73275 7.35875 0
M  V30 12756 H 1169.38 -2.91488 7.22949 0
M  V30 12757 N 1173.61 -1.56489 0.186789 0
M  V30 12758 C 1174.52 -2.22304 -0.749543 0
M  V30 12759 C 1175.54 -1.21949 -1.24115 0
M  V30 12760 O 1176.71 -1.5466 -1.29005 0
M  V30 12761 C 1173.78 -2.863 -1.95533 0
M  V30 12762 C 1172.84 -4.01901 -1.5091 0
M  V30 12763 C 1172.07 -4.62837 -2.6574 0
M  V30 12764 O 1172.3 -4.22681 -3.8301 0
M  V30 12765 O 1171.23 -5.52446 -2.38929 0
M  V30 12766 H 1175.06 -3.02909 -0.21908 0
M  V30 12767 H 1172.64 -1.49341 -0.0421249 0
M  V30 12768 H 1174.52 -3.2682 -2.6602 0
M  V30 12769 H 1173.2 -2.08681 -2.47455 0
M  V30 12770 H 1172.1 -3.66021 -0.773261 0
M  V30 12771 H 1173.44 -4.8116 -1.03663 0
M  V30 12772 N 1175.09 0.086862 -1.5736 0
M  V30 12773 C 1176.31 0.806017 -1.91097 0
M  V30 12774 C 1176.74 1.71082 -0.78183 0
M  V30 12775 O 1176.1 1.79335 0.266175 0
M  V30 12776 C 1176.15 1.5884 -3.23732 0
M  V30 12777 O 1175.25 2.69798 -3.11902 0
M  V30 12778 H 1174.59 0.220899 -0.626179 0
M  V30 12779 H 1177.12 0.059619 -2.04513 0
M  V30 12780 H 1177.13 1.97088 -3.5724 0
M  V30 12781 H 1175.81 0.924426 -4.05496 0
M  V30 12782 H 1174.38 2.34519 -2.89923 0
M  V30 12783 N 1176.57 1.53483 0.357892 0
M  V30 12784 C 1177.8 1.73956 1.12013 0
M  V30 12785 C 1178.21 0.472053 1.82803 0
M  V30 12786 O 1177.57 -0.555499 1.7384 0
M  V30 12787 C 1177.62 2.91015 2.14459 0
M  V30 12788 O 1177.34 4.12862 1.4655 0
M  V30 12789 C 1178.84 3.23423 3.0317 0
M  V30 12790 H 1176.06 0.58161 0.334621 0
M  V30 12791 H 1178.6 2.00256 0.414467 0
M  V30 12792 H 1176.76 2.67087 2.80612 0
M  V30 12793 H 1177.17 4.78468 2.14869 0
M  V30 12794 H 1178.65 4.08717 3.71018 0
M  V30 12795 H 1179.12 2.39114 3.68404 0
M  V30 12796 H 1179.73 3.49305 2.42624 0
M  V30 12797 N 1178.05 -0.61812 1.44973 0
M  V30 12798 C 1179.01 -1.71135 1.52465 0
M  V30 12799 C 1180.01 -1.5561 0.405246 0
M  V30 12800 O 1181.2 -1.60869 0.668351 0
M  V30 12801 C 1178.33 -3.10324 1.41108 0
M  V30 12802 H 1179.52 -1.65862 2.49859 0
M  V30 12803 H 1177.08 -0.832932 1.32257 0
M  V30 12804 H 1177.81 -3.21183 0.448574 0
M  V30 12805 H 1177.6 -3.23001 2.2229 0
M  V30 12806 H 1179.09 -3.89976 1.49361 0
M  V30 12807 N 1179.52 -1.32087 -0.859693 0
M  V30 12808 C 1180.43 -1.22587 -2.00024 0
M  V30 12809 C 1181.45 -0.140477 -1.73432 0
M  V30 12810 O 1182.63 -0.360213 -1.98153 0
M  V30 12811 C 1179.69 -0.944195 -3.33595 0
M  V30 12812 C 1178.75 -2.11752 -3.73443 0
M  V30 12813 C 1177.98 -1.84919 -5.0064 0
M  V30 12814 O 1178.21 -0.789299 -5.64913 0
M  V30 12815 O 1177.14 -2.70885 -5.37499 0
M  V30 12816 H 1180.97 -2.18457 -2.10974 0
M  V30 12817 H 1178.55 -1.11927 -0.989577 0
M  V30 12818 H 1180.43 -0.803389 -4.13671 0
M  V30 12819 H 1179.11 -0.0156083 -3.23696 0
M  V30 12820 H 1178.02 -2.31378 -2.93965 0
M  V30 12821 H 1179.35 -3.02872 -3.87981 0
M  V30 12822 N 1181 1.07532 -1.15215 0
M  V30 12823 C 1181.95 2.14687 -0.847243 0
M  V30 12824 C 1182.92 1.64903 0.199043 0
M  V30 12825 O 1184.1 1.90682 0.0669986 0
M  V30 12826 C 1181.24 3.43414 -0.340673 0
M  V30 12827 C 1180.36 4.06999 -1.44831 0
M  V30 12828 C 1179.49 5.23554 -0.898059 0
M  V30 12829 C 1178.53 5.79097 -1.98276 0
M  V30 12830 N 1177.67 6.86985 -1.44902 0
M  V30 12831 H 1182.51 2.4011 -1.76498 0
M  V30 12832 H 1180.04 1.17823 -0.880689 0
M  V30 12833 H 1182 4.1719 -0.0286956 0
M  V30 12834 H 1180.63 3.18249 0.540144 0
M  V30 12835 H 1179.68 3.30895 -1.87651 0
M  V30 12836 H 1181 4.44289 -2.26735 0
M  V30 12837 H 1180.15 6.04305 -0.538514 0
M  V30 12838 H 1178.89 4.87676 -0.0481752 0
M  V30 12839 H 1177.89 4.96992 -2.35115 0
M  V30 12840 H 1179.12 6.1703 -2.83639 0
M  V30 12841 H 1177.07 6.5305 -0.621468 0
M  V30 12842 H 1176.98 7.23149 -2.20434 0
M  V30 12843 H 1178.25 7.71446 -1.11767 0
M  V30 12844 N 1182.48 0.948665 1.2585 0
M  V30 12845 C 1183.76 0.517832 1.88621 0
M  V30 12846 C 1184.14 -1.00477 1.85654 0
M  V30 12847 O 1183.49 -1.868 1.31598 0
M  V30 12848 C 1183.7 1.08768 3.31618 0
M  V30 12849 C 1185.04 1.16089 4.08422 0
M  V30 12850 O 1186.07 1.0388 3.40716 0
M  V30 12851 O 1184.93 1.35172 5.29519 0
M  V30 12852 H 1182.02 0.169916 0.809356 0
M  V30 12853 H 1184.57 1.04171 1.33964 0
M  V30 12854 H 1183.34 2.13109 3.28177 0
M  V30 12855 H 1182.96 0.54669 3.93824 0
M  V30 12856 N 1183.96 -1.40369 0.716545 0
M  V30 12857 C 1184.87 -2.34508 0.065658 0
M  V30 12858 C 1185.88 -1.57352 -0.742723 0
M  V30 12859 O 1187.06 -1.89735 -0.675456 0
M  V30 12860 C 1184.13 -3.36262 -0.844337 0
M  V30 12861 C 1183.19 -4.29292 -0.0257971 0
M  V30 12862 C 1182.42 -5.26185 -0.892452 0
M  V30 12863 O 1182.64 -5.29071 -2.13166 0
M  V30 12864 O 1181.58 -6.0099 -0.330933 0
M  V30 12865 H 1185.4 -2.91789 0.842184 0
M  V30 12866 H 1182.99 -1.41579 0.477034 0
M  V30 12867 H 1184.87 -3.98661 -1.36555 0
M  V30 12868 H 1183.54 -2.81393 -1.59999 0
M  V30 12869 H 1182.45 -3.70175 0.540512 0
M  V30 12870 H 1183.78 -4.87316 0.69166 0
M  V30 12871 N 1185.44 -0.462799 -1.50652 0
M  V30 12872 C 1186.37 0.325724 -2.31217 0
M  V30 12873 C 1187.35 0.997942 -1.3775 0
M  V30 12874 O 1188.53 0.996707 -1.66671 0
M  V30 12875 C 1185.66 1.41283 -3.17264 0
M  V30 12876 C 1184.62 0.862687 -4.19216 0
M  V30 12877 C 1183.94 2.04746 -4.93946 0
M  V30 12878 C 1185.24 -0.120365 -5.22161 0
M  V30 12879 H 1186.94 -0.346666 -2.97386 0
M  V30 12880 H 1184.48 -0.168163 -1.43015 0
M  V30 12881 H 1186.44 1.97188 -3.72418 0
M  V30 12882 H 1185.16 2.11387 -2.48964 0
M  V30 12883 H 1183.82 0.325671 -3.65151 0
M  V30 12884 H 1183.47 2.73529 -4.22127 0
M  V30 12885 H 1183.17 1.68562 -5.62904 0
M  V30 12886 H 1184.69 2.61157 -5.51932 0
M  V30 12887 H 1186.1 0.349226 -5.72235 0
M  V30 12888 H 1184.5 -0.396061 -5.98792 0
M  V30 12889 H 1185.57 -1.04895 -4.73418 0
M  V30 12890 O 1186.95 1.57957 -0.336416 0
M  V30 12891 H 1187.64 1.92439 0.220641 0
M  V30 END ATOM
M  V30 BEGIN BOND
M  V30 END BOND
M  V30 END CTAB
M  END
$$$$
