drugbank_target|Q53ET4 Serine hydroxymethyltransferase (DB00114; DB00116; DB00145)
 OpenBabel12092120063D

  0  0  0     0  0            999 V3000
M  V30 BEGIN CTAB
M  V30 COUNTS 7870 7951 0 0 0
M  V30 BEGIN ATOM
M  V30 1 H -0.908 1.98254 -0.117106 0
M  V30 2 N 0 1.576 0 0
M  V30 3 C 0.933 2.03868 1.02534 0
M  V30 4 C 1.911 0.928543 1.3348 0
M  V30 5 O 3.095 1.19667 1.45644 0
M  V30 6 C 0.222 2.43627 2.35294 0
M  V30 7 C -0.732 3.65373 2.2001 0
M  V30 8 S 0.101 5.13292 1.52614 0
M  V30 9 C 1.257 5.56322 2.86805 0
M  V30 10 H 1.49 2.90518 0.631377 0
M  V30 11 H -0.977 1.52953 0.210867 0
M  V30 12 H 0.981 2.67203 3.11629 0
M  V30 13 H -0.358 1.57376 2.7183 0
M  V30 14 H -1.165 3.90944 3.18086 0
M  V30 15 H -1.563 3.418 1.51819 0
M  V30 16 H 0.729 5.58782 3.83104 0
M  V30 17 H 1.672 6.56266 2.65933 0
M  V30 18 H 2.08 4.83886 2.90714 0
M  V30 19 N 1.4781 -0.272755 1.55222 0
M  V30 20 C 2.4081 -1.34136 1.91127 0
M  V30 21 C 3.3891 -1.51513 0.773168 0
M  V30 22 O 4.5741 -1.64552 1.03132 0
M  V30 23 C 1.7041 -2.70083 2.1834 0
M  V30 24 C 0.6581 -2.67437 3.34158 0
M  V30 25 C -0.0159 -4.06938 3.46851 0
M  V30 26 C 1.2841 -2.26686 4.70543 0
M  V30 27 H 2.9781 -1.04333 2.80633 0
M  V30 28 H 0.5241 -0.500454 1.35024 0
M  V30 29 H 2.4771 -3.44952 2.42046 0
M  V30 30 H 1.2011 -3.01469 1.25634 0
M  V30 31 H -0.1399 -1.95026 3.1042 0
M  V30 32 H -0.4919 -4.35547 2.51611 0
M  V30 33 H -0.7919 -4.06062 4.2472 0
M  V30 34 H 0.7321 -4.83545 3.72849 0
M  V30 35 H 2.1461 -2.91277 4.93792 0
M  V30 36 H 0.5431 -2.36971 5.5133 0
M  V30 37 H 1.6131 -1.21818 4.69349 0
M  V30 38 N 2.9562 -1.48159 -0.537278 0
M  V30 39 C 4.1862 -1.59223 -1.3165 0
M  V30 40 C 4.5942 -0.248849 -1.87556 0
M  V30 41 O 3.9372 0.770949 -1.6674 0
M  V30 42 C 3.9992 -2.57365 -2.51005 0
M  V30 43 C 3.6632 -4.02603 -2.16239 0
M  V30 44 C 4.6602 -4.90503 -1.72344 0
M  V30 45 C 2.3452 -4.48088 -2.26986 0
M  V30 46 C 4.3392 -6.21913 -1.39651 0
M  V30 47 C 2.0262 -5.7952 -1.93906 0
M  V30 48 C 3.0242 -6.66255 -1.50309 0
M  V30 49 O 2.7122 -7.95243 -1.17659 0
M  V30 50 H 2.4442 -0.539831 -0.406889 0
M  V30 51 H 4.9982 -1.94655 -0.655641 0
M  V30 52 H 3.2282 -2.1704 -3.20048 0
M  V30 53 H 4.9172 -2.58342 -3.13072 0
M  V30 54 H 5.6832 -4.56604 -1.63517 0
M  V30 55 H 1.5622 -3.80769 -2.59877 0
M  V30 56 H 5.1062 -6.89569 -1.0555 0
M  V30 57 H 1.0032 -6.12957 -2.02371 0
M  V30 58 H 1.7712 -8.0793 -1.31119 0
M  V30 59 N 4.4343 0.785586 -1.36625 0
M  V30 60 C 5.6813 1.54362 -1.31067 0
M  V30 61 C 6.0093 1.94195 0.10893 0
M  V30 62 O 5.2643 1.63262 1.07908 0
M  V30 63 C 5.5633 2.83007 -2.1827 0
M  V30 64 C 5.2293 2.62294 -3.6676 0
M  V30 65 C 3.8913 2.56353 -4.0723 0
M  V30 66 C 6.2433 2.43371 -4.6089 0
M  V30 67 C 3.5713 2.29461 -5.39967 0
M  V30 68 C 5.9233 2.18005 -5.93849 0
M  V30 69 C 4.5873 2.105 -6.3344 0
M  V30 70 H 3.8573 0.564851 -0.479609 0
M  V30 71 H 6.5043 0.906028 -1.68711 0
M  V30 72 H 4.8093 3.51253 -1.73576 0
M  V30 73 H 6.5063 3.40817 -2.11292 0
M  V30 74 H 3.0963 2.67774 -3.34656 0
M  V30 75 H 7.2803 2.46959 -4.30494 0
M  V30 76 H 2.5363 2.22135 -5.69619 0
M  V30 77 H 6.7103 2.02359 -6.66351 0
M  V30 78 H 4.3373 1.89425 -7.36222 0
M  V30 79 N 5.9124 1.20967 1.01018 0
M  V30 80 C 7.1374 1.0503 1.78839 0
M  V30 81 C 7.5624 -0.395752 1.8389 0
M  V30 82 O 6.9204 -1.28529 1.27867 0
M  V30 83 C 6.9684 1.64602 3.2084 0
M  V30 84 O 6.0724 0.887988 4.02726 0
M  V30 85 H 5.4134 0.369987 0.551367 0
M  V30 86 H 7.9434 1.60399 1.27018 0
M  V30 87 H 7.9534 1.68607 3.71532 0
M  V30 88 H 6.6284 2.69841 3.16479 0
M  V30 89 H 5.2054 0.922648 3.61305 0
M  V30 90 N 7.3905 -1.2043 1.01659 0
M  V30 91 C 8.3205 -2.25466 0.607226 0
M  V30 92 C 9.3015 -1.65853 -0.377716 0
M  V30 93 O 10.4865 -1.92409 -0.263149 0
M  V30 94 C 7.6165 -3.47256 -0.0552949 0
M  V30 95 C 6.5705 -4.19462 0.850632 0
M  V30 96 C 5.8965 -5.34673 0.0538859 0
M  V30 97 C 7.1965 -4.75603 2.15868 0
M  V30 98 H 8.8905 -2.59962 1.48526 0
M  V30 99 H 6.4365 -1.2496 0.715605 0
M  V30 100 H 8.3895 -4.19917 -0.353233 0
M  V30 101 H 7.1135 -3.11924 -0.968045 0
M  V30 102 H 5.7725 -3.48667 1.13257 0
M  V30 103 H 5.4205 -4.95585 -0.860514 0
M  V30 104 H 5.1205 -5.83913 0.657192 0
M  V30 105 H 6.6445 -6.10138 -0.237598 0
M  V30 106 H 8.0585 -5.40083 1.92311 0
M  V30 107 H 6.4555 -5.3528 2.71284 0
M  V30 108 H 7.5255 -3.94346 2.82169 0
M  V30 109 N 8.8686 -0.792821 -1.36206 0
M  V30 110 C 10.1156 -0.366786 -1.99151 0
M  V30 111 C 10.4436 1.06243 -1.62919 0
M  V30 112 O 9.6986 1.74927 -0.877442 0
M  V30 113 C 9.9976 -0.481501 -3.54142 0
M  V30 114 C 9.6636 -1.87202 -4.10203 0
M  V30 115 C 8.3256 -2.25248 -4.25226 0
M  V30 116 C 10.6776 -2.78237 -4.40719 0
M  V30 117 C 8.0056 -3.53723 -4.68078 0
M  V30 118 C 10.3576 -4.06144 -4.85005 0
M  V30 119 C 9.0216 -4.44207 -4.98234 0
M  V30 120 H 8.2916 -0.134217 -0.728743 0
M  V30 121 H 10.9386 -1.01094 -1.62641 0
M  V30 122 H 9.2436 0.246146 -3.91026 0
M  V30 123 H 10.9406 -0.132844 -4.0078 0
M  V30 124 H 7.5306 -1.56639 -3.98951 0
M  V30 125 H 11.7146 -2.50097 -4.28679 0
M  V30 126 H 6.9706 -3.8308 -4.76508 0
M  V30 127 H 11.1446 -4.76796 -5.07581 0
M  V30 128 H 8.7716 -5.43814 -5.31197 0
M  V30 129 N 10.3467 1.47872 -0.545128 0
M  V30 130 C 11.5927 2.03385 -0.0247951 0
M  V30 131 C 11.9477 1.41325 1.30556 0
M  V30 132 O 11.2407 0.5552 1.8338 0
M  V30 133 C 11.4347 3.57131 0.13867 0
M  V30 134 C 11.2637 4.34097 -1.17429 0
M  V30 135 C 10.0337 4.74458 -1.73831 0
M  V30 136 C 12.2317 4.6998 -2.08861 0
M  V30 137 N 10.2137 5.3602 -2.99258 0
M  V30 138 C 11.5847 5.31719 -3.18866 0
M  V30 139 C 13.6397 4.5191 -2.09003 0
M  V30 140 C 12.3427 5.77295 -4.29096 0
M  V30 141 C 14.3687 4.98477 -3.18237 0
M  V30 142 C 13.7307 5.60253 -4.26961 0
M  V30 143 H 9.8297 0.780339 -0.050943 0
M  V30 144 H 12.4137 1.80507 -0.729753 0
M  V30 145 H 10.5847 3.79802 0.812733 0
M  V30 146 H 12.3167 3.99282 0.659976 0
M  V30 147 H 9.0717 4.56037 -1.2778 0
M  V30 148 H 9.4957 5.71355 -3.63157 0
M  V30 149 H 14.1377 4.03516 -1.26234 0
M  V30 150 H 11.8557 6.24687 -5.12633 0
M  V30 151 H 15.4417 4.86274 -3.1942 0
M  V30 152 H 14.3217 5.95631 -5.10091 0
M  V30 153 N 11.8248 0.280983 1.55075 0
M  V30 154 C 12.7878 -0.590896 2.21452 0
M  V30 155 C 13.7878 -1.07682 1.19421 0
M  V30 156 O 14.9778 -0.97605 1.44288 0
M  V30 157 C 12.1098 -1.81587 2.88511 0
M  V30 158 H 13.3028 -0.0112554 2.99898 0
M  V30 159 H 10.8558 0.0316438 1.56268 0
M  V30 160 H 11.5908 -2.43587 2.14093 0
M  V30 161 H 11.3758 -1.4753 3.63287 0
M  V30 162 H 12.8658 -2.43575 3.39206 0
M  V30 163 N 13.3029 -1.57598 0.00835791 0
M  V30 164 C 14.2659 -2.07884 -0.965242 0
M  V30 165 C 15.2659 -0.989825 -1.26725 0
M  V30 166 O 16.4559 -1.25218 -1.21104 0
M  V30 167 C 13.5879 -2.52731 -2.28779 0
M  V30 168 H 14.7809 -2.95178 -0.530112 0
M  V30 169 H 12.3339 -1.54458 -0.239283 0
M  V30 170 H 13.0689 -1.68705 -2.76964 0
M  V30 171 H 12.8539 -3.32272 -2.08177 0
M  V30 172 H 14.3439 -2.91933 -2.98605 0
M  V30 173 N 14.781 0.264519 -1.55364 0
M  V30 174 C 16.197 0.61215 -1.47394 0
M  V30 175 C 16.397 1.89134 -0.695018 0
M  V30 176 O 15.453 2.51563 -0.217275 0
M  V30 177 C 16.766 0.731235 -2.91674 0
M  V30 178 C 18.314 0.82473 -3.01939 0
M  V30 179 C 18.789 0.975522 -4.4749 0
M  V30 180 N 20.28 1.04083 -4.51354 0
M  V30 181 C 21.015 1.17646 -5.61201 0
M  V30 182 N 20.511 1.27874 -6.80896 0
M  V30 183 N 22.304 1.20823 -5.48961 0
M  V30 184 H 14.455 -0.575456 -2.04456 0
M  V30 185 H 16.718 -0.196099 -0.927496 0
M  V30 186 H 16.424 -0.138392 -3.51428 0
M  V30 187 H 16.298 1.60883 -3.41169 0
M  V30 188 H 18.685 1.68482 -2.42276 0
M  V30 189 H 18.766 -0.0776479 -2.55682 0
M  V30 190 H 18.41 0.120058 -5.07758 0
M  V30 191 H 18.34 1.89268 -4.91412 0
M  V30 192 H 20.831 0.973846 -3.65136 0
M  V30 193 H 21.144 1.38081 -7.60364 0
M  V30 194 H 19.489 1.24863 -6.83692 0
M  V30 195 H 22.68 1.12469 -4.54388 0
M  V30 196 H 22.853 1.31049 -6.3461 0
M  V30 197 N 16.2591 1.48442 0.529413 0
M  V30 198 C 17.6701 1.5002 1.11134 0
M  V30 199 C 18.0211 0.27031 1.94329 0
M  V30 200 O 17.1461 -0.622507 2.07253 0
M  V30 201 C 17.7411 2.71834 2.02217 0
M  V30 202 C 16.3001 2.76283 2.55627 0
M  V30 203 C 15.4471 2.43542 1.326 0
M  V30 204 H 18.3981 1.5555 0.314641 0
M  V30 205 H 18.4191 2.50384 2.8651 0
M  V30 206 H 17.9311 3.61331 1.41639 0
M  V30 207 H 16.0321 1.90995 3.19924 0
M  V30 208 H 16.1451 3.77725 2.94721 0
M  V30 209 H 14.5091 1.94709 1.64196 0
M  V30 210 H 15.2921 3.3528 0.737734 0
M  V30 211 N 17.7372 -0.778329 1.37039 0
M  V30 212 C 18.6672 -1.90546 1.34962 0
M  V30 213 C 19.6482 -1.68681 0.219274 0
M  V30 214 O 20.8332 -1.89634 0.418624 0
M  V30 215 C 17.9632 -3.27734 1.14925 0
M  V30 216 C 16.9172 -3.64147 2.24902 0
M  V30 217 C 16.2432 -4.99806 1.89996 0
M  V30 218 C 17.5432 -3.71579 3.67051 0
M  V30 219 H 19.2372 -1.92541 2.29277 0
M  V30 220 H 16.7832 -0.924948 1.10366 0
M  V30 221 H 18.7362 -4.06215 1.12104 0
M  V30 222 H 17.4602 -3.26154 0.170631 0
M  V30 223 H 16.1192 -2.8797 2.26868 0
M  V30 224 H 15.7672 -4.94759 0.906796 0
M  V30 225 H 15.4672 -5.25139 2.63634 0
M  V30 226 H 16.9912 -5.80694 1.88749 0
M  V30 227 H 18.4052 -4.40227 3.67251 0
M  V30 228 H 16.8022 -4.08405 4.39688 0
M  V30 229 H 17.8722 -2.72404 4.01154 0
M  V30 230 N 19.2153 -1.21501 -1.00376 0
M  V30 231 C 20.1473 -0.933174 -2.09343 0
M  V30 232 C 21.1603 0.0840896 -1.62583 0
M  V30 233 O 22.3493 -0.148563 -1.77881 0
M  V30 234 C 19.4493 -0.379869 -3.36764 0
M  V30 235 C 18.6223 -1.45176 -4.12605 0
M  V30 236 C 17.6813 -0.907476 -5.18316 0
M  V30 237 O 16.7073 -1.5912 -5.46507 0
M  V30 238 N 17.9093 0.276649 -5.7984 0
M  V30 239 H 20.6743 -1.87124 -2.34104 0
M  V30 240 H 18.2353 -1.12043 -1.16867 0
M  V30 241 H 20.2273 -0.00131488 -4.047 0
M  V30 242 H 18.7973 0.463048 -3.09151 0
M  V30 243 H 18.0173 -2.00411 -3.39454 0
M  V30 244 H 19.3053 -2.17328 -4.6005 0
M  V30 245 H 18.7033 0.849147 -5.59291 0
M  V30 246 H 17.2603 0.596702 -6.49063 0
M  V30 247 N 20.6934 1.19889 -1.02296 0
M  V30 248 C 22.1094 1.41462 -0.738954 0
M  V30 249 C 22.3094 1.89721 0.678846 0
M  V30 250 O 21.3654 2.07016 1.4457 0
M  V30 251 C 22.6784 2.43083 -1.77005 0
M  V30 252 C 24.2264 2.5684 -1.78892 0
M  V30 253 C 24.7014 3.61709 -2.80945 0
M  V30 254 N 26.1924 3.69199 -2.79725 0
M  V30 255 C 26.9274 4.50019 -3.55345 0
M  V30 256 N 26.4234 5.34592 -4.40662 0
M  V30 257 N 28.2164 4.44612 -3.43914 0
M  V30 258 H 20.3674 0.868827 -1.93817 0
M  V30 259 H 22.6304 0.44399 -0.837602 0
M  V30 260 H 22.3364 2.14636 -2.78612 0
M  V30 261 H 22.2104 3.4217 -1.58744 0
M  V30 262 H 24.5974 2.84614 -0.779674 0
M  V30 263 H 24.6784 1.57927 -2.01228 0
M  V30 264 H 24.3224 3.34678 -3.82038 0
M  V30 265 H 24.2524 4.60259 -2.5587 0
M  V30 266 H 26.7434 3.08794 -2.17842 0
M  V30 267 H 27.0564 5.93363 -4.95116 0
M  V30 268 H 25.4014 5.34073 -4.44737 0
M  V30 269 H 28.5924 3.7758 -2.76679 0
M  V30 270 H 28.7654 5.0736 -4.031 0
M  V30 271 N 22.1715 0.800033 1.35784 0
M  V30 272 C 23.4115 0.382891 2.00782 0
M  V30 273 C 23.7755 -1.02891 1.62103 0
M  V30 274 O 24.9765 -1.54771 2.19771 0
M  V30 275 C 23.2475 0.553299 3.53091 0
M  V30 276 S 24.8065 0.225608 4.3822 0
M  V30 277 H 21.6245 0.145737 0.695904 0
M  V30 278 H 24.2265 1.04085 1.65489 0
M  V30 279 H 22.9305 1.58091 3.78729 0
M  V30 280 H 22.4615 -0.120214 3.93216 0
M  V30 281 H 24.4765 -0.969074 4.86645 0
M  V30 282 N 23.6496 -1.47581 0.552962 0
M  V30 283 C 24.8976 -2.02082 0.0272703 0
M  V30 284 C 25.2186 -1.4301 -1.32563 0
M  V30 285 O 24.4886 -0.603745 -1.86365 0
M  V30 286 H 23.0686 -0.746966 0.00709182 0
M  V30 287 H 25.7306 -1.81033 0.722008 0
M  V30 288 H 24.8266 -3.12034 -0.0639951 0
M  V30 289 N 25.1277 -0.289203 -1.54924 0
M  V30 290 C 26.0597 0.625583 -2.20497 0
M  V30 291 C 27.0727 1.10667 -1.19402 0
M  V30 292 O 28.2617 1.02615 -1.46056 0
M  V30 293 C 25.3617 1.86702 -2.82835 0
M  V30 294 C 24.5347 1.5304 -4.09753 0
M  V30 295 C 23.5937 2.62576 -4.56005 0
M  V30 296 O 22.6197 2.28167 -5.21468 0
M  V30 297 N 23.8217 3.92901 -4.27328 0
M  V30 298 H 26.5867 0.0642801 -2.99631 0
M  V30 299 H 24.1477 -0.110896 -1.6152 0
M  V30 300 H 26.1397 2.59304 -3.10715 0
M  V30 301 H 24.7097 2.33702 -2.07611 0
M  V30 302 H 23.9297 0.637564 -3.8901 0
M  V30 303 H 25.2177 1.28072 -4.92418 0
M  V30 304 H 24.6157 4.23671 -3.74859 0
M  V30 305 H 23.1727 4.61837 -4.59946 0
M  V30 306 N 26.6058 1.57591 -0.0167156 0
M  V30 307 C 27.5358 2.12496 0.967858 0
M  V30 308 C 28.5168 1.03807 1.34752 0
M  V30 309 O 29.7018 1.31577 1.42833 0
M  V30 310 C 26.8318 2.64194 2.25431 0
M  V30 311 C 25.7858 3.77559 2.01576 0
M  V30 312 C 25.1118 4.15636 3.36379 0
M  V30 313 C 26.4118 5.04151 1.36489 0
M  V30 314 H 28.1058 2.95013 0.510643 0
M  V30 315 H 25.6518 1.41915 0.244181 0
M  V30 316 H 27.6048 3.01236 2.94678 0
M  V30 317 H 26.3288 1.78821 2.73296 0
M  V30 318 H 24.9878 3.40937 1.34751 0
M  V30 319 H 24.6358 3.27263 3.81979 0
M  V30 320 H 24.3358 4.92022 3.21229 0
M  V30 321 H 25.8598 4.5525 4.06915 0
M  V30 322 H 27.2738 5.38857 1.95718 0
M  V30 323 H 25.6708 5.85453 1.31776 0
M  V30 324 H 26.7408 4.83733 0.336219 0
M  V30 325 N 28.0839 -0.256276 1.55502 0
M  V30 326 C 29.3299 -0.987079 1.77157 0
M  V30 327 C 29.6629 -1.85327 0.580315 0
M  V30 328 O 28.9379 -1.89874 -0.421686 0
M  V30 329 C 29.2209 -1.85553 3.08613 0
M  V30 330 C 29.0739 -1.01816 4.38125 0
M  V30 331 C 30.3929 -2.8397 3.36228 0
M  V30 332 H 27.5119 -0.357428 0.644526 0
M  V30 333 H 30.1539 -0.258239 1.88237 0
M  V30 334 H 28.3039 -2.47695 2.99298 0
M  V30 335 H 29.9759 -0.416159 4.59419 0
M  V30 336 H 28.2189 -0.322178 4.32602 0
M  V30 337 H 28.8899 -1.65939 5.26468 0
M  V30 338 H 31.3659 -2.31964 3.45445 0
M  V30 339 H 30.2419 -3.41864 4.29442 0
M  V30 340 H 30.5029 -3.59955 2.56681 0
M  V30 341 N 29.562 -1.4872 -0.521534 0
M  V30 342 C 30.978 -1.35028 -0.850855 0
M  V30 343 C 31.178 -0.367712 -1.98116 0
M  V30 344 O 30.234 0.208037 -2.51642 0
M  V30 345 C 31.547 -2.75263 -1.21041 0
M  V30 346 C 33.095 -2.83813 -1.31981 0
M  V30 347 C 33.57 -4.24769 -1.71276 0
M  V30 348 N 35.061 -4.27482 -1.78363 0
M  V30 349 C 35.796 -5.33494 -2.1017 0
M  V30 350 N 35.292 -6.49775 -2.40343 0
M  V30 351 N 37.085 -5.20894 -2.11248 0
M  V30 352 H 29.236 -2.11214 0.22413 0
M  V30 353 H 31.499 -0.947252 0.0376439 0
M  V30 354 H 31.205 -3.48765 -0.453415 0
M  V30 355 H 31.079 -3.09327 -2.15863 0
M  V30 356 H 33.466 -2.10561 -2.06756 0
M  V30 357 H 33.547 -2.53358 -0.352596 0
M  V30 358 H 33.191 -4.9854 -0.970588 0
M  V30 359 H 33.121 -4.52673 -2.69062 0
M  V30 360 H 35.612 -3.43611 -1.57288 0
M  V30 361 H 35.925 -7.26402 -2.63743 0
M  V30 362 H 34.27 -6.53035 -2.37844 0
M  V30 363 H 37.461 -4.29065 -1.87139 0
M  V30 364 H 37.634 -6.03612 -2.35704 0
M  V30 365 N 31.0401 0.771051 -1.3745 0
M  V30 366 C 31.9731 1.89166 -1.27638 0
M  V30 367 C 32.9511 1.61842 -0.156782 0
M  V30 368 O 34.1351 1.85569 -0.331111 0
M  V30 369 C 31.2621 3.24405 -0.973621 0
M  V30 370 C 30.3081 3.70638 -2.1102 0
M  V30 371 S 31.1411 3.84228 -3.73 0
M  V30 372 C 32.2971 5.22313 -3.44876 0
M  V30 373 H 32.5301 1.972 -2.22485 0
M  V30 374 H 30.0631 0.932224 -1.23081 0
M  V30 375 H 32.0211 4.02514 -0.805766 0
M  V30 376 H 30.6821 3.14071 -0.0426279 0
M  V30 377 H 29.8751 4.68685 -1.85338 0
M  V30 378 H 29.4771 2.99632 -2.23822 0
M  V30 379 H 31.7691 6.07505 -2.99908 0
M  V30 380 H 32.7121 5.53008 -4.42253 0
M  V30 381 H 33.1201 4.90284 -2.79789 0
M  V30 382 N 32.5182 1.22032 0.997298 0
M  V30 383 C 33.4812 0.987909 2.06816 0
M  V30 384 C 34.4812 -0.0440084 1.6074 0
M  V30 385 O 35.6712 0.194053 1.73116 0
M  V30 386 C 32.8032 0.49132 3.37341 0
M  V30 387 H 33.9962 1.93803 2.28868 0
M  V30 388 H 31.5492 1.03838 1.16822 0
M  V30 389 H 32.2842 -0.463364 3.20973 0
M  V30 390 H 32.0692 1.23575 3.72118 0
M  V30 391 H 33.5592 0.348824 4.16141 0
M  V30 392 N 33.9963 -1.19345 1.0293 0
M  V30 393 C 35.2453 -1.88363 0.721256 0
M  V30 394 C 35.5583 -1.80514 -0.753254 0
M  V30 395 O 36.7643 -2.44788 -1.17436 0
M  V30 396 C 35.2203 -3.37872 1.23978 0
M  V30 397 C 34.8283 -3.54278 2.74211 0
M  V30 398 C 36.5723 -4.12365 1.00775 0
M  V30 399 C 34.4793 -4.97682 3.19479 0
M  V30 400 H 33.4093 -0.705484 0.266098 0
M  V30 401 H 36.0603 -1.34928 1.24365 0
M  V30 402 H 34.4423 -3.90707 0.6453 0
M  V30 403 H 35.6163 -3.11769 3.39318 0
M  V30 404 H 33.9313 -2.93174 2.95699 0
M  V30 405 H 36.5283 -5.18119 1.32123 0
M  V30 406 H 36.8713 -4.16263 -0.0554308 0
M  V30 407 H 37.4043 -3.65668 1.56625 0
M  V30 408 H 34.1433 -4.98945 4.25128 0
M  V30 409 H 33.6633 -5.4095 2.591 0
M  V30 410 H 35.3423 -5.66337 3.12845 0
M  V30 411 N 35.4744 -0.807222 -1.35358 0
M  V30 412 C 36.8904 -0.491038 -1.51858 0
M  V30 413 C 37.0904 0.987648 -1.75635 0
M  V30 414 O 36.1464 1.77265 -1.79815 0
M  V30 415 C 37.4594 -1.33695 -2.69344 0
M  V30 416 C 39.0074 -1.33246 -2.83222 0
M  V30 417 C 39.4824 -2.1625 -4.03733 0
M  V30 418 N 40.9734 -2.1379 -4.10911 0
M  V30 419 C 41.7084 -2.74772 -5.03277 0
M  V30 420 N 41.2044 -3.44684 -6.0097 0
M  V30 421 N 42.9974 -2.6441 -4.96028 0
M  V30 422 H 35.1484 -1.76485 -1.18181 0
M  V30 423 H 37.4114 -0.751199 -0.578276 0
M  V30 424 H 37.1174 -2.38634 -2.58354 0
M  V30 425 H 36.9914 -0.990618 -3.6396 0
M  V30 426 H 39.3784 -0.290911 -2.93663 0
M  V30 427 H 39.4594 -1.71866 -1.89461 0
M  V30 428 H 39.1034 -3.20445 -3.94052 0
M  V30 429 H 39.0334 -1.74989 -4.96675 0
M  V30 430 H 41.5244 -1.62923 -3.40976 0
M  V30 431 H 41.8374 -3.88501 -6.68047 0
M  V30 432 H 40.1824 -3.48788 -6.01142 0
M  V30 433 H 43.3734 -2.0938 -4.18662 0
M  V30 434 H 43.5464 -3.12225 -5.6782 0
M  V30 435 N 36.9525 1.47285 -0.560781 0
M  V30 436 C 37.9155 2.28535 0.174488 0
M  V30 437 C 38.9155 1.37153 0.839388 0
M  V30 438 O 40.1055 1.59748 0.694702 0
M  V30 439 C 37.2375 3.16934 1.25561 0
M  V30 440 H 38.4305 2.95012 -0.539262 0
M  V30 441 H 35.9835 1.53034 -0.317865 0
M  V30 442 H 36.7185 2.55157 2.00164 0
M  V30 443 H 36.5035 3.8419 0.783604 0
M  V30 444 H 37.9935 3.78143 1.77193 0
M  V30 445 N 38.4306 0.297415 1.54768 0
M  V30 446 C 39.3626 -0.613881 2.20826 0
M  V30 447 C 40.3756 -1.10032 1.19987 0
M  V30 448 O 41.5646 -1.01839 1.46598 0
M  V30 449 C 38.6646 -1.852 2.83821 0
M  V30 450 C 37.8376 -1.50865 4.10559 0
M  V30 451 C 36.8966 -2.60154 4.57391 0
M  V30 452 O 35.9226 -2.25398 5.2267 0
M  V30 453 N 37.1246 -3.90629 4.29406 0
M  V30 454 H 39.8896 -0.048389 2.99661 0
M  V30 455 H 37.4506 0.11946 1.61459 0
M  V30 456 H 39.4426 -2.57652 3.12086 0
M  V30 457 H 38.0126 -2.32597 2.08847 0
M  V30 458 H 37.2326 -0.616925 3.89343 0
M  V30 459 H 38.5206 -1.25458 4.9309 0
M  V30 460 H 37.9186 -4.21677 3.77101 0
M  V30 461 H 36.4756 -4.59391 4.62388 0
M  V30 462 N 39.9087 -1.5758 0.0250728 0
M  V30 463 C 40.8587 -2.06468 -0.967201 0
M  V30 464 C 41.8427 -0.964376 -1.28797 0
M  V30 465 O 43.0347 -1.22797 -1.27475 0
M  V30 466 C 40.1637 -2.59203 -2.25097 0
M  V30 467 C 39.2497 -3.76157 -1.95874 0
M  V30 468 N 39.6407 -4.86919 -1.36905 0
M  V30 469 C 37.9387 -3.84566 -2.25887 0
M  V30 470 C 38.6397 -5.68172 -1.24724 0
M  V30 471 N 37.6157 -5.14953 -1.74138 0
M  V30 472 H 41.4177 -2.89508 -0.506176 0
M  V30 473 H 38.9317 -1.61399 -0.18004 0
M  V30 474 H 40.9287 -2.92517 -2.97052 0
M  V30 475 H 39.5887 -1.77592 -2.71829 0
M  V30 476 H 40.5997 -5.07256 -1.04459 0
M  V30 477 H 37.2767 -3.13854 -2.75321 0
M  V30 478 H 38.6667 -6.67221 -0.791605 0
M  V30 479 N 41.3868 0.248026 -1.55636 0
M  V30 480 C 42.6118 0.998028 -1.81808 0
M  V30 481 C 43.0368 1.78207 -0.601979 0
M  V30 482 O 42.3948 1.75653 0.448961 0
M  V30 483 C 42.4428 1.9125 -3.05705 0
M  V30 484 O 41.5468 3.00406 -2.82542 0
M  V30 485 H 40.8878 0.284045 -0.600179 0
M  V30 486 H 43.4178 0.269357 -2.02819 0
M  V30 487 H 43.4278 2.32737 -3.35108 0
M  V30 488 H 42.1028 1.33602 -3.93857 0
M  V30 489 H 40.6798 2.63056 -2.64303 0
M  V30 490 N 42.8649 1.48995 0.513639 0
M  V30 491 C 43.8129 1.65199 1.63744 0
M  V30 492 C 44.8069 0.51809 1.61283 0
M  V30 493 O 46.0129 0.697335 1.65943 0
M  V30 494 H 42.3879 0.52069 0.542574 0
M  V30 495 H 44.3589 2.59552 1.47226 0
M  V30 496 C 43.1079 1.72409 3.01945 0
M  V30 497 H 42.4309 2.59029 3.04539 0
M  V30 498 H 43.8709 1.87785 3.80148 0
M  V30 499 C 42.3299 0.46618 3.33659 0
M  V30 500 O 42.8599 -0.413744 3.99564 0
M  V30 501 N 41.0659 0.332931 2.88687 0
M  V30 502 H 40.6129 1.04996 2.35231 0
M  V30 503 H 40.5709 -0.507665 3.10274 0
M  V30 504 N 44.343 -0.763751 1.37857 0
M  V30 505 C 45.306 -1.85889 1.34081 0
M  V30 506 C 46.306 -1.58949 0.243277 0
M  V30 507 O 47.496 -1.66882 0.499589 0
M  V30 508 C 44.628 -3.23176 1.08489 0
M  V30 509 H 45.821 -1.90648 2.31502 0
M  V30 510 H 43.374 -0.964367 1.23003 0
M  V30 511 H 44.109 -3.24091 0.116318 0
M  V30 512 H 43.894 -3.44124 1.8794 0
M  V30 513 H 45.384 -4.03254 1.08517 0
M  V30 514 N 45.8211 -1.22559 -0.990812 0
M  V30 515 C 46.7841 -0.998863 -2.0629 0
M  V30 516 C 47.7841 0.0354834 -1.60761 0
M  V30 517 O 48.9741 -0.203231 -1.7301 0
M  V30 518 C 46.1061 -0.509203 -3.37076 0
M  V30 519 H 47.2991 -1.95014 -2.27837 0
M  V30 520 H 44.8521 -1.04456 -1.16269 0
M  V30 521 H 45.5871 0.446335 -3.21214 0
M  V30 522 H 45.3721 -1.25547 -3.71457 0
M  V30 523 H 46.8621 -0.370888 -4.1595 0
M  V30 524 N 47.2992 1.18797 -1.03562 0
M  V30 525 C 48.2312 2.21731 -0.580337 0
M  V30 526 C 49.2442 1.59051 0.347349 0
M  V30 527 O 50.4332 1.77929 0.142669 0
M  V30 528 C 47.5332 3.38459 0.172805 0
M  V30 529 C 46.7062 4.3072 -0.761496 0
M  V30 530 C 45.7652 5.26174 -0.0525547 0
M  V30 531 O 44.7912 5.65108 -0.681333 0
M  V30 532 N 45.9932 5.67624 1.21586 0
M  V30 533 H 48.7582 2.61417 -1.46565 0
M  V30 534 H 46.3192 1.33531 -0.915476 0
M  V30 535 H 48.3112 3.99335 0.656793 0
M  V30 536 H 46.8812 2.97507 0.959602 0
M  V30 537 H 46.1012 3.67525 -1.42544 0
M  V30 538 H 47.3892 4.89267 -1.39626 0
M  V30 539 H 46.7872 5.38038 1.74732 0
M  V30 540 H 45.3442 6.30721 1.64421 0
M  V30 541 N 48.7773 0.814389 1.34928 0
M  V30 542 C 50.0053 0.411136 2.02774 0
M  V30 543 C 50.4203 -0.980316 1.61354 0
M  V30 544 O 49.7773 -1.63299 0.814847 0
M  V30 545 C 49.8283 0.493865 3.58111 0
M  V30 546 O 49.5493 1.83047 3.98027 0
M  V30 547 C 51.0503 0.0844174 4.4322 0
M  V30 548 H 48.2703 0.166037 0.650133 0
M  V30 549 H 50.8143 1.10018 1.72384 0
M  V30 550 H 48.9693 -0.147006 3.87121 0
M  V30 551 H 49.3833 1.79872 4.92693 0
M  V30 552 H 50.8573 0.193404 5.51661 0
M  V30 553 H 51.3343 -0.97113 4.28329 0
M  V30 554 H 51.9403 0.69875 4.19521 0
M  V30 555 N 50.2554 -1.46986 0.568584 0
M  V30 556 C 51.1874 -2.28233 -0.210337 0
M  V30 557 C 52.2004 -1.37682 -0.868767 0
M  V30 558 O 53.3894 -1.62406 -0.740705 0
M  V30 559 C 50.4894 -3.12293 -1.3163 0
M  V30 560 C 49.6624 -4.30878 -0.7525 0
M  V30 561 C 48.7214 -4.96445 -1.74439 0
M  V30 562 O 47.7474 -5.54482 -1.286 0
M  V30 563 N 48.9494 -4.92171 -3.07812 0
M  V30 564 H 51.7144 -2.95723 0.486648 0
M  V30 565 H 49.2754 -1.56742 0.405409 0
M  V30 566 H 51.2674 -3.53022 -1.97883 0
M  V30 567 H 49.8374 -2.46971 -1.91636 0
M  V30 568 H 49.0574 -3.94104 0.0871128 0
M  V30 569 H 50.3454 -5.07558 -0.35536 0
M  V30 570 H 49.7434 -4.46239 -3.47688 0
M  V30 571 H 48.3004 -5.36884 -3.69592 0
M  V30 572 N 51.7335 -0.305618 -1.54608 0
M  V30 573 C 52.9615 0.304775 -2.04643 0
M  V30 574 C 53.3765 1.47167 -1.18268 0
M  V30 575 O 52.7335 1.81296 -0.209328 0
M  V30 576 C 52.7845 0.756564 -3.53495 0
M  V30 577 O 52.5055 -0.36389 -4.36586 0
M  V30 578 C 54.0065 1.43163 -4.19546 0
M  V30 579 H 51.2265 0.0655481 -0.667791 0
M  V30 580 H 53.7705 -0.446592 -1.99564 0
M  V30 581 H 51.9255 1.45794 -3.58919 0
M  V30 582 H 52.3395 -0.0113121 -5.24499 0
M  V30 583 H 53.8135 1.69886 -5.25207 0
M  V30 584 H 54.2905 2.37318 -3.69563 0
M  V30 585 H 54.8965 0.773307 -4.18211 0
M  V30 586 N 53.2116 1.57565 -0.0334293 0
M  V30 587 C 54.4596 1.91598 0.642999 0
M  V30 588 C 54.7806 0.910847 1.7242 0
M  V30 589 O 54.0506 -0.0469931 1.95844 0
M  V30 590 H 52.6306 0.707228 0.240496 0
M  V30 591 H 55.2926 1.94726 -0.0822488 0
M  V30 592 H 54.3886 2.92336 1.09298 0
M  V30 593 N 54.6897 -0.239769 1.55765 0
M  V30 594 C 55.5997 -1.31831 1.94056 0
M  V30 595 C 56.6157 -1.52275 0.841925 0
M  V30 596 O 57.7917 -1.65759 1.14394 0
M  V30 597 C 54.8567 -2.65156 2.23368 0
M  V30 598 C 53.9177 -2.53173 3.46701 0
M  V30 599 C 53.1507 -3.8014 3.74606 0
M  V30 600 O 53.3737 -4.82343 3.04469 0
M  V30 601 O 52.3077 -3.78344 4.68123 0
M  V30 602 H 56.1337 -1.02347 2.85935 0
M  V30 603 H 53.7187 -0.441123 1.42739 0
M  V30 604 H 55.6007 -3.43929 2.43497 0
M  V30 605 H 54.2757 -2.94358 1.34666 0
M  V30 606 H 53.1827 -1.72662 3.31871 0
M  V30 607 H 54.5157 -2.28915 4.35728 0
M  V30 608 N 56.1678 -1.49265 -0.50573 0
M  V30 609 C 57.1308 -1.65075 -1.59006 0
M  V30 610 C 58.1308 -0.522768 -1.52065 0
M  V30 611 O 59.3208 -0.789117 -1.55302 0
M  V30 612 C 56.4528 -1.64369 -2.98656 0
M  V30 613 H 57.6458 -2.61784 -1.46319 0
M  V30 614 H 55.1988 -1.38226 -0.729616 0
M  V30 615 H 55.9338 -0.692272 -3.16825 0
M  V30 616 H 55.7188 -2.46282 -3.05103 0
M  V30 617 H 57.2088 -1.78674 -3.77446 0
M  V30 618 N 57.6459 0.756429 -1.3826 0
M  V30 619 C 58.5939 1.89149 -1.35372 0
M  V30 620 C 59.5879 1.67691 -0.24004 0
M  V30 621 O 60.7939 1.75294 -0.408919 0
M  V30 622 H 57.1689 0.622271 -0.422236 0
M  V30 623 H 59.1399 1.88701 -2.31159 0
M  V30 624 C 57.8889 3.26599 -1.19284 0
M  V30 625 H 57.2119 3.43695 -2.0424 0
M  V30 626 H 58.6519 4.06274 -1.21316 0
M  V30 627 C 57.1109 3.3675 0.100454 0
M  V30 628 O 57.6409 3.86951 1.07851 0
M  V30 629 N 55.8469 2.90179 0.15633 0
M  V30 630 H 55.3939 2.49517 -0.640253 0
M  V30 631 H 55.3519 2.97352 1.02123 0
M  V30 632 N 59.124 1.23083 0.984299 0
M  V30 633 C 60.54 0.992637 1.24975 0
M  V30 634 C 60.74 -0.308618 1.99123 0
M  V30 635 O 59.796 -1.02905 2.30579 0
M  V30 636 C 61.109 2.19698 2.05312 0
M  V30 637 C 62.657 2.24147 2.18465 0
M  V30 638 C 63.132 3.44157 3.02192 0
M  V30 639 N 64.623 3.44372 3.09777 0
M  V30 640 C 65.358 4.33886 3.74874 0
M  V30 641 N 64.854 5.3363 4.41827 0
M  V30 642 N 66.647 4.21639 3.71721 0
M  V30 643 H 58.798 2.06731 0.487453 0
M  V30 644 H 61.061 0.906339 0.277944 0
M  V30 645 H 60.767 3.1411 1.58201 0
M  V30 646 H 60.641 2.20465 3.06064 0
M  V30 647 H 63.028 1.30277 2.64786 0
M  V30 648 H 63.109 2.27415 1.17115 0
M  V30 649 H 62.753 4.38332 2.56568 0
M  V30 650 H 62.683 3.3813 4.03702 0
M  V30 651 H 65.174 2.72201 2.62135 0
M  V30 652 H 65.487 5.98196 4.89266 0
M  V30 653 H 63.832 5.37534 4.40548 0
M  V30 654 H 67.023 3.42962 3.18582 0
M  V30 655 H 67.196 4.91604 4.22173 0
M  V30 656 N 60.6021 -1.18246 1.0419 0
M  V30 657 C 61.8501 -1.87886 0.744543 0
M  V30 658 C 62.1711 -1.8082 -0.730006 0
M  V30 659 O 61.4411 -1.22736 -1.52685 0
M  V30 660 H 60.0211 -0.695556 0.272417 0
M  V30 661 H 62.6831 -1.43494 1.31892 0
M  V30 662 H 61.7791 -2.9389 1.05049 0
M  V30 663 N 62.0802 -0.821533 -1.34494 0
M  V30 664 C 63.3262 -0.418729 -1.99043 0
M  V30 665 C 63.6812 1.00672 -1.6396 0
M  V30 666 O 62.9742 1.69132 -0.900271 0
M  V30 667 C 63.1682 -0.556512 -3.53041 0
M  V30 668 C 62.9972 -1.9938 -4.03085 0
M  V30 669 C 61.7672 -2.62539 -4.31742 0
M  V30 670 C 63.9652 -2.96035 -4.20556 0
M  V30 671 N 61.9472 -3.97523 -4.67813 0
M  V30 672 C 63.3182 -4.15924 -4.59791 0
M  V30 673 C 65.3732 -2.9267 -4.02801 0
M  V30 674 C 64.0762 -5.32899 -4.83126 0
M  V30 675 C 66.1022 -4.08861 -4.27302 0
M  V30 676 C 65.4642 -5.275 -4.66822 0
M  V30 677 H 61.5632 -0.201299 -0.755647 0
M  V30 678 H 64.1472 -1.06594 -1.62929 0
M  V30 679 H 62.3182 0.0607924 -3.88352 0
M  V30 680 H 64.0502 -0.126842 -4.04501 0
M  V30 681 H 60.8052 -2.13789 -4.22601 0
M  V30 682 H 61.2292 -4.67061 -4.90085 0
M  V30 683 H 65.8712 -2.02088 -3.71376 0
M  V30 684 H 63.5892 -6.24041 -5.13418 0
M  V30 685 H 67.1752 -4.07654 -4.15101 0
M  V30 686 H 66.0552 -6.15913 -4.85408 0
M  V30 687 N 63.5583 1.46682 -0.576371 0
M  V30 688 C 64.7863 2.06798 -0.0649635 0
M  V30 689 C 65.2013 1.42612 1.23723 0
M  V30 690 O 64.5583 0.529203 1.74659 0
M  V30 691 C 64.6093 3.6132 0.114202 0
M  V30 692 O 64.3303 4.23104 -1.13644 0
M  V30 693 C 65.8313 4.38349 0.66069 0
M  V30 694 H 63.0513 0.668778 -0.0545616 0
M  V30 695 H 65.5953 1.88404 -0.795237 0
M  V30 696 H 63.7503 3.79162 0.794673 0
M  V30 697 H 64.1643 5.15894 -0.946253 0
M  V30 698 H 65.6383 5.47081 0.73526 0
M  V30 699 H 66.1153 4.05953 1.67627 0
M  V30 700 H 66.7213 4.25297 0.0152951 0
M  V30 701 N 65.0364 0.313813 1.54444 0
M  V30 702 C 66.2844 -0.291099 1.99993 0
M  V30 703 C 66.6054 -1.53418 1.20366 0
M  V30 704 O 65.8754 -1.93544 0.302927 0
M  V30 705 H 64.4554 -0.110552 0.738774 0
M  V30 706 H 67.1174 0.428106 1.9014 0
M  V30 707 H 66.2134 -0.554268 3.07139 0
M  V30 708 N 66.5145 -1.57545 0.0417849 0
M  V30 709 C 67.4465 -2.07904 -0.964799 0
M  V30 710 C 68.4595 -1.00497 -1.28079 0
M  V30 711 O 69.6485 -1.28087 -1.24322 0
M  V30 712 C 66.7485 -2.49928 -2.28887 0
M  V30 713 C 65.9215 -3.80562 -2.15619 0
M  V30 714 C 64.9805 -4.08999 -3.31069 0
M  V30 715 O 64.0065 -4.79061 -3.0739 0
M  V30 716 N 65.2085 -3.6017 -4.55256 0
M  V30 717 H 67.9735 -2.94886 -0.535029 0
M  V30 718 H 65.5345 -1.61252 -0.144681 0
M  V30 719 H 67.5265 -2.66034 -3.04972 0
M  V30 720 H 66.0965 -1.68245 -2.63463 0
M  V30 721 H 65.3165 -3.74129 -1.24183 0
M  V30 722 H 66.6045 -4.66126 -2.03971 0
M  V30 723 H 66.0025 -3.03512 -4.77386 0
M  V30 724 H 64.5595 -3.81532 -5.28466 0
M  V30 725 N 67.9926 0.231505 -1.5589 0
M  V30 726 C 68.9026 1.308 -1.94752 0
M  V30 727 C 69.9186 1.51826 -0.849989 0
M  V30 728 O 71.0946 1.6515 -1.15271 0
M  V30 729 C 68.1596 2.63968 -2.24771 0
M  V30 730 C 67.2206 2.51331 -3.48039 0
M  V30 731 C 66.4536 3.78148 -3.76616 0
M  V30 732 O 66.6766 4.80722 -3.07022 0
M  V30 733 O 65.6106 3.75857 -4.70123 0
M  V30 734 H 69.4366 1.0083 -2.86474 0
M  V30 735 H 67.0216 0.433547 -1.42971 0
M  V30 736 H 68.9036 3.42633 -2.45318 0
M  V30 737 H 67.5786 2.9364 -1.36225 0
M  V30 738 H 66.4856 1.709 -3.32782 0
M  V30 739 H 67.8186 2.26601 -4.36936 0
M  V30 740 N 69.4707 1.49531 0.497807 0
M  V30 741 C 70.6957 1.63159 1.28039 0
M  V30 742 C 71.1207 0.30418 1.85624 0
M  V30 743 O 70.4787 -0.728618 1.66015 0
M  V30 744 C 70.5267 2.70537 2.38416 0
M  V30 745 O 69.6307 2.29931 3.42353 0
M  V30 746 H 68.9717 0.546001 0.377861 0
M  V30 747 H 71.5017 1.9574 0.59558 0
M  V30 748 H 71.5117 2.92802 2.84132 0
M  V30 749 H 70.1867 3.6689 1.95869 0
M  V30 750 H 68.7637 2.18009 3.02533 0
M  V30 751 N 70.9488 -0.749086 1.3866 0
M  V30 752 C 71.8788 -1.8764 1.38973 0
M  V30 753 C 72.8598 -1.68178 0.255004 0
M  V30 754 O 74.0448 -1.88704 0.458754 0
M  V30 755 C 71.1748 -3.25222 1.21851 0
M  V30 756 C 70.1288 -3.59295 2.32575 0
M  V30 757 C 69.4548 -4.95663 2.00555 0
M  V30 758 C 70.7548 -3.63709 3.7485 0
M  V30 759 H 72.4488 -1.87635 2.3331 0
M  V30 760 H 69.9948 -0.901329 1.12303 0
M  V30 761 H 71.9478 -4.03746 1.20695 0
M  V30 762 H 70.6718 -3.25719 0.239775 0
M  V30 763 H 69.3308 -2.83093 2.32925 0
M  V30 764 H 68.9788 -4.92724 1.01154 0
M  V30 765 H 68.6788 -5.19429 2.74714 0
M  V30 766 H 70.2028 -5.7656 2.01024 0
M  V30 767 H 71.6168 -4.32338 3.76506 0
M  V30 768 H 70.0138 -3.98986 4.48252 0
M  V30 769 H 71.0838 -2.63834 4.06841 0
M  V30 770 N 72.4269 -1.23603 -0.977757 0
M  V30 771 C 73.6519 -1.09735 -1.75991 0
M  V30 772 C 74.0769 0.346858 -1.84874 0
M  V30 773 O 73.4349 1.25093 -1.3123 0
M  V30 774 C 73.4829 -1.73051 -3.16363 0
M  V30 775 O 72.5869 -0.994452 -4.0023 0
M  V30 776 H 71.9279 -0.384476 -0.541364 0
M  V30 777 H 74.4579 -1.6371 -1.2272 0
M  V30 778 H 74.4679 -1.78398 -3.66931 0
M  V30 779 H 73.1429 -2.78137 -3.09213 0
M  V30 780 H 71.7199 -1.01812 -3.58732 0
M  V30 781 N 73.905 1.17692 -1.04816 0
M  V30 782 C 75.182 1.83768 -0.669963 0
M  V30 783 C 75.562 1.93232 0.849986 0
M  V30 784 O 74.91 1.46397 1.75443 0
M  V30 785 C 75.12 3.21641 -1.35455 0
M  V30 786 C 76.468 3.97592 -1.49017 0
M  V30 787 O 77.492 3.31107 -1.31326 0
M  V30 788 O 76.351 5.16729 -1.77914 0
M  V30 789 H 73.445 0.792799 -0.235368 0
M  V30 790 H 75.991 1.25021 -1.14751 0
M  V30 791 H 74.763 3.097 -2.39168 0
M  V30 792 H 74.386 3.88052 -0.866107 0
M  V30 793 N 75.3831 0.828654 1.34056 0
M  V30 794 C 76.6081 0.431637 2.02859 0
M  V30 795 C 77.0331 -0.956339 1.61975 0
M  V30 796 O 76.3911 -1.62338 0.807228 0
M  V30 797 C 76.4391 0.548323 3.56407 0
M  V30 798 O 75.5431 -0.429556 4.10157 0
M  V30 799 H 74.8841 0.176886 0.640006 0
M  V30 800 H 77.4141 1.12066 1.71179 0
M  V30 801 H 77.4241 0.426196 4.05768 0
M  V30 802 H 76.0991 1.5606 3.8551 0
M  V30 803 H 74.6761 -0.265836 3.71951 0
M  V30 804 N 76.8612 -1.46375 0.584142 0
M  V30 805 C 78.1382 -1.956 0.0033388 0
M  V30 806 C 78.5182 -1.52679 -1.45782 0
M  V30 807 O 77.8662 -0.77816 -2.14842 0
M  V30 808 C 78.0762 -3.48551 0.176891 0
M  V30 809 C 79.4242 -4.24576 0.0454609 0
M  V30 810 O 80.4482 -3.56043 0.105801 0
M  V30 811 O 79.3072 -5.46427 -0.0890376 0
M  V30 812 H 76.4012 -0.825547 -0.0490066 0
M  V30 813 H 78.9472 -1.56652 0.65256 0
M  V30 814 H 77.7192 -3.72683 1.1926 0
M  V30 815 H 77.3422 -3.94332 -0.508695 0
M  V30 816 N 78.3393 -0.321999 -1.54275 0
M  V30 817 C 79.7503 0.166384 -1.85957 0
M  V30 818 C 80.1013 1.51747 -1.24367 0
M  V30 819 O 79.2263 2.09317 -0.549124 0
M  V30 820 C 79.8213 0.308681 -3.37391 0
M  V30 821 C 78.3803 0.741286 -3.69028 0
M  V30 822 C 77.5273 -0.137937 -2.76957 0
M  V30 823 H 80.4783 -0.542335 -1.49146 0
M  V30 824 H 80.4993 1.13984 -3.63026 0
M  V30 825 H 80.0113 -0.674809 -3.82188 0
M  V30 826 H 78.1123 1.73458 -3.29762 0
M  V30 827 H 78.2253 0.546118 -4.75977 0
M  V30 828 H 76.5893 0.386251 -2.51754 0
M  V30 829 H 77.3723 -1.11816 -3.2458 0
M  V30 830 N 79.8174 1.5752 -0.0501392 0
M  V30 831 C 80.7274 2.14952 0.939827 0
M  V30 832 C 81.7434 1.10706 1.34239 0
M  V30 833 O 82.9194 1.42869 1.41952 0
M  V30 834 C 79.9844 2.68232 2.19665 0
M  V30 835 C 79.0454 3.87272 1.85253 0
M  V30 836 C 78.2784 4.38002 3.04943 0
M  V30 837 O 78.5014 3.87811 4.18281 0
M  V30 838 O 77.4354 5.29602 2.86017 0
M  V30 839 H 81.2614 2.9986 0.481392 0
M  V30 840 H 78.8464 1.4841 0.171699 0
M  V30 841 H 80.7284 3.02475 2.93406 0
M  V30 842 H 79.4034 1.86395 2.64648 0
M  V30 843 H 78.3104 3.5792 1.0883 0
M  V30 844 H 79.6434 4.70336 1.4507 0
M  V30 845 N 81.2955 -0.223234 1.56011 0
M  V30 846 C 82.2285 -1.30377 1.87289 0
M  V30 847 C 83.2065 -1.45286 0.730112 0
M  V30 848 O 84.3905 -1.61126 0.978302 0
M  V30 849 C 81.5175 -2.67431 2.07843 0
M  V30 850 C 80.5635 -2.69546 3.30526 0
M  V30 851 S 81.3965 -2.23781 4.865 0
M  V30 852 C 82.5525 -3.62714 5.10088 0
M  V30 853 H 82.7855 -1.03652 2.78646 0
M  V30 854 H 80.3185 -0.425393 1.48424 0
M  V30 855 H 82.2765 -3.46336 2.20368 0
M  V30 856 H 80.9375 -2.91381 1.17285 0
M  V30 857 H 80.1305 -3.70255 3.41947 0
M  V30 858 H 79.7325 -1.98703 3.16849 0
M  V30 859 H 82.0245 -4.58391 4.98883 0
M  V30 860 H 82.9675 -3.5621 6.11981 0
M  V30 861 H 83.3755 -3.56323 4.37829 0
M  V30 862 N 82.7736 -1.49793 -0.48987 0
M  V30 863 C 84.0196 -1.61049 -1.24236 0
M  V30 864 C 84.3746 -0.298412 -1.90072 0
M  V30 865 O 83.6676 0.702262 -1.78266 0
M  V30 866 C 83.8616 -2.71488 -2.32441 0
M  V30 867 C 83.6906 -4.13308 -1.77218 0
M  V30 868 C 82.4606 -4.79955 -1.58023 0
M  V30 869 C 84.6586 -4.98176 -1.27772 0
M  V30 870 N 82.6406 -6.06052 -0.978465 0
M  V30 871 C 84.0116 -6.14843 -0.798 0
M  V30 872 C 86.0666 -4.84091 -1.16449 0
M  V30 873 C 84.7696 -7.18975 -0.216245 0
M  V30 874 C 86.7956 -5.88382 -0.596698 0
M  V30 875 C 86.1576 -7.04285 -0.127262 0
M  V30 876 H 82.2566 -0.643611 -0.444172 0
M  V30 877 H 84.8406 -1.86842 -0.54754 0
M  V30 878 H 83.0116 -2.47449 -2.99372 0
M  V30 879 H 84.7436 -2.72205 -2.99477 0
M  V30 880 H 81.4986 -4.36936 -1.82712 0
M  V30 881 H 81.9226 -6.73407 -0.696534 0
M  V30 882 H 86.5646 -3.94786 -1.5134 0
M  V30 883 H 84.2826 -8.0797 0.144903 0
M  V30 884 H 87.8686 -5.79545 -0.511716 0
M  V30 885 H 86.7486 -7.83606 0.30523 0
M  V30 886 N 84.2517 0.741722 -1.39055 0
M  V30 887 C 85.1617 1.88621 -1.39496 0
M  V30 888 C 86.1777 1.71557 -0.290578 0
M  V30 889 O 87.3537 1.94275 -0.530954 0
M  V30 890 C 84.4187 3.24134 -1.23037 0
M  V30 891 C 83.4797 3.5364 -2.43387 0
M  V30 892 C 82.7127 4.82687 -2.27703 0
M  V30 893 O 82.9357 5.55922 -1.27696 0
M  V30 894 O 81.8697 5.1194 -3.16545 0
M  V30 895 H 85.6957 1.91203 -2.35956 0
M  V30 896 H 83.2807 0.888625 -1.20099 0
M  V30 897 H 85.1627 4.0513 -1.15964 0
M  V30 898 H 83.8377 3.22337 -0.296691 0
M  V30 899 H 82.7447 2.72758 -2.56035 0
M  V30 900 H 84.0777 3.60209 -3.35425 0
M  V30 901 N 85.7298 1.2412 0.971189 0
M  V30 902 C 86.6598 1.05508 2.08304 0
M  V30 903 C 87.6408 -0.0308864 1.70072 0
M  V30 904 O 88.8258 0.135521 1.93727 0
M  V30 905 C 85.9558 0.655365 3.4106 0
M  V30 906 C 84.9098 1.68971 3.93234 0
M  V30 907 C 84.2358 1.14516 5.22293 0
M  V30 908 C 85.5358 3.08487 4.21465 0
M  V30 909 H 87.2298 1.98507 2.24132 0
M  V30 910 H 84.7758 0.955821 1.07704 0
M  V30 911 H 86.7288 0.51217 4.18276 0
M  V30 912 H 85.4528 -0.31032 3.25122 0
M  V30 913 H 84.1118 1.82106 3.18171 0
M  V30 914 H 83.7598 0.170189 5.02712 0
M  V30 915 H 83.4598 1.83635 5.58168 0
M  V30 916 H 84.9838 1.01401 6.02121 0
M  V30 917 H 86.3978 2.98601 4.89398 0
M  V30 918 H 84.7948 3.74926 4.68562 0
M  V30 919 H 85.8648 3.56787 3.28376 0
M  V30 920 N 87.2079 -1.17134 1.05439 0
M  V30 921 C 88.1379 -2.2342 0.678649 0
M  V30 922 C 89.1189 -1.66971 -0.32476 0
M  V30 923 O 90.3039 -1.93149 -0.201802 0
M  V30 924 C 87.4339 -3.47256 0.0552099 0
M  V30 925 C 86.3879 -4.16543 0.98365 0
M  V30 926 C 85.7139 -5.34231 0.223961 0
M  V30 927 C 87.0139 -4.68495 2.3089 0
M  V30 928 H 88.7079 -2.55105 1.56722 0
M  V30 929 H 86.2539 -1.2262 0.754998 0
M  V30 930 H 88.2069 -4.20828 -0.21946 0
M  V30 931 H 86.9309 -3.14846 -0.868319 0
M  V30 932 H 85.5899 -3.44887 1.24293 0
M  V30 933 H 85.2379 -4.98071 -0.702412 0
M  V30 934 H 84.9379 -5.81527 0.842627 0
M  V30 935 H 86.4619 -6.10585 -0.0433671 0
M  V30 936 H 87.8759 -5.33691 2.09396 0
M  V30 937 H 86.2729 -5.26379 2.88176 0
M  V30 938 H 87.3429 -3.85169 2.94572 0
M  V30 939 N 88.686 -0.835752 -1.33615 0
M  V30 940 C 89.618 -0.224151 -2.28101 0
M  V30 941 C 90.631 0.593331 -1.51603 0
M  V30 942 O 91.82 0.420911 -1.73466 0
M  V30 943 C 88.92 0.703309 -3.31522 0
M  V30 944 C 88.093 -0.0741528 -4.37337 0
M  V30 945 C 87.152 0.776176 -5.20444 0
M  V30 946 O 86.178 0.216506 -5.68788 0
M  V30 947 N 87.38 2.09401 -5.41416 0
M  V30 948 H 90.145 -1.03598 -2.81225 0
M  V30 949 H 87.706 -0.69392 -1.46275 0
M  V30 950 H 89.698 1.27707 -3.84022 0
M  V30 951 H 88.268 1.41585 -2.78698 0
M  V30 952 H 87.488 -0.82928 -3.85378 0
M  V30 953 H 88.776 -0.608863 -5.05144 0
M  V30 954 H 88.174 2.57229 -5.03835 0
M  V30 955 H 86.731 2.61633 -5.96985 0
M  V30 956 N 90.1641 1.46063 -0.591896 0
M  V30 957 C 91.5801 1.57561 -0.254288 0
M  V30 958 C 91.7801 1.58565 1.24336 0
M  V30 959 O 90.8361 1.50753 2.02558 0
M  V30 960 C 92.1491 2.86549 -0.911611 0
M  V30 961 C 93.6971 3.00197 -0.886059 0
M  V30 962 C 94.1721 4.31933 -1.5231 0
M  V30 963 N 95.6631 4.38654 -1.48786 0
M  V30 964 C 96.3981 5.39222 -1.95006 0
M  V30 965 N 95.8941 6.46414 -2.49241 0
M  V30 966 N 97.6871 5.3048 -1.85868 0
M  V30 967 H 89.8381 1.43655 -1.56451 0
M  V30 968 H 92.1011 0.68583 -0.654478 0
M  V30 969 H 91.8071 2.91651 -1.96551 0
M  V30 970 H 91.6811 3.74794 -0.425368 0
M  V30 971 H 94.0681 2.9467 0.159246 0
M  V30 972 H 94.1491 2.13403 -1.41041 0
M  V30 973 H 93.7931 4.38217 -2.56765 0
M  V30 974 H 93.7231 5.17516 -0.973891 0
M  V30 975 H 96.2141 3.61793 -1.09151 0
M  V30 976 H 96.5271 7.19376 -2.82344 0
M  V30 977 H 94.8721 6.47208 -2.53272 0
M  V30 978 H 98.0631 4.45643 -1.43248 0
M  V30 979 H 98.2361 6.08711 -2.22204 0
M  V30 980 N 91.6422 0.330177 1.54103 0
M  V30 981 C 92.5522 -0.541534 2.28264 0
M  V30 982 C 93.5682 -1.12351 1.32866 0
M  V30 983 O 94.7442 -1.14206 1.65888 0
M  V30 984 C 91.8092 -1.68322 3.03098 0
M  V30 985 C 90.8702 -1.13238 4.14096 0
M  V30 986 C 90.1032 -2.21966 4.85352 0
M  V30 987 O 90.3262 -3.42437 4.56172 0
M  V30 988 O 89.2602 -1.87013 5.7211 0
M  V30 989 H 93.0862 0.060938 3.03639 0
M  V30 990 H 90.6712 0.09565 1.49093 0
M  V30 991 H 92.5532 -2.34777 3.49939 0
M  V30 992 H 91.2282 -2.27176 2.30593 0
M  V30 993 H 90.1352 -0.432736 3.71589 0
M  V30 994 H 91.4682 -0.588898 4.88664 0
M  V30 995 N 93.1203 -1.57491 0.0584922 0
M  V30 996 C 94.0673 -2.11958 -0.913376 0
M  V30 997 C 95.0373 -1.02875 -1.30407 0
M  V30 998 O 96.2223 -1.30464 -1.39226 0
M  V30 999 C 93.3623 -2.67497 -2.18035 0
M  V30 1000 C 92.4753 -3.90691 -1.84349 0
M  V30 1001 C 91.6103 -4.3452 -3.05559 0
M  V30 1002 C 90.6493 -5.50395 -2.67827 0
M  V30 1003 N 89.7863 -5.89244 -3.81754 0
M  V30 1004 H 94.6263 -2.94704 -0.442017 0
M  V30 1005 H 92.1633 -1.45643 -0.206545 0
M  V30 1006 H 94.1213 -2.978 -2.92183 0
M  V30 1007 H 92.7513 -1.87537 -2.62735 0
M  V30 1008 H 91.8033 -3.66934 -1.00319 0
M  V30 1009 H 93.1153 -4.7489 -1.5258 0
M  V30 1010 H 92.2693 -4.66414 -3.87998 0
M  V30 1011 H 91.0083 -3.49147 -3.40511 0
M  V30 1012 H 90.0133 -5.18165 -1.83806 0
M  V30 1013 H 91.2383 -6.3749 -2.34059 0
M  V30 1014 H 89.1843 -5.06823 -4.16493 0
M  V30 1015 H 89.1013 -6.68151 -3.53708 0
M  V30 1016 H 90.3693 -6.25756 -4.64811 0
M  V30 1017 N 94.5984 0.214957 -1.56127 0
M  V30 1018 C 95.8754 0.963093 -1.70247 0
M  V30 1019 C 96.2554 2.02166 -0.60764 0
M  V30 1020 O 95.6034 2.25244 0.384385 0
M  V30 1021 C 95.8134 1.56756 -3.11815 0
M  V30 1022 C 97.1614 2.0573 -3.7143 0
M  V30 1023 O 98.1854 1.66637 -3.14818 0
M  V30 1024 O 97.0444 2.77603 -4.70743 0
M  V30 1025 H 94.1384 0.450321 -0.693643 0
M  V30 1026 H 96.6844 0.206219 -1.68442 0
M  V30 1027 H 95.4564 0.803533 -3.82961 0
M  V30 1028 H 95.0794 2.3898 -3.17765 0
M  V30 1029 N 96.0765 1.50051 0.48192 0
M  V30 1030 C 97.4925 1.37237 0.814756 0
M  V30 1031 C 97.6925 0.420109 1.97072 0
M  V30 1032 O 96.7485 -0.141246 2.52105 0
M  V30 1033 C 98.0615 2.78375 1.13701 0
M  V30 1034 C 99.6095 2.87213 1.2441 0
M  V30 1035 C 100.084 4.29161 1.59954 0
M  V30 1036 N 101.575 4.32061 1.66967 0
M  V30 1037 C 102.31 5.38879 1.95952 0
M  V30 1038 N 101.806 6.55918 2.23031 0
M  V30 1039 N 103.599 5.26312 1.97363 0
M  V30 1040 H 95.7505 2.10546 -0.28005 0
M  V30 1041 H 98.0135 0.945921 -0.0627454 0
M  V30 1042 H 97.7195 3.49845 0.360787 0
M  V30 1043 H 97.5935 3.14941 2.07586 0
M  V30 1044 H 99.9805 2.15969 2.01101 0
M  V30 1045 H 100.061 2.54204 0.285299 0
M  V30 1046 H 99.7055 5.00938 0.838067 0
M  V30 1047 H 99.6355 4.59648 2.56966 0
M  V30 1048 H 102.126 3.47661 1.48123 0
M  V30 1049 H 102.439 7.33139 2.44391 0
M  V30 1050 H 100.784 6.59112 2.20447 0
M  V30 1051 H 103.975 4.33876 1.75697 0
M  V30 1052 H 104.148 6.09649 2.19618 0
M  V30 1053 N 97.5546 -0.734337 1.39446 0
M  V30 1054 C 98.4866 -1.85861 1.34121 0
M  V30 1055 C 99.4996 -1.60871 0.249864 0
M  V30 1056 O 100.689 -1.71093 0.508865 0
M  V30 1057 C 97.7886 -3.21899 1.05991 0
M  V30 1058 C 96.9616 -3.74239 2.26415 0
M  V30 1059 C 96.0206 -4.88841 1.94733 0
M  V30 1060 O 95.0466 -5.02468 2.67422 0
M  V30 1061 N 96.2486 -5.73261 0.913884 0
M  V30 1062 H 99.0136 -1.90934 2.31007 0
M  V30 1063 H 96.5746 -0.915102 1.33557 0
M  V30 1064 H 98.5666 -3.96136 0.828147 0
M  V30 1065 H 97.1366 -3.12091 0.178361 0
M  V30 1066 H 96.3566 -2.91347 2.65539 0
M  V30 1067 H 97.6446 -4.05942 3.06738 0
M  V30 1068 H 97.0426 -5.64842 0.311476 0
M  V30 1069 H 95.5996 -6.47563 0.742015 0
M  V30 1070 N 99.0327 -1.24633 -0.964593 0
M  V30 1071 C 100.273 -1.09981 -1.72289 0
M  V30 1072 C 100.637 0.354792 -1.88693 0
M  V30 1073 O 101.838 0.62289 -2.61483 0
M  V30 1074 C 100.109 -1.82262 -3.07434 0
M  V30 1075 S 101.668 -1.83379 -3.98645 0
M  V30 1076 H 98.4857 -0.393292 -0.59232 0
M  V30 1077 H 101.088 -1.58009 -1.15123 0
M  V30 1078 H 99.7917 -2.87206 -2.93157 0
M  V30 1079 H 99.3227 -1.3458 -3.69664 0
M  V30 1080 H 101.338 -0.903691 -4.87901 0
M  V30 1081 N 100.511 1.16574 -1.06058 0
M  V30 1082 C 101.927 1.3904 -0.783585 0
M  V30 1083 C 102.127 1.91784 0.618145 0
M  V30 1084 O 101.183 2.11511 1.37911 0
M  V30 1085 C 102.496 2.37329 -1.84649 0
M  V30 1086 C 104.044 2.51018 -1.86973 0
M  V30 1087 C 104.519 3.52588 -2.92311 0
M  V30 1088 N 106.01 3.60113 -2.91329 0
M  V30 1089 C 106.745 4.38486 -3.69482 0
M  V30 1090 N 106.241 5.20302 -4.57447 0
M  V30 1091 N 108.034 4.33446 -3.57885 0
M  V30 1092 H 100.185 0.806725 -1.96483 0
M  V30 1093 H 102.448 0.417117 -0.851303 0
M  V30 1094 H 102.154 2.05663 -2.85299 0
M  V30 1095 H 102.028 3.36946 -1.6955 0
M  V30 1096 H 104.415 2.81989 -0.869827 0
M  V30 1097 H 104.496 1.51445 -2.0615 0
M  V30 1098 H 104.14 3.22354 -3.92492 0
M  V30 1099 H 104.07 4.51886 -2.70383 0
M  V30 1100 H 106.561 3.01707 -2.27555 0
M  V30 1101 H 106.874 5.77311 -5.13743 0
M  V30 1102 H 105.219 5.19653 -4.61503 0
M  V30 1103 H 108.41 3.68586 -2.88551 0
M  V30 1104 H 108.583 4.94279 -4.19037 0
M  V30 1105 N 101.989 0.842826 1.3317 0
M  V30 1106 C 103.237 0.439577 1.97262 0
M  V30 1107 C 103.558 -1.00548 1.67078 0
M  V30 1108 O 102.828 -1.70098 0.971779 0
M  V30 1109 H 101.408 0.159558 0.72976 0
M  V30 1110 H 104.07 1.07665 1.62463 0
M  V30 1111 H 103.166 0.574886 3.0676 0
M  V30 1112 N 103.467 -1.45747 0.599634 0
M  V30 1113 C 104.397 -2.33235 -0.111306 0
M  V30 1114 C 105.378 -1.46359 -0.866781 0
M  V30 1115 O 106.563 -1.75146 -0.838904 0
M  V30 1116 C 103.693 -3.28932 -1.11451 0
M  V30 1117 C 102.647 -4.25381 -0.472772 0
M  V30 1118 C 101.973 -5.1071 -1.58365 0
M  V30 1119 C 103.273 -5.18831 0.600948 0
M  V30 1120 H 104.967 -2.92927 0.61919 0
M  V30 1121 H 102.513 -1.40857 0.299215 0
M  V30 1122 H 104.466 -3.89002 -1.62036 0
M  V30 1123 H 103.19 -2.67381 -1.8755 0
M  V30 1124 H 101.849 -3.66598 0.0121472 0
M  V30 1125 H 101.497 -4.45533 -2.33473 0
M  V30 1126 H 101.197 -5.7604 -1.15982 0
M  V30 1127 H 102.721 -5.73647 -2.09194 0
M  V30 1128 H 104.135 -5.73019 0.179491 0
M  V30 1129 H 102.532 -5.92595 0.946076 0
M  V30 1130 H 103.602 -4.6174 1.48068 0
M  V30 1131 N 104.945 -0.338344 -1.53925 0
M  V30 1132 C 105.855 0.529421 -2.28548 0
M  V30 1133 C 106.871 1.11645 -1.3346 0
M  V30 1134 O 108.047 1.13325 -1.66492 0
M  V30 1135 C 105.112 1.66713 -3.03987 0
M  V30 1136 C 104.173 1.11041 -4.14691 0
M  V30 1137 C 103.406 2.19389 -4.86522 0
M  V30 1138 O 103.629 3.40013 -4.57982 0
M  V30 1139 O 102.563 1.83976 -5.73094 0
M  V30 1140 H 106.389 -0.0770399 -3.03602 0
M  V30 1141 H 103.974 -0.103555 -1.49041 0
M  V30 1142 H 105.856 2.32918 -3.5118 0
M  V30 1143 H 104.531 2.25949 -2.31794 0
M  V30 1144 H 103.438 0.413024 -3.71813 0
M  V30 1145 H 104.771 0.562975 -4.8897 0
M  V30 1146 N 106.423 1.57458 -0.0668435 0
M  V30 1147 C 107.353 2.15468 0.899764 0
M  V30 1148 C 108.334 1.08042 1.31381 0
M  V30 1149 O 109.519 1.36054 1.38574 0
M  V30 1150 C 106.649 2.71232 2.16911 0
M  V30 1151 C 105.603 3.83781 1.89463 0
M  V30 1152 C 104.929 4.26127 3.22986 0
M  V30 1153 C 106.229 5.08238 1.20381 0
M  V30 1154 H 107.923 2.96488 0.416529 0
M  V30 1155 H 105.469 1.4262 0.198908 0
M  V30 1156 H 107.422 3.10458 2.84945 0
M  V30 1157 H 106.146 1.87426 2.67468 0
M  V30 1158 H 104.805 3.45051 1.23836 0
M  V30 1159 H 104.453 3.39249 3.71374 0
M  V30 1160 H 104.153 5.01993 3.05413 0
M  V30 1161 H 105.677 4.67966 3.92225 0
M  V30 1162 H 107.091 5.44811 1.78475 0
M  V30 1163 H 105.488 5.89349 1.13083 0
M  V30 1164 H 106.558 4.84558 0.182153 0
M  V30 1165 N 107.901 -0.206675 1.56239 0
M  V30 1166 C 109.15 -0.926964 1.79138 0
M  V30 1167 C 109.463 -1.84901 0.638043 0
M  V30 1168 O 110.669 -2.60906 0.751033 0
M  V30 1169 C 109.125 -1.6986 3.17294 0
M  V30 1170 C 108.733 -0.821956 4.40395 0
M  V30 1171 C 110.477 -2.40922 3.4951 0
M  V30 1172 C 108.384 -1.59179 5.69575 0
M  V30 1173 H 107.314 -0.349864 0.667915 0
M  V30 1174 H 109.965 -0.180487 1.8261 0
M  V30 1175 H 108.347 -2.48853 3.08039 0
M  V30 1176 H 109.521 -0.0715019 4.60745 0
M  V30 1177 H 107.836 -0.222741 4.15804 0
M  V30 1178 H 110.433 -2.99047 4.43255 0
M  V30 1179 H 110.776 -3.14542 2.72707 0
M  V30 1180 H 111.309 -1.68905 3.60161 0
M  V30 1181 H 108.048 -0.898589 6.49312 0
M  V30 1182 H 107.568 -2.31648 5.53262 0
M  V30 1183 H 109.247 -2.14862 6.10281 0
M  V30 1184 N 109.379 -1.50304 -0.473955 0
M  V30 1185 C 110.342 -1.6841 -1.55469 0
M  V30 1186 C 111.342 -0.554905 -1.50922 0
M  V30 1187 O 112.532 -0.821882 -1.53593 0
M  V30 1188 C 109.664 -1.70667 -2.95102 0
M  V30 1189 H 110.857 -2.64828 -1.40733 0
M  V30 1190 H 108.41 -1.39742 -0.700132 0
M  V30 1191 H 109.145 -0.75932 -3.15285 0
M  V30 1192 H 108.93 -2.52698 -2.9981 0
M  V30 1193 H 110.42 -1.8664 -3.73571 0
M  V30 1194 N 110.857 0.726932 -1.39834 0
M  V30 1195 C 112.082 1.52121 -1.40976 0
M  V30 1196 C 112.507 1.88098 -0.00826029 0
M  V30 1197 O 111.865 1.52479 0.980807 0
M  V30 1198 C 111.913 2.78021 -2.29644 0
M  V30 1199 O 111.017 3.74272 -1.73188 0
M  V30 1200 H 110.358 0.45908 -0.479731 0
M  V30 1201 H 112.888 0.896207 -1.83927 0
M  V30 1202 H 112.898 3.26671 -2.44438 0
M  V30 1203 H 111.573 2.51169 -3.31492 0
M  V30 1204 H 110.15 3.33073 -1.6768 0
M  V30 1205 N 112.336 1.25143 0.95797 0
M  V30 1206 C 113.246 1.06968 2.08794 0
M  V30 1207 C 114.262 0.00773911 1.73998 0
M  V30 1208 O 115.438 0.207972 2.00323 0
M  V30 1209 C 112.503 0.68691 3.39827 0
M  V30 1210 C 111.564 1.82641 3.88511 0
M  V30 1211 C 110.797 1.46181 5.1329 0
M  V30 1212 O 111.02 0.355971 5.69288 0
M  V30 1213 O 109.954 2.29085 5.566 0
M  V30 1214 H 113.78 2.01723 2.27027 0
M  V30 1215 H 111.365 1.04051 1.07209 0
M  V30 1216 H 113.247 0.485417 4.18595 0
M  V30 1217 H 111.922 -0.231417 3.22872 0
M  V30 1218 H 110.829 2.08274 3.10762 0
M  V30 1219 H 112.162 2.72386 4.09959 0
M  V30 1220 N 113.814 -1.1601 1.06675 0
M  V30 1221 C 114.762 -2.22586 0.675157 0
M  V30 1222 C 115.756 -1.66525 -0.310766 0
M  V30 1223 O 116.962 -1.79145 -0.175215 0
M  V30 1224 H 113.337 -0.724855 0.200223 0
M  V30 1225 H 115.308 -2.52899 1.58381 0
M  V30 1226 C 114.057 -3.47604 0.0817162 0
M  V30 1227 H 113.38 -3.91058 0.831484 0
M  V30 1228 H 114.82 -4.23718 -0.154708 0
M  V30 1229 C 113.279 -3.15718 -1.17576 0
M  V30 1230 O 113.809 -3.31878 -2.26318 0
M  V30 1231 N 112.015 -2.69816 -1.07923 0
M  V30 1232 H 111.562 -2.56866 -0.194293 0
M  V30 1233 H 111.52 -2.48855 -1.92141 0
M  V30 1234 N 115.292 -0.849877 -1.32721 0
M  V30 1235 C 116.539 -0.450923 -1.97416 0
M  V30 1236 C 116.867 0.992376 -1.67279 0
M  V30 1237 O 116.122 1.71048 -0.950845 0
M  V30 1238 C 116.421 -0.631272 -3.51781 0
M  V30 1239 C 116.087 -2.04432 -4.01894 0
M  V30 1240 C 114.749 -2.4308 -4.1529 0
M  V30 1241 C 117.101 -2.96679 -4.28522 0
M  V30 1242 C 114.429 -3.73257 -4.52654 0
M  V30 1243 C 116.781 -4.26349 -4.67343 0
M  V30 1244 C 115.445 -4.64939 -4.78945 0
M  V30 1245 H 114.715 -0.165004 -0.722395 0
M  V30 1246 H 117.362 -1.07901 -1.58207 0
M  V30 1247 H 115.667 0.0800767 -3.91718 0
M  V30 1248 H 117.364 -0.302709 -3.99856 0
M  V30 1249 H 113.954 -1.73419 -3.91949 0
M  V30 1250 H 118.138 -2.68054 -4.17685 0
M  V30 1251 H 113.394 -4.02946 -4.59831 0
M  V30 1252 H 117.568 -4.97895 -4.86902 0
M  V30 1253 H 115.195 -5.65855 -5.07654 0
M  V30 1254 N 116.77 1.45427 -0.607355 0
M  V30 1255 C 118.01 2.04128 -0.105458 0
M  V30 1256 C 118.374 1.46555 1.24039 0
M  V30 1257 O 119.575 1.96608 1.833 0
M  V30 1258 C 117.846 3.57338 -0.0665324 0
M  V30 1259 S 119.405 4.37201 0.374207 0
M  V30 1260 H 116.223 0.709278 -0.0494575 0
M  V30 1261 H 118.825 1.78139 -0.805404 0
M  V30 1262 H 117.529 3.96752 -1.04957 0
M  V30 1263 H 117.06 3.87902 0.655415 0
M  V30 1264 H 119.075 4.6888 1.62377 0
M  V30 1265 N 118.248 0.346503 1.53744 0
M  V30 1266 C 119.473 -0.253074 2.0585 0
M  V30 1267 C 119.898 -1.43202 1.21962 0
M  V30 1268 O 119.256 -1.79783 0.234073 0
M  V30 1269 C 119.304 -0.643193 3.54817 0
M  V30 1270 O 118.408 -1.74286 3.73762 0
M  V30 1271 H 117.749 -0.0413583 0.662711 0
M  V30 1272 H 120.279 0.501574 1.98357 0
M  V30 1273 H 120.289 -0.919526 3.97503 0
M  V30 1274 H 118.964 0.218966 4.15323 0
M  V30 1275 H 117.541 -1.46356 3.42979 0
M  V30 1276 N 119.726 -1.57421 0.075193 0
M  V30 1277 C 121.142 -1.57099 -0.281444 0
M  V30 1278 C 121.342 -1.08486 -1.69803 0
M  V30 1279 O 120.398 -0.752279 -2.41033 0
M  V30 1280 C 121.711 -3.00571 -0.0880041 0
M  V30 1281 C 123.259 -3.12605 -0.157281 0
M  V30 1282 C 123.734 -4.57999 0.0079207 0
M  V30 1283 N 125.225 -4.63176 -0.0475725 0
M  V30 1284 C 125.96 -5.73373 0.0557876 0
M  V30 1285 N 125.456 -6.92473 0.21286 0
M  V30 1286 N 127.249 -5.621 -0.00152098 0
M  V30 1287 H 119.4 -1.87335 1.00098 0
M  V30 1288 H 121.663 -0.86377 0.390646 0
M  V30 1289 H 121.369 -3.40262 0.889629 0
M  V30 1290 H 121.243 -3.67754 -0.838875 0
M  V30 1291 H 123.63 -2.72798 -1.1254 0
M  V30 1292 H 123.711 -2.48053 0.62475 0
M  V30 1293 H 123.355 -4.98496 0.972824 0
M  V30 1294 H 123.285 -5.20586 -0.793556 0
M  V30 1295 H 125.776 -3.7753 -0.167244 0
M  V30 1296 H 126.089 -7.72279 0.283781 0
M  V30 1297 H 124.434 -6.94556 0.248267 0
M  V30 1298 H 127.625 -4.67938 -0.122958 0
M  V30 1299 H 127.798 -6.47948 0.0824844 0
M  V30 1300 N 121.204 0.198386 -1.56346 0
M  V30 1301 C 122.167 1.22952 -1.93431 0
M  V30 1302 C 123.167 1.38611 -0.815092 0
M  V30 1303 O 124.357 1.36479 -1.08255 0
M  V30 1304 C 121.489 2.59946 -2.20546 0
M  V30 1305 H 122.682 0.912626 -2.85677 0
M  V30 1306 H 120.235 0.43977 -1.49986 0
M  V30 1307 H 120.97 2.96696 -1.30927 0
M  V30 1308 H 120.755 2.49953 -3.02102 0
M  V30 1309 H 122.245 3.3431 -2.50253 0
M  V30 1310 N 122.682 1.50554 0.465978 0
M  V30 1311 C 123.645 1.69233 1.54574 0
M  V30 1312 C 124.645 0.562901 1.50626 0
M  V30 1313 O 125.835 0.830016 1.53155 0
M  V30 1314 C 122.967 1.7223 2.94193 0
M  V30 1315 H 124.16 2.65571 1.39327 0
M  V30 1316 H 121.713 1.40111 0.692711 0
M  V30 1317 H 122.448 0.77603 3.14878 0
M  V30 1318 H 122.233 2.54285 2.98466 0
M  V30 1319 H 123.723 1.88618 3.72576 0
M  V30 1320 N 124.16 -0.719506 1.40217 0
M  V30 1321 C 125.09 -1.8465 1.42922 0
M  V30 1322 C 126.071 -1.67599 0.29062 0
M  V30 1323 O 127.256 -1.87688 0.498677 0
M  V30 1324 C 124.386 -3.22565 1.28722 0
M  V30 1325 C 123.34 -3.54281 2.40144 0
M  V30 1326 C 122.666 -4.91298 2.11023 0
M  V30 1327 C 123.966 -3.55676 3.82481 0
M  V30 1328 H 125.66 -1.82644 2.37237 0
M  V30 1329 H 123.206 -0.877305 1.1419 0
M  V30 1330 H 125.159 -4.01095 1.29232 0
M  V30 1331 H 123.883 -3.25137 0.308811 0
M  V30 1332 H 122.542 -2.78088 2.38877 0
M  V30 1333 H 122.19 -4.90468 1.11582 0
M  V30 1334 H 121.89 -5.13485 2.8567 0
M  V30 1335 H 123.414 -5.72166 2.13209 0
M  V30 1336 H 124.828 -4.24254 3.85592 0
M  V30 1337 H 123.225 -3.89388 4.56614 0
M  V30 1338 H 124.295 -2.55144 4.12346 0
M  V30 1339 N 125.638 -1.25649 -0.95132 0
M  V30 1340 C 126.548 -1.08073 -2.08224 0
M  V30 1341 C 127.564 -0.0169666 -1.73992 0
M  V30 1342 O 128.74 -0.218593 -2.0021 0
M  V30 1343 C 125.805 -0.704922 -3.39458 0
M  V30 1344 C 124.866 -1.84699 -3.87537 0
M  V30 1345 C 124.099 -1.48902 -5.12508 0
M  V30 1346 O 124.322 -0.386156 -5.69091 0
M  V30 1347 O 123.256 -2.32033 -5.55378 0
M  V30 1348 H 127.082 -2.02924 -2.25954 0
M  V30 1349 H 124.667 -1.04618 -1.06656 0
M  V30 1350 H 126.549 -0.507609 -4.18332 0
M  V30 1351 H 125.224 0.214291 -3.2299 0
M  V30 1352 H 124.131 -2.09919 -3.09653 0
M  V30 1353 H 125.464 -2.74557 -4.08509 0
M  V30 1354 N 127.117 1.15442 -1.07289 0
M  V30 1355 C 128.08 2.18358 -0.696591 0
M  V30 1356 C 129.08 1.58637 0.262837 0
M  V30 1357 O 130.27 1.74145 0.0438809 0
M  V30 1358 C 127.402 3.4089 -0.0266151 0
M  V30 1359 H 128.595 2.53162 -1.60776 0
M  V30 1360 H 126.148 1.29893 -0.869342 0
M  V30 1361 H 126.883 3.11653 0.896822 0
M  V30 1362 H 126.668 3.85495 -0.716657 0
M  V30 1363 H 128.158 4.17009 0.222028 0
M  V30 1364 N 128.595 0.856903 1.32268 0
M  V30 1365 C 129.525 0.31858 2.31316 0
M  V30 1366 C 130.506 -0.583487 1.59779 0
M  V30 1367 O 131.691 -0.503259 1.87566 0
M  V30 1368 C 128.821 -0.491979 3.43798 0
M  V30 1369 C 127.775 0.315849 4.26833 0
M  V30 1370 C 127.101 -0.619586 5.31098 0
M  V30 1371 C 128.401 1.54282 4.98993 0
M  V30 1372 H 130.095 1.14621 2.76591 0
M  V30 1373 H 127.641 0.552613 1.32974 0
M  V30 1374 H 129.594 -0.879012 4.1213 0
M  V30 1375 H 128.318 -1.35299 2.97257 0
M  V30 1376 H 126.977 0.684664 3.6015 0
M  V30 1377 H 126.625 -1.47751 4.8081 0
M  V30 1378 H 126.325 -0.0830621 5.87541 0
M  V30 1379 H 127.849 -1.00375 6.02293 0
M  V30 1380 H 129.263 1.22796 5.59995 0
M  V30 1381 H 127.66 2.01745 5.65172 0
M  V30 1382 H 128.73 2.30285 4.26728 0
M  V30 1383 N 130.073 -1.45103 0.615059 0
M  V30 1384 C 131.321 -2.01784 0.112955 0
M  V30 1385 C 131.642 -1.48504 -1.26378 0
M  V30 1386 O 130.912 -0.682245 -1.83636 0
M  V30 1387 H 129.492 -0.745993 0.0387668 0
M  V30 1388 H 132.154 -1.77808 0.798141 0
M  V30 1389 H 131.25 -3.12025 0.0684069 0
M  V30 1390 N 131.551 -0.354651 -1.53558 0
M  V30 1391 C 132.776 0.242153 -2.05981 0
M  V30 1392 C 133.201 1.42553 -1.2272 0
M  V30 1393 O 132.559 1.79656 -0.243604 0
M  V30 1394 C 132.607 0.624367 -3.55154 0
M  V30 1395 O 131.711 1.72301 -3.74681 0
M  V30 1396 H 131.052 0.0378432 -0.662921 0
M  V30 1397 H 133.582 -0.512087 -1.98088 0
M  V30 1398 H 133.592 0.898433 -3.97985 0
M  V30 1399 H 132.267 -0.240989 -4.15201 0
M  V30 1400 H 130.844 1.44535 -3.4375 0
M  V30 1401 N 133.029 1.57378 -0.0835403 0
M  V30 1402 C 134.269 1.95808 0.586381 0
M  V30 1403 C 134.633 0.963706 1.66062 0
M  V30 1404 O 135.834 1.23608 2.38693 0
M  V30 1405 C 134.105 3.38808 1.13771 0
M  V30 1406 S 135.664 3.99225 1.82112 0
M  V30 1407 H 132.482 0.684675 0.191679 0
M  V30 1408 H 135.084 1.94843 -0.160194 0
M  V30 1409 H 133.788 4.08954 0.344197 0
M  V30 1410 H 133.319 3.43344 1.92038 0
M  V30 1411 H 135.334 3.87087 3.10449 0
M  V30 1412 N 134.507 -0.190092 1.56449 0
M  V30 1413 C 135.437 -1.23816 1.97969 0
M  V30 1414 C 136.418 -1.47201 0.852395 0
M  V30 1415 O 137.603 -1.58854 1.1171 0
M  V30 1416 C 134.733 -2.5813 2.3235 0
M  V30 1417 C 133.687 -2.49348 3.47864 0
M  V30 1418 C 133.013 -3.8798 3.67934 0
M  V30 1419 C 134.313 -2.01424 4.81898 0
M  V30 1420 H 136.007 -0.89311 2.85769 0
M  V30 1421 H 133.553 -0.428177 1.37487 0
M  V30 1422 H 135.506 -3.31637 2.59991 0
M  V30 1423 H 134.23 -2.94386 1.41438 0
M  V30 1424 H 132.889 -1.78297 3.20321 0
M  V30 1425 H 132.537 -4.21597 2.74344 0
M  V30 1426 H 132.237 -3.82978 4.45648 0
M  V30 1427 H 133.761 -4.63101 3.97957 0
M  V30 1428 H 135.175 -2.64693 5.08538 0
M  V30 1429 H 133.572 -2.07413 5.63116 0
M  V30 1430 H 134.642 -0.967677 4.75146 0
M  V30 1431 N 135.985 -1.50799 -0.457987 0
M  V30 1432 C 136.933 -1.71162 -1.575 0
M  V30 1433 C 137.927 -0.577592 -1.59249 0
M  V30 1434 O 139.133 -0.758443 -1.63241 0
M  V30 1435 H 135.508 -0.540468 -0.522875 0
M  V30 1436 H 137.479 -2.64837 -1.37492 0
M  V30 1437 C 136.228 -1.83496 -2.95338 0
M  V30 1438 H 135.551 -2.70153 -2.94716 0
M  V30 1439 H 136.991 -2.01765 -3.72917 0
M  V30 1440 C 135.45 -0.589694 -3.31699 0
M  V30 1441 O 135.98 0.265163 -4.00824 0
M  V30 1442 N 134.186 -0.439845 -2.87252 0
M  V30 1443 H 133.733 -1.13655 -2.31172 0
M  V30 1444 H 133.691 0.392159 -3.11945 0
M  V30 1445 N 137.463 0.71206 -1.40597 0
M  V30 1446 C 138.411 1.84746 -1.41321 0
M  V30 1447 C 139.405 1.66842 -0.293268 0
M  V30 1448 O 140.611 1.73904 -0.464481 0
M  V30 1449 H 136.986 0.608522 -0.441819 0
M  V30 1450 H 138.957 1.81252 -2.37045 0
M  V30 1451 C 137.706 3.22638 -1.29614 0
M  V30 1452 H 137.029 3.37023 -2.15071 0
M  V30 1453 H 138.469 4.02209 -1.3418 0
M  V30 1454 C 136.928 3.36899 -0.00673121 0
M  V30 1455 O 137.458 3.90186 0.954859 0
M  V30 1456 N 135.664 2.9053 0.0639327 0
M  V30 1457 H 135.211 2.47353 -0.719311 0
M  V30 1458 H 135.169 3.0045 0.926118 0
M  V30 1459 N 138.941 1.26152 0.944643 0
M  V30 1460 C 139.888 1.07408 2.04285 0
M  V30 1461 C 140.858 -0.0198413 1.66088 0
M  V30 1462 O 142.043 0.139264 1.90291 0
M  V30 1463 C 139.183 0.70945 3.37729 0
M  V30 1464 C 138.296 1.87926 3.88983 0
M  V30 1465 C 137.431 1.45807 5.10797 0
M  V30 1466 C 136.47 2.5964 5.54305 0
M  V30 1467 N 135.607 2.18226 6.67324 0
M  V30 1468 H 140.447 2.01389 2.1965 0
M  V30 1469 H 137.984 1.00275 1.07626 0
M  V30 1470 H 139.942 0.478948 4.14442 0
M  V30 1471 H 138.572 -0.193389 3.2222 0
M  V30 1472 H 137.624 2.22279 3.08701 0
M  V30 1473 H 138.936 2.73377 4.17213 0
M  V30 1474 H 138.09 1.18781 5.94959 0
M  V30 1475 H 136.829 0.574414 4.84305 0
M  V30 1476 H 135.834 2.87399 4.68702 0
M  V30 1477 H 137.059 3.48599 5.828 0
M  V30 1478 H 135.005 1.3229 6.42523 0
M  V30 1479 H 134.922 2.97221 6.95123 0
M  V30 1480 H 136.19 1.94403 7.54869 0
M  V30 1481 N 140.419 -1.14872 1.07899 0
M  V30 1482 C 141.649 -1.89386 0.825631 0
M  V30 1483 C 142.057 -1.78565 -0.625406 0
M  V30 1484 O 141.4 -1.13918 -1.44113 0
M  V30 1485 C 141.462 -3.40206 1.16191 0
M  V30 1486 C 141.126 -3.74812 2.61467 0
M  V30 1487 C 142.123 -3.75367 3.59716 0
M  V30 1488 C 139.808 -4.0495 2.97189 0
M  V30 1489 C 141.802 -4.05574 4.9172 0
M  V30 1490 C 139.489 -4.34821 4.29388 0
M  V30 1491 C 140.487 -4.35116 5.26463 0
M  V30 1492 O 140.175 -4.64267 6.56286 0
M  V30 1493 H 139.907 -0.606894 0.297751 0
M  V30 1494 H 142.461 -1.46438 1.44031 0
M  V30 1495 H 140.691 -3.8358 0.490214 0
M  V30 1496 H 142.38 -3.96018 0.890193 0
M  V30 1497 H 143.146 -3.52176 3.33462 0
M  V30 1498 H 139.025 -4.03876 2.22273 0
M  V30 1499 H 142.569 -4.05719 5.67484 0
M  V30 1500 H 138.466 -4.5748 4.55392 0
M  V30 1501 H 139.234 -4.82007 6.61522 0
M  V30 1502 N 141.898 -0.863906 -1.31812 0
M  V30 1503 C 143.123 -0.48527 -2.01643 0
M  V30 1504 C 143.548 0.913058 -1.64453 0
M  V30 1505 O 142.906 1.6014 -0.849985 0
M  V30 1506 C 142.954 -0.642625 -3.54828 0
M  V30 1507 O 142.058 0.320659 -4.11151 0
M  V30 1508 H 141.399 -0.193793 -0.635091 0
M  V30 1509 H 143.929 -1.16565 -1.68148 0
M  V30 1510 H 143.939 -0.533628 -4.04495 0
M  V30 1511 H 142.614 -1.66227 -3.81237 0
M  V30 1512 H 141.191 0.167126 -3.72525 0
M  V30 1513 N 143.376 1.44774 -0.622745 0
M  V30 1514 C 144.286 2.34433 0.0886031 0
M  V30 1515 C 145.302 1.52131 0.844529 0
M  V30 1516 O 146.478 1.84886 0.798691 0
M  V30 1517 C 143.543 3.29986 1.0635 0
M  V30 1518 C 142.604 4.28195 0.307873 0
M  V30 1519 C 141.837 5.19183 1.23633 0
M  V30 1520 O 142.06 5.13918 2.47476 0
M  V30 1521 O 140.994 5.97515 0.725189 0
M  V30 1522 H 144.82 2.96693 -0.648599 0
M  V30 1523 H 142.405 1.44408 -0.382957 0
M  V30 1524 H 144.287 3.88825 1.6246 0
M  V30 1525 H 142.962 2.70269 1.78146 0
M  V30 1526 H 141.869 3.72927 -0.296064 0
M  V30 1527 H 143.202 4.90808 -0.3699 0
M  V30 1528 N 144.854 0.36279 1.53368 0
M  V30 1529 C 146.102 -0.227326 2.00817 0
M  V30 1530 C 146.423 -1.49511 1.25186 0
M  V30 1531 O 145.693 -1.92482 0.364348 0
M  V30 1532 H 144.273 -0.0869923 0.741917 0
M  V30 1533 H 146.935 0.488381 1.88682 0
M  V30 1534 H 146.031 -0.456273 3.08747 0
M  V30 1535 N 146.332 -1.57332 0.0918853 0
M  V30 1536 C 147.562 -1.98286 -0.580205 0
M  V30 1537 C 147.97 -0.969713 -1.6246 0
M  V30 1538 O 147.313 0.0493501 -1.83634 0
M  V30 1539 C 147.375 -3.35603 -1.28882 0
M  V30 1540 C 147.039 -4.55285 -0.395559 0
M  V30 1541 C 148.036 -5.18687 0.355002 0
M  V30 1542 C 145.721 -5.01314 -0.314556 0
M  V30 1543 C 147.715 -6.26484 1.17458 0
M  V30 1544 C 145.402 -6.08979 0.508677 0
M  V30 1545 C 146.4 -6.71429 1.2519 0
M  V30 1546 O 146.088 -7.77018 2.06151 0
M  V30 1547 H 145.82 -0.656678 -0.160466 0
M  V30 1548 H 148.374 -2.04721 0.16688 0
M  V30 1549 H 146.604 -3.25842 -2.08241 0
M  V30 1550 H 148.293 -3.61026 -1.85512 0
M  V30 1551 H 149.059 -4.84058 0.302134 0
M  V30 1552 H 144.938 -4.5247 -0.882697 0
M  V30 1553 H 148.482 -6.75159 1.75518 0
M  V30 1554 H 144.379 -6.4304 0.563037 0
M  V30 1555 H 145.147 -7.93991 1.98799 0
M  V30 1556 N 147.81 0.181792 -1.56548 0
M  V30 1557 C 149.221 0.745244 -1.71181 0
M  V30 1558 C 149.572 1.83262 -0.70068 0
M  V30 1559 O 148.697 2.15946 0.140154 0
M  V30 1560 C 149.292 1.35859 -3.10367 0
M  V30 1561 C 147.851 1.86898 -3.2672 0
M  V30 1562 C 146.998 0.743942 -2.67134 0
M  V30 1563 H 149.949 -0.0434661 -1.5864 0
M  V30 1564 H 149.97 2.22817 -3.08436 0
M  V30 1565 H 149.482 0.566948 -3.83937 0
M  V30 1566 H 147.583 2.68738 -2.5809 0
M  V30 1567 H 147.696 2.02162 -4.34359 0
M  V30 1568 H 146.06 1.16169 -2.26665 0
M  V30 1569 H 146.843 -0.035676 -3.43281 0
M  V30 1570 N 149.288 1.51039 0.449983 0
M  V30 1571 C 150.536 1.62759 1.19808 0
M  V30 1572 C 150.857 0.339981 1.92013 0
M  V30 1573 O 150.127 -0.643606 1.85026 0
M  V30 1574 H 148.707 0.599811 0.445237 0
M  V30 1575 H 151.369 1.87914 0.517138 0
M  V30 1576 H 150.465 2.44911 1.93455 0
M  V30 1577 N 150.766 -0.704594 1.40972 0
M  V30 1578 C 151.713 -1.81862 1.42109 0
M  V30 1579 C 152.683 -1.63781 0.276593 0
M  V30 1580 O 153.868 -1.84759 0.4763 0
M  V30 1581 C 151.008 -3.19669 1.30022 0
M  V30 1582 C 150.121 -3.49246 2.54267 0
M  V30 1583 C 149.256 -4.76618 2.3454 0
M  V30 1584 C 148.295 -4.99133 3.54306 0
M  V30 1585 N 147.432 -6.17726 3.33706 0
M  V30 1586 H 152.272 -1.80226 2.37324 0
M  V30 1587 H 149.809 -0.880238 1.17857 0
M  V30 1588 H 151.767 -3.99263 1.21018 0
M  V30 1589 H 150.397 -3.20506 0.384192 0
M  V30 1590 H 149.449 -2.64125 2.73756 0
M  V30 1591 H 150.761 -3.61788 3.43381 0
M  V30 1592 H 149.915 -5.64249 2.22952 0
M  V30 1593 H 148.654 -4.66305 1.42867 0
M  V30 1594 H 147.659 -4.09953 3.66359 0
M  V30 1595 H 148.884 -5.11311 4.4692 0
M  V30 1596 H 146.83 -6.08642 2.44725 0
M  V30 1597 H 146.747 -6.30995 4.16391 0
M  V30 1598 H 148.015 -7.08115 3.25873 0
M  V30 1599 N 152.244 -1.26651 -0.937939 0
M  V30 1600 C 153.66 -1.03834 -1.21205 0
M  V30 1601 C 153.86 0.234502 -2.00131 0
M  V30 1602 O 152.916 0.942767 -2.3424 0
M  V30 1603 C 154.229 -2.27167 -1.97017 0
M  V30 1604 C 155.777 -2.32101 -2.09996 0
M  V30 1605 C 156.252 -3.55136 -2.8921 0
M  V30 1606 N 157.743 -3.55632 -2.96783 0
M  V30 1607 C 158.478 -4.475 -3.58512 0
M  V30 1608 N 157.974 -5.4966 -4.21717 0
M  V30 1609 N 159.767 -4.35145 -3.55816 0
M  V30 1610 H 151.918 -2.08398 -0.410391 0
M  V30 1611 H 154.181 -0.916031 -0.244114 0
M  V30 1612 H 153.887 -3.19765 -1.46434 0
M  V30 1613 H 153.761 -2.31672 -2.97671 0
M  V30 1614 H 156.148 -1.40015 -2.59769 0
M  V30 1615 H 156.229 -2.31605 -1.08594 0
M  V30 1616 H 155.873 -4.47553 -2.40123 0
M  V30 1617 H 155.803 -3.5288 -3.90875 0
M  V30 1618 H 158.294 -2.81743 -2.51852 0
M  V30 1619 H 158.607 -6.15943 -4.66727 0
M  V30 1620 H 156.952 -5.53514 -4.20294 0
M  V30 1621 H 160.143 -3.5455 -3.05634 0
M  V30 1622 H 160.316 -5.06934 -4.03636 0
M  V30 1623 N 153.722 1.14298 -1.08507 0
M  V30 1624 C 154.952 1.88945 -0.835663 0
M  V30 1625 C 155.36 1.78894 0.615928 0
M  V30 1626 O 154.703 1.1468 1.43506 0
M  V30 1627 C 154.765 3.39585 -1.17994 0
M  V30 1628 C 154.429 3.7342 -2.63451 0
M  V30 1629 C 155.426 3.73454 -3.61702 0
M  V30 1630 C 153.111 4.03368 -2.99332 0
M  V30 1631 C 155.105 4.02961 -4.93864 0
M  V30 1632 C 152.792 4.32538 -4.31687 0
M  V30 1633 C 153.79 4.32318 -5.28763 0
M  V30 1634 O 153.478 4.6078 -6.58739 0
M  V30 1635 H 153.21 0.605307 -0.300965 0
M  V30 1636 H 155.764 1.45673 -1.44806 0
M  V30 1637 H 153.994 3.83315 -0.51055 0
M  V30 1638 H 155.683 3.9554 -0.911182 0
M  V30 1639 H 156.449 3.50403 -3.35325 0
M  V30 1640 H 152.328 4.02692 -2.24411 0
M  V30 1641 H 155.872 4.02704 -5.69627 0
M  V30 1642 H 151.769 4.55059 -4.57812 0
M  V30 1643 H 152.537 4.78492 -6.64069 0
M  V30 1644 N 155.201 0.870884 1.31352 0
M  V30 1645 C 156.431 0.496049 2.00557 0
M  V30 1646 C 156.839 -0.916241 1.65534 0
M  V30 1647 O 156.182 -1.61188 0.881134 0
M  V30 1648 C 156.244 0.574418 3.54881 0
M  V30 1649 C 155.908 1.94849 4.1338 0
M  V30 1650 C 156.905 2.91611 4.30417 0
M  V30 1651 C 154.59 2.25005 4.49086 0
M  V30 1652 C 156.584 4.16672 4.82352 0
M  V30 1653 C 154.271 3.50315 5.00722 0
M  V30 1654 C 155.269 4.45964 5.17306 0
M  V30 1655 O 154.957 5.69052 5.67833 0
M  V30 1656 H 154.689 0.191664 0.64826 0
M  V30 1657 H 157.243 1.17409 1.68536 0
M  V30 1658 H 155.473 -0.160549 3.86367 0
M  V30 1659 H 157.162 0.212879 4.05341 0
M  V30 1660 H 157.928 2.69622 4.03149 0
M  V30 1661 H 153.807 1.51332 4.35453 0
M  V30 1662 H 157.351 4.91336 4.95211 0
M  V30 1663 H 153.248 3.72147 5.27424 0
M  V30 1664 H 154.016 5.71236 5.86201 0
M  V30 1665 N 156.679 -1.44442 0.630414 0
M  V30 1666 C 157.927 -2.01653 0.134351 0
M  V30 1667 C 158.248 -1.49836 -1.24796 0
M  V30 1668 O 157.518 -0.701684 -1.82902 0
M  V30 1669 H 156.098 -0.74554 0.0466769 0
M  V30 1670 H 158.76 -1.76952 0.816955 0
M  V30 1671 H 157.856 -3.11935 0.101498 0
M  V30 1672 N 158.157 -0.370918 -1.53173 0
M  V30 1673 C 159.405 0.216673 -2.00935 0
M  V30 1674 C 159.726 1.48845 -1.25977 0
M  V30 1675 O 158.996 1.92286 -0.374551 0
M  V30 1676 H 157.576 0.0830565 -0.742368 0
M  V30 1677 H 160.238 -0.49838 -1.8842 0
M  V30 1678 H 159.334 0.439893 -3.08984 0
M  V30 1679 N 159.635 1.57281 -0.100228 0
M  V30 1680 C 160.598 2.13158 0.842398 0
M  V30 1681 C 161.598 1.06202 1.20738 0
M  V30 1682 O 162.788 1.32066 1.13597 0
M  V30 1683 C 159.92 2.65639 2.13655 0
M  V30 1684 H 161.113 2.97766 0.357114 0
M  V30 1685 H 158.666 1.5559 0.148823 0
M  V30 1686 H 159.401 1.84566 2.66657 0
M  V30 1687 H 159.186 3.43844 1.88451 0
M  V30 1688 H 160.676 3.08846 2.81077 0
M  V30 1689 N 161.113 -0.173488 1.56642 0
M  V30 1690 C 162.023 -1.23482 1.99473 0
M  V30 1691 C 163.039 -1.48567 0.905752 0
M  V30 1692 O 164.215 -1.60758 1.21321 0
M  V30 1693 C 161.28 -2.55444 2.34413 0
M  V30 1694 C 160.341 -2.38241 3.57127 0
M  V30 1695 C 159.574 -3.63909 3.90392 0
M  V30 1696 O 159.797 -4.68996 3.24653 0
M  V30 1697 O 158.731 -3.58149 4.83749 0
M  V30 1698 H 162.557 -0.901279 2.90018 0
M  V30 1699 H 160.142 -0.380185 1.44482 0
M  V30 1700 H 162.024 -3.33292 2.57865 0
M  V30 1701 H 160.699 -2.88382 1.4703 0
M  V30 1702 H 159.606 -1.58431 3.38896 0
M  V30 1703 H 160.939 -2.10228 4.45045 0
M  V30 1704 N 162.591 -1.51276 -0.441967 0
M  V30 1705 C 163.837 -1.63958 -1.19355 0
M  V30 1706 C 164.17 -0.352543 -1.90973 0
M  V30 1707 O 163.445 0.647627 -1.83401 0
M  V30 1708 C 163.728 -2.83979 -2.21422 0
M  V30 1709 C 163.581 -4.22646 -1.53918 0
M  V30 1710 C 164.9 -2.99521 -3.22451 0
M  V30 1711 H 162.019 -0.596709 -0.432559 0
M  V30 1712 H 164.661 -1.83748 -0.483398 0
M  V30 1713 H 162.811 -2.67237 -2.81987 0
M  V30 1714 H 164.483 -4.51045 -0.967256 0
M  V30 1715 H 162.726 -4.25558 -0.841615 0
M  V30 1716 H 163.397 -5.02609 -2.28229 0
M  V30 1717 H 165.873 -3.14944 -2.71937 0
M  V30 1718 H 164.749 -3.85072 -3.91166 0
M  V30 1719 H 165.01 -2.11391 -3.88287 0
M  V30 1720 N 164.069 0.697108 -1.41344 0
M  V30 1721 C 165.315 1.4593 -1.40827 0
M  V30 1722 C 165.648 1.94193 -0.0167098 0
M  V30 1723 O 164.923 1.69425 0.955263 0
M  V30 1724 C 165.206 2.67229 -2.41373 0
M  V30 1725 C 165.059 2.24741 -3.8963 0
M  V30 1726 C 166.378 3.69423 -2.39196 0
M  V30 1727 H 163.497 0.529303 -0.512842 0
M  V30 1728 H 166.139 0.794112 -1.72609 0
M  V30 1729 H 164.289 3.23982 -2.14401 0
M  V30 1730 H 165.961 1.73327 -4.27499 0
M  V30 1731 H 164.204 1.56542 -4.0457 0
M  V30 1732 H 164.875 3.1177 -4.55525 0
M  V30 1733 H 167.351 3.2234 -2.63128 0
M  V30 1734 H 166.227 4.51907 -3.11563 0
M  V30 1735 H 166.488 4.19012 -1.41001 0
M  V30 1736 N 165.547 1.27147 0.931209 0
M  V30 1737 C 166.824 1.0401 1.65654 0
M  V30 1738 C 167.204 -0.426297 2.06751 0
M  V30 1739 O 166.552 -1.40879 1.79904 0
M  V30 1740 C 166.762 1.99834 2.86125 0
M  V30 1741 C 168.11 2.29007 3.57549 0
M  V30 1742 O 169.134 1.97779 2.96246 0
M  V30 1743 O 167.993 2.82222 4.67989 0
M  V30 1744 H 165.087 0.396239 0.725895 0
M  V30 1745 H 167.633 1.38397 0.982056 0
M  V30 1746 H 166.405 2.98744 2.52721 0
M  V30 1747 H 166.028 1.65987 3.61295 0
M  V30 1748 N 167.025 -1.13721 1.09112 0
M  V30 1749 C 167.935 -2.22638 0.73957 0
M  V30 1750 C 168.951 -1.72091 -0.257068 0
M  V30 1751 O 170.127 -2.01155 -0.0992154 0
M  V30 1752 C 167.192 -3.46322 0.16191 0
M  V30 1753 C 166.253 -4.11775 1.21408 0
M  V30 1754 C 165.486 -5.29555 0.663891 0
M  V30 1755 O 165.709 -5.68077 -0.514274 0
M  V30 1756 O 164.643 -5.84973 1.41738 0
M  V30 1757 H 168.469 -2.55074 1.64836 0
M  V30 1758 H 166.054 -1.21791 0.865289 0
M  V30 1759 H 167.936 -4.21107 -0.157073 0
M  V30 1760 H 166.611 -3.15593 -0.719932 0
M  V30 1761 H 165.518 -3.3883 1.58571 0
M  V30 1762 H 166.851 -4.46627 2.06845 0
M  V30 1763 N 168.503 -0.877838 -1.30888 0
M  V30 1764 C 169.752 -0.488793 -1.95688 0
M  V30 1765 C 170.065 0.965485 -1.70111 0
M  V30 1766 O 171.271 1.46104 -2.28836 0
M  V30 1767 C 169.727 -0.823201 -3.50359 0
M  V30 1768 C 169.335 -2.29477 -3.84765 0
M  V30 1769 C 171.079 -0.503009 -4.21509 0
M  V30 1770 C 168.986 -2.57118 -5.32583 0
M  V30 1771 H 167.916 -0.179062 -0.732429 0
M  V30 1772 H 170.567 -1.07183 -1.48943 0
M  V30 1773 H 168.949 -0.169331 -3.95638 0
M  V30 1774 H 170.123 -2.99236 -3.5042 0
M  V30 1775 H 168.438 -2.58178 -3.267 0
M  V30 1776 H 171.035 -0.68665 -5.30273 0
M  V30 1777 H 171.378 0.557109 -4.12555 0
M  V30 1778 H 171.911 -1.11376 -3.8189 0
M  V30 1779 H 168.65 -3.61843 -5.4658 0
M  V30 1780 H 168.17 -1.91961 -5.68253 0
M  V30 1781 H 169.849 -2.42251 -5.99936 0
M  V30 1782 N 169.982 1.44106 -0.638065 0
M  V30 1783 C 170.892 2.34513 0.0637334 0
M  V30 1784 C 171.908 1.53018 0.828346 0
M  V30 1785 O 173.084 1.85723 0.779036 0
M  V30 1786 C 170.149 3.31095 1.02844 0
M  V30 1787 C 169.21 4.28497 0.26244 0
M  V30 1788 C 168.443 5.20465 1.1812 0
M  V30 1789 O 168.666 5.16514 2.42011 0
M  V30 1790 O 167.6 5.98251 0.661774 0
M  V30 1791 H 171.426 2.95989 -0.68003 0
M  V30 1792 H 169.011 1.43994 -0.398252 0
M  V30 1793 H 170.893 3.90526 1.58327 0
M  V30 1794 H 169.568 2.72144 1.7527 0
M  V30 1795 H 168.475 3.72592 -0.335602 0
M  V30 1796 H 169.808 4.90388 -0.421936 0
M  V30 1797 N 171.46 0.379036 1.52974 0
M  V30 1798 C 172.39 -0.452706 2.29069 0
M  V30 1799 C 173.371 -1.07237 1.32039 0
M  V30 1800 O 174.556 -1.08708 1.60923 0
M  V30 1801 C 171.686 -1.5856 3.08992 0
M  V30 1802 C 170.64 -1.0925 4.13822 0
M  V30 1803 C 169.966 -2.31668 4.81907 0
M  V30 1804 C 171.266 -0.167702 5.22031 0
M  V30 1805 H 172.96 0.182181 2.98845 0
M  V30 1806 H 170.506 0.0890592 1.43724 0
M  V30 1807 H 172.459 -2.1742 3.6098 0
M  V30 1808 H 171.183 -2.24792 2.36931 0
M  V30 1809 H 169.842 -0.526494 3.628 0
M  V30 1810 H 169.49 -2.96386 4.06404 0
M  V30 1811 H 169.19 -1.9934 5.52754 0
M  V30 1812 H 170.714 -2.91189 5.36695 0
M  V30 1813 H 172.128 -0.664186 5.6944 0
M  V30 1814 H 170.525 0.0653265 6.00064 0
M  V30 1815 H 171.595 0.786347 4.78482 0
M  V30 1816 N 172.938 -1.57226 0.108567 0
M  V30 1817 C 173.868 -2.17778 -0.84232 0
M  V30 1818 C 174.849 -1.11487 -1.2847 0
M  V30 1819 O 176.034 -1.39681 -1.34918 0
M  V30 1820 C 173.164 -2.76888 -2.09644 0
M  V30 1821 C 172.118 -3.88669 -1.79221 0
M  V30 1822 C 171.444 -4.34541 -3.11574 0
M  V30 1823 C 172.744 -5.11251 -1.06864 0
M  V30 1824 H 174.438 -2.97489 -0.337774 0
M  V30 1825 H 171.984 -1.43097 -0.161025 0
M  V30 1826 H 173.937 -3.17904 -2.76614 0
M  V30 1827 H 172.661 -1.94451 -2.62405 0
M  V30 1828 H 171.32 -3.48213 -1.14644 0
M  V30 1829 H 170.968 -3.48977 -3.62249 0
M  V30 1830 H 170.668 -5.09914 -2.91996 0
M  V30 1831 H 172.192 -4.782 -3.7968 0
M  V30 1832 H 173.606 -5.49352 -1.63968 0
M  V30 1833 H 172.003 -5.9214 -0.974178 0
M  V30 1834 H 173.073 -4.8487 -0.0536168 0
M  V30 1835 N 174.416 0.165178 -1.56732 0
M  V30 1836 C 175.656 0.887231 -1.8414 0
M  V30 1837 C 176.02 1.79159 -0.690353 0
M  V30 1838 O 177.221 2.55172 -0.845032 0
M  V30 1839 C 175.492 1.65674 -3.16681 0
M  V30 1840 S 177.051 2.42671 -3.6559 0
M  V30 1841 H 173.869 0.297042 -0.645978 0
M  V30 1842 H 176.471 0.148439 -1.94936 0
M  V30 1843 H 175.175 0.983507 -3.98441 0
M  V30 1844 H 174.706 2.43679 -3.08843 0
M  V30 1845 H 176.721 3.67499 -3.33406 0
M  V30 1846 N 175.894 1.51508 0.433938 0
M  V30 1847 C 176.826 1.69266 1.54537 0
M  V30 1848 C 177.839 0.573276 1.52373 0
M  V30 1849 O 179.028 0.847698 1.57087 0
M  V30 1850 C 176.128 1.69524 2.93453 0
M  V30 1851 C 175.301 2.98101 3.20085 0
M  V30 1852 C 174.36 2.90502 4.38742 0
M  V30 1853 O 173.386 3.64442 4.3723 0
M  V30 1854 N 174.588 2.06586 5.42496 0
M  V30 1855 H 177.353 2.65145 1.39708 0
M  V30 1856 H 174.914 1.49437 0.622922 0
M  V30 1857 H 176.906 1.62004 3.70859 0
M  V30 1858 H 175.476 0.812245 3.01863 0
M  V30 1859 H 174.696 3.19464 2.30947 0
M  V30 1860 H 175.984 3.83207 3.34708 0
M  V30 1861 H 175.382 1.45896 5.46563 0
M  V30 1862 H 173.939 2.04943 6.18742 0
M  V30 1863 N 177.372 -0.689602 1.41712 0
M  V30 1864 C 178.788 -1.00093 1.24312 0
M  V30 1865 C 178.988 -2.01036 0.136729 0
M  V30 1866 O 178.044 -2.47562 -0.496918 0
M  V30 1867 C 179.357 -1.51985 2.59463 0
M  V30 1868 C 180.905 -1.63838 2.66695 0
M  V30 1869 C 181.38 -2.1913 4.02177 0
M  V30 1870 N 182.871 -2.26483 4.04054 0
M  V30 1871 C 183.606 -2.70306 5.0569 0
M  V30 1872 N 183.102 -3.13691 6.17713 0
M  V30 1873 N 184.895 -2.69923 4.9305 0
M  V30 1874 H 177.046 -0.0210029 2.1239 0
M  V30 1875 H 179.309 -0.0718733 0.945272 0
M  V30 1876 H 179.015 -0.85269 3.41207 0
M  V30 1877 H 178.889 -2.50103 2.82362 0
M  V30 1878 H 181.276 -2.29664 1.85306 0
M  V30 1879 H 181.357 -0.642492 2.476 0
M  V30 1880 H 181.001 -1.53918 4.84016 0
M  V30 1881 H 180.931 -3.19482 4.18615 0
M  V30 1882 H 183.422 -1.95874 3.23174 0
M  V30 1883 H 183.735 -3.45773 6.9113 0
M  V30 1884 H 182.08 -3.11585 6.21241 0
M  V30 1885 H 185.271 -2.35382 4.04614 0
M  V30 1886 H 185.444 -3.03758 5.72394 0
M  V30 1887 N 178.85 -1.27639 -0.924453 0
M  V30 1888 C 180.266 -1.05113 -1.20097 0
M  V30 1889 C 180.466 0.213262 -2.00368 0
M  V30 1890 O 179.522 0.91787 -2.35226 0
M  V30 1891 C 180.835 -2.29244 -1.94596 0
M  V30 1892 C 182.383 -2.34315 -2.07522 0
M  V30 1893 C 182.858 -3.58183 -2.85427 0
M  V30 1894 N 184.349 -3.5876 -2.92994 0
M  V30 1895 C 185.084 -4.51277 -3.53746 0
M  V30 1896 N 184.58 -5.54102 -4.15863 0
M  V30 1897 N 186.373 -4.38894 -3.51181 0
M  V30 1898 H 178.524 -2.08821 -0.388264 0
M  V30 1899 H 180.787 -0.918568 -0.234385 0
M  V30 1900 H 180.493 -3.21301 -1.43034 0
M  V30 1901 H 180.367 -2.34816 -2.95197 0
M  V30 1902 H 182.754 -1.42762 -2.58269 0
M  V30 1903 H 182.835 -2.32744 -1.06131 0
M  V30 1904 H 182.479 -4.50074 -2.35363 0
M  V30 1905 H 182.409 -3.57006 -3.8711 0
M  V30 1906 H 184.9 -2.84398 -2.4885 0
M  V30 1907 H 185.213 -6.20859 -4.60168 0
M  V30 1908 H 183.558 -5.57941 -4.144 0
M  V30 1909 H 186.749 -3.57772 -3.01856 0
M  V30 1910 H 186.922 -5.11186 -3.98237 0
M  V30 1911 N 180.328 1.1314 -1.09713 0
M  V30 1912 C 181.291 2.16831 -0.742751 0
M  V30 1913 C 182.291 1.59159 0.229129 0
M  V30 1914 O 183.481 1.74199 0.00693237 0
M  V30 1915 C 180.613 3.40756 -0.0989168 0
M  V30 1916 H 181.806 2.49695 -1.66109 0
M  V30 1917 H 179.359 1.2802 -0.896699 0
M  V30 1918 H 180.094 3.13485 0.830514 0
M  V30 1919 H 179.879 3.83888 -0.798265 0
M  V30 1920 H 181.369 4.17386 0.133524 0
M  V30 1921 N 181.806 0.884767 1.30421 0
M  V30 1922 C 182.736 0.367574 2.30589 0
M  V30 1923 C 183.717 -0.549464 1.60981 0
M  V30 1924 O 184.902 -0.46336 1.88591 0
M  V30 1925 C 182.032 -0.418944 3.44764 0
M  V30 1926 C 180.986 0.406316 4.26067 0
M  V30 1927 C 180.312 -0.506793 5.32293 0
M  V30 1928 C 181.612 1.64832 4.95608 0
M  V30 1929 H 183.306 1.20462 2.74097 0
M  V30 1930 H 180.852 0.580695 1.31772 0
M  V30 1931 H 182.805 -0.791395 4.13902 0
M  V30 1932 H 181.529 -1.28964 3.0006 0
M  V30 1933 H 180.188 0.760903 3.58617 0
M  V30 1934 H 179.836 -1.37519 4.83836 0
M  V30 1935 H 179.536 0.0415828 5.87585 0
M  V30 1936 H 181.06 -0.875764 6.04287 0
M  V30 1937 H 182.474 1.34646 5.57264 0
M  V30 1938 H 180.871 2.13688 5.60765 0
M  V30 1939 H 181.941 2.39284 4.21748 0
M  V30 1940 N 183.284 -1.43765 0.645699 0
M  V30 1941 C 184.194 -2.34544 -0.0512957 0
M  V30 1942 C 185.21 -1.53455 -0.82022 0
M  V30 1943 O 186.386 -1.86133 -0.769176 0
M  V30 1944 C 183.451 -3.31636 -1.01087 0
M  V30 1945 C 182.512 -4.2863 -0.239712 0
M  V30 1946 C 181.745 -5.21084 -1.15358 0
M  V30 1947 O 181.968 -5.1779 -2.39269 0
M  V30 1948 O 180.902 -5.98593 -0.630038 0
M  V30 1949 H 184.728 -2.95624 0.695718 0
M  V30 1950 H 182.313 -1.43781 0.405882 0
M  V30 1951 H 184.195 -3.9136 -1.56254 0
M  V30 1952 H 182.87 -2.73069 -1.73824 0
M  V30 1953 H 181.777 -3.72408 0.355356 0
M  V30 1954 H 183.11 -4.90157 0.447936 0
M  V30 1955 N 184.763 -0.387143 -1.52771 0
M  V30 1956 C 185.726 0.436939 -2.24997 0
M  V30 1957 C 186.726 0.991991 -1.26555 0
M  V30 1958 O 187.916 0.874335 -1.50669 0
M  V30 1959 C 185.048 1.61281 -3.00335 0
M  V30 1960 H 186.241 -0.195365 -2.99263 0
M  V30 1961 H 183.794 -0.139218 -1.55679 0
M  V30 1962 H 184.529 2.2826 -2.30364 0
M  V30 1963 H 184.314 1.22154 -3.72587 0
M  V30 1964 H 185.804 2.19629 -3.5518 0
M  V30 1965 N 186.241 1.57166 -0.116904 0
M  V30 1966 C 187.488 1.95123 0.541603 0
M  V30 1967 C 187.816 1.00006 1.6682 0
M  V30 1968 O 187.071 0.0235658 1.95686 0
M  V30 1969 C 187.37 3.39508 1.11664 0
M  V30 1970 C 187.036 4.50762 0.111606 0
M  V30 1971 C 185.698 4.80918 -0.164758 0
M  V30 1972 C 188.05 5.18036 -0.573438 0
M  V30 1973 C 185.378 5.75666 -1.13249 0
M  V30 1974 C 187.73 6.13824 -1.52978 0
M  V30 1975 C 186.394 6.42374 -1.81415 0
M  V30 1976 H 185.664 0.714005 0.198187 0
M  V30 1977 H 188.311 1.9048 -0.197365 0
M  V30 1978 H 186.616 3.40835 1.93232 0
M  V30 1979 H 188.313 3.66189 1.63422 0
M  V30 1980 H 184.903 4.27272 0.337192 0
M  V30 1981 H 189.087 4.94896 -0.373092 0
M  V30 1982 H 184.343 5.96092 -1.35958 0
M  V30 1983 H 188.517 6.65039 -2.06629 0
M  V30 1984 H 186.144 7.15599 -2.56557 0
M  V30 1985 N 187.719 -0.156864 1.56817 0
M  V30 1986 C 188.996 -0.899244 1.73704 0
M  V30 1987 C 189.376 -1.99771 0.682254 0
M  V30 1988 O 188.724 -2.26515 -0.300522 0
M  V30 1989 C 188.934 -1.45075 3.17418 0
M  V30 1990 C 190.282 -1.91802 3.7881 0
M  V30 1991 O 191.306 -1.54838 3.20786 0
M  V30 1992 O 190.165 -2.5994 4.80722 0
M  V30 1993 H 187.259 -0.424267 0.709878 0
M  V30 1994 H 189.805 -0.143561 1.69092 0
M  V30 1995 H 188.577 -0.660846 3.85679 0
M  V30 1996 H 188.2 -2.27021 3.26416 0
M  V30 1997 N 189.197 -1.51736 -0.425897 0
M  V30 1998 C 190.127 -1.76827 -1.52494 0
M  V30 1999 C 191.108 -0.618524 -1.58456 0
M  V30 2000 O 192.293 -0.862416 -1.74 0
M  V30 2001 C 189.423 -1.90374 -2.90474 0
M  V30 2002 C 188.377 -3.0588 -2.99369 0
M  V30 2003 C 187.703 -3.04625 -4.3944 0
M  V30 2004 C 189.003 -4.45644 -2.72394 0
M  V30 2005 H 190.697 -2.68855 -1.31748 0
M  V30 2006 H 188.243 -1.29372 -0.632362 0
M  V30 2007 H 190.196 -2.0651 -3.6733 0
M  V30 2008 H 188.92 -0.95004 -3.12477 0
M  V30 2009 H 187.579 -2.89467 -2.24954 0
M  V30 2010 H 187.227 -2.0701 -4.58428 0
M  V30 2011 H 186.927 -3.82195 -4.46319 0
M  V30 2012 H 188.451 -3.22869 -5.18255 0
M  V30 2013 H 189.865 -4.62348 -3.38979 0
M  V30 2014 H 188.262 -5.25006 -2.9067 0
M  V30 2015 H 189.332 -4.54893 -1.67929 0
M  V30 2016 N 190.675 0.682077 -1.42076 0
M  V30 2017 C 191.952 1.43755 -1.32642 0
M  V30 2018 C 192.332 2.11063 0.0396611 0
M  V30 2019 O 191.68 2.02701 1.05474 0
M  V30 2020 C 191.89 2.44596 -2.48946 0
M  V30 2021 C 193.238 3.09454 -2.9073 0
M  V30 2022 O 194.262 2.54922 -2.48783 0
M  V30 2023 O 193.121 4.08253 -3.63307 0
M  V30 2024 H 190.215 0.640857 -0.522715 0
M  V30 2025 H 192.761 0.711415 -1.54068 0
M  V30 2026 H 191.533 1.93609 -3.40046 0
M  V30 2027 H 191.156 3.24701 -2.29467 0
M  V30 2028 N 192.153 1.28127 0.917671 0
M  V30 2029 C 193.564 1.13622 1.48145 0
M  V30 2030 C 193.915 -0.275207 1.9426 0
M  V30 2031 O 193.04 -1.1691 1.82102 0
M  V30 2032 C 193.635 2.05648 2.69248 0
M  V30 2033 C 192.194 1.95219 3.21818 0
M  V30 2034 C 191.341 1.97618 1.94532 0
M  V30 2035 H 194.292 1.40874 0.730772 0
M  V30 2036 H 194.313 1.61818 3.44377 0
M  V30 2037 H 193.825 3.08365 2.35653 0
M  V30 2038 H 191.926 0.955244 3.60147 0
M  V30 2039 H 192.039 2.81976 3.87333 0
M  V30 2040 H 190.403 1.41973 2.11461 0
M  V30 2041 H 191.186 3.02007 1.63238 0
M  V30 2042 N 193.631 -1.12557 1.10312 0
M  V30 2043 C 194.594 -2.16434 0.75424 0
M  V30 2044 C 195.594 -1.59278 -0.220685 0
M  V30 2045 O 196.784 -1.742 0.00230591 0
M  V30 2046 C 193.916 -3.40699 0.116987 0
M  V30 2047 H 195.109 -2.48811 1.67431 0
M  V30 2048 H 192.662 -1.27542 0.903475 0
M  V30 2049 H 193.397 -3.13921 -0.813877 0
M  V30 2050 H 193.182 -3.83459 0.818613 0
M  V30 2051 H 194.672 -4.17451 -0.111387 0
M  V30 2052 N 195.109 -0.891671 -1.2995 0
M  V30 2053 C 196.041 -0.320695 -2.26945 0
M  V30 2054 C 197.054 0.528497 -1.53983 0
M  V30 2055 O 198.243 0.346959 -1.75096 0
M  V30 2056 C 195.343 0.562066 -3.34207 0
M  V30 2057 C 194.516 -0.259576 -4.36629 0
M  V30 2058 C 193.575 0.554739 -5.23268 0
M  V30 2059 O 192.601 -0.0249311 -5.69195 0
M  V30 2060 N 193.803 1.8625 -5.4981 0
M  V30 2061 H 196.568 -1.15432 -2.76578 0
M  V30 2062 H 194.129 -0.755336 -1.432 0
M  V30 2063 H 196.121 1.11304 -3.89093 0
M  V30 2064 H 194.691 1.29637 -2.84452 0
M  V30 2065 H 193.911 -0.991986 -3.81514 0
M  V30 2066 H 195.199 -0.822564 -5.02107 0
M  V30 2067 H 194.597 2.35628 -5.14292 0
M  V30 2068 H 193.154 2.36078 -6.07545 0
M  V30 2069 N 196.587 1.43421 -0.653314 0
M  V30 2070 C 197.833 2.02641 -0.175593 0
M  V30 2071 C 198.188 1.5062 1.19713 0
M  V30 2072 O 197.481 0.689697 1.78756 0
M  V30 2073 C 197.675 3.57176 -0.126623 0
M  V30 2074 C 197.504 4.24191 -1.49306 0
M  V30 2075 C 196.274 4.60257 -2.08547 0
M  V30 2076 C 198.472 4.53193 -2.43148 0
M  V30 2077 N 196.454 5.12345 -3.38194 0
M  V30 2078 C 197.825 5.06601 -3.57429 0
M  V30 2079 C 199.88 4.35161 -2.41949 0
M  V30 2080 C 198.583 5.43875 -4.70736 0
M  V30 2081 C 200.609 4.73498 -3.54336 0
M  V30 2082 C 199.971 5.27039 -4.67343 0
M  V30 2083 H 196.07 0.77441 -0.108686 0
M  V30 2084 H 198.654 1.74596 -0.861638 0
M  V30 2085 H 196.825 3.84784 0.528766 0
M  V30 2086 H 198.557 4.03078 0.36198 0
M  V30 2087 H 195.312 4.45302 -1.61255 0
M  V30 2088 H 195.736 5.42842 -4.04538 0
M  V30 2089 H 200.378 3.9304 -1.55818 0
M  V30 2090 H 198.096 5.8494 -5.57558 0
M  V30 2091 H 201.682 4.61241 -3.5461 0
M  V30 2092 H 200.562 5.56153 -5.52868 0
M  V30 2093 N 198.065 0.39524 1.52563 0
M  V30 2094 C 199.313 -0.184678 2.01254 0
M  V30 2095 C 199.634 -1.46822 1.28329 0
M  V30 2096 O 198.904 -1.91666 0.405094 0
M  V30 2097 H 197.484 -0.0712355 0.743596 0
M  V30 2098 H 200.146 0.528293 1.87603 0
M  V30 2099 H 199.242 -0.390681 3.09645 0
M  V30 2100 N 199.544 -1.57102 0.125237 0
M  V30 2101 C 200.79 -1.95697 -0.532035 0
M  V30 2102 C 201.123 -1.009 -1.6593 0
M  V30 2103 O 200.398 -0.047347 -1.94442 0
M  V30 2104 C 200.681 -3.44181 -1.05884 0
M  V30 2105 C 200.534 -4.49752 0.0654392 0
M  V30 2106 C 201.853 -3.94655 -1.9477 0
M  V30 2107 H 198.972 -0.711571 -0.191925 0
M  V30 2108 H 201.614 -1.88923 0.20206 0
M  V30 2109 H 199.764 -3.50085 -1.68442 0
M  V30 2110 H 201.436 -4.55943 0.700982 0
M  V30 2111 H 199.679 -4.27653 0.727709 0
M  V30 2112 H 200.35 -5.50924 -0.344505 0
M  V30 2113 H 202.826 -3.91094 -1.42074 0
M  V30 2114 H 201.702 -4.99057 -2.28546 0
M  V30 2115 H 201.963 -3.35718 -2.87656 0
M  V30 2116 N 201.022 0.148545 -1.56898 0
M  V30 2117 C 201.97 1.20265 -1.99096 0
M  V30 2118 C 202.964 1.44559 -0.883123 0
M  V30 2119 O 204.17 1.4487 -1.0683 0
M  V30 2120 H 200.545 0.404786 -0.63376 0
M  V30 2121 H 202.516 0.82004 -2.86911 0
M  V30 2122 C 201.265 2.52886 -2.3863 0
M  V30 2123 H 200.588 2.35021 -3.23427 0
M  V30 2124 H 202.028 3.25274 -2.7198 0
M  V30 2125 C 200.487 3.13315 -1.23837 0
M  V30 2126 O 201.017 3.98077 -0.538268 0
M  V30 2127 N 199.223 2.72742 -1.00301 0
M  V30 2128 H 198.77 2.03912 -1.5741 0
M  V30 2129 H 198.728 3.13507 -0.236838 0
M  V30 2130 N 202.5 1.5196 0.417844 0
M  V30 2131 C 203.746 1.65836 1.16732 0
M  V30 2132 C 204.079 0.382881 1.90388 0
M  V30 2133 O 203.354 -0.618368 1.84408 0
M  V30 2134 C 203.637 2.87466 2.16876 0
M  V30 2135 C 203.49 4.25041 1.47174 0
M  V30 2136 C 204.809 3.04613 3.17646 0
M  V30 2137 H 201.928 0.603515 0.423011 0
M  V30 2138 H 204.57 1.84494 0.454105 0
M  V30 2139 H 202.72 2.71689 2.777 0
M  V30 2140 H 204.392 4.52527 0.895376 0
M  V30 2141 H 202.635 4.26843 0.773806 0
M  V30 2142 H 203.306 5.06176 2.20204 0
M  V30 2143 H 205.782 3.1923 2.66892 0
M  V30 2144 H 204.658 3.91247 3.8499 0
M  V30 2145 H 204.919 2.17541 3.84874 0
M  V30 2146 N 203.978 -0.674533 1.42435 0
M  V30 2147 C 204.91 -1.80005 1.41883 0
M  V30 2148 C 205.923 -1.59667 0.31787 0
M  V30 2149 O 207.112 -1.68781 0.580973 0
M  V30 2150 C 204.212 -3.17114 1.19549 0
M  V30 2151 C 203.385 -3.64299 2.42084 0
M  V30 2152 C 202.444 -4.80142 2.15291 0
M  V30 2153 O 201.47 -4.90673 2.88493 0
M  V30 2154 N 202.672 -5.68869 1.1562 0
M  V30 2155 H 205.437 -1.80964 2.38898 0
M  V30 2156 H 202.998 -0.857633 1.37318 0
M  V30 2157 H 204.99 -3.92267 0.995417 0
M  V30 2158 H 203.56 -3.11053 0.310569 0
M  V30 2159 H 202.78 -2.79822 2.77657 0
M  V30 2160 H 204.068 -3.92567 3.23679 0
M  V30 2161 H 203.466 -5.63012 0.550765 0
M  V30 2162 H 202.023 -6.43833 1.016 0
M  V30 2163 N 205.456 -1.28612 -0.910864 0
M  V30 2164 C 206.867 -1.14406 -1.47541 0
M  V30 2165 C 207.218 0.264901 -1.94403 0
M  V30 2166 O 206.343 1.15942 -1.82719 0
M  V30 2167 C 206.938 -2.07073 -2.68153 0
M  V30 2168 C 205.497 -1.96923 -3.20778 0
M  V30 2169 C 204.644 -1.98646 -1.93481 0
M  V30 2170 H 207.595 -1.41259 -0.723291 0
M  V30 2171 H 207.616 -1.63642 -3.43514 0
M  V30 2172 H 207.128 -3.09611 -2.34015 0
M  V30 2173 H 205.229 -0.97433 -3.59635 0
M  V30 2174 H 205.342 -2.84026 -3.85832 0
M  V30 2175 H 203.706 -1.43093 -2.10705 0
M  V30 2176 H 204.489 -3.02868 -1.61634 0
M  V30 2177 N 206.934 1.1197 -1.10907 0
M  V30 2178 C 208.164 1.8713 -0.875553 0
M  V30 2179 C 208.572 1.8016 0.577843 0
M  V30 2180 O 207.915 1.17699 1.41042 0
M  V30 2181 C 207.977 3.37005 -1.2517 0
M  V30 2182 C 207.641 3.67748 -2.71313 0
M  V30 2183 C 208.638 3.65698 -3.69542 0
M  V30 2184 C 206.323 3.96928 -3.07821 0
M  V30 2185 C 208.317 3.92395 -5.023 0
M  V30 2186 C 206.004 4.23284 -4.40765 0
M  V30 2187 C 207.002 4.21005 -5.37814 0
M  V30 2188 O 206.69 4.46704 -6.68364 0
M  V30 2189 H 206.422 0.598786 -0.313737 0
M  V30 2190 H 208.976 1.42568 -1.47863 0
M  V30 2191 H 207.206 3.82146 -0.591741 0
M  V30 2192 H 208.895 3.93519 -0.994877 0
M  V30 2193 H 209.661 3.43211 -3.42682 0
M  V30 2194 H 205.54 3.97841 -2.32902 0
M  V30 2195 H 209.084 3.90531 -5.78041 0
M  V30 2196 H 204.981 4.45246 -4.67361 0
M  V30 2197 H 205.749 4.64299 -6.74069 0
M  V30 2198 N 208.412 0.89855 1.29475 0
M  V30 2199 C 209.637 0.538561 2.00285 0
M  V30 2200 C 210.062 -0.869135 1.66816 0
M  V30 2201 O 209.42 -1.57831 0.892145 0
M  V30 2202 C 209.468 0.736475 3.52999 0
M  V30 2203 O 208.572 -0.211537 4.11857 0
M  V30 2204 H 207.913 0.210563 0.62973 0
M  V30 2205 H 210.443 1.20982 1.64998 0
M  V30 2206 H 210.453 0.640685 4.02938 0
M  V30 2207 H 209.128 1.76276 3.76696 0
M  V30 2208 H 207.705 -0.0682991 3.72837 0
M  V30 2209 N 209.89 -1.43072 0.660911 0
M  V30 2210 C 211.138 -2.01323 0.177094 0
M  V30 2211 C 211.459 -1.5245 -1.2159 0
M  V30 2212 O 210.729 -0.740322 -1.81373 0
M  V30 2213 H 209.309 -0.744382 0.0624804 0
M  V30 2214 H 211.971 -1.75179 0.854305 0
M  V30 2215 H 211.067 -3.11649 0.167641 0
M  V30 2216 N 211.368 -0.403325 -1.52352 0
M  V30 2217 C 212.593 0.176499 -2.06648 0
M  V30 2218 C 213.018 1.38577 -1.27193 0
M  V30 2219 O 212.376 1.7879 -0.300637 0
M  V30 2220 C 212.424 0.511061 -3.5696 0
M  V30 2221 O 211.528 1.60294 -3.79973 0
M  V30 2222 H 210.869 0.0167337 -0.663789 0
M  V30 2223 H 213.399 -0.574848 -1.96359 0
M  V30 2224 H 213.409 0.771362 -4.00642 0
M  V30 2225 H 212.084 -0.37296 -4.14224 0
M  V30 2226 H 210.661 1.33526 -3.48174 0
M  V30 2227 N 212.846 1.57033 -0.133567 0
M  V30 2228 C 214.257 1.82593 0.389464 0
M  V30 2229 C 214.608 1.05156 1.6564 0
M  V30 2230 O 213.733 0.292644 2.14412 0
M  V30 2231 C 214.328 3.31204 0.713377 0
M  V30 2232 C 212.887 3.57393 1.18098 0
M  V30 2233 C 212.034 2.76598 0.197126 0
M  V30 2234 H 214.985 1.54598 -0.358481 0
M  V30 2235 H 215.006 3.46627 1.56939 0
M  V30 2236 H 214.518 3.87537 -0.2089 0
M  V30 2237 H 212.619 3.06433 2.11966 0
M  V30 2238 H 212.732 4.65915 1.11624 0
M  V30 2239 H 211.096 2.45257 0.687088 0
M  V30 2240 H 211.879 3.35697 -0.718504 0
M  V30 2241 N 214.325 -0.140222 1.56975 0
M  V30 2242 C 215.288 -1.15689 1.97861 0
M  V30 2243 C 216.288 -1.3549 0.865974 0
M  V30 2244 O 217.478 -1.32367 1.13246 0
M  V30 2245 C 214.61 -2.51582 2.30042 0
M  V30 2246 H 215.803 -0.805971 2.88867 0
M  V30 2247 H 213.356 -0.383801 1.51515 0
M  V30 2248 H 214.091 -2.91632 1.41849 0
M  V30 2249 H 213.876 -2.38569 3.11171 0
M  V30 2250 H 215.366 -3.24792 2.62488 0
M  V30 2251 N 215.803 -1.52179 -0.40978 0
M  V30 2252 C 216.751 -1.76086 -1.51975 0
M  V30 2253 C 217.745 -0.627964 -1.57331 0
M  V30 2254 O 218.951 -0.809993 -1.60745 0
M  V30 2255 H 215.326 -0.556829 -0.505416 0
M  V30 2256 H 217.297 -2.69077 -1.28996 0
M  V30 2257 C 216.046 -1.92799 -2.8935 0
M  V30 2258 H 215.369 -2.79392 -2.85972 0
M  V30 2259 H 216.809 -2.13527 -3.66309 0
M  V30 2260 C 215.268 -0.694923 -3.29655 0
M  V30 2261 O 215.798 0.13751 -4.01465 0
M  V30 2262 N 214.004 -0.53101 -2.85707 0
M  V30 2263 H 213.551 -1.20952 -2.27439 0
M  V30 2264 H 213.509 0.292718 -3.13034 0
M  V30 2265 N 217.281 0.66697 -1.42791 0
M  V30 2266 C 218.211 1.79218 -1.49677 0
M  V30 2267 C 219.192 1.66405 -0.352623 0
M  V30 2268 O 220.377 1.85708 -0.567993 0
M  V30 2269 C 217.507 3.17565 -1.40605 0
M  V30 2270 C 216.461 3.45124 -2.53127 0
M  V30 2271 C 215.787 4.83127 -2.29112 0
M  V30 2272 C 217.087 3.41236 -3.95418 0
M  V30 2273 H 218.781 1.73713 -2.43853 0
M  V30 2274 H 216.327 0.83432 -1.17367 0
M  V30 2275 H 218.28 3.96022 -1.44029 0
M  V30 2276 H 217.004 3.23767 -0.429271 0
M  V30 2277 H 215.663 2.69031 -2.49034 0
M  V30 2278 H 215.311 4.85988 -1.29709 0
M  V30 2279 H 215.011 5.02528 -3.04531 0
M  V30 2280 H 216.535 5.63859 -2.34297 0
M  V30 2281 H 217.949 4.09651 -4.01073 0
M  V30 2282 H 216.346 3.72173 -4.70752 0
M  V30 2283 H 217.416 2.39665 -4.21532 0
M  V30 2284 N 218.759 1.29093 0.90403 0
M  V30 2285 C 219.722 1.1386 1.98919 0
M  V30 2286 C 220.722 0.0753457 1.60623 0
M  V30 2287 O 221.912 0.321931 1.71199 0
M  V30 2288 C 219.044 0.740198 3.32767 0
M  V30 2289 H 220.237 2.10246 2.13861 0
M  V30 2290 H 217.79 1.12218 1.08797 0
M  V30 2291 H 218.525 -0.223997 3.23525 0
M  V30 2292 H 218.31 1.50838 3.61926 0
M  V30 2293 H 219.8 0.656546 4.12407 0
M  V30 2294 N 220.237 -1.11381 1.11499 0
M  V30 2295 C 221.483 -1.83403 0.865512 0
M  V30 2296 C 221.816 -1.84459 -0.607329 0
M  V30 2297 O 221.091 -1.29811 -1.44842 0
M  V30 2298 C 221.374 -3.30552 1.42855 0
M  V30 2299 C 221.227 -3.37886 2.96906 0
M  V30 2300 C 222.546 -4.26643 1.08 0
M  V30 2301 H 219.665 -0.665879 0.31587 0
M  V30 2302 H 222.307 -1.30601 1.37998 0
M  V30 2303 H 220.457 -3.75648 0.990985 0
M  V30 2304 H 222.129 -3.01343 3.49271 0
M  V30 2305 H 220.372 -2.78088 3.32941 0
M  V30 2306 H 221.043 -4.41458 3.31389 0
M  V30 2307 H 223.519 -3.89729 1.45775 0
M  V30 2308 H 222.395 -5.27986 1.50072 0
M  V30 2309 H 222.656 -4.42099 -0.00915037 0
M  V30 2310 N 221.715 -0.905404 -1.28997 0
M  V30 2311 C 222.945 -0.549049 -1.99171 0
M  V30 2312 C 223.353 0.87203 -1.67906 0
M  V30 2313 O 222.696 1.58796 -0.923561 0
M  V30 2314 C 222.758 -0.668306 -3.53234 0
M  V30 2315 C 222.422 -2.0574 -4.08069 0
M  V30 2316 C 223.419 -3.0292 -4.22534 0
M  V30 2317 C 221.104 -2.36833 -4.42962 0
M  V30 2318 C 223.098 -4.29314 -4.71135 0
M  V30 2319 C 220.785 -3.63467 -4.91258 0
M  V30 2320 C 221.783 -4.59522 -5.053 0
M  V30 2321 O 221.471 -5.83907 -5.52546 0
M  V30 2322 H 221.203 -0.208784 -0.64295 0
M  V30 2323 H 223.757 -1.21836 -1.65363 0
M  V30 2324 H 221.987 0.0580547 -3.86656 0
M  V30 2325 H 223.676 -0.320273 -4.04634 0
M  V30 2326 H 224.442 -2.80216 -3.95859 0
M  V30 2327 H 220.321 -1.62824 -4.31288 0
M  V30 2328 H 223.865 -5.04293 -4.8201 0
M  V30 2329 H 219.762 -3.86 -5.17372 0
M  V30 2330 H 220.53 -5.86578 -5.70849 0
M  V30 2331 N 223.193 1.4272 -0.668489 0
M  V30 2332 C 224.421 2.05966 -0.196348 0
M  V30 2333 C 224.836 1.50191 1.14403 0
M  V30 2334 O 224.193 0.639208 1.7094 0
M  V30 2335 C 224.244 3.61314 -0.115815 0
M  V30 2336 O 223.965 4.1502 -1.40322 0
M  V30 2337 C 225.466 4.41663 0.380579 0
M  V30 2338 H 222.686 0.663954 -0.0969829 0
M  V30 2339 H 225.23 1.82966 -0.913446 0
M  V30 2340 H 223.385 3.83448 0.551931 0
M  V30 2341 H 223.799 5.08832 -1.27243 0
M  V30 2342 H 225.273 5.5065 0.385848 0
M  V30 2343 H 225.75 4.15792 1.41471 0
M  V30 2344 H 226.356 4.24534 -0.255209 0
M  V30 2345 N 224.671 0.411399 1.52136 0
M  V30 2346 C 225.634 -0.401089 2.25663 0
M  V30 2347 C 226.634 -0.971732 1.28117 0
M  V30 2348 O 227.824 -0.850254 1.52041 0
M  V30 2349 C 224.956 -1.56483 3.02863 0
M  V30 2350 H 226.149 0.24295 2.98914 0
M  V30 2351 H 223.702 0.163968 1.55438 0
M  V30 2352 H 224.437 -2.24567 2.33967 0
M  V30 2353 H 224.222 -1.16211 3.74483 0
M  V30 2354 H 225.712 -2.13951 3.58629 0
M  V30 2355 N 226.149 -1.5696 0.141893 0
M  V30 2356 C 227.079 -2.19516 -0.795936 0
M  V30 2357 C 228.06 -1.14187 -1.26077 0
M  V30 2358 O 229.245 -1.42511 -1.31925 0
M  V30 2359 C 226.375 -2.81272 -2.03723 0
M  V30 2360 C 225.329 -3.92384 -1.70936 0
M  V30 2361 C 224.655 -4.41052 -3.02287 0
M  V30 2362 C 225.955 -5.13403 -0.959954 0
M  V30 2363 H 227.649 -2.98138 -0.274596 0
M  V30 2364 H 225.195 -1.43406 -0.130636 0
M  V30 2365 H 227.148 -3.237 -2.69808 0
M  V30 2366 H 225.872 -1.99973 -2.58221 0
M  V30 2367 H 224.531 -3.50566 -1.07232 0
M  V30 2368 H 224.179 -3.56582 -3.54765 0
M  V30 2369 H 223.879 -5.15993 -2.81114 0
M  V30 2370 H 225.403 -4.86146 -3.69451 0
M  V30 2371 H 226.817 -5.52706 -1.52279 0
M  V30 2372 H 225.214 -5.94073 -0.848357 0
M  V30 2373 H 226.284 -4.84875 0.0492434 0
M  V30 2374 N 227.627 0.131896 -1.57047 0
M  V30 2375 C 228.557 1.16384 -2.02428 0
M  V30 2376 C 229.538 1.43936 -0.90644 0
M  V30 2377 O 230.723 1.54599 -1.17528 0
M  V30 2378 C 227.853 2.49328 -2.4177 0
M  V30 2379 C 226.807 2.36266 -3.56879 0
M  V30 2380 C 226.133 3.74057 -3.8208 0
M  V30 2381 C 227.433 1.834 -4.89042 0
M  V30 2382 H 229.127 0.786433 -2.88887 0
M  V30 2383 H 226.673 0.376855 -1.38981 0
M  V30 2384 H 228.626 3.21759 -2.7212 0
M  V30 2385 H 227.35 2.88934 -1.52266 0
M  V30 2386 H 226.009 1.66286 -3.26718 0
M  V30 2387 H 225.657 4.11125 -2.89803 0
M  V30 2388 H 225.357 3.66174 -4.59554 0
M  V30 2389 H 226.881 4.48012 -4.1487 0
M  V30 2390 H 228.295 2.45636 -5.18011 0
M  V30 2391 H 226.692 1.8637 -5.70426 0
M  V30 2392 H 227.762 0.790662 -4.7841 0
M  V30 2393 N 229.106 1.52395 0.401703 0
M  V30 2394 C 230.038 1.72505 1.50912 0
M  V30 2395 C 231.051 0.605468 1.51122 0
M  V30 2396 O 232.24 0.880828 1.55254 0
M  V30 2397 C 229.34 1.75711 2.89791 0
M  V30 2398 C 228.513 3.04824 3.1369 0
M  V30 2399 C 227.572 2.99743 4.32482 0
M  V30 2400 O 226.598 3.73635 4.29402 0
M  V30 2401 N 227.8 2.18047 5.37992 0
M  V30 2402 H 230.565 2.68049 1.34052 0
M  V30 2403 H 228.126 1.50724 0.591084 0
M  V30 2404 H 230.118 1.69834 3.6734 0
M  V30 2405 H 228.688 0.876092 3.00072 0
M  V30 2406 H 227.908 3.2429 2.24119 0
M  V30 2407 H 229.196 3.90221 3.26504 0
M  V30 2408 H 228.594 1.57456 5.43345 0
M  V30 2409 H 227.151 2.18021 6.14256 0
M  V30 2410 N 230.584 -0.659388 1.43143 0
M  V30 2411 C 231.995 -1.24041 1.39537 0
M  V30 2412 C 232.346 -1.95963 0.0963364 0
M  V30 2413 O 231.471 -2.00892 -0.804438 0
M  V30 2414 C 232.066 -2.25601 2.52764 0
M  V30 2415 C 230.625 -2.79195 2.52443 0
M  V30 2416 C 229.772 -1.53743 2.30778 0
M  V30 2417 H 232.723 -0.451792 1.52133 0
M  V30 2418 H 232.744 -3.07651 2.23899 0
M  V30 2419 H 232.256 -1.73226 3.47296 0
M  V30 2420 H 230.357 -3.35649 1.61773 0
M  V30 2421 H 230.47 -3.2716 3.50004 0
M  V30 2422 H 228.834 -1.80869 1.79328 0
M  V30 2423 H 229.617 -1.03312 3.27386 0
M  V30 2424 N 232.062 -1.29571 -0.897171 0
M  V30 2425 C 233.012 -1.11539 -1.98855 0
M  V30 2426 C 233.996 -0.0340716 -1.60864 0
M  V30 2427 O 235.188 -0.256062 -1.75138 0
M  V30 2428 C 232.317 -0.796603 -3.3393 0
M  V30 2429 C 231.403 -1.91758 -3.78272 0
M  V30 2430 N 231.794 -3.16143 -3.94826 0
M  V30 2431 C 230.092 -1.81119 -4.07568 0
M  V30 2432 C 230.793 -3.89293 -4.32233 0
M  V30 2433 N 229.769 -3.17255 -4.41419 0
M  V30 2434 H 233.571 -2.05894 -2.09726 0
M  V30 2435 H 231.085 -1.20732 -1.08616 0
M  V30 2436 H 233.082 -0.648459 -4.11826 0
M  V30 2437 H 231.742 0.139003 -3.24402 0
M  V30 2438 H 232.753 -3.5157 -3.80288 0
M  V30 2439 H 229.43 -0.948461 -4.06584 0
M  V30 2440 H 230.82 -4.9635 -4.52865 0
M  V30 2441 N 233.54 1.10788 -1.12088 0
M  V30 2442 C 234.817 1.79136 -0.785476 0
M  V30 2443 C 235.197 1.98246 0.725377 0
M  V30 2444 O 234.545 1.57258 1.65778 0
M  V30 2445 C 234.755 3.12375 -1.55636 0
M  V30 2446 C 236.103 3.8731 -1.74001 0
M  V30 2447 O 237.127 3.22085 -1.52117 0
M  V30 2448 O 235.986 5.04369 -2.10415 0
M  V30 2449 H 233.08 0.776226 -0.285311 0
M  V30 2450 H 235.626 1.1747 -1.2247 0
M  V30 2451 H 234.398 2.93863 -2.5838 0
M  V30 2452 H 234.021 3.81758 -1.11114 0
M  V30 2453 N 235.018 0.912232 1.28515 0
M  V30 2454 C 236.434 0.610159 1.47476 0
M  V30 2455 C 236.634 -0.844955 1.82928 0
M  V30 2456 O 235.69 -1.62416 1.93332 0
M  V30 2457 C 237.003 1.54675 2.57868 0
M  V30 2458 C 238.551 1.55331 2.71738 0
M  V30 2459 C 239.026 2.47649 3.85272 0
M  V30 2460 N 240.517 2.45767 3.92623 0
M  V30 2461 C 241.252 3.13896 4.79851 0
M  V30 2462 N 240.748 3.9135 5.71679 0
M  V30 2463 N 242.541 3.02991 4.73448 0
M  V30 2464 H 234.692 1.85318 1.03783 0
M  V30 2465 H 236.955 0.794777 0.516753 0
M  V30 2466 H 236.661 2.5841 2.38574 0
M  V30 2467 H 236.535 1.27671 3.54937 0
M  V30 2468 H 238.922 0.52335 2.90422 0
M  V30 2469 H 239.003 1.86378 1.75205 0
M  V30 2470 H 238.647 3.50745 3.67342 0
M  V30 2471 H 238.577 2.13904 4.81199 0
M  V30 2472 H 241.068 1.89503 3.26951 0
M  V30 2473 H 241.381 4.40359 6.35062 0
M  V30 2474 H 239.726 3.95455 5.71524 0
M  V30 2475 H 242.917 2.41987 4.007 0
M  V30 2476 H 243.09 3.5636 5.41213 0
M  V30 2477 N 236.496 -1.42363 0.676048 0
M  V30 2478 C 237.745 -2.00745 0.196037 0
M  V30 2479 C 238.058 -1.54083 -1.20489 0
M  V30 2480 O 239.264 -2.04891 -1.78134 0
M  V30 2481 C 237.72 -3.58651 0.299616 0
M  V30 2482 C 237.328 -4.143 1.70468 0
M  V30 2483 C 239.072 -4.24326 -0.121619 0
M  V30 2484 C 236.979 -5.64574 1.76096 0
M  V30 2485 H 235.909 -0.750787 0.0695301 0
M  V30 2486 H 238.56 -1.63072 0.841412 0
M  V30 2487 H 236.942 -3.93833 -0.413673 0
M  V30 2488 H 238.116 -3.90575 2.44515 0
M  V30 2489 H 236.431 -3.61081 2.07387 0
M  V30 2490 H 239.028 -5.34607 -0.0997362 0
M  V30 2491 H 239.371 -3.99897 -1.15708 0
M  V30 2492 H 239.904 -3.94108 0.540706 0
M  V30 2493 H 236.643 -5.93804 2.77628 0
M  V30 2494 H 236.163 -5.90286 1.06406 0
M  V30 2495 H 237.842 -6.29013 1.51496 0
M  V30 2496 N 237.974 -0.419461 -1.51915 0
M  V30 2497 C 238.907 0.445751 -2.23804 0
M  V30 2498 C 239.885 1.03951 -1.25031 0
M  V30 2499 O 241.069 1.08541 -1.54114 0
M  V30 2500 C 238.196 1.61964 -2.97465 0
M  V30 2501 C 237.242 1.14828 -4.10751 0
M  V30 2502 S 238.075 0.104938 -5.35397 0
M  V30 2503 C 239.231 1.28391 -6.1259 0
M  V30 2504 H 239.464 -0.164627 -2.96844 0
M  V30 2505 H 236.997 -0.203833 -1.53049 0
M  V30 2506 H 238.955 2.29271 -3.40507 0
M  V30 2507 H 237.616 2.20139 -2.24048 0
M  V30 2508 H 236.809 2.02561 -4.61503 0
M  V30 2509 H 236.411 0.553712 -3.69878 0
M  V30 2510 H 238.703 2.20563 -6.40592 0
M  V30 2511 H 239.646 0.816724 -7.03374 0
M  V30 2512 H 240.054 1.51439 -5.43807 0
M  V30 2513 N 239.452 1.56882 -0.150215 0
M  V30 2514 C 240.7 1.9584 0.499105 0
M  V30 2515 C 241.021 1.03623 1.65188 0
M  V30 2516 O 240.291 0.0984084 1.95653 0
M  V30 2517 H 238.871 0.723119 0.187373 0
M  V30 2518 H 241.533 1.9358 -0.226466 0
M  V30 2519 H 240.629 2.99638 0.873122 0
M  V30 2520 N 240.93 -0.123565 1.57115 0
M  V30 2521 C 241.86 -1.15309 2.03042 0
M  V30 2522 C 242.841 -1.43454 0.914061 0
M  V30 2523 O 244.026 -1.53973 1.18347 0
M  V30 2524 C 241.156 -2.48043 2.43089 0
M  V30 2525 C 240.11 -2.3437 3.58127 0
M  V30 2526 C 239.436 -3.72026 3.84059 0
M  V30 2527 C 240.736 -1.80804 4.90007 0
M  V30 2528 H 242.43 -0.771102 2.893 0
M  V30 2529 H 239.976 -0.369479 1.39179 0
M  V30 2530 H 241.929 -3.20311 2.73823 0
M  V30 2531 H 240.653 -2.88122 1.53796 0
M  V30 2532 H 239.312 -1.64551 3.27595 0
M  V30 2533 H 238.96 -4.09582 2.91979 0
M  V30 2534 H 238.66 -3.63732 4.6149 0
M  V30 2535 H 240.184 -4.45806 4.1724 0
M  V30 2536 H 241.598 -2.42886 5.19307 0
M  V30 2537 H 239.995 -1.83343 5.71407 0
M  V30 2538 H 241.065 -0.76528 4.78823 0
M  V30 2539 N 242.408 -1.52605 -0.393616 0
M  V30 2540 C 243.685 -1.58001 -1.15304 0
M  V30 2541 C 244.065 -0.370385 -2.07825 0
M  V30 2542 O 243.413 0.641638 -2.19306 0
M  V30 2543 C 243.623 -2.91652 -1.91677 0
M  V30 2544 C 244.971 -3.4522 -2.47201 0
M  V30 2545 O 245.995 -2.93495 -2.01839 0
M  V30 2546 O 244.854 -4.35579 -3.3005 0
M  V30 2547 H 241.948 -0.637068 -0.527327 0
M  V30 2548 H 244.494 -1.64939 -0.399141 0
M  V30 2549 H 243.266 -3.71136 -1.23992 0
M  V30 2550 H 242.889 -2.88077 -2.74039 0
M  V30 2551 N 243.887 0.651787 -1.4349 0
M  V30 2552 C 244.817 1.77621 -1.51569 0
M  V30 2553 C 245.798 1.66022 -0.370253 0
M  V30 2554 O 246.983 1.85095 -0.587658 0
M  V30 2555 C 244.113 3.16056 -1.43966 0
M  V30 2556 C 243.067 3.4242 -2.56774 0
M  V30 2557 C 242.393 4.8067 -2.34223 0
M  V30 2558 C 243.693 3.37023 -3.99015 0
M  V30 2559 H 245.387 1.71117 -2.45681 0
M  V30 2560 H 242.933 0.821825 -1.18246 0
M  V30 2561 H 244.886 3.94472 -1.48221 0
M  V30 2562 H 243.61 3.23293 -0.463586 0
M  V30 2563 H 242.269 2.66375 -2.51873 0
M  V30 2564 H 241.917 4.84585 -1.34856 0
M  V30 2565 H 241.617 4.9927 -3.09844 0
M  V30 2566 H 243.141 5.61342 -2.40265 0
M  V30 2567 H 244.555 4.05374 -4.05395 0
M  V30 2568 H 242.952 3.67159 -4.74673 0
M  V30 2569 H 244.022 2.3518 -4.2405 0
M  V30 2570 N 245.365 1.30045 0.890287 0
M  V30 2571 C 246.776 1.16738 1.45702 0
M  V30 2572 C 247.127 -0.233939 1.948 0
M  V30 2573 O 246.252 -1.13021 1.84541 0
M  V30 2574 C 246.847 2.11313 2.64825 0
M  V30 2575 C 245.406 2.02001 3.17604 0
M  V30 2576 C 244.553 2.01699 1.90296 0
M  V30 2577 H 247.504 1.42392 0.700726 0
M  V30 2578 H 247.525 1.69086 3.40867 0
M  V30 2579 H 247.037 3.13294 2.2906 0
M  V30 2580 H 245.138 1.03142 3.5804 0
M  V30 2581 H 245.251 2.90128 3.81264 0
M  V30 2582 H 243.615 1.46427 2.08402 0
M  V30 2583 H 244.398 3.05402 1.56795 0
M  V30 2584 N 246.843 -1.10192 1.12674 0
M  V30 2585 C 248.12 -1.78717 0.794965 0
M  V30 2586 C 248.5 -1.98628 -0.714853 0
M  V30 2587 O 247.848 -1.58135 -1.64941 0
M  V30 2588 C 248.058 -3.11546 1.5729 0
M  V30 2589 C 249.406 -3.86382 1.76052 0
M  V30 2590 O 250.43 -3.21274 1.53823 0
M  V30 2591 O 249.289 -5.03246 2.13087 0
M  V30 2592 H 246.383 -0.774702 0.289423 0
M  V30 2593 H 248.929 -1.16819 1.23091 0
M  V30 2594 H 247.701 -2.92489 2.59935 0
M  V30 2595 H 247.324 -3.81164 1.13137 0
M  V30 2596 N 248.321 -0.919034 -1.28029 0
M  V30 2597 C 249.569 -0.553838 -1.94363 0
M  V30 2598 C 249.89 0.906357 -1.72656 0
M  V30 2599 O 249.16 1.64143 -1.0693 0
M  V30 2600 H 247.74 -0.201834 -0.719216 0
M  V30 2601 H 250.402 -1.16954 -1.55909 0
M  V30 2602 H 249.498 -0.752758 -3.02886 0
M  V30 2603 N 249.799 1.42003 -0.683588 0
M  V30 2604 C 251.047 2.01015 -0.209101 0
M  V30 2605 C 251.368 1.54365 1.19149 0
M  V30 2606 O 250.638 0.769083 1.80172 0
M  V30 2607 H 249.218 0.743294 -0.074315 0
M  V30 2608 H 251.88 1.73798 -0.882066 0
M  V30 2609 H 250.976 3.11343 -0.2172 0
M  V30 2610 N 251.277 0.427512 1.51691 0
M  V30 2611 C 252.227 -0.406604 2.24345 0
M  V30 2612 C 253.211 -0.998276 1.26187 0
M  V30 2613 O 254.403 -0.918045 1.51331 0
M  V30 2614 C 251.532 -1.51266 3.08177 0
M  V30 2615 C 250.618 -0.930868 4.13758 0
M  V30 2616 N 251.009 -0.0773552 5.05741 0
M  V30 2617 C 249.307 -1.19948 4.29568 0
M  V30 2618 C 250.008 0.248344 5.8117 0
M  V30 2619 N 248.984 -0.365535 5.4237 0
M  V30 2620 H 252.786 0.251581 2.92821 0
M  V30 2621 H 250.3 0.239003 1.60632 0
M  V30 2622 H 252.297 -2.123 3.58796 0
M  V30 2623 H 250.957 -2.17328 2.41244 0
M  V30 2624 H 251.968 0.288351 5.17097 0
M  V30 2625 H 248.645 -1.85832 3.73862 0
M  V30 2626 H 250.035 0.942286 6.6526 0
M  V30 2627 N 252.755 -1.56801 0.158532 0
M  V30 2628 C 253.685 -2.20347 -0.772609 0
M  V30 2629 C 254.666 -1.15518 -1.24859 0
M  V30 2630 O 255.851 -1.43902 -1.30406 0
M  V30 2631 C 252.981 -2.83417 -2.00729 0
M  V30 2632 C 251.935 -3.94174 -1.66765 0
M  V30 2633 C 251.261 -4.44233 -2.97592 0
M  V30 2634 C 252.561 -5.14392 -0.905447 0
M  V30 2635 H 254.255 -2.98413 -0.242959 0
M  V30 2636 H 251.801 -1.43537 -0.115419 0
M  V30 2637 H 253.754 -3.26543 -2.6636 0
M  V30 2638 H 252.478 -2.02701 -2.56086 0
M  V30 2639 H 251.137 -3.51684 -1.03508 0
M  V30 2640 H 250.785 -3.60325 -3.50963 0
M  V30 2641 H 250.485 -5.18945 -2.75626 0
M  V30 2642 H 252.009 -4.90037 -3.64274 0
M  V30 2643 H 253.423 -5.5429 -1.46408 0
M  V30 2644 H 251.82 -5.9494 -0.7853 0
M  V30 2645 H 252.89 -4.84795 0.100668 0
M  V30 2646 N 254.233 0.115231 -1.57178 0
M  V30 2647 C 255.461 0.836437 -1.89239 0
M  V30 2648 C 255.876 1.73256 -0.750175 0
M  V30 2649 O 255.233 1.80357 0.278832 0
M  V30 2650 C 255.284 1.66671 -3.20785 0
M  V30 2651 O 255.005 0.806652 -4.3061 0
M  V30 2652 C 256.506 2.49274 -3.66575 0
M  V30 2653 H 253.726 0.240253 -0.626514 0
M  V30 2654 H 256.27 0.0984932 -2.04263 0
M  V30 2655 H 254.425 2.35737 -3.0742 0
M  V30 2656 H 254.839 1.37969 -5.06028 0
M  V30 2657 H 256.313 3.03055 -4.6137 0
M  V30 2658 H 256.79 3.26807 -2.93417 0
M  V30 2659 H 257.396 1.85443 -3.82741 0
M  V30 2660 N 255.711 1.52812 0.385517 0
M  V30 2661 C 256.661 1.74219 1.47078 0
M  V30 2662 C 257.645 0.59632 1.49442 0
M  V30 2663 O 258.837 0.85428 1.5502 0
M  V30 2664 C 255.966 1.9176 2.84751 0
M  V30 2665 C 255.052 3.12289 2.86943 0
M  V30 2666 N 255.443 4.34575 2.58802 0
M  V30 2667 C 253.741 3.12605 3.1811 0
M  V30 2668 C 254.442 5.162 2.68166 0
M  V30 2669 N 253.418 4.51964 3.02043 0
M  V30 2670 H 257.22 2.6639 1.24152 0
M  V30 2671 H 254.734 1.51166 0.593504 0
M  V30 2672 H 256.731 2.05218 3.62893 0
M  V30 2673 H 255.391 1.00805 3.08656 0
M  V30 2674 H 256.402 4.62649 2.32759 0
M  V30 2675 H 253.079 2.31472 3.47458 0
M  V30 2676 H 254.469 6.23689 2.49923 0
M  V30 2677 N 257.189 -0.644168 1.43834 0
M  V30 2678 C 258.437 -1.40117 1.45642 0
M  V30 2679 C 258.758 -1.94814 0.0852413 0
M  V30 2680 O 258.028 -1.74988 -0.880688 0
M  V30 2681 H 256.608 -0.52005 0.536243 0
M  V30 2682 H 259.27 -0.7591 1.7951 0
M  V30 2683 H 258.366 -2.23902 2.17427 0
M  V30 2684 N 258.668 -1.30515 -0.883378 0
M  V30 2685 C 259.898 -1.22182 -1.66599 0
M  V30 2686 C 260.306 0.217507 -1.87946 0
M  V30 2687 O 259.649 1.1554 -1.42815 0
M  V30 2688 C 259.711 -1.88146 -3.06335 0
M  V30 2689 C 259.375 -3.37476 -3.08154 0
M  V30 2690 C 260.372 -4.33443 -2.87094 0
M  V30 2691 C 258.057 -3.7895 -3.29701 0
M  V30 2692 C 260.051 -5.68858 -2.8754 0
M  V30 2693 C 257.738 -5.14482 -3.29776 0
M  V30 2694 C 258.736 -6.09246 -3.0872 0
M  V30 2695 O 258.424 -7.42302 -3.08615 0
M  V30 2696 H 258.156 -0.423898 -0.52658 0
M  V30 2697 H 260.71 -1.72703 -1.11188 0
M  V30 2698 H 258.94 -1.32157 -3.63416 0
M  V30 2699 H 260.629 -1.7391 -3.66756 0
M  V30 2700 H 261.395 -4.02733 -2.70243 0
M  V30 2701 H 257.274 -3.05631 -3.45124 0
M  V30 2702 H 260.818 -6.428 -2.71024 0
M  V30 2703 H 256.715 -5.44832 -3.46163 0
M  V30 2704 H 257.483 -7.5131 -3.24769 0
M  V30 2705 N 260.146 1.09593 -1.13257 0
M  V30 2706 C 261.079 2.15451 -0.752061 0
M  V30 2707 C 262.057 1.60493 0.260913 0
M  V30 2708 O 263.241 1.8788 0.152819 0
M  V30 2709 C 260.368 3.38506 -0.114594 0
M  V30 2710 C 259.414 4.12183 -1.09579 0
M  V30 2711 S 260.247 4.6661 -2.62745 0
M  V30 2712 C 261.403 5.92966 -2.00354 0
M  V30 2713 H 261.636 2.47395 -1.64872 0
M  V30 2714 H 259.169 1.21515 -0.952545 0
M  V30 2715 H 261.127 4.09757 0.246808 0
M  V30 2716 H 259.788 3.04784 0.759309 0
M  V30 2717 H 258.981 5.00445 -0.597545 0
M  V30 2718 H 258.583 3.46785 -1.40057 0
M  V30 2719 H 260.875 6.63882 -1.35156 0
M  V30 2720 H 261.818 6.47467 -2.86691 0
M  V30 2721 H 262.226 5.45405 -1.4558 0
M  V30 2722 N 261.624 0.925811 1.2754 0
M  V30 2723 C 262.849 0.580924 1.99098 0
M  V30 2724 C 263.274 -0.833555 1.68622 0
M  V30 2725 O 262.632 -1.55903 0.925422 0
M  V30 2726 C 262.68 0.811186 3.51358 0
M  V30 2727 O 261.784 -0.124129 4.12213 0
M  V30 2728 H 261.125 0.223873 0.625122 0
M  V30 2729 H 263.655 1.24455 1.62395 0
M  V30 2730 H 263.665 0.72601 4.01489 0
M  V30 2731 H 262.34 1.84227 3.72872 0
M  V30 2732 H 260.917 0.0108006 3.72898 0
M  V30 2733 N 263.102 -1.41638 0.69111 0
M  V30 2734 C 264.379 -1.95036 0.148421 0
M  V30 2735 C 264.759 -1.63072 -1.34055 0
M  V30 2736 O 264.107 -0.93538 -2.08478 0
M  V30 2737 C 264.317 -3.46279 0.434951 0
M  V30 2738 C 265.665 -4.23069 0.360275 0
M  V30 2739 O 266.689 -3.54277 0.369613 0
M  V30 2740 O 265.548 -5.45583 0.316534 0
M  V30 2741 H 262.642 -0.826908 0.0123654 0
M  V30 2742 H 265.188 -1.5138 0.766963 0
M  V30 2743 H 263.96 -3.6281 1.46576 0
M  V30 2744 H 263.583 -3.97019 -0.214787 0
M  V30 2745 N 264.58 -0.43555 -1.51462 0
M  V30 2746 C 265.826 0.131709 -2.02372 0
M  V30 2747 C 266.159 1.42516 -1.3192 0
M  V30 2748 O 265.434 1.89606 -0.433573 0
M  V30 2749 C 265.717 0.352301 -3.58373 0
M  V30 2750 C 265.57 -0.959676 -4.39443 0
M  V30 2751 C 266.889 1.12286 -4.25535 0
M  V30 2752 H 264.008 0.0463936 -0.735538 0
M  V30 2753 H 266.65 -0.574197 -1.81116 0
M  V30 2754 H 264.8 0.9536 -3.76615 0
M  V30 2755 H 266.472 -1.59482 -4.32855 0
M  V30 2756 H 264.715 -1.56468 -4.04599 0
M  V30 2757 H 265.386 -0.759394 -5.46752 0
M  V30 2758 H 267.862 0.613545 -4.11552 0
M  V30 2759 H 266.738 1.24598 -5.34571 0
M  V30 2760 H 266.999 2.15048 -3.86273 0
M  V30 2761 N 266.058 1.56714 -0.166846 0
M  V30 2762 C 267.005 2.17746 0.765193 0
M  V30 2763 C 267.975 1.11614 1.23011 0
M  V30 2764 O 269.16 1.39745 1.29908 0
M  V30 2765 C 266.3 2.81882 1.9909 0
M  V30 2766 C 265.413 4.02462 1.56997 0
M  V30 2767 C 264.548 4.54537 2.749 0
M  V30 2768 C 263.587 5.67538 2.29275 0
M  V30 2769 N 262.724 6.14142 3.40255 0
M  V30 2770 H 267.564 2.97048 0.237952 0
M  V30 2771 H 265.101 1.4672 0.105725 0
M  V30 2772 H 267.059 3.17221 2.70974 0
M  V30 2773 H 265.689 2.05191 2.49192 0
M  V30 2774 H 264.741 3.72973 0.748037 0
M  V30 2775 H 266.053 4.84273 1.19503 0
M  V30 2776 H 265.207 4.92035 3.54946 0
M  V30 2777 H 263.946 3.71774 3.1565 0
M  V30 2778 H 262.951 5.29597 1.47674 0
M  V30 2779 H 264.176 6.52099 1.89588 0
M  V30 2780 H 262.122 5.3431 3.8059 0
M  V30 2781 H 262.039 6.9093 3.06841 0
M  V30 2782 H 263.307 6.56289 4.206 0
M  V30 2783 N 267.536 -0.106894 1.57237 0
M  V30 2784 C 268.952 -0.46078 1.52804 0
M  V30 2785 C 269.152 -1.81184 0.881746 0
M  V30 2786 O 268.208 -2.48102 0.469224 0
M  V30 2787 C 269.521 -0.434127 2.9755 0
M  V30 2788 C 271.069 -0.516821 3.08704 0
M  V30 2789 C 271.544 -0.520436 4.55033 0
M  V30 2790 N 273.035 -0.58153 4.59535 0
M  V30 2791 C 273.77 -0.605973 5.70189 0
M  V30 2792 N 273.266 -0.587331 6.90306 0
M  V30 2793 N 275.059 -0.649895 5.5833 0
M  V30 2794 H 267.21 0.778203 1.9763 0
M  V30 2795 H 269.473 0.288403 0.903066 0
M  V30 2796 H 269.179 0.491197 3.48253 0
M  V30 2797 H 269.053 -1.25748 3.55622 0
M  V30 2798 H 271.44 -1.43256 2.57995 0
M  V30 2799 H 271.521 0.334449 2.53604 0
M  V30 2800 H 271.165 0.391313 5.0639 0
M  V30 2801 H 271.095 -1.38876 5.07958 0
M  V30 2802 H 273.586 -0.60161 3.73081 0
M  V30 2803 H 273.899 -0.60894 7.70397 0
M  V30 2804 H 272.244 -0.554564 6.92784 0
M  V30 2805 H 275.435 -0.661907 4.63397 0
M  V30 2806 H 275.608 -0.665476 6.44574 0
M  V30 2807 N 269.014 -1.53014 -0.377408 0
M  V30 2808 C 270.263 -1.67845 -1.11853 0
M  V30 2809 C 270.576 -0.430625 -1.90801 0
M  V30 2810 O 271.782 -0.459261 -2.67587 0
M  V30 2811 C 270.238 -2.96668 -2.03756 0
M  V30 2812 C 269.846 -4.28671 -1.30175 0
M  V30 2813 C 271.59 -3.20865 -2.77932 0
M  V30 2814 C 269.497 -5.48591 -2.20911 0
M  V30 2815 H 268.427 -0.625343 -0.421263 0
M  V30 2816 H 271.078 -1.79514 -0.380409 0
M  V30 2817 H 269.46 -2.78773 -2.8125 0
M  V30 2818 H 270.634 -4.57157 -0.578259 0
M  V30 2819 H 268.949 -4.10825 -0.679108 0
M  V30 2820 H 271.546 -4.07642 -3.46024 0
M  V30 2821 H 271.889 -2.36424 -3.4265 0
M  V30 2822 H 272.422 -3.39379 -2.07525 0
M  V30 2823 H 269.161 -6.35474 -1.6079 0
M  V30 2824 H 268.681 -5.244 -2.91144 0
M  V30 2825 H 270.36 -5.8292 -2.80736 0
M  V30 2826 N 270.492 0.636531 -1.44174 0
M  V30 2827 C 271.717 1.42847 -1.50364 0
M  V30 2828 C 272.142 1.87665 -0.127867 0
M  V30 2829 O 271.5 1.58408 0.88185 0
M  V30 2830 C 271.548 2.62854 -2.4686 0
M  V30 2831 O 270.652 3.62501 -1.9664 0
M  V30 2832 H 269.993 0.427642 -0.507955 0
M  V30 2833 H 272.523 0.777422 -1.89255 0
M  V30 2834 H 272.533 3.10465 -2.64718 0
M  V30 2835 H 271.208 2.29578 -3.46795 0
M  V30 2836 H 269.785 3.21735 -1.88523 0
M  V30 2837 N 271.97 1.30982 0.876444 0
M  V30 2838 C 272.933 1.18054 1.96459 0
M  V30 2839 C 273.933 0.109399 1.60427 0
M  V30 2840 O 275.123 0.358173 1.70478 0
M  V30 2841 C 272.255 0.810616 3.31122 0
M  V30 2842 H 273.448 2.14735 2.09354 0
M  V30 2843 H 271.001 1.145 1.06392 0
M  V30 2844 H 271.736 -0.155322 3.23928 0
M  V30 2845 H 271.521 1.58481 3.58645 0
M  V30 2846 H 273.011 0.743876 4.10921 0
M  V30 2847 N 273.449 -1.08991 1.13837 0
M  V30 2848 C 274.677 -1.85011 0.926202 0
M  V30 2849 C 275.092 -1.8135 -0.525127 0
M  V30 2850 O 274.449 -1.21287 -1.36366 0
M  V30 2851 C 274.5 -3.32802 1.41155 0
M  V30 2852 O 274.221 -3.36444 2.80601 0
M  V30 2853 C 275.722 -4.25649 1.23847 0
M  V30 2854 H 272.942 -0.584249 0.32999 0
M  V30 2855 H 275.486 -1.37688 1.51202 0
M  V30 2856 H 273.641 -3.77536 0.868631 0
M  V30 2857 H 274.055 -4.28657 3.02248 0
M  V30 2858 H 275.529 -5.27485 1.62675 0
M  V30 2859 H 276.006 -4.38828 0.18065 0
M  V30 2860 H 276.612 -3.86735 1.76964 0
M  V30 2861 N 274.927 -0.932562 -1.27047 0
M  V30 2862 C 276.152 -0.591474 -1.98787 0
M  V30 2863 C 276.577 0.824601 -1.69062 0
M  V30 2864 O 275.935 1.5541 -0.933677 0
M  V30 2865 C 275.983 -0.829808 -3.50922 0
M  V30 2866 O 275.087 0.102266 -4.12273 0
M  V30 2867 H 274.428 -0.227185 -0.623926 0
M  V30 2868 H 276.958 -1.25314 -1.61733 0
M  V30 2869 H 276.968 -0.747292 -4.01098 0
M  V30 2870 H 275.643 -1.86201 -3.7189 0
M  V30 2871 H 274.22 -0.0305761 -3.72887 0
M  V30 2872 N 276.405 1.4127 -0.698611 0
M  V30 2873 C 277.654 2.00408 -0.227949 0
M  V30 2874 C 277.967 1.55981 1.18023 0
M  V30 2875 O 279.173 2.07699 1.74852 0
M  V30 2876 C 277.629 3.58129 -0.356636 0
M  V30 2877 C 277.237 4.11536 -1.77037 0
M  V30 2878 C 278.981 4.24466 0.0540969 0
M  V30 2879 C 276.888 5.61701 -1.85055 0
M  V30 2880 H 275.818 0.749586 -0.0814657 0
M  V30 2881 H 278.469 1.61713 -0.867249 0
M  V30 2882 H 276.851 3.94442 0.350965 0
M  V30 2883 H 278.025 3.86636 -2.50698 0
M  V30 2884 H 276.34 3.57736 -2.13105 0
M  V30 2885 H 278.937 5.34698 0.0146723 0
M  V30 2886 H 279.28 4.01687 1.09332 0
M  V30 2887 H 279.813 3.93198 -0.603337 0
M  V30 2888 H 276.552 5.89312 -2.8704 0
M  V30 2889 H 276.072 5.88519 -1.15783 0
M  V30 2890 H 277.751 6.26524 -1.61484 0
M  V30 2891 N 277.883 0.443576 1.51229 0
M  V30 2892 C 279.13 -0.120796 2.02139 0
M  V30 2893 C 279.458 -1.42166 1.32736 0
M  V30 2894 O 278.713 -1.90849 0.43301 0
M  V30 2895 C 279.012 -0.380579 3.55368 0
M  V30 2896 C 278.678 0.83523 4.43097 0
M  V30 2897 C 277.34 1.16864 4.66794 0
M  V30 2898 C 279.692 1.64601 4.94526 0
M  V30 2899 C 277.02 2.31339 5.39165 0
M  V30 2900 C 279.372 2.78181 5.68153 0
M  V30 2901 C 278.036 3.11969 5.90112 0
M  V30 2902 H 277.306 -0.0442023 0.73968 0
M  V30 2903 H 279.953 0.592046 1.82118 0
M  V30 2904 H 278.258 -1.17538 3.73754 0
M  V30 2905 H 279.955 -0.830777 3.923 0
M  V30 2906 H 276.545 0.565437 4.24854 0
M  V30 2907 H 280.729 1.40163 4.76097 0
M  V30 2908 H 275.985 2.57823 5.5438 0
M  V30 2909 H 280.159 3.41371 6.06992 0
M  V30 2910 H 277.786 4.00784 6.45969 0
M  V30 2911 N 279.361 -1.56624 0.175154 0
M  V30 2912 C 280.608 -1.96999 -0.468811 0
M  V30 2913 C 280.936 -1.06129 -1.62994 0
M  V30 2914 O 280.191 -0.0961771 -1.95464 0
M  V30 2915 C 280.49 -3.43419 -0.989864 0
M  V30 2916 C 280.156 -4.50866 0.0557687 0
M  V30 2917 C 278.818 -4.79975 0.343134 0
M  V30 2918 C 281.17 -5.15551 0.765308 0
M  V30 2919 C 278.498 -5.71066 1.34536 0
M  V30 2920 C 280.85 -6.07724 1.75654 0
M  V30 2921 C 279.514 -6.35199 2.05132 0
M  V30 2922 H 278.784 -0.720869 -0.17155 0
M  V30 2923 H 281.431 -1.89616 0.267924 0
M  V30 2924 H 279.736 -3.47772 -1.80449 0
M  V30 2925 H 281.433 -3.72002 -1.49719 0
M  V30 2926 H 278.023 -4.28229 -0.178381 0
M  V30 2927 H 282.207 -4.9317 0.556513 0
M  V30 2928 H 277.463 -5.90635 1.57988 0
M  V30 2929 H 281.637 -6.56912 2.31169 0
M  V30 2930 H 279.264 -7.05584 2.8294 0
M  V30 2931 N 280.839 0.0985539 -1.57292 0
M  V30 2932 C 281.749 1.13824 -2.05137 0
M  V30 2933 C 282.765 1.44076 -0.975604 0
M  V30 2934 O 283.941 1.54786 -1.28853 0
M  V30 2935 C 281.006 2.43969 -2.46333 0
M  V30 2936 C 280.067 2.2093 -3.68087 0
M  V30 2937 C 279.3 3.44869 -4.0731 0
M  V30 2938 O 279.523 4.52972 -3.46659 0
M  V30 2939 O 278.457 3.34661 -5.00285 0
M  V30 2940 H 282.283 0.761881 -2.93988 0
M  V30 2941 H 279.868 0.310818 -1.46131 0
M  V30 2942 H 281.75 3.20609 -2.73473 0
M  V30 2943 H 280.425 2.81038 -1.60621 0
M  V30 2944 H 279.332 1.42081 -3.46069 0
M  V30 2945 H 280.665 1.88755 -4.54568 0
M  V30 2946 N 282.317 1.53212 0.369288 0
M  V30 2947 C 283.542 1.73423 1.1375 0
M  V30 2948 C 283.967 0.460404 1.82378 0
M  V30 2949 O 283.325 -0.585298 1.71592 0
M  V30 2950 C 283.373 2.89769 2.1463 0
M  V30 2951 O 282.477 2.58119 3.21634 0
M  V30 2952 H 281.818 0.576061 0.330227 0
M  V30 2953 H 284.348 2.00083 0.427547 0
M  V30 2954 H 284.358 3.15829 2.58294 0
M  V30 2955 H 283.033 3.8217 1.64071 0
M  V30 2956 H 281.61 2.42864 2.82969 0
M  V30 2957 N 283.795 -0.628877 1.44509 0
M  V30 2958 C 284.728 -1.75367 1.46019 0
M  V30 2959 C 285.706 -1.59444 0.318787 0
M  V30 2960 O 286.89 -1.81297 0.516099 0
M  V30 2961 C 284.017 -3.12965 1.29501 0
M  V30 2962 C 283.063 -3.47532 2.47233 0
M  V30 2963 S 283.896 -3.44758 4.09758 0
M  V30 2964 C 285.052 -4.84973 3.95667 0
M  V30 2965 H 285.285 -1.7382 2.41193 0
M  V30 2966 H 282.818 -0.803686 1.31834 0
M  V30 2967 H 284.776 -3.92367 1.20658 0
M  V30 2968 H 283.437 -3.12049 0.358341 0
M  V30 2969 H 282.63 -4.47664 2.31544 0
M  V30 2970 H 282.232 -2.75598 2.52828 0
M  V30 2971 H 284.524 -5.74255 3.59496 0
M  V30 2972 H 285.467 -5.05716 4.95638 0
M  V30 2973 H 285.875 -4.59653 3.27688 0
M  V30 2974 N 285.273 -1.31445 -0.869486 0
M  V30 2975 C 286.684 -1.19042 -1.43826 0
M  V30 2976 C 287.035 0.202919 -1.95148 0
M  V30 2977 O 286.16 1.10071 -1.86315 0
M  V30 2978 C 286.755 -2.15499 -2.6143 0
M  V30 2979 C 285.314 -2.07028 -3.14351 0
M  V30 2980 C 284.461 -2.04701 -1.87063 0
M  V30 2981 H 287.412 -1.43489 -0.677984 0
M  V30 2982 H 287.433 -1.74488 -3.38134 0
M  V30 2983 H 286.945 -3.16899 -2.24046 0
M  V30 2984 H 285.046 -1.08825 -3.56354 0
M  V30 2985 H 285.159 -2.96157 -3.766 0
M  V30 2986 H 283.523 -1.49724 -2.06046 0
M  V30 2987 H 284.306 -3.07857 -1.51917 0
M  V30 2988 N 286.751 1.08385 -1.14413 0
M  V30 2989 C 287.981 1.8425 -0.934644 0
M  V30 2990 C 288.389 1.81907 0.520234 0
M  V30 2991 O 287.732 1.22126 1.37226 0
M  V30 2992 C 287.794 3.32853 -1.35828 0
M  V30 2993 C 287.458 3.5893 -2.82875 0
M  V30 2994 C 288.455 3.53756 -3.80989 0
M  V30 2995 C 286.14 3.86934 -3.20293 0
M  V30 2996 C 288.134 3.76216 -5.14529 0
M  V30 2997 C 285.821 4.09047 -4.54008 0
M  V30 2998 C 286.819 4.03682 -5.50936 0
M  V30 2999 O 286.507 4.25214 -6.82238 0
M  V30 3000 H 286.239 0.588502 -0.332628 0
M  V30 3001 H 288.793 1.37792 -1.52324 0
M  V30 3002 H 287.023 3.8007 -0.713019 0
M  V30 3003 H 288.712 3.90154 -1.11957 0
M  V30 3004 H 289.478 3.32135 -3.53428 0
M  V30 3005 H 285.357 3.9023 -2.45442 0
M  V30 3006 H 288.901 3.71943 -5.90173 0
M  V30 3007 H 284.798 4.30151 -4.8129 0
M  V30 3008 H 285.566 4.42619 -6.88499 0
M  V30 3009 N 288.23 0.939286 1.26551 0
M  V30 3010 C 289.177 0.446088 2.26448 0
M  V30 3011 C 290.147 -0.493234 1.58608 0
M  V30 3012 O 291.332 -0.409857 1.86346 0
M  V30 3013 C 288.472 -0.284375 3.43926 0
M  V30 3014 C 287.585 0.690399 4.26448 0
M  V30 3015 C 286.72 -0.0610712 5.31165 0
M  V30 3016 C 285.759 0.905649 6.05363 0
M  V30 3017 N 284.896 0.186055 7.01853 0
M  V30 3018 H 289.736 1.30291 2.68008 0
M  V30 3019 H 287.273 0.65371 1.31776 0
M  V30 3020 H 289.231 -0.724313 4.10864 0
M  V30 3021 H 287.861 -1.10535 3.03285 0
M  V30 3022 H 286.913 1.24885 3.59316 0
M  V30 3023 H 288.225 1.42873 4.779 0
M  V30 3024 H 287.379 -0.56038 6.04106 0
M  V30 3025 H 286.118 -0.832297 4.80546 0
M  V30 3026 H 285.123 1.4161 5.3125 0
M  V30 3027 H 286.348 1.67685 6.58072 0
M  V30 3028 H 284.294 -0.566714 6.53548 0
M  V30 3029 H 284.211 0.863752 7.51049 0
M  V30 3030 H 285.479 -0.292221 7.78952 0
M  V30 3031 N 289.708 -1.40897 0.706093 0
M  V30 3032 C 290.638 -2.33418 0.0620085 0
M  V30 3033 C 291.619 -1.52385 -0.755827 0
M  V30 3034 O 292.804 -1.80886 -0.706674 0
M  V30 3035 C 289.934 -3.36293 -0.867445 0
M  V30 3036 C 288.888 -4.27716 -0.155932 0
M  V30 3037 C 288.214 -5.2105 -1.20046 0
M  V30 3038 C 289.514 -5.12944 0.984149 0
M  V30 3039 H 291.208 -2.87527 0.83477 0
M  V30 3040 H 288.754 -1.38249 0.402875 0
M  V30 3041 H 290.707 -3.99949 -1.32735 0
M  V30 3042 H 289.431 -2.80556 -1.67199 0
M  V30 3043 H 288.09 -3.65498 0.284047 0
M  V30 3044 H 287.738 -4.61624 -1.99781 0
M  V30 3045 H 287.438 -5.83056 -0.729328 0
M  V30 3046 H 288.962 -5.87584 -1.66066 0
M  V30 3047 H 290.376 -5.70109 0.604048 0
M  V30 3048 H 288.773 -5.83945 1.38304 0
M  V30 3049 H 289.843 -4.49485 1.81911 0
M  V30 3050 N 291.186 -0.45159 -1.50991 0
M  V30 3051 C 292.134 0.366864 -2.29689 0
M  V30 3052 C 293.128 1.00809 -1.36139 0
M  V30 3053 O 294.334 0.941427 -1.53418 0
M  V30 3054 H 290.709 0.137133 -0.739391 0
M  V30 3055 H 292.68 -0.317538 -2.96706 0
M  V30 3056 C 291.429 1.44751 -3.16137 0
M  V30 3057 H 290.752 0.963473 -3.88017 0
M  V30 3058 H 292.192 1.99315 -3.74232 0
M  V30 3059 C 290.651 2.43869 -2.32442 0
M  V30 3060 O 291.181 3.4872 -1.99392 0
M  V30 3061 N 289.387 2.15105 -1.95392 0
M  V30 3062 H 288.934 1.29866 -2.22469 0
M  V30 3063 H 288.892 2.81661 -1.39693 0
M  V30 3064 N 292.664 1.56529 -0.183458 0
M  V30 3065 C 294.075 1.83739 0.331177 0
M  V30 3066 C 294.426 1.10373 1.62211 0
M  V30 3067 O 293.551 0.36071 2.13373 0
M  V30 3068 C 294.146 3.33306 0.607646 0
M  V30 3069 C 292.705 3.60969 1.06668 0
M  V30 3070 C 291.852 2.77086 0.109029 0
M  V30 3071 H 294.803 1.53379 -0.407484 0
M  V30 3072 H 294.824 3.51444 1.45832 0
M  V30 3073 H 294.336 3.86677 -0.332086 0
M  V30 3074 H 292.437 3.13021 2.0211 0
M  V30 3075 H 292.55 4.69231 0.967447 0
M  V30 3076 H 290.914 2.47319 0.608714 0
M  V30 3077 H 291.697 3.33241 -0.82494 0
M  V30 3078 N 294.142 -0.090211 1.57342 0
M  V30 3079 C 295.089 -1.10909 2.02405 0
M  V30 3080 C 296.059 -1.39523 0.901252 0
M  V30 3081 O 297.244 -1.50903 1.1676 0
M  V30 3082 C 294.384 -2.42277 2.45755 0
M  V30 3083 C 293.497 -2.20352 3.71576 0
M  V30 3084 C 292.632 -3.45154 4.03785 0
M  V30 3085 C 291.671 -3.18512 5.22701 0
M  V30 3086 N 290.808 -4.35593 5.50639 0
M  V30 3087 H 295.648 -0.71782 2.89225 0
M  V30 3088 H 293.185 -0.342901 1.43048 0
M  V30 3089 H 295.143 -3.18951 2.68935 0
M  V30 3090 H 293.773 -2.79242 1.61938 0
M  V30 3091 H 292.825 -1.34458 3.55844 0
M  V30 3092 H 294.137 -1.96661 4.58395 0
M  V30 3093 H 293.291 -4.30233 4.27767 0
M  V30 3094 H 292.03 -3.71904 3.15498 0
M  V30 3095 H 291.035 -2.31827 4.98534 0
M  V30 3096 H 292.26 -2.93103 6.12591 0
M  V30 3097 H 290.206 -4.6241 4.6531 0
M  V30 3098 H 290.123 -4.1511 6.31838 0
M  V30 3099 H 291.391 -5.21723 5.7916 0
M  V30 3100 N 295.62 -1.53406 -0.361157 0
M  V30 3101 C 296.848 -1.73717 -1.12383 0
M  V30 3102 C 297.263 -0.468161 -1.82904 0
M  V30 3103 O 296.62 0.559198 -1.73722 0
M  V30 3104 C 296.671 -2.90558 -2.15078 0
M  V30 3105 O 296.392 -4.12549 -1.47428 0
M  V30 3106 C 297.893 -3.22777 -3.03858 0
M  V30 3107 H 295.113 -0.580896 -0.335858 0
M  V30 3108 H 297.657 -2.00167 -0.418728 0
M  V30 3109 H 295.812 -2.66489 -2.8118 0
M  V30 3110 H 296.226 -4.78009 -2.15887 0
M  V30 3111 H 297.7 -4.07927 -3.71887 0
M  V30 3112 H 298.177 -2.38329 -3.68912 0
M  V30 3113 H 298.783 -3.48787 -2.43367 0
M  V30 3114 N 297.098 0.621204 -1.44841 0
M  V30 3115 C 298.346 1.37783 -1.47852 0
M  V30 3116 C 298.667 1.94653 -0.116224 0
M  V30 3117 O 297.937 1.76367 0.852737 0
M  V30 3118 H 296.517 0.511453 -0.544449 0
M  V30 3119 H 299.179 0.730446 -1.80694 0
M  V30 3120 H 298.275 2.20414 -2.20961 0
M  V30 3121 N 298.576 1.31904 0.862503 0
M  V30 3122 C 299.506 1.22782 1.98612 0
M  V30 3123 C 300.487 0.113362 1.69722 0
M  V30 3124 O 301.672 0.299218 1.91881 0
M  V30 3125 C 298.802 0.942058 3.34279 0
M  V30 3126 C 297.756 2.0169 3.77499 0
M  V30 3127 C 297.082 1.58369 5.10709 0
M  V30 3128 C 298.382 3.43096 3.93805 0
M  V30 3129 H 300.076 2.16788 2.06502 0
M  V30 3130 H 297.622 1.04366 0.992154 0
M  V30 3131 H 299.575 0.864818 4.1243 0
M  V30 3132 H 298.299 -0.0336603 3.26583 0
M  V30 3133 H 296.958 2.08416 3.01593 0
M  V30 3134 H 296.606 0.595628 4.99461 0
M  V30 3135 H 296.306 2.30279 5.40597 0
M  V30 3136 H 297.83 1.52067 5.91361 0
M  V30 3137 H 299.244 3.39003 4.62331 0
M  V30 3138 H 297.641 4.13288 4.35101 0
M  V30 3139 H 298.711 3.83334 2.96957 0
M  V30 3140 N 300.054 -1.07777 1.14986 0
M  V30 3141 C 301.303 -1.79669 0.916617 0
M  V30 3142 C 301.616 -1.87474 -0.557917 0
M  V30 3143 O 302.822 -2.55845 -0.908617 0
M  V30 3144 C 301.278 -3.22848 1.59051 0
M  V30 3145 C 300.886 -3.23257 3.10176 0
M  V30 3146 C 302.63 -3.99379 1.43864 0
M  V30 3147 C 300.537 -4.61063 3.70372 0
M  V30 3148 H 299.467 -0.673349 0.33929 0
M  V30 3149 H 302.118 -1.21003 1.37951 0
M  V30 3150 H 300.5 -3.8168 1.0553 0
M  V30 3151 H 301.674 -2.74095 3.70417 0
M  V30 3152 H 299.989 -2.60222 3.25074 0
M  V30 3153 H 302.586 -5.0122 1.86232 0
M  V30 3154 H 302.929 -4.14511 0.385564 0
M  V30 3155 H 303.462 -3.47032 1.94457 0
M  V30 3156 H 300.201 -4.51135 4.7556 0
M  V30 3157 H 299.721 -5.1048 3.14913 0
M  V30 3158 H 301.4 -5.30034 3.71043 0
M  V30 3159 N 301.532 -0.945985 -1.26051 0
M  V30 3160 C 302.809 -0.513816 -1.88731 0
M  V30 3161 C 303.189 1.00872 -1.8544 0
M  V30 3162 O 302.537 1.8708 -1.312 0
M  V30 3163 C 302.747 -1.08062 -3.31849 0
M  V30 3164 C 304.095 -1.1522 -4.08668 0
M  V30 3165 O 305.119 -1.03155 -3.40936 0
M  V30 3166 O 303.978 -1.34044 -5.29806 0
M  V30 3167 H 301.072 -0.168193 -0.809716 0
M  V30 3168 H 303.618 -1.03886 -1.34186 0
M  V30 3169 H 302.39 -2.1241 -3.2863 0
M  V30 3170 H 302.013 -0.538307 -3.93939 0
M  V30 3171 N 303.011 1.40521 -0.713556 0
M  V30 3172 C 304.241 2.0494 -0.261395 0
M  V30 3173 C 304.649 1.53861 1.10107 0
M  V30 3174 O 303.992 0.689321 1.70276 0
M  V30 3175 C 304.054 3.59138 -0.161227 0
M  V30 3176 C 303.718 4.33096 -1.45865 0
M  V30 3177 C 304.715 4.61182 -2.40016 0
M  V30 3178 C 302.4 4.72043 -1.71701 0
M  V30 3179 C 304.394 5.27196 -3.58251 0
M  V30 3180 C 302.081 5.37789 -2.90218 0
M  V30 3181 C 303.079 5.65295 -3.83315 0
M  V30 3182 O 302.767 6.29683 -4.99754 0
M  V30 3183 H 302.499 0.666041 -0.115608 0
M  V30 3184 H 305.053 1.80954 -0.971849 0
M  V30 3185 H 303.283 3.81936 0.605153 0
M  V30 3186 H 304.972 4.05091 0.256105 0
M  V30 3187 H 305.738 4.31559 -2.21318 0
M  V30 3188 H 301.617 4.50003 -1.00092 0
M  V30 3189 H 305.161 5.48582 -4.30934 0
M  V30 3190 H 301.058 5.66831 -3.08825 0
M  V30 3191 H 301.826 6.4818 -4.99805 0
M  V30 3192 N 304.489 0.459591 1.5075 0
M  V30 3193 C 305.437 -0.354678 2.2988 0
M  V30 3194 C 306.431 -1.00086 1.36672 0
M  V30 3195 O 307.637 -0.933277 1.53915 0
M  V30 3196 H 304.012 -0.13321 0.740107 0
M  V30 3197 H 305.983 0.333269 2.96533 0
M  V30 3198 C 304.732 -1.43073 3.169 0
M  V30 3199 H 304.055 -0.942882 3.88523 0
M  V30 3200 H 305.495 -1.97328 3.75284 0
M  V30 3201 C 303.954 -2.42633 2.33732 0
M  V30 3202 O 304.484 -3.47658 2.01238 0
M  V30 3203 N 302.69 -2.14066 1.9653 0
M  V30 3204 H 302.237 -1.28685 2.23155 0
M  V30 3205 H 302.195 -2.80917 1.41185 0
M  V30 3206 N 305.967 -1.56429 0.191757 0
M  V30 3207 C 306.899 -2.16154 -0.762245 0
M  V30 3208 C 307.912 -1.12247 -1.17917 0
M  V30 3209 O 309.101 -1.39353 -1.11548 0
M  V30 3210 C 306.201 -2.70606 -2.04024 0
M  V30 3211 C 305.374 -3.99381 -1.78364 0
M  V30 3212 C 304.433 -4.38692 -2.90578 0
M  V30 3213 O 303.459 -5.06179 -2.6033 0
M  V30 3214 N 304.661 -4.01922 -4.18854 0
M  V30 3215 H 307.426 -2.98643 -0.251526 0
M  V30 3216 H 304.987 -1.61897 0.00967373 0
M  V30 3217 H 306.979 -2.93891 -2.78227 0
M  V30 3218 H 305.549 -1.9259 -2.46227 0
M  V30 3219 H 304.769 -3.84262 -0.879581 0
M  V30 3220 H 306.057 -4.83445 -1.58614 0
M  V30 3221 H 305.455 -3.47631 -4.46283 0
M  V30 3222 H 304.012 -4.30165 -4.89695 0
M  V30 3223 N 307.445 0.0818655 -1.57387 0
M  V30 3224 C 308.375 1.09885 -2.06028 0
M  V30 3225 C 309.356 1.4098 -0.951774 0
M  V30 3226 O 310.541 1.50781 -1.22387 0
M  V30 3227 C 307.671 2.4151 -2.4958 0
M  V30 3228 C 306.625 2.24792 -3.64215 0
M  V30 3229 C 305.951 3.61712 -3.93787 0
M  V30 3230 C 307.251 1.67749 -4.94629 0
M  V30 3231 H 308.945 0.694128 -2.91243 0
M  V30 3232 H 306.491 0.332448 -1.4011 0
M  V30 3233 H 308.444 3.12939 -2.82219 0
M  V30 3234 H 307.168 2.83943 -1.61381 0
M  V30 3235 H 305.827 1.55807 -3.31843 0
M  V30 3236 H 305.475 4.01697 -3.02735 0
M  V30 3237 H 305.175 3.51368 -4.70971 0
M  V30 3238 H 306.699 4.34587 -4.28913 0
M  V30 3239 H 308.113 2.29032 -5.25564 0
M  V30 3240 H 306.51 1.68128 -5.76067 0
M  V30 3241 H 307.58 0.638059 -4.80684 0
M  V30 3242 N 308.923 1.53595 0.353017 0
M  V30 3243 C 309.886 1.80232 1.41594 0
M  V30 3244 C 310.886 0.673081 1.46035 0
M  V30 3245 O 312.076 0.941335 1.46576 0
M  V30 3246 C 309.208 1.93578 2.80607 0
M  V30 3247 H 310.401 2.75174 1.19244 0
M  V30 3248 H 307.954 1.44864 0.586872 0
M  V30 3249 H 308.689 1.00746 3.08254 0
M  V30 3250 H 308.474 2.75724 2.78781 0
M  V30 3251 H 309.964 2.15735 3.57558 0
M  V30 3252 N 310.401 -0.613514 1.45168 0
M  V30 3253 C 311.331 -1.7354 1.56225 0
M  V30 3254 C 312.312 -1.64981 0.41414 0
M  V30 3255 O 313.497 -1.83472 0.636526 0
M  V30 3256 C 310.627 -3.12128 1.52295 0
M  V30 3257 C 309.581 -3.35491 2.65762 0
M  V30 3258 C 308.907 -4.74291 2.46885 0
M  V30 3259 C 310.207 -3.26325 4.0781 0
M  V30 3260 H 311.901 -1.64543 2.50132 0
M  V30 3261 H 309.447 -0.790185 1.20383 0
M  V30 3262 H 311.4 -3.90404 1.58628 0
M  V30 3263 H 310.124 -3.2195 0.549139 0
M  V30 3264 H 308.783 -2.59603 2.58847 0
M  V30 3265 H 308.431 -4.80839 1.47657 0
M  V30 3266 H 308.131 -4.9088 3.22972 0
M  V30 3267 H 309.655 -5.54775 2.55063 0
M  V30 3268 H 311.069 -3.94483 4.16 0
M  V30 3269 H 309.466 -3.54445 4.8424 0
M  V30 3270 H 310.536 -2.23855 4.30136 0
M  V30 3271 N 311.879 -1.3236 -0.855495 0
M  V30 3272 C 313.107 -1.2587 -1.64208 0
M  V30 3273 C 313.522 0.173457 -1.88002 0
M  V30 3274 O 312.879 1.11027 -1.44842 0
M  V30 3275 C 312.93 -2.01424 -3.00184 0
M  V30 3276 O 312.651 -3.39051 -2.77445 0
M  V30 3277 C 314.152 -2.01948 -3.94629 0
M  V30 3278 H 311.372 -0.434318 -0.511477 0
M  V30 3279 H 313.916 -1.74469 -1.0668 0
M  V30 3280 H 312.071 -1.56549 -3.5436 0
M  V30 3281 H 312.485 -3.77711 -3.63916 0
M  V30 3282 H 313.959 -2.59297 -4.87308 0
M  V30 3283 H 314.436 -1.00554 -4.27534 0
M  V30 3284 H 315.042 -2.46767 -3.4639 0
M  V30 3285 N 313.357 1.07166 -1.15556 0
M  V30 3286 C 314.32 2.12589 -0.856644 0
M  V30 3287 C 315.32 1.6015 0.14444 0
M  V30 3288 O 316.51 1.7399 -0.0854163 0
M  V30 3289 C 313.642 3.39753 -0.279405 0
M  V30 3290 H 314.835 2.40539 -1.79112 0
M  V30 3291 H 312.388 1.23086 -0.963298 0
M  V30 3292 H 313.123 3.17447 0.663174 0
M  V30 3293 H 312.908 3.79117 -1.00063 0
M  V30 3294 H 314.398 4.17507 -0.0879113 0
M  V30 3295 N 314.835 0.952656 1.25548 0
M  V30 3296 C 316.251 0.656769 1.4546 0
M  V30 3297 C 316.451 -0.78633 1.85524 0
M  V30 3298 O 315.507 -1.56183 1.98402 0
M  V30 3299 C 316.82 1.62801 2.52817 0
M  V30 3300 C 318.368 1.63897 2.66659 0
M  V30 3301 C 318.843 2.5978 3.77198 0
M  V30 3302 N 320.334 2.58133 3.84606 0
M  V30 3303 C 321.069 3.29003 4.69621 0
M  V30 3304 N 320.565 4.09339 5.58939 0
M  V30 3305 N 322.358 3.179 4.63569 0
M  V30 3306 H 314.509 1.88526 0.978344 0
M  V30 3307 H 316.772 0.810815 0.491206 0
M  V30 3308 H 316.478 2.65869 2.30232 0
M  V30 3309 H 316.352 1.38898 3.50695 0
M  V30 3310 H 318.739 0.615481 2.8861 0
M  V30 3311 H 318.82 1.91858 1.69187 0
M  V30 3312 H 318.464 3.62254 3.55997 0
M  V30 3313 H 318.394 2.29105 4.7415 0
M  V30 3314 H 320.885 1.99809 3.20757 0
M  V30 3315 H 321.198 4.6034 6.20731 0
M  V30 3316 H 319.543 4.13438 5.58654 0
M  V30 3317 H 322.734 2.54612 3.92798 0
M  V30 3318 H 322.907 3.73398 5.29602 0
M  V30 3319 N 316.313 -1.40141 0.720998 0
M  V30 3320 C 317.243 -2.33339 0.0867621 0
M  V30 3321 C 318.224 -1.53178 -0.739622 0
M  V30 3322 O 319.409 -1.81625 -0.687449 0
M  V30 3323 C 316.539 -3.37194 -0.831728 0
M  V30 3324 C 315.493 -4.27857 -0.110558 0
M  V30 3325 C 314.819 -5.22294 -1.14513 0
M  V30 3326 C 316.119 -5.11872 1.0385 0
M  V30 3327 H 317.813 -2.86626 0.865219 0
M  V30 3328 H 315.359 -1.37814 0.417516 0
M  V30 3329 H 317.312 -4.01335 -1.28485 0
M  V30 3330 H 316.036 -2.82314 -1.64214 0
M  V30 3331 H 314.695 -3.65176 0.322797 0
M  V30 3332 H 314.343 -4.63717 -1.94874 0
M  V30 3333 H 314.043 -5.83797 -0.667446 0
M  V30 3334 H 315.567 -5.89312 -1.59824 0
M  V30 3335 H 316.981 -5.69436 0.664482 0
M  V30 3336 H 315.378 -5.82445 1.4449 0
M  V30 3337 H 316.448 -4.4753 1.86668 0
M  V30 3338 N 317.792 -0.46758 -1.50504 0
M  V30 3339 C 319.039 0.0886219 -2.02306 0
M  V30 3340 C 319.367 1.40037 -1.34981 0
M  V30 3341 O 318.622 1.90136 -0.463318 0
M  V30 3342 C 318.921 0.323995 -3.55928 0
M  V30 3343 C 318.587 -0.905618 -4.41712 0
M  V30 3344 C 317.249 -1.24275 -4.64875 0
M  V30 3345 C 319.601 -1.72448 -4.91845 0
M  V30 3346 C 316.929 -2.39888 -5.35417 0
M  V30 3347 C 319.281 -2.87185 -5.63656 0
M  V30 3348 C 317.945 -3.21317 -5.85074 0
M  V30 3349 H 317.215 0.0324291 -0.74029 0
M  V30 3350 H 319.862 -0.620945 -1.81153 0
M  V30 3351 H 318.167 1.11577 -3.75577 0
M  V30 3352 H 319.864 0.76826 -3.93572 0
M  V30 3353 H 316.454 -0.632956 -4.239 0
M  V30 3354 H 320.638 -1.4772 -4.73806 0
M  V30 3355 H 315.894 -2.66611 -5.50208 0
M  V30 3356 H 320.068 -3.50985 -6.01484 0
M  V30 3357 H 317.695 -4.1101 -6.39511 0
M  V30 3358 N 319.27 1.56325 -0.20005 0
M  V30 3359 C 320.686 1.58839 0.155716 0
M  V30 3360 C 320.886 1.21636 1.60645 0
M  V30 3361 O 319.942 0.941437 2.34293 0
M  V30 3362 C 321.255 3.0032 -0.151124 0
M  V30 3363 C 322.803 3.12866 -0.0916284 0
M  V30 3364 C 323.278 4.56488 -0.371845 0
M  V30 3365 N 324.769 4.62089 -0.320641 0
M  V30 3366 C 325.504 5.71116 -0.511243 0
M  V30 3367 N 325 6.88592 -0.762461 0
M  V30 3368 N 326.793 5.60335 -0.445157 0
M  V30 3369 H 318.944 1.78788 -1.14668 0
M  V30 3370 H 321.207 0.829996 -0.458051 0
M  V30 3371 H 320.913 3.32117 -1.15721 0
M  V30 3372 H 320.787 3.73257 0.543986 0
M  V30 3373 H 323.174 2.80878 0.905065 0
M  V30 3374 H 323.255 2.42304 -0.81989 0
M  V30 3375 H 322.899 4.89189 -1.36588 0
M  V30 3376 H 322.829 5.25246 0.377362 0
M  V30 3377 H 325.32 3.77665 -0.13329 0
M  V30 3378 H 325.633 7.67581 -0.896576 0
M  V30 3379 H 323.978 6.90387 -0.799412 0
M  V30 3380 H 327.169 4.67436 -0.249278 0
M  V30 3381 H 327.342 6.45243 -0.597116 0
M  V30 3382 N 320.748 -0.0735177 1.57428 0
M  V30 3383 C 322.159 -0.625551 1.75908 0
M  V30 3384 C 322.51 -1.78 0.825261 0
M  V30 3385 O 321.635 -2.16398 0.00893964 0
M  V30 3386 C 322.23 -1.14155 3.18989 0
M  V30 3387 C 320.789 -1.63946 3.38819 0
M  V30 3388 C 319.936 -0.558151 2.71625 0
M  V30 3389 H 322.887 0.152647 1.57964 0
M  V30 3390 H 322.908 -2.0104 3.23053 0
M  V30 3391 H 322.42 -0.301116 3.8693 0
M  V30 3392 H 320.521 -2.50321 2.7599 0
M  V30 3393 H 320.634 -1.71759 4.47253 0
M  V30 3394 H 318.998 -1.00278 2.34129 0
M  V30 3395 H 319.781 0.272071 3.4222 0
M  V30 3396 N 322.226 -1.5378 -0.344866 0
M  V30 3397 C 323.642 -1.44015 -0.687888 0
M  V30 3398 C 323.842 -0.595834 -1.92489 0
M  V30 3399 O 322.898 -0.0863064 -2.52352 0
M  V30 3400 C 324.211 -2.87481 -0.881758 0
M  V30 3401 C 325.759 -2.97247 -0.980459 0
M  V30 3402 C 326.234 -4.41819 -1.20665 0
M  V30 3403 N 327.725 -4.45339 -1.27389 0
M  V30 3404 C 328.46 -5.54333 -1.46639 0
M  V30 3405 N 327.956 -6.73335 -1.63071 0
M  V30 3406 N 329.749 -5.41944 -1.49176 0
M  V30 3407 H 321.9 -2.07169 0.468475 0
M  V30 3408 H 324.163 -0.93643 0.147655 0
M  V30 3409 H 323.869 -3.51672 -0.0443444 0
M  V30 3410 H 323.743 -3.32352 -1.78388 0
M  V30 3411 H 326.13 -2.33197 -1.8084 0
M  V30 3412 H 326.211 -2.5574 -0.0552713 0
M  V30 3413 H 325.855 -5.06449 -0.383652 0
M  V30 3414 H 325.785 -4.80917 -2.14539 0
M  V30 3415 H 328.276 -3.59585 -1.1622 0
M  V30 3416 H 328.589 -7.52165 -1.77391 0
M  V30 3417 H 326.934 -6.76282 -1.60209 0
M  V30 3418 H 330.125 -4.47932 -1.3592 0
M  V30 3419 H 330.298 -6.26946 -1.63837 0
M  V30 3420 N 323.704 0.605807 -1.45491 0
M  V30 3421 C 324.634 1.72709 -1.57143 0
M  V30 3422 C 325.615 1.6476 -0.422884 0
M  V30 3423 O 326.8 1.83132 -0.646247 0
M  V30 3424 C 323.93 3.11316 -1.53948 0
M  V30 3425 C 322.884 3.34077 -2.67537 0
M  V30 3426 C 322.21 4.72975 -2.49397 0
M  V30 3427 C 323.51 3.24158 -4.09535 0
M  V30 3428 H 325.204 1.63214 -2.51001 0
M  V30 3429 H 322.75 0.78379 -1.208 0
M  V30 3430 H 324.703 3.89557 -1.60696 0
M  V30 3431 H 323.427 3.21655 -0.566205 0
M  V30 3432 H 322.086 2.58227 -2.6022 0
M  V30 3433 H 321.734 4.8005 -1.50205 0
M  V30 3434 H 321.434 4.8916 -3.25571 0
M  V30 3435 H 322.958 5.53414 -2.58002 0
M  V30 3436 H 324.372 3.92271 -4.18086 0
M  V30 3437 H 322.769 3.51872 -4.86113 0
M  V30 3438 H 323.839 2.2157 -4.31317 0
M  V30 3439 N 325.182 1.32811 0.848464 0
M  V30 3440 C 326.431 1.23075 1.59798 0
M  V30 3441 C 326.744 -0.204419 1.94529 0
M  V30 3442 O 327.95 -0.423701 2.68173 0
M  V30 3443 C 326.406 2.15594 2.88179 0
M  V30 3444 C 326.014 3.64228 2.60849 0
M  V30 3445 C 327.758 2.14709 3.66197 0
M  V30 3446 C 325.665 4.48689 3.85269 0
M  V30 3447 H 324.595 0.457091 0.599653 0
M  V30 3448 H 327.246 1.57813 0.936342 0
M  V30 3449 H 325.628 1.73778 3.55833 0
M  V30 3450 H 326.802 4.14424 2.01467 0
M  V30 3451 H 325.117 3.67306 1.96151 0
M  V30 3452 H 327.714 2.75046 4.58534 0
M  V30 3453 H 328.057 1.13966 4.00397 0
M  V30 3454 H 328.59 2.54837 3.05455 0
M  V30 3455 H 325.329 5.5027 3.56207 0
M  V30 3456 H 324.849 4.03241 4.44024 0
M  V30 3457 H 326.528 4.62006 4.52946 0
M  V30 3458 N 326.66 -1.06551 1.16123 0
M  V30 3459 C 327.909 -1.78687 0.935622 0
M  V30 3460 C 328.222 -1.88056 -0.538001 0
M  V30 3461 O 329.428 -2.56794 -0.88143 0
M  V30 3462 C 327.884 -3.21143 1.62466 0
M  V30 3463 C 327.492 -3.19949 3.13587 0
M  V30 3464 C 329.236 -3.9783 1.48092 0
M  V30 3465 C 327.143 -4.57108 3.75241 0
M  V30 3466 H 326.073 -0.669712 0.346412 0
M  V30 3467 H 328.724 -1.19534 1.39226 0
M  V30 3468 H 327.106 -3.80539 1.09572 0
M  V30 3469 H 328.28 -2.70151 3.73303 0
M  V30 3470 H 326.595 -2.5676 3.27816 0
M  V30 3471 H 329.192 -4.99217 1.91538 0
M  V30 3472 H 329.535 -4.14078 0.429507 0
M  V30 3473 H 330.068 -3.4495 1.98127 0
M  V30 3474 H 326.807 -4.46065 4.80319 0
M  V30 3475 H 326.327 -5.07111 3.20309 0
M  V30 3476 H 328.006 -5.26069 3.76644 0
M  V30 3477 N 328.138 -0.959301 -1.25041 0
M  V30 3478 C 329.101 -0.487677 -2.23952 0
M  V30 3479 C 330.101 0.41119 -1.55454 0
M  V30 3480 O 331.291 0.207825 -1.72956 0
M  V30 3481 C 328.423 0.294807 -3.39623 0
M  V30 3482 H 329.616 -1.36198 -2.67189 0
M  V30 3483 H 327.169 -0.743042 -1.37508 0
M  V30 3484 H 327.904 1.18658 -3.01813 0
M  V30 3485 H 327.689 -0.35012 -3.90534 0
M  V30 3486 H 329.179 0.614089 -4.1306 0
M  V30 3487 N 329.616 1.39756 -0.72842 0
M  V30 3488 C 330.864 2.00248 -0.272946 0
M  V30 3489 C 331.185 1.58077 1.14178 0
M  V30 3490 O 330.455 0.826014 1.77634 0
M  V30 3491 H 329.035 0.740554 -0.0979247 0
M  V30 3492 H 331.697 1.70903 -0.936912 0
M  V30 3493 H 330.793 3.10495 -0.316142 0
M  V30 3494 N 331.094 0.475555 1.50254 0
M  V30 3495 C 332.322 -0.0754493 2.06762 0
M  V30 3496 C 332.737 -1.33111 1.33891 0
M  V30 3497 O 332.094 -1.77846 0.40952 0
M  V30 3498 C 332.145 -0.359008 3.59713 0
M  V30 3499 O 331.866 0.846851 4.29837 0
M  V30 3500 C 333.367 -0.956484 4.32858 0
M  V30 3501 H 330.587 0.00907525 0.670939 0
M  V30 3502 H 333.131 0.665618 1.93364 0
M  V30 3503 H 331.286 -1.05001 3.72899 0
M  V30 3504 H 331.7 0.594162 5.21124 0
M  V30 3505 H 333.174 -1.10463 5.40834 0
M  V30 3506 H 333.651 -1.94775 3.93649 0
M  V30 3507 H 334.257 -0.303723 4.24214 0
M  V30 3508 N 332.573 -1.56217 0.208337 0
M  V30 3509 C 333.798 -2.02782 -0.435222 0
M  V30 3510 C 334.223 -1.08738 -1.53485 0
M  V30 3511 O 333.581 -0.0731855 -1.81152 0
M  V30 3512 C 333.629 -3.47687 -0.956335 0
M  V30 3513 O 332.733 -3.56773 -2.06849 0
M  V30 3514 H 332.074 -0.656403 -0.100158 0
M  V30 3515 H 334.604 -2.02033 0.3231 0
M  V30 3516 H 334.614 -3.87745 -1.26955 0
M  V30 3517 H 333.289 -4.15624 -0.15143 0
M  V30 3518 H 331.866 -3.28597 -1.76292 0
M  V30 3519 N 334.051 0.0651679 -1.57465 0
M  V30 3520 C 335.014 1.06117 -2.03155 0
M  V30 3521 C 336.014 1.31204 -0.929632 0
M  V30 3522 O 337.204 1.26813 -1.19432 0
M  V30 3523 C 334.336 2.4032 -2.41783 0
M  V30 3524 H 335.529 0.667231 -2.92383 0
M  V30 3525 H 333.082 0.311075 -1.53173 0
M  V30 3526 H 333.817 2.84532 -1.55601 0
M  V30 3527 H 333.602 2.23451 -3.22199 0
M  V30 3528 H 335.092 3.11898 -2.77685 0
M  V30 3529 N 335.529 1.53961 0.336706 0
M  V30 3530 C 336.759 1.75229 1.09446 0
M  V30 3531 C 337.167 0.494602 1.82621 0
M  V30 3532 O 336.51 -0.543764 1.75468 0
M  V30 3533 C 336.572 2.88288 2.1478 0
M  V30 3534 C 336.236 4.27656 1.6112 0
M  V30 3535 C 337.233 5.08981 1.0599 0
M  V30 3536 C 334.918 4.74161 1.6576 0
M  V30 3537 C 336.912 6.34916 0.562129 0
M  V30 3538 C 334.599 6.00067 1.15595 0
M  V30 3539 C 335.597 6.80278 0.609147 0
M  V30 3540 O 335.285 8.03818 0.114999 0
M  V30 3541 H 335.017 0.588881 0.331956 0
M  V30 3542 H 337.571 2.01614 0.392566 0
M  V30 3543 H 335.801 2.57443 2.88548 0
M  V30 3544 H 337.49 2.97461 2.76174 0
M  V30 3545 H 338.256 4.74213 1.01722 0
M  V30 3546 H 334.135 4.11781 2.07261 0
M  V30 3547 H 337.679 6.9747 0.134668 0
M  V30 3548 H 333.576 6.3433 1.19566 0
M  V30 3549 H 334.344 8.18172 0.231651 0
M  V30 3550 N 337.007 -0.598083 1.45811 0
M  V30 3551 C 337.97 -1.69018 1.54808 0
M  V30 3552 C 338.97 -1.55037 0.426652 0
M  V30 3553 O 340.16 -1.59932 0.690456 0
M  V30 3554 C 337.292 -3.0835 1.45371 0
M  V30 3555 H 338.485 -1.62403 2.52121 0
M  V30 3556 H 336.038 -0.814626 1.33392 0
M  V30 3557 H 336.773 -3.20534 0.492793 0
M  V30 3558 H 336.558 -3.19907 2.26721 0
M  V30 3559 H 338.048 -3.8788 1.54721 0
M  V30 3560 N 338.485 -1.33259 -0.841409 0
M  V30 3561 C 339.901 -1.12538 -1.13169 0
M  V30 3562 C 340.101 0.0854037 -2.01319 0
M  V30 3563 O 339.157 0.766417 -2.40587 0
M  V30 3564 C 340.47 -2.41156 -1.79623 0
M  V30 3565 C 342.018 -2.47038 -1.922 0
M  V30 3566 C 342.493 -3.7561 -2.6207 0
M  V30 3567 N 343.984 -3.76667 -2.69585 0
M  V30 3568 C 344.719 -4.72861 -3.2433 0
M  V30 3569 N 344.215 -5.79428 -3.79783 0
M  V30 3570 N 346.008 -4.6034 -3.22558 0
M  V30 3571 H 338.159 -2.10868 -0.254676 0
M  V30 3572 H 340.422 -0.931615 -0.175493 0
M  V30 3573 H 340.128 -3.29747 -1.22311 0
M  V30 3574 H 340.002 -2.53114 -2.79666 0
M  V30 3575 H 342.389 -1.58898 -2.48667 0
M  V30 3576 H 342.47 -2.39022 -0.911148 0
M  V30 3577 H 342.114 -4.64131 -2.06263 0
M  V30 3578 H 342.044 -3.80902 -3.63622 0
M  V30 3579 H 344.535 -2.99648 -2.30259 0
M  V30 3580 H 344.848 -6.48867 -4.19752 0
M  V30 3581 H 343.193 -5.83166 -3.78078 0
M  V30 3582 H 346.384 -3.76244 -2.78492 0
M  V30 3583 H 346.557 -5.35478 -3.64921 0
M  V30 3584 N 339.963 1.05934 -1.16686 0
M  V30 3585 C 340.893 2.1546 -0.899949 0
M  V30 3586 C 341.874 1.69391 0.155154 0
M  V30 3587 O 343.059 1.94199 0.00648693 0
M  V30 3588 C 340.189 3.44939 -0.404241 0
M  V30 3589 C 339.143 4.04536 -1.39767 0
M  V30 3590 C 338.469 5.29268 -0.760216 0
M  V30 3591 C 339.769 4.42893 -2.76845 0
M  V30 3592 H 341.463 2.38046 -1.81588 0
M  V30 3593 H 339.009 1.14404 -0.874514 0
M  V30 3594 H 340.962 4.20901 -0.204971 0
M  V30 3595 H 339.686 3.21983 0.547206 0
M  V30 3596 H 338.345 3.30635 -1.58355 0
M  V30 3597 H 337.993 5.02611 0.197831 0
M  V30 3598 H 337.693 5.70101 -1.42332 0
M  V30 3599 H 339.217 6.07924 -0.57105 0
M  V30 3600 H 340.631 5.09921 -2.62019 0
M  V30 3601 H 339.028 4.94721 -3.39663 0
M  V30 3602 H 340.098 3.53584 -3.31823 0
M  V30 3603 N 341.441 0.965919 1.2453 0
M  V30 3604 C 342.69 0.622437 1.91856 0
M  V30 3605 C 343.003 -0.846006 1.76358 0
M  V30 3606 O 344.209 -1.29993 2.38357 0
M  V30 3607 C 342.665 1.0626 3.43856 0
M  V30 3608 C 342.273 2.55437 3.68043 0
M  V30 3609 C 344.017 0.792183 4.17043 0
M  V30 3610 C 341.924 2.93196 5.13605 0
M  V30 3611 H 340.854 0.229092 0.718354 0
M  V30 3612 H 343.505 1.17189 1.41206 0
M  V30 3613 H 341.887 0.441476 3.93531 0
M  V30 3614 H 343.061 3.22665 3.28974 0
M  V30 3615 H 341.376 2.8007 3.08139 0
M  V30 3616 H 343.973 1.05031 5.24283 0
M  V30 3617 H 344.316 -0.271584 4.15413 0
M  V30 3618 H 344.849 1.37419 3.73311 0
M  V30 3619 H 341.588 3.98636 5.20355 0
M  V30 3620 H 341.108 2.30651 5.53679 0
M  V30 3621 H 342.787 2.83004 5.81823 0
M  V30 3622 N 342.919 -1.39368 0.735821 0
M  V30 3623 C 344.196 -1.94465 0.210395 0
M  V30 3624 C 344.576 -1.67254 -1.28799 0
M  V30 3625 O 343.924 -1.00123 -2.05396 0
M  V30 3626 C 344.134 -3.4472 0.544897 0
M  V30 3627 C 345.482 -4.21708 0.494689 0
M  V30 3628 O 346.506 -3.52922 0.482136 0
M  V30 3629 O 345.365 -5.44299 0.489947 0
M  V30 3630 H 342.459 -0.826096 0.0386666 0
M  V30 3631 H 345.005 -1.48863 0.814735 0
M  V30 3632 H 343.777 -3.57963 1.58045 0
M  V30 3633 H 343.4 -3.97502 -0.08837 0
M  V30 3634 N 344.397 -0.483516 -1.5 0
M  V30 3635 C 345.627 0.0643896 -2.065 0
M  V30 3636 C 346.035 1.32949 -1.34615 0
M  V30 3637 O 345.378 1.79003 -0.412756 0
M  V30 3638 C 345.44 0.405983 -3.572 0
M  V30 3639 C 345.104 -0.758875 -4.50655 0
M  V30 3640 C 346.101 -1.64445 -4.93208 0
M  V30 3641 C 343.786 -0.952725 -4.93182 0
M  V30 3642 C 345.78 -2.70818 -5.77006 0
M  V30 3643 C 343.467 -2.01966 -5.76761 0
M  V30 3644 C 344.465 -2.89574 -6.18576 0
M  V30 3645 O 344.153 -3.94429 -7.00486 0
M  V30 3646 H 343.885 -0.00934786 -0.675935 0
M  V30 3647 H 346.439 -0.674959 -1.93993 0
M  V30 3648 H 344.669 1.19869 -3.67652 0
M  V30 3649 H 346.358 0.890433 -3.96013 0
M  V30 3650 H 347.124 -1.50643 -4.61012 0
M  V30 3651 H 343.003 -0.280247 -4.60147 0
M  V30 3652 H 346.547 -3.3923 -6.09565 0
M  V30 3653 H 342.444 -2.1577 -6.0837 0
M  V30 3654 H 343.212 -3.91568 -7.1876 0
M  V30 3655 N 345.875 1.56104 -0.216619 0
M  V30 3656 C 346.838 2.18819 0.681962 0
M  V30 3657 C 347.838 1.14866 1.12528 0
M  V30 3658 O 349.028 1.40128 1.03488 0
M  V30 3659 C 346.16 2.80756 1.93362 0
M  V30 3660 H 347.353 2.99595 0.135254 0
M  V30 3661 H 344.906 1.56265 0.0330003 0
M  V30 3662 H 345.641 2.03837 2.52232 0
M  V30 3663 H 345.426 3.56876 1.62426 0
M  V30 3664 H 346.916 3.28844 2.57393 0
M  V30 3665 N 347.353 -0.0568162 1.57498 0
M  V30 3666 C 348.769 -0.411933 1.54192 0
M  V30 3667 C 348.969 -1.78287 0.938942 0
M  V30 3668 O 348.025 -2.46483 0.547919 0
M  V30 3669 C 349.338 -0.339244 2.9878 0
M  V30 3670 C 350.886 -0.418348 3.10192 0
M  V30 3671 C 351.361 -0.375407 4.56459 0
M  V30 3672 N 352.852 -0.435038 4.61153 0
M  V30 3673 C 353.587 -0.424265 5.71828 0
M  V30 3674 N 353.083 -0.367418 6.91825 0
M  V30 3675 N 354.876 -0.471938 5.60115 0
M  V30 3676 H 347.027 0.840684 1.95055 0
M  V30 3677 H 349.29 0.316987 0.893433 0
M  V30 3678 H 348.996 0.601742 3.46514 0
M  V30 3679 H 348.87 -1.14371 3.59443 0
M  V30 3680 H 351.257 -1.34976 2.62422 0
M  V30 3681 H 351.338 0.414962 2.52412 0
M  V30 3682 H 350.982 0.552219 5.04889 0
M  V30 3683 H 350.912 -1.22645 5.12119 0
M  V30 3684 H 353.403 -0.482612 3.74806 0
M  V30 3685 H 353.716 -0.363535 7.71944 0
M  V30 3686 H 352.061 -0.333879 6.94198 0
M  V30 3687 H 355.252 -0.514145 4.65268 0
M  V30 3688 H 355.425 -0.460073 6.46365 0
M  V30 3689 N 348.832 -1.54138 -0.328536 0
M  V30 3690 C 349.765 -1.78014 -1.4278 0
M  V30 3691 C 350.743 -0.629889 -1.49904 0
M  V30 3692 O 351.927 -0.866763 -1.6739 0
M  V30 3693 C 349.054 -1.89225 -2.80912 0
M  V30 3694 C 348.1 -3.11483 -2.91343 0
M  V30 3695 S 348.933 -4.70201 -2.56263 0
M  V30 3696 C 350.089 -4.84312 -3.96476 0
M  V30 3697 H 350.322 -2.70974 -1.22313 0
M  V30 3698 H 347.855 -1.45197 -0.525084 0
M  V30 3699 H 349.813 -1.9637 -3.60485 0
M  V30 3700 H 348.474 -0.972518 -2.98665 0
M  V30 3701 H 347.667 -3.16046 -3.92595 0
M  V30 3702 H 347.269 -3.02642 -2.19736 0
M  V30 3703 H 349.561 -4.66643 -4.91173 0
M  V30 3704 H 350.504 -5.86411 -3.96898 0
M  V30 3705 H 350.912 -4.12652 -3.85199 0
M  V30 3706 N 350.31 0.590341 -1.46126 0
M  V30 3707 C 351.726 0.912917 -1.30912 0
M  V30 3708 C 351.926 1.99616 -0.274893 0
M  V30 3709 O 350.982 2.50397 0.325197 0
M  V30 3710 C 352.295 1.3375 -2.69317 0
M  V30 3711 C 353.843 1.45077 -2.77348 0
M  V30 3712 C 354.318 1.90904 -4.16317 0
M  V30 3713 N 355.809 1.9811 -4.18696 0
M  V30 3714 C 356.544 2.34828 -5.23109 0
M  V30 3715 N 356.04 2.70393 -6.37856 0
M  V30 3716 N 357.833 2.35317 -5.10473 0
M  V30 3717 H 349.984 -0.125358 -2.1203 0
M  V30 3718 H 352.247 0.00658481 -0.947977 0
M  V30 3719 H 351.953 0.615614 -3.4627 0
M  V30 3720 H 351.827 2.30058 -2.9892 0
M  V30 3721 H 354.214 2.16353 -2.00687 0
M  V30 3722 H 354.295 0.4704 -2.51438 0
M  V30 3723 H 353.939 1.20209 -4.9347 0
M  V30 3724 H 353.869 2.89886 -4.39629 0
M  V30 3725 H 356.36 1.73146 -3.359 0
M  V30 3726 H 356.673 2.97341 -7.13308 0
M  V30 3727 H 355.018 2.68048 -6.41229 0
M  V30 3728 H 358.209 2.0695 -4.19868 0
M  V30 3729 H 358.382 2.63605 -5.9196 0
M  V30 3730 N 351.788 1.33704 0.83433 0
M  V30 3731 C 352.698 1.26382 1.97648 0
M  V30 3732 C 353.714 0.173548 1.73132 0
M  V30 3733 O 354.89 0.397962 1.97429 0
M  V30 3734 C 351.955 1.00769 3.31733 0
M  V30 3735 C 351.016 2.1884 3.69334 0
M  V30 3736 C 350.249 1.9444 4.9702 0
M  V30 3737 O 350.472 0.896961 5.63303 0
M  V30 3738 O 349.406 2.81093 5.32231 0
M  V30 3739 H 353.232 2.22444 2.06767 0
M  V30 3740 H 350.817 1.13795 0.968037 0
M  V30 3741 H 352.699 0.882186 4.12062 0
M  V30 3742 H 351.374 0.0773783 3.23608 0
M  V30 3743 H 350.281 2.36946 2.89495 0
M  V30 3744 H 351.614 3.10221 3.82131 0
M  V30 3745 N 353.266 -1.05314 1.17247 0
M  V30 3746 C 354.512 -1.78557 0.961513 0
M  V30 3747 C 354.845 -1.87419 -0.508697 0
M  V30 3748 O 354.12 -1.37307 -1.37757 0
M  V30 3749 C 354.403 -3.22514 1.60176 0
M  V30 3750 C 354.256 -3.21673 3.14399 0
M  V30 3751 C 355.575 -4.20318 1.30463 0
M  V30 3752 H 352.694 -0.6482 0.350723 0
M  V30 3753 H 355.336 -1.23102 1.44727 0
M  V30 3754 H 353.486 -3.69867 1.18871 0
M  V30 3755 H 355.158 -2.82405 3.64753 0
M  V30 3756 H 353.401 -2.60048 3.47214 0
M  V30 3757 H 354.072 -4.23271 3.54324 0
M  V30 3758 H 356.548 -3.81454 1.66229 0
M  V30 3759 H 355.424 -5.19289 1.77848 0
M  V30 3760 H 355.685 -4.41526 0.22521 0
M  V30 3761 N 354.744 -0.972509 -1.24016 0
M  V30 3762 C 355.984 -0.644951 -1.93958 0
M  V30 3763 C 356.348 0.80559 -1.74282 0
M  V30 3764 O 357.549 1.2436 -2.38302 0
M  V30 3765 C 355.82 -1.01521 -3.42678 0
M  V30 3766 S 357.379 -0.802927 -4.31391 0
M  V30 3767 H 354.197 -0.236452 -0.670531 0
M  V30 3768 H 356.799 -1.25048 -1.50277 0
M  V30 3769 H 355.503 -2.06769 -3.54506 0
M  V30 3770 H 355.034 -0.400648 -3.91355 0
M  V30 3771 H 357.049 0.317256 -4.95185 0
M  V30 3772 N 356.222 1.38976 -0.743202 0
M  V30 3773 C 357.499 1.94351 -0.220705 0
M  V30 3774 C 357.879 1.67935 1.2791 0
M  V30 3775 O 357.227 1.01211 2.04862 0
M  V30 3776 C 357.437 3.44426 -0.563171 0
M  V30 3777 C 358.785 4.2144 -0.517046 0
M  V30 3778 O 359.809 3.52661 -0.500846 0
M  V30 3779 O 358.668 5.44032 -0.518806 0
M  V30 3780 H 355.762 0.825879 -0.043047 0
M  V30 3781 H 358.308 1.48429 -0.822618 0
M  V30 3782 H 357.08 3.5712 -1.59941 0
M  V30 3783 H 356.703 3.97543 0.0672883 0
M  V30 3784 N 357.7 0.491464 1.49741 0
M  V30 3785 C 358.61 -0.296835 2.32715 0
M  V30 3786 C 359.626 -0.976536 1.44013 0
M  V30 3787 O 360.802 -0.960023 1.77047 0
M  V30 3788 C 357.867 -1.35288 3.19215 0
M  V30 3789 C 356.928 -0.687632 4.23757 0
M  V30 3790 C 356.161 -1.69336 5.06123 0
M  V30 3791 O 356.384 -2.92219 4.89861 0
M  V30 3792 O 355.318 -1.25394 5.88693 0
M  V30 3793 H 359.144 0.382048 3.01287 0
M  V30 3794 H 356.729 0.252953 1.47243 0
M  V30 3795 H 358.611 -1.96411 3.72828 0
M  V30 3796 H 357.286 -2.01487 2.53347 0
M  V30 3797 H 356.193 -0.0369159 3.74082 0
M  V30 3798 H 357.526 -0.0682566 4.92153 0
M  V30 3799 N 359.178 -1.55987 0.224894 0
M  V30 3800 C 360.424 -1.98684 -0.406502 0
M  V30 3801 C 360.757 -1.11248 -1.59177 0
M  V30 3802 O 360.032 -0.170909 -1.93748 0
M  V30 3803 C 360.315 -3.50218 -0.837808 0
M  V30 3804 C 360.168 -4.48426 0.351332 0
M  V30 3805 C 361.487 -4.06243 -1.69278 0
M  V30 3806 H 358.606 -0.722337 -0.146283 0
M  V30 3807 H 361.248 -1.87255 0.321799 0
M  V30 3808 H 359.398 -3.60089 -1.45837 0
M  V30 3809 H 361.07 -4.50562 0.989526 0
M  V30 3810 H 359.313 -4.22159 0.998207 0
M  V30 3811 H 359.984 -5.52 0.00655905 0
M  V30 3812 H 362.46 -3.99337 -1.16914 0
M  V30 3813 H 361.336 -5.12581 -1.96346 0
M  V30 3814 H 361.597 -3.53332 -2.65723 0
M  V30 3815 N 360.656 0.0484629 -1.57525 0
M  V30 3816 C 361.603 1.05504 -2.05275 0
M  V30 3817 C 362.573 1.37084 -0.937927 0
M  V30 3818 O 363.758 1.47754 -1.2072 0
M  V30 3819 C 360.898 2.35676 -2.52093 0
M  V30 3820 C 360.011 2.10423 -3.77288 0
M  V30 3821 C 359.146 3.34327 -4.12794 0
M  V30 3822 C 358.185 3.04542 -5.30962 0
M  V30 3823 N 357.322 4.20841 -5.61994 0
M  V30 3824 H 362.162 0.640885 -2.91027 0
M  V30 3825 H 359.699 0.304854 -1.43906 0
M  V30 3826 H 361.657 3.11709 -2.77297 0
M  V30 3827 H 360.287 2.7485 -1.69285 0
M  V30 3828 H 359.339 1.24976 -3.59284 0
M  V30 3829 H 360.651 1.84438 -4.63448 0
M  V30 3830 H 359.805 4.1874 -4.39024 0
M  V30 3831 H 358.544 3.63408 -3.25247 0
M  V30 3832 H 357.549 2.18528 -5.04505 0
M  V30 3833 H 358.774 2.76758 -6.20146 0
M  V30 3834 H 356.72 4.4991 -4.77406 0
M  V30 3835 H 356.637 3.98212 -6.42622 0
M  V30 3836 H 357.905 5.06184 -5.92789 0
M  V30 3837 N 362.134 1.5431 0.320358 0
M  V30 3838 C 363.097 1.83195 1.3774 0
M  V30 3839 C 364.097 0.703906 1.44575 0
M  V30 3840 O 365.287 0.972214 1.44546 0
M  V30 3841 C 362.419 1.99487 2.76438 0
M  V30 3842 H 363.612 2.77642 1.1338 0
M  V30 3843 H 361.165 1.46076 0.556012 0
M  V30 3844 H 361.9 1.07262 3.06048 0
M  V30 3845 H 361.685 2.81575 2.7287 0
M  V30 3846 H 363.175 2.23271 3.52902 0
M  V30 3847 N 363.613 -0.582584 1.46437 0
M  V30 3848 C 364.563 -1.68654 1.53426 0
M  V30 3849 C 365.547 -1.55971 0.395194 0
M  V30 3850 O 366.739 -1.64884 0.643612 0
M  V30 3851 C 363.868 -3.07439 1.52762 0
M  V30 3852 C 362.954 -3.25418 2.71963 0
M  V30 3853 N 363.345 -3.13556 3.96883 0
M  V30 3854 C 361.643 -3.56357 2.68189 0
M  V30 3855 C 362.344 -3.33543 4.76575 0
M  V30 3856 N 361.32 -3.58704 4.08451 0
M  V30 3857 H 365.122 -1.58014 2.47808 0
M  V30 3858 H 362.636 -0.786617 1.42078 0
M  V30 3859 H 364.633 -3.86671 1.55857 0
M  V30 3860 H 363.293 -3.1921 0.594573 0
M  V30 3861 H 364.304 -2.9142 4.28129 0
M  V30 3862 H 360.981 -3.74812 1.83908 0
M  V30 3863 H 362.371 -3.29555 5.85528 0
M  V30 3864 N 365.091 -1.34144 -0.827227 0
M  V30 3865 C 366.021 -1.28005 -1.95287 0
M  V30 3866 C 367.002 -0.158321 -1.69362 0
M  V30 3867 O 368.187 -0.349987 -1.9102 0
M  V30 3868 C 365.317 -1.03036 -3.31664 0
M  V30 3869 C 364.271 -2.11628 -3.72019 0
M  V30 3870 C 363.597 -1.71854 -5.0633 0
M  V30 3871 C 364.897 -3.53417 -3.8457 0
M  V30 3872 H 366.591 -2.22187 -2.00682 0
M  V30 3873 H 364.137 -1.0696 -0.964135 0
M  V30 3874 H 366.09 -0.973863 -4.09993 0
M  V30 3875 H 364.814 -0.0529391 -3.26557 0
M  V30 3876 H 363.473 -2.16339 -2.95961 0
M  V30 3877 H 363.121 -0.727841 -4.97706 0
M  V30 3878 H 362.821 -2.44531 -5.34302 0
M  V30 3879 H 364.345 -1.67692 -5.87122 0
M  V30 3880 H 365.759 -3.51142 -4.5318 0
M  V30 3881 H 364.156 -4.24679 -4.2399 0
M  V30 3882 H 365.226 -3.91072 -2.86689 0
M  V30 3883 N 366.569 1.04691 -1.17803 0
M  V30 3884 C 367.499 2.14494 -0.92275 0
M  V30 3885 C 368.48 1.69546 0.137179 0
M  V30 3886 O 369.665 1.94195 -0.0141108 0
M  V30 3887 C 366.795 3.44491 -0.440803 0
M  V30 3888 C 365.749 4.03031 -1.4405 0
M  V30 3889 C 365.075 5.28432 -0.81631 0
M  V30 3890 C 366.375 4.39932 -2.81527 0
M  V30 3891 H 368.069 2.36107 -1.84103 0
M  V30 3892 H 365.615 1.1347 -0.886599 0
M  V30 3893 H 367.568 4.2066 -0.249602 0
M  V30 3894 H 366.292 3.22546 0.513025 0
M  V30 3895 H 364.951 3.28937 -1.61853 0
M  V30 3896 H 364.599 5.02792 0.144511 0
M  V30 3897 H 364.299 5.68559 -1.48371 0
M  V30 3898 H 365.823 6.07284 -0.635496 0
M  V30 3899 H 367.237 5.07113 -2.67412 0
M  V30 3900 H 365.634 4.9109 -3.44892 0
M  V30 3901 H 366.704 3.50045 -3.35554 0
M  V30 3902 N 368.047 0.979072 1.23499 0
M  V30 3903 C 369.01 0.523244 2.23147 0
M  V30 3904 C 370.01 -0.386406 1.56088 0
M  V30 3905 O 371.2 -0.180283 1.73265 0
M  V30 3906 C 368.332 -0.240739 3.40049 0
M  V30 3907 H 369.525 1.40432 2.64989 0
M  V30 3908 H 367.078 0.764824 1.36309 0
M  V30 3909 H 367.813 -1.13841 3.03662 0
M  V30 3910 H 367.598 0.412207 3.89927 0
M  V30 3911 H 369.088 -0.548297 4.13985 0
M  V30 3912 N 369.525 -1.3858 0.750561 0
M  V30 3913 C 370.802 -1.94231 0.231009 0
M  V30 3914 C 371.182 -1.68611 -1.27018 0
M  V30 3915 O 370.53 -1.02296 -2.04323 0
M  V30 3916 C 370.74 -3.44123 0.581428 0
M  V30 3917 C 372.088 -4.2116 0.539389 0
M  V30 3918 O 373.112 -3.52391 0.519541 0
M  V30 3919 O 371.971 -5.43749 0.54765 0
M  V30 3920 H 369.065 -0.825639 0.0474263 0
M  V30 3921 H 371.611 -1.4799 0.830478 0
M  V30 3922 H 370.383 -3.56267 1.61833 0
M  V30 3923 H 370.006 -3.97573 -0.0462047 0
M  V30 3924 N 371.003 -0.499398 -1.49478 0
M  V30 3925 C 371.936 0.326491 -2.25852 0
M  V30 3926 C 372.914 0.971776 -1.30366 0
M  V30 3927 O 374.098 1.00219 -1.59651 0
M  V30 3928 C 371.225 1.45969 -3.05632 0
M  V30 3929 C 370.271 0.928938 -4.16261 0
M  V30 3930 S 371.104 -0.179012 -5.35201 0
M  V30 3931 C 372.26 0.957389 -6.18534 0
M  V30 3932 H 372.493 -0.321746 -2.95554 0
M  V30 3933 H 370.026 -0.284674 -1.51753 0
M  V30 3934 H 371.984 2.109 -3.52181 0
M  V30 3935 H 370.645 2.07953 -2.35402 0
M  V30 3936 H 369.838 1.77813 -4.71592 0
M  V30 3937 H 369.44 0.356869 -3.72293 0
M  V30 3938 H 371.732 1.86296 -6.51383 0
M  V30 3939 H 372.675 0.442733 -7.06715 0
M  V30 3940 H 373.083 1.224 -5.5107 0
M  V30 3941 N 372.481 1.55866 -0.233164 0
M  V30 3942 C 373.444 2.1953 0.658715 0
M  V30 3943 C 374.444 1.16053 1.11303 0
M  V30 3944 O 375.634 1.41218 1.01996 0
M  V30 3945 C 372.766 2.82791 1.90373 0
M  V30 3946 H 373.959 2.99721 0.10347 0
M  V30 3947 H 371.512 1.56291 0.0164245 0
M  V30 3948 H 372.247 2.06501 2.50056 0
M  V30 3949 H 372.032 3.58578 1.58632 0
M  V30 3950 H 373.522 3.31556 2.53891 0
M  V30 3951 N 373.959 -0.0401083 1.57549 0
M  V30 3952 C 374.909 -1.05175 2.02292 0
M  V30 3953 C 375.893 -1.32674 0.910294 0
M  V30 3954 O 377.085 -1.32444 1.17421 0
M  V30 3955 C 374.214 -2.35622 2.49674 0
M  V30 3956 C 373.3 -2.11261 3.67736 0
M  V30 3957 N 373.691 -1.56923 4.80842 0
M  V30 3958 C 371.989 -2.41596 3.74897 0
M  V30 3959 C 372.69 -1.48111 5.62528 0
M  V30 3960 N 371.666 -1.95282 5.07312 0
M  V30 3961 H 375.468 -0.625455 2.87168 0
M  V30 3962 H 372.982 -0.246624 1.60516 0
M  V30 3963 H 374.979 -3.08893 2.79983 0
M  V30 3964 H 373.639 -2.7894 1.662 0
M  V30 3965 H 374.65 -1.25345 5.02503 0
M  V30 3966 H 371.327 -2.88064 3.02201 0
M  V30 3967 H 372.717 -1.06683 6.63377 0
M  V30 3968 N 375.437 -1.54477 -0.31217 0
M  V30 3969 C 376.686 -1.72438 -1.04633 0
M  V30 3970 C 376.999 -0.511163 -1.88803 0
M  V30 3971 O 378.205 -0.572341 -2.65399 0
M  V30 3972 C 376.661 -3.05043 -1.9099 0
M  V30 3973 C 376.269 -4.33806 -1.11877 0
M  V30 3974 C 378.013 -3.32364 -2.64073 0
M  V30 3975 C 375.92 -5.57467 -1.97445 0
M  V30 3976 H 374.85 -0.642647 -0.394361 0
M  V30 3977 H 377.501 -1.80966 -0.303929 0
M  V30 3978 H 375.883 -2.90451 -2.69173 0
M  V30 3979 H 377.057 -4.59199 -0.383843 0
M  V30 3980 H 375.372 -4.13336 -0.504252 0
M  V30 3981 H 377.969 -4.21951 -3.28423 0
M  V30 3982 H 378.312 -2.50745 -3.32314 0
M  V30 3983 H 378.845 -3.47875 -1.92944 0
M  V30 3984 H 375.584 -6.41722 -1.33692 0
M  V30 3985 H 375.104 -5.36277 -2.6864 0
M  V30 3986 H 376.783 -5.94303 -2.5576 0
M  V30 3987 N 376.915 0.57481 -1.46744 0
M  V30 3988 C 378.14 1.36341 -1.56288 0
M  V30 3989 C 378.565 1.86954 -0.207347 0
M  V30 3990 O 377.923 1.62006 0.813871 0
M  V30 3991 C 377.971 2.52147 -2.57787 0
M  V30 3992 O 377.075 3.53834 -2.11838 0
M  V30 3993 H 376.416 0.405713 -0.525636 0
M  V30 3994 H 378.946 0.696453 -1.92382 0
M  V30 3995 H 378.956 2.98958 -2.77648 0
M  V30 3996 H 377.631 2.14663 -3.5622 0
M  V30 3997 H 376.208 3.1345 -2.01999 0
M  V30 3998 N 378.394 1.34581 0.820102 0
M  V30 3999 C 379.642 1.26845 1.57336 0
M  V30 4000 C 379.963 -0.160667 1.94337 0
M  V30 4001 O 379.233 -1.09396 1.6251 0
M  V30 4002 H 377.813 0.466514 0.583415 0
M  V30 4003 H 380.475 1.68526 0.979027 0
M  V30 4004 H 379.571 1.87513 2.4949 0
M  V30 4005 N 379.872 -1.04064 1.18357 0
M  V30 4006 C 380.802 -2.14001 0.934113 0
M  V30 4007 C 381.783 -1.69616 -0.128186 0
M  V30 4008 O 382.968 -1.94185 0.0244093 0
M  V30 4009 C 380.098 -3.44253 0.459066 0
M  V30 4010 C 379.052 -4.02261 1.46185 0
M  V30 4011 C 378.378 -5.27992 0.844322 0
M  V30 4012 C 379.678 -4.38432 2.83856 0
M  V30 4013 H 381.372 -2.35127 1.85352 0
M  V30 4014 H 378.918 -1.12998 0.892604 0
M  V30 4015 H 380.871 -4.20522 0.271907 0
M  V30 4016 H 379.595 -3.22813 -0.495912 0
M  V30 4017 H 378.254 -3.28074 1.63595 0
M  V30 4018 H 377.902 -5.02862 -0.117845 0
M  V30 4019 H 377.602 -5.67765 1.51384 0
M  V30 4020 H 379.126 -6.06938 0.667693 0
M  V30 4021 H 380.54 -5.05688 2.70098 0
M  V30 4022 H 378.937 -4.89254 3.47491 0
M  V30 4023 H 380.007 -3.4826 3.37406 0
M  V30 4024 N 381.35 -0.985608 -1.22978 0
M  V30 4025 C 382.596 -0.65836 -1.91816 0
M  V30 4026 C 382.929 0.806692 -1.76653 0
M  V30 4027 O 382.204 1.58252 -1.13078 0
M  V30 4028 C 382.487 -1.056 -3.44268 0
M  V30 4029 C 382.34 -2.57906 -3.68516 0
M  V30 4030 C 383.659 -0.603781 -4.35939 0
M  V30 4031 H 380.778 -0.24065 -0.696604 0
M  V30 4032 H 383.42 -1.22783 -1.44998 0
M  V30 4033 H 381.57 -0.571445 -3.84274 0
M  V30 4034 H 383.242 -3.13976 -3.3796 0
M  V30 4035 H 381.485 -3.00305 -3.13048 0
M  V30 4036 H 382.156 -2.80779 -4.75255 0
M  V30 4037 H 384.632 -1.01987 -4.03408 0
M  V30 4038 H 383.508 -0.910383 -5.41298 0
M  V30 4039 H 383.769 0.495761 -4.39312 0
M  V30 4040 N 382.828 1.3818 -0.7579 0
M  V30 4041 C 383.791 2.28764 -0.141286 0
M  V30 4042 C 384.791 1.47388 0.642907 0
M  V30 4043 O 385.981 1.67781 0.468536 0
M  V30 4044 C 383.113 3.31184 0.808069 0
M  V30 4045 H 384.306 2.848 -0.939633 0
M  V30 4046 H 381.859 1.47212 -0.525191 0
M  V30 4047 H 382.594 2.80247 1.63193 0
M  V30 4048 H 382.379 3.91314 0.248104 0
M  V30 4049 H 383.869 3.98909 1.23536 0
M  V30 4050 N 384.306 0.507319 1.49211 0
M  V30 4051 C 385.269 -0.256763 2.27757 0
M  V30 4052 C 386.269 -0.888287 1.34038 0
M  V30 4053 O 387.459 -0.751841 1.5714 0
M  V30 4054 C 384.591 -1.36905 3.12202 0
M  V30 4055 H 385.784 0.432557 2.96764 0
M  V30 4056 H 383.337 0.262488 1.5408 0
M  V30 4057 H 384.072 -2.09233 2.47775 0
M  V30 4058 H 383.857 -0.921599 3.81115 0
M  V30 4059 H 385.347 -1.9071 3.7151 0
M  V30 4060 N 385.784 -1.5574 0.241426 0
M  V30 4061 C 386.731 -2.21149 -0.660432 0
M  V30 4062 C 387.701 -1.17356 -1.17545 0
M  V30 4063 O 388.886 -1.45784 -1.23093 0
M  V30 4064 C 386.026 -2.91059 -1.85414 0
M  V30 4065 C 385.139 -4.09495 -1.37616 0
M  V30 4066 C 384.274 -4.67135 -2.529 0
M  V30 4067 C 383.313 -5.77831 -2.01936 0
M  V30 4068 N 382.45 -6.29677 -3.10566 0
M  V30 4069 H 387.29 -2.97845 -0.095955 0
M  V30 4070 H 384.827 -1.47057 -0.0356024 0
M  V30 4071 H 386.785 -3.29788 -2.5553 0
M  V30 4072 H 385.415 -2.16846 -2.39118 0
M  V30 4073 H 384.467 -3.76117 -0.569235 0
M  V30 4074 H 385.779 -4.89423 -0.962618 0
M  V30 4075 H 384.933 -5.08409 -3.31067 0
M  V30 4076 H 383.672 -3.86411 -2.97553 0
M  V30 4077 H 382.677 -5.36039 -1.22238 0
M  V30 4078 H 383.902 -6.60402 -1.58259 0
M  V30 4079 H 381.848 -5.5186 -3.54664 0
M  V30 4080 H 381.765 -7.04783 -2.73526 0
M  V30 4081 H 383.033 -6.75609 -3.88809 0
M  V30 4082 N 387.262 0.0317525 -1.57568 0
M  V30 4083 C 388.508 0.724175 -1.8943 0
M  V30 4084 C 388.841 1.75149 -0.838836 0
M  V30 4085 O 388.116 1.93948 0.146422 0
M  V30 4086 C 388.399 1.39615 -3.31933 0
M  V30 4087 C 388.252 0.382537 -4.4817 0
M  V30 4088 C 389.571 2.33084 -3.73309 0
M  V30 4089 H 386.69 0.261797 -0.688935 0
M  V30 4090 H 389.332 -0.013017 -1.89996 0
M  V30 4091 H 387.482 2.02451 -3.31581 0
M  V30 4092 H 389.154 -0.243689 -4.60656 0
M  V30 4093 H 387.397 -0.29844 -4.32772 0
M  V30 4094 H 388.068 0.891145 -5.44759 0
M  V30 4095 H 390.544 1.80295 -3.7501 0
M  V30 4096 H 389.42 2.77084 -4.73831 0
M  V30 4097 H 389.681 3.19643 -3.05419 0
M  V30 4098 N 388.74 1.54641 0.303973 0
M  V30 4099 C 389.989 1.7299 1.03717 0
M  V30 4100 C 390.302 0.521168 1.88529 0
M  V30 4101 O 391.508 0.586408 2.65092 0
M  V30 4102 C 389.964 3.06051 1.89369 0
M  V30 4103 C 389.572 4.34393 1.09574 0
M  V30 4104 C 391.316 3.3376 2.62306 0
M  V30 4105 C 389.223 5.58506 1.94486 0
M  V30 4106 H 388.153 0.64473 0.390947 0
M  V30 4107 H 390.804 1.81124 0.294328 0
M  V30 4108 H 389.186 2.91874 2.67629 0
M  V30 4109 H 390.36 4.59396 0.359485 0
M  V30 4110 H 388.675 4.13597 0.482324 0
M  V30 4111 H 391.272 4.23687 3.26181 0
M  V30 4112 H 391.615 2.52503 3.3098 0
M  V30 4113 H 392.148 3.48894 1.91097 0
M  V30 4114 H 388.887 6.42422 1.30287 0
M  V30 4115 H 388.407 5.37694 2.65792 0
M  V30 4116 H 390.086 5.95651 2.52605 0
M  V30 4117 N 390.218 -0.567019 1.47046 0
M  V30 4118 C 391.629 -1.14916 1.47143 0
M  V30 4119 C 391.98 -1.94954 0.220767 0
M  V30 4120 O 391.105 -2.05602 -0.67505 0
M  V30 4121 C 391.7 -2.09069 2.666 0
M  V30 4122 C 390.259 -2.62575 2.69687 0
M  V30 4123 C 389.406 -1.38755 2.40088 0
M  V30 4124 H 392.357 -0.354126 1.54699 0
M  V30 4125 H 392.378 -2.92789 2.43011 0
M  V30 4126 H 391.89 -1.50789 3.57609 0
M  V30 4127 H 389.991 -3.24681 1.82792 0
M  V30 4128 H 390.104 -3.04239 3.70102 0
M  V30 4129 H 388.468 -1.69098 1.90468 0
M  V30 4130 H 389.251 -0.822822 3.33293 0
M  V30 4131 N 391.696 -1.35014 -0.812953 0
M  V30 4132 C 392.921 -1.31187 -1.60639 0
M  V30 4133 C 393.346 0.109382 -1.87782 0
M  V30 4134 O 392.704 1.07424 -1.46047 0
M  V30 4135 C 392.752 -2.11809 -2.91838 0
M  V30 4136 O 391.856 -1.49444 -3.8437 0
M  V30 4137 H 391.197 -0.450084 -0.488181 0
M  V30 4138 H 393.727 -1.77963 -1.00947 0
M  V30 4139 H 393.737 -2.23531 -3.41318 0
M  V30 4140 H 392.412 -3.15137 -2.71407 0
M  V30 4141 H 390.989 -1.46524 -3.42907 0
M  V30 4142 N 393.175 1.03435 -1.18907 0
M  V30 4143 C 394.586 1.58195 -0.991523 0
M  V30 4144 C 394.937 1.90801 0.457081 0
M  V30 4145 O 394.062 1.70272 1.33553 0
M  V30 4146 C 394.657 2.87432 -1.79355 0
M  V30 4147 C 393.216 3.38785 -1.64017 0
M  V30 4148 C 392.363 2.12292 -1.78402 0
M  V30 4149 H 395.314 0.860299 -1.33359 0
M  V30 4150 H 395.335 3.58096 -1.28638 0
M  V30 4151 H 394.847 2.63669 -2.84781 0
M  V30 4152 H 392.948 3.67547 -0.611536 0
M  V30 4153 H 393.061 4.12186 -2.44212 0
M  V30 4154 H 391.425 2.23901 -1.2141 0
M  V30 4155 H 392.208 1.90977 -2.85277 0
M  V30 4156 N 394.653 0.992116 1.22453 0
M  V30 4157 C 395.9 0.667534 1.91181 0
M  V30 4158 C 396.228 -0.800317 1.77271 0
M  V30 4159 O 395.483 -1.59421 1.13505 0
M  V30 4160 C 395.782 1.01832 3.42586 0
M  V30 4161 C 395.448 2.47831 3.76684 0
M  V30 4162 C 394.11 2.87729 3.85701 0
M  V30 4163 C 396.462 3.42466 3.92895 0
M  V30 4164 C 393.79 4.21252 4.08367 0
M  V30 4165 C 396.142 4.75648 4.17064 0
M  V30 4166 C 394.806 5.15288 4.24305 0
M  V30 4167 H 394.076 0.244268 0.699581 0
M  V30 4168 H 396.723 1.24816 1.45235 0
M  V30 4169 H 395.028 0.355769 3.90181 0
M  V30 4170 H 396.725 0.745228 3.94014 0
M  V30 4171 H 393.315 2.15905 3.70247 0
M  V30 4172 H 397.499 3.12814 3.85307 0
M  V30 4173 H 392.755 4.51554 4.122 0
M  V30 4174 H 396.929 5.48924 4.2855 0
M  V30 4175 H 394.556 6.18769 4.41621 0
M  V30 4176 N 396.131 -1.37776 0.765217 0
M  V30 4177 C 397.078 -2.30342 0.145274 0
M  V30 4178 C 398.048 -1.5077 -0.696971 0
M  V30 4179 O 399.233 -1.79362 -0.650689 0
M  V30 4180 C 396.373 -3.37227 -0.732939 0
M  V30 4181 C 395.486 -4.31819 0.125199 0
M  V30 4182 C 394.621 -5.25777 -0.757107 0
M  V30 4183 C 393.66 -6.12012 0.103963 0
M  V30 4184 N 392.797 -6.98232 -0.735953 0
M  V30 4185 H 397.637 -2.8278 0.940195 0
M  V30 4186 H 395.174 -1.39211 0.475255 0
M  V30 4187 H 397.132 -3.97818 -1.25686 0
M  V30 4188 H 395.762 -2.86171 -1.49353 0
M  V30 4189 H 394.814 -3.7259 0.766865 0
M  V30 4190 H 396.126 -4.92509 0.789683 0
M  V30 4191 H 395.28 -5.91541 -1.34776 0
M  V30 4192 H 394.019 -4.65481 -1.45529 0
M  V30 4193 H 393.024 -5.45233 0.707197 0
M  V30 4194 H 394.249 -6.74379 0.799381 0
M  V30 4195 H 392.195 -6.40472 -1.41887 0
M  V30 4196 H 392.112 -7.55891 -0.128624 0
M  V30 4197 H 393.38 -7.68393 -1.31121 0
M  V30 4198 N 397.609 -0.515225 -1.4894 0
M  V30 4199 C 398.559 0.275113 -2.26334 0
M  V30 4200 C 399.543 0.923007 -1.31793 0
M  V30 4201 O 400.735 0.828254 -1.56426 0
M  V30 4202 C 397.864 1.33041 -3.16473 0
M  V30 4203 C 396.95 0.688051 -4.18481 0
M  V30 4204 N 397.341 -0.217638 -5.05332 0
M  V30 4205 C 395.639 0.94699 -4.3583 0
M  V30 4206 C 396.34 -0.58676 -5.78733 0
M  V30 4207 N 395.316 0.0486966 -5.43578 0
M  V30 4208 H 399.118 -0.421876 -2.90856 0
M  V30 4209 H 396.632 -0.332249 -1.58965 0
M  V30 4210 H 398.629 1.9102 -3.70563 0
M  V30 4211 H 397.289 2.02894 -2.53504 0
M  V30 4212 H 398.3 -0.589343 -5.14536 0
M  V30 4213 H 394.977 1.63719 -3.8406 0
M  V30 4214 H 396.367 -1.32855 -6.58634 0
M  V30 4215 N 399.087 1.5561 -0.249682 0
M  V30 4216 C 400.05 2.20217 0.635394 0
M  V30 4217 C 401.05 1.17227 1.10066 0
M  V30 4218 O 402.24 1.42292 1.00492 0
M  V30 4219 C 399.372 2.84794 1.87363 0
M  V30 4220 H 400.565 2.99814 0.0716752 0
M  V30 4221 H 398.118 1.563 -0.000153234 0
M  V30 4222 H 398.853 2.09142 2.47851 0
M  V30 4223 H 398.638 3.60241 1.5482 0
M  V30 4224 H 400.128 3.3423 2.5036 0
M  V30 4225 N 400.565 -0.0233959 1.57583 0
M  V30 4226 C 401.842 -0.748794 1.807 0
M  V30 4227 C 402.222 -1.9327 0.849106 0
M  V30 4228 O 401.57 -2.28247 -0.107468 0
M  V30 4229 C 401.78 -1.17651 3.28571 0
M  V30 4230 C 403.128 -1.59008 3.93702 0
M  V30 4231 O 404.152 -1.27094 3.32755 0
M  V30 4232 O 403.011 -2.18264 5.01022 0
M  V30 4233 H 400.105 -0.362578 0.743281 0
M  V30 4234 H 402.651 0.000261958 1.697 0
M  V30 4235 H 401.423 -0.331603 3.89892 0
M  V30 4236 H 401.046 -1.98541 3.44481 0
M  V30 4237 N 402.043 -1.548 -0.295768 0
M  V30 4238 C 403.292 -1.73538 -1.02798 0
M  V30 4239 C 403.605 -0.531159 -1.8825 0
M  V30 4240 O 404.811 -0.600458 -2.64777 0
M  V30 4241 C 403.267 -3.07051 -1.87744 0
M  V30 4242 C 402.875 -4.34968 -1.07269 0
M  V30 4243 C 404.619 -3.35146 -2.60533 0
M  V30 4244 C 402.526 -5.5953 -1.91521 0
M  V30 4245 H 401.456 -0.646794 -0.387522 0
M  V30 4246 H 404.107 -1.81278 -0.284718 0
M  V30 4247 H 402.489 -2.93289 -2.66078 0
M  V30 4248 H 403.663 -4.5958 -0.335117 0
M  V30 4249 H 401.978 -4.13847 -0.460384 0
M  V30 4250 H 404.575 -4.2541 -3.23929 0
M  V30 4251 H 404.918 -2.54255 -3.29636 0
M  V30 4252 H 405.451 -3.49902 -1.89244 0
M  V30 4253 H 402.19 -6.43103 -1.26878 0
M  V30 4254 H 401.71 -5.39096 -2.62937 0
M  V30 4255 H 403.389 -5.96982 -2.49442 0
M  V30 4256 N 403.521 0.559213 -1.47345 0
M  V30 4257 C 404.767 1.31843 -1.54095 0
M  V30 4258 C 405.1 1.93149 -0.201726 0
M  V30 4259 O 404.375 1.77759 0.789428 0
M  V30 4260 C 404.658 2.43006 -2.65744 0
M  V30 4261 C 404.511 1.86581 -4.09277 0
M  V30 4262 C 405.83 3.44943 -2.73318 0
M  V30 4263 H 402.949 0.478012 -0.560957 0
M  V30 4264 H 405.591 0.625977 -1.79392 0
M  V30 4265 H 403.741 3.02072 -2.44305 0
M  V30 4266 H 405.413 1.31792 -4.42073 0
M  V30 4267 H 403.656 1.17268 -4.17649 0
M  V30 4268 H 404.327 2.66933 -4.83168 0
M  V30 4269 H 406.803 2.95793 -2.92653 0
M  V30 4270 H 405.679 4.20153 -3.53218 0
M  V30 4271 H 405.94 4.03665 -1.80296 0
M  V30 4272 N 404.999 1.35443 0.805782 0
M  V30 4273 C 406.227 1.31878 1.59423 0
M  V30 4274 C 406.642 -0.103562 1.88516 0
M  V30 4275 O 405.999 -1.05575 1.48863 0
M  V30 4276 C 406.05 2.12426 2.92502 0
M  V30 4277 O 405.771 3.49115 2.6467 0
M  V30 4278 C 407.272 2.16455 3.86862 0
M  V30 4279 H 404.492 0.453002 0.495005 0
M  V30 4280 H 407.036 1.78309 1.00131 0
M  V30 4281 H 405.191 1.69593 3.48306 0
M  V30 4282 H 405.605 3.90957 3.49647 0
M  V30 4283 H 407.079 2.77204 4.77349 0
M  V30 4284 H 407.556 1.16352 4.23508 0
M  V30 4285 H 408.162 2.59453 3.36993 0
M  V30 4286 N 406.477 -1.02803 1.19454 0
M  V30 4287 C 407.705 -1.79841 1.02297 0
M  V30 4288 C 408.12 -1.83879 -0.428259 0
M  V30 4289 O 407.477 -1.28345 -1.29745 0
M  V30 4290 C 407.528 -3.24852 1.58598 0
M  V30 4291 O 407.249 -3.21097 2.98041 0
M  V30 4292 C 408.75 -4.18485 1.46236 0
M  V30 4293 H 405.97 -0.565936 0.360496 0
M  V30 4294 H 408.514 -1.2948 1.58288 0
M  V30 4295 H 406.669 -3.72401 1.06753 0
M  V30 4296 H 407.083 -4.12033 3.24545 0
M  V30 4297 H 408.557 -5.18121 1.90407 0
M  V30 4298 H 409.034 -4.37254 0.41301 0
M  V30 4299 H 409.64 -3.76811 1.97215 0
M  V30 4300 N 407.956 -0.998596 -1.21925 0
M  V30 4301 C 409.184 -0.696286 -1.94832 0
M  V30 4302 C 409.599 0.740032 -1.73692 0
M  V30 4303 O 408.956 1.5 -1.03953 0
M  V30 4304 C 409.007 -0.999833 -3.47398 0
M  V30 4305 O 408.728 -2.37972 -3.67833 0
M  V30 4306 C 410.229 -0.716025 -4.37479 0
M  V30 4307 H 407.449 -0.257111 -0.619786 0
M  V30 4308 H 409.993 -1.33491 -1.54921 0
M  V30 4309 H 408.148 -0.406918 -3.85257 0
M  V30 4310 H 408.562 -2.48338 -4.61983 0
M  V30 4311 H 410.036 -0.978642 -5.43256 0
M  V30 4312 H 410.513 0.349968 -4.37803 0
M  V30 4313 H 411.119 -1.29025 -4.05256 0
M  V30 4314 N 409.434 1.37368 -0.772513 0
M  V30 4315 C 410.662 2.03942 -0.348588 0
M  V30 4316 C 411.077 1.58264 1.02947 0
M  V30 4317 O 410.434 0.764246 1.65727 0
M  V30 4318 C 410.485 3.5946 -0.38351 0
M  V30 4319 O 410.206 4.03468 -1.70721 0
M  V30 4320 C 411.707 4.4327 0.0519152 0
M  V30 4321 H 408.927 0.654931 -0.145966 0
M  V30 4322 H 411.471 1.75686 -1.04665 0
M  V30 4323 H 409.626 3.86486 0.265978 0
M  V30 4324 H 410.04 4.97991 -1.64636 0
M  V30 4325 H 411.514 5.51995 -0.0236733 0
M  V30 4326 H 411.991 4.2514 1.10238 0
M  V30 4327 H 412.597 4.21471 -0.569415 0
M  V30 4328 N 410.912 0.523116 1.48665 0
M  V30 4329 C 411.862 -0.263106 2.26477 0
M  V30 4330 C 412.846 -0.916005 1.32281 0
M  V30 4331 O 414.038 -0.819946 1.56863 0
M  V30 4332 C 411.167 -1.31361 3.17174 0
M  V30 4333 C 410.253 -0.665849 4.1884 0
M  V30 4334 N 410.644 0.244434 5.05209 0
M  V30 4335 C 408.942 -0.923863 4.36326 0
M  V30 4336 C 409.643 0.617443 5.78414 0
M  V30 4337 N 408.619 -0.0198686 5.43596 0
M  V30 4338 H 412.421 0.437295 2.90629 0
M  V30 4339 H 409.935 0.340675 1.58787 0
M  V30 4340 H 411.932 -1.89052 3.71571 0
M  V30 4341 H 410.592 -2.01546 2.54576 0
M  V30 4342 H 411.603 0.616621 5.14216 0
M  V30 4343 H 408.28 -1.6168 3.84923 0
M  V30 4344 H 409.67 1.36346 6.57921 0
M  V30 4345 N 412.39 -1.55475 0.257931 0
M  V30 4346 C 413.337 -2.21837 -0.636939 0
M  V30 4347 C 414.307 -1.18596 -1.16294 0
M  V30 4348 O 415.492 -1.47081 -1.21539 0
M  V30 4349 C 412.632 -2.9301 -1.82317 0
M  V30 4350 C 411.745 -4.10931 -1.33265 0
M  V30 4351 C 410.88 -4.69791 -2.47931 0
M  V30 4352 C 409.919 -5.7994 -1.95796 0
M  V30 4353 N 409.056 -6.32935 -3.0387 0
M  V30 4354 H 413.896 -2.9793 -0.0643591 0
M  V30 4355 H 411.433 -1.47086 -0.0200031 0
M  V30 4356 H 413.391 -3.3248 -2.52018 0
M  V30 4357 H 412.021 -2.1937 -2.36805 0
M  V30 4358 H 411.073 -3.76699 -0.52931 0
M  V30 4359 H 412.385 -4.90417 -0.910654 0
M  V30 4360 H 411.539 -5.11892 -3.25656 0
M  V30 4361 H 410.278 -3.89545 -2.93438 0
M  V30 4362 H 409.283 -5.37305 -1.16546 0
M  V30 4363 H 410.508 -6.62043 -1.51246 0
M  V30 4364 H 408.454 -5.55591 -3.48791 0
M  V30 4365 H 408.371 -7.07645 -2.66035 0
M  V30 4366 H 409.639 -6.79695 -3.81621 0
M  V30 4367 N 413.868 0.0150385 -1.57593 0
M  V30 4368 C 415.096 0.714395 -1.94175 0
M  V30 4369 C 415.511 1.68135 -0.858841 0
M  V30 4370 O 414.868 1.81766 0.163567 0
M  V30 4371 C 414.919 1.45933 -3.30735 0
M  V30 4372 O 414.64 0.531167 -4.34868 0
M  V30 4373 C 416.141 2.25456 -3.81686 0
M  V30 4374 H 413.361 0.199923 -0.640525 0
M  V30 4375 H 415.905 -0.0316096 -2.04476 0
M  V30 4376 H 414.06 2.15709 -3.21789 0
M  V30 4377 H 414.474 1.05509 -5.13778 0
M  V30 4378 H 415.948 2.731 -4.79709 0
M  V30 4379 H 416.425 3.07485 -3.13607 0
M  V30 4380 H 417.031 1.60727 -3.9376 0
M  V30 4381 N 415.346 1.54954 0.287554 0
M  V30 4382 C 416.276 1.89839 1.35954 0
M  V30 4383 C 417.257 0.758675 1.52244 0
M  V30 4384 O 418.442 1.01557 1.65529 0
M  V30 4385 C 415.572 2.15753 2.72154 0
M  V30 4386 C 414.526 3.3159 2.70614 0
M  V30 4387 C 413.852 3.42952 4.10229 0
M  V30 4388 C 415.152 4.68359 2.31165 0
M  V30 4389 H 416.846 2.79625 1.07007 0
M  V30 4390 H 414.392 1.3454 0.513316 0
M  V30 4391 H 416.345 2.38743 3.47246 0
M  V30 4392 H 415.069 1.22752 3.02654 0
M  V30 4393 H 413.728 3.08545 1.97979 0
M  V30 4394 H 413.376 2.47443 4.37928 0
M  V30 4395 H 413.076 4.20826 4.10097 0
M  V30 4396 H 414.6 3.68218 4.87081 0
M  V30 4397 H 416.014 4.9099 2.95976 0
M  V30 4398 H 414.411 5.49044 2.42221 0
M  V30 4399 H 415.481 4.68165 1.26291 0
M  V30 4400 N 416.824 -0.551391 1.4764 0
M  V30 4401 C 418.24 -0.877887 1.33287 0
M  V30 4402 C 418.44 -1.98817 0.327721 0
M  V30 4403 O 417.496 -2.51171 -0.258695 0
M  V30 4404 C 418.809 -1.26563 2.72768 0
M  V30 4405 C 420.357 -1.37673 2.81097 0
M  V30 4406 C 420.832 -1.79799 4.21232 0
M  V30 4407 N 422.323 -1.8694 4.23802 0
M  V30 4408 C 423.058 -2.20876 5.29151 0
M  V30 4409 N 422.554 -2.53386 6.448 0
M  V30 4410 N 424.347 -2.217 5.16532 0
M  V30 4411 H 416.498 0.18153 2.11623 0
M  V30 4412 H 418.761 0.0185514 0.947818 0
M  V30 4413 H 418.467 -0.523591 3.47781 0
M  V30 4414 H 418.341 -2.22052 3.04915 0
M  V30 4415 H 420.728 -2.10956 2.06353 0
M  V30 4416 H 420.809 -0.40357 2.52596 0
M  V30 4417 H 420.453 -1.07083 4.96483 0
M  V30 4418 H 420.383 -2.78128 4.4716 0
M  V30 4419 H 422.874 -1.64179 3.40373 0
M  V30 4420 H 423.187 -2.78325 7.20941 0
M  V30 4421 H 421.532 -2.50953 6.48111 0
M  V30 4422 H 424.723 -1.95745 4.25207 0
M  V30 4423 H 424.896 -2.47818 5.98741 0
M  V30 4424 N 418.302 -1.35869 -0.798587 0
M  V30 4425 C 419.55 -1.29332 -1.55298 0
M  V30 4426 C 419.871 0.129729 -1.94568 0
M  V30 4427 O 419.141 1.06796 -1.6423 0
M  V30 4428 H 417.721 -0.475737 -0.57592 0
M  V30 4429 H 420.383 -1.70062 -0.952093 0
M  V30 4430 H 419.479 -1.91458 -2.46476 0
M  V30 4431 N 419.78 1.02168 -1.19998 0
M  V30 4432 C 420.743 2.08765 -0.94604 0
M  V30 4433 C 421.743 1.60618 0.0763846 0
M  V30 4434 O 422.933 1.73472 -0.159135 0
M  V30 4435 C 420.065 3.38262 -0.423255 0
M  V30 4436 H 421.258 2.32726 -1.89153 0
M  V30 4437 H 418.811 1.1889 -1.01464 0
M  V30 4438 H 419.546 3.19974 0.527938 0
M  V30 4439 H 419.331 3.74532 -1.16053 0
M  V30 4440 H 420.821 4.16759 -0.264911 0
M  V30 4441 N 421.258 1.00505 1.21394 0
M  V30 4442 C 422.674 0.717873 1.42544 0
M  V30 4443 C 422.874 -0.706936 1.88692 0
M  V30 4444 O 421.93 -1.47627 2.04847 0
M  V30 4445 C 423.243 1.73377 2.45684 0
M  V30 4446 C 424.791 1.75059 2.59467 0
M  V30 4447 C 425.266 2.75545 3.6584 0
M  V30 4448 N 426.757 2.74213 3.73311 0
M  V30 4449 C 427.492 3.48626 4.55245 0
M  V30 4450 N 426.988 4.32678 5.41075 0
M  V30 4451 N 428.781 3.37276 4.49668 0
M  V30 4452 H 420.932 1.92506 0.897503 0
M  V30 4453 H 423.195 0.830919 0.456375 0
M  V30 4454 H 422.901 2.75395 2.18748 0
M  V30 4455 H 422.775 1.53647 3.44489 0
M  V30 4456 H 425.162 0.737337 2.8574 0
M  V30 4457 H 425.243 1.98861 1.60897 0
M  V30 4458 H 424.887 3.77028 3.40313 0
M  V30 4459 H 424.817 2.49009 4.64007 0
M  V30 4460 H 427.308 2.13234 3.11993 0
M  V30 4461 H 427.621 4.86253 6.00648 0
M  V30 4462 H 425.966 4.3676 5.40616 0
M  V30 4463 H 429.157 2.71043 3.81646 0
M  V30 4464 H 429.33 3.95524 5.13288 0
M  V30 4465 N 422.737 -1.36956 0.779787 0
M  V30 4466 C 423.962 -2.04283 0.358224 0
M  V30 4467 C 424.387 -1.58422 -1.01411 0
M  V30 4468 O 423.745 -0.748179 -1.65142 0
M  V30 4469 C 423.793 -3.58152 0.419479 0
M  V30 4470 O 422.897 -4.08342 -0.577142 0
M  V30 4471 H 422.238 -0.645967 0.153698 0
M  V30 4472 H 424.768 -1.75108 1.05822 0
M  V30 4473 H 424.778 -4.07041 0.279636 0
M  V30 4474 H 423.453 -3.90886 1.42061 0
M  V30 4475 H 422.03 -3.70751 -0.399755 0
M  V30 4476 N 424.215 -0.530993 -1.48385 0
M  V30 4477 C 425.463 0.00273189 -2.021 0
M  V30 4478 C 425.784 1.34672 -1.41027 0
M  V30 4479 O 425.054 1.8724 -0.576012 0
M  V30 4480 H 423.634 0.00399774 -0.746989 0
M  V30 4481 H 426.296 -0.695054 -1.82085 0
M  V30 4482 H 425.392 0.11031 -3.11905 0
M  V30 4483 N 425.693 1.55336 -0.266172 0
M  V30 4484 C 426.623 2.25146 0.618981 0
M  V30 4485 C 427.604 1.23845 1.16604 0
M  V30 4486 O 428.789 1.52544 1.20183 0
M  V30 4487 C 425.919 2.96572 1.80728 0
M  V30 4488 C 424.873 4.04726 1.39215 0
M  V30 4489 C 424.199 4.63678 2.66283 0
M  V30 4490 C 425.499 5.19407 0.548942 0
M  V30 4491 H 427.193 2.99377 0.0368116 0
M  V30 4492 H 424.739 1.43991 0.0162651 0
M  V30 4493 H 426.692 3.44116 2.43232 0
M  V30 4494 H 425.416 2.19861 2.41514 0
M  V30 4495 H 424.075 3.57979 0.790351 0
M  V30 4496 H 423.723 3.83646 3.25308 0
M  V30 4497 H 423.423 5.367 2.39222 0
M  V30 4498 H 424.947 5.13967 3.29651 0
M  V30 4499 H 426.361 5.63059 1.07876 0
M  V30 4500 H 424.758 5.98936 0.373593 0
M  V30 4501 H 425.828 4.8295 -0.434394 0
M  V30 4502 N 427.171 -0.0066808 1.57599 0
M  V30 4503 C 428.42 -0.692078 1.89455 0
M  V30 4504 C 428.733 -1.75306 0.867586 0
M  V30 4505 O 429.939 -2.49262 1.07614 0
M  V30 4506 C 428.395 -1.2821 3.36289 0
M  V30 4507 C 428.003 -0.256291 4.47266 0
M  V30 4508 C 429.747 -1.94608 3.77264 0
M  V30 4509 C 427.654 -0.855927 5.85173 0
M  V30 4510 H 426.584 -0.262252 0.706923 0
M  V30 4511 H 429.235 0.052769 1.83424 0
M  V30 4512 H 427.617 -2.0774 3.37135 0
M  V30 4513 H 428.791 0.513923 4.57925 0
M  V30 4514 H 427.106 0.306862 4.15268 0
M  V30 4515 H 429.703 -2.40364 4.77629 0
M  V30 4516 H 430.046 -2.77382 3.10427 0
M  V30 4517 H 430.579 -1.21822 3.78688 0
M  V30 4518 H 427.318 -0.0671161 6.55466 0
M  V30 4519 H 426.838 -1.59546 5.78191 0
M  V30 4520 H 428.517 -1.35658 6.32618 0
M  V30 4521 N 428.649 -1.55105 -0.279332 0
M  V30 4522 C 429.896 -1.75412 -1.01177 0
M  V30 4523 C 430.224 -0.551728 -1.86511 0
M  V30 4524 O 429.479 0.465919 -1.90073 0
M  V30 4525 C 429.778 -3.0086 -1.92919 0
M  V30 4526 C 429.444 -4.33689 -1.23387 0
M  V30 4527 C 428.106 -4.69792 -1.04159 0
M  V30 4528 C 430.458 -5.15941 -0.738562 0
M  V30 4529 C 427.786 -5.85707 -0.341166 0
M  V30 4530 C 430.138 -6.32579 -0.0517636 0
M  V30 4531 C 428.802 -6.67326 0.152292 0
M  V30 4532 H 428.072 -0.641879 -0.370233 0
M  V30 4533 H 430.719 -1.89373 -0.284627 0
M  V30 4534 H 429.024 -2.81773 -2.72234 0
M  V30 4535 H 430.721 -3.13768 -2.49701 0
M  V30 4536 H 427.311 -4.05309 -1.39364 0
M  V30 4537 H 431.495 -4.8853 -0.874764 0
M  V30 4538 H 426.751 -6.11157 -0.172287 0
M  V30 4539 H 430.925 -6.9557 0.339828 0
M  V30 4540 H 428.552 -7.56998 0.697014 0
M  V30 4541 N 430.127 0.543554 -1.4793 0
M  V30 4542 C 431.357 1.32324 -1.58663 0
M  V30 4543 C 431.765 1.8766 -0.240896 0
M  V30 4544 O 431.108 1.66411 0.778011 0
M  V30 4545 C 431.17 2.52094 -2.56299 0
M  V30 4546 C 430.834 2.17944 -4.01683 0
M  V30 4547 C 431.831 1.74422 -4.89768 0
M  V30 4548 C 429.516 2.28884 -4.47121 0
M  V30 4549 C 431.51 1.42287 -6.21316 0
M  V30 4550 C 429.197 1.96361 -5.78693 0
M  V30 4551 C 430.195 1.53132 -6.65612 0
M  V30 4552 O 429.883 1.21029 -7.94737 0
M  V30 4553 H 429.615 0.409174 -0.538101 0
M  V30 4554 H 432.169 0.663887 -1.94375 0
M  V30 4555 H 430.399 3.20965 -2.15681 0
M  V30 4556 H 432.088 3.14165 -2.57012 0
M  V30 4557 H 432.854 1.65452 -4.55907 0
M  V30 4558 H 428.733 2.61488 -3.79664 0
M  V30 4559 H 432.277 1.08472 -6.89115 0
M  V30 4560 H 428.174 2.04967 -6.12094 0
M  V30 4561 H 428.942 1.34543 -8.07366 0
M  V30 4562 N 431.605 1.3629 0.791371 0
M  V30 4563 C 433.021 1.16661 1.08914 0
M  V30 4564 C 433.221 -0.0106266 2.01497 0
M  V30 4565 O 432.277 -0.676596 2.43266 0
M  V30 4566 C 433.59 2.47656 1.70549 0
M  V30 4567 C 435.138 2.54002 1.82899 0
M  V30 4568 C 435.613 3.85078 2.47949 0
M  V30 4569 N 437.104 3.86413 2.5542 0
M  V30 4570 C 437.839 4.84572 3.06557 0
M  V30 4571 N 437.335 5.93124 3.58016 0
M  V30 4572 N 439.128 4.71994 3.05251 0
M  V30 4573 H 431.279 2.11668 0.176238 0
M  V30 4574 H 433.542 0.937486 0.140796 0
M  V30 4575 H 433.248 3.34059 1.09989 0
M  V30 4576 H 433.122 2.63319 2.70079 0
M  V30 4577 H 435.509 1.68018 2.42598 0
M  V30 4578 H 435.59 2.42239 0.821808 0
M  V30 4579 H 435.234 4.71467 1.88895 0
M  V30 4580 H 435.164 3.94135 3.49235 0
M  V30 4581 H 437.655 3.07988 2.18979 0
M  V30 4582 H 437.968 6.63999 3.95381 0
M  V30 4583 H 436.313 5.96796 3.56173 0
M  V30 4584 H 439.504 3.86321 2.64336 0
M  V30 4585 H 439.677 5.48653 3.44796 0
M  V30 4586 N 433.083 -1.0153 1.20538 0
M  V30 4587 C 434.03 -2.10098 0.955383 0
M  V30 4588 C 435 -1.65702 -0.114878 0
M  V30 4589 O 436.185 -1.90776 0.0301118 0
M  V30 4590 C 433.325 -3.41236 0.514969 0
M  V30 4591 C 432.438 -3.99102 1.65353 0
M  V30 4592 C 431.573 -5.18306 1.16329 0
M  V30 4593 C 430.612 -5.68258 2.27485 0
M  V30 4594 N 429.749 -6.78722 1.7967 0
M  V30 4595 H 434.589 -2.30818 1.88486 0
M  V30 4596 H 432.126 -1.13189 0.939499 0
M  V30 4597 H 434.084 -4.16504 0.240935 0
M  V30 4598 H 432.714 -3.20585 -0.377512 0
M  V30 4599 H 431.766 -3.20918 2.04245 0
M  V30 4600 H 433.078 -4.32177 2.49047 0
M  V30 4601 H 432.232 -6.00782 0.845302 0
M  V30 4602 H 430.971 -4.86799 0.296254 0
M  V30 4603 H 429.976 -4.84385 2.60099 0
M  V30 4604 H 431.201 -6.01798 3.14667 0
M  V30 4605 H 429.147 -6.49042 0.95295 0
M  V30 4606 H 429.064 -7.10996 2.56944 0
M  V30 4607 H 430.332 -7.64759 1.50875 0
M  V30 4608 N 434.561 -1.01147 -1.20859 0
M  V30 4609 C 435.809 -0.696486 -1.89719 0
M  V30 4610 C 436.13 0.775788 -1.78904 0
M  V30 4611 O 435.4 1.55759 -1.18811 0
M  V30 4612 H 433.98 -0.254628 -0.702263 0
M  V30 4613 H 436.642 -1.28197 -1.46804 0
M  V30 4614 H 435.738 -0.975357 -2.96468 0
M  V30 4615 N 436.039 1.36541 -0.78704 0
M  V30 4616 C 437.285 1.99599 -0.358872 0
M  V30 4617 C 437.618 1.62323 1.06606 0
M  V30 4618 O 436.893 0.876858 1.73613 0
M  V30 4619 C 437.176 3.56327 -0.519944 0
M  V30 4620 C 437.029 4.03464 -1.98839 0
M  V30 4621 C 438.348 4.4005 0.0664737 0
M  V30 4622 H 435.467 0.725107 -0.131869 0
M  V30 4623 H 438.109 1.6199 -0.992936 0
M  V30 4624 H 436.259 3.88495 0.0198321 0
M  V30 4625 H 437.931 3.81793 -2.58905 0
M  V30 4626 H 436.174 3.55092 -2.49183 0
M  V30 4627 H 436.845 5.12439 -2.05207 0
M  V30 4628 H 439.321 4.14228 -0.394267 0
M  V30 4629 H 438.197 5.48847 -0.0762682 0
M  V30 4630 H 438.458 4.26655 1.15835 0
M  V30 4631 N 437.518 0.538854 1.48102 0
M  V30 4632 C 438.465 -0.219042 2.29758 0
M  V30 4633 C 439.435 -0.925562 1.37922 0
M  V30 4634 O 440.62 -0.924855 1.66886 0
M  V30 4635 C 437.76 -1.25452 3.2149 0
M  V30 4636 C 436.873 -0.555943 4.28408 0
M  V30 4637 C 436.008 -1.57512 5.0731 0
M  V30 4638 C 435.047 -0.860498 6.06021 0
M  V30 4639 N 434.184 -1.82564 6.77949 0
M  V30 4640 H 439.024 0.483449 2.94052 0
M  V30 4641 H 436.561 0.250247 1.44956 0
M  V30 4642 H 438.519 -1.86727 3.7308 0
M  V30 4643 H 437.149 -1.92528 2.591 0
M  V30 4644 H 436.201 0.170938 3.80016 0
M  V30 4645 H 437.513 0.00474616 4.988 0
M  V30 4646 H 436.667 -2.26191 5.62959 0
M  V30 4647 H 435.406 -2.16972 4.36778 0
M  V30 4648 H 434.411 -0.159686 5.49568 0
M  V30 4649 H 435.636 -0.271897 6.78555 0
M  V30 4650 H 433.582 -2.40915 6.10161 0
M  V30 4651 H 433.499 -1.31662 7.44447 0
M  V30 4652 H 434.767 -2.50414 7.38182 0
M  V30 4653 N 438.996 -1.55193 0.274407 0
M  V30 4654 C 439.959 -2.212 -0.600279 0
M  V30 4655 C 440.959 -1.18963 -1.08187 0
M  V30 4656 O 442.149 -1.43873 -0.982158 0
M  V30 4657 C 439.281 -2.87739 -1.82809 0
M  V30 4658 H 440.474 -2.9989 -0.0239682 0
M  V30 4659 H 438.027 -1.5628 0.0250192 0
M  V30 4660 H 438.762 -2.13058 -2.44493 0
M  V30 4661 H 438.547 -3.62658 -1.49069 0
M  V30 4662 H 440.037 -3.38171 -2.45011 0
M  V30 4663 N 440.474 -0.00167713 -1.576 0
M  V30 4664 C 441.72 0.683832 -1.90923 0
M  V30 4665 C 442.053 1.7333 -0.875799 0
M  V30 4666 O 441.328 1.94215 0.10525 0
M  V30 4667 C 441.611 1.32543 -3.3482 0
M  V30 4668 C 441.464 0.287387 -4.48881 0
M  V30 4669 C 442.783 2.25114 -3.78169 0
M  V30 4670 H 439.902 0.247125 -0.694333 0
M  V30 4671 H 442.544 -0.0533149 -1.89925 0
M  V30 4672 H 440.694 1.95372 -3.35801 0
M  V30 4673 H 442.366 -0.341346 -4.60035 0
M  V30 4674 H 440.609 -0.39017 -4.32042 0
M  V30 4675 H 441.28 0.775393 -5.46527 0
M  V30 4676 H 443.756 1.723 -3.7875 0
M  V30 4677 H 442.632 2.66971 -4.79602 0
M  V30 4678 H 442.893 3.13092 -3.12131 0
M  V30 4679 N 441.952 1.55251 0.271103 0
M  V30 4680 C 443.229 1.66664 1.02384 0
M  V30 4681 C 443.609 0.534363 2.04225 0
M  V30 4682 O 442.957 -0.465337 2.23712 0
M  V30 4683 C 443.167 3.05961 1.67895 0
M  V30 4684 C 444.515 3.63772 2.18986 0
M  V30 4685 O 445.539 3.08606 1.77878 0
M  V30 4686 O 444.398 4.60429 2.94393 0
M  V30 4687 H 441.492 0.676957 0.475035 0
M  V30 4688 H 444.038 1.67589 0.26681 0
M  V30 4689 H 442.81 3.79815 0.941071 0
M  V30 4690 H 442.433 3.08943 2.5028 0
M  V30 4691 N 443.43 -0.535701 1.48216 0
M  V30 4692 C 444.841 -1.11769 1.49548 0
M  V30 4693 C 445.192 -1.94442 0.26207 0
M  V30 4694 O 444.317 -2.06987 -0.631287 0
M  V30 4695 C 444.912 -2.03367 2.70975 0
M  V30 4696 C 443.471 -2.56795 2.75196 0
M  V30 4697 C 442.618 -1.33631 2.42977 0
M  V30 4698 H 445.569 -0.321232 1.55415 0
M  V30 4699 H 445.59 -2.87569 2.49167 0
M  V30 4700 H 445.102 -1.43169 3.60727 0
M  V30 4701 H 443.203 -3.20731 1.89638 0
M  V30 4702 H 443.316 -2.9632 3.76472 0
M  V30 4703 H 441.68 -1.6502 1.94012 0
M  V30 4704 H 442.463 -0.75194 3.34964 0
M  V30 4705 N 444.908 -1.36708 -0.784132 0
M  V30 4706 C 445.855 -1.31466 -1.89698 0
M  V30 4707 C 446.825 -0.18239 -1.65096 0
M  V30 4708 O 448.01 -0.369762 -1.87183 0
M  V30 4709 C 445.15 -1.1151 -3.26588 0
M  V30 4710 C 444.263 -2.33859 -3.63227 0
M  V30 4711 C 443.398 -2.06873 -4.89262 0
M  V30 4712 C 442.437 -3.25154 -5.18595 0
M  V30 4713 N 441.574 -2.978 -6.35814 0
M  V30 4714 H 446.414 -2.26619 -1.93515 0
M  V30 4715 H 443.951 -1.12625 -0.946256 0
M  V30 4716 H 445.909 -0.979653 -4.05535 0
M  V30 4717 H 444.539 -0.200103 -3.22179 0
M  V30 4718 H 443.591 -2.58188 -2.79362 0
M  V30 4719 H 444.903 -3.22109 -3.8085 0
M  V30 4720 H 444.057 -1.90289 -5.76086 0
M  V30 4721 H 442.796 -1.15942 -4.73718 0
M  V30 4722 H 441.801 -3.42292 -4.30251 0
M  V30 4723 H 443.026 -4.1692 -5.36055 0
M  V30 4724 H 440.972 -2.09485 -6.21653 0
M  V30 4725 H 440.889 -3.7959 -6.53794 0
M  V30 4726 H 442.157 -2.84805 -7.25607 0
M  V30 4727 N 446.386 1.0089 -1.21074 0
M  V30 4728 C 447.614 1.78191 -1.05145 0
M  V30 4729 C 448.029 1.84537 0.398952 0
M  V30 4730 O 447.386 1.30393 1.27687 0
M  V30 4731 C 447.437 3.22288 -1.63746 0
M  V30 4732 O 447.158 3.16315 -3.03111 0
M  V30 4733 C 448.659 4.16106 -1.52875 0
M  V30 4734 H 445.879 0.560129 -0.369454 0
M  V30 4735 H 448.423 1.26945 -1.60328 0
M  V30 4736 H 446.578 3.70655 -1.12664 0
M  V30 4737 H 446.992 4.06817 -3.31059 0
M  V30 4738 H 448.466 5.15026 -1.98626 0
M  V30 4739 H 448.943 4.36541 -0.482521 0
M  V30 4740 H 449.549 3.73625 -2.03185 0
M  V30 4741 N 447.864 1.01787 1.20321 0
M  V30 4742 C 449.112 0.706538 1.89347 0
M  V30 4743 C 449.433 -0.766289 1.79313 0
M  V30 4744 O 448.703 -1.55126 1.19635 0
M  V30 4745 H 447.283 0.258348 0.700903 0
M  V30 4746 H 449.945 1.28974 1.46122 0
M  V30 4747 H 449.041 0.991066 2.95946 0
M  V30 4748 N 449.342 -1.36122 0.79427 0
M  V30 4749 C 450.758 -1.5232 0.476525 0
M  V30 4750 C 450.958 -1.74685 -1.00436 0
M  V30 4751 O 450.014 -1.78115 -1.78973 0
M  V30 4752 C 451.327 -2.70607 1.31119 0
M  V30 4753 C 452.875 -2.8448 1.30537 0
M  V30 4754 C 453.35 -4.05778 2.12387 0
M  V30 4755 N 454.841 -4.12933 2.09859 0
M  V30 4756 C 455.576 -5.05876 2.69957 0
M  V30 4757 N 455.072 -6.04232 3.38934 0
M  V30 4758 N 456.865 -4.98528 2.59665 0
M  V30 4759 H 449.016 -1.1986 1.75349 0
M  V30 4760 H 451.279 -0.585418 0.745647 0
M  V30 4761 H 450.985 -2.60619 2.36158 0
M  V30 4762 H 450.859 -3.64888 0.955843 0
M  V30 4763 H 453.246 -2.93927 0.262876 0
M  V30 4764 H 453.327 -1.91093 1.70051 0
M  V30 4765 H 452.971 -3.97092 3.1667 0
M  V30 4766 H 452.901 -4.98323 1.70242 0
M  V30 4767 H 455.392 -3.42515 1.59662 0
M  V30 4768 H 455.705 -6.71724 3.82109 0
M  V30 4769 H 454.05 -6.04443 3.43036 0
M  V30 4770 H 457.241 -4.20641 2.05375 0
M  V30 4771 H 457.414 -5.70773 3.06793 0
M  V30 4772 N 450.82 -0.546701 -1.47814 0
M  V30 4773 C 451.73 0.21026 -2.33656 0
M  V30 4774 C 452.746 0.922413 -1.47538 0
M  V30 4775 O 453.922 0.893652 -1.80488 0
M  V30 4776 C 450.987 1.23348 -3.24016 0
M  V30 4777 C 450.048 0.529883 -4.26017 0
M  V30 4778 C 449.281 1.50435 -5.12059 0
M  V30 4779 O 449.504 2.73837 -5.00369 0
M  V30 4780 O 448.438 1.03459 -5.92942 0
M  V30 4781 H 452.264 -0.493605 -2.99662 0
M  V30 4782 H 449.849 -0.307427 -1.46203 0
M  V30 4783 H 451.731 1.82438 -3.79861 0
M  V30 4784 H 450.406 1.91945 -2.60651 0
M  V30 4785 H 449.313 -0.101948 -3.73961 0
M  V30 4786 H 450.646 -0.11445 -4.92067 0
M  V30 4787 N 452.299 1.55045 -0.282633 0
M  V30 4788 C 453.548 1.98938 0.332667 0
M  V30 4789 C 453.861 1.17455 1.56409 0
M  V30 4790 O 455.067 1.51527 2.25282 0
M  V30 4791 C 453.523 3.54105 0.643226 0
M  V30 4792 C 453.131 4.44374 -0.568814 0
M  V30 4793 C 454.875 4.06569 1.22074 0
M  V30 4794 C 452.782 5.90943 -0.232426 0
M  V30 4795 H 451.712 0.743043 0.128075 0
M  V30 4796 H 454.363 1.79341 -0.388464 0
M  V30 4797 H 452.745 3.69532 1.42346 0
M  V30 4798 H 453.919 4.40718 -1.34551 0
M  V30 4799 H 452.234 4.02585 -1.06369 0
M  V30 4800 H 454.831 5.13626 1.48635 0
M  V30 4801 H 455.174 3.56057 2.15707 0
M  V30 4802 H 455.707 3.94612 0.502621 0
M  V30 4803 H 452.446 6.45567 -1.13683 0
M  V30 4804 H 451.966 5.9765 0.507357 0
M  V30 4805 H 453.645 6.4677 0.172657 0
M  V30 4806 N 453.777 0.010035 1.57597 0
M  V30 4807 C 455.188 -0.531426 1.78977 0
M  V30 4808 C 455.539 -1.73375 0.918454 0
M  V30 4809 O 454.664 -2.16047 0.123635 0
M  V30 4810 C 455.259 -0.97086 3.24592 0
M  V30 4811 C 453.818 -1.45756 3.47033 0
M  V30 4812 C 452.965 -0.413384 2.74201 0
M  V30 4813 H 455.916 0.236166 1.56933 0
M  V30 4814 H 455.937 -1.83633 3.33255 0
M  V30 4815 H 455.449 -0.0955893 3.87982 0
M  V30 4816 H 453.55 -2.35339 2.88871 0
M  V30 4817 H 453.663 -1.4781 4.55729 0
M  V30 4818 H 452.027 -0.877266 2.39115 0
M  V30 4819 H 452.81 0.453092 3.40297 0
M  V30 4820 N 455.255 -1.55392 -0.262866 0
M  V30 4821 C 456.485 -1.80251 -1.00961 0
M  V30 4822 C 456.893 -0.58117 -1.80053 0
M  V30 4823 O 456.236 0.459427 -1.77862 0
M  V30 4824 C 456.298 -2.98207 -2.00781 0
M  V30 4825 C 455.962 -4.34856 -1.40533 0
M  V30 4826 C 456.959 -5.13459 -0.815853 0
M  V30 4827 C 454.644 -4.8153 -1.42948 0
M  V30 4828 C 456.638 -6.36875 -0.258562 0
M  V30 4829 C 454.325 -6.04899 -0.868334 0
M  V30 4830 C 455.323 -6.8241 -0.283884 0
M  V30 4831 O 455.011 -8.03451 0.268644 0
M  V30 4832 H 454.743 -0.604049 -0.303482 0
M  V30 4833 H 457.297 -2.03257 -0.295926 0
M  V30 4834 H 455.527 -2.70917 -2.75936 0
M  V30 4835 H 457.216 -3.10299 -2.61667 0
M  V30 4836 H 457.982 -4.78526 -0.789812 0
M  V30 4837 H 453.861 -4.21201 -1.87378 0
M  V30 4838 H 457.405 -6.97318 0.198257 0
M  V30 4839 H 453.302 -6.39312 -0.891649 0
M  V30 4840 H 454.07 -8.18346 0.158974 0
M  V30 4841 N 456.733 0.527833 -1.48498 0
M  V30 4842 C 457.961 1.30823 -1.6029 0
M  V30 4843 C 458.376 1.86945 -0.263974 0
M  V30 4844 O 457.733 1.6651 0.747034 0
M  V30 4845 C 457.784 2.45756 -2.65116 0
M  V30 4846 O 457.505 1.91946 -3.93813 0
M  V30 4847 C 459.006 3.37543 -2.87367 0
M  V30 4848 H 456.226 0.397763 -0.540394 0
M  V30 4849 H 458.77 0.636529 -1.94341 0
M  V30 4850 H 456.925 3.08806 -2.33917 0
M  V30 4851 H 457.339 2.67195 -4.51339 0
M  V30 4852 H 458.813 4.14532 -3.6451 0
M  V30 4853 H 459.29 3.92905 -1.9627 0
M  V30 4854 H 459.896 2.80283 -3.19878 0
M  V30 4855 N 458.211 1.37122 0.776871 0
M  V30 4856 C 459.458 1.32047 1.53524 0
M  V30 4857 C 459.786 -0.0965631 1.9426 0
M  V30 4858 O 459.041 -1.06866 1.63945 0
M  V30 4859 C 459.34 2.20068 2.81611 0
M  V30 4860 C 459.006 3.68423 2.59953 0
M  V30 4861 C 457.668 4.08854 2.53755 0
M  V30 4862 C 460.02 4.62431 2.40431 0
M  V30 4863 C 457.348 5.41417 2.26018 0
M  V30 4864 C 459.7 5.95225 2.14219 0
M  V30 4865 C 458.364 6.34767 2.06462 0
M  V30 4866 H 457.634 0.483196 0.561785 0
M  V30 4867 H 460.281 1.69284 0.895268 0
M  V30 4868 H 458.586 1.75809 3.50141 0
M  V30 4869 H 460.283 2.13458 3.39465 0
M  V30 4870 H 456.873 3.36354 2.65638 0
M  V30 4871 H 461.057 4.32057 2.44213 0
M  V30 4872 H 456.313 5.71022 2.18504 0
M  V30 4873 H 460.487 6.67626 1.98112 0
M  V30 4874 H 458.114 7.37413 1.84733 0
M  V30 4875 N 459.689 -1.00246 1.21608 0
M  V30 4876 C 460.599 -2.12515 0.993709 0
M  V30 4877 C 461.615 -1.73913 -0.0549939 0
M  V30 4878 O 462.791 -2.00943 0.135619 0
M  V30 4879 C 459.856 -3.42083 0.563953 0
M  V30 4880 C 458.917 -3.94843 1.68516 0
M  V30 4881 C 458.15 -5.18226 1.27582 0
M  V30 4882 O 458.373 -5.70201 0.150506 0
M  V30 4883 O 457.307 -5.64497 2.0887 0
M  V30 4884 H 461.133 -2.34152 1.93407 0
M  V30 4885 H 458.718 -1.10891 1.00118 0
M  V30 4886 H 460.6 -4.20073 0.334194 0
M  V30 4887 H 459.275 -3.21828 -0.347665 0
M  V30 4888 H 458.182 -3.18068 1.96935 0
M  V30 4889 H 459.515 -4.19512 2.5743 0
M  V30 4890 N 461.167 -1.02423 -1.1978 0
M  V30 4891 C 462.444 -0.632802 -1.85081 0
M  V30 4892 C 462.824 0.888745 -1.9148 0
M  V30 4893 O 462.172 1.78357 -1.42832 0
M  V30 4894 C 462.382 -1.28947 -3.24305 0
M  V30 4895 C 463.73 -1.40976 -4.00513 0
M  V30 4896 O 464.754 -1.24628 -3.33686 0
M  V30 4897 O 463.613 -1.67467 -5.20209 0
M  V30 4898 H 460.707 -0.219348 -0.79738 0
M  V30 4899 H 463.253 -1.12209 -1.27307 0
M  V30 4900 H 462.025 -2.3288 -3.14456 0
M  V30 4901 H 461.648 -0.787748 -3.89718 0
M  V30 4902 N 462.645 1.35699 -0.801477 0
M  V30 4903 C 464.061 1.52065 -0.484596 0
M  V30 4904 C 464.261 1.75215 0.995084 0
M  V30 4905 O 463.317 1.79061 1.78026 0
M  V30 4906 C 464.63 2.69908 -1.32552 0
M  V30 4907 C 466.178 2.83784 -1.32044 0
M  V30 4908 C 466.653 4.04646 -2.14536 0
M  V30 4909 N 468.144 4.11814 -2.12046 0
M  V30 4910 C 468.879 5.04437 -2.72636 0
M  V30 4911 N 468.375 6.02426 -3.42133 0
M  V30 4912 N 470.168 4.97144 -2.62305 0
M  V30 4913 H 462.319 1.18928 -1.75983 0
M  V30 4914 H 464.582 0.581455 -0.748741 0
M  V30 4915 H 464.288 2.59363 -2.37537 0
M  V30 4916 H 464.162 3.64376 -0.975181 0
M  V30 4917 H 466.549 2.93783 -0.27846 0
M  V30 4918 H 466.63 1.90188 -1.71062 0
M  V30 4919 H 466.274 3.95407 -3.18772 0
M  V30 4920 H 466.204 4.97413 -1.72882 0
M  V30 4921 H 468.695 3.41664 -1.61476 0
M  V30 4922 H 469.008 6.69688 -3.85666 0
M  V30 4923 H 467.353 6.02615 -3.46237 0
M  V30 4924 H 470.544 4.19546 -2.07603 0
M  V30 4925 H 470.717 5.69138 -3.09815 0
M  V30 4926 N 464.123 0.554532 1.47522 0
M  V30 4927 C 465.372 0.0273458 2.01681 0
M  V30 4928 C 465.685 -1.32962 1.43459 0
M  V30 4929 O 466.891 -1.94657 1.89265 0
M  V30 4930 C 465.347 -0.00159057 3.599 0
M  V30 4931 C 464.955 1.35197 4.27113 0
M  V30 4932 C 466.699 -0.476311 4.21819 0
M  V30 4933 C 464.606 1.28229 5.77331 0
M  V30 4934 H 463.536 0.00645269 0.753972 0
M  V30 4935 H 466.187 0.701985 1.69542 0
M  V30 4936 H 464.569 -0.741821 3.8899 0
M  V30 4937 H 465.743 2.1097 4.09668 0
M  V30 4938 H 464.058 1.76441 3.77171 0
M  V30 4939 H 466.655 -0.5468 5.31897 0
M  V30 4940 H 466.998 -1.4877 3.8881 0
M  V30 4941 H 467.531 0.20898 3.97251 0
M  V30 4942 H 464.27 2.26959 6.14955 0
M  V30 4943 H 463.79 0.566314 5.97121 0
M  V30 4944 H 465.469 0.983226 6.39485 0
M  V30 4945 N 465.601 -1.54893 0.290851 0
M  V30 4946 C 466.549 -2.24579 -0.605576 0
M  V30 4947 C 467.543 -1.24824 -1.14522 0
M  V30 4948 O 468.749 -1.42706 -1.09704 0
M  V30 4949 H 465.124 -0.720946 -0.213872 0
M  V30 4950 H 467.095 -2.984 0.0048173 0
M  V30 4951 C 465.844 -2.99224 -1.77088 0
M  V30 4952 H 465.167 -3.75782 -1.36484 0
M  V30 4953 H 466.607 -3.51281 -2.3744 0
M  V30 4954 C 465.066 -2.05602 -2.66888 0
M  V30 4955 O 465.596 -1.61745 -3.67698 0
M  V30 4956 N 463.802 -1.71771 -2.34399 0
M  V30 4957 H 463.349 -2.07633 -1.52468 0
M  V30 4958 H 463.307 -1.09403 -2.94751 0
M  V30 4959 N 467.08 -0.0183926 -1.57589 0
M  V30 4960 C 468.327 0.662562 -1.91354 0
M  V30 4961 C 468.655 1.72747 -0.893788 0
M  V30 4962 O 467.91 1.9545 0.0988509 0
M  V30 4963 C 468.209 1.32676 -3.31861 0
M  V30 4964 C 467.875 0.393267 -4.49182 0
M  V30 4965 C 466.537 0.136302 -4.81007 0
M  V30 4966 C 468.889 -0.248366 -5.20608 0
M  V30 4967 C 466.217 -0.770282 -5.81621 0
M  V30 4968 C 468.569 -1.14294 -6.22189 0
M  V30 4969 C 467.233 -1.4089 -6.52462 0
M  V30 4970 H 466.503 0.242448 -0.700214 0
M  V30 4971 H 469.15 -0.0778629 -1.91342 0
M  V30 4972 H 467.455 2.14168 -3.28084 0
M  V30 4973 H 469.152 1.86001 -3.55253 0
M  V30 4974 H 465.742 0.603723 -4.24327 0
M  V30 4975 H 469.926 -0.062883 -4.9626 0
M  V30 4976 H 465.182 -0.984154 -6.03427 0
M  V30 4977 H 469.356 -1.64637 -6.76659 0
M  V30 4978 H 466.983 -2.11306 -7.30242 0
M  V30 4979 N 468.558 1.5553 0.254621 0
M  V30 4980 C 469.521 1.88872 1.29846 0
M  V30 4981 C 470.521 0.764591 1.41459 0
M  V30 4982 O 471.711 1.03265 1.40293 0
M  V30 4983 C 468.843 2.11032 2.67728 0
M  V30 4984 H 470.036 2.82201 1.01502 0
M  V30 4985 H 467.589 1.48303 0.493556 0
M  V30 4986 H 468.324 1.20146 3.01223 0
M  V30 4987 H 468.109 2.92895 2.60682 0
M  V30 4988 H 469.599 2.38038 3.43115 0
M  V30 4989 N 470.036 -0.519951 1.48776 0
M  V30 4990 C 471.282 -1.27711 1.57536 0
M  V30 4991 C 471.615 -1.92547 0.252866 0
M  V30 4992 O 470.89 -1.7979 -0.742021 0
M  V30 4993 C 471.173 -2.35875 2.72094 0
M  V30 4994 C 471.026 -1.75664 4.1408 0
M  V30 4995 C 472.345 -3.37575 2.82367 0
M  V30 4996 H 469.464 -0.462971 0.573434 0
M  V30 4997 H 472.106 -0.578194 1.80989 0
M  V30 4998 H 470.256 -2.95488 2.52228 0
M  V30 4999 H 471.928 -1.20025 4.45412 0
M  V30 5000 H 470.171 -1.06154 4.20611 0
M  V30 5001 H 470.842 -2.54029 4.90075 0
M  V30 5002 H 473.318 -2.87929 3.00393 0
M  V30 5003 H 472.194 -4.1064 3.64233 0
M  V30 5004 H 472.455 -3.98743 1.90936 0
M  V30 5005 N 471.514 -1.37532 -0.769588 0
M  V30 5006 C 472.761 -1.3286 -1.52822 0
M  V30 5007 C 473.089 0.0862597 -1.94309 0
M  V30 5008 O 472.344 1.05995 -1.6451 0
M  V30 5009 C 472.643 -2.21558 -2.8044 0
M  V30 5010 C 472.309 -3.69796 -2.57996 0
M  V30 5011 C 470.971 -4.10194 -2.51583 0
M  V30 5012 C 473.323 -4.63699 -2.37976 0
M  V30 5013 C 470.651 -5.42608 -2.23144 0
M  V30 5014 C 473.003 -5.96353 -2.1106 0
M  V30 5015 C 471.667 -6.35853 -2.03093 0
M  V30 5016 H 470.937 -0.486168 -0.559215 0
M  V30 5017 H 473.584 -1.69757 -0.886277 0
M  V30 5018 H 471.889 -1.77663 -3.49204 0
M  V30 5019 H 473.586 -2.15256 -3.38328 0
M  V30 5020 H 470.176 -3.37759 -2.63851 0
M  V30 5021 H 474.36 -4.33346 -2.41919 0
M  V30 5022 H 469.616 -5.72173 -2.15472 0
M  V30 5023 H 473.79 -6.68667 -1.94568 0
M  V30 5024 H 471.417 -7.38382 -1.8082 0
M  V30 5025 N 472.992 0.995999 -1.22138 0
M  V30 5026 C 474.403 1.54961 -1.04135 0
M  V30 5027 C 474.754 1.92159 0.396147 0
M  V30 5028 O 473.879 1.74435 1.28069 0
M  V30 5029 C 474.474 2.81581 -1.88408 0
M  V30 5030 C 473.033 3.33396 -1.74712 0
M  V30 5031 C 472.18 2.06509 -1.85066 0
M  V30 5032 H 475.131 0.817436 -1.36028 0
M  V30 5033 H 475.152 3.53822 -1.39966 0
M  V30 5034 H 474.664 2.54476 -2.93025 0
M  V30 5035 H 472.765 3.65416 -0.728159 0
M  V30 5036 H 472.878 4.04208 -2.57202 0
M  V30 5037 H 471.242 2.19925 -1.28472 0
M  V30 5038 H 472.025 1.81804 -2.91208 0
M  V30 5039 N 474.47 1.03057 1.19235 0
M  V30 5040 C 475.695 0.74757 1.93458 0
M  V30 5041 C 476.12 -0.687648 1.7508 0
M  V30 5042 O 475.478 -1.47499 1.05422 0
M  V30 5043 C 475.526 1.10604 3.43219 0
M  V30 5044 O 474.63 0.225671 4.11782 0
M  V30 5045 H 473.971 0.276047 0.603899 0
M  V30 5046 H 476.501 1.3777 1.51263 0
M  V30 5047 H 476.511 1.06366 3.93891 0
M  V30 5048 H 475.186 2.15165 3.55917 0
M  V30 5049 H 473.763 0.326795 3.71465 0
M  V30 5050 N 475.948 -1.35272 0.808662 0
M  V30 5051 C 476.878 -2.32315 0.234981 0
M  V30 5052 C 477.859 -1.57572 -0.64071 0
M  V30 5053 O 479.044 -1.8563 -0.570551 0
M  V30 5054 C 476.174 -3.41801 -0.615601 0
M  V30 5055 C 475.128 -4.27694 0.161767 0
M  V30 5056 C 474.454 -5.28519 -0.810649 0
M  V30 5057 C 475.754 -5.04231 1.36193 0
M  V30 5058 H 477.448 -2.80543 1.04575 0
M  V30 5059 H 474.994 -1.3488 0.504315 0
M  V30 5060 H 476.947 -4.08693 -1.02702 0
M  V30 5061 H 475.671 -2.92186 -1.45928 0
M  V30 5062 H 474.33 -3.62384 0.554382 0
M  V30 5063 H 473.978 -4.75171 -1.64988 0
M  V30 5064 H 473.678 -5.8686 -0.294822 0
M  V30 5065 H 475.202 -5.98283 -1.22023 0
M  V30 5066 H 476.616 -5.64058 1.02528 0
M  V30 5067 H 475.013 -5.72077 1.81239 0
M  V30 5068 H 476.083 -4.34753 2.14751 0
M  V30 5069 N 477.426 -0.562348 -1.47226 0
M  V30 5070 C 478.358 0.220011 -2.28142 0
M  V30 5071 C 479.371 0.874596 -1.37312 0
M  V30 5072 O 480.56 0.747583 -1.62091 0
M  V30 5073 C 477.66 1.32953 -3.11732 0
M  V30 5074 C 476.833 0.770759 -4.30556 0
M  V30 5075 C 475.892 1.76541 -4.95701 0
M  V30 5076 O 474.918 1.3095 -5.53932 0
M  V30 5077 N 476.12 3.09896 -4.90861 0
M  V30 5078 H 478.885 -0.474107 -2.95926 0
M  V30 5079 H 476.446 -0.398761 -1.56912 0
M  V30 5080 H 478.438 1.99378 -3.5218 0
M  V30 5081 H 477.008 1.92681 -2.46156 0
M  V30 5082 H 476.228 -0.0704056 -3.94137 0
M  V30 5083 H 477.516 0.376872 -5.07402 0
M  V30 5084 H 476.914 3.49577 -4.44761 0
M  V30 5085 H 475.471 3.71865 -5.35313 0
M  V30 5086 N 478.904 1.54736 -0.299062 0
M  V30 5087 C 480.152 1.99706 0.31017 0
M  V30 5088 C 480.473 1.18896 1.54559 0
M  V30 5089 O 479.743 0.284445 1.93824 0
M  V30 5090 H 478.323 0.737686 0.117596 0
M  V30 5091 H 480.985 1.9054 -0.409943 0
M  V30 5092 H 480.081 3.06596 0.58355 0
M  V30 5093 N 480.382 0.0267497 1.57577 0
M  V30 5094 C 481.63 -0.651116 1.91324 0
M  V30 5095 C 481.951 -1.72804 0.90353 0
M  V30 5096 O 481.221 -1.95822 -0.0552946 0
M  V30 5097 H 479.801 -0.243491 0.706202 0
M  V30 5098 H 482.463 0.0739935 1.94759 0
M  V30 5099 H 481.559 -1.10536 2.9187 0
M  V30 5100 N 481.861 -1.55662 -0.24637 0
M  V30 5101 C 483.272 -1.67953 -0.81539 0
M  V30 5102 C 483.623 -0.624302 -1.86002 0
M  V30 5103 O 482.748 0.229328 -2.15181 0
M  V30 5104 C 483.343 -3.04484 -1.48576 0
M  V30 5105 C 481.902 -3.18713 -2.00248 0
M  V30 5106 C 481.049 -2.6383 -0.853766 0
M  V30 5107 H 484 -1.58685 -0.0221692 0
M  V30 5108 H 484.021 -2.98959 -2.3538 0
M  V30 5109 H 483.533 -3.81264 -0.725222 0
M  V30 5110 H 481.634 -2.46757 -2.79181 0
M  V30 5111 H 481.747 -4.25628 -2.1995 0
M  V30 5112 H 480.111 -2.21667 -1.25442 0
M  V30 5113 H 480.894 -3.43135 -0.106302 0
M  V30 5114 N 483.339 0.512053 -1.4905 0
M  V30 5115 C 484.289 1.61142 -1.61298 0
M  V30 5116 C 485.273 1.53908 -0.46916 0
M  V30 5117 O 486.465 1.61625 -0.721547 0
M  V30 5118 C 483.594 2.998 -1.67256 0
M  V30 5119 C 482.68 3.12072 -2.87179 0
M  V30 5120 N 483.071 2.94263 -4.11391 0
M  V30 5121 C 481.369 3.43156 -2.84886 0
M  V30 5122 C 482.07 3.10426 -4.91946 0
M  V30 5123 N 481.046 3.38808 -4.251 0
M  V30 5124 H 484.848 1.46011 -2.55065 0
M  V30 5125 H 482.362 0.717934 -1.45669 0
M  V30 5126 H 484.359 3.78794 -1.74128 0
M  V30 5127 H 483.019 3.1601 -0.746195 0
M  V30 5128 H 484.03 2.70661 -4.41546 0
M  V30 5129 H 480.707 3.65611 -2.01581 0
M  V30 5130 H 482.097 3.01243 -6.00585 0
M  V30 5131 N 484.817 1.37938 0.762283 0
M  V30 5132 C 485.765 1.34569 1.89721 0
M  V30 5133 C 486.759 0.232929 1.67791 0
M  V30 5134 O 487.965 0.401485 1.75465 0
M  V30 5135 H 484.34 0.419594 0.624055 0
M  V30 5136 H 486.311 2.30357 1.8968 0
M  V30 5137 C 485.06 1.17898 3.27101 0
M  V30 5138 H 484.383 2.02781 3.44558 0
M  V30 5139 H 485.823 1.19593 4.06784 0
M  V30 5140 C 484.282 -0.114728 3.36705 0
M  V30 5141 O 484.812 -1.0949 3.8649 0
M  V30 5142 N 483.018 -0.16863 2.9011 0
M  V30 5143 H 482.565 0.62967 2.49786 0
M  V30 5144 H 482.523 -1.03383 2.96916 0
M  V30 5145 N 486.295 -0.989507 1.22664 0
M  V30 5146 C 487.245 -2.06478 0.967005 0
M  V30 5147 C 488.229 -1.60682 -0.0836374 0
M  V30 5148 O 489.421 -1.76541 0.127322 0
M  V30 5149 C 486.55 -3.38861 0.550313 0
M  V30 5150 C 485.636 -3.9128 1.63587 0
M  V30 5151 N 486.027 -4.16884 2.86429 0
M  V30 5152 C 484.325 -4.1972 1.50834 0
M  V30 5153 C 485.026 -4.5954 3.56648 0
M  V30 5154 N 484.002 -4.63434 2.84131 0
M  V30 5155 H 487.804 -2.24219 1.90008 0
M  V30 5156 H 485.318 -1.17153 1.12467 0
M  V30 5157 H 487.315 -4.15465 0.345612 0
M  V30 5158 H 485.975 -3.22518 -0.375822 0
M  V30 5159 H 486.986 -4.04976 3.22823 0
M  V30 5160 H 483.663 -4.1243 0.648643 0
M  V30 5161 H 485.053 -4.87944 4.61909 0
M  V30 5162 N 487.773 -1.03688 -1.18687 0
M  V30 5163 C 488.736 -0.629115 -2.20397 0
M  V30 5164 C 489.736 0.311495 -1.57754 0
M  V30 5165 O 490.926 0.0974107 -1.73927 0
M  V30 5166 C 488.058 0.0782231 -3.4081 0
M  V30 5167 H 489.251 -1.52915 -2.57987 0
M  V30 5168 H 486.804 -0.828988 -1.32505 0
M  V30 5169 H 487.539 0.992233 -3.08748 0
M  V30 5170 H 487.324 -0.597776 -3.87517 0
M  V30 5171 H 488.814 0.350156 -4.16129 0
M  V30 5172 N 489.251 1.34841 -0.815825 0
M  V30 5173 C 490.5 1.97755 -0.396976 0
M  V30 5174 C 490.813 1.65422 1.04379 0
M  V30 5175 O 492.019 2.21771 1.5662 0
M  V30 5176 C 490.475 3.53818 -0.658869 0
M  V30 5177 C 490.083 3.95051 -2.11278 0
M  V30 5178 C 491.827 4.23397 -0.305834 0
M  V30 5179 C 489.734 5.43997 -2.31994 0
M  V30 5180 H 488.664 0.739985 -0.1447 0
M  V30 5181 H 491.315 1.53781 -1.00118 0
M  V30 5182 H 489.697 3.95997 0.0154112 0
M  V30 5183 H 490.871 3.63998 -2.82564 0
M  V30 5184 H 489.186 3.38388 -2.42657 0
M  V30 5185 H 491.783 5.32899 -0.43854 0
M  V30 5186 H 492.126 4.09508 0.748952 0
M  V30 5187 H 492.659 3.8667 -0.934403 0
M  V30 5188 H 489.398 5.62865 -3.35952 0
M  V30 5189 H 488.918 5.76589 -1.65244 0
M  V30 5190 H 490.597 6.10584 -2.14001 0
M  V30 5191 N 490.729 0.570148 1.46925 0
M  V30 5192 C 491.692 -0.159933 2.28641 0
M  V30 5193 C 492.692 -0.830638 1.37685 0
M  V30 5194 O 493.882 -0.684516 1.60187 0
M  V30 5195 C 491.014 -1.2354 3.17727 0
M  V30 5196 H 492.207 0.558035 2.94662 0
M  V30 5197 H 489.76 0.327603 1.52828 0
M  V30 5198 H 490.495 -1.98535 2.56426 0
M  V30 5199 H 490.28 -0.759125 3.84681 0
M  V30 5200 H 491.77 -1.74782 3.79264 0
M  V30 5201 N 492.207 -1.54576 0.307264 0
M  V30 5202 C 493.17 -2.22423 -0.553224 0
M  V30 5203 C 494.17 -1.21231 -1.05639 0
M  V30 5204 O 495.36 -1.45923 -0.951419 0
M  V30 5205 C 492.492 -2.91552 -1.76664 0
M  V30 5206 H 493.685 -2.99874 0.0396484 0
M  V30 5207 H 491.238 -1.56192 0.0581629 0
M  V30 5208 H 491.973 -2.18196 -2.39918 0
M  V30 5209 H 491.758 -3.65738 -1.41343 0
M  V30 5210 H 493.248 -3.43292 -2.37783 0
M  V30 5211 N 493.685 -0.035106 -1.57561 0
M  V30 5212 C 494.931 0.64318 -1.92331 0
M  V30 5213 C 495.264 1.71434 -0.912368 0
M  V30 5214 O 494.539 1.94395 0.0640303 0
M  V30 5215 C 494.822 1.25411 -3.37556 0
M  V30 5216 C 494.675 0.192109 -4.4939 0
M  V30 5217 C 495.994 2.17041 -3.82859 0
M  V30 5218 H 493.113 0.232341 -0.699419 0
M  V30 5219 H 495.755 -0.0935889 -1.89769 0
M  V30 5220 H 493.905 1.88205 -3.39869 0
M  V30 5221 H 495.577 -0.438849 -4.59208 0
M  V30 5222 H 493.82 -0.481725 -4.31117 0
M  V30 5223 H 494.491 0.659292 -5.48049 0
M  V30 5224 H 496.967 1.64228 -3.8232 0
M  V30 5225 H 495.843 2.56738 -4.85157 0
M  V30 5226 H 496.104 3.06401 -3.18702 0
M  V30 5227 N 495.163 1.55791 0.238111 0
M  V30 5228 C 496.126 1.90239 1.27835 0
M  V30 5229 C 497.126 0.779552 1.4064 0
M  V30 5230 O 498.316 1.04747 1.3919 0
M  V30 5231 C 495.448 2.13859 2.65475 0
M  V30 5232 H 496.641 2.83262 0.985034 0
M  V30 5233 H 494.194 1.48818 0.477799 0
M  V30 5234 H 494.929 1.23334 2.99932 0
M  V30 5235 H 494.714 2.95643 2.57561 0
M  V30 5236 H 496.204 2.41664 3.40571 0
M  V30 5237 N 496.642 -0.504142 1.49319 0
M  V30 5238 C 497.888 -1.26033 1.58882 0
M  V30 5239 C 498.221 -1.92268 0.273274 0
M  V30 5240 O 497.496 -1.80567 -0.72291 0
M  V30 5241 C 497.779 -2.32976 2.7458 0
M  V30 5242 C 497.632 -1.71263 4.1592 0
M  V30 5243 C 498.951 -3.34561 2.85932 0
M  V30 5244 H 496.07 -0.456863 0.578312 0
M  V30 5245 H 498.712 -0.558965 1.81592 0
M  V30 5246 H 496.862 -2.92796 2.55348 0
M  V30 5247 H 498.534 -1.15294 4.4666 0
M  V30 5248 H 496.777 -1.01686 4.21714 0
M  V30 5249 H 497.448 -2.48816 4.92742 0
M  V30 5250 H 499.924 -2.84727 3.0343 0
M  V30 5251 H 498.8 -4.06754 3.68568 0
M  V30 5252 H 499.061 -3.96695 1.95154 0
M  V30 5253 N 498.12 -1.38341 -0.754957 0
M  V30 5254 C 499.083 -1.35262 -1.85032 0
M  V30 5255 C 500.083 -0.253393 -1.58791 0
M  V30 5256 O 501.273 -0.510205 -1.66561 0
M  V30 5257 C 498.405 -1.10544 -3.22479 0
M  V30 5258 H 499.598 -2.32712 -1.8917 0
M  V30 5259 H 497.151 -1.23614 -0.956515 0
M  V30 5260 H 497.886 -0.136952 -3.24011 0
M  V30 5261 H 497.671 -1.90127 -3.4292 0
M  V30 5262 H 499.161 -1.11082 -4.02555 0
M  V30 5263 N 499.598 0.982988 -1.23187 0
M  V30 5264 C 500.528 2.09301 -1.03515 0
M  V30 5265 C 501.509 1.70035 0.0471136 0
M  V30 5266 O 502.694 1.93847 -0.117029 0
M  V30 5267 C 499.824 3.4167 -0.622791 0
M  V30 5268 C 498.778 3.94828 -1.65211 0
M  V30 5269 C 498.104 5.23362 -1.09527 0
M  V30 5270 C 499.404 4.2439 -3.04451 0
M  V30 5271 H 501.098 2.26016 -1.96359 0
M  V30 5272 H 498.644 1.08611 -0.945501 0
M  V30 5273 H 500.597 4.18746 -0.472233 0
M  V30 5274 H 499.321 3.24811 0.341329 0
M  V30 5275 H 497.98 3.19895 -1.79061 0
M  V30 5276 H 497.628 5.02852 -0.122211 0
M  V30 5277 H 497.328 5.59895 -1.783 0
M  V30 5278 H 498.852 6.03062 -0.956511 0
M  V30 5279 H 500.266 4.92225 -2.93917 0
M  V30 5280 H 498.663 4.72118 -3.70438 0
M  V30 5281 H 499.733 3.31765 -3.53638 0
M  V30 5282 N 501.076 1.04316 1.18135 0
M  V30 5283 C 502.023 0.636398 2.21853 0
M  V30 5284 C 502.993 -0.357039 1.62217 0
M  V30 5285 O 504.178 -0.250453 1.89149 0
M  V30 5286 C 501.318 0.00812779 3.45099 0
M  V30 5287 C 500.431 1.04933 4.19062 0
M  V30 5288 C 499.566 0.389313 5.29771 0
M  V30 5289 C 498.605 1.41544 5.9551 0
M  V30 5290 N 497.742 0.78021 6.97751 0
M  V30 5291 H 502.582 1.52536 2.56002 0
M  V30 5292 H 500.119 0.76304 1.25762 0
M  V30 5293 H 502.077 -0.373497 4.15525 0
M  V30 5294 H 500.707 -0.844336 3.11562 0
M  V30 5295 H 499.759 1.54888 3.47439 0
M  V30 5296 H 501.071 1.82862 4.64072 0
M  V30 5297 H 500.225 -0.0463805 6.06682 0
M  V30 5298 H 498.964 -0.422038 4.8587 0
M  V30 5299 H 497.969 1.86124 5.17337 0
M  V30 5300 H 499.194 2.22854 6.41493 0
M  V30 5301 H 497.14 -0.0107899 6.55999 0
M  V30 5302 H 497.057 1.49716 7.41027 0
M  V30 5303 H 498.325 0.368996 7.78626 0
M  V30 5304 N 502.554 -1.34406 0.822964 0
M  V30 5305 C 503.486 -2.28305 0.202375 0
M  V30 5306 C 504.499 -1.5103 -0.60777 0
M  V30 5307 O 505.688 -1.73057 -0.437444 0
M  V30 5308 C 502.788 -3.30836 -0.734911 0
M  V30 5309 C 501.961 -4.37388 0.0324177 0
M  V30 5310 C 501.02 -5.1968 -0.825803 0
M  V30 5311 O 500.046 -5.68556 -0.270771 0
M  V30 5312 N 501.248 -5.39393 -2.14558 0
M  V30 5313 H 504.013 -2.82201 1.00909 0
M  V30 5314 H 501.574 -1.4693 0.67993 0
M  V30 5315 H 503.566 -3.82786 -1.31365 0
M  V30 5316 H 502.136 -2.77334 -1.44238 0
M  V30 5317 H 501.356 -3.86152 0.792469 0
M  V30 5318 H 502.644 -5.05702 0.560633 0
M  V30 5319 H 502.042 -5.01357 -2.62025 0
M  V30 5320 H 500.599 -5.94461 -2.67318 0
M  V30 5321 N 504.032 -0.577932 -1.46621 0
M  V30 5322 C 504.995 0.147805 -2.28723 0
M  V30 5323 C 505.995 0.823325 -1.38123 0
M  V30 5324 O 507.185 0.676011 -1.60548 0
M  V30 5325 C 504.317 1.21853 -3.18378 0
M  V30 5326 H 505.51 -0.573654 -2.94362 0
M  V30 5327 H 503.063 -0.335703 -1.52652 0
M  V30 5328 H 503.798 1.97173 -2.57475 0
M  V30 5329 H 503.583 0.738714 -3.85078 0
M  V30 5330 H 505.073 1.72768 -3.80186 0
M  V30 5331 N 505.51 1.54411 -0.315457 0
M  V30 5332 C 506.75 2.02329 0.290236 0
M  V30 5333 C 507.114 1.19878 1.49977 0
M  V30 5334 O 508.315 1.57562 2.17779 0
M  V30 5335 C 506.586 3.51912 0.623937 0
M  V30 5336 S 508.145 4.21775 1.21044 0
M  V30 5337 H 504.963 0.705499 0.0882739 0
M  V30 5338 H 507.565 1.90328 -0.446694 0
M  V30 5339 H 506.269 4.09546 -0.264624 0
M  V30 5340 H 505.8 3.67977 1.39128 0
M  V30 5341 H 507.815 4.28757 2.49764 0
M  V30 5342 N 506.988 0.0434614 1.5754 0
M  V30 5343 C 508.216 -0.641835 1.96693 0
M  V30 5344 C 508.631 -1.64832 0.920652 0
M  V30 5345 O 507.988 -1.82247 -0.095993 0
M  V30 5346 C 508.039 -1.33557 3.35924 0
M  V30 5347 O 507.76 -0.369403 4.3654 0
M  V30 5348 C 509.261 -2.11135 3.89791 0
M  V30 5349 H 506.481 -0.176013 0.647503 0
M  V30 5350 H 509.025 0.107478 2.04217 0
M  V30 5351 H 507.18 -2.03617 3.29574 0
M  V30 5352 H 507.594 -0.863674 5.1734 0
M  V30 5353 H 509.068 -2.55107 4.89514 0
M  V30 5354 H 509.545 -2.95634 3.24803 0
M  V30 5355 H 510.151 -1.46002 3.99454 0
M  V30 5356 N 508.466 -1.55915 -0.229846 0
M  V30 5357 C 509.877 -1.68809 -0.797531 0
M  V30 5358 C 510.228 -0.643995 -1.8533 0
M  V30 5359 O 509.353 0.206492 -2.15413 0
M  V30 5360 C 509.948 -3.06043 -1.45338 0
M  V30 5361 C 508.507 -3.20819 -1.96856 0
M  V30 5362 C 507.654 -2.6472 -0.825736 0
M  V30 5363 H 510.605 -1.58699 -0.00533733 0
M  V30 5364 H 510.626 -3.01438 -2.32196 0
M  V30 5365 H 510.138 -3.82012 -0.684743 0
M  V30 5366 H 508.239 -2.49704 -2.76548 0
M  V30 5367 H 508.352 -4.27937 -2.15423 0
M  V30 5368 H 506.716 -2.22985 -1.23084 0
M  V30 5369 H 507.499 -3.43229 -0.0699019 0
M  V30 5370 N 509.944 0.496216 -1.49584 0
M  V30 5371 C 510.877 1.61508 -1.61215 0
M  V30 5372 C 511.855 1.55927 -0.461045 0
M  V30 5373 O 513.039 1.75914 -0.677231 0
M  V30 5374 C 510.166 3.00035 -1.57152 0
M  V30 5375 C 509.212 3.23861 -2.77518 0
M  V30 5376 S 510.045 3.06466 -4.39134 0
M  V30 5377 C 511.201 4.4738 -4.37724 0
M  V30 5378 H 511.434 1.51398 -2.55863 0
M  V30 5379 H 508.967 0.681727 -1.38535 0
M  V30 5380 H 510.925 3.7991 -1.55494 0
M  V30 5381 H 509.586 3.07556 -0.637834 0
M  V30 5382 H 508.779 4.25 -2.70908 0
M  V30 5383 H 508.381 2.51716 -2.76614 0
M  V30 5384 H 510.673 5.39556 -4.09738 0
M  V30 5385 H 511.616 4.59038 -5.39156 0
M  V30 5386 H 512.024 4.28283 -3.67742 0
M  V30 5387 N 511.423 1.38739 0.74761 0
M  V30 5388 C 512.67 1.35274 1.50689 0
M  V30 5389 C 512.998 -0.0553359 1.94421 0
M  V30 5390 O 512.253 -1.03365 1.66175 0
M  V30 5391 C 512.552 2.25992 2.7688 0
M  V30 5392 C 512.218 3.73854 2.5208 0
M  V30 5393 C 510.88 4.14145 2.45025 0
M  V30 5394 C 513.232 4.67427 2.30568 0
M  V30 5395 C 510.56 5.4609 2.14483 0
M  V30 5396 C 512.912 5.99635 2.01545 0
M  V30 5397 C 511.576 6.39004 1.92951 0
M  V30 5398 H 510.846 0.495003 0.55141 0
M  V30 5399 H 513.493 1.71145 0.859158 0
M  V30 5400 H 511.798 1.83196 3.46333 0
M  V30 5401 H 513.495 2.20611 3.34861 0
M  V30 5402 H 510.085 3.41913 2.58444 0
M  V30 5403 H 514.269 4.3714 2.34994 0
M  V30 5404 H 509.525 5.75528 2.06342 0
M  V30 5405 H 513.699 6.71678 1.83906 0
M  V30 5406 H 511.326 7.41165 1.6905 0
M  V30 5407 N 512.901 -0.976442 1.23707 0
M  V30 5408 C 514.317 -1.24341 1.00058 0
M  V30 5409 C 514.517 -1.99315 -0.295932 0
M  V30 5410 O 513.573 -2.3123 -1.01435 0
M  V30 5411 C 514.886 -2.03909 2.21001 0
M  V30 5412 C 516.434 -2.17034 2.25534 0
M  V30 5413 C 516.909 -2.99994 3.46075 0
M  V30 5414 N 518.4 -3.07578 3.46338 0
M  V30 5415 C 519.135 -3.72104 4.36264 0
M  V30 5416 N 518.631 -4.3842 5.36432 0
M  V30 5417 N 520.424 -3.69029 4.23998 0
M  V30 5418 H 512.575 -0.47428 2.07037 0
M  V30 5419 H 514.838 -0.272167 0.908091 0
M  V30 5420 H 514.544 -1.56198 3.15111 0
M  V30 5421 H 514.418 -3.04654 2.22409 0
M  V30 5422 H 516.805 -2.63951 1.31961 0
M  V30 5423 H 516.886 -1.15664 2.28156 0
M  V30 5424 H 516.53 -2.53772 4.39957 0
M  V30 5425 H 516.46 -4.01541 3.40694 0
M  V30 5426 H 518.951 -2.60397 2.73865 0
M  V30 5427 H 519.264 -4.85447 6.013 0
M  V30 5428 H 517.609 -4.37116 5.40328 0
M  V30 5429 H 520.8 -3.16392 3.44984 0
M  V30 5430 H 520.973 -4.19034 4.94282 0
M  V30 5431 N 514.379 -1.04941 -1.1758 0
M  V30 5432 C 515.289 -0.658826 -2.25159 0
M  V30 5433 C 516.305 0.318941 -1.71052 0
M  V30 5434 O 517.481 0.171669 -2.00667 0
M  V30 5435 C 514.546 -0.0369522 -3.4668 0
M  V30 5436 C 513.607 -1.06484 -4.15884 0
M  V30 5437 C 512.84 -0.472551 -5.31604 0
M  V30 5438 O 513.063 0.718736 -5.65854 0
M  V30 5439 O 511.997 -1.20557 -5.89703 0
M  V30 5440 H 515.823 -1.55533 -2.60851 0
M  V30 5441 H 513.408 -0.820819 -1.24832 0
M  V30 5442 H 515.29 0.308784 -4.20267 0
M  V30 5443 H 513.965 0.833238 -3.12792 0
M  V30 5444 H 512.872 -1.46253 -3.44327 0
M  V30 5445 H 514.205 -1.9061 -4.53794 0
M  V30 5446 N 515.857 1.33968 -0.830081 0
M  V30 5447 C 517.087 2.01987 -0.434142 0
M  V30 5448 C 517.495 1.62639 0.96671 0
M  V30 5449 O 516.838 0.831151 1.63822 0
M  V30 5450 C 516.9 3.5648 -0.465018 0
M  V30 5451 C 516.564 4.19176 -1.82045 0
M  V30 5452 C 517.561 4.39181 -2.78237 0
M  V30 5453 C 515.246 4.55792 -2.11089 0
M  V30 5454 C 517.24 4.94937 -4.01642 0
M  V30 5455 C 514.927 5.11258 -3.34752 0
M  V30 5456 C 515.925 5.30775 -4.29845 0
M  V30 5457 O 515.613 5.85064 -5.51322 0
M  V30 5458 H 515.345 0.653847 -0.171639 0
M  V30 5459 H 517.899 1.72066 -1.12171 0
M  V30 5460 H 516.129 3.8569 0.279284 0
M  V30 5461 H 517.818 4.05804 -0.0881334 0
M  V30 5462 H 518.584 4.11249 -2.57097 0
M  V30 5463 H 514.463 4.39901 -1.3787 0
M  V30 5464 H 518.007 5.10086 -4.75876 0
M  V30 5465 H 513.904 5.38619 -3.55753 0
M  V30 5466 H 514.672 6.03489 -5.5294 0
M  V30 5467 N 517.335 0.585699 1.46312 0
M  V30 5468 C 518.56 0.0762461 2.0726 0
M  V30 5469 C 518.985 -1.22071 1.43109 0
M  V30 5470 O 518.343 -1.73804 0.515942 0
M  V30 5471 C 518.391 -0.0729404 3.60526 0
M  V30 5472 O 517.495 -1.1287 3.96654 0
M  V30 5473 H 516.836 0.0641558 0.660893 0
M  V30 5474 H 519.366 0.809492 1.87905 0
M  V30 5475 H 519.376 -0.278158 4.07051 0
M  V30 5476 H 518.051 0.874188 4.06609 0
M  V30 5477 H 516.628 -0.901703 3.61834 0
M  V30 5478 N 518.813 -1.54241 0.323641 0
M  V30 5479 C 519.743 -2.27289 -0.534993 0
M  V30 5480 C 520.724 -1.28087 -1.11927 0
M  V30 5481 O 521.909 -1.56899 -1.14439 0
M  V30 5482 C 519.039 -3.03075 -1.69596 0
M  V30 5483 C 517.993 -4.09614 -1.24098 0
M  V30 5484 C 517.319 -4.73242 -2.4889 0
M  V30 5485 C 518.619 -5.21087 -0.355789 0
M  V30 5486 H 520.313 -2.99308 0.0743257 0
M  V30 5487 H 517.859 -1.43952 0.0371874 0
M  V30 5488 H 519.812 -3.52907 -2.30293 0
M  V30 5489 H 518.536 -2.28673 -2.33187 0
M  V30 5490 H 517.195 -3.60666 -0.656945 0
M  V30 5491 H 516.843 -3.95455 -3.10845 0
M  V30 5492 H 516.543 -5.45209 -2.19138 0
M  V30 5493 H 518.067 -5.25848 -3.10348 0
M  V30 5494 H 519.481 -5.66675 -0.869042 0
M  V30 5495 H 517.878 -5.9991 -0.151045 0
M  V30 5496 H 518.948 -4.81005 0.613339 0
M  V30 5497 N 520.291 -0.0518155 -1.57515 0
M  V30 5498 C 521.223 0.951542 -2.08515 0
M  V30 5499 C 522.236 1.27436 -1.01311 0
M  V30 5500 O 523.425 1.23504 -1.28876 0
M  V30 5501 C 520.525 2.27291 -2.5138 0
M  V30 5502 C 519.698 2.13191 -3.81927 0
M  V30 5503 C 518.757 3.28458 -4.11098 0
M  V30 5504 O 517.783 3.04334 -4.81009 0
M  V30 5505 N 518.985 4.52954 -3.63061 0
M  V30 5506 H 521.75 0.516242 -2.9522 0
M  V30 5507 H 519.311 0.13441 -1.61341 0
M  V30 5508 H 521.303 3.03272 -2.67971 0
M  V30 5509 H 519.873 2.62386 -1.69919 0
M  V30 5510 H 519.093 1.21798 -3.74912 0
M  V30 5511 H 520.381 2.00999 -4.67415 0
M  V30 5512 H 519.779 4.75444 -3.06545 0
M  V30 5513 H 518.336 5.26026 -3.84889 0
M  V30 5514 N 521.769 1.56035 0.221574 0
M  V30 5515 C 523.015 1.79312 0.947372 0
M  V30 5516 C 523.348 0.621453 1.83988 0
M  V30 5517 O 522.623 -0.379287 1.90766 0
M  V30 5518 C 522.906 3.1267 1.78633 0
M  V30 5519 C 522.759 4.40284 0.920312 0
M  V30 5520 C 524.078 3.4247 2.7641 0
M  V30 5521 H 521.197 0.652328 0.342982 0
M  V30 5522 H 523.839 1.88765 0.216244 0
M  V30 5523 H 521.989 3.04741 2.40967 0
M  V30 5524 H 523.661 4.60232 0.313718 0
M  V30 5525 H 521.904 4.33212 0.225734 0
M  V30 5526 H 522.575 5.30033 1.54171 0
M  V30 5527 H 525.051 3.50526 2.24211 0
M  V30 5528 H 523.927 4.3695 3.32213 0
M  V30 5529 H 524.188 2.64635 3.54148 0
M  V30 5530 N 523.247 -0.488276 1.49845 0
M  V30 5531 C 524.177 -1.59675 1.70371 0
M  V30 5532 C 525.158 -1.60878 0.552473 0
M  V30 5533 O 526.343 -1.77417 0.78973 0
M  V30 5534 C 523.473 -2.98098 1.782 0
M  V30 5535 C 522.427 -3.11761 2.93239 0
M  V30 5536 C 521.753 -4.51661 2.86193 0
M  V30 5537 C 523.053 -2.90589 4.33999 0
M  V30 5538 H 524.747 -1.42752 2.63177 0
M  V30 5539 H 522.293 -0.685317 1.26647 0
M  V30 5540 H 524.246 -3.75555 1.91144 0
M  V30 5541 H 522.97 -3.16138 0.820018 0
M  V30 5542 H 521.629 -2.36732 2.79917 0
M  V30 5543 H 521.277 -4.66595 1.87877 0
M  V30 5544 H 520.977 -4.61742 3.63412 0
M  V30 5545 H 522.501 -5.31162 3.01163 0
M  V30 5546 H 523.915 -3.57807 4.47936 0
M  V30 5547 H 522.312 -3.1213 5.12538 0
M  V30 5548 H 523.382 -1.86595 4.4756 0
M  V30 5549 N 524.725 -1.39134 -0.740242 0
M  V30 5550 C 525.672 -1.37434 -1.8542 0
M  V30 5551 C 526.642 -0.234822 -1.64432 0
M  V30 5552 O 527.827 -0.429125 -1.85912 0
M  V30 5553 C 524.967 -1.21844 -3.22875 0
M  V30 5554 C 524.08 -2.45296 -3.55603 0
M  V30 5555 C 523.215 -2.22334 -4.82432 0
M  V30 5556 C 522.254 -3.41488 -5.07988 0
M  V30 5557 N 521.391 -3.17877 -6.26018 0
M  V30 5558 H 526.231 -2.3266 -1.86207 0
M  V30 5559 H 523.768 -1.15578 -0.909946 0
M  V30 5560 H 525.726 -1.10818 -4.02213 0
M  V30 5561 H 524.356 -0.3025 -3.21379 0
M  V30 5562 H 523.408 -2.66945 -2.71006 0
M  V30 5563 H 524.72 -3.34063 -3.7041 0
M  V30 5564 H 523.874 -2.0852 -5.69741 0
M  V30 5565 H 522.613 -1.30954 -4.6979 0
M  V30 5566 H 521.618 -3.55807 -4.19144 0
M  V30 5567 H 522.843 -4.33763 -5.22519 0
M  V30 5568 H 520.789 -2.29156 -6.14673 0
M  V30 5569 H 520.706 -4.00198 -6.41387 0
M  V30 5570 H 521.974 -3.07746 -7.16179 0
M  V30 5571 N 526.204 0.969867 -1.24223 0
M  V30 5572 C 527.152 2.08535 -1.03034 0
M  V30 5573 C 528.146 1.69366 0.0340379 0
M  V30 5574 O 529.352 1.79597 -0.12034 0
M  V30 5575 H 525.727 0.682313 -0.316154 0
M  V30 5576 H 527.698 2.23569 -1.97635 0
M  V30 5577 C 526.447 3.4158 -0.649509 0
M  V30 5578 H 525.77 3.72177 -1.46028 0
M  V30 5579 H 527.21 4.20536 -0.540841 0
M  V30 5580 C 525.669 3.30703 0.643194 0
M  V30 5581 O 526.199 3.64443 1.68951 0
M  V30 5582 N 524.405 2.83841 0.623095 0
M  V30 5583 H 523.952 2.56583 -0.228719 0
M  V30 5584 H 523.91 2.76946 1.48823 0
M  V30 5585 N 527.682 1.05563 1.17022 0
M  V30 5586 C 528.645 0.664098 2.19368 0
M  V30 5587 C 529.645 -0.286358 1.5823 0
M  V30 5588 O 530.835 -0.069728 1.7406 0
M  V30 5589 C 527.967 -0.0239932 3.40892 0
M  V30 5590 H 529.16 1.57 2.55521 0
M  V30 5591 H 526.713 0.849964 1.31169 0
M  V30 5592 H 527.448 -0.942988 3.10287 0
M  V30 5593 H 527.233 0.659351 3.86516 0
M  V30 5594 H 528.723 -0.283909 4.16634 0
M  V30 5595 N 529.16 -1.33526 0.837174 0
M  V30 5596 C 530.576 -1.50727 0.524743 0
M  V30 5597 C 530.776 -1.77792 -0.948279 0
M  V30 5598 O 529.832 -1.83719 -1.73216 0
M  V30 5599 C 531.145 -2.66299 1.39661 0
M  V30 5600 C 532.693 -2.80183 1.39521 0
M  V30 5601 C 533.168 -3.98815 2.25189 0
M  V30 5602 N 534.659 -4.06047 2.2289 0
M  V30 5603 C 535.394 -4.97032 2.85915 0
M  V30 5604 N 534.89 -5.93143 3.57985 0
M  V30 5605 N 536.683 -4.90015 2.75394 0
M  V30 5606 H 528.834 -1.1422 1.79074 0
M  V30 5607 H 531.097 -0.561399 0.763894 0
M  V30 5608 H 530.803 -2.52974 2.4433 0
M  V30 5609 H 530.677 -3.61663 1.07145 0
M  V30 5610 H 533.064 -2.92942 0.356253 0
M  V30 5611 H 533.145 -1.85586 1.76044 0
M  V30 5612 H 532.789 -3.86817 3.29143 0
M  V30 5613 H 532.719 -4.92654 1.86009 0
M  V30 5614 H 535.21 -3.37262 1.70478 0
M  V30 5615 H 535.523 -6.59227 4.03286 0
M  V30 5616 H 533.868 -5.93223 3.62093 0
M  V30 5617 H 537.059 -4.13894 2.18654 0
M  V30 5618 H 537.232 -5.60724 3.24796 0
M  V30 5619 N 530.638 -0.59345 -1.46 0
M  V30 5620 C 531.601 0.123538 -2.28867 0
M  V30 5621 C 532.601 0.808628 -1.38989 0
M  V30 5622 O 533.791 0.658945 -1.61256 0
M  V30 5623 C 530.923 1.1847 -3.19653 0
M  V30 5624 H 532.116 -0.604843 -2.93737 0
M  V30 5625 H 529.669 -0.351875 -1.52288 0
M  V30 5626 H 530.404 1.94431 -2.59552 0
M  V30 5627 H 530.189 0.69783 -3.8584 0
M  V30 5628 H 531.679 1.68726 -3.81997 0
M  V30 5629 N 532.116 1.54067 -0.331816 0
M  V30 5630 C 533.049 2.20886 0.573127 0
M  V30 5631 C 534.027 1.18876 1.10938 0
M  V30 5632 O 535.211 1.47649 1.17184 0
M  V30 5633 C 532.338 2.87706 1.78726 0
M  V30 5634 C 531.384 4.03505 1.38152 0
M  V30 5635 S 532.217 5.33919 0.41123 0
M  V30 5636 C 533.373 6.04236 1.63246 0
M  V30 5637 H 533.606 2.97299 0.00555737 0
M  V30 5638 H 531.139 1.53964 -0.115893 0
M  V30 5639 H 533.097 3.26825 2.48386 0
M  V30 5640 H 531.758 2.1108 2.32603 0
M  V30 5641 H 530.951 4.49152 2.28645 0
M  V30 5642 H 530.553 3.66102 0.764524 0
M  V30 5643 H 532.845 6.26917 2.56869 0
M  V30 5644 H 533.788 6.97546 1.218 0
M  V30 5645 H 534.196 5.34247 1.82318 0
M  V30 5646 N 533.594 0.0601682 1.57485 0
M  V30 5647 C 534.557 -0.896373 2.10945 0
M  V30 5648 C 535.557 -1.23402 1.03095 0
M  V30 5649 O 536.747 -1.16921 1.29132 0
M  V30 5650 C 533.879 -2.20346 2.60116 0
M  V30 5651 H 535.072 -0.432778 2.96761 0
M  V30 5652 H 532.625 -0.188372 1.55161 0
M  V30 5653 H 533.36 -2.71268 1.7772 0
M  V30 5654 H 533.145 -1.9714 3.38937 0
M  V30 5655 H 534.635 -2.88846 3.01592 0
M  V30 5656 N 535.072 -1.5615 -0.213296 0
M  V30 5657 C 536.349 -1.70349 -0.961281 0
M  V30 5658 C 536.729 -0.609791 -2.02101 0
M  V30 5659 O 536.077 0.381987 -2.25285 0
M  V30 5660 C 536.287 -3.11982 -1.56424 0
M  V30 5661 C 537.635 -3.71649 -2.05334 0
M  V30 5662 O 538.659 -3.14995 -1.66302 0
M  V30 5663 O 537.518 -4.71038 -2.77102 0
M  V30 5664 H 534.612 -0.694121 -0.449582 0
M  V30 5665 H 537.158 -1.68464 -0.204426 0
M  V30 5666 H 535.93 -3.83046 -0.799457 0
M  V30 5667 H 535.553 -3.18019 -2.38641 0
M  V30 5668 N 536.55 0.480323 -1.50102 0
M  V30 5669 C 537.513 1.56181 -1.6775 0
M  V30 5670 C 538.513 1.51156 -0.548503 0
M  V30 5671 O 539.703 1.5394 -0.815363 0
M  V30 5672 C 536.835 2.95823 -1.69415 0
M  V30 5673 H 538.028 1.41855 -2.6423 0
M  V30 5674 H 535.581 0.70605 -1.39444 0
M  V30 5675 H 536.316 3.15604 -0.745948 0
M  V30 5676 H 536.101 3.00878 -2.51425 0
M  V30 5677 H 537.591 3.74359 -1.85054 0
M  V30 5678 N 538.028 1.39524 0.732853 0
M  V30 5679 C 538.958 1.41153 1.86005 0
M  V30 5680 C 539.939 0.274614 1.67869 0
M  V30 5681 O 541.124 0.480745 1.88155 0
M  V30 5682 C 538.254 1.25638 3.23778 0
M  V30 5683 C 537.208 2.36752 3.56556 0
M  V30 5684 C 536.534 2.06326 4.93289 0
M  V30 5685 C 537.834 3.79069 3.5931 0
M  V30 5686 H 539.528 2.35484 1.84899 0
M  V30 5687 H 537.074 1.13348 0.888162 0
M  V30 5688 H 539.027 1.25398 4.0231 0
M  V30 5689 H 537.751 0.277772 3.25417 0
M  V30 5690 H 536.41 2.36213 2.80355 0
M  V30 5691 H 536.058 1.06897 4.9151 0
M  V30 5692 H 535.758 2.80757 5.16187 0
M  V30 5693 H 537.282 2.07739 5.74175 0
M  V30 5694 H 538.696 3.81526 4.27914 0
M  V30 5695 H 537.093 4.52878 3.93728 0
M  V30 5696 H 538.163 4.09893 2.59068 0
M  V30 5697 N 539.506 -0.963266 1.24736 0
M  V30 5698 C 540.436 -2.07628 1.06832 0
M  V30 5699 C 541.417 -1.70088 -0.0200566 0
M  V30 5700 O 542.602 -1.93636 0.147854 0
M  V30 5701 C 539.732 -3.40636 0.677069 0
M  V30 5702 C 538.686 -3.9215 1.71471 0
M  V30 5703 C 538.012 -5.21553 1.1784 0
M  V30 5704 C 539.312 -4.19493 3.11164 0
M  V30 5705 H 541.006 -2.22864 1.9993 0
M  V30 5706 H 538.552 -1.07093 0.96266 0
M  V30 5707 H 540.505 -4.17941 0.538792 0
M  V30 5708 H 539.229 -3.25313 -0.289612 0
M  V30 5709 H 537.888 -3.17005 1.84128 0
M  V30 5710 H 537.536 -5.02593 0.202195 0
M  V30 5711 H 537.236 -5.56988 1.87185 0
M  V30 5712 H 538.76 -6.01463 1.05233 0
M  V30 5713 H 540.174 -4.87487 3.01711 0
M  V30 5714 H 538.571 -4.66165 3.77902 0
M  V30 5715 H 539.641 -3.26097 3.58871 0
M  V30 5716 N 540.985 -1.06182 -1.16461 0
M  V30 5717 C 541.895 -0.682671 -2.24448 0
M  V30 5718 C 542.911 0.30078 -1.71381 0
M  V30 5719 O 544.087 0.150376 -2.00838 0
M  V30 5720 C 541.152 -0.0737202 -3.46622 0
M  V30 5721 C 540.213 -1.10889 -4.14731 0
M  V30 5722 C 539.446 -0.528908 -5.31073 0
M  V30 5723 O 539.669 0.65868 -5.66584 0
M  V30 5724 O 538.603 -1.26805 -5.88391 0
M  V30 5725 H 542.429 -1.58291 -2.59187 0
M  V30 5726 H 540.014 -0.834013 -1.23954 0
M  V30 5727 H 541.896 0.264192 -4.20571 0
M  V30 5728 H 540.571 0.800015 -3.13658 0
M  V30 5729 H 539.478 -1.49896 -3.42756 0
M  V30 5730 H 540.811 -1.95412 -4.51747 0
M  V30 5731 N 542.463 1.3308 -0.844243 0
M  V30 5732 C 543.879 1.50447 -0.532729 0
M  V30 5733 C 544.079 1.78292 0.938837 0
M  V30 5734 O 543.135 1.84635 1.72239 0
M  V30 5735 C 544.448 2.65555 -1.41072 0
M  V30 5736 C 545.996 2.7944 -1.41005 0
M  V30 5737 C 546.471 3.97616 -2.27301 0
M  V30 5738 N 547.962 4.0486 -2.2504 0
M  V30 5739 C 548.697 4.95508 -2.88547 0
M  V30 5740 N 548.193 5.91236 -3.61126 0
M  V30 5741 N 549.986 4.88548 -2.77989 0
M  V30 5742 H 542.137 1.13269 -1.79677 0
M  V30 5743 H 544.4 0.55734 -0.766861 0
M  V30 5744 H 544.106 2.51675 -2.45668 0
M  V30 5745 H 543.98 3.61089 -1.09061 0
M  V30 5746 H 546.367 2.92749 -0.371784 0
M  V30 5747 H 546.448 1.8465 -1.77026 0
M  V30 5748 H 546.092 3.85066 -3.3119 0
M  V30 5749 H 546.022 4.91661 -1.88619 0
M  V30 5750 H 548.513 3.36353 -1.72264 0
M  V30 5751 H 548.826 6.57079 -4.06776 0
M  V30 5752 H 547.171 5.91295 -3.65234 0
M  V30 5753 H 550.362 4.12729 -2.20846 0
M  V30 5754 H 550.535 5.58994 -3.27765 0
M  V30 5755 N 543.941 0.601185 1.45683 0
M  V30 5756 C 545.189 0.0936957 2.01883 0
M  V30 5757 C 545.51 -1.2779 1.47291 0
M  V30 5758 O 544.78 -1.84279 0.664691 0
M  V30 5759 H 543.36 0.0316466 0.746329 0
M  V30 5760 H 546.022 0.781137 1.78562 0
M  V30 5761 H 545.118 0.0386297 3.12076 0
M  V30 5762 N 545.419 -1.53889 0.339982 0
M  V30 5763 C 546.649 -2.04973 -0.258738 0
M  V30 5764 C 547.057 -1.21485 -1.45045 0
M  V30 5765 O 546.4 -0.2422 -1.82096 0
M  V30 5766 C 546.462 -3.51783 -0.740853 0
M  V30 5767 C 546.126 -4.55802 0.330734 0
M  V30 5768 C 547.123 -5.06512 1.17226 0
M  V30 5769 C 544.808 -4.99966 0.483637 0
M  V30 5770 C 546.802 -5.99963 2.15227 0
M  V30 5771 C 544.489 -5.93229 1.46704 0
M  V30 5772 C 545.487 -6.43115 2.29981 0
M  V30 5773 O 545.175 -7.34545 3.26649 0
M  V30 5774 H 544.907 -0.673807 -0.0544037 0
M  V30 5775 H 547.461 -1.99492 0.489107 0
M  V30 5776 H 545.691 -3.54717 -1.53988 0
M  V30 5777 H 547.38 -3.85857 -1.25973 0
M  V30 5778 H 548.146 -4.73158 1.0652 0
M  V30 5779 H 544.025 -4.6074 -0.15471 0
M  V30 5780 H 547.569 -6.38825 2.80265 0
M  V30 5781 H 543.466 -6.25998 1.57468 0
M  V30 5782 H 544.234 -7.52468 3.22078 0
M  V30 5783 N 546.897 -0.0685191 -1.57451 0
M  V30 5784 C 548.122 0.613919 -1.98106 0
M  V30 5785 C 548.547 1.62551 -0.946501 0
M  V30 5786 O 547.905 1.81085 0.0882824 0
M  V30 5787 C 547.953 1.26189 -3.378 0
M  V30 5788 O 547.057 2.37773 -3.36954 0
M  V30 5789 H 546.398 0.158163 -0.644888 0
M  V30 5790 H 548.928 -0.142063 -2.04106 0
M  V30 5791 H 548.938 1.60951 -3.74912 0
M  V30 5792 H 547.613 0.520625 -4.12629 0
M  V30 5793 H 546.19 2.04829 -3.11608 0
M  V30 5794 N 548.375 1.56261 0.205012 0
M  V30 5795 C 549.305 1.96779 1.257 0
M  V30 5796 C 550.286 0.838309 1.48008 0
M  V30 5797 O 551.471 1.10189 1.59913 0
M  V30 5798 C 548.601 2.29876 2.60335 0
M  V30 5799 C 547.555 3.45469 2.52656 0
M  V30 5800 C 546.881 3.64215 3.91473 0
M  V30 5801 C 548.181 4.79954 2.06014 0
M  V30 5802 H 549.875 2.84904 0.920338 0
M  V30 5803 H 547.421 1.37072 0.441277 0
M  V30 5804 H 549.374 2.56814 3.34102 0
M  V30 5805 H 548.098 1.38622 2.95722 0
M  V30 5806 H 546.757 3.18605 1.81345 0
M  V30 5807 H 546.405 2.70309 4.24196 0
M  V30 5808 H 546.105 4.41973 3.87213 0
M  V30 5809 H 547.629 3.93519 4.66878 0
M  V30 5810 H 549.043 5.05989 2.69533 0
M  V30 5811 H 547.44 5.61111 2.12777 0
M  V30 5812 H 548.51 4.74201 1.01297 0
M  V30 5813 N 549.853 -0.472356 1.50355 0
M  V30 5814 C 551.099 -1.22634 1.6152 0
M  V30 5815 C 551.432 -1.91645 0.313995 0
M  V30 5816 O 550.707 -1.82059 -0.684446 0
M  V30 5817 C 550.99 -2.27099 2.7946 0
M  V30 5818 C 550.843 -1.62402 4.19459 0
M  V30 5819 C 552.162 -3.28421 2.92964 0
M  V30 5820 H 549.281 -0.444494 0.587873 0
M  V30 5821 H 551.923 -0.520321 1.82737 0
M  V30 5822 H 550.073 -2.87314 2.61501 0
M  V30 5823 H 551.745 -1.05793 4.49005 0
M  V30 5824 H 549.988 -0.927184 4.23776 0
M  V30 5825 H 550.659 -2.38309 4.97909 0
M  V30 5826 H 553.135 -2.78227 3.09401 0
M  V30 5827 H 552.011 -3.98845 3.77113 0
M  V30 5828 H 552.272 -3.92467 2.03525 0
M  V30 5829 N 551.331 -1.39911 -0.725443 0
M  V30 5830 C 552.556 -1.41137 -1.5197 0
M  V30 5831 C 552.981 -0.010262 -1.88097 0
M  V30 5832 O 552.339 0.979184 -1.52583 0
M  V30 5833 C 552.387 -2.2994 -2.77777 0
M  V30 5834 O 551.491 -1.73586 -3.74088 0
M  V30 5835 H 550.832 -0.480219 -0.458569 0
M  V30 5836 H 553.362 -1.84023 -0.894249 0
M  V30 5837 H 553.372 -2.44785 -3.26411 0
M  V30 5838 H 552.047 -3.31759 -2.50816 0
M  V30 5839 H 550.624 -1.68035 -3.32894 0
M  V30 5840 N 552.809 0.956637 -1.25245 0
M  V30 5841 C 554.057 1.69764 -1.09657 0
M  V30 5842 C 554.378 1.91583 0.363464 0
M  V30 5843 O 553.648 1.50149 1.25825 0
M  V30 5844 H 552.228 0.629097 -0.402798 0
M  V30 5845 H 554.89 1.15026 -1.57337 0
M  V30 5846 H 553.986 2.67769 -1.60331 0
M  V30 5847 N 554.287 1.06798 1.15896 0
M  V30 5848 C 555.535 0.786211 1.8618 0
M  V30 5849 C 555.856 -0.689547 1.82401 0
M  V30 5850 O 555.126 -1.49913 1.26107 0
M  V30 5851 H 553.706 0.287843 0.689315 0
M  V30 5852 H 556.368 1.35055 1.40521 0
M  V30 5853 H 555.464 1.1157 2.91477 0
M  V30 5854 N 555.766 -1.3263 0.851289 0
M  V30 5855 C 556.994 -2.01563 0.466899 0
M  V30 5856 C 557.409 -1.63996 -0.935447 0
M  V30 5857 O 556.766 -0.85957 -1.6099 0
M  V30 5858 C 556.817 -3.56613 0.592433 0
M  V30 5859 O 556.538 -3.92828 1.93954 0
M  V30 5860 C 558.039 -4.42818 0.206612 0
M  V30 5861 H 555.259 -0.645307 0.183902 0
M  V30 5862 H 557.803 -1.69285 1.1473 0
M  V30 5863 H 555.958 -3.87379 -0.0401936 0
M  V30 5864 H 556.372 -4.87545 1.9339 0
M  V30 5865 H 557.846 -5.50918 0.345462 0
M  V30 5866 H 558.323 -4.30844 -0.85264 0
M  V30 5867 H 558.929 -4.17434 0.814176 0
M  V30 5868 N 557.244 -0.608902 -1.45362 0
M  V30 5869 C 558.521 -0.0365378 -1.95566 0
M  V30 5870 C 558.901 1.43169 -1.55131 0
M  V30 5871 O 558.249 2.1349 -0.814513 0
M  V30 5872 C 558.459 -0.236026 -3.48201 0
M  V30 5873 C 559.807 -0.117518 -4.24437 0
M  V30 5874 O 560.831 -0.166217 -3.55812 0
M  V30 5875 O 559.69 -0.00372127 -5.465 0
M  V30 5876 H 556.784 0.0349874 -0.82626 0
M  V30 5877 H 559.33 -0.679055 -1.55521 0
M  V30 5878 H 558.102 -1.25569 -3.70605 0
M  V30 5879 H 557.725 0.441691 -3.95139 0
M  V30 5880 N 558.722 1.53707 -0.348139 0
M  V30 5881 C 559.67 2.26671 0.521808 0
M  V30 5882 C 560.664 1.28988 1.09811 0
M  V30 5883 O 561.87 1.4668 1.04332 0
M  V30 5884 H 558.245 0.728387 0.186968 0
M  V30 5885 H 560.216 2.98176 -0.115563 0
M  V30 5886 C 558.965 3.05591 1.6586 0
M  V30 5887 H 558.288 3.80589 1.22443 0
M  V30 5888 H 559.728 3.59851 2.24239 0
M  V30 5889 C 558.187 2.15366 2.59073 0
M  V30 5890 O 558.717 1.7528 3.61441 0
M  V30 5891 N 556.923 1.80352 2.27863 0
M  V30 5892 H 556.47 2.13149 1.44656 0
M  V30 5893 H 556.428 1.20268 2.90488 0
M  V30 5894 N 560.2 0.0768682 1.57412 0
M  V30 5895 C 561.15 -0.898795 2.09537 0
M  V30 5896 C 562.134 -1.25556 1.0062 0
M  V30 5897 O 563.326 -1.23369 1.26921 0
M  V30 5898 C 560.455 -2.16453 2.66464 0
M  V30 5899 C 559.541 -1.83401 3.82393 0
M  V30 5900 N 559.932 -1.20823 4.91157 0
M  V30 5901 C 558.23 -2.13121 3.91785 0
M  V30 5902 C 558.931 -1.05976 5.71965 0
M  V30 5903 N 557.907 -1.57113 5.204 0
M  V30 5904 H 561.709 -0.410718 2.91016 0
M  V30 5905 H 559.223 -0.126878 1.61904 0
M  V30 5906 H 561.22 -2.87274 3.02125 0
M  V30 5907 H 559.88 -2.65844 1.86433 0
M  V30 5908 H 560.891 -0.877249 5.10416 0
M  V30 5909 H 557.568 -2.64854 3.22736 0
M  V30 5910 H 558.958 -0.571809 6.69462 0
M  V30 5911 N 561.678 -1.56367 -0.196722 0
M  V30 5912 C 562.608 -1.97442 -1.24655 0
M  V30 5913 C 563.589 -0.846147 -1.47561 0
M  V30 5914 O 564.774 -1.11035 -1.59326 0
M  V30 5915 C 561.904 -2.31253 -2.59112 0
M  V30 5916 C 560.858 -3.46804 -2.50821 0
M  V30 5917 C 560.184 -3.66286 -3.89536 0
M  V30 5918 C 561.484 -4.8104 -2.03465 0
M  V30 5919 H 563.178 -2.85388 -0.905216 0
M  V30 5920 H 560.724 -1.37304 -0.434002 0
M  V30 5921 H 562.677 -2.58583 -3.32736 0
M  V30 5922 H 561.401 -1.40188 -2.94983 0
M  V30 5923 H 560.06 -3.19563 -1.79653 0
M  V30 5924 H 559.708 -2.72555 -4.22756 0
M  V30 5925 H 559.408 -4.4402 -3.84864 0
M  V30 5926 H 560.932 -3.9599 -4.64784 0
M  V30 5927 H 562.346 -5.07411 -2.66846 0
M  V30 5928 H 560.743 -5.62232 -2.09798 0
M  V30 5929 H 561.813 -4.74732 -0.98781 0
M  V30 5930 N 563.156 0.464375 -1.50603 0
M  V30 5931 C 564.402 1.21776 -1.62168 0
M  V30 5932 C 564.735 1.91476 -0.324154 0
M  V30 5933 O 564.01 1.8242 0.674782 0
M  V30 5934 C 564.293 2.25614 -2.80661 0
M  V30 5935 C 564.146 1.60175 -4.20314 0
M  V30 5936 C 565.465 3.26862 -2.94702 0
M  V30 5937 H 562.584 0.44137 -0.590222 0
M  V30 5938 H 565.226 0.510623 -1.8301 0
M  V30 5939 H 563.376 2.85923 -2.63021 0
M  V30 5940 H 565.048 1.03411 -4.4956 0
M  V30 5941 H 563.291 0.904697 -4.24261 0
M  V30 5942 H 563.962 2.35665 -4.99165 0
M  V30 5943 H 566.438 2.76582 -3.10872 0
M  V30 5944 H 565.314 3.96839 -3.79223 0
M  V30 5945 H 565.575 3.91382 -2.05603 0
M  V30 5946 N 564.634 1.40294 0.718013 0
M  V30 5947 C 565.564 1.43118 1.84498 0
M  V30 5948 C 566.545 0.292403 1.67568 0
M  V30 5949 O 567.73 0.500675 1.87635 0
M  V30 5950 C 564.86 1.29065 3.22427 0
M  V30 5951 C 563.814 2.40521 3.54025 0
M  V30 5952 C 563.14 2.11546 4.91073 0
M  V30 5953 C 564.44 3.82859 3.55269 0
M  V30 5954 H 566.134 2.37432 1.82391 0
M  V30 5955 H 563.68 1.14283 0.87609 0
M  V30 5956 H 565.633 1.29658 4.00957 0
M  V30 5957 H 564.357 0.312271 3.25104 0
M  V30 5958 H 563.016 2.39173 2.77834 0
M  V30 5959 H 562.664 1.12104 4.90348 0
M  V30 5960 H 562.364 2.86216 5.1318 0
M  V30 5961 H 563.888 2.13817 5.71939 0
M  V30 5962 H 565.302 3.86044 4.23843 0
M  V30 5963 H 563.699 4.57029 3.88902 0
M  V30 5964 H 564.769 4.12617 2.54706 0
M  V30 5965 N 566.112 -0.949982 1.2575 0
M  V30 5966 C 567.358 -1.69766 1.10938 0
M  V30 5967 C 567.691 -1.91056 -0.348028 0
M  V30 5968 O 566.966 -1.48488 -1.25625 0
M  V30 5969 C 567.249 -3.07779 1.86933 0
M  V30 5970 C 567.102 -2.9387 3.4053 0
M  V30 5971 C 568.421 -4.07749 1.65616 0
M  V30 5972 H 565.54 -0.616144 0.404396 0
M  V30 5973 H 568.182 -1.10394 1.54639 0
M  V30 5974 H 566.332 -3.58462 1.4979 0
M  V30 5975 H 568.004 -2.50476 3.87375 0
M  V30 5976 H 566.247 -2.29686 3.68004 0
M  V30 5977 H 566.918 -3.91719 3.88922 0
M  V30 5978 H 569.394 -3.65994 1.97959 0
M  V30 5979 H 568.27 -5.02348 2.21218 0
M  V30 5980 H 568.531 -4.38029 0.598595 0
M  V30 5981 N 567.59 -1.07411 -1.15328 0
M  V30 5982 C 568.867 -0.710732 -1.82231 0
M  V30 5983 C 569.247 0.806732 -1.95077 0
M  V30 5984 O 568.595 1.72139 -1.50268 0
M  V30 5985 C 568.805 -1.42586 -3.18544 0
M  V30 5986 C 570.153 -1.57836 -3.94174 0
M  V30 5987 O 571.177 -1.38669 -3.281 0
M  V30 5988 O 570.036 -1.8938 -5.12638 0
M  V30 5989 H 567.13 -0.25297 -0.78736 0
M  V30 5990 H 569.676 -1.17508 -1.22434 0
M  V30 5991 H 568.448 -2.46008 -3.04296 0
M  V30 5992 H 568.071 -0.952332 -3.86026 0
M  V30 5993 N 569.068 1.32177 -0.85831 0
M  V30 5994 C 569.998 2.31282 -0.321041 0
M  V30 5995 C 570.979 1.59841 0.581786 0
M  V30 5996 O 572.164 1.87619 0.501262 0
M  V30 5997 C 569.294 3.4385 0.48832 0
M  V30 5998 C 568.248 4.26799 -0.320391 0
M  V30 5999 C 567.574 5.31164 0.613934 0
M  V30 6000 C 568.874 4.98829 -1.54813 0
M  V30 6001 H 570.568 2.76469 -1.14915 0
M  V30 6002 H 568.114 1.32916 -0.554028 0
M  V30 6003 H 570.067 4.12224 0.874626 0
M  V30 6004 H 568.791 2.97401 1.34983 0
M  V30 6005 H 567.45 3.60077 -0.688497 0
M  V30 6006 H 567.098 4.80967 1.47239 0
M  V30 6007 H 566.798 5.8755 0.0768097 0
M  V30 6008 H 568.322 6.024 0.997336 0
M  V30 6009 H 569.736 5.59864 -1.23392 0
M  V30 6010 H 568.133 5.64957 -2.02346 0
M  V30 6011 H 569.203 4.26483 -2.30739 0
M  V30 6012 N 570.547 0.616602 1.45037 0
M  V30 6013 C 571.963 0.280994 1.57107 0
M  V30 6014 C 572.163 -1.21627 1.60653 0
M  V30 6015 O 571.219 -1.9997 1.54169 0
M  V30 6016 C 572.532 0.960116 2.8496 0
M  V30 6017 C 574.08 0.936884 2.98649 0
M  V30 6018 C 574.555 1.59619 4.29285 0
M  V30 6019 N 576.046 1.5621 4.36065 0
M  V30 6020 C 576.781 2.04131 5.35834 0
M  V30 6021 N 576.277 2.60177 6.4209 0
M  V30 6022 N 578.07 1.94845 5.27249 0
M  V30 6023 H 570.221 1.58867 1.40979 0
M  V30 6024 H 572.484 0.666024 0.674623 0
M  V30 6025 H 572.19 2.01473 2.88273 0
M  V30 6026 H 572.064 0.488921 3.74018 0
M  V30 6027 H 574.451 -0.109209 2.94898 0
M  V30 6028 H 574.532 1.44643 2.10979 0
M  V30 6029 H 574.176 2.64166 4.33796 0
M  V30 6030 H 574.106 1.06159 5.15789 0
M  V30 6031 H 576.597 1.15276 3.59889 0
M  V30 6032 H 576.91 2.94513 7.1448 0
M  V30 6033 H 575.255 2.64221 6.42816 0
M  V30 6034 H 578.446 1.50792 4.43147 0
M  V30 6035 H 578.619 2.32504 6.04852 0
M  V30 6036 N 572.025 -1.5352 0.356285 0
M  V30 6037 C 573.436 -1.86282 -0.12492 0
M  V30 6038 C 573.787 -1.27717 -1.48939 0
M  V30 6039 O 572.912 -0.595614 -2.08042 0
M  V30 6040 C 573.507 -3.37995 -0.23345 0
M  V30 6041 C 572.066 -3.70588 -0.658899 0
M  V30 6042 C 571.213 -2.76581 0.199596 0
M  V30 6043 H 574.164 -1.47901 0.575423 0
M  V30 6044 H 574.185 -3.65475 -1.0587 0
M  V30 6045 H 573.697 -3.8059 0.759776 0
M  V30 6046 H 571.798 -3.33544 -1.66069 0
M  V30 6047 H 571.911 -4.77076 -0.439957 0
M  V30 6048 H 570.275 -2.52552 -0.330076 0
M  V30 6049 H 571.058 -3.22008 1.19019 0
M  V30 6050 N 573.503 -0.0852151 -1.57369 0
M  V30 6051 C 574.45 0.877268 -2.13478 0
M  V30 6052 C 575.42 1.28642 -1.05073 0
M  V30 6053 O 576.605 1.36992 -1.32808 0
M  V30 6054 C 573.745 2.13464 -2.71159 0
M  V30 6055 C 572.858 1.77691 -3.93764 0
M  V30 6056 C 571.993 2.98139 -4.39643 0
M  V30 6057 C 571.032 2.58447 -5.54862 0
M  V30 6058 N 570.169 3.71698 -5.95639 0
M  V30 6059 H 575.009 0.391933 -2.95411 0
M  V30 6060 H 572.546 0.181796 -1.45972 0
M  V30 6061 H 574.504 2.87086 -3.02717 0
M  V30 6062 H 573.134 2.59514 -1.91969 0
M  V30 6063 H 572.186 0.940768 -3.68583 0
M  V30 6064 H 573.498 1.44497 -4.77412 0
M  V30 6065 H 572.652 3.80026 -4.72933 0
M  V30 6066 H 571.391 3.34536 -3.54876 0
M  V30 6067 H 570.396 1.74984 -5.21211 0
M  V30 6068 H 571.621 2.23205 -6.41371 0
M  V30 6069 H 569.567 4.07831 -5.13819 0
M  V30 6070 H 569.484 3.42317 -6.74059 0
M  V30 6071 H 570.752 4.54123 -6.33555 0
M  V30 6072 N 574.981 1.5647 0.188427 0
M  V30 6073 C 576.229 1.80655 0.905986 0
M  V30 6074 C 576.55 0.659391 1.83513 0
M  V30 6075 O 575.82 -0.321868 1.93238 0
M  V30 6076 H 574.4 0.666391 0.337538 0
M  V30 6077 H 577.062 1.93949 0.192339 0
M  V30 6078 H 576.158 2.74066 1.49313 0
M  V30 6079 N 576.459 -0.456382 1.50847 0
M  V30 6080 C 577.389 -1.56025 1.73719 0
M  V30 6081 C 578.37 -1.5967 0.586473 0
M  V30 6082 O 579.555 -1.75702 0.827185 0
M  V30 6083 C 576.685 -2.94251 1.84483 0
M  V30 6084 C 575.639 -3.05471 2.99786 0
M  V30 6085 C 574.965 -4.45489 2.95709 0
M  V30 6086 C 576.265 -2.81318 4.40065 0
M  V30 6087 H 577.959 -1.37138 2.66146 0
M  V30 6088 H 575.505 -0.658299 1.28072 0
M  V30 6089 H 577.458 -3.71417 1.99067 0
M  V30 6090 H 576.182 -3.14328 0.886891 0
M  V30 6091 H 574.841 -2.30741 2.84876 0
M  V30 6092 H 574.489 -4.62505 1.97732 0
M  V30 6093 H 574.189 -4.53929 3.73125 0
M  V30 6094 H 575.713 -5.24655 3.12362 0
M  V30 6095 H 577.127 -3.48226 4.55425 0
M  V30 6096 H 575.524 -3.01188 5.19043 0
M  V30 6097 H 576.594 -1.7706 4.51418 0
M  V30 6098 N 577.937 -1.40673 -0.710563 0
M  V30 6099 C 579.214 -1.29718 -1.46398 0
M  V30 6100 C 579.594 0.082177 -2.1094 0
M  V30 6101 O 578.942 1.09536 -2.00534 0
M  V30 6102 C 579.152 -2.43967 -2.49562 0
M  V30 6103 C 580.5 -2.84436 -3.15248 0
M  V30 6104 O 581.524 -2.43597 -2.59883 0
M  V30 6105 O 580.383 -3.55008 -4.1549 0
M  V30 6106 H 577.477 -0.509697 -0.651258 0
M  V30 6107 H 580.023 -1.52603 -0.742312 0
M  V30 6108 H 578.795 -3.36076 -2.0042 0
M  V30 6109 H 578.418 -2.22879 -3.29258 0
M  V30 6110 N 579.415 0.9433 -1.26252 0
M  V30 6111 C 580.663 1.68592 -1.11451 0
M  V30 6112 C 580.984 1.91957 0.343123 0
M  V30 6113 O 580.254 1.51475 1.24226 0
M  V30 6114 H 578.834 0.624789 -0.409448 0
M  V30 6115 H 581.496 1.13351 -1.58548 0
M  V30 6116 H 580.592 2.66054 -1.63162 0
M  V30 6117 N 580.893 1.08022 1.14757 0
M  V30 6118 C 581.856 0.71048 2.1791 0
M  V30 6119 C 582.856 -0.252731 1.58801 0
M  V30 6120 O 584.046 -0.0327915 1.74169 0
M  V30 6121 C 581.178 0.0483203 3.40866 0
M  V30 6122 H 582.371 1.62384 2.52134 0
M  V30 6123 H 579.924 0.877595 1.29337 0
M  V30 6124 H 580.659 -0.876959 3.12218 0
M  V30 6125 H 580.444 0.741189 3.85031 0
M  V30 6126 H 581.934 -0.195471 4.17142 0
M  V30 6127 N 582.371 -1.3172 0.865308 0
M  V30 6128 C 583.787 -1.4958 0.556596 0
M  V30 6129 C 583.987 -1.79763 -0.910353 0
M  V30 6130 O 583.043 -1.87351 -1.6928 0
M  V30 6131 C 584.356 -2.63277 1.45279 0
M  V30 6132 C 585.904 -2.77161 1.45433 0
M  V30 6133 C 586.379 -3.93949 2.33598 0
M  V30 6134 N 587.87 -4.01228 2.31453 0
M  V30 6135 C 588.605 -4.90855 2.96393 0
M  V30 6136 N 588.101 -5.85416 3.70486 0
M  V30 6137 N 589.894 -4.84063 2.85726 0
M  V30 6138 H 582.045 -1.10396 1.81456 0
M  V30 6139 H 584.308 -0.54507 0.775631 0
M  V30 6140 H 584.014 -2.47734 2.49641 0
M  V30 6141 H 583.888 -3.59309 1.14792 0
M  V30 6142 H 586.275 -2.9212 0.41831 0
M  V30 6143 H 586.356 -1.8181 1.79941 0
M  V30 6144 H 586 -3.79748 3.37274 0
M  V30 6145 H 585.93 -4.88598 1.96417 0
M  V30 6146 H 588.421 -3.3357 1.77593 0
M  V30 6147 H 588.734 -6.50525 4.17178 0
M  V30 6148 H 587.079 -5.85409 3.74594 0
M  V30 6149 H 590.27 -4.09163 2.27384 0
M  V30 6150 H 590.443 -5.53708 3.36617 0
M  V30 6151 N 583.85 -0.624285 -1.44708 0
M  V30 6152 C 584.812 0.0749638 -2.29077 0
M  V30 6153 C 585.812 0.778965 -1.40673 0
M  V30 6154 O 587.003 0.624591 -1.62618 0
M  V30 6155 C 584.135 1.11663 -3.22094 0
M  V30 6156 H 585.327 -0.667013 -2.92388 0
M  V30 6157 H 582.88 -0.384098 -1.51507 0
M  V30 6158 H 583.615 1.88881 -2.63618 0
M  V30 6159 H 583.401 0.61583 -3.87234 0
M  V30 6160 H 584.891 1.60585 -3.8549 0
M  V30 6161 N 585.328 1.53329 -0.364422 0
M  V30 6162 C 586.238 2.29414 0.490552 0
M  V30 6163 C 587.254 1.35335 1.09363 0
M  V30 6164 O 588.43 1.68391 1.10483 0
M  V30 6165 C 585.495 3.06772 1.61529 0
M  V30 6166 C 584.556 4.16516 1.03986 0
M  V30 6167 C 583.789 4.90176 2.111 0
M  V30 6168 O 584.012 4.63687 3.32191 0
M  V30 6169 O 582.946 5.76134 1.74222 0
M  V30 6170 H 586.772 3.03428 -0.12856 0
M  V30 6171 H 584.357 1.48843 -0.128837 0
M  V30 6172 H 586.239 3.55082 2.26924 0
M  V30 6173 H 584.914 2.35596 2.21983 0
M  V30 6174 H 583.821 3.7246 0.349856 0
M  V30 6175 H 585.154 4.89855 0.4799 0
M  V30 6176 N 586.806 0.0935595 1.57322 0
M  V30 6177 C 588.222 -0.263091 1.57417 0
M  V30 6178 C 588.422 -1.68526 1.1046 0
M  V30 6179 O 587.478 -2.40139 0.780357 0
M  V30 6180 C 588.791 -0.0529201 3.00653 0
M  V30 6181 C 590.339 -0.120788 3.12767 0
M  V30 6182 C 590.814 0.0613707 4.57959 0
M  V30 6183 N 592.305 0.00648534 4.632 0
M  V30 6184 C 593.04 0.122699 5.73269 0
M  V30 6185 N 592.536 0.29366 6.92177 0
M  V30 6186 N 594.329 0.0640787 5.62063 0
M  V30 6187 H 586.48 1.02277 1.86154 0
M  V30 6188 H 588.743 0.4007 0.859153 0
M  V30 6189 H 588.449 0.929279 3.39201 0
M  V30 6190 H 588.323 -0.795899 3.68708 0
M  V30 6191 H 590.71 -1.09349 2.74093 0
M  V30 6192 H 590.791 0.653656 2.47307 0
M  V30 6193 H 590.435 1.03093 4.97327 0
M  V30 6194 H 590.365 -0.732748 5.21477 0
M  V30 6195 H 592.856 -0.123173 3.77699 0
M  V30 6196 H 593.169 0.37389 7.71895 0
M  V30 6197 H 591.514 0.329307 6.94219 0
M  V30 6198 H 594.705 -0.0683396 4.6805 0
M  V30 6199 H 594.878 0.158097 6.47807 0
M  V30 6200 N 588.284 -1.56567 -0.180126 0
M  V30 6201 C 589.53 -1.81761 -0.899497 0
M  V30 6202 C 589.863 -0.670015 -1.82276 0
M  V30 6203 O 589.138 0.328575 -1.91705 0
M  V30 6204 C 589.421 -3.17296 -1.7028 0
M  V30 6205 C 589.274 -4.4257 -0.803255 0
M  V30 6206 C 590.593 -3.49678 -2.67233 0
M  V30 6207 H 587.712 -0.661192 -0.325567 0
M  V30 6208 H 590.354 -1.89272 -0.16612 0
M  V30 6209 H 588.504 -3.11023 -2.32802 0
M  V30 6210 H 590.176 -4.60902 -0.191585 0
M  V30 6211 H 588.419 -4.33658 -0.110796 0
M  V30 6212 H 589.09 -5.33935 -1.40064 0
M  V30 6213 H 591.566 -3.56347 -2.14839 0
M  V30 6214 H 590.442 -4.45605 -3.20511 0
M  V30 6215 H 590.703 -2.73932 -3.47007 0
M  V30 6216 N 589.762 0.448376 -1.51087 0
M  V30 6217 C 590.692 1.55102 -1.74544 0
M  V30 6218 C 591.673 1.59357 -0.594932 0
M  V30 6219 O 592.858 1.75261 -0.836491 0
M  V30 6220 C 589.988 2.93268 -1.86041 0
M  V30 6221 C 588.942 3.03877 -3.01402 0
M  V30 6222 C 588.268 4.43914 -2.98068 0
M  V30 6223 C 589.568 2.7898 -4.41551 0
M  V30 6224 H 591.262 1.35724 -2.66869 0
M  V30 6225 H 588.808 0.651498 -1.28419 0
M  V30 6226 H 590.761 3.70356 -2.01034 0
M  V30 6227 H 589.485 3.13853 -0.903548 0
M  V30 6228 H 588.144 2.29227 -2.86096 0
M  V30 6229 H 587.792 4.6145 -2.00182 0
M  V30 6230 H 587.492 4.51944 -3.75527 0
M  V30 6231 H 589.016 5.22991 -3.1514 0
M  V30 6232 H 590.43 3.45805 -4.57265 0
M  V30 6233 H 588.827 2.98431 -5.20633 0
M  V30 6234 H 589.897 1.74663 -4.5235 0
M  V30 6235 N 591.24 1.41047 0.703093 0
M  V30 6236 C 592.15 1.44645 1.84703 0
M  V30 6237 C 593.166 0.337778 1.7069 0
M  V30 6238 O 594.342 0.584327 1.92737 0
M  V30 6239 C 591.407 1.31928 3.20618 0
M  V30 6240 C 590.468 2.53047 3.46794 0
M  V30 6241 C 589.701 2.40927 4.76224 0
M  V30 6242 O 589.924 1.42978 5.5219 0
M  V30 6243 O 588.858 3.30543 5.03016 0
M  V30 6244 H 592.684 2.41139 1.84624 0
M  V30 6245 H 590.269 1.22504 0.855167 0
M  V30 6246 H 592.151 1.27092 4.01778 0
M  V30 6247 H 590.826 0.385469 3.21397 0
M  V30 6248 H 589.733 2.6346 2.65593 0
M  V30 6249 H 591.066 3.45231 3.50822 0
M  V30 6250 N 592.718 -0.936591 1.26751 0
M  V30 6251 C 593.648 -2.05315 1.11212 0
M  V30 6252 C 594.629 -1.70092 0.0160262 0
M  V30 6253 O 595.814 -1.93279 0.188894 0
M  V30 6254 C 592.944 -3.39123 0.749171 0
M  V30 6255 C 591.898 -3.88425 1.79751 0
M  V30 6256 C 591.224 -5.18936 1.28876 0
M  V30 6257 C 592.524 -4.12798 3.19992 0
M  V30 6258 H 594.218 -2.18573 2.04613 0
M  V30 6259 H 591.764 -1.05027 0.985159 0
M  V30 6260 H 593.717 -4.16704 0.627323 0
M  V30 6261 H 592.441 -3.25855 -0.220543 0
M  V30 6262 H 591.1 -3.13028 1.90811 0
M  V30 6263 H 590.748 -5.02051 0.308757 0
M  V30 6264 H 590.448 -5.52892 1.98958 0
M  V30 6265 H 591.972 -5.99096 1.17967 0
M  V30 6266 H 593.386 -4.80977 3.11983 0
M  V30 6267 H 591.783 -4.58044 3.87705 0
M  V30 6268 H 592.853 -3.18412 3.65707 0
M  V30 6269 N 594.196 -1.08629 -1.14182 0
M  V30 6270 C 595.442 -0.818556 -1.85546 0
M  V30 6271 C 595.775 0.654076 -1.82854 0
M  V30 6272 O 595.05 1.48099 -1.26083 0
M  V30 6273 C 595.333 -1.34397 -3.3408 0
M  V30 6274 C 595.186 -2.8821 -3.45333 0
M  V30 6275 C 596.505 -0.971069 -4.29253 0
M  V30 6276 H 593.624 -0.298821 -0.673702 0
M  V30 6277 H 596.266 -1.34629 -1.34071 0
M  V30 6278 H 594.416 -0.895064 -3.78049 0
M  V30 6279 H 596.088 -3.41488 -3.10134 0
M  V30 6280 H 594.331 -3.25756 -2.86471 0
M  V30 6281 H 595.002 -3.20047 -4.49749 0
M  V30 6282 H 597.478 -1.35809 -3.93313 0
M  V30 6283 H 596.354 -1.36586 -5.31635 0
M  V30 6284 H 596.615 0.121659 -4.41933 0
M  V30 6285 N 595.674 1.31259 -0.872281 0
M  V30 6286 C 596.899 2.0133 -0.498099 0
M  V30 6287 C 597.324 1.65031 0.902568 0
M  V30 6288 O 596.682 0.860164 1.59596 0
M  V30 6289 C 596.73 3.54411 -0.665205 0
M  V30 6290 O 595.834 4.11347 0.294473 0
M  V30 6291 H 595.175 0.633844 -0.197832 0
M  V30 6292 H 597.705 1.67402 -1.17633 0
M  V30 6293 H 597.715 4.04147 -0.559373 0
M  V30 6294 H 596.39 3.80171 -1.68651 0
M  V30 6295 H 594.967 3.72624 0.143403 0
M  V30 6296 N 597.152 0.631951 1.44375 0
M  V30 6297 C 598.401 0.134214 2.01253 0
M  V30 6298 C 598.714 -1.25171 1.50305 0
M  V30 6299 O 599.92 -1.8435 1.99317 0
M  V30 6300 C 598.376 0.189187 3.59402 0
M  V30 6301 C 597.984 1.57647 4.19346 0
M  V30 6302 C 599.728 -0.252044 4.23751 0
M  V30 6303 C 597.635 1.58651 5.69722 0
M  V30 6304 H 596.565 0.0464101 0.75257 0
M  V30 6305 H 599.216 0.790868 1.65582 0
M  V30 6306 H 597.598 -0.534584 3.92375 0
M  V30 6307 H 598.772 2.32389 3.97909 0
M  V30 6308 H 597.087 1.96186 3.67288 0
M  V30 6309 H 599.684 -0.264084 5.34047 0
M  V30 6310 H 600.027 -1.27951 3.96149 0
M  V30 6311 H 600.56 0.41926 3.95584 0
M  V30 6312 H 597.299 2.59237 6.0206 0
M  V30 6313 H 596.819 0.882039 5.93279 0
M  V30 6314 H 598.498 1.32082 6.33375 0
M  V30 6315 N 598.631 -1.53133 0.372548 0
M  V30 6316 C 599.859 -2.05774 -0.215515 0
M  V30 6317 C 600.274 -1.24555 -1.41886 0
M  V30 6318 O 599.631 -0.287951 -1.80214 0
M  V30 6319 C 599.682 -3.5645 -0.602161 0
M  V30 6320 O 599.403 -4.34591 0.553359 0
M  V30 6321 C 600.904 -4.25374 -1.24787 0
M  V30 6322 H 598.124 -0.670009 -0.0364529 0
M  V30 6323 H 600.668 -1.97434 0.532934 0
M  V30 6324 H 598.823 -3.64918 -1.30052 0
M  V30 6325 H 599.237 -5.23954 0.239336 0
M  V30 6326 H 600.711 -5.32097 -1.46891 0
M  V30 6327 H 601.188 -3.79531 -2.21026 0
M  V30 6328 H 601.794 -4.21177 -0.590752 0
M  V30 6329 N 600.109 -0.101901 -1.5727 0
M  V30 6330 C 601.072 0.840129 -2.13247 0
M  V30 6331 C 602.072 1.20625 -1.06331 0
M  V30 6332 O 603.262 1.13456 -1.32186 0
M  V30 6333 C 600.394 2.13372 -2.65867 0
M  V30 6334 H 601.587 0.353945 -2.97804 0
M  V30 6335 H 599.14 0.147167 -1.55606 0
M  V30 6336 H 599.875 2.66461 -1.84849 0
M  V30 6337 H 599.66 1.88085 -3.44044 0
M  V30 6338 H 601.15 2.80748 -3.09145 0
M  V30 6339 N 601.587 1.56661 0.17182 0
M  V30 6340 C 602.535 1.97289 1.23207 0
M  V30 6341 C 603.529 0.861566 1.45854 0
M  V30 6342 O 604.735 1.04668 1.4644 0
M  V30 6343 H 601.11 0.627681 0.41415 0
M  V30 6344 H 603.081 2.85662 0.862542 0
M  V30 6345 C 601.83 2.34849 2.564 0
M  V30 6346 H 601.153 3.19903 2.39797 0
M  V30 6347 H 602.593 2.67121 3.29276 0
M  V30 6348 C 601.052 1.19172 3.15119 0
M  V30 6349 O 601.582 0.479113 3.98833 0
M  V30 6350 N 599.788 0.962415 2.74201 0
M  V30 6351 H 599.335 1.54365 2.06226 0
M  V30 6352 H 599.293 0.190272 3.13824 0
M  V30 6353 N 603.065 -0.440357 1.51323 0
M  V30 6354 C 604.012 -1.53429 1.72419 0
M  V30 6355 C 604.982 -1.56165 0.565826 0
M  V30 6356 O 606.167 -1.73222 0.799917 0
M  V30 6357 C 603.307 -2.91169 1.85242 0
M  V30 6358 C 602.42 -2.97985 3.12777 0
M  V30 6359 C 601.555 -4.26829 3.16212 0
M  V30 6360 C 600.594 -4.27501 4.38074 0
M  V30 6361 N 599.731 -5.47866 4.39076 0
M  V30 6362 H 604.571 -1.34743 2.65797 0
M  V30 6363 H 602.108 -0.654608 1.31732 0
M  V30 6364 H 604.066 -3.71087 1.90658 0
M  V30 6365 H 602.696 -3.0842 0.952744 0
M  V30 6366 H 601.748 -2.10749 3.16685 0
M  V30 6367 H 603.06 -2.94342 4.02696 0
M  V30 6368 H 602.214 -5.15118 3.20527 0
M  V30 6369 H 600.953 -4.33124 2.24176 0
M  V30 6370 H 599.958 -3.37606 4.33938 0
M  V30 6371 H 601.183 -4.22873 5.31371 0
M  V30 6372 H 599.129 -5.54887 3.49909 0
M  V30 6373 H 599.046 -5.46091 5.22801 0
M  V30 6374 H 600.314 -6.38195 4.4758 0
M  V30 6375 N 604.543 -1.41418 -0.695603 0
M  V30 6376 C 605.491 -1.43467 -1.83084 0
M  V30 6377 C 606.485 -0.312719 -1.66489 0
M  V30 6378 O 607.691 -0.484744 -1.7335 0
M  V30 6379 H 604.066 -0.448891 -0.603325 0
M  V30 6380 H 606.037 -2.39144 -1.78473 0
M  V30 6381 C 604.786 -1.3337 -3.21104 0
M  V30 6382 H 604.109 -2.18989 -3.3449 0
M  V30 6383 H 605.549 -1.38865 -4.00615 0
M  V30 6384 C 604.008 -0.0460484 -3.36869 0
M  V30 6385 O 604.538 0.909258 -3.91274 0
M  V30 6386 N 602.744 0.0300222 -2.90584 0
M  V30 6387 H 602.291 -0.748129 -2.46497 0
M  V30 6388 H 602.249 0.890991 -3.01511 0
M  V30 6389 N 606.021 0.929856 -1.27246 0
M  V30 6390 C 607.249 1.71144 -1.16265 0
M  V30 6391 C 607.664 1.867 0.280786 0
M  V30 6392 O 607.021 1.38249 1.19136 0
M  V30 6393 C 607.072 3.11222 -1.83911 0
M  V30 6394 O 606.793 2.96398 -3.22614 0
M  V30 6395 C 608.294 4.05541 -1.79028 0
M  V30 6396 H 605.514 0.535499 -0.404328 0
M  V30 6397 H 608.058 1.16492 -1.68077 0
M  V30 6398 H 606.213 3.6274 -1.36009 0
M  V30 6399 H 606.627 3.8494 -3.56261 0
M  V30 6400 H 608.101 5.01351 -2.30978 0
M  V30 6401 H 608.578 4.32589 -0.759168 0
M  V30 6402 H 609.184 3.59947 -2.26535 0
M  V30 6403 N 607.499 1.09233 1.13605 0
M  V30 6404 C 608.739 0.836786 1.86487 0
M  V30 6405 C 609.103 -0.626191 1.81502 0
M  V30 6406 O 610.304 -0.99758 2.49603 0
M  V30 6407 C 608.575 1.35476 3.30728 0
M  V30 6408 S 610.134 1.2328 4.21126 0
M  V30 6409 H 606.952 0.302702 0.643345 0
M  V30 6410 H 609.554 1.3953 1.36936 0
M  V30 6411 H 608.258 2.41381 3.31909 0
M  V30 6412 H 607.789 0.792286 3.85339 0
M  V30 6413 H 609.804 0.182468 4.95864 0
M  V30 6414 N 608.977 -1.30795 0.87923 0
M  V30 6415 C 610.388 -1.78535 0.546093 0
M  V30 6416 C 610.739 -1.72354 -0.937467 0
M  V30 6417 O 609.864 -1.2969 -1.73233 0
M  V30 6418 C 610.459 -3.24181 0.9845 0
M  V30 6419 C 609.018 -3.69779 0.702871 0
M  V30 6420 C 608.165 -2.51377 1.17068 0
M  V30 6421 H 611.116 -1.17746 1.06403 0
M  V30 6422 H 611.137 -3.79227 0.311045 0
M  V30 6423 H 610.649 -3.28647 2.06429 0
M  V30 6424 H 608.75 -3.70806 -0.365166 0
M  V30 6425 H 608.863 -4.61507 1.28639 0
M  V30 6426 H 607.227 -2.47768 0.590172 0
M  V30 6427 H 608.01 -2.58584 2.25808 0
M  V30 6428 N 610.455 -0.639598 -1.44038 0
M  V30 6429 C 611.703 -0.147188 -2.01563 0
M  V30 6430 C 612.024 1.2384 -1.50628 0
M  V30 6431 O 611.294 1.82452 -0.713316 0
M  V30 6432 H 609.874 -0.0514231 -0.745228 0
M  V30 6433 H 612.536 -0.828205 -1.76428 0
M  V30 6434 H 611.632 -0.121358 -3.11864 0
M  V30 6435 N 611.933 1.52934 -0.380664 0
M  V30 6436 C 613.21 1.93845 0.261417 0
M  V30 6437 C 613.59 1.31544 1.65104 0
M  V30 6438 O 612.938 0.480234 2.23397 0
M  V30 6439 C 613.148 3.47739 0.296466 0
M  V30 6440 C 614.496 4.21284 0.529578 0
M  V30 6441 O 615.52 3.54199 0.377041 0
M  V30 6442 O 614.379 5.40195 0.827753 0
M  V30 6443 H 611.473 0.811318 0.160285 0
M  V30 6444 H 614.019 1.64042 -0.434544 0
M  V30 6445 H 612.791 3.85395 -0.67724 0
M  V30 6446 H 612.414 3.8382 1.0377 0
M  V30 6447 N 613.412 0.11024 1.57214 0
M  V30 6448 C 614.828 -0.24638 1.57687 0
M  V30 6449 C 615.028 -1.67344 1.12241 0
M  V30 6450 O 614.084 -2.39298 0.805783 0
M  V30 6451 C 615.397 -0.0210288 3.00693 0
M  V30 6452 C 616.945 -0.0876077 3.12877 0
M  V30 6453 C 617.42 0.10994 4.57868 0
M  V30 6454 N 618.911 0.0556135 4.63167 0
M  V30 6455 C 619.646 0.183495 5.73106 0
M  V30 6456 N 619.142 0.367058 6.91827 0
M  V30 6457 N 620.935 0.123689 5.61964 0
M  V30 6458 H 613.086 1.04246 1.85058 0
M  V30 6459 H 615.349 0.40979 0.854854 0
M  V30 6460 H 615.055 0.965203 3.38196 0
M  V30 6461 H 614.929 -0.756748 3.69531 0
M  V30 6462 H 617.316 -1.06436 2.75237 0
M  V30 6463 H 617.397 0.67985 2.466 0
M  V30 6464 H 617.041 1.08362 4.96206 0
M  V30 6465 H 616.971 -0.677397 5.22225 0
M  V30 6466 H 619.462 -0.0831062 3.77809 0
M  V30 6467 H 619.775 0.455739 7.71455 0
M  V30 6468 H 618.12 0.40292 6.93831 0
M  V30 6469 H 621.311 -0.0186928 4.68096 0
M  V30 6470 H 621.484 0.226797 6.47603 0
M  V30 6471 N 614.89 -1.56749 -0.16351 0
M  V30 6472 C 616.115 -1.86938 -0.898264 0
M  V30 6473 C 616.54 -0.697456 -1.74692 0
M  V30 6474 O 615.898 0.353327 -1.77824 0
M  V30 6475 C 615.946 -3.15599 -1.74441 0
M  V30 6476 O 615.05 -2.98371 -2.8469 0
M  V30 6477 H 614.391 -0.614659 -0.251178 0
M  V30 6478 H 616.921 -2.03979 -0.159298 0
M  V30 6479 H 616.931 -3.47202 -2.14277 0
M  V30 6480 H 615.606 -4.00505 -1.1211 0
M  V30 6481 H 614.183 -2.7814 -2.4838 0
M  V30 6482 N 616.368 0.432326 -1.51554 0
M  V30 6483 C 617.331 1.50765 -1.72634 0
M  V30 6484 C 618.331 1.49334 -0.596314 0
M  V30 6485 O 619.521 1.51268 -0.863925 0
M  V30 6486 C 616.653 2.90284 -1.7874 0
M  V30 6487 H 617.846 1.33377 -2.68609 0
M  V30 6488 H 615.399 0.661329 -1.4162 0
M  V30 6489 H 616.134 3.13071 -0.845977 0
M  V30 6490 H 615.919 2.92727 -2.6087 0
M  V30 6491 H 617.409 3.68282 -1.96871 0
M  V30 6492 N 617.846 1.41785 0.688094 0
M  V30 6493 C 619.095 1.4084 1.44385 0
M  V30 6494 C 619.408 0.0234166 1.95586 0
M  V30 6495 O 620.614 -0.108647 2.71283 0
M  V30 6496 C 619.07 2.47675 2.61123 0
M  V30 6497 C 618.678 3.92116 2.16677 0
M  V30 6498 C 620.422 2.55877 3.38714 0
M  V30 6499 C 618.329 4.90487 3.30419 0
M  V30 6500 H 617.259 0.523787 0.542368 0
M  V30 6501 H 619.91 1.6764 0.74627 0
M  V30 6502 H 618.292 2.14018 3.33185 0
M  V30 6503 H 619.466 4.35059 1.51856 0
M  V30 6504 H 617.781 3.87642 1.5206 0
M  V30 6505 H 620.378 3.26553 4.234 0
M  V30 6506 H 620.721 1.59801 3.84408 0
M  V30 6507 H 621.254 2.88662 2.73714 0
M  V30 6508 H 617.993 5.87994 2.89729 0
M  V30 6509 H 617.513 4.52187 3.94065 0
M  V30 6510 H 619.192 5.11591 3.96085 0
M  V30 6511 N 619.324 -0.923095 1.27737 0
M  V30 6512 C 620.552 -1.70525 1.17171 0
M  V30 6513 C 620.967 -1.86847 -0.270881 0
M  V30 6514 O 620.324 -1.38879 -1.18401 0
M  V30 6515 C 620.375 -3.10242 1.85559 0
M  V30 6516 O 620.096 -2.94683 3.24182 0
M  V30 6517 C 621.597 -4.04586 1.81176 0
M  V30 6518 H 618.817 -0.533347 0.407163 0
M  V30 6519 H 621.361 -1.15599 1.68692 0
M  V30 6520 H 619.516 -3.62014 1.3793 0
M  V30 6521 H 619.93 -3.83045 3.58297 0
M  V30 6522 H 621.404 -5.00119 2.33633 0
M  V30 6523 H 621.881 -4.3218 0.782099 0
M  V30 6524 H 622.487 -3.58741 2.2844 0
M  V30 6525 N 620.802 -1.09834 -1.13024 0
M  V30 6526 C 622.213 -0.855651 -1.65938 0
M  V30 6527 C 622.564 0.615159 -1.86307 0
M  V30 6528 O 621.689 1.47335 -1.58497 0
M  V30 6529 C 622.284 -1.5467 -3.01434 0
M  V30 6530 C 620.843 -1.35088 -3.51323 0
M  V30 6531 C 619.99 -1.6001 -2.26478 0
M  V30 6532 H 622.941 -1.25691 -0.968889 0
M  V30 6533 H 622.962 -0.982179 -3.67605 0
M  V30 6534 H 622.474 -2.61715 -2.86578 0
M  V30 6535 H 620.575 -0.30179 -3.71376 0
M  V30 6536 H 620.688 -2.0886 -4.31178 0
M  V30 6537 H 619.052 -1.02246 -2.33276 0
M  V30 6538 H 619.835 -2.68293 -2.14182 0
M  V30 6539 N 622.28 1.30327 -0.886154 0
M  V30 6540 C 623.528 1.9571 -0.504195 0
M  V30 6541 C 623.849 1.70294 0.950003 0
M  V30 6542 O 623.119 1.02718 1.66811 0
M  V30 6543 H 621.699 0.72412 -0.183465 0
M  V30 6544 H 624.361 1.58835 -1.12949 0
M  V30 6545 H 623.457 3.04704 -0.675431 0
M  V30 6546 N 623.758 0.647228 1.43697 0
M  V30 6547 C 625.006 0.157876 2.01482 0
M  V30 6548 C 625.327 -1.23039 1.51282 0
M  V30 6549 O 624.597 -1.82071 0.722982 0
M  V30 6550 H 623.177 0.0553745 0.744945 0
M  V30 6551 H 625.839 0.83755 1.75986 0
M  V30 6552 H 624.935 0.137895 3.11795 0
M  V30 6553 N 625.236 -1.5273 0.388769 0
M  V30 6554 C 626.166 -2.29353 -0.438111 0
M  V30 6555 C 627.147 -1.32719 -1.06394 0
M  V30 6556 O 628.332 -1.61612 -1.07681 0
M  V30 6557 C 625.462 -3.09995 -1.56589 0
M  V30 6558 C 624.416 -4.14509 -1.06613 0
M  V30 6559 C 623.742 -4.83372 -2.28594 0
M  V30 6560 C 625.042 -5.22127 -0.134459 0
M  V30 6561 H 626.736 -2.98723 0.201206 0
M  V30 6562 H 624.282 -1.43665 0.0982089 0
M  V30 6563 H 626.235 -3.62357 -2.15118 0
M  V30 6564 H 624.959 -2.38357 -2.23279 0
M  V30 6565 H 623.618 -3.63128 -0.503383 0
M  V30 6566 H 623.266 -4.08283 -2.93792 0
M  V30 6567 H 622.966 -5.54012 -1.95817 0
M  V30 6568 H 624.49 -5.38538 -2.87766 0
M  V30 6569 H 625.904 -5.69851 -0.627914 0
M  V30 6570 H 624.301 -6.00011 0.103534 0
M  V30 6571 H 625.371 -4.77971 0.816798 0
M  V30 6572 N 626.714 -0.118576 -1.57153 0
M  V30 6573 C 628.13 0.238014 -1.57815 0
M  V30 6574 C 628.33 1.66747 -1.13127 0
M  V30 6575 O 627.386 2.38867 -0.818462 0
M  V30 6576 C 628.699 0.00508207 -3.007 0
M  V30 6577 C 630.247 0.0710139 -3.12919 0
M  V30 6578 C 630.722 -0.13422 -4.57803 0
M  V30 6579 N 632.213 -0.0801755 -4.63131 0
M  V30 6580 C 632.948 -0.213885 -5.73001 0
M  V30 6581 N 632.444 -0.403742 -6.91623 0
M  V30 6582 N 634.237 -0.15349 -5.6189 0
M  V30 6583 H 626.388 -1.05226 -1.84503 0
M  V30 6584 H 628.651 -0.414318 -0.852669 0
M  V30 6585 H 628.357 -0.983125 -3.3768 0
M  V30 6586 H 628.231 0.73714 -3.69927 0
M  V30 6587 H 630.618 1.04975 -2.75798 0
M  V30 6588 H 630.699 -0.692918 -2.46236 0
M  V30 6589 H 630.343 -1.10992 -4.95624 0
M  V30 6590 H 630.273 0.649692 -5.22577 0
M  V30 6591 H 632.764 0.0630689 -3.77847 0
M  V30 6592 H 633.077 -0.496645 -7.71202 0
M  V30 6593 H 631.422 -0.43971 -6.93608 0
M  V30 6594 H 634.613 -0.00613174 -4.681 0
M  V30 6595 H 634.786 -0.261138 -6.47474 0
M  V30 6596 N 628.193 1.56834 0.155195 0
M  V30 6597 C 629.123 2.00678 1.19376 0
M  V30 6598 C 630.104 0.884973 1.45266 0
M  V30 6599 O 631.289 1.1522 1.56326 0
M  V30 6600 C 628.419 2.38042 2.5289 0
M  V30 6601 C 627.373 3.53332 2.41538 0
M  V30 6602 C 626.699 3.76485 3.79688 0
M  V30 6603 C 627.999 4.86265 1.9064 0
M  V30 6604 H 629.693 2.87688 0.829232 0
M  V30 6605 H 627.239 1.38407 0.397445 0
M  V30 6606 H 629.192 2.67314 3.25763 0
M  V30 6607 H 627.916 1.4796 2.91162 0
M  V30 6608 H 626.575 3.24213 1.71117 0
M  V30 6609 H 626.223 2.83667 4.15382 0
M  V30 6610 H 625.923 4.54068 3.72956 0
M  V30 6611 H 627.447 4.08174 4.54122 0
M  V30 6612 H 628.861 5.14308 2.53299 0
M  V30 6613 H 627.258 5.67597 1.94818 0
M  V30 6614 H 628.328 4.77184 0.861596 0
M  V30 6615 N 629.671 -0.424282 1.51781 0
M  V30 6616 C 630.919 -1.17028 1.64769 0
M  V30 6617 C 631.24 -1.91409 0.372523 0
M  V30 6618 O 630.51 -1.86091 -0.612108 0
M  V30 6619 H 629.09 -0.434992 0.607282 0
M  V30 6620 H 631.752 -0.485169 1.88765 0
M  V30 6621 H 630.848 -1.8927 2.4816 0
M  V30 6622 N 631.149 -1.42148 -0.680565 0
M  V30 6623 C 632.112 -1.4488 -1.77602 0
M  V30 6624 C 633.112 -0.337209 -1.57224 0
M  V30 6625 O 634.302 -0.597778 -1.63622 0
M  V30 6626 C 631.434 -1.27483 -3.16166 0
M  V30 6627 H 632.627 -2.42412 -1.76568 0
M  V30 6628 H 630.18 -1.28511 -0.889645 0
M  V30 6629 H 630.915 -0.30851 -3.22829 0
M  V30 6630 H 630.7 -2.08037 -3.3236 0
M  V30 6631 H 632.19 -1.32265 -3.96101 0
M  V30 6632 N 632.627 0.916307 -1.28225 0
M  V30 6633 C 634.038 1.48024 -1.13779 0
M  V30 6634 C 634.389 1.94289 0.273139 0
M  V30 6635 O 633.514 1.82226 1.16716 0
M  V30 6636 C 634.109 2.69029 -2.05935 0
M  V30 6637 C 632.668 3.2161 -1.95561 0
M  V30 6638 C 631.815 1.94321 -1.97825 0
M  V30 6639 H 634.766 0.729272 -1.40951 0
M  V30 6640 H 634.787 3.44204 -1.62184 0
M  V30 6641 H 634.299 2.35325 -3.08616 0
M  V30 6642 H 632.4 3.60045 -0.959076 0
M  V30 6643 H 632.513 3.87032 -2.82388 0
M  V30 6644 H 630.877 2.1131 -1.42198 0
M  V30 6645 H 631.66 1.62917 -3.0218 0
M  V30 6646 N 634.105 1.10431 1.1244 0
M  V30 6647 C 635.068 0.756542 2.16354 0
M  V30 6648 C 636.068 -0.21899 1.59302 0
M  V30 6649 O 637.258 0.00415969 1.742 0
M  V30 6650 C 634.39 0.120612 3.40687 0
M  V30 6651 H 635.583 1.67696 2.48632 0
M  V30 6652 H 633.136 0.904832 1.27446 0
M  V30 6653 H 633.871 -0.810536 3.14008 0
M  V30 6654 H 633.656 0.822693 3.83372 0
M  V30 6655 H 635.146 -0.106945 4.17463 0
M  V30 6656 N 635.583 -1.29855 0.893053 0
M  V30 6657 C 636.513 -2.3035 0.382249 0
M  V30 6658 C 637.494 -1.61328 -0.539203 0
M  V30 6659 O 638.679 -1.88882 -0.451342 0
M  V30 6660 C 635.809 -3.45024 -0.396983 0
M  V30 6661 C 634.763 -4.258 0.433437 0
M  V30 6662 C 634.089 -5.32605 -0.472889 0
M  V30 6663 C 635.389 -4.94549 1.67984 0
M  V30 6664 H 637.083 -2.73325 1.22205 0
M  V30 6665 H 634.629 -1.314 0.589073 0
M  V30 6666 H 636.582 -4.14398 -0.765024 0
M  V30 6667 H 635.306 -3.00875 -1.2705 0
M  V30 6668 H 633.965 -3.58125 0.783723 0
M  V30 6669 H 633.613 -4.84702 -1.34435 0
M  V30 6670 H 633.313 -5.87547 0.0789958 0
M  V30 6671 H 634.837 -6.04832 -0.837269 0
M  V30 6672 H 636.251 -5.56395 1.38192 0
M  V30 6673 H 634.648 -5.59393 2.17254 0
M  V30 6674 H 635.718 -4.20215 2.41965 0
M  V30 6675 N 637.061 -0.65484 -1.43351 0
M  V30 6676 C 638.289 -0.176685 -2.06144 0
M  V30 6677 C 638.704 1.15831 -1.49093 0
M  V30 6678 O 638.061 1.71542 -0.622868 0
M  V30 6679 C 638.112 -0.0813326 -3.61408 0
M  V30 6680 O 637.833 -1.36355 -4.1634 0
M  V30 6681 C 639.334 0.422706 -4.4128 0
M  V30 6682 H 636.554 -0.0906429 -0.66485 0
M  V30 6683 H 639.098 -0.895945 -1.83829 0
M  V30 6684 H 637.253 0.588496 -3.82904 0
M  V30 6685 H 637.667 -1.22381 -5.10023 0
M  V30 6686 H 639.141 0.438375 -5.50257 0
M  V30 6687 H 639.618 1.45432 -4.14423 0
M  V30 6688 H 640.224 -0.214687 -4.24758 0
M  V30 6689 N 638.539 1.52521 -0.396863 0
M  V30 6690 C 639.764 2.06571 0.185258 0
M  V30 6691 C 640.189 1.26605 1.39115 0
M  V30 6692 O 639.547 0.293055 1.78916 0
M  V30 6693 C 639.595 3.5674 0.526189 0
M  V30 6694 O 638.699 3.7929 1.61903 0
M  V30 6695 H 638.04 0.663712 0.0195474 0
M  V30 6696 H 640.57 1.966 -0.566519 0
M  V30 6697 H 640.58 4.00311 0.788338 0
M  V30 6698 H 639.255 4.14379 -0.355397 0
M  V30 6699 H 637.832 3.47605 1.35 0
M  V30 6700 N 640.017 0.126909 1.57088 0
M  V30 6701 C 641.433 -0.229641 1.57939 0
M  V30 6702 C 641.633 -1.66145 1.1401 0
M  V30 6703 O 640.689 -2.3843 0.831119 0
M  V30 6704 C 642.002 0.0108648 3.00698 0
M  V30 6705 C 643.55 -0.054418 3.12953 0
M  V30 6706 C 644.025 0.158497 4.57726 0
M  V30 6707 N 645.516 0.104735 4.63082 0
M  V30 6708 C 646.251 0.24427 5.72879 0
M  V30 6709 N 645.747 0.440415 6.91399 0
M  V30 6710 N 647.54 0.183286 5.61801 0
M  V30 6711 H 639.691 1.06203 1.83942 0
M  V30 6712 H 641.954 0.418834 0.85046 0
M  V30 6713 H 641.66 1.00102 3.37154 0
M  V30 6714 H 641.534 -0.717512 3.70313 0
M  V30 6715 H 643.921 -1.0351 2.7635 0
M  V30 6716 H 644.002 0.705967 2.45865 0
M  V30 6717 H 643.646 1.13619 4.95028 0
M  V30 6718 H 643.576 -0.62197 5.22914 0
M  V30 6719 H 646.067 -0.0430298 3.77876 0
M  V30 6720 H 646.38 0.537536 7.70928 0
M  V30 6721 H 644.725 0.476488 6.93365 0
M  V30 6722 H 647.916 0.0309561 4.6809 0
M  V30 6723 H 648.089 0.295471 6.47326 0
M  V30 6724 N 641.495 -1.56914 -0.146875 0
M  V30 6725 C 642.427 -1.94878 -1.20645 0
M  V30 6726 C 643.44 -0.844633 -1.39175 0
M  V30 6727 O 644.629 -1.12304 -1.38744 0
M  V30 6728 C 641.729 -2.20769 -2.57127 0
M  V30 6729 C 640.902 -3.52053 -2.59572 0
M  V30 6730 C 639.961 -3.66482 -3.77594 0
M  V30 6731 O 638.987 -4.38873 -3.62462 0
M  V30 6732 N 640.189 -3.03156 -4.95052 0
M  V30 6733 H 642.954 -2.86374 -0.883757 0
M  V30 6734 H 640.515 -1.58366 -0.336436 0
M  V30 6735 H 642.507 -2.27664 -3.34591 0
M  V30 6736 H 641.077 -1.35538 -2.81688 0
M  V30 6737 H 640.297 -3.56598 -1.68023 0
M  V30 6738 H 641.585 -4.38396 -2.58238 0
M  V30 6739 H 640.983 -2.44258 -5.10249 0
M  V30 6740 H 639.54 -3.15611 -5.70292 0
M  V30 6741 N 642.974 0.416227 -1.52004 0
M  V30 6742 C 644.221 1.16383 -1.65714 0
M  V30 6743 C 644.549 1.9068 -0.383594 0
M  V30 6744 O 643.804 1.85174 0.633185 0
M  V30 6745 C 644.103 2.18923 -2.82502 0
M  V30 6746 C 643.769 1.61485 -4.20991 0
M  V30 6747 C 642.431 1.45545 -4.58661 0
M  V30 6748 C 644.783 1.19468 -5.07323 0
M  V30 6749 C 642.111 0.860937 -5.80349 0
M  V30 6750 C 644.463 0.614386 -6.29609 0
M  V30 6751 C 643.127 0.442056 -6.66035 0
M  V30 6752 H 642.397 0.425875 -0.606392 0
M  V30 6753 H 645.044 0.45199 -1.8609 0
M  V30 6754 H 643.349 2.96225 -2.56433 0
M  V30 6755 H 645.046 2.76628 -2.90307 0
M  V30 6756 H 641.636 1.74873 -3.91302 0
M  V30 6757 H 645.82 1.30596 -4.78809 0
M  V30 6758 H 641.076 0.715372 -6.072 0
M  V30 6759 H 645.25 0.280393 -6.95835 0
M  V30 6760 H 642.877 -0.0207218 -7.60197 0
M  V30 6761 N 644.452 1.42507 0.673017 0
M  V30 6762 C 645.402 1.4258 1.77919 0
M  V30 6763 C 646.386 0.296885 1.58137 0
M  V30 6764 O 647.578 0.539243 1.68586 0
M  V30 6765 C 644.707 1.33238 3.1639 0
M  V30 6766 C 643.793 2.51081 3.41788 0
M  V30 6767 N 644.184 3.76498 3.37761 0
M  V30 6768 C 642.482 2.4538 3.72431 0
M  V30 6769 C 643.183 4.54784 3.62693 0
M  V30 6770 N 642.159 3.8522 3.83544 0
M  V30 6771 H 645.961 2.37442 1.73201 0
M  V30 6772 H 643.475 1.36881 0.873924 0
M  V30 6773 H 645.472 1.31372 3.9566 0
M  V30 6774 H 644.132 0.393794 3.22303 0
M  V30 6775 H 645.143 4.09068 3.17622 0
M  V30 6776 H 641.82 1.60109 3.85579 0
M  V30 6777 H 643.21 5.63774 3.65525 0
M  V30 6778 N 645.93 -0.909495 1.28709 0
M  V30 6779 C 646.84 -2.04558 1.14861 0
M  V30 6780 C 647.856 -1.73842 0.0741621 0
M  V30 6781 O 649.032 -1.99383 0.2843 0
M  V30 6782 C 646.097 -3.36957 0.816148 0
M  V30 6783 C 645.158 -3.81255 1.97341 0
M  V30 6784 C 644.391 -5.07335 1.65671 0
M  V30 6785 O 644.614 -5.67514 0.573053 0
M  V30 6786 O 643.548 -5.47449 2.50167 0
M  V30 6787 H 647.374 -2.19161 2.10243 0
M  V30 6788 H 644.959 -1.03159 1.08068 0
M  V30 6789 H 646.841 -4.16436 0.644873 0
M  V30 6790 H 645.516 -3.2352 -0.107983 0
M  V30 6791 H 644.423 -3.02584 2.19986 0
M  V30 6792 H 645.756 -3.99261 2.87839 0
M  V30 6793 N 647.408 -1.11026 -1.11852 0
M  V30 6794 C 648.685 -0.768347 -1.79877 0
M  V30 6795 C 649.065 0.744261 -1.97545 0
M  V30 6796 O 648.413 1.67271 -1.55669 0
M  V30 6797 C 648.623 -1.52648 -3.13846 0
M  V30 6798 C 649.971 -1.70297 -3.88953 0
M  V30 6799 O 650.995 -1.49037 -3.23522 0
M  V30 6800 O 649.854 -2.05593 -5.06353 0
M  V30 6801 H 646.948 -0.277891 -0.778913 0
M  V30 6802 H 649.494 -1.21343 -1.18633 0
M  V30 6803 H 648.266 -2.55564 -2.96315 0
M  V30 6804 H 647.889 -1.07466 -3.82801 0
M  V30 6805 N 648.886 1.2938 -0.899927 0
M  V30 6806 C 650.163 1.9046 -0.445443 0
M  V30 6807 C 650.543 1.81683 1.07492 0
M  V30 6808 O 649.891 1.24371 1.91688 0
M  V30 6809 C 650.101 3.35529 -0.960279 0
M  V30 6810 C 651.449 4.12556 -1.00412 0
M  V30 6811 O 652.473 3.44434 -0.907965 0
M  V30 6812 O 651.332 5.34294 -1.14857 0
M  V30 6813 H 648.426 0.815253 -0.138893 0
M  V30 6814 H 650.972 1.37844 -0.989808 0
M  V30 6815 H 649.744 3.36074 -2.00425 0
M  V30 6816 H 649.367 3.95624 -0.395939 0
M  V30 6817 N 650.364 0.662433 1.43002 0
M  V30 6818 C 651.611 0.179591 2.01702 0
M  V30 6819 C 651.939 -1.20964 1.52309 0
M  V30 6820 O 651.194 -1.82343 0.7106 0
M  V30 6821 C 651.493 0.149363 3.57088 0
M  V30 6822 C 651.159 1.48158 4.25864 0
M  V30 6823 C 649.821 1.84638 4.44367 0
M  V30 6824 C 652.173 2.35953 4.64732 0
M  V30 6825 C 649.501 3.08561 4.99006 0
M  V30 6826 C 651.853 3.59176 5.20745 0
M  V30 6827 C 650.517 3.95841 5.37463 0
M  V30 6828 H 649.787 0.0657172 0.73808 0
M  V30 6829 H 652.434 0.854968 1.71355 0
M  V30 6830 H 650.739 -0.609491 3.8703 0
M  V30 6831 H 652.436 -0.241241 4.00274 0
M  V30 6832 H 649.026 1.18777 4.11813 0
M  V30 6833 H 653.21 2.09058 4.50121 0
M  V30 6834 H 648.466 3.37005 5.10135 0
M  V30 6835 H 652.64 4.27417 5.49807 0
M  V30 6836 H 650.267 4.91942 5.79566 0
M  V30 6837 N 651.842 -1.52309 0.404946 0
M  V30 6838 C 653.258 -1.59503 0.0556255 0
M  V30 6839 C 653.458 -1.41805 -1.43156 0
M  V30 6840 O 652.514 -1.2429 -2.19792 0
M  V30 6841 C 653.827 -2.95687 0.546801 0
M  V30 6842 C 655.375 -3.08909 0.504413 0
M  V30 6843 C 655.85 -4.47566 0.97203 0
M  V30 6844 N 657.341 -4.53795 0.928679 0
M  V30 6845 C 658.076 -5.59346 1.26174 0
M  V30 6846 N 657.572 -6.72469 1.66604 0
M  V30 6847 N 659.365 -5.49532 1.18198 0
M  V30 6848 H 651.516 -1.6206 1.37296 0
M  V30 6849 H 653.779 -0.762161 0.563751 0
M  V30 6850 H 653.485 -3.13905 1.58609 0
M  V30 6851 H 653.359 -3.77172 -0.0457905 0
M  V30 6852 H 655.746 -2.90378 -0.525819 0
M  V30 6853 H 655.827 -2.2934 1.13301 0
M  V30 6854 H 655.471 -4.6684 2.00057 0
M  V30 6855 H 655.401 -5.25625 0.320292 0
M  V30 6856 H 657.892 -3.72588 0.631369 0
M  V30 6857 H 658.205 -7.48993 1.9034 0
M  V30 6858 H 656.55 -6.73761 1.70504 0
M  V30 6859 H 659.741 -4.60038 0.865011 0
M  V30 6860 H 659.914 -6.31687 1.44485 0
M  V30 6861 N 653.32 -0.135238 -1.57019 0
M  V30 6862 C 654.736 0.221262 -1.58059 0
M  V30 6863 C 654.936 1.65538 -1.14889 0
M  V30 6864 O 653.992 2.37985 -0.843751 0
M  V30 6865 C 655.305 -0.0268114 -3.00688 0
M  V30 6866 C 656.853 0.0378206 -3.12977 0
M  V30 6867 C 657.328 -0.182769 -4.57635 0
M  V30 6868 N 658.819 -0.129292 -4.6302 0
M  V30 6869 C 659.554 -0.274648 -5.72742 0
M  V30 6870 N 659.05 -0.477075 -6.91155 0
M  V30 6871 N 660.843 -0.213077 -5.61696 0
M  V30 6872 H 652.994 -1.07177 -1.83376 0
M  V30 6873 H 655.257 -0.423338 -0.848227 0
M  V30 6874 H 654.963 -1.01889 -3.36618 0
M  V30 6875 H 654.837 0.697863 -3.70688 0
M  V30 6876 H 657.224 1.02043 -2.76896 0
M  V30 6877 H 657.305 -0.718996 -2.45487 0
M  V30 6878 H 656.949 -1.16243 -4.94419 0
M  V30 6879 H 656.879 0.59423 -5.23237 0
M  V30 6880 H 659.37 0.0229896 -3.77893 0
M  V30 6881 H 659.683 -0.578413 -7.70632 0
M  V30 6882 H 658.028 -0.513252 -6.93102 0
M  V30 6883 H 661.219 -0.0557796 -4.68067 0
M  V30 6884 H 661.392 -0.329796 -6.4716 0
M  V30 6885 N 654.798 1.5699 0.138552 0
M  V30 6886 C 656.044 1.84081 0.85099 0
M  V30 6887 C 656.377 0.718107 1.80435 0
M  V30 6888 O 655.652 -0.277633 1.92508 0
M  V30 6889 C 655.935 3.21699 1.61808 0
M  V30 6890 C 655.788 4.44544 0.685633 0
M  V30 6891 C 657.107 3.5664 2.57868 0
M  V30 6892 H 654.226 0.669592 0.307922 0
M  V30 6893 H 656.868 1.89646 0.11588 0
M  V30 6894 H 655.018 3.17086 2.24474 0
M  V30 6895 H 656.69 4.61248 0.0693179 0
M  V30 6896 H 654.933 4.338 -0.00421993 0
M  V30 6897 H 655.604 5.3746 1.25858 0
M  V30 6898 H 658.08 3.61918 2.05316 0
M  V30 6899 H 656.956 4.53946 3.08584 0
M  V30 6900 H 657.217 2.83036 3.39622 0
M  V30 6901 N 656.276 -0.40816 1.52223 0
M  V30 6902 C 657.522 -1.15673 1.66576 0
M  V30 6903 C 657.855 -1.90141 0.394996 0
M  V30 6904 O 657.13 -1.84798 -0.606613 0
M  V30 6905 C 657.413 -2.15042 2.88841 0
M  V30 6906 C 657.266 -1.44465 4.25969 0
M  V30 6907 C 658.585 -3.15699 3.0663 0
M  V30 6908 H 655.704 -0.41916 0.606196 0
M  V30 6909 H 658.346 -0.442348 1.84779 0
M  V30 6910 H 656.496 -2.75964 2.73452 0
M  V30 6911 H 658.168 -0.866544 4.53088 0
M  V30 6912 H 656.411 -0.746612 4.27327 0
M  V30 6913 H 657.082 -2.16976 5.07568 0
M  V30 6914 H 659.558 -2.64854 3.20923 0
M  V30 6915 H 658.434 -3.82491 3.9369 0
M  V30 6916 H 658.695 -3.83481 2.19987 0
M  V30 6917 N 657.755 -1.42862 -0.66545 0
M  V30 6918 C 659.032 -1.3431 -1.42197 0
M  V30 6919 C 659.412 0.0150265 -2.11095 0
M  V30 6920 O 658.76 1.03101 -2.03918 0
M  V30 6921 C 658.97 -2.51783 -2.41674 0
M  V30 6922 C 660.318 -2.94321 -3.0604 0
M  V30 6923 O 661.342 -2.51741 -2.52001 0
M  V30 6924 O 660.201 -3.68047 -4.03985 0
M  V30 6925 H 657.295 -0.530159 -0.634713 0
M  V30 6926 H 659.841 -1.54888 -0.693386 0
M  V30 6927 H 658.613 -3.42282 -1.89627 0
M  V30 6928 H 658.236 -2.33241 -3.22001 0
M  V30 6929 N 659.233 0.902656 -1.29189 0
M  V30 6930 C 660.48 1.65287 -1.16989 0
M  V30 6931 C 660.808 1.92485 0.279232 0
M  V30 6932 O 660.063 1.53143 1.21843 0
M  V30 6933 C 660.362 3.011 -1.92545 0
M  V30 6934 C 660.028 2.93521 -3.42281 0
M  V30 6935 C 658.69 2.91161 -3.83117 0
M  V30 6936 C 661.042 2.82947 -4.3771 0
M  V30 6937 C 658.37 2.76043 -5.17704 0
M  V30 6938 C 660.722 2.69368 -5.72384 0
M  V30 6939 C 659.386 2.65373 -6.12482 0
M  V30 6940 H 658.656 0.604828 -0.428094 0
M  V30 6941 H 661.303 1.05084 -1.60092 0
M  V30 6942 H 659.608 3.65153 -1.42024 0
M  V30 6943 H 661.305 3.58073 -1.80512 0
M  V30 6944 H 657.895 2.96158 -3.09819 0
M  V30 6945 H 662.079 2.83849 -4.07116 0
M  V30 6946 H 657.335 2.71352 -5.47885 0
M  V30 6947 H 661.509 2.60156 -6.45981 0
M  V30 6948 H 659.136 2.53415 -7.16718 0
M  V30 6949 N 660.711 1.11618 1.11262 0
M  V30 6950 C 661.96 0.860934 1.82403 0
M  V30 6951 C 662.273 -0.615303 1.8567 0
M  V30 6952 O 663.479 -0.986861 2.52929 0
M  V30 6953 C 661.935 1.49048 3.27586 0
M  V30 6954 C 661.543 3.00089 3.32642 0
M  V30 6955 C 663.287 1.31515 4.03614 0
M  V30 6956 C 661.194 3.56019 4.72234 0
M  V30 6957 H 660.124 0.318423 0.683464 0
M  V30 6958 H 662.775 1.34165 1.25188 0
M  V30 6959 H 661.157 0.937434 3.84744 0
M  V30 6960 H 662.331 3.61813 2.85356 0
M  V30 6961 H 660.646 3.16919 2.70096 0
M  V30 6962 H 663.243 1.70732 5.0671 0
M  V30 6963 H 663.586 0.257917 4.155 0
M  V30 6964 H 664.119 1.83694 3.52848 0
M  V30 6965 H 660.858 4.61463 4.65545 0
M  V30 6966 H 660.378 2.99066 5.19923 0
M  V30 6967 H 662.057 3.54568 5.41193 0
M  V30 6968 N 662.189 -1.289 0.906776 0
M  V30 6969 C 663.466 -1.90221 0.455537 0
M  V30 6970 C 663.846 -1.82251 -1.06527 0
M  V30 6971 O 663.194 -1.25385 -1.91026 0
M  V30 6972 C 663.404 -3.35015 0.97806 0
M  V30 6973 C 664.752 -4.12018 1.02598 0
M  V30 6974 O 665.776 -3.43947 0.926218 0
M  V30 6975 O 664.635 -5.33677 1.17689 0
M  V30 6976 H 661.729 -0.814505 0.143214 0
M  V30 6977 H 664.275 -1.37317 0.997104 0
M  V30 6978 H 663.047 -3.35006 2.02204 0
M  V30 6979 H 662.67 -3.95408 0.416914 0
M  V30 6980 N 663.667 -0.670007 -1.42649 0
M  V30 6981 C 664.577 0.0114788 -2.34597 0
M  V30 6982 C 665.593 0.794055 -1.54825 0
M  V30 6983 O 666.769 0.737472 -1.87412 0
M  V30 6984 C 663.834 0.954436 -3.33304 0
M  V30 6985 C 662.895 0.166925 -4.28975 0
M  V30 6986 C 662.128 1.06497 -5.22967 0
M  V30 6987 O 662.351 2.30446 -5.21777 0
M  V30 6988 O 661.285 0.528347 -5.99577 0
M  V30 6989 H 665.111 -0.745794 -2.944 0
M  V30 6990 H 662.696 -0.430228 -1.43071 0
M  V30 6991 H 664.578 1.49589 -3.93956 0
M  V30 6992 H 663.253 1.69164 -2.7598 0
M  V30 6993 H 662.16 -0.418515 -3.71752 0
M  V30 6994 H 663.493 -0.531067 -4.89327 0
M  V30 6995 N 665.145 1.52092 -0.413018 0
M  V30 6996 C 666.393 2.01456 0.161178 0
M  V30 6997 C 666.714 1.30034 1.45314 0
M  V30 6998 O 665.984 0.427435 1.9118 0
M  V30 6999 H 664.564 0.744376 0.0625526 0
M  V30 7000 H 667.226 1.86974 -0.550151 0
M  V30 7001 H 666.322 3.1008 0.354517 0
M  V30 7002 N 666.623 0.143563 1.56945 0
M  V30 7003 C 667.869 -0.50916 1.96304 0
M  V30 7004 C 668.202 -1.64741 1.0283 0
M  V30 7005 O 667.477 -1.94374 0.0700361 0
M  V30 7006 C 667.76 -1.0186 3.45393 0
M  V30 7007 C 667.613 0.117923 4.49645 0
M  V30 7008 C 668.932 -1.90151 3.96901 0
M  V30 7009 H 666.051 -0.183608 0.713763 0
M  V30 7010 H 668.693 0.224095 1.88674 0
M  V30 7011 H 666.843 -1.64345 3.52027 0
M  V30 7012 H 668.515 0.754145 4.55094 0
M  V30 7013 H 666.758 0.777568 4.26774 0
M  V30 7014 H 667.429 -0.280187 5.51288 0
M  V30 7015 H 669.905 -1.375 3.92725 0
M  V30 7016 H 668.781 -2.22707 5.0169 0
M  V30 7017 H 669.042 -2.83718 3.39052 0
M  V30 7018 N 668.101 -1.57061 -0.130224 0
M  V30 7019 C 669.049 -2.00486 -1.17933 0
M  V30 7020 C 670.043 -0.899933 -1.43519 0
M  V30 7021 O 671.249 -1.08514 -1.43613 0
M  V30 7022 H 667.624 -0.638441 -0.397363 0
M  V30 7023 H 669.595 -2.87848 -0.786501 0
M  V30 7024 C 668.344 -2.41565 -2.50084 0
M  V30 7025 H 667.667 -3.26148 -2.31231 0
M  V30 7026 H 669.107 -2.75757 -3.22078 0
M  V30 7027 C 667.566 -1.27485 -3.11848 0
M  V30 7028 O 668.096 -0.584688 -3.97422 0
M  V30 7029 N 666.302 -1.03478 -2.71552 0
M  V30 7030 H 665.849 -1.59779 -2.02061 0
M  V30 7031 H 665.807 -0.27341 -3.13209 0
M  V30 7032 N 669.579 0.400081 -1.52437 0
M  V30 7033 C 670.828 1.14332 -1.66166 0
M  V30 7034 C 671.141 1.91419 -0.402253 0
M  V30 7035 O 672.347 2.6824 -0.419487 0
M  V30 7036 C 670.803 2.08137 -2.9361 0
M  V30 7037 C 670.411 1.36524 -4.26691 0
M  V30 7038 C 672.155 2.82664 -3.16703 0
M  V30 7039 C 670.062 2.29031 -5.45251 0
M  V30 7040 H 668.992 0.430499 -0.61902 0
M  V30 7041 H 671.643 0.407017 -1.78929 0
M  V30 7042 H 670.025 2.85358 -2.74567 0
M  V30 7043 H 671.199 0.646061 -4.56249 0
M  V30 7044 H 669.514 0.74002 -4.09771 0
M  V30 7045 H 672.111 3.52037 -4.0246 0
M  V30 7046 H 672.454 3.46122 -2.31312 0
M  V30 7047 H 672.987 2.12541 -3.36261 0
M  V30 7048 H 669.726 1.70206 -6.33017 0
M  V30 7049 H 669.246 2.98896 -5.2002 0
M  V30 7050 H 670.925 2.89359 -5.78689 0
M  V30 7051 N 671.057 1.43213 0.657864 0
M  V30 7052 C 672.305 1.44298 1.41501 0
M  V30 7053 C 672.626 0.0666478 1.94886 0
M  V30 7054 O 671.896 -0.897345 1.74139 0
M  V30 7055 H 670.476 0.531257 0.525143 0
M  V30 7056 H 673.138 1.78777 0.776195 0
M  V30 7057 H 672.234 2.1528 2.25966 0
M  V30 7058 N 672.536 -0.895792 1.29666 0
M  V30 7059 C 673.466 -2.01673 1.17688 0
M  V30 7060 C 674.447 -1.69955 0.0701317 0
M  V30 7061 O 675.632 -1.9258 0.250289 0
M  V30 7062 C 672.762 -3.36568 0.856681 0
M  V30 7063 C 671.716 -3.82509 1.92017 0
M  V30 7064 C 671.042 -5.14574 1.4532 0
M  V30 7065 C 672.342 -4.02409 3.32963 0
M  V30 7066 H 674.036 -2.11953 2.11463 0
M  V30 7067 H 671.582 -1.01839 1.01807 0
M  V30 7068 H 673.535 -4.14498 0.759577 0
M  V30 7069 H 672.259 -3.26391 -0.116763 0
M  V30 7070 H 670.918 -3.068 2.00673 0
M  V30 7071 H 670.566 -5.00815 0.468325 0
M  V30 7072 H 670.266 -5.46283 2.16447 0
M  V30 7073 H 671.79 -5.9504 1.36968 0
M  V30 7074 H 673.204 -4.70808 3.27127 0
M  V30 7075 H 671.601 -4.45478 4.02082 0
M  V30 7076 H 672.671 -3.06616 3.75652 0
M  V30 7077 N 674.014 -1.12206 -1.10668 0
M  V30 7078 C 674.924 -0.800686 -2.20513 0
M  V30 7079 C 675.94 0.209512 -1.72734 0
M  V30 7080 O 677.116 0.043705 -2.01353 0
M  V30 7081 C 674.181 -0.257353 -3.45744 0
M  V30 7082 C 673.242 -1.32718 -4.0827 0
M  V30 7083 C 672.475 -0.809674 -5.27522 0
M  V30 7084 O 672.698 0.35742 -5.69279 0
M  V30 7085 O 671.632 -1.57816 -5.80842 0
M  V30 7086 H 675.458 -1.71807 -2.50432 0
M  V30 7087 H 673.043 -0.898546 -1.19359 0
M  V30 7088 H 674.925 0.0408849 -4.2138 0
M  V30 7089 H 673.6 0.632627 -3.17458 0
M  V30 7090 H 672.507 -1.67855 -3.34329 0
M  V30 7091 H 673.84 -2.19083 -4.40753 0
M  V30 7092 N 675.492 1.28418 -0.913599 0
M  V30 7093 C 676.738 1.9527 -0.547484 0
M  V30 7094 C 677.071 1.71745 0.906486 0
M  V30 7095 O 676.346 1.03834 1.64465 0
M  V30 7096 C 676.629 3.49748 -0.857205 0
M  V30 7097 C 676.482 3.82675 -2.3639 0
M  V30 7098 C 677.801 4.3868 -0.353258 0
M  V30 7099 H 674.92 0.709236 -0.200381 0
M  V30 7100 H 677.562 1.51789 -1.14281 0
M  V30 7101 H 675.712 3.86915 -0.350548 0
M  V30 7102 H 677.384 3.55378 -2.94116 0
M  V30 7103 H 675.627 3.29724 -2.81894 0
M  V30 7104 H 676.298 4.90547 -2.53115 0
M  V30 7105 H 678.774 4.08584 -0.787288 0
M  V30 7106 H 677.65 5.45621 -0.599049 0
M  V30 7107 H 677.911 4.35753 0.746413 0
M  V30 7108 N 676.97 0.677563 1.42291 0
M  V30 7109 C 677.917 0.000947061 2.308 0
M  V30 7110 C 678.887 -0.789889 1.46116 0
M  V30 7111 O 680.072 -0.761578 1.74942 0
M  V30 7112 C 677.212 -0.942387 3.31984 0
M  V30 7113 C 676.325 -0.14508 4.31756 0
M  V30 7114 C 675.46 -1.08442 5.20013 0
M  V30 7115 C 674.499 -0.278958 6.11464 0
M  V30 7116 N 673.636 -1.17115 6.92263 0
M  V30 7117 H 678.476 0.761521 2.88106 0
M  V30 7118 H 676.013 0.38727 1.41911 0
M  V30 7119 H 677.971 -1.50317 3.89179 0
M  V30 7120 H 676.601 -1.66956 2.76271 0
M  V30 7121 H 675.653 0.532368 3.76656 0
M  V30 7122 H 676.965 0.48015 4.96484 0
M  V30 7123 H 676.119 -1.71504 5.81955 0
M  V30 7124 H 674.858 -1.74353 4.55469 0
M  V30 7125 H 673.863 0.364856 5.48588 0
M  V30 7126 H 675.088 0.376099 6.78058 0
M  V30 7127 H 673.034 -1.81661 6.30345 0
M  V30 7128 H 672.951 -0.601063 7.53607 0
M  V30 7129 H 674.219 -1.78915 7.58689 0
M  V30 7130 N 678.448 -1.51871 0.421078 0
M  V30 7131 C 679.673 -2.0684 -0.152371 0
M  V30 7132 C 680.098 -1.28802 -1.37083 0
M  V30 7133 O 679.456 -0.321482 -1.78427 0
M  V30 7134 C 679.504 -3.57532 -0.469368 0
M  V30 7135 O 678.608 -3.81818 -1.55848 0
M  V30 7136 H 677.949 -0.663939 -0.00898586 0
M  V30 7137 H 680.479 -1.95674 0.597724 0
M  V30 7138 H 680.489 -4.01515 -0.724553 0
M  V30 7139 H 679.164 -4.13761 0.421276 0
M  V30 7140 H 677.741 -3.49709 -1.29453 0
M  V30 7141 N 679.926 -0.151884 -1.56866 0
M  V30 7142 C 680.873 0.785936 -2.17006 0
M  V30 7143 C 681.843 1.2407 -1.10435 0
M  V30 7144 O 683.028 1.31235 -1.38499 0
M  V30 7145 C 680.168 2.01771 -2.79969 0
M  V30 7146 C 679.281 1.6083 -4.00946 0
M  V30 7147 C 678.416 2.79224 -4.51893 0
M  V30 7148 C 677.455 2.3468 -5.65324 0
M  V30 7149 N 676.592 3.461 -6.10867 0
M  V30 7150 H 681.432 0.266286 -2.96808 0
M  V30 7151 H 678.969 0.11972 -1.46612 0
M  V30 7152 H 680.927 2.73989 -3.14621 0
M  V30 7153 H 679.557 2.51139 -2.02803 0
M  V30 7154 H 678.609 0.783592 -3.72242 0
M  V30 7155 H 679.921 1.24119 -4.83111 0
M  V30 7156 H 679.075 3.59625 -4.88625 0
M  V30 7157 H 677.814 3.19183 -3.68746 0
M  V30 7158 H 676.819 1.52721 -5.28163 0
M  V30 7159 H 678.044 1.95801 -6.5026 0
M  V30 7160 H 675.99 3.85671 -5.30654 0
M  V30 7161 H 675.907 3.1342 -6.87971 0
M  V30 7162 H 677.175 4.26844 -6.52246 0
M  V30 7163 N 681.404 1.57128 0.121893 0
M  V30 7164 C 682.632 1.88883 0.844451 0
M  V30 7165 C 683.047 0.742824 1.73573 0
M  V30 7166 O 682.404 -0.286475 1.80238 0
M  V30 7167 C 682.455 3.20076 1.68029 0
M  V30 7168 O 682.176 4.30264 0.824898 0
M  V30 7169 C 683.677 3.65515 2.50826 0
M  V30 7170 H 680.897 0.62549 0.242907 0
M  V30 7171 H 683.441 2.04219 0.107151 0
M  V30 7172 H 681.596 3.06418 2.37038 0
M  V30 7173 H 682.01 5.05439 1.40113 0
M  V30 7174 H 683.484 4.60081 3.05008 0
M  V30 7175 H 683.961 2.92029 3.28048 0
M  V30 7176 H 684.567 3.81952 1.87064 0
M  V30 7177 N 682.882 -0.391992 1.52647 0
M  V30 7178 C 683.845 -1.46135 1.7657 0
M  V30 7179 C 684.845 -1.47701 0.635698 0
M  V30 7180 O 686.035 -1.48924 0.903728 0
M  V30 7181 C 683.167 -2.85443 1.86374 0
M  V30 7182 H 684.36 -1.26208 2.72051 0
M  V30 7183 H 681.913 -0.623549 1.43323 0
M  V30 7184 H 682.648 -3.10718 0.928685 0
M  V30 7185 H 682.433 -2.85708 2.68539 0
M  V30 7186 H 683.923 -3.62933 2.06566 0
M  V30 7187 N 684.36 -1.4356 -0.65026 0
M  V30 7188 C 685.307 -1.48948 -1.76304 0
M  V30 7189 C 686.277 -0.338919 -1.62605 0
M  V30 7190 O 687.462 -0.54649 -1.82806 0
M  V30 7191 C 684.602 -1.42131 -3.14472 0
M  V30 7192 C 683.715 -2.67415 -3.39284 0
M  V30 7193 C 682.85 -2.52565 -4.67316 0
M  V30 7194 C 681.889 -3.73103 -4.85243 0
M  V30 7195 N 681.026 -3.57046 -6.04535 0
M  V30 7196 H 685.866 -2.44032 -1.71034 0
M  V30 7197 H 683.403 -1.21131 -0.834601 0
M  V30 7198 H 685.361 -1.36172 -3.94351 0
M  V30 7199 H 683.991 -0.506273 -3.18805 0
M  V30 7200 H 683.043 -2.8364 -2.53481 0
M  V30 7201 H 684.355 -3.56943 -3.48415 0
M  V30 7202 H 683.509 -2.44331 -5.55326 0
M  V30 7203 H 682.248 -1.60566 -4.60511 0
M  V30 7204 H 681.253 -3.81743 -3.95667 0
M  V30 7205 H 682.478 -4.66115 -4.93876 0
M  V30 7206 H 680.424 -2.67783 -5.98856 0
M  V30 7207 H 680.341 -4.40178 -6.14638 0
M  V30 7208 H 681.609 -3.52669 -6.95158 0
M  V30 7209 N 685.838 0.888903 -1.30139 0
M  V30 7210 C 686.768 2.01046 -1.18755 0
M  V30 7211 C 687.749 1.69916 -0.0791438 0
M  V30 7212 O 688.934 1.92445 -0.260498 0
M  V30 7213 C 686.064 3.36109 -0.874518 0
M  V30 7214 C 685.018 3.81486 -1.94043 0
M  V30 7215 C 684.344 5.13796 -1.48047 0
M  V30 7216 C 685.644 4.00637 -3.35093 0
M  V30 7217 H 687.338 2.10828 -2.12584 0
M  V30 7218 H 684.884 1.01298 -1.02346 0
M  V30 7219 H 686.837 4.14089 -0.781548 0
M  V30 7220 H 685.561 3.26449 0.0994519 0
M  V30 7221 H 684.22 3.05731 -2.02297 0
M  V30 7222 H 683.868 5.0056 -0.494878 0
M  V30 7223 H 683.568 5.45127 -2.19341 0
M  V30 7224 H 685.092 5.94305 -1.40121 0
M  V30 7225 H 686.506 4.69067 -3.2962 0
M  V30 7226 H 684.903 4.43339 -4.04438 0
M  V30 7227 H 685.973 3.0462 -3.77273 0
M  V30 7228 N 687.317 1.12792 1.10072 0
M  V30 7229 C 688.249 0.757003 2.16338 0
M  V30 7230 C 689.262 -0.218144 1.61332 0
M  V30 7231 O 690.451 0.0010727 1.785 0
M  V30 7232 C 687.551 0.100303 3.38752 0
M  V30 7233 C 686.724 1.10586 4.2319 0
M  V30 7234 C 685.783 0.47609 5.24042 0
M  V30 7235 O 684.809 1.13418 5.57786 0
M  V30 7236 N 686.011 -0.754823 5.75572 0
M  V30 7237 H 688.776 1.6714 2.48766 0
M  V30 7238 H 686.337 1.02003 1.25726 0
M  V30 7239 H 688.329 -0.333092 4.03327 0
M  V30 7240 H 686.899 -0.716915 3.04268 0
M  V30 7241 H 686.119 1.71677 3.54853 0
M  V30 7242 H 687.407 1.78571 4.76435 0
M  V30 7243 H 686.805 -1.30838 5.50362 0
M  V30 7244 H 685.362 -1.13098 6.41913 0
M  V30 7245 N 688.795 -1.27931 0.920396 0
M  V30 7246 C 690.072 -1.89728 0.475687 0
M  V30 7247 C 690.452 -1.8337 -1.04588 0
M  V30 7248 O 689.8 -1.27404 -1.89685 0
M  V30 7249 C 690.01 -3.33959 1.01354 0
M  V30 7250 C 691.358 -4.10907 1.06963 0
M  V30 7251 O 692.382 -3.42945 0.962646 0
M  V30 7252 O 691.241 -5.32399 1.23343 0
M  V30 7253 H 688.335 -0.81294 0.151845 0
M  V30 7254 H 690.881 -1.36252 1.01161 0
M  V30 7255 H 689.653 -3.32843 2.05746 0
M  V30 7256 H 689.276 -3.94944 0.458829 0
M  V30 7257 N 690.273 -0.685099 -1.4193 0
M  V30 7258 C 691.52 -0.211658 -2.01391 0
M  V30 7259 C 691.848 1.18526 -1.54214 0
M  V30 7260 O 691.103 1.81189 -0.739519 0
M  V30 7261 C 691.402 -0.206154 -3.56805 0
M  V30 7262 C 691.068 -1.54915 -4.23453 0
M  V30 7263 C 689.73 -1.91684 -4.41373 0
M  V30 7264 C 692.082 -2.43317 -4.60919 0
M  V30 7265 C 689.41 -3.16461 -4.94034 0
M  V30 7266 C 691.762 -3.67415 -5.14965 0
M  V30 7267 C 690.426 -4.04341 -5.31098 0
M  V30 7268 H 689.696 -0.0774511 -0.736941 0
M  V30 7269 H 692.343 -0.882121 -1.69973 0
M  V30 7270 H 690.648 0.547841 -3.87951 0
M  V30 7271 H 692.345 0.17753 -4.00607 0
M  V30 7272 H 688.935 -1.25314 -4.09871 0
M  V30 7273 H 693.119 -2.16192 -4.46738 0
M  V30 7274 H 688.375 -3.45078 -5.04709 0
M  V30 7275 H 692.549 -4.3611 -5.42938 0
M  V30 7276 H 690.176 -5.01101 -5.71666 0
M  V30 7277 N 691.751 1.51645 -0.429126 0
M  V30 7278 C 692.698 2.27542 0.386446 0
M  V30 7279 C 693.668 1.30786 1.02393 0
M  V30 7280 O 694.853 1.59678 1.0444 0
M  V30 7281 C 691.993 3.11457 1.48623 0
M  V30 7282 C 691.106 4.23196 0.867691 0
M  V30 7283 C 690.241 4.94435 1.94183 0
M  V30 7284 C 689.28 5.98108 1.30129 0
M  V30 7285 N 688.417 6.62786 2.31644 0
M  V30 7286 H 693.257 2.968 -0.267155 0
M  V30 7287 H 690.794 1.46397 -0.143591 0
M  V30 7288 H 692.752 3.58429 2.13506 0
M  V30 7289 H 691.382 2.44329 2.10957 0
M  V30 7290 H 690.434 3.80248 0.107373 0
M  V30 7291 H 691.746 4.97499 0.35997 0
M  V30 7292 H 690.9 5.44914 2.66747 0
M  V30 7293 H 689.639 4.19744 2.48326 0
M  V30 7294 H 688.644 5.4693 0.561082 0
M  V30 7295 H 689.869 6.74751 0.767303 0
M  V30 7296 H 687.815 5.90913 2.84883 0
M  V30 7297 H 687.732 7.32828 1.85741 0
M  V30 7298 H 689 7.17897 3.03717 0
M  V30 7299 N 693.229 0.160201 1.56784 0
M  V30 7300 C 694.454 -0.497373 2.01348 0
M  V30 7301 C 694.879 -1.56757 1.03966 0
M  V30 7302 O 694.237 -1.81292 0.0174455 0
M  V30 7303 C 694.285 -1.0628 3.44582 0
M  V30 7304 O 693.389 -2.17723 3.50244 0
M  V30 7305 H 692.73 -0.120295 0.653012 0
M  V30 7306 H 695.26 0.260821 2.02931 0
M  V30 7307 H 695.27 -1.38819 3.83658 0
M  V30 7308 H 693.945 -0.279166 4.14962 0
M  V30 7309 H 692.522 -1.86313 3.2302 0
M  V30 7310 N 694.707 -1.5719 -0.113559 0
M  V30 7311 C 695.954 -1.85138 -0.820382 0
M  V30 7312 C 696.282 -0.74608 -1.79622 0
M  V30 7313 O 695.537 0.262077 -1.93937 0
M  V30 7314 C 695.836 -3.19593 -1.59984 0
M  V30 7315 C 695.502 -4.44315 -0.767809 0
M  V30 7316 C 694.164 -4.78179 -0.538379 0
M  V30 7317 C 696.516 -5.2086 -0.188203 0
M  V30 7318 C 693.844 -5.86028 0.28082 0
M  V30 7319 C 696.196 -6.29572 0.618217 0
M  V30 7320 C 694.86 -6.61964 0.857912 0
M  V30 7321 H 694.13 -0.677467 -0.300199 0
M  V30 7322 H 696.777 -1.91322 -0.0825443 0
M  V30 7323 H 695.082 -3.0901 -2.40874 0
M  V30 7324 H 696.779 -3.3844 -2.1508 0
M  V30 7325 H 693.369 -4.17786 -0.956724 0
M  V30 7326 H 697.553 -4.95045 -0.352658 0
M  V30 7327 H 692.809 -6.09547 0.475693 0
M  V30 7328 H 696.983 -6.88064 1.0743 0
M  V30 7329 H 694.61 -7.45365 1.49451 0
M  V30 7330 N 696.185 0.383891 -1.52853 0
M  V30 7331 C 697.115 1.47559 -1.80965 0
M  V30 7332 C 698.096 1.5669 -0.661986 0
M  V30 7333 O 699.281 1.71556 -0.910072 0
M  V30 7334 C 696.411 2.85114 -1.98312 0
M  V30 7335 C 695.365 2.9082 -3.14019 0
M  V30 7336 C 694.691 4.30873 -3.16627 0
M  V30 7337 C 695.991 2.60001 -4.52986 0
M  V30 7338 H 697.685 1.24283 -2.72386 0
M  V30 7339 H 695.231 0.596445 -1.31067 0
M  V30 7340 H 697.184 3.61496 -2.16561 0
M  V30 7341 H 695.908 3.09738 -1.03585 0
M  V30 7342 H 694.567 2.16886 -2.9556 0
M  V30 7343 H 694.215 4.52545 -2.19573 0
M  V30 7344 H 693.915 4.3561 -3.94357 0
M  V30 7345 H 695.439 5.09154 -3.37038 0
M  V30 7346 H 696.853 3.261 -4.71521 0
M  V30 7347 H 695.25 2.76081 -5.32822 0
M  V30 7348 H 696.32 1.5532 -4.59351 0
M  V30 7349 N 697.663 1.43903 0.642637 0
M  V30 7350 C 698.593 1.52697 1.76652 0
M  V30 7351 C 699.574 0.380816 1.65782 0
M  V30 7352 O 700.759 0.599432 1.84717 0
M  V30 7353 C 697.889 1.45975 3.15133 0
M  V30 7354 C 696.843 2.58949 3.40778 0
M  V30 7355 C 696.169 2.37279 4.79169 0
M  V30 7356 C 697.469 4.01153 3.34475 0
M  V30 7357 H 699.163 2.46766 1.69549 0
M  V30 7358 H 696.709 1.18767 0.814279 0
M  V30 7359 H 698.662 1.5073 3.93521 0
M  V30 7360 H 697.386 0.484162 3.22991 0
M  V30 7361 H 696.045 2.53564 2.64765 0
M  V30 7362 H 695.693 1.37939 4.83717 0
M  V30 7363 H 695.393 3.13016 4.97287 0
M  V30 7364 H 696.917 2.43834 5.59801 0
M  V30 7365 H 698.331 4.07968 4.02784 0
M  V30 7366 H 696.728 4.77001 3.64129 0
M  V30 7367 H 697.798 4.25539 2.32475 0
M  V30 7368 N 699.141 -0.881989 1.30609 0
M  V30 7369 C 700.088 -1.98803 1.17244 0
M  V30 7370 C 701.058 -1.65987 0.0611905 0
M  V30 7371 O 702.243 -1.89385 0.231911 0
M  V30 7372 C 699.383 -3.33867 0.87333 0
M  V30 7373 C 698.496 -3.79354 2.06675 0
M  V30 7374 C 697.631 -5.03078 1.70547 0
M  V30 7375 C 696.67 -5.40981 2.86366 0
M  V30 7376 N 695.807 -6.55886 2.50514 0
M  V30 7377 H 700.647 -2.09566 2.11863 0
M  V30 7378 H 698.184 -1.02607 1.05405 0
M  V30 7379 H 700.142 -4.11612 0.680519 0
M  V30 7380 H 698.772 -3.2278 -0.0359983 0
M  V30 7381 H 697.824 -2.97492 2.37071 0
M  V30 7382 H 699.136 -4.03382 2.93401 0
M  V30 7383 H 698.29 -5.88457 1.47658 0
M  V30 7384 H 697.029 -4.80927 0.809947 0
M  V30 7385 H 696.034 -4.54127 3.09917 0
M  V30 7386 H 697.259 -5.65104 3.76609 0
M  V30 7387 H 695.205 -6.35306 1.63471 0
M  V30 7388 H 695.122 -6.79799 3.30771 0
M  V30 7389 H 696.39 -7.44489 2.30989 0
M  V30 7390 N 700.619 -1.13374 -1.09472 0
M  V30 7391 C 701.896 -0.806329 -1.78207 0
M  V30 7392 C 702.276 0.702191 -1.99079 0
M  V30 7393 O 701.624 1.63931 -1.59182 0
M  V30 7394 C 701.834 -1.59271 -3.10538 0
M  V30 7395 C 703.182 -1.78509 -3.85253 0
M  V30 7396 O 704.206 -1.55866 -3.20288 0
M  V30 7397 O 703.065 -2.16287 -5.01879 0
M  V30 7398 H 700.159 -0.29435 -0.772843 0
M  V30 7399 H 702.705 -1.23833 -1.16033 0
M  V30 7400 H 701.477 -2.61792 -2.90828 0
M  V30 7401 H 701.1 -1.15562 -3.80436 0
M  V30 7402 N 702.098 1.27442 -0.927168 0
M  V30 7403 C 703.323 1.99036 -0.583042 0
M  V30 7404 C 703.748 1.68711 0.83176 0
M  V30 7405 O 703.106 0.927081 1.55804 0
M  V30 7406 C 703.154 3.51271 -0.814925 0
M  V30 7407 O 702.258 4.12226 0.119742 0
M  V30 7408 H 701.599 0.624883 -0.224538 0
M  V30 7409 H 704.129 1.62263 -1.24628 0
M  V30 7410 H 704.139 4.01411 -0.730282 0
M  V30 7411 H 702.814 3.72676 -1.84623 0
M  V30 7412 H 701.391 3.72897 -0.0147688 0
M  V30 7413 N 703.576 0.692616 1.41565 0
M  V30 7414 C 704.486 0.0258451 2.34586 0
M  V30 7415 C 705.502 -0.769324 1.56069 0
M  V30 7416 O 706.678 -0.707563 1.88562 0
M  V30 7417 C 703.743 -0.901289 3.3478 0
M  V30 7418 C 702.804 -0.0986579 4.29187 0
M  V30 7419 C 702.037 -0.981634 5.24595 0
M  V30 7420 O 702.26 -2.22115 5.25377 0
M  V30 7421 O 701.194 -0.432892 6.00341 0
M  V30 7422 H 705.02 0.792537 2.93177 0
M  V30 7423 H 702.605 0.452935 1.42369 0
M  V30 7424 H 704.487 -1.43302 3.96286 0
M  V30 7425 H 703.162 -1.64752 2.78637 0
M  V30 7426 H 702.069 0.477604 3.71039 0
M  V30 7427 H 703.402 0.608848 4.8842 0
M  V30 7428 N 705.054 -1.51416 0.437162 0
M  V30 7429 C 706.282 -2.06503 -0.128045 0
M  V30 7430 C 706.697 -1.30461 -1.36475 0
M  V30 7431 O 706.054 -0.364127 -1.78831 0
M  V30 7432 C 706.105 -3.58683 -0.450437 0
M  V30 7433 O 705.826 -4.31853 0.737186 0
M  V30 7434 C 707.327 -4.30284 -1.06633 0
M  V30 7435 H 704.547 -0.670952 -0.00800269 0
M  V30 7436 H 707.091 -1.94996 0.616193 0
M  V30 7437 H 705.246 -3.70106 -1.14457 0
M  V30 7438 H 705.66 -5.22467 0.461347 0
M  V30 7439 H 707.134 -5.37848 -1.24191 0
M  V30 7440 H 707.611 -3.88564 -2.0473 0
M  V30 7441 H 708.217 -4.23304 -0.411585 0
M  V30 7442 N 706.532 -0.168513 -1.56696 0
M  V30 7443 C 707.757 0.486688 -2.01609 0
M  V30 7444 C 708.182 1.56203 -1.04796 0
M  V30 7445 O 707.54 1.8128 -0.0270596 0
M  V30 7446 C 707.588 1.04451 -3.45141 0
M  V30 7447 O 706.692 2.15862 -3.51393 0
M  V30 7448 H 706.033 0.116831 -0.653641 0
M  V30 7449 H 708.563 -0.271579 -2.0279 0
M  V30 7450 H 708.573 1.36782 -3.84389 0
M  V30 7451 H 707.248 0.257155 -4.15104 0
M  V30 7452 H 705.825 1.84597 -3.24004 0
M  V30 7453 N 708.01 1.57248 0.105221 0
M  V30 7454 C 708.942 1.98008 1.15436 0
M  V30 7455 C 709.955 0.881236 1.36887 0
M  V30 7456 O 711.144 1.15943 1.35718 0
M  V30 7457 C 708.244 2.27509 2.51183 0
M  V30 7458 C 707.417 3.58811 2.50147 0
M  V30 7459 C 706.476 3.76365 3.67745 0
M  V30 7460 O 705.502 4.48329 3.50699 0
M  V30 7461 N 706.704 3.16174 4.86841 0
M  V30 7462 H 709.469 2.88616 0.807519 0
M  V30 7463 H 707.03 1.59202 0.29433 0
M  V30 7464 H 709.022 2.36455 3.28438 0
M  V30 7465 H 707.592 1.42959 2.77995 0
M  V30 7466 H 706.812 3.60927 1.5851 0
M  V30 7467 H 708.1 4.45088 2.46524 0
M  V30 7468 H 707.498 2.57701 5.03594 0
M  V30 7469 H 706.055 3.30621 5.61723 0
M  V30 7470 N 709.488 -0.375779 1.53054 0
M  V30 7471 C 710.904 -0.716764 1.426 0
M  V30 7472 C 711.104 -1.93651 0.556931 0
M  V30 7473 O 710.16 -2.52475 0.0354461 0
M  V30 7474 C 711.473 -0.939499 2.85646 0
M  V30 7475 C 713.021 -1.04015 2.95212 0
M  V30 7476 C 713.496 -1.29543 4.39298 0
M  V30 7477 N 714.987 -1.36335 4.42682 0
M  V30 7478 C 715.722 -1.57778 5.51266 0
M  V30 7479 N 715.218 -1.76604 6.69913 0
M  V30 7480 N 717.011 -1.60065 5.38828 0
M  V30 7481 H 709.162 0.42664 2.08071 0
M  V30 7482 H 711.425 0.128758 0.939215 0
M  V30 7483 H 711.131 -0.115189 3.51511 0
M  V30 7484 H 711.005 -1.85048 3.2869 0
M  V30 7485 H 713.392 -1.85501 2.29507 0
M  V30 7486 H 713.473 -0.106785 2.55577 0
M  V30 7487 H 713.117 -0.485611 5.05573 0
M  V30 7488 H 713.047 -2.24184 4.76497 0
M  V30 7489 H 715.538 -1.23441 3.5717 0
M  V30 7490 H 715.851 -1.9251 7.48438 0
M  V30 7491 H 714.196 -1.73802 6.72917 0
M  V30 7492 H 717.387 -1.44917 4.45103 0
M  V30 7493 H 717.56 -1.76435 6.23518 0
M  V30 7494 N 710.966 -1.44241 -0.634997 0
M  V30 7495 C 711.896 -1.53632 -1.7584 0
M  V30 7496 C 712.877 -0.389603 -1.65578 0
M  V30 7497 O 714.062 -0.609219 -1.84397 0
M  V30 7498 C 711.192 -1.47644 -3.14354 0
M  V30 7499 C 710.146 -2.60752 -3.394 0
M  V30 7500 C 709.472 -2.39817 -4.77904 0
M  V30 7501 C 710.772 -4.02921 -3.32343 0
M  V30 7502 H 712.466 -2.47662 -1.68238 0
M  V30 7503 H 710.012 -1.19197 -0.807969 0
M  V30 7504 H 711.965 -1.52815 -3.92716 0
M  V30 7505 H 710.689 -0.501284 -3.2273 0
M  V30 7506 H 709.348 -2.54965 -2.63417 0
M  V30 7507 H 708.996 -1.40502 -4.82978 0
M  V30 7508 H 708.696 -3.15649 -4.9562 0
M  V30 7509 H 710.22 -2.46799 -5.585 0
M  V30 7510 H 711.634 -4.10098 -4.00615 0
M  V30 7511 H 710.031 -4.78925 -3.61595 0
M  V30 7512 H 711.101 -4.26766 -2.30215 0
M  V30 7513 N 712.444 0.87505 -1.31075 0
M  V30 7514 C 713.407 1.96333 -1.18263 0
M  V30 7515 C 714.407 1.60416 -0.111106 0
M  V30 7516 O 715.597 1.7044 -0.359987 0
M  V30 7517 C 712.729 3.31036 -0.81414 0
M  V30 7518 H 713.922 2.09125 -2.14958 0
M  V30 7519 H 711.475 1.06271 -1.14614 0
M  V30 7520 H 712.21 3.23944 0.151875 0
M  V30 7521 H 711.995 3.58476 -1.58862 0
M  V30 7522 H 713.485 4.10842 -0.748249 0
M  V30 7523 N 713.922 1.13953 1.08869 0
M  V30 7524 C 714.87 0.817664 2.17754 0
M  V30 7525 C 715.864 -0.202444 1.68186 0
M  V30 7526 O 717.07 -0.0590159 1.79903 0
M  V30 7527 H 713.445 0.246671 0.710392 0
M  V30 7528 H 715.416 1.74401 2.4213 0
M  V30 7529 C 714.165 0.3063 3.46348 0
M  V30 7530 H 713.488 1.08259 3.84864 0
M  V30 7531 H 714.928 0.119584 4.23831 0
M  V30 7532 C 713.387 -0.969158 3.22659 0
M  V30 7533 O 713.917 -2.04386 3.45817 0
M  V30 7534 N 712.123 -0.902516 2.7623 0
M  V30 7535 H 711.67 -0.027801 2.57585 0
M  V30 7536 H 711.628 -1.75649 2.60758 0
M  V30 7537 N 715.4 -1.26948 0.933913 0
M  V30 7538 C 716.33 -2.29017 0.45534 0
M  V30 7539 C 717.311 -1.62961 -0.487605 0
M  V30 7540 O 718.496 -1.90223 -0.391022 0
M  V30 7541 C 715.626 -3.46112 -0.287015 0
M  V30 7542 C 714.58 -4.24205 0.568682 0
M  V30 7543 C 713.906 -5.3384 -0.303206 0
M  V30 7544 C 715.206 -4.88954 1.83633 0
M  V30 7545 H 716.9 -2.69298 1.30839 0
M  V30 7546 H 714.446 -1.29459 0.630579 0
M  V30 7547 H 716.399 -4.16622 -0.6328 0
M  V30 7548 H 715.123 -3.04765 -1.17414 0
M  V30 7549 H 713.782 -3.5545 0.897261 0
M  V30 7550 H 713.43 -4.88734 -1.18947 0
M  V30 7551 H 713.13 -5.86998 0.265879 0
M  V30 7552 H 714.654 -6.0719 -0.644423 0
M  V30 7553 H 716.068 -5.51717 1.55823 0
M  V30 7554 H 714.465 -5.52198 2.34941 0
M  V30 7555 H 715.535 -4.12305 2.55211 0
M  V30 7556 N 716.879 -0.700114 -1.41195 0
M  V30 7557 C 718.295 -0.372114 -1.55201 0
M  V30 7558 C 718.495 1.12053 -1.6747 0
M  V30 7559 O 717.551 1.90642 -1.65566 0
M  V30 7560 C 718.864 -1.12462 -2.78878 0
M  V30 7561 C 720.412 -1.10941 -2.92679 0
M  V30 7562 C 720.887 -1.84376 -4.19249 0
M  V30 7563 N 722.378 -1.81368 -4.26216 0
M  V30 7564 C 723.113 -2.35024 -5.23021 0
M  V30 7565 N 722.609 -2.9717 -6.25829 0
M  V30 7566 N 724.402 -2.25254 -5.14992 0
M  V30 7567 H 716.553 -1.66816 -1.31477 0
M  V30 7568 H 718.816 -0.704223 -0.634644 0
M  V30 7569 H 718.522 -2.17937 -2.76037 0
M  V30 7570 H 718.396 -0.706152 -3.70531 0
M  V30 7571 H 720.783 -0.062911 -2.95033 0
M  V30 7572 H 720.864 -1.56698 -2.02187 0
M  V30 7573 H 720.508 -2.89008 -4.17656 0
M  V30 7574 H 720.438 -1.3605 -5.08722 0
M  V30 7575 H 722.929 -1.36062 -3.52556 0
M  V30 7576 H 723.242 -3.35668 -6.96094 0
M  V30 7577 H 721.587 -3.01249 -6.26318 0
M  V30 7578 H 724.778 -1.76372 -4.33602 0
M  V30 7579 H 724.951 -2.67373 -5.90268 0
M  V30 7580 N 718.357 1.51182 -0.445186 0
M  V30 7581 C 719.289 2.25714 0.398206 0
M  V30 7582 C 720.302 1.30032 0.979562 0
M  V30 7583 O 721.491 1.55731 0.872368 0
M  V30 7584 C 718.591 3.00348 1.56985 0
M  V30 7585 C 717.764 4.23187 1.10596 0
M  V30 7586 C 716.823 4.80334 2.14863 0
M  V30 7587 O 715.849 5.4196 1.73977 0
M  V30 7588 N 717.051 4.65053 3.47427 0
M  V30 7589 H 719.816 2.98732 -0.240629 0
M  V30 7590 H 717.377 1.59556 -0.274507 0
M  V30 7591 H 719.369 3.35464 2.26376 0
M  V30 7592 H 717.939 2.30291 2.11387 0
M  V30 7593 H 717.159 3.93476 0.238832 0
M  V30 7594 H 718.447 5.02886 0.773537 0
M  V30 7595 H 717.845 4.15984 3.83372 0
M  V30 7596 H 716.402 5.04509 4.12691 0
M  V30 7597 N 719.835 0.176821 1.56605 0
M  V30 7598 C 721.251 -0.179278 1.5859 0
M  V30 7599 C 721.451 -1.62433 1.19238 0
M  V30 7600 O 720.507 -2.35665 0.906552 0
M  V30 7601 C 721.82 0.106524 3.00511 0
M  V30 7602 C 723.368 0.0451731 3.12967 0
M  V30 7603 C 723.843 0.304038 4.5699 0
M  V30 7604 N 725.334 0.252008 4.62514 0
M  V30 7605 C 726.069 0.426404 5.71812 0
M  V30 7606 N 725.565 0.660155 6.89648 0
M  V30 7607 N 727.358 0.361926 5.60934 0
M  V30 7608 H 719.509 1.12001 1.8047 0
M  V30 7609 H 721.772 0.445679 0.836704 0
M  V30 7610 H 721.478 1.10778 3.33798 0
M  V30 7611 H 721.352 -0.599337 3.72408 0
M  V30 7612 H 723.739 -0.946662 2.79504 0
M  V30 7613 H 723.82 0.78383 2.43495 0
M  V30 7614 H 723.464 1.29311 4.91163 0
M  V30 7615 H 723.394 -0.455294 5.24628 0
M  V30 7616 H 725.885 0.0772102 3.77821 0
M  V30 7617 H 726.198 0.782529 7.68828 0
M  V30 7618 H 724.543 0.696835 6.91498 0
M  V30 7619 H 727.734 0.17986 4.67754 0
M  V30 7620 H 727.907 0.501263 6.46058 0
M  V30 7621 N 721.313 -1.57302 -0.09688 0
M  V30 7622 C 722.559 -1.86273 -0.801885 0
M  V30 7623 C 722.892 -0.765694 -1.78468 0
M  V30 7624 O 722.167 0.226495 -1.93177 0
M  V30 7625 C 722.45 -3.25876 -1.53221 0
M  V30 7626 C 722.303 -4.46205 -0.567529 0
M  V30 7627 C 723.622 -3.63352 -2.48321 0
M  V30 7628 H 720.741 -0.67752 -0.29006 0
M  V30 7629 H 723.383 -1.89887 -0.0655577 0
M  V30 7630 H 721.533 -3.22926 -2.15988 0
M  V30 7631 H 723.205 -4.6127 0.0529982 0
M  V30 7632 H 721.448 -4.33636 0.119233 0
M  V30 7633 H 722.119 -5.40608 -1.11564 0
M  V30 7634 H 724.595 -3.67234 -1.95648 0
M  V30 7635 H 723.471 -4.61968 -2.9644 0
M  V30 7636 H 723.732 -2.91941 -3.31998 0
M  V30 7637 N 722.791 0.367657 -1.53252 0
M  V30 7638 C 723.701 1.47415 -1.82499 0
M  V30 7639 C 724.717 1.58711 -0.713222 0
M  V30 7640 O 725.893 1.74644 -1.00306 0
M  V30 7641 C 722.958 2.82706 -2.00694 0
M  V30 7642 C 722.019 2.80955 -3.24596 0
M  V30 7643 C 721.252 4.09793 -3.41914 0
M  V30 7644 O 721.475 5.05852 -2.63572 0
M  V30 7645 O 720.409 4.15731 -4.3526 0
M  V30 7646 H 724.235 1.25624 -2.765 0
M  V30 7647 H 721.82 0.557559 -1.38606 0
M  V30 7648 H 723.702 3.62873 -2.14246 0
M  V30 7649 H 722.377 3.04479 -1.09883 0
M  V30 7650 H 721.284 1.99494 -3.16469 0
M  V30 7651 H 722.617 2.64136 -4.15323 0
M  V30 7652 N 724.269 1.44576 0.627338 0
M  V30 7653 C 725.201 1.47724 1.75243 0
M  V30 7654 C 726.214 0.370193 1.58535 0
M  V30 7655 O 727.403 0.636151 1.66779 0
M  V30 7656 C 724.503 1.2991 3.13012 0
M  V30 7657 C 723.676 2.5393 3.56143 0
M  V30 7658 C 722.735 2.30961 4.72804 0
M  V30 7659 O 721.761 3.04469 4.80923 0
M  V30 7660 N 722.963 1.34261 5.6476 0
M  V30 7661 H 725.728 2.44718 1.73012 0
M  V30 7662 H 723.289 1.40064 0.812022 0
M  V30 7663 H 725.281 1.12385 3.88782 0
M  V30 7664 H 723.851 0.412668 3.09864 0
M  V30 7665 H 723.071 2.86707 2.70542 0
M  V30 7666 H 724.359 3.36411 3.81713 0
M  V30 7667 H 723.757 0.735573 5.60897 0
M  V30 7668 H 722.314 1.22713 6.40144 0
M  V30 7669 N 725.747 -0.868086 1.31537 0
M  V30 7670 C 726.994 -1.62127 1.2133 0
M  V30 7671 C 727.322 -1.93158 -0.2281 0
M  V30 7672 O 726.577 -1.5632 -1.1774 0
M  V30 7673 C 726.876 -2.95889 2.0046 0
M  V30 7674 C 726.542 -2.84343 3.49943 0
M  V30 7675 C 725.204 -2.80901 3.90702 0
M  V30 7676 C 727.556 -2.71243 4.45058 0
M  V30 7677 C 724.884 -2.6222 5.24841 0
M  V30 7678 C 727.236 -2.54098 5.79325 0
M  V30 7679 C 725.9 -2.4904 6.19302 0
M  V30 7680 H 725.17 -0.593265 0.443979 0
M  V30 7681 H 727.817 -1.00803 1.62822 0
M  V30 7682 H 726.122 -3.61259 1.51655 0
M  V30 7683 H 727.819 -3.53161 1.89942 0
M  V30 7684 H 724.409 -2.8784 3.17563 0
M  V30 7685 H 728.593 -2.72956 4.14498 0
M  V30 7686 H 723.849 -2.56731 5.54887 0
M  V30 7687 H 728.023 -2.42938 6.52652 0
M  V30 7688 H 725.65 -2.34324 7.23185 0
M  V30 7689 N 727.225 -1.14528 -1.08264 0
M  V30 7690 C 728.188 -0.83632 -2.13397 0
M  V30 7691 C 729.188 0.159715 -1.60005 0
M  V30 7692 O 730.378 -0.0688098 -1.74064 0
M  V30 7693 C 727.51 -0.246973 -3.40004 0
M  V30 7694 H 728.703 -1.76808 -2.42237 0
M  V30 7695 H 726.256 -0.951509 -1.24 0
M  V30 7696 H 726.991 0.693436 -3.168 0
M  V30 7697 H 726.776 -0.964412 -3.80055 0
M  V30 7698 H 728.266 -0.0480679 -4.17572 0
M  V30 7699 N 728.703 1.26451 -0.940633 0
M  V30 7700 C 730.119 1.4608 -0.642859 0
M  V30 7701 C 730.319 1.84765 0.803998 0
M  V30 7702 O 729.375 1.96902 1.58069 0
M  V30 7703 C 730.688 2.54359 -1.60381 0
M  V30 7704 C 732.236 2.6821 -1.61345 0
M  V30 7705 C 732.711 3.79659 -2.56169 0
M  V30 7706 N 734.202 3.87051 -2.54452 0
M  V30 7707 C 734.937 4.72739 -3.24507 0
M  V30 7708 N 734.433 5.6282 -4.03987 0
M  V30 7709 N 736.226 4.66581 -3.13462 0
M  V30 7710 H 728.377 0.996289 -1.87584 0
M  V30 7711 H 730.64 0.498921 -0.80609 0
M  V30 7712 H 730.346 2.32758 -2.6366 0
M  V30 7713 H 730.22 3.52005 -1.35545 0
M  V30 7714 H 732.607 2.89184 -0.587913 0
M  V30 7715 H 732.688 1.7101 -1.90235 0
M  V30 7716 H 732.332 3.59438 -3.58841 0
M  V30 7717 H 732.262 4.76315 -2.2457 0
M  V30 7718 H 734.753 3.22649 -1.96739 0
M  V30 7719 H 735.066 6.25095 -4.54396 0
M  V30 7720 H 733.411 5.62574 -4.08088 0
M  V30 7721 H 736.602 3.9521 -2.50852 0
M  V30 7722 H 736.775 5.33141 -3.68327 0
M  V30 7723 N 730.181 0.707592 1.40822 0
M  V30 7724 C 731.144 0.0587224 2.29125 0
M  V30 7725 C 732.144 -0.695624 1.44975 0
M  V30 7726 O 733.334 -0.528718 1.65983 0
M  V30 7727 C 730.466 -0.926939 3.28056 0
M  V30 7728 H 731.659 0.836349 2.88002 0
M  V30 7729 H 729.212 0.471778 1.4901 0
M  V30 7730 H 729.947 -1.7319 2.74182 0
M  V30 7731 H 729.732 -0.389015 3.90165 0
M  V30 7732 H 731.222 -1.37837 3.94196 0
M  V30 7733 N 731.66 -1.50943 0.453197 0
M  V30 7734 C 732.907 -2.02212 -0.107922 0
M  V30 7735 C 733.235 -1.33639 -1.41318 0
M  V30 7736 O 732.49 -0.445154 -1.9057 0
M  V30 7737 C 732.789 -3.55603 -0.357944 0
M  V30 7738 C 732.455 -4.42556 0.863427 0
M  V30 7739 C 731.117 -4.6604 1.19834 0
M  V30 7740 C 733.469 -4.93468 1.67747 0
M  V30 7741 C 730.797 -5.37681 2.34768 0
M  V30 7742 C 733.149 -5.6637 2.81793 0
M  V30 7743 C 731.813 -5.88113 3.1572 0
M  V30 7744 H 731.083 -0.739947 -0.0394916 0
M  V30 7745 H 733.73 -1.81738 0.60363 0
M  V30 7746 H 732.035 -3.74495 -1.15156 0
M  V30 7747 H 733.732 -3.92821 -0.805781 0
M  V30 7748 H 730.322 -4.24485 0.592478 0
M  V30 7749 H 734.506 -4.75194 1.43192 0
M  V30 7750 H 729.762 -5.52727 2.61348 0
M  V30 7751 H 733.936 -6.04806 3.45229 0
M  V30 7752 H 731.563 -6.43404 4.04889 0
M  V30 7753 N 733.138 -0.185124 -1.56509 0
M  V30 7754 C 734.549 0.329221 -1.83774 0
M  V30 7755 C 734.9 1.62093 -1.10545 0
M  V30 7756 O 734.025 2.13334 -0.36298 0
M  V30 7757 C 734.62 0.604099 -3.33371 0
M  V30 7758 C 733.179 1.06284 -3.61083 0
M  V30 7759 C 732.326 0.10608 -2.77097 0
M  V30 7760 H 735.277 -0.409116 -1.53336 0
M  V30 7761 H 735.298 1.45458 -3.51599 0
M  V30 7762 H 734.81 -0.336201 -3.86641 0
M  V30 7763 H 732.911 2.01777 -3.13236 0
M  V30 7764 H 733.024 0.962453 -4.69333 0
M  V30 7765 H 731.388 0.606082 -2.47384 0
M  V30 7766 H 732.171 -0.828486 -3.33153 0
M  V30 7767 N 734.616 1.57351 0.0885366 0
M  V30 7768 C 735.549 1.97786 1.13825 0
M  V30 7769 C 736.527 0.852091 1.38485 0
M  V30 7770 O 737.711 1.11296 1.52137 0
M  V30 7771 C 734.838 2.30024 2.48609 0
M  V30 7772 C 733.884 3.52437 2.40189 0
M  V30 7773 S 734.717 5.03908 1.81209 0
M  V30 7774 C 735.873 5.39331 3.17605 0
M  V30 7775 H 736.106 2.86513 0.793587 0
M  V30 7776 H 733.639 1.51527 0.29646 0
M  V30 7777 H 735.597 2.49274 3.26148 0
M  V30 7778 H 734.258 1.41856 2.80242 0
M  V30 7779 H 733.451 3.72457 3.39546 0
M  V30 7780 H 733.053 3.32731 1.70781 0
M  V30 7781 H 735.345 5.36378 4.13891 0
M  V30 7782 H 736.288 6.4029 3.02381 0
M  V30 7783 H 736.696 4.6679 3.17438 0
M  V30 7784 N 736.094 -0.359525 1.53444 0
M  V30 7785 C 737.505 -0.936009 1.61542 0
M  V30 7786 C 737.856 -1.90069 0.486633 0
M  V30 7787 O 736.981 -2.12929 -0.386047 0
M  V30 7788 C 737.576 -1.70441 2.92806 0
M  V30 7789 C 736.135 -2.23015 3.03218 0
M  V30 7790 C 735.282 -1.04438 2.56881 0
M  V30 7791 H 738.233 -0.138134 1.58098 0
M  V30 7792 H 738.254 -2.56609 2.80948 0
M  V30 7793 H 737.766 -1.00205 3.74941 0
M  V30 7794 H 735.867 -2.96475 2.25684 0
M  V30 7795 H 735.98 -2.50481 4.08407 0
M  V30 7796 H 734.344 -1.41314 2.11902 0
M  V30 7797 H 735.127 -0.356905 3.4144 0
M  V30 7798 N 737.572 -1.44907 -0.619662 0
M  V30 7799 C 738.82 -1.47999 -1.37625 0
M  V30 7800 C 739.141 -0.118295 -1.94641 0
M  V30 7801 O 738.411 0.85086 -1.76457 0
M  V30 7802 H 736.991 -0.544993 -0.510873 0
M  V30 7803 H 739.653 -1.80772 -0.728522 0
M  V30 7804 H 738.749 -2.21196 -2.20179 0
M  V30 7805 N 739.05 0.861098 -1.31996 0
M  V30 7806 C 740.297 1.61481 -1.22188 0
M  V30 7807 C 740.625 1.93276 0.217853 0
M  V30 7808 O 739.88 1.56942 1.16909 0
M  V30 7809 C 740.179 2.94822 -2.02027 0
M  V30 7810 C 739.845 2.82483 -3.51446 0
M  V30 7811 C 738.507 2.78825 -3.92186 0
M  V30 7812 C 740.859 2.68878 -4.46491 0
M  V30 7813 C 738.187 2.59433 -5.26224 0
M  V30 7814 C 740.539 2.51022 -5.80664 0
M  V30 7815 C 739.203 2.45753 -6.20614 0
M  V30 7816 H 738.473 0.590902 -0.447119 0
M  V30 7817 H 741.12 0.999376 -1.63355 0
M  V30 7818 H 739.425 3.6045 -1.53569 0
M  V30 7819 H 741.122 3.52149 -1.91812 0
M  V30 7820 H 737.712 2.86152 -3.19085 0
M  V30 7821 H 741.896 2.70754 -4.1594 0
M  V30 7822 H 737.152 2.53784 -5.5624 0
M  V30 7823 H 741.326 2.39473 -6.53931 0
M  V30 7824 H 738.953 2.30485 -7.24417 0
M  V30 7825 N 740.528 1.15101 1.07655 0
M  V30 7826 C 741.805 0.834578 1.76902 0
M  V30 7827 C 742.185 -0.670431 2.00171 0
M  V30 7828 O 741.533 -1.61378 1.6177 0
M  V30 7829 C 741.743 1.64191 3.07965 0
M  V30 7830 C 743.091 1.84615 3.82364 0
M  V30 7831 O 744.115 1.60941 3.17768 0
M  V30 7832 O 742.974 2.24244 4.98374 0
M  V30 7833 H 740.068 0.306608 0.768063 0
M  V30 7834 H 742.614 1.25663 1.14048 0
M  V30 7835 H 741.386 2.66386 2.86626 0
M  V30 7836 H 741.009 1.216 3.78549 0
M  V30 7837 N 742.006 -1.2595 0.947325 0
M  V30 7838 C 742.916 -2.29883 0.468079 0
M  V30 7839 C 743.932 -1.67783 -0.460975 0
M  V30 7840 O 745.108 -1.98526 -0.339006 0
M  V30 7841 C 742.173 -3.45773 -0.253315 0
M  V30 7842 C 741.234 -4.23337 0.713054 0
M  V30 7843 C 740.467 -5.33694 0.025993 0
M  V30 7844 O 740.69 -5.57853 -1.18978 0
M  V30 7845 O 739.624 -5.97724 0.70782 0
M  V30 7846 H 743.45 -2.72952 1.33156 0
M  V30 7847 H 741.035 -1.31263 0.713468 0
M  V30 7848 H 742.917 -4.16209 -0.659423 0
M  V30 7849 H 741.592 -3.04721 -1.09209 0
M  V30 7850 H 740.499 -3.55359 1.16923 0
M  V30 7851 H 741.832 -4.68154 1.51963 0
M  V30 7852 N 743.484 -0.715051 -1.40445 0
M  V30 7853 C 744.434 -0.038591 -2.27967 0
M  V30 7854 C 745.418 0.733099 -1.43229 0
M  V30 7855 O 746.61 0.605388 -1.66325 0
M  V30 7856 C 743.739 0.882801 -3.31755 0
M  V30 7857 C 742.825 0.106325 -4.23967 0
M  V30 7858 N 743.216 -0.910143 -4.97544 0
M  V30 7859 C 741.514 0.33896 -4.4471 0
M  V30 7860 C 742.215 -1.37665 -5.65175 0
M  V30 7861 N 741.191 -0.698905 -5.39088 0
M  V30 7862 H 744.993 -0.81765 -2.82297 0
M  V30 7863 H 742.507 -0.547591 -1.5289 0
M  V30 7864 H 744.504 1.38273 -3.93302 0
M  V30 7865 H 743.164 1.66124 -2.78985 0
M  V30 7866 H 744.175 -1.29097 -5.01552 0
M  V30 7867 H 740.852 1.09377 -4.02918 0
M  V30 7868 H 742.242 -2.22122 -6.34123 0
M  V30 7869 O 745.001 1.49816 -0.603118 0
M  V30 7870 H 745.692 1.93366 -0.113681 0
M  V30 END ATOM
M  V30 BEGIN BOND
M  V30 END BOND
M  V30 END CTAB
M  END
$$$$
