drugbank_target|Q9Y2H9 Microtubule-associated serine/threonine-protein kinase 1 (DB12010)
 OpenBabel12092121173D

  0  0  0     0  0            999 V3000
M  V30 BEGIN CTAB
M  V30 COUNTS 23896 24190 0 0 0
M  V30 BEGIN ATOM
M  V30 1 H -0.908 1.98254 -0.117106 0
M  V30 2 N 0 1.576 0 0
M  V30 3 C 0.933 2.03868 1.02534 0
M  V30 4 C 1.911 0.928543 1.3348 0
M  V30 5 O 3.095 1.19667 1.45644 0
M  V30 6 C 0.222 2.43627 2.35294 0
M  V30 7 C -0.732 3.65373 2.2001 0
M  V30 8 S 0.101 5.13292 1.52614 0
M  V30 9 C 1.257 5.56322 2.86805 0
M  V30 10 H 1.49 2.90518 0.631377 0
M  V30 11 H -0.977 1.52953 0.210867 0
M  V30 12 H 0.981 2.67203 3.11629 0
M  V30 13 H -0.358 1.57376 2.7183 0
M  V30 14 H -1.165 3.90944 3.18086 0
M  V30 15 H -1.563 3.418 1.51819 0
M  V30 16 H 0.729 5.58782 3.83104 0
M  V30 17 H 1.672 6.56266 2.65933 0
M  V30 18 H 2.08 4.83886 2.90714 0
M  V30 19 N 1.4781 -0.272755 1.55222 0
M  V30 20 C 2.7031 -1.02683 1.80197 0
M  V30 21 C 3.1281 -1.79142 0.573551 0
M  V30 22 O 2.4861 -1.74917 -0.476849 0
M  V30 23 C 2.5341 -1.9609 3.02624 0
M  V30 24 O 1.6381 -3.04863 2.77727 0
M  V30 25 H 0.9791 -0.293557 0.595584 0
M  V30 26 H 3.5091 -0.30159 2.02365 0
M  V30 27 H 3.5191 -2.38039 3.31363 0
M  V30 28 H 2.1941 -1.39851 3.91682 0
M  V30 29 H 0.7711 -2.67228 2.60084 0
M  V30 30 N 2.9562 -1.48159 -0.537278 0
M  V30 31 C 4.2332 -1.46291 -1.29839 0
M  V30 32 C 4.6132 -0.170613 -2.10409 0
M  V30 33 O 3.9612 0.847746 -2.12192 0
M  V30 34 C 4.1712 -2.72055 -2.18603 0
M  V30 35 C 5.5192 -3.20087 -2.7898 0
M  V30 36 O 6.5432 -2.72921 -2.28894 0
M  V30 37 O 5.4022 -4.02138 -3.70064 0
M  V30 38 H 2.4962 -0.583906 -0.585647 0
M  V30 39 H 5.0422 -1.60384 -0.554534 0
M  V30 40 H 3.8142 -3.57628 -1.58801 0
M  V30 41 H 3.4372 -2.60646 -3.00249 0
M  V30 42 N 4.4343 0.785586 -1.36625 0
M  V30 43 C 5.6593 1.57963 -1.34397 0
M  V30 44 C 6.0843 1.87964 0.071526 0
M  V30 45 O 5.4423 1.48182 1.0446 0
M  V30 46 C 5.4903 2.87511 -2.17646 0
M  V30 47 O 4.5943 3.81281 -1.57158 0
M  V30 48 H 3.9353 0.479014 -0.459828 0
M  V30 49 H 6.4653 0.973411 -1.79961 0
M  V30 50 H 6.4753 3.36745 -2.30362 0
M  V30 51 H 5.1503 2.65002 -3.20541 0
M  V30 52 H 3.7273 3.39885 -1.53403 0
M  V30 53 N 5.9124 1.20967 1.01018 0
M  V30 54 C 6.8424 0.988272 2.11555 0
M  V30 55 C 7.8234 -0.0849778 1.69888 0
M  V30 56 O 9.0084 0.0738202 1.9406 0
M  V30 57 C 6.1384 0.546528 3.42973 0
M  V30 58 C 5.0924 1.56375 3.9841 0
M  V30 59 C 4.4184 0.97842 5.25672 0
M  V30 60 C 5.7184 2.94922 4.31066 0
M  V30 61 H 7.4124 1.91276 2.30334 0
M  V30 62 H 4.9584 0.921073 1.1069 0
M  V30 63 H 6.9114 0.378839 4.19694 0
M  V30 64 H 5.6354 -0.413598 3.23971 0
M  V30 65 H 4.2944 1.71891 3.23804 0
M  V30 66 H 3.9424 0.0101688 5.02999 0
M  V30 67 H 3.6424 1.65784 5.63728 0
M  V30 68 H 5.1664 0.821939 6.05043 0
M  V30 69 H 6.5804 2.8288 4.9865 0
M  V30 70 H 4.9774 3.5983 4.80253 0
M  V30 71 H 6.0474 3.4616 3.39561 0
M  V30 72 N 7.3905 -1.2043 1.01659 0
M  V30 73 C 8.6365 -1.90356 0.716674 0
M  V30 74 C 8.9915 -1.77367 -0.745557 0
M  V30 75 O 8.2845 -1.1471 -1.53467 0
M  V30 76 C 8.4785 -3.40464 1.08714 0
M  V30 77 C 8.3075 -3.6806 2.58384 0
M  V30 78 C 7.0775 -3.86775 3.25167 0
M  V30 79 C 9.2755 -3.70623 3.56572 0
M  V30 80 N 7.2575 -4.01889 4.64067 0
M  V30 81 C 8.6285 -3.91161 4.81034 0
M  V30 82 C 10.6835 -3.53586 3.50544 0
M  V30 83 C 9.3865 -3.96428 6.00198 0
M  V30 84 C 11.4125 -3.60125 4.6911 0
M  V30 85 C 10.7745 -3.81135 5.92381 0
M  V30 86 H 6.8735 -0.716226 0.313918 0
M  V30 87 H 9.4575 -1.44815 1.30141 0
M  V30 88 H 7.6285 -3.84757 0.530745 0
M  V30 89 H 9.3605 -3.97863 0.740763 0
M  V30 90 H 6.1155 -3.85156 2.75594 0
M  V30 91 H 6.5395 -4.13323 5.36184 0
M  V30 92 H 11.1815 -3.36308 2.56235 0
M  V30 93 H 8.8995 -4.12502 6.94887 0
M  V30 94 H 12.4855 -3.4825 4.66062 0
M  V30 95 H 11.3655 -3.86054 6.82592 0
M  V30 96 N 8.8686 -0.792821 -1.36206 0
M  V30 97 C 10.0966 -0.378825 -2.03402 0
M  V30 98 C 10.5116 1.00586 -1.59774 0
M  V30 99 O 9.8686 1.64574 -0.788764 0
M  V30 100 C 9.9196 -0.43683 -3.58851 0
M  V30 101 O 9.6406 -1.76691 -4.00889 0
M  V30 102 C 11.1416 -0.0138943 -4.43298 0
M  V30 103 H 8.3616 -0.155673 -0.652692 0
M  V30 104 H 10.9056 -1.07261 -1.74113 0
M  V30 105 H 9.0606 0.208575 -3.86838 0
M  V30 106 H 9.4746 -1.72011 -4.95492 0
M  V30 107 H 10.9486 -0.105615 -5.51899 0
M  V30 108 H 11.4256 1.03915 -4.2673 0
M  V30 109 H 12.0316 -0.63192 -4.20579 0
M  V30 110 N 10.3467 1.47872 -0.545128 0
M  V30 111 C 11.3097 2.28337 0.198717 0
M  V30 112 C 12.3097 1.36255 0.853888 0
M  V30 113 O 13.4997 1.59003 0.711606 0
M  V30 114 C 10.6317 3.15585 1.28915 0
M  V30 115 H 11.8247 2.95567 -0.507941 0
M  V30 116 H 9.3777 1.53362 -0.301616 0
M  V30 117 H 10.1127 2.53019 2.02859 0
M  V30 118 H 9.8977 3.83337 0.824309 0
M  V30 119 H 11.3877 3.76243 1.81194 0
M  V30 120 N 11.8248 0.280983 1.55075 0
M  V30 121 C 12.7548 -0.597469 2.25727 0
M  V30 122 C 13.7358 -1.15417 1.24952 0
M  V30 123 O 14.9208 -1.18722 1.53684 0
M  V30 124 C 12.0508 -1.7789 2.98283 0
M  V30 125 C 11.0048 -1.35347 4.06036 0
M  V30 126 C 10.3308 -2.61846 4.66198 0
M  V30 127 C 11.6308 -0.499354 5.19907 0
M  V30 128 H 13.3248 -0.00824265 2.99399 0
M  V30 129 H 10.8708 -0.0025244 1.44 0
M  V30 130 H 12.8238 -2.39937 3.46422 0
M  V30 131 H 11.5478 -2.39405 2.22155 0
M  V30 132 H 10.2068 -0.756156 3.58717 0
M  V30 133 H 9.8548 -3.21632 3.86732 0
M  V30 134 H 9.5548 -2.3409 5.38958 0
M  V30 135 H 11.0788 -3.24732 5.1709 0
M  V30 136 H 12.4928 -1.02498 5.64063 0
M  V30 137 H 10.8898 -0.316424 5.99265 0
M  V30 138 H 11.9598 0.480459 4.82514 0
M  V30 139 N 13.3029 -1.57598 0.00835791 0
M  V30 140 C 14.5279 -1.95617 -0.689103 0
M  V30 141 C 14.9529 -0.883753 -1.66046 0
M  V30 142 O 14.3109 0.157352 -1.80616 0
M  V30 143 C 14.3589 -3.32736 -1.38994 0
M  V30 144 O 13.4629 -3.27631 -2.50463 0
M  V30 145 H 12.8039 -0.638379 -0.182668 0
M  V30 146 H 15.3339 -2.045 0.064036 0
M  V30 147 H 15.3439 -3.68494 -1.75147 0
M  V30 148 H 14.0189 -4.1034 -0.677778 0
M  V30 149 H 12.5959 -3.03561 -2.16576 0
M  V30 150 N 14.781 0.264519 -1.55364 0
M  V30 151 C 15.729 1.34702 -1.89626 0
M  V30 152 C 16.723 1.50712 -0.773459 0
M  V30 153 O 17.929 1.52395 -0.957897 0
M  V30 154 H 14.304 0.450682 -0.601988 0
M  V30 155 H 16.275 1.0306 -2.80038 0
M  V30 156 C 15.024 2.6989 -2.19214 0
M  V30 157 H 14.347 2.58365 -3.05103 0
M  V30 158 H 15.787 3.44553 -2.47102 0
M  V30 159 C 14.246 3.21637 -1.00254 0
M  V30 160 O 14.776 4.00973 -0.241501 0
M  V30 161 N 12.982 2.7943 -0.797938 0
M  V30 162 H 12.529 2.15026 -1.4185 0
M  V30 163 H 12.487 3.144 -0.00363422 0
M  V30 164 N 16.2591 1.48442 0.529413 0
M  V30 165 C 17.5061 1.56488 1.28521 0
M  V30 166 C 17.8341 0.239042 1.93025 0
M  V30 167 O 17.0891 -0.770713 1.79885 0
M  V30 168 C 17.3881 2.6523 2.39558 0
M  V30 169 C 17.0541 4.07648 1.92702 0
M  V30 170 C 15.7161 4.46411 1.79641 0
M  V30 171 C 18.0681 4.96896 1.573 0
M  V30 172 C 15.3961 5.72226 1.29514 0
M  V30 173 C 17.7481 6.23202 1.08636 0
M  V30 174 C 16.4121 6.60821 0.941919 0
M  V30 175 H 15.6821 0.572631 0.470292 0
M  V30 176 H 18.3291 1.82161 0.59072 0
M  V30 177 H 16.6341 2.33419 3.14679 0
M  V30 178 H 18.3311 2.68671 2.97686 0
M  V30 179 H 14.9211 3.77036 2.03819 0
M  V30 180 H 19.1051 4.67626 1.66251 0
M  V30 181 H 14.3611 6.00097 1.17019 0
M  V30 182 H 18.5351 6.91753 0.803136 0
M  V30 183 H 16.1621 7.58198 0.5513 0
M  V30 184 N 17.7372 -0.778329 1.37039 0
M  V30 185 C 18.9622 -1.57248 1.35233 0
M  V30 186 C 19.3872 -1.87999 -0.0615568 0
M  V30 187 O 18.7452 -1.48734 -1.03672 0
M  V30 188 C 18.7932 -2.86353 2.19167 0
M  V30 189 O 17.8972 -3.80442 1.59178 0
M  V30 190 H 17.2382 -0.476569 0.462362 0
M  V30 191 H 19.7682 -0.963853 1.80474 0
M  V30 192 H 19.7782 -3.35519 2.32145 0
M  V30 193 H 18.4532 -2.63299 3.21942 0
M  V30 194 H 17.0302 -3.39067 1.55203 0
M  V30 195 N 19.2153 -1.21501 -1.00376 0
M  V30 196 C 20.1483 -0.918669 -2.08892 0
M  V30 197 C 21.1263 0.134277 -1.62045 0
M  V30 198 O 22.3103 0.00504255 -1.88499 0
M  V30 199 C 19.4373 -0.379645 -3.36566 0
M  V30 200 C 18.4833 -1.41559 -4.02323 0
M  V30 201 S 19.3163 -2.98521 -4.44574 0
M  V30 202 C 20.4723 -2.46228 -5.75433 0
M  V30 203 H 20.7053 -1.83761 -2.33707 0
M  V30 204 H 18.2383 -1.04489 -1.13673 0
M  V30 205 H 20.1963 -0.0752195 -4.10431 0
M  V30 206 H 18.8573 0.518008 -3.09799 0
M  V30 207 H 18.0503 -0.988076 -4.9422 0
M  V30 208 H 17.6523 -1.66815 -3.34737 0
M  V30 209 H 19.9443 -1.86791 -6.51241 0
M  V30 210 H 20.8873 -3.36572 -6.22997 0
M  V30 211 H 21.2953 -1.87894 -5.32312 0
M  V30 212 N 20.6934 1.19889 -1.02296 0
M  V30 213 C 22.1044 1.71124 -0.746568 0
M  V30 214 C 22.4554 1.81939 0.734335 0
M  V30 215 O 21.5804 1.48639 1.57275 0
M  V30 216 C 22.1754 3.10804 -1.34857 0
M  V30 217 C 20.7344 3.59323 -1.1209 0
M  V30 218 C 19.8814 2.3635 -1.45031 0
M  V30 219 H 22.8324 1.04813 -1.19163 0
M  V30 220 H 22.8534 3.73186 -0.742437 0
M  V30 221 H 22.3654 3.029 -2.42638 0
M  V30 222 H 20.4664 3.7255 -0.0610337 0
M  V30 223 H 20.5794 4.4378 -1.80544 0
M  V30 224 H 18.9434 2.39399 -0.869487 0
M  V30 225 H 19.7264 2.31081 -2.53883 0
M  V30 226 N 22.1715 0.800033 1.35784 0
M  V30 227 C 23.3965 0.388511 2.03729 0
M  V30 228 C 23.8215 -0.990481 1.5991 0
M  V30 229 O 23.1795 -1.64013 0.772612 0
M  V30 230 C 23.2275 0.4726 3.5749 0
M  V30 231 O 22.3315 -0.51646 4.09153 0
M  V30 232 H 21.6725 0.163271 0.643614 0
M  V30 233 H 24.2025 1.0841 1.73518 0
M  V30 234 H 24.2125 0.34003 4.06581 0
M  V30 235 H 22.8875 1.47848 3.88734 0
M  V30 236 H 21.4645 -0.344673 3.71304 0
M  V30 237 N 23.6496 -1.47581 0.552962 0
M  V30 238 C 24.8966 -2.02482 0.0273243 0
M  V30 239 C 25.2246 -1.42776 -1.32081 0
M  V30 240 O 24.4796 -0.571393 -1.87173 0
M  V30 241 C 24.7786 -3.57199 -0.119728 0
M  V30 242 C 24.4446 -4.35804 1.15697 0
M  V30 243 C 23.1066 -4.57 1.50681 0
M  V30 244 C 25.4586 -4.81167 2.00319 0
M  V30 245 C 22.7866 -5.20807 2.70142 0
M  V30 246 C 25.1386 -5.46293 3.18978 0
M  V30 247 C 23.8026 -5.65722 3.54281 0
M  V30 248 H 23.0726 -0.740933 0.00999866 0
M  V30 249 H 25.7196 -1.77302 0.72362 0
M  V30 250 H 24.0246 -3.81348 -0.89896 0
M  V30 251 H 25.7216 -3.97324 -0.541718 0
M  V30 252 H 22.3116 -4.19582 0.874561 0
M  V30 253 H 26.4956 -4.64574 1.74599 0
M  V30 254 H 21.7516 -5.34045 2.97668 0
M  V30 255 H 25.9256 -5.80407 3.84838 0
M  V30 256 H 23.5526 -6.14936 4.46942 0
M  V30 257 N 25.1277 -0.289203 -1.54924 0
M  V30 258 C 26.5387 0.205791 -1.85562 0
M  V30 259 C 26.8897 1.54351 -1.2112 0
M  V30 260 O 26.0147 2.10435 -0.504601 0
M  V30 261 C 26.6097 0.380177 -3.3666 0
M  V30 262 C 25.1687 0.819395 -3.67373 0
M  V30 263 C 24.3157 -0.079159 -2.77187 0
M  V30 264 H 27.2667 -0.510577 -1.50262 0
M  V30 265 H 27.2877 1.21659 -3.60526 0
M  V30 266 H 26.7997 -0.593589 -3.83534 0
M  V30 267 H 24.9007 1.80413 -3.26009 0
M  V30 268 H 25.0137 0.646957 -4.74712 0
M  V30 269 H 23.3777 0.439565 -2.50878 0
M  V30 270 H 24.1607 -1.04906 -3.26878 0
M  V30 271 N 26.6058 1.57591 -0.0167156 0
M  V30 272 C 27.8538 1.90906 0.663285 0
M  V30 273 C 28.1748 0.892509 1.73376 0
M  V30 274 O 27.4448 -0.0677623 1.95783 0
M  V30 275 H 26.0248 0.704637 0.247983 0
M  V30 276 H 28.6868 1.94803 -0.0615909 0
M  V30 277 H 27.7828 2.9116 1.12393 0
M  V30 278 N 28.0839 -0.256276 1.55502 0
M  V30 279 C 29.3319 -0.983672 1.76545 0
M  V30 280 C 29.6529 -1.86206 0.578982 0
M  V30 281 O 28.9229 -1.91656 -0.405577 0
M  V30 282 H 27.5029 -0.366191 0.651086 0
M  V30 283 H 30.1649 -0.276479 1.92929 0
M  V30 284 H 29.2609 -1.61087 2.67315 0
M  V30 285 N 29.562 -1.4872 -0.521534 0
M  V30 286 C 30.787 -1.61101 -1.30618 0
M  V30 287 C 31.212 -0.274611 -1.86085 0
M  V30 288 O 30.57 0.754937 -1.64834 0
M  V30 289 C 30.618 -2.66709 -2.4269 0
M  V30 290 O 29.722 -2.24456 -3.45967 0
M  V30 291 H 29.063 -0.539921 -0.386499 0
M  V30 292 H 31.593 -1.94767 -0.626645 0
M  V30 293 H 31.603 -2.88245 -2.88754 0
M  V30 294 H 30.278 -3.63727 -2.01682 0
M  V30 295 H 28.855 -2.13168 -3.05964 0
M  V30 296 N 31.0401 0.771051 -1.3745 0
M  V30 297 C 31.9731 1.89166 -1.27638 0
M  V30 298 C 32.9511 1.61842 -0.156782 0
M  V30 299 O 34.1351 1.85569 -0.331111 0
M  V30 300 C 31.2621 3.24405 -0.973621 0
M  V30 301 C 30.3081 3.70638 -2.1102 0
M  V30 302 S 31.1411 3.84228 -3.73 0
M  V30 303 C 32.2971 5.22313 -3.44876 0
M  V30 304 H 32.5301 1.972 -2.22485 0
M  V30 305 H 30.0631 0.932224 -1.23081 0
M  V30 306 H 32.0211 4.02514 -0.805766 0
M  V30 307 H 30.6821 3.14071 -0.0426279 0
M  V30 308 H 29.8751 4.68685 -1.85338 0
M  V30 309 H 29.4771 2.99632 -2.23822 0
M  V30 310 H 31.7691 6.07505 -2.99908 0
M  V30 311 H 32.7121 5.53008 -4.42253 0
M  V30 312 H 33.1201 4.90284 -2.79789 0
M  V30 313 N 32.5182 1.22032 0.997298 0
M  V30 314 C 33.7652 1.04222 1.73621 0
M  V30 315 C 34.0932 -0.423264 1.89839 0
M  V30 316 O 33.3482 -1.3302 1.43542 0
M  V30 317 C 33.6472 1.69345 3.14733 0
M  V30 318 C 33.3132 3.19226 3.18442 0
M  V30 319 C 31.9752 3.60124 3.19161 0
M  V30 320 C 34.3272 4.15181 3.15078 0
M  V30 321 C 31.6552 4.95467 3.14212 0
M  V30 322 C 34.0072 5.50495 3.1167 0
M  V30 323 C 32.6712 5.90779 3.10703 0
M  V30 324 H 31.9412 0.381374 0.635323 0
M  V30 325 H 34.5882 1.51732 1.16831 0
M  V30 326 H 32.8932 1.14147 3.74803 0
M  V30 327 H 34.5902 1.53059 3.7064 0
M  V30 328 H 31.1802 2.86659 3.18629 0
M  V30 329 H 35.3642 3.84605 3.13676 0
M  V30 330 H 30.6202 5.25916 3.11805 0
M  V30 331 H 34.7942 6.24576 3.08022 0
M  V30 332 H 32.4212 6.9562 3.06622 0
M  V30 333 N 33.9963 -1.19345 1.0293 0
M  V30 334 C 35.4123 -1.41069 0.746446 0
M  V30 335 C 35.6123 -1.90078 -0.668776 0
M  V30 336 O 34.6683 -2.0778 -1.4347 0
M  V30 337 C 35.9813 -2.42141 1.78292 0
M  V30 338 C 37.5293 -2.55887 1.80252 0
M  V30 339 C 38.0043 -3.60214 2.8286 0
M  V30 340 N 39.4953 -3.67711 2.81679 0
M  V30 341 C 40.2303 -4.48128 3.57727 0
M  V30 342 N 39.7263 -5.32248 4.43491 0
M  V30 343 N 41.5193 -4.42782 3.46267 0
M  V30 344 H 33.6703 -0.858536 1.94275 0
M  V30 345 H 35.9333 -0.439541 0.839945 0
M  V30 346 H 35.6393 -2.13155 2.79746 0
M  V30 347 H 35.5133 -3.41323 1.60557 0
M  V30 348 H 37.9003 -2.84196 0.794757 0
M  V30 349 H 37.9813 -1.56858 2.02062 0
M  V30 350 H 37.6253 -3.32647 3.83807 0
M  V30 351 H 37.5553 -4.58895 2.58307 0
M  V30 352 H 40.0463 -3.07634 2.19476 0
M  V30 353 H 40.3593 -5.90729 4.98256 0
M  V30 354 H 38.7043 -5.31707 4.47564 0
M  V30 355 H 41.8953 -3.76107 2.78677 0
M  V30 356 H 42.0683 -5.05215 4.05785 0
M  V30 357 N 35.4744 -0.807222 -1.35358 0
M  V30 358 C 36.8904 -0.491038 -1.51858 0
M  V30 359 C 37.0904 0.987648 -1.75635 0
M  V30 360 O 36.1464 1.77265 -1.79815 0
M  V30 361 C 37.4594 -1.33695 -2.69344 0
M  V30 362 C 39.0074 -1.33246 -2.83222 0
M  V30 363 C 39.4824 -2.1625 -4.03733 0
M  V30 364 N 40.9734 -2.1379 -4.10911 0
M  V30 365 C 41.7084 -2.74772 -5.03277 0
M  V30 366 N 41.2044 -3.44684 -6.0097 0
M  V30 367 N 42.9974 -2.6441 -4.96028 0
M  V30 368 H 35.1484 -1.76485 -1.18181 0
M  V30 369 H 37.4114 -0.751199 -0.578276 0
M  V30 370 H 37.1174 -2.38634 -2.58354 0
M  V30 371 H 36.9914 -0.990618 -3.6396 0
M  V30 372 H 39.3784 -0.290911 -2.93663 0
M  V30 373 H 39.4594 -1.71866 -1.89461 0
M  V30 374 H 39.1034 -3.20445 -3.94052 0
M  V30 375 H 39.0334 -1.74989 -4.96675 0
M  V30 376 H 41.5244 -1.62923 -3.40976 0
M  V30 377 H 41.8374 -3.88501 -6.68047 0
M  V30 378 H 40.1824 -3.48788 -6.01142 0
M  V30 379 H 43.3734 -2.0938 -4.18662 0
M  V30 380 H 43.5464 -3.12225 -5.6782 0
M  V30 381 N 36.9525 1.47285 -0.560781 0
M  V30 382 C 38.1805 2.06855 -0.0430262 0
M  V30 383 C 38.5955 1.41291 1.25229 0
M  V30 384 O 37.9525 0.510648 1.7521 0
M  V30 385 C 38.0035 3.61178 0.152518 0
M  V30 386 O 37.7245 4.24285 -1.0915 0
M  V30 387 C 39.2255 4.37624 0.707145 0
M  V30 388 H 36.4455 0.669319 -0.0474652 0
M  V30 389 H 38.9895 1.89237 -0.77521 0
M  V30 390 H 37.1445 3.78298 0.834843 0
M  V30 391 H 37.5585 5.16868 -0.891482 0
M  V30 392 H 39.0325 5.46271 0.793244 0
M  V30 393 H 39.5095 4.04152 1.71923 0
M  V30 394 H 40.1155 4.25257 0.0604027 0
M  V30 395 N 38.4306 0.297415 1.54768 0
M  V30 396 C 39.3776 -0.580276 2.23386 0
M  V30 397 C 40.3476 -1.13238 1.21517 0
M  V30 398 O 41.5326 -1.17757 1.50126 0
M  V30 399 C 38.6726 -1.74801 2.97555 0
M  V30 400 C 37.7856 -1.22764 4.1419 0
M  V30 401 C 36.9206 -2.35895 4.75949 0
M  V30 402 C 35.9596 -1.80974 5.84735 0
M  V30 403 N 35.0966 -2.87664 6.40464 0
M  V30 404 H 39.9366 0.0114833 2.97998 0
M  V30 405 H 37.4736 0.0174361 1.4709 0
M  V30 406 H 39.4316 -2.43475 3.38786 0
M  V30 407 H 38.0616 -2.31145 2.25326 0
M  V30 408 H 37.1136 -0.433271 3.77924 0
M  V30 409 H 38.4256 -0.785551 4.92575 0
M  V30 410 H 37.5796 -3.12523 5.20014 0
M  V30 411 H 36.3186 -2.83429 3.96887 0
M  V30 412 H 35.3236 -1.02834 5.40097 0
M  V30 413 H 36.5486 -1.34348 6.65678 0
M  V30 414 H 34.4946 -3.34538 5.64287 0
M  V30 415 H 34.4116 -2.4794 7.14186 0
M  V30 416 H 35.6796 -3.642 6.89187 0
M  V30 417 N 39.9087 -1.5758 0.0250728 0
M  V30 418 C 41.1337 -1.96337 -0.668317 0
M  V30 419 C 41.5587 -0.901314 -1.651 0
M  V30 420 O 40.9167 0.138187 -1.80773 0
M  V30 421 C 40.9647 -3.34191 -1.35457 0
M  V30 422 O 40.0687 -3.30269 -2.46974 0
M  V30 423 H 39.4097 -0.640281 -0.175887 0
M  V30 424 H 41.9397 -2.0442 0.0857224 0
M  V30 425 H 41.9497 -3.70331 -1.71228 0
M  V30 426 H 40.6247 -4.11036 -0.634218 0
M  V30 427 H 39.2017 -3.05841 -2.13344 0
M  V30 428 N 41.3868 0.248026 -1.55636 0
M  V30 429 C 42.6268 0.983592 -1.79178 0
M  V30 430 C 42.9908 1.82567 -0.594414 0
M  V30 431 O 44.1918 2.59292 -0.708583 0
M  V30 432 C 42.4628 1.82228 -3.07454 0
M  V30 433 S 44.0218 2.61709 -3.52213 0
M  V30 434 H 40.8398 0.330866 -0.629324 0
M  V30 435 H 43.4418 0.251562 -1.93875 0
M  V30 436 H 42.1458 1.19333 -3.92668 0
M  V30 437 H 41.6768 2.59708 -2.95492 0
M  V30 438 H 43.6918 3.84655 -3.13457 0
M  V30 439 N 42.8649 1.48995 0.513639 0
M  V30 440 C 44.2809 1.35478 0.843682 0
M  V30 441 C 44.4809 0.378213 1.97919 0
M  V30 442 O 43.5369 -0.194689 2.51748 0
M  V30 443 C 44.8499 2.75901 1.1958 0
M  V30 444 C 46.3979 2.84509 1.30474 0
M  V30 445 C 46.8729 4.25671 1.69021 0
M  V30 446 N 48.3639 4.28422 1.76094 0
M  V30 447 C 49.0989 5.34601 2.07338 0
M  V30 448 N 48.5949 6.5104 2.36894 0
M  V30 449 N 50.3879 5.22007 2.08483 0
M  V30 450 H 42.5389 2.11092 -0.235328 0
M  V30 451 H 44.8019 0.947039 -0.0426669 0
M  V30 452 H 44.5079 3.49001 0.434913 0
M  V30 453 H 44.3819 3.10467 2.1422 0
M  V30 454 H 46.7689 2.11655 2.05637 0
M  V30 455 H 46.8499 2.53542 0.339155 0
M  V30 456 H 46.4939 4.99048 0.944135 0
M  V30 457 H 46.4239 4.54094 2.66658 0
M  V30 458 H 48.9149 3.44441 1.55464 0
M  V30 459 H 49.2279 7.2779 2.59887 0
M  V30 460 H 47.5729 6.54287 2.34378 0
M  V30 461 H 50.7639 4.30051 1.84861 0
M  V30 462 H 50.9369 6.04854 2.325 0
M  V30 463 N 44.343 -0.763751 1.37857 0
M  V30 464 C 45.571 -1.55293 1.36718 0
M  V30 465 C 45.986 -1.88745 -0.0455434 0
M  V30 466 O 45.343 -1.52039 -1.00947 0
M  V30 467 C 45.394 -2.85831 2.2132 0
M  V30 468 O 45.115 -2.5381 3.57089 0
M  V30 469 C 46.616 -3.80023 2.28249 0
M  V30 470 H 43.836 -0.480841 0.468009 0
M  V30 471 H 46.38 -0.946009 1.81303 0
M  V30 472 H 44.535 -3.42926 1.80223 0
M  V30 473 H 44.949 -3.37459 4.01524 0
M  V30 474 H 46.423 -4.68599 2.91752 0
M  V30 475 H 46.9 -4.1973 1.2932 0
M  V30 476 H 47.506 -3.28855 2.69693 0
M  V30 477 N 45.8211 -1.22559 -0.990812 0
M  V30 478 C 47.0461 -1.07862 -1.77145 0
M  V30 479 C 47.4711 0.366447 -1.84496 0
M  V30 480 O 46.8291 1.26478 -1.29896 0
M  V30 481 C 46.8771 -1.69686 -3.18181 0
M  V30 482 O 45.9811 -0.951946 -4.01263 0
M  V30 483 H 45.3221 -0.378712 -0.545411 0
M  V30 484 H 47.8521 -1.62399 -1.2445 0
M  V30 485 H 47.8621 -1.74496 -3.68802 0
M  V30 486 H 46.5371 -2.74841 -3.12146 0
M  V30 487 H 45.1141 -0.980011 -3.59792 0
M  V30 488 N 47.2992 1.18797 -1.03562 0
M  V30 489 C 48.2472 2.24297 -0.615905 0
M  V30 490 C 49.2412 1.65643 0.354808 0
M  V30 491 O 50.4472 1.78618 0.22265 0
M  V30 492 H 46.8222 0.729909 -0.180934 0
M  V30 493 H 48.7932 2.5701 -1.5162 0
M  V30 494 C 47.5422 3.47698 0.0104735 0
M  V30 495 H 46.8652 3.93125 -0.727509 0
M  V30 496 H 48.3052 4.23159 0.266995 0
M  V30 497 C 46.7642 3.12489 1.25905 0
M  V30 498 O 47.2942 3.25761 2.35038 0
M  V30 499 N 45.5002 2.6686 1.15039 0
M  V30 500 H 45.0472 2.56261 0.262328 0
M  V30 501 H 45.0052 2.43674 1.98672 0
M  V30 502 N 48.7773 0.814389 1.34928 0
M  V30 503 C 50.1933 0.499084 1.51596 0
M  V30 504 C 50.3933 -0.978319 1.76157 0
M  V30 505 O 49.4493 -1.76309 1.80752 0
M  V30 506 C 50.7623 1.35121 2.68631 0
M  V30 507 C 52.3103 1.34746 2.82511 0
M  V30 508 C 52.7853 2.18388 4.0258 0
M  V30 509 N 54.2763 2.15966 4.09772 0
M  V30 510 C 55.0113 2.77437 5.01813 0
M  V30 511 N 54.5073 3.47866 5.99134 0
M  V30 512 N 56.3003 2.67037 4.94619 0
M  V30 513 H 48.4513 1.7711 1.17243 0
M  V30 514 H 50.7143 0.754256 0.574284 0
M  V30 515 H 50.4203 2.40001 2.57085 0
M  V30 516 H 50.2943 1.00991 3.63429 0
M  V30 517 H 52.6813 0.30648 2.93504 0
M  V30 518 H 52.7623 1.72869 1.88547 0
M  V30 519 H 52.4063 3.2253 3.92347 0
M  V30 520 H 52.3363 1.77621 4.9574 0
M  V30 521 H 54.8273 1.64729 3.40107 0
M  V30 522 H 55.1403 3.92038 6.65977 0
M  V30 523 H 53.4853 3.51972 5.99284 0
M  V30 524 H 56.6763 2.11597 4.17546 0
M  V30 525 H 56.8493 3.15232 5.66156 0
M  V30 526 N 50.2554 -1.46986 0.568584 0
M  V30 527 C 51.2024 -2.30153 -0.172707 0
M  V30 528 C 52.1724 -1.39759 -0.897586 0
M  V30 529 O 53.3574 -1.68716 -0.891044 0
M  V30 530 C 50.4974 -3.23952 -1.1895 0
M  V30 531 C 49.6104 -4.29441 -0.469517 0
M  V30 532 C 48.7454 -5.1038 -1.47259 0
M  V30 533 C 47.7844 -6.07632 -0.738225 0
M  V30 534 N 46.9214 -6.8149 -1.68868 0
M  V30 535 H 51.7614 -2.93019 0.542596 0
M  V30 536 H 49.2984 -1.44422 0.279401 0
M  V30 537 H 51.2564 -3.76767 -1.79173 0
M  V30 538 H 49.8864 -2.62926 -1.87269 0
M  V30 539 H 48.9384 -3.79594 0.247467 0
M  V30 540 H 50.2504 -4.98689 0.105241 0
M  V30 541 H 49.4044 -5.67402 -2.14803 0
M  V30 542 H 48.1434 -4.4106 -2.08128 0
M  V30 543 H 47.1484 -5.49778 -0.0489293 0
M  V30 544 H 48.3734 -6.78966 -0.135129 0
M  V30 545 H 46.3194 -6.14891 -2.28573 0
M  V30 546 H 46.2364 -7.46948 -1.16636 0
M  V30 547 H 47.5044 -7.43078 -2.3549 0
M  V30 548 N 51.7335 -0.305618 -1.54608 0
M  V30 549 C 52.9585 0.307562 -2.05107 0
M  V30 550 C 53.3835 1.46385 -1.18123 0
M  V30 551 O 52.7415 1.8034 -0.186324 0
M  V30 552 C 52.7895 0.73704 -3.52987 0
M  V30 553 O 51.8935 1.84134 -3.6901 0
M  V30 554 H 51.2345 0.0589143 -0.661381 0
M  V30 555 H 53.7645 -0.448807 -1.99617 0
M  V30 556 H 53.7745 1.02459 -3.94925 0
M  V30 557 H 52.4495 -0.108773 -4.15758 0
M  V30 558 H 51.0265 1.55398 -3.38978 0
M  V30 559 N 53.2116 1.57565 -0.0334293 0
M  V30 560 C 54.1416 2.13511 0.945265 0
M  V30 561 C 55.1226 1.05231 1.33643 0
M  V30 562 O 56.3076 1.33084 1.41429 0
M  V30 563 C 53.4376 2.6657 2.22616 0
M  V30 564 C 52.3916 3.79676 1.97561 0
M  V30 565 C 51.7176 4.1918 3.31952 0
M  V30 566 C 53.0176 5.0557 1.31135 0
M  V30 567 H 54.7116 2.95538 0.479325 0
M  V30 568 H 52.2576 1.42166 0.229115 0
M  V30 569 H 54.2106 3.04344 2.91466 0
M  V30 570 H 52.9346 1.8171 2.71384 0
M  V30 571 H 51.5936 3.42347 1.31127 0
M  V30 572 H 51.2416 3.31296 3.78487 0
M  V30 573 H 50.9416 4.95402 3.15992 0
M  V30 574 H 52.4656 4.59541 4.02063 0
M  V30 575 H 53.8796 5.40903 1.89992 0
M  V30 576 H 52.2766 5.86818 1.25559 0
M  V30 577 H 53.3466 4.84062 0.284894 0
M  V30 578 N 54.6897 -0.239769 1.55765 0
M  V30 579 C 55.9387 -0.964754 1.77131 0
M  V30 580 C 56.2517 -1.86213 0.59868 0
M  V30 581 O 57.4577 -2.6244 0.695522 0
M  V30 582 C 55.9137 -1.76552 3.1362 0
M  V30 583 C 55.5217 -0.915185 4.38553 0
M  V30 584 C 57.2657 -2.48281 3.44321 0
M  V30 585 C 55.1727 -1.71225 5.66071 0
M  V30 586 H 54.1027 -0.363953 0.660344 0
M  V30 587 H 56.7537 -0.219181 1.82186 0
M  V30 588 H 55.1357 -2.55331 3.02691 0
M  V30 589 H 56.3097 -0.169217 4.60489 0
M  V30 590 H 54.6247 -0.310889 4.15238 0
M  V30 591 H 57.2217 -3.08382 4.36812 0
M  V30 592 H 57.5647 -3.20256 2.65973 0
M  V30 593 H 58.0977 -1.76507 3.56497 0
M  V30 594 H 54.8367 -1.03612 6.4726 0
M  V30 595 H 54.3567 -2.43331 5.48224 0
M  V30 596 H 56.0357 -2.27758 6.05587 0
M  V30 597 N 56.1678 -1.49265 -0.50573 0
M  V30 598 C 57.0978 -1.68495 -1.61653 0
M  V30 599 C 58.0788 -0.53366 -1.61512 0
M  V30 600 O 59.2638 -0.76897 -1.78327 0
M  V30 601 C 56.3938 -1.74709 -3.00157 0
M  V30 602 C 55.3478 -2.89581 -3.15162 0
M  V30 603 C 54.6738 -2.80903 -4.5497 0
M  V30 604 C 55.9738 -4.30578 -2.95634 0
M  V30 605 H 57.6678 -2.61493 -1.45814 0
M  V30 606 H 55.2138 -1.25838 -0.70005 0
M  V30 607 H 57.1668 -1.86748 -3.77761 0
M  V30 608 H 55.8908 -0.783067 -3.17074 0
M  V30 609 H 54.5498 -2.77136 -2.39982 0
M  V30 610 H 54.1978 -1.82419 -4.68756 0
M  V30 611 H 53.8978 -3.57999 -4.65951 0
M  V30 612 H 55.4218 -2.94944 -5.34641 0
M  V30 613 H 56.8358 -4.4373 -3.63011 0
M  V30 614 H 55.2328 -5.0886 -3.18091 0
M  V30 615 H 56.3028 -4.45352 -1.91806 0
M  V30 616 N 57.6459 0.756429 -1.3826 0
M  V30 617 C 58.8739 1.54565 -1.3754 0
M  V30 618 C 59.2889 1.88767 0.0355331 0
M  V30 619 O 58.6459 1.52572 1.0014 0
M  V30 620 C 58.6969 2.84654 -2.22833 0
M  V30 621 O 58.4179 2.51912 -3.5843 0
M  V30 622 C 59.9189 3.78807 -2.30261 0
M  V30 623 H 57.1389 0.478353 -0.470553 0
M  V30 624 H 59.6829 0.936381 -1.81803 0
M  V30 625 H 57.8379 3.41965 -1.8204 0
M  V30 626 H 58.2519 3.35325 -4.03308 0
M  V30 627 H 59.7259 4.67045 -2.94233 0
M  V30 628 H 60.2029 4.19038 -1.31545 0
M  V30 629 H 60.8089 3.2742 -2.71433 0
M  V30 630 N 59.124 1.23083 0.984299 0
M  V30 631 C 60.349 1.088 1.76571 0
M  V30 632 C 60.774 -0.356657 1.84688 0
M  V30 633 O 60.132 -1.25788 1.30565 0
M  V30 634 C 60.18 1.71371 3.17277 0
M  V30 635 O 59.284 0.973213 4.00752 0
M  V30 636 H 58.625 0.381599 0.543395 0
M  V30 637 H 61.155 1.63057 1.23587 0
M  V30 638 H 61.165 1.76449 3.67872 0
M  V30 639 H 59.84 2.76493 3.10684 0
M  V30 640 H 58.417 0.999078 3.59267 0
M  V30 641 N 60.6021 -1.18246 1.0419 0
M  V30 642 C 61.8301 -1.92195 0.766072 0
M  V30 643 C 62.2451 -1.76247 -0.676933 0
M  V30 644 O 61.6021 -1.09293 -1.46155 0
M  V30 645 C 61.6531 -3.43568 1.12442 0
M  V30 646 O 61.3741 -3.59015 2.51078 0
M  V30 647 C 62.8751 -4.34613 0.873275 0
M  V30 648 H 60.0951 -0.610114 0.279288 0
M  V30 649 H 62.6391 -1.50007 1.38989 0
M  V30 650 H 60.7941 -3.8354 0.545542 0
M  V30 651 H 61.2081 -4.5273 2.64831 0
M  V30 652 H 62.6821 -5.39374 1.17385 0
M  V30 653 H 63.1591 -4.38781 -0.191909 0
M  V30 654 H 63.7651 -4.00341 1.43551 0
M  V30 655 N 62.0802 -0.821533 -1.34494 0
M  V30 656 C 63.3052 -0.420873 -2.03085 0
M  V30 657 C 63.7302 0.964915 -1.61465 0
M  V30 658 O 63.0882 1.62763 -0.798607 0
M  V30 659 C 63.1362 -0.529414 -3.56693 0
M  V30 660 O 62.2402 0.451302 -4.09923 0
M  V30 661 H 61.5812 -0.173489 -0.640935 0
M  V30 662 H 64.1112 -1.11157 -1.71771 0
M  V30 663 H 64.1212 -0.404671 -4.05988 0
M  V30 664 H 62.7962 -1.54014 -3.86332 0
M  V30 665 H 61.3732 0.285558 -3.71805 0
M  V30 666 N 63.5583 1.46682 -0.576371 0
M  V30 667 C 64.9693 1.86112 -0.148091 0
M  V30 668 C 65.3203 1.48073 1.2872 0
M  V30 669 O 64.4453 0.892656 1.97131 0
M  V30 670 C 65.0403 3.37786 -0.261982 0
M  V30 671 C 63.5993 3.76235 0.111384 0
M  V30 672 C 62.7463 2.70713 -0.60083 0
M  V30 673 H 65.6973 1.37927 -0.78497 0
M  V30 674 H 65.7183 3.77007 0.514364 0
M  V30 675 H 65.2303 3.6544 -1.30671 0
M  V30 676 H 63.3313 3.54198 1.15649 0
M  V30 677 H 63.4443 4.78391 -0.26052 0
M  V30 678 H 61.8083 2.54666 -0.0417783 0
M  V30 679 H 62.5913 3.01208 -1.64708 0
M  V30 680 N 65.0364 0.313813 1.54444 0
M  V30 681 C 66.2644 -0.293918 2.04802 0
M  V30 682 C 66.6794 -1.46537 1.19047 0
M  V30 683 O 66.0364 -1.81182 0.218939 0
M  V30 684 C 66.0874 -0.737806 3.53891 0
M  V30 685 O 65.8084 0.387038 4.36387 0
M  V30 686 C 67.3094 -1.40936 4.203 0
M  V30 687 H 64.5294 -0.0620057 0.668129 0
M  V30 688 H 67.0734 0.457169 1.99324 0
M  V30 689 H 65.2284 -1.43889 3.59687 0
M  V30 690 H 65.6424 0.0391274 5.24485 0
M  V30 691 H 67.1164 -1.67099 5.26101 0
M  V30 692 H 67.5934 -2.35355 3.70816 0
M  V30 693 H 68.1994 -0.751117 4.18615 0
M  V30 694 N 66.5145 -1.57545 0.0417849 0
M  V30 695 C 67.4445 -2.14009 -0.933929 0
M  V30 696 C 68.4255 -1.05938 -1.33083 0
M  V30 697 O 69.6105 -1.33833 -1.40721 0
M  V30 698 C 66.7405 -2.67747 -2.21199 0
M  V30 699 C 65.6945 -3.80718 -1.95544 0
M  V30 700 C 65.0205 -4.20935 -3.29724 0
M  V30 701 C 66.3205 -5.06258 -1.28452 0
M  V30 702 H 68.0145 -2.95788 -0.463645 0
M  V30 703 H 65.5605 -1.42285 -0.221573 0
M  V30 704 H 67.5135 -3.05886 -2.89848 0
M  V30 705 H 66.2375 -1.83147 -2.70416 0
M  V30 706 H 64.8965 -3.43037 -1.2931 0
M  V30 707 H 64.5445 -3.33298 -3.76724 0
M  V30 708 H 64.2445 -4.9707 -3.13361 0
M  V30 709 H 65.7685 -4.61666 -3.9962 0
M  V30 710 H 67.1825 -5.41903 -1.8712 0
M  V30 711 H 65.5795 -5.87475 -1.22445 0
M  V30 712 H 66.6495 -4.84207 -0.259219 0
M  V30 713 N 67.9926 0.231505 -1.5589 0
M  V30 714 C 69.4036 0.799327 -1.68724 0
M  V30 715 C 69.7546 1.85398 -0.642022 0
M  V30 716 O 68.8796 2.1539 0.208784 0
M  V30 717 C 69.4746 1.45664 -3.05888 0
M  V30 718 C 68.0336 1.97197 -3.20609 0
M  V30 719 C 67.1806 0.828552 -2.64632 0
M  V30 720 H 70.1316 0.00702616 -1.58698 0
M  V30 721 H 70.1526 2.32517 -3.01191 0
M  V30 722 H 69.6646 0.688808 -3.81939 0
M  V30 723 H 67.7656 2.76813 -2.4941 0
M  V30 724 H 67.8786 2.15878 -4.27707 0
M  V30 725 H 66.2426 1.23321 -2.22854 0
M  V30 726 H 67.0256 0.0735544 -3.43221 0
M  V30 727 N 69.4707 1.49531 0.497807 0
M  V30 728 C 70.8867 1.36365 0.829266 0
M  V30 729 C 71.0867 0.399184 1.97506 0
M  V30 730 O 70.1427 -0.167977 2.51941 0
M  V30 731 C 71.4557 2.77153 1.16647 0
M  V30 732 C 73.0037 2.85877 1.27449 0
M  V30 733 C 73.4787 4.2744 1.64497 0
M  V30 734 N 74.9697 4.30265 1.7154 0
M  V30 735 C 75.7047 5.3677 2.01656 0
M  V30 736 N 75.2007 6.53516 2.29976 0
M  V30 737 N 76.9937 5.24189 2.02934 0
M  V30 738 H 69.1447 2.10831 -0.257703 0
M  V30 739 H 71.4077 0.946534 -0.0527091 0
M  V30 740 H 71.1137 3.49442 0.397872 0
M  V30 741 H 70.9877 3.12722 2.10915 0
M  V30 742 H 73.3747 2.13824 2.0338 0
M  V30 743 H 73.4557 2.53887 0.312244 0
M  V30 744 H 73.0997 5.00021 0.891151 0
M  V30 745 H 73.0297 4.56896 2.61827 0
M  V30 746 H 75.5207 3.4607 1.51802 0
M  V30 747 H 75.8337 7.30506 2.52153 0
M  V30 748 H 74.1787 6.56737 2.27425 0
M  V30 749 H 77.3697 4.31988 1.80289 0
M  V30 750 H 77.5427 6.07286 2.26071 0
M  V30 751 N 70.9488 -0.749086 1.3866 0
M  V30 752 C 72.3598 -1.32664 1.31366 0
M  V30 753 C 72.7108 -1.96179 -0.028484 0
M  V30 754 O 71.8358 -1.9537 -0.93057 0
M  V30 755 C 72.4308 -2.41219 2.37905 0
M  V30 756 C 70.9898 -2.94684 2.34176 0
M  V30 757 C 70.1368 -1.68108 2.20533 0
M  V30 758 H 73.0878 -0.547628 1.48952 0
M  V30 759 H 73.1088 -3.21268 2.0388 0
M  V30 760 H 72.6208 -1.94962 3.35576 0
M  V30 761 H 70.7218 -3.45258 1.401 0
M  V30 762 H 70.8348 -3.48757 3.2849 0
M  V30 763 H 69.1988 -1.91907 1.67463 0
M  V30 764 H 69.9818 -1.23923 3.20153 0
M  V30 765 N 72.4269 -1.23603 -0.977757 0
M  V30 766 C 73.3769 -0.986664 -2.05545 0
M  V30 767 C 74.3609 0.0683009 -1.60755 0
M  V30 768 O 75.5529 -0.144162 -1.76412 0
M  V30 769 C 72.6819 -0.582623 -3.3832 0
M  V30 770 C 71.7679 -1.67313 -3.89701 0
M  V30 771 N 72.1589 -2.90394 -4.14132 0
M  V30 772 C 70.4569 -1.54832 -4.18262 0
M  V30 773 C 71.1579 -3.61017 -4.56116 0
M  V30 774 N 70.1339 -2.8854 -4.60701 0
M  V30 775 H 73.9359 -1.92139 -2.22396 0
M  V30 776 H 71.4499 -1.1358 -1.16074 0
M  V30 777 H 73.4469 -0.38524 -4.15116 0
M  V30 778 H 72.1069 0.34503 -3.22862 0
M  V30 779 H 73.1179 -3.26673 -4.01877 0
M  V30 780 H 69.7949 -0.687969 -4.11793 0
M  V30 781 H 71.1849 -4.66544 -4.83514 0
M  V30 782 N 73.905 1.17692 -1.04816 0
M  V30 783 C 75.13 1.92327 -0.776207 0
M  V30 784 C 75.555 1.76082 0.661581 0
M  V30 785 O 74.913 1.076 1.45917 0
M  V30 786 C 74.961 3.41539 -1.15687 0
M  V30 787 O 74.065 4.11402 -0.286775 0
M  V30 788 H 73.406 0.599735 -0.284981 0
M  V30 789 H 75.936 1.49201 -1.4 0
M  V30 790 H 75.946 3.92269 -1.12202 0
M  V30 791 H 74.621 3.52684 -2.20425 0
M  V30 792 H 73.198 3.70939 -0.381903 0
M  V30 793 N 75.3831 0.828654 1.34056 0
M  V30 794 C 76.7941 0.477534 1.8049 0
M  V30 795 C 77.1451 -1.00258 1.6865 0
M  V30 796 O 76.2701 -1.78057 1.22982 0
M  V30 797 C 76.8651 0.860018 3.27703 0
M  V30 798 C 75.4241 0.561185 3.72193 0
M  V30 799 C 74.5711 1.07385 2.55663 0
M  V30 800 H 77.5221 1.0183 1.21722 0
M  V30 801 H 77.5431 0.166038 3.80138 0
M  V30 802 H 77.0551 1.93731 3.36288 0
M  V30 803 H 75.1561 -0.506465 3.69142 0
M  V30 804 H 75.2691 1.10926 4.66082 0
M  V30 805 H 73.6331 0.495149 2.49841 0
M  V30 806 H 74.4161 2.15771 2.67016 0
M  V30 807 N 76.8612 -1.46375 0.584142 0
M  V30 808 C 77.7912 -2.33103 -0.136037 0
M  V30 809 C 78.7722 -1.45431 -0.882255 0
M  V30 810 O 79.9572 -1.74246 -0.857434 0
M  V30 811 C 77.0872 -3.27731 -1.14933 0
M  V30 812 C 76.0412 -4.24855 -0.517862 0
M  V30 813 C 75.3672 -5.09001 -1.63773 0
M  V30 814 C 76.6672 -5.19439 0.545886 0
M  V30 815 H 78.3612 -2.93568 0.588086 0
M  V30 816 H 75.9072 -1.41166 0.284259 0
M  V30 817 H 77.8602 -3.87261 -1.66153 0
M  V30 818 H 76.5842 -2.65377 -1.90375 0
M  V30 819 H 75.2432 -3.6659 -0.0267361 0
M  V30 820 H 74.8912 -4.43031 -2.38185 0
M  V30 821 H 74.5912 -5.74777 -1.22085 0
M  V30 822 H 76.1152 -5.71396 -2.15266 0
M  V30 823 H 77.5292 -5.73177 0.118704 0
M  V30 824 H 75.9262 -5.93566 0.88317 0
M  V30 825 H 76.9962 -4.63285 1.43162 0
M  V30 826 N 78.3393 -0.321999 -1.54275 0
M  V30 827 C 79.7503 0.166384 -1.85957 0
M  V30 828 C 80.1013 1.51747 -1.24367 0
M  V30 829 O 79.2263 2.09317 -0.549124 0
M  V30 830 C 79.8213 0.308681 -3.37391 0
M  V30 831 C 78.3803 0.741286 -3.69028 0
M  V30 832 C 77.5273 -0.137937 -2.76957 0
M  V30 833 H 80.4783 -0.542335 -1.49146 0
M  V30 834 H 80.4993 1.13984 -3.63026 0
M  V30 835 H 80.0113 -0.674809 -3.82188 0
M  V30 836 H 78.1123 1.73458 -3.29762 0
M  V30 837 H 78.2253 0.546118 -4.75977 0
M  V30 838 H 76.5893 0.386251 -2.51754 0
M  V30 839 H 77.3723 -1.11816 -3.2458 0
M  V30 840 N 79.8174 1.5752 -0.0501392 0
M  V30 841 C 81.0654 1.9227 0.622642 0
M  V30 842 C 81.3864 0.929083 1.71444 0
M  V30 843 O 80.6564 -0.0262186 1.95882 0
M  V30 844 H 79.2364 0.709739 0.232981 0
M  V30 845 H 81.8984 1.94628 -0.102898 0
M  V30 846 H 80.9944 2.93479 1.06191 0
M  V30 847 N 81.2955 -0.223234 1.56011 0
M  V30 848 C 82.2455 -1.28008 1.88674 0
M  V30 849 C 83.2295 -1.42369 0.749663 0
M  V30 850 O 84.4215 -1.45212 1.01205 0
M  V30 851 C 81.5505 -2.63084 2.20548 0
M  V30 852 C 80.6365 -2.52632 3.40643 0
M  V30 853 N 81.0275 -2.11829 4.59306 0
M  V30 854 C 79.3255 -2.83594 3.44224 0
M  V30 855 C 80.0265 -2.12587 5.41463 0
M  V30 856 N 79.0025 -2.5301 4.81131 0
M  V30 857 H 82.8045 -0.955487 2.77935 0
M  V30 858 H 80.3185 -0.431801 1.56554 0
M  V30 859 H 82.3155 -3.39385 2.42122 0
M  V30 860 H 80.9755 -2.96391 1.32599 0
M  V30 861 H 81.9865 -1.82988 4.84496 0
M  V30 862 H 78.6635 -3.21284 2.66614 0
M  V30 863 H 80.0535 -1.83179 6.46448 0
M  V30 864 N 82.7736 -1.49793 -0.48987 0
M  V30 865 C 83.7036 -1.70201 -1.59856 0
M  V30 866 C 84.6846 -0.55076 -1.60937 0
M  V30 867 O 85.8696 -0.787841 -1.77501 0
M  V30 868 C 82.9996 -1.77882 -2.98287 0
M  V30 869 C 81.9536 -2.92907 -3.12073 0
M  V30 870 C 81.2796 -2.85712 -4.51965 0
M  V30 871 C 82.5796 -4.3369 -2.91051 0
M  V30 872 H 84.2736 -2.63025 -1.43032 0
M  V30 873 H 81.8196 -1.26574 -0.686664 0
M  V30 874 H 83.7726 -1.90744 -3.75759 0
M  V30 875 H 82.4966 -0.816653 -3.16225 0
M  V30 876 H 81.1556 -2.79665 -2.37029 0
M  V30 877 H 80.8036 -1.8738 -4.66795 0
M  V30 878 H 80.5036 -3.62921 -4.62128 0
M  V30 879 H 82.0276 -3.00598 -5.31482 0
M  V30 880 H 83.4416 -4.47555 -3.58284 0
M  V30 881 H 81.8386 -5.12205 -3.12675 0
M  V30 882 H 82.9086 -4.47362 -1.87071 0
M  V30 883 N 84.2517 0.741722 -1.39055 0
M  V30 884 C 85.4997 1.49818 -1.35643 0
M  V30 885 C 85.8207 1.94938 0.0491642 0
M  V30 886 O 85.0907 1.68505 0.999141 0
M  V30 887 H 83.6707 0.555755 -0.499144 0
M  V30 888 H 86.3327 0.880957 -1.73854 0
M  V30 889 H 85.4287 2.38348 -2.01486 0
M  V30 890 N 85.7298 1.2412 0.971189 0
M  V30 891 C 86.9548 1.10667 1.75407 0
M  V30 892 C 87.3798 -0.337048 1.85056 0
M  V30 893 O 86.7378 -1.24396 1.31892 0
M  V30 894 C 86.7858 1.74726 3.15441 0
M  V30 895 O 85.8898 1.01566 3.99697 0
M  V30 896 H 85.2308 0.387341 0.539317 0
M  V30 897 H 87.7608 1.64358 1.2185 0
M  V30 898 H 87.7708 1.80341 3.6598 0
M  V30 899 H 86.4458 2.79773 3.07734 0
M  V30 900 H 85.0228 1.03713 3.58187 0
M  V30 901 N 87.2079 -1.17134 1.05439 0
M  V30 902 C 88.4329 -1.91913 0.786396 0
M  V30 903 C 88.8579 -1.7643 -0.652234 0
M  V30 904 O 88.2159 -1.08372 -1.45345 0
M  V30 905 C 88.2639 -3.40921 1.17497 0
M  V30 906 O 87.3679 -4.11244 0.308589 0
M  V30 907 H 86.7089 -0.598215 0.288158 0
M  V30 908 H 89.2389 -1.48457 1.4079 0
M  V30 909 H 89.2489 -3.91668 1.14281 0
M  V30 910 H 87.9239 -3.5151 2.22292 0
M  V30 911 H 86.5009 -3.70731 0.40157 0
M  V30 912 N 88.686 -0.835752 -1.33615 0
M  V30 913 C 90.097 -0.487099 -1.80234 0
M  V30 914 C 90.448 0.993627 -1.69179 0
M  V30 915 O 89.573 1.77403 -1.23924 0
M  V30 916 C 90.168 -0.877385 -3.27242 0
M  V30 917 C 88.727 -0.580915 -3.7189 0
M  V30 918 C 87.874 -1.0874 -2.5509 0
M  V30 919 H 90.825 -1.02474 -1.2118 0
M  V30 920 H 90.846 -0.186195 -3.80044 0
M  V30 921 H 90.358 -1.95512 -3.35256 0
M  V30 922 H 88.459 0.486881 -3.69405 0
M  V30 923 H 88.572 -1.13396 -4.65487 0
M  V30 924 H 86.936 -0.508392 -2.49575 0
M  V30 925 H 87.719 -2.17184 -2.65868 0
M  V30 926 N 90.1641 1.46063 -0.591896 0
M  V30 927 C 91.0941 2.33172 0.123673 0
M  V30 928 C 92.0751 1.45897 0.87453 0
M  V30 929 O 93.2601 1.74698 0.848181 0
M  V30 930 C 90.3901 3.28336 1.13194 0
M  V30 931 C 89.3441 4.25124 0.495324 0
M  V30 932 C 88.6701 5.09863 1.61071 0
M  V30 933 C 89.9701 5.19143 -0.573425 0
M  V30 934 H 91.6641 2.93252 -0.603646 0
M  V30 935 H 89.2101 1.41014 -0.291741 0
M  V30 936 H 91.1631 3.88137 1.64097 0
M  V30 937 H 89.8871 2.66383 1.88965 0
M  V30 938 H 88.5461 3.66599 0.00729452 0
M  V30 939 H 88.1941 4.44288 2.35832 0
M  V30 940 H 87.8941 5.75417 1.19035 0
M  V30 941 H 89.4181 5.72529 2.12233 0
M  V30 942 H 90.8321 5.73106 -0.1491 0
M  V30 943 H 89.2291 5.93089 -0.914636 0
M  V30 944 H 90.2991 4.62519 -1.45617 0
M  V30 945 N 91.6422 0.330177 1.54103 0
M  V30 946 C 92.9192 -0.325007 1.92881 0
M  V30 947 C 93.2992 -1.6934 1.26045 0
M  V30 948 O 92.6472 -2.24855 0.406526 0
M  V30 949 C 92.8572 -0.410634 3.46576 0
M  V30 950 C 94.2052 -0.667801 4.19316 0
M  V30 951 O 95.2292 -0.49329 3.52768 0
M  V30 952 O 94.0882 -1.00491 5.37181 0
M  V30 953 H 91.1822 -0.186873 0.80561 0
M  V30 954 H 93.7282 0.380376 1.65382 0
M  V30 955 H 92.5002 0.550164 3.87413 0
M  V30 956 H 92.1232 -1.16333 3.802 0
M  V30 957 N 93.1203 -1.57491 0.0584922 0
M  V30 958 C 94.3453 -1.97711 -0.62652 0
M  V30 959 C 94.7703 -0.936132 -1.63151 0
M  V30 960 O 94.1283 0.099811 -1.81025 0
M  V30 961 C 94.1763 -3.36989 -1.28338 0
M  V30 962 O 93.2803 -3.35433 -2.39913 0
M  V30 963 H 92.6213 -0.643868 -0.162266 0
M  V30 964 H 95.1513 -2.04193 0.129064 0
M  V30 965 H 95.1613 -3.73879 -1.63335 0
M  V30 966 H 93.8363 -4.12289 -0.546889 0
M  V30 967 H 92.4133 -3.10298 -2.06809 0
M  V30 968 N 94.5984 0.214957 -1.56127 0
M  V30 969 C 96.0094 0.781386 -1.69562 0
M  V30 970 C 96.3604 1.84707 -0.66165 0
M  V30 971 O 95.4854 2.156 0.185927 0
M  V30 972 C 96.0804 1.42411 -3.07416 0
M  V30 973 C 94.6394 1.93786 -3.22683 0
M  V30 974 C 93.7864 0.800438 -2.65496 0
M  V30 975 H 96.7374 -0.00980633 -1.58697 0
M  V30 976 H 96.7584 2.29309 -3.0364 0
M  V30 977 H 96.2704 0.64826 -3.82648 0
M  V30 978 H 94.3714 2.74152 -2.52332 0
M  V30 979 H 94.4844 2.1133 -4.29973 0
M  V30 980 H 92.8484 1.2095 -2.2415 0
M  V30 981 H 93.6314 0.0371471 -3.4328 0
M  V30 982 N 96.0765 1.50051 0.48192 0
M  V30 983 C 97.4925 1.37237 0.814756 0
M  V30 984 C 97.6925 0.420109 1.97072 0
M  V30 985 O 96.7485 -0.141246 2.52105 0
M  V30 986 C 98.0615 2.78375 1.13701 0
M  V30 987 C 99.6095 2.87213 1.2441 0
M  V30 988 C 100.084 4.29161 1.59954 0
M  V30 989 N 101.575 4.32061 1.66967 0
M  V30 990 C 102.31 5.38879 1.95952 0
M  V30 991 N 101.806 6.55918 2.23031 0
M  V30 992 N 103.599 5.26312 1.97363 0
M  V30 993 H 95.7505 2.10546 -0.28005 0
M  V30 994 H 98.0135 0.945921 -0.0627454 0
M  V30 995 H 97.7195 3.49845 0.360787 0
M  V30 996 H 97.5935 3.14941 2.07586 0
M  V30 997 H 99.9805 2.15969 2.01101 0
M  V30 998 H 100.061 2.54204 0.285299 0
M  V30 999 H 99.7055 5.00938 0.838067 0
M  V30 1000 H 99.6355 4.59648 2.56966 0
M  V30 1001 H 102.126 3.47661 1.48123 0
M  V30 1002 H 102.439 7.33139 2.44391 0
M  V30 1003 H 100.784 6.59112 2.20447 0
M  V30 1004 H 103.975 4.33876 1.75697 0
M  V30 1005 H 104.148 6.09649 2.19618 0
M  V30 1006 N 97.5546 -0.734337 1.39446 0
M  V30 1007 C 98.5026 -1.86971 1.38364 0
M  V30 1008 C 99.4966 -1.67288 0.266687 0
M  V30 1009 O 100.703 -1.74621 0.436755 0
M  V30 1010 H 97.0776 -0.615474 0.432082 0
M  V30 1011 H 99.0486 -1.85 2.34132 0
M  V30 1012 C 97.7976 -3.2466 1.24465 0
M  V30 1013 H 97.1206 -3.40402 2.09682 0
M  V30 1014 H 98.5606 -4.04292 1.27764 0
M  V30 1015 C 97.0196 -3.36867 -0.0468674 0
M  V30 1016 O 97.5496 -3.88618 -1.01681 0
M  V30 1017 N 95.7556 -2.90391 -0.110145 0
M  V30 1018 H 95.3026 -2.48466 0.679868 0
M  V30 1019 H 95.2606 -2.98939 -0.973799 0
M  V30 1020 N 99.0327 -1.24633 -0.964593 0
M  V30 1021 C 100.28 -1.08788 -1.70796 0
M  V30 1022 C 100.608 0.372783 -1.90894 0
M  V30 1023 O 99.8627 1.29167 -1.47018 0
M  V30 1024 C 100.162 -1.7763 -3.10133 0
M  V30 1025 C 99.8277 -3.27557 -3.09866 0
M  V30 1026 C 98.4897 -3.6846 -3.09501 0
M  V30 1027 C 100.842 -4.23389 -3.03959 0
M  V30 1028 C 98.1697 -5.03624 -3.00965 0
M  V30 1029 C 100.522 -5.58565 -2.96965 0
M  V30 1030 C 99.1857 -5.98809 -2.9493 0
M  V30 1031 H 98.4557 -0.398084 -0.624988 0
M  V30 1032 H 101.103 -1.54777 -1.12767 0
M  V30 1033 H 99.4077 -1.24044 -3.71645 0
M  V30 1034 H 101.105 -1.62832 -3.66451 0
M  V30 1035 H 97.6947 -2.95006 -3.10917 0
M  V30 1036 H 101.879 -3.92787 -3.03368 0
M  V30 1037 H 97.1347 -5.33998 -2.97752 0
M  V30 1038 H 101.309 -6.32523 -2.91354 0
M  V30 1039 H 98.9357 -7.03505 -2.88071 0
M  V30 1040 N 100.511 1.16574 -1.06058 0
M  V30 1041 C 101.736 1.91493 -0.796562 0
M  V30 1042 C 102.161 1.76773 0.642868 0
M  V30 1043 O 101.519 1.09142 1.44768 0
M  V30 1044 C 101.567 3.40293 -1.19303 0
M  V30 1045 O 100.671 4.11074 -0.330394 0
M  V30 1046 H 100.012 0.596678 -0.291326 0
M  V30 1047 H 102.542 1.47708 -1.41575 0
M  V30 1048 H 102.552 3.91057 -1.16356 0
M  V30 1049 H 101.227 3.50326 -2.24153 0
M  V30 1050 H 99.8038 3.70513 -0.421225 0
M  V30 1051 N 101.989 0.842826 1.3317 0
M  V30 1052 C 103.4 0.496651 1.79973 0
M  V30 1053 C 103.751 -0.984641 1.69703 0
M  V30 1054 O 102.876 -1.76743 1.24863 0
M  V30 1055 C 103.471 0.894727 3.26772 0
M  V30 1056 C 102.03 0.600629 3.71577 0
M  V30 1057 C 101.177 1.10091 2.5451 0
M  V30 1058 H 104.128 1.03116 1.20635 0
M  V30 1059 H 104.149 0.206347 3.7994 0
M  V30 1060 H 103.661 1.97287 3.34215 0
M  V30 1061 H 101.762 -0.467284 3.69658 0
M  V30 1062 H 101.875 1.15863 4.64879 0
M  V30 1063 H 100.239 0.52162 2.49301 0
M  V30 1064 H 101.022 2.18591 2.64713 0
M  V30 1065 N 103.467 -1.45747 0.599634 0
M  V30 1066 C 104.415 -2.322 -0.136426 0
M  V30 1067 C 105.409 -1.45497 -0.867583 0
M  V30 1068 O 106.615 -1.62027 -0.78405 0
M  V30 1069 H 102.99 -0.749368 -0.0628588 0
M  V30 1070 H 104.961 -2.92072 0.611281 0
M  V30 1071 C 103.71 -3.28974 -1.12567 0
M  V30 1072 H 103.033 -3.9568 -0.572484 0
M  V30 1073 H 104.473 -3.92212 -1.61077 0
M  V30 1074 C 102.932 -2.55561 -2.19523 0
M  V30 1075 O 103.462 -2.33111 -3.27143 0
M  V30 1076 N 101.668 -2.15832 -1.94589 0
M  V30 1077 H 101.215 -2.3429 -1.07078 0
M  V30 1078 H 101.173 -1.67034 -2.66359 0
M  V30 1079 N 104.945 -0.338344 -1.53925 0
M  V30 1080 C 106.173 0.261298 -2.05243 0
M  V30 1081 C 106.588 1.44625 -1.21363 0
M  V30 1082 O 105.945 1.80811 -0.247736 0
M  V30 1083 C 105.996 0.681412 -3.5502 0
M  V30 1084 O 105.717 -0.456414 -4.35716 0
M  V30 1085 C 107.218 1.34232 -4.22489 0
M  V30 1086 H 104.438 0.0513685 -0.669031 0
M  V30 1087 H 106.982 -0.488822 -1.98572 0
M  V30 1088 H 105.137 1.38148 -3.61931 0
M  V30 1089 H 105.551 -0.122564 -5.24357 0
M  V30 1090 H 107.025 1.58708 -5.28693 0
M  V30 1091 H 107.502 2.29426 -3.74514 0
M  V30 1092 H 108.108 0.684424 -4.19757 0
M  V30 1093 N 106.423 1.57458 -0.0668435 0
M  V30 1094 C 107.834 1.80776 0.466558 0
M  V30 1095 C 108.185 0.980361 1.69951 0
M  V30 1096 O 107.31 0.201441 2.1546 0
M  V30 1097 C 107.905 3.27881 0.85321 0
M  V30 1098 C 106.464 3.52062 1.3315 0
M  V30 1099 C 105.611 2.75513 0.314264 0
M  V30 1100 H 108.562 1.5598 -0.292588 0
M  V30 1101 H 108.583 3.39659 1.715 0
M  V30 1102 H 108.095 3.88075 -0.0443439 0
M  V30 1103 H 106.196 2.97167 2.24772 0
M  V30 1104 H 106.309 4.60762 1.31285 0
M  V30 1105 H 104.673 2.42123 0.790492 0
M  V30 1106 H 105.456 3.38442 -0.575477 0
M  V30 1107 N 107.901 -0.206675 1.56239 0
M  V30 1108 C 108.864 -1.23976 1.92776 0
M  V30 1109 C 109.864 -1.39041 0.807729 0
M  V30 1110 O 111.054 -1.37051 1.0753 0
M  V30 1111 C 108.186 -2.61112 2.19165 0
M  V30 1112 H 109.379 -0.927764 2.85189 0
M  V30 1113 H 106.932 -0.447718 1.4975 0
M  V30 1114 H 107.667 -2.97386 1.29352 0
M  V30 1115 H 107.452 -2.51552 3.00772 0
M  V30 1116 H 108.942 -3.35633 2.48476 0
M  V30 1117 N 109.379 -1.50304 -0.473955 0
M  V30 1118 C 110.329 -1.65347 -1.56985 0
M  V30 1119 C 111.313 -0.508176 -1.52664 0
M  V30 1120 O 112.505 -0.762446 -1.59737 0
M  V30 1121 C 109.634 -1.74832 -2.95447 0
M  V30 1122 C 108.72 -2.95028 -3.04662 0
M  V30 1123 N 109.111 -4.18747 -2.83698 0
M  V30 1124 C 107.409 -2.93527 -3.35795 0
M  V30 1125 C 108.11 -4.99687 -2.97805 0
M  V30 1126 N 107.086 -4.33585 -3.2788 0
M  V30 1127 H 110.888 -2.58698 -1.39472 0
M  V30 1128 H 108.402 -1.47449 -0.680629 0
M  V30 1129 H 110.399 -1.83712 -3.7424 0
M  V30 1130 H 109.059 -0.826376 -3.14008 0
M  V30 1131 H 110.07 -4.48291 -2.59337 0
M  V30 1132 H 106.747 -2.10821 -3.60362 0
M  V30 1133 H 108.137 -6.08057 -2.85861 0
M  V30 1134 N 110.857 0.726932 -1.39834 0
M  V30 1135 C 112.104 1.48664 -1.37496 0
M  V30 1136 C 112.432 1.94482 0.0264678 0
M  V30 1137 O 111.687 1.67692 1.00886 0
M  V30 1138 C 111.986 2.73495 -2.30077 0
M  V30 1139 C 111.652 2.46502 -3.77555 0
M  V30 1140 C 110.314 2.3885 -4.17737 0
M  V30 1141 C 112.666 2.23604 -4.70798 0
M  V30 1142 C 109.994 2.06352 -5.49214 0
M  V30 1143 C 112.346 1.92622 -6.02561 0
M  V30 1144 C 111.01 1.83444 -6.41798 0
M  V30 1145 H 110.28 0.544001 -0.503135 0
M  V30 1146 H 112.927 0.833657 -1.72402 0
M  V30 1147 H 111.232 3.43575 -1.88317 0
M  V30 1148 H 112.929 3.31549 -2.25558 0
M  V30 1149 H 109.519 2.5334 -3.45712 0
M  V30 1150 H 113.703 2.28479 -4.40581 0
M  V30 1151 H 108.959 1.97776 -5.78528 0
M  V30 1152 H 113.133 1.73914 -6.74334 0
M  V30 1153 H 110.76 1.58029 -7.43593 0
M  V30 1154 N 112.336 1.25143 0.95797 0
M  V30 1155 C 113.561 1.12521 1.74223 0
M  V30 1156 C 113.986 -0.317402 1.85403 0
M  V30 1157 O 113.344 -1.2299 1.33204 0
M  V30 1158 C 113.392 1.78062 3.1357 0
M  V30 1159 O 112.496 1.058 3.98598 0
M  V30 1160 H 111.837 0.39304 0.535178 0
M  V30 1161 H 114.367 1.65641 1.201 0
M  V30 1162 H 114.377 1.84213 3.64046 0
M  V30 1163 H 113.052 2.83021 3.04749 0
M  V30 1164 H 111.629 1.07506 3.57067 0
M  V30 1165 N 113.814 -1.1601 1.06675 0
M  V30 1166 C 115.061 -1.86633 0.785781 0
M  V30 1167 C 115.389 -1.81929 -0.687896 0
M  V30 1168 O 114.644 -1.23253 -1.52011 0
M  V30 1169 C 114.943 -3.35547 1.23057 0
M  V30 1170 C 114.609 -3.60448 2.70902 0
M  V30 1171 C 113.271 -3.66954 3.11285 0
M  V30 1172 C 115.623 -3.7071 3.66365 0
M  V30 1173 C 112.951 -3.81225 4.45965 0
M  V30 1174 C 115.303 -3.86503 5.00797 0
M  V30 1175 C 113.967 -3.91252 5.40813 0
M  V30 1176 H 113.237 -0.682937 0.287538 0
M  V30 1177 H 115.884 -1.37146 1.33654 0
M  V30 1178 H 114.189 -3.87193 0.59907 0
M  V30 1179 H 115.886 -3.88583 0.990163 0
M  V30 1180 H 112.476 -3.56021 2.38636 0
M  V30 1181 H 116.66 -3.64991 3.36296 0
M  V30 1182 H 111.916 -3.83155 4.76447 0
M  V30 1183 H 116.09 -3.93385 5.74649 0
M  V30 1184 H 113.717 -4.02062 6.45174 0
M  V30 1185 N 115.292 -0.849877 -1.32721 0
M  V30 1186 C 116.255 -0.296122 -2.27279 0
M  V30 1187 C 117.255 0.541458 -1.5141 0
M  V30 1188 O 118.445 0.353658 -1.70572 0
M  V30 1189 C 115.577 0.581579 -3.35902 0
M  V30 1190 H 116.77 -1.13064 -2.77771 0
M  V30 1191 H 114.323 -0.62383 -1.43311 0
M  V30 1192 H 115.058 1.43809 -2.9067 0
M  V30 1193 H 114.843 -0.0178814 -3.92096 0
M  V30 1194 H 116.333 0.961951 -4.0637 0
M  V30 1195 N 116.77 1.45427 -0.607355 0
M  V30 1196 C 117.995 2.07124 -0.107006 0
M  V30 1197 C 118.42 1.44906 1.19933 0
M  V30 1198 O 117.778 0.541687 1.73019 0
M  V30 1199 C 117.826 3.60595 0.0194119 0
M  V30 1200 O 116.93 3.98285 1.0697 0
M  V30 1201 H 116.271 0.659868 -0.0739597 0
M  V30 1202 H 118.801 1.86683 -0.837297 0
M  V30 1203 H 118.811 4.07419 0.2177 0
M  V30 1204 H 117.486 4.05266 -0.934453 0
M  V30 1205 H 116.063 3.63133 0.847889 0
M  V30 1206 N 118.248 0.346503 1.53744 0
M  V30 1207 C 119.473 -0.253074 2.0585 0
M  V30 1208 C 119.898 -1.43202 1.21962 0
M  V30 1209 O 119.256 -1.79783 0.234073 0
M  V30 1210 C 119.304 -0.643193 3.54817 0
M  V30 1211 O 118.408 -1.74286 3.73762 0
M  V30 1212 H 117.749 -0.0413583 0.662711 0
M  V30 1213 H 120.279 0.501574 1.98357 0
M  V30 1214 H 120.289 -0.919526 3.97503 0
M  V30 1215 H 118.964 0.218966 4.15323 0
M  V30 1216 H 117.541 -1.46356 3.42979 0
M  V30 1217 N 119.726 -1.57421 0.075193 0
M  V30 1218 C 121.142 -1.57099 -0.281444 0
M  V30 1219 C 121.342 -1.08486 -1.69803 0
M  V30 1220 O 120.398 -0.752279 -2.41033 0
M  V30 1221 C 121.711 -3.00571 -0.0880041 0
M  V30 1222 C 123.259 -3.12605 -0.157281 0
M  V30 1223 C 123.734 -4.57999 0.0079207 0
M  V30 1224 N 125.225 -4.63176 -0.0475725 0
M  V30 1225 C 125.96 -5.73373 0.0557876 0
M  V30 1226 N 125.456 -6.92473 0.21286 0
M  V30 1227 N 127.249 -5.621 -0.00152098 0
M  V30 1228 H 119.4 -1.87335 1.00098 0
M  V30 1229 H 121.663 -0.86377 0.390646 0
M  V30 1230 H 121.369 -3.40262 0.889629 0
M  V30 1231 H 121.243 -3.67754 -0.838875 0
M  V30 1232 H 123.63 -2.72798 -1.1254 0
M  V30 1233 H 123.711 -2.48053 0.62475 0
M  V30 1234 H 123.355 -4.98496 0.972824 0
M  V30 1235 H 123.285 -5.20586 -0.793556 0
M  V30 1236 H 125.776 -3.7753 -0.167244 0
M  V30 1237 H 126.089 -7.72279 0.283781 0
M  V30 1238 H 124.434 -6.94556 0.248267 0
M  V30 1239 H 127.625 -4.67938 -0.122958 0
M  V30 1240 H 127.798 -6.47948 0.0824844 0
M  V30 1241 N 121.204 0.198386 -1.56346 0
M  V30 1242 C 122.62 0.549085 -1.49857 0
M  V30 1243 C 122.82 1.86016 -0.774611 0
M  V30 1244 O 121.876 2.50416 -0.323776 0
M  V30 1245 C 123.189 0.606868 -2.94512 0
M  V30 1246 C 124.737 0.695925 -3.05165 0
M  V30 1247 C 125.212 0.784848 -4.51225 0
M  V30 1248 N 126.703 0.848463 -4.55363 0
M  V30 1249 C 127.438 0.937378 -5.65686 0
M  V30 1250 N 126.934 0.9888 -6.85707 0
M  V30 1251 N 128.727 0.974312 -5.53592 0
M  V30 1252 H 120.878 -0.661655 -2.01831 0
M  V30 1253 H 123.141 -0.235261 -0.918344 0
M  V30 1254 H 122.847 -0.28732 -3.50524 0
M  V30 1255 H 122.721 1.46268 -3.47686 0
M  V30 1256 H 125.108 1.58055 -2.49204 0
M  V30 1257 H 125.189 -0.186022 -2.55123 0
M  V30 1258 H 124.833 -0.0954072 -5.0781 0
M  V30 1259 H 124.763 1.68255 -4.98997 0
M  V30 1260 H 127.254 0.818103 -3.68938 0
M  V30 1261 H 127.567 1.05707 -7.65536 0
M  V30 1262 H 125.912 0.957534 -6.88372 0
M  V30 1263 H 129.103 0.930954 -4.58749 0
M  V30 1264 H 129.276 1.04015 -6.39597 0
M  V30 1265 N 122.682 1.50554 0.465978 0
M  V30 1266 C 123.645 1.69233 1.54574 0
M  V30 1267 C 124.645 0.562901 1.50626 0
M  V30 1268 O 125.835 0.830016 1.53155 0
M  V30 1269 C 122.967 1.7223 2.94193 0
M  V30 1270 H 124.16 2.65571 1.39327 0
M  V30 1271 H 121.713 1.40111 0.692711 0
M  V30 1272 H 122.448 0.77603 3.14878 0
M  V30 1273 H 122.233 2.54285 2.98466 0
M  V30 1274 H 123.723 1.88618 3.72576 0
M  V30 1275 N 124.16 -0.719506 1.40217 0
M  V30 1276 C 125.437 -1.47221 1.28784 0
M  V30 1277 C 125.817 -2.10883 -0.0956067 0
M  V30 1278 O 125.165 -1.99833 -1.10811 0
M  V30 1279 C 125.375 -2.5111 2.42373 0
M  V30 1280 C 126.723 -3.17053 2.82423 0
M  V30 1281 O 127.747 -2.61429 2.41937 0
M  V30 1282 O 126.606 -4.17742 3.52355 0
M  V30 1283 H 123.7 -0.654491 0.50554 0
M  V30 1284 H 126.246 -0.752014 1.52128 0
M  V30 1285 H 125.018 -2.02556 3.34793 0
M  V30 1286 H 124.641 -3.3067 2.20778 0
M  V30 1287 N 125.638 -1.25649 -0.95132 0
M  V30 1288 C 126.886 -1.10375 -1.69298 0
M  V30 1289 C 127.207 0.355339 -1.91735 0
M  V30 1290 O 126.477 1.25188 -1.50681 0
M  V30 1291 H 125.057 -0.405461 -0.627384 0
M  V30 1292 H 127.719 -1.57823 -1.14358 0
M  V30 1293 H 126.815 -1.61465 -2.67087 0
M  V30 1294 N 127.117 1.15442 -1.07289 0
M  V30 1295 C 128.533 1.38201 -0.798288 0
M  V30 1296 C 128.733 1.92429 0.597769 0
M  V30 1297 O 127.789 2.12962 1.3566 0
M  V30 1298 C 129.102 2.35357 -1.87156 0
M  V30 1299 C 130.65 2.49021 -1.89624 0
M  V30 1300 C 131.125 3.49468 -2.96034 0
M  V30 1301 N 132.616 3.57003 -2.95132 0
M  V30 1302 C 133.351 4.34543 -3.74112 0
M  V30 1303 N 132.847 5.15421 -4.6294 0
M  V30 1304 N 134.64 4.29625 -3.62462 0
M  V30 1305 H 126.791 0.78584 -1.97328 0
M  V30 1306 H 129.054 0.408065 -0.855679 0
M  V30 1307 H 128.76 2.02626 -2.87464 0
M  V30 1308 H 128.634 3.35129 -1.73114 0
M  V30 1309 H 131.021 2.81051 -0.899687 0
M  V30 1310 H 131.102 1.4925 -2.07745 0
M  V30 1311 H 130.746 3.18173 -3.95889 0
M  V30 1312 H 130.676 4.48992 -2.75161 0
M  V30 1313 H 133.167 2.99276 -2.30743 0
M  V30 1314 H 133.48 5.7183 -5.19837 0
M  V30 1315 H 131.825 5.14729 -4.66989 0
M  V30 1316 H 135.016 3.65505 -2.92444 0
M  V30 1317 H 135.189 4.89807 -4.24256 0
M  V30 1318 N 128.595 0.856903 1.32268 0
M  V30 1319 C 130.011 0.547061 1.49931 0
M  V30 1320 C 130.211 -0.921781 1.7918 0
M  V30 1321 O 129.267 -1.70469 1.8627 0
M  V30 1322 C 130.58 1.43599 2.64196 0
M  V30 1323 C 132.128 1.43665 2.78081 0
M  V30 1324 C 132.603 2.31085 3.95428 0
M  V30 1325 N 134.094 2.28893 4.02694 0
M  V30 1326 C 134.829 2.93262 4.92732 0
M  V30 1327 N 134.325 3.66751 5.87763 0
M  V30 1328 N 136.118 2.82638 4.85873 0
M  V30 1329 H 128.269 1.8075 1.11549 0
M  V30 1330 H 130.532 0.772144 0.549997 0
M  V30 1331 H 130.238 2.48058 2.49319 0
M  V30 1332 H 130.112 1.12502 3.60032 0
M  V30 1333 H 132.499 0.399701 2.92381 0
M  V30 1334 H 132.58 1.7878 1.82952 0
M  V30 1335 H 132.224 3.34849 3.81888 0
M  V30 1336 H 132.154 1.93302 4.89839 0
M  V30 1337 H 134.645 1.75466 3.34694 0
M  V30 1338 H 134.958 4.13027 6.53168 0
M  V30 1339 H 133.303 3.70859 5.87783 0
M  V30 1340 H 136.494 2.24774 4.10602 0
M  V30 1341 H 136.667 3.33084 5.55841 0
M  V30 1342 N 130.073 -1.45103 0.615059 0
M  V30 1343 C 131.319 -2.03035 0.121804 0
M  V30 1344 C 131.674 -1.47393 -1.23665 0
M  V30 1345 O 130.967 -0.642061 -1.80522 0
M  V30 1346 C 131.161 -3.57386 0.0318797 0
M  V30 1347 C 130.99 -4.28 1.38007 0
M  V30 1348 C 129.76 -4.65624 1.9627 0
M  V30 1349 C 131.958 -4.5948 2.31047 0
M  V30 1350 N 129.94 -5.21132 3.24492 0
M  V30 1351 C 131.311 -5.159 3.43872 0
M  V30 1352 C 133.366 -4.41423 2.30326 0
M  V30 1353 C 132.069 -5.56165 4.5615 0
M  V30 1354 C 134.095 -4.82726 3.41658 0
M  V30 1355 C 133.457 -5.39245 4.53205 0
M  V30 1356 H 129.556 -0.77702 0.0881159 0
M  V30 1357 H 132.14 -1.76819 0.815044 0
M  V30 1358 H 130.311 -3.83247 -0.630599 0
M  V30 1359 H 132.043 -4.01976 -0.468721 0
M  V30 1360 H 128.798 -4.49421 1.49392 0
M  V30 1361 H 129.222 -5.53377 3.90004 0
M  V30 1362 H 133.864 -3.97033 1.45343 0
M  V30 1363 H 131.582 -5.99517 5.41854 0
M  V30 1364 H 135.168 -4.7048 3.42257 0
M  V30 1365 H 134.048 -5.70616 5.37929 0
M  V30 1366 N 131.551 -0.354651 -1.53558 0
M  V30 1367 C 132.776 0.242153 -2.05981 0
M  V30 1368 C 133.201 1.42553 -1.2272 0
M  V30 1369 O 132.559 1.79656 -0.243604 0
M  V30 1370 C 132.607 0.624367 -3.55154 0
M  V30 1371 O 131.711 1.72301 -3.74681 0
M  V30 1372 H 131.052 0.0378432 -0.662921 0
M  V30 1373 H 133.582 -0.512087 -1.98088 0
M  V30 1374 H 133.592 0.898433 -3.97985 0
M  V30 1375 H 132.267 -0.240989 -4.15201 0
M  V30 1376 H 130.844 1.44535 -3.4375 0
M  V30 1377 N 133.029 1.57378 -0.0835403 0
M  V30 1378 C 133.959 2.1641 0.87686 0
M  V30 1379 C 134.94 1.09429 1.30228 0
M  V30 1380 O 136.125 1.37516 1.37124 0
M  V30 1381 C 133.255 2.73517 2.14022 0
M  V30 1382 C 132.209 3.85769 1.85381 0
M  V30 1383 C 131.535 4.29529 3.18448 0
M  V30 1384 C 132.835 5.09486 1.14984 0
M  V30 1385 H 134.529 2.96914 0.385059 0
M  V30 1386 H 132.075 1.42823 0.18377 0
M  V30 1387 H 134.028 3.13463 2.81636 0
M  V30 1388 H 132.752 1.90252 2.65465 0
M  V30 1389 H 131.411 3.46345 1.20169 0
M  V30 1390 H 131.059 3.43169 3.67755 0
M  V30 1391 H 130.759 5.05204 3.00071 0
M  V30 1392 H 132.283 4.72099 3.8724 0
M  V30 1393 H 133.697 5.46674 1.72687 0
M  V30 1394 H 132.094 5.90515 1.06826 0
M  V30 1395 H 133.164 4.84724 0.130749 0
M  V30 1396 N 134.507 -0.190092 1.56449 0
M  V30 1397 C 135.47 -1.21925 1.9408 0
M  V30 1398 C 136.47 -1.38176 0.822431 0
M  V30 1399 O 137.66 -1.35903 1.08977 0
M  V30 1400 C 134.792 -2.58773 2.21922 0
M  V30 1401 H 135.985 -0.897464 2.86157 0
M  V30 1402 H 133.538 -0.43181 1.50217 0
M  V30 1403 H 134.273 -2.95998 1.32499 0
M  V30 1404 H 134.058 -2.48348 3.03424 0
M  V30 1405 H 135.548 -3.32978 2.52022 0
M  V30 1406 N 135.985 -1.50799 -0.457987 0
M  V30 1407 C 137.21 -1.66496 -1.23668 0
M  V30 1408 C 137.635 -0.353288 -1.84752 0
M  V30 1409 O 136.993 0.684346 -1.67888 0
M  V30 1410 C 137.041 -2.76763 -2.3116 0
M  V30 1411 O 136.145 -2.38928 -3.36136 0
M  V30 1412 H 135.486 -0.555828 -0.363252 0
M  V30 1413 H 138.016 -1.9725 -0.543474 0
M  V30 1414 H 138.026 -3.00232 -2.76269 0
M  V30 1415 H 136.701 -3.71954 -1.86073 0
M  V30 1416 H 135.278 -2.25953 -2.96647 0
M  V30 1417 N 137.463 0.71206 -1.40597 0
M  V30 1418 C 138.393 1.83889 -1.43899 0
M  V30 1419 C 139.374 1.67442 -0.299504 0
M  V30 1420 O 140.559 1.87421 -0.508624 0
M  V30 1421 C 137.689 3.21877 -1.30431 0
M  V30 1422 C 136.643 3.53002 -2.42019 0
M  V30 1423 C 135.969 4.90172 -2.13626 0
M  V30 1424 C 137.269 3.53643 -3.84362 0
M  V30 1425 H 138.963 1.81383 -2.38203 0
M  V30 1426 H 136.509 0.871237 -1.14654 0
M  V30 1427 H 138.462 4.00404 -1.31357 0
M  V30 1428 H 137.186 3.24968 -0.326049 0
M  V30 1429 H 135.845 2.76818 -2.40349 0
M  V30 1430 H 135.493 4.89869 -1.14182 0
M  V30 1431 H 135.193 5.11962 -2.88389 0
M  V30 1432 H 136.717 5.71028 -2.1624 0
M  V30 1433 H 138.131 4.22203 -3.87837 0
M  V30 1434 H 136.528 3.86961 -4.58673 0
M  V30 1435 H 137.598 2.52954 -4.13693 0
M  V30 1436 N 138.941 1.26152 0.944643 0
M  V30 1437 C 140.352 1.10454 1.50522 0
M  V30 1438 C 140.703 -0.31635 1.93633 0
M  V30 1439 O 139.828 -1.20746 1.79581 0
M  V30 1440 C 140.423 1.99891 2.73549 0
M  V30 1441 C 138.982 1.88348 3.25886 0
M  V30 1442 C 138.129 1.93447 1.9868 0
M  V30 1443 H 141.08 1.39292 0.760489 0
M  V30 1444 H 141.101 1.54477 3.47732 0
M  V30 1445 H 140.613 3.03297 2.42141 0
M  V30 1446 H 138.714 0.878636 3.62092 0
M  V30 1447 H 138.827 2.73696 3.93227 0
M  V30 1448 H 137.191 1.37456 2.14425 0
M  V30 1449 H 137.974 2.98476 1.69607 0
M  V30 1450 N 140.419 -1.14872 1.07899 0
M  V30 1451 C 141.644 -1.90202 0.826926 0
M  V30 1452 C 142.069 -1.77774 -0.614664 0
M  V30 1453 O 141.427 -1.11431 -1.43013 0
M  V30 1454 C 141.475 -3.38352 1.24702 0
M  V30 1455 O 140.579 -4.10497 0.39575 0
M  V30 1456 H 139.92 -0.591968 0.300782 0
M  V30 1457 H 142.45 -1.45437 1.43907 0
M  V30 1458 H 142.46 -3.89156 1.22563 0
M  V30 1459 H 141.135 -3.46715 2.29698 0
M  V30 1460 H 139.712 -3.69796 0.480117 0
M  V30 1461 N 141.898 -0.863906 -1.31812 0
M  V30 1462 C 143.123 -0.48527 -2.01643 0
M  V30 1463 C 143.548 0.913058 -1.64453 0
M  V30 1464 O 142.906 1.6014 -0.849985 0
M  V30 1465 C 142.954 -0.642625 -3.54828 0
M  V30 1466 O 142.058 0.320659 -4.11151 0
M  V30 1467 H 141.399 -0.193793 -0.635091 0
M  V30 1468 H 143.929 -1.16565 -1.68148 0
M  V30 1469 H 143.939 -0.533628 -4.04495 0
M  V30 1470 H 142.614 -1.66227 -3.81237 0
M  V30 1471 H 141.191 0.167126 -3.72525 0
M  V30 1472 N 143.376 1.44774 -0.622745 0
M  V30 1473 C 144.624 2.01721 -0.123655 0
M  V30 1474 C 144.945 1.49172 1.25589 0
M  V30 1475 O 144.215 0.691974 1.83272 0
M  V30 1476 H 142.795 0.745777 -0.0427225 0
M  V30 1477 H 145.457 1.77382 -0.807559 0
M  V30 1478 H 144.553 3.11984 -0.0849534 0
M  V30 1479 N 144.854 0.36279 1.53368 0
M  V30 1480 C 146.084 -0.228281 2.05335 0
M  V30 1481 C 146.492 -1.43226 1.23625 0
M  V30 1482 O 145.835 -1.81717 0.269206 0
M  V30 1483 C 145.897 -0.688549 3.52845 0
M  V30 1484 C 145.561 0.398362 4.5526 0
M  V30 1485 C 146.558 1.24732 5.04716 0
M  V30 1486 C 144.243 0.557805 4.99193 0
M  V30 1487 C 146.237 2.2411 5.96702 0
M  V30 1488 C 143.924 1.55495 5.90986 0
M  V30 1489 C 144.922 2.39503 6.39631 0
M  V30 1490 O 144.61 3.37517 7.29615 0
M  V30 1491 H 144.342 -0.044395 0.674541 0
M  V30 1492 H 146.896 0.518668 1.98744 0
M  V30 1493 H 145.126 -1.48706 3.56964 0
M  V30 1494 H 146.815 -1.20231 3.87685 0
M  V30 1495 H 147.581 1.13532 4.71525 0
M  V30 1496 H 143.46 -0.0862959 4.60919 0
M  V30 1497 H 147.004 2.89718 6.34594 0
M  V30 1498 H 142.901 1.66744 6.23592 0
M  V30 1499 H 143.669 3.33213 7.47604 0
M  V30 1500 N 146.332 -1.57332 0.0918853 0
M  V30 1501 C 147.58 -1.93853 -0.571446 0
M  V30 1502 C 147.901 -0.974212 -1.6892 0
M  V30 1503 O 147.171 -0.0257254 -1.95883 0
M  V30 1504 H 145.751 -0.715666 -0.214082 0
M  V30 1505 H 148.413 -1.94287 0.154464 0
M  V30 1506 H 147.509 -2.96191 -0.983729 0
M  V30 1507 N 147.81 0.181792 -1.56548 0
M  V30 1508 C 149.038 0.915947 -1.85521 0
M  V30 1509 C 149.453 1.76282 -0.676016 0
M  V30 1510 O 148.81 1.79012 0.355077 0
M  V30 1511 C 148.861 1.80126 -3.13427 0
M  V30 1512 O 148.582 0.988562 -4.26801 0
M  V30 1513 C 150.083 2.64597 -3.55673 0
M  V30 1514 H 147.303 0.26661 -0.61576 0
M  V30 1515 H 149.847 0.185039 -2.03661 0
M  V30 1516 H 148.002 2.48563 -2.97145 0
M  V30 1517 H 148.416 1.59308 -4.99721 0
M  V30 1518 H 149.89 3.2235 -4.48101 0
M  V30 1519 H 150.367 3.38958 -2.79292 0
M  V30 1520 H 150.973 2.0151 -3.74532 0
M  V30 1521 N 149.288 1.51039 0.449983 0
M  V30 1522 C 150.236 1.71995 1.5659 0
M  V30 1523 C 151.23 0.586029 1.5894 0
M  V30 1524 O 152.436 0.76709 1.62837 0
M  V30 1525 H 148.811 0.543233 0.520001 0
M  V30 1526 H 150.782 2.65562 1.36085 0
M  V30 1527 C 149.531 1.8506 2.9436 0
M  V30 1528 H 148.854 2.71712 2.93279 0
M  V30 1529 H 150.294 2.0374 3.71842 0
M  V30 1530 C 148.753 0.607277 3.31382 0
M  V30 1531 O 149.283 -0.243903 4.00959 0
M  V30 1532 N 147.489 0.455073 2.87015 0
M  V30 1533 H 147.036 1.14879 2.30566 0
M  V30 1534 H 146.994 -0.375611 3.12148 0
M  V30 1535 N 150.766 -0.704594 1.40972 0
M  V30 1536 C 151.994 -1.49354 1.43182 0
M  V30 1537 C 152.409 -1.88768 0.0345508 0
M  V30 1538 O 151.766 -1.56184 -0.944081 0
M  V30 1539 C 151.817 -2.76187 2.33244 0
M  V30 1540 O 151.538 -2.38436 3.67532 0
M  V30 1541 C 153.039 -3.7 2.44162 0
M  V30 1542 H 150.259 -0.460559 0.487982 0
M  V30 1543 H 152.803 -0.868261 1.85153 0
M  V30 1544 H 150.958 -3.34974 1.94606 0
M  V30 1545 H 151.372 -3.20126 4.15475 0
M  V30 1546 H 152.846 -4.55803 3.11364 0
M  V30 1547 H 153.323 -4.13867 1.47006 0
M  V30 1548 H 153.929 -3.17121 2.83398 0
M  V30 1549 N 152.244 -1.26651 -0.937939 0
M  V30 1550 C 153.655 -1.1125 -1.49934 0
M  V30 1551 C 154.006 0.306077 -1.93798 0
M  V30 1552 O 153.131 1.19792 -1.80219 0
M  V30 1553 C 153.726 -2.01339 -2.72485 0
M  V30 1554 C 152.285 -1.90074 -3.24883 0
M  V30 1555 C 151.432 -1.94498 -1.97651 0
M  V30 1556 H 154.383 -1.39693 -0.753091 0
M  V30 1557 H 154.404 -1.56319 -3.46907 0
M  V30 1558 H 153.916 -3.04577 -2.40529 0
M  V30 1559 H 152.017 -0.897827 -3.61621 0
M  V30 1560 H 152.13 -2.75778 -3.9177 0
M  V30 1561 H 150.494 -1.38591 -2.13693 0
M  V30 1562 H 151.277 -2.99372 -1.68022 0
M  V30 1563 N 153.722 1.14298 -1.08507 0
M  V30 1564 C 154.947 1.8976 -0.837001 0
M  V30 1565 C 155.372 1.78097 0.605228 0
M  V30 1566 O 154.73 1.12188 1.4242 0
M  V30 1567 C 154.778 3.37685 -1.26495 0
M  V30 1568 O 153.882 4.10281 -0.417514 0
M  V30 1569 H 153.223 0.590365 -0.303917 0
M  V30 1570 H 155.753 1.44672 -1.44676 0
M  V30 1571 H 155.763 3.88501 -1.24625 0
M  V30 1572 H 154.438 3.45492 -2.31534 0
M  V30 1573 H 153.015 3.69536 -0.499722 0
M  V30 1574 N 155.201 0.870884 1.31352 0
M  V30 1575 C 156.426 0.495957 2.01383 0
M  V30 1576 C 156.851 -0.904324 1.64935 0
M  V30 1577 O 156.209 -1.59687 0.858466 0
M  V30 1578 C 156.257 0.661433 3.54482 0
M  V30 1579 O 155.361 -0.298851 4.11316 0
M  V30 1580 H 154.702 0.197158 0.634054 0
M  V30 1581 H 157.232 1.17455 1.67527 0
M  V30 1582 H 157.242 0.555072 4.04207 0
M  V30 1583 H 155.917 1.68246 3.8035 0
M  V30 1584 H 154.494 -0.147368 3.72609 0
M  V30 1585 N 156.679 -1.44442 0.630414 0
M  V30 1586 C 157.907 -2.06414 0.141671 0
M  V30 1587 C 158.322 -1.47105 -1.18345 0
M  V30 1588 O 157.679 -0.593662 -1.72574 0
M  V30 1589 C 157.73 -3.61494 0.0199784 0
M  V30 1590 O 157.451 -4.18594 1.29269 0
M  V30 1591 C 158.952 -4.40499 -0.497544 0
M  V30 1592 H 156.172 -0.666292 0.0793452 0
M  V30 1593 H 158.716 -1.85323 0.864614 0
M  V30 1594 H 156.871 -3.8185 -0.653402 0
M  V30 1595 H 157.285 -5.12026 1.13707 0
M  V30 1596 H 158.759 -5.49433 -0.531708 0
M  V30 1597 H 159.236 -4.11895 -1.52445 0
M  V30 1598 H 159.842 -4.25061 0.142562 0
M  V30 1599 N 158.157 -0.370918 -1.53173 0
M  V30 1600 C 159.403 0.217423 -2.01631 0
M  V30 1601 C 159.736 1.47983 -1.25756 0
M  V30 1602 O 159.011 1.91274 -0.352764 0
M  V30 1603 C 159.294 0.503982 -3.56556 0
M  V30 1604 C 159.147 -0.77243 -4.43118 0
M  V30 1605 C 160.466 1.30234 -4.20389 0
M  V30 1606 H 157.585 0.0775486 -0.732909 0
M  V30 1607 H 160.227 -0.496863 -1.83388 0
M  V30 1608 H 158.377 1.11248 -3.72231 0
M  V30 1609 H 160.049 -1.4098 -4.39229 0
M  V30 1610 H 158.292 -1.39167 -4.10871 0
M  V30 1611 H 158.963 -0.526815 -5.4948 0
M  V30 1612 H 161.439 0.787546 -4.08579 0
M  V30 1613 H 160.315 1.47158 -5.28806 0
M  V30 1614 H 160.576 2.31237 -3.76805 0
M  V30 1615 N 159.635 1.57281 -0.100228 0
M  V30 1616 C 160.86 1.99302 0.573881 0
M  V30 1617 C 161.285 0.979059 1.60611 0
M  V30 1618 O 160.643 -0.0517803 1.81226 0
M  V30 1619 C 160.691 3.40274 1.19358 0
M  V30 1620 O 159.795 3.41676 2.30935 0
M  V30 1621 H 159.136 0.647944 0.145138 0
M  V30 1622 H 161.666 2.03779 -0.183156 0
M  V30 1623 H 161.676 3.78078 1.53365 0
M  V30 1624 H 160.351 4.13594 0.437385 0
M  V30 1625 H 158.928 3.15672 1.98509 0
M  V30 1626 N 161.113 -0.173488 1.56642 0
M  V30 1627 C 162.338 -0.910149 1.86363 0
M  V30 1628 C 162.763 -1.75132 0.686318 0
M  V30 1629 O 162.121 -1.77595 -0.364643 0
M  V30 1630 C 162.169 -1.76447 3.14482 0
M  V30 1631 O 161.273 -2.86584 2.96553 0
M  V30 1632 H 160.614 -0.255086 0.613047 0
M  V30 1633 H 163.144 -0.172283 2.03873 0
M  V30 1634 H 163.154 -2.16483 3.45831 0
M  V30 1635 H 161.829 -1.14658 3.99783 0
M  V30 1636 H 160.406 -2.50146 2.76553 0
M  V30 1637 N 162.591 -1.51276 -0.441967 0
M  V30 1638 C 163.816 -1.67799 -1.21895 0
M  V30 1639 C 164.241 -0.372864 -1.84367 0
M  V30 1640 O 163.599 0.666501 -1.68604 0
M  V30 1641 C 163.647 -2.79199 -2.28211 0
M  V30 1642 O 162.751 -2.42479 -3.33583 0
M  V30 1643 H 162.092 -0.559649 -0.357336 0
M  V30 1644 H 164.622 -1.97815 -0.522522 0
M  V30 1645 H 164.632 -3.03146 -2.73069 0
M  V30 1646 H 163.307 -3.73906 -1.82118 0
M  V30 1647 H 161.884 -2.29087 -2.94234 0
M  V30 1648 N 164.069 0.697108 -1.41344 0
M  V30 1649 C 165.309 1.46939 -1.42085 0
M  V30 1650 C 165.673 1.9198 -0.0280397 0
M  V30 1651 O 166.874 2.6865 0.0897504 0
M  V30 1652 C 165.145 2.64985 -2.39828 0
M  V30 1653 S 166.704 3.54147 -2.59085 0
M  V30 1654 H 163.522 0.502146 -0.503359 0
M  V30 1655 H 166.124 0.813546 -1.77769 0
M  V30 1656 H 164.828 2.30098 -3.39828 0
M  V30 1657 H 164.359 3.35464 -2.05493 0
M  V30 1658 H 166.374 4.60137 -1.85711 0
M  V30 1659 N 165.547 1.27147 0.931209 0
M  V30 1660 C 166.772 1.16191 1.71797 0
M  V30 1661 C 167.197 -0.278004 1.86034 0
M  V30 1662 O 166.555 -1.20137 1.35782 0
M  V30 1663 C 166.603 1.84673 3.09723 0
M  V30 1664 O 165.707 1.14231 3.96264 0
M  V30 1665 H 165.048 0.404303 0.526721 0
M  V30 1666 H 167.578 1.68152 1.1656 0
M  V30 1667 H 167.588 1.91893 3.60057 0
M  V30 1668 H 166.263 2.89421 2.98677 0
M  V30 1669 H 164.84 1.15056 3.54706 0
M  V30 1670 N 167.025 -1.13721 1.09112 0
M  V30 1671 C 168.25 -1.89314 0.847053 0
M  V30 1672 C 168.675 -1.78416 -0.595774 0
M  V30 1673 O 168.033 -1.12942 -1.41823 0
M  V30 1674 C 168.081 -3.3701 1.28284 0
M  V30 1675 O 167.185 -4.10054 0.439267 0
M  V30 1676 H 166.526 -0.588745 0.307044 0
M  V30 1677 H 169.056 -1.43902 1.45442 0
M  V30 1678 H 169.066 -3.87834 1.26683 0
M  V30 1679 H 167.741 -3.4426 2.33363 0
M  V30 1680 H 166.318 -3.69266 0.519312 0
M  V30 1681 N 168.503 -0.877838 -1.30888 0
M  V30 1682 C 169.435 -0.296607 -2.27273 0
M  V30 1683 C 170.448 0.544799 -1.53414 0
M  V30 1684 O 171.637 0.365511 -1.74718 0
M  V30 1685 C 168.737 0.597481 -3.33592 0
M  V30 1686 C 167.91 -0.213251 -4.3688 0
M  V30 1687 C 166.969 0.610208 -5.2265 0
M  V30 1688 O 165.995 0.035441 -5.69189 0
M  V30 1689 N 167.197 1.92071 -5.47804 0
M  V30 1690 H 169.962 -1.12492 -2.77787 0
M  V30 1691 H 167.523 -0.740105 -1.43993 0
M  V30 1692 H 169.515 1.15425 -3.87891 0
M  V30 1693 H 168.085 1.32647 -2.83061 0
M  V30 1694 H 167.305 -0.951466 -3.82545 0
M  V30 1695 H 168.593 -0.769262 -5.02951 0
M  V30 1696 H 167.991 2.4107 -5.11763 0
M  V30 1697 H 166.548 2.42508 -6.05007 0
M  V30 1698 N 169.982 1.44106 -0.638065 0
M  V30 1699 C 170.892 2.34513 0.0637334 0
M  V30 1700 C 171.908 1.53018 0.828346 0
M  V30 1701 O 173.084 1.85723 0.779036 0
M  V30 1702 C 170.149 3.31095 1.02844 0
M  V30 1703 C 169.21 4.28497 0.26244 0
M  V30 1704 C 168.443 5.20465 1.1812 0
M  V30 1705 O 168.666 5.16514 2.42011 0
M  V30 1706 O 167.6 5.98251 0.661774 0
M  V30 1707 H 171.426 2.95989 -0.68003 0
M  V30 1708 H 169.011 1.43994 -0.398252 0
M  V30 1709 H 170.893 3.90526 1.58327 0
M  V30 1710 H 169.568 2.72144 1.7527 0
M  V30 1711 H 168.475 3.72592 -0.335602 0
M  V30 1712 H 169.808 4.90388 -0.421936 0
M  V30 1713 N 171.46 0.379036 1.52974 0
M  V30 1714 C 172.876 0.0285448 1.59574 0
M  V30 1715 C 173.076 -1.45542 1.39355 0
M  V30 1716 O 172.132 -2.2187 1.20541 0
M  V30 1717 C 173.445 0.496535 2.96572 0
M  V30 1718 C 174.993 0.451909 3.0972 0
M  V30 1719 C 175.468 0.895924 4.49152 0
M  V30 1720 N 176.959 0.851522 4.55306 0
M  V30 1721 C 177.694 1.16661 5.61407 0
M  V30 1722 N 177.19 1.55166 6.752 0
M  V30 1723 N 178.983 1.08853 5.51459 0
M  V30 1724 H 171.134 1.34525 1.64367 0
M  V30 1725 H 173.397 0.550733 0.771619 0
M  V30 1726 H 173.103 1.53258 3.16552 0
M  V30 1727 H 172.977 -0.109802 3.7704 0
M  V30 1728 H 175.364 -0.575029 2.89443 0
M  V30 1729 H 175.445 1.09392 2.3123 0
M  V30 1730 H 175.089 1.92104 4.70168 0
M  V30 1731 H 175.019 0.23103 5.26093 0
M  V30 1732 H 177.51 0.568038 3.73606 0
M  V30 1733 H 177.823 1.776 7.52116 0
M  V30 1734 H 176.168 1.59044 6.76557 0
M  V30 1735 H 179.359 0.786803 4.6144 0
M  V30 1736 H 179.532 1.33742 6.34048 0
M  V30 1737 N 172.938 -1.57226 0.108567 0
M  V30 1738 C 173.868 -2.17778 -0.84232 0
M  V30 1739 C 174.849 -1.11487 -1.2847 0
M  V30 1740 O 176.034 -1.39681 -1.34918 0
M  V30 1741 C 173.164 -2.76888 -2.09644 0
M  V30 1742 C 172.118 -3.88669 -1.79221 0
M  V30 1743 C 171.444 -4.34541 -3.11574 0
M  V30 1744 C 172.744 -5.11251 -1.06864 0
M  V30 1745 H 174.438 -2.97489 -0.337774 0
M  V30 1746 H 171.984 -1.43097 -0.161025 0
M  V30 1747 H 173.937 -3.17904 -2.76614 0
M  V30 1748 H 172.661 -1.94451 -2.62405 0
M  V30 1749 H 171.32 -3.48213 -1.14644 0
M  V30 1750 H 170.968 -3.48977 -3.62249 0
M  V30 1751 H 170.668 -5.09914 -2.91996 0
M  V30 1752 H 172.192 -4.782 -3.7968 0
M  V30 1753 H 173.606 -5.49352 -1.63968 0
M  V30 1754 H 172.003 -5.9214 -0.974178 0
M  V30 1755 H 173.073 -4.8487 -0.0536168 0
M  V30 1756 N 174.416 0.165178 -1.56732 0
M  V30 1757 C 175.366 1.20917 -1.93295 0
M  V30 1758 C 176.35 1.39488 -0.801985 0
M  V30 1759 O 177.542 1.41356 -1.06525 0
M  V30 1760 C 174.671 2.54718 -2.3016 0
M  V30 1761 C 173.757 2.39815 -3.49785 0
M  V30 1762 N 174.148 1.94637 -4.66851 0
M  V30 1763 C 172.446 2.70623 -3.54513 0
M  V30 1764 C 173.147 1.92344 -5.4898 0
M  V30 1765 N 172.123 2.34978 -4.9019 0
M  V30 1766 H 175.925 0.851675 -2.81289 0
M  V30 1767 H 173.439 0.373399 -1.58049 0
M  V30 1768 H 175.436 3.30165 -2.54552 0
M  V30 1769 H 174.096 2.91265 -1.43508 0
M  V30 1770 H 175.107 1.6488 -4.90953 0
M  V30 1771 H 171.784 3.11167 -2.78354 0
M  V30 1772 H 173.174 1.5906 -6.52801 0
M  V30 1773 N 175.894 1.51508 0.433938 0
M  V30 1774 C 176.826 1.69266 1.54537 0
M  V30 1775 C 177.839 0.573276 1.52373 0
M  V30 1776 O 179.028 0.847698 1.57087 0
M  V30 1777 C 176.128 1.69524 2.93453 0
M  V30 1778 C 175.301 2.98101 3.20085 0
M  V30 1779 C 174.36 2.90502 4.38742 0
M  V30 1780 O 173.386 3.64442 4.3723 0
M  V30 1781 N 174.588 2.06586 5.42496 0
M  V30 1782 H 177.353 2.65145 1.39708 0
M  V30 1783 H 174.914 1.49437 0.622922 0
M  V30 1784 H 176.906 1.62004 3.70859 0
M  V30 1785 H 175.476 0.812245 3.01863 0
M  V30 1786 H 174.696 3.19464 2.30947 0
M  V30 1787 H 175.984 3.83207 3.34708 0
M  V30 1788 H 175.382 1.45896 5.46563 0
M  V30 1789 H 173.939 2.04943 6.18742 0
M  V30 1790 N 177.372 -0.689602 1.41712 0
M  V30 1791 C 178.302 -1.81577 1.46806 0
M  V30 1792 C 179.283 -1.66945 0.326105 0
M  V30 1793 O 180.468 -1.86588 0.538377 0
M  V30 1794 C 177.598 -3.19762 1.35535 0
M  V30 1795 C 176.552 -3.49107 2.47605 0
M  V30 1796 C 175.878 -4.86711 2.21397 0
M  V30 1797 C 177.178 -3.47483 3.89939 0
M  V30 1798 H 178.872 -1.7757 2.41058 0
M  V30 1799 H 176.418 -0.852887 1.16025 0
M  V30 1800 H 178.371 -3.98263 1.3771 0
M  V30 1801 H 177.095 -3.24409 0.377708 0
M  V30 1802 H 175.754 -2.72959 2.44722 0
M  V30 1803 H 175.402 -4.8799 1.21961 0
M  V30 1804 H 175.102 -5.0731 2.96497 0
M  V30 1805 H 176.626 -5.67515 2.25297 0
M  V30 1806 H 178.04 -4.1598 3.94505 0
M  V30 1807 H 176.437 -3.79615 4.64771 0
M  V30 1808 H 177.507 -2.46341 4.17665 0
M  V30 1809 N 178.85 -1.27639 -0.924453 0
M  V30 1810 C 180.261 -1.12834 -1.48746 0
M  V30 1811 C 180.612 0.285505 -1.94112 0
M  V30 1812 O 179.737 1.17874 -1.81479 0
M  V30 1813 C 180.332 -2.04217 -2.70334 0
M  V30 1814 C 178.891 -1.93509 -3.22848 0
M  V30 1815 C 178.038 -1.96583 -1.95577 0
M  V30 1816 H 180.989 -1.40484 -0.738233 0
M  V30 1817 H 181.01 -1.59989 -3.4523 0
M  V30 1818 H 180.522 -3.07111 -2.37285 0
M  V30 1819 H 178.623 -0.936131 -3.60649 0
M  V30 1820 H 178.736 -2.79917 -3.88823 0
M  V30 1821 H 177.1 -1.4085 -2.12211 0
M  V30 1822 H 177.883 -3.01137 -1.64837 0
M  V30 1823 N 180.328 1.1314 -1.09713 0
M  V30 1824 C 181.558 1.88048 -0.855656 0
M  V30 1825 C 181.966 1.79537 0.596919 0
M  V30 1826 O 181.309 1.16196 1.42282 0
M  V30 1827 C 181.371 3.38314 -1.21589 0
M  V30 1828 C 181.035 3.70605 -2.67397 0
M  V30 1829 C 182.032 3.69596 -3.65643 0
M  V30 1830 C 179.717 4.0017 -3.03593 0
M  V30 1831 C 181.711 3.977 -4.9811 0
M  V30 1832 C 179.398 4.27935 -4.36251 0
M  V30 1833 C 180.396 4.26685 -5.33318 0
M  V30 1834 O 180.084 4.53767 -6.63589 0
M  V30 1835 H 179.816 0.60208 -0.307368 0
M  V30 1836 H 182.37 1.44128 -1.46343 0
M  V30 1837 H 180.6 3.82752 -0.551177 0
M  V30 1838 H 182.289 3.94552 -0.953083 0
M  V30 1839 H 183.055 3.46826 -3.39023 0
M  V30 1840 H 178.934 4.00289 -2.2867 0
M  V30 1841 H 182.478 3.9664 -5.73866 0
M  V30 1842 H 178.375 4.50178 -4.62613 0
M  V30 1843 H 179.143 4.71422 -6.69107 0
M  V30 1844 N 181.806 0.884767 1.30421 0
M  V30 1845 C 182.738 0.308655 2.27112 0
M  V30 1846 C 183.751 -0.536655 1.53701 0
M  V30 1847 O 184.94 -0.35624 1.74909 0
M  V30 1848 C 182.04 -0.579782 3.33904 0
M  V30 1849 C 181.213 0.236417 4.36761 0
M  V30 1850 C 180.272 -0.582482 5.22966 0
M  V30 1851 O 179.298 -0.00525502 5.692 0
M  V30 1852 N 180.5 -1.89163 5.48815 0
M  V30 1853 H 183.265 1.13964 2.77186 0
M  V30 1854 H 180.826 0.747731 1.43599 0
M  V30 1855 H 182.818 -1.13366 3.88497 0
M  V30 1856 H 181.388 -1.31144 2.83761 0
M  V30 1857 H 180.608 0.97174 3.82035 0
M  V30 1858 H 181.896 0.795924 5.02536 0
M  V30 1859 H 181.294 -2.38352 5.13035 0
M  V30 1860 H 179.851 -2.39296 6.06284 0
M  V30 1861 N 183.284 -1.43765 0.645699 0
M  V30 1862 C 184.695 -1.85193 0.236719 0
M  V30 1863 C 185.046 -1.54045 -1.21509 0
M  V30 1864 O 184.171 -0.985694 -1.92647 0
M  V30 1865 C 184.766 -3.36151 0.422845 0
M  V30 1866 C 183.325 -3.76338 0.0682492 0
M  V30 1867 C 182.472 -2.67538 0.729306 0
M  V30 1868 H 185.423 -1.34025 0.849883 0
M  V30 1869 H 185.444 -3.79032 -0.333904 0
M  V30 1870 H 184.956 -3.5879 1.47958 0
M  V30 1871 H 183.057 -3.59312 -0.986179 0
M  V30 1872 H 183.17 -4.76603 0.488469 0
M  V30 1873 H 181.534 -2.54176 0.163235 0
M  V30 1874 H 182.317 -2.93006 1.78892 0
M  V30 1875 N 184.763 -0.387143 -1.52771 0
M  V30 1876 C 185.991 0.195869 -2.05971 0
M  V30 1877 C 186.406 1.40691 -1.25903 0
M  V30 1878 O 185.763 1.79931 -0.305134 0
M  V30 1879 C 185.814 0.56812 -3.57008 0
M  V30 1880 O 185.535 -0.594803 -4.34043 0
M  V30 1881 C 187.036 1.20723 -4.26545 0
M  V30 1882 H 184.256 0.0300578 -0.670326 0
M  V30 1883 H 186.8 -0.551749 -1.96916 0
M  V30 1884 H 184.955 1.26564 -3.66143 0
M  V30 1885 H 185.369 -0.289322 -5.23701 0
M  V30 1886 H 186.843 1.41807 -5.33474 0
M  V30 1887 H 187.32 2.17395 -3.81623 0
M  V30 1888 H 187.926 0.550535 -4.21722 0
M  V30 1889 N 186.241 1.57166 -0.116904 0
M  V30 1890 C 187.487 1.95412 0.542405 0
M  V30 1891 C 187.82 1.00019 1.66463 0
M  V30 1892 O 187.095 0.0370346 1.94465 0
M  V30 1893 C 187.378 3.43615 1.07708 0
M  V30 1894 C 187.231 4.49781 -0.0415868 0
M  V30 1895 C 188.55 3.93616 1.96861 0
M  V30 1896 H 185.669 0.710543 0.195696 0
M  V30 1897 H 188.311 1.89027 -0.192038 0
M  V30 1898 H 186.461 3.49187 1.70296 0
M  V30 1899 H 188.133 4.56308 -0.676793 0
M  V30 1900 H 186.376 4.28033 -0.705019 0
M  V30 1901 H 187.047 5.50733 0.373717 0
M  V30 1902 H 189.523 3.90335 1.44146 0
M  V30 1903 H 188.399 4.97838 2.3119 0
M  V30 1904 H 188.66 3.34188 2.89432 0
M  V30 1905 N 187.719 -0.156864 1.56817 0
M  V30 1906 C 188.996 -0.899244 1.73704 0
M  V30 1907 C 189.376 -1.99771 0.682254 0
M  V30 1908 O 188.724 -2.26515 -0.300522 0
M  V30 1909 C 188.934 -1.45075 3.17418 0
M  V30 1910 C 190.282 -1.91802 3.7881 0
M  V30 1911 O 191.306 -1.54838 3.20786 0
M  V30 1912 O 190.165 -2.5994 4.80722 0
M  V30 1913 H 187.259 -0.424267 0.709878 0
M  V30 1914 H 189.805 -0.143561 1.69092 0
M  V30 1915 H 188.577 -0.660846 3.85679 0
M  V30 1916 H 188.2 -2.27021 3.26416 0
M  V30 1917 N 189.197 -1.51736 -0.425897 0
M  V30 1918 C 190.107 -1.76738 -1.54275 0
M  V30 1919 C 191.123 -0.65211 -1.61318 0
M  V30 1920 O 192.299 -0.935654 -1.78346 0
M  V30 1921 C 189.364 -1.89755 -2.90162 0
M  V30 1922 C 188.425 -3.13633 -2.93143 0
M  V30 1923 C 187.658 -3.2602 -4.22548 0
M  V30 1924 O 187.881 -2.44067 -5.15546 0
M  V30 1925 O 186.815 -4.19071 -4.32046 0
M  V30 1926 H 190.641 -2.71502 -1.36089 0
M  V30 1927 H 188.226 -1.36376 -0.610069 0
M  V30 1928 H 190.108 -2.00236 -3.70788 0
M  V30 1929 H 188.783 -0.981785 -3.08452 0
M  V30 1930 H 187.69 -3.08622 -2.11431 0
M  V30 1931 H 189.023 -4.04936 -2.798 0
M  V30 1932 N 190.675 0.682077 -1.42076 0
M  V30 1933 C 191.605 1.80796 -1.47767 0
M  V30 1934 C 192.586 1.6677 -0.334954 0
M  V30 1935 O 193.771 1.863 -0.548264 0
M  V30 1936 C 190.901 3.19038 -1.37229 0
M  V30 1937 C 189.855 3.47789 -2.49453 0
M  V30 1938 C 189.181 4.8553 -2.23975 0
M  V30 1939 C 190.481 3.45411 -3.91776 0
M  V30 1940 H 192.175 1.7629 -2.41997 0
M  V30 1941 H 189.721 0.846721 -1.16476 0
M  V30 1942 H 191.674 3.97528 -1.39821 0
M  V30 1943 H 190.398 3.24204 -0.394907 0
M  V30 1944 H 189.057 2.71657 -2.46166 0
M  V30 1945 H 188.705 4.87337 -1.24547 0
M  V30 1946 H 188.405 5.0573 -2.99184 0
M  V30 1947 H 189.929 5.66312 -2.28304 0
M  V30 1948 H 191.343 4.13882 -3.96705 0
M  V30 1949 H 189.74 3.77145 -4.66778 0
M  V30 1950 H 190.81 2.44122 -4.18966 0
M  V30 1951 N 192.153 1.28127 0.917671 0
M  V30 1952 C 193.103 1.08361 2.00604 0
M  V30 1953 C 194.087 0.00847518 1.60898 0
M  V30 1954 O 195.279 0.228167 1.75523 0
M  V30 1955 C 192.408 0.743376 3.35155 0
M  V30 1956 C 191.494 1.85716 3.81275 0
M  V30 1957 N 191.885 3.09822 3.99805 0
M  V30 1958 C 190.183 1.74612 4.10398 0
M  V30 1959 C 190.884 3.82368 4.38372 0
M  V30 1960 N 189.86 3.10192 4.4641 0
M  V30 1961 H 193.662 2.02531 2.12975 0
M  V30 1962 H 191.176 1.18989 1.10523 0
M  V30 1963 H 193.173 0.582859 4.12805 0
M  V30 1964 H 191.833 -0.190595 3.2414 0
M  V30 1965 H 192.844 3.45475 3.85833 0
M  V30 1966 H 189.521 0.883657 4.08041 0
M  V30 1967 H 190.911 4.89082 4.60704 0
M  V30 1968 N 193.631 -1.12557 1.10312 0
M  V30 1969 C 194.878 -1.84038 0.844759 0
M  V30 1970 C 195.206 -1.84026 -0.629668 0
M  V30 1971 O 194.461 -1.28026 -1.48013 0
M  V30 1972 C 194.76 -3.31462 1.33669 0
M  V30 1973 C 194.426 -3.51647 2.82232 0
M  V30 1974 C 193.088 -3.56864 3.22802 0
M  V30 1975 C 195.44 -3.58867 3.77974 0
M  V30 1976 C 192.768 -3.66844 4.57867 0
M  V30 1977 C 195.12 -3.70375 5.1284 0
M  V30 1978 C 193.784 -3.73848 5.52986 0
M  V30 1979 H 193.054 -0.673444 0.309119 0
M  V30 1980 H 195.701 -1.32824 1.37949 0
M  V30 1981 H 194.006 -3.85091 0.721949 0
M  V30 1982 H 195.703 -3.85236 1.11329 0
M  V30 1983 H 192.293 -3.48249 2.49842 0
M  V30 1984 H 196.477 -3.54107 3.47738 0
M  V30 1985 H 191.733 -3.67804 4.88396 0
M  V30 1986 H 195.907 -3.74904 5.86873 0
M  V30 1987 H 193.534 -3.81333 6.57639 0
M  V30 1988 N 195.109 -0.891671 -1.2995 0
M  V30 1989 C 196.039 -0.379797 -2.30391 0
M  V30 1990 C 197.02 0.540919 -1.6127 0
M  V30 1991 O 198.205 0.453352 -1.88834 0
M  V30 1992 C 195.335 0.400654 -3.44981 0
M  V30 1993 C 194.289 -0.428905 -4.25846 0
M  V30 1994 C 193.615 0.478557 -5.32554 0
M  V30 1995 C 194.915 -1.67458 -4.94727 0
M  V30 1996 H 196.609 -1.21914 -2.73454 0
M  V30 1997 H 194.155 -0.587675 -1.31462 0
M  V30 1998 H 196.108 0.769434 -4.14316 0
M  V30 1999 H 194.832 1.27371 -3.0074 0
M  V30 2000 H 193.491 -0.779911 -3.58208 0
M  V30 2001 H 193.139 1.34951 -4.84559 0
M  V30 2002 H 192.839 -0.0727433 -5.87555 0
M  V30 2003 H 194.363 0.843705 -6.04743 0
M  V30 2004 H 195.777 -1.376 -5.56542 0
M  V30 2005 H 194.174 -2.16659 -5.59624 0
M  V30 2006 H 195.244 -2.41518 -4.20473 0
M  V30 2007 N 196.587 1.43421 -0.653314 0
M  V30 2008 C 197.812 2.06678 -0.172846 0
M  V30 2009 C 198.237 1.48648 1.15262 0
M  V30 2010 O 197.595 0.596457 1.71208 0
M  V30 2011 C 197.643 3.60474 -0.0953184 0
M  V30 2012 O 196.747 4.01487 0.942442 0
M  V30 2013 H 196.088 0.657181 -0.0949155 0
M  V30 2014 H 198.618 1.83925 -0.896265 0
M  V30 2015 H 198.628 4.07905 0.0879728 0
M  V30 2016 H 197.303 4.02088 -1.06291 0
M  V30 2017 H 195.88 3.65646 0.731932 0
M  V30 2018 N 198.065 0.39524 1.52563 0
M  V30 2019 C 199.012 -0.437036 2.26624 0
M  V30 2020 C 199.982 -1.05281 1.28472 0
M  V30 2021 O 201.167 -1.07971 1.57311 0
M  V30 2022 C 198.307 -1.55524 3.08069 0
M  V30 2023 C 197.42 -0.961745 4.21158 0
M  V30 2024 C 196.555 -2.05149 4.89987 0
M  V30 2025 C 195.594 -1.4342 5.95061 0
M  V30 2026 N 194.731 -2.46351 6.57462 0
M  V30 2027 H 199.571 0.200976 2.97322 0
M  V30 2028 H 197.108 0.110944 1.46681 0
M  V30 2029 H 199.066 -2.21437 3.53584 0
M  V30 2030 H 197.696 -2.16348 2.3957 0
M  V30 2031 H 196.748 -0.192048 3.79915 0
M  V30 2032 H 198.06 -0.470701 4.96574 0
M  V30 2033 H 197.214 -2.78819 5.38837 0
M  V30 2034 H 195.953 -2.57615 4.14109 0
M  V30 2035 H 194.958 -0.682774 5.45544 0
M  V30 2036 H 196.183 -0.917416 6.72875 0
M  V30 2037 H 194.129 -2.97975 5.8442 0
M  V30 2038 H 194.046 -2.02019 7.28508 0
M  V30 2039 H 195.314 -3.19633 7.10954 0
M  V30 2040 N 199.544 -1.57102 0.125237 0
M  V30 2041 C 200.494 -2.12202 -0.833936 0
M  V30 2042 C 201.478 -1.04433 -1.22403 0
M  V30 2043 O 202.67 -1.30655 -1.19408 0
M  V30 2044 C 199.799 -2.72994 -2.08157 0
M  V30 2045 C 198.885 -3.87852 -1.71556 0
M  V30 2046 N 199.276 -4.9464 -1.05662 0
M  V30 2047 C 197.574 -3.98153 -2.00973 0
M  V30 2048 C 198.275 -5.74953 -0.883376 0
M  V30 2049 N 197.251 -5.24985 -1.41036 0
M  V30 2050 H 201.053 -2.92141 -0.321035 0
M  V30 2051 H 198.567 -1.62217 -0.0770315 0
M  V30 2052 H 200.564 -3.10816 -2.77847 0
M  V30 2053 H 199.224 -1.9452 -2.59985 0
M  V30 2054 H 200.235 -5.12872 -0.719878 0
M  V30 2055 H 196.912 -3.30728 -2.54804 0
M  V30 2056 H 198.302 -6.70904 -0.365675 0
M  V30 2057 N 201.022 0.148545 -1.56898 0
M  V30 2058 C 202.269 0.861418 -1.83264 0
M  V30 2059 C 202.597 1.81239 -0.705883 0
M  V30 2060 O 201.852 1.93305 0.305212 0
M  V30 2061 C 202.151 1.67064 -3.1595 0
M  V30 2062 C 201.817 0.866591 -4.42494 0
M  V30 2063 C 200.479 0.644762 -4.76861 0
M  V30 2064 C 202.831 0.30418 -5.20312 0
M  V30 2065 C 200.159 -0.15021 -5.86508 0
M  V30 2066 C 202.511 -0.477824 -6.30793 0
M  V30 2067 C 201.175 -0.710244 -6.63711 0
M  V30 2068 H 200.445 0.315215 -0.670612 0
M  V30 2069 H 203.092 0.125142 -1.91091 0
M  V30 2070 H 201.397 2.47698 -3.03567 0
M  V30 2071 H 203.094 2.22566 -3.33565 0
M  V30 2072 H 199.684 1.04955 -4.15551 0
M  V30 2073 H 203.868 0.462844 -4.94137 0
M  V30 2074 H 199.124 -0.339796 -6.10455 0
M  V30 2075 H 203.298 -0.92076 -6.90286 0
M  V30 2076 H 200.925 -1.3281 -7.48509 0
M  V30 2077 N 202.5 1.5196 0.417844 0
M  V30 2078 C 203.748 1.65263 1.16329 0
M  V30 2079 C 204.069 0.380634 1.91249 0
M  V30 2080 O 203.339 -0.604214 1.86349 0
M  V30 2081 H 201.919 0.60912 0.432414 0
M  V30 2082 H 204.581 1.88969 0.477162 0
M  V30 2083 H 203.677 2.4896 1.88217 0
M  V30 2084 N 203.978 -0.674533 1.42435 0
M  V30 2085 C 205.203 -1.46784 1.46524 0
M  V30 2086 C 205.628 -1.87938 0.078066 0
M  V30 2087 O 204.986 -1.56014 -0.92354 0
M  V30 2088 C 205.034 -2.69307 2.39805 0
M  V30 2089 O 204.138 -3.67587 1.86959 0
M  V30 2090 H 203.479 -0.440959 0.496439 0
M  V30 2091 H 206.009 -0.827326 1.87127 0
M  V30 2092 H 206.019 -3.17374 2.56393 0
M  V30 2093 H 204.694 -2.38692 3.40586 0
M  V30 2094 H 203.271 -3.2662 1.79927 0
M  V30 2095 N 205.456 -1.28612 -0.910864 0
M  V30 2096 C 206.684 -1.18792 -1.69399 0
M  V30 2097 C 207.099 0.253039 -1.87097 0
M  V30 2098 O 206.456 1.17071 -1.40003 0
M  V30 2099 C 206.507 -1.88511 -3.08457 0
M  V30 2100 O 206.228 -3.26979 -2.91576 0
M  V30 2101 C 207.729 -1.85029 -4.02839 0
M  V30 2102 H 204.949 -0.412233 -0.529438 0
M  V30 2103 H 207.493 -1.69788 -1.13984 0
M  V30 2104 H 205.648 -1.41379 -3.60681 0
M  V30 2105 H 206.062 -3.61936 -3.79608 0
M  V30 2106 H 207.536 -2.38395 -4.97867 0
M  V30 2107 H 208.013 -0.823303 -4.31414 0
M  V30 2108 H 208.619 -2.31853 -3.56545 0
M  V30 2109 N 206.934 1.1197 -1.10907 0
M  V30 2110 C 207.844 2.21433 -0.774896 0
M  V30 2111 C 208.86 1.72478 0.229657 0
M  V30 2112 O 210.036 2.01288 0.0672008 0
M  V30 2113 C 207.101 3.4602 -0.216986 0
M  V30 2114 C 206.162 4.09791 -1.27944 0
M  V30 2115 C 205.395 5.28431 -0.748055 0
M  V30 2116 O 205.618 5.68823 0.423833 0
M  V30 2117 O 204.552 5.82644 -1.51027 0
M  V30 2118 H 208.378 2.5242 -1.68873 0
M  V30 2119 H 205.963 1.20399 -0.884555 0
M  V30 2120 H 207.845 4.21304 0.090059 0
M  V30 2121 H 206.52 3.16698 0.669633 0
M  V30 2122 H 205.427 3.36265 -1.63941 0
M  V30 2123 H 206.76 4.4328 -2.13925 0
M  V30 2124 N 208.412 0.89855 1.29475 0
M  V30 2125 C 209.637 0.538561 2.00285 0
M  V30 2126 C 210.062 -0.869135 1.66816 0
M  V30 2127 O 209.42 -1.57831 0.892145 0
M  V30 2128 C 209.468 0.736475 3.52999 0
M  V30 2129 O 208.572 -0.211537 4.11857 0
M  V30 2130 H 207.913 0.210563 0.62973 0
M  V30 2131 H 210.443 1.20982 1.64998 0
M  V30 2132 H 210.453 0.640685 4.02938 0
M  V30 2133 H 209.128 1.76276 3.76696 0
M  V30 2134 H 207.705 -0.0682991 3.72837 0
M  V30 2135 N 209.89 -1.43072 0.660911 0
M  V30 2136 C 211.139 -2.00942 0.174735 0
M  V30 2137 C 211.452 -1.52797 -1.22117 0
M  V30 2138 O 212.658 -2.02991 -1.80297 0
M  V30 2139 C 211.114 -3.58948 0.261559 0
M  V30 2140 C 210.722 -4.16085 1.66064 0
M  V30 2141 C 212.466 -4.24173 -0.166617 0
M  V30 2142 C 210.373 -5.6641 1.70098 0
M  V30 2143 H 209.303 -0.751483 0.0615631 0
M  V30 2144 H 211.954 -1.63955 0.824069 0
M  V30 2145 H 210.336 -3.93372 -0.455421 0
M  V30 2146 H 211.51 -3.93147 2.40359 0
M  V30 2147 H 209.825 -3.6326 2.03546 0
M  V30 2148 H 212.422 -5.34471 -0.156433 0
M  V30 2149 H 212.765 -3.98647 -1.19943 0
M  V30 2150 H 213.298 -3.94659 0.498875 0
M  V30 2151 H 210.037 -5.96715 2.71315 0
M  V30 2152 H 209.557 -5.91382 1.00139 0
M  V30 2153 H 211.236 -6.30585 1.44816 0
M  V30 2154 N 211.368 -0.403325 -1.52352 0
M  V30 2155 C 212.596 0.174012 -2.06167 0
M  V30 2156 C 213.011 1.39347 -1.27388 0
M  V30 2157 O 212.368 1.79597 -0.324201 0
M  V30 2158 C 212.419 0.530223 -3.5759 0
M  V30 2159 O 212.14 -0.640806 -4.33388 0
M  V30 2160 C 213.641 1.16192 -4.27802 0
M  V30 2161 H 210.861 0.0229464 -0.670608 0
M  V30 2162 H 213.405 -0.572604 -1.9632 0
M  V30 2163 H 211.56 1.22673 -3.67464 0
M  V30 2164 H 211.974 -0.344851 -5.23365 0
M  V30 2165 H 213.448 1.36141 -5.34948 0
M  V30 2166 H 213.925 2.13335 -3.83907 0
M  V30 2167 H 214.531 0.505775 -4.22282 0
M  V30 2168 N 212.846 1.57033 -0.133567 0
M  V30 2169 C 214.123 1.87256 0.56522 0
M  V30 2170 C 214.503 1.03726 1.83859 0
M  V30 2171 O 213.851 0.120247 2.28183 0
M  V30 2172 C 214.061 3.3865 0.843636 0
M  V30 2173 C 215.409 4.07574 1.19032 0
M  V30 2174 O 216.433 3.43752 0.933429 0
M  V30 2175 O 215.292 5.20259 1.67312 0
M  V30 2176 H 212.386 0.775678 0.286796 0
M  V30 2177 H 214.932 1.68855 -0.169168 0
M  V30 2178 H 213.704 3.91257 -0.0581149 0
M  V30 2179 H 213.327 3.62532 1.63268 0
M  V30 2180 N 214.325 -0.140222 1.56975 0
M  V30 2181 C 215.235 -1.19223 2.02047 0
M  V30 2182 C 216.251 -1.46612 0.937062 0
M  V30 2183 O 217.427 -1.58148 1.24704 0
M  V30 2184 C 214.492 -2.50414 2.39778 0
M  V30 2185 C 213.553 -2.30612 3.621 0
M  V30 2186 C 212.786 -3.55547 3.98023 0
M  V30 2187 O 213.009 -4.62004 3.34528 0
M  V30 2188 O 211.943 -3.47808 4.91237 0
M  V30 2189 H 215.769 -0.839559 2.91865 0
M  V30 2190 H 213.354 -0.349453 1.45256 0
M  V30 2191 H 215.236 -3.27747 2.64877 0
M  V30 2192 H 213.911 -2.85198 1.53114 0
M  V30 2193 H 212.818 -1.51207 3.4218 0
M  V30 2194 H 214.151 -2.00741 4.49404 0
M  V30 2195 N 215.803 -1.52179 -0.40978 0
M  V30 2196 C 217.08 -1.56769 -1.16974 0
M  V30 2197 C 217.46 -0.348322 -2.08206 0
M  V30 2198 O 216.808 0.664862 -2.18613 0
M  V30 2199 C 217.018 -2.89603 -1.9476 0
M  V30 2200 C 218.366 -3.42579 -2.50849 0
M  V30 2201 O 219.39 -2.91338 -2.04941 0
M  V30 2202 O 218.249 -4.32054 -3.34652 0
M  V30 2203 H 215.343 -0.631439 -0.534054 0
M  V30 2204 H 217.889 -1.64507 -0.416613 0
M  V30 2205 H 216.661 -3.698 -1.27921 0
M  V30 2206 H 216.284 -2.85155 -2.77079 0
M  V30 2207 N 217.281 0.66697 -1.42791 0
M  V30 2208 C 218.529 1.42417 -1.43394 0
M  V30 2209 C 218.85 1.94925 -0.0542373 0
M  V30 2210 O 218.12 1.73564 0.908415 0
M  V30 2211 H 216.7 0.528515 -0.527902 0
M  V30 2212 H 219.362 0.787562 -1.78279 0
M  V30 2213 H 218.458 2.27333 -2.13837 0
M  V30 2214 N 218.759 1.29093 0.90403 0
M  V30 2215 C 220.007 1.16583 1.65085 0
M  V30 2216 C 220.328 -0.283933 1.92922 0
M  V30 2217 O 219.598 -1.19509 1.55224 0
M  V30 2218 H 218.178 0.428467 0.611903 0
M  V30 2219 H 220.84 1.61959 1.08422 0
M  V30 2220 H 219.936 1.71266 2.6091 0
M  V30 2221 N 220.237 -1.11381 1.11499 0
M  V30 2222 C 221.653 -1.35143 0.849031 0
M  V30 2223 C 221.853 -1.94515 -0.525938 0
M  V30 2224 O 220.909 -2.1785 -1.27662 0
M  V30 2225 C 222.222 -2.28249 1.95762 0
M  V30 2226 C 223.77 -2.41812 1.98736 0
M  V30 2227 C 224.245 -3.3824 3.088 0
M  V30 2228 N 225.736 -3.45803 3.08179 0
M  V30 2229 C 226.471 -4.20358 3.89982 0
M  V30 2230 N 225.967 -4.97884 4.8175 0
M  V30 2231 N 227.76 -4.15877 3.78157 0
M  V30 2232 H 219.911 -0.712062 2.00109 0
M  V30 2233 H 222.174 -0.376025 0.870235 0
M  V30 2234 H 221.88 -1.91817 2.94787 0
M  V30 2235 H 221.754 -3.28473 1.85433 0
M  V30 2236 H 224.141 -2.77518 1.00338 0
M  V30 2237 H 224.222 -1.41437 2.13141 0
M  V30 2238 H 223.866 -3.03261 4.07425 0
M  V30 2239 H 223.796 -4.38471 2.91635 0
M  V30 2240 H 226.287 -2.90506 2.41691 0
M  V30 2241 H 226.6 -5.52142 5.40702 0
M  V30 2242 H 224.945 -4.97043 4.85771 0
M  V30 2243 H 228.136 -3.544 3.05808 0
M  V30 2244 H 228.309 -4.73723 4.42143 0
M  V30 2245 N 221.715 -0.905404 -1.28997 0
M  V30 2246 C 223.131 -0.60233 -1.47798 0
M  V30 2247 C 223.331 0.854645 -1.82478 0
M  V30 2248 O 222.387 1.63439 -1.92468 0
M  V30 2249 C 223.7 -1.53306 -2.58685 0
M  V30 2250 C 225.248 -1.53887 -2.72558 0
M  V30 2251 C 225.723 -2.45602 -3.86579 0
M  V30 2252 N 227.214 -2.43681 -3.93921 0
M  V30 2253 C 227.949 -3.11347 -4.81509 0
M  V30 2254 N 227.445 -3.88313 -5.73746 0
M  V30 2255 N 229.238 -3.00476 -4.75048 0
M  V30 2256 H 221.389 -1.84765 -1.04764 0
M  V30 2257 H 223.652 -0.792025 -0.520961 0
M  V30 2258 H 223.358 -2.57141 -2.39941 0
M  V30 2259 H 223.232 -1.25787 -3.55609 0
M  V30 2260 H 225.619 -0.507941 -2.90696 0
M  V30 2261 H 225.7 -1.85447 -1.76191 0
M  V30 2262 H 225.344 -3.48792 -3.69197 0
M  V30 2263 H 225.274 -2.11349 -4.82327 0
M  V30 2264 H 227.765 -1.87767 -3.27951 0
M  V30 2265 H 228.078 -4.36985 -6.37389 0
M  V30 2266 H 226.423 -3.92419 -5.73614 0
M  V30 2267 H 229.614 -2.39858 -4.01977 0
M  V30 2268 H 229.787 -3.53485 -5.43095 0
M  V30 2269 N 223.193 1.4272 -0.668489 0
M  V30 2270 C 224.418 2.06484 -0.194758 0
M  V30 2271 C 224.843 1.49862 1.13679 0
M  V30 2272 O 224.201 0.614582 1.70565 0
M  V30 2273 C 224.249 3.60353 -0.133546 0
M  V30 2274 O 223.353 4.02464 0.899806 0
M  V30 2275 H 222.694 0.656137 -0.10188 0
M  V30 2276 H 225.224 1.82964 -0.915722 0
M  V30 2277 H 225.234 4.07976 0.0447041 0
M  V30 2278 H 223.909 4.00938 -1.1055 0
M  V30 2279 H 222.486 3.66402 0.693109 0
M  V30 2280 N 224.671 0.411399 1.52136 0
M  V30 2281 C 226.082 -0.0576826 1.86611 0
M  V30 2282 C 226.433 -1.44238 1.33003 0
M  V30 2283 O 225.558 -2.05759 0.670228 0
M  V30 2284 C 226.153 -0.111448 3.38617 0
M  V30 2285 C 224.712 -0.52487 3.72723 0
M  V30 2286 C 223.859 0.299176 2.75681 0
M  V30 2287 H 226.81 0.628368 1.4573 0
M  V30 2288 H 226.831 -0.926252 3.69054 0
M  V30 2289 H 226.343 0.896488 3.77604 0
M  V30 2290 H 224.444 -1.53936 3.39315 0
M  V30 2291 H 224.557 -0.267681 4.78352 0
M  V30 2292 H 222.921 -0.238814 2.53578 0
M  V30 2293 H 223.704 1.3055 3.17508 0
M  V30 2294 N 226.149 -1.5696 0.141893 0
M  V30 2295 C 227.112 -2.15316 -0.785587 0
M  V30 2296 C 228.112 -1.09366 -1.1788 0
M  V30 2297 O 229.302 -1.35031 -1.10056 0
M  V30 2298 C 226.434 -2.71211 -2.06537 0
M  V30 2299 H 227.627 -2.98608 -0.278041 0
M  V30 2300 H 225.18 -1.5593 -0.107519 0
M  V30 2301 H 225.915 -1.91571 -2.6167 0
M  V30 2302 H 225.7 -3.4872 -1.79268 0
M  V30 2303 H 227.19 -3.16189 -2.72789 0
M  V30 2304 N 227.627 0.131896 -1.57047 0
M  V30 2305 C 228.873 0.843179 -1.84441 0
M  V30 2306 C 229.206 1.80129 -0.725749 0
M  V30 2307 O 228.481 1.92624 0.269469 0
M  V30 2308 C 228.764 1.60442 -3.22382 0
M  V30 2309 C 228.617 0.666782 -4.4483 0
M  V30 2310 C 229.936 2.56354 -3.5773 0
M  V30 2311 H 227.055 0.305081 -0.670891 0
M  V30 2312 H 229.697 0.107839 -1.89694 0
M  V30 2313 H 227.847 2.23128 -3.18035 0
M  V30 2314 H 229.519 0.0497646 -4.61273 0
M  V30 2315 H 227.762 -0.022609 -4.33794 0
M  V30 2316 H 228.433 1.23579 -5.37989 0
M  V30 2317 H 230.909 2.0378 -3.62785 0
M  V30 2318 H 229.785 3.06657 -4.5525 0
M  V30 2319 H 230.046 3.38419 -2.84473 0
M  V30 2320 N 229.106 1.52395 0.401703 0
M  V30 2321 C 230.522 1.41363 0.740864 0
M  V30 2322 C 230.722 0.523982 1.94568 0
M  V30 2323 O 229.778 -0.00741204 2.52499 0
M  V30 2324 C 231.091 2.84011 0.987847 0
M  V30 2325 C 232.639 2.93404 1.09011 0
M  V30 2326 C 233.114 4.37036 1.3698 0
M  V30 2327 N 234.605 4.40304 1.43829 0
M  V30 2328 C 235.34 5.48508 1.67112 0
M  V30 2329 N 234.836 6.66819 1.87949 0
M  V30 2330 N 236.629 5.36034 1.69187 0
M  V30 2331 H 228.78 2.08765 -0.391262 0
M  V30 2332 H 231.043 0.941265 -0.112798 0
M  V30 2333 H 230.749 3.51265 0.174835 0
M  V30 2334 H 230.623 3.25502 1.906 0
M  V30 2335 H 233.01 2.26325 1.8937 0
M  V30 2336 H 233.091 2.55359 0.15015 0
M  V30 2337 H 232.735 5.04676 0.571353 0
M  V30 2338 H 232.665 4.72623 2.3224 0
M  V30 2339 H 235.156 3.55024 1.29486 0
M  V30 2340 H 235.469 7.45063 2.05185 0
M  V30 2341 H 233.814 6.6987 1.85199 0
M  V30 2342 H 237.005 4.42579 1.52451 0
M  V30 2343 H 237.178 6.20434 1.86993 0
M  V30 2344 N 230.584 -0.659388 1.43143 0
M  V30 2345 C 231.995 -1.24041 1.39537 0
M  V30 2346 C 232.346 -1.95963 0.0963364 0
M  V30 2347 O 231.471 -2.00892 -0.804438 0
M  V30 2348 C 232.066 -2.25601 2.52764 0
M  V30 2349 C 230.625 -2.79195 2.52443 0
M  V30 2350 C 229.772 -1.53743 2.30778 0
M  V30 2351 H 232.723 -0.451792 1.52133 0
M  V30 2352 H 232.744 -3.07651 2.23899 0
M  V30 2353 H 232.256 -1.73226 3.47296 0
M  V30 2354 H 230.357 -3.35649 1.61773 0
M  V30 2355 H 230.47 -3.2716 3.50004 0
M  V30 2356 H 228.834 -1.80869 1.79328 0
M  V30 2357 H 229.617 -1.03312 3.27386 0
M  V30 2358 N 232.062 -1.29571 -0.897171 0
M  V30 2359 C 233.478 -1.07637 -1.17841 0
M  V30 2360 C 233.678 0.170713 -2.00776 0
M  V30 2361 O 232.734 0.867768 -2.3712 0
M  V30 2362 C 234.047 -2.3332 -1.8969 0
M  V30 2363 C 235.595 -2.38664 -2.02505 0
M  V30 2364 C 236.07 -3.64157 -2.77765 0
M  V30 2365 N 237.561 -3.64894 -2.85318 0
M  V30 2366 C 238.296 -4.58679 -3.44094 0
M  V30 2367 N 237.792 -5.62799 -4.04017 0
M  V30 2368 N 239.585 -4.46245 -3.41793 0
M  V30 2369 H 231.736 -2.09598 -0.343883 0
M  V30 2370 H 233.999 -0.923333 -0.214848 0
M  V30 2371 H 233.705 -3.24262 -1.36187 0
M  V30 2372 H 233.579 -2.41025 -2.9015 0
M  V30 2373 H 235.966 -1.48208 -2.55183 0
M  V30 2374 H 236.047 -2.34943 -1.01171 0
M  V30 2375 H 235.691 -4.54965 -2.25763 0
M  V30 2376 H 235.621 -3.65137 -3.7945 0
M  V30 2377 H 238.112 -2.89613 -2.42761 0
M  V30 2378 H 238.425 -6.3048 -4.46895 0
M  V30 2379 H 236.77 -5.66605 -4.02472 0
M  V30 2380 H 239.961 -3.64094 -2.94199 0
M  V30 2381 H 240.134 -5.19518 -3.87304 0
M  V30 2382 N 233.54 1.10788 -1.12088 0
M  V30 2383 C 234.765 1.87002 -0.896949 0
M  V30 2384 C 235.19 1.79933 0.548261 0
M  V30 2385 O 234.548 1.16662 1.38779 0
M  V30 2386 C 234.596 3.3349 -1.37174 0
M  V30 2387 O 233.7 4.08745 -0.547831 0
M  V30 2388 H 233.041 0.580397 -0.322545 0
M  V30 2389 H 235.571 1.39996 -1.49206 0
M  V30 2390 H 235.581 3.84339 -1.36922 0
M  V30 2391 H 234.256 3.37951 -2.42408 0
M  V30 2392 H 232.833 3.6776 -0.617034 0
M  V30 2393 N 235.018 0.912232 1.28515 0
M  V30 2394 C 236.434 0.610159 1.47476 0
M  V30 2395 C 236.634 -0.844955 1.82928 0
M  V30 2396 O 235.69 -1.62416 1.93332 0
M  V30 2397 C 237.003 1.54675 2.57868 0
M  V30 2398 C 238.551 1.55331 2.71738 0
M  V30 2399 C 239.026 2.47649 3.85272 0
M  V30 2400 N 240.517 2.45767 3.92623 0
M  V30 2401 C 241.252 3.13896 4.79851 0
M  V30 2402 N 240.748 3.9135 5.71679 0
M  V30 2403 N 242.541 3.02991 4.73448 0
M  V30 2404 H 234.692 1.85318 1.03783 0
M  V30 2405 H 236.955 0.794777 0.516753 0
M  V30 2406 H 236.661 2.5841 2.38574 0
M  V30 2407 H 236.535 1.27671 3.54937 0
M  V30 2408 H 238.922 0.52335 2.90422 0
M  V30 2409 H 239.003 1.86378 1.75205 0
M  V30 2410 H 238.647 3.50745 3.67342 0
M  V30 2411 H 238.577 2.13904 4.81199 0
M  V30 2412 H 241.068 1.89503 3.26951 0
M  V30 2413 H 241.381 4.40359 6.35062 0
M  V30 2414 H 239.726 3.95455 5.71524 0
M  V30 2415 H 242.917 2.41987 4.007 0
M  V30 2416 H 243.09 3.5636 5.41213 0
M  V30 2417 N 236.496 -1.42363 0.676048 0
M  V30 2418 C 237.721 -2.06377 0.205705 0
M  V30 2419 C 238.146 -1.50463 -1.12883 0
M  V30 2420 O 237.504 -0.623619 -1.70237 0
M  V30 2421 C 237.552 -3.60277 0.152655 0
M  V30 2422 O 236.656 -4.02935 -0.87845 0
M  V30 2423 H 235.997 -0.655588 0.105359 0
M  V30 2424 H 238.527 -1.82475 0.925412 0
M  V30 2425 H 238.537 -4.07993 -0.0230675 0
M  V30 2426 H 237.212 -4.00346 1.12675 0
M  V30 2427 H 235.789 -3.66764 -0.673668 0
M  V30 2428 N 237.974 -0.419461 -1.51915 0
M  V30 2429 C 238.904 0.391813 -2.30189 0
M  V30 2430 C 239.885 1.03699 -1.34836 0
M  V30 2431 O 241.07 1.04403 -1.63748 0
M  V30 2432 C 238.2 1.50312 -3.13087 0
M  V30 2433 C 237.154 0.9824 -4.16573 0
M  V30 2434 C 236.48 2.18809 -4.8788 0
M  V30 2435 C 237.78 0.0292356 -5.22292 0
M  V30 2436 H 239.474 -0.26135 -2.98257 0
M  V30 2437 H 237.02 -0.127134 -1.43438 0
M  V30 2438 H 238.973 2.07773 -3.66617 0
M  V30 2439 H 237.697 2.18431 -2.42807 0
M  V30 2440 H 236.356 0.430119 -3.64068 0
M  V30 2441 H 236.004 2.85507 -4.14119 0
M  V30 2442 H 235.704 1.84615 -5.57845 0
M  V30 2443 H 237.228 2.76858 -5.44226 0
M  V30 2444 H 238.642 0.512976 -5.71 0
M  V30 2445 H 237.039 -0.2244 -5.9968 0
M  V30 2446 H 238.109 -0.912931 -4.76228 0
M  V30 2447 N 239.452 1.56882 -0.150215 0
M  V30 2448 C 240.677 2.01027 0.510184 0
M  V30 2449 C 241.102 1.02966 1.57415 0
M  V30 2450 O 240.46 0.00590158 1.81299 0
M  V30 2451 C 240.508 3.43899 1.08472 0
M  V30 2452 O 239.612 3.4885 2.19948 0
M  V30 2453 H 238.953 0.652233 0.124451 0
M  V30 2454 H 241.483 2.03093 -0.247894 0
M  V30 2455 H 241.493 3.82766 1.41259 0
M  V30 2456 H 240.168 4.14776 0.305582 0
M  V30 2457 H 238.745 3.21827 1.88366 0
M  V30 2458 N 240.93 -0.123565 1.57115 0
M  V30 2459 C 242.341 -0.681198 1.73829 0
M  V30 2460 C 242.692 -1.80535 0.768214 0
M  V30 2461 O 241.817 -2.16317 -0.0599103 0
M  V30 2462 C 242.412 -1.24246 3.15196 0
M  V30 2463 C 240.971 -1.74643 3.33432 0
M  V30 2464 C 240.118 -0.644284 2.69711 0
M  V30 2465 H 243.069 0.102315 1.5837 0
M  V30 2466 H 243.09 -2.11216 3.16493 0
M  V30 2467 H 242.602 -0.424062 3.85776 0
M  V30 2468 H 240.703 -2.58974 2.67886 0
M  V30 2469 H 240.816 -1.85902 4.41562 0
M  V30 2470 H 239.18 -1.07676 2.3082 0
M  V30 2471 H 239.963 0.163058 3.42913 0
M  V30 2472 N 242.408 -1.52605 -0.393616 0
M  V30 2473 C 243.656 -1.67093 -1.13685 0
M  V30 2474 C 243.977 -0.411011 -1.90619 0
M  V30 2475 O 243.247 0.574491 -1.87287 0
M  V30 2476 H 241.827 -0.615923 -0.422668 0
M  V30 2477 H 244.489 -1.89704 -0.447039 0
M  V30 2478 H 243.585 -2.51922 -1.84232 0
M  V30 2479 N 243.887 0.651787 -1.4349 0
M  V30 2480 C 245.303 0.96762 -1.26922 0
M  V30 2481 C 245.503 2.00602 -0.189982 0
M  V30 2482 O 244.559 2.48793 0.431107 0
M  V30 2483 C 245.872 1.45052 -2.63401 0
M  V30 2484 C 247.42 1.5671 -2.70945 0
M  V30 2485 C 247.895 2.0839 -4.07845 0
M  V30 2486 N 249.386 2.1569 -4.09917 0
M  V30 2487 C 250.121 2.56804 -5.12679 0
M  V30 2488 N 249.617 2.97203 -6.25813 0
M  V30 2489 N 251.41 2.56756 -5.00033 0
M  V30 2490 H 243.561 -0.0353158 -2.12371 0
M  V30 2491 H 245.824 0.0467858 -0.946845 0
M  V30 2492 H 245.53 0.761926 -3.43348 0
M  V30 2493 H 245.404 2.42529 -2.88894 0
M  V30 2494 H 247.791 2.2467 -1.9133 0
M  V30 2495 H 247.872 0.57662 -2.49216 0
M  V30 2496 H 247.516 1.41031 -4.87927 0
M  V30 2497 H 247.446 3.08271 -4.26938 0
M  V30 2498 H 249.937 1.87237 -3.28254 0
M  V30 2499 H 250.25 3.27328 -7.00055 0
M  V30 2500 H 248.595 2.95004 -6.29283 0
M  V30 2501 H 251.786 2.24572 -4.10713 0
M  V30 2502 H 251.959 2.88475 -5.80247 0
M  V30 2503 N 245.365 1.30045 0.890287 0
M  V30 2504 C 246.59 1.21598 1.68014 0
M  V30 2505 C 247.015 -0.218678 1.86825 0
M  V30 2506 O 246.373 -1.15756 1.39536 0
M  V30 2507 C 246.421 1.94434 3.03691 0
M  V30 2508 O 245.525 1.2678 3.92429 0
M  V30 2509 H 244.866 0.420856 0.513592 0
M  V30 2510 H 247.396 1.71775 1.11151 0
M  V30 2511 H 247.406 2.03251 3.5377 0
M  V30 2512 H 246.081 2.98777 2.89318 0
M  V30 2513 H 244.658 1.26282 3.50866 0
M  V30 2514 N 246.843 -1.10192 1.12674 0
M  V30 2515 C 248.254 -1.63707 0.897604 0
M  V30 2516 C 248.605 -1.87812 -0.567546 0
M  V30 2517 O 247.73 -1.62196 -1.43253 0
M  V30 2518 C 248.325 -2.974 1.62292 0
M  V30 2519 C 246.884 -3.47772 1.43986 0
M  V30 2520 C 246.031 -2.22332 1.65722 0
M  V30 2521 H 248.982 -0.936587 1.28116 0
M  V30 2522 H 249.003 -3.64986 1.07541 0
M  V30 2523 H 248.515 -2.79824 2.68924 0
M  V30 2524 H 246.616 -3.70487 0.396206 0
M  V30 2525 H 246.729 -4.25723 2.19765 0
M  V30 2526 H 245.093 -2.30599 1.08149 0
M  V30 2527 H 245.876 -2.07285 2.73657 0
M  V30 2528 N 248.321 -0.919034 -1.28029 0
M  V30 2529 C 249.546 -0.570357 -1.99403 0
M  V30 2530 C 249.971 0.842486 -1.68178 0
M  V30 2531 O 249.329 1.56391 -0.917141 0
M  V30 2532 C 249.377 -0.792541 -3.51783 0
M  V30 2533 O 248.481 0.145988 -4.12142 0
M  V30 2534 H 247.822 -0.220555 -0.6263 0
M  V30 2535 H 250.352 -1.23592 -1.63053 0
M  V30 2536 H 250.362 -0.704708 -4.01868 0
M  V30 2537 H 249.037 -1.82247 -3.73844 0
M  V30 2538 H 247.614 0.00897528 -3.72899 0
M  V30 2539 N 249.799 1.42003 -0.683588 0
M  V30 2540 C 251.024 2.06265 -0.216647 0
M  V30 2541 C 251.449 1.51059 1.12083 0
M  V30 2542 O 250.807 0.632638 1.69904 0
M  V30 2543 C 250.855 3.60191 -0.171759 0
M  V30 2544 O 249.959 4.03396 0.857069 0
M  V30 2545 H 249.3 0.65502 -0.108834 0
M  V30 2546 H 251.83 1.81982 -0.935077 0
M  V30 2547 H 251.84 4.08 0.0014303 0
M  V30 2548 H 250.515 3.99743 -1.14796 0
M  V30 2549 H 249.092 3.67117 0.654208 0
M  V30 2550 N 251.277 0.427512 1.51691 0
M  V30 2551 C 252.507 -0.140986 2.06118 0
M  V30 2552 C 252.915 -1.37854 1.29588 0
M  V30 2553 O 252.258 -1.80411 0.346036 0
M  V30 2554 C 252.32 -0.538276 3.55447 0
M  V30 2555 C 251.984 0.591095 4.53161 0
M  V30 2556 C 252.981 1.46027 4.98971 0
M  V30 2557 C 250.666 0.769028 4.96378 0
M  V30 2558 C 252.66 2.49216 5.8666 0
M  V30 2559 C 250.347 1.80421 5.83859 0
M  V30 2560 C 251.345 2.66417 6.28897 0
M  V30 2561 O 251.033 3.68159 7.14643 0
M  V30 2562 H 250.765 -0.0157455 0.675817 0
M  V30 2563 H 253.319 0.602495 1.96365 0
M  V30 2564 H 251.549 -1.33432 3.6295 0
M  V30 2565 H 253.238 -1.0368 3.92435 0
M  V30 2566 H 254.004 1.33429 4.66285 0
M  V30 2567 H 249.883 0.109273 4.6087 0
M  V30 2568 H 253.427 3.16372 6.21735 0
M  V30 2569 H 249.324 1.93042 6.15959 0
M  V30 2570 H 250.092 3.64622 7.32798 0
M  V30 2571 N 252.755 -1.56801 0.158532 0
M  V30 2572 C 254.032 -1.88131 -0.535357 0
M  V30 2573 C 254.412 -1.06638 -1.82186 0
M  V30 2574 O 253.76 -0.156533 -2.27963 0
M  V30 2575 C 253.97 -3.39949 -0.789653 0
M  V30 2576 C 255.318 -4.09416 -1.12533 0
M  V30 2577 O 256.342 -3.45194 -0.878622 0
M  V30 2578 O 255.201 -5.22855 -1.59014 0
M  V30 2579 H 252.295 -0.780143 -0.27442 0
M  V30 2580 H 254.841 -1.68564 0.19601 0
M  V30 2581 H 253.613 -3.91115 0.120353 0
M  V30 2582 H 253.236 -3.65084 -1.57479 0
M  V30 2583 N 254.233 0.115231 -1.57178 0
M  V30 2584 C 255.181 1.16014 -2.01602 0
M  V30 2585 C 256.175 1.42653 -0.913587 0
M  V30 2586 O 257.381 1.42571 -1.09879 0
M  V30 2587 H 253.756 0.391252 -0.642204 0
M  V30 2588 H 255.727 0.758998 -2.88586 0
M  V30 2589 C 254.476 2.47767 -2.4394 0
M  V30 2590 H 253.799 2.28108 -3.28339 0
M  V30 2591 H 255.239 3.19432 -2.78818 0
M  V30 2592 C 253.698 3.10617 -1.30455 0
M  V30 2593 O 254.228 3.96846 -0.622585 0
M  V30 2594 N 252.434 2.70553 -1.06064 0
M  V30 2595 H 251.981 2.00527 -1.61699 0
M  V30 2596 H 251.939 3.12934 -0.303284 0
M  V30 2597 N 255.711 1.52812 0.385517 0
M  V30 2598 C 256.621 1.80766 1.49535 0
M  V30 2599 C 257.637 0.694651 1.59532 0
M  V30 2600 O 258.813 0.982611 1.75803 0
M  V30 2601 C 255.878 1.97381 2.85029 0
M  V30 2602 C 254.939 3.21295 2.84724 0
M  V30 2603 C 254.172 3.37108 4.13756 0
M  V30 2604 O 254.395 2.5765 5.08893 0
M  V30 2605 O 253.329 4.30378 4.20783 0
M  V30 2606 H 257.155 2.75015 1.28842 0
M  V30 2607 H 254.74 1.37946 0.573697 0
M  V30 2608 H 256.622 2.09996 3.65349 0
M  V30 2609 H 255.297 1.06322 3.05741 0
M  V30 2610 H 254.204 3.1412 2.03174 0
M  V30 2611 H 255.537 4.12212 2.68965 0
M  V30 2612 N 257.189 -0.644168 1.43834 0
M  V30 2613 C 258.438 -1.39985 1.45214 0
M  V30 2614 C 258.751 -1.95421 0.0835494 0
M  V30 2615 O 259.957 -2.71488 -0.0251748 0
M  V30 2616 C 258.413 -2.53384 2.55587 0
M  V30 2617 C 258.021 -2.04517 3.98594 0
M  V30 2618 C 259.765 -3.30685 2.66172 0
M  V30 2619 C 257.672 -3.1518 5.00416 0
M  V30 2620 H 256.602 -0.526005 0.540218 0
M  V30 2621 H 259.253 -0.694367 1.69855 0
M  V30 2622 H 257.635 -3.26446 2.24163 0
M  V30 2623 H 258.809 -1.38405 4.39523 0
M  V30 2624 H 257.124 -1.40068 3.92135 0
M  V30 2625 H 259.721 -4.13158 3.39418 0
M  V30 2626 H 260.064 -3.79312 1.71546 0
M  V30 2627 H 260.597 -2.64708 2.96942 0
M  V30 2628 H 257.336 -2.71511 5.96625 0
M  V30 2629 H 256.856 -3.79974 4.64091 0
M  V30 2630 H 258.535 -3.80166 5.23529 0
M  V30 2631 N 258.668 -1.30515 -0.883378 0
M  V30 2632 C 259.914 -1.19607 -1.63774 0
M  V30 2633 C 260.247 0.248314 -1.92606 0
M  V30 2634 O 259.522 1.17742 -1.54813 0
M  V30 2635 C 259.805 -2.02669 -2.97653 0
M  V30 2636 C 259.658 -3.55335 -2.75784 0
M  V30 2637 C 260.977 -1.86573 -3.98596 0
M  V30 2638 H 258.096 -0.435856 -0.594305 0
M  V30 2639 H 260.738 -1.60165 -1.02212 0
M  V30 2640 H 258.888 -1.68208 -3.50197 0
M  V30 2641 H 260.56 -3.99863 -2.30016 0
M  V30 2642 H 258.803 -3.79438 -2.1026 0
M  V30 2643 H 259.474 -4.08745 -3.70988 0
M  V30 2644 H 261.95 -2.16703 -3.55217 0
M  V30 2645 H 260.826 -2.47014 -4.90179 0
M  V30 2646 H 261.087 -0.825321 -4.34328 0
M  V30 2647 N 260.146 1.09593 -1.13257 0
M  V30 2648 C 261.079 2.15451 -0.752061 0
M  V30 2649 C 262.057 1.60493 0.260913 0
M  V30 2650 O 263.241 1.8788 0.152819 0
M  V30 2651 C 260.368 3.38506 -0.114594 0
M  V30 2652 C 259.414 4.12183 -1.09579 0
M  V30 2653 S 260.247 4.6661 -2.62745 0
M  V30 2654 C 261.403 5.92966 -2.00354 0
M  V30 2655 H 261.636 2.47395 -1.64872 0
M  V30 2656 H 259.169 1.21515 -0.952545 0
M  V30 2657 H 261.127 4.09757 0.246808 0
M  V30 2658 H 259.788 3.04784 0.759309 0
M  V30 2659 H 258.981 5.00445 -0.597545 0
M  V30 2660 H 258.583 3.46785 -1.40057 0
M  V30 2661 H 260.875 6.63882 -1.35156 0
M  V30 2662 H 261.818 6.47467 -2.86691 0
M  V30 2663 H 262.226 5.45405 -1.4558 0
M  V30 2664 N 261.624 0.925811 1.2754 0
M  V30 2665 C 262.557 0.367836 2.25216 0
M  V30 2666 C 263.535 -0.534738 1.53556 0
M  V30 2667 O 264.719 -0.475672 1.824 0
M  V30 2668 C 261.846 -0.47298 3.35381 0
M  V30 2669 C 260.892 0.365898 4.24928 0
M  V30 2670 S 261.725 1.78025 5.05042 0
M  V30 2671 C 262.881 0.947068 6.18693 0
M  V30 2672 H 263.114 1.19568 2.72196 0
M  V30 2673 H 260.647 0.727867 1.36167 0
M  V30 2674 H 262.605 -0.952242 3.99303 0
M  V30 2675 H 261.266 -1.27533 2.87044 0
M  V30 2676 H 260.459 -0.277582 5.03235 0
M  V30 2677 H 260.061 0.779261 3.65792 0
M  V30 2678 H 262.353 0.182201 6.77255 0
M  V30 2679 H 263.296 1.70309 6.87314 0
M  V30 2680 H 263.704 0.489913 5.6237 0
M  V30 2681 N 263.102 -1.41638 0.69111 0
M  V30 2682 C 264.05 -2.32597 0.0115199 0
M  V30 2683 C 265.044 -1.5072 -0.773296 0
M  V30 2684 O 266.25 -1.66685 -0.67942 0
M  V30 2685 H 262.625 -0.751849 -0.0150746 0
M  V30 2686 H 264.596 -2.87593 0.795791 0
M  V30 2687 C 263.345 -3.35467 -0.914172 0
M  V30 2688 H 262.668 -3.9852 -0.319687 0
M  V30 2689 H 264.108 -4.01662 -1.35808 0
M  V30 2690 C 262.567 -2.69004 -2.02826 0
M  V30 2691 O 263.097 -2.53444 -3.11655 0
M  V30 2692 N 261.303 -2.2777 -1.80469 0
M  V30 2693 H 260.85 -2.40626 -0.919615 0
M  V30 2694 H 260.808 -1.83635 -2.55197 0
M  V30 2695 N 264.58 -0.43555 -1.51462 0
M  V30 2696 C 265.53 0.394701 -2.24558 0
M  V30 2697 C 266.514 0.99157 -1.26715 0
M  V30 2698 O 267.706 0.910007 -1.51815 0
M  V30 2699 C 264.835 1.4963 -3.08975 0
M  V30 2700 C 263.921 0.908912 -4.14246 0
M  V30 2701 N 264.312 0.0505335 -5.05775 0
M  V30 2702 C 262.61 1.17668 -4.30198 0
M  V30 2703 C 263.311 -0.279161 -5.8103 0
M  V30 2704 N 262.287 0.336767 -5.42556 0
M  V30 2705 H 266.089 -0.267106 -2.92684 0
M  V30 2706 H 263.603 -0.247518 -1.60503 0
M  V30 2707 H 265.6 2.10394 -3.59917 0
M  V30 2708 H 264.26 2.16046 -2.42393 0
M  V30 2709 H 265.271 -0.31577 -5.16936 0
M  V30 2710 H 261.948 1.83847 -3.74842 0
M  V30 2711 H 263.338 -0.977553 -6.64751 0
M  V30 2712 N 266.058 1.56714 -0.166846 0
M  V30 2713 C 267.304 1.97039 0.479962 0
M  V30 2714 C 267.637 1.05264 1.63197 0
M  V30 2715 O 266.912 0.0988833 1.94248 0
M  V30 2716 C 267.195 3.46867 0.967212 0
M  V30 2717 C 267.048 4.49421 -0.18466 0
M  V30 2718 C 268.367 3.9968 1.84238 0
M  V30 2719 H 265.486 0.71641 0.172992 0
M  V30 2720 H 268.128 1.8832 -0.252079 0
M  V30 2721 H 266.278 3.54428 1.59101 0
M  V30 2722 H 267.95 4.53924 -0.821621 0
M  V30 2723 H 266.193 4.25573 -0.840837 0
M  V30 2724 H 266.864 5.51644 0.198317 0
M  V30 2725 H 269.34 3.94723 1.31655 0
M  V30 2726 H 268.216 5.04941 2.15234 0
M  V30 2727 H 268.477 3.43226 2.78654 0
M  V30 2728 N 267.536 -0.106894 1.57237 0
M  V30 2729 C 268.766 -0.825191 1.89405 0
M  V30 2730 C 269.174 -1.73374 0.757496 0
M  V30 2731 O 268.517 -1.81552 -0.280115 0
M  V30 2732 C 268.579 -1.70102 3.1671 0
M  V30 2733 C 268.243 -0.965523 4.46684 0
M  V30 2734 C 269.24 -0.300741 5.19029 0
M  V30 2735 C 266.925 -0.943105 4.93367 0
M  V30 2736 C 268.919 0.376622 6.36286 0
M  V30 2737 C 266.606 -0.261949 6.10538 0
M  V30 2738 C 267.604 0.396748 6.81847 0
M  V30 2739 O 267.292 1.06701 7.96787 0
M  V30 2740 H 267.024 -0.241852 0.631255 0
M  V30 2741 H 269.578 -0.0921491 2.05193 0
M  V30 2742 H 267.808 -2.47601 2.97036 0
M  V30 2743 H 269.497 -2.29483 3.34802 0
M  V30 2744 H 270.263 -0.309599 4.84011 0
M  V30 2745 H 266.142 -1.44524 4.3776 0
M  V30 2746 H 269.686 0.891334 6.91882 0
M  V30 2747 H 265.583 -0.250896 6.45012 0
M  V30 2748 H 266.351 0.972707 8.127 0
M  V30 2749 N 269.014 -1.53014 -0.377408 0
M  V30 2750 C 269.961 -1.78616 -1.46168 0
M  V30 2751 C 270.931 -0.629917 -1.53692 0
M  V30 2752 O 272.116 -0.870861 -1.69766 0
M  V30 2753 C 269.256 -1.97123 -2.8326 0
M  V30 2754 C 268.369 -3.24831 -2.84796 0
M  V30 2755 C 267.504 -3.33591 -4.13389 0
M  V30 2756 C 266.543 -4.55377 -4.09021 0
M  V30 2757 N 265.68 -4.61355 -5.29241 0
M  V30 2758 H 270.52 -2.71142 -1.23637 0
M  V30 2759 H 268.057 -1.34326 -0.599577 0
M  V30 2760 H 270.015 -2.05839 -3.62886 0
M  V30 2761 H 268.645 -1.07946 -3.04216 0
M  V30 2762 H 267.697 -3.25128 -1.97474 0
M  V30 2763 H 269.009 -4.14523 -2.77439 0
M  V30 2764 H 268.163 -3.41554 -5.01424 0
M  V30 2765 H 266.902 -2.41894 -4.23484 0
M  V30 2766 H 265.907 -4.47527 -3.19373 0
M  V30 2767 H 267.132 -5.48402 -4.00539 0
M  V30 2768 H 265.078 -3.72554 -5.39944 0
M  V30 2769 H 264.995 -5.44935 -5.24006 0
M  V30 2770 H 266.263 -4.73586 -6.19141 0
M  V30 2771 N 270.492 0.636531 -1.44174 0
M  V30 2772 C 271.402 1.77754 -1.53103 0
M  V30 2773 C 272.418 1.68928 -0.417034 0
M  V30 2774 O 273.594 1.89801 -0.6736 0
M  V30 2775 C 270.659 3.14115 -1.46741 0
M  V30 2776 C 269.72 3.34612 -2.68948 0
M  V30 2777 C 268.953 4.64467 -2.6288 0
M  V30 2778 O 269.176 5.44919 -1.68581 0
M  V30 2779 O 268.11 4.87049 -3.53648 0
M  V30 2780 H 271.936 1.73174 -2.49489 0
M  V30 2781 H 269.521 0.79709 -1.2636 0
M  V30 2782 H 271.403 3.95412 -1.45696 0
M  V30 2783 H 270.078 3.19249 -0.534975 0
M  V30 2784 H 268.985 2.53014 -2.75562 0
M  V30 2785 H 270.318 3.34336 -3.61221 0
M  V30 2786 N 271.97 1.30982 0.876444 0
M  V30 2787 C 273.386 1.09498 1.16113 0
M  V30 2788 C 273.586 -0.13875 2.01022 0
M  V30 2789 O 272.642 -0.829935 2.38471 0
M  V30 2790 C 273.955 2.36308 1.85954 0
M  V30 2791 C 275.503 2.41856 1.98683 0
M  V30 2792 C 275.978 3.6853 2.71937 0
M  V30 2793 N 277.469 3.69387 2.79477 0
M  V30 2794 C 278.204 4.64096 3.36753 0
M  V30 2795 N 277.7 5.69155 3.95012 0
M  V30 2796 N 279.493 4.51626 3.3465 0
M  V30 2797 H 271.644 2.10118 0.310494 0
M  V30 2798 H 273.907 0.926634 0.200131 0
M  V30 2799 H 273.613 3.26388 1.31011 0
M  V30 2800 H 273.487 2.4561 2.86278 0
M  V30 2801 H 275.874 1.52249 2.52793 0
M  V30 2802 H 275.955 2.36523 0.9742 0
M  V30 2803 H 275.599 4.58499 2.18496 0
M  V30 2804 H 275.529 3.71127 3.73593 0
M  V30 2805 H 278.02 2.93438 2.38123 0
M  V30 2806 H 278.333 6.3751 4.36808 0
M  V30 2807 H 276.678 5.72937 3.93406 0
M  V30 2808 H 279.869 3.68728 2.8837 0
M  V30 2809 H 280.042 5.25614 3.7899 0
M  V30 2810 N 273.449 -1.08991 1.13837 0
M  V30 2811 C 274.696 -1.81258 0.902882 0
M  V30 2812 C 275.024 -1.85936 -0.570803 0
M  V30 2813 O 274.279 -1.3267 -1.43865 0
M  V30 2814 C 274.578 -3.27042 1.44147 0
M  V30 2815 C 274.244 -3.4249 2.93276 0
M  V30 2816 C 272.906 -3.46414 3.33992 0
M  V30 2817 C 275.258 -3.4666 3.892 0
M  V30 2818 C 272.586 -3.52091 4.69307 0
M  V30 2819 C 274.938 -3.53872 5.24364 0
M  V30 2820 C 273.602 -3.56066 5.646 0
M  V30 2821 H 272.872 -0.663268 0.330388 0
M  V30 2822 H 275.519 -1.28368 1.42105 0
M  V30 2823 H 273.824 -3.82599 0.844097 0
M  V30 2824 H 275.521 -3.81499 1.23528 0
M  V30 2825 H 272.111 -3.40124 2.60794 0
M  V30 2826 H 276.295 -3.42865 3.58828 0
M  V30 2827 H 271.551 -3.52079 4.9985 0
M  V30 2828 H 275.725 -3.56043 5.98503 0
M  V30 2829 H 273.352 -3.60218 6.69438 0
M  V30 2830 N 274.927 -0.932562 -1.27047 0
M  V30 2831 C 276.338 -0.619451 -1.76124 0
M  V30 2832 C 276.689 0.865397 -1.76083 0
M  V30 2833 O 275.814 1.67722 -1.36742 0
M  V30 2834 C 276.409 -1.11771 -3.19832 0
M  V30 2835 C 274.968 -0.855174 -3.66557 0
M  V30 2836 C 274.115 -1.27362 -2.46321 0
M  V30 2837 H 277.066 -1.11181 -1.13245 0
M  V30 2838 H 277.087 -0.46759 -3.77616 0
M  V30 2839 H 276.599 -2.19842 -3.1983 0
M  V30 2840 H 274.7 0.211524 -3.71999 0
M  V30 2841 H 274.813 -1.47613 -4.55793 0
M  V30 2842 H 273.177 -0.692119 -2.45116 0
M  V30 2843 H 273.96 -2.36307 -2.49025 0
M  V30 2844 N 276.405 1.4127 -0.698611 0
M  V30 2845 C 277.352 2.30773 -0.0352094 0
M  V30 2846 C 278.322 1.47273 0.768111 0
M  V30 2847 O 279.507 1.76053 0.735524 0
M  V30 2848 C 276.647 3.33346 0.893 0
M  V30 2849 C 275.76 4.31924 0.0809695 0
M  V30 2850 C 274.895 5.21566 1.0071 0
M  V30 2851 C 273.934 6.11811 0.188155 0
M  V30 2852 N 273.071 6.93926 1.06825 0
M  V30 2853 H 277.911 2.86943 -0.804207 0
M  V30 2854 H 275.448 1.4132 -0.408294 0
M  V30 2855 H 277.406 3.91368 1.44523 0
M  V30 2856 H 276.036 2.78719 1.62836 0
M  V30 2857 H 275.088 3.75825 -0.588224 0
M  V30 2858 H 276.4 4.95716 -0.553801 0
M  V30 2859 H 275.554 5.84437 1.62845 0
M  V30 2860 H 274.293 4.58008 1.67572 0
M  V30 2861 H 273.298 5.47986 -0.446254 0
M  V30 2862 H 274.523 6.77425 -0.476716 0
M  V30 2863 H 272.469 6.32973 1.72283 0
M  V30 2864 H 272.386 7.54416 0.489123 0
M  V30 2865 H 273.654 7.61262 1.67632 0
M  V30 2866 N 277.883 0.443576 1.51229 0
M  V30 2867 C 278.846 -0.353132 2.26463 0
M  V30 2868 C 279.846 -0.944338 1.3015 0
M  V30 2869 O 281.036 -0.817813 1.5381 0
M  V30 2870 C 278.168 -1.50023 3.06114 0
M  V30 2871 H 279.361 0.3063 2.98332 0
M  V30 2872 H 276.914 0.196902 1.55055 0
M  V30 2873 H 277.649 -2.19553 2.38677 0
M  V30 2874 H 277.434 -1.08241 3.76864 0
M  V30 2875 H 278.924 -2.06296 3.63087 0
M  V30 2876 N 279.361 -1.56624 0.175154 0
M  V30 2877 C 280.589 -2.01374 -0.474971 0
M  V30 2878 C 281.004 -1.05537 -1.56548 0
M  V30 2879 O 280.361 -0.0568668 -1.82411 0
M  V30 2880 C 280.412 -3.45923 -1.04975 0
M  V30 2881 O 280.133 -4.381 -0.00276605 0
M  V30 2882 C 281.634 -4.06093 -1.77773 0
M  V30 2883 H 278.854 -0.659962 -0.121206 0
M  V30 2884 H 281.398 -2.02601 0.27801 0
M  V30 2885 H 279.553 -3.45458 -1.75321 0
M  V30 2886 H 279.967 -5.22753 -0.427681 0
M  V30 2887 H 281.441 -5.09147 -2.13245 0
M  V30 2888 H 281.918 -3.48405 -2.67414 0
M  V30 2889 H 282.524 -4.10272 -1.12059 0
M  V30 2890 N 280.839 0.0985539 -1.57292 0
M  V30 2891 C 281.802 1.10402 -2.00858 0
M  V30 2892 C 282.802 1.33146 -0.901593 0
M  V30 2893 O 283.992 1.29318 -1.16716 0
M  V30 2894 C 281.124 2.45394 -2.36632 0
M  V30 2895 H 282.317 0.729099 -2.90902 0
M  V30 2896 H 279.87 0.343495 -1.52479 0
M  V30 2897 H 280.605 2.87769 -1.49531 0
M  V30 2898 H 280.39 2.30235 -3.17387 0
M  V30 2899 H 281.88 3.17718 -2.71007 0
M  V30 2900 N 282.317 1.53212 0.369288 0
M  V30 2901 C 283.249 1.75668 1.47219 0
M  V30 2902 C 284.262 0.637387 1.49804 0
M  V30 2903 O 285.451 0.913561 1.5335 0
M  V30 2904 C 282.551 1.81818 2.85999 0
M  V30 2905 C 281.724 3.11409 3.07153 0
M  V30 2906 C 280.783 3.08849 4.26026 0
M  V30 2907 O 279.809 3.82659 4.2138 0
M  V30 2908 N 281.011 2.29409 5.33246 0
M  V30 2909 H 283.776 2.70832 1.28337 0
M  V30 2910 H 281.337 1.51944 0.55898 0
M  V30 2911 H 283.329 1.77588 3.63655 0
M  V30 2912 H 281.899 0.939544 2.98146 0
M  V30 2913 H 281.119 3.28971 2.1719 0
M  V30 2914 H 282.407 3.97059 3.18154 0
M  V30 2915 H 281.805 1.68946 5.39883 0
M  V30 2916 H 280.362 2.31001 6.09493 0
M  V30 2917 N 283.795 -0.628877 1.44509 0
M  V30 2918 C 284.728 -1.75367 1.46019 0
M  V30 2919 C 285.706 -1.59444 0.318787 0
M  V30 2920 O 286.89 -1.81297 0.516099 0
M  V30 2921 C 284.017 -3.12965 1.29501 0
M  V30 2922 C 283.063 -3.47532 2.47233 0
M  V30 2923 S 283.896 -3.44758 4.09758 0
M  V30 2924 C 285.052 -4.84973 3.95667 0
M  V30 2925 H 285.285 -1.7382 2.41193 0
M  V30 2926 H 282.818 -0.803686 1.31834 0
M  V30 2927 H 284.776 -3.92367 1.20658 0
M  V30 2928 H 283.437 -3.12049 0.358341 0
M  V30 2929 H 282.63 -4.47664 2.31544 0
M  V30 2930 H 282.232 -2.75598 2.52828 0
M  V30 2931 H 284.524 -5.74255 3.59496 0
M  V30 2932 H 285.467 -5.05716 4.95638 0
M  V30 2933 H 285.875 -4.59653 3.27688 0
M  V30 2934 N 285.273 -1.31445 -0.869486 0
M  V30 2935 C 286.183 -1.21097 -2.0093 0
M  V30 2936 C 287.199 -0.127584 -1.73532 0
M  V30 2937 O 288.375 -0.345477 -1.98415 0
M  V30 2938 C 285.44 -0.919378 -3.34288 0
M  V30 2939 C 284.501 -2.08971 -3.75006 0
M  V30 2940 C 283.734 -1.81194 -5.02001 0
M  V30 2941 O 283.957 -0.747296 -5.65484 0
M  V30 2942 O 282.891 -2.66883 -5.39497 0
M  V30 2943 H 286.717 -2.16883 -2.12592 0
M  V30 2944 H 284.302 -1.11189 -0.997868 0
M  V30 2945 H 286.184 -0.772625 -4.14257 0
M  V30 2946 H 284.859 0.00844772 -3.23699 0
M  V30 2947 H 283.766 -2.29187 -2.95676 0
M  V30 2948 H 285.099 -2.9998 -3.90221 0
M  V30 2949 N 286.751 1.08385 -1.14413 0
M  V30 2950 C 287.661 2.18856 -0.844951 0
M  V30 2951 C 288.677 1.73121 0.174668 0
M  V30 2952 O 289.853 2.014 0.00312857 0
M  V30 2953 C 286.918 3.45155 -0.32696 0
M  V30 2954 C 285.979 4.05513 -1.40916 0
M  V30 2955 C 285.212 5.25784 -0.915793 0
M  V30 2956 O 285.435 5.69884 0.242651 0
M  V30 2957 O 284.369 5.77545 -1.69487 0
M  V30 2958 H 288.195 2.46919 -1.76818 0
M  V30 2959 H 285.78 1.17524 -0.922411 0
M  V30 2960 H 287.662 4.21377 -0.0440211 0
M  V30 2961 H 286.337 3.18668 0.568539 0
M  V30 2962 H 285.244 3.30879 -1.74556 0
M  V30 2963 H 286.577 4.3625 -2.27919 0
M  V30 2964 N 288.23 0.939286 1.26551 0
M  V30 2965 C 289.177 0.446088 2.26448 0
M  V30 2966 C 290.147 -0.493234 1.58608 0
M  V30 2967 O 291.332 -0.409857 1.86346 0
M  V30 2968 C 288.472 -0.284375 3.43926 0
M  V30 2969 C 287.585 0.690399 4.26448 0
M  V30 2970 C 286.72 -0.0610712 5.31165 0
M  V30 2971 C 285.759 0.905649 6.05363 0
M  V30 2972 N 284.896 0.186055 7.01853 0
M  V30 2973 H 289.736 1.30291 2.68008 0
M  V30 2974 H 287.273 0.65371 1.31776 0
M  V30 2975 H 289.231 -0.724313 4.10864 0
M  V30 2976 H 287.861 -1.10535 3.03285 0
M  V30 2977 H 286.913 1.24885 3.59316 0
M  V30 2978 H 288.225 1.42873 4.779 0
M  V30 2979 H 287.379 -0.56038 6.04106 0
M  V30 2980 H 286.118 -0.832297 4.80546 0
M  V30 2981 H 285.123 1.4161 5.3125 0
M  V30 2982 H 286.348 1.67685 6.58072 0
M  V30 2983 H 284.294 -0.566714 6.53548 0
M  V30 2984 H 284.211 0.863752 7.51049 0
M  V30 2985 H 285.479 -0.292221 7.78952 0
M  V30 2986 N 289.708 -1.40897 0.706093 0
M  V30 2987 C 290.638 -2.33418 0.0620085 0
M  V30 2988 C 291.619 -1.52385 -0.755827 0
M  V30 2989 O 292.804 -1.80886 -0.706674 0
M  V30 2990 C 289.934 -3.36293 -0.867445 0
M  V30 2991 C 288.888 -4.27716 -0.155932 0
M  V30 2992 C 288.214 -5.2105 -1.20046 0
M  V30 2993 C 289.514 -5.12944 0.984149 0
M  V30 2994 H 291.208 -2.87527 0.83477 0
M  V30 2995 H 288.754 -1.38249 0.402875 0
M  V30 2996 H 290.707 -3.99949 -1.32735 0
M  V30 2997 H 289.431 -2.80556 -1.67199 0
M  V30 2998 H 288.09 -3.65498 0.284047 0
M  V30 2999 H 287.738 -4.61624 -1.99781 0
M  V30 3000 H 287.438 -5.83056 -0.729328 0
M  V30 3001 H 288.962 -5.87584 -1.66066 0
M  V30 3002 H 290.376 -5.70109 0.604048 0
M  V30 3003 H 288.773 -5.83945 1.38304 0
M  V30 3004 H 289.843 -4.49485 1.81911 0
M  V30 3005 N 291.186 -0.45159 -1.50991 0
M  V30 3006 C 292.602 -0.104647 -1.59257 0
M  V30 3007 C 292.802 1.38728 -1.4614 0
M  V30 3008 O 291.858 2.15866 -1.30989 0
M  V30 3009 C 293.171 -0.637468 -2.93865 0
M  V30 3010 C 294.719 -0.599166 -3.07212 0
M  V30 3011 C 295.194 -1.1092 -4.44366 0
M  V30 3012 N 296.685 -1.06778 -4.50725 0
M  V30 3013 C 297.42 -1.43314 -5.55201 0
M  V30 3014 N 296.916 -1.87204 -6.67028 0
M  V30 3015 N 298.709 -1.3504 -5.45638 0
M  V30 3016 H 290.86 -1.42214 -1.57762 0
M  V30 3017 H 293.123 -0.586921 -0.744465 0
M  V30 3018 H 292.829 -1.68187 -3.08879 0
M  V30 3019 H 292.703 -0.0702139 -3.77135 0
M  V30 3020 H 295.09 0.436277 -2.91857 0
M  V30 3021 H 295.171 -1.20299 -2.25747 0
M  V30 3022 H 294.815 -2.14318 -4.60467 0
M  V30 3023 H 294.745 -0.481773 -5.24392 0
M  V30 3024 H 297.236 -0.745643 -3.70471 0
M  V30 3025 H 297.549 -2.13282 -7.42786 0
M  V30 3026 H 295.894 -1.91142 -6.68199 0
M  V30 3027 H 299.085 -1.00607 -4.57161 0
M  V30 3028 H 299.258 -1.63841 -6.26945 0
M  V30 3029 N 292.664 1.56529 -0.183458 0
M  V30 3030 C 293.941 1.88959 0.50536 0
M  V30 3031 C 294.321 1.09523 1.80466 0
M  V30 3032 O 293.669 0.19278 2.27685 0
M  V30 3033 C 293.879 3.41162 0.73547 0
M  V30 3034 C 295.227 4.11155 1.06005 0
M  V30 3035 O 296.251 3.46548 0.823594 0
M  V30 3036 O 295.11 5.25318 1.50675 0
M  V30 3037 H 292.204 0.78441 0.261973 0
M  V30 3038 H 294.75 1.68231 -0.222802 0
M  V30 3039 H 293.522 3.90874 -0.182561 0
M  V30 3040 H 293.145 3.67543 1.51651 0
M  V30 3041 N 294.142 -0.090211 1.57342 0
M  V30 3042 C 295.389 -0.792807 1.86335 0
M  V30 3043 C 295.717 -1.78494 0.772662 0
M  V30 3044 O 294.972 -1.94305 -0.233258 0
M  V30 3045 C 295.271 -1.55222 3.21933 0
M  V30 3046 C 294.937 -0.701765 4.45406 0
M  V30 3047 C 293.599 -0.467334 4.78925 0
M  V30 3048 C 295.951 -0.11086 5.21082 0
M  V30 3049 C 293.279 0.367785 5.85546 0
M  V30 3050 C 295.631 0.711609 6.28585 0
M  V30 3051 C 294.295 0.956086 6.60617 0
M  V30 3052 H 293.565 -0.290109 0.681849 0
M  V30 3053 H 296.212 -0.0541332 1.91423 0
M  V30 3054 H 294.517 -2.3626 3.12551 0
M  V30 3055 H 296.214 -2.10032 3.41595 0
M  V30 3056 H 292.804 -0.894598 4.1916 0
M  V30 3057 H 296.988 -0.279129 4.95514 0
M  V30 3058 H 292.244 0.566128 6.08773 0
M  V30 3059 H 296.418 1.17632 6.86393 0
M  V30 3060 H 294.045 1.60499 7.43064 0
M  V30 3061 N 295.62 -1.53406 -0.361157 0
M  V30 3062 C 296.848 -1.73717 -1.12383 0
M  V30 3063 C 297.263 -0.468161 -1.82904 0
M  V30 3064 O 296.62 0.559198 -1.73722 0
M  V30 3065 C 296.671 -2.90558 -2.15078 0
M  V30 3066 O 296.392 -4.12549 -1.47428 0
M  V30 3067 C 297.893 -3.22777 -3.03858 0
M  V30 3068 H 295.113 -0.580896 -0.335858 0
M  V30 3069 H 297.657 -2.00167 -0.418728 0
M  V30 3070 H 295.812 -2.66489 -2.8118 0
M  V30 3071 H 296.226 -4.78009 -2.15887 0
M  V30 3072 H 297.7 -4.07927 -3.71887 0
M  V30 3073 H 298.177 -2.38329 -3.68912 0
M  V30 3074 H 298.783 -3.48787 -2.43367 0
M  V30 3075 N 297.098 0.621204 -1.44841 0
M  V30 3076 C 298.514 0.94048 -1.28946 0
M  V30 3077 C 298.714 2.00154 -0.23249 0
M  V30 3078 O 297.77 2.49651 0.378237 0
M  V30 3079 C 299.083 1.39433 -2.66419 0
M  V30 3080 C 300.631 1.50927 -2.74208 0
M  V30 3081 C 301.106 1.99692 -4.12174 0
M  V30 3082 N 302.597 2.06947 -4.144 0
M  V30 3083 C 303.332 2.45871 -5.1801 0
M  V30 3084 N 302.828 2.83862 -6.31977 0
M  V30 3085 N 304.621 2.46092 -5.05366 0
M  V30 3086 H 296.772 -0.0803548 -2.12248 0
M  V30 3087 H 299.035 0.0266913 -0.947624 0
M  V30 3088 H 298.741 0.688925 -3.44887 0
M  V30 3089 H 298.615 2.36347 -2.93973 0
M  V30 3090 H 301.002 2.20561 -1.96053 0
M  V30 3091 H 301.083 0.523627 -2.50383 0
M  V30 3092 H 300.727 1.30649 -4.90809 0
M  V30 3093 H 300.657 2.99146 -4.33381 0
M  V30 3094 H 303.148 1.80232 -3.32152 0
M  V30 3095 H 303.461 3.12405 -7.0684 0
M  V30 3096 H 301.806 2.8159 -6.35399 0
M  V30 3097 H 304.997 2.1581 -4.15384 0
M  V30 3098 H 305.17 2.76102 -5.86235 0
M  V30 3099 N 298.576 1.31904 0.862503 0
M  V30 3100 C 299.539 1.20131 1.95195 0
M  V30 3101 C 300.539 0.126409 1.60302 0
M  V30 3102 O 301.729 0.376234 1.70089 0
M  V30 3103 C 298.861 0.845691 3.30244 0
M  V30 3104 H 300.054 2.16943 2.07064 0
M  V30 3105 H 297.607 1.15622 1.05172 0
M  V30 3106 H 298.342 -0.120957 3.24074 0
M  V30 3107 H 298.127 1.62276 3.56944 0
M  V30 3108 H 299.617 0.787418 4.10109 0
M  V30 3109 N 300.054 -1.07777 1.14986 0
M  V30 3110 C 301.284 -1.83752 0.944402 0
M  V30 3111 C 301.692 -1.8218 -0.51058 0
M  V30 3112 O 301.035 -1.22852 -1.36576 0
M  V30 3113 C 301.097 -3.32128 1.37592 0
M  V30 3114 C 300.761 -3.57425 2.84775 0
M  V30 3115 C 301.758 -3.5173 3.8286 0
M  V30 3116 C 299.443 -3.8523 3.2234 0
M  V30 3117 C 301.437 -3.73482 5.16517 0
M  V30 3118 C 299.124 -4.06634 4.56171 0
M  V30 3119 C 300.122 -4.00754 5.53069 0
M  V30 3120 O 299.81 -4.2159 6.84483 0
M  V30 3121 H 299.542 -0.58673 0.335744 0
M  V30 3122 H 302.096 -1.36982 1.53052 0
M  V30 3123 H 300.326 -3.79686 0.733165 0
M  V30 3124 H 302.015 -3.89555 1.14024 0
M  V30 3125 H 302.781 -3.30256 3.55184 0
M  V30 3126 H 298.66 -3.88923 2.47508 0
M  V30 3127 H 302.204 -3.68808 5.92137 0
M  V30 3128 H 298.101 -4.27593 4.83564 0
M  V30 3129 H 298.869 -4.38961 6.90837 0
M  V30 3130 N 301.532 -0.945985 -1.26051 0
M  V30 3131 C 302.442 -0.465633 -2.29933 0
M  V30 3132 C 303.458 0.462761 -1.67733 0
M  V30 3133 O 304.634 0.341118 -1.9849 0
M  V30 3134 C 301.699 0.256994 -3.45746 0
M  V30 3135 C 300.76 -0.708549 -4.23412 0
M  V30 3136 C 299.993 -0.0203135 -5.33696 0
M  V30 3137 O 300.216 1.19571 -5.57726 0
M  V30 3138 O 299.15 -0.701459 -5.97799 0
M  V30 3139 H 302.976 -1.32866 -2.73094 0
M  V30 3140 H 300.561 -0.712071 -1.31339 0
M  V30 3141 H 302.443 0.663852 -4.16138 0
M  V30 3142 H 301.118 1.09533 -3.04605 0
M  V30 3143 H 300.025 -1.16545 -3.55483 0
M  V30 3144 H 301.358 -1.51465 -4.68315 0
M  V30 3145 N 303.011 1.40521 -0.713556 0
M  V30 3146 C 304.422 1.83853 -0.324807 0
M  V30 3147 C 304.773 1.59667 1.14021 0
M  V30 3148 O 303.898 1.07649 1.87725 0
M  V30 3149 C 304.493 3.33751 -0.582746 0
M  V30 3150 C 303.052 3.75584 -0.247727 0
M  V30 3151 C 302.199 2.63753 -0.856121 0
M  V30 3152 H 305.15 1.29817 -0.91286 0
M  V30 3153 H 305.171 3.80194 0.152682 0
M  V30 3154 H 304.683 3.51322 -1.64908 0
M  V30 3155 H 302.784 3.63608 0.813624 0
M  V30 3156 H 302.897 4.7373 -0.715307 0
M  V30 3157 H 301.261 2.53108 -0.28432 0
M  V30 3158 H 302.044 2.84137 -1.92668 0
M  V30 3159 N 304.489 0.459591 1.5075 0
M  V30 3160 C 305.766 -0.160371 1.94941 0
M  V30 3161 C 306.146 -1.58048 1.39943 0
M  V30 3162 O 305.494 -2.206 0.595629 0
M  V30 3163 C 305.704 -0.115432 3.48809 0
M  V30 3164 C 307.052 -0.310026 4.23467 0
M  V30 3165 O 308.076 -0.192543 3.55679 0
M  V30 3166 O 306.935 -0.546031 5.43765 0
M  V30 3167 H 304.029 -0.117925 0.818549 0
M  V30 3168 H 306.575 0.519169 1.61563 0
M  V30 3169 H 305.347 0.87652 3.81357 0
M  V30 3170 H 304.97 -0.836928 3.88692 0
M  V30 3171 N 305.967 -1.56429 0.191757 0
M  V30 3172 C 307.192 -2.02309 -0.456706 0
M  V30 3173 C 307.617 -1.07103 -1.5463 0
M  V30 3174 O 306.975 -0.0539677 -1.8122 0
M  V30 3175 C 307.023 -3.46654 -0.993159 0
M  V30 3176 O 306.127 -3.54559 -2.10622 0
M  V30 3177 H 305.468 -0.655303 -0.107114 0
M  V30 3178 H 307.998 -2.02364 0.301653 0
M  V30 3179 H 308.008 -3.86377 -1.31061 0
M  V30 3180 H 306.683 -4.1544 -0.195504 0
M  V30 3181 H 305.26 -3.26708 -1.79767 0
M  V30 3182 N 307.445 0.0818655 -1.57387 0
M  V30 3183 C 308.691 0.784074 -1.8703 0
M  V30 3184 C 309.024 1.77729 -0.782689 0
M  V30 3185 O 308.299 1.93384 0.208051 0
M  V30 3186 C 308.582 1.50105 -3.27323 0
M  V30 3187 C 308.435 0.524925 -4.46727 0
M  V30 3188 C 309.754 2.44843 -3.65705 0
M  V30 3189 H 306.873 0.283582 -0.680257 0
M  V30 3190 H 309.515 0.0474352 -1.89941 0
M  V30 3191 H 307.665 2.12897 -3.24972 0
M  V30 3192 H 309.337 -0.0970111 -4.61198 0
M  V30 3193 H 307.58 -0.160606 -4.33503 0
M  V30 3194 H 308.251 1.064 -5.41648 0
M  V30 3195 H 310.727 1.92135 -3.69085 0
M  V30 3196 H 309.603 2.92018 -4.64776 0
M  V30 3197 H 309.864 3.29197 -2.95096 0
M  V30 3198 N 308.923 1.53595 0.353017 0
M  V30 3199 C 309.853 1.83902 1.43883 0
M  V30 3200 C 310.834 0.693421 1.55324 0
M  V30 3201 O 312.019 0.944452 1.69687 0
M  V30 3202 C 309.149 2.04016 2.8106 0
M  V30 3203 C 308.103 3.19814 2.84434 0
M  V30 3204 C 307.429 3.25244 4.24406 0
M  V30 3205 C 308.729 4.58133 2.50822 0
M  V30 3206 H 310.423 2.74835 1.1877 0
M  V30 3207 H 307.969 1.32242 0.569917 0
M  V30 3208 H 309.922 2.238 3.57059 0
M  V30 3209 H 308.646 1.09804 3.07588 0
M  V30 3210 H 307.305 2.9987 2.10887 0
M  V30 3211 H 306.953 2.28646 4.48029 0
M  V30 3212 H 306.653 4.03054 4.27576 0
M  V30 3213 H 308.177 3.47228 5.0226 0
M  V30 3214 H 309.591 4.77995 3.16534 0
M  V30 3215 H 307.988 5.38276 2.6529 0
M  V30 3216 H 309.058 4.62387 1.46034 0
M  V30 3217 N 310.401 -0.613514 1.45168 0
M  V30 3218 C 311.812 -1.19539 1.43413 0
M  V30 3219 C 312.163 -1.95558 0.158632 0
M  V30 3220 O 311.288 -2.0335 -0.740119 0
M  V30 3221 C 311.883 -2.17445 2.59813 0
M  V30 3222 C 310.442 -2.71022 2.61197 0
M  V30 3223 C 309.589 -1.46323 2.35552 0
M  V30 3224 H 312.54 -0.403163 1.53494 0
M  V30 3225 H 312.561 -3.00373 2.33574 0
M  V30 3226 H 312.073 -1.62089 3.52631 0
M  V30 3227 H 310.174 -3.30332 1.7237 0
M  V30 3228 H 310.287 -3.15859 3.60236 0
M  V30 3229 H 308.651 -1.75072 1.84992 0
M  V30 3230 H 309.434 -0.92844 3.30507 0
M  V30 3231 N 311.879 -1.3236 -0.855495 0
M  V30 3232 C 312.809 -1.23833 -1.97958 0
M  V30 3233 C 313.79 -0.122361 -1.69659 0
M  V30 3234 O 314.975 -0.30939 -1.9172 0
M  V30 3235 C 312.105 -0.959772 -3.33775 0
M  V30 3236 C 311.059 -2.03689 -3.76424 0
M  V30 3237 C 310.385 -1.61075 -5.09862 0
M  V30 3238 C 311.685 -3.4518 -3.9198 0
M  V30 3239 H 313.379 -2.1788 -2.0535 0
M  V30 3240 H 310.925 -1.04891 -0.986605 0
M  V30 3241 H 312.878 -0.886678 -4.11966 0
M  V30 3242 H 311.602 0.0163404 -3.26596 0
M  V30 3243 H 310.261 -2.10012 -3.00484 0
M  V30 3244 H 309.909 -0.622107 -4.99138 0
M  V30 3245 H 309.609 -2.33143 -5.39368 0
M  V30 3246 H 311.133 -1.55201 -5.90546 0
M  V30 3247 H 312.547 -3.4145 -4.60526 0
M  V30 3248 H 310.944 -4.1559 -4.32903 0
M  V30 3249 H 312.014 -3.84903 -2.94919 0
M  V30 3250 N 313.357 1.07166 -1.15556 0
M  V30 3251 C 314.32 2.12589 -0.856644 0
M  V30 3252 C 315.32 1.6015 0.14444 0
M  V30 3253 O 316.51 1.7399 -0.0854163 0
M  V30 3254 C 313.642 3.39753 -0.279405 0
M  V30 3255 H 314.835 2.40539 -1.79112 0
M  V30 3256 H 312.388 1.23086 -0.963298 0
M  V30 3257 H 313.123 3.17447 0.663174 0
M  V30 3258 H 312.908 3.79117 -1.00063 0
M  V30 3259 H 314.398 4.17507 -0.0879113 0
M  V30 3260 N 314.835 0.952656 1.25548 0
M  V30 3261 C 316.112 0.523818 1.88456 0
M  V30 3262 C 316.492 -0.998871 1.85973 0
M  V30 3263 O 315.84 -1.86381 1.3219 0
M  V30 3264 C 316.05 1.0982 3.31271 0
M  V30 3265 C 317.398 1.17385 4.08051 0
M  V30 3266 O 318.422 1.04961 3.40384 0
M  V30 3267 O 317.281 1.36852 5.29088 0
M  V30 3268 H 314.375 0.172485 0.808813 0
M  V30 3269 H 316.921 1.04596 1.33633 0
M  V30 3270 H 315.693 2.1415 3.27499 0
M  V30 3271 H 315.316 0.559191 3.93648 0
M  V30 3272 N 316.313 -1.40141 0.720998 0
M  V30 3273 C 317.561 -2.0039 0.262323 0
M  V30 3274 C 317.882 -1.57469 -1.15015 0
M  V30 3275 O 317.152 -0.816582 -1.78069 0
M  V30 3276 H 315.732 -0.741063 0.093996 0
M  V30 3277 H 318.394 -1.71398 0.927835 0
M  V30 3278 H 317.49 -3.10658 0.299671 0
M  V30 3279 N 317.792 -0.46758 -1.50504 0
M  V30 3280 C 319.038 0.0887532 -2.02606 0
M  V30 3281 C 319.371 1.39686 -1.34913 0
M  V30 3282 O 318.646 1.88644 -0.473694 0
M  V30 3283 C 318.929 0.276206 -3.59039 0
M  V30 3284 C 318.782 -1.05267 -4.37309 0
M  V30 3285 C 320.101 1.03235 -4.27821 0
M  V30 3286 H 317.22 0.0307814 -0.736357 0
M  V30 3287 H 319.862 -0.612485 -1.79857 0
M  V30 3288 H 318.012 0.8735 -3.78553 0
M  V30 3289 H 319.684 -1.68628 -4.29374 0
M  V30 3290 H 317.927 -1.65015 -4.01189 0
M  V30 3291 H 318.598 -0.875197 -5.45018 0
M  V30 3292 H 321.074 0.526111 -4.12761 0
M  V30 3293 H 319.95 1.1323 -5.37094 0
M  V30 3294 H 320.211 2.06806 -3.90748 0
M  V30 3295 N 319.27 1.56325 -0.20005 0
M  V30 3296 C 320.2 2.22318 0.713916 0
M  V30 3297 C 321.181 1.18788 1.21752 0
M  V30 3298 O 322.366 1.47309 1.26545 0
M  V30 3299 C 319.496 2.88639 1.93144 0
M  V30 3300 C 318.45 3.98457 1.56255 0
M  V30 3301 C 317.776 4.51967 2.85709 0
M  V30 3302 C 319.076 5.16612 0.768747 0
M  V30 3303 H 320.77 2.98952 0.163755 0
M  V30 3304 H 318.316 1.43792 0.0773219 0
M  V30 3305 H 320.269 3.33491 2.57608 0
M  V30 3306 H 318.993 2.09419 2.50621 0
M  V30 3307 H 317.652 3.54305 0.941471 0
M  V30 3308 H 317.3 3.69503 3.41287 0
M  V30 3309 H 317 5.26071 2.6177 0
M  V30 3310 H 318.524 4.99523 3.51154 0
M  V30 3311 H 319.938 5.57977 1.3166 0
M  V30 3312 H 318.335 5.96812 0.627286 0
M  V30 3313 H 319.405 4.84358 -0.229168 0
M  V30 3314 N 320.748 -0.0735177 1.57428 0
M  V30 3315 C 321.973 -0.789787 1.91774 0
M  V30 3316 C 322.398 -1.70413 0.796306 0
M  V30 3317 O 321.756 -1.79555 -0.250961 0
M  V30 3318 C 321.804 -1.5609 3.25067 0
M  V30 3319 O 320.908 -2.67144 3.14178 0
M  V30 3320 H 320.249 -0.215582 0.628029 0
M  V30 3321 H 322.779 -0.0422781 2.04556 0
M  V30 3322 H 322.789 -1.94052 3.58898 0
M  V30 3323 H 321.464 -0.890015 4.06265 0
M  V30 3324 H 320.041 -2.32052 2.91901 0
M  V30 3325 N 322.226 -1.5378 -0.344866 0
M  V30 3326 C 323.473 -1.70963 -1.08526 0
M  V30 3327 C 323.801 -0.472126 -1.88683 0
M  V30 3328 O 323.056 0.546116 -1.87926 0
M  V30 3329 C 323.355 -2.92407 -2.05506 0
M  V30 3330 C 323.021 -4.28066 -1.41671 0
M  V30 3331 C 321.683 -4.64951 -1.2399 0
M  V30 3332 C 324.035 -5.12344 -0.956726 0
M  V30 3333 C 321.363 -5.83733 -0.589277 0
M  V30 3334 C 323.715 -6.3179 -0.320015 0
M  V30 3335 C 322.379 -6.67372 -0.130881 0
M  V30 3336 H 321.649 -0.625598 -0.397124 0
M  V30 3337 H 324.296 -1.87995 -0.36469 0
M  V30 3338 H 322.601 -2.69973 -2.8394 0
M  V30 3339 H 324.298 -3.02895 -2.62784 0
M  V30 3340 H 320.888 -3.99034 -1.56429 0
M  V30 3341 H 325.072 -4.8438 -1.08118 0
M  V30 3342 H 320.328 -6.09877 -0.431344 0
M  V30 3343 H 324.502 -6.96386 0.0445072 0
M  V30 3344 H 322.129 -7.59273 0.375318 0
M  V30 3345 N 323.704 0.605807 -1.45491 0
M  V30 3346 C 324.953 1.36086 -1.48874 0
M  V30 3347 C 325.266 1.95131 -0.135333 0
M  V30 3348 O 326.472 2.7146 -0.0468144 0
M  V30 3349 C 324.928 2.46518 -2.62215 0
M  V30 3350 C 324.536 1.93877 -4.03876 0
M  V30 3351 C 326.28 3.23512 -2.74846 0
M  V30 3352 C 324.187 3.01801 -5.08596 0
M  V30 3353 H 323.117 0.511497 -0.553974 0
M  V30 3354 H 325.768 0.649089 -1.71636 0
M  V30 3355 H 324.15 3.20388 -2.32739 0
M  V30 3356 H 325.324 1.26704 -4.43038 0
M  V30 3357 H 323.639 1.29622 -3.95711 0
M  V30 3358 H 326.236 4.04013 -3.50253 0
M  V30 3359 H 326.579 3.74631 -1.81542 0
M  V30 3360 H 327.112 2.56742 -3.03856 0
M  V30 3361 H 323.851 2.55597 -6.03614 0
M  V30 3362 H 323.371 3.67535 -4.74002 0
M  V30 3363 H 325.05 3.66152 -5.33424 0
M  V30 3364 N 325.182 1.32811 0.848464 0
M  V30 3365 C 326.132 1.18842 1.94578 0
M  V30 3366 C 327.116 0.0937517 1.60627 0
M  V30 3367 O 328.308 0.320887 1.74067 0
M  V30 3368 C 325.437 0.91999 3.30743 0
M  V30 3369 C 324.523 2.05665 3.70894 0
M  V30 3370 N 324.914 3.30579 3.8282 0
M  V30 3371 C 323.212 1.9612 4.00566 0
M  V30 3372 C 323.913 4.05067 4.17487 0
M  V30 3373 N 322.889 3.33419 4.2934 0
M  V30 3374 H 326.691 2.13536 2.0194 0
M  V30 3375 H 324.205 1.2468 1.0406 0
M  V30 3376 H 326.202 0.800859 4.09136 0
M  V30 3377 H 324.862 -0.0185076 3.24695 0
M  V30 3378 H 325.873 3.65441 3.66978 0
M  V30 3379 H 322.55 1.09871 4.02784 0
M  V30 3380 H 323.94 5.12815 4.34131 0
M  V30 3381 N 326.66 -1.06551 1.16123 0
M  V30 3382 C 327.61 -2.12209 0.833736 0
M  V30 3383 C 328.594 -1.59825 -0.185656 0
M  V30 3384 O 329.786 -1.76994 0.0147906 0
M  V30 3385 C 326.915 -3.41674 0.333697 0
M  V30 3386 C 326.001 -4.00892 1.38372 0
M  V30 3387 N 326.392 -4.34256 2.59337 0
M  V30 3388 C 324.69 -4.28463 1.23836 0
M  V30 3389 C 325.391 -4.81291 3.26701 0
M  V30 3390 N 324.367 -4.80565 2.54083 0
M  V30 3391 H 328.169 -2.35849 1.75364 0
M  V30 3392 H 325.683 -1.24068 1.04789 0
M  V30 3393 H 327.68 -4.16822 0.0806918 0
M  V30 3394 H 326.34 -3.19475 -0.58017 0
M  V30 3395 H 327.351 -4.24687 2.96415 0
M  V30 3396 H 324.028 -4.15721 0.38504 0
M  V30 3397 H 325.418 -5.16332 4.29943 0
M  V30 3398 N 328.138 -0.959301 -1.25041 0
M  V30 3399 C 329.07 -0.440543 -2.24926 0
M  V30 3400 C 330.083 0.446131 -1.56568 0
M  V30 3401 O 331.272 0.253657 -1.76689 0
M  V30 3402 C 328.372 0.38412 -3.36716 0
M  V30 3403 C 327.545 -0.490658 -4.34639 0
M  V30 3404 C 326.604 0.276587 -5.25473 0
M  V30 3405 O 325.63 -0.326614 -5.68262 0
M  V30 3406 N 326.832 1.56844 -5.5891 0
M  V30 3407 H 329.597 -1.29931 -2.70071 0
M  V30 3408 H 327.158 -0.830181 -1.38995 0
M  V30 3409 H 329.15 0.905228 -3.94446 0
M  V30 3410 H 327.72 1.14377 -2.90924 0
M  V30 3411 H 326.94 -1.19282 -3.7572 0
M  V30 3412 H 328.228 -1.08756 -4.97041 0
M  V30 3413 H 327.626 2.08036 -5.26059 0
M  V30 3414 H 326.183 2.03541 -6.19205 0
M  V30 3415 N 329.616 1.39756 -0.72842 0
M  V30 3416 C 330.865 1.99879 -0.270407 0
M  V30 3417 C 331.178 1.58449 1.14688 0
M  V30 3418 O 332.384 2.11362 1.70407 0
M  V30 3419 C 330.84 3.57292 -0.43252 0
M  V30 3420 C 330.448 4.07688 -1.85727 0
M  V30 3421 C 332.192 4.24485 -0.0359507 0
M  V30 3422 C 330.099 5.5765 -1.96928 0
M  V30 3423 H 329.029 0.747689 -0.0973472 0
M  V30 3424 H 331.68 1.59837 -0.901355 0
M  V30 3425 H 330.062 3.95097 0.267219 0
M  V30 3426 H 331.236 3.81231 -2.58843 0
M  V30 3427 H 329.551 3.53135 -2.20646 0
M  V30 3428 H 332.148 5.34609 -0.0987484 0
M  V30 3429 H 332.491 4.03915 1.00787 0
M  V30 3430 H 333.024 3.9183 -0.686604 0
M  V30 3431 H 329.763 5.8309 -2.99476 0
M  V30 3432 H 329.283 5.8593 -1.28241 0
M  V30 3433 H 330.962 6.22957 -1.74737 0
M  V30 3434 N 331.094 0.475555 1.50254 0
M  V30 3435 C 332.343 -0.0795996 2.01543 0
M  V30 3436 C 332.656 -1.4038 1.36209 0
M  V30 3437 O 333.862 -2.04415 1.7868 0
M  V30 3438 C 332.318 -0.192363 3.59386 0
M  V30 3439 C 331.926 1.12367 4.33679 0
M  V30 3440 C 333.67 -0.699238 4.18701 0
M  V30 3441 C 331.577 0.974453 5.83317 0
M  V30 3442 H 330.507 -0.0335228 0.753254 0
M  V30 3443 H 333.158 0.611128 1.73025 0
M  V30 3444 H 331.54 -0.946974 3.84511 0
M  V30 3445 H 332.714 1.88958 4.20276 0
M  V30 3446 H 331.029 1.562 3.85993 0
M  V30 3447 H 333.626 -0.827978 5.28251 0
M  V30 3448 H 333.969 -1.69171 3.80377 0
M  V30 3449 H 334.502 -0.00188807 3.978 0
M  V30 3450 H 331.241 1.94042 6.26121 0
M  V30 3451 H 330.761 0.248998 5.99283 0
M  V30 3452 H 332.44 0.642867 6.43798 0
M  V30 3453 N 332.573 -1.56217 0.208337 0
M  V30 3454 C 333.483 -2.23316 -0.718836 0
M  V30 3455 C 334.499 -1.23648 -1.22422 0
M  V30 3456 O 335.675 -1.56423 -1.26861 0
M  V30 3457 C 332.74 -2.88968 -1.91568 0
M  V30 3458 C 331.801 -4.03943 -1.45357 0
M  V30 3459 C 331.034 -4.66455 -2.59337 0
M  V30 3460 O 331.257 -4.27919 -3.77149 0
M  V30 3461 O 330.191 -5.55686 -2.31293 0
M  V30 3462 H 334.017 -3.03182 -0.177315 0
M  V30 3463 H 331.602 -1.49384 -0.0215402 0
M  V30 3464 H 333.484 -3.30455 -2.61491 0
M  V30 3465 H 332.159 -2.12071 -2.44556 0
M  V30 3466 H 331.066 -3.67052 -0.722746 0
M  V30 3467 H 332.399 -4.82543 -0.970219 0
M  V30 3468 N 334.051 0.0651679 -1.57465 0
M  V30 3469 C 334.981 1.07693 -2.07182 0
M  V30 3470 C 335.962 1.39962 -0.966673 0
M  V30 3471 O 337.147 1.49475 -1.2398 0
M  V30 3472 C 334.277 2.3885 -2.52127 0
M  V30 3473 C 333.231 2.20917 -3.66579 0
M  V30 3474 C 332.557 3.57515 -3.97601 0
M  V30 3475 C 333.857 1.62493 -4.9638 0
M  V30 3476 H 335.551 0.663199 -2.91962 0
M  V30 3477 H 333.097 0.317569 -1.40455 0
M  V30 3478 H 335.05 3.09928 -2.85522 0
M  V30 3479 H 333.774 2.82215 -1.64384 0
M  V30 3480 H 332.433 1.52279 -3.33477 0
M  V30 3481 H 332.081 3.98463 -3.06979 0
M  V30 3482 H 331.781 3.46353 -4.74672 0
M  V30 3483 H 333.305 4.30013 -4.33499 0
M  V30 3484 H 334.719 2.23445 -5.27963 0
M  V30 3485 H 333.116 1.62009 -5.77818 0
M  V30 3486 H 334.186 0.587041 -4.81333 0
M  V30 3487 N 335.529 1.53961 0.336706 0
M  V30 3488 C 336.492 1.81724 1.39675 0
M  V30 3489 C 337.492 0.688532 1.45313 0
M  V30 3490 O 338.682 0.956829 1.45569 0
M  V30 3491 C 335.814 1.96543 2.78538 0
M  V30 3492 H 337.007 2.76424 1.16318 0
M  V30 3493 H 334.56 1.45478 0.571474 0
M  V30 3494 H 335.295 1.0401 3.07168 0
M  V30 3495 H 335.08 2.78665 2.75841 0
M  V30 3496 H 336.57 2.19516 3.5525 0
M  V30 3497 N 337.007 -0.598083 1.45811 0
M  V30 3498 C 338.423 -0.919847 1.30426 0
M  V30 3499 C 338.623 -1.99759 0.264303 0
M  V30 3500 O 337.679 -2.50221 -0.338472 0
M  V30 3501 C 338.992 -1.35176 2.68603 0
M  V30 3502 C 340.54 -1.46546 2.76574 0
M  V30 3503 C 341.015 -1.9311 4.15298 0
M  V30 3504 N 342.506 -2.00328 4.1764 0
M  V30 3505 C 343.241 -2.37599 5.21856 0
M  V30 3506 N 342.737 -2.73771 6.36413 0
M  V30 3507 N 344.53 -2.38021 5.09218 0
M  V30 3508 H 336.681 0.114111 2.12093 0
M  V30 3509 H 338.944 -0.0116121 0.947929 0
M  V30 3510 H 338.65 -0.633969 3.45939 0
M  V30 3511 H 338.524 -2.3164 2.97696 0
M  V30 3512 H 340.911 -2.17415 1.99537 0
M  V30 3513 H 340.992 -0.483727 2.51185 0
M  V30 3514 H 340.636 -1.22824 4.92825 0
M  V30 3515 H 340.566 -2.92213 4.38086 0
M  V30 3516 H 343.057 -1.74925 3.34977 0
M  V30 3517 H 343.37 -3.0112 7.11721 0
M  V30 3518 H 341.715 -2.71445 6.39799 0
M  V30 3519 H 344.906 -2.09174 4.18765 0
M  V30 3520 H 345.079 -2.66741 5.90554 0
M  V30 3521 N 338.485 -1.33259 -0.841409 0
M  V30 3522 C 339.762 -1.15174 -1.58096 0
M  V30 3523 C 340.142 0.282858 -2.09196 0
M  V30 3524 O 339.49 1.28151 -1.89181 0
M  V30 3525 C 339.7 -2.1907 -2.71679 0
M  V30 3526 C 341.048 -2.53093 -3.40924 0
M  V30 3527 O 342.072 -2.17717 -2.81918 0
M  V30 3528 O 340.931 -3.1379 -4.47435 0
M  V30 3529 H 338.025 -0.445303 -0.696875 0
M  V30 3530 H 340.571 -1.44833 -0.884385 0
M  V30 3531 H 339.343 -3.15443 -2.31541 0
M  V30 3532 H 338.966 -1.90481 -3.49002 0
M  V30 3533 N 339.963 1.05934 -1.16686 0
M  V30 3534 C 341.203 1.80382 -0.961345 0
M  V30 3535 C 341.567 1.85331 0.501643 0
M  V30 3536 O 342.768 2.55795 0.825986 0
M  V30 3537 C 341.039 3.20777 -1.57596 0
M  V30 3538 S 342.598 4.11795 -1.51559 0
M  V30 3539 H 339.416 0.621332 -0.345641 0
M  V30 3540 H 342.018 1.27157 -1.48497 0
M  V30 3541 H 340.722 3.14773 -2.63337 0
M  V30 3542 H 340.253 3.79078 -1.05182 0
M  V30 3543 H 342.268 4.93485 -0.518374 0
M  V30 3544 N 341.441 0.965919 1.2453 0
M  V30 3545 C 342.371 0.513476 2.27784 0
M  V30 3546 C 343.352 -0.445974 1.6415 0
M  V30 3547 O 344.537 -0.342485 1.91156 0
M  V30 3548 C 341.667 -0.198839 3.4673 0
M  V30 3549 C 340.621 0.676456 4.2262 0
M  V30 3550 C 339.947 -0.167248 5.34438 0
M  V30 3551 C 341.247 1.96017 4.84123 0
M  V30 3552 H 342.941 1.3765 2.65881 0
M  V30 3553 H 340.487 0.663321 1.27813 0
M  V30 3554 H 342.44 -0.526567 4.18097 0
M  V30 3555 H 341.164 -1.0962 3.07654 0
M  V30 3556 H 339.823 0.98743 3.53052 0
M  V30 3557 H 339.471 -1.0647 4.91603 0
M  V30 3558 H 339.171 0.415181 5.86131 0
M  V30 3559 H 340.695 -0.489688 6.08633 0
M  V30 3560 H 342.109 1.69814 5.47573 0
M  V30 3561 H 340.506 2.48918 5.4604 0
M  V30 3562 H 341.576 2.65622 4.05676 0
M  V30 3563 N 342.919 -1.39368 0.735821 0
M  V30 3564 C 344.147 -2.04795 0.294393 0
M  V30 3565 C 344.562 -1.55478 -1.07107 0
M  V30 3566 O 343.919 -0.720038 -1.67695 0
M  V30 3567 C 343.97 -3.6035 0.288071 0
M  V30 3568 O 343.691 -4.07852 1.59963 0
M  V30 3569 C 345.192 -4.42976 -0.169422 0
M  V30 3570 H 342.412 -0.658571 0.128551 0
M  V30 3571 H 344.956 -1.78399 0.999701 0
M  V30 3572 H 343.111 -3.85645 -0.368355 0
M  V30 3573 H 343.525 -5.02181 1.51375 0
M  V30 3574 H 344.999 -5.51864 -0.122687 0
M  V30 3575 H 345.476 -4.22068 -1.21472 0
M  V30 3576 H 346.082 -4.22832 0.457469 0
M  V30 3577 N 344.397 -0.483516 -1.5 0
M  V30 3578 C 345.344 0.304164 -2.28787 0
M  V30 3579 C 346.314 0.976114 -1.34392 0
M  V30 3580 O 347.499 0.986156 -1.63339 0
M  V30 3581 C 344.639 1.37298 -3.16612 0
M  V30 3582 C 343.752 0.714561 -4.26049 0
M  V30 3583 C 342.887 1.76232 -5.01114 0
M  V30 3584 C 341.926 1.08483 -6.0241 0
M  V30 3585 N 341.063 2.076 -6.70706 0
M  V30 3586 H 345.903 -0.373981 -2.95644 0
M  V30 3587 H 343.44 -0.196275 -1.45785 0
M  V30 3588 H 345.398 2.00445 -3.65893 0
M  V30 3589 H 344.028 2.02012 -2.51776 0
M  V30 3590 H 343.08 -0.0297798 -3.80388 0
M  V30 3591 H 344.392 0.180383 -4.98474 0
M  V30 3592 H 343.546 2.46929 -5.54176 0
M  V30 3593 H 342.285 2.33033 -4.28424 0
M  V30 3594 H 341.29 0.363545 -5.48597 0
M  V30 3595 H 342.515 0.523551 -6.77079 0
M  V30 3596 H 340.461 2.63394 -6.00799 0
M  V30 3597 H 340.378 1.59201 -7.39047 0
M  V30 3598 H 341.646 2.77639 -7.2838 0
M  V30 3599 N 345.875 1.56104 -0.216619 0
M  V30 3600 C 347.1 2.0301 0.424462 0
M  V30 3601 C 347.525 1.0955 1.52907 0
M  V30 3602 O 346.883 0.0827914 1.81111 0
M  V30 3603 C 346.931 3.4819 0.937883 0
M  V30 3604 O 346.035 3.57865 2.04955 0
M  V30 3605 H 345.376 0.656925 0.0966755 0
M  V30 3606 H 347.906 2.01859 -0.33381 0
M  V30 3607 H 347.916 3.88413 1.24897 0
M  V30 3608 H 346.591 4.15699 0.129387 0
M  V30 3609 H 345.168 3.29527 1.74546 0
M  V30 3610 N 347.353 -0.0568162 1.57498 0
M  V30 3611 C 348.769 -0.411933 1.54192 0
M  V30 3612 C 348.969 -1.78287 0.938942 0
M  V30 3613 O 348.025 -2.46483 0.547919 0
M  V30 3614 C 349.338 -0.339244 2.9878 0
M  V30 3615 C 350.886 -0.418348 3.10192 0
M  V30 3616 C 351.361 -0.375407 4.56459 0
M  V30 3617 N 352.852 -0.435038 4.61153 0
M  V30 3618 C 353.587 -0.424265 5.71828 0
M  V30 3619 N 353.083 -0.367418 6.91825 0
M  V30 3620 N 354.876 -0.471938 5.60115 0
M  V30 3621 H 347.027 0.840684 1.95055 0
M  V30 3622 H 349.29 0.316987 0.893433 0
M  V30 3623 H 348.996 0.601742 3.46514 0
M  V30 3624 H 348.87 -1.14371 3.59443 0
M  V30 3625 H 351.257 -1.34976 2.62422 0
M  V30 3626 H 351.338 0.414962 2.52412 0
M  V30 3627 H 350.982 0.552219 5.04889 0
M  V30 3628 H 350.912 -1.22645 5.12119 0
M  V30 3629 H 353.403 -0.482612 3.74806 0
M  V30 3630 H 353.716 -0.363535 7.71944 0
M  V30 3631 H 352.061 -0.333879 6.94198 0
M  V30 3632 H 355.252 -0.514145 4.65268 0
M  V30 3633 H 355.425 -0.460073 6.46365 0
M  V30 3634 N 348.832 -1.54138 -0.328536 0
M  V30 3635 C 350.109 -1.62749 -1.08499 0
M  V30 3636 C 350.489 -0.458198 -2.06067 0
M  V30 3637 O 349.837 0.548046 -2.2183 0
M  V30 3638 C 350.047 -2.99519 -1.79135 0
M  V30 3639 C 351.395 -3.55394 -2.32337 0
M  V30 3640 O 352.419 -3.01792 -1.89209 0
M  V30 3641 O 351.278 -4.49186 -3.11279 0
M  V30 3642 H 348.372 -0.65886 -0.499832 0
M  V30 3643 H 350.918 -1.66484 -0.328826 0
M  V30 3644 H 349.69 -3.76061 -1.08139 0
M  V30 3645 H 349.313 -2.99441 -2.61574 0
M  V30 3646 N 350.31 0.590341 -1.46126 0
M  V30 3647 C 351.558 1.34616 -1.50742 0
M  V30 3648 C 351.879 1.94363 -0.157486 0
M  V30 3649 O 351.149 1.78136 0.815136 0
M  V30 3650 H 349.729 0.499789 -0.555175 0
M  V30 3651 H 352.391 0.691953 -1.82203 0
M  V30 3652 H 351.487 2.15678 -2.25587 0
M  V30 3653 N 351.788 1.33704 0.83433 0
M  V30 3654 C 352.718 1.26967 1.95963 0
M  V30 3655 C 353.699 0.149337 1.69443 0
M  V30 3656 O 354.884 0.339852 1.91203 0
M  V30 3657 C 352.014 1.01275 3.32206 0
M  V30 3658 C 350.968 2.09652 3.73136 0
M  V30 3659 C 350.294 1.69166 5.07235 0
M  V30 3660 C 351.594 3.51372 3.86439 0
M  V30 3661 H 353.288 2.2112 2.01857 0
M  V30 3662 H 350.834 1.06447 0.969793 0
M  V30 3663 H 352.787 0.952106 4.10503 0
M  V30 3664 H 351.511 0.0356203 3.26581 0
M  V30 3665 H 350.17 2.14766 2.97104 0
M  V30 3666 H 349.818 0.701437 4.98085 0
M  V30 3667 H 349.518 2.41694 5.35591 0
M  V30 3668 H 351.042 1.64576 5.88003 0
M  V30 3669 H 352.456 3.48734 4.55036 0
M  V30 3670 H 350.853 4.22425 4.26236 0
M  V30 3671 H 351.923 3.89546 2.88759 0
M  V30 3672 N 353.266 -1.05314 1.17247 0
M  V30 3673 C 354.515 -1.77685 0.954521 0
M  V30 3674 C 354.828 -1.88616 -0.518025 0
M  V30 3675 O 356.034 -2.57714 -0.854144 0
M  V30 3676 C 354.49 -3.19402 1.65863 0
M  V30 3677 C 354.098 -3.16605 3.16963 0
M  V30 3678 C 355.842 -3.96237 1.52303 0
M  V30 3679 C 353.749 -4.53103 3.80068 0
M  V30 3680 H 352.679 -0.666 0.353496 0
M  V30 3681 H 355.33 -1.1805 1.40486 0
M  V30 3682 H 353.712 -3.79355 1.13602 0
M  V30 3683 H 354.886 -2.66176 3.76148 0
M  V30 3684 H 353.201 -2.53268 3.30521 0
M  V30 3685 H 355.798 -4.97157 1.96822 0
M  V30 3686 H 356.141 -4.136 0.473401 0
M  V30 3687 H 356.674 -3.42829 2.01775 0
M  V30 3688 H 353.413 -4.40946 4.85023 0
M  V30 3689 H 352.933 -5.03686 3.2567 0
M  V30 3690 H 354.612 -5.22045 3.82202 0
M  V30 3691 N 354.744 -0.972509 -1.24016 0
M  V30 3692 C 355.972 -0.654803 -1.96265 0
M  V30 3693 C 356.387 0.776708 -1.72083 0
M  V30 3694 O 355.744 1.52171 -1.00748 0
M  V30 3695 C 355.795 -0.92592 -3.49441 0
M  V30 3696 O 355.516 -2.30116 -3.72798 0
M  V30 3697 C 357.017 -0.623068 -4.38899 0
M  V30 3698 H 354.237 -0.243907 -0.6251 0
M  V30 3699 H 356.781 -1.30175 -1.57717 0
M  V30 3700 H 354.936 -0.325108 -3.86033 0
M  V30 3701 H 355.35 -2.38483 -4.67147 0
M  V30 3702 H 356.824 -0.863189 -5.45209 0
M  V30 3703 H 357.301 0.442754 -4.36963 0
M  V30 3704 H 357.907 -1.204 -4.07902 0
M  V30 3705 N 356.222 1.38976 -0.743202 0
M  V30 3706 C 357.45 2.04636 -0.30525 0
M  V30 3707 C 357.865 1.56044 1.06281 0
M  V30 3708 O 357.222 0.728921 1.67311 0
M  V30 3709 C 357.273 3.60193 -0.307177 0
M  V30 3710 O 356.994 4.06998 -1.62124 0
M  V30 3711 C 358.495 4.4306 0.145928 0
M  V30 3712 H 355.715 0.65788 -0.132041 0
M  V30 3713 H 358.259 1.77866 -1.00915 0
M  V30 3714 H 356.414 3.85835 0.347898 0
M  V30 3715 H 356.828 5.01371 -1.54036 0
M  V30 3716 H 358.302 5.51921 0.0934183 0
M  V30 3717 H 358.779 4.22706 1.19231 0
M  V30 3718 H 359.385 4.22584 -0.479886 0
M  V30 3719 N 357.7 0.491464 1.49741 0
M  V30 3720 C 358.946 -0.0565092 2.02721 0
M  V30 3721 C 359.279 -1.37522 1.37118 0
M  V30 3722 O 358.554 -1.87866 0.503645 0
M  V30 3723 C 358.837 -0.219051 3.59433 0
M  V30 3724 C 358.69 1.12211 4.35579 0
M  V30 3725 C 360.009 -0.964157 4.29409 0
M  V30 3726 H 357.128 -0.0190627 0.736753 0
M  V30 3727 H 359.77 0.641021 1.7886 0
M  V30 3728 H 357.92 -0.813165 3.79895 0
M  V30 3729 H 359.592 1.75437 4.26637 0
M  V30 3730 H 357.835 1.71377 3.98513 0
M  V30 3731 H 358.506 0.961794 5.43556 0
M  V30 3732 H 360.982 -0.460378 4.13545 0
M  V30 3733 H 359.858 -1.04671 5.38828 0
M  V30 3734 H 360.119 -2.00563 3.93988 0
M  V30 3735 N 359.178 -1.55987 0.224894 0
M  V30 3736 C 360.408 -2.02489 -0.41007 0
M  V30 3737 C 360.816 -1.10391 -1.53657 0
M  V30 3738 O 360.159 -0.106458 -1.83391 0
M  V30 3739 C 360.221 -3.45319 -0.999757 0
M  V30 3740 C 359.885 -4.56999 -0.00827976 0
M  V30 3741 C 360.882 -5.13812 0.793314 0
M  V30 3742 C 358.567 -5.02176 0.111442 0
M  V30 3743 C 360.561 -6.14276 1.7013 0
M  V30 3744 C 358.248 -6.02477 1.02296 0
M  V30 3745 C 359.246 -6.58403 1.81643 0
M  V30 3746 O 358.934 -7.56751 2.71262 0
M  V30 3747 H 358.666 -0.667915 -0.104235 0
M  V30 3748 H 361.22 -2.0257 0.339782 0
M  V30 3749 H 359.45 -3.42318 -1.79876 0
M  V30 3750 H 361.139 -3.7545 -1.54248 0
M  V30 3751 H 361.905 -4.79756 0.711288 0
M  V30 3752 H 357.784 -4.58323 -0.49605 0
M  V30 3753 H 361.328 -6.57854 2.32107 0
M  V30 3754 H 357.225 -6.35954 1.10599 0
M  V30 3755 H 357.993 -7.74286 2.65375 0
M  V30 3756 N 360.656 0.0484629 -1.57525 0
M  V30 3757 C 361.903 0.743125 -1.88372 0
M  V30 3758 C 362.231 1.76383 -0.819715 0
M  V30 3759 O 361.486 1.94855 0.181659 0
M  V30 3760 C 361.785 1.46632 -3.25935 0
M  V30 3761 C 361.451 0.583427 -4.4711 0
M  V30 3762 C 360.113 0.340191 -4.79996 0
M  V30 3763 C 362.465 -0.0273345 -5.21193 0
M  V30 3764 C 359.793 -0.522903 -5.84365 0
M  V30 3765 C 362.145 -0.878017 -6.26477 0
M  V30 3766 C 360.809 -1.1309 -6.5785 0
M  V30 3767 H 360.079 0.271929 -0.689301 0
M  V30 3768 H 362.726 0.00336166 -1.915 0
M  V30 3769 H 361.031 2.2789 -3.18706 0
M  V30 3770 H 362.728 2.00902 -3.47044 0
M  V30 3771 H 359.318 0.783151 -4.21384 0
M  V30 3772 H 363.502 0.147654 -4.9608 0
M  V30 3773 H 358.758 -0.727335 -6.07058 0
M  V30 3774 H 362.932 -1.35789 -6.83033 0
M  V30 3775 H 360.559 -1.80144 -7.38547 0
M  V30 3776 N 362.134 1.5431 0.320358 0
M  V30 3777 C 363.364 1.7638 1.07582 0
M  V30 3778 C 363.772 0.513944 1.82086 0
M  V30 3779 O 363.115 -0.525123 1.76035 0
M  V30 3780 C 363.177 2.9055 2.1171 0
M  V30 3781 C 362.841 4.2934 1.56575 0
M  V30 3782 C 363.838 5.10077 1.00586 0
M  V30 3783 C 361.523 4.75893 1.60722 0
M  V30 3784 C 363.517 6.35477 0.494756 0
M  V30 3785 C 361.204 6.0126 1.09224 0
M  V30 3786 C 362.202 6.80886 0.53696 0
M  V30 3787 O 361.89 8.03894 0.0297371 0
M  V30 3788 H 361.622 0.592369 0.325692 0
M  V30 3789 H 364.176 2.02019 0.37116 0
M  V30 3790 H 362.406 2.60489 2.85801 0
M  V30 3791 H 364.095 3.00373 2.73003 0
M  V30 3792 H 364.861 4.75265 0.966869 0
M  V30 3793 H 360.74 4.13957 2.02882 0
M  V30 3794 H 364.284 6.97574 0.0606842 0
M  V30 3795 H 360.181 6.35562 1.12831 0
M  V30 3796 H 360.949 8.18372 0.14486 0
M  V30 3797 N 363.613 -0.582584 1.46437 0
M  V30 3798 C 364.523 -1.71949 1.59595 0
M  V30 3799 C 365.539 -1.67264 0.479443 0
M  V30 3800 O 366.715 -1.87171 0.743579 0
M  V30 3801 C 363.78 -3.08452 1.58298 0
M  V30 3802 C 362.841 -3.244 2.81182 0
M  V30 3803 C 362.074 -4.54391 2.79937 0
M  V30 3804 O 362.297 -5.38287 1.8869 0
M  V30 3805 O 361.231 -4.73588 3.71481 0
M  V30 3806 H 365.057 -1.63795 2.55744 0
M  V30 3807 H 362.642 -0.749643 1.29231 0
M  V30 3808 H 364.524 -3.89732 1.60271 0
M  V30 3809 H 363.199 -3.17043 0.653094 0
M  V30 3810 H 362.106 -2.42613 2.84763 0
M  V30 3811 H 363.439 -3.20699 3.7338 0
M  V30 3812 N 365.091 -1.34144 -0.827227 0
M  V30 3813 C 366.021 -1.28005 -1.95287 0
M  V30 3814 C 367.002 -0.158321 -1.69362 0
M  V30 3815 O 368.187 -0.349987 -1.9102 0
M  V30 3816 C 365.317 -1.03036 -3.31664 0
M  V30 3817 C 364.271 -2.11628 -3.72019 0
M  V30 3818 C 363.597 -1.71854 -5.0633 0
M  V30 3819 C 364.897 -3.53417 -3.8457 0
M  V30 3820 H 366.591 -2.22187 -2.00682 0
M  V30 3821 H 364.137 -1.0696 -0.964135 0
M  V30 3822 H 366.09 -0.973863 -4.09993 0
M  V30 3823 H 364.814 -0.0529391 -3.26557 0
M  V30 3824 H 363.473 -2.16339 -2.95961 0
M  V30 3825 H 363.121 -0.727841 -4.97706 0
M  V30 3826 H 362.821 -2.44531 -5.34302 0
M  V30 3827 H 364.345 -1.67692 -5.87122 0
M  V30 3828 H 365.759 -3.51142 -4.5318 0
M  V30 3829 H 364.156 -4.24679 -4.2399 0
M  V30 3830 H 365.226 -3.91072 -2.86689 0
M  V30 3831 N 366.569 1.04691 -1.17803 0
M  V30 3832 C 367.501 2.12571 -0.857097 0
M  V30 3833 C 368.514 1.62174 0.142647 0
M  V30 3834 O 369.703 1.78301 -0.0843387 0
M  V30 3835 C 366.803 3.37915 -0.258216 0
M  V30 3836 C 365.976 4.1757 -1.30207 0
M  V30 3837 C 365.035 5.2125 -0.720029 0
M  V30 3838 O 364.061 5.51888 -1.39314 0
M  V30 3839 N 365.263 5.78466 0.485507 0
M  V30 3840 H 368.028 2.40698 -1.78562 0
M  V30 3841 H 365.589 1.20831 -1.07757 0
M  V30 3842 H 367.581 4.04442 0.144584 0
M  V30 3843 H 366.151 3.07281 0.574199 0
M  V30 3844 H 365.371 3.46458 -1.88043 0
M  V30 3845 H 366.659 4.67586 -2.00601 0
M  V30 3846 H 366.057 5.55866 1.05022 0
M  V30 3847 H 364.614 6.4649 0.830307 0
M  V30 3848 N 368.047 0.979072 1.23499 0
M  V30 3849 C 368.957 0.526431 2.28617 0
M  V30 3850 C 369.973 -0.418126 1.68901 0
M  V30 3851 O 371.149 -0.288372 1.99325 0
M  V30 3852 C 368.214 -0.165235 3.46306 0
M  V30 3853 C 367.275 0.82056 4.21385 0
M  V30 3854 C 366.508 0.161807 5.33455 0
M  V30 3855 O 366.731 -1.04742 5.60701 0
M  V30 3856 O 365.665 0.859708 5.95729 0
M  V30 3857 H 369.491 1.4006 2.69475 0
M  V30 3858 H 367.076 0.746643 1.29405 0
M  V30 3859 H 368.958 -0.553287 4.17752 0
M  V30 3860 H 367.633 -1.01419 3.07402 0
M  V30 3861 H 366.54 1.25929 3.52268 0
M  V30 3862 H 367.873 1.63828 4.64135 0
M  V30 3863 N 369.525 -1.3858 0.750561 0
M  V30 3864 C 370.473 -2.32339 0.110162 0
M  V30 3865 C 371.467 -1.53864 -0.708674 0
M  V30 3866 O 372.673 -1.69417 -0.608112 0
M  V30 3867 H 369.048 -0.751812 0.0168275 0
M  V30 3868 H 371.019 -2.83959 0.917053 0
M  V30 3869 C 369.768 -3.39043 -0.771067 0
M  V30 3870 H 369.091 -3.99517 -0.150374 0
M  V30 3871 H 370.531 -4.07061 -1.1865 0
M  V30 3872 C 368.99 -2.77365 -1.91234 0
M  V30 3873 O 369.52 -2.66434 -3.00626 0
M  V30 3874 N 367.726 -2.35219 -1.70646 0
M  V30 3875 H 367.273 -2.4431 -0.81673 0
M  V30 3876 H 367.231 -1.94294 -2.47178 0
M  V30 3877 N 371.003 -0.499398 -1.49478 0
M  V30 3878 C 371.933 0.269244 -2.31943 0
M  V30 3879 C 372.914 0.964054 -1.40143 0
M  V30 3880 O 374.099 0.955767 -1.69052 0
M  V30 3881 C 371.229 1.33504 -3.20615 0
M  V30 3882 C 370.183 0.760202 -4.21195 0
M  V30 3883 C 369.509 1.9264 -4.98792 0
M  V30 3884 C 370.809 -0.247661 -5.21712 0
M  V30 3885 H 372.503 -0.419082 -2.96452 0
M  V30 3886 H 370.049 -0.202988 -1.42562 0
M  V30 3887 H 372.002 1.88048 -3.77115 0
M  V30 3888 H 370.726 2.05253 -2.54045 0
M  V30 3889 H 369.385 0.23653 -3.65836 0
M  V30 3890 H 369.033 2.63154 -4.28671 0
M  V30 3891 H 368.733 1.54785 -5.66847 0
M  V30 3892 H 370.257 2.4762 -5.58137 0
M  V30 3893 H 371.671 0.209579 -5.72917 0
M  V30 3894 H 370.068 -0.541962 -5.97648 0
M  V30 3895 H 371.138 -1.16409 -4.7072 0
M  V30 3896 N 372.481 1.55866 -0.233164 0
M  V30 3897 C 373.391 2.24431 0.683217 0
M  V30 3898 C 374.407 1.2558 1.2044 0
M  V30 3899 O 375.583 1.58422 1.24356 0
M  V30 3900 C 372.648 2.91979 1.86947 0
M  V30 3901 C 371.709 4.06204 1.38912 0
M  V30 3902 C 370.942 4.70522 2.51883 0
M  V30 3903 O 371.165 4.33865 3.70293 0
M  V30 3904 O 370.099 5.59296 2.22423 0
M  V30 3905 H 373.925 3.03426 0.129059 0
M  V30 3906 H 371.51 1.494 -0.0022283 0
M  V30 3907 H 373.392 3.34573 2.56201 0
M  V30 3908 H 372.067 2.15935 2.41151 0
M  V30 3909 H 370.974 3.68155 0.664259 0
M  V30 3910 H 372.307 4.84025 0.893328 0
M  V30 3911 N 373.959 -0.0401083 1.57549 0
M  V30 3912 C 374.906 -1.04413 2.05831 0
M  V30 3913 C 375.876 -1.36585 0.945184 0
M  V30 3914 O 377.061 -1.47112 1.21502 0
M  V30 3915 C 374.201 -2.34336 2.53339 0
M  V30 3916 C 373.314 -2.08419 3.78398 0
M  V30 3917 C 372.449 -3.32133 4.14561 0
M  V30 3918 C 371.488 -3.01721 5.3257 0
M  V30 3919 N 370.625 -4.17855 5.64218 0
M  V30 3920 H 375.465 -0.625442 2.91363 0
M  V30 3921 H 373.002 -0.297218 1.44066 0
M  V30 3922 H 374.96 -3.10234 2.78946 0
M  V30 3923 H 373.59 -2.73948 1.7074 0
M  V30 3924 H 372.642 -1.23069 3.59942 0
M  V30 3925 H 373.954 -1.81978 4.64419 0
M  V30 3926 H 373.108 -4.16406 4.41238 0
M  V30 3927 H 371.847 -3.61678 3.2717 0
M  V30 3928 H 370.852 -2.15849 5.05657 0
M  V30 3929 H 372.077 -2.73466 6.21605 0
M  V30 3930 H 370.023 -4.47372 4.79786 0
M  V30 3931 H 369.94 -3.94798 6.44725 0
M  V30 3932 H 371.208 -5.03033 5.95465 0
M  V30 3933 N 375.437 -1.54477 -0.31217 0
M  V30 3934 C 376.367 -1.87652 -1.38957 0
M  V30 3935 C 377.348 -0.734358 -1.53431 0
M  V30 3936 O 378.533 -0.98911 -1.67123 0
M  V30 3937 C 375.663 -2.11396 -2.75552 0
M  V30 3938 C 374.617 -3.27243 -2.75855 0
M  V30 3939 C 373.943 -3.36382 -4.15633 0
M  V30 3940 C 375.243 -4.64622 -2.38587 0
M  V30 3941 H 376.937 -2.77887 -1.11442 0
M  V30 3942 H 374.483 -1.33707 -0.534655 0
M  V30 3943 H 376.436 -2.33189 -3.51 0
M  V30 3944 H 375.16 -1.17921 -3.04569 0
M  V30 3945 H 373.819 -3.05356 -2.02863 0
M  V30 3946 H 373.467 -2.40445 -4.41809 0
M  V30 3947 H 373.167 -4.14249 -4.1674 0
M  V30 3948 H 374.691 -3.60422 -4.92877 0
M  V30 3949 H 376.105 -4.86219 -3.03749 0
M  V30 3950 H 374.502 -5.45121 -2.50925 0
M  V30 3951 H 375.572 -4.66097 -1.33723 0
M  V30 3952 N 376.915 0.57481 -1.46744 0
M  V30 3953 C 377.845 1.69337 -1.60771 0
M  V30 3954 C 378.826 1.63825 -0.457736 0
M  V30 3955 O 380.011 1.8172 -0.684947 0
M  V30 3956 C 377.141 3.0798 -1.60517 0
M  V30 3957 C 376.095 3.28327 -2.74564 0
M  V30 3958 C 375.421 4.67578 -2.59373 0
M  V30 3959 C 376.721 3.15398 -4.16319 0
M  V30 3960 H 378.415 1.57853 -2.54407 0
M  V30 3961 H 375.961 0.75799 -1.22436 0
M  V30 3962 H 377.914 3.86061 -1.68923 0
M  V30 3963 H 376.638 3.20381 -0.634305 0
M  V30 3964 H 375.297 2.52649 -2.65639 0
M  V30 3965 H 374.945 4.76755 -1.60353 0
M  V30 3966 H 374.645 4.82144 -3.35873 0
M  V30 3967 H 376.169 5.47817 -2.69682 0
M  V30 3968 H 377.583 3.83315 -4.26313 0
M  V30 3969 H 375.98 3.41482 -4.93468 0
M  V30 3970 H 377.05 2.12372 -4.3592 0
M  V30 3971 N 378.394 1.34581 0.820102 0
M  V30 3972 C 379.326 1.22236 1.93884 0
M  V30 3973 C 380.339 0.148776 1.62119 0
M  V30 3974 O 381.528 0.400877 1.7394 0
M  V30 3975 C 378.628 0.856542 3.27897 0
M  V30 3976 C 377.801 2.02569 3.87666 0
M  V30 3977 C 376.86 1.63782 5.00062 0
M  V30 3978 O 375.886 2.35477 5.18208 0
M  V30 3979 N 377.088 0.553611 5.77854 0
M  V30 3980 H 379.853 2.18615 2.05006 0
M  V30 3981 H 377.414 1.27573 0.99683 0
M  V30 3982 H 379.406 0.578806 4.0054 0
M  V30 3983 H 377.976 -0.0171518 3.12595 0
M  V30 3984 H 377.196 2.468 3.07382 0
M  V30 3985 H 378.484 2.80752 4.24329 0
M  V30 3986 H 377.882 -0.0423528 5.65684 0
M  V30 3987 H 376.439 0.335614 6.50935 0
M  V30 3988 N 379.872 -1.04064 1.18357 0
M  V30 3989 C 381.149 -1.74252 0.888581 0
M  V30 3990 C 381.529 -2.02138 -0.60856 0
M  V30 3991 O 380.877 -1.66656 -1.56327 0
M  V30 3992 C 381.087 -3.0277 1.73584 0
M  V30 3993 C 382.435 -3.76506 1.96286 0
M  V30 3994 O 383.459 -3.12668 1.70637 0
M  V30 3995 O 382.318 -4.91243 2.39464 0
M  V30 3996 H 379.412 -0.758271 0.330082 0
M  V30 3997 H 381.958 -1.1013 1.2911 0
M  V30 3998 H 380.73 -2.78299 2.75073 0
M  V30 3999 H 380.353 -3.74631 1.33183 0
M  V30 4000 N 381.35 -0.985608 -1.22978 0
M  V30 4001 C 382.313 -0.535071 -2.22867 0
M  V30 4002 C 383.313 0.378123 -1.56291 0
M  V30 4003 O 384.503 0.171092 -1.73358 0
M  V30 4004 C 381.635 0.222702 -3.40172 0
M  V30 4005 H 382.828 -1.41835 -2.6424 0
M  V30 4006 H 380.381 -0.772042 -1.35901 0
M  V30 4007 H 381.116 1.12229 -3.04262 0
M  V30 4008 H 380.901 -0.43288 -3.89703 0
M  V30 4009 H 382.391 0.526335 -4.1427 0
M  V30 4010 N 382.828 1.3818 -0.7579 0
M  V30 4011 C 384.058 2.04004 -0.326463 0
M  V30 4012 C 384.466 1.57286 1.05156 0
M  V30 4013 O 383.809 0.743144 1.67997 0
M  V30 4014 C 383.871 3.58444 -0.275402 0
M  V30 4015 C 383.535 4.28237 -1.59569 0
M  V30 4016 C 384.532 4.53312 -2.54566 0
M  V30 4017 C 382.217 4.66341 -1.86631 0
M  V30 4018 C 384.211 5.15531 -3.74842 0
M  V30 4019 C 381.898 5.28283 -3.0718 0
M  V30 4020 C 382.896 5.52814 -4.01106 0
M  V30 4021 O 382.584 6.13465 -5.19534 0
M  V30 4022 H 382.316 0.662026 -0.136739 0
M  V30 4023 H 384.87 1.7777 -1.02893 0
M  V30 4024 H 383.1 3.83667 0.483337 0
M  V30 4025 H 384.789 4.05701 0.127099 0
M  V30 4026 H 385.555 4.24299 -2.34936 0
M  V30 4027 H 381.434 4.46591 -1.14358 0
M  V30 4028 H 384.978 5.34594 -4.48168 0
M  V30 4029 H 380.875 5.56719 -3.26702 0
M  V30 4030 H 381.643 6.31951 -5.20173 0
M  V30 4031 N 384.306 0.507319 1.49211 0
M  V30 4032 C 385.216 -0.272136 2.33016 0
M  V30 4033 C 386.232 -0.961206 1.45041 0
M  V30 4034 O 387.408 -0.941191 1.78055 0
M  V30 4035 C 384.473 -1.31895 3.20631 0
M  V30 4036 C 383.534 -0.642648 4.24463 0
M  V30 4037 C 382.767 -1.63959 5.07891 0
M  V30 4038 O 382.99 -2.87007 4.92933 0
M  V30 4039 O 381.924 -1.19143 5.8999 0
M  V30 4040 H 385.75 0.413982 3.00865 0
M  V30 4041 H 383.335 0.268556 1.46966 0
M  V30 4042 H 385.217 -1.92446 3.7489 0
M  V30 4043 H 383.892 -1.98788 2.5547 0
M  V30 4044 H 382.799 0.00276252 3.741 0
M  V30 4045 H 384.132 -0.0160534 4.92197 0
M  V30 4046 N 385.784 -1.5574 0.241426 0
M  V30 4047 C 387.2 -1.59196 -0.113548 0
M  V30 4048 C 387.4 -1.25852 -1.57364 0
M  V30 4049 O 386.456 -1.00322 -2.31715 0
M  V30 4050 C 387.769 -2.99814 0.230695 0
M  V30 4051 C 389.317 -3.12513 0.174547 0
M  V30 4052 C 389.792 -4.55342 0.492744 0
M  V30 4053 N 391.283 -4.61076 0.443043 0
M  V30 4054 C 392.018 -5.6956 0.662484 0
M  V30 4055 N 391.514 -6.86328 0.944761 0
M  V30 4056 N 393.307 -5.58957 0.593564 0
M  V30 4057 H 385.458 -1.75685 1.19368 0
M  V30 4058 H 387.721 -0.81756 0.479896 0
M  V30 4059 H 387.427 -3.28932 1.24485 0
M  V30 4060 H 387.301 -3.74568 -0.444833 0
M  V30 4061 H 389.688 -2.83179 -0.830277 0
M  V30 4062 H 389.769 -2.40045 0.883845 0
M  V30 4063 H 389.413 -4.85396 1.4951 0
M  V30 4064 H 389.343 -5.26062 -0.23797 0
M  V30 4065 H 391.834 -3.77179 0.233374 0
M  V30 4066 H 392.147 -7.64935 1.09977 0
M  V30 4067 H 390.492 -6.88025 0.982175 0
M  V30 4068 H 393.683 -4.66611 0.373123 0
M  V30 4069 H 393.856 -6.43433 0.767981 0
M  V30 4070 N 387.262 0.0317525 -1.57568 0
M  V30 4071 C 388.487 0.738664 -1.938 0
M  V30 4072 C 388.912 1.68242 -0.841208 0
M  V30 4073 O 388.27 1.80157 0.203267 0
M  V30 4074 C 388.318 1.47417 -3.29091 0
M  V30 4075 O 387.422 2.5872 -3.2115 0
M  V30 4076 H 386.763 0.198856 -0.633524 0
M  V30 4077 H 389.293 -0.0119713 -2.04596 0
M  V30 4078 H 389.303 1.84468 -3.63917 0
M  V30 4079 H 387.978 0.781988 -4.08482 0
M  V30 4080 H 386.555 2.24231 -2.97951 0
M  V30 4081 N 388.74 1.54641 0.303973 0
M  V30 4082 C 389.65 1.88439 1.39743 0
M  V30 4083 C 390.666 0.778239 1.55626 0
M  V30 4084 O 391.842 1.07442 1.70347 0
M  V30 4085 C 388.907 2.12212 2.74166 0
M  V30 4086 C 387.968 3.35936 2.67293 0
M  V30 4087 C 387.201 3.58566 3.95305 0
M  V30 4088 O 387.424 2.84263 4.9452 0
M  V30 4089 O 386.358 4.52078 3.97378 0
M  V30 4090 H 390.184 2.81458 1.14083 0
M  V30 4091 H 387.769 1.40793 0.499768 0
M  V30 4092 H 389.651 2.29067 3.53704 0
M  V30 4093 H 388.326 1.22379 2.99675 0
M  V30 4094 H 387.233 3.24448 1.86237 0
M  V30 4095 H 388.566 4.2589 2.46736 0
M  V30 4096 N 390.218 -0.567019 1.47046 0
M  V30 4097 C 391.443 -1.3551 1.57009 0
M  V30 4098 C 391.868 -1.86841 0.217259 0
M  V30 4099 O 391.226 -1.62435 -0.805268 0
M  V30 4100 C 391.274 -2.50777 2.5912 0
M  V30 4101 O 390.378 -3.52706 2.13711 0
M  V30 4102 H 389.719 -0.402919 0.52778 0
M  V30 4103 H 392.249 -0.686241 1.92748 0
M  V30 4104 H 392.259 -2.97481 2.79229 0
M  V30 4105 H 390.934 -2.12771 3.57353 0
M  V30 4106 H 389.511 -3.12374 2.03659 0
M  V30 4107 N 391.696 -1.35014 -0.812953 0
M  V30 4108 C 392.626 -1.30069 -1.93919 0
M  V30 4109 C 393.607 -0.176275 -1.69184 0
M  V30 4110 O 394.792 -0.370227 -1.90638 0
M  V30 4111 C 391.922 -1.06547 -3.30552 0
M  V30 4112 C 390.876 -2.15561 -3.69753 0
M  V30 4113 C 390.202 -1.77214 -5.04479 0
M  V30 4114 C 391.502 -3.57476 -3.808 0
M  V30 4115 H 393.196 -2.24303 -1.98314 0
M  V30 4116 H 390.742 -1.07977 -0.952736 0
M  V30 4117 H 392.695 -1.01729 -4.08937 0
M  V30 4118 H 391.419 -0.0875719 -3.26483 0
M  V30 4119 H 390.078 -2.19466 -2.9365 0
M  V30 4120 H 389.726 -0.780589 -4.96906 0
M  V30 4121 H 389.426 -2.50184 -5.31678 0
M  V30 4122 H 390.95 -1.7391 -5.8531 0
M  V30 4123 H 392.364 -3.55929 -4.4943 0
M  V30 4124 H 390.761 -4.29152 -4.19462 0
M  V30 4125 H 391.831 -3.94091 -2.82525 0
M  V30 4126 N 393.175 1.03435 -1.18907 0
M  V30 4127 C 394.085 2.15075 -0.937015 0
M  V30 4128 C 395.101 1.73706 0.101085 0
M  V30 4129 O 396.277 2.01232 -0.0822948 0
M  V30 4130 C 393.342 3.43458 -0.473057 0
M  V30 4131 C 392.403 3.99172 -1.57989 0
M  V30 4132 C 391.636 5.21427 -1.13797 0
M  V30 4133 O 391.859 5.704 0.000725941 0
M  V30 4134 O 390.793 5.69837 -1.9383 0
M  V30 4135 H 394.619 2.39198 -1.87131 0
M  V30 4136 H 392.204 1.13506 -0.971427 0
M  V30 4137 H 394.086 4.20811 -0.222702 0
M  V30 4138 H 392.761 3.20793 0.432869 0
M  V30 4139 H 391.668 3.23178 -1.88433 0
M  V30 4140 H 393.001 4.2619 -2.46217 0
M  V30 4141 N 394.653 0.992116 1.22453 0
M  V30 4142 C 395.899 0.668523 1.91464 0
M  V30 4143 C 396.232 -0.797313 1.77078 0
M  V30 4144 O 395.507 -1.5765 1.13916 0
M  V30 4145 C 395.79 1.07424 3.43703 0
M  V30 4146 C 395.643 2.59857 3.67143 0
M  V30 4147 C 396.962 0.626891 4.35612 0
M  V30 4148 H 394.081 0.244341 0.695318 0
M  V30 4149 H 396.723 1.2355 1.44345 0
M  V30 4150 H 394.873 0.591816 3.83966 0
M  V30 4151 H 396.545 3.15764 3.3629 0
M  V30 4152 H 394.788 3.01961 3.11451 0
M  V30 4153 H 395.459 2.83296 4.73759 0
M  V30 4154 H 397.935 1.04125 4.02861 0
M  V30 4155 H 396.811 0.939076 5.40807 0
M  V30 4156 H 397.072 -0.472457 4.39568 0
M  V30 4157 N 396.131 -1.37776 0.765217 0
M  V30 4158 C 397.094 -2.28686 0.153416 0
M  V30 4159 C 398.094 -1.47727 -0.635081 0
M  V30 4160 O 399.284 -1.68027 -0.459632 0
M  V30 4161 C 396.416 -3.31608 -0.790495 0
M  V30 4162 H 397.609 -2.84297 0.954723 0
M  V30 4163 H 395.162 -1.46932 0.53299 0
M  V30 4164 H 395.897 -2.81109 -1.61705 0
M  V30 4165 H 395.682 -3.9144 -0.227348 0
M  V30 4166 H 397.172 -3.99559 -1.21419 0
M  V30 4167 N 397.609 -0.515225 -1.4894 0
M  V30 4168 C 398.856 0.024215 -2.02486 0
M  V30 4169 C 399.184 1.35671 -1.39368 0
M  V30 4170 O 398.439 1.88566 -0.523574 0
M  V30 4171 C 398.738 0.210595 -3.56779 0
M  V30 4172 C 398.404 -1.04569 -4.38607 0
M  V30 4173 C 397.066 -1.39002 -4.60686 0
M  V30 4174 C 399.418 -1.88008 -4.86109 0
M  V30 4175 C 396.746 -2.568 -5.27514 0
M  V30 4176 C 399.098 -3.04972 -5.54234 0
M  V30 4177 C 397.762 -3.39768 -5.74555 0
M  V30 4178 H 397.032 0.00886088 -0.740947 0
M  V30 4179 H 399.679 -0.678263 -1.79086 0
M  V30 4180 H 397.984 0.99572 -3.78936 0
M  V30 4181 H 399.681 0.642659 -3.95817 0
M  V30 4182 H 396.271 -0.767497 -4.21672 0
M  V30 4183 H 400.455 -1.62719 -4.68867 0
M  V30 4184 H 395.711 -2.8398 -5.41447 0
M  V30 4185 H 399.885 -3.69943 -5.90013 0
M  V30 4186 H 397.512 -4.31148 -6.26112 0
M  V30 4187 N 399.087 1.5561 -0.249682 0
M  V30 4188 C 400.333 1.99306 0.374841 0
M  V30 4189 C 400.666 1.13767 1.57387 0
M  V30 4190 O 399.941 0.201711 1.93451 0
M  V30 4191 C 400.224 3.51507 0.781986 0
M  V30 4192 C 400.077 4.4781 -0.422629 0
M  V30 4193 C 401.396 4.08884 1.62793 0
M  V30 4194 H 398.515 0.724572 0.134773 0
M  V30 4195 H 401.157 1.86719 -0.351549 0
M  V30 4196 H 399.307 3.62363 1.4009 0
M  V30 4197 H 400.979 4.48931 -1.06108 0
M  V30 4198 H 399.222 4.20518 -1.06524 0
M  V30 4199 H 399.893 5.51919 -0.0943766 0
M  V30 4200 H 402.369 4.01147 1.10547 0
M  V30 4201 H 401.245 5.1564 1.88166 0
M  V30 4202 H 401.506 3.57515 2.60068 0
M  V30 4203 N 400.565 -0.0233959 1.57583 0
M  V30 4204 C 401.793 -0.724682 1.93794 0
M  V30 4205 C 402.208 -1.68588 0.849912 0
M  V30 4206 O 401.565 -1.81676 -0.173204 0
M  V30 4207 C 401.616 -1.47684 3.29957 0
M  V30 4208 O 401.337 -0.554222 4.3458 0
M  V30 4209 C 402.838 -2.27477 3.80485 0
M  V30 4210 H 400.058 -0.203317 0.639455 0
M  V30 4211 H 402.602 0.0207653 2.04489 0
M  V30 4212 H 400.757 -2.17412 3.20641 0
M  V30 4213 H 401.171 -1.08232 5.13212 0
M  V30 4214 H 402.645 -2.7564 4.78254 0
M  V30 4215 H 403.122 -3.09144 3.11972 0
M  V30 4216 H 403.728 -1.62813 3.92902 0
M  V30 4217 N 402.043 -1.548 -0.295768 0
M  V30 4218 C 402.975 -1.82492 -1.3867 0
M  V30 4219 C 403.988 -0.708134 -1.46592 0
M  V30 4220 O 405.177 -0.985686 -1.48817 0
M  V30 4221 C 402.277 -1.95256 -2.76999 0
M  V30 4222 C 401.45 -3.25709 -2.91946 0
M  V30 4223 C 400.509 -3.28824 -4.10806 0
M  V30 4224 O 399.535 -4.02328 -4.02643 0
M  V30 4225 N 400.737 -2.5459 -5.21694 0
M  V30 4226 H 403.502 -2.76646 -1.15269 0
M  V30 4227 H 401.063 -1.54438 -0.485849 0
M  V30 4228 H 403.055 -1.94736 -3.54768 0
M  V30 4229 H 401.625 -1.08072 -2.93324 0
M  V30 4230 H 400.845 -3.38959 -2.01247 0
M  V30 4231 H 402.133 -4.11786 -2.98847 0
M  V30 4232 H 401.531 -1.94512 -5.31208 0
M  V30 4233 H 400.088 -2.59818 -5.97778 0
M  V30 4234 N 403.521 0.559213 -1.47345 0
M  V30 4235 C 404.451 1.67622 -1.62558 0
M  V30 4236 C 405.432 1.63331 -0.475087 0
M  V30 4237 O 406.617 1.80983 -0.704182 0
M  V30 4238 C 403.747 3.0626 -1.63774 0
M  V30 4239 C 402.701 3.25397 -2.7803 0
M  V30 4240 C 402.027 4.64801 -2.64318 0
M  V30 4241 C 403.327 3.10965 -4.19641 0
M  V30 4242 H 405.021 1.55146 -2.56067 0
M  V30 4243 H 402.567 0.744961 -1.23233 0
M  V30 4244 H 404.52 3.84247 -1.73008 0
M  V30 4245 H 403.244 3.1969 -0.66825 0
M  V30 4246 H 401.903 2.49817 -2.68304 0
M  V30 4247 H 401.551 4.75028 -1.65401 0
M  V30 4248 H 401.251 4.78555 -3.40968 0
M  V30 4249 H 402.775 5.44926 -2.75478 0
M  V30 4250 H 404.189 3.78772 -4.30354 0
M  V30 4251 H 402.586 3.36229 -4.97062 0
M  V30 4252 H 403.656 2.07736 -4.38148 0
M  V30 4253 N 404.999 1.35443 0.805782 0
M  V30 4254 C 406.245 1.28952 1.56522 0
M  V30 4255 C 406.578 -0.135597 1.93726 0
M  V30 4256 O 405.853 -1.08516 1.61414 0
M  V30 4257 C 406.136 2.19678 2.85331 0
M  V30 4258 C 405.989 3.7081 2.54598 0
M  V30 4259 C 407.308 2.09495 3.8704 0
M  V30 4260 H 404.427 0.469764 0.567883 0
M  V30 4261 H 407.069 1.65851 0.927001 0
M  V30 4262 H 405.219 1.8834 3.39795 0
M  V30 4263 H 406.891 4.12593 2.06312 0
M  V30 4264 H 405.134 3.91051 1.8778 0
M  V30 4265 H 405.805 4.29679 3.46525 0
M  V30 4266 H 408.281 2.37045 3.41978 0
M  V30 4267 H 407.157 2.75173 4.74943 0
M  V30 4268 H 407.418 1.07714 4.28777 0
M  V30 4269 N 406.477 -1.02803 1.19454 0
M  V30 4270 C 407.424 -2.11099 0.933046 0
M  V30 4271 C 408.394 -1.65571 -0.132447 0
M  V30 4272 O 409.579 -1.90797 0.00987576 0
M  V30 4273 C 406.719 -3.41763 0.478747 0
M  V30 4274 C 405.832 -4.00833 1.6111 0
M  V30 4275 C 404.967 -5.19511 1.10825 0
M  V30 4276 C 404.006 -5.70639 2.21445 0
M  V30 4277 N 403.143 -6.80589 1.72461 0
M  V30 4278 H 407.983 -2.32804 1.86028 0
M  V30 4279 H 405.52 -1.14179 0.927441 0
M  V30 4280 H 407.478 -4.16736 0.196745 0
M  V30 4281 H 406.108 -3.20166 -0.411493 0
M  V30 4282 H 405.16 -3.23066 2.00829 0
M  V30 4283 H 406.472 -4.34794 2.4445 0
M  V30 4284 H 405.626 -6.01645 0.781533 0
M  V30 4285 H 404.365 -4.87086 0.244606 0
M  V30 4286 H 403.37 -4.87116 2.54947 0
M  V30 4287 H 404.595 -6.05102 3.08267 0
M  V30 4288 H 402.541 -6.50016 0.884056 0
M  V30 4289 H 402.458 -7.13681 2.49389 0
M  V30 4290 H 403.726 -7.66317 1.42755 0
M  V30 4291 N 407.956 -0.998596 -1.21925 0
M  V30 4292 C 408.903 -0.553621 -2.24062 0
M  V30 4293 C 409.873 0.416999 -1.6078 0
M  V30 4294 O 411.058 0.320482 -1.88089 0
M  V30 4295 C 408.198 0.119959 -3.44891 0
M  V30 4296 C 407.311 -0.893077 -4.22668 0
M  V30 4297 C 406.446 -0.192424 -5.30851 0
M  V30 4298 C 405.485 -1.19344 -6.00353 0
M  V30 4299 N 404.622 -0.520707 -7.00166 0
M  V30 4300 H 409.462 -1.4293 -2.61486 0
M  V30 4301 H 406.999 -0.715838 -1.28507 0
M  V30 4302 H 408.957 0.527459 -4.13852 0
M  V30 4303 H 407.587 0.959389 -3.08214 0
M  V30 4304 H 406.639 -1.41886 -3.52948 0
M  V30 4305 H 407.951 -1.65512 -4.70539 0
M  V30 4306 H 407.105 0.271515 -6.06092 0
M  V30 4307 H 405.844 0.602075 -4.83969 0
M  V30 4308 H 404.849 -1.66795 -5.23889 0
M  V30 4309 H 406.074 -1.98891 -6.49322 0
M  V30 4310 H 404.02 0.254252 -6.55507 0
M  V30 4311 H 403.937 -1.2211 -7.46073 0
M  V30 4312 H 405.205 -0.0797596 -7.79459 0
M  V30 4313 N 409.434 1.37368 -0.772513 0
M  V30 4314 C 410.364 2.32856 -0.173304 0
M  V30 4315 C 411.345 1.55818 0.682262 0
M  V30 4316 O 412.53 1.84052 0.619566 0
M  V30 4317 C 409.66 3.40048 0.706007 0
M  V30 4318 C 408.614 4.27973 -0.0483144 0
M  V30 4319 C 407.94 5.26184 0.950491 0
M  V30 4320 C 409.24 5.07665 -1.22776 0
M  V30 4321 H 410.934 2.83217 -0.971002 0
M  V30 4322 H 408.48 1.3617 -0.468377 0
M  V30 4323 H 410.433 4.05827 1.13501 0
M  V30 4324 H 409.157 2.88214 1.53623 0
M  V30 4325 H 407.816 3.63726 -0.458107 0
M  V30 4326 H 407.464 4.7063 1.77529 0
M  V30 4327 H 407.164 5.85872 0.450314 0
M  V30 4328 H 408.688 5.94838 1.37842 0
M  V30 4329 H 410.102 5.66578 -0.875366 0
M  V30 4330 H 408.499 5.76681 -1.66007 0
M  V30 4331 H 409.569 4.40294 -2.03149 0
M  V30 4332 N 410.912 0.523116 1.48665 0
M  V30 4333 C 411.842 -0.23231 2.32342 0
M  V30 4334 C 412.823 -0.941637 1.41659 0
M  V30 4335 O 414.008 -0.928751 1.70552 0
M  V30 4336 C 411.138 -1.28387 3.22698 0
M  V30 4337 C 410.092 -0.693098 4.22351 0
M  V30 4338 C 409.418 -1.8468 5.01794 0
M  V30 4339 C 410.718 0.33063 5.21252 0
M  V30 4340 H 412.412 0.466192 2.95748 0
M  V30 4341 H 409.958 0.225643 1.42221 0
M  V30 4342 H 411.911 -1.82024 3.80059 0
M  V30 4343 H 410.635 -2.01186 2.57278 0
M  V30 4344 H 409.294 -0.178299 3.66166 0
M  V30 4345 H 408.942 -2.56301 4.32804 0
M  V30 4346 H 408.642 -1.45747 5.69238 0
M  V30 4347 H 410.166 -2.38709 5.62006 0
M  V30 4348 H 411.58 -0.118407 5.73178 0
M  V30 4349 H 409.977 0.636974 5.9671 0
M  V30 4350 H 411.047 1.23883 4.68808 0
M  V30 4351 N 412.39 -1.55475 0.257931 0
M  V30 4352 C 413.639 -1.98383 -0.364275 0
M  V30 4353 C 413.952 -1.14952 -1.58258 0
M  V30 4354 O 415.158 -1.47924 -2.27664 0
M  V30 4355 C 413.614 -3.53037 -0.699479 0
M  V30 4356 C 413.222 -4.45223 0.498046 0
M  V30 4357 C 414.966 -4.04575 -1.28526 0
M  V30 4358 C 412.873 -5.91238 0.138383 0
M  V30 4359 H 411.803 -0.740911 -0.13988 0
M  V30 4360 H 414.454 -1.79936 0.359883 0
M  V30 4361 H 412.836 -3.6722 -1.48207 0
M  V30 4362 H 414.01 -4.42803 1.27522 0
M  V30 4363 H 412.325 -4.04226 0.999503 0
M  V30 4364 H 414.922 -5.11196 -1.56788 0
M  V30 4365 H 415.265 -3.5258 -2.21344 0
M  V30 4366 H 415.798 -3.93762 -0.565337 0
M  V30 4367 H 412.537 -6.47294 1.03398 0
M  V30 4368 H 412.057 -5.96768 -0.602374 0
M  V30 4369 H 413.736 -6.46413 -0.27553 0
M  V30 4370 N 413.868 0.0150385 -1.57593 0
M  V30 4371 C 415.117 0.702115 -1.89085 0
M  V30 4372 C 415.43 1.75764 -0.858277 0
M  V30 4373 O 416.636 2.49829 -1.0629 0
M  V30 4374 C 415.092 1.29992 -3.35604 0
M  V30 4375 C 414.7 0.280007 -4.47124 0
M  V30 4376 C 416.444 1.96606 -3.76227 0
M  V30 4377 C 414.351 0.886949 -5.84711 0
M  V30 4378 H 413.281 0.265997 -0.705522 0
M  V30 4379 H 415.932 -0.0430408 -1.8345 0
M  V30 4380 H 414.314 2.09525 -3.36029 0
M  V30 4381 H 415.488 -0.489631 -4.58191 0
M  V30 4382 H 413.803 -0.284835 -4.15425 0
M  V30 4383 H 416.4 2.42893 -4.76347 0
M  V30 4384 H 416.743 2.79024 -3.08952 0
M  V30 4385 H 417.276 1.23828 -3.78036 0
M  V30 4386 H 414.015 0.101876 -6.55421 0
M  V30 4387 H 413.535 1.6261 -5.77337 0
M  V30 4388 H 415.214 1.39011 -6.3189 0
M  V30 4389 N 415.346 1.54954 0.287554 0
M  V30 4390 C 416.595 1.74081 1.01877 0
M  V30 4391 C 416.908 0.541135 1.87966 0
M  V30 4392 O 418.114 0.614491 2.64455 0
M  V30 4393 C 416.57 3.08042 1.86113 0
M  V30 4394 C 416.178 4.35531 1.04961 0
M  V30 4395 C 417.922 3.36523 2.58752 0
M  V30 4396 C 415.829 5.60538 1.88551 0
M  V30 4397 H 414.759 0.64884 0.384087 0
M  V30 4398 H 417.41 1.81426 0.275101 0
M  V30 4399 H 415.792 2.94696 2.64519 0
M  V30 4400 H 416.966 4.59751 0.31074 0
M  V30 4401 H 415.281 4.14085 0.43843 0
M  V30 4402 H 417.878 4.27122 3.21668 0
M  V30 4403 H 418.221 2.56 3.28283 0
M  V30 4404 H 418.754 3.50901 1.87386 0
M  V30 4405 H 415.493 6.43767 1.23466 0
M  V30 4406 H 415.013 5.40483 2.60074 0
M  V30 4407 H 416.692 5.98297 2.46273 0
M  V30 4408 N 416.824 -0.551391 1.4764 0
M  V30 4409 C 418.049 -1.33837 1.58437 0
M  V30 4410 C 418.474 -1.866 0.237063 0
M  V30 4411 O 417.832 -1.6328 -0.787994 0
M  V30 4412 C 417.88 -2.48014 2.61766 0
M  V30 4413 O 416.984 -3.50419 2.1744 0
M  V30 4414 H 416.325 -0.397299 0.532024 0
M  V30 4415 H 418.855 -0.665759 1.93465 0
M  V30 4416 H 418.865 -2.94503 2.82369 0
M  V30 4417 H 417.54 -2.08969 3.5959 0
M  V30 4418 H 416.117 -3.10196 2.06961 0
M  V30 4419 N 418.302 -1.35869 -0.798587 0
M  V30 4420 C 419.718 -1.16082 -1.09532 0
M  V30 4421 C 419.918 0.0213124 -2.01489 0
M  V30 4422 O 418.974 0.689488 -2.42904 0
M  V30 4423 C 420.287 -2.46748 -1.7186 0
M  V30 4424 C 421.835 -2.53028 -1.84244 0
M  V30 4425 C 422.31 -3.83758 -2.49988 0
M  V30 4426 N 423.801 -3.85053 -2.57465 0
M  V30 4427 C 424.536 -4.8294 -3.09122 0
M  V30 4428 N 424.032 -5.91217 -3.61157 0
M  V30 4429 N 425.825 -4.70369 -3.0775 0
M  V30 4430 H 417.976 -2.11571 -0.187461 0
M  V30 4431 H 420.239 -0.936726 -0.145765 0
M  V30 4432 H 419.945 -3.33471 -1.11759 0
M  V30 4433 H 419.819 -2.61883 -2.71472 0
M  V30 4434 H 422.206 -1.66729 -2.43486 0
M  V30 4435 H 422.287 -2.418 -0.834643 0
M  V30 4436 H 421.931 -4.70459 -1.91393 0
M  V30 4437 H 421.861 -3.92278 -3.5132 0
M  V30 4438 H 424.352 -3.06822 -2.20609 0
M  V30 4439 H 424.665 -6.61892 -3.98896 0
M  V30 4440 H 423.01 -5.94899 -3.59333 0
M  V30 4441 H 426.201 -3.84914 -2.66381 0
M  V30 4442 H 426.374 -5.46816 -3.47701 0
M  V30 4443 N 419.78 1.02168 -1.19998 0
M  V30 4444 C 421.191 1.57135 -1.00825 0
M  V30 4445 C 421.542 1.91276 0.436818 0
M  V30 4446 O 420.667 1.71679 1.3174 0
M  V30 4447 C 421.262 2.85514 -1.82393 0
M  V30 4448 C 419.821 3.37027 -1.67601 0
M  V30 4449 C 418.968 2.10388 -1.80644 0
M  V30 4450 H 421.919 0.846106 -1.34264 0
M  V30 4451 H 421.94 3.56711 -1.32429 0
M  V30 4452 H 421.452 2.60634 -2.87561 0
M  V30 4453 H 419.553 3.66878 -0.650485 0
M  V30 4454 H 419.666 4.09572 -2.4857 0
M  V30 4455 H 418.03 2.22601 -1.23778 0
M  V30 4456 H 418.813 1.8794 -2.87286 0
M  V30 4457 N 421.258 1.00505 1.21394 0
M  V30 4458 C 422.221 0.570459 2.21987 0
M  V30 4459 C 423.221 -0.353211 1.56873 0
M  V30 4460 O 424.411 -0.14349 1.73608 0
M  V30 4461 C 421.543 -0.168555 3.40483 0
M  V30 4462 H 422.736 1.46021 2.6195 0
M  V30 4463 H 420.289 0.793565 1.34656 0
M  V30 4464 H 421.024 -1.07374 3.06009 0
M  V30 4465 H 420.809 0.494823 3.88965 0
M  V30 4466 H 422.299 -0.460362 4.15055 0
M  V30 4467 N 422.737 -1.36956 0.779787 0
M  V30 4468 C 424.153 -1.52817 0.460342 0
M  V30 4469 C 424.353 -1.7361 -1.02283 0
M  V30 4470 O 423.409 -1.76207 -1.80852 0
M  V30 4471 C 424.722 -2.71983 1.28241 0
M  V30 4472 C 426.27 -2.85849 1.27512 0
M  V30 4473 C 426.745 -4.08008 2.08072 0
M  V30 4474 N 428.236 -4.15135 2.05467 0
M  V30 4475 C 428.971 -5.08711 2.64577 0
M  V30 4476 N 428.467 -6.07792 3.32506 0
M  V30 4477 N 430.26 -5.01254 2.54363 0
M  V30 4478 H 422.411 -1.21713 1.74068 0
M  V30 4479 H 424.674 -0.593294 0.739396 0
M  V30 4480 H 424.38 -2.63109 2.33381 0
M  V30 4481 H 424.254 -3.65882 0.917088 0
M  V30 4482 H 426.641 -2.94189 0.231686 0
M  V30 4483 H 426.722 -1.92886 1.68014 0
M  V30 4484 H 426.366 -4.00429 3.12441 0
M  V30 4485 H 426.296 -5.001 1.64947 0
M  V30 4486 H 428.787 -3.44189 1.5602 0
M  V30 4487 H 429.1 -6.75739 3.74963 0
M  V30 4488 H 427.445 -6.08047 3.36606 0
M  V30 4489 H 430.636 -4.22795 2.00902 0
M  V30 4490 H 430.809 -5.73995 3.00722 0
M  V30 4491 N 424.215 -0.530993 -1.48385 0
M  V30 4492 C 425.145 0.219985 -2.32461 0
M  V30 4493 C 426.126 0.934111 -1.42156 0
M  V30 4494 O 427.311 0.919694 -1.71042 0
M  V30 4495 C 424.441 1.26674 -3.23375 0
M  V30 4496 C 423.395 0.67069 -4.22712 0
M  V30 4497 C 422.721 1.82017 -5.02766 0
M  V30 4498 C 424.021 -0.358268 -5.2107 0
M  V30 4499 H 425.715 -0.48187 -2.95497 0
M  V30 4500 H 423.261 -0.233182 -1.42099 0
M  V30 4501 H 425.214 1.80006 -3.81019 0
M  V30 4502 H 423.938 1.99818 -2.58341 0
M  V30 4503 H 422.597 0.158878 -3.66256 0
M  V30 4504 H 422.245 2.54002 -4.34157 0
M  V30 4505 H 421.945 1.42727 -5.70003 0
M  V30 4506 H 423.469 2.35725 -5.63264 0
M  V30 4507 H 424.883 0.0880081 -5.73232 0
M  V30 4508 H 423.28 -0.66861 -5.96364 0
M  V30 4509 H 424.35 -1.26367 -4.68145 0
M  V30 4510 N 425.693 1.55336 -0.266172 0
M  V30 4511 C 426.623 2.25146 0.618981 0
M  V30 4512 C 427.604 1.23845 1.16604 0
M  V30 4513 O 428.789 1.52544 1.20183 0
M  V30 4514 C 425.919 2.96572 1.80728 0
M  V30 4515 C 424.873 4.04726 1.39215 0
M  V30 4516 C 424.199 4.63678 2.66283 0
M  V30 4517 C 425.499 5.19407 0.548942 0
M  V30 4518 H 427.193 2.99377 0.0368116 0
M  V30 4519 H 424.739 1.43991 0.0162651 0
M  V30 4520 H 426.692 3.44116 2.43232 0
M  V30 4521 H 425.416 2.19861 2.41514 0
M  V30 4522 H 424.075 3.57979 0.790351 0
M  V30 4523 H 423.723 3.83646 3.25308 0
M  V30 4524 H 423.423 5.367 2.39222 0
M  V30 4525 H 424.947 5.13967 3.29651 0
M  V30 4526 H 426.361 5.63059 1.07876 0
M  V30 4527 H 424.758 5.98936 0.373593 0
M  V30 4528 H 425.828 4.8295 -0.434394 0
M  V30 4529 N 427.171 -0.0066808 1.57599 0
M  V30 4530 C 428.081 -1.01671 2.11424 0
M  V30 4531 C 429.097 -1.38143 1.05795 0
M  V30 4532 O 430.273 -1.47011 1.37658 0
M  V30 4533 C 427.338 -2.29192 2.60139 0
M  V30 4534 C 426.399 -1.99094 3.80342 0
M  V30 4535 C 425.632 -3.20535 4.26724 0
M  V30 4536 O 425.855 -4.3199 3.72479 0
M  V30 4537 O 424.789 -3.04924 5.18946 0
M  V30 4538 H 428.615 -0.589181 2.9793 0
M  V30 4539 H 426.2 -0.225091 1.47695 0
M  V30 4540 H 428.082 -3.0412 2.917 0
M  V30 4541 H 426.757 -2.71195 1.76733 0
M  V30 4542 H 425.664 -1.21663 3.53764 0
M  V30 4543 H 426.997 -1.61931 4.648 0
M  V30 4544 N 428.649 -1.55105 -0.279332 0
M  V30 4545 C 429.889 -1.7716 -1.01949 0
M  V30 4546 C 430.253 -0.557511 -1.83728 0
M  V30 4547 O 431.454 -0.656198 -2.60667 0
M  V30 4548 C 429.725 -3.0372 -1.88385 0
M  V30 4549 S 431.284 -3.46868 -2.68752 0
M  V30 4550 H 428.102 -0.62253 -0.343478 0
M  V30 4551 H 430.704 -1.93329 -0.290572 0
M  V30 4552 H 429.408 -3.90184 -1.2722 0
M  V30 4553 H 428.939 -2.902 -2.65608 0
M  V30 4554 H 430.954 -3.05643 -3.90892 0
M  V30 4555 N 430.127 0.543554 -1.4793 0
M  V30 4556 C 431.057 1.65888 -1.64327 0
M  V30 4557 C 432.038 1.62818 -0.492383 0
M  V30 4558 O 433.223 1.80226 -0.723338 0
M  V30 4559 C 430.353 3.04506 -1.67013 0
M  V30 4560 C 429.307 3.2243 -2.81466 0
M  V30 4561 C 428.633 4.61972 -2.69233 0
M  V30 4562 C 429.933 3.06496 -4.22915 0
M  V30 4563 H 431.627 1.52421 -2.57698 0
M  V30 4564 H 429.173 0.731849 -1.24016 0
M  V30 4565 H 431.126 3.82391 -1.77074 0
M  V30 4566 H 429.85 3.18964 -0.70212 0
M  V30 4567 H 428.509 2.46957 -2.70938 0
M  V30 4568 H 428.157 4.73247 -1.7043 0
M  V30 4569 H 427.857 4.74911 -3.46025 0
M  V30 4570 H 429.381 5.41974 -2.81242 0
M  V30 4571 H 430.795 3.74186 -4.34348 0
M  V30 4572 H 429.192 3.30938 -5.006 0
M  V30 4573 H 430.262 2.03077 -4.40327 0
M  V30 4574 N 431.605 1.3629 0.791371 0
M  V30 4575 C 432.515 1.32606 1.93527 0
M  V30 4576 C 433.531 0.228541 1.72493 0
M  V30 4577 O 434.707 0.460571 1.96063 0
M  V30 4578 C 431.772 1.11271 3.28359 0
M  V30 4579 C 430.833 2.3048 3.62185 0
M  V30 4580 C 430.066 2.10154 4.90583 0
M  V30 4581 O 430.289 1.07572 5.60165 0
M  V30 4582 O 429.223 2.97884 5.23019 0
M  V30 4583 H 433.049 2.28909 1.99585 0
M  V30 4584 H 430.634 1.16818 0.931344 0
M  V30 4585 H 432.516 1.01283 4.09047 0
M  V30 4586 H 431.191 0.180292 3.23198 0
M  V30 4587 H 430.098 2.46036 2.81811 0
M  V30 4588 H 431.431 3.22221 3.72068 0
M  V30 4589 N 433.083 -1.0153 1.20538 0
M  V30 4590 C 434.33 -1.75149 1.01633 0
M  V30 4591 C 434.658 -1.89189 -0.451399 0
M  V30 4592 O 433.913 -1.41551 -1.35136 0
M  V30 4593 C 434.212 -3.17213 1.64654 0
M  V30 4594 C 433.878 -3.23146 3.14464 0
M  V30 4595 C 432.54 -3.24472 3.55347 0
M  V30 4596 C 434.892 -3.21207 4.10458 0
M  V30 4597 C 432.22 -3.21532 4.90748 0
M  V30 4598 C 434.572 -3.19808 5.45807 0
M  V30 4599 C 433.236 -3.19439 5.86102 0
M  V30 4600 H 432.506 -0.640914 0.3719 0
M  V30 4601 H 435.153 -1.19071 1.49981 0
M  V30 4602 H 433.458 -3.76457 1.08571 0
M  V30 4603 H 435.155 -3.72871 1.4754 0
M  V30 4604 H 431.745 -3.2285 2.81897 0
M  V30 4605 H 435.929 -3.19351 3.79906 0
M  V30 4606 H 431.185 -3.19578 5.21229 0
M  V30 4607 H 435.359 -3.1726 6.19935 0
M  V30 4608 H 432.986 -3.16915 6.90991 0
M  V30 4609 N 434.561 -1.01147 -1.20859 0
M  V30 4610 C 435.509 -0.57059 -2.25493 0
M  V30 4611 C 436.503 0.388109 -1.64894 0
M  V30 4612 O 437.709 0.258592 -1.78133 0
M  V30 4613 H 434.084 -0.166191 -0.733406 0
M  V30 4614 H 436.055 -1.46411 -2.60012 0
M  V30 4615 C 434.804 0.0805241 -3.47607 0
M  V30 4616 H 434.127 -0.648156 -3.94511 0
M  V30 4617 H 435.567 0.352197 -4.22535 0
M  V30 4618 C 434.026 1.32175 -3.09889 0
M  V30 4619 O 434.556 2.41553 -3.20959 0
M  V30 4620 N 432.762 1.20392 -2.64488 0
M  V30 4621 H 432.309 0.313905 -2.5568 0
M  V30 4622 H 432.267 2.03541 -2.39621 0
M  V30 4623 N 436.039 1.36541 -0.78704 0
M  V30 4624 C 437.45 1.81873 -0.421807 0
M  V30 4625 C 437.801 1.65487 1.05397 0
M  V30 4626 O 436.926 1.17448 1.81755 0
M  V30 4627 C 437.521 3.30192 -0.758841 0
M  V30 4628 C 436.08 3.73743 -0.446468 0
M  V30 4629 C 435.227 2.58844 -0.994728 0
M  V30 4630 H 438.178 1.24796 -0.98039 0
M  V30 4631 H 438.199 3.80468 -0.0490648 0
M  V30 4632 H 437.711 3.42087 -1.83299 0
M  V30 4633 H 435.812 3.6741 0.619739 0
M  V30 4634 H 435.925 4.69272 -0.965415 0
M  V30 4635 H 434.289 2.51245 -0.418087 0
M  V30 4636 H 435.072 2.73525 -2.07458 0
M  V30 4637 N 437.518 0.538854 1.48102 0
M  V30 4638 C 438.428 -0.222648 2.33541 0
M  V30 4639 C 439.444 -0.930225 1.47047 0
M  V30 4640 O 440.62 -0.903211 1.80011 0
M  V30 4641 C 437.685 -1.25064 3.23357 0
M  V30 4642 C 436.746 -0.552469 4.2573 0
M  V30 4643 C 435.979 -1.53149 5.11254 0
M  V30 4644 O 436.202 -2.76487 4.9891 0
M  V30 4645 O 435.136 -1.06602 5.92385 0
M  V30 4646 H 438.962 0.477707 2.99919 0
M  V30 4647 H 436.547 0.299669 1.46364 0
M  V30 4648 H 438.429 -1.8445 3.78888 0
M  V30 4649 H 437.104 -1.93325 2.59629 0
M  V30 4650 H 436.011 0.082114 3.7401 0
M  V30 4651 H 437.344 0.0883526 4.92121 0
M  V30 4652 N 438.996 -1.55193 0.274407 0
M  V30 4653 C 439.906 -2.26164 -0.623473 0
M  V30 4654 C 440.922 -1.28729 -1.17068 0
M  V30 4655 O 442.098 -1.61663 -1.20112 0
M  V30 4656 C 439.163 -2.96833 -1.7914 0
M  V30 4657 C 438.224 -4.09745 -1.28093 0
M  V30 4658 C 437.457 -4.77034 -2.3932 0
M  V30 4659 O 437.68 -4.4353 -3.5866 0
M  V30 4660 O 436.614 -5.64996 -2.07516 0
M  V30 4661 H 440.44 -3.03661 -0.0485661 0
M  V30 4662 H 438.025 -1.49341 0.0418382 0
M  V30 4663 H 439.907 -3.41248 -2.4724 0
M  V30 4664 H 438.582 -2.22253 -2.35341 0
M  V30 4665 H 437.489 -3.69787 -0.566416 0
M  V30 4666 H 438.822 -4.86224 -0.764683 0
M  V30 4667 N 440.474 -0.00167713 -1.576 0
M  V30 4668 C 441.721 0.68282 -1.90641 0
M  V30 4669 C 442.049 1.73686 -0.875415 0
M  V30 4670 O 441.304 1.95334 0.119575 0
M  V30 4671 C 441.603 1.36189 -3.30435 0
M  V30 4672 C 441.269 0.440887 -4.48739 0
M  V30 4673 C 439.931 0.187312 -4.80835 0
M  V30 4674 C 442.283 -0.193134 -5.20842 0
M  V30 4675 C 439.611 -0.70855 -5.82406 0
M  V30 4676 C 441.963 -1.07688 -6.23367 0
M  V30 4677 C 440.627 -1.33962 -6.53919 0
M  V30 4678 H 439.897 0.249862 -0.697603 0
M  V30 4679 H 442.544 -0.0575642 -1.91413 0
M  V30 4680 H 440.849 2.17636 -3.25794 0
M  V30 4681 H 442.546 1.89759 -3.5326 0
M  V30 4682 H 439.136 0.648694 -4.23663 0
M  V30 4683 H 443.32 -0.0102445 -4.96299 0
M  V30 4684 H 438.576 -0.920097 -6.04437 0
M  V30 4685 H 442.75 -1.57451 -6.78367 0
M  V30 4686 H 440.377 -2.03549 -7.32442 0
M  V30 4687 N 441.952 1.55251 0.271103 0
M  V30 4688 C 443.182 1.79713 1.01916 0
M  V30 4689 C 443.59 0.571613 1.80359 0
M  V30 4690 O 442.933 -0.468853 1.77616 0
M  V30 4691 C 442.995 2.97138 2.02359 0
M  V30 4692 C 442.659 4.34104 1.42837 0
M  V30 4693 C 443.656 5.13019 0.843071 0
M  V30 4694 C 441.341 4.80765 1.455 0
M  V30 4695 C 443.335 6.36729 0.292333 0
M  V30 4696 C 441.022 6.0443 0.900402 0
M  V30 4697 C 442.02 6.8225 0.32007 0
M  V30 4698 O 441.708 8.03582 -0.226031 0
M  V30 4699 H 441.44 0.602431 0.306681 0
M  V30 4700 H 443.994 2.03097 0.306701 0
M  V30 4701 H 442.224 2.6945 2.77369 0
M  V30 4702 H 443.913 3.08907 2.63309 0
M  V30 4703 H 444.679 4.781 0.815178 0
M  V30 4704 H 440.558 4.20202 1.89609 0
M  V30 4705 H 444.102 6.97414 -0.161274 0
M  V30 4706 H 439.999 6.3883 0.925541 0
M  V30 4707 H 440.767 8.18418 -0.115572 0
M  V30 4708 N 443.43 -0.535701 1.48216 0
M  V30 4709 C 444.38 -1.63688 1.58714 0
M  V30 4710 C 445.364 -1.54635 0.444615 0
M  V30 4711 O 446.556 -1.62753 0.695742 0
M  V30 4712 C 443.685 -3.02423 1.62466 0
M  V30 4713 C 442.771 -3.16601 2.82178 0
M  V30 4714 N 443.162 -3.00771 4.06658 0
M  V30 4715 C 441.46 -3.47645 2.79391 0
M  V30 4716 C 442.161 -3.18213 4.86945 0
M  V30 4717 N 441.137 -3.45528 4.19656 0
M  V30 4718 H 444.939 -1.5005 2.5271 0
M  V30 4719 H 442.453 -0.741018 1.44508 0
M  V30 4720 H 444.45 -3.81517 1.6808 0
M  V30 4721 H 443.11 -3.17157 0.695826 0
M  V30 4722 H 444.121 -2.77652 4.37184 0
M  V30 4723 H 440.798 -3.68771 1.95739 0
M  V30 4724 H 442.188 -3.1076 5.95716 0
M  V30 4725 N 444.908 -1.36708 -0.784132 0
M  V30 4726 C 445.838 -1.34153 -1.91116 0
M  V30 4727 C 446.819 -0.212121 -1.68772 0
M  V30 4728 O 448.004 -0.410581 -1.8981 0
M  V30 4729 C 445.134 -1.13535 -3.28218 0
M  V30 4730 C 444.088 -2.23356 -3.65097 0
M  V30 4731 C 443.414 -1.87875 -5.00607 0
M  V30 4732 C 444.714 -3.65473 -3.73131 0
M  V30 4733 H 446.408 -2.28459 -1.93512 0
M  V30 4734 H 443.954 -1.09973 -0.929618 0
M  V30 4735 H 445.907 -1.10381 -4.06687 0
M  V30 4736 H 444.631 -0.156804 -3.26223 0
M  V30 4737 H 443.29 -2.25645 -2.88929 0
M  V30 4738 H 442.938 -0.885814 -4.95139 0
M  V30 4739 H 442.638 -2.61406 -5.26252 0
M  V30 4740 H 444.162 -1.86286 -5.81489 0
M  V30 4741 H 445.576 -3.65382 -4.41779 0
M  V30 4742 H 443.973 -4.37953 -4.10265 0
M  V30 4743 H 445.043 -3.99995 -2.74102 0
M  V30 4744 N 446.386 1.0089 -1.21074 0
M  V30 4745 C 447.316 2.1145 -0.990523 0
M  V30 4746 C 448.297 1.69897 0.0831699 0
M  V30 4747 O 449.482 1.94052 -0.0758853 0
M  V30 4748 C 446.612 3.42914 -0.550177 0
M  V30 4749 C 445.566 3.98244 -1.56799 0
M  V30 4750 C 444.892 5.25568 -0.984013 0
M  V30 4751 C 446.192 4.30752 -2.95381 0
M  V30 4752 H 447.886 2.3013 -1.91521 0
M  V30 4753 H 445.432 1.10592 -0.92225 0
M  V30 4754 H 447.385 4.19653 -0.383305 0
M  V30 4755 H 446.109 3.24014 0.41015 0
M  V30 4756 H 444.768 3.23621 -1.72236 0
M  V30 4757 H 444.416 5.02998 -0.0155216 0
M  V30 4758 H 444.116 5.63551 -1.66384 0
M  V30 4759 H 445.64 6.04955 -0.828378 0
M  V30 4760 H 447.054 4.98349 -2.8341 0
M  V30 4761 H 445.451 4.79869 -3.60341 0
M  V30 4762 H 446.521 3.39192 -3.46521 0
M  V30 4763 N 447.864 1.01787 1.20321 0
M  V30 4764 C 448.774 0.598898 2.26827 0
M  V30 4765 C 449.79 -0.36418 1.70146 0
M  V30 4766 O 450.966 -0.224812 2.00141 0
M  V30 4767 C 448.031 -0.0549769 3.46656 0
M  V30 4768 C 447.092 0.954205 4.18561 0
M  V30 4769 C 446.325 0.331439 5.3267 0
M  V30 4770 O 446.548 -0.86851 5.63749 0
M  V30 4771 O 445.482 1.0488 5.92692 0
M  V30 4772 H 449.308 1.48562 2.64883 0
M  V30 4773 H 446.893 0.787434 1.26964 0
M  V30 4774 H 448.775 -0.420102 4.19301 0
M  V30 4775 H 447.45 -0.915876 3.10473 0
M  V30 4776 H 446.357 1.37072 3.48083 0
M  V30 4777 H 447.69 1.78511 4.58688 0
M  V30 4778 N 449.342 -1.36122 0.79427 0
M  V30 4779 C 450.305 -2.28309 0.201889 0
M  V30 4780 C 451.305 -1.49041 -0.603603 0
M  V30 4781 O 452.495 -1.68964 -0.423888 0
M  V30 4782 C 449.627 -3.3321 -0.719978 0
M  V30 4783 H 450.82 -2.82208 1.01481 0
M  V30 4784 H 448.373 -1.45768 0.564037 0
M  V30 4785 H 449.108 -2.84475 -1.55706 0
M  V30 4786 H 448.893 -3.91835 -0.144266 0
M  V30 4787 H 450.383 -4.02044 -1.12916 0
M  V30 4788 N 450.82 -0.546701 -1.47814 0
M  V30 4789 C 451.783 0.196287 -2.28358 0
M  V30 4790 C 452.783 0.852437 -1.36346 0
M  V30 4791 O 453.973 0.709913 -1.59078 0
M  V30 4792 C 451.105 1.28579 -3.15722 0
M  V30 4793 H 452.298 -0.511086 -2.95513 0
M  V30 4794 H 449.851 -0.303248 -1.5333 0
M  V30 4795 H 450.586 2.0259 -2.53235 0
M  V30 4796 H 450.371 0.820229 -3.83425 0
M  V30 4797 H 451.861 1.80793 -3.76435 0
M  V30 4798 N 452.299 1.55045 -0.282633 0
M  V30 4799 C 453.209 2.26491 0.61147 0
M  V30 4800 C 454.225 1.29348 1.16384 0
M  V30 4801 O 455.401 1.62298 1.19253 0
M  V30 4802 C 452.466 2.97779 1.77563 0
M  V30 4803 C 451.527 4.10418 1.25919 0
M  V30 4804 C 450.76 4.78297 2.36786 0
M  V30 4805 O 450.983 4.45426 3.56303 0
M  V30 4806 O 449.917 5.66089 2.04517 0
M  V30 4807 H 453.743 3.03683 0.0324615 0
M  V30 4808 H 451.328 1.49317 -0.0497576 0
M  V30 4809 H 453.21 3.42554 2.45427 0
M  V30 4810 H 451.885 2.23498 2.34159 0
M  V30 4811 H 450.792 3.70082 0.546797 0
M  V30 4812 H 452.125 4.86622 0.738887 0
M  V30 4813 N 453.777 0.010035 1.57597 0
M  V30 4814 C 455.025 -0.671371 1.90623 0
M  V30 4815 C 455.346 -1.73753 0.885151 0
M  V30 4816 O 454.616 -1.95752 -0.0760611 0
M  V30 4817 H 453.196 -0.250968 0.703579 0
M  V30 4818 H 455.858 0.0533325 1.94827 0
M  V30 4819 H 454.954 -1.13626 2.90681 0
M  V30 4820 N 455.255 -1.55392 -0.262866 0
M  V30 4821 C 456.205 -1.85355 -1.32768 0
M  V30 4822 C 457.189 -0.713188 -1.44231 0
M  V30 4823 O 458.381 -0.974765 -1.47741 0
M  V30 4824 C 455.51 -2.13781 -2.68612 0
M  V30 4825 C 454.596 -3.34104 -2.61219 0
M  V30 4826 N 454.987 -4.53766 -2.2345 0
M  V30 4827 C 453.285 -3.36895 -2.92263 0
M  V30 4828 C 453.986 -5.35877 -2.26298 0
M  V30 4829 N 452.962 -4.74536 -2.65172 0
M  V30 4830 H 456.764 -2.75413 -1.02591 0
M  V30 4831 H 454.278 -1.55405 -0.471503 0
M  V30 4832 H 456.275 -2.33407 -3.45437 0
M  V30 4833 H 454.935 -1.25013 -2.99669 0
M  V30 4834 H 455.946 -4.79682 -1.95258 0
M  V30 4835 H 452.623 -2.58351 -3.27965 0
M  V30 4836 H 454.013 -6.41577 -1.99572 0
M  V30 4837 N 456.733 0.527833 -1.48498 0
M  V30 4838 C 457.696 1.61439 -1.62696 0
M  V30 4839 C 458.696 1.52824 -0.500136 0
M  V30 4840 O 459.886 1.56456 -0.765976 0
M  V30 4841 C 457.018 3.01063 -1.59918 0
M  V30 4842 H 458.211 1.50189 -2.59583 0
M  V30 4843 H 455.764 0.750055 -1.37127 0
M  V30 4844 H 456.499 3.17818 -0.645163 0
M  V30 4845 H 456.284 3.08725 -2.41726 0
M  V30 4846 H 457.774 3.80057 -1.73051 0
M  V30 4847 N 458.211 1.37122 0.776871 0
M  V30 4848 C 459.158 1.3247 1.88998 0
M  V30 4849 C 460.128 0.191143 1.64997 0
M  V30 4850 O 461.313 0.379683 1.86984 0
M  V30 4851 C 458.453 1.13241 3.25992 0
M  V30 4852 C 457.566 2.35782 3.61982 0
M  V30 4853 C 456.701 2.09465 4.88158 0
M  V30 4854 C 455.74 3.279 5.16864 0
M  V30 4855 N 454.877 3.01167 6.34226 0
M  V30 4856 H 459.717 2.27642 1.9231 0
M  V30 4857 H 457.254 1.13125 0.94027 0
M  V30 4858 H 459.212 1.00115 4.0501 0
M  V30 4859 H 457.842 0.217186 3.22069 0
M  V30 4860 H 456.894 2.59666 2.77989 0
M  V30 4861 H 458.206 3.24125 3.79137 0
M  V30 4862 H 457.36 1.93341 5.75069 0
M  V30 4863 H 456.099 1.18452 4.73097 0
M  V30 4864 H 455.104 3.44569 4.2843 0
M  V30 4865 H 456.329 4.19757 5.33836 0
M  V30 4866 H 454.275 2.12779 6.20533 0
M  V30 4867 H 454.192 3.83052 6.51772 0
M  V30 4868 H 455.46 2.88649 7.24087 0
M  V30 4869 N 459.689 -1.00246 1.21608 0
M  V30 4870 C 460.599 -2.12515 0.993709 0
M  V30 4871 C 461.615 -1.73913 -0.0549939 0
M  V30 4872 O 462.791 -2.00943 0.135619 0
M  V30 4873 C 459.856 -3.42083 0.563953 0
M  V30 4874 C 458.917 -3.94843 1.68516 0
M  V30 4875 C 458.15 -5.18226 1.27582 0
M  V30 4876 O 458.373 -5.70201 0.150506 0
M  V30 4877 O 457.307 -5.64497 2.0887 0
M  V30 4878 H 461.133 -2.34152 1.93407 0
M  V30 4879 H 458.718 -1.10891 1.00118 0
M  V30 4880 H 460.6 -4.20073 0.334194 0
M  V30 4881 H 459.275 -3.21828 -0.347665 0
M  V30 4882 H 458.182 -3.18068 1.96935 0
M  V30 4883 H 459.515 -4.19512 2.5743 0
M  V30 4884 N 461.167 -1.02423 -1.1978 0
M  V30 4885 C 462.415 -0.716569 -1.8897 0
M  V30 4886 C 462.736 0.756769 -1.79716 0
M  V30 4887 O 462.006 1.5449 -1.20456 0
M  V30 4888 H 460.586 -0.262062 -0.699523 0
M  V30 4889 H 463.248 -1.29747 -1.45436 0
M  V30 4890 H 462.344 -1.00675 -2.95417 0
M  V30 4891 N 462.645 1.35699 -0.801477 0
M  V30 4892 C 463.595 2.2728 -0.181073 0
M  V30 4893 C 464.579 1.47533 0.642098 0
M  V30 4894 O 465.771 1.69785 0.500193 0
M  V30 4895 C 462.9 3.36626 0.673612 0
M  V30 4896 C 461.986 4.23802 -0.159008 0
M  V30 4897 N 462.377 4.90879 -1.2195 0
M  V30 4898 C 460.675 4.45959 0.0602005 0
M  V30 4899 C 461.376 5.5546 -1.72738 0
M  V30 4900 N 460.352 5.33663 -1.03465 0
M  V30 4901 H 464.154 2.76632 -0.992582 0
M  V30 4902 H 461.668 1.49166 -0.642127 0
M  V30 4903 H 463.665 4.01179 1.13408 0
M  V30 4904 H 462.325 2.88828 1.48353 0
M  V30 4905 H 463.336 4.92497 -1.60209 0
M  V30 4906 H 460.013 4.08969 0.839664 0
M  V30 4907 H 461.403 6.18991 -2.61342 0
M  V30 4908 N 464.123 0.554532 1.47522 0
M  V30 4909 C 465.053 -0.182974 2.32782 0
M  V30 4910 C 466.034 -0.911377 1.43624 0
M  V30 4911 O 467.219 -0.892366 1.72483 0
M  V30 4912 C 464.349 -1.21513 3.25349 0
M  V30 4913 C 463.303 -0.603355 4.23726 0
M  V30 4914 C 462.629 -1.73995 5.05598 0
M  V30 4915 C 463.929 0.441121 5.20434 0
M  V30 4916 H 465.623 0.52882 2.94693 0
M  V30 4917 H 463.169 0.255759 1.41711 0
M  V30 4918 H 465.122 -1.73922 3.83835 0
M  V30 4919 H 463.846 -1.95683 2.61487 0
M  V30 4920 H 462.505 -0.10059 3.66462 0
M  V30 4921 H 462.153 -2.47063 4.38143 0
M  V30 4922 H 461.853 -1.3364 5.72201 0
M  V30 4923 H 463.377 -2.26735 5.66942 0
M  V30 4924 H 464.791 0.00319931 5.733 0
M  V30 4925 H 463.188 0.763402 5.95224 0
M  V30 4926 H 464.258 1.33799 4.66075 0
M  V30 4927 N 465.601 -1.54893 0.290851 0
M  V30 4928 C 466.847 -2.0023 -0.321867 0
M  V30 4929 C 467.18 -1.179 -1.54316 0
M  V30 4930 O 466.455 -0.25293 -1.92848 0
M  V30 4931 C 466.738 -3.53456 -0.688515 0
M  V30 4932 C 466.591 -4.46532 0.541209 0
M  V30 4933 C 467.91 -4.13057 -1.51895 0
M  V30 4934 H 465.029 -0.727891 -0.115515 0
M  V30 4935 H 467.671 -1.85722 0.400931 0
M  V30 4936 H 465.821 -3.6595 -1.30433 0
M  V30 4937 H 467.493 -4.4596 1.17973 0
M  V30 4938 H 465.736 -4.17545 1.17636 0
M  V30 4939 H 466.407 -5.51475 0.240675 0
M  V30 4940 H 468.883 -4.03937 -0.99872 0
M  V30 4941 H 467.759 -5.20448 -1.74429 0
M  V30 4942 H 468.02 -3.64284 -2.50498 0
M  V30 4943 N 467.08 -0.0183926 -1.57589 0
M  V30 4944 C 468.027 0.967022 -2.09565 0
M  V30 4945 C 468.997 1.32983 -0.995225 0
M  V30 4946 O 470.182 1.42501 -1.26878 0
M  V30 4947 C 467.322 2.24772 -2.61861 0
M  V30 4948 C 466.435 1.94232 -3.85873 0
M  V30 4949 C 465.57 3.16518 -4.26603 0
M  V30 4950 C 464.609 2.81748 -5.43401 0
M  V30 4951 N 463.746 3.96626 -5.79338 0
M  V30 4952 H 468.586 0.516874 -2.93483 0
M  V30 4953 H 466.123 0.243544 -1.4507 0
M  V30 4954 H 468.081 2.99667 -2.90268 0
M  V30 4955 H 466.711 2.67423 -1.8079 0
M  V30 4956 H 465.763 1.09625 -3.64262 0
M  V30 4957 H 467.075 1.64616 -4.70853 0
M  V30 4958 H 466.229 3.99743 -4.56389 0
M  V30 4959 H 464.968 3.49286 -3.40368 0
M  V30 4960 H 463.973 1.96933 -5.1332 0
M  V30 4961 H 465.198 2.50207 -6.31327 0
M  V30 4962 H 463.144 4.29257 -4.96059 0
M  V30 4963 H 463.061 3.70598 -6.58933 0
M  V30 4964 H 464.329 4.80586 -6.13724 0
M  V30 4965 N 468.558 1.5553 0.254621 0
M  V30 4966 C 469.786 1.81046 1.00149 0
M  V30 4967 C 470.201 0.593047 1.79244 0
M  V30 4968 O 469.558 -0.438196 1.77161 0
M  V30 4969 C 469.609 3.04684 1.94551 0
M  V30 4970 O 469.33 4.21725 1.18658 0
M  V30 4971 C 470.831 3.42943 2.80901 0
M  V30 4972 H 468.051 0.602653 0.295044 0
M  V30 4973 H 470.595 2.02576 0.279842 0
M  V30 4974 H 468.75 2.85226 2.62154 0
M  V30 4975 H 469.164 4.91746 1.82445 0
M  V30 4976 H 470.638 4.32576 3.42902 0
M  V30 4977 H 471.115 2.63176 3.51617 0
M  V30 4978 H 471.721 3.64724 2.18762 0
M  V30 4979 N 470.036 -0.519951 1.48776 0
M  V30 4980 C 471.313 -1.28123 1.47797 0
M  V30 4981 C 471.693 -2.10196 0.195157 0
M  V30 4982 O 471.041 -2.13167 -0.822925 0
M  V30 4983 C 471.251 -2.15413 2.74587 0
M  V30 4984 C 472.599 -2.75225 3.23321 0
M  V30 4985 O 473.623 -2.25694 2.75574 0
M  V30 4986 O 472.482 -3.65346 4.06429 0
M  V30 4987 H 469.576 -0.578793 0.590701 0
M  V30 4988 H 472.122 -0.535779 1.6102 0
M  V30 4989 H 470.894 -1.54617 3.59457 0
M  V30 4990 H 470.517 -2.97186 2.64132 0
M  V30 4991 N 471.514 -1.37532 -0.769588 0
M  V30 4992 C 472.763 -1.32183 -1.5235 0
M  V30 4993 C 473.076 0.0906555 -1.9539 0
M  V30 4994 O 474.282 0.266628 -2.70188 0
M  V30 4995 C 472.738 -2.32029 -2.75119 0
M  V30 4996 C 472.346 -3.78816 -2.3917 0
M  V30 4997 C 474.09 -2.35694 -3.53056 0
M  V30 4998 C 471.997 -4.70388 -3.58453 0
M  V30 4999 H 470.927 -0.491275 -0.571984 0
M  V30 5000 H 473.578 -1.63004 -0.842739 0
M  V30 5001 H 471.96 -1.94229 -3.45096 0
M  V30 5002 H 473.134 -4.25466 -1.76962 0
M  V30 5003 H 471.449 -3.78117 -1.74402 0
M  V30 5004 H 474.046 -3.01312 -4.41718 0
M  V30 5005 H 474.389 -1.37117 -3.93071 0
M  V30 5006 H 474.922 -2.72212 -2.90078 0
M  V30 5007 H 471.661 -5.70102 -3.23518 0
M  V30 5008 H 471.181 -4.28442 -4.19758 0
M  V30 5009 H 472.86 -4.87628 -4.25239 0
M  V30 5010 N 472.992 0.995999 -1.22138 0
M  V30 5011 C 474.403 1.54961 -1.04135 0
M  V30 5012 C 474.754 1.92159 0.396147 0
M  V30 5013 O 473.879 1.74435 1.28069 0
M  V30 5014 C 474.474 2.81581 -1.88408 0
M  V30 5015 C 473.033 3.33396 -1.74712 0
M  V30 5016 C 472.18 2.06509 -1.85066 0
M  V30 5017 H 475.131 0.817436 -1.36028 0
M  V30 5018 H 475.152 3.53822 -1.39966 0
M  V30 5019 H 474.664 2.54476 -2.93025 0
M  V30 5020 H 472.765 3.65416 -0.728159 0
M  V30 5021 H 472.878 4.04208 -2.57202 0
M  V30 5022 H 471.242 2.19925 -1.28472 0
M  V30 5023 H 472.025 1.81804 -2.91208 0
M  V30 5024 N 474.47 1.03057 1.19235 0
M  V30 5025 C 475.886 0.747947 1.40989 0
M  V30 5026 C 476.086 -0.666752 1.90149 0
M  V30 5027 O 475.142 -1.43249 2.07933 0
M  V30 5028 C 476.455 1.7855 2.41951 0
M  V30 5029 C 478.003 1.80524 2.55695 0
M  V30 5030 C 478.478 2.83243 3.59913 0
M  V30 5031 N 479.969 2.8207 3.67411 0
M  V30 5032 C 480.704 3.58204 4.47747 0
M  V30 5033 N 480.2 4.44057 5.31775 0
M  V30 5034 N 481.993 3.46738 4.42413 0
M  V30 5035 H 474.144 1.94367 0.856468 0
M  V30 5036 H 476.407 0.840412 0.438647 0
M  V30 5037 H 476.113 2.79973 2.12857 0
M  V30 5038 H 475.987 1.6092 3.41152 0
M  V30 5039 H 478.374 0.79778 2.84112 0
M  V30 5040 H 478.455 2.02229 1.56643 0
M  V30 5041 H 478.099 3.84161 3.32239 0
M  V30 5042 H 478.029 2.58795 4.5862 0
M  V30 5043 H 480.52 2.19803 3.074 0
M  V30 5044 H 480.833 4.98884 5.90199 0
M  V30 5045 H 479.178 4.48129 5.3123 0
M  V30 5046 H 482.369 2.79077 3.75811 0
M  V30 5047 H 482.542 4.06322 5.04783 0
M  V30 5048 N 475.948 -1.35272 0.808662 0
M  V30 5049 C 477.178 -2.02652 0.401953 0
M  V30 5050 C 477.586 -1.6108 -0.992462 0
M  V30 5051 O 476.929 -0.804984 -1.65123 0
M  V30 5052 C 476.991 -3.57174 0.408246 0
M  V30 5053 C 476.655 -4.22019 1.75353 0
M  V30 5054 C 477.652 -4.43552 2.71215 0
M  V30 5055 C 475.337 -4.59093 2.03811 0
M  V30 5056 C 477.331 -5.01264 3.93717 0
M  V30 5057 C 475.018 -5.16519 3.26576 0
M  V30 5058 C 476.016 -5.37546 4.21347 0
M  V30 5059 O 475.704 -5.93761 5.41944 0
M  V30 5060 H 475.436 -0.656495 0.161216 0
M  V30 5061 H 477.99 -1.73829 1.0942 0
M  V30 5062 H 476.22 -3.85197 -0.340608 0
M  V30 5063 H 477.909 -4.05893 0.0235623 0
M  V30 5064 H 478.675 -4.15288 2.50522 0
M  V30 5065 H 474.554 -4.42039 1.30854 0
M  V30 5066 H 478.098 -5.17592 4.67701 0
M  V30 5067 H 473.995 -5.4421 3.47139 0
M  V30 5068 H 474.763 -6.1221 5.43269 0
M  V30 5069 N 477.426 -0.562348 -1.47226 0
M  V30 5070 C 478.675 -0.038041 -2.01664 0
M  V30 5071 C 478.988 1.32199 -1.44162 0
M  V30 5072 O 480.194 1.9365 -1.90294 0
M  V30 5073 C 478.65 -0.0174958 -3.59896 0
M  V30 5074 C 478.258 -1.3746 -4.2639 0
M  V30 5075 C 480.002 0.453934 -4.22066 0
M  V30 5076 C 477.909 -1.31289 -5.76643 0
M  V30 5077 H 476.839 -0.0104511 -0.753928 0
M  V30 5078 H 479.49 -0.710966 -1.69167 0
M  V30 5079 H 477.872 0.721182 -3.89378 0
M  V30 5080 H 479.046 -2.1314 -4.08544 0
M  V30 5081 H 477.361 -1.78438 -3.7623 0
M  V30 5082 H 479.958 0.518584 -5.32179 0
M  V30 5083 H 480.301 1.46706 -3.89594 0
M  V30 5084 H 480.834 -0.230044 -3.97134 0
M  V30 5085 H 477.573 -2.30217 -6.13743 0
M  V30 5086 H 477.093 -0.597973 -5.96812 0
M  V30 5087 H 478.772 -1.01713 -6.38955 0
M  V30 5088 N 478.904 1.54736 -0.299062 0
M  V30 5089 C 480.153 1.99279 0.311549 0
M  V30 5090 C 480.466 1.19107 1.55154 0
M  V30 5091 O 481.672 1.53908 2.23662 0
M  V30 5092 C 480.128 3.54768 0.605632 0
M  V30 5093 C 479.736 4.43746 -0.615914 0
M  V30 5094 C 481.48 4.07841 1.17754 0
M  V30 5095 C 479.387 5.90663 -0.29509 0
M  V30 5096 H 478.317 0.744359 0.120187 0
M  V30 5097 H 480.968 1.78919 -0.407464 0
M  V30 5098 H 479.35 3.71021 1.38419 0
M  V30 5099 H 480.524 4.39267 -1.39218 0
M  V30 5100 H 478.839 4.01434 -1.10633 0
M  V30 5101 H 481.436 5.15174 1.43179 0
M  V30 5102 H 481.779 3.58324 2.11918 0
M  V30 5103 H 482.312 3.95123 0.460739 0
M  V30 5104 H 479.051 6.44325 -1.20524 0
M  V30 5105 H 478.571 5.98155 0.44394 0
M  V30 5106 H 480.25 6.46916 0.104048 0
M  V30 5107 N 480.382 0.0267497 1.57577 0
M  V30 5108 C 481.798 -0.32962 1.56159 0
M  V30 5109 C 481.998 -1.73059 1.03213 0
M  V30 5110 O 481.054 -2.43233 0.677804 0
M  V30 5111 C 482.367 -0.18039 3.00158 0
M  V30 5112 C 483.915 -0.253334 3.11973 0
M  V30 5113 C 484.39 -0.132921 4.57807 0
M  V30 5114 N 485.881 -0.189979 4.6281 0
M  V30 5115 C 486.616 -0.120554 5.73273 0
M  V30 5116 N 486.112 -0.000180315 6.928 0
M  V30 5117 N 487.905 -0.174369 5.61829 0
M  V30 5118 H 480.056 0.942896 1.90324 0
M  V30 5119 H 482.319 0.3639 0.875375 0
M  V30 5120 H 482.025 0.784576 3.42837 0
M  V30 5121 H 481.899 -0.951565 3.65 0
M  V30 5122 H 484.286 -1.20876 2.69208 0
M  V30 5123 H 484.367 0.548177 2.49857 0
M  V30 5124 H 484.011 0.819073 5.01252 0
M  V30 5125 H 483.941 -0.953264 5.179 0
M  V30 5126 H 486.432 -0.283257 3.76837 0
M  V30 5127 H 486.745 0.0461666 7.72786 0
M  V30 5128 H 485.09 0.034569 6.94991 0
M  V30 5129 H 488.281 -0.266794 4.67339 0
M  V30 5130 H 488.454 -0.116802 6.47895 0
M  V30 5131 N 481.861 -1.55662 -0.24637 0
M  V30 5132 C 482.793 -1.86811 -1.32794 0
M  V30 5133 C 483.806 -0.754413 -1.44265 0
M  V30 5134 O 484.995 -1.03253 -1.45606 0
M  V30 5135 C 482.095 -2.0397 -2.70646 0
M  V30 5136 C 481.268 -3.34832 -2.81436 0
M  V30 5137 C 480.327 -3.41727 -4.00136 0
M  V30 5138 O 479.353 -4.14934 -3.89639 0
M  V30 5139 N 480.555 -2.71058 -5.1333 0
M  V30 5140 H 483.32 -2.80174 -1.06409 0
M  V30 5141 H 480.881 -1.55906 -0.43647 0
M  V30 5142 H 482.873 -2.05924 -3.48393 0
M  V30 5143 H 481.443 -1.1735 -2.89738 0
M  V30 5144 H 480.663 -3.4519 -1.90361 0
M  V30 5145 H 481.951 -4.21085 -2.85595 0
M  V30 5146 H 481.349 -2.11314 -5.2475 0
M  V30 5147 H 479.906 -2.78704 -5.89209 0
M  V30 5148 N 483.339 0.512053 -1.4905 0
M  V30 5149 C 484.269 1.62365 -1.67809 0
M  V30 5150 C 485.25 1.61737 -0.526809 0
M  V30 5151 O 486.435 1.78651 -0.761404 0
M  V30 5152 C 483.565 3.00895 -1.73435 0
M  V30 5153 C 482.519 3.16387 -2.88242 0
M  V30 5154 C 481.845 4.56157 -2.78971 0
M  V30 5155 C 483.145 2.97457 -4.29321 0
M  V30 5156 H 484.839 1.46921 -2.60873 0
M  V30 5157 H 482.385 0.705379 -1.2554 0
M  V30 5158 H 484.338 3.78549 -1.85145 0
M  V30 5159 H 483.062 3.17403 -0.769619 0
M  V30 5160 H 481.721 2.41155 -2.76116 0
M  V30 5161 H 481.369 4.69525 -1.8043 0
M  V30 5162 H 481.069 4.67465 -3.5602 0
M  V30 5163 H 482.593 5.35886 -2.92675 0
M  V30 5164 H 484.007 3.64888 -4.42187 0
M  V30 5165 H 482.404 3.20245 -5.07507 0
M  V30 5166 H 483.474 1.93692 -4.44535 0
M  V30 5167 N 484.817 1.37938 0.762283 0
M  V30 5168 C 486.065 1.33404 1.51815 0
M  V30 5169 C 486.386 -0.0780975 1.94844 0
M  V30 5170 O 485.656 -1.02405 1.67003 0
M  V30 5171 H 484.236 0.490839 0.563104 0
M  V30 5172 H 486.898 1.72527 0.906669 0
M  V30 5173 H 485.994 1.97926 2.41313 0
M  V30 5174 N 486.295 -0.989507 1.22664 0
M  V30 5175 C 487.225 -2.09847 1.02404 0
M  V30 5176 C 488.206 -1.70007 -0.0561303 0
M  V30 5177 O 489.391 -1.93906 0.106748 0
M  V30 5178 C 486.521 -3.41996 0.604663 0
M  V30 5179 C 485.475 -3.95699 1.63115 0
M  V30 5180 C 484.801 -5.23936 1.0675 0
M  V30 5181 C 486.101 -4.25999 3.02196 0
M  V30 5182 H 487.795 -2.27054 1.95158 0
M  V30 5183 H 485.341 -1.09111 0.939727 0
M  V30 5184 H 487.294 -4.1899 0.45002 0
M  V30 5185 H 486.018 -3.24626 -0.35855 0
M  V30 5186 H 484.677 -3.2084 1.77362 0
M  V30 5187 H 484.325 -5.02909 0.0955422 0
M  V30 5188 H 484.025 -5.60833 1.75328 0
M  V30 5189 H 485.549 -6.0356 0.924516 0
M  V30 5190 H 486.963 -4.93777 2.91303 0
M  V30 5191 H 485.36 -4.74076 3.67929 0
M  V30 5192 H 486.43 -3.33636 3.51873 0
M  V30 5193 N 487.773 -1.03688 -1.18687 0
M  V30 5194 C 489.001 -0.757918 -1.92518 0
M  V30 5195 C 489.416 0.684398 -1.75959 0
M  V30 5196 O 488.773 1.46617 -1.08673 0
M  V30 5197 C 488.824 -1.10985 -3.44042 0
M  V30 5198 O 488.545 -2.49554 -3.60076 0
M  V30 5199 C 490.046 -0.854844 -4.3498 0
M  V30 5200 H 487.266 -0.276699 -0.611293 0
M  V30 5201 H 489.81 -1.38352 -1.50595 0
M  V30 5202 H 487.965 -0.529279 -3.83767 0
M  V30 5203 H 488.379 -2.6291 -4.53849 0
M  V30 5204 H 489.853 -1.15098 -5.39867 0
M  V30 5205 H 490.33 0.210507 -4.38695 0
M  V30 5206 H 490.936 -1.41853 -4.00946 0
M  V30 5207 N 489.251 1.34841 -0.815825 0
M  V30 5208 C 490.667 1.51543 -0.500697 0
M  V30 5209 C 490.867 1.76261 0.976444 0
M  V30 5210 O 489.923 1.8094 1.76117 0
M  V30 5211 C 491.236 2.68487 -1.35407 0
M  V30 5212 C 492.784 2.82368 -1.35046 0
M  V30 5213 C 493.259 4.02347 -2.18816 0
M  V30 5214 N 494.75 4.09542 -2.16402 0
M  V30 5215 C 495.485 5.01517 -2.77971 0
M  V30 5216 N 494.981 5.98763 -3.48503 0
M  V30 5217 N 496.774 4.94334 -2.67563 0
M  V30 5218 H 488.925 1.17055 -1.77234 0
M  V30 5219 H 491.188 0.573481 -0.754866 0
M  V30 5220 H 490.894 2.56829 -2.40274 0
M  V30 5221 H 490.768 3.63321 -1.01377 0
M  V30 5222 H 493.155 2.93471 -0.309604 0
M  V30 5223 H 493.236 1.88363 -1.73069 0
M  V30 5224 H 492.88 3.92004 -3.22948 0
M  V30 5225 H 492.81 4.95551 -1.78148 0
M  V30 5226 H 495.301 3.39932 -1.65091 0
M  V30 5227 H 495.614 6.6556 -3.92747 0
M  V30 5228 H 493.959 5.98909 -3.52609 0
M  V30 5229 H 497.15 4.1732 -2.12041 0
M  V30 5230 H 497.323 5.6582 -3.15834 0
M  V30 5231 N 490.729 0.570148 1.46925 0
M  V30 5232 C 492.006 -0.0153259 1.95594 0
M  V30 5233 C 492.386 -1.47232 1.51281 0
M  V30 5234 O 491.734 -2.15574 0.757624 0
M  V30 5235 C 491.944 0.143624 3.48704 0
M  V30 5236 C 493.292 0.00494484 4.246 0
M  V30 5237 O 494.316 0.0718214 3.56128 0
M  V30 5238 O 493.175 -0.141175 5.46318 0
M  V30 5239 H 490.269 -0.0568819 0.825041 0
M  V30 5240 H 492.815 0.637583 1.57267 0
M  V30 5241 H 491.587 1.15699 3.73804 0
M  V30 5242 H 491.21 -0.5463 3.93829 0
M  V30 5243 N 492.207 -1.54576 0.307264 0
M  V30 5244 C 493.618 -1.8579 -0.184121 0
M  V30 5245 C 493.969 -1.22914 -1.52927 0
M  V30 5246 O 493.094 -0.529126 -2.09831 0
M  V30 5247 C 493.689 -3.37081 -0.340862 0
M  V30 5248 C 492.248 -3.68304 -0.776465 0
M  V30 5249 C 491.395 -2.77076 0.111503 0
M  V30 5250 H 494.346 -1.49656 0.528078 0
M  V30 5251 H 494.367 -3.61922 -1.17443 0
M  V30 5252 H 493.879 -3.82815 0.638309 0
M  V30 5253 H 491.98 -3.28092 -1.76596 0
M  V30 5254 H 492.093 -4.75434 -0.591512 0
M  V30 5255 H 490.457 -2.51374 -0.410256 0
M  V30 5256 H 491.24 -3.25632 1.08714 0
M  V30 5257 N 493.685 -0.035106 -1.57561 0
M  V30 5258 C 494.932 0.642229 -1.92046 0
M  V30 5259 C 495.26 1.7179 -0.91206 0
M  V30 5260 O 494.515 1.95544 0.0781153 0
M  V30 5261 C 494.814 1.29149 -3.3325 0
M  V30 5262 C 494.48 0.345604 -4.49574 0
M  V30 5263 C 493.142 0.0852775 -4.81124 0
M  V30 5264 C 495.494 -0.303569 -5.20315 0
M  V30 5265 C 492.822 -0.831927 -5.80772 0
M  V30 5266 C 495.174 -1.20886 -6.20942 0
M  V30 5267 C 493.838 -1.47802 -6.50931 0
M  V30 5268 H 493.108 0.235008 -0.702746 0
M  V30 5269 H 495.755 -0.0981529 -1.91248 0
M  V30 5270 H 494.06 2.10676 -3.30337 0
M  V30 5271 H 495.757 1.82223 -3.57205 0
M  V30 5272 H 492.347 0.558683 -4.24943 0
M  V30 5273 H 496.531 -0.115515 -4.96166 0
M  V30 5274 H 491.787 -1.0481 -6.02349 0
M  V30 5275 H 495.961 -1.71804 -6.74875 0
M  V30 5276 H 493.588 -2.19039 -7.2796 0
M  V30 5277 N 495.163 1.55791 0.238111 0
M  V30 5278 C 496.574 1.68383 0.806472 0
M  V30 5279 C 496.925 0.634157 1.85669 0
M  V30 5280 O 496.05 -0.217913 2.153 0
M  V30 5281 C 496.645 3.05268 1.46959 0
M  V30 5282 C 495.204 3.1977 1.98555 0
M  V30 5283 C 494.351 2.64279 0.839763 0
M  V30 5284 H 497.302 1.58694 0.0137535 0
M  V30 5285 H 497.323 3.00203 2.33792 0
M  V30 5286 H 496.835 3.81643 0.704993 0
M  V30 5287 H 494.936 2.48234 2.77868 0
M  V30 5288 H 495.049 4.26788 2.17689 0
M  V30 5289 H 493.413 2.22329 1.24265 0
M  V30 5290 H 494.196 3.43187 0.0881032 0
M  V30 5291 N 496.642 -0.504142 1.49319 0
M  V30 5292 C 497.919 -1.26548 1.49147 0
M  V30 5293 C 498.299 -2.09977 0.21744 0
M  V30 5294 O 497.647 -2.14028 -0.800269 0
M  V30 5295 C 497.857 -2.12489 2.76857 0
M  V30 5296 C 499.205 -2.7178 3.26222 0
M  V30 5297 O 500.229 -2.22758 2.77952 0
M  V30 5298 O 499.088 -3.61015 4.10281 0
M  V30 5299 H 496.182 -0.572495 0.596806 0
M  V30 5300 H 498.728 -0.51867 1.61579 0
M  V30 5301 H 497.5 -1.50796 3.61077 0
M  V30 5302 H 497.123 -2.94368 2.6727 0
M  V30 5303 N 498.12 -1.38341 -0.754957 0
M  V30 5304 C 499.366 -1.34672 -1.51628 0
M  V30 5305 C 499.699 0.0636036 -1.94096 0
M  V30 5306 O 498.974 1.0245 -1.6533 0
M  V30 5307 C 499.257 -2.30116 -2.76981 0
M  V30 5308 C 499.11 -3.80003 -2.4066 0
M  V30 5309 C 500.429 -2.23715 -3.78998 0
M  V30 5310 H 497.548 -0.490517 -0.550056 0
M  V30 5311 H 500.19 -1.69178 -0.864807 0
M  V30 5312 H 498.34 -2.00821 -3.3257 0
M  V30 5313 H 500.012 -4.19966 -1.90856 0
M  V30 5314 H 498.255 -3.97751 -1.73137 0
M  V30 5315 H 498.926 -4.42244 -3.30339 0
M  V30 5316 H 501.402 -2.49574 -3.32945 0
M  V30 5317 H 500.278 -2.9261 -4.64403 0
M  V30 5318 H 500.539 -1.23554 -4.24484 0
M  V30 5319 N 499.598 0.982988 -1.23187 0
M  V30 5320 C 500.844 1.72648 -1.06398 0
M  V30 5321 C 501.177 1.90066 0.398561 0
M  V30 5322 O 500.452 1.45105 1.29518 0
M  V30 5323 C 500.735 3.12627 -1.78707 0
M  V30 5324 C 500.588 3.02795 -3.32618 0
M  V30 5325 C 501.907 4.11997 -1.54747 0
M  V30 5326 H 499.026 0.626649 -0.387918 0
M  V30 5327 H 501.668 1.14455 -1.51658 0
M  V30 5328 H 499.818 3.62308 -1.40234 0
M  V30 5329 H 501.49 2.60659 -3.80598 0
M  V30 5330 H 499.733 2.39362 -3.61785 0
M  V30 5331 H 500.404 4.01893 -3.78399 0
M  V30 5332 H 502.88 3.71114 -1.88186 0
M  V30 5333 H 501.756 5.08037 -2.07821 0
M  V30 5334 H 502.017 4.39462 -0.482249 0
M  V30 5335 N 501.076 1.04316 1.18135 0
M  V30 5336 C 502.026 0.606731 2.19779 0
M  V30 5337 C 503.01 -0.352144 1.56999 0
M  V30 5338 O 504.202 -0.170795 1.76174 0
M  V30 5339 C 501.331 -0.0262443 3.4329 0
M  V30 5340 C 500.417 0.955928 4.13186 0
M  V30 5341 N 500.808 2.12395 4.59045 0
M  V30 5342 C 499.106 0.782473 4.39082 0
M  V30 5343 C 499.807 2.74458 5.12882 0
M  V30 5344 N 498.783 2.02316 5.04548 0
M  V30 5345 H 502.585 1.49679 2.5293 0
M  V30 5346 H 500.099 0.912088 1.34368 0
M  V30 5347 H 502.096 -0.356617 4.15372 0
M  V30 5348 H 500.756 -0.911811 3.11635 0
M  V30 5349 H 501.767 2.50272 4.53414 0
M  V30 5350 H 498.444 -0.0527906 4.17467 0
M  V30 5351 H 499.834 3.73459 5.5855 0
M  V30 5352 N 502.554 -1.34406 0.822964 0
M  V30 5353 C 503.484 -2.32052 0.259608 0
M  V30 5354 C 504.465 -1.58243 -0.623961 0
M  V30 5355 O 505.65 -1.86224 -0.55083 0
M  V30 5356 C 502.78 -3.42434 -0.579314 0
M  V30 5357 C 501.734 -4.27499 0.20712 0
M  V30 5358 C 501.06 -5.29349 -0.754547 0
M  V30 5359 C 502.36 -5.02758 1.41533 0
M  V30 5360 H 504.054 -2.79418 1.07545 0
M  V30 5361 H 501.6 -1.34338 0.518593 0
M  V30 5362 H 503.553 -4.0976 -0.983612 0
M  V30 5363 H 502.277 -2.93717 -1.4282 0
M  V30 5364 H 500.936 -3.61776 0.592787 0
M  V30 5365 H 500.584 -4.76895 -1.59939 0
M  V30 5366 H 500.284 -5.8714 -0.232561 0
M  V30 5367 H 501.808 -5.99544 -1.1567 0
M  V30 5368 H 503.222 -5.62938 1.08504 0
M  V30 5369 H 501.619 -5.70123 1.87296 0
M  V30 5370 H 502.689 -4.32451 2.1935 0
M  V30 5371 N 504.032 -0.577932 -1.46621 0
M  V30 5372 C 504.942 0.160651 -2.34049 0
M  V30 5373 C 505.958 0.890911 -1.49462 0
M  V30 5374 O 507.134 0.855166 -1.82343 0
M  V30 5375 C 504.199 1.16447 -3.26559 0
M  V30 5376 C 503.26 0.4394 -4.27045 0
M  V30 5377 C 502.493 1.3954 -5.15135 0
M  V30 5378 O 502.716 2.63162 -5.06065 0
M  V30 5379 O 501.65 0.908585 -5.95003 0
M  V30 5380 H 505.476 -0.557057 -2.98547 0
M  V30 5381 H 503.061 -0.338369 -1.45518 0
M  V30 5382 H 504.943 1.7434 -3.83645 0
M  V30 5383 H 503.618 1.86373 -2.64663 0
M  V30 5384 H 502.525 -0.181247 -3.73661 0
M  V30 5385 H 503.858 -0.218799 -4.91713 0
M  V30 5386 N 505.51 1.54411 -0.315457 0
M  V30 5387 C 506.42 2.27737 0.56329 0
M  V30 5388 C 507.436 1.31787 1.13614 0
M  V30 5389 O 508.612 1.64791 1.15784 0
M  V30 5390 C 505.677 3.01478 1.71207 0
M  V30 5391 C 504.738 4.12997 1.17185 0
M  V30 5392 C 503.971 4.83212 2.26588 0
M  V30 5393 O 504.194 4.52884 3.46775 0
M  V30 5394 O 503.128 5.70299 1.92463 0
M  V30 5395 H 506.954 3.03683 -0.0319614 0
M  V30 5396 H 504.539 1.49178 -0.0814188 0
M  V30 5397 H 506.421 3.47683 2.38106 0
M  V30 5398 H 505.096 2.28414 2.29366 0
M  V30 5399 H 504.003 3.71159 0.468174 0
M  V30 5400 H 505.336 4.8808 0.635501 0
M  V30 5401 N 506.988 0.0434614 1.5754 0
M  V30 5402 C 507.92 -0.962586 2.08007 0
M  V30 5403 C 508.933 -1.27972 1.00634 0
M  V30 5404 O 510.122 -1.24186 1.28219 0
M  V30 5405 C 507.222 -2.28621 2.50171 0
M  V30 5406 C 506.395 -2.15214 3.80791 0
M  V30 5407 C 505.454 -3.30633 4.09351 0
M  V30 5408 O 504.48 -3.0688 4.79388 0
M  V30 5409 N 505.682 -4.54873 3.60654 0
M  V30 5410 H 508.447 -0.531891 2.94942 0
M  V30 5411 H 506.008 -0.142965 1.61268 0
M  V30 5412 H 508 -3.04689 2.66359 0
M  V30 5413 H 506.57 -2.63283 1.68525 0
M  V30 5414 H 505.79 -1.23785 3.74261 0
M  V30 5415 H 507.078 -2.03475 4.66343 0
M  V30 5416 H 506.476 -4.77063 3.04019 0
M  V30 5417 H 505.033 -5.2806 3.82094 0
M  V30 5418 N 508.466 -1.55915 -0.229846 0
M  V30 5419 C 509.743 -1.6932 -0.979295 0
M  V30 5420 C 510.123 -0.588321 -2.02736 0
M  V30 5421 O 509.471 0.40586 -2.24867 0
M  V30 5422 C 509.681 -3.10305 -1.59724 0
M  V30 5423 C 511.029 -3.6945 -2.09264 0
M  V30 5424 O 512.053 -3.13214 -1.69633 0
M  V30 5425 O 510.912 -4.68072 -2.82082 0
M  V30 5426 H 508.006 -0.689314 -0.456919 0
M  V30 5427 H 510.552 -1.68238 -0.222283 0
M  V30 5428 H 509.324 -3.82177 -0.840039 0
M  V30 5429 H 508.947 -3.1547 -2.42001 0
M  V30 5430 N 509.944 0.496216 -1.49584 0
M  V30 5431 C 511.169 1.27865 -1.63295 0
M  V30 5432 C 511.594 1.85592 -0.306156 0
M  V30 5433 O 510.952 1.66092 0.726851 0
M  V30 5434 C 511 2.38128 -2.7079 0
M  V30 5435 O 510.104 3.42108 -2.30296 0
M  V30 5436 H 509.445 0.377279 -0.546403 0
M  V30 5437 H 511.975 0.593497 -1.95803 0
M  V30 5438 H 511.985 2.8382 -2.93104 0
M  V30 5439 H 510.66 1.95479 -3.67098 0
M  V30 5440 H 509.237 3.02301 -2.18331 0
M  V30 5441 N 511.423 1.38739 0.74761 0
M  V30 5442 C 512.671 1.35007 1.50391 0
M  V30 5443 C 512.992 -0.0574274 1.94915 0
M  V30 5444 O 512.262 -1.00628 1.6808 0
M  V30 5445 H 510.842 0.496784 0.557866 0
M  V30 5446 H 513.504 1.73479 0.888319 0
M  V30 5447 H 512.6 2.00474 2.392 0
M  V30 5448 N 512.901 -0.976442 1.23707 0
M  V30 5449 C 514.149 -1.71487 1.06942 0
M  V30 5450 C 514.47 -1.9098 -0.393897 0
M  V30 5451 O 513.74 -1.48128 -1.28198 0
M  V30 5452 H 512.32 -0.635425 0.392739 0
M  V30 5453 H 514.982 -1.17515 1.55487 0
M  V30 5454 H 514.078 -2.70286 1.56051 0
M  V30 5455 N 514.379 -1.04941 -1.1758 0
M  V30 5456 C 515.604 -0.778253 -1.92245 0
M  V30 5457 C 516.029 0.659707 -1.76152 0
M  V30 5458 O 515.387 1.45803 -1.07755 0
M  V30 5459 C 515.435 -1.16051 -3.41416 0
M  V30 5460 O 514.539 -0.291153 -4.11371 0
M  V30 5461 H 513.88 -0.285619 -0.599431 0
M  V30 5462 H 516.41 -1.40159 -1.49052 0
M  V30 5463 H 516.42 -1.12619 -3.92149 0
M  V30 5464 H 515.095 -2.208 -3.52449 0
M  V30 5465 H 513.672 -0.385851 -3.70898 0
M  V30 5466 N 515.857 1.33968 -0.830081 0
M  V30 5467 C 516.805 2.31301 -0.245435 0
M  V30 5468 C 517.799 1.57734 0.617762 0
M  V30 5469 O 519.005 1.72674 0.508303 0
M  V30 5470 H 515.38 0.749552 -0.0606316 0
M  V30 5471 H 517.351 2.78129 -1.08105 0
M  V30 5472 C 516.1 3.42961 0.572084 0
M  V30 5473 H 515.423 3.99714 -0.0828118 0
M  V30 5474 H 516.863 4.13286 0.94715 0
M  V30 5475 C 515.322 2.88043 1.74737 0
M  V30 5476 O 515.852 2.83508 2.8458 0
M  V30 5477 N 514.058 2.44768 1.56642 0
M  V30 5478 H 513.605 2.48656 0.672901 0
M  V30 5479 H 513.563 2.08375 2.3543 0
M  V30 5480 N 517.335 0.585699 1.46312 0
M  V30 5481 C 518.563 0.0781299 2.06752 0
M  V30 5482 C 518.978 -1.22812 1.43396 0
M  V30 5483 O 518.335 -1.74318 0.540314 0
M  V30 5484 C 518.386 -0.0911927 3.61385 0
M  V30 5485 O 518.107 1.16336 4.22371 0
M  V30 5486 C 519.608 -0.632765 4.38761 0
M  V30 5487 H 516.828 0.0588188 0.668417 0
M  V30 5488 H 519.372 0.807218 1.87894 0
M  V30 5489 H 517.527 -0.770514 3.7966 0
M  V30 5490 H 517.941 0.979082 5.15281 0
M  V30 5491 H 519.415 -0.70041 5.47538 0
M  V30 5492 H 519.892 -1.65039 4.07012 0
M  V30 5493 H 520.498 0.0117856 4.25298 0
M  V30 5494 N 518.813 -1.54241 0.323641 0
M  V30 5495 C 520.224 -1.85975 -0.164405 0
M  V30 5496 C 520.575 -1.24529 -1.51615 0
M  V30 5497 O 519.7 -0.551351 -2.09258 0
M  V30 5498 C 520.295 -3.37424 -0.305091 0
M  V30 5499 C 518.854 -3.69107 -0.737358 0
M  V30 5500 C 518.001 -2.76942 0.140884 0
M  V30 5501 H 520.952 -1.49088 0.543922 0
M  V30 5502 H 520.973 -3.63147 -1.13598 0
M  V30 5503 H 520.485 -3.82116 0.678876 0
M  V30 5504 H 518.586 -3.29947 -1.73107 0
M  V30 5505 H 518.699 -4.76035 -0.541053 0
M  V30 5506 H 517.063 -2.51795 -0.383572 0
M  V30 5507 H 517.846 -3.24461 1.12162 0
M  V30 5508 N 520.291 -0.0518155 -1.57515 0
M  V30 5509 C 521.201 0.937539 -2.15052 0
M  V30 5510 C 522.217 1.34121 -1.10849 0
M  V30 5511 O 523.393 1.418 -1.4302 0
M  V30 5512 C 520.458 2.19379 -2.68466 0
M  V30 5513 C 519.519 1.84841 -3.87469 0
M  V30 5514 C 518.752 3.04477 -4.38326 0
M  V30 5515 O 518.975 4.17868 -3.88256 0
M  V30 5516 O 517.909 2.85453 -5.29906 0
M  V30 5517 H 521.735 0.478201 -2.99912 0
M  V30 5518 H 519.32 0.17012 -1.48428 0
M  V30 5519 H 521.202 2.93084 -3.02787 0
M  V30 5520 H 519.877 2.64449 -1.86677 0
M  V30 5521 H 518.784 1.08449 -3.58036 0
M  V30 5522 H 520.117 1.44569 -4.7049 0
M  V30 5523 N 521.769 1.56035 0.221574 0
M  V30 5524 C 522.701 1.889 1.29805 0
M  V30 5525 C 523.714 0.777269 1.43047 0
M  V30 5526 O 524.903 1.05557 1.43945 0
M  V30 5527 C 522.003 2.0825 2.67367 0
M  V30 5528 C 521.176 3.39267 2.76073 0
M  V30 5529 C 520.235 3.48049 3.94649 0
M  V30 5530 O 519.261 4.2108 3.82988 0
M  V30 5531 N 520.463 2.79191 5.08953 0
M  V30 5532 H 523.228 2.81831 1.01938 0
M  V30 5533 H 520.789 1.5658 0.411612 0
M  V30 5534 H 522.781 2.11441 3.45072 0
M  V30 5535 H 521.351 1.21944 2.87834 0
M  V30 5536 H 520.571 3.48175 1.84846 0
M  V30 5537 H 521.859 4.25575 2.7886 0
M  V30 5538 H 521.257 2.19635 5.21322 0
M  V30 5539 H 519.814 2.88043 5.84701 0
M  V30 5540 N 523.247 -0.488276 1.49845 0
M  V30 5541 C 524.524 -1.24959 1.50481 0
M  V30 5542 C 524.904 -2.09735 0.239698 0
M  V30 5543 O 524.252 -2.14865 -0.777524 0
M  V30 5544 C 524.462 -2.0954 2.79095 0
M  V30 5545 C 525.81 -2.68305 3.29086 0
M  V30 5546 O 526.834 -2.19797 2.80299 0
M  V30 5547 O 525.693 -3.56643 4.14087 0
M  V30 5548 H 522.787 -0.566133 0.602845 0
M  V30 5549 H 525.333 -0.501504 1.6212 0
M  V30 5550 H 524.105 -1.46958 3.62656 0
M  V30 5551 H 523.728 -2.91517 2.70377 0
M  V30 5552 N 524.725 -1.39134 -0.740242 0
M  V30 5553 C 526.002 -1.26584 -1.49117 0
M  V30 5554 C 526.382 0.126902 -2.10718 0
M  V30 5555 O 525.73 1.13765 -1.98166 0
M  V30 5556 C 525.94 -2.38619 -2.54681 0
M  V30 5557 C 527.288 -2.77685 -3.21211 0
M  V30 5558 O 528.312 -2.38029 -2.64991 0
M  V30 5559 O 527.171 -3.46115 -4.22926 0
M  V30 5560 H 524.265 -0.495769 -0.661923 0
M  V30 5561 H 526.811 -1.50995 -0.774514 0
M  V30 5562 H 525.583 -3.3175 -2.07504 0
M  V30 5563 H 525.206 -2.15845 -3.33911 0
M  V30 5564 N 526.204 0.969867 -1.24223 0
M  V30 5565 C 527.134 2.08191 -1.05729 0
M  V30 5566 C 528.115 1.70075 0.0290765 0
M  V30 5567 O 529.3 1.93712 -0.137583 0
M  V30 5568 C 526.43 3.40991 -0.658995 0
M  V30 5569 C 525.384 3.93054 -1.69389 0
M  V30 5570 C 524.71 5.22171 -1.15072 0
M  V30 5571 C 526.01 4.21137 -3.08935 0
M  V30 5572 H 527.704 2.23921 -1.98746 0
M  V30 5573 H 525.25 1.07602 -0.956967 0
M  V30 5574 H 527.203 4.18221 -0.51662 0
M  V30 5575 H 525.927 3.25155 0.30686 0
M  V30 5576 H 524.586 3.17977 -1.82444 0
M  V30 5577 H 524.234 5.02694 -0.175539 0
M  V30 5578 H 523.934 5.57973 -1.84229 0
M  V30 5579 H 525.458 6.02013 -1.02042 0
M  V30 5580 H 526.872 4.8908 -2.99121 0
M  V30 5581 H 525.269 4.68163 -3.75425 0
M  V30 5582 H 526.339 3.27996 -3.57137 0
M  V30 5583 N 527.682 1.05563 1.17022 0
M  V30 5584 C 528.907 0.788437 1.91829 0
M  V30 5585 C 529.332 -0.650356 1.76499 0
M  V30 5586 O 528.69 -1.45229 1.08527 0
M  V30 5587 C 528.738 1.1786 3.40795 0
M  V30 5588 O 527.842 0.312965 4.11211 0
M  V30 5589 H 527.183 0.288794 0.597908 0
M  V30 5590 H 529.713 1.40948 1.48307 0
M  V30 5591 H 529.723 1.14697 3.91546 0
M  V30 5592 H 528.398 2.22666 3.51273 0
M  V30 5593 H 526.975 0.405515 3.70689 0
M  V30 5594 N 529.16 -1.33526 0.837174 0
M  V30 5595 C 530.07 -2.33023 0.271568 0
M  V30 5596 C 531.086 -1.63272 -0.601514 0
M  V30 5597 O 532.262 -1.94939 -0.506038 0
M  V30 5598 C 529.327 -3.42382 -0.545448 0
M  V30 5599 C 528.388 -4.27857 0.351709 0
M  V30 5600 C 527.621 -5.31994 -0.426409 0
M  V30 5601 O 527.844 -5.45763 -1.65828 0
M  V30 5602 O 526.778 -6.01572 0.1987 0
M  V30 5603 H 530.604 -2.83256 1.09545 0
M  V30 5604 H 528.189 -1.36837 0.599655 0
M  V30 5605 H 530.071 -4.09122 -1.00979 0
M  V30 5606 H 528.746 -2.94369 -1.34641 0
M  V30 5607 H 527.653 -3.6399 0.863853 0
M  V30 5608 H 528.986 -4.79349 1.1174 0
M  V30 5609 N 530.638 -0.59345 -1.46 0
M  V30 5610 C 531.886 -0.082988 -2.0193 0
M  V30 5611 C 532.207 1.28569 -1.46612 0
M  V30 5612 O 531.477 1.84629 -0.654909 0
M  V30 5613 H 530.057 -0.0276882 -0.746487 0
M  V30 5614 H 532.719 -0.771657 -1.78973 0
M  V30 5615 H 531.815 -0.022079 -3.12092 0
M  V30 5616 N 532.116 1.54067 -0.331816 0
M  V30 5617 C 533.532 1.59587 0.0205388 0
M  V30 5618 C 533.732 1.34813 1.49759 0
M  V30 5619 O 532.788 1.13661 2.25471 0
M  V30 5620 C 534.101 2.97959 -0.405103 0
M  V30 5621 C 535.649 3.10964 -0.356454 0
M  V30 5622 C 536.124 4.51694 -0.757384 0
M  V30 5623 N 537.615 4.57709 -0.71111 0
M  V30 5624 C 538.35 5.64729 -0.993427 0
M  V30 5625 N 537.846 6.79652 -1.3433 0
M  V30 5626 N 539.639 5.54546 -0.918442 0
M  V30 5627 H 531.79 1.68426 -1.29407 0
M  V30 5628 H 534.053 0.78819 -0.526745 0
M  V30 5629 H 533.759 3.21115 -1.43451 0
M  V30 5630 H 533.633 3.76524 0.225692 0
M  V30 5631 H 536.02 2.87538 0.663763 0
M  V30 5632 H 536.101 2.34484 -1.02229 0
M  V30 5633 H 535.745 4.75853 -1.77555 0
M  V30 5634 H 535.675 5.26555 -0.0691444 0
M  V30 5635 H 538.166 3.75176 -0.452883 0
M  V30 5636 H 538.479 7.57221 -1.54388 0
M  V30 5637 H 536.824 6.81128 -1.38164 0
M  V30 5638 H 540.015 4.63641 -0.644536 0
M  V30 5639 H 540.188 6.37861 -1.14181 0
M  V30 5640 N 533.594 0.0601682 1.57485 0
M  V30 5641 C 534.819 -0.624416 1.97777 0
M  V30 5642 C 535.244 -1.63051 0.937867 0
M  V30 5643 O 534.602 -1.81036 -0.0978845 0
M  V30 5644 C 534.65 -1.27979 3.37126 0
M  V30 5645 O 533.754 -2.39556 3.35688 0
M  V30 5646 H 533.095 -0.161581 0.64404 0
M  V30 5647 H 535.625 0.131237 2.04179 0
M  V30 5648 H 535.635 -1.62937 3.74053 0
M  V30 5649 H 534.31 -0.542501 4.12347 0
M  V30 5650 H 532.887 -2.06478 3.10517 0
M  V30 5651 N 535.072 -1.5615 -0.213296 0
M  V30 5652 C 536.297 -1.83986 -0.957282 0
M  V30 5653 C 536.722 -0.641526 -1.76822 0
M  V30 5654 O 536.08 0.409722 -1.7661 0
M  V30 5655 C 536.128 -3.09889 -1.84393 0
M  V30 5656 O 535.232 -2.89163 -2.94038 0
M  V30 5657 H 534.573 -0.606357 -0.270605 0
M  V30 5658 H 537.103 -2.03369 -0.224111 0
M  V30 5659 H 537.113 -3.40209 -2.25215 0
M  V30 5660 H 535.788 -3.96735 -1.24795 0
M  V30 5661 H 534.365 -2.70097 -2.57103 0
M  V30 5662 N 536.55 0.480323 -1.50102 0
M  V30 5663 C 537.497 1.57946 -1.6829 0
M  V30 5664 C 538.467 1.57611 -0.524223 0
M  V30 5665 O 539.652 1.75282 -0.753709 0
M  V30 5666 C 536.792 2.95978 -1.77457 0
M  V30 5667 C 535.905 3.06173 -3.04766 0
M  V30 5668 C 535.04 4.35063 -3.04784 0
M  V30 5669 C 534.079 4.38966 -4.26586 0
M  V30 5670 N 533.216 5.59314 -4.24396 0
M  V30 5671 H 538.056 1.41743 -2.62131 0
M  V30 5672 H 535.593 0.689304 -1.2995 0
M  V30 5673 H 537.551 3.76011 -1.80752 0
M  V30 5674 H 536.181 3.10837 -0.870637 0
M  V30 5675 H 535.233 2.19071 -3.10986 0
M  V30 5676 H 536.545 3.04916 -3.9475 0
M  V30 5677 H 535.699 5.23436 -3.06757 0
M  V30 5678 H 534.438 4.38915 -2.12614 0
M  V30 5679 H 533.443 3.48992 -4.24835 0
M  V30 5680 H 534.668 4.36813 -5.19972 0
M  V30 5681 H 532.614 5.63969 -3.35074 0
M  V30 5682 H 532.531 5.5976 -5.08138 0
M  V30 5683 H 533.799 6.49837 -4.30502 0
M  V30 5684 N 538.028 1.39524 0.732853 0
M  V30 5685 C 538.991 1.38189 1.82857 0
M  V30 5686 C 539.991 0.278624 1.58368 0
M  V30 5687 O 541.181 0.536639 1.65728 0
M  V30 5688 C 538.313 1.15661 3.2068 0
M  V30 5689 H 539.506 2.35692 1.85444 0
M  V30 5690 H 537.059 1.2512 0.936728 0
M  V30 5691 H 537.794 0.188482 3.23752 0
M  V30 5692 H 537.579 1.95559 3.39852 0
M  V30 5693 H 539.069 1.17472 4.00737 0
M  V30 5694 N 539.506 -0.963266 1.24736 0
M  V30 5695 C 540.453 -2.05857 1.04363 0
M  V30 5696 C 541.423 -1.6604 -0.0444951 0
M  V30 5697 O 542.608 -1.90477 0.110999 0
M  V30 5698 C 539.748 -3.38745 0.659235 0
M  V30 5699 C 538.861 -3.9173 1.82131 0
M  V30 5700 C 537.996 -5.12906 1.38208 0
M  V30 5701 C 537.035 -5.58098 2.51382 0
M  V30 5702 N 536.172 -6.7049 2.08295 0
M  V30 5703 H 541.012 -2.22616 1.98107 0
M  V30 5704 H 538.549 -1.09103 0.986661 0
M  V30 5705 H 540.507 -4.15107 0.417371 0
M  V30 5706 H 539.137 -3.21898 -0.241201 0
M  V30 5707 H 538.189 -3.11966 2.17672 0
M  V30 5708 H 539.501 -4.21225 2.67153 0
M  V30 5709 H 538.655 -5.96657 1.09935 0
M  V30 5710 H 537.394 -4.85105 0.502456 0
M  V30 5711 H 536.399 -4.72917 2.80409 0
M  V30 5712 H 537.624 -5.87911 3.39909 0
M  V30 5713 H 535.57 -6.44416 1.22737 0
M  V30 5714 H 535.487 -6.99458 2.86869 0
M  V30 5715 H 536.755 -7.57672 1.83175 0
M  V30 5716 N 540.985 -1.06182 -1.16461 0
M  V30 5717 C 541.932 -0.671613 -2.20812 0
M  V30 5718 C 542.902 0.331186 -1.62765 0
M  V30 5719 O 544.087 0.22033 -1.89524 0
M  V30 5720 C 541.227 -0.063029 -3.45042 0
M  V30 5721 C 540.34 -1.11587 -4.1734 0
M  V30 5722 C 539.475 -0.473546 -5.29085 0
M  V30 5723 C 538.514 -1.51 -5.93182 0
M  V30 5724 N 537.651 -0.891118 -6.96422 0
M  V30 5725 H 542.491 -1.56589 -2.53542 0
M  V30 5726 H 540.028 -0.782951 -1.24532 0
M  V30 5727 H 541.986 0.307344 -4.16066 0
M  V30 5728 H 540.616 0.794663 -3.12866 0
M  V30 5729 H 539.668 -1.60396 -3.44931 0
M  V30 5730 H 540.98 -1.90221 -4.61104 0
M  V30 5731 H 540.134 -0.0501432 -6.06679 0
M  V30 5732 H 538.873 0.344687 -4.8648 0
M  V30 5733 H 537.878 -1.94331 -5.14311 0
M  V30 5734 H 539.103 -2.33031 -6.37866 0
M  V30 5735 H 537.049 -0.0935753 -6.55933 0
M  V30 5736 H 536.966 -1.61486 -7.38551 0
M  V30 5737 H 538.234 -0.492822 -7.77941 0
M  V30 5738 N 542.463 1.3308 -0.844243 0
M  V30 5739 C 543.874 1.7992 -0.498566 0
M  V30 5740 C 544.225 1.69808 0.982834 0
M  V30 5741 O 543.35 1.25051 1.7661 0
M  V30 5742 C 543.945 3.26677 -0.898204 0
M  V30 5743 C 542.504 3.71513 -0.604583 0
M  V30 5744 C 541.651 2.54393 -1.10362 0
M  V30 5745 H 544.602 1.20526 -1.03244 0
M  V30 5746 H 544.623 3.79918 -0.21039 0
M  V30 5747 H 544.135 3.34004 -1.97643 0
M  V30 5748 H 542.236 3.69708 0.46335 0
M  V30 5749 H 542.349 4.64755 -1.16358 0
M  V30 5750 H 540.713 2.49246 -0.524273 0
M  V30 5751 H 541.496 2.6448 -2.18873 0
M  V30 5752 N 543.941 0.601185 1.45683 0
M  V30 5753 C 545.352 0.179659 1.85834 0
M  V30 5754 C 545.703 -1.26189 1.50236 0
M  V30 5755 O 544.828 -1.95587 0.925987 0
M  V30 5756 C 545.423 0.319277 3.37292 0
M  V30 5757 C 543.982 -0.0475092 3.7637 0
M  V30 5758 C 543.129 0.646692 2.69654 0
M  V30 5759 H 546.08 0.808268 1.36575 0
M  V30 5760 H 546.101 -0.4503 3.77826 0
M  V30 5761 H 545.613 1.36855 3.6317 0
M  V30 5762 H 543.714 -1.0962 3.5611 0
M  V30 5763 H 543.827 0.34168 4.7788 0
M  V30 5764 H 542.191 0.0849971 2.54558 0
M  V30 5765 H 542.974 1.69797 2.98369 0
M  V30 5766 N 545.419 -1.53889 0.339982 0
M  V30 5767 C 546.667 -2.00458 -0.257112 0
M  V30 5768 C 546.988 -1.22953 -1.51353 0
M  V30 5769 O 546.258 -0.335734 -1.93002 0
M  V30 5770 H 544.838 -0.740544 -0.0979965 0
M  V30 5771 H 547.5 -1.89386 0.460317 0
M  V30 5772 H 546.596 -3.08035 -0.502057 0
M  V30 5773 N 546.897 -0.0685191 -1.57451 0
M  V30 5774 C 547.807 0.914677 -2.16034 0
M  V30 5775 C 548.823 1.32938 -1.12265 0
M  V30 5776 O 549.999 1.40275 -1.44516 0
M  V30 5777 C 547.064 2.16519 -2.70777 0
M  V30 5778 C 546.125 1.80721 -3.89408 0
M  V30 5779 C 545.358 2.9981 -4.41531 0
M  V30 5780 O 545.581 4.13727 -3.92666 0
M  V30 5781 O 544.515 2.79817 -5.32903 0
M  V30 5782 H 548.341 0.446364 -3.00402 0
M  V30 5783 H 545.926 0.154367 -1.486 0
M  V30 5784 H 547.808 2.89856 -3.05878 0
M  V30 5785 H 546.483 2.62454 -1.89471 0
M  V30 5786 H 545.39 1.04646 -3.59166 0
M  V30 5787 H 546.723 1.39571 -4.71997 0
M  V30 5788 N 548.375 1.56261 0.205012 0
M  V30 5789 C 549.323 1.94631 1.27364 0
M  V30 5790 C 550.317 0.830434 1.47649 0
M  V30 5791 O 551.523 1.01538 1.48627 0
M  V30 5792 H 547.898 0.618755 0.427371 0
M  V30 5793 H 549.869 2.83768 0.922941 0
M  V30 5794 C 548.618 2.29358 2.61324 0
M  V30 5795 H 547.941 3.14744 2.46528 0
M  V30 5796 H 549.381 2.60076 3.34868 0
M  V30 5797 C 547.84 1.12461 3.17575 0
M  V30 5798 O 548.37 0.394407 3.99759 0
M  V30 5799 N 546.576 0.904036 2.7618 0
M  V30 5800 H 546.123 1.49956 2.09454 0
M  V30 5801 H 546.081 0.123662 3.14157 0
M  V30 5802 N 549.853 -0.472356 1.50355 0
M  V30 5803 C 551.13 -1.23356 1.51798 0
M  V30 5804 C 551.51 -2.09469 0.26193 0
M  V30 5805 O 550.858 -2.15677 -0.754691 0
M  V30 5806 C 551.068 -2.06568 2.81302 0
M  V30 5807 C 552.416 -2.648 3.31913 0
M  V30 5808 O 553.44 -2.16812 2.82614 0
M  V30 5809 O 552.299 -3.52231 4.17846 0
M  V30 5810 H 549.393 -0.559707 0.608816 0
M  V30 5811 H 551.939 -0.48428 1.62643 0
M  V30 5812 H 550.711 -1.43103 3.64194 0
M  V30 5813 H 550.334 -2.88633 2.73454 0
M  V30 5814 N 551.331 -1.39911 -0.725443 0
M  V30 5815 C 552.578 -1.37654 -1.48518 0
M  V30 5816 C 552.906 0.0243982 -1.94485 0
M  V30 5817 O 552.161 1.00708 -1.67799 0
M  V30 5818 C 552.46 -2.30368 -2.7325 0
M  V30 5819 C 552.126 -3.77817 -2.461 0
M  V30 5820 C 550.788 -4.17991 -2.38405 0
M  V30 5821 C 553.14 -4.71036 -2.23103 0
M  V30 5822 C 550.468 -5.49433 -2.05768 0
M  V30 5823 C 552.82 -6.02766 -1.9198 0
M  V30 5824 C 551.484 -6.41993 -1.82761 0
M  V30 5825 H 550.754 -0.503713 -0.543465 0
M  V30 5826 H 553.401 -1.7249 -0.831822 0
M  V30 5827 H 551.706 -1.88683 -3.43375 0
M  V30 5828 H 553.403 -2.2591 -3.31309 0
M  V30 5829 H 549.993 -3.45982 -2.52972 0
M  V30 5830 H 554.177 -4.40823 -2.2801 0
M  V30 5831 H 549.433 -5.78738 -1.9716 0
M  V30 5832 H 553.607 -6.74519 -1.73197 0
M  V30 5833 H 551.234 -7.43761 -1.57237 0
M  V30 5834 N 552.809 0.956637 -1.25245 0
M  V30 5835 C 554.086 1.67716 -1.00651 0
M  V30 5836 C 554.466 2.0585 0.467866 0
M  V30 5837 O 553.814 1.77029 1.44475 0
M  V30 5838 C 554.024 2.90093 -1.94028 0
M  V30 5839 C 555.372 3.6209 -2.21756 0
M  V30 5840 O 556.396 3.00171 -1.9177 0
M  V30 5841 O 555.255 4.7358 -2.72735 0
M  V30 5842 H 552.349 0.733731 -0.381533 0
M  V30 5843 H 554.895 1.00974 -1.3639 0
M  V30 5844 H 553.667 2.58689 -2.93591 0
M  V30 5845 H 553.29 3.64566 -1.58674 0
M  V30 5846 N 554.287 1.06798 1.15896 0
M  V30 5847 C 555.515 0.808694 1.90441 0
M  V30 5848 C 555.93 -0.637506 1.77711 0
M  V30 5849 O 555.287 -1.43684 1.12522 0
M  V30 5850 C 555.338 1.20068 3.40978 0
M  V30 5851 O 555.059 2.59013 3.53333 0
M  V30 5852 C 556.56 0.96987 4.3256 0
M  V30 5853 H 553.78 0.292809 0.603742 0
M  V30 5854 H 556.324 1.42296 1.46874 0
M  V30 5855 H 554.479 0.630842 3.82229 0
M  V30 5856 H 554.893 2.7485 4.46719 0
M  V30 5857 H 556.367 1.29371 5.36626 0
M  V30 5858 H 556.844 -0.0941209 4.39099 0
M  V30 5859 H 557.45 1.52433 3.97044 0
M  V30 5860 N 555.766 -1.3263 0.851289 0
M  V30 5861 C 557.015 -1.96633 0.449267 0
M  V30 5862 C 557.328 -1.68131 -0.999562 0
M  V30 5863 O 558.534 -2.25845 -1.50685 0
M  V30 5864 C 556.99 -3.51946 0.752446 0
M  V30 5865 C 556.598 -3.89311 2.21678 0
M  V30 5866 C 558.342 -4.22437 0.417983 0
M  V30 5867 C 556.249 -5.37655 2.46336 0
M  V30 5868 H 555.179 -0.735888 0.164269 0
M  V30 5869 H 557.83 -1.51073 1.0416 0
M  V30 5870 H 556.212 -3.95899 0.0895858 0
M  V30 5871 H 557.386 -3.56378 2.92115 0
M  V30 5872 H 555.701 -3.31836 2.51543 0
M  V30 5873 H 558.298 -5.31549 0.579674 0
M  V30 5874 H 558.641 -4.11349 -0.640115 0
M  V30 5875 H 559.174 -3.84057 1.03659 0
M  V30 5876 H 555.913 -5.5376 3.50757 0
M  V30 5877 H 555.433 -5.72005 1.80473 0
M  V30 5878 H 557.112 -6.04695 2.30115 0
M  V30 5879 N 557.244 -0.608902 -1.45362 0
M  V30 5880 C 558.191 0.109172 -2.30542 0
M  V30 5881 C 559.161 0.858704 -1.42181 0
M  V30 5882 O 560.346 0.844178 -1.71109 0
M  V30 5883 C 557.486 1.09971 -3.27109 0
M  V30 5884 C 556.599 0.350911 -4.30572 0
M  V30 5885 C 555.734 1.33129 -5.14247 0
M  V30 5886 C 554.773 0.570377 -6.09437 0
M  V30 5887 N 553.91 1.5001 -6.85887 0
M  V30 5888 H 558.75 -0.623195 -2.91411 0
M  V30 5889 H 556.287 -0.319122 -1.43597 0
M  V30 5890 H 558.245 1.68714 -3.81564 0
M  V30 5891 H 556.875 1.79947 -2.67991 0
M  V30 5892 H 555.927 -0.352054 -3.78767 0
M  V30 5893 H 557.239 -0.242725 -4.98209 0
M  V30 5894 H 556.393 1.99074 -5.73109 0
M  V30 5895 H 555.132 1.95885 -4.46632 0
M  V30 5896 H 554.137 -0.102702 -5.49704 0
M  V30 5897 H 555.362 -0.0521607 -6.7908 0
M  V30 5898 H 553.308 2.11529 -6.2096 0
M  V30 5899 H 553.225 0.959934 -7.49881 0
M  V30 5900 H 554.493 2.14909 -7.49289 0
M  V30 5901 N 558.722 1.53707 -0.348139 0
M  V30 5902 C 559.652 2.28111 0.498766 0
M  V30 5903 C 560.633 1.29851 1.09876 0
M  V30 5904 O 561.818 1.587 1.11928 0
M  V30 5905 C 558.948 3.05735 1.64753 0
M  V30 5906 C 557.902 4.11537 1.17565 0
M  V30 5907 C 557.228 4.77142 2.4133 0
M  V30 5908 C 558.528 5.21587 0.272844 0
M  V30 5909 H 560.222 2.99152 -0.121934 0
M  V30 5910 H 557.768 1.43875 -0.0600842 0
M  V30 5911 H 559.721 3.56526 2.24649 0
M  V30 5912 H 558.445 2.32354 2.2952 0
M  V30 5913 H 557.104 3.61665 0.599483 0
M  V30 5914 H 556.752 4.0035 3.04514 0
M  V30 5915 H 556.452 5.48626 2.10436 0
M  V30 5916 H 557.976 5.30719 3.01943 0
M  V30 5917 H 559.39 5.67986 0.778779 0
M  V30 5918 H 557.787 6.00074 0.0555849 0
M  V30 5919 H 558.857 4.79969 -0.689785 0
M  V30 5920 N 560.2 0.0768682 1.57412 0
M  V30 5921 C 561.449 -0.590679 1.92857 0
M  V30 5922 C 561.762 -1.70461 0.959293 0
M  V30 5923 O 562.968 -2.43207 1.20675 0
M  V30 5924 C 561.424 -1.10204 3.42612 0
M  V30 5925 C 561.032 -0.0188447 4.47996 0
M  V30 5926 C 562.776 -1.74336 3.87049 0
M  V30 5927 C 560.683 -0.544536 5.88888 0
M  V30 5928 H 559.613 -0.224411 0.71983 0
M  V30 5929 H 562.264 0.149924 1.82887 0
M  V30 5930 H 560.646 -1.89577 3.47673 0
M  V30 5931 H 561.82 0.755936 4.54557 0
M  V30 5932 H 560.135 0.526555 4.13057 0
M  V30 5933 H 562.732 -2.14708 4.89699 0
M  V30 5934 H 563.075 -2.60537 3.24694 0
M  V30 5935 H 563.608 -1.01577 3.84613 0
M  V30 5936 H 560.347 0.280426 6.549 0
M  V30 5937 H 559.867 -1.28673 5.85836 0
M  V30 5938 H 561.546 -1.01933 6.3892 0
M  V30 5939 N 561.678 -1.56367 -0.196722 0
M  V30 5940 C 562.903 -1.84991 -0.937714 0
M  V30 5941 C 563.328 -0.660244 -1.76132 0
M  V30 5942 O 562.686 0.390967 -1.77034 0
M  V30 5943 C 562.734 -3.11828 -1.81096 0
M  V30 5944 O 561.838 -2.92266 -2.90955 0
M  V30 5945 H 561.179 -0.609193 -0.264159 0
M  V30 5946 H 563.709 -2.03595 -0.202529 0
M  V30 5947 H 563.719 -3.42579 -2.21594 0
M  V30 5948 H 562.394 -3.98037 -1.2058 0
M  V30 5949 H 560.971 -2.72809 -2.54224 0
M  V30 5950 N 563.156 0.464375 -1.50603 0
M  V30 5951 C 564.104 1.58224 -1.70493 0
M  V30 5952 C 565.098 1.59492 -0.570836 0
M  V30 5953 O 566.304 1.63561 -0.751517 0
M  V30 5954 H 562.679 0.525161 -0.538247 0
M  V30 5955 H 564.65 1.38613 -2.64252 0
M  V30 5956 C 563.399 2.96113 -1.82243 0
M  V30 5957 H 562.722 2.95858 -2.68901 0
M  V30 5958 H 564.162 3.73769 -2.00182 0
M  V30 5959 C 562.621 3.31946 -0.575628 0
M  V30 5960 O 563.151 4.00708 0.282152 0
M  V30 5961 N 561.357 2.87436 -0.427665 0
M  V30 5962 H 560.904 2.31652 -1.12674 0
M  V30 5963 H 560.862 3.11776 0.405379 0
M  V30 5964 N 564.634 1.40294 0.718013 0
M  V30 5965 C 565.882 1.38167 1.47494 0
M  V30 5966 C 566.203 -0.01607 1.94993 0
M  V30 5967 O 565.473 -0.970396 1.70177 0
M  V30 5968 H 564.053 0.508505 0.547203 0
M  V30 5969 H 566.715 1.75324 0.851322 0
M  V30 5970 H 565.811 2.05503 2.34894 0
M  V30 5971 N 566.112 -0.949982 1.2575 0
M  V30 5972 C 567.075 -2.02894 1.06615 0
M  V30 5973 C 568.075 -1.60791 0.0173905 0
M  V30 5974 O 569.265 -1.72249 0.260003 0
M  V30 5975 C 566.397 -3.35219 0.619751 0
M  V30 5976 H 567.59 -2.21302 2.02399 0
M  V30 5977 H 565.143 -1.12772 1.08223 0
M  V30 5978 H 565.878 -3.22508 -0.340486 0
M  V30 5979 H 565.663 -3.67129 1.37692 0
M  V30 5980 H 567.153 -4.14505 0.507443 0
M  V30 5981 N 567.59 -1.07411 -1.15328 0
M  V30 5982 C 568.82 -0.817595 -1.89734 0
M  V30 5983 C 569.228 0.63297 -1.78298 0
M  V30 5984 O 568.571 1.44594 -1.13306 0
M  V30 5985 C 568.633 -1.14748 -3.40695 0
M  V30 5986 C 568.297 -2.59876 -3.75917 0
M  V30 5987 C 569.294 -3.58122 -3.76888 0
M  V30 5988 C 566.979 -2.95469 -4.06206 0
M  V30 5989 C 568.973 -4.89996 -4.07655 0
M  V30 5990 C 566.66 -4.2754 -4.36638 0
M  V30 5991 C 567.658 -5.24614 -4.37344 0
M  V30 5992 O 567.346 -6.54312 -4.67045 0
M  V30 5993 H 567.078 -0.295175 -0.608151 0
M  V30 5994 H 569.632 -1.43409 -1.47048 0
M  V30 5995 H 567.862 -0.47395 -3.83785 0
M  V30 5996 H 569.551 -0.873397 -3.96392 0
M  V30 5997 H 570.317 -3.31966 -3.53587 0
M  V30 5998 H 566.196 -2.20558 -4.04815 0
M  V30 5999 H 569.74 -5.65759 -4.08121 0
M  V30 6000 H 565.637 -4.53449 -4.59407 0
M  V30 6001 H 566.405 -6.59473 -4.84807 0
M  V30 6002 N 569.068 1.32177 -0.85831 0
M  V30 6003 C 570.316 1.96735 -0.462568 0
M  V30 6004 C 570.637 1.6824 0.985911 0
M  V30 6005 O 569.907 0.991564 1.68952 0
M  V30 6006 H 568.487 0.727849 -0.168064 0
M  V30 6007 H 571.149 1.61195 -1.09554 0
M  V30 6008 H 570.245 3.06068 -0.610647 0
M  V30 6009 N 570.547 0.616602 1.45037 0
M  V30 6010 C 571.51 -0.0871112 2.29034 0
M  V30 6011 C 572.51 -0.786414 1.40258 0
M  V30 6012 O 573.7 -0.633207 1.62284 0
M  V30 6013 C 570.832 -1.13369 3.21497 0
M  V30 6014 H 572.025 0.651497 2.92738 0
M  V30 6015 H 569.578 0.376058 1.51709 0
M  V30 6016 H 570.313 -1.90277 2.62612 0
M  V30 6017 H 570.098 -0.636358 3.86902 0
M  V30 6018 H 571.588 -1.62627 3.84633 0
M  V30 6019 N 572.025 -1.5352 0.356285 0
M  V30 6020 C 573.271 -2.01414 -0.236653 0
M  V30 6021 C 573.604 -1.24339 -1.49176 0
M  V30 6022 O 572.879 -0.334496 -1.91602 0
M  V30 6023 C 573.162 -3.56059 -0.537982 0
M  V30 6024 C 573.015 -4.43835 0.730112 0
M  V30 6025 C 574.334 -4.19127 -1.34239 0
M  V30 6026 H 571.453 -0.732135 -0.0845386 0
M  V30 6027 H 574.095 -1.83854 0.479341 0
M  V30 6028 H 572.245 -3.71153 -1.14795 0
M  V30 6029 H 573.917 -4.40555 1.36782 0
M  V30 6030 H 572.16 -4.1218 1.3524 0
M  V30 6031 H 572.831 -5.49958 0.474358 0
M  V30 6032 H 575.307 -4.07809 -0.826498 0
M  V30 6033 H 574.183 -5.27378 -1.52198 0
M  V30 6034 H 574.444 -3.74581 -2.34822 0
M  V30 6035 N 573.503 -0.0852151 -1.57369 0
M  V30 6036 C 574.733 0.588605 -1.98038 0
M  V30 6037 C 575.141 1.62869 -0.962817 0
M  V30 6038 O 574.484 1.83611 0.057134 0
M  V30 6039 C 574.546 1.30303 -3.35054 0
M  V30 6040 C 574.21 0.414855 -4.55113 0
M  V30 6041 C 575.207 -0.333011 -5.18832 0
M  V30 6042 C 572.892 0.335804 -5.01176 0
M  V30 6043 C 574.886 -1.14801 -6.26976 0
M  V30 6044 C 572.573 -0.482857 -6.09189 0
M  V30 6045 C 573.571 -1.22342 -6.71953 0
M  V30 6046 O 573.259 -2.02855 -7.77885 0
M  V30 6047 H 572.991 0.163249 -0.655992 0
M  V30 6048 H 575.545 -0.1582 -2.0479 0
M  V30 6049 H 573.775 2.0962 -3.24956 0
M  V30 6050 H 575.464 1.87041 -3.60237 0
M  V30 6051 H 576.23 -0.281611 -4.84182 0
M  V30 6052 H 572.109 0.901869 -4.52092 0
M  V30 6053 H 575.653 -1.72654 -6.75897 0
M  V30 6054 H 571.55 -0.535773 -6.43273 0
M  V30 6055 H 572.318 -1.95432 -7.94826 0
M  V30 6056 N 574.981 1.5647 0.188427 0
M  V30 6057 C 575.911 1.98101 1.23606 0
M  V30 6058 C 576.892 0.853961 1.47111 0
M  V30 6059 O 578.077 1.11879 1.58735 0
M  V30 6060 C 575.207 2.32624 2.57882 0
M  V30 6061 C 574.161 3.48129 2.48978 0
M  V30 6062 C 573.487 3.68347 3.87588 0
M  V30 6063 C 574.787 4.82112 2.00911 0
M  V30 6064 H 576.481 2.85864 0.890068 0
M  V30 6065 H 574.027 1.37532 0.426714 0
M  V30 6066 H 575.98 2.60343 3.3136 0
M  V30 6067 H 574.704 1.41751 2.94235 0
M  V30 6068 H 573.363 3.20511 1.77956 0
M  V30 6069 H 573.011 2.74793 4.21305 0
M  V30 6070 H 572.711 4.46055 3.82503 0
M  V30 6071 H 574.235 3.98449 4.62678 0
M  V30 6072 H 575.649 5.08819 2.64151 0
M  V30 6073 H 574.046 5.63337 2.06814 0
M  V30 6074 H 575.116 4.75249 0.96262 0
M  V30 6075 N 576.459 -0.456382 1.50847 0
M  V30 6076 C 577.705 -1.20914 1.62811 0
M  V30 6077 C 578.038 -1.91301 0.334304 0
M  V30 6078 O 577.313 -1.82775 -0.665098 0
M  V30 6079 C 577.596 -2.24122 2.81853 0
M  V30 6080 C 577.449 -1.57944 4.21158 0
M  V30 6081 C 578.768 -3.25295 2.96431 0
M  V30 6082 H 575.887 -0.438233 0.592554 0
M  V30 6083 H 578.529 -0.50091 1.83278 0
M  V30 6084 H 576.679 -2.84524 2.64534 0
M  V30 6085 H 578.351 -1.01025 4.50102 0
M  V30 6086 H 576.594 -0.882185 4.24735 0
M  V30 6087 H 577.265 -2.33014 5.00408 0
M  V30 6088 H 579.741 -2.7493 3.12335 0
M  V30 6089 H 578.617 -3.94822 3.81322 0
M  V30 6090 H 578.878 -3.90286 2.07676 0
M  V30 6091 N 577.937 -1.40673 -0.710563 0
M  V30 6092 C 579.353 -1.22813 -1.01928 0
M  V30 6093 C 579.553 -0.10687 -2.01216 0
M  V30 6094 O 578.609 0.533614 -2.46797 0
M  V30 6095 C 579.922 -2.57178 -1.5582 0
M  V30 6096 C 581.47 -2.64233 -1.67779 0
M  V30 6097 C 581.945 -3.98879 -2.25076 0
M  V30 6098 N 583.436 -4.00647 -2.32456 0
M  V30 6099 C 584.171 -5.01621 -2.77784 0
M  V30 6100 N 583.667 -6.12989 -3.22826 0
M  V30 6101 N 585.46 -4.88988 -2.77213 0
M  V30 6102 H 577.611 -2.12335 -0.05253 0
M  V30 6103 H 579.874 -0.9441 -0.085898 0
M  V30 6104 H 579.58 -3.39903 -0.903249 0
M  V30 6105 H 579.454 -2.78618 -2.54267 0
M  V30 6106 H 581.841 -1.81876 -2.3239 0
M  V30 6107 H 581.922 -2.46619 -0.679178 0
M  V30 6108 H 581.566 -4.81678 -1.61086 0
M  V30 6109 H 581.496 -4.13826 -3.25661 0
M  V30 6110 H 583.987 -3.20231 -2.0065 0
M  V30 6111 H 584.3 -6.85921 -3.55995 0
M  V30 6112 H 582.645 -6.16547 -3.20773 0
M  V30 6113 H 585.836 -4.01075 -2.41363 0
M  V30 6114 H 586.009 -5.67822 -3.12221 0
M  V30 6115 N 579.415 0.9433 -1.26252 0
M  V30 6116 C 580.365 2.02746 -1.04297 0
M  V30 6117 C 581.349 1.60882 0.0239435 0
M  V30 6118 O 582.541 1.75947 -0.192757 0
M  V30 6119 C 579.67 3.36585 -0.6757 0
M  V30 6120 C 578.756 3.84939 -1.77996 0
M  V30 6121 N 579.147 4.05966 -3.01704 0
M  V30 6122 C 577.445 4.13833 -1.66308 0
M  V30 6123 C 578.146 4.45987 -3.73458 0
M  V30 6124 N 577.122 4.52569 -3.01135 0
M  V30 6125 H 580.924 2.17012 -1.98199 0
M  V30 6126 H 578.438 1.12898 -1.16738 0
M  V30 6127 H 580.435 4.13896 -0.499571 0
M  V30 6128 H 579.095 3.2369 0.255863 0
M  V30 6129 H 580.106 3.92716 -3.37631 0
M  V30 6130 H 576.783 4.09739 -0.801267 0
M  V30 6131 H 578.173 4.70465 -4.79701 0
M  V30 6132 N 580.893 1.08022 1.14757 0
M  V30 6133 C 582.309 0.807072 1.3769 0
M  V30 6134 C 582.509 -0.585504 1.92806 0
M  V30 6135 O 581.565 -1.34301 2.13821 0
M  V30 6136 C 582.878 1.88651 2.34161 0
M  V30 6137 C 584.426 1.91206 2.47809 0
M  V30 6138 C 584.901 2.98253 3.47576 0
M  V30 6139 N 586.392 2.974 3.55117 0
M  V30 6140 C 587.127 3.76872 4.32152 0
M  V30 6141 N 586.623 4.66212 5.12463 0
M  V30 6142 N 588.416 3.6519 4.27309 0
M  V30 6143 H 580.567 1.97824 0.77326 0
M  V30 6144 H 582.83 0.85826 0.402608 0
M  V30 6145 H 582.536 2.88749 2.00791 0
M  V30 6146 H 582.41 1.75244 3.3402 0
M  V30 6147 H 584.797 0.917564 2.80472 0
M  V30 6148 H 584.878 2.08691 1.47925 0
M  V30 6149 H 584.522 3.97907 3.15646 0
M  V30 6150 H 584.452 2.78014 4.47231 0
M  V30 6151 H 586.943 2.32643 2.97801 0
M  V30 6152 H 587.256 5.23468 5.68508 0
M  V30 6153 H 585.601 4.70257 5.11745 0
M  V30 6154 H 588.792 2.94765 3.63636 0
M  V30 6155 H 588.965 4.27366 4.87095 0
M  V30 6156 N 582.371 -1.3172 0.865308 0
M  V30 6157 C 583.648 -1.91574 0.394789 0
M  V30 6158 C 584.028 -1.78769 -1.12271 0
M  V30 6159 O 583.376 -1.19245 -1.94918 0
M  V30 6160 C 583.586 -3.37957 0.870982 0
M  V30 6161 C 584.934 -4.15073 0.894384 0
M  V30 6162 O 585.958 -3.4672 0.816325 0
M  V30 6163 O 584.817 -5.37151 1.00651 0
M  V30 6164 H 581.911 -0.818649 0.117229 0
M  V30 6165 H 584.457 -1.4042 0.952913 0
M  V30 6166 H 583.229 -3.41269 1.91444 0
M  V30 6167 H 582.852 -3.96534 0.290907 0
M  V30 6168 N 583.85 -0.624285 -1.44708 0
M  V30 6169 C 585.077 -0.132919 -2.06473 0
M  V30 6170 C 585.493 1.18967 -1.46602 0
M  V30 6171 O 584.85 1.72824 -0.586341 0
M  V30 6172 C 584.901 -0.00465418 -3.615 0
M  V30 6173 O 584.622 -1.27494 -4.19138 0
M  V30 6174 C 586.123 0.516213 -4.40284 0
M  V30 6175 H 583.343 -0.0765201 -0.666623 0
M  V30 6176 H 585.887 -0.856751 -1.85688 0
M  V30 6177 H 584.042 0.669583 -3.8157 0
M  V30 6178 H 584.456 -1.11536 -5.12504 0
M  V30 6179 H 585.93 0.554994 -5.49203 0
M  V30 6180 H 586.407 1.5419 -4.11245 0
M  V30 6181 H 587.013 -0.124542 -4.25118 0
M  V30 6182 N 585.328 1.53329 -0.364422 0
M  V30 6183 C 586.744 1.59594 -0.0133165 0
M  V30 6184 C 586.944 1.37959 1.46865 0
M  V30 6185 O 586 1.18418 2.2301 0
M  V30 6186 C 587.313 2.97032 -0.468213 0
M  V30 6187 C 588.861 3.10138 -0.422334 0
M  V30 6188 C 589.336 4.49986 -0.853024 0
M  V30 6189 N 590.827 4.56098 -0.808037 0
M  V30 6190 C 591.562 5.62495 -1.11299 0
M  V30 6191 N 591.058 6.7665 -1.48717 0
M  V30 6192 N 592.851 5.52473 -1.03586 0
M  V30 6193 H 585.002 1.65644 -1.32951 0
M  V30 6194 H 587.265 0.77684 -0.543345 0
M  V30 6195 H 586.971 3.18 -1.5023 0
M  V30 6196 H 586.845 3.76918 0.145775 0
M  V30 6197 H 589.232 2.88881 0.602622 0
M  V30 6198 H 589.313 2.32263 -1.0718 0
M  V30 6199 H 588.957 4.7198 -1.87609 0
M  V30 6200 H 588.887 5.26289 -0.180819 0
M  V30 6201 H 591.378 3.74131 -0.532361 0
M  V30 6202 H 591.691 7.53776 -1.70415 0
M  V30 6203 H 590.036 6.78044 -1.52581 0
M  V30 6204 H 593.227 4.6217 -0.742736 0
M  V30 6205 H 593.4 6.35295 -1.27686 0
M  V30 6206 N 586.806 0.0935595 1.57322 0
M  V30 6207 C 587.738 -0.895923 2.10964 0
M  V30 6208 C 588.751 -1.24705 1.04654 0
M  V30 6209 O 589.94 -1.20044 1.32105 0
M  V30 6210 C 587.04 -2.20546 2.57318 0
M  V30 6211 C 586.213 -2.0299 3.87445 0
M  V30 6212 C 585.272 -3.17443 4.19662 0
M  V30 6213 O 584.298 -2.91474 4.88909 0
M  V30 6214 N 585.5 -4.43168 3.74943 0
M  V30 6215 H 588.265 -0.437788 2.96485 0
M  V30 6216 H 585.826 -0.0915863 1.61641 0
M  V30 6217 H 587.818 -2.9606 2.75917 0
M  V30 6218 H 586.388 -2.57789 1.76816 0
M  V30 6219 H 585.608 -1.11815 3.78009 0
M  V30 6220 H 586.896 -1.88535 4.7258 0
M  V30 6221 H 586.294 -4.67149 3.19043 0
M  V30 6222 H 584.851 -5.15637 3.987 0
M  V30 6223 N 588.284 -1.56567 -0.180126 0
M  V30 6224 C 589.7 -1.50488 -0.531559 0
M  V30 6225 C 589.9 -0.796267 -1.851 0
M  V30 6226 O 588.956 -0.352978 -2.50021 0
M  V30 6227 C 590.269 -2.95201 -0.572456 0
M  V30 6228 C 591.817 -3.05957 -0.660264 0
M  V30 6229 C 592.292 -4.5211 -0.732135 0
M  V30 6230 N 593.783 -4.56322 -0.795262 0
M  V30 6231 C 594.518 -5.66742 -0.871296 0
M  V30 6232 N 594.014 -6.86815 -0.908708 0
M  V30 6233 N 595.807 -5.54691 -0.909639 0
M  V30 6234 H 587.958 -2.01045 0.685165 0
M  V30 6235 H 590.221 -0.915536 0.245962 0
M  V30 6236 H 589.927 -3.50165 0.328208 0
M  V30 6237 H 589.801 -3.49369 -1.422 0
M  V30 6238 H 592.188 -2.51032 -1.55136 0
M  V30 6239 H 592.269 -2.54888 0.215783 0
M  V30 6240 H 591.913 -5.07664 0.154664 0
M  V30 6241 H 591.843 -5.00926 -1.6242 0
M  V30 6242 H 594.334 -3.69868 -0.77499 0
M  V30 6243 H 594.647 -7.66718 -0.967654 0
M  V30 6244 H 592.992 -6.89443 -0.877132 0
M  V30 6245 H 596.183 -4.59804 -0.877353 0
M  V30 6246 H 596.356 -6.40768 -0.965434 0
M  V30 6247 N 589.762 0.448376 -1.51087 0
M  V30 6248 C 591.009 1.19872 -1.63209 0
M  V30 6249 C 591.337 1.91451 -0.343062 0
M  V30 6250 O 590.592 1.83789 0.672321 0
M  V30 6251 C 590.891 2.24866 -2.77795 0
M  V30 6252 C 590.557 1.70378 -4.17471 0
M  V30 6253 C 589.219 1.55241 -4.55471 0
M  V30 6254 C 591.571 1.30203 -5.04675 0
M  V30 6255 C 588.899 0.983844 -5.78392 0
M  V30 6256 C 591.251 0.747798 -6.28165 0
M  V30 6257 C 589.915 0.583233 -6.64947 0
M  V30 6258 H 589.185 0.438642 -0.597222 0
M  V30 6259 H 591.832 0.49136 -1.85089 0
M  V30 6260 H 590.137 3.01598 -2.50092 0
M  V30 6261 H 591.834 2.82723 -2.84374 0
M  V30 6262 H 588.424 1.83134 -3.87505 0
M  V30 6263 H 592.608 1.40723 -4.75932 0
M  V30 6264 H 587.864 0.844007 -6.05546 0
M  V30 6265 H 592.038 0.427927 -6.95084 0
M  V30 6266 H 589.665 0.140532 -7.6007 0
M  V30 6267 N 591.24 1.41047 0.703093 0
M  V30 6268 C 592.203 1.42036 1.79884 0
M  V30 6269 C 593.203 0.312153 1.57741 0
M  V30 6270 O 594.393 0.571672 1.64553 0
M  V30 6271 C 591.525 1.22437 3.18154 0
M  V30 6272 H 592.718 2.39572 1.80403 0
M  V30 6273 H 590.271 1.27079 0.909977 0
M  V30 6274 H 591.006 0.257112 3.23279 0
M  V30 6275 H 590.791 2.02723 3.35627 0
M  V30 6276 H 592.281 1.25946 3.98155 0
M  V30 6277 N 592.718 -0.936591 1.26751 0
M  V30 6278 C 593.651 -2.03619 1.03027 0
M  V30 6279 C 594.629 -1.62534 -0.0464619 0
M  V30 6280 O 595.813 -1.88251 0.0968873 0
M  V30 6281 C 592.94 -3.3402 0.561072 0
M  V30 6282 C 591.986 -3.9408 1.63105 0
M  V30 6283 S 592.819 -4.27782 3.22122 0
M  V30 6284 C 593.975 -5.61277 2.76982 0
M  V30 6285 H 594.208 -2.23429 1.96129 0
M  V30 6286 H 591.741 -1.07857 1.10482 0
M  V30 6287 H 593.699 -4.09424 0.297031 0
M  V30 6288 H 592.36 -3.12147 -0.349741 0
M  V30 6289 H 591.553 -4.88154 1.25386 0
M  V30 6290 H 591.155 -3.25227 1.84671 0
M  V30 6291 H 593.447 -6.40189 2.21731 0
M  V30 6292 H 594.39 -6.03887 3.69766 0
M  V30 6293 H 594.798 -5.21374 2.16402 0
M  V30 6294 N 594.196 -1.08629 -1.14182 0
M  V30 6295 C 595.143 -0.718299 -2.19338 0
M  V30 6296 C 596.113 0.296587 -1.63431 0
M  V30 6297 O 597.298 0.180079 -1.89948 0
M  V30 6298 C 594.438 -0.136203 -3.44831 0
M  V30 6299 C 593.551 -1.20414 -4.14879 0
M  V30 6300 C 592.686 -0.585666 -5.27962 0
M  V30 6301 C 591.725 -1.63548 -5.89846 0
M  V30 6302 N 590.862 -1.03864 -6.94375 0
M  V30 6303 H 595.702 -1.61932 -2.50164 0
M  V30 6304 H 593.239 -0.80919 -1.22844 0
M  V30 6305 H 595.197 0.219021 -4.16625 0
M  V30 6306 H 593.827 0.728121 -3.14481 0
M  V30 6307 H 592.879 -1.67676 -3.41451 0
M  V30 6308 H 594.191 -1.99959 -4.56966 0
M  V30 6309 H 593.345 -0.178818 -6.06436 0
M  V30 6310 H 592.084 0.24142 -4.87102 0
M  V30 6311 H 591.089 -2.05197 -5.10073 0
M  V30 6312 H 592.314 -2.46509 -6.3278 0
M  V30 6313 H 590.26 -0.232687 -6.55587 0
M  V30 6314 H 590.177 -1.77116 -7.3496 0
M  V30 6315 H 591.445 -0.657724 -7.7672 0
M  V30 6316 N 595.674 1.31259 -0.872281 0
M  V30 6317 C 596.621 2.28459 -0.327857 0
M  V30 6318 C 597.591 1.55831 0.574957 0
M  V30 6319 O 598.776 1.83965 0.506101 0
M  V30 6320 C 595.916 3.41985 0.462644 0
M  V30 6321 C 595.029 4.29458 -0.467949 0
M  V30 6322 C 594.164 5.30131 0.336903 0
M  V30 6323 C 593.203 6.0925 -0.58997 0
M  V30 6324 N 592.34 7.01872 0.178775 0
M  V30 6325 H 597.18 2.74414 -1.16193 0
M  V30 6326 H 594.717 1.34994 -0.584376 0
M  V30 6327 H 596.675 4.06547 0.936759 0
M  V30 6328 H 595.305 2.97134 1.2614 0
M  V30 6329 H 594.357 3.65318 -1.06052 0
M  V30 6330 H 595.669 4.84677 -1.17856 0
M  V30 6331 H 594.823 6.0038 0.873427 0
M  V30 6332 H 593.562 4.75573 1.08079 0
M  V30 6333 H 592.567 5.37889 -1.13823 0
M  V30 6334 H 593.792 6.65894 -1.33275 0
M  V30 6335 H 591.738 6.49721 0.905435 0
M  V30 6336 H 591.655 7.54522 -0.472452 0
M  V30 6337 H 592.923 7.76382 0.696454 0
M  V30 6338 N 597.152 0.631951 1.44375 0
M  V30 6339 C 598.401 0.134214 2.01253 0
M  V30 6340 C 598.714 -1.25171 1.50305 0
M  V30 6341 O 599.92 -1.8435 1.99317 0
M  V30 6342 C 598.376 0.189187 3.59402 0
M  V30 6343 C 597.984 1.57647 4.19346 0
M  V30 6344 C 599.728 -0.252044 4.23751 0
M  V30 6345 C 597.635 1.58651 5.69722 0
M  V30 6346 H 596.565 0.0464101 0.75257 0
M  V30 6347 H 599.216 0.790868 1.65582 0
M  V30 6348 H 597.598 -0.534584 3.92375 0
M  V30 6349 H 598.772 2.32389 3.97909 0
M  V30 6350 H 597.087 1.96186 3.67288 0
M  V30 6351 H 599.684 -0.264084 5.34047 0
M  V30 6352 H 600.027 -1.27951 3.96149 0
M  V30 6353 H 600.56 0.41926 3.95584 0
M  V30 6354 H 597.299 2.59237 6.0206 0
M  V30 6355 H 596.819 0.882039 5.93279 0
M  V30 6356 H 598.498 1.32082 6.33375 0
M  V30 6357 N 598.631 -1.53133 0.372548 0
M  V30 6358 C 599.579 -2.27473 -0.485681 0
M  V30 6359 C 600.573 -1.30719 -1.07745 0
M  V30 6360 O 601.779 -1.48321 -1.01985 0
M  V30 6361 H 598.154 -0.731269 -0.175356 0
M  V30 6362 H 600.125 -2.97955 0.162986 0
M  V30 6363 C 598.874 -3.08191 -1.60978 0
M  V30 6364 H 598.197 -3.82488 -1.16373 0
M  V30 6365 H 599.637 -3.63373 -2.18485 0
M  V30 6366 C 598.096 -2.19461 -2.55614 0
M  V30 6367 O 598.626 -1.81008 -3.58607 0
M  V30 6368 N 596.832 -1.83955 -2.24965 0
M  V30 6369 H 596.379 -2.15423 -1.41247 0
M  V30 6370 H 596.337 -1.24874 -2.88538 0
M  V30 6371 N 600.109 -0.101901 -1.5727 0
M  V30 6372 C 601.056 0.854577 -2.14396 0
M  V30 6373 C 602.026 1.27521 -1.06432 0
M  V30 6374 O 603.211 1.35575 -1.34253 0
M  V30 6375 C 600.351 2.10576 -2.73408 0
M  V30 6376 C 599.464 1.73504 -3.95626 0
M  V30 6377 C 598.599 2.9346 -4.42781 0
M  V30 6378 C 597.638 2.52547 -5.57572 0
M  V30 6379 N 596.775 3.65359 -5.99547 0
M  V30 6380 H 601.615 0.360578 -2.9581 0
M  V30 6381 H 599.152 0.166303 -1.46157 0
M  V30 6382 H 601.11 2.83859 -3.05745 0
M  V30 6383 H 599.74 2.57463 -1.94711 0
M  V30 6384 H 598.792 0.901622 -3.6956 0
M  V30 6385 H 600.104 1.39426 -4.78917 0
M  V30 6386 H 599.258 3.74988 -4.76937 0
M  V30 6387 H 597.997 3.30753 -3.58404 0
M  V30 6388 H 597.002 1.69446 -5.23037 0
M  V30 6389 H 598.227 2.1639 -6.43702 0
M  V30 6390 H 596.173 4.02358 -5.18116 0
M  V30 6391 H 596.09 3.35148 -6.77652 0
M  V30 6392 H 597.358 4.47378 -6.38336 0
M  V30 6393 N 601.587 1.56661 0.17182 0
M  V30 6394 C 602.519 1.92934 1.2373 0
M  V30 6395 C 603.532 0.822385 1.40502 0
M  V30 6396 O 604.721 1.10083 1.40514 0
M  V30 6397 C 601.821 2.16651 2.60607 0
M  V30 6398 C 600.994 3.47878 2.6514 0
M  V30 6399 C 600.053 3.60429 3.83377 0
M  V30 6400 O 599.079 4.33051 3.69398 0
M  V30 6401 N 600.281 2.95241 4.99813 0
M  V30 6402 H 603.046 2.84931 0.929205 0
M  V30 6403 H 600.607 1.5781 0.361588 0
M  V30 6404 H 602.599 2.22312 3.38171 0
M  V30 6405 H 601.169 1.3104 2.83809 0
M  V30 6406 H 600.389 3.53879 1.73675 0
M  V30 6407 H 601.677 4.34232 2.6518 0
M  V30 6408 H 601.075 2.3611 5.14071 0
M  V30 6409 H 599.632 3.06499 5.75241 0
M  V30 6410 N 603.065 -0.440357 1.51323 0
M  V30 6411 C 604.013 -1.55492 1.72988 0
M  V30 6412 C 605.007 -1.58564 0.596138 0
M  V30 6413 O 606.213 -1.62345 0.777443 0
M  V30 6414 H 602.588 -0.516532 0.546533 0
M  V30 6415 H 604.559 -1.34392 2.66423 0
M  V30 6416 C 603.308 -2.93176 1.86931 0
M  V30 6417 H 602.631 -2.91543 2.73574 0
M  V30 6418 H 604.071 -3.70537 2.06103 0
M  V30 6419 C 602.53 -3.30988 0.628365 0
M  V30 6420 O 603.06 -4.01106 -0.218367 0
M  V30 6421 N 601.266 -2.86719 0.473339 0
M  V30 6422 H 600.813 -2.2983 1.16345 0
M  V30 6423 H 600.771 -3.12381 -0.355727 0
M  V30 6424 N 604.543 -1.41418 -0.695603 0
M  V30 6425 C 605.473 -1.46035 -1.82197 0
M  V30 6426 C 606.454 -0.319025 -1.67082 0
M  V30 6427 O 607.639 -0.530462 -1.86815 0
M  V30 6428 C 604.769 -1.34179 -3.20333 0
M  V30 6429 C 603.723 -2.46123 -3.50154 0
M  V30 6430 C 603.049 -2.19332 -4.87645 0
M  V30 6431 C 604.349 -3.88463 -3.49133 0
M  V30 6432 H 606.043 -2.40303 -1.78591 0
M  V30 6433 H 603.589 -1.15663 -0.857797 0
M  V30 6434 H 605.542 -1.36021 -3.98844 0
M  V30 6435 H 604.266 -0.363952 -3.24566 0
M  V30 6436 H 602.925 -2.43563 -2.73994 0
M  V30 6437 H 602.573 -1.19891 -4.88503 0
M  V30 6438 H 602.273 -2.94344 -5.08562 0
M  V30 6439 H 603.797 -2.22889 -5.68465 0
M  V30 6440 H 605.211 -3.92738 -4.17648 0
M  V30 6441 H 603.608 -4.63158 -3.81582 0
M  V30 6442 H 604.678 -4.16617 -2.48109 0
M  V30 6443 N 606.021 0.929856 -1.27246 0
M  V30 6444 C 607.27 1.67182 -1.12842 0
M  V30 6445 C 607.583 1.9287 0.325666 0
M  V30 6446 O 608.789 2.64999 0.590572 0
M  V30 6447 C 607.245 3.01097 -1.97151 0
M  V30 6448 C 606.853 2.83115 -3.47203 0
M  V30 6449 C 608.597 3.78907 -1.91389 0
M  V30 6450 C 606.504 4.12573 -4.23719 0
M  V30 6451 H 605.434 0.627064 -0.418697 0
M  V30 6452 H 608.085 1.0332 -1.51649 0
M  V30 6453 H 606.467 3.66004 -1.51186 0
M  V30 6454 H 607.641 2.26989 -4.01015 0
M  V30 6455 H 605.956 2.18736 -3.54321 0
M  V30 6456 H 608.553 4.74837 -2.45834 0
M  V30 6457 H 608.896 4.0674 -0.887047 0
M  V30 6458 H 609.429 3.20794 -2.35237 0
M  V30 6459 H 606.168 3.8992 -5.26918 0
M  V30 6460 H 605.688 4.68371 -3.74685 0
M  V30 6461 H 607.367 4.8095 -4.32777 0
M  V30 6462 N 607.499 1.09233 1.13605 0
M  V30 6463 C 608.429 0.751738 2.21068 0
M  V30 6464 C 609.41 -0.269688 1.67948 0
M  V30 6465 O 610.595 -0.13819 1.93708 0
M  V30 6466 C 607.725 0.16935 3.46887 0
M  V30 6467 C 606.679 1.12007 4.13084 0
M  V30 6468 C 606.005 0.399483 5.33206 0
M  V30 6469 C 607.305 2.46168 4.6065 0
M  V30 6470 H 608.999 1.65024 2.49815 0
M  V30 6471 H 606.545 0.794905 1.20072 0
M  V30 6472 H 608.498 -0.0809824 4.21322 0
M  V30 6473 H 607.222 -0.764335 3.1753 0
M  V30 6474 H 605.881 1.35564 3.40614 0
M  V30 6475 H 605.529 -0.538277 5.00112 0
M  V30 6476 H 605.229 1.03337 5.78442 0
M  V30 6477 H 606.753 0.157403 6.10397 0
M  V30 6478 H 608.167 2.26829 5.26518 0
M  V30 6479 H 606.564 3.05326 5.1662 0
M  V30 6480 H 607.634 3.07076 3.75276 0
M  V30 6481 N 608.977 -1.30795 0.87923 0
M  V30 6482 C 610.393 -1.48981 0.57243 0
M  V30 6483 C 610.593 -1.80719 -0.891236 0
M  V30 6484 O 609.649 -1.89136 -1.67283 0
M  V30 6485 C 610.962 -2.61721 1.48063 0
M  V30 6486 C 612.51 -2.75603 1.48365 0
M  V30 6487 C 612.985 -3.91449 2.37763 0
M  V30 6488 N 614.476 -3.98751 2.35695 0
M  V30 6489 C 615.211 -4.87684 3.01583 0
M  V30 6490 N 614.707 -5.81454 3.76674 0
M  V30 6491 N 616.5 -4.81005 2.90844 0
M  V30 6492 H 608.651 -1.08465 1.82617 0
M  V30 6493 H 610.914 -0.536813 0.781368 0
M  V30 6494 H 610.62 -2.45073 2.52254 0
M  V30 6495 H 610.494 -3.58071 1.18596 0
M  V30 6496 H 612.881 -2.9166 0.44927 0
M  V30 6497 H 612.962 -1.79891 1.81859 0
M  V30 6498 H 612.606 -3.76149 3.41283 0
M  V30 6499 H 612.536 -4.86487 2.01589 0
M  V30 6500 H 615.027 -3.31668 1.81121 0
M  V30 6501 H 615.34 -6.46063 4.24054 0
M  V30 6502 H 613.685 -5.81403 3.80782 0
M  V30 6503 H 616.876 -4.06728 2.31711 0
M  V30 6504 H 617.049 -5.50107 3.42471 0
M  V30 6505 N 610.455 -0.639598 -1.44038 0
M  V30 6506 C 611.403 0.0723409 -2.32487 0
M  V30 6507 C 612.397 0.827129 -1.47834 0
M  V30 6508 O 613.603 0.73907 -1.64127 0
M  V30 6509 H 609.978 0.0421696 -0.750817 0
M  V30 6510 H 611.949 -0.691593 -2.90275 0
M  V30 6511 C 610.698 1.03452 -3.31953 0
M  V30 6512 H 610.021 0.46315 -3.97108 0
M  V30 6513 H 611.461 1.502 -3.96505 0
M  V30 6514 C 609.92 2.12392 -2.61518 0
M  V30 6515 O 610.45 3.2059 -2.42044 0
M  V30 6516 N 608.656 1.88563 -2.21116 0
M  V30 6517 H 608.203 1.00577 -2.37154 0
M  V30 6518 H 608.161 2.61651 -1.74316 0
M  V30 6519 N 611.933 1.52934 -0.380664 0
M  V30 6520 C 612.865 2.23822 0.493581 0
M  V30 6521 C 613.878 1.25761 1.03383 0
M  V30 6522 O 615.067 1.5189 0.937633 0
M  V30 6523 C 612.167 2.9342 1.69582 0
M  V30 6524 C 611.34 4.18115 1.28445 0
M  V30 6525 C 610.399 4.70788 2.35042 0
M  V30 6526 O 609.425 5.34093 1.96807 0
M  V30 6527 N 610.627 4.49899 3.66839 0
M  V30 6528 H 613.392 2.99484 -0.11371 0
M  V30 6529 H 610.953 1.60577 -0.206587 0
M  V30 6530 H 612.945 3.2556 2.40401 0
M  V30 6531 H 611.515 2.21119 2.20965 0
M  V30 6532 H 610.735 3.92109 0.405503 0
M  V30 6533 H 612.023 4.99152 0.986132 0
M  V30 6534 H 611.421 3.99349 4.0067 0
M  V30 6535 H 609.978 4.86551 4.33718 0
M  V30 6536 N 613.412 0.11024 1.57214 0
M  V30 6537 C 614.661 -0.549638 1.94067 0
M  V30 6538 C 614.974 -1.68388 0.995234 0
M  V30 6539 O 616.18 -2.40593 1.25807 0
M  V30 6540 C 614.636 -1.02912 3.44873 0
M  V30 6541 C 614.244 0.0761861 4.47935 0
M  V30 6542 C 615.988 -1.66087 3.9066 0
M  V30 6543 C 613.895 -0.419502 5.8991 0
M  V30 6544 H 612.825 -0.209092 0.724428 0
M  V30 6545 H 615.476 0.188683 1.82527 0
M  V30 6546 H 613.858 -1.82159 3.51616 0
M  V30 6547 H 615.032 0.852185 4.52851 0
M  V30 6548 H 613.347 0.614052 4.11847 0
M  V30 6549 H 615.944 -2.04272 4.94143 0
M  V30 6550 H 616.287 -2.53591 3.30148 0
M  V30 6551 H 616.82 -0.933959 3.86681 0
M  V30 6552 H 613.559 0.419277 6.54158 0
M  V30 6553 H 613.079 -1.16217 5.88433 0
M  V30 6554 H 614.758 -0.883577 6.40938 0
M  V30 6555 N 614.89 -1.56749 -0.16351 0
M  V30 6556 C 615.822 -1.93587 -1.22705 0
M  V30 6557 C 616.835 -0.829824 -1.40063 0
M  V30 6558 O 618.024 -1.10826 -1.39928 0
M  V30 6559 C 615.124 -2.1803 -2.59454 0
M  V30 6560 C 614.297 -3.4928 -2.63292 0
M  V30 6561 C 613.356 -3.62457 -3.8146 0
M  V30 6562 O 612.382 -4.35004 -3.67096 0
M  V30 6563 N 613.584 -2.97888 -4.9824 0
M  V30 6564 H 616.349 -2.8542 -0.914081 0
M  V30 6565 H 613.91 -1.58 -0.353214 0
M  V30 6566 H 615.902 -2.24102 -3.36987 0
M  V30 6567 H 614.472 -1.32543 -2.8311 0
M  V30 6568 H 613.692 -3.54795 -1.71796 0
M  V30 6569 H 614.98 -4.35632 -2.62873 0
M  V30 6570 H 614.378 -2.38833 -5.12811 0
M  V30 6571 H 612.935 -3.09545 -5.73607 0
M  V30 6572 N 616.368 0.432326 -1.51554 0
M  V30 6573 C 617.3 1.54357 -1.6943 0
M  V30 6574 C 618.313 1.52311 -0.574897 0
M  V30 6575 O 619.502 1.56997 -0.849369 0
M  V30 6576 C 616.602 2.93273 -1.69836 0
M  V30 6577 C 615.775 3.19768 -2.98442 0
M  V30 6578 C 614.834 4.38433 -2.90969 0
M  V30 6579 O 613.86 4.36842 -3.64908 0
M  V30 6580 N 615.062 5.42276 -2.07163 0
M  V30 6581 H 617.827 1.39426 -2.65293 0
M  V30 6582 H 615.388 0.621331 -1.49503 0
M  V30 6583 H 617.38 3.70687 -1.62399 0
M  V30 6584 H 615.95 3.01777 -0.815456 0
M  V30 6585 H 615.17 2.30607 -3.19709 0
M  V30 6586 H 616.458 3.343 -3.83563 0
M  V30 6587 H 615.856 5.46407 -1.46477 0
M  V30 6588 H 614.413 6.18524 -2.05601 0
M  V30 6589 N 617.846 1.41785 0.688094 0
M  V30 6590 C 618.809 1.43936 1.78368 0
M  V30 6591 C 619.809 0.328866 1.57401 0
M  V30 6592 O 620.999 0.589093 1.63937 0
M  V30 6593 C 618.131 1.25804 3.16838 0
M  V30 6594 H 619.324 2.41472 1.77852 0
M  V30 6595 H 616.877 1.28037 0.896448 0
M  V30 6596 H 617.612 0.291386 3.22988 0
M  V30 6597 H 617.397 2.06272 3.33458 0
M  V30 6598 H 618.887 1.30162 3.96797 0
M  V30 6599 N 619.324 -0.923095 1.27737 0
M  V30 6600 C 620.571 -1.67127 1.14345 0
M  V30 6601 C 620.899 -1.92017 -0.30982 0
M  V30 6602 O 620.154 -1.51185 -1.24264 0
M  V30 6603 C 620.453 -3.04125 1.8773 0
M  V30 6604 C 620.119 -2.98929 3.37568 0
M  V30 6605 C 618.781 -2.9722 3.78436 0
M  V30 6606 C 621.133 -2.89875 4.33154 0
M  V30 6607 C 618.461 -2.84244 5.13247 0
M  V30 6608 C 620.813 -2.7844 5.68026 0
M  V30 6609 C 619.477 -2.75083 6.08182 0
M  V30 6610 H 618.747 -0.611562 0.418417 0
M  V30 6611 H 621.394 -1.07618 1.584 0
M  V30 6612 H 619.699 -3.67366 1.36196 0
M  V30 6613 H 621.396 -3.609 1.74792 0
M  V30 6614 H 617.986 -3.0105 3.05069 0
M  V30 6615 H 622.17 -2.9029 4.02548 0
M  V30 6616 H 617.426 -2.80034 5.43499 0
M  V30 6617 H 621.6 -2.70401 6.4176 0
M  V30 6618 H 619.227 -2.64786 7.12596 0
M  V30 6619 N 620.802 -1.09834 -1.13024 0
M  V30 6620 C 622.048 -0.83819 -1.84668 0
M  V30 6621 C 622.381 0.634645 -1.83537 0
M  V30 6622 O 621.656 1.46753 -1.27647 0
M  V30 6623 C 621.939 -1.37933 -3.32636 0
M  V30 6624 C 621.792 -2.91857 -3.42257 0
M  V30 6625 C 623.111 -1.01654 -4.28199 0
M  V30 6626 H 620.23 -0.30595 -0.670495 0
M  V30 6627 H 622.872 -1.36044 -1.32635 0
M  V30 6628 H 621.022 -0.935111 -3.77078 0
M  V30 6629 H 622.694 -3.44759 -3.06495 0
M  V30 6630 H 620.937 -3.28776 -2.83 0
M  V30 6631 H 621.608 -3.24799 -4.46329 0
M  V30 6632 H 624.084 -1.39973 -3.9185 0
M  V30 6633 H 622.96 -1.42217 -5.30156 0
M  V30 6634 H 623.221 0.0747794 -4.42037 0
M  V30 6635 N 622.28 1.30327 -0.886154 0
M  V30 6636 C 623.19 2.31854 -0.357866 0
M  V30 6637 C 624.206 1.65392 0.540502 0
M  V30 6638 O 625.382 1.96683 0.433339 0
M  V30 6639 C 622.447 3.44171 0.417999 0
M  V30 6640 C 621.508 4.26257 -0.510263 0
M  V30 6641 C 620.741 5.3321 0.228669 0
M  V30 6642 O 620.964 5.51542 1.45458 0
M  V30 6643 O 619.898 6.0042 -0.421832 0
M  V30 6644 H 623.724 2.78995 -1.19982 0
M  V30 6645 H 621.309 1.34518 -0.650028 0
M  V30 6646 H 623.191 4.12588 0.857251 0
M  V30 6647 H 621.866 2.99164 1.23623 0
M  V30 6648 H 620.773 3.60533 -0.99835 0
M  V30 6649 H 622.106 4.74871 -1.29454 0
M  V30 6650 N 623.758 0.647228 1.43697 0
M  V30 6651 C 625.174 0.314256 1.56476 0
M  V30 6652 C 625.374 -1.18191 1.63196 0
M  V30 6653 O 624.43 -1.96655 1.58376 0
M  V30 6654 C 625.743 1.02034 2.82859 0
M  V30 6655 C 627.291 1.00002 2.96595 0
M  V30 6656 C 627.766 1.68689 4.25803 0
M  V30 6657 N 629.257 1.65424 4.32654 0
M  V30 6658 C 629.992 2.1545 5.31384 0
M  V30 6659 N 629.488 2.73738 6.36427 0
M  V30 6660 N 631.281 2.05985 5.22998 0
M  V30 6661 H 623.432 1.61821 1.37578 0
M  V30 6662 H 625.695 0.680184 0.660344 0
M  V30 6663 H 625.401 2.07542 2.83935 0
M  V30 6664 H 625.275 0.568146 3.72897 0
M  V30 6665 H 627.662 -0.0466319 2.95063 0
M  V30 6666 H 627.743 1.49086 2.07863 0
M  V30 6667 H 627.387 2.73308 4.28095 0
M  V30 6668 H 627.317 1.17076 5.13421 0
M  V30 6669 H 629.808 1.22884 3.57363 0
M  V30 6670 H 630.121 3.09602 7.08072 0
M  V30 6671 H 628.466 2.77796 6.37067 0
M  V30 6672 H 631.657 1.60157 4.39849 0
M  V30 6673 H 631.83 2.45281 5.99784 0
M  V30 6674 N 625.236 -1.5273 0.388769 0
M  V30 6675 C 626.513 -1.93981 -0.251133 0
M  V30 6676 C 626.893 -1.32418 -1.64404 0
M  V30 6677 O 626.241 -0.492074 -2.23139 0
M  V30 6678 C 626.451 -3.47891 -0.27802 0
M  V30 6679 C 627.799 -4.21559 -0.507229 0
M  V30 6680 O 628.823 -3.54394 -0.358252 0
M  V30 6681 O 627.682 -5.40626 -0.799094 0
M  V30 6682 H 624.776 -0.812157 -0.15598 0
M  V30 6683 H 627.322 -1.63809 0.443237 0
M  V30 6684 H 626.094 -3.8503 0.697669 0
M  V30 6685 H 625.717 -3.84364 -1.01733 0
M  V30 6686 N 626.714 -0.118576 -1.57153 0
M  V30 6687 C 627.963 0.539339 -1.94355 0
M  V30 6688 C 628.276 1.67858 -1.00415 0
M  V30 6689 O 629.482 2.39922 -1.27081 0
M  V30 6690 C 627.938 1.01082 -3.45414 0
M  V30 6691 C 627.546 -0.0999402 -4.47889 0
M  V30 6692 C 629.29 1.64013 -3.91535 0
M  V30 6693 C 627.197 0.388212 -5.90124 0
M  V30 6694 H 626.127 0.205247 -0.725527 0
M  V30 6695 H 628.778 -0.19836 -1.82425 0
M  V30 6696 H 627.16 1.80292 -3.52577 0
M  V30 6697 H 628.334 -0.876189 -4.52393 0
M  V30 6698 H 626.649 -0.635885 -4.11516 0
M  V30 6699 H 629.246 2.01649 -4.95219 0
M  V30 6700 H 629.589 2.51836 -3.31488 0
M  V30 6701 H 630.122 0.913439 -3.87171 0
M  V30 6702 H 626.861 -0.453963 -6.53926 0
M  V30 6703 H 626.381 1.13095 -5.89041 0
M  V30 6704 H 628.06 0.849574 -6.41398 0
M  V30 6705 N 628.193 1.56834 0.155195 0
M  V30 6706 C 629.123 2.00678 1.19376 0
M  V30 6707 C 630.104 0.884973 1.45266 0
M  V30 6708 O 631.289 1.1522 1.56326 0
M  V30 6709 C 628.419 2.38042 2.5289 0
M  V30 6710 C 627.373 3.53332 2.41538 0
M  V30 6711 C 626.699 3.76485 3.79688 0
M  V30 6712 C 627.999 4.86265 1.9064 0
M  V30 6713 H 629.693 2.87688 0.829232 0
M  V30 6714 H 627.239 1.38407 0.397445 0
M  V30 6715 H 629.192 2.67314 3.25763 0
M  V30 6716 H 627.916 1.4796 2.91162 0
M  V30 6717 H 626.575 3.24213 1.71117 0
M  V30 6718 H 626.223 2.83667 4.15382 0
M  V30 6719 H 625.923 4.54068 3.72956 0
M  V30 6720 H 627.447 4.08174 4.54122 0
M  V30 6721 H 628.861 5.14308 2.53299 0
M  V30 6722 H 627.258 5.67597 1.94818 0
M  V30 6723 H 628.328 4.77184 0.861596 0
M  V30 6724 N 629.671 -0.424282 1.51781 0
M  V30 6725 C 630.899 -1.1947 1.68921 0
M  V30 6726 C 631.314 -1.84683 0.39213 0
M  V30 6727 O 630.671 -1.71261 -0.630554 0
M  V30 6728 C 630.722 -2.26909 2.81416 0
M  V30 6729 O 630.443 -1.64361 4.061 0
M  V30 6730 C 631.944 -3.16945 3.09937 0
M  V30 6731 H 629.164 -0.359591 0.566511 0
M  V30 6732 H 631.708 -0.501139 1.98265 0
M  V30 6733 H 629.863 -2.91959 2.54635 0
M  V30 6734 H 630.277 -2.35468 4.68674 0
M  V30 6735 H 631.751 -3.88437 3.922 0
M  V30 6736 H 632.228 -3.78451 2.22871 0
M  V30 6737 H 632.834 -2.57581 3.38426 0
M  V30 6738 N 631.149 -1.42148 -0.680565 0
M  V30 6739 C 632.396 -1.4231 -1.44063 0
M  V30 6740 C 632.724 -0.037488 -1.94464 0
M  V30 6741 O 631.979 0.953184 -1.70918 0
M  V30 6742 C 632.278 -2.38945 -2.65782 0
M  V30 6743 C 631.944 -3.85455 -2.33956 0
M  V30 6744 C 630.606 -4.25364 -2.24987 0
M  V30 6745 C 632.958 -4.77895 -2.08004 0
M  V30 6746 C 630.286 -5.55701 -1.88184 0
M  V30 6747 C 632.638 -6.08568 -1.72706 0
M  V30 6748 C 631.302 -6.47482 -1.62244 0
M  V30 6749 H 630.572 -0.520748 -0.527164 0
M  V30 6750 H 633.219 -1.7505 -0.776524 0
M  V30 6751 H 631.524 -1.99511 -3.37198 0
M  V30 6752 H 633.221 -2.36336 -3.23954 0
M  V30 6753 H 629.811 -3.53855 -2.41836 0
M  V30 6754 H 633.995 -4.47854 -2.1387 0
M  V30 6755 H 629.251 -5.84718 -1.78648 0
M  V30 6756 H 633.425 -6.79688 -1.5165 0
M  V30 6757 H 631.052 -7.48387 -1.33496 0
M  V30 6758 N 632.627 0.916307 -1.28225 0
M  V30 6759 C 633.59 1.99996 -1.11957 0
M  V30 6760 C 634.59 1.60688 -0.0600152 0
M  V30 6761 O 635.78 1.71499 -0.30558 0
M  V30 6762 C 632.912 3.33458 -0.708411 0
M  V30 6763 H 634.105 2.15858 -2.08196 0
M  V30 6764 H 631.658 1.09863 -1.11175 0
M  V30 6765 H 632.393 3.23297 0.254859 0
M  V30 6766 H 632.178 3.63349 -1.47377 0
M  V30 6767 H 633.668 4.13014 -0.617164 0
M  V30 6768 N 634.105 1.10431 1.1244 0
M  V30 6769 C 635.015 0.765502 2.21759 0
M  V30 6770 C 636.031 -0.236966 1.72379 0
M  V30 6771 O 637.207 -0.0757329 2.01258 0
M  V30 6772 C 634.272 0.202316 3.46109 0
M  V30 6773 C 633.333 1.26205 4.1033 0
M  V30 6774 C 632.566 0.725648 5.28744 0
M  V30 6775 O 632.789 -0.447942 5.68638 0
M  V30 6776 O 631.723 1.48555 5.83279 0
M  V30 6777 H 635.549 1.67801 2.53133 0
M  V30 6778 H 633.134 0.879443 1.20773 0
M  V30 6779 H 635.016 -0.107918 4.21262 0
M  V30 6780 H 633.691 -0.683052 3.16411 0
M  V30 6781 H 632.598 1.62514 3.36957 0
M  V30 6782 H 633.931 2.12044 4.44183 0
M  V30 6783 N 635.583 -1.29855 0.893053 0
M  V30 6784 C 636.531 -2.29867 0.355512 0
M  V30 6785 C 637.525 -1.60502 -0.541801 0
M  V30 6786 O 638.731 -1.74902 -0.425339 0
M  V30 6787 H 635.106 -0.745805 0.0963247 0
M  V30 6788 H 637.077 -2.72655 1.21252 0
M  V30 6789 C 635.826 -3.453 -0.407801 0
M  V30 6790 H 635.149 -3.98864 0.273426 0
M  V30 6791 H 636.589 -4.17334 -0.748887 0
M  V30 6792 C 635.048 -2.96051 -1.60795 0
M  V30 6793 O 635.578 -2.96763 -2.7073 0
M  V30 6794 N 633.784 -2.51963 -1.44786 0
M  V30 6795 H 633.331 -2.51583 -0.553498 0
M  V30 6796 H 633.289 -2.1937 -2.2522 0
M  V30 6797 N 637.061 -0.65484 -1.43351 0
M  V30 6798 C 638.472 -0.248506 -1.85039 0
M  V30 6799 C 638.823 1.20526 -1.54816 0
M  V30 6800 O 637.948 1.92016 -0.99794 0
M  V30 6801 C 638.543 -0.444241 -3.35875 0
M  V30 6802 C 637.102 -0.0922108 -3.76287 0
M  V30 6803 C 636.249 -0.746327 -2.67068 0
M  V30 6804 H 639.2 -0.8584 -1.33481 0
M  V30 6805 H 639.221 0.309762 -3.79237 0
M  V30 6806 H 638.733 -1.50239 -3.5784 0
M  V30 6807 H 636.834 0.96328 -3.59933 0
M  V30 6808 H 636.947 -0.518807 -4.76283 0
M  V30 6809 H 635.311 -0.179416 -2.54067 0
M  V30 6810 H 636.094 -1.80754 -2.91861 0
M  V30 6811 N 638.539 1.52521 -0.396863 0
M  V30 6812 C 639.786 2.01672 0.182898 0
M  V30 6813 C 640.114 1.28302 1.46181 0
M  V30 6814 O 639.369 0.374118 1.92091 0
M  V30 6815 C 639.668 3.5403 0.489677 0
M  V30 6816 C 639.334 4.45456 -0.698581 0
M  V30 6817 C 637.996 4.70166 -1.02454 0
M  V30 6818 C 640.348 4.99354 -1.49316 0
M  V30 6819 C 637.676 5.46024 -2.1465 0
M  V30 6820 C 640.028 5.76439 -2.60579 0
M  V30 6821 C 638.692 5.99426 -2.93675 0
M  V30 6822 H 637.962 0.737971 0.066927 0
M  V30 6823 H 640.609 1.83853 -0.535764 0
M  V30 6824 H 638.914 3.69963 1.28976 0
M  V30 6825 H 640.611 3.8956 0.951018 0
M  V30 6826 H 637.201 4.26392 -0.434525 0
M  V30 6827 H 641.385 4.80182 -1.25457 0
M  V30 6828 H 636.641 5.62046 -2.40654 0
M  V30 6829 H 640.815 6.17202 -3.22544 0
M  V30 6830 H 638.442 6.57988 -3.80731 0
M  V30 6831 N 640.017 0.126909 1.57088 0
M  V30 6832 C 641.263 -0.529952 1.95753 0
M  V30 6833 C 641.596 -1.65823 1.01077 0
M  V30 6834 O 640.871 -1.94437 0.0494162 0
M  V30 6835 C 641.154 -1.05517 3.44294 0
M  V30 6836 C 641.007 0.0702253 4.49745 0
M  V30 6837 C 642.326 -1.9435 3.94862 0
M  V30 6838 H 639.445 -0.191168 0.711775 0
M  V30 6839 H 642.087 0.204071 1.88901 0
M  V30 6840 H 640.237 -1.68069 3.50264 0
M  V30 6841 H 641.909 0.705834 4.55868 0
M  V30 6842 H 640.152 0.732259 4.27575 0
M  V30 6843 H 640.823 -0.338642 5.5096 0
M  V30 6844 H 643.299 -1.41658 3.91244 0
M  V30 6845 H 642.175 -2.28015 4.993 0
M  V30 6846 H 642.436 -2.87299 3.36024 0
M  V30 6847 N 641.495 -1.56914 -0.146875 0
M  V30 6848 C 642.741 -1.83628 -0.860741 0
M  V30 6849 C 643.074 -0.708528 -1.80813 0
M  V30 6850 O 642.349 0.287838 -1.92358 0
M  V30 6851 C 642.632 -3.20836 -1.63511 0
M  V30 6852 C 642.485 -4.44174 -0.709199 0
M  V30 6853 C 643.804 -3.55268 -2.59756 0
M  V30 6854 H 640.923 -0.667949 -0.311468 0
M  V30 6855 H 643.565 -1.89582 -0.125936 0
M  V30 6856 H 641.715 -3.15891 -2.26153 0
M  V30 6857 H 643.387 -4.61205 -0.0937781 0
M  V30 6858 H 641.63 -4.33796 -0.0187856 0
M  V30 6859 H 642.301 -5.36785 -1.28707 0
M  V30 6860 H 644.777 -3.60824 -2.07232 0
M  V30 6861 H 643.653 -4.52303 -3.10987 0
M  V30 6862 H 643.914 -2.81231 -3.41118 0
M  V30 6863 N 642.974 0.416227 -1.52004 0
M  V30 6864 C 644.222 1.16153 -1.65387 0
M  V30 6865 C 644.543 1.91208 -0.382669 0
M  V30 6866 O 643.813 1.86413 0.602231 0
M  V30 6867 H 642.393 0.431765 -0.60958 0
M  V30 6868 H 645.055 0.475151 -1.89019 0
M  V30 6869 H 644.151 1.87952 -2.4916 0
M  V30 6870 N 644.452 1.42507 0.673017 0
M  V30 6871 C 645.385 1.40557 1.79774 0
M  V30 6872 C 646.363 0.269606 1.60349 0
M  V30 6873 O 647.547 0.460105 1.82798 0
M  V30 6874 C 644.674 1.19815 3.168 0
M  V30 6875 C 643.72 2.36429 3.5497 0
M  V30 6876 S 644.553 3.98963 3.57196 0
M  V30 6877 C 645.709 3.80567 4.9691 0
M  V30 6878 H 645.942 2.35734 1.81154 0
M  V30 6879 H 643.475 1.293 0.843846 0
M  V30 6880 H 645.433 1.08535 3.95892 0
M  V30 6881 H 644.094 0.262215 3.13004 0
M  V30 6882 H 643.287 2.17669 4.54573 0
M  V30 6883 H 642.889 2.44233 2.83242 0
M  V30 6884 H 645.181 3.41668 5.85038 0
M  V30 6885 H 646.124 4.79852 5.20718 0
M  V30 6886 H 646.532 3.13399 4.69512 0
M  V30 6887 N 645.93 -0.909495 1.28709 0
M  V30 6888 C 647.177 -1.65905 1.16111 0
M  V30 6889 C 647.505 -1.92334 -0.289436 0
M  V30 6890 O 646.76 -1.52495 -1.22653 0
M  V30 6891 C 647.059 -3.02117 1.90945 0
M  V30 6892 C 646.725 -2.95332 3.40719 0
M  V30 6893 C 645.387 -2.93189 3.81567 0
M  V30 6894 C 647.739 -2.85264 4.36204 0
M  V30 6895 C 645.067 -2.78784 5.16233 0
M  V30 6896 C 647.419 -2.724 5.70948 0
M  V30 6897 C 646.083 -2.68617 6.11066 0
M  V30 6898 H 645.353 -0.60709 0.42488 0
M  V30 6899 H 648 -1.05932 1.59533 0
M  V30 6900 H 646.305 -3.65901 1.40085 0
M  V30 6901 H 648.002 -3.59026 1.7861 0
M  V30 6902 H 644.592 -2.97797 3.08245 0
M  V30 6903 H 648.776 -2.86005 4.05605 0
M  V30 6904 H 644.032 -2.74254 5.46438 0
M  V30 6905 H 648.206 -2.63579 6.44592 0
M  V30 6906 H 645.833 -2.57213 7.15364 0
M  V30 6907 N 647.408 -1.11026 -1.11852 0
M  V30 6908 C 648.648 -0.866348 -1.85132 0
M  V30 6909 C 649.012 0.597236 -1.82475 0
M  V30 6910 O 650.213 0.957744 -2.51159 0
M  V30 6911 C 648.484 -1.40721 -3.28531 0
M  V30 6912 S 650.043 -1.29964 -4.19112 0
M  V30 6913 H 646.861 -0.312899 -0.638447 0
M  V30 6914 H 649.463 -1.41691 -1.34699 0
M  V30 6915 H 648.167 -2.46631 -3.28027 0
M  V30 6916 H 647.698 -0.85349 -3.8403 0
M  V30 6917 H 649.713 -0.261333 -4.95511 0
M  V30 6918 N 648.886 1.2938 -0.899927 0
M  V30 6919 C 650.111 2.00228 -0.540692 0
M  V30 6920 C 650.536 1.66909 0.867359 0
M  V30 6921 O 649.894 0.893824 1.57735 0
M  V30 6922 C 649.942 3.52921 -0.740232 0
M  V30 6923 O 649.046 4.11879 0.207154 0
M  V30 6924 H 648.387 0.629505 -0.211233 0
M  V30 6925 H 650.917 1.6487 -1.21158 0
M  V30 6926 H 650.927 4.0287 -0.644973 0
M  V30 6927 H 649.602 3.76508 -1.76677 0
M  V30 6928 H 648.179 3.72845 0.0643315 0
M  V30 6929 N 650.364 0.662433 1.43002 0
M  V30 6930 C 651.611 0.179591 2.01702 0
M  V30 6931 C 651.939 -1.20964 1.52309 0
M  V30 6932 O 651.194 -1.82343 0.7106 0
M  V30 6933 C 651.493 0.149363 3.57088 0
M  V30 6934 C 651.159 1.48158 4.25864 0
M  V30 6935 C 649.821 1.84638 4.44367 0
M  V30 6936 C 652.173 2.35953 4.64732 0
M  V30 6937 C 649.501 3.08561 4.99006 0
M  V30 6938 C 651.853 3.59176 5.20745 0
M  V30 6939 C 650.517 3.95841 5.37463 0
M  V30 6940 H 649.787 0.0657172 0.73808 0
M  V30 6941 H 652.434 0.854968 1.71355 0
M  V30 6942 H 650.739 -0.609491 3.8703 0
M  V30 6943 H 652.436 -0.241241 4.00274 0
M  V30 6944 H 649.026 1.18777 4.11813 0
M  V30 6945 H 653.21 2.09058 4.50121 0
M  V30 6946 H 648.466 3.37005 5.10135 0
M  V30 6947 H 652.64 4.27417 5.49807 0
M  V30 6948 H 650.267 4.91942 5.79566 0
M  V30 6949 N 651.842 -1.52309 0.404946 0
M  V30 6950 C 652.752 -2.30634 -0.429555 0
M  V30 6951 C 653.768 -1.38187 -1.05737 0
M  V30 6952 O 654.944 -1.71261 -1.05979 0
M  V30 6953 C 652.009 -3.10947 -1.53339 0
M  V30 6954 C 651.07 -4.19126 -0.929065 0
M  V30 6955 C 650.303 -4.95601 -1.9803 0
M  V30 6956 O 650.526 -4.72331 -3.1978 0
M  V30 6957 O 649.46 -5.80551 -1.58886 0
M  V30 6958 H 653.286 -3.0298 0.208963 0
M  V30 6959 H 650.871 -1.4845 0.168255 0
M  V30 6960 H 652.753 -3.60974 -2.1743 0
M  V30 6961 H 651.428 -2.41399 -2.15658 0
M  V30 6962 H 650.335 -3.73257 -0.250982 0
M  V30 6963 H 651.668 -4.90955 -0.349855 0
M  V30 6964 N 653.32 -0.135238 -1.57019 0
M  V30 6965 C 654.548 0.526066 -2.001 0
M  V30 6966 C 654.963 1.59184 -1.01519 0
M  V30 6967 O 654.32 1.82497 -0.0104258 0
M  V30 6968 C 654.371 1.13744 -3.43139 0
M  V30 6969 O 654.092 0.114259 -4.37951 0
M  V30 6970 C 655.593 1.8805 -4.01438 0
M  V30 6971 H 652.813 0.137962 -0.656664 0
M  V30 6972 H 655.357 -0.226359 -2.03243 0
M  V30 6973 H 653.512 1.84056 -3.40885 0
M  V30 6974 H 653.926 0.56058 -5.21496 0
M  V30 6975 H 655.4 2.26133 -5.03555 0
M  V30 6976 H 655.877 2.76194 -3.41487 0
M  V30 6977 H 656.483 1.22464 -4.07287 0
M  V30 6978 N 654.798 1.5699 0.138552 0
M  V30 6979 C 656.214 1.51844 0.491472 0
M  V30 6980 C 656.414 0.845063 1.82923 0
M  V30 6981 O 655.47 0.419143 2.48997 0
M  V30 6982 C 656.783 2.96615 0.493987 0
M  V30 6983 C 658.331 3.076 0.578913 0
M  V30 6984 C 658.806 4.53893 0.612009 0
M  V30 6985 N 660.297 4.5827 0.673997 0
M  V30 6986 C 661.032 5.68852 0.720729 0
M  V30 6987 N 660.528 6.88982 0.726292 0
M  V30 6988 N 662.321 5.56908 0.762253 0
M  V30 6989 H 654.472 1.99158 -0.738228 0
M  V30 6990 H 656.735 0.908693 -0.270149 0
M  V30 6991 H 656.441 3.49172 -0.420933 0
M  V30 6992 H 656.315 3.53017 1.32887 0
M  V30 6993 H 658.702 2.55057 1.48425 0
M  V30 6994 H 658.783 2.54227 -0.283286 0
M  V30 6995 H 658.427 5.07076 -0.289208 0
M  V30 6996 H 658.357 5.05057 1.49082 0
M  V30 6997 H 660.848 3.71793 0.676654 0
M  V30 6998 H 661.161 7.69014 0.764032 0
M  V30 6999 H 659.506 6.91526 0.69403 0
M  V30 7000 H 662.697 4.61969 0.755135 0
M  V30 7001 H 662.87 6.43102 0.795207 0
M  V30 7002 N 656.276 -0.40816 1.52223 0
M  V30 7003 C 657.692 -0.74685 1.41047 0
M  V30 7004 C 657.892 -1.94788 0.51573 0
M  V30 7005 O 656.948 -2.52494 -0.0181156 0
M  V30 7006 C 658.261 -0.999878 2.83589 0
M  V30 7007 C 659.809 -1.10253 2.92939 0
M  V30 7008 C 660.284 -1.38832 4.36451 0
M  V30 7009 N 661.775 -1.45694 4.3969 0
M  V30 7010 C 662.51 -1.69435 5.47795 0
M  V30 7011 N 662.006 -1.90774 6.66016 0
M  V30 7012 N 663.799 -1.71458 5.35312 0
M  V30 7013 H 655.95 0.382409 2.08929 0
M  V30 7014 H 658.213 0.108807 0.941735 0
M  V30 7015 H 657.919 -0.189723 3.51188 0
M  V30 7016 H 657.793 -1.91978 3.24691 0
M  V30 7017 H 660.18 -1.90328 2.2552 0
M  V30 7018 H 660.261 -0.160973 2.55293 0
M  V30 7019 H 659.905 -0.592741 5.04429 0
M  V30 7020 H 659.835 -2.34241 4.71634 0
M  V30 7021 H 662.326 -1.3099 3.54472 0
M  V30 7022 H 662.639 -2.08342 7.44186 0
M  V30 7023 H 660.984 -1.88037 6.69079 0
M  V30 7024 H 664.175 -1.54326 4.41929 0
M  V30 7025 H 664.348 -1.89621 6.19635 0
M  V30 7026 N 657.755 -1.42862 -0.66545 0
M  V30 7027 C 658.705 -1.43521 -1.7716 0
M  V30 7028 C 659.689 -0.305267 -1.57978 0
M  V30 7029 O 660.881 -0.548176 -1.68297 0
M  V30 7030 C 658.01 -1.34914 -3.15679 0
M  V30 7031 C 657.096 -2.5289 -3.40452 0
M  V30 7032 N 657.487 -3.78284 -3.3576 0
M  V30 7033 C 655.785 -2.47351 -3.71124 0
M  V30 7034 C 656.486 -4.56701 -3.60276 0
M  V30 7035 N 655.462 -3.87249 -3.81496 0
M  V30 7036 H 659.264 -2.38357 -1.7194 0
M  V30 7037 H 656.778 -1.37342 -0.866653 0
M  V30 7038 H 658.775 -1.33468 -3.94958 0
M  V30 7039 H 657.435 -0.410881 -3.2209 0
M  V30 7040 H 658.446 -4.10746 -3.15448 0
M  V30 7041 H 655.123 -1.62152 -3.84725 0
M  V30 7042 H 656.513 -5.65704 -3.6253 0
M  V30 7043 N 659.233 0.902656 -1.29189 0
M  V30 7044 C 660.163 2.02294 -1.16616 0
M  V30 7045 C 661.144 1.6999 -0.0611175 0
M  V30 7046 O 662.329 1.9271 -0.240072 0
M  V30 7047 C 659.459 3.37018 -0.83882 0
M  V30 7048 C 658.413 3.83522 -1.89986 0
M  V30 7049 C 657.739 5.15337 -1.42589 0
M  V30 7050 C 659.039 4.04169 -3.30824 0
M  V30 7051 H 660.733 2.13071 -2.10336 0
M  V30 7052 H 658.279 1.02378 -1.01266 0
M  V30 7053 H 660.232 4.14895 -0.737584 0
M  V30 7054 H 658.956 3.26325 0.134071 0
M  V30 7055 H 657.615 3.07859 -1.99043 0
M  V30 7056 H 657.263 5.01056 -0.441759 0
M  V30 7057 H 656.963 5.47423 -2.13547 0
M  V30 7058 H 658.487 5.95758 -1.3381 0
M  V30 7059 H 659.901 4.72537 -3.24626 0
M  V30 7060 H 658.298 4.47604 -3.99713 0
M  V30 7061 H 659.368 3.08604 -3.74021 0
M  V30 7062 N 660.711 1.11618 1.11262 0
M  V30 7063 C 661.951 0.876154 1.8467 0
M  V30 7064 C 662.315 -0.587551 1.82789 0
M  V30 7065 O 663.516 -0.944411 2.51663 0
M  V30 7066 C 661.787 1.42461 3.2778 0
M  V30 7067 S 663.346 1.32185 4.18417 0
M  V30 7068 H 660.164 0.31628 0.636779 0
M  V30 7069 H 662.766 1.42404 1.33946 0
M  V30 7070 H 661.47 2.48367 3.26714 0
M  V30 7071 H 661.001 0.873844 3.83572 0
M  V30 7072 H 663.016 0.287607 4.95366 0
M  V30 7073 N 662.189 -1.289 0.906776 0
M  V30 7074 C 663.122 -2.25737 0.334362 0
M  V30 7075 C 664.1 -1.52745 -0.557474 0
M  V30 7076 O 665.284 -1.81673 -0.502697 0
M  V30 7077 C 662.411 -3.34642 -0.522716 0
M  V30 7078 C 661.457 -4.25424 0.302777 0
M  V30 7079 S 662.29 -5.07629 1.70508 0
M  V30 7080 C 663.446 -6.20031 0.855118 0
M  V30 7081 H 663.679 -2.73941 1.15514 0
M  V30 7082 H 661.212 -1.37233 0.707573 0
M  V30 7083 H 663.17 -3.97845 -1.01141 0
M  V30 7084 H 661.831 -2.85119 -1.31781 0
M  V30 7085 H 661.024 -5.02767 -0.352257 0
M  V30 7086 H 660.626 -3.66908 0.724873 0
M  V30 7087 H 662.918 -6.77451 0.0816418 0
M  V30 7088 H 663.861 -6.89767 1.60087 0
M  V30 7089 H 664.269 -5.63035 0.406375 0
M  V30 7090 N 663.667 -0.670007 -1.42649 0
M  V30 7091 C 664.913 -0.190568 -2.01903 0
M  V30 7092 C 665.246 1.19817 -1.52832 0
M  V30 7093 O 664.521 1.80342 -0.728485 0
M  V30 7094 C 664.804 -0.21991 -3.59428 0
M  V30 7095 C 664.657 -1.64376 -4.18689 0
M  V30 7096 C 665.976 0.434519 -4.3795 0
M  V30 7097 H 663.095 -0.0707219 -0.733599 0
M  V30 7098 H 665.737 -0.853883 -1.69732 0
M  V30 7099 H 663.887 0.344894 -3.86966 0
M  V30 7100 H 665.559 -2.26044 -4.02122 0
M  V30 7101 H 663.802 -2.18591 -3.747 0
M  V30 7102 H 664.473 -1.61601 -5.27815 0
M  V30 7103 H 666.949 -0.0462156 -4.16074 0
M  V30 7104 H 665.825 0.38333 -5.4756 0
M  V30 7105 H 666.086 1.51135 -4.15464 0
M  V30 7106 N 665.145 1.52092 -0.413018 0
M  V30 7107 C 666.078 2.23613 0.455234 0
M  V30 7108 C 667.056 1.2459 1.04481 0
M  V30 7109 O 668.24 1.53653 1.09193 0
M  V30 7110 C 665.367 2.96775 1.63224 0
M  V30 7111 C 664.413 4.10261 1.16568 0
M  V30 7112 S 665.246 5.35348 0.127633 0
M  V30 7113 C 666.402 6.1204 1.30987 0
M  V30 7114 H 666.635 2.96911 -0.152042 0
M  V30 7115 H 664.168 1.53134 -0.197343 0
M  V30 7116 H 666.126 3.39532 2.30713 0
M  V30 7117 H 664.787 2.23113 2.21087 0
M  V30 7118 H 663.98 4.6064 2.04515 0
M  V30 7119 H 663.582 3.6964 0.569386 0
M  V30 7120 H 665.874 6.39651 2.23276 0
M  V30 7121 H 666.817 7.03022 0.846533 0
M  V30 7122 H 667.225 5.43161 1.53743 0
M  V30 7123 N 666.623 0.143563 1.56945 0
M  V30 7124 C 667.533 -0.810562 2.20152 0
M  V30 7125 C 668.549 -1.27431 1.1848 0
M  V30 7126 O 669.725 -1.33221 1.51044 0
M  V30 7127 C 666.79 -2.03353 2.80799 0
M  V30 7128 C 665.851 -1.61936 3.97587 0
M  V30 7129 C 665.084 -2.78403 4.55332 0
M  V30 7130 O 665.307 -3.94521 4.11958 0
M  V30 7131 O 664.241 -2.54073 5.45647 0
M  V30 7132 H 668.067 -0.30253 3.02189 0
M  V30 7133 H 665.652 -0.0832925 1.49168 0
M  V30 7134 H 667.534 -2.74932 3.19359 0
M  V30 7135 H 666.209 -2.53116 2.01777 0
M  V30 7136 H 665.116 -0.873904 3.6375 0
M  V30 7137 H 666.449 -1.16892 4.78118 0
M  V30 7138 N 668.101 -1.57061 -0.130224 0
M  V30 7139 C 669.331 -1.88159 -0.853217 0
M  V30 7140 C 669.739 -0.731675 -1.7448 0
M  V30 7141 O 669.082 0.307035 -1.81116 0
M  V30 7142 C 669.144 -3.1415 -1.74785 0
M  V30 7143 C 668.808 -4.45202 -1.03173 0
M  V30 7144 C 669.805 -5.18526 -0.377759 0
M  V30 7145 C 667.49 -4.91912 -1.01624 0
M  V30 7146 C 669.484 -6.36775 0.282123 0
M  V30 7147 C 667.171 -6.10082 -0.352555 0
M  V30 7148 C 668.169 -6.82361 0.295483 0
M  V30 7149 O 667.857 -7.98284 0.948606 0
M  V30 7150 H 667.589 -0.627596 -0.251197 0
M  V30 7151 H 670.143 -2.05034 -0.1226 0
M  V30 7152 H 668.373 -2.93328 -2.51983 0
M  V30 7153 H 670.062 -3.31359 -2.34427 0
M  V30 7154 H 670.828 -4.83498 -0.381417 0
M  V30 7155 H 666.707 -4.35566 -1.51007 0
M  V30 7156 H 670.251 -6.93129 0.788525 0
M  V30 7157 H 666.148 -6.44569 -0.346621 0
M  V30 7158 H 666.916 -8.14054 0.851954 0
M  V30 7159 N 669.579 0.400081 -1.52437 0
M  V30 7160 C 670.825 1.14788 -1.67187 0
M  V30 7161 C 671.158 1.89928 -0.405074 0
M  V30 7162 O 670.433 1.85118 0.596804 0
M  V30 7163 C 670.716 2.13507 -2.89977 0
M  V30 7164 C 670.569 1.42204 -4.2673 0
M  V30 7165 C 671.888 3.14069 -3.083 0
M  V30 7166 H 669.007 0.415939 -0.608411 0
M  V30 7167 H 671.649 0.432542 -1.85011 0
M  V30 7168 H 669.799 2.7451 -2.74912 0
M  V30 7169 H 671.471 0.842503 -4.53541 0
M  V30 7170 H 669.714 0.723939 -4.27717 0
M  V30 7171 H 670.385 2.14281 -5.08712 0
M  V30 7172 H 672.861 2.63148 -3.22323 0
M  V30 7173 H 671.737 3.80398 -3.95713 0
M  V30 7174 H 671.998 3.82309 -2.22018 0
M  V30 7175 N 671.057 1.43213 0.657864 0
M  V30 7176 C 671.967 1.50448 1.80007 0
M  V30 7177 C 672.983 0.39191 1.69529 0
M  V30 7178 O 674.159 0.645349 1.90781 0
M  V30 7179 C 671.224 1.42062 3.16258 0
M  V30 7180 C 670.285 2.63951 3.38568 0
M  V30 7181 C 669.518 2.55956 4.68318 0
M  V30 7182 O 669.741 1.60473 5.47361 0
M  V30 7183 O 668.675 3.46378 4.92245 0
M  V30 7184 H 672.501 2.4689 1.76858 0
M  V30 7185 H 670.086 1.25163 0.81576 0
M  V30 7186 H 671.968 1.3981 3.97531 0
M  V30 7187 H 670.643 0.487524 3.20008 0
M  V30 7188 H 669.55 2.71776 2.57077 0
M  V30 7189 H 670.883 3.56217 3.39662 0
M  V30 7190 N 672.536 -0.895792 1.29666 0
M  V30 7191 C 673.784 -1.64339 1.17631 0
M  V30 7192 C 674.105 -1.93099 -0.271643 0
M  V30 7193 O 673.375 -1.55981 -1.18518 0
M  V30 7194 H 671.955 -0.609162 0.432354 0
M  V30 7195 H 674.617 -1.07389 1.62646 0
M  V30 7196 H 673.713 -2.59815 1.72924 0
M  V30 7197 N 674.014 -1.12206 -1.10668 0
M  V30 7198 C 675.262 -0.874144 -1.82217 0
M  V30 7199 C 675.583 0.601736 -1.85484 0
M  V30 7200 O 674.853 1.43725 -1.33116 0
M  V30 7201 H 673.433 -0.320404 -0.674797 0
M  V30 7202 H 676.095 -1.41606 -1.33917 0
M  V30 7203 H 675.191 -1.25349 -2.85822 0
M  V30 7204 N 675.492 1.28418 -0.913599 0
M  V30 7205 C 676.769 1.89977 -0.465619 0
M  V30 7206 C 677.149 1.82813 1.05559 0
M  V30 7207 O 676.497 1.26397 1.90358 0
M  V30 7208 C 676.707 3.34492 -0.995813 0
M  V30 7209 C 678.055 4.11468 -1.04782 0
M  V30 7210 O 679.079 3.43451 -0.944445 0
M  V30 7211 O 677.938 5.33046 -1.20518 0
M  V30 7212 H 675.032 0.813734 -0.147532 0
M  V30 7213 H 677.578 1.36786 -1.00437 0
M  V30 7214 H 676.35 3.33929 -2.03978 0
M  V30 7215 H 675.973 3.95181 -0.437878 0
M  V30 7216 N 676.97 0.677563 1.42291 0
M  V30 7217 C 678.21 0.204894 2.0337 0
M  V30 7218 C 678.574 -1.16744 1.5243 0
M  V30 7219 O 679.775 -1.73492 2.05314 0
M  V30 7220 C 678.046 0.240742 3.56588 0
M  V30 7221 S 679.605 -0.16052 4.38506 0
M  V30 7222 H 676.423 0.0839932 0.706021 0
M  V30 7223 H 679.025 0.891332 1.73999 0
M  V30 7224 H 677.729 1.24184 3.91161 0
M  V30 7225 H 677.26 -0.465439 3.90637 0
M  V30 7226 H 679.275 -1.39315 4.76241 0
M  V30 7227 N 678.448 -1.51871 0.421078 0
M  V30 7228 C 679.411 -2.25914 -0.386712 0
M  V30 7229 C 680.411 -1.28733 -0.963555 0
M  V30 7230 O 681.601 -1.52579 -0.840556 0
M  V30 7231 C 678.733 -3.03853 -1.54551 0
M  V30 7232 H 679.926 -2.98754 0.261978 0
M  V30 7233 H 677.479 -1.5533 0.173862 0
M  V30 7234 H 678.214 -2.35392 -2.23072 0
M  V30 7235 H 677.999 -3.75215 -1.13824 0
M  V30 7236 H 679.489 -3.59984 -2.11663 0
M  V30 7237 N 679.926 -0.151884 -1.56866 0
M  V30 7238 C 681.154 0.504813 -2.00647 0
M  V30 7239 C 681.569 1.58098 -1.03201 0
M  V30 7240 O 680.926 1.82476 -0.0297814 0
M  V30 7241 C 680.977 1.10099 -3.44326 0
M  V30 7242 O 680.698 0.0678021 -4.38048 0
M  V30 7243 C 682.199 1.83782 -4.03409 0
M  V30 7244 H 679.419 0.130989 -0.65809 0
M  V30 7245 H 681.963 -0.247903 -2.02992 0
M  V30 7246 H 680.118 1.8043 -3.42817 0
M  V30 7247 H 680.532 0.505237 -5.22061 0
M  V30 7248 H 682.006 2.2078 -5.05925 0
M  V30 7249 H 682.483 2.72557 -3.44397 0
M  V30 7250 H 683.089 1.18138 -4.08563 0
M  V30 7251 N 681.404 1.57128 0.121893 0
M  V30 7252 C 682.334 2.03165 1.15092 0
M  V30 7253 C 683.315 0.915587 1.43356 0
M  V30 7254 O 684.5 1.1851 1.53847 0
M  V30 7255 C 681.63 2.43352 2.47784 0
M  V30 7256 C 680.584 3.58376 2.33989 0
M  V30 7257 C 679.91 3.84454 3.71617 0
M  V30 7258 C 681.21 4.90199 1.80283 0
M  V30 7259 H 682.904 2.89382 0.768023 0
M  V30 7260 H 680.45 1.39218 0.367998 0
M  V30 7261 H 682.403 2.74163 3.20019 0
M  V30 7262 H 681.127 1.54103 2.87958 0
M  V30 7263 H 679.786 3.2777 1.64202 0
M  V30 7264 H 679.434 2.92414 4.09271 0
M  V30 7265 H 679.134 4.61877 3.6324 0
M  V30 7266 H 680.658 4.17714 4.45362 0
M  V30 7267 H 682.072 5.19565 2.42333 0
M  V30 7268 H 680.469 5.71601 1.82735 0
M  V30 7269 H 681.539 4.78904 0.760184 0
M  V30 7270 N 682.882 -0.391992 1.52647 0
M  V30 7271 C 683.812 -1.48517 1.8018 0
M  V30 7272 C 684.793 -1.57039 0.653667 0
M  V30 7273 O 685.978 -1.72036 0.900962 0
M  V30 7274 C 683.108 -2.86161 1.96797 0
M  V30 7275 C 682.062 -2.92481 3.12472 0
M  V30 7276 C 681.388 -4.32546 3.14338 0
M  V30 7277 C 682.688 -2.624 4.51601 0
M  V30 7278 H 684.382 -1.25726 2.71723 0
M  V30 7279 H 681.928 -0.603387 1.30749 0
M  V30 7280 H 683.881 -3.62639 2.14641 0
M  V30 7281 H 682.605 -3.10283 1.01941 0
M  V30 7282 H 681.264 -2.18451 2.94406 0
M  V30 7283 H 680.912 -4.53703 2.1717 0
M  V30 7284 H 680.612 -4.37695 3.92042 0
M  V30 7285 H 682.136 -5.10934 3.34333 0
M  V30 7286 H 683.55 -3.28596 4.69785 0
M  V30 7287 H 681.947 -2.78903 5.3135 0
M  V30 7288 H 683.017 -1.57754 4.58521 0
M  V30 7289 N 684.36 -1.4356 -0.65026 0
M  V30 7290 C 685.307 -1.48948 -1.76304 0
M  V30 7291 C 686.277 -0.338919 -1.62605 0
M  V30 7292 O 687.462 -0.54649 -1.82806 0
M  V30 7293 C 684.602 -1.42131 -3.14472 0
M  V30 7294 C 683.715 -2.67415 -3.39284 0
M  V30 7295 C 682.85 -2.52565 -4.67316 0
M  V30 7296 C 681.889 -3.73103 -4.85243 0
M  V30 7297 N 681.026 -3.57046 -6.04535 0
M  V30 7298 H 685.866 -2.44032 -1.71034 0
M  V30 7299 H 683.403 -1.21131 -0.834601 0
M  V30 7300 H 685.361 -1.36172 -3.94351 0
M  V30 7301 H 683.991 -0.506273 -3.18805 0
M  V30 7302 H 683.043 -2.8364 -2.53481 0
M  V30 7303 H 684.355 -3.56943 -3.48415 0
M  V30 7304 H 683.509 -2.44331 -5.55326 0
M  V30 7305 H 682.248 -1.60566 -4.60511 0
M  V30 7306 H 681.253 -3.81743 -3.95667 0
M  V30 7307 H 682.478 -4.66115 -4.93876 0
M  V30 7308 H 680.424 -2.67783 -5.98856 0
M  V30 7309 H 680.341 -4.40178 -6.14638 0
M  V30 7310 H 681.609 -3.52669 -6.95158 0
M  V30 7311 N 685.838 0.888903 -1.30139 0
M  V30 7312 C 686.786 2.0156 -1.16088 0
M  V30 7313 C 687.78 1.69239 -0.0737413 0
M  V30 7314 O 688.986 1.78468 -0.234313 0
M  V30 7315 H 685.361 0.660825 -0.358907 0
M  V30 7316 H 687.332 2.10547 -2.11453 0
M  V30 7317 C 686.081 3.36758 -0.865426 0
M  V30 7318 H 685.404 3.62137 -1.69402 0
M  V30 7319 H 686.844 4.16246 -0.807192 0
M  V30 7320 C 685.303 3.34124 0.431577 0
M  V30 7321 O 685.833 3.7445 1.45431 0
M  V30 7322 N 684.039 2.87229 0.441321 0
M  V30 7323 H 683.586 2.54609 -0.391433 0
M  V30 7324 H 683.544 2.8585 1.30909 0
M  V30 7325 N 687.317 1.12792 1.10072 0
M  V30 7326 C 688.566 0.880232 1.81479 0
M  V30 7327 C 688.879 -0.595575 1.86312 0
M  V30 7328 O 690.085 -0.959979 2.53962 0
M  V30 7329 C 688.541 1.52514 3.25987 0
M  V30 7330 C 688.149 3.036 3.29441 0
M  V30 7331 C 689.893 1.35788 4.02196 0
M  V30 7332 C 687.8 3.61007 4.68431 0
M  V30 7333 H 686.73 0.325654 0.680048 0
M  V30 7334 H 689.381 1.35485 1.23758 0
M  V30 7335 H 687.763 0.978188 3.83728 0
M  V30 7336 H 688.937 3.64819 2.81502 0
M  V30 7337 H 687.252 3.19765 2.66719 0
M  V30 7338 H 689.849 1.76096 5.0487 0
M  V30 7339 H 690.192 0.301972 4.15203 0
M  V30 7340 H 690.725 1.87426 3.50879 0
M  V30 7341 H 687.464 4.66375 4.60625 0
M  V30 7342 H 686.984 3.04564 5.16721 0
M  V30 7343 H 688.663 3.60289 5.37402 0
M  V30 7344 N 688.795 -1.27931 0.920396 0
M  V30 7345 C 690.043 -1.94304 0.555906 0
M  V30 7346 C 690.364 -1.72753 -0.904519 0
M  V30 7347 O 689.634 -1.07104 -1.64029 0
M  V30 7348 H 688.214 -0.719001 0.202599 0
M  V30 7349 H 690.876 -1.55785 1.1712 0
M  V30 7350 H 689.972 -3.02806 0.755981 0
M  V30 7351 N 690.273 -0.685099 -1.4193 0
M  V30 7352 C 691.236 -0.0222632 -2.29189 0
M  V30 7353 C 692.236 0.7186 -1.4385 0
M  V30 7354 O 693.426 0.555058 -1.6512 0
M  V30 7355 C 690.558 0.979013 -3.2654 0
M  V30 7356 H 691.751 -0.790424 -2.89296 0
M  V30 7357 H 689.304 -0.448012 -1.49742 0
M  V30 7358 H 690.039 1.77531 -2.71392 0
M  V30 7359 H 689.824 0.451037 -3.89497 0
M  V30 7360 H 691.314 1.44091 -3.91954 0
M  V30 7361 N 691.751 1.51645 -0.429126 0
M  V30 7362 C 692.681 2.30434 0.377148 0
M  V30 7363 C 693.662 1.35493 1.02838 0
M  V30 7364 O 694.847 1.6441 1.03359 0
M  V30 7365 C 691.977 3.14038 1.48315 0
M  V30 7366 C 690.931 4.1719 0.955855 0
M  V30 7367 C 690.257 4.89263 2.15698 0
M  V30 7368 C 691.557 5.223 -0.00402136 0
M  V30 7369 H 693.251 2.98085 -0.280336 0
M  V30 7370 H 690.797 1.43354 -0.136265 0
M  V30 7371 H 692.75 3.67933 2.05435 0
M  V30 7372 H 691.474 2.44193 2.16881 0
M  V30 7373 H 690.133 3.64335 0.406929 0
M  V30 7374 H 689.781 4.15929 2.82864 0
M  V30 7375 H 689.481 5.59009 1.81059 0
M  V30 7376 H 691.005 5.45978 2.73387 0
M  V30 7377 H 692.419 5.71315 0.476607 0
M  V30 7378 H 690.816 5.99525 -0.26258 0
M  V30 7379 H 691.886 4.75638 -0.943236 0
M  V30 7380 N 693.229 0.160201 1.56784 0
M  V30 7381 C 694.64 -0.358417 1.83227 0
M  V30 7382 C 694.991 -1.63831 1.07952 0
M  V30 7383 O 694.116 -2.13885 0.328995 0
M  V30 7384 C 694.711 -0.657058 3.32368 0
M  V30 7385 C 693.27 -1.12015 3.59346 0
M  V30 7386 C 692.417 -0.15015 2.76893 0
M  V30 7387 H 695.368 0.384669 1.53967 0
M  V30 7388 H 695.389 -1.51033 3.49241 0
M  V30 7389 H 694.901 0.274647 3.87127 0
M  V30 7390 H 693.002 -2.06734 3.09987 0
M  V30 7391 H 693.115 -1.037 4.67743 0
M  V30 7392 H 691.479 -0.645361 2.46388 0
M  V30 7393 H 692.262 0.775379 3.34429 0
M  V30 7394 N 694.707 -1.5719 -0.113559 0
M  V30 7395 C 695.953 -1.85412 -0.821597 0
M  V30 7396 C 696.286 -0.746722 -1.7927 0
M  V30 7397 O 695.561 0.246971 -1.92926 0
M  V30 7398 C 695.844 -3.24233 -1.56669 0
M  V30 7399 C 695.697 -4.45578 -0.614823 0
M  V30 7400 C 697.016 -3.60697 -2.52161 0
M  V30 7401 H 694.135 -0.674406 -0.29723 0
M  V30 7402 H 696.777 -1.89807 -0.085694 0
M  V30 7403 H 694.927 -3.20617 -2.19401 0
M  V30 7404 H 696.599 -4.613 0.00407137 0
M  V30 7405 H 694.842 -4.33738 0.0732332 0
M  V30 7406 H 695.513 -5.39395 -1.17292 0
M  V30 7407 H 697.989 -3.65139 -1.99532 0
M  V30 7408 H 696.865 -4.58798 -3.01323 0
M  V30 7409 H 697.126 -2.88403 -3.35076 0
M  V30 7410 N 696.185 0.383891 -1.52853 0
M  V30 7411 C 697.095 1.49343 -1.80925 0
M  V30 7412 C 698.111 1.59458 -0.696348 0
M  V30 7413 O 699.287 1.75698 -0.984481 0
M  V30 7414 C 696.352 2.84819 -1.97684 0
M  V30 7415 C 695.413 2.84382 -3.21598 0
M  V30 7416 C 694.646 4.13397 -3.37548 0
M  V30 7417 O 694.869 5.08619 -2.58192 0
M  V30 7418 O 693.803 4.20325 -4.30826 0
M  V30 7419 H 697.629 1.2855 -2.75152 0
M  V30 7420 H 695.214 0.572229 -1.38007 0
M  V30 7421 H 697.096 3.65125 -2.10385 0
M  V30 7422 H 695.771 3.05627 -1.06647 0
M  V30 7423 H 694.678 2.0284 -3.14336 0
M  V30 7424 H 696.011 2.68526 -4.12498 0
M  V30 7425 N 697.663 1.43903 0.642637 0
M  V30 7426 C 698.596 1.44339 1.76753 0
M  V30 7427 C 699.574 0.303558 1.59741 0
M  V30 7428 O 700.758 0.498775 1.81781 0
M  V30 7429 C 697.885 1.26508 3.14187 0
M  V30 7430 C 696.931 2.43905 3.49875 0
M  V30 7431 S 697.764 4.0645 3.48653 0
M  V30 7432 C 698.92 3.91021 4.88726 0
M  V30 7433 H 699.153 2.39523 1.76113 0
M  V30 7434 H 696.686 1.31061 0.81623 0
M  V30 7435 H 698.644 1.16908 3.93501 0
M  V30 7436 H 697.305 0.328548 3.12377 0
M  V30 7437 H 696.498 2.27262 4.49853 0
M  V30 7438 H 696.1 2.50186 2.77998 0
M  V30 7439 H 698.392 3.54 5.77659 0
M  V30 7440 H 699.335 4.9079 5.10423 0
M  V30 7441 H 699.743 3.23287 4.62759 0
M  V30 7442 N 699.141 -0.881989 1.30609 0
M  V30 7443 C 700.104 -1.96957 1.1722 0
M  V30 7444 C 701.104 -1.60472 0.102598 0
M  V30 7445 O 702.294 -1.70628 0.350943 0
M  V30 7446 C 699.426 -3.31463 0.796572 0
M  V30 7447 H 700.619 -2.10262 2.13846 0
M  V30 7448 H 698.172 -1.06877 1.14048 0
M  V30 7449 H 698.907 -3.23859 -0.169053 0
M  V30 7450 H 698.692 -3.59314 1.56959 0
M  V30 7451 H 700.182 -4.11233 0.72645 0
M  V30 7452 N 700.619 -1.13374 -1.09472 0
M  V30 7453 C 702.035 -0.871846 -1.33682 0
M  V30 7454 C 702.235 0.492847 -1.9538 0
M  V30 7455 O 701.291 1.23946 -2.19985 0
M  V30 7456 C 702.604 -1.99608 -2.24893 0
M  V30 7457 C 704.152 -2.02812 -2.38404 0
M  V30 7458 C 704.627 -3.14497 -3.3295 0
M  V30 7459 N 706.118 -3.14004 -3.40523 0
M  V30 7460 C 706.853 -3.97061 -4.13679 0
M  V30 7461 N 706.349 -4.90131 -4.89636 0
M  V30 7462 N 708.142 -3.85162 -4.09398 0
M  V30 7463 H 700.293 -2.01288 -0.677995 0
M  V30 7464 H 702.556 -0.876492 -0.361201 0
M  V30 7465 H 702.262 -2.98 -1.86786 0
M  V30 7466 H 702.136 -1.90981 -3.25278 0
M  V30 7467 H 704.523 -1.05034 -2.75775 0
M  V30 7468 H 704.604 -2.15511 -1.37799 0
M  V30 7469 H 704.248 -4.12514 -2.96302 0
M  V30 7470 H 704.178 -2.99035 -4.33458 0
M  V30 7471 H 706.669 -2.46587 -2.86362 0
M  V30 7472 H 706.982 -5.49996 -5.42885 0
M  V30 7473 H 705.327 -4.94138 -4.88726 0
M  V30 7474 H 708.518 -3.11779 -3.49158 0
M  V30 7475 H 708.691 -4.5012 -4.6615 0
M  V30 7476 N 702.098 1.27442 -0.927168 0
M  V30 7477 C 703.031 2.25177 -0.370232 0
M  V30 7478 C 704.009 1.53612 0.533103 0
M  V30 7479 O 705.193 1.8245 0.47373 0
M  V30 7480 C 702.32 3.35431 0.469411 0
M  V30 7481 C 701.366 4.24888 -0.370419 0
M  V30 7482 S 702.199 5.04852 -1.78562 0
M  V30 7483 C 703.355 6.18592 -0.953651 0
M  V30 7484 H 703.588 2.72069 -1.19858 0
M  V30 7485 H 701.121 1.36089 -0.729316 0
M  V30 7486 H 703.079 3.99404 0.947992 0
M  V30 7487 H 701.74 2.87179 1.27228 0
M  V30 7488 H 700.933 5.03264 0.272226 0
M  V30 7489 H 700.535 3.65709 -0.783153 0
M  V30 7490 H 702.827 6.77235 -0.189408 0
M  V30 7491 H 703.77 6.87132 -1.7104 0
M  V30 7492 H 704.178 5.62318 -0.495897 0
M  V30 7493 N 703.576 0.692616 1.41565 0
M  V30 7494 C 704.806 0.230943 2.05305 0
M  V30 7495 C 705.214 -1.12379 1.52209 0
M  V30 7496 O 704.557 -1.71281 0.663968 0
M  V30 7497 C 704.619 0.107894 3.59338 0
M  V30 7498 C 704.283 1.39419 4.35214 0
M  V30 7499 C 705.28 2.33143 4.64694 0
M  V30 7500 C 702.965 1.64674 4.74539 0
M  V30 7501 C 704.959 3.50385 5.32456 0
M  V30 7502 C 702.646 2.82202 5.42038 0
M  V30 7503 C 703.644 3.74881 5.70923 0
M  V30 7504 O 703.332 4.90351 6.37033 0
M  V30 7505 H 703.064 0.105708 0.667684 0
M  V30 7506 H 705.618 0.94488 1.82376 0
M  V30 7507 H 703.848 -0.661785 3.80995 0
M  V30 7508 H 705.537 -0.316213 4.04666 0
M  V30 7509 H 706.303 2.14887 4.34797 0
M  V30 7510 H 702.182 0.934007 4.51439 0
M  V30 7511 H 705.726 4.22743 5.54918 0
M  V30 7512 H 701.623 3.00376 5.71353 0
M  V30 7513 H 702.391 4.90128 6.55528 0
M  V30 7514 N 705.054 -1.51416 0.437162 0
M  V30 7515 C 706.301 -2.02086 -0.129364 0
M  V30 7516 C 706.629 -1.32133 -1.42728 0
M  V30 7517 O 705.884 -0.424916 -1.91031 0
M  V30 7518 C 706.183 -3.55203 -0.39564 0
M  V30 7519 C 705.849 -4.43447 0.81644 0
M  V30 7520 C 704.511 -4.67285 1.14884 0
M  V30 7521 C 706.863 -4.95219 1.62503 0
M  V30 7522 C 704.191 -5.40141 2.29052 0
M  V30 7523 C 706.543 -5.69327 2.7577 0
M  V30 7524 C 705.207 -5.91429 3.09464 0
M  V30 7525 H 704.477 -0.739486 -0.0473375 0
M  V30 7526 H 707.124 -1.82368 0.584321 0
M  V30 7527 H 705.429 -3.73252 -1.19121 0
M  V30 7528 H 707.126 -3.91944 -0.847399 0
M  V30 7529 H 703.716 -4.2509 0.547422 0
M  V30 7530 H 707.9 -4.76686 1.38144 0
M  V30 7531 H 703.156 -5.55468 2.55471 0
M  V30 7532 H 707.33 -6.08433 3.38795 0
M  V30 7533 H 704.957 -6.47662 3.98042 0
M  V30 7534 N 706.532 -0.168513 -1.56696 0
M  V30 7535 C 707.495 0.748928 -2.16619 0
M  V30 7536 C 708.495 1.16007 -1.11351 0
M  V30 7537 O 709.685 1.07748 -1.3688 0
M  V30 7538 C 706.817 2.01904 -2.74677 0
M  V30 7539 H 708.01 0.227317 -2.99037 0
M  V30 7540 H 705.563 0.0810372 -1.5609 0
M  V30 7541 H 706.298 2.58381 -1.95985 0
M  V30 7542 H 706.083 1.73323 -3.51712 0
M  V30 7543 H 707.573 2.67383 -3.20774 0
M  V30 7544 N 708.01 1.57248 0.105221 0
M  V30 7545 C 708.92 2.04653 1.14693 0
M  V30 7546 C 709.936 0.969488 1.44489 0
M  V30 7547 O 711.112 1.28196 1.55331 0
M  V30 7548 C 708.177 2.45297 2.45011 0
M  V30 7549 C 707.238 3.67148 2.22489 0
M  V30 7550 C 706.471 4.05844 3.46592 0
M  V30 7551 O 706.694 3.44736 4.54437 0
M  V30 7552 O 705.628 4.98862 3.36779 0
M  V30 7553 H 709.454 2.93663 0.774336 0
M  V30 7554 H 707.039 1.45998 0.31701 0
M  V30 7555 H 708.921 2.72112 3.21766 0
M  V30 7556 H 707.596 1.59429 2.81717 0
M  V30 7557 H 706.503 3.45463 1.43547 0
M  V30 7558 H 707.836 4.53764 1.9068 0
M  V30 7559 N 709.488 -0.375779 1.53054 0
M  V30 7560 C 710.716 -1.14036 1.72637 0
M  V30 7561 C 711.131 -1.83342 0.450687 0
M  V30 7562 O 710.488 -1.7318 -0.575749 0
M  V30 7563 C 710.539 -2.17841 2.88492 0
M  V30 7564 O 710.26 -1.51358 4.11123 0
M  V30 7565 C 711.761 -3.06924 3.19863 0
M  V30 7566 H 708.981 -0.341386 0.577665 0
M  V30 7567 H 711.525 -0.437809 1.99759 0
M  V30 7568 H 709.68 -2.8371 2.63794 0
M  V30 7569 H 710.094 -2.20439 4.75928 0
M  V30 7570 H 711.568 -3.75763 4.04359 0
M  V30 7571 H 712.045 -3.71169 2.34798 0
M  V30 7572 H 712.651 -2.46684 3.46449 0
M  V30 7573 N 710.966 -1.44241 -0.634997 0
M  V30 7574 C 712.212 -1.47038 -1.39669 0
M  V30 7575 C 712.545 -0.101122 -1.93937 0
M  V30 7576 O 711.82 0.880699 -1.73418 0
M  V30 7577 C 712.103 -2.52763 -2.56482 0
M  V30 7578 C 711.956 -3.99032 -2.07589 0
M  V30 7579 C 713.275 -2.55031 -3.58674 0
M  V30 7580 H 710.394 -0.53537 -0.506506 0
M  V30 7581 H 713.036 -1.75898 -0.718317 0
M  V30 7582 H 711.186 -2.28284 -3.14354 0
M  V30 7583 H 712.858 -4.3463 -1.54577 0
M  V30 7584 H 711.101 -4.10994 -1.38804 0
M  V30 7585 H 711.772 -4.68649 -2.91671 0
M  V30 7586 H 714.248 -2.76893 -3.10595 0
M  V30 7587 H 713.124 -3.30916 -4.37934 0
M  V30 7588 H 713.385 -1.59085 -4.12486 0
M  V30 7589 N 712.444 0.87505 -1.31075 0
M  V30 7590 C 713.374 1.99775 -1.20881 0
M  V30 7591 C 714.355 1.69822 -0.0971612 0
M  V30 7592 O 715.54 1.92158 -0.280895 0
M  V30 7593 C 712.67 3.35163 -0.910118 0
M  V30 7594 C 711.624 3.79406 -1.98078 0
M  V30 7595 C 710.95 5.12197 -1.53488 0
M  V30 7596 C 712.25 3.97061 -3.39323 0
M  V30 7597 H 713.944 2.08562 -2.14808 0
M  V30 7598 H 711.49 1.00207 -1.03415 0
M  V30 7599 H 713.443 4.13237 -0.825423 0
M  V30 7600 H 712.167 3.26536 0.064822 0
M  V30 7601 H 710.826 3.03568 -2.05528 0
M  V30 7602 H 710.474 5.00007 -0.547941 0
M  V30 7603 H 710.174 5.4277 -2.2511 0
M  V30 7604 H 711.698 5.92785 -1.46417 0
M  V30 7605 H 713.112 4.65545 -3.34576 0
M  V30 7606 H 711.509 4.39025 -4.09118 0
M  V30 7607 H 712.579 3.00601 -3.80483 0
M  V30 7608 N 713.922 1.13953 1.08869 0
M  V30 7609 C 714.885 0.824991 2.13838 0
M  V30 7610 C 715.885 -0.168198 1.59918 0
M  V30 7611 O 717.075 0.0595778 1.74098 0
M  V30 7612 C 714.207 0.228938 3.4013 0
M  V30 7613 H 715.4 1.75521 2.43171 0
M  V30 7614 H 712.953 0.94492 1.24503 0
M  V30 7615 H 713.688 -0.710227 3.16427 0
M  V30 7616 H 713.473 0.944243 3.80561 0
M  V30 7617 H 714.963 0.0259223 4.17592 0
M  V30 7618 N 715.4 -1.26948 0.933913 0
M  V30 7619 C 716.33 -2.29017 0.45534 0
M  V30 7620 C 717.311 -1.62961 -0.487605 0
M  V30 7621 O 718.496 -1.90223 -0.391022 0
M  V30 7622 C 715.626 -3.46112 -0.287015 0
M  V30 7623 C 714.58 -4.24205 0.568682 0
M  V30 7624 C 713.906 -5.3384 -0.303206 0
M  V30 7625 C 715.206 -4.88954 1.83633 0
M  V30 7626 H 716.9 -2.69298 1.30839 0
M  V30 7627 H 714.446 -1.29459 0.630579 0
M  V30 7628 H 716.399 -4.16622 -0.6328 0
M  V30 7629 H 715.123 -3.04765 -1.17414 0
M  V30 7630 H 713.782 -3.5545 0.897261 0
M  V30 7631 H 713.43 -4.88734 -1.18947 0
M  V30 7632 H 713.13 -5.86998 0.265879 0
M  V30 7633 H 714.654 -6.0719 -0.644423 0
M  V30 7634 H 716.068 -5.51717 1.55823 0
M  V30 7635 H 714.465 -5.52198 2.34941 0
M  V30 7636 H 715.535 -4.12305 2.55211 0
M  V30 7637 N 716.879 -0.700114 -1.41195 0
M  V30 7638 C 717.789 -0.0382854 -2.34569 0
M  V30 7639 C 718.805 0.761036 -1.56474 0
M  V30 7640 O 719.981 0.697553 -1.88934 0
M  V30 7641 C 717.046 0.883522 -3.35253 0
M  V30 7642 C 716.107 0.0758957 -4.29233 0
M  V30 7643 C 715.34 0.9538 -5.25108 0
M  V30 7644 O 715.563 2.19326 -5.26547 0
M  V30 7645 O 714.497 0.401049 -6.00562 0
M  V30 7646 H 718.323 -0.808073 -2.92752 0
M  V30 7647 H 715.908 -0.460479 -1.42127 0
M  V30 7648 H 717.79 1.41199 -3.9704 0
M  V30 7649 H 716.465 1.63272 -2.79506 0
M  V30 7650 H 715.372 -0.497274 -3.7078 0
M  V30 7651 H 716.705 -0.634741 -4.8809 0
M  V30 7652 N 718.357 1.51182 -0.445186 0
M  V30 7653 C 719.587 2.06269 0.116922 0
M  V30 7654 C 719.995 1.31188 1.36332 0
M  V30 7655 O 719.338 0.367067 1.79995 0
M  V30 7656 C 719.4 3.56051 0.496757 0
M  V30 7657 C 719.064 4.52441 -0.64394 0
M  V30 7658 C 720.061 4.97233 -1.5184 0
M  V30 7659 C 717.746 4.95447 -0.826905 0
M  V30 7660 C 719.74 5.83712 -2.56046 0
M  V30 7661 C 717.427 5.81714 -1.87222 0
M  V30 7662 C 718.425 6.25745 -2.73738 0
M  V30 7663 O 718.113 7.10298 -3.76474 0
M  V30 7664 H 717.845 0.675954 0.00785733 0
M  V30 7665 H 720.399 1.95648 -0.625371 0
M  V30 7666 H 718.629 3.64483 1.29187 0
M  V30 7667 H 720.318 3.93618 0.990928 0
M  V30 7668 H 721.084 4.64696 -1.38862 0
M  V30 7669 H 716.963 4.60712 -0.163052 0
M  V30 7670 H 720.507 6.18 -3.23607 0
M  V30 7671 H 716.404 6.13664 -2.00218 0
M  V30 7672 H 717.172 7.28493 -3.73149 0
M  V30 7673 N 719.835 0.176821 1.56605 0
M  V30 7674 C 720.765 -0.746841 2.21234 0
M  V30 7675 C 721.746 -1.23502 1.16967 0
M  V30 7676 O 722.931 -1.28718 1.45414 0
M  V30 7677 C 720.061 -1.97407 2.8574 0
M  V30 7678 C 719.015 -1.62153 3.96094 0
M  V30 7679 C 718.341 -2.92387 4.47676 0
M  V30 7680 C 719.641 -0.845353 5.15413 0
M  V30 7681 H 721.335 -0.208116 2.98676 0
M  V30 7682 H 718.881 -0.0986594 1.43662 0
M  V30 7683 H 720.834 -2.62531 3.2963 0
M  V30 7684 H 719.558 -2.53703 2.05676 0
M  V30 7685 H 718.217 -0.993964 3.52868 0
M  V30 7686 H 717.865 -3.46734 3.64396 0
M  V30 7687 H 717.565 -2.69551 5.22127 0
M  V30 7688 H 719.089 -3.5853 4.94255 0
M  V30 7689 H 720.503 -1.39929 5.55961 0
M  V30 7690 H 718.9 -0.715814 5.95815 0
M  V30 7691 H 719.97 0.157239 4.84645 0
M  V30 7692 N 721.313 -1.57302 -0.09688 0
M  V30 7693 C 722.263 -1.98369 -1.12399 0
M  V30 7694 C 723.247 -0.861872 -1.3587 0
M  V30 7695 O 724.439 -1.1257 -1.36591 0
M  V30 7696 C 721.568 -2.41017 -2.4447 0
M  V30 7697 C 720.654 -3.59881 -2.24381 0
M  V30 7698 N 721.045 -4.74872 -1.74155 0
M  V30 7699 C 719.343 -3.65943 -2.54954 0
M  V30 7700 C 720.044 -5.56823 -1.68294 0
M  V30 7701 N 719.02 -4.99942 -2.13444 0
M  V30 7702 H 722.822 -2.84726 -0.728575 0
M  V30 7703 H 720.336 -1.59523 -0.304332 0
M  V30 7704 H 722.333 -2.68665 -3.18786 0
M  V30 7705 H 720.993 -1.56036 -2.84751 0
M  V30 7706 H 722.004 -4.97657 -1.43379 0
M  V30 7707 H 718.681 -2.9162 -2.98771 0
M  V30 7708 H 720.071 -6.59099 -1.30528 0
M  V30 7709 N 722.791 0.367657 -1.53252 0
M  V30 7710 C 723.739 1.47061 -1.8021 0
M  V30 7711 C 724.733 1.55539 -0.671112 0
M  V30 7712 O 725.939 1.58451 -0.854014 0
M  V30 7713 H 722.314 0.489868 -0.570555 0
M  V30 7714 H 724.285 1.21527 -2.72532 0
M  V30 7715 C 723.034 2.83924 -2.00706 0
M  V30 7716 H 722.357 2.78158 -2.87172 0
M  V30 7717 H 723.797 3.60281 -2.23547 0
M  V30 7718 C 722.256 3.27613 -0.785568 0
M  V30 7719 O 722.786 4.01691 0.0267459 0
M  V30 7720 N 720.992 2.84134 -0.609597 0
M  V30 7721 H 720.539 2.24017 -1.27178 0
M  V30 7722 H 720.497 3.13723 0.206281 0
M  V30 7723 N 724.269 1.44576 0.627338 0
M  V30 7724 C 725.499 1.50829 1.41189 0
M  V30 7725 C 725.907 0.133083 1.88731 0
M  V30 7726 O 725.25 -0.87199 1.61685 0
M  V30 7727 C 725.312 2.41449 2.66351 0
M  V30 7728 C 724.976 3.88549 2.40579 0
M  V30 7729 C 725.973 4.78981 2.0217 0
M  V30 7730 C 723.658 4.33287 2.54102 0
M  V30 7731 C 725.652 6.12153 1.77618 0
M  V30 7732 C 723.339 5.66505 2.29163 0
M  V30 7733 C 724.337 6.55756 1.9098 0
M  V30 7734 O 724.025 7.86506 1.66321 0
M  V30 7735 H 723.757 0.513797 0.439304 0
M  V30 7736 H 726.311 1.90256 0.774059 0
M  V30 7737 H 724.541 1.96955 3.32784 0
M  V30 7738 H 726.23 2.38608 3.28361 0
M  V30 7739 H 726.996 4.45689 1.91277 0
M  V30 7740 H 722.875 3.64074 2.82792 0
M  V30 7741 H 726.419 6.81776 1.47739 0
M  V30 7742 H 722.316 5.99358 2.39668 0
M  V30 7743 H 723.084 7.98341 1.80536 0
M  V30 7744 N 725.747 -0.868086 1.31537 0
M  V30 7745 C 726.995 -1.61807 1.21091 0
M  V30 7746 C 727.316 -1.93631 -0.230623 0
M  V30 7747 O 726.586 -1.5846 -1.15183 0
M  V30 7748 H 725.166 -0.599854 0.445178 0
M  V30 7749 H 727.828 -1.03915 1.64887 0
M  V30 7750 H 726.924 -2.56088 1.78396 0
M  V30 7751 N 727.225 -1.14528 -1.08264 0
M  V30 7752 C 728.474 -0.908992 -1.80056 0
M  V30 7753 C 728.787 0.565859 -1.87236 0
M  V30 7754 O 729.993 0.919454 -2.55457 0
M  V30 7755 C 728.449 -1.57681 -3.23519 0
M  V30 7756 C 728.057 -3.08803 -3.24569 0
M  V30 7757 C 729.801 -1.4217 -3.99985 0
M  V30 7758 C 727.708 -3.68414 -4.62629 0
M  V30 7759 H 726.638 -0.336432 -0.674781 0
M  V30 7760 H 729.289 -1.37437 -1.21587 0
M  V30 7761 H 727.671 -1.03911 -3.82124 0
M  V30 7762 H 728.845 -3.69252 -2.75663 0
M  V30 7763 H 727.16 -3.23968 -2.61598 0
M  V30 7764 H 729.757 -1.84106 -5.02005 0
M  V30 7765 H 730.1 -0.367989 -4.1467 0
M  V30 7766 H 730.633 -1.92984 -3.47853 0
M  V30 7767 H 727.372 -4.73644 -4.53147 0
M  V30 7768 H 726.892 -3.12746 -5.11811 0
M  V30 7769 H 728.571 -3.68793 -5.31602 0
M  V30 7770 N 728.703 1.26451 -0.940633 0
M  V30 7771 C 729.949 1.94065 -0.58878 0
M  V30 7772 C 730.282 1.7363 0.869853 0
M  V30 7773 O 729.557 1.073 1.62225 0
M  V30 7774 C 729.84 3.47852 -0.931199 0
M  V30 7775 C 729.693 3.77575 -2.44453 0
M  V30 7776 C 731.012 4.37832 -0.446229 0
M  V30 7777 H 728.131 0.704827 -0.21538 0
M  V30 7778 H 730.773 1.4933 -1.17475 0
M  V30 7779 H 728.923 3.86085 -0.432539 0
M  V30 7780 H 730.595 3.49059 -3.01588 0
M  V30 7781 H 728.838 3.23671 -2.88825 0
M  V30 7782 H 729.509 4.85068 -2.63464 0
M  V30 7783 H 731.985 4.06822 -0.873778 0
M  V30 7784 H 730.861 5.44228 -0.714648 0
M  V30 7785 H 731.122 4.37239 0.653815 0
M  V30 7786 N 730.181 0.707592 1.40822 0
M  V30 7787 C 731.131 0.0265008 2.27985 0
M  V30 7788 C 732.115 -0.740685 1.42838 0
M  V30 7789 O 733.307 -0.6142 1.66002 0
M  V30 7790 C 730.436 -0.900382 3.31282 0
M  V30 7791 C 729.522 -0.128807 4.23904 0
M  V30 7792 N 729.913 0.883744 4.9802 0
M  V30 7793 C 728.211 -0.362539 4.44524 0
M  V30 7794 C 728.912 1.34666 5.65898 0
M  V30 7795 N 727.888 0.670306 5.39451 0
M  V30 7796 H 731.69 0.802667 2.82727 0
M  V30 7797 H 729.204 0.539475 1.53178 0
M  V30 7798 H 731.201 -1.40357 3.92563 0
M  V30 7799 H 729.861 -1.67601 2.781 0
M  V30 7800 H 730.872 1.26435 5.0223 0
M  V30 7801 H 727.549 -1.11512 4.02332 0
M  V30 7802 H 728.939 2.18756 6.35292 0
M  V30 7803 N 731.66 -1.50943 0.453197 0
M  V30 7804 C 733.076 -1.59245 0.106342 0
M  V30 7805 C 733.276 -1.46287 -1.38572 0
M  V30 7806 O 732.332 -1.31219 -2.15726 0
M  V30 7807 C 733.645 -2.93797 0.640595 0
M  V30 7808 C 735.193 -3.07148 0.602435 0
M  V30 7809 C 735.668 -4.44247 1.11393 0
M  V30 7810 N 737.159 -4.50611 1.07258 0
M  V30 7811 C 737.894 -5.55049 1.43905 0
M  V30 7812 N 737.39 -6.66828 1.87914 0
M  V30 7813 N 739.183 -5.45494 1.35621 0
M  V30 7814 H 731.334 -1.5761 1.42382 0
M  V30 7815 H 733.597 -0.74384 0.587713 0
M  V30 7816 H 733.303 -3.087 1.68515 0
M  V30 7817 H 733.177 -3.77127 0.0742272 0
M  V30 7818 H 735.564 -2.91903 -0.433171 0
M  V30 7819 H 735.645 -2.25619 1.20539 0
M  V30 7820 H 735.289 -4.60239 2.14808 0
M  V30 7821 H 735.219 -5.2434 0.487353 0
M  V30 7822 H 737.71 -3.70391 0.749585 0
M  V30 7823 H 738.023 -7.42558 2.14072 0
M  V30 7824 H 736.368 -6.67995 1.91853 0
M  V30 7825 H 739.559 -4.57053 1.01093 0
M  V30 7826 H 739.732 -6.2677 1.64508 0
M  V30 7827 N 733.138 -0.185124 -1.56509 0
M  V30 7828 C 734.415 0.503348 -1.89013 0
M  V30 7829 C 734.795 1.80349 -1.09715 0
M  V30 7830 O 734.143 2.27665 -0.195203 0
M  V30 7831 C 734.353 0.731839 -3.41241 0
M  V30 7832 C 735.701 1.05568 -4.11267 0
M  V30 7833 O 736.725 0.819906 -3.46635 0
M  V30 7834 O 735.584 1.50116 -5.25478 0
M  V30 7835 H 732.678 0.261139 -0.784688 0
M  V30 7836 H 735.224 -0.224592 -1.68207 0
M  V30 7837 H 733.996 -0.18672 -3.90854 0
M  V30 7838 H 733.619 1.5126 -3.67704 0
M  V30 7839 N 734.616 1.57351 0.0885366 0
M  V30 7840 C 735.546 2.05561 1.10757 0
M  V30 7841 C 736.527 0.945789 1.41382 0
M  V30 7842 O 737.712 1.21747 1.51299 0
M  V30 7843 C 734.842 2.48554 2.42566 0
M  V30 7844 C 733.796 3.63259 2.26334 0
M  V30 7845 C 733.122 3.9225 3.63378 0
M  V30 7846 C 734.422 4.93913 1.69844 0
M  V30 7847 H 736.116 2.90946 0.706468 0
M  V30 7848 H 733.662 1.39968 0.338385 0
M  V30 7849 H 735.615 2.8089 3.14132 0
M  V30 7850 H 734.339 1.60176 2.84625 0
M  V30 7851 H 732.998 3.31179 1.57213 0
M  V30 7852 H 732.646 3.0103 4.02976 0
M  V30 7853 H 732.346 4.69478 3.53362 0
M  V30 7854 H 733.87 4.27067 4.36401 0
M  V30 7855 H 735.284 5.24588 2.31258 0
M  V30 7856 H 733.681 5.75349 1.70569 0
M  V30 7857 H 734.751 4.80409 0.65843 0
M  V30 7858 N 736.094 -0.359525 1.53444 0
M  V30 7859 C 737.041 -1.44073 1.8031 0
M  V30 7860 C 738.011 -1.52946 0.647811 0
M  V30 7861 O 739.196 -1.68739 0.890614 0
M  V30 7862 C 736.336 -2.80941 2.00416 0
M  V30 7863 C 735.449 -2.80986 3.28132 0
M  V30 7864 C 734.584 -4.09468 3.38393 0
M  V30 7865 C 733.623 -4.03679 4.60119 0
M  V30 7866 N 732.76 -5.23821 4.675 0
M  V30 7867 H 737.6 -1.20464 2.72566 0
M  V30 7868 H 735.137 -0.583859 1.35017 0
M  V30 7869 H 737.095 -3.60459 2.1006 0
M  V30 7870 H 735.725 -3.02936 1.11489 0
M  V30 7871 H 734.777 -1.93666 3.27411 0
M  V30 7872 H 736.089 -2.72583 4.17732 0
M  V30 7873 H 735.243 -4.97404 3.47382 0
M  V30 7874 H 733.982 -4.20632 2.4682 0
M  V30 7875 H 732.987 -3.14129 4.51224 0
M  V30 7876 H 734.212 -3.94112 5.5304 0
M  V30 7877 H 732.158 -5.35559 3.7883 0
M  V30 7878 H 732.075 -5.17611 5.51013 0
M  V30 7879 H 733.343 -6.13572 4.8078 0
M  V30 7880 N 737.572 -1.44907 -0.619662 0
M  V30 7881 C 738.983 -1.42905 -1.20146 0
M  V30 7882 C 739.334 -0.150341 -1.95623 0
M  V30 7883 O 738.459 0.748732 -2.03034 0
M  V30 7884 C 739.054 -2.58889 -2.18545 0
M  V30 7885 C 737.613 -2.60046 -2.72127 0
M  V30 7886 C 736.76 -2.3493 -1.4732 0
M  V30 7887 H 739.711 -1.53321 -0.409666 0
M  V30 7888 H 739.732 -2.32298 -3.0136 0
M  V30 7889 H 739.244 -3.51941 -1.63583 0
M  V30 7890 H 737.345 -1.70968 -3.3106 0
M  V30 7891 H 737.458 -3.58893 -3.17384 0
M  V30 7892 H 735.822 -1.84248 -1.75855 0
M  V30 7893 H 736.605 -3.3011 -0.942442 0
M  V30 7894 N 739.05 0.861098 -1.31996 0
M  V30 7895 C 740.327 1.59788 -1.12814 0
M  V30 7896 C 740.707 2.08753 0.313882 0
M  V30 7897 O 740.055 1.87258 1.30946 0
M  V30 7898 C 740.265 2.74901 -2.15012 0
M  V30 7899 C 741.613 3.44643 -2.48004 0
M  V30 7900 O 742.637 2.85119 -2.13508 0
M  V30 7901 O 741.496 4.52044 -3.07113 0
M  V30 7902 H 738.59 0.703408 -0.434909 0
M  V30 7903 H 741.136 0.905788 -1.43505 0
M  V30 7904 H 739.908 2.36198 -3.11971 0
M  V30 7905 H 739.531 3.51792 -1.85279 0
M  V30 7906 N 740.528 1.15101 1.07655 0
M  V30 7907 C 741.476 0.840714 2.16875 0
M  V30 7908 C 742.47 -0.184594 1.68391 0
M  V30 7909 O 743.676 -0.0399315 1.79956 0
M  V30 7910 H 740.051 0.254192 0.707736 0
M  V30 7911 H 742.022 1.76959 2.40266 0
M  V30 7912 C 740.771 0.343018 3.46004 0
M  V30 7913 H 740.094 1.12335 3.83694 0
M  V30 7914 H 741.534 0.16453 4.23681 0
M  V30 7915 C 739.993 -0.934881 3.23669 0
M  V30 7916 O 740.523 -2.00706 3.47965 0
M  V30 7917 N 738.729 -0.873167 2.77172 0
M  V30 7918 H 738.276 -0.000479072 2.576 0
M  V30 7919 H 738.234 -1.72873 2.62607 0
M  V30 7920 N 742.006 -1.2595 0.947325 0
M  V30 7921 C 742.936 -2.28521 0.479604 0
M  V30 7922 C 743.917 -1.63469 -0.470293 0
M  V30 7923 O 745.102 -1.90627 -0.370824 0
M  V30 7924 C 742.232 -3.46397 -0.250289 0
M  V30 7925 C 741.186 -4.23578 0.613643 0
M  V30 7926 C 740.512 -5.34131 -0.246568 0
M  V30 7927 C 741.812 -4.86979 1.88809 0
M  V30 7928 H 743.506 -2.67895 1.33688 0
M  V30 7929 H 741.052 -1.28783 0.644274 0
M  V30 7930 H 743.005 -4.17269 -0.588576 0
M  V30 7931 H 741.729 -3.05993 -1.14175 0
M  V30 7932 H 740.388 -3.54478 0.93491 0
M  V30 7933 H 740.036 -4.89968 -1.13756 0
M  V30 7934 H 739.736 -5.86683 0.328123 0
M  V30 7935 H 741.26 -6.07839 -0.579986 0
M  V30 7936 H 742.674 -5.50034 1.61666 0
M  V30 7937 H 741.071 -5.49675 2.40784 0
M  V30 7938 H 742.141 -4.09575 2.5957 0
M  V30 7939 N 743.484 -0.715051 -1.40445 0
M  V30 7940 C 744.414 -0.0768699 -2.33373 0
M  V30 7941 C 745.395 0.746109 -1.52863 0
M  V30 7942 O 746.58 0.695142 -1.81332 0
M  V30 7943 C 743.71 0.846014 -3.36838 0
M  V30 7944 C 742.664 0.128694 -4.27806 0
M  V30 7945 C 741.99 1.16726 -5.21804 0
M  V30 7946 C 743.29 -1.01679 -5.12307 0
M  V30 7947 H 744.984 -0.853061 -2.8699 0
M  V30 7948 H 742.53 -0.41167 -1.3799 0
M  V30 7949 H 744.483 1.30185 -4.00786 0
M  V30 7950 H 743.207 1.6541 -2.81615 0
M  V30 7951 H 741.866 -0.307314 -3.6531 0
M  V30 7952 H 741.514 1.96838 -4.62887 0
M  V30 7953 H 741.214 0.692188 -5.83509 0
M  V30 7954 H 742.738 1.62321 -5.88629 0
M  V30 7955 H 744.152 -0.640337 -5.69713 0
M  V30 7956 H 742.549 -1.4202 -5.83053 0
M  V30 7957 H 743.619 -1.84769 -4.48317 0
M  V30 7958 N 744.962 1.50701 -0.461195 0
M  V30 7959 C 746.211 2.01458 0.0988277 0
M  V30 7960 C 746.524 1.34863 1.41673 0
M  V30 7961 O 747.73 1.76721 2.06111 0
M  V30 7962 C 746.186 3.59186 0.226648 0
M  V30 7963 C 745.794 4.34732 -1.08223 0
M  V30 7964 C 747.538 4.18015 0.73916 0
M  V30 7965 C 745.445 5.8422 -0.918747 0
M  V30 7966 H 744.375 0.7529 0.040709 0
M  V30 7967 H 747.026 1.736 -0.594589 0
M  V30 7968 H 745.408 3.83589 0.983621 0
M  V30 7969 H 746.582 4.22059 -1.84939 0
M  V30 7970 H 744.897 3.87466 -1.52509 0
M  V30 7971 H 747.494 5.27436 0.878347 0
M  V30 7972 H 747.837 3.78746 1.72793 0
M  V30 7973 H 748.37 3.9778 0.0398469 0
M  V30 7974 H 745.109 6.27944 -1.88059 0
M  V30 7975 H 744.629 5.99493 -0.191801 0
M  V30 7976 H 746.308 6.44382 -0.581405 0
M  V30 7977 N 746.441 0.193421 1.56409 0
M  V30 7978 C 747.669 -0.451438 2.01915 0
M  V30 7979 C 748.084 -1.55306 1.07357 0
M  V30 7980 O 747.441 -1.82333 0.0781512 0
M  V30 7981 C 747.492 -1.00931 3.47124 0
M  V30 7982 O 747.213 0.0483623 4.38073 0
M  V30 7983 C 748.714 -1.73021 4.0814 0
M  V30 7984 H 745.934 -0.113495 0.661332 0
M  V30 7985 H 748.478 0.301636 2.02263 0
M  V30 7986 H 746.633 -1.71277 3.47481 0
M  V30 7987 H 747.047 -0.366644 5.23217 0
M  V30 7988 H 748.521 -2.07289 5.11601 0
M  V30 7989 H 748.998 -2.6333 3.51502 0
M  V30 7990 H 749.604 -1.07264 4.11551 0
M  V30 7991 N 747.919 -1.57396 -0.0801906 0
M  V30 7992 C 749.144 -1.91437 -0.797909 0
M  V30 7993 C 749.569 -0.789075 -1.70749 0
M  V30 7994 O 748.927 0.25857 -1.79447 0
M  V30 7995 C 748.975 -3.24402 -1.57467 0
M  V30 7996 O 748.079 -3.13043 -2.68473 0
M  V30 7997 H 747.42 -0.627109 -0.218243 0
M  V30 7998 H 749.95 -2.04537 -0.050949 0
M  V30 7999 H 749.96 -3.58072 -1.95571 0
M  V30 8000 H 748.635 -4.05884 -0.907229 0
M  V30 8001 H 747.212 -2.90915 -2.33287 0
M  V30 8002 N 749.397 0.351382 -1.53633 0
M  V30 8003 C 750.33 1.45407 -1.75875 0
M  V30 8004 C 751.308 1.50822 -0.607566 0
M  V30 8005 O 752.492 1.68658 -0.841818 0
M  V30 8006 C 749.619 2.8369 -1.85034 0
M  V30 8007 C 748.665 2.95935 -3.07123 0
M  V30 8008 S 749.498 2.63215 -4.66345 0
M  V30 8009 C 750.654 4.03622 -4.78373 0
M  V30 8010 H 750.887 1.26322 -2.69128 0
M  V30 8011 H 748.42 0.546581 -1.44402 0
M  V30 8012 H 750.378 3.6336 -1.90996 0
M  V30 8013 H 749.039 3.00076 -0.928074 0
M  V30 8014 H 748.232 3.97243 -3.10183 0
M  V30 8015 H 747.834 2.24205 -2.99346 0
M  V30 8016 H 750.126 4.98046 -4.593 0
M  V30 8017 H 751.069 4.05559 -5.80454 0
M  V30 8018 H 751.477 3.91282 -4.06889 0
M  V30 8019 N 750.875 1.45233 0.611969 0
M  V30 8020 C 752.123 1.48727 1.36838 0
M  V30 8021 C 752.444 0.128616 1.94575 0
M  V30 8022 O 751.714 -0.84149 1.76906 0
M  V30 8023 H 750.294 0.547695 0.507976 0
M  V30 8024 H 752.956 1.81156 0.718925 0
M  V30 8025 H 752.052 2.2236 2.19003 0
M  V30 8026 N 752.353 -0.854086 1.3245 0
M  V30 8027 C 753.303 -1.9508 1.18016 0
M  V30 8028 C 754.287 -1.60665 0.0869417 0
M  V30 8029 O 755.479 -1.74201 0.313505 0
M  V30 8030 C 752.608 -3.3113 0.905961 0
M  V30 8031 C 751.694 -3.71763 2.04091 0
M  V30 8032 N 752.085 -3.84218 3.28953 0
M  V30 8033 C 750.383 -4.01393 1.94421 0
M  V30 8034 C 751.084 -4.192 4.03294 0
M  V30 8035 N 750.06 -4.30749 3.31596 0
M  V30 8036 H 753.862 -2.02843 2.12678 0
M  V30 8037 H 751.376 -1.04588 1.24238 0
M  V30 8038 H 753.373 -4.09471 0.783508 0
M  V30 8039 H 752.033 -3.24684 -0.0322715 0
M  V30 8040 H 753.044 -3.68524 3.63883 0
M  V30 8041 H 749.721 -4.03246 1.08162 0
M  V30 8042 H 751.111 -4.36301 5.1097 0
M  V30 8043 N 753.831 -1.1567 -1.07043 0
M  V30 8044 C 755.08 -0.928039 -1.79082 0
M  V30 8045 C 755.393 0.545968 -1.87826 0
M  V30 8046 O 756.599 0.892308 -2.56418 0
M  V30 8047 C 755.055 -1.61103 -3.21829 0
M  V30 8048 C 754.663 -3.12228 -3.21275 0
M  V30 8049 C 756.407 -1.46404 -3.98455 0
M  V30 8050 C 754.314 -3.733 -4.58695 0
M  V30 8051 H 753.244 -0.34357 -0.671175 0
M  V30 8052 H 755.895 -1.38718 -1.20123 0
M  V30 8053 H 754.277 -1.07958 -3.81 0
M  V30 8054 H 755.451 -3.72155 -2.71731 0
M  V30 8055 H 753.766 -3.26725 -2.58147 0
M  V30 8056 H 756.363 -1.8942 -5.00024 0
M  V30 8057 H 756.706 -0.41195 -4.14257 0
M  V30 8058 H 757.239 -1.96663 -3.45787 0
M  V30 8059 H 753.978 -4.78423 -4.48098 0
M  V30 8060 H 753.498 -3.18157 -5.08465 0
M  V30 8061 H 755.177 -3.7441 -5.27661 0
M  V30 8062 N 755.309 1.25446 -0.953992 0
M  V30 8063 C 756.256 2.25912 -0.472485 0
M  V30 8064 C 757.226 1.59173 0.47469 0
M  V30 8065 O 758.411 1.86812 0.388082 0
M  V30 8066 C 755.551 3.44235 0.244218 0
M  V30 8067 C 754.664 4.25613 -0.740121 0
M  V30 8068 C 753.799 5.312 -0.000922267 0
M  V30 8069 C 752.838 6.04265 -0.976236 0
M  V30 8070 N 751.975 7.01589 -0.267952 0
M  V30 8071 H 756.815 2.66469 -1.3341 0
M  V30 8072 H 754.352 1.31005 -0.669045 0
M  V30 8073 H 756.31 4.11682 0.676314 0
M  V30 8074 H 754.94 3.04554 1.06988 0
M  V30 8075 H 753.992 3.57834 -1.2907 0
M  V30 8076 H 755.304 4.762 -1.48441 0
M  V30 8077 H 754.458 6.04719 0.48984 0
M  V30 8078 H 753.197 4.81484 0.776159 0
M  V30 8079 H 752.202 5.29561 -1.478 0
M  V30 8080 H 753.427 6.5607 -1.75354 0
M  V30 8081 H 751.373 6.54164 0.490403 0
M  V30 8082 H 751.29 7.4999 -0.951344 0
M  V30 8083 H 752.558 7.7924 0.201294 0
M  V30 8084 N 756.787 0.722489 1.40064 0
M  V30 8085 C 757.717 0.0892452 2.33329 0
M  V30 8086 C 758.698 -0.737992 1.53257 0
M  V30 8087 O 759.883 -0.685516 1.81698 0
M  V30 8088 C 757.013 -0.828139 3.37282 0
M  V30 8089 C 755.967 -0.106005 4.27869 0
M  V30 8090 C 755.293 -1.13957 5.22415 0
M  V30 8091 C 756.593 1.04395 5.11761 0
M  V30 8092 H 758.287 0.868269 2.86534 0
M  V30 8093 H 755.833 0.418982 1.3777 0
M  V30 8094 H 757.786 -1.28058 4.01471 0
M  V30 8095 H 756.51 -1.63914 2.82489 0
M  V30 8096 H 755.169 0.326683 3.65142 0
M  V30 8097 H 754.817 -1.9438 4.63924 0
M  V30 8098 H 754.517 -0.661233 5.83868 0
M  V30 8099 H 756.041 -1.59197 5.89482 0
M  V30 8100 H 757.455 0.670541 5.69365 0
M  V30 8101 H 755.852 1.4511 5.82291 0
M  V30 8102 H 756.922 1.87144 4.47331 0
M  V30 8103 N 758.265 -1.50454 0.469181 0
M  V30 8104 C 759.493 -2.06729 -0.0842134 0
M  V30 8105 C 759.908 -1.33326 -1.33677 0
M  V30 8106 O 759.265 -0.401977 -1.78018 0
M  V30 8107 C 759.316 -3.59557 -0.374253 0
M  V30 8108 O 759.037 -4.30192 0.828622 0
M  V30 8109 C 760.538 -4.32449 -0.974824 0
M  V30 8110 H 757.758 -0.670971 0.006231 0
M  V30 8111 H 760.302 -1.93645 0.657415 0
M  V30 8112 H 758.457 -3.7245 -1.06581 0
M  V30 8113 H 758.871 -5.21371 0.572066 0
M  V30 8114 H 760.345 -5.40361 -1.12755 0
M  V30 8115 H 760.822 -3.92819 -1.96442 0
M  V30 8116 H 761.428 -4.24082 -0.321703 0
M  V30 8117 N 759.743 -0.201713 -1.56304 0
M  V30 8118 C 761.02 0.483273 -1.89536 0
M  V30 8119 C 761.4 1.79176 -1.11621 0
M  V30 8120 O 760.748 2.27445 -0.219339 0
M  V30 8121 C 760.958 0.695604 -3.41998 0
M  V30 8122 C 762.306 1.012 -4.12364 0
M  V30 8123 O 763.33 0.783094 -3.47485 0
M  V30 8124 O 762.189 1.44534 -5.27041 0
M  V30 8125 H 759.283 0.252801 -0.787414 0
M  V30 8126 H 761.829 -0.24242 -1.6796 0
M  V30 8127 H 760.601 -0.228165 -3.90634 0
M  V30 8128 H 760.224 1.47351 -3.69288 0
M  V30 8129 N 761.222 1.57436 0.0718424 0
M  V30 8130 C 762.469 1.87248 0.771007 0
M  V30 8131 C 762.797 0.793441 1.7758 0
M  V30 8132 O 762.052 -0.210565 1.94564 0
M  V30 8133 C 762.351 3.23723 1.51455 0
M  V30 8134 C 762.017 4.46194 0.649736 0
M  V30 8135 C 760.679 4.79438 0.411409 0
M  V30 8136 C 763.031 5.21176 0.05004 0
M  V30 8137 C 760.359 5.85077 -0.436096 0
M  V30 8138 C 762.711 6.27712 -0.784919 0
M  V30 8139 C 761.375 6.59457 -1.03312 0
M  V30 8140 H 760.645 0.685188 0.282132 0
M  V30 8141 H 763.292 1.91474 0.0317896 0
M  V30 8142 H 761.597 3.15287 2.32597 0
M  V30 8143 H 763.294 3.44023 2.06031 0
M  V30 8144 H 759.884 4.20175 0.84562 0
M  V30 8145 H 764.068 4.95806 0.221282 0
M  V30 8146 H 759.324 6.08071 -0.637136 0
M  V30 8147 H 763.498 6.84974 -1.25635 0
M  V30 8148 H 761.125 7.4114 -1.6916 0
M  V30 8149 N 762.7 -0.34323 1.53817 0
M  V30 8150 C 763.948 -1.0813 1.70741 0
M  V30 8151 C 764.269 -1.89165 0.473461 0
M  V30 8152 O 763.539 -1.89075 -0.512605 0
M  V30 8153 H 762.119 -0.40219 0.629486 0
M  V30 8154 H 764.781 -0.384426 1.91071 0
M  V30 8155 H 763.877 -1.7585 2.57843 0
M  V30 8156 N 764.178 -1.45556 -0.604258 0
M  V30 8157 C 765.108 -1.57327 -1.72541 0
M  V30 8158 C 766.089 -0.424637 -1.64714 0
M  V30 8159 O 767.274 -0.648196 -1.83063 0
M  V30 8160 C 764.404 -1.54279 -3.11152 0
M  V30 8161 C 763.358 -2.67893 -3.33792 0
M  V30 8162 C 762.684 -2.499 -4.72709 0
M  V30 8163 C 763.984 -4.0988 -3.23722 0
M  V30 8164 H 765.678 -2.51175 -1.62947 0
M  V30 8165 H 763.224 -1.20884 -0.782504 0
M  V30 8166 H 765.177 -1.6111 -3.89386 0
M  V30 8167 H 763.901 -0.569627 -3.21594 0
M  V30 8168 H 762.56 -2.60495 -2.57949 0
M  V30 8169 H 762.208 -1.50715 -4.79889 0
M  V30 8170 H 761.908 -3.26091 -4.88813 0
M  V30 8171 H 763.432 -2.5859 -5.5314 0
M  V30 8172 H 764.846 -4.18503 -3.91826 0
M  V30 8173 H 763.243 -4.86487 -3.51355 0
M  V30 8174 H 764.313 -4.31553 -2.21111 0
M  V30 8175 N 765.656 0.84705 -1.32902 0
M  V30 8176 C 766.881 1.63925 -1.27056 0
M  V30 8177 C 767.306 1.87443 0.157136 0
M  V30 8178 O 766.664 1.43266 1.11106 0
M  V30 8179 C 766.712 2.97134 -2.04313 0
M  V30 8180 O 765.816 3.88049 -1.39614 0
M  V30 8181 H 765.157 0.499477 -0.437514 0
M  V30 8182 H 767.687 1.05443 -1.75336 0
M  V30 8183 H 767.697 3.46896 -2.14772 0
M  V30 8184 H 766.372 2.79339 -3.08128 0
M  V30 8185 H 764.949 3.46525 -1.3775 0
M  V30 8186 N 767.134 1.16236 1.06428 0
M  V30 8187 C 768.081 0.86769 2.13869 0
M  V30 8188 C 769.051 -0.183298 1.65086 0
M  V30 8189 O 770.236 -0.0488002 1.90738 0
M  V30 8190 C 767.376 0.373427 3.43074 0
M  V30 8191 C 766.489 1.48708 4.05598 0
M  V30 8192 C 765.624 0.947977 5.22673 0
M  V30 8193 C 764.663 2.03793 5.77178 0
M  V30 8194 N 763.8 1.51451 6.85571 0
M  V30 8195 H 768.64 1.78781 2.38414 0
M  V30 8196 H 766.177 0.891892 1.16977 0
M  V30 8197 H 768.135 0.0685035 4.17144 0
M  V30 8198 H 766.765 -0.509752 3.1875 0
M  V30 8199 H 765.817 1.908 3.29089 0
M  V30 8200 H 767.129 2.30964 4.42105 0
M  V30 8201 H 766.283 0.596154 6.03764 0
M  V30 8202 H 765.022 0.0947081 4.87608 0
M  V30 8203 H 764.027 2.39847 4.94726 0
M  V30 8204 H 765.252 2.89514 6.14295 0
M  V30 8205 H 763.198 0.683755 6.52427 0
M  V30 8206 H 763.115 2.27325 7.21013 0
M  V30 8207 H 764.383 1.19123 7.70344 0
M  V30 8208 N 768.612 -1.24939 0.960631 0
M  V30 8209 C 769.545 -2.24116 0.429804 0
M  V30 8210 C 770.523 -1.54972 -0.492188 0
M  V30 8211 O 771.707 -1.83642 -0.42519 0
M  V30 8212 C 768.834 -3.36558 -0.380312 0
M  V30 8213 C 767.88 -4.23757 0.482941 0
M  V30 8214 S 768.713 -4.9994 1.91885 0
M  V30 8215 C 769.869 -6.15846 1.11732 0
M  V30 8216 H 770.102 -2.68795 1.27029 0
M  V30 8217 H 767.635 -1.34108 0.765141 0
M  V30 8218 H 769.593 -4.01777 -0.841764 0
M  V30 8219 H 768.254 -2.90451 -1.19569 0
M  V30 8220 H 767.447 -5.03809 -0.138699 0
M  V30 8221 H 767.049 -3.63504 0.879839 0
M  V30 8222 H 769.341 -6.76495 0.368898 0
M  V30 8223 H 770.284 -6.82356 1.89198 0
M  V30 8224 H 770.692 -5.60805 0.644812 0
M  V30 8225 N 770.09 -0.729906 -1.39679 0
M  V30 8226 C 771.338 -0.275077 -2.00219 0
M  V30 8227 C 771.659 1.1401 -1.58199 0
M  V30 8228 O 770.929 1.77546 -0.827904 0
M  V30 8229 H 769.509 -0.0987127 -0.740449 0
M  V30 8230 H 772.171 -0.93873 -1.70804 0
M  V30 8231 H 771.267 -0.319446 -3.10461 0
M  V30 8232 N 771.568 1.50203 -0.477153 0
M  V30 8233 C 772.498 2.31517 0.303646 0
M  V30 8234 C 773.479 1.38696 0.984753 0
M  V30 8235 O 774.664 1.67615 0.980758 0
M  V30 8236 C 771.794 3.18598 1.38249 0
M  V30 8237 C 770.748 4.2002 0.822645 0
M  V30 8238 C 770.074 4.95878 2.00024 0
M  V30 8239 C 771.374 5.22023 -0.170185 0
M  V30 8240 H 773.068 2.97042 -0.375027 0
M  V30 8241 H 770.614 1.42848 -0.181802 0
M  V30 8242 H 772.567 3.74282 1.93625 0
M  V30 8243 H 771.291 2.5097 2.09002 0
M  V30 8244 H 769.95 3.65445 0.290813 0
M  V30 8245 H 769.598 4.24717 2.69489 0
M  V30 8246 H 769.298 5.64487 1.63183 0
M  V30 8247 H 770.822 5.54399 2.55878 0
M  V30 8248 H 772.236 5.72543 0.294606 0
M  V30 8249 H 770.633 5.98386 -0.453181 0
M  V30 8250 H 771.703 4.72396 -1.09408 0
M  V30 8251 N 773.046 0.209999 1.56195 0
M  V30 8252 C 773.979 -0.744546 2.15712 0
M  V30 8253 C 774.957 -1.19917 1.09812 0
M  V30 8254 O 776.141 -1.284 1.38006 0
M  V30 8255 C 773.268 -2.00733 2.72807 0
M  V30 8256 C 772.314 -1.69363 3.91431 0
M  V30 8257 S 773.147 -0.828579 5.29051 0
M  V30 8258 C 774.303 -2.10118 5.89577 0
M  V30 8259 H 774.536 -0.238636 2.96341 0
M  V30 8260 H 772.069 -0.00517877 1.54399 0
M  V30 8261 H 774.027 -2.73246 3.06344 0
M  V30 8262 H 772.688 -2.48436 1.92193 0
M  V30 8263 H 771.881 -2.63157 4.29842 0
M  V30 8264 H 771.483 -1.04921 3.58981 0
M  V30 8265 H 773.775 -3.05231 6.04847 0
M  V30 8266 H 774.718 -1.76116 6.85849 0
M  V30 8267 H 775.126 -2.23644 5.18308 0
M  V30 8268 N 774.524 -1.57472 -0.0634922 0
M  V30 8269 C 775.749 -1.92273 -0.77756 0
M  V30 8270 C 776.174 -0.807141 -1.69902 0
M  V30 8271 O 775.532 0.239523 -1.79711 0
M  V30 8272 C 775.58 -3.26054 -1.54017 0
M  V30 8273 O 774.684 -3.15873 -2.65138 0
M  V30 8274 H 774.025 -0.629389 -0.211579 0
M  V30 8275 H 776.555 -2.04579 -0.0292523 0
M  V30 8276 H 776.565 -3.60127 -1.91763 0
M  V30 8277 H 775.24 -4.06824 -0.864128 0
M  V30 8278 H 773.817 -2.93373 -2.30189 0
M  V30 8279 N 776.003 0.335068 -1.53997 0
M  V30 8280 C 776.933 1.41727 -1.85568 0
M  V30 8281 C 777.914 1.54505 -0.7115 0
M  V30 8282 O 779.099 1.68573 -0.964191 0
M  V30 8283 C 776.229 2.7866 -2.07282 0
M  V30 8284 C 775.183 2.80682 -3.23112 0
M  V30 8285 C 774.509 4.20581 -3.30175 0
M  V30 8286 C 775.809 2.45458 -4.61029 0
M  V30 8287 H 777.503 1.15555 -2.76202 0
M  V30 8288 H 775.049 0.554445 -1.32898 0
M  V30 8289 H 777.002 3.54423 -2.27952 0
M  V30 8290 H 775.726 3.06286 -1.13387 0
M  V30 8291 H 774.385 2.07373 -3.02311 0
M  V30 8292 H 774.033 4.4533 -2.33859 0
M  V30 8293 H 773.733 4.22843 -4.08016 0
M  V30 8294 H 775.257 4.98174 -3.53066 0
M  V30 8295 H 776.671 3.10934 -4.81656 0
M  V30 8296 H 775.068 2.5899 -5.41336 0
M  V30 8297 H 776.138 1.40628 -4.6406 0
M  V30 8298 N 777.481 1.45874 0.596531 0
M  V30 8299 C 778.709 1.54013 1.38158 0
M  V30 8300 C 779.124 0.17648 1.87973 0
M  V30 8301 O 778.481 -0.823895 1.62844 0
M  V30 8302 C 778.532 2.53363 2.57855 0
M  V30 8303 O 778.253 3.8443 2.10108 0
M  V30 8304 C 779.754 2.71308 3.50581 0
M  V30 8305 H 776.974 0.521251 0.422538 0
M  V30 8306 H 779.518 1.9116 0.726493 0
M  V30 8307 H 777.673 2.19257 3.19382 0
M  V30 8308 H 778.087 4.38384 2.87958 0
M  V30 8309 H 779.561 3.44776 4.31084 0
M  V30 8310 H 780.038 1.77728 4.01633 0
M  V30 8311 H 780.644 3.06455 2.94899 0
M  V30 8312 N 778.959 -0.83999 1.33349 0
M  V30 8313 C 780.187 -1.62728 1.27778 0
M  V30 8314 C 780.602 -1.88191 -0.151505 0
M  V30 8315 O 779.959 -1.46128 -1.09329 0
M  V30 8316 C 780.01 -2.97813 2.04913 0
M  V30 8317 O 779.731 -2.73469 3.42266 0
M  V30 8318 C 781.232 -3.92245 2.0654 0
M  V30 8319 H 778.452 -0.506374 0.440257 0
M  V30 8320 H 780.996 -1.04637 1.75703 0
M  V30 8321 H 779.151 -3.52509 1.60674 0
M  V30 8322 H 779.565 -3.59483 3.81932 0
M  V30 8323 H 781.039 -4.84249 2.64966 0
M  V30 8324 H 781.516 -4.26332 1.05537 0
M  V30 8325 H 782.122 -3.43487 2.50793 0
M  V30 8326 N 780.437 -1.16799 -1.0581 0
M  V30 8327 C 781.385 -0.875111 -2.1551 0
M  V30 8328 C 782.379 0.157781 -1.68664 0
M  V30 8329 O 783.585 0.011297 -1.79996 0
M  V30 8330 H 779.96 -0.26542 -0.703602 0
M  V30 8331 H 781.931 -1.8076 -2.37421 0
M  V30 8332 C 780.68 -0.39802 -3.45414 0
M  V30 8333 H 780.003 -1.18425 -3.81858 0
M  V30 8334 H 781.443 -0.231913 -4.23365 0
M  V30 8335 C 779.902 0.88327 -3.25115 0
M  V30 8336 O 780.432 1.95145 -3.51114 0
M  V30 8337 N 778.638 0.828961 -2.78526 0
M  V30 8338 H 778.185 -0.0405029 -2.57568 0
M  V30 8339 H 778.143 1.68673 -2.65324 0
M  V30 8340 N 781.915 1.24427 -0.967243 0
M  V30 8341 C 782.845 2.2773 -0.515899 0
M  V30 8342 C 783.826 1.64197 0.444227 0
M  V30 8343 O 785.011 1.91193 0.340451 0
M  V30 8344 C 782.141 3.46751 0.195149 0
M  V30 8345 C 781.095 4.22548 -0.680953 0
M  V30 8346 C 780.421 5.34456 0.161561 0
M  V30 8347 C 781.721 4.83914 -1.96532 0
M  V30 8348 H 783.415 2.65735 -1.37933 0
M  V30 8349 H 780.961 1.27742 -0.664681 0
M  V30 8350 H 782.914 4.18153 0.522117 0
M  V30 8351 H 781.638 3.07771 1.09292 0
M  V30 8352 H 780.297 3.52946 -0.991186 0
M  V30 8353 H 779.945 4.91716 1.05947 0
M  V30 8354 H 779.645 5.86087 -0.421418 0
M  V30 8355 H 781.169 6.08685 0.483211 0
M  V30 8356 H 782.583 5.47392 -1.70396 0
M  V30 8357 H 780.98 5.45775 -2.49499 0
M  V30 8358 H 782.05 4.05393 -2.66053 0
M  V30 8359 N 783.393 0.737304 1.3929 0
M  V30 8360 C 784.623 0.296143 2.04467 0
M  V30 8361 C 785.031 -1.0748 1.55707 0
M  V30 8362 O 784.374 -1.69082 0.718123 0
M  V30 8363 C 784.436 0.222161 3.58813 0
M  V30 8364 C 784.1 1.53195 4.30558 0
M  V30 8365 C 785.097 2.47809 4.57041 0
M  V30 8366 C 782.782 1.79688 4.6906 0
M  V30 8367 C 784.776 3.67147 5.21039 0
M  V30 8368 C 782.463 2.99304 5.32785 0
M  V30 8369 C 783.461 3.92855 5.58708 0
M  V30 8370 O 783.149 5.1037 6.2111 0
M  V30 8371 H 782.881 0.126896 0.663983 0
M  V30 8372 H 785.435 1.00242 1.79278 0
M  V30 8373 H 783.665 -0.540239 3.82908 0
M  V30 8374 H 785.354 -0.187311 4.05468 0
M  V30 8375 H 786.12 2.28611 4.2774 0
M  V30 8376 H 781.999 1.07716 4.48239 0
M  V30 8377 H 785.543 4.40183 5.41188 0
M  V30 8378 H 781.44 3.18401 5.61508 0
M  V30 8379 H 782.208 5.10735 6.39603 0
M  V30 8380 N 784.871 -1.49948 0.485112 0
M  V30 8381 C 785.781 -2.32587 -0.306697 0
M  V30 8382 C 786.797 -1.43598 -0.982632 0
M  V30 8383 O 787.973 -1.76638 -0.967519 0
M  V30 8384 C 785.038 -3.18638 -1.3664 0
M  V30 8385 C 784.099 -4.23462 -0.705589 0
M  V30 8386 C 783.332 -5.05401 -1.7148 0
M  V30 8387 O 783.555 -4.88618 -2.94293 0
M  V30 8388 O 782.489 -5.88157 -1.27889 0
M  V30 8389 H 786.315 -3.01447 0.369272 0
M  V30 8390 H 783.9 -1.47349 0.246709 0
M  V30 8391 H 785.782 -3.71992 -1.9799 0
M  V30 8392 H 784.457 -2.52491 -2.02559 0
M  V30 8393 H 783.364 -3.74063 -0.0527733 0
M  V30 8394 H 784.697 -4.92119 -0.0891187 0
M  V30 8395 N 786.349 -0.21828 -1.56081 0
M  V30 8396 C 787.597 0.413488 -1.97825 0
M  V30 8397 C 787.918 1.60527 -1.10707 0
M  V30 8398 O 787.188 1.9504 -0.183378 0
M  V30 8399 H 785.768 0.155757 -0.730581 0
M  V30 8400 H 788.43 -0.310413 -1.92412 0
M  V30 8401 H 787.526 0.742024 -3.03151 0
M  V30 8402 N 787.827 1.57504 0.0551401 0
M  V30 8403 C 788.777 2.0128 1.071 0
M  V30 8404 C 789.761 0.897592 1.33537 0
M  V30 8405 O 790.953 1.16151 1.33558 0
M  V30 8406 C 788.082 2.47414 2.37994 0
M  V30 8407 C 787.168 3.65703 2.14761 0
M  V30 8408 N 787.559 4.79323 1.61504 0
M  V30 8409 C 785.857 3.72574 2.45162 0
M  V30 8410 C 786.558 5.61089 1.53472 0
M  V30 8411 N 785.534 5.05426 2.00114 0
M  V30 8412 H 789.336 2.86558 0.652829 0
M  V30 8413 H 786.85 1.60274 0.26193 0
M  V30 8414 H 788.847 2.77023 3.11551 0
M  V30 8415 H 787.507 1.6353 2.80514 0
M  V30 8416 H 788.518 5.01284 1.30134 0
M  V30 8417 H 785.195 2.99439 2.90934 0
M  V30 8418 H 786.585 6.62328 1.13008 0
M  V30 8419 N 789.305 -0.326896 1.54172 0
M  V30 8420 C 790.554 -1.06274 1.71431 0
M  V30 8421 C 790.867 -1.89282 0.493123 0
M  V30 8422 O 792.073 -2.65933 0.54699 0
M  V30 8423 C 790.529 -1.93892 3.03206 0
M  V30 8424 C 790.137 -1.16011 4.32719 0
M  V30 8425 C 791.881 -2.67232 3.29829 0
M  V30 8426 C 789.788 -2.02755 5.55558 0
M  V30 8427 H 788.718 -0.400475 0.638855 0
M  V30 8428 H 791.369 -0.321184 1.80667 0
M  V30 8429 H 789.751 -2.71933 2.87869 0
M  V30 8430 H 790.925 -0.427643 4.58811 0
M  V30 8431 H 789.24 -0.54367 4.12836 0
M  V30 8432 H 791.837 -3.32434 4.18798 0
M  V30 8433 H 792.18 -3.34692 2.47562 0
M  V30 8434 H 792.713 -1.96255 3.46018 0
M  V30 8435 H 789.452 -1.3981 6.40417 0
M  V30 8436 H 788.972 -2.73745 5.33689 0
M  V30 8437 H 790.651 -2.61419 5.91835 0
M  V30 8438 N 790.784 -1.46188 -0.588786 0
M  V30 8439 C 791.694 -1.58865 -1.72624 0
M  V30 8440 C 792.71 -0.472348 -1.67466 0
M  V30 8441 O 793.886 -0.735638 -1.87484 0
M  V30 8442 C 790.951 -1.56989 -3.0912 0
M  V30 8443 C 790.012 -2.79804 -3.25589 0
M  V30 8444 C 789.245 -2.78009 -4.55573 0
M  V30 8445 O 789.468 -1.86406 -5.39082 0
M  V30 8446 O 788.402 -3.6947 -4.75159 0
M  V30 8447 H 792.228 -2.55047 -1.64878 0
M  V30 8448 H 789.813 -1.28912 -0.755115 0
M  V30 8449 H 791.695 -1.58618 -3.90408 0
M  V30 8450 H 790.37 -0.639648 -3.17317 0
M  V30 8451 H 789.277 -2.83732 -2.43818 0
M  V30 8452 H 790.61 -3.72017 -3.22279 0
M  V30 8453 N 792.262 0.832906 -1.33792 0
M  V30 8454 C 793.209 1.94314 -1.24541 0
M  V30 8455 C 794.179 1.65646 -0.122753 0
M  V30 8456 O 795.364 1.88394 -0.30204 0
M  V30 8457 C 792.504 3.30395 -0.996641 0
M  V30 8458 C 791.617 3.71422 -2.20612 0
M  V30 8459 C 790.752 4.96401 -1.89101 0
M  V30 8460 C 789.791 5.2998 -3.06247 0
M  V30 8461 N 788.928 6.46137 -2.74685 0
M  V30 8462 H 793.768 2.01559 -2.19495 0
M  V30 8463 H 791.305 0.986243 -1.09141 0
M  V30 8464 H 793.263 4.08803 -0.832817 0
M  V30 8465 H 791.893 3.22691 -0.0838242 0
M  V30 8466 H 790.945 2.88488 -2.47949 0
M  V30 8467 H 792.257 3.92215 -3.0817 0
M  V30 8468 H 791.411 5.82572 -1.69396 0
M  V30 8469 H 790.15 4.7759 -0.987882 0
M  V30 8470 H 789.155 4.42312 -3.26559 0
M  V30 8471 H 790.38 5.50737 -3.97323 0
M  V30 8472 H 788.326 6.28801 -1.86938 0
M  V30 8473 H 788.243 6.67054 -3.55774 0
M  V30 8474 H 789.511 7.35403 -2.58461 0
M  V30 8475 N 793.74 1.17359 1.05189 0
M  V30 8476 C 795.017 0.871914 1.75091 0
M  V30 8477 C 795.397 -0.627821 2.01548 0
M  V30 8478 O 794.745 -1.5791 1.65156 0
M  V30 8479 C 794.955 1.70687 3.04413 0
M  V30 8480 C 796.303 1.92684 3.78362 0
M  V30 8481 O 797.327 1.67645 3.14282 0
M  V30 8482 O 796.186 2.34765 4.93505 0
M  V30 8483 H 793.28 0.322831 0.761386 0
M  V30 8484 H 795.826 1.28054 1.11357 0
M  V30 8485 H 794.598 2.72405 2.80911 0
M  V30 8486 H 794.221 1.29602 3.75884 0
M  V30 8487 N 795.218 -1.23913 0.973828 0
M  V30 8488 C 796.181 -2.23367 0.51378 0
M  V30 8489 C 797.181 -1.55923 -0.39302 0
M  V30 8490 O 798.371 -1.73187 -0.187626 0
M  V30 8491 C 795.503 -3.39944 -0.255152 0
M  V30 8492 H 796.696 -2.65581 1.39307 0
M  V30 8493 H 794.249 -1.36632 0.759039 0
M  V30 8494 H 794.984 -3.03177 -1.15127 0
M  V30 8495 H 794.769 -3.90098 0.395673 0
M  V30 8496 H 796.259 -4.13749 -0.565842 0
M  V30 8497 N 796.696 -0.74468 -1.38897 0
M  V30 8498 C 798.112 -0.421302 -1.53939 0
M  V30 8499 C 798.312 1.06668 -1.70951 0
M  V30 8500 O 797.368 1.85278 -1.71547 0
M  V30 8501 C 798.681 -1.21278 -2.75159 0
M  V30 8502 C 800.229 -1.20196 -2.89001 0
M  V30 8503 C 800.704 -1.97621 -4.13171 0
M  V30 8504 N 802.195 -1.94836 -4.2023 0
M  V30 8505 C 802.93 -2.51545 -5.15279 0
M  V30 8506 N 802.426 -3.1693 -6.16058 0
M  V30 8507 N 804.219 -2.41524 -5.07565 0
M  V30 8508 H 796.37 -1.70914 -1.26103 0
M  V30 8509 H 798.633 -0.724058 -0.611919 0
M  V30 8510 H 798.339 -2.26609 -2.68963 0
M  V30 8511 H 798.213 -0.823677 -3.68097 0
M  V30 8512 H 800.6 -0.156742 -2.94683 0
M  V30 8513 H 800.681 -1.63051 -1.97099 0
M  V30 8514 H 800.325 -3.02149 -4.0825 0
M  V30 8515 H 800.255 -1.52166 -5.04136 0
M  V30 8516 H 802.746 -1.4721 -3.48048 0
M  V30 8517 H 803.059 -3.57644 -6.85062 0
M  V30 8518 H 801.404 -3.21023 -6.16417 0
M  V30 8519 H 804.595 -1.90077 -4.27771 0
M  V30 8520 H 804.768 -2.86016 -5.81462 0
M  V30 8521 N 798.174 1.49689 -0.493057 0
M  V30 8522 C 799.084 2.32746 0.294358 0
M  V30 8523 C 800.1 1.44117 0.975003 0
M  V30 8524 O 801.276 1.77149 0.958138 0
M  V30 8525 C 798.341 3.19358 1.34949 0
M  V30 8526 C 797.402 4.2383 0.683122 0
M  V30 8527 C 796.635 5.06303 1.68798 0
M  V30 8528 O 796.858 4.90172 2.91698 0
M  V30 8529 O 795.792 5.88826 1.24768 0
M  V30 8530 H 799.618 3.01247 -0.385254 0
M  V30 8531 H 797.203 1.47216 -0.254519 0
M  V30 8532 H 799.085 3.73037 1.96014 0
M  V30 8533 H 797.76 2.53561 2.01217 0
M  V30 8534 H 796.667 3.74086 0.0329351 0
M  V30 8535 H 798 4.9216 0.0630192 0
M  V30 8536 N 799.652 0.226554 1.55963 0
M  V30 8537 C 800.899 -0.403789 1.98433 0
M  V30 8538 C 801.227 -1.59416 1.1143 0
M  V30 8539 O 800.482 -1.95042 0.160389 0
M  V30 8540 C 800.781 -0.87642 3.46488 0
M  V30 8541 C 800.447 0.203973 4.50438 0
M  V30 8542 C 799.109 0.500754 4.78587 0
M  V30 8543 C 801.461 0.934396 5.12756 0
M  V30 8544 C 798.789 1.53239 5.66334 0
M  V30 8545 C 801.141 1.9554 6.0162 0
M  V30 8546 C 799.805 2.25905 6.28111 0
M  V30 8547 H 799.075 -0.147757 0.726119 0
M  V30 8548 H 801.722 0.330121 1.88633 0
M  V30 8549 H 800.027 -1.68918 3.53517 0
M  V30 8550 H 801.724 -1.37407 3.76723 0
M  V30 8551 H 798.314 -0.0374917 4.28584 0
M  V30 8552 H 802.498 0.718355 4.91074 0
M  V30 8553 H 797.754 1.77321 5.85122 0
M  V30 8554 H 801.928 2.52642 6.48957 0
M  V30 8555 H 799.555 3.05985 6.959 0
M  V30 8556 N 801.13 -1.57531 -0.0467866 0
M  V30 8557 C 802.06 -2.08425 -1.05268 0
M  V30 8558 C 803.041 -0.982941 -1.38825 0
M  V30 8559 O 804.226 -1.25716 -1.48018 0
M  V30 8560 C 801.356 -2.54897 -2.35891 0
M  V30 8561 C 800.31 -3.69132 -2.16623 0
M  V30 8562 C 799.636 -4.01747 -3.52851 0
M  V30 8563 C 800.936 -4.98243 -1.56689 0
M  V30 8564 H 802.63 -2.92716 -0.62908 0
M  V30 8565 H 800.176 -1.40816 -0.301156 0
M  V30 8566 H 802.129 -2.8912 -3.06574 0
M  V30 8567 H 800.853 -1.67666 -2.80278 0
M  V30 8568 H 799.512 -3.35231 -1.48377 0
M  V30 8569 H 799.16 -3.11608 -3.94853 0
M  V30 8570 H 798.86 -4.78681 -3.4079 0
M  V30 8571 H 800.384 -4.38487 -4.24925 0
M  V30 8572 H 801.798 -5.30535 -2.17268 0
M  V30 8573 H 800.195 -5.79669 -1.55255 0
M  V30 8574 H 801.265 -4.81986 -0.530827 0
M  V30 8575 N 802.608 0.318715 -1.54344 0
M  V30 8576 C 803.885 1.07461 -1.63437 0
M  V30 8577 C 804.265 2.05771 -0.47131 0
M  V30 8578 O 803.613 2.22175 0.53391 0
M  V30 8579 C 803.823 1.77224 -3.00654 0
M  V30 8580 C 805.171 2.30069 -3.56866 0
M  V30 8581 O 806.195 1.87284 -3.0299 0
M  V30 8582 O 805.054 3.08412 -4.51159 0
M  V30 8583 H 802.148 0.495627 -0.66203 0
M  V30 8584 H 804.694 0.318218 -1.6669 0
M  V30 8585 H 803.466 1.05742 -3.76742 0
M  V30 8586 H 803.089 2.59662 -3.01101 0
M  V30 8587 N 804.086 1.46499 0.581025 0
M  V30 8588 C 805.033 1.5719 1.68997 0
M  V30 8589 C 806.003 0.416114 1.60803 0
M  V30 8590 O 807.188 0.633086 1.79991 0
M  V30 8591 C 804.328 1.56973 3.07333 0
M  V30 8592 C 803.441 2.83298 3.26139 0
M  V30 8593 C 802.576 2.74574 4.54734 0
M  V30 8594 C 801.615 3.9583 4.66889 0
M  V30 8595 N 800.752 3.85482 5.86811 0
M  V30 8596 H 805.592 2.51914 1.59196 0
M  V30 8597 H 803.129 1.24975 0.775857 0
M  V30 8598 H 805.087 1.54832 3.87405 0
M  V30 8599 H 803.717 0.657803 3.16027 0
M  V30 8600 H 802.769 2.95411 2.3966 0
M  V30 8601 H 804.081 3.7316 3.30988 0
M  V30 8602 H 803.235 2.70548 5.43036 0
M  V30 8603 H 801.974 1.82354 4.52325 0
M  V30 8604 H 800.979 4.00186 3.77003 0
M  V30 8605 H 802.204 4.89148 4.71075 0
M  V30 8606 H 800.15 2.96051 5.85397 0
M  V30 8607 H 800.067 4.69002 5.92936 0
M  V30 8608 H 801.335 3.85434 6.7754 0
M  V30 8609 N 805.565 -0.825799 1.34232 0
M  V30 8610 C 806.497 -1.94401 1.21413 0
M  V30 8611 C 807.51 -1.6218 0.141902 0
M  V30 8612 O 808.699 -1.74109 0.3935 0
M  V30 8613 C 805.799 -3.28257 0.842635 0
M  V30 8614 C 804.972 -3.88521 2.00924 0
M  V30 8615 C 804.031 -5.00752 1.61661 0
M  V30 8616 O 803.057 -5.19201 2.33279 0
M  V30 8617 N 804.259 -5.78084 0.52911 0
M  V30 8618 H 807.024 -2.05931 2.17744 0
M  V30 8619 H 804.585 -1.00223 1.27149 0
M  V30 8620 H 806.577 -4.00781 0.561822 0
M  V30 8621 H 805.147 -3.12585 -0.0304029 0
M  V30 8622 H 804.367 -3.08425 2.45495 0
M  V30 8623 H 805.655 -4.25516 2.78951 0
M  V30 8624 H 805.053 -5.65661 -0.0663322 0
M  V30 8625 H 803.61 -6.51072 0.308017 0
M  V30 8626 N 807.043 -1.17915 -1.04565 0
M  V30 8627 C 808.289 -0.972863 -1.77942 0
M  V30 8628 C 808.622 0.496753 -1.87739 0
M  V30 8629 O 807.897 1.3688 -1.38181 0
M  V30 8630 C 808.18 -1.62227 -3.21488 0
M  V30 8631 C 808.033 -3.16441 -3.19664 0
M  V30 8632 C 809.352 -1.33137 -4.19479 0
M  V30 8633 H 806.471 -0.354843 -0.645953 0
M  V30 8634 H 809.113 -1.45508 -1.22178 0
M  V30 8635 H 807.263 -1.21224 -3.69103 0
M  V30 8636 H 808.935 -3.66544 -2.80077 0
M  V30 8637 H 807.178 -3.48863 -2.57832 0
M  V30 8638 H 807.849 -3.57012 -4.21006 0
M  V30 8639 H 810.325 -1.68654 -3.80388 0
M  V30 8640 H 809.201 -1.81151 -5.18146 0
M  V30 8641 H 809.462 -0.253319 -4.41374 0
M  V30 8642 N 808.521 1.23394 -0.980386 0
M  V30 8643 C 809.761 1.93543 -0.657288 0
M  V30 8644 C 810.125 1.74791 0.794477 0
M  V30 8645 O 811.326 2.39089 1.2284 0
M  V30 8646 C 809.597 3.42025 -1.03701 0
M  V30 8647 S 811.156 4.30871 -0.830379 0
M  V30 8648 H 807.974 0.669012 -0.240717 0
M  V30 8649 H 810.576 1.49478 -1.26002 0
M  V30 8650 H 809.28 3.53183 -2.09022 0
M  V30 8651 H 808.811 3.91091 -0.425559 0
M  V30 8652 H 810.826 4.95377 0.285719 0
M  V30 8653 N 809.999 0.752036 1.385 0
M  V30 8654 C 811.247 0.306895 1.99756 0
M  V30 8655 C 811.568 -1.11478 1.59992 0
M  V30 8656 O 810.838 -1.76206 0.856045 0
M  V30 8657 H 809.418 0.11048 0.738785 0
M  V30 8658 H 812.08 0.965785 1.69289 0
M  V30 8659 H 811.176 0.368797 3.09913 0
M  V30 8660 N 811.477 -1.49425 0.500989 0
M  V30 8661 C 812.705 -2.06861 -0.0403443 0
M  V30 8662 C 813.12 -1.36132 -1.30819 0
M  V30 8663 O 812.477 -0.439647 -1.77125 0
M  V30 8664 C 812.528 -3.6027 -0.297902 0
M  V30 8665 O 812.249 -4.28338 0.919686 0
M  V30 8666 C 813.75 -4.34419 -0.882876 0
M  V30 8667 H 810.97 -0.670688 0.0204619 0
M  V30 8668 H 813.514 -1.92207 0.698342 0
M  V30 8669 H 811.669 -3.74627 -0.98657 0
M  V30 8670 H 812.083 -5.2004 0.682528 0
M  V30 8671 H 813.557 -5.42631 -1.01268 0
M  V30 8672 H 814.034 -3.96898 -1.88066 0
M  V30 8673 H 814.64 -4.24669 -0.231677 0
M  V30 8674 N 812.955 -0.234822 -1.55841 0
M  V30 8675 C 814.366 0.270588 -1.84729 0
M  V30 8676 C 814.717 1.58494 -1.15646 0
M  V30 8677 O 813.842 2.12071 -0.430667 0
M  V30 8678 C 814.437 0.497733 -3.35124 0
M  V30 8679 C 812.996 0.947428 -3.64281 0
M  V30 8680 C 812.143 0.01787 -2.77294 0
M  V30 8681 H 815.094 -0.457691 -1.51957 0
M  V30 8682 H 815.115 1.34199 -3.56049 0
M  V30 8683 H 814.627 -0.459037 -3.85376 0
M  V30 8684 H 812.728 1.91709 -3.19497 0
M  V30 8685 H 812.841 0.812651 -4.72158 0
M  V30 8686 H 811.205 0.527071 -2.49187 0
M  V30 8687 H 811.988 -0.934056 -3.30349 0
M  V30 8688 N 814.433 1.57553 0.0384317 0
M  V30 8689 C 815.343 2.09333 1.0591 0
M  V30 8690 C 816.359 1.0299 1.40247 0
M  V30 8691 O 817.535 1.34669 1.49754 0
M  V30 8692 C 814.6 2.55468 2.34386 0
M  V30 8693 C 813.661 3.76254 2.06716 0
M  V30 8694 C 812.894 4.20179 3.29067 0
M  V30 8695 O 813.117 3.637 4.39407 0
M  V30 8696 O 812.051 5.12697 3.15317 0
M  V30 8697 H 815.877 2.96683 0.649087 0
M  V30 8698 H 813.462 1.47211 0.254802 0
M  V30 8699 H 815.344 2.85514 3.09935 0
M  V30 8700 H 814.019 1.71234 2.74701 0
M  V30 8701 H 812.926 3.51241 1.28766 0
M  V30 8702 H 814.259 4.61443 1.71263 0
M  V30 8703 N 815.911 -0.310526 1.54511 0
M  V30 8704 C 817.141 -1.06456 1.77061 0
M  V30 8705 C 817.549 -1.81755 0.525528 0
M  V30 8706 O 816.892 -1.76365 -0.513904 0
M  V30 8707 C 816.954 -2.09856 2.91892 0
M  V30 8708 C 816.618 -1.53838 4.30329 0
M  V30 8709 C 817.615 -0.973358 5.10707 0
M  V30 8710 C 815.3 -1.57688 4.76906 0
M  V30 8711 C 817.294 -0.454283 6.35779 0
M  V30 8712 C 814.981 -1.05393 6.01943 0
M  V30 8713 C 815.979 -0.493595 6.81214 0
M  V30 8714 O 815.667 0.0214506 8.03897 0
M  V30 8715 H 815.399 -0.321913 0.594431 0
M  V30 8716 H 817.953 -0.358289 2.02251 0
M  V30 8717 H 816.183 -2.84137 2.62304 0
M  V30 8718 H 817.872 -2.71085 3.02106 0
M  V30 8719 H 818.638 -0.936588 4.75871 0
M  V30 8720 H 814.517 -2.00242 4.1524 0
M  V30 8721 H 818.061 -0.0162657 6.97598 0
M  V30 8722 H 813.958 -1.08782 6.36268 0
M  V30 8723 H 814.726 -0.0927478 8.18447 0
M  V30 8724 N 817.389 -1.46805 -0.573248 0
M  V30 8725 C 818.638 -1.51868 -1.32736 0
M  V30 8726 C 818.951 -0.178765 -1.94781 0
M  V30 8727 O 820.157 -0.107272 -2.71288 0
M  V30 8728 C 818.613 -2.67641 -2.40616 0
M  V30 8729 C 818.221 -4.08094 -1.84832 0
M  V30 8730 C 819.965 -2.81984 -3.17309 0
M  V30 8731 C 817.872 -5.15193 -2.90397 0
M  V30 8732 H 816.802 -0.56523 -0.49903 0
M  V30 8733 H 819.453 -1.7304 -0.610695 0
M  V30 8734 H 817.835 -2.39818 -3.15124 0
M  V30 8735 H 819.009 -4.45751 -1.16803 0
M  V30 8736 H 817.324 -3.985 -1.20775 0
M  V30 8737 H 819.921 -3.59166 -3.96111 0
M  V30 8738 H 820.264 -1.89842 -3.70494 0
M  V30 8739 H 820.797 -3.095 -2.4991 0
M  V30 8740 H 817.536 -6.09158 -2.42088 0
M  V30 8741 H 817.056 -4.82071 -3.56886 0
M  V30 8742 H 818.735 -5.41448 -3.54179 0
M  V30 8743 N 818.867 0.818669 -1.34668 0
M  V30 8744 C 819.83 1.9114 -1.26483 0
M  V30 8745 C 820.83 1.598 -0.179044 0
M  V30 8746 O 822.02 1.6876 -0.431952 0
M  V30 8747 C 819.152 3.27285 -0.95381 0
M  V30 8748 H 820.345 1.9982 -2.23634 0
M  V30 8749 H 817.898 1.01314 -1.19018 0
M  V30 8750 H 818.633 3.24297 0.0143428 0
M  V30 8751 H 818.418 3.51416 -1.73924 0
M  V30 8752 H 819.908 4.07299 -0.921827 0
M  V30 8753 N 820.346 1.18468 1.03938 0
M  V30 8754 C 821.757 0.984808 1.58614 0
M  V30 8755 C 822.108 -0.465165 1.90606 0
M  V30 8756 O 821.233 -1.34274 1.69704 0
M  V30 8757 C 821.828 1.78135 2.8819 0
M  V30 8758 C 820.387 1.62579 3.39478 0
M  V30 8759 C 819.534 1.77501 2.13046 0
M  V30 8760 H 822.485 1.32993 0.865944 0
M  V30 8761 H 822.506 1.27119 3.58638 0
M  V30 8762 H 822.018 2.83661 2.64874 0
M  V30 8763 H 820.119 0.59595 3.67803 0
M  V30 8764 H 820.232 2.42463 4.13217 0
M  V30 8765 H 818.596 1.2046 2.24414 0
M  V30 8766 H 819.379 2.84464 1.92185 0
M  V30 8767 N 821.824 -1.22873 0.986916 0
M  V30 8768 C 822.734 -2.28277 0.540978 0
M  V30 8769 C 823.75 -1.69164 -0.407363 0
M  V30 8770 O 824.926 -1.99504 -0.275674 0
M  V30 8771 C 821.991 -3.46404 -0.143181 0
M  V30 8772 C 821.052 -4.20854 0.847375 0
M  V30 8773 C 820.285 -5.33341 0.19577 0
M  V30 8774 O 820.508 -5.61356 -1.0117 0
M  V30 8775 O 819.442 -5.95169 0.897623 0
M  V30 8776 H 823.268 -2.68578 1.41773 0
M  V30 8777 H 820.853 -1.28927 0.754867 0
M  V30 8778 H 822.735 -4.18096 -0.526676 0
M  V30 8779 H 821.41 -3.08041 -0.994593 0
M  V30 8780 H 820.317 -3.51459 1.28169 0
M  V30 8781 H 821.65 -4.63082 1.6678 0
M  V30 8782 N 823.302 -0.75937 -1.38099 0
M  V30 8783 C 824.548 -0.318584 -2.00282 0
M  V30 8784 C 824.881 1.09854 -1.60143 0
M  V30 8785 O 824.156 1.75344 -0.841702 0
M  V30 8786 C 824.439 -0.448047 -3.57302 0
M  V30 8787 C 824.292 -1.9067 -4.07388 0
M  V30 8788 C 825.611 0.155119 -4.39827 0
M  V30 8789 H 822.73 -0.117233 -0.727616 0
M  V30 8790 H 825.372 -0.960097 -1.63958 0
M  V30 8791 H 823.522 0.0981003 -3.88376 0
M  V30 8792 H 825.194 -2.5116 -3.86932 0
M  V30 8793 H 823.437 -2.41979 -3.6004 0
M  V30 8794 H 824.108 -1.94841 -5.1647 0
M  V30 8795 H 826.584 -0.31073 -4.14938 0
M  V30 8796 H 825.46 0.0343264 -5.48889 0
M  V30 8797 H 825.721 1.24407 -4.24235 0
M  V30 8798 N 824.78 1.49157 -0.508906 0
M  V30 8799 C 826.029 2.0167 0.0346854 0
M  V30 8800 C 826.342 1.39302 1.37311 0
M  V30 8801 O 827.548 1.83189 2.00385 0
M  V30 8802 C 826.004 3.59725 0.112261 0
M  V30 8803 C 825.612 4.31069 -1.21999 0
M  V30 8804 C 827.356 4.20155 0.605798 0
M  V30 8805 C 825.263 5.81001 -1.10415 0
M  V30 8806 H 824.193 0.753814 0.0167355 0
M  V30 8807 H 826.844 1.7162 -0.649518 0
M  V30 8808 H 825.226 3.86525 0.861087 0
M  V30 8809 H 826.4 4.15962 -1.98273 0
M  V30 8810 H 824.715 3.82418 -1.64759 0
M  V30 8811 H 827.312 5.29964 0.710102 0
M  V30 8812 H 827.655 3.84051 1.60656 0
M  V30 8813 H 828.188 3.97705 -0.0867239 0
M  V30 8814 H 824.927 6.21643 -2.07941 0
M  V30 8815 H 824.447 5.9858 -0.382428 0
M  V30 8816 H 826.126 6.42207 -0.786116 0
M  V30 8817 N 826.258 0.243083 1.55714 0
M  V30 8818 C 827.188 -0.652336 2.24203 0
M  V30 8819 C 828.169 -1.1843 1.221 0
M  V30 8820 O 829.354 -1.22435 1.50743 0
M  V30 8821 C 826.484 -1.85111 2.93856 0
M  V30 8822 C 825.438 -1.45208 4.02615 0
M  V30 8823 C 824.764 -2.73137 4.59674 0
M  V30 8824 C 826.064 -0.625988 5.18535 0
M  V30 8825 H 827.758 -0.0812504 2.9929 0
M  V30 8826 H 825.304 -0.0376388 1.43951 0
M  V30 8827 H 827.257 -2.48314 3.40468 0
M  V30 8828 H 825.981 -2.44751 2.16251 0
M  V30 8829 H 824.64 -0.843406 3.56766 0
M  V30 8830 H 824.288 -3.30967 3.78774 0
M  V30 8831 H 823.988 -2.47163 5.33089 0
M  V30 8832 H 825.512 -3.37245 5.09017 0
M  V30 8833 H 826.926 -1.16223 5.61396 0
M  V30 8834 H 825.323 -0.462465 5.98315 0
M  V30 8835 H 826.393 0.362652 4.83542 0
M  V30 8836 N 827.736 -1.57571 -0.0300757 0
M  V30 8837 C 829.152 -1.54869 -0.385703 0
M  V30 8838 C 829.352 -0.969068 -1.76667 0
M  V30 8839 O 828.408 -0.589676 -2.45518 0
M  V30 8840 C 829.721 -2.99313 -0.288482 0
M  V30 8841 C 831.269 -3.10857 -0.365638 0
M  V30 8842 C 831.744 -4.5703 -0.297878 0
M  V30 8843 N 833.235 -4.61825 -0.356703 0
M  V30 8844 C 833.97 -5.72466 -0.327146 0
M  V30 8845 N 833.466 -6.92349 -0.249941 0
M  V30 8846 N 835.259 -5.60836 -0.376801 0
M  V30 8847 H 827.41 -1.936 0.87367 0
M  V30 8848 H 829.673 -0.887924 0.332106 0
M  V30 8849 H 829.379 -3.45443 0.66047 0
M  V30 8850 H 829.253 -3.61332 -1.08253 0
M  V30 8851 H 831.64 -2.64676 -1.30502 0
M  V30 8852 H 831.721 -2.51671 0.457744 0
M  V30 8853 H 831.365 -5.03879 0.637835 0
M  V30 8854 H 831.295 -5.14127 -1.13935 0
M  V30 8855 H 833.786 -3.75571 -0.418926 0
M  V30 8856 H 834.099 -7.7245 -0.23246 0
M  V30 8857 H 832.444 -6.94664 -0.216004 0
M  V30 8858 H 835.635 -4.66073 -0.435101 0
M  V30 8859 H 835.808 -6.47052 -0.350298 0
M  V30 8860 N 829.214 0.302327 -1.54673 0
M  V30 8861 C 830.146 1.39443 -1.81902 0
M  V30 8862 C 831.159 1.46891 -0.701914 0
M  V30 8863 O 832.348 1.49233 -0.979369 0
M  V30 8864 C 829.448 2.77824 -1.9408 0
M  V30 8865 C 828.621 2.93324 -3.24468 0
M  V30 8866 C 827.68 4.12196 -3.27079 0
M  V30 8867 O 826.706 4.04344 -4.00617 0
M  V30 8868 N 827.908 5.22768 -2.52376 0
M  V30 8869 H 830.673 1.1644 -2.76155 0
M  V30 8870 H 828.234 0.492392 -1.54231 0
M  V30 8871 H 830.226 3.5559 -1.9323 0
M  V30 8872 H 828.796 2.9378 -1.06828 0
M  V30 8873 H 828.016 2.02682 -3.38103 0
M  V30 8874 H 829.304 3.0059 -4.10516 0
M  V30 8875 H 828.702 5.32027 -1.92259 0
M  V30 8876 H 827.259 5.98874 -2.57281 0
M  V30 8877 N 830.692 1.47107 0.565454 0
M  V30 8878 C 831.94 1.53005 1.32038 0
M  V30 8879 C 832.261 0.190453 1.94068 0
M  V30 8880 O 831.531 -0.784783 1.79494 0
M  V30 8881 H 830.111 0.563578 0.490294 0
M  V30 8882 H 832.773 1.83351 0.660928 0
M  V30 8883 H 831.869 2.29215 2.11818 0
M  V30 8884 N 832.17 -0.811516 1.35101 0
M  V30 8885 C 833.4 -1.59749 1.31011 0
M  V30 8886 C 833.808 -1.88847 -0.115566 0
M  V30 8887 O 833.151 -1.48854 -1.07649 0
M  V30 8888 C 833.213 -2.95714 2.04435 0
M  V30 8889 C 832.877 -2.89456 3.53645 0
M  V30 8890 C 833.874 -2.63237 4.48333 0
M  V30 8891 C 831.559 -3.08728 3.96222 0
M  V30 8892 C 833.553 -2.56361 5.83573 0
M  V30 8893 C 831.24 -3.01475 5.3156 0
M  V30 8894 C 832.238 -2.75326 6.25048 0
M  V30 8895 O 831.926 -2.68026 7.57903 0
M  V30 8896 H 831.658 -0.502889 0.45175 0
M  V30 8897 H 834.212 -1.01687 1.78462 0
M  V30 8898 H 832.442 -3.55739 1.51613 0
M  V30 8899 H 834.131 -3.56816 1.93487 0
M  V30 8900 H 834.897 -2.48072 4.16756 0
M  V30 8901 H 830.776 -3.28094 3.23845 0
M  V30 8902 H 834.32 -2.35871 6.56514 0
M  V30 8903 H 830.217 -3.16197 5.62752 0
M  V30 8904 H 830.985 -2.8367 7.67772 0
M  V30 8905 N 833.648 -1.19017 -1.03309 0
M  V30 8906 C 834.896 -0.988258 -1.76289 0
M  V30 8907 C 835.217 0.482557 -1.88935 0
M  V30 8908 O 834.487 1.34969 -1.41987 0
M  V30 8909 H 833.067 -0.36267 -0.653054 0
M  V30 8910 H 835.729 -1.49836 -1.2464 0
M  V30 8911 H 834.825 -1.43273 -2.77271 0
M  V30 8912 N 835.127 1.22348 -0.993418 0
M  V30 8913 C 836.074 2.24294 -0.544118 0
M  V30 8914 C 837.044 1.60602 0.42381 0
M  V30 8915 O 838.229 1.87952 0.328453 0
M  V30 8916 C 835.369 3.44837 0.134578 0
M  V30 8917 C 834.482 4.23043 -0.875151 0
M  V30 8918 C 833.617 5.30928 -0.169919 0
M  V30 8919 C 832.656 6.00853 -1.16798 0
M  V30 8920 N 831.793 7.00381 -0.491021 0
M  V30 8921 H 836.633 2.6209 -1.4182 0
M  V30 8922 H 834.17 1.2881 -0.710384 0
M  V30 8923 H 836.128 4.13625 0.544998 0
M  V30 8924 H 834.758 3.07804 0.972446 0
M  V30 8925 H 833.81 3.53546 -1.40389 0
M  V30 8926 H 835.122 4.71237 -1.63516 0
M  V30 8927 H 834.276 6.05972 0.297205 0
M  V30 8928 H 833.015 4.8371 0.622586 0
M  V30 8929 H 832.02 5.24591 -1.64573 0
M  V30 8930 H 833.245 6.50159 -1.96137 0
M  V30 8931 H 831.191 6.55393 0.282037 0
M  V30 8932 H 831.108 7.46584 -1.18947 0
M  V30 8933 H 832.376 7.79486 -0.0467169 0
M  V30 8934 N 836.605 0.766683 1.37694 0
M  V30 8935 C 838.016 0.394761 1.82479 0
M  V30 8936 C 838.367 -1.07842 1.63904 0
M  V30 8937 O 837.492 -1.83479 1.14737 0
M  V30 8938 C 838.087 0.70974 3.31283 0
M  V30 8939 C 836.646 0.390936 3.74364 0
M  V30 8940 C 835.793 0.956192 2.60293 0
M  V30 8941 H 838.744 0.961756 1.26238 0
M  V30 8942 H 838.765 -0.00742144 3.80499 0
M  V30 8943 H 838.277 1.782 3.4477 0
M  V30 8944 H 836.378 -0.674213 3.66449 0
M  V30 8945 H 836.491 0.895645 4.70654 0
M  V30 8946 H 834.855 0.380744 2.51838 0
M  V30 8947 H 835.638 2.03375 2.76575 0
M  V30 8948 N 838.083 -1.48885 0.516809 0
M  V30 8949 C 839.329 -2.02788 -0.0220928 0
M  V30 8950 C 839.662 -1.39433 -1.35175 0
M  V30 8951 O 838.937 -0.535459 -1.86984 0
M  V30 8952 C 839.22 -3.59753 -0.158012 0
M  V30 8953 C 839.073 -4.33611 1.19588 0
M  V30 8954 C 840.392 -4.30984 -0.891133 0
M  V30 8955 H 837.511 -0.736971 -0.00655488 0
M  V30 8956 H 840.153 -1.77746 0.671287 0
M  V30 8957 H 838.303 -3.8122 -0.748568 0
M  V30 8958 H 839.975 -4.23598 1.82653 0
M  V30 8959 H 838.218 -3.95547 1.78116 0
M  V30 8960 H 838.889 -5.41846 1.05391 0
M  V30 8961 H 841.365 -4.14267 -0.39012 0
M  V30 8962 H 840.241 -5.40527 -0.955107 0
M  V30 8963 H 840.502 -3.97336 -1.93847 0
M  V30 8964 N 839.561 -0.251338 -1.55583 0
M  V30 8965 C 840.838 0.422729 -1.90977 0
M  V30 8966 C 841.218 1.75534 -1.17265 0
M  V30 8967 O 840.566 2.26632 -0.291588 0
M  V30 8968 C 840.776 0.586448 -3.44037 0
M  V30 8969 C 842.124 0.880294 -4.15375 0
M  V30 8970 O 843.148 0.672148 -3.49801 0
M  V30 8971 O 842.007 1.27694 -5.31372 0
M  V30 8972 H 839.101 0.227622 -0.795058 0
M  V30 8973 H 841.647 -0.295733 -1.67103 0
M  V30 8974 H 840.419 -0.352327 -3.89711 0
M  V30 8975 H 840.042 1.35528 -3.73789 0
M  V30 8976 N 841.039 1.57585 0.0217189 0
M  V30 8977 C 842.285 1.90733 0.706582 0
M  V30 8978 C 842.64 0.850732 1.7257 0
M  V30 8979 O 841.933 -0.139715 1.9109 0
M  V30 8980 C 842.127 3.28377 1.41079 0
M  V30 8981 C 841.956 4.47327 0.461395 0
M  V30 8982 C 840.726 5.05237 0.0797404 0
M  V30 8983 C 842.924 5.13626 -0.263302 0
M  V30 8984 N 840.906 6.07702 -0.870139 0
M  V30 8985 C 842.277 6.10722 -1.06859 0
M  V30 8986 C 844.332 4.96809 -0.329461 0
M  V30 8987 C 843.035 6.92813 -1.93397 0
M  V30 8988 C 845.061 5.79468 -1.18199 0
M  V30 8989 C 844.423 6.7614 -1.97519 0
M  V30 8990 H 840.522 0.74666 0.232427 0
M  V30 8991 H 843.106 1.94671 -0.0335228 0
M  V30 8992 H 841.277 3.25354 2.12131 0
M  V30 8993 H 843.009 3.49018 2.04862 0
M  V30 8994 H 839.764 4.71519 0.443498 0
M  V30 8995 H 840.188 6.6361 -1.33981 0
M  V30 8996 H 844.83 4.2194 0.269485 0
M  V30 8997 H 842.548 7.67022 -2.54369 0
M  V30 8998 H 846.134 5.68502 -1.23681 0
M  V30 8999 H 845.014 7.38989 -2.62421 0
M  V30 9000 N 842.517 -0.29412 1.54831 0
M  V30 9001 C 843.763 -1.02602 1.75626 0
M  V30 9002 C 844.118 -1.84689 0.539232 0
M  V30 9003 O 843.411 -1.85788 -0.468322 0
M  V30 9004 C 843.605 -1.95782 2.99006 0
M  V30 9005 C 843.434 -1.22861 4.32591 0
M  V30 9006 C 842.204 -0.95294 4.96233 0
M  V30 9007 C 844.402 -0.629592 5.10432 0
M  V30 9008 N 842.384 -0.194728 6.13591 0
M  V30 9009 C 843.755 -0.00449586 6.2 0
M  V30 9010 C 845.81 -0.535327 4.95014 0
M  V30 9011 C 844.513 0.705754 7.15829 0
M  V30 9012 C 846.539 0.161284 5.9118 0
M  V30 9013 C 845.901 0.775203 7.00121 0
M  V30 9014 H 842 -0.358143 0.695167 0
M  V30 9015 H 844.584 -0.303896 1.92314 0
M  V30 9016 H 842.755 -2.65238 2.83731 0
M  V30 9017 H 844.487 -2.62175 3.08296 0
M  V30 9018 H 841.242 -1.25285 4.56728 0
M  V30 9019 H 841.666 0.171093 6.76784 0
M  V30 9020 H 846.308 -0.995662 4.10909 0
M  V30 9021 H 844.026 1.17784 7.9947 0
M  V30 9022 H 847.612 0.234256 5.81328 0
M  V30 9023 H 846.492 1.30566 7.73254 0
M  V30 9024 N 843.995 -1.47404 -0.557645 0
M  V30 9025 C 844.958 -1.59411 -1.64684 0
M  V30 9026 C 845.958 -0.469244 -1.53801 0
M  V30 9027 O 847.148 -0.734298 -1.57967 0
M  V30 9028 C 844.28 -1.5382 -3.04224 0
M  V30 9029 H 845.473 -2.56504 -1.55389 0
M  V30 9030 H 843.026 -1.35588 -0.777531 0
M  V30 9031 H 843.761 -0.581 -3.19053 0
M  V30 9032 H 843.546 -2.35456 -3.13533 0
M  V30 9033 H 845.036 -1.65358 -3.83466 0
M  V30 9034 N 845.473 0.80434 -1.35529 0
M  V30 9035 C 846.406 1.92222 -1.22987 0
M  V30 9036 C 847.384 1.62177 -0.117269 0
M  V30 9037 O 848.568 1.86321 -0.285761 0
M  V30 9038 C 845.695 3.26682 -0.894223 0
M  V30 9039 C 844.741 3.75674 -2.01919 0
M  V30 9040 S 845.574 3.93209 -3.6352 0
M  V30 9041 C 846.73 5.30568 -3.32037 0
M  V30 9042 H 846.963 2.02567 -2.1761 0
M  V30 9043 H 844.496 0.961961 -1.20771 0
M  V30 9044 H 846.454 4.04359 -0.707371 0
M  V30 9045 H 845.115 3.14082 0.0339729 0
M  V30 9046 H 844.308 4.73065 -1.73854 0
M  V30 9047 H 843.91 3.05001 -2.16449 0
M  V30 9048 H 846.202 6.14637 -2.85004 0
M  V30 9049 H 847.145 5.63628 -4.28636 0
M  V30 9050 H 847.553 4.96961 -2.6775 0
M  V30 9051 N 846.951 1.19563 1.02676 0
M  V30 9052 C 848.199 0.997593 1.75763 0
M  V30 9053 C 848.52 -0.47253 1.89188 0
M  V30 9054 O 847.79 -1.34214 1.42701 0
M  V30 9055 H 846.37 0.366128 0.651122 0
M  V30 9056 H 849.032 1.50495 1.23844 0
M  V30 9057 H 848.128 1.44741 2.76508 0
M  V30 9058 N 848.429 -1.21819 0.999893 0
M  V30 9059 C 849.678 -1.90066 0.675108 0
M  V30 9060 C 849.991 -1.78624 -0.79705 0
M  V30 9061 O 851.197 -2.41851 -1.23371 0
M  V30 9062 C 849.653 -3.40795 1.15702 0
M  V30 9063 C 849.261 -3.60859 2.6549 0
M  V30 9064 C 851.005 -4.147 0.906889 0
M  V30 9065 C 848.912 -5.05324 3.07248 0
M  V30 9066 H 847.842 -0.711763 0.248815 0
M  V30 9067 H 850.493 -1.3792 1.21038 0
M  V30 9068 H 848.875 -3.92164 0.549832 0
M  V30 9069 H 850.049 -3.19951 3.31614 0
M  V30 9070 H 848.364 -3.00298 2.88461 0
M  V30 9071 H 850.961 -5.21187 1.1945 0
M  V30 9072 H 851.304 -4.16004 -0.156923 0
M  V30 9073 H 851.837 -3.69379 1.47662 0
M  V30 9074 H 848.576 -5.09164 4.12834 0
M  V30 9075 H 848.096 -5.47108 2.45832 0
M  V30 9076 H 849.775 -5.73797 2.98941 0
M  V30 9077 N 849.908 -0.773975 -1.37286 0
M  V30 9078 C 851.157 -0.335977 -1.98882 0
M  V30 9079 C 851.47 1.09416 -1.62134 0
M  V30 9080 O 852.676 1.63366 -2.1685 0
M  V30 9081 C 851.132 -0.549756 -3.55676 0
M  V30 9082 C 850.74 -1.9903 -4.01361 0
M  V30 9083 C 852.484 -0.175493 -4.24137 0
M  V30 9084 C 850.391 -2.15156 -5.50874 0
M  V30 9085 H 849.321 -0.121877 -0.744085 0
M  V30 9086 H 851.972 -0.953419 -1.56787 0
M  V30 9087 H 850.354 0.137175 -3.95762 0
M  V30 9088 H 851.528 -2.71237 -3.72515 0
M  V30 9089 H 849.843 -2.32137 -3.4569 0
M  V30 9090 H 852.44 -0.274463 -5.33995 0
M  V30 9091 H 852.783 0.874524 -4.07011 0
M  V30 9092 H 853.316 -0.815058 -3.89361 0
M  V30 9093 H 850.055 -3.18485 -5.72929 0
M  V30 9094 H 849.575 -1.47435 -5.81397 0
M  V30 9095 H 851.254 -1.95124 -6.16876 0
M  V30 9096 N 851.386 1.48609 -0.524698 0
M  V30 9097 C 852.316 2.32366 0.229837 0
M  V30 9098 C 853.297 1.41759 0.940129 0
M  V30 9099 O 854.482 1.7065 0.926936 0
M  V30 9100 C 851.612 3.22835 1.28043 0
M  V30 9101 C 850.566 4.22424 0.688603 0
M  V30 9102 C 849.892 5.0199 1.84146 0
M  V30 9103 C 851.192 5.21217 -0.336176 0
M  V30 9104 H 852.886 2.95698 -0.469339 0
M  V30 9105 H 850.432 1.42197 -0.227156 0
M  V30 9106 H 852.385 3.80253 1.8162 0
M  V30 9107 H 851.109 2.57492 2.00912 0
M  V30 9108 H 849.768 3.66185 0.174402 0
M  V30 9109 H 849.416 4.33076 2.5584 0
M  V30 9110 H 849.116 5.69392 1.45142 0
M  V30 9111 H 850.64 5.62259 2.38111 0
M  V30 9112 H 852.054 5.7319 0.112307 0
M  V30 9113 H 850.451 5.96642 -0.643324 0
M  V30 9114 H 851.521 4.68676 -1.24381 0
M  V30 9115 N 852.864 0.259585 1.55447 0
M  V30 9116 C 854.094 -0.364863 2.03353 0
M  V30 9117 C 854.502 -1.5116 1.13786 0
M  V30 9118 O 853.845 -1.83109 0.147283 0
M  V30 9119 C 853.907 -0.922587 3.4746 0
M  V30 9120 C 853.571 0.0935207 4.56904 0
M  V30 9121 C 854.568 0.907571 5.11917 0
M  V30 9122 C 852.253 0.223276 5.01804 0
M  V30 9123 C 854.247 1.83771 6.10333 0
M  V30 9124 C 851.934 1.15691 6.00049 0
M  V30 9125 C 852.932 1.96264 6.54194 0
M  V30 9126 O 852.62 2.88052 7.50521 0
M  V30 9127 H 852.352 -0.0893313 0.670072 0
M  V30 9128 H 854.906 0.384821 2.01763 0
M  V30 9129 H 853.136 -1.72206 3.4624 0
M  V30 9130 H 854.825 -1.45846 3.78792 0
M  V30 9131 H 855.591 0.817979 4.78052 0
M  V30 9132 H 851.47 -0.393834 4.59315 0
M  V30 9133 H 855.014 2.46703 6.52521 0
M  V30 9134 H 850.911 1.24738 6.33333 0
M  V30 9135 H 851.679 2.82557 7.68182 0
M  V30 9136 N 854.342 -1.57594 -0.0133615 0
M  V30 9137 C 855.252 -2.10991 -1.02566 0
M  V30 9138 C 856.268 -1.05208 -1.3859 0
M  V30 9139 O 857.444 -1.37034 -1.47593 0
M  V30 9140 C 854.509 -2.59165 -2.30292 0
M  V30 9141 C 853.57 -3.79495 -2.00704 0
M  V30 9142 C 852.803 -4.25361 -3.22341 0
M  V30 9143 O 853.026 -3.70645 -4.33565 0
M  V30 9144 O 851.96 -5.17649 -3.07121 0
M  V30 9145 H 855.786 -2.97678 -0.601806 0
M  V30 9146 H 853.371 -1.47598 -0.23135 0
M  V30 9147 H 855.253 -2.90409 -3.05354 0
M  V30 9148 H 853.928 -1.75582 -2.71942 0
M  V30 9149 H 852.835 -3.53245 -1.23161 0
M  V30 9150 H 854.168 -4.64109 -1.639 0
M  V30 9151 N 855.82 0.285905 -1.54985 0
M  V30 9152 C 857.067 1.0192 -1.74982 0
M  V30 9153 C 857.395 1.86743 -0.543816 0
M  V30 9154 O 856.65 1.89874 0.473972 0
M  V30 9155 C 856.949 1.94193 -3.0004 0
M  V30 9156 C 856.615 1.25225 -4.33162 0
M  V30 9157 C 855.277 1.06149 -4.69346 0
M  V30 9158 C 857.629 0.760427 -5.15623 0
M  V30 9159 C 854.957 0.365991 -5.85557 0
M  V30 9160 C 857.309 0.0785787 -6.32551 0
M  V30 9161 C 855.973 -0.124002 -6.67385 0
M  V30 9162 H 855.243 0.372951 -0.640304 0
M  V30 9163 H 857.89 0.292652 -1.89251 0
M  V30 9164 H 856.195 2.73426 -2.80616 0
M  V30 9165 H 857.892 2.51029 -3.12707 0
M  V30 9166 H 854.482 1.41081 -4.04715 0
M  V30 9167 H 858.666 0.895466 -4.88155 0
M  V30 9168 H 853.922 0.198193 -6.11079 0
M  V30 9169 H 858.096 -0.310339 -6.95708 0
M  V30 9170 H 855.723 -0.664918 -7.57287 0
M  V30 9171 N 857.298 1.47698 0.54982 0
M  V30 9172 C 858.228 1.63622 1.66583 0
M  V30 9173 C 859.209 0.485477 1.63025 0
M  V30 9174 O 860.394 0.715692 1.80531 0
M  V30 9175 C 857.524 1.65721 3.05211 0
M  V30 9176 C 856.478 2.80097 3.2362 0
M  V30 9177 C 855.804 2.67272 4.63109 0
M  V30 9178 C 857.104 4.21612 3.08286 0
M  V30 9179 H 858.798 2.57049 1.53512 0
M  V30 9180 H 856.344 1.23705 0.737099 0
M  V30 9181 H 858.297 1.75451 3.83138 0
M  V30 9182 H 857.021 0.688593 3.19258 0
M  V30 9183 H 855.68 2.69889 2.48104 0
M  V30 9184 H 855.328 1.68422 4.73965 0
M  V30 9185 H 855.028 3.44008 4.76374 0
M  V30 9186 H 856.552 2.78942 5.43161 0
M  V30 9187 H 857.966 4.32758 3.76024 0
M  V30 9188 H 856.363 4.99193 3.33057 0
M  V30 9189 H 857.433 4.39462 2.04942 0
M  V30 9190 N 858.776 -0.797141 1.35954 0
M  V30 9191 C 860.022 -1.55698 1.29946 0
M  V30 9192 C 860.355 -1.93808 -0.123259 0
M  V30 9193 O 859.63 -1.62102 -1.07486 0
M  V30 9194 C 859.913 -2.83926 2.2149 0
M  V30 9195 C 859.766 -2.52232 3.72423 0
M  V30 9196 C 861.085 -3.85698 2.11955 0
M  V30 9197 H 858.204 -0.56488 0.47337 0
M  V30 9198 H 860.846 -0.916421 1.66438 0
M  V30 9199 H 858.996 -3.38588 1.905 0
M  V30 9200 H 860.668 -2.0368 4.13899 0
M  V30 9201 H 858.911 -1.85286 3.92239 0
M  V30 9202 H 859.582 -3.43782 4.31877 0
M  V30 9203 H 862.058 -3.40462 2.39218 0
M  V30 9204 H 860.934 -4.73182 2.78191 0
M  V30 9205 H 861.195 -4.28083 1.10442 0
M  V30 9206 N 860.254 -1.20106 -1.0204 0
M  V30 9207 C 861.502 -1.0069 -1.75231 0
M  V30 9208 C 861.823 0.462491 -1.89436 0
M  V30 9209 O 861.093 1.33455 -1.4341 0
M  V30 9210 H 859.673 -0.369576 -0.649171 0
M  V30 9211 H 862.335 -1.51149 -1.23044 0
M  V30 9212 H 861.431 -1.46205 -2.75736 0
M  V30 9213 N 861.732 1.21287 -1.00634 0
M  V30 9214 C 862.972 1.92106 -0.698194 0
M  V30 9215 C 863.336 1.76437 0.757222 0
M  V30 9216 O 864.537 2.41641 1.17741 0
M  V30 9217 C 862.808 3.39748 -1.10932 0
M  V30 9218 S 864.367 4.29013 -0.921586 0
M  V30 9219 H 861.185 0.663755 -0.254853 0
M  V30 9220 H 863.787 1.46772 -1.29145 0
M  V30 9221 H 862.491 3.48669 -2.16467 0
M  V30 9222 H 862.022 3.90101 -0.508419 0
M  V30 9223 H 864.037 4.95871 0.180578 0
M  V30 9224 N 863.21 0.781244 1.36873 0
M  V30 9225 C 864.456 0.350407 1.9975 0
M  V30 9226 C 864.789 -1.07293 1.6187 0
M  V30 9227 O 864.064 -1.73983 0.869491 0
M  V30 9228 C 864.347 0.504834 3.56544 0
M  V30 9229 C 864.2 1.97127 4.04303 0
M  V30 9230 C 865.519 -0.0851272 4.40018 0
M  V30 9231 H 862.638 0.128794 0.725659 0
M  V30 9232 H 865.28 0.98606 1.6241 0
M  V30 9233 H 863.43 -0.0363006 3.88483 0
M  V30 9234 H 865.102 2.57284 3.82887 0
M  V30 9235 H 863.345 2.47676 3.56145 0
M  V30 9236 H 864.016 2.03033 5.13305 0
M  V30 9237 H 866.492 0.376704 4.14391 0
M  V30 9238 H 865.368 0.0530015 5.48874 0
M  V30 9239 H 865.629 -1.17642 4.2616 0
M  V30 9240 N 864.689 -1.48329 0.532571 0
M  V30 9241 C 866.1 -1.86469 0.0927749 0
M  V30 9242 C 866.451 -1.44186 -1.3306 0
M  V30 9243 O 865.576 -0.833741 -1.99694 0
M  V30 9244 C 866.171 -3.38414 0.161588 0
M  V30 9245 C 864.73 -3.75739 -0.223028 0
M  V30 9246 C 863.877 -2.72377 0.520199 0
M  V30 9247 H 866.828 -1.40197 0.743678 0
M  V30 9248 H 866.849 -3.75314 -0.626059 0
M  V30 9249 H 866.361 -3.69159 1.19765 0
M  V30 9250 H 864.462 -3.50608 -1.26113 0
M  V30 9251 H 864.575 -4.78954 0.118385 0
M  V30 9252 H 862.939 -2.54678 -0.0338425 0
M  V30 9253 H 863.722 -3.05965 1.55694 0
M  V30 9254 N 866.167 -0.267825 -1.55308 0
M  V30 9255 C 867.414 0.351036 -1.99434 0
M  V30 9256 C 867.742 1.56406 -1.15618 0
M  V30 9257 O 866.997 1.94548 -0.212045 0
M  V30 9258 C 867.296 0.784247 -3.48689 0
M  V30 9259 C 866.962 -0.323328 -4.49739 0
M  V30 9260 C 865.624 -0.627467 -4.77091 0
M  V30 9261 C 867.976 -1.07002 -5.10098 0
M  V30 9262 C 865.304 -1.682 -5.62073 0
M  V30 9263 C 867.656 -2.11422 -5.96224 0
M  V30 9264 C 866.32 -2.42479 -6.21901 0
M  V30 9265 H 865.59 0.128453 -0.729781 0
M  V30 9266 H 868.237 -0.380018 -1.87692 0
M  V30 9267 H 866.542 1.59485 -3.57871 0
M  V30 9268 H 868.239 1.2737 -3.80234 0
M  V30 9269 H 864.829 -0.0761528 -4.28532 0
M  V30 9270 H 869.013 -0.848302 -4.88996 0
M  V30 9271 H 864.269 -1.92772 -5.80215 0
M  V30 9272 H 868.443 -2.69759 -6.4203 0
M  V30 9273 H 866.07 -3.24328 -6.87543 0
M  V30 9274 N 867.645 1.57599 0.00500368 0
M  V30 9275 C 868.892 1.90349 0.690895 0
M  V30 9276 C 869.22 0.868045 1.74055 0
M  V30 9277 O 868.475 -0.127855 1.95282 0
M  V30 9278 C 868.774 3.29855 1.37588 0
M  V30 9279 C 868.44 4.48548 0.459906 0
M  V30 9280 C 867.102 4.80752 0.207693 0
M  V30 9281 C 869.454 5.20919 -0.171054 0
M  V30 9282 C 866.782 5.82701 -0.683855 0
M  V30 9283 C 869.134 6.23818 -1.05045 0
M  V30 9284 C 867.798 6.54481 -1.31189 0
M  V30 9285 H 867.068 0.696538 0.252816 0
M  V30 9286 H 869.715 1.91436 -0.0494495 0
M  V30 9287 H 868.02 3.24869 2.19015 0
M  V30 9288 H 869.717 3.52452 1.91255 0
M  V30 9289 H 866.307 4.23384 0.666648 0
M  V30 9290 H 870.491 4.96299 0.0107942 0
M  V30 9291 H 865.747 6.04822 -0.894467 0
M  V30 9292 H 869.921 6.79029 -1.54574 0
M  V30 9293 H 867.548 7.33299 -2.00442 0
M  V30 9294 N 869.123 -0.277682 1.55134 0
M  V30 9295 C 870.371 -1.00791 1.75173 0
M  V30 9296 C 870.692 -1.86987 0.553266 0
M  V30 9297 O 869.962 -1.91079 -0.43195 0
M  V30 9298 H 868.542 -0.375129 0.645978 0
M  V30 9299 H 871.204 -0.303041 1.9253 0
M  V30 9300 H 870.3 -1.64756 2.6507 0
M  V30 9301 N 870.601 -1.47988 -0.541979 0
M  V30 9302 C 871.878 -1.45878 -1.30303 0
M  V30 9303 C 872.258 -0.163931 -2.10463 0
M  V30 9304 O 871.606 0.854479 -2.11922 0
M  V30 9305 C 871.816 -2.71359 -2.19466 0
M  V30 9306 C 873.164 -3.19199 -2.79995 0
M  V30 9307 O 874.188 -2.72193 -2.2976 0
M  V30 9308 O 873.047 -4.00961 -3.71339 0
M  V30 9309 H 870.141 -0.582043 -0.587498 0
M  V30 9310 H 872.687 -1.60207 -0.559623 0
M  V30 9311 H 871.459 -3.57122 -1.59936 0
M  V30 9312 H 871.082 -2.59692 -3.01075 0
M  V30 9313 N 872.079 0.78992 -1.36375 0
M  V30 9314 C 873.307 1.57873 -1.3373 0
M  V30 9315 C 873.722 1.88624 0.0815544 0
M  V30 9316 O 873.079 1.50085 1.03831 0
M  V30 9317 C 873.13 2.90003 -2.15825 0
M  V30 9318 O 872.851 2.60578 -3.5218 0
M  V30 9319 C 874.352 3.84309 -2.20955 0
M  V30 9320 H 871.572 0.489685 -0.458748 0
M  V30 9321 H 874.116 0.980436 -1.79465 0
M  V30 9322 H 872.271 3.46303 -1.73646 0
M  V30 9323 H 872.685 3.4506 -3.95011 0
M  V30 9324 H 874.159 4.74081 -2.82756 0
M  V30 9325 H 874.636 4.22121 -1.21287 0
M  V30 9326 H 875.242 3.33942 -2.63368 0
M  V30 9327 N 873.557 1.20646 1.01402 0
M  V30 9328 C 874.968 1.01823 1.56489 0
M  V30 9329 C 875.319 -0.42463 1.9155 0
M  V30 9330 O 874.444 -1.30644 1.72514 0
M  V30 9331 C 875.039 1.84208 2.84347 0
M  V30 9332 C 873.598 1.69743 3.35953 0
M  V30 9333 C 872.745 1.8198 2.09233 0
M  V30 9334 H 875.696 1.348 0.837539 0
M  V30 9335 H 875.717 1.34698 3.55861 0
M  V30 9336 H 875.229 2.89215 2.58798 0
M  V30 9337 H 873.33 0.673833 3.66456 0
M  V30 9338 H 873.443 2.51173 4.07981 0
M  V30 9339 H 871.807 1.25193 2.21808 0
M  V30 9340 H 872.59 2.88477 1.86107 0
M  V30 9341 N 875.035 -1.20752 1.01276 0
M  V30 9342 C 875.945 -2.27079 0.589277 0
M  V30 9343 C 876.961 -1.6999 -0.371389 0
M  V30 9344 O 878.137 -2.00044 -0.233294 0
M  V30 9345 C 875.202 -3.4663 -0.0696715 0
M  V30 9346 C 874.263 -4.18962 0.936454 0
M  V30 9347 C 873.496 -5.32806 0.308856 0
M  V30 9348 O 873.719 -5.63376 -0.8924 0
M  V30 9349 O 872.653 -5.93131 1.02367 0
M  V30 9350 H 876.479 -2.6551 1.47438 0
M  V30 9351 H 874.064 -1.27297 0.782045 0
M  V30 9352 H 875.946 -4.19119 -0.437873 0
M  V30 9353 H 874.621 -3.10082 -0.929029 0
M  V30 9354 H 873.528 -3.48661 1.35595 0
M  V30 9355 H 874.861 -4.59441 1.76565 0
M  V30 9356 N 876.513 -0.788492 -1.36457 0
M  V30 9357 C 877.423 -0.187385 -2.3385 0
M  V30 9358 C 878.439 0.659984 -1.60998 0
M  V30 9359 O 879.615 0.575986 -1.92988 0
M  V30 9360 C 876.68 0.668525 -3.40194 0
M  V30 9361 C 875.741 -0.197234 -4.28847 0
M  V30 9362 C 874.974 0.61792 -5.30111 0
M  V30 9363 O 875.197 1.85396 -5.3943 0
M  V30 9364 O 874.131 0.0183016 -6.01897 0
M  V30 9365 H 877.957 -0.992617 -2.87021 0
M  V30 9366 H 875.542 -0.549934 -1.3891 0
M  V30 9367 H 877.424 1.15663 -4.05216 0
M  V30 9368 H 876.099 1.45166 -2.89324 0
M  V30 9369 H 875.006 -0.73207 -3.66867 0
M  V30 9370 H 876.339 -0.943863 -4.83065 0
M  V30 9371 N 877.991 1.48044 -0.54043 0
M  V30 9372 C 878.921 2.32597 0.205178 0
M  V30 9373 C 879.902 1.42748 0.925041 0
M  V30 9374 O 881.087 1.71624 0.908784 0
M  V30 9375 C 878.217 3.24175 1.24612 0
M  V30 9376 C 877.171 4.23131 0.64376 0
M  V30 9377 C 876.497 5.03915 1.78812 0
M  V30 9378 C 877.797 5.20831 -0.39144 0
M  V30 9379 H 879.491 2.95184 -0.500676 0
M  V30 9380 H 877.037 1.41948 -0.242225 0
M  V30 9381 H 878.99 3.82158 1.77576 0
M  V30 9382 H 877.714 2.59608 1.98169 0
M  V30 9383 H 876.373 3.66349 0.135554 0
M  V30 9384 H 876.021 4.35765 2.51232 0
M  V30 9385 H 875.721 5.709 1.39094 0
M  V30 9386 H 877.245 5.64753 2.32134 0
M  V30 9387 H 878.659 5.73277 0.0515064 0
M  V30 9388 H 877.056 5.95926 -0.706569 0
M  V30 9389 H 878.126 4.6733 -1.29345 0
M  V30 9390 N 879.47 0.276058 1.55163 0
M  V30 9391 C 880.717 -0.340455 1.99618 0
M  V30 9392 C 881.045 -1.5579 1.16446 0
M  V30 9393 O 880.3 -1.94433 0.222359 0
M  V30 9394 C 880.599 -0.765744 3.491 0
M  V30 9395 C 880.265 0.347174 4.49561 0
M  V30 9396 C 878.927 0.65276 4.76752 0
M  V30 9397 C 881.279 1.09705 5.09523 0
M  V30 9398 C 878.607 1.71179 5.61173 0
M  V30 9399 C 880.959 2.14581 5.95095 0
M  V30 9400 C 879.623 2.45773 6.20606 0
M  V30 9401 H 878.893 -0.124581 0.730452 0
M  V30 9402 H 881.54 0.389966 1.87487 0
M  V30 9403 H 879.845 -1.57585 3.58712 0
M  V30 9404 H 881.542 -1.25352 3.80904 0
M  V30 9405 H 878.132 0.0988779 4.28486 0
M  V30 9406 H 882.316 0.874223 4.8854 0
M  V30 9407 H 877.572 1.95846 5.79184 0
M  V30 9408 H 881.746 2.7316 6.40591 0
M  V30 9409 H 879.373 3.27969 6.85813 0
M  V30 9410 N 880.948 -1.576 0.00335426 0
M  V30 9411 C 882.196 -1.90336 -0.679446 0
M  V30 9412 C 882.517 -0.877777 -1.74127 0
M  V30 9413 O 881.787 0.0843585 -1.95718 0
M  V30 9414 H 880.367 -0.702509 -0.253948 0
M  V30 9415 H 883.029 -1.94848 0.0450731 0
M  V30 9416 H 882.125 -2.90197 -1.14857 0
M  V30 9417 N 882.426 0.269451 -1.5528 0
M  V30 9418 C 883.358 1.35553 -1.84819 0
M  V30 9419 C 884.371 1.45369 -0.732914 0
M  V30 9420 O 885.56 1.47122 -1.0108 0
M  V30 9421 C 882.66 2.73645 -1.9993 0
M  V30 9422 C 881.833 2.86376 -3.30617 0
M  V30 9423 C 880.892 4.05165 -3.35749 0
M  V30 9424 O 879.918 3.95756 -4.09104 0
M  V30 9425 N 881.12 5.17297 -2.63408 0
M  V30 9426 H 883.885 1.10557 -2.78563 0
M  V30 9427 H 881.446 0.459566 -1.5524 0
M  V30 9428 H 883.438 3.51411 -2.00729 0
M  V30 9429 H 882.008 2.91448 -1.13035 0
M  V30 9430 H 881.228 1.95465 -3.42326 0
M  V30 9431 H 882.516 2.91815 -4.16799 0
M  V30 9432 H 881.914 5.2783 -2.03501 0
M  V30 9433 H 880.471 5.93281 -2.69927 0
M  V30 9434 N 883.904 1.48273 0.534124 0
M  V30 9435 C 885.15 1.56311 1.29208 0
M  V30 9436 C 885.483 0.234481 1.92779 0
M  V30 9437 O 884.758 -0.759143 1.79073 0
M  V30 9438 C 885.041 2.69831 2.3846 0
M  V30 9439 C 884.894 4.12385 1.79608 0
M  V30 9440 C 886.213 2.79133 3.40254 0
M  V30 9441 H 883.332 0.56899 0.468422 0
M  V30 9442 H 885.974 1.80429 0.595438 0
M  V30 9443 H 884.124 2.49397 2.97881 0
M  V30 9444 H 885.796 4.44246 1.24269 0
M  V30 9445 H 884.039 4.19579 1.10162 0
M  V30 9446 H 884.71 4.87629 2.58693 0
M  V30 9447 H 887.186 2.97632 2.90783 0
M  V30 9448 H 886.062 3.60298 4.14097 0
M  V30 9449 H 886.323 1.87122 4.00547 0
M  V30 9450 N 885.382 -0.782676 1.36792 0
M  V30 9451 C 886.631 -1.53605 1.30723 0
M  V30 9452 C 886.944 -1.95294 -0.109296 0
M  V30 9453 O 888.15 -2.69921 -0.292398 0
M  V30 9454 C 886.606 -2.77321 2.29393 0
M  V30 9455 C 886.214 -2.42774 3.76517 0
M  V30 9456 C 887.958 -3.55289 2.32314 0
M  V30 9457 C 885.865 -3.62926 4.66947 0
M  V30 9458 H 884.795 -0.576646 0.485794 0
M  V30 9459 H 887.446 -0.858255 1.62192 0
M  V30 9460 H 885.828 -3.46934 1.90927 0
M  V30 9461 H 887.002 -1.81014 4.23758 0
M  V30 9462 H 885.317 -1.78002 3.76436 0
M  V30 9463 H 887.914 -4.44573 2.97083 0
M  V30 9464 H 888.257 -3.94361 1.3336 0
M  V30 9465 H 888.79 -2.92662 2.69432 0
M  V30 9466 H 885.529 -3.28944 5.66989 0
M  V30 9467 H 885.049 -4.23828 4.24418 0
M  V30 9468 H 886.728 -4.29873 4.83548 0
M  V30 9469 N 886.86 -1.21182 -1.00761 0
M  V30 9470 C 888.085 -1.05411 -1.78615 0
M  V30 9471 C 888.51 0.391837 -1.83973 0
M  V30 9472 O 887.868 1.28256 -1.28141 0
M  V30 9473 C 887.916 -1.65285 -3.20489 0
M  V30 9474 O 887.02 -0.896558 -4.02536 0
M  V30 9475 H 886.361 -0.37116 -0.550578 0
M  V30 9476 H 888.891 -1.60669 -1.26676 0
M  V30 9477 H 888.901 -1.69397 -3.71172 0
M  V30 9478 H 887.576 -2.70514 -3.15904 0
M  V30 9479 H 886.153 -0.930335 -3.61108 0
M  V30 9480 N 888.338 1.20213 -1.01915 0
M  V30 9481 C 889.615 1.85348 -0.62495 0
M  V30 9482 C 889.995 1.91101 0.896854 0
M  V30 9483 O 889.343 1.42075 1.78961 0
M  V30 9484 C 889.553 3.24849 -1.27571 0
M  V30 9485 C 890.901 4.01107 -1.39277 0
M  V30 9486 O 891.925 3.34211 -1.23212 0
M  V30 9487 O 890.784 5.20914 -1.6526 0
M  V30 9488 H 887.878 0.798303 -0.215965 0
M  V30 9489 H 890.424 1.27782 -1.11669 0
M  V30 9490 H 889.196 3.1544 -2.31545 0
M  V30 9491 H 888.819 3.90049 -0.77122 0
M  V30 9492 N 889.816 0.795718 1.36037 0
M  V30 9493 C 891.093 0.294743 1.93367 0
M  V30 9494 C 891.473 -1.21406 1.72696 0
M  V30 9495 O 890.821 -2.00849 1.08959 0
M  V30 9496 C 891.031 0.694254 3.42025 0
M  V30 9497 C 892.379 0.677566 4.19159 0
M  V30 9498 O 893.403 0.635119 3.50492 0
M  V30 9499 O 892.262 0.726127 5.41655 0
M  V30 9500 H 889.356 0.0745459 0.823633 0
M  V30 9501 H 891.902 0.878685 1.4518 0
M  V30 9502 H 890.674 1.73458 3.50753 0
M  V30 9503 H 890.297 0.0845338 3.9751 0
M  V30 9504 N 891.294 -1.47756 0.548274 0
M  V30 9505 C 892.543 -2.01691 0.0187961 0
M  V30 9506 C 892.856 -1.42894 -1.33569 0
M  V30 9507 O 894.062 -1.88438 -1.95457 0
M  V30 9508 C 892.518 -3.59896 -0.016847 0
M  V30 9509 C 892.126 -4.27683 1.33385 0
M  V30 9510 C 893.87 -4.21614 -0.494188 0
M  V30 9511 C 891.777 -5.7787 1.2578 0
M  V30 9512 H 890.707 -0.753993 0.00325648 0
M  V30 9513 H 893.358 -1.69838 0.694792 0
M  V30 9514 H 891.74 -3.88672 -0.758304 0
M  V30 9515 H 892.914 -4.10559 2.09232 0
M  V30 9516 H 891.229 -3.77915 1.7484 0
M  V30 9517 H 893.826 -5.3166 -0.569342 0
M  V30 9518 H 894.169 -3.88176 -1.50417 0
M  V30 9519 H 894.702 -3.97336 0.192138 0
M  V30 9520 H 891.441 -6.15912 2.2435 0
M  V30 9521 H 890.961 -5.97355 0.540997 0
M  V30 9522 H 892.64 -6.39897 0.956109 0
M  V30 9523 N 892.772 -0.284283 -1.55015 0
M  V30 9524 C 893.702 0.592663 -2.25853 0
M  V30 9525 C 894.683 1.15151 -1.25197 0
M  V30 9526 O 895.868 1.18395 -1.53936 0
M  V30 9527 C 892.998 1.77254 -2.98661 0
M  V30 9528 C 891.952 1.34482 -4.06323 0
M  V30 9529 C 891.278 2.60853 -4.66754 0
M  V30 9530 C 892.578 0.488288 -5.20013 0
M  V30 9531 H 894.272 0.00187041 -2.994 0
M  V30 9532 H 891.818 -0.000540402 -1.44 0
M  V30 9533 H 893.771 2.39199 -3.46932 0
M  V30 9534 H 892.495 2.38931 -2.22664 0
M  V30 9535 H 891.154 0.748519 -3.58877 0
M  V30 9536 H 890.802 3.20808 -3.87416 0
M  V30 9537 H 890.502 2.32942 -5.39455 0
M  V30 9538 H 892.026 3.23631 -5.1778 0
M  V30 9539 H 893.44 1.01298 -5.6428 0
M  V30 9540 H 891.837 0.303669 -5.99331 0
M  V30 9541 H 892.907 -0.490727 -4.8241 0
M  V30 9542 N 894.251 1.57596 -0.0117121 0
M  V30 9543 C 895.497 1.92189 0.665966 0
M  V30 9544 C 895.852 0.887145 1.70726 0
M  V30 9545 O 895.145 -0.099151 1.91343 0
M  V30 9546 C 895.339 3.31296 1.34082 0
M  V30 9547 C 895.168 4.48205 0.366406 0
M  V30 9548 C 893.938 5.05293 -0.0274458 0
M  V30 9549 C 896.136 5.12951 -0.37219 0
M  V30 9550 N 894.118 6.0572 -0.998846 0
M  V30 9551 C 895.489 6.08318 -1.1979 0
M  V30 9552 C 897.544 4.95998 -0.434768 0
M  V30 9553 C 896.247 6.88555 -2.0805 0
M  V30 9554 C 898.273 5.7683 -1.30464 0
M  V30 9555 C 897.635 6.71798 -2.11816 0
M  V30 9556 H 893.734 0.751422 0.216537 0
M  V30 9557 H 896.318 1.94556 -0.0748079 0
M  V30 9558 H 894.489 3.2978 2.05182 0
M  V30 9559 H 896.221 3.53285 1.97413 0
M  V30 9560 H 892.976 4.72354 0.343382 0
M  V30 9561 H 893.4 6.60619 -1.48027 0
M  V30 9562 H 898.042 4.22417 0.179925 0
M  V30 9563 H 895.76 7.61453 -2.70581 0
M  V30 9564 H 899.346 5.6575 -1.35712 0
M  V30 9565 H 898.226 7.33256 -2.78037 0
M  V30 9566 N 895.729 -0.261212 1.5542 0
M  V30 9567 C 897.14 -0.83138 1.67167 0
M  V30 9568 C 897.491 -1.8659 0.606525 0
M  V30 9569 O 896.616 -2.14953 -0.24985 0
M  V30 9570 C 897.211 -1.51475 3.03052 0
M  V30 9571 C 895.77 -2.0328 3.16787 0
M  V30 9572 C 894.917 -0.878903 2.63003 0
M  V30 9573 H 897.868 -0.0373102 1.58656 0
M  V30 9574 H 897.889 -2.38222 2.96699 0
M  V30 9575 H 897.401 -0.76157 3.80554 0
M  V30 9576 H 895.502 -2.81523 2.44082 0
M  V30 9577 H 895.615 -2.24001 4.2351 0
M  V30 9578 H 893.979 -1.27551 2.2046 0
M  V30 9579 H 894.762 -0.13904 3.43018 0
M  V30 9580 N 897.207 -1.48554 -0.526253 0
M  V30 9581 C 898.117 -1.66044 -1.65731 0
M  V30 9582 C 899.133 -0.542951 -1.65312 0
M  V30 9583 O 900.309 -0.814495 -1.84195 0
M  V30 9584 C 897.374 -1.69959 -3.02184 0
M  V30 9585 C 896.435 -2.93362 -3.13428 0
M  V30 9586 C 895.668 -2.97081 -4.43372 0
M  V30 9587 O 895.891 -2.09103 -5.3069 0
M  V30 9588 O 894.825 -3.8929 -4.59061 0
M  V30 9589 H 898.651 -2.61811 -1.53912 0
M  V30 9590 H 896.236 -1.31999 -0.699759 0
M  V30 9591 H 898.118 -1.75033 -3.83329 0
M  V30 9592 H 896.793 -0.773658 -3.14319 0
M  V30 9593 H 895.7 -2.93818 -2.31564 0
M  V30 9594 H 897.033 -3.85352 -3.06211 0
M  V30 9595 N 898.685 0.775411 -1.37205 0
M  V30 9596 C 899.933 1.53081 -1.3195 0
M  V30 9597 C 900.254 1.9476 0.0966864 0
M  V30 9598 O 899.524 1.66019 1.03993 0
M  V30 9599 H 898.104 0.567762 -0.485444 0
M  V30 9600 H 900.766 0.92309 -1.71654 0
M  V30 9601 H 899.862 2.4319 -1.95614 0
M  V30 9602 N 900.163 1.21714 1.00117 0
M  V30 9603 C 901.44 0.945391 1.71236 0
M  V30 9604 C 901.82 -0.541772 2.0403 0
M  V30 9605 O 901.168 -1.50763 1.71705 0
M  V30 9606 C 901.378 1.83444 2.96899 0
M  V30 9607 C 902.726 2.08558 3.69849 0
M  V30 9608 O 903.75 1.80824 3.06889 0
M  V30 9609 O 902.609 2.55485 4.83104 0
M  V30 9610 H 899.703 0.354834 0.747009 0
M  V30 9611 H 902.249 1.32661 1.05825 0
M  V30 9612 H 901.021 2.84075 2.69105 0
M  V30 9613 H 900.644 1.45428 3.70049 0
M  V30 9614 N 901.641 -1.19671 1.02551 0
M  V30 9615 C 902.551 -2.26441 0.613329 0
M  V30 9616 C 903.567 -1.70375 -0.353339 0
M  V30 9617 O 904.743 -2.0028 -0.212064 0
M  V30 9618 C 901.808 -3.46684 -0.0329028 0
M  V30 9619 C 900.869 -4.17945 0.980837 0
M  V30 9620 C 900.102 -5.32448 0.36535 0
M  V30 9621 O 900.325 -5.64291 -0.832596 0
M  V30 9622 O 899.259 -5.92012 1.08652 0
M  V30 9623 H 903.085 -2.63932 1.50246 0
M  V30 9624 H 900.67 -1.2646 0.795502 0
M  V30 9625 H 902.552 -4.1956 -0.393395 0
M  V30 9626 H 901.227 -3.1105 -0.896089 0
M  V30 9627 H 900.134 -3.47204 1.39286 0
M  V30 9628 H 901.467 -4.57542 1.81428 0
M  V30 9629 N 903.119 -0.802921 -1.35613 0
M  V30 9630 C 904.082 -0.216422 -2.28176 0
M  V30 9631 C 905.082 0.594101 -1.49422 0
M  V30 9632 O 906.272 0.41312 -1.6923 0
M  V30 9633 C 903.404 0.698746 -3.33662 0
M  V30 9634 H 904.597 -1.03276 -2.81557 0
M  V30 9635 H 902.15 -0.573307 -1.45406 0
M  V30 9636 H 902.885 1.53891 -2.85461 0
M  V30 9637 H 902.67 0.119314 -3.91918 0
M  V30 9638 H 904.16 1.10354 -4.02755 0
M  V30 9639 N 904.597 1.47463 -0.556102 0
M  V30 9640 C 905.527 2.32801 0.180497 0
M  V30 9641 C 906.508 1.43721 0.909848 0
M  V30 9642 O 907.693 1.72578 0.89053 0
M  V30 9643 C 904.823 3.25478 1.21167 0
M  V30 9644 C 903.777 4.2379 0.598846 0
M  V30 9645 C 903.103 5.05783 1.73457 0
M  V30 9646 C 904.403 5.20387 -0.446659 0
M  V30 9647 H 906.097 2.94636 -0.531956 0
M  V30 9648 H 903.643 1.41683 -0.257267 0
M  V30 9649 H 905.596 3.8402 1.73513 0
M  V30 9650 H 904.32 2.61695 1.95405 0
M  V30 9651 H 902.979 3.66472 0.0966897 0
M  V30 9652 H 902.627 4.38405 2.46596 0
M  V30 9653 H 902.327 5.72343 1.33031 0
M  V30 9654 H 903.851 5.67183 2.26131 0
M  V30 9655 H 905.265 5.73299 -0.00930019 0
M  V30 9656 H 903.662 5.95143 -0.769735 0
M  V30 9657 H 904.732 4.65932 -1.34295 0
M  V30 9658 N 906.075 0.2925 1.54862 0
M  V30 9659 C 907.486 -0.201841 1.85606 0
M  V30 9660 C 907.837 -1.54093 1.21449 0
M  V30 9661 O 906.962 -2.10327 0.509079 0
M  V30 9662 C 907.557 -0.373011 3.3674 0
M  V30 9663 C 906.116 -0.811574 3.67547 0
M  V30 9664 C 905.263 0.0850583 2.7717 0
M  V30 9665 H 908.214 0.513774 1.50153 0
M  V30 9666 H 908.235 -1.20892 3.60785 0
M  V30 9667 H 907.747 0.601751 3.83407 0
M  V30 9668 H 905.848 -1.79719 3.26392 0
M  V30 9669 H 905.961 -0.636853 4.74848 0
M  V30 9670 H 904.325 -0.434224 2.50971 0
M  V30 9671 H 905.108 1.05602 3.26654 0
M  V30 9672 N 907.553 -1.57587 0.0200696 0
M  V30 9673 C 908.781 -1.95718 -0.670964 0
M  V30 9674 C 909.196 -0.896081 -1.6618 0
M  V30 9675 O 908.553 0.123037 -1.82085 0
M  V30 9676 C 908.604 -3.33904 -1.38529 0
M  V30 9677 O 908.325 -4.35943 -0.434167 0
M  V30 9678 C 909.826 -3.86614 -2.16898 0
M  V30 9679 H 907.046 -0.644819 -0.185606 0
M  V30 9680 H 909.59 -2.04354 0.0771495 0
M  V30 9681 H 907.745 -3.26515 -2.08487 0
M  V30 9682 H 908.159 -5.16001 -0.940378 0
M  V30 9683 H 909.633 -4.85673 -2.62346 0
M  V30 9684 H 910.11 -3.20379 -3.00423 0
M  V30 9685 H 910.716 -3.97243 -1.51916 0
M  V30 9686 N 909.032 0.252966 -1.55557 0
M  V30 9687 C 909.942 1.33472 -1.92931 0
M  V30 9688 C 910.958 1.52983 -0.828985 0
M  V30 9689 O 912.134 1.66723 -1.12984 0
M  V30 9690 C 909.199 2.6704 -2.21112 0
M  V30 9691 C 908.26 2.56103 -3.44542 0
M  V30 9692 C 907.493 3.83302 -3.71369 0
M  V30 9693 O 907.716 4.84907 -3.00368 0
M  V30 9694 O 906.65 3.823 -4.64898 0
M  V30 9695 H 910.476 1.04768 -2.85057 0
M  V30 9696 H 908.061 0.453208 -1.4236 0
M  V30 9697 H 909.943 3.45981 -2.40572 0
M  V30 9698 H 908.618 2.95489 -1.32166 0
M  V30 9699 H 907.525 1.7547 -3.30396 0
M  V30 9700 H 908.858 2.32601 -4.33772 0
M  V30 9701 N 910.51 1.48831 0.518367 0
M  V30 9702 C 911.473 1.63721 1.604 0
M  V30 9703 C 912.473 0.509857 1.52503 0
M  V30 9704 O 913.663 0.775922 1.55965 0
M  V30 9705 C 910.795 1.61831 3.00039 0
M  V30 9706 H 911.988 2.60534 1.48533 0
M  V30 9707 H 909.541 1.37602 0.741309 0
M  V30 9708 H 910.276 0.665387 3.17401 0
M  V30 9709 H 910.061 2.43686 3.0718 0
M  V30 9710 H 911.551 1.75467 3.78947 0
M  V30 9711 N 911.988 -0.768124 1.37614 0
M  V30 9712 C 912.92 -1.89076 1.29548 0
M  V30 9713 C 913.933 -1.61433 0.21056 0
M  V30 9714 O 915.122 -1.72283 0.466992 0
M  V30 9715 C 912.222 -3.24388 0.981102 0
M  V30 9716 C 911.395 -3.79649 2.17222 0
M  V30 9717 C 910.454 -4.93444 1.82754 0
M  V30 9718 O 909.48 -5.0884 2.5509 0
M  V30 9719 N 910.682 -5.75319 0.773819 0
M  V30 9720 H 913.447 -1.9651 2.26283 0
M  V30 9721 H 911.008 -0.947399 1.31286 0
M  V30 9722 H 913 -3.98038 0.731301 0
M  V30 9723 H 911.57 -3.12433 0.102203 0
M  V30 9724 H 910.79 -2.97735 2.58355 0
M  V30 9725 H 912.078 -4.13302 2.96748 0
M  V30 9726 H 911.476 -5.65433 0.173644 0
M  V30 9727 H 910.033 -6.4918 0.583882 0
M  V30 9728 N 913.466 -1.22244 -0.994698 0
M  V30 9729 C 914.396 -1.01513 -2.10279 0
M  V30 9730 C 915.377 0.0633365 -1.69982 0
M  V30 9731 O 916.562 -0.0985268 -1.9395 0
M  V30 9732 C 913.692 -0.59016 -3.42249 0
M  V30 9733 C 912.646 -1.61436 -3.96387 0
M  V30 9734 C 911.972 -1.04528 -5.24383 0
M  V30 9735 C 913.272 -3.00388 -4.27276 0
M  V30 9736 H 914.966 -1.94194 -2.2788 0
M  V30 9737 H 912.512 -0.935094 -1.09508 0
M  V30 9738 H 914.465 -0.432254 -4.19177 0
M  V30 9739 H 913.189 0.372308 -3.24471 0
M  V30 9740 H 911.848 -1.76001 -3.21589 0
M  V30 9741 H 911.496 -0.0742225 -5.02945 0
M  V30 9742 H 911.196 -1.72949 -5.61571 0
M  V30 9743 H 912.72 -0.898922 -6.03947 0
M  V30 9744 H 914.134 -2.89207 -4.95007 0
M  V30 9745 H 912.531 -3.65916 -4.75631 0
M  V30 9746 H 913.601 -3.50456 -3.35125 0
M  V30 9747 N 914.944 1.19125 -1.03184 0
M  V30 9748 C 915.874 2.24675 -0.635889 0
M  V30 9749 C 916.855 1.66321 0.356565 0
M  V30 9750 O 918.04 1.92728 0.238625 0
M  V30 9751 C 915.17 3.47298 0.011069 0
M  V30 9752 C 914.124 4.18345 -0.903979 0
M  V30 9753 C 913.45 5.34561 -0.12197 0
M  V30 9754 C 914.75 4.72816 -2.21907 0
M  V30 9755 H 916.444 2.5805 -1.51825 0
M  V30 9756 H 913.99 1.24039 -0.73146 0
M  V30 9757 H 915.943 4.20333 0.299729 0
M  V30 9758 H 914.667 3.13131 0.928245 0
M  V30 9759 H 913.326 3.47196 -1.17688 0
M  V30 9760 H 912.974 4.9664 0.797334 0
M  V30 9761 H 912.674 5.83029 -0.731498 0
M  V30 9762 H 914.198 6.10391 0.159881 0
M  V30 9763 H 915.612 5.3759 -1.99173 0
M  V30 9764 H 914.009 5.31782 -2.78078 0
M  V30 9765 H 915.079 3.9072 -2.87168 0
M  V30 9766 N 916.422 0.810101 1.35185 0
M  V30 9767 C 917.671 0.388589 1.97921 0
M  V30 9768 C 917.984 -1.05079 1.64978 0
M  V30 9769 O 919.19 -1.57559 2.21105 0
M  V30 9770 C 917.646 0.643864 3.54094 0
M  V30 9771 C 917.254 2.09602 3.95943 0
M  V30 9772 C 918.998 0.287883 4.23523 0
M  V30 9773 C 916.905 2.29686 5.44976 0
M  V30 9774 H 915.835 0.141562 0.740592 0
M  V30 9775 H 918.486 0.994653 1.54204 0
M  V30 9776 H 916.868 -0.0321978 3.95987 0
M  V30 9777 H 918.042 2.81018 3.65192 0
M  V30 9778 H 916.357 2.4122 3.39414 0
M  V30 9779 H 918.954 0.415946 5.3308 0
M  V30 9780 H 919.297 -0.766305 4.09186 0
M  V30 9781 H 919.83 0.918004 3.87063 0
M  V30 9782 H 916.569 3.33563 5.64284 0
M  V30 9783 H 916.089 1.62798 5.77284 0
M  V30 9784 H 917.768 2.11411 6.11485 0
M  V30 9785 N 917.9 -1.47166 0.563914 0
M  V30 9786 C 919.125 -2.0735 0.0454698 0
M  V30 9787 C 919.55 -1.41281 -1.24182 0
M  V30 9788 O 918.908 -0.490084 -1.7455 0
M  V30 9789 C 918.956 -3.60378 -0.126453 0
M  V30 9790 O 918.06 -3.94934 -1.18746 0
M  V30 9791 H 917.401 -0.661773 0.0543377 0
M  V30 9792 H 919.931 -1.89086 0.781508 0
M  V30 9793 H 919.941 -4.06593 -0.338554 0
M  V30 9794 H 918.616 -4.07862 0.81373 0
M  V30 9795 H 917.193 -3.60455 -0.955318 0
M  V30 9796 N 919.378 -0.300708 -1.54705 0
M  V30 9797 C 920.603 0.314073 -2.05008 0
M  V30 9798 C 921.028 1.46759 -1.17657 0
M  V30 9799 O 920.386 1.80398 -0.180598 0
M  V30 9800 C 920.434 0.748243 -3.52752 0
M  V30 9801 O 919.538 1.85305 -3.68424 0
M  V30 9802 H 918.879 0.0610139 -0.661191 0
M  V30 9803 H 921.409 -0.442467 -1.99758 0
M  V30 9804 H 921.419 1.03713 -3.94598 0
M  V30 9805 H 920.094 -0.095573 -4.1579 0
M  V30 9806 H 918.671 1.56473 -3.38483 0
M  V30 9807 N 920.856 1.57574 -0.0284266 0
M  V30 9808 C 921.786 2.1321 0.952039 0
M  V30 9809 C 922.767 1.04806 1.33977 0
M  V30 9810 O 923.952 1.32635 1.41851 0
M  V30 9811 C 921.082 2.65862 2.23461 0
M  V30 9812 C 920.036 3.79047 1.98765 0
M  V30 9813 C 919.362 4.18124 3.33281 0
M  V30 9814 C 920.662 5.05151 1.32739 0
M  V30 9815 H 922.356 2.95385 0.488705 0
M  V30 9816 H 919.902 1.42092 0.233628 0
M  V30 9817 H 921.855 3.03417 2.92431 0
M  V30 9818 H 920.579 1.80848 2.71959 0
M  V30 9819 H 919.238 3.41929 1.32213 0
M  V30 9820 H 918.886 3.30092 3.79537 0
M  V30 9821 H 918.586 4.94396 3.17563 0
M  V30 9822 H 920.11 4.58262 4.0352 0
M  V30 9823 H 921.524 5.40297 1.91708 0
M  V30 9824 H 919.921 5.86416 1.27421 0
M  V30 9825 H 920.991 4.83969 0.300261 0
M  V30 9826 N 922.334 -0.244713 1.55689 0
M  V30 9827 C 923.264 -1.30667 1.93516 0
M  V30 9828 C 924.245 -1.50094 0.800371 0
M  V30 9829 O 925.43 -1.62665 1.06083 0
M  V30 9830 C 922.56 -2.66101 2.23176 0
M  V30 9831 C 921.514 -2.61366 3.38927 0
M  V30 9832 C 920.84 -4.00616 3.54134 0
M  V30 9833 C 922.14 -2.18161 4.74555 0
M  V30 9834 H 923.834 -0.992546 2.82469 0
M  V30 9835 H 921.38 -0.476018 1.35905 0
M  V30 9836 H 923.333 -3.4053 2.48228 0
M  V30 9837 H 922.057 -2.99154 1.31051 0
M  V30 9838 H 920.716 -1.89395 3.13887 0
M  V30 9839 H 920.364 -4.30938 2.59426 0
M  V30 9840 H 920.064 -3.98335 4.31975 0
M  V30 9841 H 921.588 -4.76741 3.8151 0
M  V30 9842 H 923.002 -2.82323 4.98965 0
M  V30 9843 H 921.399 -2.26988 5.55515 0
M  V30 9844 H 922.469 -1.13333 4.7147 0
M  V30 9845 N 923.813 -1.49104 -0.510467 0
M  V30 9846 C 924.745 -1.61183 -1.6295 0
M  V30 9847 C 925.758 -0.495003 -1.55092 0
M  V30 9848 O 926.947 -0.766671 -1.61197 0
M  V30 9849 C 924.047 -1.54373 -3.01699 0
M  V30 9850 C 923.22 -2.81428 -3.34838 0
M  V30 9851 C 922.279 -2.67802 -4.52956 0
M  V30 9852 O 921.305 -3.41723 -4.55208 0
M  V30 9853 N 922.507 -1.78715 -5.52305 0
M  V30 9854 H 925.272 -2.57693 -1.53018 0
M  V30 9855 H 922.833 -1.46073 -0.698152 0
M  V30 9856 H 924.825 -1.42924 -3.78622 0
M  V30 9857 H 923.395 -0.657597 -3.05605 0
M  V30 9858 H 922.615 -3.07299 -2.46903 0
M  V30 9859 H 923.903 -3.6568 -3.53773 0
M  V30 9860 H 923.301 -1.17897 -5.53278 0
M  V30 9861 H 921.858 -1.73194 -6.28369 0
M  V30 9862 N 925.291 0.760815 -1.38019 0
M  V30 9863 C 926.519 1.55001 -1.37048 0
M  V30 9864 C 926.934 1.88754 0.0415261 0
M  V30 9865 O 926.291 1.52254 1.00624 0
M  V30 9866 C 926.342 2.8536 -2.21928 0
M  V30 9867 O 926.063 2.53049 -3.57628 0
M  V30 9868 C 927.564 3.79536 -2.29057 0
M  V30 9869 H 924.784 0.479844 -0.469032 0
M  V30 9870 H 927.328 0.942148 -1.81504 0
M  V30 9871 H 925.483 3.42542 -1.80953 0
M  V30 9872 H 925.897 3.36604 -4.02241 0
M  V30 9873 H 927.371 4.67977 -2.92749 0
M  V30 9874 H 927.848 4.19453 -1.30213 0
M  V30 9875 H 928.454 3.28281 -2.70392 0
M  V30 9876 N 926.769 1.22769 0.988202 0
M  V30 9877 C 927.717 0.999271 2.10041 0
M  V30 9878 C 928.711 -0.0591767 1.69297 0
M  V30 9879 O 929.917 0.0936653 1.79756 0
M  V30 9880 H 926.292 0.30599 0.686931 0
M  V30 9881 H 928.263 1.94294 2.26478 0
M  V30 9882 C 927.012 0.59873 3.42506 0
M  V30 9883 H 926.335 1.40487 3.74304 0
M  V30 9884 H 927.775 0.478353 4.21293 0
M  V30 9885 C 926.234 -0.692216 3.29712 0
M  V30 9886 O 926.764 -1.74342 3.61895 0
M  V30 9887 N 924.97 -0.665163 2.82885 0
M  V30 9888 H 924.517 0.190604 2.56894 0
M  V30 9889 H 924.475 -1.52917 2.74706 0
M  V30 9890 N 928.247 -1.18576 1.03814 0
M  V30 9891 C 929.658 -1.70159 0.768299 0
M  V30 9892 C 930.009 -1.8286 -0.711106 0
M  V30 9893 O 929.134 -1.5063 -1.55369 0
M  V30 9894 C 929.729 -3.09062 1.38804 0
M  V30 9895 C 928.288 -3.57866 1.16656 0
M  V30 9896 C 927.435 -2.34484 1.48029 0
M  V30 9897 H 930.386 -1.03287 1.20488 0
M  V30 9898 H 930.407 -3.72211 0.7899 0
M  V30 9899 H 929.919 -2.99785 2.46476 0
M  V30 9900 H 928.02 -3.72442 0.108471 0
M  V30 9901 H 928.133 -4.41445 1.8618 0
M  V30 9902 H 926.497 -2.38273 0.899902 0
M  V30 9903 H 927.28 -2.27829 2.56805 0
M  V30 9904 N 929.725 -0.817259 -1.34754 0
M  V30 9905 C 930.655 -0.249769 -2.3216 0
M  V30 9906 C 931.636 0.630663 -1.57977 0
M  V30 9907 O 932.821 0.558719 -1.85989 0
M  V30 9908 C 929.951 0.593825 -3.42186 0
M  V30 9909 C 928.905 -0.188997 -4.27583 0
M  V30 9910 C 928.231 0.776979 -5.29025 0
M  V30 9911 C 929.531 -1.39401 -5.03354 0
M  V30 9912 H 931.225 -1.06359 -2.79872 0
M  V30 9913 H 928.771 -0.512894 -1.34556 0
M  V30 9914 H 930.724 1.00097 -4.09339 0
M  V30 9915 H 929.448 1.44064 -2.93109 0
M  V30 9916 H 928.107 -0.577445 -3.62024 0
M  V30 9917 H 927.755 1.61959 -4.76212 0
M  V30 9918 H 927.455 0.257448 -5.87036 0
M  V30 9919 H 928.979 1.18211 -5.99048 0
M  V30 9920 H 930.393 -1.06117 -5.63393 0
M  V30 9921 H 928.79 -1.84878 -5.70912 0
M  V30 9922 H 929.86 -2.17515 -4.33377 0
M  V30 9923 N 931.203 1.46865 -0.571711 0
M  V30 9924 C 932.449 2.0273 -0.0531858 0
M  V30 9925 C 932.782 1.44353 1.29907 0
M  V30 9926 O 932.057 0.604488 1.84868 0
M  V30 9927 C 932.34 3.60092 0.0243831 0
M  V30 9928 C 932.193 4.28874 -1.35599 0
M  V30 9929 C 933.512 4.33994 0.730563 0
M  V30 9930 H 930.631 0.736706 -0.0208018 0
M  V30 9931 H 933.273 1.75132 -0.736794 0
M  V30 9932 H 931.423 3.83736 0.606565 0
M  V30 9933 H 933.095 4.16527 -1.98249 0
M  V30 9934 H 931.338 3.88664 -1.92674 0
M  V30 9935 H 932.009 5.37561 -1.25429 0
M  V30 9936 H 934.485 4.1543 0.236098 0
M  V30 9937 H 933.361 5.43699 0.753836 0
M  V30 9938 H 933.622 4.04257 1.78967 0
M  V30 9939 N 932.681 0.308908 1.54543 0
M  V30 9940 C 934.097 -0.0442273 1.59539 0
M  V30 9941 C 934.297 -1.51743 1.32575 0
M  V30 9942 O 933.353 -2.27134 1.10302 0
M  V30 9943 C 934.666 0.360826 2.98527 0
M  V30 9944 C 936.214 0.310252 3.11459 0
M  V30 9945 C 936.689 0.690246 4.52769 0
M  V30 9946 N 938.18 0.643084 4.58714 0
M  V30 9947 C 938.915 0.909483 5.66141 0
M  V30 9948 N 938.411 1.24226 6.81572 0
M  V30 9949 N 940.204 0.836018 5.55848 0
M  V30 9950 H 932.355 1.26893 1.70329 0
M  V30 9951 H 934.618 0.514986 0.795923 0
M  V30 9952 H 934.324 1.38669 3.23209 0
M  V30 9953 H 934.198 -0.281563 3.76148 0
M  V30 9954 H 936.585 -0.706375 2.86521 0
M  V30 9955 H 936.666 0.987373 2.35976 0
M  V30 9956 H 936.31 1.70472 4.78437 0
M  V30 9957 H 936.24 -0.00903075 5.26599 0
M  V30 9958 H 938.731 0.397138 3.75807 0
M  V30 9959 H 939.044 1.4313 7.5943 0
M  V30 9960 H 937.389 1.28038 6.83104 0
M  V30 9961 H 940.58 0.575637 4.64547 0
M  V30 9962 H 940.753 1.047 6.39486 0
M  V30 9963 N 934.159 -1.57557 0.0367827 0
M  V30 9964 C 935.089 -2.13712 -0.940719 0
M  V30 9965 C 936.07 -1.05515 -1.33419 0
M  V30 9966 O 937.255 -1.33385 -1.41146 0
M  V30 9967 C 934.385 -2.67043 -2.22048 0
M  V30 9968 C 933.339 -3.80096 -1.96752 0
M  V30 9969 C 932.665 -4.19886 -3.31059 0
M  V30 9970 C 933.965 -5.05848 -1.30058 0
M  V30 9971 H 935.659 -2.9564 -0.473033 0
M  V30 9972 H 933.205 -1.42214 -0.226089 0
M  V30 9973 H 935.158 -3.04964 -2.90818 0
M  V30 9974 H 933.882 -1.82287 -2.70996 0
M  V30 9975 H 932.541 -3.42625 -1.30398 0
M  V30 9976 H 932.189 -3.32101 -3.77781 0
M  V30 9977 H 931.889 -4.96073 -3.14937 0
M  V30 9978 H 933.413 -4.60395 -4.01084 0
M  V30 9979 H 934.827 -5.41306 -1.8884 0
M  V30 9980 H 933.224 -5.87084 -1.24309 0
M  V30 9981 H 934.294 -4.84122 -0.274591 0
M  V30 9982 N 935.637 0.236453 -1.55816 0
M  V30 9983 C 936.885 0.96111 -1.77784 0
M  V30 9984 C 937.206 1.85454 -0.602648 0
M  V30 9985 O 936.476 1.92157 0.381137 0
M  V30 9986 H 935.056 0.35787 -0.655697 0
M  V30 9987 H 937.718 0.251888 -1.93265 0
M  V30 9988 H 936.814 1.5767 -2.69345 0
M  V30 9989 N 937.115 1.49373 0.502552 0
M  V30 9990 C 938.078 1.65413 1.58654 0
M  V30 9991 C 939.078 0.526003 1.51953 0
M  V30 9992 O 940.268 0.792421 1.55133 0
M  V30 9993 C 937.4 1.65005 2.98306 0
M  V30 9994 H 938.593 2.62095 1.45762 0
M  V30 9995 H 936.146 1.38381 0.726672 0
M  V30 9996 H 936.881 0.699014 3.16677 0
M  V30 9997 H 936.666 2.46931 3.04578 0
M  V30 9998 H 938.156 1.79477 3.77065 0
M  V30 9999 N 938.594 -0.753485 1.38421 0
M  V30 10000 C 939.842 -1.50962 1.34368 0
M  V30 10001 C 940.163 -1.94889 -0.0656895 0
M  V30 10002 O 939.433 -1.67652 -1.01339 0
M  V30 10003 H 938.013 -0.559967 0.494415 0
M  V30 10004 H 940.675 -0.895665 1.73101 0
M  V30 10005 H 939.771 -2.40048 1.99458 0
M  V30 10006 N 940.072 -1.23292 -0.981677 0
M  V30 10007 C 941.32 -1.06214 -1.71939 0
M  V30 10008 C 941.641 0.401989 -1.90812 0
M  V30 10009 O 940.911 1.28825 -1.47584 0
M  V30 10010 H 939.491 -0.390042 -0.637084 0
M  V30 10011 H 942.153 -1.54988 -1.18173 0
M  V30 10012 H 941.249 -1.54904 -2.70945 0
M  V30 10013 N 941.55 1.18024 -1.04442 0
M  V30 10014 C 942.513 2.19992 -0.643136 0
M  V30 10015 C 943.513 1.57949 0.301444 0
M  V30 10016 O 944.703 1.73986 0.0863341 0
M  V30 10017 C 941.835 3.40853 0.0565208 0
M  V30 10018 H 943.028 2.57008 -1.54554 0
M  V30 10019 H 940.581 1.31974 -0.837408 0
M  V30 10020 H 941.316 3.09373 0.972553 0
M  V30 10021 H 941.101 3.87128 -0.622439 0
M  V30 10022 H 942.591 4.16344 0.323652 0
M  V30 10023 N 943.028 0.824394 1.34319 0
M  V30 10024 C 944.275 0.413167 1.9824 0
M  V30 10025 C 944.603 -1.02412 1.65354 0
M  V30 10026 O 943.858 -1.72831 0.91803 0
M  V30 10027 C 944.157 0.564024 3.52921 0
M  V30 10028 C 943.823 1.96725 4.05722 0
M  V30 10029 C 942.485 2.35111 4.19853 0
M  V30 10030 C 944.837 2.88447 4.34106 0
M  V30 10031 C 942.165 3.64551 4.59695 0
M  V30 10032 C 944.517 4.17353 4.75394 0
M  V30 10033 C 943.181 4.55714 4.8773 0
M  V30 10034 H 942.451 0.151188 0.725412 0
M  V30 10035 H 945.098 1.04863 1.60238 0
M  V30 10036 H 943.403 -0.154816 3.91494 0
M  V30 10037 H 945.1 0.226347 4.00361 0
M  V30 10038 H 941.69 1.65908 3.95187 0
M  V30 10039 H 945.874 2.60034 4.22725 0
M  V30 10040 H 941.13 3.94097 4.67437 0
M  V30 10041 H 945.304 4.88512 4.96315 0
M  V30 10042 H 942.931 5.56064 5.1836 0
M  V30 10043 N 944.506 -1.46559 0.579492 0
M  V30 10044 C 945.416 -2.34066 -0.15816 0
M  V30 10045 C 946.432 -1.49556 -0.88932 0
M  V30 10046 O 947.608 -1.82434 -0.853226 0
M  V30 10047 C 944.673 -3.26683 -1.161 0
M  V30 10048 C 943.734 -4.27092 -0.434855 0
M  V30 10049 C 942.967 -5.15283 -1.38992 0
M  V30 10050 O 943.19 -5.06345 -2.62623 0
M  V30 10051 O 942.124 -5.95099 -0.902253 0
M  V30 10052 H 945.95 -2.98488 0.560234 0
M  V30 10053 H 943.535 -1.45482 0.339918 0
M  V30 10054 H 945.417 -3.8383 -1.73932 0
M  V30 10055 H 944.092 -2.64862 -1.86091 0
M  V30 10056 H 942.999 -3.73641 0.185224 0
M  V30 10057 H 944.332 -4.9169 0.224031 0
M  V30 10058 N 945.984 -0.3171 -1.54377 0
M  V30 10059 C 947.23 0.287836 -2.00747 0
M  V30 10060 C 947.563 1.52292 -1.20502 0
M  V30 10061 O 946.838 1.92391 -0.285626 0
M  V30 10062 C 947.121 0.628423 -3.54574 0
M  V30 10063 C 946.974 -0.616922 -4.45549 0
M  V30 10064 C 948.293 1.44862 -4.15575 0
M  V30 10065 H 945.412 0.103144 -0.729747 0
M  V30 10066 H 948.054 -0.432396 -1.85014 0
M  V30 10067 H 946.204 1.24203 -3.68111 0
M  V30 10068 H 947.876 -1.25526 -4.43893 0
M  V30 10069 H 946.119 -1.24706 -4.15489 0
M  V30 10070 H 946.79 -0.334243 -5.50987 0
M  V30 10071 H 949.266 0.930015 -4.05574 0
M  V30 10072 H 948.142 1.6557 -5.23333 0
M  V30 10073 H 948.403 2.44279 -3.68484 0
M  V30 10074 N 947.462 1.57535 -0.0451378 0
M  V30 10075 C 948.409 2.11176 0.931313 0
M  V30 10076 C 949.379 1.01765 1.31275 0
M  V30 10077 O 950.564 1.29279 1.40327 0
M  V30 10078 C 947.704 2.65639 2.20295 0
M  V30 10079 C 946.817 3.89114 1.87654 0
M  V30 10080 C 945.952 4.31914 3.09232 0
M  V30 10081 C 944.991 5.48105 2.72484 0
M  V30 10082 N 944.128 5.85986 3.86736 0
M  V30 10083 H 948.968 2.94318 0.466986 0
M  V30 10084 H 946.505 1.45462 0.218886 0
M  V30 10085 H 948.463 2.95312 2.94697 0
M  V30 10086 H 947.093 1.85303 2.64316 0
M  V30 10087 H 946.145 3.6607 1.03427 0
M  V30 10088 H 947.457 4.7358 1.56601 0
M  V30 10089 H 946.611 4.63108 3.91939 0
M  V30 10090 H 945.35 3.46247 3.43459 0
M  V30 10091 H 944.355 5.16589 1.88192 0
M  V30 10092 H 945.58 6.35482 2.39455 0
M  V30 10093 H 943.526 5.03273 4.20775 0
M  V30 10094 H 943.443 6.65129 3.5936 0
M  V30 10095 H 944.711 6.21793 4.701 0
M  V30 10096 N 948.94 -0.228186 1.55939 0
M  V30 10097 C 949.872 -1.30605 1.88348 0
M  V30 10098 C 950.885 -1.43375 0.771198 0
M  V30 10099 O 952.074 -1.44391 1.04945 0
M  V30 10100 C 949.174 -2.68248 2.07115 0
M  V30 10101 C 948.347 -2.77509 3.38094 0
M  V30 10102 C 947.406 -3.96121 3.46373 0
M  V30 10103 O 946.432 -3.8477 4.19453 0
M  V30 10104 N 947.634 -5.10132 2.77031 0
M  V30 10105 H 950.399 -1.03132 2.81396 0
M  V30 10106 H 947.96 -0.418245 1.56404 0
M  V30 10107 H 949.952 -3.45966 2.09976 0
M  V30 10108 H 948.522 -2.88348 1.20723 0
M  V30 10109 H 947.742 -1.8632 3.47388 0
M  V30 10110 H 949.03 -2.80662 4.2439 0
M  V30 10111 H 948.428 -5.22249 2.17424 0
M  V30 10112 H 946.985 -5.85916 2.85561 0
M  V30 10113 N 950.418 -1.49637 -0.494624 0
M  V30 10114 C 951.368 -1.63168 -1.59249 0
M  V30 10115 C 952.352 -0.487089 -1.5335 0
M  V30 10116 O 953.544 -0.74036 -1.60772 0
M  V30 10117 C 950.673 -1.70744 -2.97828 0
M  V30 10118 C 949.759 -2.90802 -3.08699 0
M  V30 10119 N 950.15 -4.14797 -2.89442 0
M  V30 10120 C 948.448 -2.88871 -3.39808 0
M  V30 10121 C 949.149 -4.95535 -3.04663 0
M  V30 10122 N 948.125 -4.29025 -3.33824 0
M  V30 10123 H 951.927 -2.56751 -1.43024 0
M  V30 10124 H 949.441 -1.46497 -0.700885 0
M  V30 10125 H 951.438 -1.78537 -3.76736 0
M  V30 10126 H 950.098 -0.783024 -3.15117 0
M  V30 10127 H 951.109 -4.44675 -2.6549 0
M  V30 10128 H 947.786 -2.05834 -3.63233 0
M  V30 10129 H 949.176 -6.0406 -2.94214 0
M  V30 10130 N 951.896 0.746133 -1.38819 0
M  V30 10131 C 953.121 1.54049 -1.38866 0
M  V30 10132 C 953.546 1.88092 0.0176624 0
M  V30 10133 O 952.904 1.51113 1.00173 0
M  V30 10134 C 952.952 2.8116 -2.25791 0
M  V30 10135 O 952.056 3.76623 -1.68014 0
M  V30 10136 H 951.397 0.465648 -0.473359 0
M  V30 10137 H 953.927 0.921469 -1.82675 0
M  V30 10138 H 953.937 3.30009 -2.39913 0
M  V30 10139 H 952.612 2.55713 -3.27999 0
M  V30 10140 H 951.189 3.35352 -1.63074 0
M  V30 10141 N 953.375 1.23811 0.975125 0
M  V30 10142 C 954.622 1.07336 1.71712 0
M  V30 10143 C 954.95 -0.388954 1.90571 0
M  V30 10144 O 954.205 -1.30409 1.45918 0
M  V30 10145 C 954.504 1.74994 3.11628 0
M  V30 10146 C 954.17 3.24918 3.12632 0
M  V30 10147 C 952.832 3.65822 3.12614 0
M  V30 10148 C 955.184 4.20797 3.07538 0
M  V30 10149 C 952.512 5.01054 3.05224 0
M  V30 10150 C 954.864 5.56027 3.0169 0
M  V30 10151 C 953.528 5.96287 2.99996 0
M  V30 10152 H 952.798 0.392771 0.62834 0
M  V30 10153 H 955.445 1.53815 1.14075 0
M  V30 10154 H 953.75 1.20889 3.72684 0
M  V30 10155 H 955.447 1.5972 3.67819 0
M  V30 10156 H 952.037 2.92359 3.13407 0
M  V30 10157 H 956.221 3.902 3.06688 0
M  V30 10158 H 951.477 5.31454 3.02268 0
M  V30 10159 H 955.651 6.3003 2.96706 0
M  V30 10160 H 953.278 7.01037 2.94025 0
M  V30 10161 N 954.853 -1.17469 1.05066 0
M  V30 10162 C 956.1 -1.87698 0.759987 0
M  V30 10163 C 956.428 -1.80964 -0.712902 0
M  V30 10164 O 955.683 -1.21146 -1.53695 0
M  V30 10165 C 955.982 -3.37211 1.18421 0
M  V30 10166 C 955.648 -3.64148 2.65909 0
M  V30 10167 C 954.31 -3.71209 3.06199 0
M  V30 10168 C 956.662 -3.75724 3.61222 0
M  V30 10169 C 953.99 -3.87334 4.40669 0
M  V30 10170 C 956.342 -3.93368 4.95424 0
M  V30 10171 C 955.006 -3.98667 5.3537 0
M  V30 10172 H 954.276 -0.686835 0.278099 0
M  V30 10173 H 956.923 -1.38975 1.31751 0
M  V30 10174 H 955.228 -3.87982 0.545654 0
M  V30 10175 H 956.925 -3.89911 0.936518 0
M  V30 10176 H 953.515 -3.59276 2.33707 0
M  V30 10177 H 957.699 -3.69591 3.31235 0
M  V30 10178 H 952.955 -3.89685 4.71122 0
M  V30 10179 H 957.129 -4.01267 5.69173 0
M  V30 10180 H 954.756 -4.10915 6.39572 0
M  V30 10181 N 956.331 -0.831506 -1.3388 0
M  V30 10182 C 957.747 -0.518349 -1.50948 0
M  V30 10183 C 957.947 0.955807 -1.77388 0
M  V30 10184 O 957.003 1.73993 -1.82983 0
M  V30 10185 C 958.316 -1.38531 -2.66889 0
M  V30 10186 C 959.864 -1.38332 -2.80772 0
M  V30 10187 C 960.339 -2.23497 -3.99766 0
M  V30 10188 N 961.83 -2.21167 -4.06988 0
M  V30 10189 C 962.565 -2.83805 -4.98239 0
M  V30 10190 N 962.061 -3.55468 -5.94655 0
M  V30 10191 N 963.854 -2.73314 -4.91178 0
M  V30 10192 H 956.005 -1.78588 -1.14978 0
M  V30 10193 H 958.268 -0.761508 -0.564633 0
M  V30 10194 H 957.974 -2.43255 -2.54007 0
M  V30 10195 H 957.848 -1.05611 -3.62114 0
M  V30 10196 H 960.235 -0.343832 -2.9309 0
M  V30 10197 H 960.316 -1.75256 -1.86331 0
M  V30 10198 H 959.96 -3.27501 -3.88208 0
M  V30 10199 H 959.89 -1.83919 -4.93438 0
M  V30 10200 H 962.381 -1.69046 -3.37982 0
M  V30 10201 H 962.694 -4.00487 -6.60931 0
M  V30 10202 H 961.039 -3.59575 -5.94753 0
M  V30 10203 H 964.23 -2.16897 -4.14817 0
M  V30 10204 H 964.403 -3.22416 -5.62096 0
M  V30 10205 N 957.809 1.4625 -0.587256 0
M  V30 10206 C 959.086 1.95599 -0.00750181 0
M  V30 10207 C 959.466 1.52989 1.45457 0
M  V30 10208 O 958.814 0.782731 2.14676 0
M  V30 10209 C 959.024 3.48513 -0.184309 0
M  V30 10210 C 960.372 4.24565 -0.0544972 0
M  V30 10211 O 961.396 3.5602 -0.113378 0
M  V30 10212 O 960.255 5.46445 0.0774075 0
M  V30 10213 H 957.349 0.825649 0.0472495 0
M  V30 10214 H 959.895 1.56512 -0.655893 0
M  V30 10215 H 958.667 3.72428 -1.20053 0
M  V30 10216 H 958.29 3.9444 0.500301 0
M  V30 10217 N 959.287 0.325282 1.54207 0
M  V30 10218 C 960.217 -0.532574 2.27345 0
M  V30 10219 C 961.198 -1.11791 1.28206 0
M  V30 10220 O 962.383 -1.14272 1.57021 0
M  V30 10221 C 959.513 -1.69274 3.03255 0
M  V30 10222 C 958.467 -1.23662 4.09746 0
M  V30 10223 C 957.793 -2.48386 4.73506 0
M  V30 10224 C 959.093 -0.350244 5.21124 0
M  V30 10225 H 960.787 0.0775108 2.993 0
M  V30 10226 H 958.333 0.0387193 1.43948 0
M  V30 10227 H 960.286 -2.29917 3.53152 0
M  V30 10228 H 959.01 -2.32944 2.28921 0
M  V30 10229 H 957.669 -0.653106 3.60735 0
M  V30 10230 H 957.317 -3.10424 3.95786 0
M  V30 10231 H 957.017 -2.18558 5.45441 0
M  V30 10232 H 958.541 -3.09789 5.26178 0
M  V30 10233 H 959.955 -0.863011 5.66767 0
M  V30 10234 H 958.352 -0.14466 5.99926 0
M  V30 10235 H 959.422 0.618457 4.8094 0
M  V30 10236 N 960.765 -1.57509 0.0534917 0
M  V30 10237 C 962.042 -1.84137 -0.659767 0
M  V30 10238 C 962.422 -0.942362 -1.88899 0
M  V30 10239 O 961.77 -0.00398566 -2.285 0
M  V30 10240 C 961.98 -3.33919 -1.01486 0
M  V30 10241 C 963.328 -4.00989 -1.39616 0
M  V30 10242 O 964.352 -3.38557 -1.10713 0
M  V30 10243 O 963.211 -5.11071 -1.93567 0
M  V30 10244 H 960.305 -0.760081 -0.325893 0
M  V30 10245 H 962.851 -1.69497 0.0830315 0
M  V30 10246 H 961.623 -3.91046 -0.141041 0
M  V30 10247 H 961.246 -3.53755 -1.81503 0
M  V30 10248 N 962.243 0.219913 -1.56058 0
M  V30 10249 C 963.489 0.941055 -1.80321 0
M  V30 10250 C 963.844 1.81906 -0.626735 0
M  V30 10251 O 963.137 1.87811 0.379147 0
M  V30 10252 C 963.331 1.81293 -3.08006 0
M  V30 10253 C 963.16 1.02082 -4.37961 0
M  V30 10254 C 961.93 0.715096 -5.00214 0
M  V30 10255 C 964.128 0.385342 -5.12854 0
M  V30 10256 N 962.11 -0.098246 -6.13821 0
M  V30 10257 C 963.481 -0.291319 -6.19315 0
M  V30 10258 C 965.536 0.29854 -4.97004 0
M  V30 10259 C 964.239 -1.04648 -7.11647 0
M  V30 10260 C 966.265 -0.443159 -5.89737 0
M  V30 10261 C 965.627 -1.10836 -6.95625 0
M  V30 10262 H 961.726 0.324568 -0.711463 0
M  V30 10263 H 964.31 0.211795 -1.93545 0
M  V30 10264 H 962.481 2.51399 -2.96063 0
M  V30 10265 H 964.213 2.47167 -3.20454 0
M  V30 10266 H 960.968 1.03352 -4.62185 0
M  V30 10267 H 961.392 -0.4938 -6.75197 0
M  V30 10268 H 966.034 0.798478 -4.15192 0
M  V30 10269 H 963.752 -1.55793 -7.9294 0
M  V30 10270 H 967.338 -0.511348 -5.79549 0
M  V30 10271 H 966.218 -1.6731 -7.66144 0
M  V30 10272 N 963.721 1.49897 0.486681 0
M  V30 10273 C 964.949 1.63837 1.26353 0
M  V30 10274 C 965.364 0.315428 1.86146 0
M  V30 10275 O 964.721 -0.700831 1.68507 0
M  V30 10276 C 964.772 2.71792 2.38351 0
M  V30 10277 O 964.493 3.98956 1.81013 0
M  V30 10278 C 965.994 2.96566 3.2949 0
M  V30 10279 H 963.214 0.551158 0.382709 0
M  V30 10280 H 965.758 1.96023 0.582694 0
M  V30 10281 H 963.913 2.42344 3.02238 0
M  V30 10282 H 964.327 4.58536 2.54647 0
M  V30 10283 H 965.801 3.75803 4.04322 0
M  V30 10284 H 966.278 2.07031 3.87343 0
M  V30 10285 H 966.884 3.27485 2.71355 0
M  V30 10286 N 965.199 -0.738761 1.39212 0
M  V30 10287 C 966.447 -1.49529 1.35962 0
M  V30 10288 C 966.768 -1.94948 -0.0450152 0
M  V30 10289 O 966.038 -1.68717 -0.995552 0
M  V30 10290 H 964.618 -0.554692 0.500326 0
M  V30 10291 H 967.28 -0.877255 1.74041 0
M  V30 10292 H 966.376 -2.37919 2.01993 0
M  V30 10293 N 966.677 -1.24326 -0.968545 0
M  V30 10294 C 967.607 -1.05951 -2.08079 0
M  V30 10295 C 968.588 0.0272666 -1.70078 0
M  V30 10296 O 969.773 -0.139644 -1.93697 0
M  V30 10297 C 966.903 -0.662623 -3.4092 0
M  V30 10298 C 965.857 -1.69807 -3.92873 0
M  V30 10299 C 965.183 -1.15628 -5.22048 0
M  V30 10300 C 966.483 -3.09383 -4.20808 0
M  V30 10301 H 968.177 -1.98984 -2.23709 0
M  V30 10302 H 965.723 -0.958112 -1.075 0
M  V30 10303 H 967.676 -0.521071 -4.18166 0
M  V30 10304 H 966.4 0.303399 -3.25188 0
M  V30 10305 H 965.059 -1.82783 -3.17783 0
M  V30 10306 H 964.707 -0.180888 -5.02675 0
M  V30 10307 H 964.407 -1.84822 -5.57776 0
M  V30 10308 H 965.931 -1.02683 -6.01904 0
M  V30 10309 H 967.345 -2.99642 -4.88761 0
M  V30 10310 H 965.742 -3.75923 -4.67763 0
M  V30 10311 H 966.812 -3.57486 -3.27616 0
M  V30 10312 N 968.156 1.1691 -1.05688 0
M  V30 10313 C 969.086 2.23275 -0.683402 0
M  V30 10314 C 970.067 1.6704 0.321206 0
M  V30 10315 O 971.252 1.93191 0.197691 0
M  V30 10316 C 968.382 3.47244 -0.0626006 0
M  V30 10317 C 967.336 4.16333 -0.992513 0
M  V30 10318 C 966.662 5.34182 -0.23533 0
M  V30 10319 C 967.962 4.68002 -2.31886 0
M  V30 10320 H 969.656 2.54771 -1.57264 0
M  V30 10321 H 967.202 1.2246 -0.757606 0
M  V30 10322 H 969.155 4.20874 0.210503 0
M  V30 10323 H 967.879 3.1503 0.861616 0
M  V30 10324 H 966.538 3.44622 -1.25026 0
M  V30 10325 H 966.186 4.9822 0.69181 0
M  V30 10326 H 965.886 5.81346 -0.855002 0
M  V30 10327 H 967.41 6.10592 0.0303717 0
M  V30 10328 H 968.824 5.33244 -2.10531 0
M  V30 10329 H 967.221 5.25764 -2.89296 0
M  V30 10330 H 968.291 3.84541 -2.95391 0
M  V30 10331 N 969.634 0.838594 1.33437 0
M  V30 10332 C 971.05 0.526347 1.50671 0
M  V30 10333 C 971.25 -0.946387 1.77893 0
M  V30 10334 O 970.306 -1.7302 1.83903 0
M  V30 10335 C 971.619 1.39945 2.6615 0
M  V30 10336 C 973.167 1.3982 2.80035 0
M  V30 10337 C 973.642 2.25614 3.98576 0
M  V30 10338 N 975.133 2.23322 4.0581 0
M  V30 10339 C 975.868 2.86443 4.96727 0
M  V30 10340 N 975.364 3.58616 5.92762 0
M  V30 10341 N 977.157 2.75915 4.89722 0
M  V30 10342 H 969.308 1.79195 1.1403 0
M  V30 10343 H 971.571 0.764491 0.560586 0
M  V30 10344 H 971.277 2.44599 2.52714 0
M  V30 10345 H 971.151 1.07529 3.61548 0
M  V30 10346 H 973.538 0.35937 2.92904 0
M  V30 10347 H 973.619 1.76241 1.85399 0
M  V30 10348 H 973.263 3.29555 3.86466 0
M  V30 10349 H 973.193 1.86533 4.92456 0
M  V30 10350 H 975.684 1.70836 3.37081 0
M  V30 10351 H 975.997 4.03987 6.58798 0
M  V30 10352 H 974.342 3.62724 5.92838 0
M  V30 10353 H 977.533 2.19094 4.13661 0
M  V30 10354 H 977.706 3.25393 5.60378 0
M  V30 10355 N 971.112 -1.45937 0.595003 0
M  V30 10356 C 972.044 -2.28575 -0.169137 0
M  V30 10357 C 973.057 -1.39226 -0.843792 0
M  V30 10358 O 974.246 -1.63716 -0.711291 0
M  V30 10359 C 971.346 -3.14616 -1.25976 0
M  V30 10360 C 970.519 -4.32166 -0.67466 0
M  V30 10361 C 969.578 -4.99511 -1.65456 0
M  V30 10362 O 968.604 -5.56712 -1.18578 0
M  V30 10363 N 969.806 -4.97643 -2.98885 0
M  V30 10364 H 972.571 -2.94797 0.539908 0
M  V30 10365 H 970.132 -1.55985 0.433614 0
M  V30 10366 H 972.124 -3.56534 -1.91483 0
M  V30 10367 H 970.694 -2.50387 -1.8715 0
M  V30 10368 H 969.914 -3.93882 0.158184 0
M  V30 10369 H 971.202 -5.08116 -0.263753 0
M  V30 10370 H 970.6 -4.52438 -3.39583 0
M  V30 10371 H 969.157 -5.43463 -3.59848 0
M  V30 10372 N 972.59 -0.333456 -1.54032 0
M  V30 10373 C 973.537 0.527981 -2.2468 0
M  V30 10374 C 974.507 1.10371 -1.24127 0
M  V30 10375 O 975.692 1.14221 -1.52834 0
M  V30 10376 C 972.832 1.67808 -3.01553 0
M  V30 10377 C 971.945 1.13064 -4.16942 0
M  V30 10378 C 971.08 2.24722 -4.81325 0
M  V30 10379 C 970.119 1.67277 -5.88799 0
M  V30 10380 N 969.256 2.72638 -6.47003 0
M  V30 10381 H 974.096 -0.0810308 -2.9789 0
M  V30 10382 H 971.633 -0.051761 -1.47009 0
M  V30 10383 H 973.591 2.35502 -3.44376 0
M  V30 10384 H 972.221 2.25823 -2.30659 0
M  V30 10385 H 971.273 0.344948 -3.78833 0
M  V30 10386 H 972.585 0.670373 -4.94275 0
M  V30 10387 H 971.739 3.00301 -5.27166 0
M  V30 10388 H 970.478 2.74089 -4.03394 0
M  V30 10389 H 969.483 0.902002 -5.4235 0
M  V30 10390 H 970.708 1.18775 -6.68632 0
M  V30 10391 H 968.654 3.21277 -5.71941 0
M  V30 10392 H 968.571 2.31204 -7.19778 0
M  V30 10393 H 969.839 3.48015 -6.97499 0
M  V30 10394 N 974.068 1.57479 -0.061844 0
M  V30 10395 C 975.031 2.1104 0.894127 0
M  V30 10396 C 976.031 1.03227 1.23292 0
M  V30 10397 O 977.221 1.29256 1.16784 0
M  V30 10398 C 974.353 2.6035 2.20069 0
M  V30 10399 H 975.546 2.96807 0.429619 0
M  V30 10400 H 973.099 1.55181 0.18672 0
M  V30 10401 H 973.834 1.78008 2.71079 0
M  V30 10402 H 973.619 3.39146 1.9678 0
M  V30 10403 H 975.109 3.019 2.88525 0
M  V30 10404 N 975.546 -0.211634 1.56173 0
M  V30 10405 C 976.456 -1.2831 1.96402 0
M  V30 10406 C 977.472 -1.50731 0.869254 0
M  V30 10407 O 978.648 -1.63669 1.17365 0
M  V30 10408 C 975.713 -2.61084 2.28114 0
M  V30 10409 C 974.774 -2.46879 3.51211 0
M  V30 10410 C 974.007 -3.73321 3.81401 0
M  V30 10411 O 974.23 -4.76773 3.13119 0
M  V30 10412 O 973.164 -3.69839 4.74871 0
M  V30 10413 H 976.99 -0.971733 2.87734 0
M  V30 10414 H 974.575 -0.415305 1.43512 0
M  V30 10415 H 976.457 -3.39481 2.49661 0
M  V30 10416 H 975.132 -2.91881 1.39954 0
M  V30 10417 H 974.039 -1.66648 3.34932 0
M  V30 10418 H 975.372 -2.21018 4.39786 0
M  V30 10419 N 977.024 -1.50153 -0.478725 0
M  V30 10420 C 978.271 -1.6076 -1.23136 0
M  V30 10421 C 978.599 -0.30442 -1.92103 0
M  V30 10422 O 977.854 0.709213 -1.82397 0
M  V30 10423 C 978.153 -2.73208 -2.30417 0
M  V30 10424 C 977.819 -4.13953 -1.78755 0
M  V30 10425 C 976.481 -4.52251 -1.64386 0
M  V30 10426 C 978.833 -5.01949 -1.40344 0
M  V30 10427 C 976.161 -5.76292 -1.10018 0
M  V30 10428 C 978.513 -6.2653 -0.874206 0
M  V30 10429 C 977.177 -6.63637 -0.717085 0
M  V30 10430 H 976.447 -0.588264 -0.450585 0
M  V30 10431 H 979.094 -1.84061 -0.528551 0
M  V30 10432 H 977.399 -2.43965 -3.06575 0
M  V30 10433 H 979.096 -2.7862 -2.88395 0
M  V30 10434 H 975.686 -3.83736 -1.90904 0
M  V30 10435 H 979.87 -4.73 -1.50283 0
M  V30 10436 H 975.126 -6.03723 -0.965838 0
M  V30 10437 H 979.3 -6.94081 -0.567883 0
M  V30 10438 H 976.927 -7.59633 -0.293639 0
M  V30 10439 N 978.502 0.731368 -1.39602 0
M  V30 10440 C 979.751 1.48647 -1.36334 0
M  V30 10441 C 980.064 1.95565 0.0367383 0
M  V30 10442 O 981.27 2.7082 0.192017 0
M  V30 10443 C 979.726 2.68616 -2.39528 0
M  V30 10444 C 979.334 2.28632 -3.85268 0
M  V30 10445 C 981.078 3.46422 -2.45341 0
M  V30 10446 C 978.985 3.45345 -4.80095 0
M  V30 10447 H 977.915 0.558218 -0.506861 0
M  V30 10448 H 980.566 0.797467 -1.65266 0
M  V30 10449 H 978.948 3.39609 -2.03671 0
M  V30 10450 H 980.122 1.65162 -4.30184 0
M  V30 10451 H 978.437 1.63909 -3.82783 0
M  V30 10452 H 981.034 4.33241 -3.13379 0
M  V30 10453 H 981.377 3.8914 -1.47904 0
M  V30 10454 H 981.91 2.82461 -2.80108 0
M  V30 10455 H 978.649 3.07674 -5.78807 0
M  V30 10456 H 978.169 4.07784 -4.39855 0
M  V30 10457 H 979.848 4.1163 -4.99169 0
M  V30 10458 N 979.98 1.24838 0.961938 0
M  V30 10459 C 981.391 1.08369 1.5203 0
M  V30 10460 C 981.742 -0.343005 1.93178 0
M  V30 10461 O 980.867 -1.2321 1.779 0
M  V30 10462 C 981.462 1.96102 2.76278 0
M  V30 10463 C 980.021 1.8384 3.28451 0
M  V30 10464 C 979.168 1.9069 2.01327 0
M  V30 10465 H 982.119 1.38231 0.779613 0
M  V30 10466 H 982.14 1.4967 3.49827 0
M  V30 10467 H 981.652 2.99931 2.46298 0
M  V30 10468 H 979.753 0.828653 3.63269 0
M  V30 10469 H 979.866 2.68251 3.96961 0
M  V30 10470 H 978.23 1.34488 2.16299 0
M  V30 10471 H 979.013 2.96111 1.73705 0
M  V30 10472 N 981.458 -1.16348 1.06306 0
M  V30 10473 C 982.408 -2.18717 0.643947 0
M  V30 10474 C 983.392 -1.57574 -0.325445 0
M  V30 10475 O 984.584 -1.76439 -0.140868 0
M  V30 10476 C 981.713 -3.43285 0.0320266 0
M  V30 10477 C 980.799 -4.11504 1.02592 0
M  V30 10478 N 981.19 -4.55374 2.20155 0
M  V30 10479 C 979.488 -4.37691 0.856887 0
M  V30 10480 C 980.189 -5.08149 2.83124 0
M  V30 10481 N 979.165 -5.01042 2.10851 0
M  V30 10482 H 982.967 -2.50353 1.53951 0
M  V30 10483 H 980.481 -1.328 0.934763 0
M  V30 10484 H 982.478 -4.15917 -0.286064 0
M  V30 10485 H 981.138 -3.13137 -0.858786 0
M  V30 10486 H 982.149 -4.49101 2.57931 0
M  V30 10487 H 978.826 -4.17496 0.0180742 0
M  V30 10488 H 980.216 -5.52131 3.82885 0
M  V30 10489 N 982.937 -0.845659 -1.3299 0
M  V30 10490 C 983.867 -0.298957 -2.31578 0
M  V30 10491 C 984.848 0.597012 -1.59279 0
M  V30 10492 O 986.033 0.519142 -1.87132 0
M  V30 10493 C 983.163 0.521109 -3.43368 0
M  V30 10494 C 982.117 -0.279651 -4.27085 0
M  V30 10495 C 981.443 0.664591 -5.30554 0
M  V30 10496 C 982.743 -1.50046 -5.00283 0
M  V30 10497 H 984.437 -1.12272 -2.77552 0
M  V30 10498 H 981.983 -0.54132 -1.33438 0
M  V30 10499 H 983.936 0.913921 -4.1137 0
M  V30 10500 H 982.66 1.37815 -2.96099 0
M  V30 10501 H 981.319 -0.654106 -3.60717 0
M  V30 10502 H 980.967 1.51822 -4.79541 0
M  V30 10503 H 980.667 0.132871 -5.8745 0
M  V30 10504 H 982.191 1.05477 -6.01421 0
M  V30 10505 H 983.605 -1.18044 -5.61016 0
M  V30 10506 H 982.002 -1.96946 -5.66862 0
M  V30 10507 H 983.072 -2.26659 -4.28665 0
M  V30 10508 N 984.415 1.45619 -0.602734 0
M  V30 10509 C 985.325 2.34288 0.120902 0
M  V30 10510 C 986.341 1.50952 0.865414 0
M  V30 10511 O 987.517 1.83768 0.824094 0
M  V30 10512 C 984.582 3.28489 1.10888 0
M  V30 10513 C 983.643 4.2773 0.366853 0
M  V30 10514 C 982.876 5.17429 1.30776 0
M  V30 10515 O 983.099 5.10459 2.54535 0
M  V30 10516 O 982.033 5.96459 0.807464 0
M  V30 10517 H 985.859 2.97559 -0.60765 0
M  V30 10518 H 983.444 1.44922 -0.363019 0
M  V30 10519 H 985.326 3.86549 1.67803 0
M  V30 10520 H 984.001 2.67789 1.81854 0
M  V30 10521 H 982.908 3.73299 -0.244643 0
M  V30 10522 H 984.241 4.91271 -0.302226 0
M  V30 10523 N 985.893 0.34162 1.53853 0
M  V30 10524 C 987.118 -0.259608 2.05769 0
M  V30 10525 C 987.543 -1.43588 1.21507 0
M  V30 10526 O 986.901 -1.79856 0.228364 0
M  V30 10527 C 986.949 -0.654455 3.54611 0
M  V30 10528 O 986.053 -1.75472 3.73207 0
M  V30 10529 H 985.394 -0.0434621 0.662576 0
M  V30 10530 H 987.924 0.495274 1.98515 0
M  V30 10531 H 987.934 -0.932142 3.97209 0
M  V30 10532 H 986.609 0.205779 4.15391 0
M  V30 10533 H 985.186 -1.47444 3.42512 0
M  V30 10534 N 987.371 -1.57444 0.0701946 0
M  V30 10535 C 988.281 -2.16132 -0.912377 0
M  V30 10536 C 989.297 -1.12406 -1.32819 0
M  V30 10537 O 990.473 -1.44665 -1.40121 0
M  V30 10538 C 987.538 -2.71008 -2.16231 0
M  V30 10539 C 986.599 -3.896 -1.80306 0
M  V30 10540 C 985.832 -4.4185 -2.9934 0
M  V30 10541 O 986.055 -3.93106 -4.13309 0
M  V30 10542 O 984.989 -5.33201 -2.7925 0
M  V30 10543 H 988.815 -3.00449 -0.443167 0
M  V30 10544 H 986.4 -1.48617 -0.152786 0
M  V30 10545 H 988.282 -3.06186 -2.8953 0
M  V30 10546 H 986.957 -1.8975 -2.62253 0
M  V30 10547 H 985.864 -3.59277 -1.04264 0
M  V30 10548 H 987.197 -4.72145 -1.39068 0
M  V30 10549 N 988.849 0.203349 -1.56283 0
M  V30 10550 C 990.126 0.950415 -1.70958 0
M  V30 10551 C 990.506 2.01708 -0.622647 0
M  V30 10552 O 989.854 2.25523 0.367635 0
M  V30 10553 C 990.064 1.54434 -3.12971 0
M  V30 10554 C 991.412 2.02964 -3.72949 0
M  V30 10555 O 992.436 1.64293 -3.16048 0
M  V30 10556 O 991.295 2.74097 -4.72793 0
M  V30 10557 H 988.389 0.445154 -0.69697 0
M  V30 10558 H 990.935 0.193695 -1.68591 0
M  V30 10559 H 989.707 0.77505 -3.83547 0
M  V30 10560 H 989.33 2.36611 -3.19532 0
M  V30 10561 N 990.327 1.50405 0.470755 0
M  V30 10562 C 991.604 1.51929 1.23195 0
M  V30 10563 C 991.984 0.264159 2.09441 0
M  V30 10564 O 991.332 -0.752395 2.15757 0
M  V30 10565 C 991.542 2.81521 2.06269 0
M  V30 10566 C 992.89 3.32195 2.64446 0
M  V30 10567 O 993.914 2.82845 2.16511 0
M  V30 10568 O 992.773 4.18221 3.51786 0
M  V30 10569 H 989.867 0.609411 0.559059 0
M  V30 10570 H 992.413 1.62695 0.482549 0
M  V30 10571 H 991.185 3.64346 1.42715 0
M  V30 10572 H 990.808 2.7376 2.88342 0
M  V30 10573 N 991.805 -0.723954 1.39988 0
M  V30 10574 C 993.033 -1.51313 1.4111 0
M  V30 10575 C 993.448 -1.88798 0.00853333 0
M  V30 10576 O 992.805 -1.54868 -0.965516 0
M  V30 10577 C 992.856 -2.79375 2.29416 0
M  V30 10578 O 992.577 -2.43478 3.64211 0
M  V30 10579 C 994.078 -3.7333 2.3904 0
M  V30 10580 H 991.298 -0.46724 0.481589 0
M  V30 10581 H 993.842 -0.893694 1.83938 0
M  V30 10582 H 991.997 -3.37624 1.89971 0
M  V30 10583 H 992.411 -3.25821 4.11024 0
M  V30 10584 H 993.885 -4.60051 3.05053 0
M  V30 10585 H 994.362 -4.15854 1.41289 0
M  V30 10586 H 994.968 -3.20996 2.79001 0
M  V30 10587 N 993.283 -1.25346 -0.955304 0
M  V30 10588 C 994.508 -1.12892 -1.73983 0
M  V30 10589 C 994.933 0.313455 -1.8547 0
M  V30 10590 O 994.291 1.22706 -1.33465 0
M  V30 10591 C 994.339 -1.78729 -3.1319 0
M  V30 10592 O 993.443 -1.06648 -3.98372 0
M  V30 10593 H 992.784 -0.394178 -0.534341 0
M  V30 10594 H 995.314 -1.65897 -1.19747 0
M  V30 10595 H 995.324 -1.84987 -3.63653 0
M  V30 10596 H 993.999 -2.83669 -3.04146 0
M  V30 10597 H 992.576 -1.08266 -3.56837 0
M  V30 10598 N 994.761 1.15782 -1.06922 0
M  V30 10599 C 995.991 1.90079 -0.809545 0
M  V30 10600 C 996.399 1.78028 0.640523 0
M  V30 10601 O 995.742 1.12692 1.45073 0
M  V30 10602 C 995.804 3.41179 -1.13302 0
M  V30 10603 C 995.468 3.77015 -2.5828 0
M  V30 10604 C 996.465 3.78403 -3.56521 0
M  V30 10605 C 994.15 4.07455 -2.93745 0
M  V30 10606 C 996.144 4.09729 -4.88264 0
M  V30 10607 C 993.831 4.38446 -4.25686 0
M  V30 10608 C 994.829 4.39564 -5.22755 0
M  V30 10609 O 994.517 4.69814 -6.52326 0
M  V30 10610 H 994.249 0.609397 -0.292595 0
M  V30 10611 H 996.803 1.47654 -1.42784 0
M  V30 10612 H 995.033 3.83982 -0.457676 0
M  V30 10613 H 996.722 3.96759 -0.856586 0
M  V30 10614 H 997.488 3.54991 -3.30464 0
M  V30 10615 H 993.367 4.05746 -2.1884 0
M  V30 10616 H 996.911 4.10516 -5.64023 0
M  V30 10617 H 992.808 4.61325 -4.51497 0
M  V30 10618 H 993.576 4.87598 -6.57412 0
M  V30 10619 N 996.239 0.8527 1.3254 0
M  V30 10620 C 997.486 0.455123 1.97319 0
M  V30 10621 C 997.814 -0.988814 1.67489 0
M  V30 10622 O 997.069 -1.70845 0.954483 0
M  V30 10623 C 997.368 0.638757 3.51646 0
M  V30 10624 C 997.034 2.05287 4.01458 0
M  V30 10625 C 995.696 2.43963 4.14771 0
M  V30 10626 C 998.048 2.9759 4.27889 0
M  V30 10627 C 995.376 3.7422 4.51859 0
M  V30 10628 C 997.728 4.27343 4.66434 0
M  V30 10629 C 996.392 4.65957 4.77954 0
M  V30 10630 H 995.662 0.166541 0.722042 0
M  V30 10631 H 998.309 1.08238 1.57977 0
M  V30 10632 H 996.614 -0.0717394 3.91734 0
M  V30 10633 H 998.311 0.311219 3.9979 0
M  V30 10634 H 994.901 1.74253 3.91579 0
M  V30 10635 H 999.085 2.68942 4.17114 0
M  V30 10636 H 994.341 4.03923 4.58973 0
M  V30 10637 H 998.515 4.9893 4.85841 0
M  V30 10638 H 996.142 5.66934 5.06449 0
M  V30 10639 N 997.718 -1.45297 0.610449 0
M  V30 10640 C 998.995 -1.95562 0.0386189 0
M  V30 10641 C 999.375 -1.55284 -1.43004 0
M  V30 10642 O 998.723 -0.816785 -2.13403 0
M  V30 10643 C 998.933 -3.48176 0.239731 0
M  V30 10644 C 1000.28 -4.24425 0.122035 0
M  V30 10645 O 1001.3 -3.55794 0.170003 0
M  V30 10646 O 1000.16 -5.46499 0.00953695 0
M  V30 10647 H 997.258 -0.826296 -0.0341081 0
M  V30 10648 H 999.804 -1.55449 0.68071 0
M  V30 10649 H 998.576 -3.70471 1.25963 0
M  V30 10650 H 998.199 -3.95186 -0.437486 0
M  V30 10651 N 999.196 -0.349774 -1.5367 0
M  V30 10652 C 1000.42 0.246038 -2.05432 0
M  V30 10653 C 1000.84 1.43719 -1.22435 0
M  V30 10654 O 1000.2 1.80622 -0.261166 0
M  V30 10655 C 1000.25 0.65501 -3.55516 0
M  V30 10656 O 999.968 -0.488782 -4.35365 0
M  V30 10657 C 1001.47 1.31088 -4.23475 0
M  V30 10658 H 998.689 0.0463952 -0.669394 0
M  V30 10659 H 1001.23 -0.503566 -1.98203 0
M  V30 10660 H 999.388 1.35455 -3.62947 0
M  V30 10661 H 999.802 -0.161528 -5.24251 0
M  V30 10662 H 1001.28 1.54774 -5.29857 0
M  V30 10663 H 1001.75 2.26636 -3.76208 0
M  V30 10664 H 1002.36 0.653211 -4.20254 0
M  V30 10665 N 1000.67 1.57404 -0.0785433 0
M  V30 10666 C 1002.09 1.57158 0.2781 0
M  V30 10667 C 1002.29 1.08847 1.69572 0
M  V30 10668 O 1001.35 0.757407 2.40873 0
M  V30 10669 C 1002.66 3.00589 0.0816067 0
M  V30 10670 C 1004.21 3.12637 0.150627 0
M  V30 10671 C 1004.68 4.57997 -0.0176685 0
M  V30 10672 N 1006.17 4.63185 0.0377145 0
M  V30 10673 C 1006.91 5.7336 -0.0679907 0
M  V30 10674 N 1006.4 6.92426 -0.227598 0
M  V30 10675 N 1008.2 5.62099 -0.0104424 0
M  V30 10676 H 1000.35 1.87121 -1.00496 0
M  V30 10677 H 1002.61 0.862937 -0.392484 0
M  V30 10678 H 1002.32 3.40072 -0.896869 0
M  V30 10679 H 1002.19 3.67931 0.831046 0
M  V30 10680 H 1004.58 2.73037 1.11959 0
M  V30 10681 H 1004.66 2.4792 -0.630028 0
M  V30 10682 H 1004.3 4.98288 -0.983431 0
M  V30 10683 H 1004.23 5.20754 0.782475 0
M  V30 10684 H 1006.72 3.77564 0.159208 0
M  V30 10685 H 1007.04 7.72217 -0.300217 0
M  V30 10686 H 1005.38 6.94502 -0.263049 0
M  V30 10687 H 1008.57 4.67964 0.112999 0
M  V30 10688 H 1008.75 6.47928 -0.0962747 0
M  V30 10689 N 1002.15 -0.195058 1.56388 0
M  V30 10690 C 1003.38 -0.935745 1.85091 0
M  V30 10691 C 1003.8 -1.76061 0.662118 0
M  V30 10692 O 1003.16 -1.77076 -0.389083 0
M  V30 10693 C 1003.21 -1.80764 3.1202 0
M  V30 10694 O 1002.31 -2.90643 2.92575 0
M  V30 10695 H 1001.65 -0.26351 0.609474 0
M  V30 10696 H 1004.18 -0.200362 2.03617 0
M  V30 10697 H 1004.19 -2.21229 3.42815 0
M  V30 10698 H 1002.87 -1.20157 3.98165 0
M  V30 10699 H 1001.44 -2.53934 2.73079 0
M  V30 10700 N 1003.63 -1.50653 -0.462772 0
M  V30 10701 C 1004.91 -1.5258 -1.22387 0
M  V30 10702 C 1005.29 -0.275263 -2.09298 0
M  V30 10703 O 1004.63 0.740943 -2.16153 0
M  V30 10704 C 1004.84 -2.82611 -2.04773 0
M  V30 10705 C 1006.19 -3.33592 -2.62681 0
M  V30 10706 O 1007.22 -2.83989 -2.15008 0
M  V30 10707 O 1006.08 -4.20081 -3.49563 0
M  V30 10708 H 1003.17 -0.612367 -0.55582 0
M  V30 10709 H 1005.72 -1.62948 -0.473914 0
M  V30 10710 H 1004.49 -3.65098 -1.40781 0
M  V30 10711 H 1004.11 -2.75286 -2.86886 0
M  V30 10712 N 1005.11 0.71652 -1.4037 0
M  V30 10713 C 1006.52 1.02447 -1.22379 0
M  V30 10714 C 1006.72 2.0126 -0.0983394 0
M  V30 10715 O 1005.78 2.46569 0.544071 0
M  V30 10716 C 1007.09 1.56909 -2.56515 0
M  V30 10717 C 1008.64 1.68898 -2.6352 0
M  V30 10718 C 1009.12 2.26765 -3.97922 0
M  V30 10719 N 1010.61 2.34152 -3.99658 0
M  V30 10720 C 1011.34 2.79907 -5.00439 0
M  V30 10721 N 1010.84 3.25422 -6.11615 0
M  V30 10722 N 1012.63 2.79283 -4.87809 0
M  V30 10723 H 1004.78 0.0615306 -2.12311 0
M  V30 10724 H 1007.05 0.0898994 -0.943728 0
M  V30 10725 H 1006.75 0.917649 -3.39517 0
M  V30 10726 H 1006.63 2.55446 -2.77538 0
M  V30 10727 H 1009.01 2.33159 -1.8089 0
M  V30 10728 H 1009.09 0.689626 -2.46329 0
M  V30 10729 H 1008.74 1.63126 -4.80991 0
M  V30 10730 H 1008.67 3.27413 -4.12442 0
M  V30 10731 H 1011.16 2.02006 -3.19378 0
M  V30 10732 H 1011.47 3.58899 -6.84406 0
M  V30 10733 H 1009.82 3.23383 -6.15181 0
M  V30 10734 H 1013.01 2.43061 -4.00049 0
M  V30 10735 H 1013.18 3.14626 -5.66493 0
M  V30 10736 N 1006.59 1.25851 0.948643 0
M  V30 10737 C 1007.82 1.13546 1.726 0
M  V30 10738 C 1008.22 -0.312857 1.86595 0
M  V30 10739 O 1007.57 -1.22657 1.36751 0
M  V30 10740 C 1007.63 1.72315 3.15512 0
M  V30 10741 C 1007.29 3.2136 3.24926 0
M  V30 10742 C 1008.29 4.18274 3.08777 0
M  V30 10743 C 1005.98 3.61683 3.48555 0
M  V30 10744 C 1007.97 5.53491 3.16112 0
M  V30 10745 C 1005.66 4.97035 3.55526 0
M  V30 10746 C 1006.65 5.92749 3.3932 0
M  V30 10747 O 1006.34 7.25637 3.45985 0
M  V30 10748 H 1006.07 0.396555 0.547467 0
M  V30 10749 H 1008.63 1.66822 1.19832 0
M  V30 10750 H 1006.86 1.13494 3.6967 0
M  V30 10751 H 1008.55 1.55024 3.7513 0
M  V30 10752 H 1009.31 3.88461 2.90385 0
M  V30 10753 H 1005.19 2.87674 3.60229 0
M  V30 10754 H 1008.74 6.28177 3.0338 0
M  V30 10755 H 1004.63 5.26512 3.73437 0
M  V30 10756 H 1005.4 7.33812 3.62577 0
M  V30 10757 N 1008.06 -1.15214 1.07534 0
M  V30 10758 C 1009.01 -2.18022 0.667108 0
M  V30 10759 C 1010 -1.57911 -0.308714 0
M  V30 10760 O 1011.19 -1.76578 -0.122147 0
M  V30 10761 C 1008.32 -3.43232 0.0684348 0
M  V30 10762 C 1007.41 -4.10393 1.06951 0
M  V30 10763 N 1007.8 -4.53013 2.24973 0
M  V30 10764 C 1006.09 -4.36758 0.903262 0
M  V30 10765 C 1006.8 -5.05118 2.88498 0
M  V30 10766 N 1005.77 -4.98777 2.16153 0
M  V30 10767 H 1009.57 -2.48706 1.56597 0
M  V30 10768 H 1007.09 -1.31801 0.948796 0
M  V30 10769 H 1009.08 -4.16197 -0.241934 0
M  V30 10770 H 1007.74 -3.14031 -0.825525 0
M  V30 10771 H 1008.76 -4.4634 2.6268 0
M  V30 10772 H 1005.43 -4.17453 0.0623543 0
M  V30 10773 H 1006.82 -5.48039 3.8872 0
M  V30 10774 N 1009.54 -0.859717 -1.32086 0
M  V30 10775 C 1010.49 -0.279715 -2.26278 0
M  V30 10776 C 1011.48 0.577348 -1.50185 0
M  V30 10777 O 1012.67 0.425903 -1.71799 0
M  V30 10778 C 1009.8 0.526622 -3.39237 0
M  V30 10779 C 1008.88 -0.343112 -4.2271 0
M  V30 10780 N 1009.27 -1.43176 -4.85113 0
M  V30 10781 C 1007.57 -0.133744 -4.45799 0
M  V30 10782 C 1008.27 -1.96725 -5.47425 0
M  V30 10783 N 1007.25 -1.26569 -5.2866 0
M  V30 10784 H 1011.05 -1.11191 -2.72055 0
M  V30 10785 H 1008.57 -0.706372 -1.46233 0
M  V30 10786 H 1010.56 0.958587 -4.0573 0
M  V30 10787 H 1009.22 1.35655 -2.95005 0
M  V30 10788 H 1010.23 -1.81469 -4.85066 0
M  V30 10789 H 1006.91 0.661064 -4.12233 0
M  V30 10790 H 1008.3 -2.88006 -6.07044 0
M  V30 10791 N 1011.02 1.44971 -0.618145 0
M  V30 10792 C 1012.27 2.02458 -0.117656 0
M  V30 10793 C 1012.6 1.48413 1.25248 0
M  V30 10794 O 1011.87 0.662997 1.82851 0
M  V30 10795 C 1012.16 3.59987 -0.0901897 0
M  V30 10796 C 1012.01 4.24343 -1.49175 0
M  V30 10797 C 1013.33 4.36099 0.592121 0
M  V30 10798 H 1010.45 0.735672 -0.0442291 0
M  V30 10799 H 1013.09 1.727 -0.792138 0
M  V30 10800 H 1011.24 3.85471 0.484175 0
M  V30 10801 H 1012.91 4.10009 -2.114 0
M  V30 10802 H 1011.16 3.82337 -2.04941 0
M  V30 10803 H 1011.83 5.33298 -1.42468 0
M  V30 10804 H 1014.3 4.1597 0.103813 0
M  V30 10805 H 1013.18 5.45822 0.580481 0
M  V30 10806 H 1013.44 4.09746 1.66015 0
M  V30 10807 N 1012.5 0.357919 1.53482 0
M  V30 10808 C 1013.45 -0.507364 2.26999 0
M  V30 10809 C 1014.44 -1.08987 1.29685 0
M  V30 10810 O 1015.65 -1.03396 1.47341 0
M  V30 10811 H 1012.02 -0.182326 0.729562 0
M  V30 10812 H 1013.99 0.134547 2.98097 0
M  V30 10813 C 1012.74 -1.63911 3.06641 0
M  V30 10814 H 1012.06 -1.20017 3.81361 0
M  V30 10815 H 1013.5 -2.21943 3.61272 0
M  V30 10816 C 1011.96 -2.57697 2.17011 0
M  V30 10817 O 1012.49 -3.60318 1.77578 0
M  V30 10818 N 1010.7 -2.2671 1.818 0
M  V30 10819 H 1010.25 -1.43296 2.14065 0
M  V30 10820 H 1010.2 -2.89716 1.22115 0
M  V30 10821 N 1013.98 -1.5736 0.0868897 0
M  V30 10822 C 1015.2 -1.98809 -0.590757 0
M  V30 10823 C 1015.63 -0.965407 -1.61436 0
M  V30 10824 O 1014.98 0.067143 -1.81176 0
M  V30 10825 C 1015.03 -3.39249 -1.22238 0
M  V30 10826 O 1014.14 -3.39706 -2.33824 0
M  V30 10827 H 1013.48 -0.64669 -0.150626 0
M  V30 10828 H 1016.01 -2.03927 0.165873 0
M  V30 10829 H 1016.02 -3.76765 -1.56564 0
M  V30 10830 H 1014.69 -4.13208 -0.472434 0
M  V30 10831 H 1013.27 -3.13977 -2.01178 0
M  V30 10832 N 1015.45 0.186762 -1.56489 0
M  V30 10833 C 1016.68 0.920495 -1.84961 0
M  V30 10834 C 1017.09 1.77004 -0.668297 0
M  V30 10835 O 1016.44 1.79891 0.37213 0
M  V30 10836 C 1016.5 1.85997 -3.07645 0
M  V30 10837 C 1016.16 1.19156 -4.41193 0
M  V30 10838 C 1017.16 0.564446 -5.16827 0
M  V30 10839 C 1014.84 1.19292 -4.87929 0
M  V30 10840 C 1016.84 -0.0523768 -6.37378 0
M  V30 10841 C 1014.52 0.572266 -6.08415 0
M  V30 10842 C 1015.52 -0.049294 -6.82982 0
M  V30 10843 O 1015.21 -0.660201 -8.01184 0
M  V30 10844 H 1014.94 0.273659 -0.618132 0
M  V30 10845 H 1017.5 0.196437 -2.04459 0
M  V30 10846 H 1015.73 2.62394 -2.84053 0
M  V30 10847 H 1017.42 2.46221 -3.22692 0
M  V30 10848 H 1018.18 0.555474 -4.81809 0
M  V30 10849 H 1014.06 1.66611 -4.29839 0
M  V30 10850 H 1017.6 -0.538133 -6.95521 0
M  V30 10851 H 1013.5 0.578769 -6.429 0
M  V30 10852 H 1014.27 -0.557926 -8.16596 0
M  V30 10853 N 1016.93 1.50896 0.454776 0
M  V30 10854 C 1018.21 1.53227 1.21576 0
M  V30 10855 C 1018.59 0.286358 2.09149 0
M  V30 10856 O 1017.94 -0.729469 2.16543 0
M  V30 10857 C 1018.15 2.83693 2.03271 0
M  V30 10858 C 1019.5 3.34981 2.60908 0
M  V30 10859 O 1020.52 2.85126 2.13499 0
M  V30 10860 O 1019.38 4.21929 3.4733 0
M  V30 10861 H 1016.47 0.615306 0.552564 0
M  V30 10862 H 1019.02 1.63197 0.465266 0
M  V30 10863 H 1017.79 3.65839 1.38843 0
M  V30 10864 H 1017.41 2.76803 2.85422 0
M  V30 10865 N 1018.41 -0.709066 1.40748 0
M  V30 10866 C 1019.32 -1.85314 1.43861 0
M  V30 10867 C 1020.34 -1.70832 0.330539 0
M  V30 10868 O 1021.51 -1.92983 0.576152 0
M  V30 10869 C 1018.58 -3.21174 1.30568 0
M  V30 10870 C 1017.64 -3.47863 2.51574 0
M  V30 10871 C 1016.87 -4.77241 2.38906 0
M  V30 10872 O 1017.09 -5.52791 1.40636 0
M  V30 10873 O 1016.03 -5.04413 3.28407 0
M  V30 10874 H 1019.85 -1.85644 2.40354 0
M  V30 10875 H 1017.44 -0.860352 1.2214 0
M  V30 10876 H 1019.32 -4.02313 1.25388 0
M  V30 10877 H 1018 -3.21557 0.371841 0
M  V30 10878 H 1016.9 -2.66708 2.62331 0
M  V30 10879 H 1018.24 -3.52283 3.43741 0
M  V30 10880 N 1019.89 -1.26353 -0.941956 0
M  V30 10881 C 1021.17 -1.02601 -1.6653 0
M  V30 10882 C 1021.55 0.44381 -2.06382 0
M  V30 10883 O 1020.89 1.42399 -1.78703 0
M  V30 10884 C 1021.1 -1.97401 -2.87809 0
M  V30 10885 C 1022.45 -2.25967 -3.59478 0
M  V30 10886 O 1023.48 -1.95261 -2.97912 0
M  V30 10887 O 1022.34 -2.78244 -4.70364 0
M  V30 10888 H 1019.43 -0.39007 -0.729228 0
M  V30 10889 H 1021.98 -1.37559 -0.993754 0
M  V30 10890 H 1020.75 -2.9659 -2.55245 0
M  V30 10891 H 1020.37 -1.62918 -3.62689 0
M  V30 10892 N 1021.37 1.14642 -1.08144 0
M  V30 10893 C 1022.64 1.81774 -0.72232 0
M  V30 10894 C 1023.02 1.95587 0.794294 0
M  V30 10895 O 1022.37 1.51361 1.71178 0
M  V30 10896 C 1022.58 3.1763 -1.44611 0
M  V30 10897 C 1023.93 3.93161 -1.60343 0
M  V30 10898 O 1024.95 3.2721 -1.40755 0
M  V30 10899 O 1023.81 5.11422 -1.9264 0
M  V30 10900 H 1020.91 0.785733 -0.257978 0
M  V30 10901 H 1023.45 1.21683 -1.18285 0
M  V30 10902 H 1022.23 3.02723 -2.4794 0
M  V30 10903 H 1021.85 3.85412 -0.976892 0
M  V30 10904 N 1022.85 0.866709 1.31628 0
M  V30 10905 C 1024.07 0.49039 2.01004 0
M  V30 10906 C 1024.49 -0.916244 1.65077 0
M  V30 10907 O 1023.85 -1.59975 0.8783 0
M  V30 10908 C 1023.9 0.634011 3.55897 0
M  V30 10909 O 1023.62 1.98525 3.90537 0
M  V30 10910 C 1025.12 0.258277 4.42547 0
M  V30 10911 H 1022.34 0.191421 0.643117 0
M  V30 10912 H 1024.88 1.16698 1.67934 0
M  V30 10913 H 1023.04 0.00501801 3.874 0
M  V30 10914 H 1023.45 1.99067 4.85255 0
M  V30 10915 H 1024.93 0.409733 5.50477 0
M  V30 10916 H 1025.4 -0.802301 4.3181 0
M  V30 10917 H 1026.01 0.862837 4.16456 0
M  V30 10918 N 1024.32 -1.44642 0.625825 0
M  V30 10919 C 1025.55 -2.06458 0.135116 0
M  V30 10920 C 1025.97 -1.46729 -1.18811 0
M  V30 10921 O 1025.32 -0.58818 -1.72762 0
M  V30 10922 C 1025.37 -3.61499 0.00850114 0
M  V30 10923 O 1025.1 -4.19002 1.2794 0
M  V30 10924 C 1026.6 -4.40339 -0.511527 0
M  V30 10925 H 1023.82 -0.666541 0.0772294 0
M  V30 10926 H 1026.36 -1.85597 0.858726 0
M  V30 10927 H 1024.52 -3.81641 -0.665522 0
M  V30 10928 H 1024.93 -5.12385 1.12081 0
M  V30 10929 H 1026.4 -5.49262 -0.549149 0
M  V30 10930 H 1026.88 -4.11409 -1.53752 0
M  V30 10931 H 1027.49 -4.25104 0.129066 0
M  V30 10932 N 1025.8 -0.366053 -1.5329 0
M  V30 10933 C 1026.71 0.488111 -2.29466 0
M  V30 10934 C 1027.73 1.09219 -1.35452 0
M  V30 10935 O 1028.9 1.10303 -1.68509 0
M  V30 10936 C 1025.97 1.61202 -3.06944 0
M  V30 10937 C 1025.03 1.03543 -4.16626 0
M  V30 10938 C 1024.26 2.10578 -4.904 0
M  V30 10939 O 1024.49 3.31697 -4.6404 0
M  V30 10940 O 1023.42 1.73609 -5.76319 0
M  V30 10941 H 1027.25 -0.131789 -3.03414 0
M  V30 10942 H 1024.83 -0.130421 -1.4883 0
M  V30 10943 H 1026.71 2.26546 -3.55324 0
M  V30 10944 H 1025.39 2.21732 -2.35832 0
M  V30 10945 H 1024.29 0.345892 -3.72498 0
M  V30 10946 H 1025.63 0.474687 -4.89906 0
M  V30 10947 N 1027.28 1.57312 -0.0952337 0
M  V30 10948 C 1028.19 2.17556 0.877877 0
M  V30 10949 C 1029.21 1.14505 1.31014 0
M  V30 10950 O 1030.38 1.46876 1.37802 0
M  V30 10951 C 1027.45 2.74413 2.11892 0
M  V30 10952 C 1026.51 3.92419 1.74085 0
M  V30 10953 C 1025.74 4.46556 2.92273 0
M  V30 10954 O 1025.96 3.99631 4.07002 0
M  V30 10955 O 1024.9 5.37576 2.70732 0
M  V30 10956 H 1028.72 3.01116 0.395312 0
M  V30 10957 H 1026.31 1.48841 0.129123 0
M  V30 10958 H 1028.19 3.10754 2.84622 0
M  V30 10959 H 1026.87 1.93899 2.59201 0
M  V30 10960 H 1025.77 3.6089 0.985346 0
M  V30 10961 H 1027.11 4.74298 1.31539 0
M  V30 10962 N 1028.76 -0.17846 1.56586 0
M  V30 10963 C 1029.67 -1.24115 1.9908 0
M  V30 10964 C 1030.68 -1.48854 0.901031 0
M  V30 10965 O 1031.86 -1.61142 1.2081 0
M  V30 10966 C 1028.92 -2.56187 2.33601 0
M  V30 10967 C 1027.99 -2.39373 3.56369 0
M  V30 10968 C 1027.22 -3.65147 3.89234 0
M  V30 10969 O 1027.44 -4.70024 3.23162 0
M  V30 10970 O 1026.38 -3.59683 4.82609 0
M  V30 10971 H 1030.2 -0.910482 2.89731 0
M  V30 10972 H 1027.79 -0.38477 1.4436 0
M  V30 10973 H 1029.67 -3.34109 2.56806 0
M  V30 10974 H 1028.34 -2.88847 1.46113 0
M  V30 10975 H 1027.25 -1.59506 3.38391 0
M  V30 10976 H 1028.58 -2.1164 4.44375 0
M  V30 10977 N 1030.24 -1.51135 -0.446768 0
M  V30 10978 C 1031.65 -1.55919 -1.02694 0
M  V30 10979 C 1032 -0.377038 -1.92543 0
M  V30 10980 O 1031.12 0.507295 -2.1037 0
M  V30 10981 C 1031.72 -2.8257 -1.86922 0
M  V30 10982 C 1030.28 -2.89956 -2.40005 0
M  V30 10983 C 1029.42 -2.50482 -1.18971 0
M  V30 10984 H 1032.37 -1.57048 -0.228403 0
M  V30 10985 H 1032.4 -2.65799 -2.7227 0
M  V30 10986 H 1031.91 -3.6859 -1.21502 0
M  V30 10987 H 1030.01 -2.08343 -3.08907 0
M  V30 10988 H 1030.12 -3.93399 -2.73448 0
M  V30 10989 H 1028.49 -2.03466 -1.53211 0
M  V30 10990 H 1029.27 -3.38837 -0.551762 0
M  V30 10991 N 1031.71 0.701592 -1.41122 0
M  V30 10992 C 1032.96 1.46376 -1.40363 0
M  V30 10993 C 1033.29 1.94197 -0.0105442 0
M  V30 10994 O 1032.57 1.69121 0.960637 0
M  V30 10995 C 1032.85 2.67994 -2.40523 0
M  V30 10996 C 1032.7 2.25977 -3.88914 0
M  V30 10997 C 1034.02 3.70181 -2.38022 0
M  V30 10998 H 1031.14 0.530929 -0.511159 0
M  V30 10999 H 1033.78 0.799588 -1.72356 0
M  V30 11000 H 1031.93 3.24661 -2.13372 0
M  V30 11001 H 1033.61 1.74684 -4.26946 0
M  V30 11002 H 1031.85 1.57826 -4.04071 0
M  V30 11003 H 1032.52 3.13215 -4.54533 0
M  V30 11004 H 1035 3.23174 -2.62103 0
M  V30 11005 H 1033.87 4.52894 -3.10127 0
M  V30 11006 H 1034.13 4.19458 -1.3967 0
M  V30 11007 N 1033.19 1.2685 0.935242 0
M  V30 11008 C 1034.1 1.10716 2.06831 0
M  V30 11009 C 1035.12 0.0391222 1.73956 0
M  V30 11010 O 1036.29 0.244071 1.99916 0
M  V30 11011 C 1033.36 0.748093 3.38533 0
M  V30 11012 C 1032.42 1.89619 3.85153 0
M  V30 11013 C 1031.65 1.55416 5.1057 0
M  V30 11014 O 1031.88 0.458596 5.68553 0
M  V30 11015 O 1030.81 2.39087 5.52378 0
M  V30 11016 H 1034.64 2.05785 2.23352 0
M  V30 11017 H 1032.22 1.05967 1.05315 0
M  V30 11018 H 1034.1 0.560841 4.17651 0
M  V30 11019 H 1032.78 -0.173142 3.23237 0
M  V30 11020 H 1031.68 2.13845 3.06954 0
M  V30 11021 H 1033.02 2.79737 4.04979 0
M  V30 11022 N 1034.67 -1.14067 1.0875 0
M  V30 11023 C 1035.92 -1.84535 0.814235 0
M  V30 11024 C 1036.23 -1.84044 -0.662355 0
M  V30 11025 O 1037.44 -2.50336 -1.05091 0
M  V30 11026 C 1035.89 -3.31273 1.40663 0
M  V30 11027 C 1035.5 -3.40171 2.91526 0
M  V30 11028 C 1037.25 -4.0683 1.21201 0
M  V30 11029 C 1035.15 -4.81141 3.43885 0
M  V30 11030 H 1034.08 -0.691346 0.300926 0
M  V30 11031 H 1036.73 -1.28562 1.30935 0
M  V30 11032 H 1035.12 -3.87005 0.839215 0
M  V30 11033 H 1036.29 -2.94471 3.54434 0
M  V30 11034 H 1034.61 -2.78073 3.09942 0
M  V30 11035 H 1037.2 -5.10891 1.57781 0
M  V30 11036 H 1037.55 -4.16022 0.152092 0
M  V30 11037 H 1038.08 -3.57408 1.74655 0
M  V30 11038 H 1034.82 -4.77138 4.49466 0
M  V30 11039 H 1034.34 -5.27365 2.85738 0
M  V30 11040 H 1036.02 -5.50042 3.40681 0
M  V30 11041 N 1036.15 -0.873678 -1.31166 0
M  V30 11042 C 1037.56 -0.566109 -1.49223 0
M  V30 11043 C 1037.76 0.898889 -1.80339 0
M  V30 11044 O 1036.82 1.68084 -1.88425 0
M  V30 11045 C 1038.13 -1.46952 -2.62346 0
M  V30 11046 C 1039.68 -1.47195 -2.76229 0
M  V30 11047 C 1040.16 -2.36102 -3.92454 0
M  V30 11048 N 1041.65 -2.34003 -3.99746 0
M  V30 11049 C 1042.38 -2.99513 -4.88958 0
M  V30 11050 N 1041.88 -3.74206 -5.83045 0
M  V30 11051 N 1043.67 -2.88802 -4.82234 0
M  V30 11052 H 1035.82 -1.82156 -1.09239 0
M  V30 11053 H 1038.09 -0.779086 -0.54012 0
M  V30 11054 H 1037.79 -2.51213 -2.4614 0
M  V30 11055 H 1037.67 -1.17077 -3.5857 0
M  V30 11056 H 1040.05 -0.436902 -2.91848 0
M  V30 11057 H 1040.13 -1.81095 -1.80661 0
M  V30 11058 H 1039.78 -3.39685 -3.77593 0
M  V30 11059 H 1039.71 -1.99524 -4.87337 0
M  V30 11060 H 1042.2 -1.79713 -3.32433 0
M  V30 11061 H 1042.51 -4.21312 -6.47855 0
M  V30 11062 H 1040.86 -3.78314 -5.83012 0
M  V30 11063 H 1044.05 -2.29984 -4.07707 0
M  V30 11064 H 1044.22 -3.40136 -5.51554 0
M  V30 11065 N 1037.63 1.44308 -0.633487 0
M  V30 11066 C 1038.56 2.28943 0.108474 0
M  V30 11067 C 1039.57 1.41415 0.806582 0
M  V30 11068 O 1040.76 1.65544 0.667634 0
M  V30 11069 C 1037.86 3.17845 1.1759 0
M  V30 11070 C 1037.03 4.33802 0.559842 0
M  V30 11071 C 1036.09 5.03722 1.52154 0
M  V30 11072 O 1035.12 5.5966 1.03776 0
M  V30 11073 N 1036.32 5.05392 2.85586 0
M  V30 11074 H 1039.09 2.93262 -0.617879 0
M  V30 11075 H 1036.65 1.54781 -0.474819 0
M  V30 11076 H 1038.64 3.61485 1.81963 0
M  V30 11077 H 1037.21 2.55261 1.80445 0
M  V30 11078 H 1036.43 3.93325 -0.262559 0
M  V30 11079 H 1037.72 5.08637 0.128942 0
M  V30 11080 H 1037.11 4.61282 3.27468 0
M  V30 11081 H 1035.67 5.52813 3.45313 0
M  V30 11082 N 1039.1 0.374177 1.53094 0
M  V30 11083 C 1040.35 -0.212816 2.01379 0
M  V30 11084 C 1040.68 -1.48069 1.26118 0
M  V30 11085 O 1039.93 -1.92625 0.345561 0
M  V30 11086 C 1040.23 -0.542179 3.53264 0
M  V30 11087 C 1039.9 0.632375 4.46444 0
M  V30 11088 C 1038.56 0.954635 4.71636 0
M  V30 11089 C 1040.91 1.41887 5.01515 0
M  V30 11090 C 1038.24 2.06521 5.4915 0
M  V30 11091 C 1040.59 2.51993 5.80243 0
M  V30 11092 C 1039.26 2.84744 6.03719 0
M  V30 11093 H 1038.53 -0.0778749 0.736897 0
M  V30 11094 H 1041.17 0.508412 1.84628 0
M  V30 11095 H 1039.48 -1.34454 3.68007 0
M  V30 11096 H 1041.18 -1.00874 3.88105 0
M  V30 11097 H 1037.77 0.371179 4.2699 0
M  V30 11098 H 1041.95 1.18315 4.81991 0
M  V30 11099 H 1037.21 2.32284 5.65557 0
M  V30 11100 H 1041.38 3.13346 6.21922 0
M  V30 11101 H 1039.01 3.70921 6.63568 0
M  V30 11102 N 1040.58 -1.57259 0.103575 0
M  V30 11103 C 1041.81 -1.99424 -0.569638 0
M  V30 11104 C 1042.23 -0.982475 -1.60403 0
M  V30 11105 O 1041.59 0.0479231 -1.81237 0
M  V30 11106 C 1041.64 -3.40527 -1.18633 0
M  V30 11107 O 1040.74 -3.42167 -2.30208 0
M  V30 11108 H 1040.08 -0.648251 -0.143759 0
M  V30 11109 H 1042.61 -2.03739 0.187493 0
M  V30 11110 H 1042.62 -3.78404 -1.5256 0
M  V30 11111 H 1041.3 -4.13686 -0.428582 0
M  V30 11112 H 1039.88 -3.16093 -1.97837 0
M  V30 11113 N 1042.06 0.170153 -1.56679 0
M  V30 11114 C 1043.29 0.90618 -1.86556 0
M  V30 11115 C 1043.71 1.74986 -0.690044 0
M  V30 11116 O 1043.07 1.77672 0.360862 0
M  V30 11117 C 1043.12 1.75777 -3.14857 0
M  V30 11118 O 1042.22 2.85952 -2.97162 0
M  V30 11119 H 1041.56 0.253781 -0.613589 0
M  V30 11120 H 1044.09 0.167943 -2.0391 0
M  V30 11121 H 1044.1 2.15747 -3.46291 0
M  V30 11122 H 1042.78 1.13807 -4.00026 0
M  V30 11123 H 1041.35 2.49557 -2.77084 0
M  V30 11124 N 1043.54 1.5137 0.438746 0
M  V30 11125 C 1044.78 1.65627 1.19779 0
M  V30 11126 C 1045.14 0.363885 1.8852 0
M  V30 11127 O 1046.34 0.382215 2.66069 0
M  V30 11128 C 1044.61 2.82536 2.18879 0
M  V30 11129 S 1046.17 3.17113 3.0329 0
M  V30 11130 H 1042.99 0.583535 0.406212 0
M  V30 11131 H 1045.59 1.89271 0.489582 0
M  V30 11132 H 1044.3 3.74879 1.67015 0
M  V30 11133 H 1043.83 2.61077 2.94283 0
M  V30 11134 H 1045.84 2.63439 4.20493 0
M  V30 11135 N 1045.02 -0.694098 1.41492 0
M  V30 11136 C 1046.24 -1.48789 1.44488 0
M  V30 11137 C 1046.67 -1.88028 0.0521588 0
M  V30 11138 O 1046.02 -1.54727 -0.944952 0
M  V30 11139 C 1046.07 -2.72586 2.3607 0
M  V30 11140 O 1045.18 -3.70128 1.81876 0
M  V30 11141 H 1044.52 -0.447758 0.490315 0
M  V30 11142 H 1047.05 -0.853036 1.85969 0
M  V30 11143 H 1047.06 -3.20877 2.51995 0
M  V30 11144 H 1045.73 -2.43363 3.37264 0
M  V30 11145 H 1044.31 -3.29069 1.75408 0
M  V30 11146 N 1046.49 -1.27344 -0.928501 0
M  V30 11147 C 1047.91 -1.12361 -1.49103 0
M  V30 11148 C 1048.26 0.291667 -1.9402 0
M  V30 11149 O 1047.38 1.18449 -1.81104 0
M  V30 11150 C 1047.98 -2.03358 -2.70981 0
M  V30 11151 C 1046.54 -1.92483 -3.23461 0
M  V30 11152 C 1045.68 -1.95961 -1.962 0
M  V30 11153 H 1048.63 -1.40249 -0.742689 0
M  V30 11154 H 1048.65 -1.58892 -3.45736 0
M  V30 11155 H 1048.17 -3.06356 -2.38259 0
M  V30 11156 H 1046.27 -0.924676 -3.60944 0
M  V30 11157 H 1046.38 -2.78682 -3.89709 0
M  V30 11158 H 1044.74 -1.40175 -2.12657 0
M  V30 11159 H 1045.53 -3.00612 -1.65793 0
M  V30 11160 N 1047.97 1.13488 -1.09353 0
M  V30 11161 C 1049.39 1.36739 -0.823086 0
M  V30 11162 C 1049.59 1.93476 0.562963 0
M  V30 11163 O 1048.64 2.15374 1.31796 0
M  V30 11164 C 1049.96 2.31943 -1.91371 0
M  V30 11165 C 1051.51 2.4556 -1.94085 0
M  V30 11166 C 1051.98 3.44072 -3.02289 0
M  V30 11167 N 1053.47 3.51622 -3.01524 0
M  V30 11168 C 1054.21 4.27724 -3.8189 0
M  V30 11169 N 1053.7 5.06987 -4.72161 0
M  V30 11170 N 1055.5 4.23018 -3.70152 0
M  V30 11171 H 1047.65 0.75012 -1.98713 0
M  V30 11172 H 1049.91 0.392564 -0.862901 0
M  V30 11173 H 1049.62 1.97408 -2.91072 0
M  V30 11174 H 1049.49 3.31952 -1.79131 0
M  V30 11175 H 1051.88 2.79382 -0.950234 0
M  V30 11176 H 1051.96 1.45479 -2.10403 0
M  V30 11177 H 1051.6 3.10981 -4.01564 0
M  V30 11178 H 1051.53 4.43956 -2.83214 0
M  V30 11179 H 1054.02 2.95066 -2.36103 0
M  V30 11180 H 1054.34 5.6236 -5.30067 0
M  V30 11181 H 1052.68 5.06222 -4.76197 0
M  V30 11182 H 1055.87 3.60171 -2.98989 0
M  V30 11183 H 1056.04 4.82075 -4.33022 0
M  V30 11184 N 1049.45 0.880621 1.30701 0
M  V30 11185 C 1050.7 0.496875 1.96309 0
M  V30 11186 C 1051.03 -0.953064 1.69549 0
M  V30 11187 O 1050.28 -1.68782 0.990507 0
M  V30 11188 C 1050.58 0.713203 3.50212 0
M  V30 11189 C 1050.25 2.13756 3.97013 0
M  V30 11190 C 1048.91 2.52706 4.09503 0
M  V30 11191 C 1051.26 3.066 4.21481 0
M  V30 11192 C 1048.59 3.8372 4.43819 0
M  V30 11193 C 1050.94 4.3714 4.57265 0
M  V30 11194 C 1049.6 4.7599 4.67963 0
M  V30 11195 H 1048.87 0.18182 0.718347 0
M  V30 11196 H 1051.52 1.11564 1.55646 0
M  V30 11197 H 1049.83 0.0113694 3.91798 0
M  V30 11198 H 1051.52 0.39595 3.9904 0
M  V30 11199 H 1048.11 1.8252 3.87794 0
M  V30 11200 H 1052.3 2.77729 4.11315 0
M  V30 11201 H 1047.55 4.13568 4.50301 0
M  V30 11202 H 1051.73 5.09123 4.75149 0
M  V30 11203 H 1049.35 5.77549 4.94309 0
M  V30 11204 N 1050.93 -1.4397 0.641131 0
M  V30 11205 C 1052.15 -2.06818 0.155318 0
M  V30 11206 C 1052.58 -1.47665 -1.16519 0
M  V30 11207 O 1051.94 -0.58192 -1.71707 0
M  V30 11208 C 1051.99 -3.60542 0.0647537 0
M  V30 11209 O 1051.09 -4.00674 -0.976447 0
M  V30 11210 H 1050.43 -0.657962 0.0893404 0
M  V30 11211 H 1052.96 -1.84678 0.88064 0
M  V30 11212 H 1052.97 -4.07816 -0.122552 0
M  V30 11213 H 1051.65 -4.02975 1.02878 0
M  V30 11214 H 1050.22 -3.65013 -0.762905 0
M  V30 11215 N 1052.41 -0.382291 -1.52893 0
M  V30 11216 C 1053.35 0.456234 -2.26246 0
M  V30 11217 C 1054.32 1.06366 -1.27575 0
M  V30 11218 O 1055.51 1.09301 -1.5639 0
M  V30 11219 C 1052.65 1.5813 -3.06739 0
M  V30 11220 C 1051.76 0.997416 -4.20328 0
M  V30 11221 C 1050.9 2.09296 -4.8823 0
M  V30 11222 C 1049.94 1.4846 -5.93823 0
M  V30 11223 N 1049.07 2.51916 -6.55349 0
M  V30 11224 H 1053.91 -0.175761 -2.97481 0
M  V30 11225 H 1051.45 -0.0985046 -1.4677 0
M  V30 11226 H 1053.41 2.24426 -3.51694 0
M  V30 11227 H 1052.04 2.18371 -2.37727 0
M  V30 11228 H 1051.09 0.224251 -3.79738 0
M  V30 11229 H 1052.4 0.512784 -4.96157 0
M  V30 11230 H 1051.56 2.83377 -5.36453 0
M  V30 11231 H 1050.3 2.61116 -4.1191 0
M  V30 11232 H 1049.3 0.729001 -5.44946 0
M  V30 11233 H 1050.53 0.97443 -6.72073 0
M  V30 11234 H 1048.47 3.02919 -5.81873 0
M  V30 11235 H 1048.39 2.08188 -7.26769 0
M  V30 11236 H 1049.66 3.25649 -7.08218 0
M  V30 11237 N 1053.89 1.57202 -0.111913 0
M  V30 11238 C 1055.13 1.95239 0.548607 0
M  V30 11239 C 1055.46 0.994897 1.6678 0
M  V30 11240 O 1054.74 0.0308603 1.94476 0
M  V30 11241 C 1055.02 3.43271 1.08798 0
M  V30 11242 C 1054.88 4.49792 -0.0273064 0
M  V30 11243 C 1056.19 3.92989 1.98109 0
M  V30 11244 H 1053.31 0.709919 0.197951 0
M  V30 11245 H 1055.96 1.89087 -0.186036 0
M  V30 11246 H 1054.11 3.48644 1.71404 0
M  V30 11247 H 1055.78 4.56521 -0.662302 0
M  V30 11248 H 1054.02 4.28254 -0.691426 0
M  V30 11249 H 1054.69 5.50612 0.391201 0
M  V30 11250 H 1057.17 3.89875 1.45385 0
M  V30 11251 H 1056.04 4.97101 2.32769 0
M  V30 11252 H 1056.3 3.33267 2.90492 0
M  V30 11253 N 1055.36 -0.161842 1.56767 0
M  V30 11254 C 1056.59 -0.890953 1.86402 0
M  V30 11255 C 1057 -1.75918 0.696373 0
M  V30 11256 O 1056.34 -1.80461 -0.343463 0
M  V30 11257 C 1056.41 -1.81079 3.10565 0
M  V30 11258 C 1056.07 -1.12121 4.43032 0
M  V30 11259 C 1057.07 -0.482152 5.17659 0
M  V30 11260 C 1054.75 -1.11514 4.89765 0
M  V30 11261 C 1056.75 0.153772 6.37214 0
M  V30 11262 C 1054.43 -0.4754 6.09248 0
M  V30 11263 C 1055.43 0.157944 6.82817 0
M  V30 11264 O 1055.12 0.787579 8.00033 0
M  V30 11265 H 1054.85 -0.26379 0.622407 0
M  V30 11266 H 1057.41 -0.163884 2.04745 0
M  V30 11267 H 1055.64 -2.57842 2.88192 0
M  V30 11268 H 1057.32 -2.41056 3.26568 0
M  V30 11269 H 1058.09 -0.478752 4.82631 0
M  V30 11270 H 1053.97 -1.59752 4.32435 0
M  V30 11271 H 1057.51 0.648716 6.94577 0
M  V30 11272 H 1053.41 -0.476416 6.43739 0
M  V30 11273 H 1054.18 0.687769 8.15605 0
M  V30 11274 N 1056.84 -1.516 -0.430713 0
M  V30 11275 C 1058.07 -1.687 -1.20644 0
M  V30 11276 C 1058.49 -0.386555 -1.84085 0
M  V30 11277 O 1057.85 0.653952 -1.69095 0
M  V30 11278 C 1057.9 -2.80887 -2.2613 0
M  V30 11279 O 1057 -2.44952 -3.31772 0
M  V30 11280 H 1056.34 -0.562289 -0.353167 0
M  V30 11281 H 1058.87 -1.98198 -0.507807 0
M  V30 11282 H 1058.88 -3.05167 -2.70809 0
M  V30 11283 H 1057.56 -3.75249 -1.79334 0
M  V30 11284 H 1056.13 -2.31267 -2.92523 0
M  V30 11285 N 1058.32 0.686584 -1.41858 0
M  V30 11286 C 1059.54 1.4802 -1.45275 0
M  V30 11287 C 1059.97 1.87997 -0.0621297 0
M  V30 11288 O 1059.33 1.55226 0.936733 0
M  V30 11289 C 1059.38 2.7133 -2.37513 0
M  V30 11290 O 1058.48 3.69159 -1.83836 0
M  V30 11291 H 1057.82 0.445152 -0.492682 0
M  V30 11292 H 1060.35 0.843161 -1.86419 0
M  V30 11293 H 1060.36 3.19537 -2.53693 0
M  V30 11294 H 1059.04 2.41571 -3.3855 0
M  V30 11295 H 1057.61 3.28134 -1.77151 0
M  V30 11296 N 1059.8 1.27835 0.921735 0
M  V30 11297 C 1060.73 1.05397 2.02402 0
M  V30 11298 C 1061.71 -0.0274904 1.62577 0
M  V30 11299 O 1062.89 0.11885 1.88125 0
M  V30 11300 C 1060.02 0.600016 3.33343 0
M  V30 11301 C 1059.07 1.67693 3.9215 0
M  V30 11302 S 1059.9 3.27093 4.23994 0
M  V30 11303 C 1061.05 2.83513 5.58006 0
M  V30 11304 H 1061.29 1.98723 2.21125 0
M  V30 11305 H 1058.82 1.11733 1.0656 0
M  V30 11306 H 1060.78 0.344793 4.09049 0
M  V30 11307 H 1059.44 -0.313288 3.12534 0
M  V30 11308 H 1058.63 1.31074 4.86658 0
M  V30 11309 H 1058.23 1.88454 3.2305 0
M  V30 11310 H 1060.53 2.29187 6.37557 0
M  V30 11311 H 1061.47 3.76788 5.9953 0
M  V30 11312 H 1061.88 2.22472 5.18813 0
M  V30 11313 N 1061.28 -1.12907 1.09954 0
M  V30 11314 C 1062.19 -2.22082 0.756095 0
M  V30 11315 C 1063.2 -1.72277 -0.244272 0
M  V30 11316 O 1064.38 -2.01224 -0.0842637 0
M  V30 11317 C 1061.44 -3.46192 0.187642 0
M  V30 11318 C 1060.5 -4.10861 1.24465 0
M  V30 11319 C 1059.74 -5.29047 0.703227 0
M  V30 11320 O 1059.96 -5.68443 -0.472043 0
M  V30 11321 O 1058.89 -5.83904 1.46082 0
M  V30 11322 H 1062.72 -2.53842 1.66727 0
M  V30 11323 H 1060.3 -1.21145 0.874316 0
M  V30 11324 H 1062.19 -4.21212 -0.125774 0
M  V30 11325 H 1060.86 -3.16119 -0.696459 0
M  V30 11326 H 1059.77 -3.37643 1.61085 0
M  V30 11327 H 1061.1 -4.45078 2.10159 0
M  V30 11328 N 1062.75 -0.88754 -1.30232 0
M  V30 11329 C 1063.69 -0.313488 -2.27046 0
M  V30 11330 C 1064.7 0.533383 -1.53814 0
M  V30 11331 O 1065.89 0.352516 -1.74984 0
M  V30 11332 C 1062.99 0.572674 -3.34026 0
M  V30 11333 C 1062.16 -0.245712 -4.36709 0
M  V30 11334 C 1061.22 0.57135 -5.23089 0
M  V30 11335 O 1060.25 -0.00685948 -5.692 0
M  V30 11336 N 1061.45 1.87994 -5.49216 0
M  V30 11337 H 1064.21 -1.14553 -2.76943 0
M  V30 11338 H 1061.77 -0.750785 -1.43439 0
M  V30 11339 H 1063.77 1.12539 -3.88738 0
M  V30 11340 H 1062.34 1.3054 -2.84039 0
M  V30 11341 H 1061.56 -0.979869 -3.81827 0
M  V30 11342 H 1062.84 -0.806618 -5.02366 0
M  V30 11343 H 1062.24 2.3726 -5.13541 0
M  V30 11344 H 1060.8 2.38005 -6.06792 0
M  V30 11345 N 1064.23 1.43628 -0.648757 0
M  V30 11346 C 1065.16 2.33478 0.0320785 0
M  V30 11347 C 1066.14 1.49217 0.816605 0
M  V30 11348 O 1067.33 1.77892 0.778974 0
M  V30 11349 C 1064.46 3.32525 1.00222 0
M  V30 11350 C 1063.41 4.2674 0.328119 0
M  V30 11351 C 1062.74 5.15791 1.4094 0
M  V30 11352 C 1064.04 5.16493 -0.776701 0
M  V30 11353 H 1065.73 2.90657 -0.718257 0
M  V30 11354 H 1063.28 1.3976 -0.346852 0
M  V30 11355 H 1065.23 3.94277 1.4874 0
M  V30 11356 H 1063.96 2.73593 1.78366 0
M  V30 11357 H 1062.61 3.66346 -0.136569 0
M  V30 11358 H 1062.26 4.53201 2.18216 0
M  V30 11359 H 1061.96 5.79645 0.963631 0
M  V30 11360 H 1063.49 5.80416 1.89603 0
M  V30 11361 H 1064.9 5.7208 -0.373878 0
M  V30 11362 H 1063.3 5.89043 -1.14667 0
M  V30 11363 H 1064.37 4.56448 -1.63654 0
M  V30 11364 N 1065.71 0.390394 1.52688 0
M  V30 11365 C 1066.94 -0.194013 2.06491 0
M  V30 11366 C 1067.36 -1.3965 1.26014 0
M  V30 11367 O 1066.72 -1.79038 0.285468 0
M  V30 11368 C 1066.77 -0.541306 3.56514 0
M  V30 11369 O 1065.87 -1.63509 3.78601 0
M  V30 11370 H 1065.21 -0.0223608 0.663623 0
M  V30 11371 H 1067.74 0.558179 1.96839 0
M  V30 11372 H 1067.75 -0.805301 3.99974 0
M  V30 11373 H 1066.43 0.337828 4.14526 0
M  V30 11374 H 1065 -1.36473 3.4703 0
M  V30 11375 N 1067.19 -1.57141 0.120249 0
M  V30 11376 C 1068.12 -2.12454 -0.859987 0
M  V30 11377 C 1069.13 -1.06755 -1.22911 0
M  V30 11378 O 1070.32 -1.34124 -1.17784 0
M  V30 11379 C 1067.42 -2.61024 -2.16147 0
M  V30 11380 C 1066.6 -3.90835 -1.96385 0
M  V30 11381 C 1065.65 -4.2499 -3.10274 0
M  V30 11382 O 1064.68 -4.93786 -2.83133 0
M  V30 11383 N 1065.88 -3.82411 -4.36741 0
M  V30 11384 H 1068.65 -2.97186 -0.387402 0
M  V30 11385 H 1066.21 -1.61773 -0.0641376 0
M  V30 11386 H 1068.2 -2.80903 -2.91334 0
M  V30 11387 H 1066.77 -1.81166 -2.5475 0
M  V30 11388 H 1065.99 -3.79853 -1.05383 0
M  V30 11389 H 1067.28 -4.75712 -1.80487 0
M  V30 11390 H 1066.68 -3.26926 -4.61666 0
M  V30 11391 H 1065.23 -4.07395 -5.08795 0
M  V30 11392 N 1068.67 0.153526 -1.5685 0
M  V30 11393 C 1069.62 1.19478 -1.94188 0
M  V30 11394 C 1070.6 1.38889 -0.812329 0
M  V30 11395 O 1071.79 1.4056 -1.07572 0
M  V30 11396 C 1068.92 2.53 -2.32047 0
M  V30 11397 C 1068.01 2.37209 -3.51557 0
M  V30 11398 N 1068.4 1.91162 -4.68285 0
M  V30 11399 C 1066.7 2.67981 -3.56514 0
M  V30 11400 C 1067.4 1.88259 -5.50394 0
M  V30 11401 N 1066.37 2.31329 -4.91923 0
M  V30 11402 H 1070.18 0.830748 -2.81915 0
M  V30 11403 H 1067.69 0.361643 -1.58322 0
M  V30 11404 H 1069.69 3.28264 -2.56998 0
M  V30 11405 H 1068.35 2.90191 -1.45669 0
M  V30 11406 H 1069.36 1.61227 -4.92165 0
M  V30 11407 H 1066.03 3.0909 -2.80659 0
M  V30 11408 H 1067.42 1.54205 -6.53965 0
M  V30 11409 N 1070.14 1.51827 0.422667 0
M  V30 11410 C 1071.05 1.77066 1.53899 0
M  V30 11411 C 1072.07 0.655541 1.61179 0
M  V30 11412 O 1073.25 0.939448 1.78147 0
M  V30 11413 C 1070.31 1.90372 2.89758 0
M  V30 11414 C 1069.37 3.14256 2.92475 0
M  V30 11415 C 1068.61 3.26918 4.21853 0
M  V30 11416 O 1068.83 2.45164 5.15025 0
M  V30 11417 O 1067.76 4.19989 4.31153 0
M  V30 11418 H 1071.59 2.71791 1.35511 0
M  V30 11419 H 1069.17 1.36506 0.607165 0
M  V30 11420 H 1071.06 2.01024 3.70361 0
M  V30 11421 H 1069.73 0.988347 3.08242 0
M  V30 11422 H 1068.64 3.09072 2.10773 0
M  V30 11423 H 1069.97 4.0553 2.78937 0
M  V30 11424 N 1071.62 -0.679052 1.4222 0
M  V30 11425 C 1073.03 -1.25953 1.37815 0
M  V30 11426 C 1073.38 -1.96077 0.0693215 0
M  V30 11427 O 1072.51 -1.99765 -0.832047 0
M  V30 11428 C 1073.1 -2.29063 2.49631 0
M  V30 11429 C 1071.66 -2.82647 2.48571 0
M  V30 11430 C 1070.81 -1.56909 2.28637 0
M  V30 11431 H 1073.76 -0.472714 1.51496 0
M  V30 11432 H 1073.78 -3.10708 2.19638 0
M  V30 11433 H 1073.29 -1.77996 3.44876 0
M  V30 11434 H 1071.4 -3.37846 1.57132 0
M  V30 11435 H 1071.51 -3.31952 3.45463 0
M  V30 11436 H 1069.87 -1.83323 1.76819 0
M  V30 11437 H 1070.66 -1.07814 3.25931 0
M  V30 11438 N 1073.1 -1.28322 -0.914942 0
M  V30 11439 C 1074.05 -1.12146 -2.01722 0
M  V30 11440 C 1075.02 -0.0189279 -1.66089 0
M  V30 11441 O 1076.2 -0.183638 -1.89914 0
M  V30 11442 C 1073.34 -0.78808 -3.35981 0
M  V30 11443 C 1072.46 -1.96954 -3.84491 0
M  V30 11444 C 1071.59 -1.57688 -5.07255 0
M  V30 11445 C 1070.63 -2.72506 -5.48094 0
M  V30 11446 N 1069.77 -2.33741 -6.62049 0
M  V30 11447 H 1074.61 -2.06461 -2.1489 0
M  V30 11448 H 1072.14 -1.0276 -1.05256 0
M  V30 11449 H 1074.1 -0.575546 -4.13211 0
M  V30 11450 H 1072.73 0.118132 -3.22584 0
M  V30 11451 H 1071.78 -2.29423 -3.03429 0
M  V30 11452 H 1073.1 -2.8304 -4.10719 0
M  V30 11453 H 1072.25 -1.32634 -5.92025 0
M  V30 11454 H 1070.99 -0.687291 -4.82833 0
M  V30 11455 H 1069.99 -2.9826 -4.61867 0
M  V30 11456 H 1071.22 -3.62106 -5.74505 0
M  V30 11457 H 1069.16 -1.4725 -6.3926 0
M  V30 11458 H 1069.08 -3.13364 -6.87997 0
M  V30 11459 H 1070.35 -2.11968 -7.50127 0
M  V30 11460 N 1074.58 1.12322 -1.10551 0
M  V30 11461 C 1075.81 1.87679 -0.87087 0
M  V30 11462 C 1076.22 1.79711 0.578733 0
M  V30 11463 O 1075.58 1.17185 1.39907 0
M  V30 11464 C 1075.63 3.36846 -1.31213 0
M  V30 11465 O 1075.35 3.44626 -2.70489 0
M  V30 11466 C 1076.85 4.29138 -1.11156 0
M  V30 11467 H 1074.07 0.593788 -0.3125 0
M  V30 11468 H 1076.62 1.42116 -1.47048 0
M  V30 11469 H 1074.77 3.79948 -0.756169 0
M  V30 11470 H 1075.18 4.37441 -2.89389 0
M  V30 11471 H 1076.66 5.32082 -1.46944 0
M  V30 11472 H 1077.14 4.39171 -0.0502963 0
M  V30 11473 H 1077.74 3.91818 -1.65405 0
M  V30 11474 N 1076.06 0.894434 1.2976 0
M  V30 11475 C 1077.47 0.566892 1.77885 0
M  V30 11476 C 1077.82 -0.917289 1.73437 0
M  V30 11477 O 1076.94 -1.71707 1.31703 0
M  V30 11478 C 1077.54 1.02227 3.2301 0
M  V30 11479 C 1076.1 0.745978 3.68934 0
M  V30 11480 C 1075.24 1.19993 2.49994 0
M  V30 11481 H 1078.2 1.0777 1.16496 0
M  V30 11482 H 1078.22 0.355281 3.78838 0
M  V30 11483 H 1077.73 2.1025 3.26215 0
M  V30 11484 H 1075.83 -0.321866 3.71207 0
M  V30 11485 H 1075.94 1.34017 4.59974 0
M  V30 11486 H 1074.31 0.619047 2.47063 0
M  V30 11487 H 1075.09 2.28811 2.55931 0
M  V30 11488 N 1077.53 -1.43282 0.656365 0
M  V30 11489 C 1078.78 -2.02075 0.171293 0
M  V30 11490 C 1079.11 -1.51682 -1.21269 0
M  V30 11491 O 1078.39 -0.711243 -1.81029 0
M  V30 11492 C 1078.67 -3.59621 0.185602 0
M  V30 11493 C 1078.52 -4.20239 1.60373 0
M  V30 11494 C 1079.84 -4.37515 -0.476289 0
M  V30 11495 H 1076.96 -0.73424 0.0637185 0
M  V30 11496 H 1079.6 -1.70539 0.837648 0
M  V30 11497 H 1077.75 -3.86619 -0.381804 0
M  V30 11498 H 1079.43 -4.0426 2.22197 0
M  V30 11499 H 1077.67 -3.76769 2.15006 0
M  V30 11500 H 1078.34 -5.29333 1.56557 0
M  V30 11501 H 1080.82 -4.16099 0.00651073 0
M  V30 11502 H 1079.69 -5.47169 -0.435562 0
M  V30 11503 H 1079.95 -4.14003 -1.55093 0
M  V30 11504 N 1079.01 -0.398486 -1.52479 0
M  V30 11505 C 1079.98 0.420206 -2.25315 0
M  V30 11506 C 1080.98 0.982559 -1.27289 0
M  V30 11507 O 1082.17 0.863113 -1.51314 0
M  V30 11508 C 1079.3 1.59045 -3.01525 0
M  V30 11509 H 1080.49 -0.217599 -2.9911 0
M  V30 11510 H 1078.04 -0.150784 -1.55571 0
M  V30 11511 H 1078.78 2.26542 -2.32054 0
M  V30 11512 H 1078.56 1.19382 -3.73484 0
M  V30 11513 H 1080.05 2.16984 -3.56802 0
M  V30 11514 N 1080.49 1.57075 -0.12858 0
M  V30 11515 C 1081.45 2.14643 0.803813 0
M  V30 11516 C 1082.45 1.08363 1.18803 0
M  V30 11517 O 1083.64 1.34093 1.11197 0
M  V30 11518 C 1080.78 2.6945 2.08829 0
M  V30 11519 H 1081.97 2.98362 0.303347 0
M  V30 11520 H 1079.52 1.55833 0.120735 0
M  V30 11521 H 1080.26 1.89345 2.63285 0
M  V30 11522 H 1080.04 3.47187 1.82218 0
M  V30 11523 H 1081.53 3.13865 2.7546 0
M  V30 11524 N 1081.97 -0.145205 1.5693 0
M  V30 11525 C 1082.93 -1.16316 1.97492 0
M  V30 11526 C 1083.93 -1.35764 0.861668 0
M  V30 11527 O 1085.12 -1.32726 1.12825 0
M  V30 11528 C 1082.25 -2.52311 2.29242 0
M  V30 11529 H 1083.45 -0.815138 2.8861 0
M  V30 11530 H 1081 -0.38861 1.51392 0
M  V30 11531 H 1081.74 -2.92081 1.40922 0
M  V30 11532 H 1081.52 -2.39555 3.10412 0
M  V30 11533 H 1083.01 -3.25624 2.61456 0
M  V30 11534 N 1083.45 -1.52049 -0.414609 0
M  V30 11535 C 1084.7 -1.65511 -1.15977 0
M  V30 11536 C 1085.02 -0.384703 -1.91168 0
M  V30 11537 O 1084.29 0.600247 -1.86477 0
M  V30 11538 H 1082.87 -0.610039 -0.431116 0
M  V30 11539 H 1085.53 -1.8907 -0.473139 0
M  V30 11540 H 1084.62 -2.4936 -1.87686 0
M  V30 11541 N 1084.93 0.6715 -1.42579 0
M  V30 11542 C 1086.15 1.46471 -1.46836 0
M  V30 11543 C 1086.58 1.87921 -0.0820658 0
M  V30 11544 O 1085.93 1.5621 0.920217 0
M  V30 11545 C 1085.98 2.68796 -2.40377 0
M  V30 11546 O 1085.09 3.67188 -1.87741 0
M  V30 11547 H 1084.43 0.439901 -0.497376 0
M  V30 11548 H 1086.96 0.823342 -1.87303 0
M  V30 11549 H 1086.97 3.16828 -2.57068 0
M  V30 11550 H 1085.64 2.37967 -3.41093 0
M  V30 11551 H 1084.22 3.26237 -1.80621 0
M  V30 11552 N 1086.4 1.28806 0.908124 0
M  V30 11553 C 1087.63 1.19271 1.69674 0
M  V30 11554 C 1088.05 -0.244403 1.86505 0
M  V30 11555 O 1087.41 -1.17668 1.37927 0
M  V30 11556 C 1087.46 1.9023 3.06341 0
M  V30 11557 O 1086.56 1.2136 3.94139 0
M  V30 11558 H 1085.9 0.413738 0.519343 0
M  V30 11559 H 1088.43 1.70227 1.13508 0
M  V30 11560 H 1088.44 1.98356 3.56537 0
M  V30 11561 H 1087.12 2.94762 2.93408 0
M  V30 11562 H 1085.7 1.21435 3.52573 0
M  V30 11563 N 1087.88 -1.11734 1.11145 0
M  V30 11564 C 1088.83 -2.17683 0.766979 0
M  V30 11565 C 1089.8 -1.64051 -0.260108 0
M  V30 11566 O 1090.98 -1.90302 -0.137723 0
M  V30 11567 C 1088.12 -3.44442 0.212982 0
M  V30 11568 C 1087.24 -4.12094 1.29626 0
M  V30 11569 C 1086.37 -5.26526 0.703127 0
M  V30 11570 C 1085.41 -5.86057 1.76647 0
M  V30 11571 N 1084.55 -6.91889 1.19306 0
M  V30 11572 H 1089.39 -2.46495 1.67465 0
M  V30 11573 H 1086.92 -1.21011 0.836353 0
M  V30 11574 H 1088.88 -4.17009 -0.126162 0
M  V30 11575 H 1087.51 -3.16025 -0.657888 0
M  V30 11576 H 1086.56 -3.37631 1.75241 0
M  V30 11577 H 1087.88 -4.52398 2.10089 0
M  V30 11578 H 1087.03 -6.05888 0.313859 0
M  V30 11579 H 1085.77 -4.87519 -0.132856 0
M  V30 11580 H 1084.77 -5.05375 2.16508 0
M  V30 11581 H 1086 -6.27132 2.60543 0
M  V30 11582 H 1083.95 -6.54906 0.378664 0
M  V30 11583 H 1083.86 -7.30832 1.93443 0
M  V30 11584 H 1085.13 -7.75062 0.830578 0
M  V30 11585 N 1089.36 -0.901303 -1.29284 0
M  V30 11586 C 1090.78 -0.597634 -1.47988 0
M  V30 11587 C 1090.98 0.860434 -1.82205 0
M  V30 11588 O 1090.03 1.64049 -1.91948 0
M  V30 11589 C 1091.34 -1.52484 -2.5917 0
M  V30 11590 C 1092.89 -1.53021 -2.73045 0
M  V30 11591 C 1093.37 -2.44373 -3.87357 0
M  V30 11592 N 1094.86 -2.42429 -3.94693 0
M  V30 11593 C 1095.59 -3.09817 -4.82495 0
M  V30 11594 N 1095.09 -3.86489 -5.74976 0
M  V30 11595 N 1096.88 -2.98966 -4.76 0
M  V30 11596 H 1089.03 -1.84432 -1.0535 0
M  V30 11597 H 1091.3 -0.790367 -0.523473 0
M  V30 11598 H 1091 -2.56378 -2.40756 0
M  V30 11599 H 1090.88 -1.24657 -3.56006 0
M  V30 11600 H 1093.26 -0.498709 -2.90855 0
M  V30 11601 H 1093.34 -1.84886 -1.76779 0
M  V30 11602 H 1092.99 -3.47618 -3.70302 0
M  V30 11603 H 1092.92 -2.09817 -4.82995 0
M  V30 11604 H 1095.41 -1.86724 -3.28546 0
M  V30 11605 H 1095.72 -4.34959 -6.38773 0
M  V30 11606 H 1094.07 -3.90596 -5.74857 0
M  V30 11607 H 1097.26 -2.38581 -4.02737 0
M  V30 11608 H 1097.43 -3.51758 -5.44215 0
M  V30 11609 N 1090.84 1.42931 -0.663954 0
M  V30 11610 C 1091.75 2.3459 0.0214234 0
M  V30 11611 C 1092.76 1.54487 0.800611 0
M  V30 11612 O 1093.94 1.87098 0.74541 0
M  V30 11613 C 1091 3.32896 0.968556 0
M  V30 11614 C 1090.07 4.28901 0.185108 0
M  V30 11615 C 1089.3 5.2251 1.08713 0
M  V30 11616 O 1089.52 5.20795 2.32655 0
M  V30 11617 O 1088.46 5.99347 0.553758 0
M  V30 11618 H 1092.28 2.94714 -0.733308 0
M  V30 11619 H 1089.87 1.43252 -0.424159 0
M  V30 11620 H 1091.75 3.93318 1.51257 0
M  V30 11621 H 1090.42 2.75261 1.70333 0
M  V30 11622 H 1089.33 3.71926 -0.402752 0
M  V30 11623 H 1090.66 4.89547 -0.510319 0
M  V30 11624 N 1092.32 0.406567 1.52266 0
M  V30 11625 C 1093.73 -0.063607 1.86592 0
M  V30 11626 C 1094.08 -1.4466 1.32544 0
M  V30 11627 O 1093.2 -2.05971 0.663692 0
M  V30 11628 C 1093.8 -0.122198 3.3858 0
M  V30 11629 C 1092.36 -0.536701 3.72554 0
M  V30 11630 C 1091.5 0.290422 2.75775 0
M  V30 11631 H 1094.45 0.623738 1.45929 0
M  V30 11632 H 1094.48 -0.937964 3.68758 0
M  V30 11633 H 1093.99 0.884495 3.77887 0
M  V30 11634 H 1092.09 -1.55013 3.38824 0
M  V30 11635 H 1092.2 -0.282867 4.78264 0
M  V30 11636 H 1090.57 -0.246864 2.53501 0
M  V30 11637 H 1091.35 1.29541 3.17921 0
M  V30 11638 N 1093.79 -1.57004 0.136909 0
M  V30 11639 C 1095.02 -2.00587 -0.527209 0
M  V30 11640 C 1095.44 -1.01628 -1.58283 0
M  V30 11641 O 1094.8 0.00946934 -1.81298 0
M  V30 11642 C 1094.85 -3.42967 -1.11384 0
M  V30 11643 O 1093.95 -3.46973 -2.22898 0
M  V30 11644 H 1093.3 -0.651155 -0.129976 0
M  V30 11645 H 1095.83 -2.03296 0.230667 0
M  V30 11646 H 1095.84 -3.81555 -1.44499 0
M  V30 11647 H 1094.51 -4.14502 -0.340736 0
M  V30 11648 H 1093.09 -3.20219 -1.91087 0
M  V30 11649 N 1095.27 0.136881 -1.57004 0
M  V30 11650 C 1096.5 0.862436 -1.88068 0
M  V30 11651 C 1096.92 1.74274 -0.726227 0
M  V30 11652 O 1096.27 1.79956 0.30366 0
M  V30 11653 C 1096.32 1.71076 -3.18458 0
M  V30 11654 O 1096.04 0.865918 -4.29457 0
M  V30 11655 C 1097.55 2.54302 -3.63105 0
M  V30 11656 H 1094.77 0.248865 -0.623143 0
M  V30 11657 H 1097.31 0.126633 -2.04108 0
M  V30 11658 H 1095.46 2.39951 -3.04142 0
M  V30 11659 H 1095.88 1.4493 -5.04079 0
M  V30 11660 H 1097.35 3.09384 -4.57149 0
M  V30 11661 H 1097.83 3.3082 -2.88886 0
M  V30 11662 H 1098.44 1.907 -3.80149 0
M  V30 11663 N 1096.75 1.52266 0.40654 0
M  V30 11664 C 1097.7 1.75794 1.4955 0
M  V30 11665 C 1098.67 0.600472 1.54866 0
M  V30 11666 O 1099.85 0.838305 1.71397 0
M  V30 11667 C 1096.99 1.91682 2.86971 0
M  V30 11668 C 1096.11 3.19337 2.90943 0
M  V30 11669 C 1095.24 3.25641 4.1968 0
M  V30 11670 C 1094.28 4.47488 4.17637 0
M  V30 11671 N 1093.42 4.51171 5.37949 0
M  V30 11672 H 1098.26 2.68733 1.28789 0
M  V30 11673 H 1095.79 1.33157 0.625102 0
M  V30 11674 H 1097.75 1.98877 3.66748 0
M  V30 11675 H 1096.38 1.02121 3.06221 0
M  V30 11676 H 1095.43 3.21301 2.03642 0
M  V30 11677 H 1096.75 4.09153 2.85299 0
M  V30 11678 H 1095.9 3.31922 5.07851 0
M  V30 11679 H 1094.64 2.33769 4.28023 0
M  V30 11680 H 1093.64 4.41351 3.27856 0
M  V30 11681 H 1094.87 5.40659 4.10932 0
M  V30 11682 H 1092.81 3.62182 5.46955 0
M  V30 11683 H 1092.73 5.34835 5.3431 0
M  V30 11684 H 1094 4.61685 6.28066 0
M  V30 11685 N 1098.23 -0.663929 1.42933 0
M  V30 11686 C 1099.48 -1.42111 1.43697 0
M  V30 11687 C 1099.8 -1.94913 0.0583858 0
M  V30 11688 O 1099.07 -1.73757 -0.904719 0
M  V30 11689 H 1097.65 -0.527391 0.529026 0
M  V30 11690 H 1100.31 -0.783766 1.78446 0
M  V30 11691 H 1099.41 -2.26877 2.1432 0
M  V30 11692 N 1099.71 -1.29285 -0.901281 0
M  V30 11693 C 1101.12 -1.15499 -1.46686 0
M  V30 11694 C 1101.47 0.250446 -1.94595 0
M  V30 11695 O 1100.59 1.14581 -1.83576 0
M  V30 11696 C 1101.19 -2.0906 -2.66607 0
M  V30 11697 C 1099.75 -1.99301 -3.19306 0
M  V30 11698 C 1098.89 -2.00079 -1.91999 0
M  V30 11699 H 1101.85 -1.41793 -0.712773 0
M  V30 11700 H 1101.87 -1.6619 -3.42288 0
M  V30 11701 H 1101.38 -3.11341 -2.31707 0
M  V30 11702 H 1099.48 -1.00103 -3.58901 0
M  V30 11703 H 1099.59 -2.86885 -3.8371 0
M  V30 11704 H 1097.96 -1.44655 -2.09636 0
M  V30 11705 H 1098.74 -3.04061 -1.59379 0
M  V30 11706 N 1101.18 1.11143 -1.11736 0
M  V30 11707 C 1102.09 2.20851 -0.791331 0
M  V30 11708 C 1103.11 1.72644 0.216833 0
M  V30 11709 O 1104.29 2.01332 0.0522401 0
M  V30 11710 C 1101.35 3.4585 -0.242694 0
M  V30 11711 C 1100.41 4.08829 -1.30986 0
M  V30 11712 C 1099.65 5.27861 -0.787305 0
M  V30 11713 O 1099.87 5.69122 0.381549 0
M  V30 11714 O 1098.8 5.81506 -1.55352 0
M  V30 11715 H 1102.63 2.51158 -1.70744 0
M  V30 11716 H 1100.21 1.19739 -0.893478 0
M  V30 11717 H 1102.1 4.21359 0.0587472 0
M  V30 11718 H 1100.77 3.17187 0.646079 0
M  V30 11719 H 1099.68 3.35037 -1.66436 0
M  V30 11720 H 1101.01 4.41678 -2.17213 0
M  V30 11721 N 1102.66 0.908147 1.28804 0
M  V30 11722 C 1103.57 0.397167 2.31214 0
M  V30 11723 C 1104.59 -0.512352 1.66286 0
M  V30 11724 O 1105.76 -0.399893 1.9739 0
M  V30 11725 C 1102.83 -0.359522 3.44831 0
M  V30 11726 C 1101.89 0.582539 4.25329 0
M  V30 11727 C 1101.12 -0.138133 5.33521 0
M  V30 11728 O 1101.35 -1.36076 5.53931 0
M  V30 11729 O 1100.28 0.523682 5.99618 0
M  V30 11730 H 1104.11 1.247 2.76918 0
M  V30 11731 H 1101.69 0.672766 1.33395 0
M  V30 11732 H 1103.57 -0.787098 4.13984 0
M  V30 11733 H 1102.25 -1.18528 3.01219 0
M  V30 11734 H 1101.16 1.0594 3.58786 0
M  V30 11735 H 1102.49 1.37495 4.72605 0
M  V30 11736 N 1104.14 -1.42577 0.671525 0
M  V30 11737 C 1105.09 -2.30798 -0.00883676 0
M  V30 11738 C 1106.06 -1.4578 -0.796076 0
M  V30 11739 O 1107.24 -1.74617 -0.768987 0
M  V30 11740 C 1104.38 -3.31581 -0.956452 0
M  V30 11741 C 1103.5 -4.31691 -0.163381 0
M  V30 11742 C 1102.63 -5.19549 -1.10645 0
M  V30 11743 C 1101.67 -6.1134 -0.304876 0
M  V30 11744 N 1100.81 -6.91761 -1.20048 0
M  V30 11745 H 1105.65 -2.88426 0.749301 0
M  V30 11746 H 1103.18 -1.42074 0.381251 0
M  V30 11747 H 1105.14 -3.88539 -1.51966 0
M  V30 11748 H 1103.77 -2.75561 -1.68126 0
M  V30 11749 H 1102.82 -3.76879 0.516396 0
M  V30 11750 H 1104.14 -4.96683 0.459099 0
M  V30 11751 H 1103.29 -5.81223 -1.73969 0
M  V30 11752 H 1102.03 -4.54726 -1.76282 0
M  V30 11753 H 1101.03 -5.48738 0.341597 0
M  V30 11754 H 1102.26 -6.78211 0.347352 0
M  V30 11755 H 1100.2 -6.2957 -1.84331 0
M  V30 11756 H 1100.12 -7.53345 -0.633003 0
M  V30 11757 H 1101.39 -7.57924 -1.82129 0
M  V30 11758 N 1105.62 -0.414636 -1.52048 0
M  V30 11759 C 1106.86 0.159585 -2.02171 0
M  V30 11760 C 1107.2 1.44321 -1.29943 0
M  V30 11761 O 1106.47 1.90185 -0.407402 0
M  V30 11762 C 1106.76 0.401655 -3.57853 0
M  V30 11763 C 1106.61 -0.899026 -4.40724 0
M  V30 11764 C 1107.93 1.1814 -4.23947 0
M  V30 11765 H 1105.05 0.0565257 -0.734829 0
M  V30 11766 H 1107.69 -0.549183 -1.8189 0
M  V30 11767 H 1105.84 1.00541 -3.75265 0
M  V30 11768 H 1107.51 -1.53502 -4.35011 0
M  V30 11769 H 1105.75 -1.50877 -4.06717 0
M  V30 11770 H 1106.42 -0.683974 -5.47746 0
M  V30 11771 H 1108.9 0.670203 -4.10667 0
M  V30 11772 H 1107.78 1.31953 -5.32804 0
M  V30 11773 H 1108.04 2.2035 -3.83273 0
M  V30 11774 N 1107.1 1.56929 -0.145233 0
M  V30 11775 C 1108.06 2.15483 0.781002 0
M  V30 11776 C 1109.06 1.09617 1.17647 0
M  V30 11777 O 1110.25 1.35265 1.09768 0
M  V30 11778 C 1107.38 2.7165 2.05959 0
M  V30 11779 H 1108.57 2.98667 0.271685 0
M  V30 11780 H 1106.13 1.55952 0.1042 0
M  V30 11781 H 1106.86 1.92127 2.61262 0
M  V30 11782 H 1106.65 3.491 1.78526 0
M  V30 11783 H 1108.14 3.16769 2.72116 0
M  V30 11784 N 1108.58 -0.128553 1.57075 0
M  V30 11785 C 1109.82 -0.836355 1.83982 0
M  V30 11786 C 1110.14 -1.80862 0.728971 0
M  V30 11787 O 1109.41 -1.94326 -0.247859 0
M  V30 11788 H 1107.99 -0.31185 0.678792 0
M  V30 11789 H 1110.66 -0.118153 1.94542 0
M  V30 11790 H 1109.75 -1.38741 2.79567 0
M  V30 11791 N 1110.05 -1.5248 -0.398459 0
M  V30 11792 C 1111 -1.76585 -1.48615 0
M  V30 11793 C 1111.97 -0.608677 -1.54546 0
M  V30 11794 O 1113.16 -0.847383 -1.7095 0
M  V30 11795 C 1110.3 -1.93201 -2.8595 0
M  V30 11796 C 1109.41 -3.20875 -2.89246 0
M  V30 11797 C 1108.54 -3.27862 -4.17947 0
M  V30 11798 C 1107.58 -4.49697 -4.15258 0
M  V30 11799 N 1106.72 -4.54017 -5.35549 0
M  V30 11800 H 1111.56 -2.69412 -1.27362 0
M  V30 11801 H 1109.1 -1.33487 -0.618031 0
M  V30 11802 H 1111.05 -2.00819 -3.65688 0
M  V30 11803 H 1109.68 -1.03743 -3.05675 0
M  V30 11804 H 1108.74 -3.22376 -2.01935 0
M  V30 11805 H 1110.05 -4.1066 -2.83125 0
M  V30 11806 H 1109.2 -3.34611 -5.06083 0
M  V30 11807 H 1107.94 -2.36035 -4.26777 0
M  V30 11808 H 1106.95 -4.43083 -3.25511 0
M  V30 11809 H 1108.17 -5.42831 -4.08059 0
M  V30 11810 H 1106.12 -3.65078 -5.45027 0
M  V30 11811 H 1106.03 -5.37661 -5.31466 0
M  V30 11812 H 1107.3 -4.65009 -6.25609 0
M  V30 11813 N 1111.53 0.65634 -1.43283 0
M  V30 11814 C 1112.95 0.971645 -1.26614 0
M  V30 11815 C 1113.15 2.00662 -0.183612 0
M  V30 11816 O 1112.2 2.48654 0.439003 0
M  V30 11817 C 1113.52 1.45888 -2.6294 0
M  V30 11818 C 1115.06 1.57569 -2.70446 0
M  V30 11819 C 1115.54 2.09684 -4.07181 0
M  V30 11820 N 1117.03 2.16991 -4.0923 0
M  V30 11821 C 1117.77 2.5843 -5.11861 0
M  V30 11822 N 1117.26 2.99188 -6.24867 0
M  V30 11823 N 1119.05 2.58342 -4.99215 0
M  V30 11824 H 1111.21 -0.028573 -2.12381 0
M  V30 11825 H 1113.47 0.0497918 -0.946691 0
M  V30 11826 H 1113.17 0.772823 -3.43104 0
M  V30 11827 H 1113.05 2.43445 -2.88122 0
M  V30 11828 H 1115.44 2.25277 -1.90616 0
M  V30 11829 H 1115.52 0.584529 -2.49032 0
M  V30 11830 H 1115.16 1.42579 -4.87477 0
M  V30 11831 H 1115.09 3.09625 -4.25958 0
M  V30 11832 H 1117.58 1.88278 -3.27658 0
M  V30 11833 H 1117.89 3.29549 -6.99012 0
M  V30 11834 H 1116.24 2.97 -6.28344 0
M  V30 11835 H 1119.43 2.25875 -4.09998 0
M  V30 11836 H 1119.6 2.90316 -5.79328 0
M  V30 11837 N 1113.01 1.29761 0.894412 0
M  V30 11838 C 1113.92 1.1724 2.03204 0
M  V30 11839 C 1114.94 0.0944452 1.73743 0
M  V30 11840 O 1116.11 0.307549 1.99038 0
M  V30 11841 C 1113.18 0.855416 3.35981 0
M  V30 11842 C 1112.24 2.01777 3.78926 0
M  V30 11843 C 1111.47 1.71581 5.05367 0
M  V30 11844 O 1111.69 0.639245 5.66807 0
M  V30 11845 O 1110.63 2.56539 5.44492 0
M  V30 11846 H 1114.45 2.12787 2.16692 0
M  V30 11847 H 1112.04 1.09264 1.0189 0
M  V30 11848 H 1113.92 0.693429 4.15656 0
M  V30 11849 H 1112.6 -0.0702195 3.23624 0
M  V30 11850 H 1111.5 2.23502 2.99996 0
M  V30 11851 H 1112.84 2.92479 3.95875 0
M  V30 11852 N 1114.49 -1.10549 1.12324 0
M  V30 11853 C 1115.74 -1.82124 0.876083 0
M  V30 11854 C 1116.06 -1.85547 -0.599761 0
M  V30 11855 O 1115.33 -1.33269 -1.43584 0
M  V30 11856 H 1113.91 -0.674455 0.321122 0
M  V30 11857 H 1116.57 -1.33766 1.41748 0
M  V30 11858 H 1115.66 -2.85688 1.25653 0
M  V30 11859 N 1115.97 -0.914965 -1.28321 0
M  V30 11860 C 1116.9 -0.421292 -2.29668 0
M  V30 11861 C 1117.88 0.511743 -1.6222 0
M  V30 11862 O 1119.06 0.419218 -1.89621 0
M  V30 11863 C 1116.19 0.338364 -3.45648 0
M  V30 11864 C 1115.15 -0.505646 -4.25003 0
M  V30 11865 C 1114.47 0.382421 -5.33331 0
M  V30 11866 C 1115.77 -1.76354 -4.91626 0
M  V30 11867 H 1117.47 -1.26826 -2.71211 0
M  V30 11868 H 1115.01 -0.611291 -1.30381 0
M  V30 11869 H 1116.96 0.694578 -4.15636 0
M  V30 11870 H 1115.69 1.21925 -3.02988 0
M  V30 11871 H 1114.35 -0.844395 -3.56743 0
M  V30 11872 H 1114 1.26189 -4.86914 0
M  V30 11873 H 1113.7 -0.17871 -5.87328 0
M  V30 11874 H 1115.22 0.73449 -6.06166 0
M  V30 11875 H 1116.63 -1.47616 -5.5397 0
M  V30 11876 H 1115.03 -2.26717 -5.55625 0
M  V30 11877 H 1116.1 -2.49063 -4.16048 0
M  V30 11878 N 1117.44 1.42219 -0.679077 0
M  V30 11879 C 1118.69 2.01081 -0.202718 0
M  V30 11880 C 1119.01 1.53986 1.19639 0
M  V30 11881 O 1118.28 0.763359 1.80415 0
M  V30 11882 H 1116.86 0.743526 -0.0719547 0
M  V30 11883 H 1119.52 1.74077 -0.876544 0
M  V30 11884 H 1118.62 3.11411 -0.207314 0
M  V30 11885 N 1118.92 0.422693 1.51826 0
M  V30 11886 C 1120.17 -0.148348 2.01555 0
M  V30 11887 C 1120.49 -1.44483 1.30956 0
M  V30 11888 O 1119.76 -1.90904 0.439599 0
M  V30 11889 H 1118.34 -0.0578116 0.74476 0
M  V30 11890 H 1121 0.562046 1.8662 0
M  V30 11891 H 1120.1 -0.334766 3.10299 0
M  V30 11892 N 1120.4 -1.5685 0.153553 0
M  V30 11893 C 1121.33 -2.20101 -0.779601 0
M  V30 11894 C 1122.31 -1.15121 -1.25225 0
M  V30 11895 O 1123.5 -1.43487 -1.30862 0
M  V30 11896 C 1120.63 -2.82778 -2.01628 0
M  V30 11897 C 1119.58 -3.93643 -1.68015 0
M  V30 11898 C 1118.91 -4.43286 -2.99001 0
M  V30 11899 C 1120.21 -5.14102 -0.921774 0
M  V30 11900 H 1121.9 -2.98334 -0.252432 0
M  V30 11901 H 1119.45 -1.43499 -0.119975 0
M  V30 11902 H 1121.4 -3.25696 -2.67395 0
M  V30 11903 H 1120.12 -2.01887 -2.56728 0
M  V30 11904 H 1118.78 -3.51354 -1.04624 0
M  V30 11905 H 1118.43 -3.59208 -3.52106 0
M  V30 11906 H 1118.13 -5.18068 -2.77272 0
M  V30 11907 H 1119.65 -4.88878 -3.65828 0
M  V30 11908 H 1121.07 -5.53823 -1.48167 0
M  V30 11909 H 1119.46 -5.94687 -0.804185 0
M  V30 11910 H 1120.53 -4.84825 0.0852757 0
M  V30 11911 N 1121.88 0.120221 -1.57141 0
M  V30 11912 C 1123.11 0.842441 -1.88972 0
M  V30 11913 C 1123.52 1.73494 -0.744671 0
M  V30 11914 O 1122.88 1.80268 0.284557 0
M  V30 11915 C 1122.93 1.67688 -3.20254 0
M  V30 11916 O 1122.65 0.820319 -4.30351 0
M  V30 11917 C 1124.15 2.50436 -3.65782 0
M  V30 11918 H 1121.37 0.242241 -0.625748 0
M  V30 11919 H 1123.91 0.104978 -2.0423 0
M  V30 11920 H 1122.07 2.36712 -3.0667 0
M  V30 11921 H 1122.48 1.39575 -5.05588 0
M  V30 11922 H 1123.96 3.04518 -4.60405 0
M  V30 11923 H 1124.43 3.27737 -2.92378 0
M  V30 11924 H 1125.04 1.86657 -3.82151 0
M  V30 11925 N 1123.36 1.52689 0.390367 0
M  V30 11926 C 1124.29 1.80338 1.48325 0
M  V30 11927 C 1125.27 0.655338 1.56969 0
M  V30 11928 O 1126.45 0.902792 1.7194 0
M  V30 11929 C 1123.58 1.97101 2.85952 0
M  V30 11930 C 1122.54 3.12783 2.92148 0
M  V30 11931 C 1121.86 3.14798 4.32211 0
M  V30 11932 C 1123.16 4.5188 2.61919 0
M  V30 11933 H 1124.86 2.71857 1.25437 0
M  V30 11934 H 1122.4 1.30813 0.601995 0
M  V30 11935 H 1124.36 2.15027 3.62411 0
M  V30 11936 H 1123.08 1.02271 3.10174 0
M  V30 11937 H 1121.74 2.94638 2.18137 0
M  V30 11938 H 1121.39 2.17653 4.53471 0
M  V30 11939 H 1121.09 3.92507 4.37278 0
M  V30 11940 H 1122.61 3.34877 5.10578 0
M  V30 11941 H 1124.02 4.70134 3.28096 0
M  V30 11942 H 1122.42 5.31647 2.78337 0
M  V30 11943 H 1123.49 4.58689 1.57266 0
M  V30 11944 N 1124.83 -0.648732 1.43629 0
M  V30 11945 C 1126.25 -0.964917 1.27128 0
M  V30 11946 C 1126.45 -2.00561 0.194251 0
M  V30 11947 O 1125.51 -2.48884 -0.42581 0
M  V30 11948 C 1126.82 -1.44491 2.6371 0
M  V30 11949 C 1128.37 -1.56133 2.71278 0
M  V30 11950 C 1128.84 -2.07521 4.08288 0
M  V30 11951 N 1130.33 -2.14817 4.10375 0
M  V30 11952 C 1131.07 -2.55712 5.13224 0
M  V30 11953 N 1130.56 -2.9587 6.26444 0
M  V30 11954 N 1132.36 -2.55691 5.00578 0
M  V30 11955 H 1124.51 0.0398357 2.12363 0
M  V30 11956 H 1126.77 -0.0447705 0.946942 0
M  V30 11957 H 1126.48 -0.754616 3.43509 0
M  V30 11958 H 1126.35 -2.41914 2.89409 0
M  V30 11959 H 1128.74 -2.24263 1.91808 0
M  V30 11960 H 1128.82 -0.571314 2.49338 0
M  V30 11961 H 1128.46 -1.39992 4.88226 0
M  V30 11962 H 1128.39 -3.07362 4.27594 0
M  V30 11963 H 1130.88 -1.86538 3.28652 0
M  V30 11964 H 1131.2 -3.25837 7.0075 0
M  V30 11965 H 1129.54 -2.93664 6.2991 0
M  V30 11966 H 1132.73 -2.23697 4.1119 0
M  V30 11967 H 1132.91 -2.87239 5.80859 0
M  V30 11968 N 1126.31 -1.30234 -0.887518 0
M  V30 11969 C 1127.22 -1.18316 -2.02579 0
M  V30 11970 C 1128.24 -0.103658 -1.73691 0
M  V30 11971 O 1129.41 -0.3181 -1.98872 0
M  V30 11972 C 1126.48 -0.873222 -3.35523 0
M  V30 11973 C 1125.54 -2.03783 -3.7785 0
M  V30 11974 C 1124.77 -1.74258 -5.0445 0
M  V30 11975 O 1125 -0.669295 -5.6646 0
M  V30 11976 O 1123.93 -2.59423 -5.43124 0
M  V30 11977 H 1127.76 -2.13933 -2.15561 0
M  V30 11978 H 1125.34 -1.09803 -1.0131 0
M  V30 11979 H 1127.22 -0.715463 -4.15282 0
M  V30 11980 H 1125.9 0.053056 -3.23657 0
M  V30 11981 H 1124.81 -2.2509 -2.98806 0
M  V30 11982 H 1126.14 -2.94574 -3.94318 0
M  V30 11983 N 1127.79 1.09952 -1.12909 0
M  V30 11984 C 1128.74 2.16436 -0.801514 0
M  V30 11985 C 1129.71 1.64444 0.233976 0
M  V30 11986 O 1130.89 1.90497 0.10743 0
M  V30 11987 C 1128.03 3.4406 -0.267753 0
M  V30 11988 C 1127.15 4.09979 -1.36165 0
M  V30 11989 C 1126.28 5.25341 -0.786803 0
M  V30 11990 C 1125.32 5.83172 -1.85948 0
M  V30 11991 N 1124.46 6.89904 -1.30298 0
M  V30 11992 H 1129.3 2.43799 -1.71365 0
M  V30 11993 H 1126.83 1.19665 -0.855499 0
M  V30 11994 H 1128.79 4.17157 0.0598031 0
M  V30 11995 H 1127.42 3.17031 0.607528 0
M  V30 11996 H 1126.47 3.34801 -1.8059 0
M  V30 11997 H 1127.79 4.48999 -2.17259 0
M  V30 11998 H 1126.94 6.05312 -0.410211 0
M  V30 11999 H 1125.68 4.87669 0.055279 0
M  V30 12000 H 1124.68 5.01867 -2.24521 0
M  V30 12001 H 1125.91 6.22907 -2.70487 0
M  V30 12002 H 1123.85 6.54221 -0.482806 0
M  V30 12003 H 1123.77 7.27662 -2.05046 0
M  V30 12004 H 1125.04 7.73643 -0.953779 0
M  V30 12005 N 1129.27 0.921757 1.27833 0
M  V30 12006 C 1130.5 0.575202 1.98744 0
M  V30 12007 C 1130.91 -0.845405 1.68815 0
M  V30 12008 O 1130.27 -1.56106 0.94536 0
M  V30 12009 C 1130.32 0.784389 3.52888 0
M  V30 12010 O 1130.04 2.1491 3.81766 0
M  V30 12011 C 1131.54 0.445744 4.41053 0
M  V30 12012 H 1128.76 0.218525 0.634419 0
M  V30 12013 H 1131.31 1.23715 1.62834 0
M  V30 12014 H 1129.46 0.169323 3.8703 0
M  V30 12015 H 1129.87 2.19469 4.76375 0
M  V30 12016 H 1131.35 0.64284 5.48244 0
M  V30 12017 H 1131.83 -0.618433 4.34824 0
M  V30 12018 H 1132.43 1.03869 4.12421 0
M  V30 12019 N 1130.75 -1.41857 0.686609 0
M  V30 12020 C 1131.99 -2.02176 0.22284 0
M  V30 12021 C 1132.35 -1.53373 -1.16165 0
M  V30 12022 O 1131.64 -0.73123 -1.77098 0
M  V30 12023 C 1131.83 -3.56783 0.209951 0
M  V30 12024 C 1131.66 -4.20591 1.59166 0
M  V30 12025 C 1130.43 -4.55264 2.19232 0
M  V30 12026 C 1132.63 -4.47394 2.53659 0
M  V30 12027 N 1130.61 -5.04313 3.5006 0
M  V30 12028 C 1131.98 -4.98121 3.69155 0
M  V30 12029 C 1134.04 -4.29396 2.52039 0
M  V30 12030 C 1132.74 -5.32741 4.83301 0
M  V30 12031 C 1134.77 -4.65099 3.65291 0
M  V30 12032 C 1134.13 -5.15988 4.79516 0
M  V30 12033 H 1130.23 -0.771663 0.126731 0
M  V30 12034 H 1132.81 -1.72538 0.902153 0
M  V30 12035 H 1130.98 -3.85913 -0.438816 0
M  V30 12036 H 1132.72 -4.03813 -0.267806 0
M  V30 12037 H 1129.47 -4.41417 1.71604 0
M  V30 12038 H 1129.9 -5.33253 4.17098 0
M  V30 12039 H 1134.54 -3.89296 1.64949 0
M  V30 12040 H 1132.26 -5.71767 5.71058 0
M  V30 12041 H 1135.84 -4.52839 3.65279 0
M  V30 12042 H 1134.72 -5.43098 5.65698 0
M  V30 12043 N 1132.22 -0.430739 -1.51599 0
M  V30 12044 C 1133.64 -0.0826902 -1.59386 0
M  V30 12045 C 1133.84 1.40729 -1.44214 0
M  V30 12046 O 1132.9 2.1765 -1.28002 0
M  V30 12047 C 1134.21 -0.59691 -2.94716 0
M  V30 12048 C 1135.76 -0.556772 -3.08008 0
M  V30 12049 C 1136.23 -1.04786 -4.45852 0
M  V30 12050 N 1137.72 -1.00557 -4.52153 0
M  V30 12051 C 1138.46 -1.35649 -5.57124 0
M  V30 12052 N 1137.95 -1.77994 -6.69545 0
M  V30 12053 N 1139.75 -1.27508 -5.47447 0
M  V30 12054 H 1131.9 -1.40027 -1.59707 0
M  V30 12055 H 1134.16 -0.576606 -0.752482 0
M  V30 12056 H 1133.87 -1.63914 -3.11167 0
M  V30 12057 H 1133.74 -0.0182342 -3.77196 0
M  V30 12058 H 1136.13 0.476457 -2.91228 0
M  V30 12059 H 1136.21 -1.17177 -2.27383 0
M  V30 12060 H 1135.85 -2.07952 -4.63377 0
M  V30 12061 H 1135.78 -0.409461 -5.25006 0
M  V30 12062 H 1138.27 -0.694518 -3.71463 0
M  V30 12063 H 1138.59 -2.03026 -7.45654 0
M  V30 12064 H 1136.93 -1.81916 -6.70769 0
M  V30 12065 H 1140.12 -0.942969 -4.58504 0
M  V30 12066 H 1140.3 -1.55185 -6.29143 0
M  V30 12067 N 1133.7 1.56767 -0.161869 0
M  V30 12068 C 1134.95 1.96206 0.484537 0
M  V30 12069 C 1135.27 1.04848 1.64414 0
M  V30 12070 O 1134.54 0.112946 1.95574 0
M  V30 12071 H 1133.12 0.724491 0.181994 0
M  V30 12072 H 1135.78 1.93406 -0.240845 0
M  V30 12073 H 1134.88 3.00279 0.85083 0
M  V30 12074 N 1135.18 -0.111886 1.57202 0
M  V30 12075 C 1136.43 -0.816794 1.84859 0
M  V30 12076 C 1136.75 -1.80079 0.748113 0
M  V30 12077 O 1136.02 -1.94578 -0.227235 0
M  V30 12078 H 1134.6 -0.304633 0.682061 0
M  V30 12079 H 1137.26 -0.097513 1.94656 0
M  V30 12080 H 1136.36 -1.35768 2.81022 0
M  V30 12081 N 1136.66 -1.52894 -0.382264 0
M  V30 12082 C 1137.88 -1.72453 -1.15216 0
M  V30 12083 C 1138.31 -0.444925 -1.82762 0
M  V30 12084 O 1137.67 0.599825 -1.7109 0
M  V30 12085 C 1137.71 -2.87939 -2.17079 0
M  V30 12086 O 1136.82 -2.55383 -3.23811 0
M  V30 12087 H 1136.16 -0.57324 -0.335099 0
M  V30 12088 H 1138.69 -1.99713 -0.444495 0
M  V30 12089 H 1138.7 -3.13628 -2.60963 0
M  V30 12090 H 1137.37 -3.80765 -1.67305 0
M  V30 12091 H 1135.95 -2.40457 -2.85018 0
M  V30 12092 N 1138.14 0.641106 -1.43971 0
M  V30 12093 C 1139.55 1.22254 -1.41106 0
M  V30 12094 C 1139.9 1.95825 -0.121284 0
M  V30 12095 O 1139.02 2.01901 0.77879 0
M  V30 12096 C 1139.62 2.22364 -2.55617 0
M  V30 12097 C 1138.18 2.75957 -2.55978 0
M  V30 12098 C 1137.33 1.50792 -2.32717 0
M  V30 12099 H 1140.28 0.432381 -1.52696 0
M  V30 12100 H 1140.3 3.04775 -2.27799 0
M  V30 12101 H 1139.81 1.68789 -3.49474 0
M  V30 12102 H 1137.91 3.33562 -1.66034 0
M  V30 12103 H 1138.02 3.22676 -3.54142 0
M  V30 12104 H 1136.39 1.7857 -1.81617 0
M  V30 12105 H 1137.17 0.991343 -3.28675 0
M  V30 12106 N 1139.62 1.30703 0.880598 0
M  V30 12107 C 1140.53 1.19389 2.01949 0
M  V30 12108 C 1141.54 0.112868 1.73634 0
M  V30 12109 O 1142.72 0.328643 1.98701 0
M  V30 12110 C 1139.78 0.891004 3.35055 0
M  V30 12111 C 1138.84 2.05784 3.76764 0
M  V30 12112 C 1138.08 1.76931 5.03519 0
M  V30 12113 O 1138.3 0.699326 5.66097 0
M  V30 12114 O 1137.23 2.623 5.4174 0
M  V30 12115 H 1141.06 2.15073 2.14423 0
M  V30 12116 H 1138.64 1.10339 1.00726 0
M  V30 12117 H 1140.53 0.737476 4.14897 0
M  V30 12118 H 1139.2 -0.0358909 3.2368 0
M  V30 12119 H 1138.11 2.26672 2.97608 0
M  V30 12120 H 1139.44 2.96661 3.9275 0
M  V30 12121 N 1141.09 -1.09351 1.1349 0
M  V30 12122 C 1142.34 -1.80915 0.89177 0
M  V30 12123 C 1142.66 -1.86688 -0.5837 0
M  V30 12124 O 1143.86 -2.54568 -0.943788 0
M  V30 12125 C 1142.32 -3.25009 1.54587 0
M  V30 12126 C 1141.93 -3.27501 3.05691 0
M  V30 12127 C 1143.67 -4.01323 1.38346 0
M  V30 12128 C 1141.58 -4.66123 3.63983 0
M  V30 12129 H 1140.51 -0.677961 0.329978 0
M  V30 12130 H 1143.16 -1.22893 1.3627 0
M  V30 12131 H 1141.54 -3.83098 1.0026 0
M  V30 12132 H 1142.71 -2.79174 3.66604 0
M  V30 12133 H 1141.03 -2.64677 3.21457 0
M  V30 12134 H 1143.63 -5.03739 1.79307 0
M  V30 12135 H 1143.97 -4.15003 0.328404 0
M  V30 12136 H 1144.5 -3.49679 1.89656 0
M  V30 12137 H 1141.24 -4.57646 4.69298 0
M  V30 12138 H 1140.76 -5.14772 3.07848 0
M  V30 12139 H 1142.44 -5.35097 3.63703 0
M  V30 12140 N 1142.57 -0.928524 -1.27343 0
M  V30 12141 C 1143.52 -0.426873 -2.26818 0
M  V30 12142 C 1144.49 0.506663 -1.58184 0
M  V30 12143 O 1145.67 0.425641 -1.85992 0
M  V30 12144 C 1142.81 0.313523 -3.43673 0
M  V30 12145 C 1141.93 -0.65422 -4.27018 0
M  V30 12146 C 1141.06 0.106102 -5.31094 0
M  V30 12147 C 1140.1 -0.854293 -6.06109 0
M  V30 12148 N 1139.24 -0.126545 -7.01986 0
M  V30 12149 H 1144.08 -1.28014 -2.69103 0
M  V30 12150 H 1141.61 -0.642515 -1.32326 0
M  V30 12151 H 1143.57 0.75912 -4.10236 0
M  V30 12152 H 1142.2 1.13102 -3.02337 0
M  V30 12153 H 1141.25 -1.21834 -3.60362 0
M  V30 12154 H 1142.57 -1.38817 -4.79094 0
M  V30 12155 H 1141.72 0.611577 -6.0361 0
M  V30 12156 H 1140.46 0.873009 -4.79823 0
M  V30 12157 H 1139.46 -1.37101 -5.32432 0
M  V30 12158 H 1140.69 -1.621 -6.5947 0
M  V30 12159 H 1138.64 0.622102 -6.53044 0
M  V30 12160 H 1138.55 -0.800046 -7.51755 0
M  V30 12161 H 1139.82 0.358251 -7.78676 0
M  V30 12162 N 1144.05 1.41491 -0.694123 0
M  V30 12163 C 1145.47 1.55358 -0.365532 0
M  V30 12164 C 1145.67 1.66994 1.12762 0
M  V30 12165 O 1144.72 1.64756 1.91342 0
M  V30 12166 C 1146.03 2.79352 -1.11279 0
M  V30 12167 C 1147.58 2.93147 -1.097 0
M  V30 12168 C 1148.06 4.20027 -1.82597 0
M  V30 12169 N 1149.55 4.26981 -1.7956 0
M  V30 12170 C 1150.28 5.24013 -2.32805 0
M  V30 12171 N 1149.78 6.27083 -2.94515 0
M  V30 12172 N 1151.57 5.15943 -2.23069 0
M  V30 12173 H 1143.72 1.32183 -1.66257 0
M  V30 12174 H 1145.99 0.637624 -0.701527 0
M  V30 12175 H 1145.69 2.76958 -2.16765 0
M  V30 12176 H 1145.57 3.70827 -0.690439 0
M  V30 12177 H 1147.95 2.95057 -0.0504037 0
M  V30 12178 H 1148.03 2.02849 -1.55839 0
M  V30 12179 H 1147.68 4.18878 -2.87235 0
M  V30 12180 H 1147.61 5.09294 -1.33893 0
M  V30 12181 H 1150.1 3.53129 -1.34567 0
M  V30 12182 H 1150.41 6.97511 -3.32714 0
M  V30 12183 H 1148.76 6.27589 -2.98592 0
M  V30 12184 H 1151.95 4.34346 -1.74532 0
M  V30 12185 H 1152.12 5.91396 -2.64868 0
M  V30 12186 N 1145.53 0.438773 1.51369 0
M  V30 12187 C 1146.77 -0.127213 2.021 0
M  V30 12188 C 1147.1 -1.42587 1.32284 0
M  V30 12189 O 1146.36 -1.90986 0.426949 0
M  V30 12190 C 1146.66 -0.39186 3.55245 0
M  V30 12191 C 1146.32 0.821158 4.4336 0
M  V30 12192 C 1144.98 1.15381 4.67162 0
M  V30 12193 C 1147.34 1.6303 4.95046 0
M  V30 12194 C 1144.66 2.29626 5.39897 0
M  V30 12195 C 1147.02 2.76376 5.69033 0
M  V30 12196 C 1145.68 3.10094 5.91099 0
M  V30 12197 H 1144.95 -0.0465505 0.739536 0
M  V30 12198 H 1147.6 0.586261 1.82305 0
M  V30 12199 H 1145.9 -1.18724 3.73379 0
M  V30 12200 H 1147.6 -0.843228 3.92034 0
M  V30 12201 H 1144.19 0.551946 4.25031 0
M  V30 12202 H 1148.37 1.38651 4.76539 0
M  V30 12203 H 1143.63 2.56062 5.55196 0
M  V30 12204 H 1147.8 3.39442 6.08072 0
M  V30 12205 H 1145.43 3.98731 6.47238 0
M  V30 12206 N 1147.01 -1.56678 0.170181 0
M  V30 12207 C 1148.23 -2.0166 -0.484543 0
M  V30 12208 C 1148.66 -1.04962 -1.56091 0
M  V30 12209 O 1148.01 -0.0289887 -1.81277 0
M  V30 12210 C 1148.06 -3.45252 -1.04084 0
M  V30 12211 O 1147.17 -3.51623 -2.15488 0
M  V30 12212 H 1146.51 -0.653765 -0.116135 0
M  V30 12213 H 1149.04 -2.02761 0.273737 0
M  V30 12214 H 1149.05 -3.84534 -1.36373 0
M  V30 12215 H 1147.72 -4.15131 -0.252738 0
M  V30 12216 H 1146.3 -3.242 -1.84252 0
M  V30 12217 N 1148.48 0.103547 -1.57259 0
M  V30 12218 C 1149.45 1.11039 -2.00507 0
M  V30 12219 C 1150.45 1.33432 -0.897361 0
M  V30 12220 O 1151.64 1.29688 -1.16304 0
M  V30 12221 C 1148.77 2.46144 -2.35851 0
M  V30 12222 H 1149.96 0.738332 -2.90669 0
M  V30 12223 H 1147.51 0.348334 -1.52369 0
M  V30 12224 H 1148.25 2.88242 -1.48617 0
M  V30 12225 H 1148.03 2.31241 -3.16654 0
M  V30 12226 H 1149.52 3.18577 -2.69997 0
M  V30 12227 N 1149.96 1.53094 0.37415 0
M  V30 12228 C 1151.19 1.73061 1.143 0
M  V30 12229 C 1151.61 0.454611 1.82524 0
M  V30 12230 O 1150.97 -0.590743 1.71406 0
M  V30 12231 C 1151.02 2.89086 2.15549 0
M  V30 12232 O 1150.12 2.57096 3.22452 0
M  V30 12233 H 1149.46 0.575009 0.332055 0
M  V30 12234 H 1151.99 1.99946 0.433897 0
M  V30 12235 H 1152 3.15007 2.59296 0
M  V30 12236 H 1150.68 3.81647 1.65283 0
M  V30 12237 H 1149.25 2.41965 2.83738 0
M  V30 12238 N 1151.44 -0.633461 1.44309 0
M  V30 12239 C 1152.35 -1.77428 1.53481 0
M  V30 12240 C 1153.37 -1.68839 0.420628 0
M  V30 12241 O 1154.54 -1.89658 0.677638 0
M  V30 12242 C 1151.61 -3.13801 1.47409 0
M  V30 12243 C 1150.67 -3.34039 2.6966 0
M  V30 12244 C 1149.9 -4.63907 2.63868 0
M  V30 12245 O 1150.12 -5.44559 1.69741 0
M  V30 12246 O 1149.06 -4.86295 3.54684 0
M  V30 12247 H 1152.88 -1.72642 2.49857 0
M  V30 12248 H 1150.47 -0.794399 1.26529 0
M  V30 12249 H 1152.35 -3.95101 1.46537 0
M  V30 12250 H 1151.03 -3.19134 0.541769 0
M  V30 12251 H 1149.93 -2.52427 2.761 0
M  V30 12252 H 1151.27 -3.33566 3.61931 0
M  V30 12253 N 1152.92 -1.31168 -0.873655 0
M  V30 12254 C 1153.88 -1.18471 -1.96207 0
M  V30 12255 C 1154.88 -0.112814 -1.60404 0
M  V30 12256 O 1156.07 -0.3618 -1.70401 0
M  V30 12257 C 1153.2 -0.817662 -3.30949 0
M  V30 12258 H 1154.4 -2.1518 -2.08896 0
M  V30 12259 H 1151.95 -1.14727 -1.06149 0
M  V30 12260 H 1152.68 0.148428 -3.2396 0
M  V30 12261 H 1152.47 -1.59244 -3.58307 0
M  V30 12262 H 1153.96 -0.75262 -4.10762 0
M  V30 12263 N 1154.4 1.08748 -1.14068 0
M  V30 12264 C 1155.62 1.85353 -0.930532 0
M  V30 12265 C 1156.05 1.80892 0.515717 0
M  V30 12266 O 1155.4 1.19146 1.36652 0
M  V30 12267 C 1155.45 3.30962 -1.43167 0
M  V30 12268 O 1154.56 4.0769 -0.621468 0
M  V30 12269 H 1153.9 0.574485 -0.332962 0
M  V30 12270 H 1156.43 1.37282 -1.51707 0
M  V30 12271 H 1156.44 3.81807 -1.43832 0
M  V30 12272 H 1155.11 3.33524 -2.48464 0
M  V30 12273 H 1153.69 3.66587 -0.683267 0
M  V30 12274 N 1155.87 0.935264 1.26849 0
M  V30 12275 C 1157.12 0.57969 1.94025 0
M  V30 12276 C 1157.45 -0.880295 1.73439 0
M  V30 12277 O 1156.7 -1.64429 1.0612 0
M  V30 12278 C 1157 0.861098 3.46872 0
M  V30 12279 C 1156.67 2.30402 3.87589 0
M  V30 12280 C 1155.33 2.69848 3.98417 0
M  V30 12281 C 1157.68 3.242 4.08098 0
M  V30 12282 C 1155.01 4.02199 4.27145 0
M  V30 12283 C 1157.36 4.56141 4.38313 0
M  V30 12284 C 1156.03 4.9541 4.47354 0
M  V30 12285 H 1155.3 0.212123 0.709989 0
M  V30 12286 H 1157.94 1.18066 1.50774 0
M  V30 12287 H 1156.25 0.177534 3.91398 0
M  V30 12288 H 1157.95 0.564841 3.97002 0
M  V30 12289 H 1154.54 1.98803 3.79704 0
M  V30 12290 H 1158.72 2.94924 3.99166 0
M  V30 12291 H 1153.98 4.32295 4.32355 0
M  V30 12292 H 1158.15 5.28818 4.53128 0
M  V30 12293 H 1155.78 5.97994 4.69368 0
M  V30 12294 N 1157.35 -1.41121 0.701616 0
M  V30 12295 C 1158.28 -2.33436 0.0545974 0
M  V30 12296 C 1159.26 -1.52144 -0.760662 0
M  V30 12297 O 1160.45 -1.80661 -0.712414 0
M  V30 12298 C 1157.58 -3.36015 -0.878117 0
M  V30 12299 C 1156.53 -4.27664 -0.169511 0
M  V30 12300 C 1155.86 -5.20666 -1.21699 0
M  V30 12301 C 1157.16 -5.13254 0.967859 0
M  V30 12302 H 1158.85 -2.87791 0.825637 0
M  V30 12303 H 1156.4 -1.38377 0.398484 0
M  V30 12304 H 1158.35 -3.99526 -1.34004 0
M  V30 12305 H 1157.08 -2.80024 -1.68089 0
M  V30 12306 H 1155.73 -3.65586 0.272441 0
M  V30 12307 H 1155.38 -4.60987 -2.01246 0
M  V30 12308 H 1155.08 -5.82822 -0.747836 0
M  V30 12309 H 1156.61 -5.87053 -1.6793 0
M  V30 12310 H 1158.02 -5.70298 0.585944 0
M  V30 12311 H 1156.42 -5.84381 1.3645 0
M  V30 12312 H 1157.49 -4.5006 1.80483 0
M  V30 12313 N 1158.83 -0.446794 -1.51134 0
M  V30 12314 C 1159.74 0.36579 -2.31731 0
M  V30 12315 C 1160.76 1.01886 -1.41051 0
M  V30 12316 O 1161.93 1.01216 -1.74119 0
M  V30 12317 C 1159 1.44705 -3.15058 0
M  V30 12318 C 1158.06 0.813129 -4.21529 0
M  V30 12319 C 1157.29 1.84287 -5.00873 0
M  V30 12320 O 1157.51 3.06633 -4.8097 0
M  V30 12321 O 1156.45 1.42816 -5.84711 0
M  V30 12322 H 1160.27 -0.292436 -3.02289 0
M  V30 12323 H 1157.86 -0.209129 -1.47929 0
M  V30 12324 H 1159.74 2.07393 -3.66833 0
M  V30 12325 H 1158.42 2.08919 -2.47254 0
M  V30 12326 H 1157.32 0.147953 -3.73807 0
M  V30 12327 H 1158.66 0.214331 -4.91733 0
M  V30 12328 N 1160.31 1.56586 -0.178487 0
M  V30 12329 C 1161.56 1.96709 0.4637 0
M  V30 12330 C 1161.88 1.06586 1.63292 0
M  V30 12331 O 1161.15 0.133683 1.95443 0
M  V30 12332 H 1159.73 0.726381 0.174299 0
M  V30 12333 H 1162.39 1.9314 -0.261345 0
M  V30 12334 H 1161.49 3.01164 0.818934 0
M  V30 12335 N 1161.79 -0.095206 1.57312 0
M  V30 12336 C 1162.7 -1.13388 2.05379 0
M  V30 12337 C 1163.71 -1.43868 0.978668 0
M  V30 12338 O 1164.89 -1.54512 1.29182 0
M  V30 12339 C 1161.95 -2.43444 2.46852 0
M  V30 12340 C 1161.01 -2.20146 3.68557 0
M  V30 12341 C 1160.25 -3.44001 4.08043 0
M  V30 12342 O 1160.47 -4.52233 3.47623 0
M  V30 12343 O 1159.4 -3.33596 5.00997 0
M  V30 12344 H 1163.23 -0.755622 2.9415 0
M  V30 12345 H 1160.82 -0.307707 1.46197 0
M  V30 12346 H 1162.7 -3.20027 2.74155 0
M  V30 12347 H 1161.37 -2.80696 1.61219 0
M  V30 12348 H 1160.28 -1.41345 3.46371 0
M  V30 12349 H 1161.61 -1.87787 4.54969 0
M  V30 12350 N 1163.26 -1.53291 -0.366026 0
M  V30 12351 C 1164.23 -1.79025 -1.43117 0
M  V30 12352 C 1165.23 -0.660676 -1.46601 0
M  V30 12353 O 1166.42 -0.928875 -1.47369 0
M  V30 12354 C 1163.55 -1.91192 -2.82238 0
M  V30 12355 H 1164.74 -2.74154 -1.21572 0
M  V30 12356 H 1162.3 -1.44361 -0.599132 0
M  V30 12357 H 1163.03 -0.98129 -3.09097 0
M  V30 12358 H 1162.82 -2.7335 -2.81109 0
M  V30 12359 H 1164.31 -2.12696 -3.59375 0
M  V30 12360 N 1164.74 0.6258 -1.44643 0
M  V30 12361 C 1165.97 1.41726 -1.51422 0
M  V30 12362 C 1166.39 1.87565 -0.14181 0
M  V30 12363 O 1165.75 1.59059 0.870054 0
M  V30 12364 C 1165.8 2.61012 -2.48807 0
M  V30 12365 O 1164.9 3.61029 -1.99328 0
M  V30 12366 H 1164.24 0.423855 -0.511119 0
M  V30 12367 H 1166.77 0.763336 -1.89827 0
M  V30 12368 H 1166.78 3.08489 -2.67018 0
M  V30 12369 H 1165.46 2.26995 -3.48491 0
M  V30 12370 H 1164.04 3.20325 -1.90909 0
M  V30 12371 N 1166.22 1.31629 0.866686 0
M  V30 12372 C 1167.63 1.19347 1.43573 0
M  V30 12373 C 1167.98 -0.198765 1.95191 0
M  V30 12374 O 1167.11 -1.09674 1.86549 0
M  V30 12375 C 1167.7 2.16055 2.6097 0
M  V30 12376 C 1166.26 2.07697 3.13909 0
M  V30 12377 C 1165.41 2.05099 1.86627 0
M  V30 12378 H 1168.36 1.43633 0.674929 0
M  V30 12379 H 1168.38 1.75207 3.37761 0
M  V30 12380 H 1167.89 3.17375 2.23371 0
M  V30 12381 H 1165.99 1.09583 3.56121 0
M  V30 12382 H 1166.11 2.96958 3.75969 0
M  V30 12383 H 1164.47 1.50162 2.05727 0
M  V30 12384 H 1165.25 3.0818 1.51261 0
M  V30 12385 N 1167.7 -1.08142 1.14644 0
M  V30 12386 C 1169.11 -1.62061 0.926986 0
M  V30 12387 C 1169.46 -1.88805 -0.533578 0
M  V30 12388 O 1168.59 -1.64753 -1.40305 0
M  V30 12389 C 1169.18 -2.94425 1.67629 0
M  V30 12390 C 1167.74 -3.45118 1.50235 0
M  V30 12391 C 1166.89 -2.19307 1.69705 0
M  V30 12392 H 1169.84 -0.913326 1.29785 0
M  V30 12393 H 1169.86 -3.62987 1.14107 0
M  V30 12394 H 1169.37 -2.74928 2.73927 0
M  V30 12395 H 1167.47 -3.69713 0.462967 0
M  V30 12396 H 1167.59 -4.2169 2.27408 0
M  V30 12397 H 1165.95 -2.28611 1.12291 0
M  V30 12398 H 1166.73 -2.02315 2.77351 0
M  V30 12399 N 1169.18 -0.941978 -1.26351 0
M  V30 12400 C 1170.11 -0.469913 -2.28723 0
M  V30 12401 C 1171.09 0.477218 -1.63269 0
M  V30 12402 O 1172.27 0.378902 -1.90468 0
M  V30 12403 C 1169.4 0.264971 -3.46288 0
M  V30 12404 C 1168.36 -0.595682 -4.23834 0
M  V30 12405 C 1167.68 0.269208 -5.34022 0
M  V30 12406 C 1168.98 -1.86743 -4.87775 0
M  V30 12407 H 1170.68 -1.32551 -2.6846 0
M  V30 12408 H 1168.22 -0.638809 -1.29055 0
M  V30 12409 H 1170.18 0.606259 -4.17016 0
M  V30 12410 H 1168.9 1.15471 -3.05506 0
M  V30 12411 H 1167.56 -0.919875 -3.54872 0
M  V30 12412 H 1167.21 1.15832 -4.89481 0
M  V30 12413 H 1166.91 -0.30325 -5.86817 0
M  V30 12414 H 1168.43 0.605748 -6.07588 0
M  V30 12415 H 1169.85 -1.59333 -5.50714 0
M  V30 12416 H 1168.24 -2.38452 -5.50691 0
M  V30 12417 H 1169.31 -2.57831 -4.10671 0
M  V30 12418 N 1170.66 1.40747 -0.709091 0
M  V30 12419 C 1171.9 2.00606 -0.245324 0
M  V30 12420 C 1172.22 1.56489 1.16346 0
M  V30 12421 O 1171.49 0.801456 1.78755 0
M  V30 12422 H 1170.07 0.741833 -0.0877098 0
M  V30 12423 H 1172.74 1.72178 -0.913271 0
M  V30 12424 H 1171.83 3.10901 -0.273322 0
M  V30 12425 N 1172.13 0.454803 1.50895 0
M  V30 12426 C 1173.1 -0.336293 2.26719 0
M  V30 12427 C 1174.1 -0.93464 1.30848 0
M  V30 12428 O 1175.29 -0.80636 1.54413 0
M  V30 12429 C 1172.42 -1.47744 3.07221 0
M  V30 12430 H 1173.61 0.328462 2.98096 0
M  V30 12431 H 1171.16 0.208419 1.54904 0
M  V30 12432 H 1171.9 -2.17773 2.40302 0
M  V30 12433 H 1171.68 -1.05438 3.77658 0
M  V30 12434 H 1173.17 -2.03592 3.6461 0
M  V30 12435 N 1173.61 -1.56489 0.186789 0
M  V30 12436 C 1175.03 -1.58701 -0.169176 0
M  V30 12437 C 1175.23 -1.2027 -1.61671 0
M  V30 12438 O 1174.28 -0.92154 -2.35083 0
M  V30 12439 C 1175.6 -3.00437 0.125657 0
M  V30 12440 C 1177.14 -3.12932 0.0651 0
M  V30 12441 C 1177.62 -4.56787 0.333131 0
M  V30 12442 N 1179.11 -4.62344 0.281453 0
M  V30 12443 C 1179.85 -5.71529 0.462805 0
M  V30 12444 N 1179.34 -6.89213 0.704054 0
M  V30 12445 N 1181.13 -5.60692 0.397636 0
M  V30 12446 H 1173.29 -1.79754 1.13148 0
M  V30 12447 H 1175.55 -0.83385 0.450997 0
M  V30 12448 H 1175.25 -3.33086 1.12901 0
M  V30 12449 H 1175.13 -3.72782 -0.575612 0
M  V30 12450 H 1177.52 -2.80101 -0.928845 0
M  V30 12451 H 1177.6 -2.42991 0.799318 0
M  V30 12452 H 1177.24 -4.9033 1.32436 0
M  V30 12453 H 1177.17 -5.24907 -0.421879 0
M  V30 12454 H 1179.66 -3.77764 0.101266 0
M  V30 12455 H 1179.97 -7.68314 0.831468 0
M  V30 12456 H 1178.32 -6.9104 0.740851 0
M  V30 12457 H 1181.51 -4.6763 0.20964 0
M  V30 12458 H 1181.68 -6.45726 0.54239 0
M  V30 12459 N 1175.09 0.086862 -1.5736 0
M  V30 12460 C 1176.51 0.441284 -1.53378 0
M  V30 12461 C 1176.71 1.80046 -0.904748 0
M  V30 12462 O 1175.76 2.47484 -0.500781 0
M  V30 12463 C 1177.07 0.3962 -2.98078 0
M  V30 12464 C 1178.62 0.477468 -3.09337 0
M  V30 12465 C 1179.1 0.462448 -4.55659 0
M  V30 12466 N 1180.59 0.522963 -4.60238 0
M  V30 12467 C 1181.32 0.533313 -5.70914 0
M  V30 12468 N 1180.82 0.499376 -6.90998 0
M  V30 12469 N 1182.61 0.578742 -5.59113 0
M  V30 12470 H 1174.76 -0.803308 -1.96623 0
M  V30 12471 H 1177.03 -0.299879 -0.89932 0
M  V30 12472 H 1176.73 -0.535505 -3.47599 0
M  V30 12473 H 1176.61 1.21209 -3.57195 0
M  V30 12474 H 1178.99 1.39959 -2.59799 0
M  V30 12475 H 1179.07 -0.366717 -2.53158 0
M  V30 12476 H 1178.72 -0.455768 -5.05851 0
M  V30 12477 H 1178.65 1.32396 -5.09685 0
M  V30 12478 H 1181.14 0.554051 -3.73816 0
M  V30 12479 H 1181.45 0.510784 -7.7111 0
M  V30 12480 H 1179.8 0.466296 -6.93434 0
M  V30 12481 H 1182.99 0.602841 -4.64202 0
M  V30 12482 H 1183.16 0.583339 -6.45369 0
M  V30 12483 N 1176.57 1.53483 0.357892 0
M  V30 12484 C 1177.98 1.43426 0.700073 0
M  V30 12485 C 1178.18 0.579493 1.92987 0
M  V30 12486 O 1177.24 0.0649086 2.52417 0
M  V30 12487 C 1178.55 2.86723 0.906099 0
M  V30 12488 C 1180.1 2.96405 1.00563 0
M  V30 12489 C 1180.58 4.4078 1.24407 0
M  V30 12490 N 1182.07 4.44243 1.3116 0
M  V30 12491 C 1182.8 5.53069 1.51333 0
M  V30 12492 N 1182.3 6.71928 1.68774 0
M  V30 12493 N 1184.09 5.40659 1.53765 0
M  V30 12494 H 1176.24 2.07559 -0.450894 0
M  V30 12495 H 1178.5 0.937649 -0.139711 0
M  V30 12496 H 1178.21 3.51622 0.0741579 0
M  V30 12497 H 1178.08 3.30827 1.81199 0
M  V30 12498 H 1180.47 2.31656 1.8281 0
M  V30 12499 H 1180.55 2.55684 0.0769512 0
M  V30 12500 H 1180.2 5.06105 0.426575 0
M  V30 12501 H 1180.13 4.7908 2.18608 0
M  V30 12502 H 1182.62 3.58587 1.19265 0
M  V30 12503 H 1182.93 7.50634 1.83762 0
M  V30 12504 H 1181.28 6.749 1.65937 0
M  V30 12505 H 1184.47 4.46764 1.39713 0
M  V30 12506 H 1184.64 6.25535 1.69146 0
M  V30 12507 N 1178.05 -0.61812 1.44973 0
M  V30 12508 C 1179.29 -1.3774 1.48439 0
M  V30 12509 C 1179.62 -1.94117 0.121999 0
M  V30 12510 O 1178.88 -1.749 -0.877974 0
M  V30 12511 C 1179.17 -2.55143 2.50274 0
M  V30 12512 C 1178.84 -2.16976 3.95262 0
M  V30 12513 C 1177.5 -2.06281 4.34743 0
M  V30 12514 C 1179.85 -1.8703 4.86486 0
M  V30 12515 C 1177.18 -1.63846 5.63357 0
M  V30 12516 C 1179.53 -1.46085 6.15501 0
M  V30 12517 C 1178.2 -1.3394 6.53924 0
M  V30 12518 H 1177.47 -0.504026 0.543175 0
M  V30 12519 H 1180.12 -0.699685 1.7826 0
M  V30 12520 H 1178.42 -3.28205 2.13983 0
M  V30 12521 H 1180.12 -3.13373 2.50197 0
M  V30 12522 H 1176.71 -2.26223 3.64034 0
M  V30 12523 H 1180.89 -1.94196 4.56729 0
M  V30 12524 H 1176.15 -1.53058 5.91932 0
M  V30 12525 H 1180.32 -1.21956 6.85638 0
M  V30 12526 H 1177.95 -1.00832 7.53483 0
M  V30 12527 N 1179.52 -1.32087 -0.859693 0
M  V30 12528 C 1180.75 -1.25486 -1.6513 0
M  V30 12529 C 1181.17 0.175015 -1.87284 0
M  V30 12530 O 1180.53 1.12468 -1.42199 0
M  V30 12531 C 1180.58 -2.01469 -2.9907 0
M  V30 12532 O 1179.68 -1.35904 -3.89363 0
M  V30 12533 H 1179.02 -0.432728 -0.503629 0
M  V30 12534 H 1181.55 -1.74322 -1.07112 0
M  V30 12535 H 1181.56 -2.11452 -3.4893 0
M  V30 12536 H 1180.24 -3.05448 -2.82266 0
M  V30 12537 H 1178.82 -1.34437 -3.47823 0
M  V30 12538 N 1181 1.07532 -1.15215 0
M  V30 12539 C 1181.96 2.1286 -0.84989 0
M  V30 12540 C 1182.96 1.60103 0.149524 0
M  V30 12541 O 1184.15 1.74017 -0.0798918 0
M  V30 12542 C 1181.29 3.3984 -0.268617 0
M  V30 12543 H 1182.48 2.41106 -1.78347 0
M  V30 12544 H 1180.03 1.23392 -0.959386 0
M  V30 12545 H 1180.77 3.17235 0.67325 0
M  V30 12546 H 1180.55 3.79433 -0.988592 0
M  V30 12547 H 1182.04 4.17533 -0.0746554 0
M  V30 12548 N 1182.48 0.948665 1.2585 0
M  V30 12549 C 1183.41 0.482036 2.2847 0
M  V30 12550 C 1184.39 -0.468553 1.63519 0
M  V30 12551 O 1185.58 -0.368796 1.90666 0
M  V30 12552 C 1182.71 -0.246603 3.46423 0
M  V30 12553 C 1181.66 0.61815 4.23513 0
M  V30 12554 C 1180.99 -0.240884 5.34157 0
M  V30 12555 C 1182.29 1.89327 4.86778 0
M  V30 12556 H 1183.98 1.33973 2.67753 0
M  V30 12557 H 1181.53 0.645645 1.28715 0
M  V30 12558 H 1183.48 -0.584135 4.17332 0
M  V30 12559 H 1182.2 -1.13849 3.06114 0
M  V30 12560 H 1180.86 0.938682 3.54379 0
M  V30 12561 H 1180.51 -1.13235 4.90089 0
M  V30 12562 H 1180.21 0.334367 5.86648 0
M  V30 12563 H 1181.73 -0.573517 6.07901 0
M  V30 12564 H 1183.15 1.62252 5.49861 0
M  V30 12565 H 1181.55 2.41369 5.49419 0
M  V30 12566 H 1182.62 2.60006 4.09298 0
M  V30 12567 N 1183.96 -1.40369 0.716545 0
M  V30 12568 C 1184.89 -2.33365 0.0793533 0
M  V30 12569 C 1185.87 -1.52943 -0.744482 0
M  V30 12570 O 1187.05 -1.81406 -0.693212 0
M  V30 12571 C 1184.18 -3.36928 -0.842429 0
M  V30 12572 C 1183.14 -4.2782 -0.124142 0
M  V30 12573 C 1182.46 -5.21928 -1.1617 0
M  V30 12574 C 1183.76 -5.12199 1.02224 0
M  V30 12575 H 1185.46 -2.86899 0.856115 0
M  V30 12576 H 1183 -1.37946 0.413138 0
M  V30 12577 H 1184.96 -4.00925 -1.29759 0
M  V30 12578 H 1183.68 -2.81791 -1.6511 0
M  V30 12579 H 1182.34 -3.65277 0.311201 0
M  V30 12580 H 1181.99 -4.63096 -1.96345 0
M  V30 12581 H 1181.69 -5.83582 -0.685978 0
M  V30 12582 H 1183.21 -5.88802 -1.61694 0
M  V30 12583 H 1184.63 -5.69644 0.646399 0
M  V30 12584 H 1183.02 -5.82901 1.4264 0
M  V30 12585 H 1184.09 -4.4812 1.85246 0
M  V30 12586 N 1185.44 -0.462799 -1.50652 0
M  V30 12587 C 1186.35 0.341191 -2.32106 0
M  V30 12588 C 1187.36 1.00384 -1.42123 0
M  V30 12589 O 1188.54 0.993635 -1.75182 0
M  V30 12590 C 1185.6 1.41356 -3.16575 0
M  V30 12591 C 1184.66 0.768375 -4.22368 0
M  V30 12592 C 1183.9 1.78964 -5.028 0
M  V30 12593 O 1184.12 3.01515 -4.84195 0
M  V30 12594 O 1183.05 1.36606 -5.86193 0
M  V30 12595 H 1186.88 -0.324482 -3.01962 0
M  V30 12596 H 1184.47 -0.224807 -1.47699 0
M  V30 12597 H 1186.35 2.0349 -3.69012 0
M  V30 12598 H 1185.02 2.06285 -2.49456 0
M  V30 12599 H 1183.93 0.108297 -3.73943 0
M  V30 12600 H 1185.26 0.162164 -4.91933 0
M  V30 12601 N 1186.91 1.56388 -0.195085 0
M  V30 12602 C 1188.33 1.8398 0.317513 0
M  V30 12603 C 1188.68 1.11575 1.61386 0
M  V30 12604 O 1187.8 0.376557 2.13099 0
M  V30 12605 C 1188.4 3.33749 0.582859 0
M  V30 12606 C 1186.96 3.61752 1.03983 0
M  V30 12607 C 1186.1 2.77159 0.088434 0
M  V30 12608 H 1189.05 1.53072 -0.418871 0
M  V30 12609 H 1189.07 3.52519 1.43216 0
M  V30 12610 H 1188.59 3.86419 -0.360813 0
M  V30 12611 H 1186.69 3.14515 1.99778 0
M  V30 12612 H 1186.8 4.69937 0.932549 0
M  V30 12613 H 1185.16 2.47765 0.590317 0
M  V30 12614 H 1185.95 3.32619 -0.849682 0
M  V30 12615 N 1188.39 -0.0785156 1.57404 0
M  V30 12616 C 1189.62 -0.795871 1.91522 0
M  V30 12617 C 1190.04 -1.70665 0.790892 0
M  V30 12618 O 1189.4 -1.79474 -0.25666 0
M  V30 12619 C 1189.45 -1.57121 3.24569 0
M  V30 12620 O 1188.55 -2.6814 3.13328 0
M  V30 12621 H 1187.89 -0.217575 0.627341 0
M  V30 12622 H 1190.42 -0.0487724 2.04542 0
M  V30 12623 H 1190.43 -1.9519 3.5828 0
M  V30 12624 H 1189.11 -0.902909 4.05981 0
M  V30 12625 H 1187.69 -2.32978 2.91163 0
M  V30 12626 N 1189.87 -1.5367 -0.349747 0
M  V30 12627 C 1191.29 -1.43796 -0.692457 0
M  V30 12628 C 1191.49 -0.58972 -1.92677 0
M  V30 12629 O 1190.54 -0.078294 -2.52379 0
M  V30 12630 C 1191.86 -2.872 -0.890881 0
M  V30 12631 C 1193.4 -2.96935 -0.989892 0
M  V30 12632 C 1193.88 -4.41433 -1.22068 0
M  V30 12633 N 1195.37 -4.44932 -1.28802 0
M  V30 12634 C 1196.1 -5.53864 -1.48398 0
M  V30 12635 N 1195.6 -6.72814 -1.65208 0
M  V30 12636 N 1197.39 -5.41467 -1.50896 0
M  V30 12637 H 1189.54 -2.07317 0.461895 0
M  V30 12638 H 1191.81 -0.936895 0.144681 0
M  V30 12639 H 1191.51 -3.51656 -0.0555095 0
M  V30 12640 H 1191.39 -3.31784 -1.79442 0
M  V30 12641 H 1193.77 -2.32622 -1.81579 0
M  V30 12642 H 1193.86 -2.55721 -0.0633906 0
M  V30 12643 H 1193.5 -5.06325 -0.399729 0
M  V30 12644 H 1193.43 -4.80233 -2.16064 0
M  V30 12645 H 1195.92 -3.59214 -1.17361 0
M  V30 12646 H 1196.23 -7.51598 -1.79779 0
M  V30 12647 H 1194.58 -6.7577 -1.62356 0
M  V30 12648 H 1197.77 -4.47498 -1.37342 0
M  V30 12649 H 1197.94 -6.26423 -1.65826 0
M  V30 12650 N 1191.35 0.610423 -1.45298 0
M  V30 12651 C 1192.6 1.36951 -1.49167 0
M  V30 12652 C 1192.92 1.9405 -0.132292 0
M  V30 12653 O 1192.18 1.75363 0.868686 0
M  V30 12654 C 1192.48 2.53812 -2.51623 0
M  V30 12655 C 1192.14 2.14877 -3.96407 0
M  V30 12656 C 1190.81 2.03972 -4.35831 0
M  V30 12657 C 1193.16 1.84448 -4.87472 0
M  V30 12658 C 1190.49 1.60856 -5.64218 0
M  V30 12659 C 1192.84 1.42818 -6.16268 0
M  V30 12660 C 1191.5 1.3047 -6.54625 0
M  V30 12661 H 1190.77 0.501138 -0.54584 0
M  V30 12662 H 1193.42 0.690221 -1.78629 0
M  V30 12663 H 1191.72 3.27066 -2.1572 0
M  V30 12664 H 1193.42 3.12041 -2.51856 0
M  V30 12665 H 1190.01 2.2429 -3.65229 0
M  V30 12666 H 1194.19 1.91771 -4.57753 0
M  V30 12667 H 1189.45 1.49916 -5.92735 0
M  V30 12668 H 1193.62 1.18318 -6.86275 0
M  V30 12669 H 1191.25 0.968347 -7.54007 0
M  V30 12670 N 1192.83 1.32541 0.852676 0
M  V30 12671 C 1194.05 1.2636 1.64462 0
M  V30 12672 C 1194.48 -0.16508 1.87374 0
M  V30 12673 O 1193.83 -1.11712 1.42794 0
M  V30 12674 C 1193.88 2.03052 2.97997 0
M  V30 12675 O 1192.99 1.37967 3.88637 0
M  V30 12676 H 1192.33 0.435393 0.501327 0
M  V30 12677 H 1194.86 1.74888 1.06186 0
M  V30 12678 H 1194.87 2.133 3.47803 0
M  V30 12679 H 1193.54 3.06941 2.80642 0
M  V30 12680 H 1192.12 1.36279 3.47106 0
M  V30 12681 N 1194.3 -1.0692 1.15784 0
M  V30 12682 C 1195.27 -2.12407 0.861167 0
M  V30 12683 C 1196.27 -1.6018 -0.141031 0
M  V30 12684 O 1197.46 -1.73972 0.0891192 0
M  V30 12685 C 1194.59 -3.39693 0.286636 0
M  V30 12686 H 1195.78 -2.40157 1.79623 0
M  V30 12687 H 1193.34 -1.22881 0.965916 0
M  V30 12688 H 1194.07 -3.17587 -0.656417 0
M  V30 12689 H 1193.86 -3.78903 1.0087 0
M  V30 12690 H 1195.35 -4.17488 0.0967971 0
M  V30 12691 N 1195.78 -0.955326 -1.25345 0
M  V30 12692 C 1197.19 -0.651118 -1.74978 0
M  V30 12693 C 1197.54 0.833495 -1.77616 0
M  V30 12694 O 1196.67 1.65228 -1.39745 0
M  V30 12695 C 1197.26 -1.17521 -3.17764 0
M  V30 12696 C 1195.82 -0.921151 -3.64954 0
M  V30 12697 C 1194.97 -1.31784 -2.43984 0
M  V30 12698 H 1197.92 -1.13205 -1.11222 0
M  V30 12699 H 1197.94 -0.535625 -3.76711 0
M  V30 12700 H 1197.45 -2.25575 -3.15813 0
M  V30 12701 H 1195.56 0.144392 -3.7232 0
M  V30 12702 H 1195.67 -1.5581 -4.53056 0
M  V30 12703 H 1194.03 -0.736219 -2.43828 0
M  V30 12704 H 1194.82 -2.40761 -2.44723 0
M  V30 12705 N 1197.26 1.39987 -0.723979 0
M  V30 12706 C 1198.19 2.2917 -0.0373445 0
M  V30 12707 C 1199.21 1.46258 0.715015 0
M  V30 12708 O 1200.4 1.69455 0.561003 0
M  V30 12709 C 1197.5 3.2468 0.971384 0
M  V30 12710 C 1196.67 4.36485 0.282826 0
M  V30 12711 C 1195.73 5.12379 1.19811 0
M  V30 12712 O 1194.75 5.65127 0.67974 0
M  V30 12713 N 1195.96 5.22531 2.52866 0
M  V30 12714 H 1198.72 2.88738 -0.803131 0
M  V30 12715 H 1196.28 1.51448 -0.572292 0
M  V30 12716 H 1198.27 3.72326 1.58606 0
M  V30 12717 H 1196.84 2.6622 1.63846 0
M  V30 12718 H 1196.06 3.90859 -0.512167 0
M  V30 12719 H 1197.35 5.08427 -0.194793 0
M  V30 12720 H 1196.75 4.81174 2.97469 0
M  V30 12721 H 1195.31 5.73655 3.09457 0
M  V30 12722 N 1198.74 0.470782 1.50404 0
M  V30 12723 C 1199.65 -0.328877 2.32283 0
M  V30 12724 C 1200.67 -0.99629 1.42654 0
M  V30 12725 O 1201.84 -0.984331 1.75707 0
M  V30 12726 C 1198.91 -1.39675 3.1732 0
M  V30 12727 C 1197.97 -0.745965 4.22769 0
M  V30 12728 C 1197.2 -1.76295 5.03742 0
M  V30 12729 O 1197.42 -2.98943 4.85788 0
M  V30 12730 O 1196.36 -1.33495 5.86909 0
M  V30 12731 H 1200.18 0.340491 3.01785 0
M  V30 12732 H 1197.77 0.232637 1.47578 0
M  V30 12733 H 1199.65 -2.0153 3.70086 0
M  V30 12734 H 1198.33 -2.04959 2.50546 0
M  V30 12735 H 1197.23 -0.0884647 3.73995 0
M  V30 12736 H 1198.57 -0.136074 4.92012 0
M  V30 12737 N 1200.22 -1.56282 0.203376 0
M  V30 12738 C 1201.49 -1.89587 -0.481256 0
M  V30 12739 C 1201.87 -1.11812 -1.79057 0
M  V30 12740 O 1201.22 -0.221759 -2.27421 0
M  V30 12741 C 1201.43 -3.42071 -0.691965 0
M  V30 12742 C 1202.78 -4.12471 -1.00761 0
M  V30 12743 O 1203.8 -3.47568 -0.779396 0
M  V30 12744 O 1202.66 -5.27194 -1.43974 0
M  V30 12745 H 1199.76 -0.787682 -0.251963 0
M  V30 12746 H 1202.3 -1.67934 0.244207 0
M  V30 12747 H 1201.08 -3.9061 0.232322 0
M  V30 12748 H 1200.7 -3.69444 -1.46958 0
M  V30 12749 N 1201.7 0.070167 -1.57444 0
M  V30 12750 C 1202.61 1.10106 -2.07157 0
M  V30 12751 C 1203.62 1.42293 -1.00143 0
M  V30 12752 O 1204.8 1.52437 -1.31624 0
M  V30 12753 C 1201.86 2.39486 -2.50694 0
M  V30 12754 C 1200.92 2.14255 -3.72012 0
M  V30 12755 C 1200.16 3.37466 -4.13464 0
M  V30 12756 O 1200.38 4.46645 -3.54773 0
M  V30 12757 O 1199.31 3.25583 -5.0624 0
M  V30 12758 H 1203.14 0.70873 -2.95315 0
M  V30 12759 H 1200.72 0.28441 -1.46668 0
M  V30 12760 H 1202.61 3.15625 -2.79212 0
M  V30 12761 H 1201.28 2.78095 -1.65664 0
M  V30 12762 H 1200.19 1.35816 -3.48575 0
M  V30 12763 H 1201.52 1.80525 -4.57899 0
M  V30 12764 N 1203.17 1.53854 0.341593 0
M  V30 12765 C 1204.45 1.61823 1.09875 0
M  V30 12766 C 1204.83 0.440711 2.06448 0
M  V30 12767 O 1204.18 -0.566833 2.21358 0
M  V30 12768 C 1204.39 2.9799 1.81668 0
M  V30 12769 C 1205.74 3.53411 2.35341 0
M  V30 12770 O 1206.76 3.00177 1.91761 0
M  V30 12771 O 1205.62 4.4653 3.15076 0
M  V30 12772 H 1202.71 0.654599 0.5054 0
M  V30 12773 H 1205.26 1.66199 0.342929 0
M  V30 12774 H 1204.03 3.7513 1.11323 0
M  V30 12775 H 1203.65 2.97213 2.64103 0
M  V30 12776 N 1204.65 -0.602709 1.4562 0
M  V30 12777 C 1205.56 -1.74132 1.5721 0
M  V30 12778 C 1206.58 -1.67909 0.456347 0
M  V30 12779 O 1207.75 -1.88178 0.717714 0
M  V30 12780 C 1204.82 -3.10604 1.54032 0
M  V30 12781 C 1203.88 -3.28244 2.76685 0
M  V30 12782 C 1203.11 -4.58205 2.73649 0
M  V30 12783 O 1203.34 -5.40836 1.81254 0
M  V30 12784 O 1202.27 -4.78663 3.64919 0
M  V30 12785 H 1206.1 -1.67304 2.53462 0
M  V30 12786 H 1203.68 -0.767381 1.28186 0
M  V30 12787 H 1205.56 -3.91904 1.54885 0
M  V30 12788 H 1204.24 -3.17913 0.60934 0
M  V30 12789 H 1203.14 -2.46514 2.81393 0
M  V30 12790 H 1204.48 -3.25814 3.68925 0
M  V30 12791 N 1206.13 -1.32992 -0.845635 0
M  V30 12792 C 1207.09 -1.22607 -1.9365 0
M  V30 12793 C 1208.09 -0.146812 -1.60128 0
M  V30 12794 O 1209.28 -0.397863 -1.69596 0
M  V30 12795 C 1206.41 -0.887677 -3.2914 0
M  V30 12796 H 1207.61 -2.19563 -2.04285 0
M  V30 12797 H 1205.16 -1.16952 -1.03691 0
M  V30 12798 H 1205.9 0.0796777 -3.24202 0
M  V30 12799 H 1205.68 -1.66808 -3.54849 0
M  V30 12800 H 1207.17 -0.83958 -4.09073 0
M  V30 12801 N 1207.61 1.06304 -1.1635 0
M  V30 12802 C 1209.02 1.31227 -0.90838 0
M  V30 12803 C 1209.22 1.96665 0.438779 0
M  V30 12804 O 1208.28 2.2332 1.17833 0
M  V30 12805 C 1209.59 2.19303 -2.05734 0
M  V30 12806 C 1211.14 2.3272 -2.09309 0
M  V30 12807 C 1211.62 3.24151 -3.23559 0
M  V30 12808 N 1213.11 3.31734 -3.23275 0
M  V30 12809 C 1213.84 4.02572 -4.08318 0
M  V30 12810 N 1213.34 4.75933 -5.03448 0
M  V30 12811 N 1215.13 3.98621 -3.96305 0
M  V30 12812 H 1207.28 0.622228 -2.03081 0
M  V30 12813 H 1209.54 0.336892 -0.886119 0
M  V30 12814 H 1209.25 1.78497 -3.03037 0
M  V30 12815 H 1209.12 3.19888 -1.99879 0
M  V30 12816 H 1211.51 2.72774 -1.12599 0
M  V30 12817 H 1211.59 1.31804 -2.19229 0
M  V30 12818 H 1211.24 2.84813 -4.20528 0
M  V30 12819 H 1211.17 4.25046 -3.10875 0
M  V30 12820 H 1213.66 2.79453 -2.5439 0
M  V30 12821 H 1213.97 5.27512 -5.64758 0
M  V30 12822 H 1212.32 4.74913 -5.07427 0
M  V30 12823 H 1215.51 3.40427 -3.21289 0
M  V30 12824 H 1215.68 4.5356 -4.62804 0
M  V30 12825 N 1209.09 0.96196 1.24836 0
M  V30 12826 C 1210.02 0.506241 2.27946 0
M  V30 12827 C 1211 -0.451183 1.64007 0
M  V30 12828 O 1212.18 -0.348552 1.91046 0
M  V30 12829 C 1209.31 -0.209846 3.46665 0
M  V30 12830 C 1208.27 0.663035 4.22833 0
M  V30 12831 C 1207.59 -0.184216 5.34383 0
M  V30 12832 C 1208.89 1.94479 4.84742 0
M  V30 12833 H 1210.59 1.36805 2.66317 0
M  V30 12834 H 1208.13 0.65926 1.28023 0
M  V30 12835 H 1210.08 -0.539838 4.17928 0
M  V30 12836 H 1208.81 -1.10596 3.07305 0
M  V30 12837 H 1207.47 0.976216 3.53363 0
M  V30 12838 H 1207.12 -1.08031 4.91262 0
M  V30 12839 H 1206.82 0.39657 5.8626 0
M  V30 12840 H 1208.34 -0.509009 6.08475 0
M  V30 12841 H 1209.75 1.68074 5.48109 0
M  V30 12842 H 1208.15 2.47183 5.46828 0
M  V30 12843 H 1209.22 2.64332 4.06517 0
M  V30 12844 N 1210.56 -1.39601 0.731392 0
M  V30 12845 C 1211.98 -1.54334 0.406594 0
M  V30 12846 C 1212.18 -1.69925 -1.08295 0
M  V30 12847 O 1211.24 -1.69771 -1.86906 0
M  V30 12848 C 1212.55 -2.76303 1.18647 0
M  V30 12849 C 1214.1 -2.90135 1.17433 0
M  V30 12850 C 1214.57 -4.15038 1.93669 0
M  V30 12851 N 1216.06 -4.2207 1.90817 0
M  V30 12852 C 1216.8 -5.17656 2.46616 0
M  V30 12853 N 1216.29 -6.19054 3.11037 0
M  V30 12854 N 1218.09 -5.09847 2.3667 0
M  V30 12855 H 1210.24 -1.27728 1.69703 0
M  V30 12856 H 1212.5 -0.6188 0.718186 0
M  V30 12857 H 1212.21 -2.71113 2.24032 0
M  V30 12858 H 1212.08 -3.68866 0.788514 0
M  V30 12859 H 1214.47 -2.9482 0.128615 0
M  V30 12860 H 1214.55 -1.98646 1.61163 0
M  V30 12861 H 1214.19 -4.11115 2.9824 0
M  V30 12862 H 1214.12 -5.05565 1.47349 0
M  V30 12863 H 1216.61 -3.49437 1.43882 0
M  V30 12864 H 1216.93 -6.88444 3.51091 0
M  V30 12865 H 1215.27 -6.19452 3.15126 0
M  V30 12866 H 1218.46 -4.29566 1.85987 0
M  V30 12867 H 1218.64 -5.84165 2.80455 0
M  V30 12868 N 1212.04 -0.478751 -1.50152 0
M  V30 12869 C 1213.46 -0.133356 -1.59042 0
M  V30 12870 C 1213.66 1.36069 -1.48618 0
M  V30 12871 O 1212.71 2.13468 -1.34862 0
M  V30 12872 C 1214.03 -0.690369 -2.92668 0
M  V30 12873 C 1215.58 -0.654481 -3.06081 0
M  V30 12874 C 1216.05 -1.18917 -4.42293 0
M  V30 12875 N 1217.54 -1.14891 -4.48725 0
M  V30 12876 C 1218.28 -1.53305 -5.52526 0
M  V30 12877 N 1217.77 -1.99205 -6.63543 0
M  V30 12878 N 1219.57 -1.4486 -5.43113 0
M  V30 12879 H 1211.72 -1.45037 -1.55171 0
M  V30 12880 H 1213.98 -0.600254 -0.733757 0
M  V30 12881 H 1213.69 -1.7373 -3.05795 0
M  V30 12882 H 1213.56 -0.138227 -3.76947 0
M  V30 12883 H 1215.95 0.383564 -2.92597 0
M  V30 12884 H 1216.03 -1.24352 -2.2354 0
M  V30 12885 H 1215.67 -2.22588 -4.56527 0
M  V30 12886 H 1215.6 -0.57628 -5.23437 0
M  V30 12887 H 1218.09 -0.812344 -3.69066 0
M  V30 12888 H 1218.41 -2.26645 -7.38818 0
M  V30 12889 H 1216.75 -2.03164 -6.64642 0
M  V30 12890 H 1219.94 -1.08836 -4.55272 0
M  V30 12891 H 1220.11 -1.75123 -6.23888 0
M  V30 12892 N 1213.52 1.56172 -0.211661 0
M  V30 12893 C 1214.93 1.84307 0.297982 0
M  V30 12894 C 1215.28 1.1328 1.60194 0
M  V30 12895 O 1214.41 0.399137 2.12687 0
M  V30 12896 C 1215 3.34348 0.547428 0
M  V30 12897 C 1213.56 3.62835 1.0014 0
M  V30 12898 C 1212.71 2.77237 0.0590326 0
M  V30 12899 H 1215.66 1.5262 -0.435083 0
M  V30 12900 H 1215.68 3.54018 1.39469 0
M  V30 12901 H 1215.19 3.86015 -0.401778 0
M  V30 12902 H 1213.29 3.16616 1.96431 0
M  V30 12903 H 1213.41 4.70899 0.882653 0
M  V30 12904 H 1211.77 2.48377 0.564005 0
M  V30 12905 H 1212.55 3.31699 -0.884913 0
M  V30 12906 N 1215 -0.0618163 1.57479 0
M  V30 12907 C 1216.41 -0.612461 1.76368 0
M  V30 12908 C 1216.76 -1.77381 0.838466 0
M  V30 12909 O 1215.89 -2.16386 0.0250211 0
M  V30 12910 C 1216.48 -1.11782 3.19829 0
M  V30 12911 C 1215.04 -1.61424 3.40028 0
M  V30 12912 C 1214.19 -0.53795 2.72032 0
M  V30 12913 H 1217.14 0.164382 1.57846 0
M  V30 12914 H 1217.16 -1.98634 3.24538 0
M  V30 12915 H 1216.67 -0.272353 3.87143 0
M  V30 12916 H 1214.77 -2.48263 2.77842 0
M  V30 12917 H 1214.88 -1.68431 4.48517 0
M  V30 12918 H 1213.25 -0.985355 2.34868 0
M  V30 12919 H 1214.03 0.297495 3.42009 0
M  V30 12920 N 1216.48 -1.54033 -0.333429 0
M  V30 12921 C 1217.89 -1.44522 -0.677166 0
M  V30 12922 C 1218.09 -0.610122 -1.92041 0
M  V30 12923 O 1217.15 -0.105058 -2.52281 0
M  V30 12924 C 1218.46 -2.88129 -0.860369 0
M  V30 12925 C 1220.01 -2.97968 -0.958342 0
M  V30 12926 C 1220.48 -4.42703 -1.17379 0
M  V30 12927 N 1221.98 -4.46273 -1.24075 0
M  V30 12928 C 1222.71 -5.55407 -1.42515 0
M  V30 12929 N 1222.21 -6.74528 -1.58062 0
M  V30 12930 N 1224 -5.43037 -1.45144 0
M  V30 12931 H 1216.15 -2.06815 0.483858 0
M  V30 12932 H 1218.41 -0.935307 0.15461 0
M  V30 12933 H 1218.12 -3.51695 -0.0182085 0
M  V30 12934 H 1217.99 -3.33668 -1.75913 0
M  V30 12935 H 1220.38 -2.34535 -1.79102 0
M  V30 12936 H 1220.46 -2.55774 -0.0362643 0
M  V30 12937 H 1220.11 -5.0672 -0.346004 0
M  V30 12938 H 1220.04 -4.82498 -2.10959 0
M  V30 12939 H 1222.53 -3.60439 -1.13545 0
M  V30 12940 H 1222.84 -7.53462 -1.71797 0
M  V30 12941 H 1221.18 -6.77454 -1.55179 0
M  V30 12942 H 1224.38 -4.4893 -1.32588 0
M  V30 12943 H 1224.55 -6.28146 -1.59173 0
M  V30 12944 N 1217.95 0.594978 -1.45938 0
M  V30 12945 C 1219.37 1.17703 -1.44924 0
M  V30 12946 C 1219.72 1.9534 -0.183522 0
M  V30 12947 O 1218.84 2.04276 0.714163 0
M  V30 12948 C 1219.44 2.14119 -2.62561 0
M  V30 12949 C 1218 2.67674 -2.64627 0
M  V30 12950 C 1217.14 1.43312 -2.37397 0
M  V30 12951 H 1220.09 0.383583 -1.53995 0
M  V30 12952 H 1220.11 2.97374 -2.3738 0
M  V30 12953 H 1219.63 1.57586 -3.54667 0
M  V30 12954 H 1217.73 3.28111 -1.76562 0
M  V30 12955 H 1217.84 3.11246 -3.64229 0
M  V30 12956 H 1216.2 1.72702 -1.87206 0
M  V30 12957 H 1216.99 0.886276 -3.31663 0
M  V30 12958 N 1219.43 1.33438 0.838571 0
M  V30 12959 C 1220.66 1.28097 1.63113 0
M  V30 12960 C 1221.08 -0.145197 1.87539 0
M  V30 12961 O 1220.44 -1.10191 1.43971 0
M  V30 12962 C 1220.49 2.06201 2.95827 0
M  V30 12963 O 1219.59 1.42082 3.87152 0
M  V30 12964 H 1218.93 0.440685 0.496681 0
M  V30 12965 H 1221.46 1.76004 1.04325 0
M  V30 12966 H 1221.47 2.16977 3.45521 0
M  V30 12967 H 1220.15 3.099 2.77371 0
M  V30 12968 H 1218.73 1.39953 3.45641 0
M  V30 12969 N 1220.91 -1.05686 1.16912 0
M  V30 12970 C 1222.14 -1.82821 0.979348 0
M  V30 12971 C 1222.56 -1.82196 -0.467575 0
M  V30 12972 O 1221.92 -1.22727 -1.33445 0
M  V30 12973 C 1221.97 -3.2705 1.51891 0
M  V30 12974 O 1221.07 -4.05899 0.729341 0
M  V30 12975 H 1220.41 -0.565455 0.348076 0
M  V30 12976 H 1222.94 -1.33211 1.55293 0
M  V30 12977 H 1222.95 -3.77859 1.53904 0
M  V30 12978 H 1221.63 -3.26819 2.5722 0
M  V30 12979 H 1220.2 -3.64646 0.780221 0
M  V30 12980 N 1222.39 -0.968567 -1.24324 0
M  V30 12981 C 1223.67 -0.547774 -1.87773 0
M  V30 12982 C 1224.05 0.975107 -1.87229 0
M  V30 12983 O 1223.39 1.84683 -1.34553 0
M  V30 12984 C 1223.6 -1.1403 -3.29846 0
M  V30 12985 C 1224.95 -1.22572 -4.06523 0
M  V30 12986 O 1225.98 -1.09287 -3.3902 0
M  V30 12987 O 1224.83 -1.43579 -5.27302 0
M  V30 12988 H 1221.93 -0.182771 -0.806551 0
M  V30 12989 H 1224.47 -1.06289 -1.3229 0
M  V30 12990 H 1223.25 -2.18303 -3.24745 0
M  V30 12991 H 1222.87 -0.609275 -3.92904 0
M  V30 12992 N 1223.87 1.39211 -0.738786 0
M  V30 12993 C 1225.28 1.83237 -0.357916 0
M  V30 12994 C 1225.63 1.61698 1.11123 0
M  V30 12995 O 1224.75 1.11017 1.85753 0
M  V30 12996 C 1225.35 3.32645 -0.64285 0
M  V30 12997 C 1223.91 3.75076 -0.315432 0
M  V30 12998 C 1223.05 2.62166 -0.903556 0
M  V30 12999 H 1226.01 1.2815 -0.936127 0
M  V30 13000 H 1226.03 3.80407 0.0840812 0
M  V30 13001 H 1225.54 3.4829 -1.71218 0
M  V30 13002 H 1223.64 3.65017 0.747907 0
M  V30 13003 H 1223.75 4.72363 -0.800638 0
M  V30 13004 H 1222.12 2.52554 -0.329927 0
M  V30 13005 H 1222.9 2.80616 -1.97761 0
M  V30 13006 N 1225.34 0.486708 1.49896 0
M  V30 13007 C 1226.31 -0.288126 2.27382 0
M  V30 13008 C 1227.31 -0.906675 1.32801 0
M  V30 13009 O 1228.5 -0.773425 1.56089 0
M  V30 13010 C 1225.63 -1.41194 3.10285 0
M  V30 13011 H 1226.82 0.391618 2.97332 0
M  V30 13012 H 1224.38 0.24123 1.54427 0
M  V30 13013 H 1225.11 -2.12627 2.44868 0
M  V30 13014 H 1224.9 -0.974033 3.79809 0
M  V30 13015 H 1226.39 -1.95812 3.68846 0
M  V30 13016 N 1226.82 -1.56058 0.219941 0
M  V30 13017 C 1228.07 -1.97869 -0.411383 0
M  V30 13018 C 1228.39 -1.10878 -1.60409 0
M  V30 13019 O 1227.66 -0.185454 -1.9502 0
M  V30 13020 H 1226.24 -0.730747 -0.154979 0
M  V30 13021 H 1228.9 -1.92379 0.312461 0
M  V30 13022 H 1228 -3.0323 -0.738798 0
M  V30 13023 N 1228.3 0.053464 -1.57509 0
M  V30 13024 C 1229.53 0.765301 -1.92764 0
M  V30 13025 C 1229.95 1.69385 -0.817943 0
M  V30 13026 O 1229.31 1.7986 0.228075 0
M  V30 13027 C 1229.36 1.51938 -3.27028 0
M  V30 13028 O 1228.46 2.63121 -3.17555 0
M  V30 13029 H 1227.8 0.207567 -0.630723 0
M  V30 13030 H 1230.33 0.0162254 -2.04594 0
M  V30 13031 H 1230.34 1.89466 -3.6134 0
M  V30 13032 H 1229.02 0.838207 -4.07366 0
M  V30 13033 H 1227.59 2.28316 -2.94832 0
M  V30 13034 N 1229.78 1.54207 0.325255 0
M  V30 13035 C 1230.71 1.86467 1.40543 0
M  V30 13036 C 1231.69 0.721324 1.54048 0
M  V30 13037 O 1232.88 0.974905 1.67956 0
M  V30 13038 C 1230.01 2.09052 2.77335 0
M  V30 13039 C 1228.96 3.24893 2.78619 0
M  V30 13040 C 1228.29 3.32846 4.1847 0
M  V30 13041 C 1229.59 4.62582 2.42518 0
M  V30 13042 H 1231.28 2.76932 1.13794 0
M  V30 13043 H 1228.83 1.33248 0.545971 0
M  V30 13044 H 1230.78 2.30204 3.52964 0
M  V30 13045 H 1229.5 1.15335 3.05558 0
M  V30 13046 H 1228.16 3.03625 2.05444 0
M  V30 13047 H 1227.81 2.3669 4.43832 0
M  V30 13048 H 1227.51 4.10701 4.20237 0
M  V30 13049 H 1229.03 3.56231 4.95915 0
M  V30 13050 H 1230.45 4.83627 3.07861 0
M  V30 13051 H 1228.84 5.42974 2.55538 0
M  V30 13052 H 1229.91 4.64946 1.3767 0
M  V30 13053 N 1231.26 -0.58723 1.46251 0
M  V30 13054 C 1232.53 -1.34727 1.41802 0
M  V30 13055 C 1232.91 -2.10867 0.0991354 0
M  V30 13056 O 1232.26 -2.09194 -0.919242 0
M  V30 13057 C 1232.47 -2.27706 2.64482 0
M  V30 13058 C 1233.82 -2.89678 3.10438 0
M  V30 13059 O 1234.84 -2.38021 2.64999 0
M  V30 13060 O 1233.7 -3.83493 3.89352 0
M  V30 13061 H 1230.8 -0.605119 0.563702 0
M  V30 13062 H 1233.34 -0.608623 1.5841 0
M  V30 13063 H 1232.12 -1.70842 3.52035 0
M  V30 13064 H 1231.74 -3.08918 2.50311 0
M  V30 13065 N 1232.74 -1.33881 -0.831482 0
M  V30 13066 C 1233.7 -1.24654 -1.92339 0
M  V30 13067 C 1234.7 -0.163788 -1.59964 0
M  V30 13068 O 1235.89 -0.415829 -1.69164 0
M  V30 13069 C 1233.02 -0.922537 -3.2818 0
M  V30 13070 H 1234.21 -2.21717 -2.01944 0
M  V30 13071 H 1231.77 -1.18046 -1.02445 0
M  V30 13072 H 1232.5 0.0452872 -3.24268 0
M  V30 13073 H 1232.29 -1.70562 -3.53059 0
M  V30 13074 H 1233.78 -0.88292 -4.0816 0
M  V30 13075 N 1234.21 1.05064 -1.1747 0
M  V30 13076 C 1235.63 1.30256 -0.922248 0
M  V30 13077 C 1235.83 1.97119 0.417896 0
M  V30 13078 O 1234.89 2.24557 1.15457 0
M  V30 13079 C 1236.2 2.17109 -2.08049 0
M  V30 13080 C 1237.75 2.30487 -2.11766 0
M  V30 13081 C 1238.22 3.20701 -3.26979 0
M  V30 13082 N 1239.71 3.28287 -3.26775 0
M  V30 13083 C 1240.45 3.98218 -4.12565 0
M  V30 13084 N 1239.94 4.70567 -5.08467 0
M  V30 13085 N 1241.74 3.94395 -4.00511 0
M  V30 13086 H 1233.89 0.600653 -2.0373 0
M  V30 13087 H 1236.15 0.327475 -0.889643 0
M  V30 13088 H 1235.86 1.75273 -3.04914 0
M  V30 13089 H 1235.73 3.1775 -2.03261 0
M  V30 13090 H 1238.12 2.71564 -1.15486 0
M  V30 13091 H 1238.2 1.29471 -2.20615 0
M  V30 13092 H 1237.84 2.80337 -4.23525 0
M  V30 13093 H 1237.77 4.21725 -3.15366 0
M  V30 13094 H 1240.26 2.76739 -2.5734 0
M  V30 13095 H 1240.58 5.21492 -5.70321 0
M  V30 13096 H 1238.92 4.69505 -5.12436 0
M  V30 13097 H 1242.11 3.37 -3.24882 0
M  V30 13098 H 1242.29 4.48626 -4.67588 0
M  V30 13099 N 1235.69 0.975146 1.23809 0
M  V30 13100 C 1236.65 0.516157 2.23312 0
M  V30 13101 C 1237.65 -0.39136 1.55965 0
M  V30 13102 O 1238.84 -0.185783 1.73206 0
M  V30 13103 C 1235.98 -0.251534 3.39971 0
M  V30 13104 H 1237.17 1.3959 2.65433 0
M  V30 13105 H 1234.72 0.760493 1.36551 0
M  V30 13106 H 1235.46 -1.14805 3.03299 0
M  V30 13107 H 1235.24 0.399825 3.90056 0
M  V30 13108 H 1236.73 -0.561438 4.13809 0
M  V30 13109 N 1237.17 -1.38817 0.746158 0
M  V30 13110 C 1238.58 -1.83045 0.367629 0
M  V30 13111 C 1238.93 -1.62285 -1.10263 0
M  V30 13112 O 1238.06 -1.12001 -1.85162 0
M  V30 13113 C 1238.65 -3.323 0.660482 0
M  V30 13114 C 1237.21 -3.74903 0.335318 0
M  V30 13115 C 1236.36 -2.61683 0.917446 0
M  V30 13116 H 1239.31 -1.27651 0.94291 0
M  V30 13117 H 1239.33 -3.80446 -0.0639061 0
M  V30 13118 H 1238.84 -3.47377 1.73062 0
M  V30 13119 H 1236.94 -3.65408 -0.728538 0
M  V30 13120 H 1237.06 -4.71932 0.825677 0
M  V30 13121 H 1235.42 -2.52376 0.343316 0
M  V30 13122 H 1236.2 -2.79563 1.99247 0
M  V30 13123 N 1238.65 -0.49465 -1.49636 0
M  V30 13124 C 1239.59 0.287153 -2.29007 0
M  V30 13125 C 1240.56 0.966099 -1.35114 0
M  V30 13126 O 1241.75 0.973991 -1.64067 0
M  V30 13127 C 1238.89 1.34941 -3.17624 0
M  V30 13128 C 1238 0.682879 -4.26569 0
M  V30 13129 C 1237.14 1.72503 -5.0241 0
M  V30 13130 C 1236.18 1.04003 -6.032 0
M  V30 13131 N 1235.31 2.0261 -6.7223 0
M  V30 13132 H 1240.15 -0.395941 -2.95358 0
M  V30 13133 H 1237.69 -0.207103 -1.45635 0
M  V30 13134 H 1239.65 1.9772 -3.67372 0
M  V30 13135 H 1238.28 2.00135 -2.5327 0
M  V30 13136 H 1237.33 -0.0580477 -3.80356 0
M  V30 13137 H 1238.64 0.143334 -4.98594 0
M  V30 13138 H 1237.8 2.42804 -5.55996 0
M  V30 13139 H 1236.54 2.29843 -4.30144 0
M  V30 13140 H 1235.54 0.322765 -5.48852 0
M  V30 13141 H 1236.77 0.473219 -6.77449 0
M  V30 13142 H 1234.71 2.58922 -6.0274 0
M  V30 13143 H 1234.63 1.53704 -7.4021 0
M  V30 13144 H 1235.9 2.72218 -7.30423 0
M  V30 13145 N 1240.13 1.55939 -0.228214 0
M  V30 13146 C 1241.04 2.24213 0.690339 0
M  V30 13147 C 1242.05 1.25197 1.20838 0
M  V30 13148 O 1243.23 1.58026 1.24859 0
M  V30 13149 C 1240.29 2.91384 1.87873 0
M  V30 13150 C 1239.35 4.05761 1.40201 0
M  V30 13151 C 1238.59 4.6972 2.53376 0
M  V30 13152 O 1238.81 4.32687 3.71669 0
M  V30 13153 O 1237.74 5.58587 2.24198 0
M  V30 13154 H 1241.57 3.03383 0.138692 0
M  V30 13155 H 1239.15 1.494 0.00251504 0
M  V30 13156 H 1241.04 3.33758 2.57262 0
M  V30 13157 H 1239.71 2.15168 2.41835 0
M  V30 13158 H 1238.62 3.67943 0.675945 0
M  V30 13159 H 1239.95 4.83739 0.908691 0
M  V30 13160 N 1241.6 -0.0451101 1.57535 0
M  V30 13161 C 1242.51 -1.06796 2.08882 0
M  V30 13162 C 1243.53 -1.40682 1.02394 0
M  V30 13163 O 1244.71 -1.50324 1.34033 0
M  V30 13164 C 1241.77 -2.35467 2.54472 0
M  V30 13165 C 1240.83 -2.0831 3.75374 0
M  V30 13166 C 1240.07 -3.30846 4.1878 0
M  V30 13167 O 1240.29 -4.40945 3.61834 0
M  V30 13168 O 1239.22 -3.17488 5.11356 0
M  V30 13169 H 1243.05 -0.661658 2.96405 0
M  V30 13170 H 1240.63 -0.26104 1.47102 0
M  V30 13171 H 1242.52 -3.11143 2.84198 0
M  V30 13172 H 1241.19 -2.75425 1.70068 0
M  V30 13173 H 1240.1 -1.30254 3.50692 0
M  V30 13174 H 1241.43 -1.73218 4.60713 0
M  V30 13175 N 1243.08 -1.54377 -0.317073 0
M  V30 13176 C 1244.31 -1.76865 -1.07362 0
M  V30 13177 C 1244.73 -0.520354 -1.81488 0
M  V30 13178 O 1244.08 0.509213 -1.75252 0
M  V30 13179 C 1244.13 -2.96598 -2.06668 0
M  V30 13180 O 1243.85 -4.16602 -1.35552 0
M  V30 13181 C 1245.36 -3.31348 -2.94489 0
M  V30 13182 H 1242.58 -0.590277 -0.319083 0
M  V30 13183 H 1245.12 -2.01284 -0.361227 0
M  V30 13184 H 1243.27 -2.74433 -2.73432 0
M  V30 13185 H 1243.69 -4.83996 -2.02108 0
M  V30 13186 H 1245.16 -4.1841 -3.60051 0
M  V30 13187 H 1245.64 -2.48797 -3.61935 0
M  V30 13188 H 1246.25 -3.55614 -2.33278 0
M  V30 13189 N 1244.56 0.579466 -1.4656 0
M  V30 13190 C 1245.49 1.70291 -1.53406 0
M  V30 13191 C 1246.51 1.57232 -0.422116 0
M  V30 13192 O 1247.69 1.64598 -0.69064 0
M  V30 13193 C 1244.79 3.08572 -1.40131 0
M  V30 13194 C 1243.97 3.47602 -2.65502 0
M  V30 13195 C 1243.03 4.64955 -2.4638 0
M  V30 13196 O 1242.05 4.70653 -3.20116 0
M  V30 13197 N 1243.25 5.60041 -1.52756 0
M  V30 13198 H 1246.02 1.64873 -2.50274 0
M  V30 13199 H 1243.58 0.765533 -1.42658 0
M  V30 13200 H 1245.57 3.84877 -1.25106 0
M  V30 13201 H 1244.14 3.0834 -0.514322 0
M  V30 13202 H 1243.36 2.60969 -2.95446 0
M  V30 13203 H 1244.65 3.70446 -3.48779 0
M  V30 13204 H 1244.05 5.58176 -0.919587 0
M  V30 13205 H 1242.61 6.35764 -1.43693 0
M  V30 13206 N 1246.04 1.3432 0.824371 0
M  V30 13207 C 1247.29 1.26345 1.57738 0
M  V30 13208 C 1247.61 -0.166836 1.94285 0
M  V30 13209 O 1246.88 -1.09911 1.62162 0
M  V30 13210 H 1245.46 0.46466 0.584893 0
M  V30 13211 H 1248.12 1.68214 0.984373 0
M  V30 13212 H 1247.22 1.8672 2.50084 0
M  V30 13213 N 1247.52 -1.0444 1.18026 0
M  V30 13214 C 1248.43 -2.15862 0.918747 0
M  V30 13215 C 1249.44 -1.73614 -0.115808 0
M  V30 13216 O 1250.62 -2.01294 0.0652312 0
M  V30 13217 C 1247.68 -3.43846 0.443922 0
M  V30 13218 C 1246.74 -4.00497 1.54599 0
M  V30 13219 C 1245.98 -5.22373 1.09372 0
M  V30 13220 O 1246.2 -5.70379 -0.049085 0
M  V30 13221 O 1245.13 -5.71459 1.88992 0
M  V30 13222 H 1248.96 -2.40776 1.85097 0
M  V30 13223 H 1246.55 -1.14326 0.961769 0
M  V30 13224 H 1248.43 -4.20985 0.187017 0
M  V30 13225 H 1247.1 -3.20414 -0.460051 0
M  V30 13226 H 1246.01 -3.24764 1.85686 0
M  V30 13227 H 1247.34 -4.28262 2.42595 0
M  V30 13228 N 1248.99 -0.981699 -1.2329 0
M  V30 13229 C 1250.24 -0.650015 -1.91361 0
M  V30 13230 C 1250.56 0.819184 -1.76959 0
M  V30 13231 O 1249.83 1.5861 -1.14977 0
M  V30 13232 H 1248.41 -0.237427 -0.708264 0
M  V30 13233 H 1251.08 -1.24579 -1.49887 0
M  V30 13234 H 1250.17 -0.902772 -2.98758 0
M  V30 13235 N 1250.47 1.3842 -0.753509 0
M  V30 13236 C 1251.7 2.04403 -0.320449 0
M  V30 13237 C 1252.12 1.5683 1.05118 0
M  V30 13238 O 1251.47 0.741335 1.66765 0
M  V30 13239 C 1251.52 3.59954 -0.333937 0
M  V30 13240 O 1251.24 4.05782 -1.65144 0
M  V30 13241 C 1252.75 4.43156 0.112997 0
M  V30 13242 H 1249.97 0.656881 -0.136927 0
M  V30 13243 H 1252.51 1.77112 -1.02234 0
M  V30 13244 H 1250.66 3.86083 0.319215 0
M  V30 13245 H 1251.08 5.00213 -1.57757 0
M  V30 13246 H 1252.55 5.51975 0.0523995 0
M  V30 13247 H 1253.03 4.23581 1.16087 0
M  V30 13248 H 1253.64 4.22216 -0.511278 0
M  V30 13249 N 1251.95 0.502579 1.49372 0
M  V30 13250 C 1253.18 -0.0403087 2.07361 0
M  V30 13251 C 1253.6 -1.29918 1.36026 0
M  V30 13252 O 1252.96 -1.76428 0.417488 0
M  V30 13253 C 1253.01 -0.275362 3.59547 0
M  V30 13254 O 1252.11 -1.34975 3.89686 0
M  V30 13255 H 1251.45 0.0269268 0.663454 0
M  V30 13256 H 1253.98 0.702652 1.92156 0
M  V30 13257 H 1253.99 -0.506392 4.04845 0
M  V30 13258 H 1252.67 0.644382 4.10878 0
M  V30 13259 H 1251.24 -1.10355 3.56197 0
M  V30 13260 N 1253.43 -1.55816 0.23648 0
M  V30 13261 C 1254.65 -2.03534 -0.398575 0
M  V30 13262 C 1255.08 -1.11488 -1.51499 0
M  V30 13263 O 1254.44 -0.105848 -1.80991 0
M  V30 13264 C 1254.48 -3.49356 -0.893467 0
M  V30 13265 O 1253.59 -3.60446 -2.00381 0
M  V30 13266 H 1252.93 -0.658102 -0.0883021 0
M  V30 13267 H 1255.46 -2.01417 0.359488 0
M  V30 13268 H 1255.47 -3.89972 -1.19941 0
M  V30 13269 H 1254.14 -4.1583 -0.0764388 0
M  V30 13270 H 1252.72 -3.31723 -1.70336 0
M  V30 13271 N 1254.91 0.036755 -1.57557 0
M  V30 13272 C 1255.87 1.02435 -2.05036 0
M  V30 13273 C 1256.87 1.29506 -0.953146 0
M  V30 13274 O 1258.06 1.24638 -1.217 0
M  V30 13275 C 1255.19 2.3592 -2.46079 0
M  V30 13276 H 1256.38 0.614384 -2.93539 0
M  V30 13277 H 1253.94 0.283396 -1.53709 0
M  V30 13278 H 1254.67 2.8168 -1.60708 0
M  V30 13279 H 1254.46 2.17603 -3.26177 0
M  V30 13280 H 1255.95 3.06839 -2.83266 0
M  V30 13281 N 1256.39 1.54543 0.308881 0
M  V30 13282 C 1257.63 1.73107 1.043 0
M  V30 13283 C 1257.95 0.515481 1.88063 0
M  V30 13284 O 1257.22 -0.47036 1.90169 0
M  V30 13285 H 1255.8 0.638289 0.388068 0
M  V30 13286 H 1258.47 1.9188 0.341769 0
M  V30 13287 H 1257.56 2.61697 1.70063 0
M  V30 13288 N 1257.86 -0.571685 1.46866 0
M  V30 13289 C 1259.14 -1.33216 1.43223 0
M  V30 13290 C 1259.52 -2.1075 0.121495 0
M  V30 13291 O 1258.87 -2.10157 -0.897003 0
M  V30 13292 C 1259.08 -2.24888 2.66882 0
M  V30 13293 C 1260.43 -2.86369 3.13493 0
M  V30 13294 O 1261.45 -2.35197 2.67509 0
M  V30 13295 O 1260.31 -3.79342 3.93398 0
M  V30 13296 H 1257.4 -0.599106 0.570089 0
M  V30 13297 H 1259.95 -0.591788 1.59047 0
M  V30 13298 H 1258.72 -1.67099 3.53827 0
M  V30 13299 H 1258.34 -3.06246 2.53573 0
M  V30 13300 N 1259.34 -1.34755 -0.817236 0
M  V30 13301 C 1260.57 -1.30676 -1.61054 0
M  V30 13302 C 1260.99 0.115343 -1.87746 0
M  V30 13303 O 1260.35 1.07887 -1.45705 0
M  V30 13304 C 1260.4 -2.10881 -2.92509 0
M  V30 13305 O 1259.5 -1.48223 -3.84842 0
M  V30 13306 H 1258.84 -0.448531 -0.489608 0
M  V30 13307 H 1261.37 -1.77642 -1.01512 0
M  V30 13308 H 1261.38 -2.22446 -3.42026 0
M  V30 13309 H 1260.06 -3.14274 -2.72406 0
M  V30 13310 H 1258.63 -1.45434 -3.4337 0
M  V30 13311 N 1260.82 1.03812 -1.18578 0
M  V30 13312 C 1261.73 2.15371 -0.930182 0
M  V30 13313 C 1262.75 1.73673 0.106599 0
M  V30 13314 O 1263.92 2.01257 -0.0759054 0
M  V30 13315 C 1260.99 3.43606 -0.462151 0
M  V30 13316 C 1260.05 3.99671 -1.5672 0
M  V30 13317 C 1259.28 5.21785 -1.12141 0
M  V30 13318 O 1259.5 5.70397 0.0188357 0
M  V30 13319 O 1258.44 5.70449 -1.9202 0
M  V30 13320 H 1262.26 2.39791 -1.86371 0
M  V30 13321 H 1259.85 1.13814 -0.967819 0
M  V30 13322 H 1261.73 4.2088 -0.20934 0
M  V30 13323 H 1260.41 3.20654 0.443052 0
M  V30 13324 H 1259.31 3.23774 -1.87406 0
M  V30 13325 H 1260.65 4.2697 -2.44862 0
M  V30 13326 N 1262.3 0.988223 1.22768 0
M  V30 13327 C 1263.26 0.539813 2.22752 0
M  V30 13328 C 1264.26 -0.374796 1.56371 0
M  V30 13329 O 1265.45 -0.167402 1.73394 0
M  V30 13330 C 1262.58 -0.215461 3.40218 0
M  V30 13331 H 1263.78 1.42397 2.63938 0
M  V30 13332 H 1261.33 0.774933 1.35737 0
M  V30 13333 H 1262.06 -1.11581 3.045 0
M  V30 13334 H 1261.85 0.441173 3.8961 0
M  V30 13335 H 1263.34 -0.517517 4.14381 0
M  V30 13336 N 1263.78 -1.38018 0.760839 0
M  V30 13337 C 1265 -2.04231 0.331285 0
M  V30 13338 C 1265.42 -1.57385 -1.04285 0
M  V30 13339 O 1264.78 -0.750168 -1.66369 0
M  V30 13340 C 1264.83 -3.59772 0.353021 0
M  V30 13341 O 1264.55 -4.049 1.67294 0
M  V30 13342 C 1266.05 -4.4321 -0.0894942 0
M  V30 13343 H 1263.27 -0.656145 0.140408 0
M  V30 13344 H 1265.81 -1.76567 1.03172 0
M  V30 13345 H 1263.97 -3.86246 -0.298735 0
M  V30 13346 H 1264.38 -4.99369 1.60408 0
M  V30 13347 H 1265.86 -5.51995 -0.0231262 0
M  V30 13348 H 1266.33 -4.2419 -1.13839 0
M  V30 13349 H 1266.94 -4.21939 0.533661 0
M  V30 13350 N 1265.25 -0.510493 -1.49103 0
M  V30 13351 C 1266.53 0.0941122 -1.95373 0
M  V30 13352 C 1266.91 1.53207 -1.45227 0
M  V30 13353 O 1266.26 2.18452 -0.670161 0
M  V30 13354 C 1266.47 -0.00302507 -3.49 0
M  V30 13355 C 1267.82 0.166117 -4.24275 0
M  V30 13356 O 1268.84 0.0717097 -3.56128 0
M  V30 13357 O 1267.7 0.361155 -5.45305 0
M  V30 13358 H 1264.79 0.0900741 -0.82208 0
M  V30 13359 H 1267.34 -0.573707 -1.59708 0
M  V30 13360 H 1266.11 -1.00545 -3.78162 0
M  V30 13361 H 1265.73 0.704518 -3.91308 0
M  V30 13362 N 1266.73 1.55688 -0.24474 0
M  V30 13363 C 1268.15 1.59219 0.110159 0
M  V30 13364 C 1268.35 1.26187 1.57096 0
M  V30 13365 O 1267.4 1.00815 2.31501 0
M  V30 13366 C 1268.72 2.99764 -0.237075 0
M  V30 13367 C 1270.26 3.12475 -0.181198 0
M  V30 13368 C 1270.74 4.55236 -0.502435 0
M  V30 13369 N 1272.23 4.60981 -0.452855 0
M  V30 13370 C 1272.97 5.69418 -0.674605 0
M  V30 13371 N 1272.46 6.86125 -0.959366 0
M  V30 13372 N 1274.25 5.5883 -0.605459 0
M  V30 13373 H 1266.41 1.7543 -1.19741 0
M  V30 13374 H 1268.67 0.816537 -0.481634 0
M  V30 13375 H 1268.37 3.28666 -1.25185 0
M  V30 13376 H 1268.25 3.74662 0.436859 0
M  V30 13377 H 1270.64 2.83355 0.824248 0
M  V30 13378 H 1270.72 2.39857 -0.888952 0
M  V30 13379 H 1270.36 4.85077 -1.50543 0
M  V30 13380 H 1270.29 5.26111 0.226773 0
M  V30 13381 H 1272.78 3.77128 -0.241401 0
M  V30 13382 H 1273.09 7.64699 -1.11605 0
M  V30 13383 H 1271.44 6.87814 -0.996816 0
M  V30 13384 H 1274.63 4.6653 -0.383053 0
M  V30 13385 H 1274.8 6.43268 -0.781673 0
M  V30 13386 N 1268.21 -0.0283989 1.57574 0
M  V30 13387 C 1269.62 -0.574912 1.77628 0
M  V30 13388 C 1269.97 -1.75563 0.875903 0
M  V30 13389 O 1269.1 -2.16284 0.0709141 0
M  V30 13390 C 1269.69 -1.04972 3.22128 0
M  V30 13391 C 1268.25 -1.54175 3.43376 0
M  V30 13392 C 1267.4 -0.480127 2.73112 0
M  V30 13393 H 1270.35 0.197826 1.57462 0
M  V30 13394 H 1270.37 -1.91705 3.28678 0
M  V30 13395 H 1269.88 -0.190173 3.87634 0
M  V30 13396 H 1267.98 -2.42313 2.83046 0
M  V30 13397 H 1268.1 -1.58879 4.51989 0
M  V30 13398 H 1266.46 -0.935314 2.36905 0
M  V30 13399 H 1267.24 0.369973 3.41301 0
M  V30 13400 N 1269.69 -1.54705 -0.300681 0
M  V30 13401 C 1271.1 -1.45926 -0.646359 0
M  V30 13402 C 1271.3 -0.65072 -1.90704 0
M  V30 13403 O 1270.36 -0.158547 -2.52002 0
M  V30 13404 C 1271.67 -2.89889 -0.799059 0
M  V30 13405 C 1273.22 -2.99934 -0.894923 0
M  V30 13406 C 1273.7 -4.45093 -1.07962 0
M  V30 13407 N 1275.19 -4.48804 -1.14581 0
M  V30 13408 C 1275.92 -5.58305 -1.30702 0
M  V30 13409 N 1275.42 -6.77729 -1.43719 0
M  V30 13410 N 1277.21 -5.45994 -1.33593 0
M  V30 13411 H 1269.36 -2.05742 0.527617 0
M  V30 13412 H 1271.62 -0.931817 0.174415 0
M  V30 13413 H 1271.33 -3.51655 0.0563954 0
M  V30 13414 H 1271.2 -3.37325 -1.68796 0
M  V30 13415 H 1273.59 -2.38281 -1.74086 0
M  V30 13416 H 1273.67 -2.55794 0.0179973 0
M  V30 13417 H 1273.32 -5.0734 -0.238444 0
M  V30 13418 H 1273.25 -4.86864 -2.00677 0
M  V30 13419 H 1275.74 -3.62766 -1.05874 0
M  V30 13420 H 1276.05 -7.56937 -1.55776 0
M  V30 13421 H 1274.4 -6.80594 -1.40774 0
M  V30 13422 H 1277.59 -4.51641 -1.23035 0
M  V30 13423 H 1277.76 -6.31381 -1.45813 0
M  V30 13424 N 1271.17 0.563888 -1.47167 0
M  V30 13425 C 1272.58 1.14603 -1.47388 0
M  V30 13426 C 1272.93 1.94907 -0.224916 0
M  V30 13427 O 1272.05 2.05745 0.670672 0
M  V30 13428 C 1272.65 2.08501 -2.67044 0
M  V30 13429 C 1271.21 2.62 -2.70246 0
M  V30 13430 C 1270.35 1.38244 -2.40383 0
M  V30 13431 H 1273.31 0.350833 -1.54774 0
M  V30 13432 H 1273.33 2.92272 -2.43634 0
M  V30 13433 H 1272.84 1.50027 -3.57929 0
M  V30 13434 H 1270.94 3.24292 -1.83482 0
M  V30 13435 H 1271.05 3.0345 -3.70749 0
M  V30 13436 H 1269.42 1.68692 -1.90827 0
M  V30 13437 H 1270.2 0.815726 -3.33468 0
M  V30 13438 N 1272.64 1.35187 0.810078 0
M  V30 13439 C 1273.89 1.28011 1.56389 0
M  V30 13440 C 1274.21 -0.14622 1.94451 0
M  V30 13441 O 1273.48 -1.08185 1.63318 0
M  V30 13442 H 1272.06 0.470837 0.579932 0
M  V30 13443 H 1274.73 1.69249 0.966476 0
M  V30 13444 H 1273.82 1.89362 2.4809 0
M  V30 13445 N 1274.12 -1.03182 1.19127 0
M  V30 13446 C 1275.4 -1.73586 0.901507 0
M  V30 13447 C 1275.78 -2.02585 -0.593521 0
M  V30 13448 O 1275.13 -1.67813 -1.55084 0
M  V30 13449 C 1275.34 -3.01472 1.75829 0
M  V30 13450 C 1276.69 -3.75037 1.99078 0
M  V30 13451 O 1277.71 -3.11392 1.72956 0
M  V30 13452 O 1276.57 -4.8945 2.43108 0
M  V30 13453 H 1273.66 -0.755797 0.335708 0
M  V30 13454 H 1276.21 -1.09167 1.29925 0
M  V30 13455 H 1274.98 -2.76247 2.77134 0
M  V30 13456 H 1274.6 -3.73631 1.35963 0
M  V30 13457 N 1275.6 -0.99472 -1.22242 0
M  V30 13458 C 1276.53 -0.566499 -2.26524 0
M  V30 13459 C 1277.51 0.407541 -1.65146 0
M  V30 13460 O 1278.7 0.297777 -1.91903 0
M  V30 13461 C 1275.83 0.11786 -3.471 0
M  V30 13462 C 1274.78 -0.774908 -4.20927 0
M  V30 13463 C 1274.11 0.0424687 -5.34683 0
M  V30 13464 C 1275.41 -2.07263 -4.79416 0
M  V30 13465 H 1277.1 -1.43818 -2.62596 0
M  V30 13466 H 1274.65 -0.692971 -1.2623 0
M  V30 13467 H 1276.6 0.428842 -4.19212 0
M  V30 13468 H 1275.32 1.0241 -3.10129 0
M  V30 13469 H 1273.98 -1.06956 -3.50651 0
M  V30 13470 H 1273.63 0.949677 -4.93954 0
M  V30 13471 H 1273.33 -0.551867 -5.85003 0
M  V30 13472 H 1274.85 0.347504 -6.0961 0
M  V30 13473 H 1276.27 -1.82548 -5.4346 0
M  V30 13474 H 1274.67 -2.61594 -5.40082 0
M  V30 13475 H 1275.74 -2.75017 -3.99366 0
M  V30 13476 N 1277.08 1.37613 -0.768148 0
M  V30 13477 C 1278.32 2.0162 -0.335961 0
M  V30 13478 C 1278.68 1.59659 1.06644 0
M  V30 13479 O 1279.88 2.16102 1.59854 0
M  V30 13480 C 1278.15 3.54285 -0.470802 0
M  V30 13481 S 1279.71 4.38627 -0.123347 0
M  V30 13482 H 1276.53 0.699113 -0.129467 0
M  V30 13483 H 1279.13 1.67871 -1.00197 0
M  V30 13484 H 1277.84 3.82313 -1.49215 0
M  V30 13485 H 1277.37 3.92829 0.211886 0
M  V30 13486 H 1279.38 4.84253 1.0823 0
M  V30 13487 N 1278.56 0.518393 1.4883 0
M  V30 13488 C 1279.97 0.0749773 1.86549 0
M  V30 13489 C 1280.32 -1.34429 1.4291 0
M  V30 13490 O 1279.44 -2.00481 0.814648 0
M  V30 13491 C 1280.04 0.129289 3.38553 0
M  V30 13492 C 1278.6 -0.258871 3.75509 0
M  V30 13493 C 1277.74 0.494185 2.72861 0
M  V30 13494 H 1280.7 0.730266 1.409 0
M  V30 13495 H 1280.72 -0.661844 3.747 0
M  V30 13496 H 1280.23 1.16237 3.70285 0
M  V30 13497 H 1278.33 -1.29453 3.49389 0
M  V30 13498 H 1278.44 0.0726769 4.79045 0
M  V30 13499 H 1276.81 -0.0581428 2.54634 0
M  V30 13500 H 1277.59 1.52767 3.07436 0
M  V30 13501 N 1280.03 -1.55556 0.252993 0
M  V30 13502 C 1281.45 -1.85032 -0.249011 0
M  V30 13503 C 1281.8 -1.17488 -1.57134 0
M  V30 13504 O 1280.92 -0.455387 -2.11554 0
M  V30 13505 C 1281.52 -3.35682 -0.458589 0
M  V30 13506 C 1280.08 -3.65362 -0.90485 0
M  V30 13507 C 1279.22 -2.77296 0.0144927 0
M  V30 13508 H 1282.17 -1.51412 0.475394 0
M  V30 13509 H 1282.19 -3.57591 -1.30034 0
M  V30 13510 H 1281.71 -3.84814 0.503981 0
M  V30 13511 H 1279.81 -3.21713 -1.87967 0
M  V30 13512 H 1279.92 -4.73074 -0.757492 0
M  V30 13513 H 1278.28 -2.49785 -0.497954 0
M  V30 13514 H 1279.07 -3.29236 0.972546 0
M  V30 13515 N 1281.51 0.0200419 -1.57587 0
M  V30 13516 C 1282.74 0.724241 -1.94344 0
M  V30 13517 C 1283.16 1.67612 -0.853688 0
M  V30 13518 O 1282.52 1.80303 0.189873 0
M  V30 13519 C 1282.57 1.44967 -3.30177 0
M  V30 13520 O 1281.67 2.56326 -3.23064 0
M  V30 13521 H 1281.01 0.194142 -0.634984 0
M  V30 13522 H 1283.54 -0.0271756 -2.04582 0
M  V30 13523 H 1283.55 1.81758 -3.65278 0
M  V30 13524 H 1282.23 0.75161 -4.09052 0
M  V30 13525 H 1280.81 2.22011 -2.99609 0
M  V30 13526 N 1282.99 1.54862 0.292472 0
M  V30 13527 C 1283.94 1.86403 1.36098 0
M  V30 13528 C 1284.91 0.713694 1.49985 0
M  V30 13529 O 1286.09 0.963134 1.64707 0
M  V30 13530 C 1283.23 2.1244 2.71962 0
M  V30 13531 C 1282.35 3.40038 2.66454 0
M  V30 13532 C 1281.48 3.55875 3.94368 0
M  V30 13533 C 1280.52 4.77235 3.83293 0
M  V30 13534 N 1279.66 4.89832 5.03 0
M  V30 13535 H 1284.5 2.77546 1.085 0
M  V30 13536 H 1282.03 1.37427 0.524607 0
M  V30 13537 H 1283.99 2.25533 3.50985 0
M  V30 13538 H 1282.62 1.24554 2.97802 0
M  V30 13539 H 1281.67 3.35521 1.79248 0
M  V30 13540 H 1282.99 4.29188 2.54163 0
M  V30 13541 H 1282.14 3.68679 4.8183 0
M  V30 13542 H 1280.88 2.64874 4.09503 0
M  V30 13543 H 1279.88 4.64455 2.94214 0
M  V30 13544 H 1281.11 5.69651 3.69695 0
M  V30 13545 H 1279.05 4.01756 5.18582 0
M  V30 13546 H 1278.97 5.72996 4.93165 0
M  V30 13547 H 1280.24 5.07001 5.92089 0
M  V30 13548 N 1284.47 -0.556076 1.47464 0
M  V30 13549 C 1285.75 -1.31689 1.44628 0
M  V30 13550 C 1286.13 -2.10609 0.143841 0
M  V30 13551 O 1285.47 -2.11097 -0.874662 0
M  V30 13552 C 1285.68 -2.22045 2.69253 0
M  V30 13553 C 1287.03 -2.83028 3.16513 0
M  V30 13554 O 1288.06 -2.32346 2.69988 0
M  V30 13555 O 1286.91 -3.75148 3.97399 0
M  V30 13556 H 1284.01 -0.593026 0.576411 0
M  V30 13557 H 1286.55 -0.574885 1.59666 0
M  V30 13558 H 1285.33 -1.63337 3.5558 0
M  V30 13559 H 1284.95 -3.03539 2.56807 0
M  V30 13560 N 1285.95 -1.35615 -0.802897 0
M  V30 13561 C 1287.2 -1.28839 -1.55708 0
M  V30 13562 C 1287.52 0.135906 -1.94526 0
M  V30 13563 O 1286.79 1.07317 -1.6389 0
M  V30 13564 H 1285.37 -0.473906 -0.577427 0
M  V30 13565 H 1288.03 -1.69759 -0.957487 0
M  V30 13566 H 1287.12 -1.90675 -2.47082 0
M  V30 13567 N 1287.43 1.02549 -1.19673 0
M  V30 13568 C 1288.7 1.73106 -0.9107 0
M  V30 13569 C 1289.08 2.02897 0.582769 0
M  V30 13570 O 1288.43 1.68633 1.54192 0
M  V30 13571 C 1288.64 3.00535 -1.77425 0
M  V30 13572 C 1289.99 3.73976 -2.01065 0
M  V30 13573 O 1291.01 3.1047 -1.74605 0
M  V30 13574 O 1289.87 4.88153 -2.457 0
M  V30 13575 H 1286.97 0.754006 -0.339711 0
M  V30 13576 H 1289.51 1.08477 -1.30502 0
M  V30 13577 H 1288.28 2.74773 -2.78595 0
M  V30 13578 H 1287.91 3.72904 -1.37943 0
M  V30 13579 N 1288.9 1.00119 1.21713 0
M  V30 13580 C 1289.87 0.563409 2.22167 0
M  V30 13581 C 1290.87 -0.35819 1.5676 0
M  V30 13582 O 1292.06 -0.149001 1.73562 0
M  V30 13583 C 1289.19 -0.179365 3.40428 0
M  V30 13584 H 1290.38 1.45189 2.62412 0
M  V30 13585 H 1287.93 0.789286 1.34907 0
M  V30 13586 H 1288.67 -1.08345 3.05666 0
M  V30 13587 H 1288.45 0.482471 3.8912 0
M  V30 13588 H 1289.94 -0.473537 4.14906 0
M  V30 13589 N 1290.38 -1.37203 0.775435 0
M  V30 13590 C 1291.61 -2.04396 0.351737 0
M  V30 13591 C 1292.03 -1.58099 -1.01913 0
M  V30 13592 O 1291.39 -0.742932 -1.65379 0
M  V30 13593 C 1291.44 -3.58283 0.408105 0
M  V30 13594 O 1290.54 -4.08156 -0.590104 0
M  V30 13595 H 1289.88 -0.646451 0.151647 0
M  V30 13596 H 1292.41 -1.75443 1.05265 0
M  V30 13597 H 1292.42 -4.07127 0.266711 0
M  V30 13598 H 1291.1 -3.91335 1.40819 0
M  V30 13599 H 1289.67 -3.70622 -0.411524 0
M  V30 13600 N 1291.86 -0.526279 -1.48553 0
M  V30 13601 C 1293.11 0.00914839 -2.02098 0
M  V30 13602 C 1293.43 1.35119 -1.40598 0
M  V30 13603 O 1292.7 1.87422 -0.570065 0
M  V30 13604 H 1291.28 0.00636935 -0.746973 0
M  V30 13605 H 1293.94 -0.689269 -1.82305 0
M  V30 13606 H 1293.04 0.120212 -3.11868 0
M  V30 13607 N 1293.34 1.5542 -0.261239 0
M  V30 13608 C 1294.75 1.85161 0.239195 0
M  V30 13609 C 1295.1 1.18319 1.56509 0
M  V30 13610 O 1294.22 0.4666 2.1131 0
M  V30 13611 C 1294.82 3.3592 0.440781 0
M  V30 13612 C 1293.38 3.65837 0.885461 0
M  V30 13613 C 1292.53 2.77285 -0.0291982 0
M  V30 13614 H 1295.48 1.51158 -0.483417 0
M  V30 13615 H 1295.5 3.58276 1.28136 0
M  V30 13616 H 1295.01 3.84541 -0.524382 0
M  V30 13617 H 1293.11 3.22705 1.86259 0
M  V30 13618 H 1293.22 4.73469 0.732394 0
M  V30 13619 H 1291.59 2.50045 0.484701 0
M  V30 13620 H 1292.37 3.28716 -0.989992 0
M  V30 13621 N 1294.82 -0.0116844 1.57596 0
M  V30 13622 C 1296.23 -0.367602 1.55309 0
M  V30 13623 C 1296.43 -1.75524 0.98962 0
M  V30 13624 O 1295.49 -2.44813 0.618289 0
M  V30 13625 C 1296.8 -0.253532 2.99629 0
M  V30 13626 C 1298.35 -0.329335 3.11263 0
M  V30 13627 C 1298.82 -0.24452 4.57347 0
M  V30 13628 N 1300.31 -0.302782 4.62209 0
M  V30 13629 C 1301.05 -0.260315 5.72809 0
M  V30 13630 N 1300.55 -0.169124 6.92594 0
M  V30 13631 N 1302.34 -0.311323 5.61237 0
M  V30 13632 H 1294.49 0.896204 1.92567 0
M  V30 13633 H 1296.75 0.342445 0.883988 0
M  V30 13634 H 1296.46 0.70074 3.44648 0
M  V30 13635 H 1296.33 -1.04029 3.62571 0
M  V30 13636 H 1298.72 -1.27405 2.66181 0
M  V30 13637 H 1298.8 0.487084 2.5112 0
M  V30 13638 H 1298.44 0.696597 5.031 0
M  V30 13639 H 1298.37 -1.07927 5.15421 0
M  V30 13640 H 1300.87 -0.375067 3.76034 0
M  V30 13641 H 1301.18 -0.142296 7.72669 0
M  V30 13642 H 1299.52 -0.134919 6.94869 0
M  V30 13643 H 1302.71 -0.380678 4.6655 0
M  V30 13644 H 1302.89 -0.274761 6.47417 0
M  V30 13645 N 1296.29 -1.55015 -0.284256 0
M  V30 13646 C 1297.26 -1.8636 -1.33426 0
M  V30 13647 C 1298.26 -0.737457 -1.42892 0
M  V30 13648 O 1299.45 -1.00569 -1.42238 0
M  V30 13649 C 1296.58 -2.05884 -2.71707 0
M  V30 13650 H 1297.77 -2.80212 -1.06869 0
M  V30 13651 H 1295.32 -1.47334 -0.521767 0
M  V30 13652 H 1296.06 -1.14376 -3.03461 0
M  V30 13653 H 1295.84 -2.87867 -2.66224 0
M  V30 13654 H 1297.33 -2.31447 -3.47595 0
M  V30 13655 N 1297.77 0.548248 -1.47757 0
M  V30 13656 C 1299 1.3302 -1.58472 0
M  V30 13657 C 1299.41 1.87292 -0.238186 0
M  V30 13658 O 1298.77 1.65465 0.76991 0
M  V30 13659 C 1298.82 2.49386 -2.61704 0
M  V30 13660 O 1298.54 1.97355 -3.9113 0
M  V30 13661 C 1300.04 3.41471 -2.82688 0
M  V30 13662 H 1297.26 0.405172 -0.534861 0
M  V30 13663 H 1299.81 0.663251 -1.93446 0
M  V30 13664 H 1297.96 3.12001 -2.29639 0
M  V30 13665 H 1298.38 2.7339 -4.47614 0
M  V30 13666 H 1299.85 4.19516 -3.58762 0
M  V30 13667 H 1300.33 3.95573 -1.90837 0
M  V30 13668 H 1300.93 2.84664 -3.15985 0
M  V30 13669 N 1299.25 1.36039 0.795694 0
M  V30 13670 C 1300.2 1.29902 1.92946 0
M  V30 13671 C 1301.19 0.191943 1.68309 0
M  V30 13672 O 1302.4 0.358577 1.76392 0
M  V30 13673 H 1298.77 0.404252 0.634101 0
M  V30 13674 H 1300.74 2.25663 1.95241 0
M  V30 13675 C 1299.49 1.09887 3.29879 0
M  V30 13676 H 1298.82 1.94318 3.494 0
M  V30 13677 H 1300.26 1.09638 4.0958 0
M  V30 13678 C 1298.71 -0.196802 3.36325 0
M  V30 13679 O 1299.24 -1.18883 3.83705 0
M  V30 13680 N 1297.45 -0.239325 2.89613 0
M  V30 13681 H 1297 0.568571 2.51247 0
M  V30 13682 H 1296.96 -1.10593 2.94307 0
M  V30 13683 N 1300.73 -1.01913 1.20215 0
M  V30 13684 C 1302.01 -1.7262 0.919867 0
M  V30 13685 C 1302.39 -2.03203 -0.572001 0
M  V30 13686 O 1301.73 -1.69448 -1.53296 0
M  V30 13687 C 1301.94 -2.9959 1.79016 0
M  V30 13688 C 1303.29 -3.72905 2.03045 0
M  V30 13689 O 1304.32 -3.0954 1.76249 0
M  V30 13690 O 1303.17 -4.86844 2.48285 0
M  V30 13691 H 1300.27 -0.752194 0.343705 0
M  V30 13692 H 1302.81 -1.07783 1.31076 0
M  V30 13693 H 1301.59 -2.73292 2.80048 0
M  V30 13694 H 1301.21 -3.72168 1.39918 0
M  V30 13695 N 1302.21 -1.00763 -1.2118 0
M  V30 13696 C 1303.14 -0.590493 -2.2591 0
M  V30 13697 C 1304.12 0.390002 -1.65569 0
M  V30 13698 O 1305.3 0.277406 -1.92208 0
M  V30 13699 C 1302.43 0.0810388 -3.47205 0
M  V30 13700 C 1301.39 -0.81951 -4.20081 0
M  V30 13701 C 1300.71 -0.014244 -5.34698 0
M  V30 13702 C 1302.01 -2.12336 -4.7719 0
M  V30 13703 H 1303.71 -1.46595 -2.61056 0
M  V30 13704 H 1301.25 -0.706321 -1.25487 0
M  V30 13705 H 1303.21 0.384355 -4.19644 0
M  V30 13706 H 1301.93 0.991145 -3.11197 0
M  V30 13707 H 1300.59 -1.10669 -3.49497 0
M  V30 13708 H 1300.24 0.897233 -4.94933 0
M  V30 13709 H 1299.94 -0.613883 -5.84384 0
M  V30 13710 H 1301.46 0.282827 -6.09945 0
M  V30 13711 H 1302.87 -1.88301 -5.41494 0
M  V30 13712 H 1301.27 -2.67308 -5.37277 0
M  V30 13713 H 1302.34 -2.79238 -3.96427 0
M  V30 13714 N 1303.68 1.3679 -0.7827 0
M  V30 13715 C 1304.93 1.99712 -0.352533 0
M  V30 13716 C 1305.26 1.61984 1.0712 0
M  V30 13717 O 1304.54 0.871342 1.7389 0
M  V30 13718 C 1304.82 3.5649 -0.508628 0
M  V30 13719 C 1304.67 4.04093 -1.97557 0
M  V30 13720 C 1305.99 4.40026 0.0804447 0
M  V30 13721 H 1303.11 0.725522 -0.129566 0
M  V30 13722 H 1305.75 1.62305 -0.987788 0
M  V30 13723 H 1303.9 3.88487 0.0321664 0
M  V30 13724 H 1305.58 3.82613 -2.57691 0
M  V30 13725 H 1303.82 3.55881 -2.48055 0
M  V30 13726 H 1304.49 5.13088 -2.03579 0
M  V30 13727 H 1306.97 4.14351 -0.381113 0
M  V30 13728 H 1305.84 5.48868 -0.0588424 0
M  V30 13729 H 1306.1 4.26285 1.17189 0
M  V30 13730 N 1305.16 0.53415 1.48272 0
M  V30 13731 C 1306.09 -0.215037 2.32508 0
M  V30 13732 C 1307.07 -0.931083 1.42355 0
M  V30 13733 O 1308.26 -0.916051 1.71237 0
M  V30 13734 C 1305.39 -1.25985 3.23643 0
M  V30 13735 C 1304.34 -0.661692 4.22854 0
M  V30 13736 C 1303.67 -1.80946 5.03153 0
M  V30 13737 C 1304.97 0.369358 5.20992 0
M  V30 13738 H 1306.66 0.488158 2.95394 0
M  V30 13739 H 1304.21 0.236206 1.4205 0
M  V30 13740 H 1306.16 -1.79195 3.81402 0
M  V30 13741 H 1304.89 -1.99268 2.58766 0
M  V30 13742 H 1303.54 -0.151082 3.66289 0
M  V30 13743 H 1303.19 -2.53077 4.34696 0
M  V30 13744 H 1302.89 -1.41513 5.70305 0
M  V30 13745 H 1304.42 -2.34526 5.63764 0
M  V30 13746 H 1305.83 -0.0758076 5.7325 0
M  V30 13747 H 1304.23 0.681301 5.9622 0
M  V30 13748 H 1305.3 1.27363 4.67875 0
M  V30 13749 N 1306.64 -1.55279 0.269478 0
M  V30 13750 C 1308.06 -1.59374 -0.0848147 0
M  V30 13751 C 1308.26 -1.2867 -1.55068 0
M  V30 13752 O 1307.31 -1.04486 -2.29867 0
M  V30 13753 C 1308.63 -2.99349 0.284735 0
M  V30 13754 C 1310.17 -3.12147 0.230887 0
M  V30 13755 C 1310.65 -4.54379 0.574795 0
M  V30 13756 N 1312.14 -4.60202 0.526136 0
M  V30 13757 C 1312.87 -5.68273 0.765109 0
M  V30 13758 N 1312.37 -6.84512 1.0684 0
M  V30 13759 N 1314.16 -5.57796 0.694287 0
M  V30 13760 H 1306.31 -1.73503 1.22517 0
M  V30 13761 H 1308.58 -0.808771 0.494564 0
M  V30 13762 H 1308.28 -3.26633 1.30398 0
M  V30 13763 H 1308.16 -3.75309 -0.377199 0
M  V30 13764 H 1310.54 -2.84631 -0.779064 0
M  V30 13765 H 1310.63 -2.38412 0.926998 0
M  V30 13766 H 1310.27 -4.8262 1.58241 0
M  V30 13767 H 1310.2 -5.26406 -0.143044 0
M  V30 13768 H 1312.69 -3.76696 0.301368 0
M  V30 13769 H 1313 -7.62826 1.23757 0
M  V30 13770 H 1311.35 -6.86141 1.10612 0
M  V30 13771 H 1314.54 -4.65862 0.457226 0
M  V30 13772 H 1314.71 -6.41943 0.883913 0
M  V30 13773 N 1308.12 0.00332656 -1.576 0
M  V30 13774 C 1309.53 0.359361 -1.55502 0
M  V30 13775 C 1309.73 1.74997 -0.998914 0
M  V30 13776 O 1308.79 2.44482 -0.631263 0
M  V30 13777 C 1310.1 0.237638 -2.9976 0
M  V30 13778 C 1311.65 0.312824 -3.11433 0
M  V30 13779 C 1312.13 0.220262 -4.5747 0
M  V30 13780 N 1313.62 0.278265 -4.62363 0
M  V30 13781 C 1314.35 0.229933 -5.72939 0
M  V30 13782 N 1313.85 0.132391 -6.92673 0
M  V30 13783 N 1315.64 0.281555 -5.61394 0
M  V30 13784 H 1307.79 -0.906404 -1.92089 0
M  V30 13785 H 1310.06 -0.347129 -0.88216 0
M  V30 13786 H 1309.76 -0.719007 -3.44272 0
M  V30 13787 H 1309.64 1.02105 -3.63118 0
M  V30 13788 H 1312.02 1.25991 -2.66852 0
M  V30 13789 H 1312.1 -0.500395 -2.50858 0
M  V30 13790 H 1311.75 -0.723267 -5.02724 0
M  V30 13791 H 1311.68 1.05192 -5.15987 0
M  V30 13792 H 1314.17 0.35512 -3.76228 0
M  V30 13793 H 1314.48 0.101317 -7.72734 0
M  V30 13794 H 1312.83 0.0980665 -6.94931 0
M  V30 13795 H 1316.02 0.355931 -4.66745 0
M  V30 13796 H 1316.19 0.240423 -6.47554 0
M  V30 13797 N 1309.6 1.55164 0.276031 0
M  V30 13798 C 1310.56 1.87065 1.32436 0
M  V30 13799 C 1311.56 0.745024 1.42499 0
M  V30 13800 O 1312.75 1.01321 1.41702 0
M  V30 13801 C 1309.88 2.07322 2.70611 0
M  V30 13802 H 1311.07 2.80775 1.05382 0
M  V30 13803 H 1308.63 1.47609 0.513947 0
M  V30 13804 H 1309.36 1.15983 3.0285 0
M  V30 13805 H 1309.15 2.89275 2.64693 0
M  V30 13806 H 1310.64 2.33287 3.46362 0
M  V30 13807 N 1311.07 -0.540404 1.48045 0
M  V30 13808 C 1312.49 -0.867958 1.33935 0
M  V30 13809 C 1312.69 -1.98568 0.342488 0
M  V30 13810 O 1311.75 -2.51357 -0.240022 0
M  V30 13811 C 1313.06 -1.24532 2.73701 0
M  V30 13812 C 1314.61 -1.3558 2.82112 0
M  V30 13813 C 1315.08 -1.76664 4.22556 0
M  V30 13814 N 1316.57 -1.83785 4.25179 0
M  V30 13815 C 1317.31 -2.16938 5.30778 0
M  V30 13816 N 1316.8 -2.48587 6.46666 0
M  V30 13817 N 1318.6 -2.17855 5.18166 0
M  V30 13818 H 1310.75 0.197251 2.11482 0
M  V30 13819 H 1313.01 0.0255947 0.947654 0
M  V30 13820 H 1312.72 -0.497731 3.4816 0
M  V30 13821 H 1312.59 -2.19779 3.06556 0
M  V30 13822 H 1314.98 -2.09417 2.07915 0
M  V30 13823 H 1315.06 -0.384787 2.52889 0
M  V30 13824 H 1314.7 -1.03391 4.97265 0
M  V30 13825 H 1314.63 -2.74797 4.49215 0
M  V30 13826 H 1317.12 -1.61645 3.41583 0
M  V30 13827 H 1317.44 -2.72959 7.22989 0
M  V30 13828 H 1315.78 -2.4613 6.49958 0
M  V30 13829 H 1318.97 -1.9258 4.2665 0
M  V30 13830 H 1319.15 -2.43361 6.00566 0
M  V30 13831 N 1312.55 -1.36459 -0.788468 0
M  V30 13832 C 1313.5 -1.27391 -1.89092 0
M  V30 13833 C 1314.49 -0.165201 -1.6005 0
M  V30 13834 O 1315.68 -0.398097 -1.72465 0
M  V30 13835 C 1312.81 -1.06639 -3.26317 0
M  V30 13836 C 1311.89 -2.21981 -3.61366 0
M  V30 13837 N 1312.28 -3.47302 -3.67716 0
M  V30 13838 C 1310.58 -2.13767 -3.91433 0
M  V30 13839 C 1311.28 -4.2326 -3.99031 0
M  V30 13840 N 1310.26 -3.52211 -4.14063 0
M  V30 13841 H 1314.06 -2.22318 -1.92229 0
M  V30 13842 H 1311.58 -1.29191 -0.98404 0
M  V30 13843 H 1313.57 -0.982292 -4.05162 0
M  V30 13844 H 1312.23 -0.126129 -3.24455 0
M  V30 13845 H 1313.24 -3.81424 -3.50337 0
M  V30 13846 H 1309.92 -1.27702 -3.9749 0
M  V30 13847 H 1311.31 -5.31643 -4.1086 0
M  V30 13848 N 1314.03 1.01274 -1.20754 0
M  V30 13849 C 1314.96 2.10029 -0.917628 0
M  V30 13850 C 1315.98 1.62516 0.0961411 0
M  V30 13851 O 1317.16 1.77986 -0.135371 0
M  V30 13852 C 1314.26 3.37037 -0.354891 0
M  V30 13853 C 1313.44 4.1367 -1.42113 0
M  V30 13854 C 1312.5 5.18974 -0.869023 0
M  V30 13855 O 1311.52 5.47671 -1.55063 0
M  V30 13856 N 1312.72 5.79619 0.319631 0
M  V30 13857 H 1315.49 2.35485 -1.85383 0
M  V30 13858 H 1313.05 1.17695 -1.11173 0
M  V30 13859 H 1315.04 4.0469 0.0286895 0
M  V30 13860 H 1313.61 3.088 0.485956 0
M  V30 13861 H 1312.83 3.40931 -1.97889 0
M  V30 13862 H 1314.12 4.61649 -2.13911 0
M  V30 13863 H 1313.52 5.58646 0.89059 0
M  V30 13864 H 1312.08 6.48603 0.644807 0
M  V30 13865 N 1315.51 1.01404 1.20644 0
M  V30 13866 C 1316.44 0.540288 2.22741 0
M  V30 13867 C 1317.45 -0.375953 1.584 0
M  V30 13868 O 1318.64 -0.174708 1.77643 0
M  V30 13869 C 1315.74 -0.233766 3.38093 0
M  V30 13870 C 1314.92 0.683759 4.32023 0
M  V30 13871 C 1313.98 -0.0422681 5.26183 0
M  V30 13872 O 1313 0.579392 5.66243 0
M  V30 13873 N 1314.2 -1.31794 5.65341 0
M  V30 13874 H 1316.97 1.41831 2.64015 0
M  V30 13875 H 1314.53 0.891265 1.35159 0
M  V30 13876 H 1316.52 -0.728645 3.98087 0
M  V30 13877 H 1315.09 -1.01306 2.9573 0
M  V30 13878 H 1314.31 1.35899 3.70034 0
M  V30 13879 H 1315.6 1.30786 4.91704 0
M  V30 13880 H 1315 -1.84399 5.34802 0
M  V30 13881 H 1313.55 -1.7576 6.27656 0
M  V30 13882 N 1316.99 -1.36373 0.789944 0
M  V30 13883 C 1317.92 -2.27803 0.134613 0
M  V30 13884 C 1318.9 -1.47252 -0.689599 0
M  V30 13885 O 1320.08 -1.76551 -0.660466 0
M  V30 13886 C 1317.21 -3.28751 -0.814888 0
M  V30 13887 C 1316.26 -4.26439 -0.0724012 0
M  V30 13888 S 1317.09 -5.20654 1.2522 0
M  V30 13889 C 1318.24 -6.25148 0.306715 0
M  V30 13890 H 1318.48 -2.83036 0.909837 0
M  V30 13891 H 1316.01 -1.42922 0.584187 0
M  V30 13892 H 1317.97 -3.87413 -1.35726 0
M  V30 13893 H 1316.63 -2.72429 -1.56336 0
M  V30 13894 H 1315.82 -4.97724 -0.792894 0
M  V30 13895 H 1315.42 -3.7186 0.399504 0
M  V30 13896 H 1317.72 -6.75546 -0.514246 0
M  V30 13897 H 1318.66 -7.0117 0.98827 0
M  V30 13898 H 1319.07 -5.64428 -0.0901834 0
M  V30 13899 N 1318.47 -0.542005 -1.47987 0
M  V30 13900 C 1319.69 -0.0146835 -2.07395 0
M  V30 13901 C 1320.12 1.26266 -1.39422 0
M  V30 13902 O 1319.47 1.75259 -0.464118 0
M  V30 13903 C 1319.52 0.179937 -3.60151 0
M  V30 13904 O 1318.63 1.24596 -3.93128 0
M  V30 13905 H 1317.97 -0.0445076 -0.662507 0
M  V30 13906 H 1320.5 -0.753352 -1.90226 0
M  V30 13907 H 1320.51 0.398876 -4.06046 0
M  V30 13908 H 1319.18 -0.753093 -4.09025 0
M  V30 13909 H 1317.76 1.00872 -3.58997 0
M  V30 13910 N 1319.94 1.55134 -0.277709 0
M  V30 13911 C 1321.19 1.99259 0.337662 0
M  V30 13912 C 1321.51 1.16755 1.56183 0
M  V30 13913 O 1320.78 0.257707 1.94198 0
M  V30 13914 H 1319.36 0.735995 0.127751 0
M  V30 13915 H 1322.02 1.91087 -0.383646 0
M  V30 13916 H 1321.12 3.05763 0.625747 0
M  V30 13917 N 1321.42 0.00503138 1.57599 0
M  V30 13918 C 1322.7 -0.716079 1.82021 0
M  V30 13919 C 1323.08 -1.91707 0.883829 0
M  V30 13920 O 1322.43 -2.28404 -0.0662812 0
M  V30 13921 C 1322.64 -1.11706 3.3064 0
M  V30 13922 C 1323.98 -1.51881 3.96506 0
M  V30 13923 O 1325.01 -1.21071 3.34993 0
M  V30 13924 O 1323.87 -2.09191 5.04877 0
M  V30 13925 H 1320.96 -0.349112 0.7497 0
M  V30 13926 H 1323.51 0.030871 1.69672 0
M  V30 13927 H 1322.28 -0.261223 3.90427 0
M  V30 13928 H 1321.9 -1.92295 3.48006 0
M  V30 13929 N 1322.9 -1.55308 -0.267798 0
M  V30 13930 C 1324.15 -1.7642 -1.00019 0
M  V30 13931 C 1324.48 -0.566559 -1.85752 0
M  V30 13932 O 1323.75 0.435752 -1.89556 0
M  V30 13933 C 1324.04 -3.07229 -1.87836 0
M  V30 13934 C 1323.89 -4.37358 -1.05061 0
M  V30 13935 C 1325.21 -3.34113 -2.86455 0
M  V30 13936 H 1322.33 -0.641859 -0.362197 0
M  V30 13937 H 1324.97 -1.8804 -0.272188 0
M  V30 13938 H 1323.12 -2.97454 -2.49907 0
M  V30 13939 H 1324.79 -4.59098 -0.450208 0
M  V30 13940 H 1323.03 -4.32351 -0.354242 0
M  V30 13941 H 1323.71 -5.25223 -1.69838 0
M  V30 13942 H 1326.18 -3.43715 -2.34519 0
M  V30 13943 H 1325.06 -4.26896 -3.45038 0
M  V30 13944 H 1325.32 -2.54005 -3.61848 0
M  V30 13945 N 1324.38 0.532545 -1.4833 0
M  V30 13946 C 1325.34 1.61955 -1.62183 0
M  V30 13947 C 1326.34 1.52982 -0.495281 0
M  V30 13948 O 1327.53 1.56698 -0.761005 0
M  V30 13949 C 1324.66 3.0157 -1.58961 0
M  V30 13950 H 1325.86 1.51013 -2.59105 0
M  V30 13951 H 1323.41 0.754405 -1.36888 0
M  V30 13952 H 1324.14 3.18021 -0.635069 0
M  V30 13953 H 1323.93 3.09491 -2.40744 0
M  V30 13954 H 1325.42 3.80604 -1.71843 0
M  V30 13955 N 1325.86 1.36875 0.78122 0
M  V30 13956 C 1327.1 1.31754 1.54171 0
M  V30 13957 C 1327.43 -0.100632 1.93939 0
M  V30 13958 O 1326.71 -1.05587 1.63345 0
M  V30 13959 C 1326.99 2.24789 2.81322 0
M  V30 13960 C 1326.85 3.75342 2.47868 0
M  V30 13961 C 1328.16 2.16442 3.83198 0
M  V30 13962 H 1325.28 0.479931 0.559317 0
M  V30 13963 H 1327.93 1.67497 0.896935 0
M  V30 13964 H 1326.08 1.94438 3.36342 0
M  V30 13965 H 1327.75 4.16247 1.98836 0
M  V30 13966 H 1325.99 3.94375 1.80696 0
M  V30 13967 H 1326.66 4.3586 3.38719 0
M  V30 13968 H 1329.14 2.43175 3.37647 0
M  V30 13969 H 1328.01 2.83695 4.69903 0
M  V30 13970 H 1328.27 1.15431 4.26765 0
M  V30 13971 N 1327.33 -1.00632 1.21289 0
M  V30 13972 C 1328.24 -2.12829 0.986957 0
M  V30 13973 C 1329.26 -1.73895 -0.0605152 0
M  V30 13974 O 1330.44 -2.00985 0.129238 0
M  V30 13975 C 1327.5 -3.4226 0.553089 0
M  V30 13976 C 1326.56 -3.95376 1.67262 0
M  V30 13977 C 1325.79 -5.18629 1.25936 0
M  V30 13978 O 1326.02 -5.70246 0.132402 0
M  V30 13979 O 1324.95 -5.65157 2.07077 0
M  V30 13980 H 1328.78 -2.34765 1.92663 0
M  V30 13981 H 1326.36 -1.11208 0.997654 0
M  V30 13982 H 1328.24 -4.20177 0.320856 0
M  V30 13983 H 1326.92 -3.21716 -0.357881 0
M  V30 13984 H 1325.83 -3.18692 1.95924 0
M  V30 13985 H 1327.16 -4.20328 2.56097 0
M  V30 13986 N 1328.81 -1.02043 -1.20104 0
M  V30 13987 C 1329.76 -0.593945 -2.23027 0
M  V30 13988 C 1330.73 0.387931 -1.61506 0
M  V30 13989 O 1331.91 0.286504 -1.88637 0
M  V30 13990 C 1329.05 0.0577309 -3.45052 0
M  V30 13991 C 1328.17 -0.969169 -4.20988 0
M  V30 13992 C 1327.3 -0.288143 -5.30418 0
M  V30 13993 C 1326.34 -1.30154 -5.98102 0
M  V30 13994 N 1325.48 -0.646912 -6.99113 0
M  V30 13995 H 1330.32 -1.47623 -2.58866 0
M  V30 13996 H 1327.85 -0.738901 -1.27195 0
M  V30 13997 H 1329.81 0.452726 -4.14736 0
M  V30 13998 H 1328.44 0.90364 -3.09894 0
M  V30 13999 H 1327.49 -1.48229 -3.50332 0
M  V30 14000 H 1328.81 -1.73972 -4.67477 0
M  V30 14001 H 1327.96 0.162149 -6.06483 0
M  V30 14002 H 1326.7 0.514683 -4.84977 0
M  V30 14003 H 1325.7 -1.76218 -5.20795 0
M  V30 14004 H 1326.93 -2.10571 -6.45629 0
M  V30 14005 H 1324.88 0.135976 -6.55859 0
M  V30 14006 H 1324.79 -1.35548 -7.43749 0
M  V30 14007 H 1326.06 -0.220339 -7.79189 0
M  V30 14008 N 1330.29 1.35952 -0.797165 0
M  V30 14009 C 1331.71 1.52218 -0.479765 0
M  V30 14010 C 1331.91 1.74898 1.00064 0
M  V30 14011 O 1330.96 1.78495 1.78594 0
M  V30 14012 C 1332.28 2.70328 -1.31694 0
M  V30 14013 C 1333.82 2.84202 -1.31142 0
M  V30 14014 C 1334.3 4.05325 -2.13251 0
M  V30 14015 N 1335.79 4.12485 -2.10737 0
M  V30 14016 C 1336.52 5.053 -2.71033 0
M  V30 14017 N 1336.02 6.03509 -3.40219 0
M  V30 14018 N 1337.81 4.97975 -2.60725 0
M  V30 14019 H 1329.96 1.19486 -1.75604 0
M  V30 14020 H 1332.23 0.58383 -0.746892 0
M  V30 14021 H 1331.93 2.60116 -2.36712 0
M  V30 14022 H 1331.81 3.64684 -0.963607 0
M  V30 14023 H 1334.19 2.9387 -0.269131 0
M  V30 14024 H 1334.28 1.9073 -1.70457 0
M  V30 14025 H 1333.92 3.96417 -3.17515 0
M  V30 14026 H 1333.85 4.97959 -1.71302 0
M  V30 14027 H 1336.34 3.42174 -1.6039 0
M  V30 14028 H 1336.65 6.70909 -3.83537 0
M  V30 14029 H 1335 6.03711 -3.44322 0
M  V30 14030 H 1338.19 4.20203 -2.0627 0
M  V30 14031 H 1338.36 5.70119 -3.08007 0
M  V30 14032 N 1331.77 0.549846 1.47697 0
M  V30 14033 C 1333.18 0.11453 1.86348 0
M  V30 14034 C 1333.53 -1.31368 1.45729 0
M  V30 14035 O 1332.66 -1.98707 0.856989 0
M  V30 14036 C 1333.25 0.201072 3.38203 0
M  V30 14037 C 1331.81 -0.179162 3.75973 0
M  V30 14038 C 1330.96 0.551951 2.71751 0
M  V30 14039 H 1333.91 0.759989 1.39319 0
M  V30 14040 H 1333.93 -0.582216 3.76019 0
M  V30 14041 H 1333.44 1.24065 3.67736 0
M  V30 14042 H 1331.54 -1.22013 3.52056 0
M  V30 14043 H 1331.65 0.174273 4.78783 0
M  V30 14044 H 1330.02 -0.00411819 2.547 0
M  V30 14045 H 1330.8 1.59254 3.04127 0
M  V30 14046 N 1333.25 -1.54984 0.285932 0
M  V30 14047 C 1334.47 -2.04699 -0.333621 0
M  V30 14048 C 1334.9 -1.16252 -1.47875 0
M  V30 14049 O 1334.25 -0.163376 -1.80562 0
M  V30 14050 C 1334.3 -3.52022 -0.78187 0
M  V30 14051 O 1333.41 -3.66639 -1.88812 0
M  V30 14052 H 1332.75 -0.660579 -0.0673203 0
M  V30 14053 H 1335.28 -2.00171 0.423386 0
M  V30 14054 H 1335.29 -3.93591 -1.07473 0
M  V30 14055 H 1333.96 -4.15862 0.055893 0
M  V30 14056 H 1332.54 -3.36974 -1.59696 0
M  V30 14057 N 1334.72 -0.0133892 -1.57594 0
M  V30 14058 C 1336.14 0.342848 -1.55874 0
M  V30 14059 C 1336.34 1.73928 -1.01742 0
M  V30 14060 O 1335.4 2.43798 -0.657158 0
M  V30 14061 C 1336.71 0.205831 -2.99995 0
M  V30 14062 C 1338.26 0.279774 -3.11747 0
M  V30 14063 C 1338.73 0.171729 -4.57678 0
M  V30 14064 N 1340.22 0.22921 -4.62633 0
M  V30 14065 C 1340.96 0.169153 -5.7315 0
M  V30 14066 N 1340.45 0.0589166 -6.92775 0
M  V30 14067 N 1342.25 0.221995 -5.61661 0
M  V30 14068 H 1334.4 -0.926727 -1.91117 0
M  V30 14069 H 1336.66 -0.356466 -0.878428 0
M  V30 14070 H 1336.37 -0.755482 -3.4349 0
M  V30 14071 H 1336.24 0.982476 -3.6418 0
M  V30 14072 H 1338.63 1.23154 -2.68174 0
M  V30 14073 H 1338.71 -0.526974 -2.50313 0
M  V30 14074 H 1338.35 -0.776547 -5.01928 0
M  V30 14075 H 1338.28 0.997138 -5.17073 0
M  V30 14076 H 1340.77 0.315196 -3.76583 0
M  V30 14077 H 1341.09 0.0193526 -7.72798 0
M  V30 14078 H 1339.43 0.0243543 -6.94996 0
M  V30 14079 H 1342.62 0.306406 -4.67096 0
M  V30 14080 H 1342.8 0.171727 -6.47772 0
M  V30 14081 N 1336.2 1.55448 0.259558 0
M  V30 14082 C 1337.43 1.80727 1.00723 0
M  V30 14083 C 1337.85 0.587354 1.79431 0
M  V30 14084 O 1337.2 -0.443819 1.77021 0
M  V30 14085 C 1337.25 3.04064 1.95517 0
M  V30 14086 O 1336.97 4.21346 1.19996 0
M  V30 14087 C 1338.48 3.42049 2.81988 0
M  V30 14088 H 1335.7 0.601713 0.296956 0
M  V30 14089 H 1338.24 2.02486 0.286273 0
M  V30 14090 H 1336.39 2.84392 2.63058 0
M  V30 14091 H 1336.81 4.91164 1.84006 0
M  V30 14092 H 1338.28 4.31485 3.44274 0
M  V30 14093 H 1338.76 2.62059 3.52451 0
M  V30 14094 H 1339.37 3.64027 2.19918 0
M  V30 14095 N 1337.68 -0.524672 1.4861 0
M  V30 14096 C 1338.93 -1.27768 1.56588 0
M  V30 14097 C 1339.25 -1.93469 0.243899 0
M  V30 14098 O 1338.52 -1.8159 -0.734985 0
M  V30 14099 H 1337.1 -0.474566 0.576885 0
M  V30 14100 H 1339.76 -0.610114 1.85104 0
M  V30 14101 H 1338.86 -2.05416 2.34969 0
M  V30 14102 N 1339.16 -1.37287 -0.77395 0
M  V30 14103 C 1340.41 -1.32112 -1.5294 0
M  V30 14104 C 1340.73 0.0946137 -1.9477 0
M  V30 14105 O 1340 1.03817 -1.66129 0
M  V30 14106 H 1338.58 -0.486047 -0.567245 0
M  V30 14107 H 1341.24 -1.71752 -0.921263 0
M  V30 14108 H 1340.34 -1.95873 -2.42982 0
M  V30 14109 N 1340.64 0.999871 -1.21821 0
M  V30 14110 C 1341.58 2.08864 -0.98206 0
M  V30 14111 C 1342.55 1.65835 0.0937677 0
M  V30 14112 O 1343.74 1.90722 -0.0544038 0
M  V30 14113 C 1340.88 3.40553 -0.558382 0
M  V30 14114 C 1339.99 3.96964 -1.70422 0
M  V30 14115 C 1339.13 5.16782 -1.2292 0
M  V30 14116 C 1338.17 5.65315 -2.34703 0
M  V30 14117 N 1337.3 6.76379 -1.88299 0
M  V30 14118 H 1342.14 2.28399 -1.9141 0
M  V30 14119 H 1339.68 1.11984 -0.953837 0
M  V30 14120 H 1341.64 4.16163 -0.293955 0
M  V30 14121 H 1340.27 3.2104 0.336656 0
M  V30 14122 H 1339.32 3.18291 -2.08315 0
M  V30 14123 H 1340.63 4.2897 -2.54531 0
M  V30 14124 H 1339.79 5.99657 -0.92174 0
M  V30 14125 H 1338.52 4.86383 -0.358222 0
M  V30 14126 H 1337.53 4.81033 -2.66246 0
M  V30 14127 H 1338.75 5.97742 -3.22306 0
M  V30 14128 H 1336.7 6.47775 -1.03552 0
M  V30 14129 H 1336.62 7.07666 -2.65978 0
M  V30 14130 H 1337.89 7.62776 -1.60601 0
M  V30 14131 N 1342.11 1.02678 1.19562 0
M  V30 14132 C 1343.36 0.723086 1.89471 0
M  V30 14133 C 1343.69 -0.746269 1.79289 0
M  V30 14134 O 1342.97 -1.54322 1.18384 0
M  V30 14135 C 1343.25 1.17224 3.40486 0
M  V30 14136 C 1343.1 2.70266 3.5955 0
M  V30 14137 C 1344.42 0.751397 4.33638 0
M  V30 14138 H 1341.54 0.264155 0.688034 0
M  V30 14139 H 1344.18 1.27633 1.40747 0
M  V30 14140 H 1342.33 0.701544 3.82113 0
M  V30 14141 H 1344.01 3.25266 3.27108 0
M  V30 14142 H 1342.25 3.10758 3.02675 0
M  V30 14143 H 1342.92 2.96748 4.65451 0
M  V30 14144 H 1345.4 1.15621 3.99714 0
M  V30 14145 H 1344.27 1.09358 5.37896 0
M  V30 14146 H 1344.53 -0.346367 4.40741 0
M  V30 14147 N 1343.59 -1.35528 0.804364 0
M  V30 14148 C 1344.84 -1.98084 0.380196 0
M  V30 14149 C 1345.15 -1.64531 -1.05778 0
M  V30 14150 O 1346.36 -2.20435 -1.58495 0
M  V30 14151 C 1344.82 -3.54364 0.628848 0
M  V30 14152 C 1344.42 -3.96828 2.07921 0
M  V30 14153 C 1346.17 -4.23641 0.269927 0
M  V30 14154 C 1344.08 -5.45944 2.27374 0
M  V30 14155 H 1343.01 -0.741185 0.138422 0
M  V30 14156 H 1345.66 -1.54624 0.988107 0
M  V30 14157 H 1344.04 -3.9597 -0.0489837 0
M  V30 14158 H 1345.21 -3.6638 2.79467 0
M  V30 14159 H 1343.53 -3.40433 2.39779 0
M  V30 14160 H 1346.12 -5.33251 0.393344 0
M  V30 14161 H 1346.47 -4.08858 -0.783644 0
M  V30 14162 H 1347 -3.87448 0.901588 0
M  V30 14163 H 1343.74 -5.65693 3.31168 0
M  V30 14164 H 1343.26 -5.77969 1.6035 0
M  V30 14165 H 1344.94 -6.12376 2.08817 0
M  V30 14166 N 1345.07 -0.557671 -1.47404 0
M  V30 14167 C 1346.02 0.189765 -2.30019 0
M  V30 14168 C 1346.99 0.907923 -1.3909 0
M  V30 14169 O 1348.17 0.903528 -1.68051 0
M  V30 14170 C 1345.31 1.21348 -3.23061 0
M  V30 14171 C 1344.43 0.501343 -4.29081 0
M  V30 14172 C 1343.56 1.51039 -5.09275 0
M  V30 14173 C 1342.6 0.783254 -6.07068 0
M  V30 14174 N 1341.74 1.73916 -6.80219 0
M  V30 14175 H 1346.58 -0.520856 -2.93413 0
M  V30 14176 H 1344.11 -0.268686 -1.44625 0
M  V30 14177 H 1346.07 1.81961 -3.75428 0
M  V30 14178 H 1344.7 1.89213 -2.61531 0
M  V30 14179 H 1343.75 -0.219317 -3.79767 0
M  V30 14180 H 1345.07 -0.0682656 -4.98753 0
M  V30 14181 H 1344.22 2.19004 -5.65793 0
M  V30 14182 H 1342.96 2.11392 -4.39505 0
M  V30 14183 H 1341.96 0.0896883 -5.49727 0
M  V30 14184 H 1343.19 0.185464 -6.78847 0
M  V30 14185 H 1341.14 2.33125 -6.13179 0
M  V30 14186 H 1341.05 1.22171 -7.46063 0
M  V30 14187 H 1342.32 2.40993 -7.41311 0
M  V30 14188 N 1346.55 1.54831 -0.294147 0
M  V30 14189 C 1347.77 2.04873 0.32276 0
M  V30 14190 C 1348.2 1.17034 1.47257 0
M  V30 14191 O 1347.56 0.172949 1.80473 0
M  V30 14192 C 1347.61 3.52431 0.76319 0
M  V30 14193 O 1346.71 3.67635 1.86865 0
M  V30 14194 H 1346.05 0.660926 0.0638162 0
M  V30 14195 H 1348.58 1.99944 -0.433995 0
M  V30 14196 H 1348.59 3.94155 1.05385 0
M  V30 14197 H 1347.27 4.15827 -0.0779464 0
M  V30 14198 H 1345.84 3.37816 1.57907 0
M  V30 14199 N 1348.03 0.0217466 1.57585 0
M  V30 14200 C 1348.99 -0.947546 2.08696 0
M  V30 14201 C 1349.99 -1.25879 1.00055 0
M  V30 14202 O 1351.18 -1.20035 1.26242 0
M  V30 14203 C 1348.31 -2.26624 2.54665 0
M  V30 14204 H 1349.51 -0.505016 2.95617 0
M  V30 14205 H 1347.06 -0.226152 1.54655 0
M  V30 14206 H 1347.79 -2.75521 1.71052 0
M  V30 14207 H 1347.58 -2.05347 3.34028 0
M  V30 14208 H 1349.07 -2.96114 2.94459 0
M  V30 14209 N 1349.51 -1.55583 -0.251311 0
M  V30 14210 C 1350.73 -1.81597 -1.00186 0
M  V30 14211 C 1351.16 -0.598216 -1.78334 0
M  V30 14212 O 1350.51 0.452667 -1.75558 0
M  V30 14213 C 1350.56 -3.05301 -1.91895 0
M  V30 14214 O 1349.67 -2.81907 -3.01002 0
M  V30 14215 H 1349.01 -0.599578 -0.285311 0
M  V30 14216 H 1351.54 -2.02762 -0.273638 0
M  V30 14217 H 1351.55 -3.34616 -2.33444 0
M  V30 14218 H 1350.22 -3.93574 -1.34433 0
M  V30 14219 H 1348.8 -2.63747 -2.63613 0
M  V30 14220 N 1350.98 0.516783 -1.48886 0
M  V30 14221 C 1351.95 1.60226 -1.63891 0
M  V30 14222 C 1352.95 1.52448 -0.511479 0
M  V30 14223 O 1354.14 1.55882 -0.777582 0
M  V30 14224 C 1351.27 2.99867 -1.62151 0
M  V30 14225 H 1352.46 1.48256 -2.60692 0
M  V30 14226 H 1350.01 0.739844 -1.37681 0
M  V30 14227 H 1350.75 3.1733 -0.668764 0
M  V30 14228 H 1350.53 3.0692 -2.44013 0
M  V30 14229 H 1352.02 3.7876 -1.7587 0
M  V30 14230 N 1352.46 1.37696 0.766659 0
M  V30 14231 C 1353.69 1.3639 1.55581 0
M  V30 14232 C 1354.1 -0.0495272 1.88735 0
M  V30 14233 O 1353.46 -1.01268 1.51826 0
M  V30 14234 C 1353.51 2.20717 2.86298 0
M  V30 14235 O 1353.23 3.56552 2.54563 0
M  V30 14236 C 1354.73 2.27446 3.80504 0
M  V30 14237 H 1351.95 0.466993 0.481828 0
M  V30 14238 H 1354.5 1.81103 0.949834 0
M  V30 14239 H 1352.65 1.79499 3.43306 0
M  V30 14240 H 1353.07 4.00811 3.38306 0
M  V30 14241 H 1354.54 2.90762 4.69214 0
M  V30 14242 H 1355.02 1.28434 4.20002 0
M  V30 14243 H 1355.62 2.68998 3.29424 0
M  V30 14244 N 1353.94 -0.993397 1.22349 0
M  V30 14245 C 1354.9 -2.065 0.994506 0
M  V30 14246 C 1355.9 -1.60753 -0.0388766 0
M  V30 14247 O 1357.09 -1.73053 0.199578 0
M  V30 14248 C 1354.22 -3.37182 0.502088 0
M  V30 14249 H 1355.42 -2.28248 1.94533 0
M  V30 14250 H 1352.97 -1.16489 1.04211 0
M  V30 14251 H 1353.71 -3.21119 -0.453114 0
M  V30 14252 H 1353.49 -3.71721 1.24763 0
M  V30 14253 H 1354.98 -4.16027 0.362108 0
M  V30 14254 N 1355.42 -1.03311 -1.19015 0
M  V30 14255 C 1356.35 -0.638279 -2.24607 0
M  V30 14256 C 1357.33 0.354795 -1.66359 0
M  V30 14257 O 1358.51 0.236574 -1.92754 0
M  V30 14258 C 1355.64 0.00737316 -3.47299 0
M  V30 14259 C 1354.6 -0.908431 -4.18248 0
M  V30 14260 C 1353.92 -0.127658 -5.34548 0
M  V30 14261 C 1355.22 -2.2241 -4.72579 0
M  V30 14262 H 1356.92 -1.52099 -2.57888 0
M  V30 14263 H 1354.46 -0.732779 -1.23961 0
M  V30 14264 H 1356.42 0.295256 -4.20364 0
M  V30 14265 H 1355.14 0.924912 -3.1323 0
M  V30 14266 H 1353.8 -1.18058 -3.47071 0
M  V30 14267 H 1353.45 0.792048 -4.96725 0
M  V30 14268 H 1353.15 -0.737702 -5.82951 0
M  V30 14269 H 1354.67 0.153385 -6.10407 0
M  V30 14270 H 1356.09 -1.99745 -5.37378 0
M  V30 14271 H 1354.48 -2.78644 -5.31486 0
M  V30 14272 H 1355.55 -2.87584 -3.90415 0
M  V30 14273 N 1356.9 1.35099 -0.81154 0
M  V30 14274 C 1358.12 2.03391 -0.405805 0
M  V30 14275 C 1358.55 1.60745 0.97686 0
M  V30 14276 O 1357.9 0.786518 1.63351 0
M  V30 14277 C 1357.95 3.57075 -0.502954 0
M  V30 14278 O 1357.06 4.09577 0.481681 0
M  V30 14279 H 1356.4 0.642203 -0.168733 0
M  V30 14280 H 1358.93 1.72591 -1.0988 0
M  V30 14281 H 1358.94 4.06277 -0.37456 0
M  V30 14282 H 1357.61 3.87463 -1.51145 0
M  V30 14283 H 1356.19 3.71583 0.313115 0
M  V30 14284 N 1358.37 0.56548 1.47106 0
M  V30 14285 C 1359.62 0.0445914 2.02751 0
M  V30 14286 C 1359.95 -1.30517 1.43801 0
M  V30 14287 O 1359.23 -1.85123 0.596646 0
M  V30 14288 C 1359.51 -0.0396474 3.60078 0
M  V30 14289 C 1359.36 1.3378 4.29445 0
M  V30 14290 C 1360.68 -0.748954 4.3368 0
M  V30 14291 H 1357.8 0.0176787 0.736788 0
M  V30 14292 H 1360.44 0.729363 1.75443 0
M  V30 14293 H 1358.59 -0.622826 3.83475 0
M  V30 14294 H 1360.27 1.96482 4.17364 0
M  V30 14295 H 1358.51 1.91024 3.89477 0
M  V30 14296 H 1359.18 1.23149 5.38088 0
M  V30 14297 H 1361.66 -0.253707 4.15326 0
M  V30 14298 H 1360.53 -0.776877 5.43374 0
M  V30 14299 H 1360.79 -1.80679 4.03494 0
M  V30 14300 N 1359.85 -1.54672 0.302354 0
M  V30 14301 C 1360.79 -2.19752 -0.615175 0
M  V30 14302 C 1361.76 -1.16737 -1.13186 0
M  V30 14303 O 1362.95 -1.45385 -1.19981 0
M  V30 14304 C 1360.07 -2.84243 -1.84184 0
M  V30 14305 C 1359.12 -4.00795 -1.45827 0
M  V30 14306 S 1359.95 -5.33037 -0.513046 0
M  V30 14307 C 1361.11 -6.01011 -1.74747 0
M  V30 14308 H 1361.34 -2.97235 -0.0622917 0
M  V30 14309 H 1358.88 -1.54158 0.0864897 0
M  V30 14310 H 1360.83 -3.22025 -2.54578 0
M  V30 14311 H 1359.49 -2.06603 -2.36589 0
M  V30 14312 H 1358.69 -4.44707 -2.37175 0
M  V30 14313 H 1358.29 -3.64577 -0.83425 0
M  V30 14314 H 1360.58 -6.21901 -2.68786 0
M  V30 14315 H 1361.52 -6.95095 -1.35089 0
M  V30 14316 H 1361.93 -5.30671 -1.9248 0
M  V30 14317 N 1361.33 -0.0301034 -1.57571 0
M  V30 14318 C 1362.58 0.647672 -1.91019 0
M  V30 14319 C 1362.89 1.73234 -0.908265 0
M  V30 14320 O 1364.1 2.46682 -1.13402 0
M  V30 14321 C 1362.55 1.20327 -3.3919 0
M  V30 14322 C 1362.16 0.151833 -4.47743 0
M  V30 14323 C 1363.91 1.8575 -3.81703 0
M  V30 14324 C 1361.81 0.719119 -5.87012 0
M  V30 14325 H 1360.74 0.245682 -0.712851 0
M  V30 14326 H 1363.39 -0.0955645 -1.83251 0
M  V30 14327 H 1361.78 1.99814 -3.41892 0
M  V30 14328 H 1362.95 -0.620659 -4.56601 0
M  V30 14329 H 1361.27 -0.403699 -4.14438 0
M  V30 14330 H 1363.86 2.29151 -4.83109 0
M  V30 14331 H 1364.21 2.70061 -3.16817 0
M  V30 14332 H 1364.74 1.1295 -3.81428 0
M  V30 14333 H 1361.48 -0.0858832 -6.55444 0
M  V30 14334 H 1361 1.46008 -5.81758 0
M  V30 14335 H 1362.68 1.20856 -6.35612 0
M  V30 14336 N 1362.81 1.55714 0.243056 0
M  V30 14337 C 1364.22 1.68126 0.811814 0
M  V30 14338 C 1364.57 0.628259 1.85869 0
M  V30 14339 O 1363.7 -0.224747 2.1523 0
M  V30 14340 C 1364.29 3.048 1.47928 0
M  V30 14341 C 1362.85 3.19138 1.99569 0
M  V30 14342 C 1362 2.64011 0.848149 0
M  V30 14343 H 1364.95 1.58689 0.0187918 0
M  V30 14344 H 1364.97 2.99459 2.34743 0
M  V30 14345 H 1364.48 3.81417 0.717106 0
M  V30 14346 H 1362.58 2.4735 2.78655 0
M  V30 14347 H 1362.69 4.26095 2.19043 0
M  V30 14348 H 1361.06 2.21934 1.2497 0
M  V30 14349 H 1361.84 3.43157 0.0989987 0
M  V30 14350 N 1364.29 -0.50888 1.49158 0
M  V30 14351 C 1365.25 -1.59354 1.64739 0
M  V30 14352 C 1366.25 -1.52175 0.519557 0
M  V30 14353 O 1367.44 -1.55468 0.785838 0
M  V30 14354 C 1364.57 -2.99002 1.63739 0
M  V30 14355 H 1365.76 -1.46871 2.61474 0
M  V30 14356 H 1363.32 -0.732532 1.38071 0
M  V30 14357 H 1364.05 -3.1697 0.685583 0
M  V30 14358 H 1363.84 -3.05622 2.45637 0
M  V30 14359 H 1365.33 -3.77822 1.77877 0
M  V30 14360 N 1365.76 -1.381 -0.759346 0
M  V30 14361 C 1367.01 -1.3419 -1.52055 0
M  V30 14362 C 1367.34 0.0697657 -1.94075 0
M  V30 14363 O 1366.62 1.02975 -1.65004 0
M  V30 14364 C 1366.9 -2.29236 -2.7771 0
M  V30 14365 C 1366.75 -3.79237 -2.41866 0
M  V30 14366 C 1368.07 -2.22511 -3.79706 0
M  V30 14367 H 1365.19 -0.488768 -0.551611 0
M  V30 14368 H 1367.83 -1.68902 -0.870174 0
M  V30 14369 H 1365.98 -1.99764 -3.33206 0
M  V30 14370 H 1367.66 -4.19358 -1.92189 0
M  V30 14371 H 1365.9 -3.97199 -1.74399 0
M  V30 14372 H 1366.57 -4.41193 -3.31742 0
M  V30 14373 H 1369.05 -2.48516 -3.33735 0
M  V30 14374 H 1367.92 -2.91134 -4.6533 0
M  V30 14375 H 1368.18 -1.22206 -4.24874 0
M  V30 14376 N 1367.24 0.986894 -1.22875 0
M  V30 14377 C 1368.52 1.70121 -0.965311 0
M  V30 14378 C 1368.9 2.04648 0.517924 0
M  V30 14379 O 1368.25 1.73453 1.48749 0
M  V30 14380 C 1368.46 2.94738 -1.86897 0
M  V30 14381 C 1369.81 3.6739 -2.12861 0
M  V30 14382 O 1370.83 3.04758 -1.84394 0
M  V30 14383 O 1369.69 4.8009 -2.61106 0
M  V30 14384 H 1366.78 0.742817 -0.363527 0
M  V30 14385 H 1369.33 1.0427 -1.33887 0
M  V30 14386 H 1368.1 2.65771 -2.87196 0
M  V30 14387 H 1367.72 3.68327 -1.49736 0
M  V30 14388 N 1368.72 1.0394 1.18466 0
M  V30 14389 C 1370.13 0.77011 1.70077 0
M  V30 14390 C 1370.48 -0.70916 1.82935 0
M  V30 14391 O 1369.61 -1.55209 1.50795 0
M  V30 14392 C 1370.2 1.39132 3.08914 0
M  V30 14393 C 1368.76 1.17037 3.57742 0
M  V30 14394 C 1367.91 1.48279 2.34326 0
M  V30 14395 H 1370.86 1.20598 1.03159 0
M  V30 14396 H 1370.88 0.793861 3.72126 0
M  V30 14397 H 1370.39 2.46795 2.99523 0
M  V30 14398 H 1368.49 0.112435 3.7243 0
M  V30 14399 H 1368.61 1.8665 4.41247 0
M  V30 14400 H 1366.97 0.902438 2.38177 0
M  V30 14401 H 1367.75 2.57047 2.27556 0
M  V30 14402 N 1370.2 -1.34667 0.818693 0
M  V30 14403 C 1371.15 -2.27031 0.210001 0
M  V30 14404 C 1372.13 -1.48338 -0.623258 0
M  V30 14405 O 1373.32 -1.70409 -0.478531 0
M  V30 14406 C 1370.45 -3.37457 -0.63069 0
M  V30 14407 C 1369.54 -4.23565 0.212964 0
M  V30 14408 N 1369.93 -4.89286 1.28191 0
M  V30 14409 C 1368.23 -4.46 -0.00340477 0
M  V30 14410 C 1368.93 -5.53216 1.79798 0
M  V30 14411 N 1367.91 -5.32302 1.10253 0
M  V30 14412 H 1371.71 -2.75345 1.02773 0
M  V30 14413 H 1369.22 -1.48336 0.661071 0
M  V30 14414 H 1371.22 -4.0259 -1.0829 0
M  V30 14415 H 1369.88 -2.90694 -1.44663 0
M  V30 14416 H 1370.89 -4.90417 1.66467 0
M  V30 14417 H 1367.57 -4.10005 -0.787516 0
M  V30 14418 H 1368.96 -6.15613 2.69203 0
M  V30 14419 N 1371.68 -0.573274 -1.46804 0
M  V30 14420 C 1372.92 -0.0551522 -2.02025 0
M  V30 14421 C 1373.25 1.30577 -1.44826 0
M  V30 14422 O 1372.52 1.85514 -0.629403 0
M  V30 14423 H 1371.1 -0.0173982 -0.746797 0
M  V30 14424 H 1373.76 -0.746919 -1.8002 0
M  V30 14425 H 1372.85 0.0209326 -3.12093 0
M  V30 14426 N 1373.15 1.5451 -0.310553 0
M  V30 14427 C 1374.38 2.05204 0.301013 0
M  V30 14428 C 1374.8 1.1859 1.46007 0
M  V30 14429 O 1374.16 0.192081 1.8028 0
M  V30 14430 C 1374.21 3.53221 0.725767 0
M  V30 14431 O 1373.31 3.69596 1.82955 0
M  V30 14432 H 1372.66 0.661566 0.0568026 0
M  V30 14433 H 1375.19 1.99473 -0.455178 0
M  V30 14434 H 1375.2 3.9525 1.01198 0
M  V30 14435 H 1373.87 4.15721 -0.122046 0
M  V30 14436 H 1372.45 3.39472 1.54315 0
M  V30 14437 N 1374.63 0.0384594 1.57553 0
M  V30 14438 C 1375.86 -0.651613 1.96898 0
M  V30 14439 C 1376.28 -1.64328 0.915308 0
M  V30 14440 O 1375.64 -1.80883 -0.122824 0
M  V30 14441 C 1375.69 -1.32613 3.3533 0
M  V30 14442 O 1374.79 -2.44159 3.32355 0
M  V30 14443 H 1374.13 -0.170441 0.641752 0
M  V30 14444 H 1376.66 0.103086 2.0434 0
M  V30 14445 H 1376.67 -1.68076 3.71772 0
M  V30 14446 H 1375.35 -0.599275 4.1156 0
M  V30 14447 H 1373.93 -2.10738 3.07642 0
M  V30 14448 N 1376.11 -1.55841 -0.234795 0
M  V30 14449 C 1377.52 -1.68555 -0.802886 0
M  V30 14450 C 1377.87 -0.638107 -1.85533 0
M  V30 14451 O 1377 0.21333 -2.15346 0
M  V30 14452 C 1377.59 -3.0558 -1.46309 0
M  V30 14453 C 1376.15 -3.20192 -1.97874 0
M  V30 14454 C 1375.3 -2.64457 -0.834136 0
M  V30 14455 H 1378.25 -1.58697 -0.0103759 0
M  V30 14456 H 1378.27 -3.007 -2.33152 0
M  V30 14457 H 1377.78 -3.81792 -0.696868 0
M  V30 14458 H 1375.88 -2.48825 -2.77339 0
M  V30 14459 H 1376 -4.27251 -2.1678 0
M  V30 14460 H 1374.36 -2.22593 -1.23791 0
M  V30 14461 H 1375.14 -3.43205 -0.0807988 0
M  V30 14462 N 1377.59 0.500963 -1.49426 0
M  V30 14463 C 1378.52 1.61114 -1.69011 0
M  V30 14464 C 1379.5 1.61341 -0.538813 0
M  V30 14465 O 1380.69 1.78081 -0.77466 0
M  V30 14466 C 1377.82 2.99598 -1.75666 0
M  V30 14467 C 1376.77 3.14236 -2.90585 0
M  V30 14468 C 1376.1 4.54071 -2.82354 0
M  V30 14469 C 1377.4 2.94258 -4.3152 0
M  V30 14470 H 1379.09 1.44978 -2.61957 0
M  V30 14471 H 1376.64 0.69603 -1.26061 0
M  V30 14472 H 1378.59 3.77163 -1.87953 0
M  V30 14473 H 1377.31 3.16822 -0.793186 0
M  V30 14474 H 1375.97 2.39096 -2.779 0
M  V30 14475 H 1375.62 4.68172 -1.83914 0
M  V30 14476 H 1375.32 4.64806 -3.59485 0
M  V30 14477 H 1376.84 5.33696 -2.96649 0
M  V30 14478 H 1378.26 3.61592 -4.44886 0
M  V30 14479 H 1376.65 3.16464 -5.09873 0
M  V30 14480 H 1377.72 1.90383 -4.45962 0
M  V30 14481 N 1379.07 1.38501 0.752011 0
M  V30 14482 C 1380.03 1.35655 1.84744 0
M  V30 14483 C 1381.03 0.256772 1.58737 0
M  V30 14484 O 1382.22 0.513749 1.66452 0
M  V30 14485 C 1379.35 1.11231 3.22243 0
M  V30 14486 H 1380.55 2.33114 1.88674 0
M  V30 14487 H 1378.1 1.23818 0.953882 0
M  V30 14488 H 1378.83 0.143848 3.23981 0
M  V30 14489 H 1378.62 1.90857 3.42515 0
M  V30 14490 H 1380.11 1.11939 4.02318 0
M  V30 14491 N 1380.55 -0.980364 1.23396 0
M  V30 14492 C 1381.77 -1.76223 1.09363 0
M  V30 14493 C 1382.2 -1.84801 -0.350759 0
M  V30 14494 O 1381.55 -1.30966 -1.2537 0
M  V30 14495 C 1381.6 -3.16728 1.72383 0
M  V30 14496 O 1380.71 -4.00439 0.986002 0
M  V30 14497 H 1380.05 -0.542174 0.383332 0
M  V30 14498 H 1382.58 -1.23066 1.6345 0
M  V30 14499 H 1382.59 -3.67307 1.77623 0
M  V30 14500 H 1381.26 -3.098 2.77483 0
M  V30 14501 H 1379.84 -3.58946 1.01054 0
M  V30 14502 N 1382.02 -1.04567 -1.17913 0
M  V30 14503 C 1383.43 -0.779118 -1.69666 0
M  V30 14504 C 1383.79 0.699448 -1.83309 0
M  V30 14505 O 1382.91 1.54407 -1.51616 0
M  V30 14506 C 1383.51 -1.40769 -3.08171 0
M  V30 14507 C 1382.06 -1.18933 -3.57116 0
M  V30 14508 C 1381.21 -1.49519 -2.33536 0
M  V30 14509 H 1384.16 -1.21144 -1.02518 0
M  V30 14510 H 1384.18 -0.813584 -3.717 0
M  V30 14511 H 1383.7 -2.4838 -2.9821 0
M  V30 14512 H 1381.8 -0.132184 -3.72365 0
M  V30 14513 H 1381.91 -1.88987 -4.40251 0
M  V30 14514 H 1380.27 -0.915056 -2.37695 0
M  V30 14515 H 1381.06 -2.5825 -2.26189 0
M  V30 14516 N 1383.5 1.34231 -0.825823 0
M  V30 14517 C 1384.43 2.27366 -0.194964 0
M  V30 14518 C 1385.41 1.49029 0.650315 0
M  V30 14519 O 1386.6 1.7824 0.613424 0
M  V30 14520 C 1383.72 3.30796 0.727439 0
M  V30 14521 C 1382.77 4.26481 -0.0406869 0
M  V30 14522 S 1383.6 5.17151 -1.38981 0
M  V30 14523 C 1384.76 6.24115 -0.472354 0
M  V30 14524 H 1384.99 2.80524 -0.984559 0
M  V30 14525 H 1382.52 1.41323 -0.621875 0
M  V30 14526 H 1384.48 3.90875 1.25406 0
M  V30 14527 H 1383.14 2.76479 1.49058 0
M  V30 14528 H 1382.34 4.99651 0.660652 0
M  V30 14529 H 1381.94 3.7067 -0.497956 0
M  V30 14530 H 1384.23 6.76671 0.334956 0
M  V30 14531 H 1385.17 6.98303 -1.17383 0
M  V30 14532 H 1385.58 5.64469 -0.0594964 0
M  V30 14533 N 1384.98 0.581051 1.46498 0
M  V30 14534 C 1386.2 0.0696654 2.07283 0
M  V30 14535 C 1386.63 -1.22525 1.42721 0
M  V30 14536 O 1385.99 -1.73967 0.510421 0
M  V30 14537 C 1386.04 -0.0843864 3.60501 0
M  V30 14538 O 1385.14 -1.14129 3.96293 0
M  V30 14539 H 1384.48 0.0620572 0.661094 0
M  V30 14540 H 1387.01 0.803522 1.88161 0
M  V30 14541 H 1387.02 -0.29108 4.0696 0
M  V30 14542 H 1385.7 0.861274 4.06884 0
M  V30 14543 H 1384.27 -0.913186 3.61546 0
M  V30 14544 N 1386.46 -1.54343 0.318742 0
M  V30 14545 C 1387.87 -1.85922 -0.170309 0
M  V30 14546 C 1388.22 -1.24047 -1.52009 0
M  V30 14547 O 1387.34 -0.544705 -2.09432 0
M  V30 14548 C 1387.94 -3.37325 -0.315802 0
M  V30 14549 C 1386.5 -3.68871 -0.749073 0
M  V30 14550 C 1385.65 -2.76985 0.13209 0
M  V30 14551 H 1388.6 -1.4926 0.539185 0
M  V30 14552 H 1388.62 -3.62784 -1.14751 0
M  V30 14553 H 1388.13 -3.8233 0.66674 0
M  V30 14554 H 1386.23 -3.29396 -1.74153 0
M  V30 14555 H 1386.34 -4.75861 -0.556164 0
M  V30 14556 H 1384.71 -2.51672 -0.391564 0
M  V30 14557 H 1385.49 -3.24815 1.11131 0
M  V30 14558 N 1387.94 -0.0468143 -1.5753 0
M  V30 14559 C 1389.35 0.309707 -1.56566 0
M  V30 14560 C 1389.55 1.7173 -1.05408 0
M  V30 14561 O 1388.61 2.4235 -0.708723 0
M  V30 14562 C 1389.92 0.142151 -3.00364 0
M  V30 14563 C 1391.47 0.213585 -3.1227 0
M  V30 14564 C 1391.94 0.0746102 -4.57939 0
M  V30 14565 N 1393.43 0.131027 -4.63015 0
M  V30 14566 C 1394.17 0.0475409 -5.7338 0
M  V30 14567 N 1393.67 -0.0880445 -6.92744 0
M  V30 14568 N 1395.46 0.102809 -5.62006 0
M  V30 14569 H 1387.61 -0.967057 -1.89108 0
M  V30 14570 H 1389.87 -0.375018 -0.870669 0
M  V30 14571 H 1389.58 -0.828171 -3.4181 0
M  V30 14572 H 1389.45 0.905006 -3.66182 0
M  V30 14573 H 1391.84 1.17438 -2.70726 0
M  V30 14574 H 1391.92 -0.57995 -2.49139 0
M  V30 14575 H 1391.56 -0.882839 -5.00168 0
M  V30 14576 H 1391.49 0.887235 -5.19072 0
M  V30 14577 H 1393.99 0.235246 -3.77167 0
M  V30 14578 H 1394.3 -0.144574 -7.72665 0
M  V30 14579 H 1392.64 -0.12307 -6.94891 0
M  V30 14580 H 1395.83 0.207259 -4.67641 0
M  V30 14581 H 1396.01 0.0342865 -6.47991 0
M  V30 14582 N 1389.41 1.55964 0.226527 0
M  V30 14583 C 1390.64 1.83168 0.972846 0
M  V30 14584 C 1391.06 0.626512 1.7736 0
M  V30 14585 O 1390.42 -0.42468 1.76256 0
M  V30 14586 C 1390.47 3.08315 1.87014 0
M  V30 14587 O 1389.57 2.8666 2.96479 0
M  V30 14588 H 1388.92 0.604041 0.275736 0
M  V30 14589 H 1391.45 2.03172 0.241345 0
M  V30 14590 H 1391.46 3.38288 2.28091 0
M  V30 14591 H 1390.13 3.95663 1.28154 0
M  V30 14592 H 1388.71 2.67907 2.59384 0
M  V30 14593 N 1390.89 -0.493031 1.4969 0
M  V30 14594 C 1391.82 -1.60215 1.69863 0
M  V30 14595 C 1392.8 -1.61053 0.547362 0
M  V30 14596 O 1393.99 -1.77667 0.784093 0
M  V30 14597 C 1391.12 -2.98662 1.77252 0
M  V30 14598 C 1390.07 -3.1269 2.92248 0
M  V30 14599 C 1389.4 -4.52567 2.84758 0
M  V30 14600 C 1390.7 -2.91965 4.33074 0
M  V30 14601 H 1392.39 -1.43587 2.62723 0
M  V30 14602 H 1389.94 -0.689334 1.26429 0
M  V30 14603 H 1391.89 -3.7616 1.89951 0
M  V30 14604 H 1390.62 -3.16397 0.809976 0
M  V30 14605 H 1389.27 -2.37619 2.79164 0
M  V30 14606 H 1388.92 -4.6719 1.86394 0
M  V30 14607 H 1388.62 -4.62893 3.61944 0
M  V30 14608 H 1390.15 -5.32116 2.99475 0
M  V30 14609 H 1391.56 -3.59228 4.46798 0
M  V30 14610 H 1389.96 -3.13756 5.11544 0
M  V30 14611 H 1391.03 -1.88015 4.46966 0
M  V30 14612 N 1392.37 -1.38898 -0.744656 0
M  V30 14613 C 1393.6 -1.3903 -1.53901 0
M  V30 14614 C 1394.02 0.0156607 -1.88093 0
M  V30 14615 O 1393.38 1.00012 -1.51219 0
M  V30 14616 C 1393.43 -2.2609 -2.80919 0
M  V30 14617 O 1392.53 -1.68414 -3.76444 0
M  V30 14618 H 1391.87 -0.473854 -0.465144 0
M  V30 14619 H 1394.4 -1.82773 -0.919525 0
M  V30 14620 H 1394.41 -2.40264 -3.29754 0
M  V30 14621 H 1393.09 -3.28271 -2.55364 0
M  V30 14622 H 1391.66 -1.63431 -3.35179 0
M  V30 14623 N 1393.85 0.973806 -1.23914 0
M  V30 14624 C 1395.07 1.7564 -1.10296 0
M  V30 14625 C 1395.5 1.84984 0.340954 0
M  V30 14626 O 1394.86 1.31629 1.24674 0
M  V30 14627 C 1394.9 3.15809 -1.7406 0
M  V30 14628 O 1394.01 3.99911 -1.00722 0
M  V30 14629 H 1393.35 0.540133 -0.386202 0
M  V30 14630 H 1395.88 1.22197 -1.64101 0
M  V30 14631 H 1395.89 3.66359 -1.79568 0
M  V30 14632 H 1394.56 3.08324 -2.79122 0
M  V30 14633 H 1393.14 3.58405 -1.02956 0
M  V30 14634 N 1395.33 1.05191 1.17357 0
M  V30 14635 C 1396.27 0.646796 2.23426 0
M  V30 14636 C 1397.27 -0.331918 1.66116 0
M  V30 14637 O 1398.47 -0.197982 1.78908 0
M  V30 14638 H 1394.85 0.190988 0.727343 0
M  V30 14639 H 1396.82 1.55152 2.54893 0
M  V30 14640 C 1395.57 0.037505 3.4768 0
M  V30 14641 H 1394.89 0.781686 3.92084 0
M  V30 14642 H 1396.33 -0.20858 4.23487 0
M  V30 14643 C 1394.79 -1.21581 3.14197 0
M  V30 14644 O 1395.32 -2.3052 3.28973 0
M  V30 14645 N 1393.53 -1.11346 2.68422 0
M  V30 14646 H 1393.07 -0.226943 2.56598 0
M  V30 14647 H 1393.03 -1.95291 2.46392 0
M  V30 14648 N 1396.8 -1.33791 0.83293 0
M  V30 14649 C 1398.22 -1.80336 0.483294 0
M  V30 14650 C 1398.57 -1.68969 -0.997195 0
M  V30 14651 O 1397.69 -1.23549 -1.77664 0
M  V30 14652 C 1398.29 -3.27427 0.870475 0
M  V30 14653 C 1396.85 -3.72012 0.573064 0
M  V30 14654 C 1395.99 -2.55319 1.08201 0
M  V30 14655 H 1398.94 -1.21396 1.02218 0
M  V30 14656 H 1398.96 -3.80083 0.178173 0
M  V30 14657 H 1398.48 -3.35668 1.94804 0
M  V30 14658 H 1396.58 -3.69302 -0.494678 0
M  V30 14659 H 1396.69 -4.65725 1.12414 0
M  V30 14660 H 1395.05 -2.49681 0.503123 0
M  V30 14661 H 1395.84 -2.66326 2.16623 0
M  V30 14662 N 1398.28 -0.588812 -1.46187 0
M  V30 14663 C 1399.51 -0.0806571 -2.07243 0
M  V30 14664 C 1399.93 1.21766 -1.43369 0
M  V30 14665 O 1399.29 1.73694 -0.51964 0
M  V30 14666 C 1399.34 0.065267 -3.60541 0
M  V30 14667 O 1398.44 1.12026 -3.96893 0
M  V30 14668 H 1397.78 -0.0655622 -0.660755 0
M  V30 14669 H 1400.31 -0.813489 -1.87733 0
M  V30 14670 H 1400.32 0.269494 -4.07109 0
M  V30 14671 H 1399 -0.88284 -4.06422 0
M  V30 14672 H 1397.58 0.894 -3.62025 0
M  V30 14673 N 1399.76 1.54172 -0.326923 0
M  V30 14674 C 1400.99 2.05512 0.279231 0
M  V30 14675 C 1401.41 1.20131 1.44741 0
M  V30 14676 O 1400.77 0.211191 1.80066 0
M  V30 14677 C 1400.82 3.53971 0.688263 0
M  V30 14678 O 1399.92 3.71516 1.79025 0
M  V30 14679 H 1399.26 0.662131 0.0497826 0
M  V30 14680 H 1401.79 1.98979 -0.476309 0
M  V30 14681 H 1401.8 3.96302 0.970002 0
M  V30 14682 H 1400.48 4.15568 -0.166132 0
M  V30 14683 H 1399.05 3.4109 1.50706 0
M  V30 14684 N 1401.24 0.0551678 1.57503 0
M  V30 14685 C 1402.65 -0.3014 1.56728 0
M  V30 14686 C 1402.85 -1.71169 1.06317 0
M  V30 14687 O 1401.91 -2.4197 0.721566 0
M  V30 14688 C 1403.22 -0.12622 3.00435 0
M  V30 14689 C 1404.77 -0.197022 3.12379 0
M  V30 14690 C 1405.25 -0.0503235 4.57972 0
M  V30 14691 N 1406.74 -0.106471 4.63078 0
M  V30 14692 C 1407.47 -0.0171325 5.73397 0
M  V30 14693 N 1406.97 0.124781 6.92688 0
M  V30 14694 N 1408.76 -0.0730028 5.62053 0
M  V30 14695 H 1400.91 0.977072 1.88592 0
M  V30 14696 H 1403.18 0.37963 0.868668 0
M  V30 14697 H 1402.88 0.846286 3.41366 0
M  V30 14698 H 1402.76 -0.885574 3.66657 0
M  V30 14699 H 1405.14 -1.16 2.71345 0
M  V30 14700 H 1405.22 0.593155 2.48828 0
M  V30 14701 H 1404.87 0.909352 4.99693 0
M  V30 14702 H 1404.8 -0.859695 5.19535 0
M  V30 14703 H 1407.29 -0.215241 3.77287 0
M  V30 14704 H 1407.6 0.185548 7.72577 0
M  V30 14705 H 1405.95 0.15992 6.94816 0
M  V30 14706 H 1409.14 -0.182456 4.67744 0
M  V30 14707 H 1409.31 7.85052e-05 6.48 0
M  V30 14708 N 1402.72 -1.56081 -0.218252 0
M  V30 14709 C 1403.99 -1.70043 -0.966684 0
M  V30 14710 C 1404.37 -0.603372 -2.02293 0
M  V30 14711 O 1403.72 0.389138 -2.25162 0
M  V30 14712 C 1403.93 -3.11484 -1.57413 0
M  V30 14713 C 1405.28 -3.70995 -2.06513 0
M  V30 14714 O 1406.3 -3.14466 -1.67301 0
M  V30 14715 O 1405.16 -4.70156 -2.78596 0
M  V30 14716 H 1402.26 -0.692691 -0.451784 0
M  V30 14717 H 1404.8 -1.68398 -0.209774 0
M  V30 14718 H 1403.57 -3.8279 -0.811614 0
M  V30 14719 H 1403.2 -3.1726 -2.3965 0
M  V30 14720 N 1404.2 0.485086 -1.49949 0
M  V30 14721 C 1405.42 1.26648 -1.64241 0
M  V30 14722 C 1405.85 1.85359 -0.319939 0
M  V30 14723 O 1405.2 1.66628 0.714487 0
M  V30 14724 C 1405.25 2.36109 -2.72552 0
M  V30 14725 O 1404.36 3.40387 -2.32832 0
M  V30 14726 H 1403.7 0.373208 -0.549192 0
M  V30 14727 H 1406.23 0.578929 -1.96239 0
M  V30 14728 H 1406.24 2.81634 -2.95205 0
M  V30 14729 H 1404.91 1.92745 -3.6854 0
M  V30 14730 H 1403.49 3.0067 -2.20571 0
M  V30 14731 N 1405.67 1.39291 0.737279 0
M  V30 14732 C 1406.9 1.39844 1.53162 0
M  V30 14733 C 1407.32 -0.00568546 1.88099 0
M  V30 14734 O 1406.68 -0.992085 1.51748 0
M  V30 14735 C 1406.73 2.27577 2.79716 0
M  V30 14736 O 1405.83 1.70408 3.75546 0
M  V30 14737 H 1405.17 0.476314 0.462624 0
M  V30 14738 H 1407.7 1.83258 0.909819 0
M  V30 14739 H 1407.71 2.42009 3.28475 0
M  V30 14740 H 1406.39 3.29621 2.53619 0
M  V30 14741 H 1404.97 1.65206 3.34307 0
M  V30 14742 N 1407.15 -0.967221 1.24429 0
M  V30 14743 C 1408.56 -1.52488 1.07723 0
M  V30 14744 C 1408.91 -1.93031 -0.351191 0
M  V30 14745 O 1408.04 -1.77376 -1.23963 0
M  V30 14746 C 1408.63 -2.77107 1.94929 0
M  V30 14747 C 1407.19 -3.29227 1.82446 0
M  V30 14748 C 1406.34 -2.02133 1.89835 0
M  V30 14749 H 1409.29 -0.785465 1.37899 0
M  V30 14750 H 1409.31 -3.50459 1.48186 0
M  V30 14751 H 1408.82 -2.47567 2.98885 0
M  V30 14752 H 1406.92 -3.63617 0.813246 0
M  V30 14753 H 1407.04 -3.98095 2.66566 0
M  V30 14754 H 1405.4 -2.16867 1.3357 0
M  V30 14755 H 1406.18 -1.74958 2.95372 0
M  V30 14756 N 1408.63 -1.05812 -1.16797 0
M  V30 14757 C 1409.85 -0.792518 -1.91661 0
M  V30 14758 C 1410.28 0.646598 -1.76637 0
M  V30 14759 O 1409.64 1.44998 -1.08836 0
M  V30 14760 C 1409.69 -1.18585 -3.40544 0
M  V30 14761 O 1408.79 -0.321716 -4.11143 0
M  V30 14762 H 1408.13 -0.290066 -0.597292 0
M  V30 14763 H 1410.66 -1.41263 -1.48007 0
M  V30 14764 H 1410.67 -1.1553 -3.91301 0
M  V30 14765 H 1409.35 -2.23413 -3.50798 0
M  V30 14766 H 1407.92 -0.413403 -3.70601 0
M  V30 14767 N 1410.11 1.33347 -0.840014 0
M  V30 14768 C 1411.52 1.50615 -0.52795 0
M  V30 14769 C 1411.72 1.77993 0.944493 0
M  V30 14770 O 1410.78 1.84087 1.72824 0
M  V30 14771 C 1412.09 2.66001 -1.40228 0
M  V30 14772 C 1413.64 2.79886 -1.40117 0
M  V30 14773 C 1414.12 3.98335 -2.26038 0
M  V30 14774 N 1415.61 4.05572 -2.23753 0
M  V30 14775 C 1416.34 4.96422 -2.86972 0
M  V30 14776 N 1415.84 5.9238 -3.59247 0
M  V30 14777 N 1417.63 4.89428 -2.76436 0
M  V30 14778 H 1409.78 1.13839 -1.79317 0
M  V30 14779 H 1412.04 0.559772 -0.765088 0
M  V30 14780 H 1411.75 2.52453 -2.44868 0
M  V30 14781 H 1411.62 3.61434 -1.07914 0
M  V30 14782 H 1414.01 2.92865 -0.362487 0
M  V30 14783 H 1414.09 1.85211 -1.76439 0
M  V30 14784 H 1413.74 3.86115 -3.29966 0
M  V30 14785 H 1413.67 4.92257 -1.87057 0
M  V30 14786 H 1416.16 3.36899 -1.71195 0
M  V30 14787 H 1416.47 6.58367 -4.04688 0
M  V30 14788 H 1414.82 5.92451 -3.63354 0
M  V30 14789 H 1418.01 4.13428 -2.19534 0
M  V30 14790 H 1418.18 5.60032 -3.25989 0
M  V30 14791 N 1411.59 0.596556 1.45873 0
M  V30 14792 C 1412.86 0.0199562 1.9559 0
M  V30 14793 C 1413.24 -1.44479 1.53912 0
M  V30 14794 O 1412.59 -2.14173 0.796384 0
M  V30 14795 C 1412.8 0.206497 3.48389 0
M  V30 14796 C 1414.15 0.0815298 4.24522 0
M  V30 14797 O 1415.17 0.136045 3.5594 0
M  V30 14798 O 1414.03 -0.0426117 5.46483 0
M  V30 14799 H 1411.13 -0.0419913 0.825933 0
M  V30 14800 H 1413.67 0.665846 1.56092 0
M  V30 14801 H 1412.44 1.22422 3.71656 0
M  V30 14802 H 1412.07 -0.475175 3.9475 0
M  V30 14803 N 1413.06 -1.53996 0.335095 0
M  V30 14804 C 1414.29 -2.0489 -0.265245 0
M  V30 14805 C 1414.7 -1.21024 -1.4543 0
M  V30 14806 O 1414.04 -0.236417 -1.82172 0
M  V30 14807 C 1414.11 -3.51546 -0.752018 0
M  V30 14808 C 1413.77 -4.55904 0.316261 0
M  V30 14809 C 1414.77 -5.06881 1.15617 0
M  V30 14810 C 1412.45 -5.00117 0.467762 0
M  V30 14811 C 1414.45 -6.00644 2.13321 0
M  V30 14812 C 1412.13 -5.93692 1.4482 0
M  V30 14813 C 1413.13 -6.43842 2.27938 0
M  V30 14814 O 1412.82 -7.35578 3.24315 0
M  V30 14815 H 1412.55 -0.673631 -0.0565427 0
M  V30 14816 H 1415.11 -1.99646 0.482771 0
M  V30 14817 H 1413.34 -3.54227 -1.55114 0
M  V30 14818 H 1415.02 -3.85455 -1.27197 0
M  V30 14819 H 1415.79 -4.73494 1.05017 0
M  V30 14820 H 1411.67 -4.60689 -0.169338 0
M  V30 14821 H 1415.21 -6.39711 2.78236 0
M  V30 14822 H 1411.11 -6.26495 1.5548 0
M  V30 14823 H 1411.88 -7.53487 3.19688 0
M  V30 14824 N 1414.54 -0.0635198 -1.57472 0
M  V30 14825 C 1415.77 0.620205 -1.9791 0
M  V30 14826 C 1416.19 1.62851 -0.941335 0
M  V30 14827 O 1415.55 1.81056 0.0940313 0
M  V30 14828 C 1415.6 1.27261 -3.37397 0
M  V30 14829 O 1414.7 2.38841 -3.36197 0
M  V30 14830 H 1414.04 0.16021 -0.644382 0
M  V30 14831 H 1416.57 -0.135582 -2.0415 0
M  V30 14832 H 1416.58 1.6214 -3.74399 0
M  V30 14833 H 1415.26 0.533723 -4.12461 0
M  V30 14834 H 1413.83 2.05817 -3.10956 0
M  V30 14835 N 1416.02 1.56195 0.209972 0
M  V30 14836 C 1417.43 1.69811 0.775969 0
M  V30 14837 C 1417.78 0.667543 1.84495 0
M  V30 14838 O 1416.91 -0.179043 2.15658 0
M  V30 14839 C 1417.5 3.07869 1.41429 0
M  V30 14840 C 1416.06 3.233 1.92755 0
M  V30 14841 C 1415.21 2.6575 0.791958 0
M  V30 14842 H 1418.16 1.58693 -0.0148727 0
M  V30 14843 H 1418.18 3.04371 2.28339 0
M  V30 14844 H 1417.69 3.82853 0.63604 0
M  V30 14845 H 1415.79 2.53206 2.73345 0
M  V30 14846 H 1415.91 4.30645 2.09956 0
M  V30 14847 H 1414.27 2.24535 1.20234 0
M  V30 14848 H 1415.05 3.4329 0.0261877 0
M  V30 14849 N 1417.5 -0.477127 1.50204 0
M  V30 14850 C 1418.46 -1.55824 1.68082 0
M  V30 14851 C 1419.46 -1.51039 0.551719 0
M  V30 14852 O 1420.65 -1.53766 0.818638 0
M  V30 14853 C 1417.78 -2.95462 1.70044 0
M  V30 14854 H 1418.98 -1.41292 2.64531 0
M  V30 14855 H 1416.53 -0.70308 1.39594 0
M  V30 14856 H 1417.26 -3.15445 0.752663 0
M  V30 14857 H 1417.05 -3.00343 2.52065 0
M  V30 14858 H 1418.54 -3.73964 1.85851 0
M  V30 14859 N 1418.98 -1.3968 -0.729882 0
M  V30 14860 C 1420.22 -1.37385 -1.49175 0
M  V30 14861 C 1420.56 0.0285839 -1.94179 0
M  V30 14862 O 1419.83 0.994516 -1.67152 0
M  V30 14863 C 1420.11 -2.35075 -2.72785 0
M  V30 14864 C 1419.97 -3.84282 -2.33767 0
M  V30 14865 C 1421.29 -2.30515 -3.74901 0
M  V30 14866 H 1418.4 -0.500359 -0.541119 0
M  V30 14867 H 1421.05 -1.7071 -0.834152 0
M  V30 14868 H 1419.2 -2.06787 -3.28894 0
M  V30 14869 H 1420.87 -4.2334 -1.8325 0
M  V30 14870 H 1419.11 -4.00809 -1.65935 0
M  V30 14871 H 1419.78 -4.48131 -3.22309 0
M  V30 14872 H 1422.26 -2.55539 -3.28389 0
M  V30 14873 H 1421.13 -3.00939 -4.5905 0
M  V30 14874 H 1421.4 -1.3119 -4.22187 0
M  V30 14875 N 1420.45 0.960609 -1.2494 0
M  V30 14876 C 1421.68 1.7446 -1.12153 0
M  V30 14877 C 1422.1 1.85335 0.321315 0
M  V30 14878 O 1421.46 1.32944 1.23271 0
M  V30 14879 C 1421.51 3.13945 -1.774 0
M  V30 14880 O 1420.61 3.9882 -1.04958 0
M  V30 14881 H 1419.96 0.536007 -0.391909 0
M  V30 14882 H 1422.49 1.2045 -1.65388 0
M  V30 14883 H 1422.5 3.64434 -1.83444 0
M  V30 14884 H 1421.17 3.05346 -2.82377 0
M  V30 14885 H 1419.75 3.57293 -1.06752 0
M  V30 14886 N 1421.93 1.0643 1.16234 0
M  V30 14887 C 1423.18 0.780296 1.86429 0
M  V30 14888 C 1423.5 -0.695335 1.82181 0
M  V30 14889 O 1422.77 -1.50312 1.2563 0
M  V30 14890 H 1421.35 0.285654 0.690225 0
M  V30 14891 H 1424.01 1.34609 1.40949 0
M  V30 14892 H 1423.11 1.10644 2.91829 0
M  V30 14893 N 1423.41 -1.329 0.847073 0
M  V30 14894 C 1424.34 -2.31546 0.301422 0
M  V30 14895 C 1425.32 -1.59342 -0.595317 0
M  V30 14896 O 1426.51 -1.87188 -0.517151 0
M  V30 14897 C 1423.64 -3.43423 -0.517454 0
M  V30 14898 C 1422.59 -4.27055 0.284195 0
M  V30 14899 C 1421.92 -5.30624 -0.658944 0
M  V30 14900 C 1423.22 -5.00123 1.50578 0
M  V30 14901 H 1424.91 -2.77433 1.12567 0
M  V30 14902 H 1422.46 -1.3338 0.542739 0
M  V30 14903 H 1424.41 -4.11467 -0.909543 0
M  V30 14904 H 1423.13 -2.96246 -1.37499 0
M  V30 14905 H 1421.79 -3.60648 0.657944 0
M  V30 14906 H 1421.44 -4.79702 -1.51311 0
M  V30 14907 H 1421.14 -5.87464 -0.12662 0
M  V30 14908 H 1422.66 -6.01533 -1.04837 0
M  V30 14909 H 1424.08 -5.6089 1.18641 0
M  V30 14910 H 1422.48 -5.66652 1.97549 0
M  V30 14911 H 1423.55 -4.28424 2.27115 0
M  V30 14912 N 1424.89 -0.604284 -1.45555 0
M  V30 14913 C 1426.3 -0.267665 -1.57339 0
M  V30 14914 C 1426.5 1.22984 -1.59616 0
M  V30 14915 O 1425.56 2.0127 -1.52468 0
M  V30 14916 C 1426.87 -0.935923 -2.85764 0
M  V30 14917 C 1428.42 -0.911531 -2.99433 0
M  V30 14918 C 1428.9 -1.55974 -4.30623 0
M  V30 14919 N 1430.39 -1.52507 -4.37374 0
M  V30 14920 C 1431.12 -1.9958 -5.37546 0
M  V30 14921 N 1430.62 -2.54724 -6.44273 0
M  V30 14922 N 1432.41 -1.90368 -5.28882 0
M  V30 14923 H 1424.56 -1.57666 -1.42321 0
M  V30 14924 H 1426.83 -0.66028 -0.680245 0
M  V30 14925 H 1426.53 -1.99022 -2.89971 0
M  V30 14926 H 1426.41 -0.457194 -3.74419 0
M  V30 14927 H 1428.79 0.134206 -2.94795 0
M  V30 14928 H 1428.87 -1.42849 -2.12197 0
M  V30 14929 H 1428.52 -2.60479 -4.3602 0
M  V30 14930 H 1428.45 -1.01782 -5.1667 0
M  V30 14931 H 1430.94 -1.12221 -3.60853 0
M  V30 14932 H 1431.25 -2.88445 -7.16951 0
M  V30 14933 H 1429.6 -2.58761 -6.45033 0
M  V30 14934 H 1432.79 -1.47029 -4.4441 0
M  V30 14935 H 1432.96 -2.27367 -6.06802 0
M  V30 14936 N 1426.37 1.53816 -0.343257 0
M  V30 14937 C 1427.59 2.05796 0.257418 0
M  V30 14938 C 1428.02 1.2166 1.43459 0
M  V30 14939 O 1427.37 0.230278 1.79832 0
M  V30 14940 C 1427.42 3.54681 0.65068 0
M  V30 14941 O 1426.53 3.73394 1.75074 0
M  V30 14942 H 1425.87 0.662622 0.042757 0
M  V30 14943 H 1428.4 1.98462 -0.497386 0
M  V30 14944 H 1428.41 3.97308 0.927914 0
M  V30 14945 H 1427.08 4.15368 -0.210199 0
M  V30 14946 H 1425.66 3.42669 1.4708 0
M  V30 14947 N 1427.84 0.0718701 1.57436 0
M  V30 14948 C 1429.26 -0.460784 1.80924 0
M  V30 14949 C 1429.61 -1.69637 0.985781 0
M  V30 14950 O 1428.73 -2.15395 0.208319 0
M  V30 14951 C 1429.33 -0.842738 3.28151 0
M  V30 14952 C 1427.89 -1.32026 3.52486 0
M  V30 14953 C 1427.03 -0.305466 2.75612 0
M  V30 14954 H 1429.98 0.297566 1.55885 0
M  V30 14955 H 1430 -1.70414 3.40205 0
M  V30 14956 H 1429.52 0.056733 3.88059 0
M  V30 14957 H 1427.62 -2.23822 2.97883 0
M  V30 14958 H 1427.73 -1.29813 4.61178 0
M  V30 14959 H 1426.09 -0.782758 2.42374 0
M  V30 14960 H 1426.88 0.586279 3.38257 0
M  V30 14961 N 1429.32 -1.56304 -0.201686 0
M  V30 14962 C 1430.57 -1.79433 -0.921241 0
M  V30 14963 C 1430.88 -0.643943 -1.84696 0
M  V30 14964 O 1432.09 -0.759359 -2.60665 0
M  V30 14965 C 1430.55 -3.17835 -1.68846 0
M  V30 14966 C 1430.15 -4.40655 -0.807892 0
M  V30 14967 C 1431.9 -3.50277 -2.39805 0
M  V30 14968 C 1429.81 -5.7008 -1.5736 0
M  V30 14969 H 1428.74 -0.669029 -0.34773 0
M  V30 14970 H 1431.39 -1.82667 -0.174657 0
M  V30 14971 H 1429.77 -3.08832 -2.47869 0
M  V30 14972 H 1430.94 -4.60765 -0.0567923 0
M  V30 14973 H 1429.26 -4.15873 -0.209465 0
M  V30 14974 H 1431.85 -4.44207 -2.97631 0
M  V30 14975 H 1432.2 -2.7371 -3.1367 0
M  V30 14976 H 1432.73 -3.60698 -1.67754 0
M  V30 14977 H 1429.47 -6.49595 -0.877855 0
M  V30 14978 H 1428.99 -5.53999 -2.2988 0
M  V30 14979 H 1430.67 -6.10964 -2.12912 0
M  V30 14980 N 1430.8 0.469154 -1.50455 0
M  V30 14981 C 1432.03 1.24432 -1.653 0
M  V30 14982 C 1432.44 1.85766 -0.33713 0
M  V30 14983 O 1431.8 1.69313 0.681118 0
M  V30 14984 C 1431.85 2.35163 -2.74555 0
M  V30 14985 O 1431.57 1.76344 -4.01042 0
M  V30 14986 C 1433.07 3.26006 -3.00391 0
M  V30 14987 H 1430.29 0.376251 -0.555587 0
M  V30 14988 H 1432.84 0.559777 -1.96689 0
M  V30 14989 H 1430.99 2.99389 -2.45855 0
M  V30 14990 H 1431.41 2.49278 -4.61477 0
M  V30 14991 H 1432.88 3.99909 -3.80496 0
M  V30 14992 H 1433.36 3.84901 -2.11537 0
M  V30 14993 H 1433.96 2.67515 -3.3063 0
M  V30 14994 N 1432.28 1.40065 0.722464 0
M  V30 14995 C 1433.53 1.37277 1.47776 0
M  V30 14996 C 1433.84 -0.0242852 1.95585 0
M  V30 14997 O 1435.05 -0.174769 2.70937 0
M  V30 14998 C 1433.5 2.41233 2.67085 0
M  V30 14999 C 1433.11 3.86716 2.26174 0
M  V30 15000 C 1434.85 2.47541 3.44853 0
M  V30 15001 C 1432.76 4.82284 3.42281 0
M  V30 15002 H 1431.69 0.510405 0.55498 0
M  V30 15003 H 1434.34 1.6577 0.786928 0
M  V30 15004 H 1432.72 2.0583 3.38305 0
M  V30 15005 H 1433.9 4.31227 1.6242 0
M  V30 15006 H 1432.21 3.83819 1.61468 0
M  V30 15007 H 1434.81 3.16131 4.31237 0
M  V30 15008 H 1435.15 1.50379 3.8819 0
M  V30 15009 H 1435.69 2.81901 2.80672 0
M  V30 15010 H 1432.43 5.80754 3.03982 0
M  V30 15011 H 1431.95 4.42443 4.04975 0
M  V30 15012 H 1433.62 5.0178 4.08443 0
M  V30 15013 N 1433.76 -0.95397 1.25448 0
M  V30 15014 C 1434.69 -2.05412 1.01679 0
M  V30 15015 C 1435.7 -1.62789 -0.0184932 0
M  V30 15016 O 1436.89 -1.77137 0.220136 0
M  V30 15017 C 1433.99 -3.3496 0.515292 0
M  V30 15018 C 1433.16 -4.06418 1.61688 0
M  V30 15019 C 1432.22 -5.14237 1.11564 0
M  V30 15020 O 1431.25 -5.39649 1.81017 0
M  V30 15021 N 1432.45 -5.80484 -0.0427228 0
M  V30 15022 H 1435.22 -2.26372 1.96407 0
M  V30 15023 H 1432.78 -1.12257 1.16662 0
M  V30 15024 H 1434.77 -4.04366 0.164426 0
M  V30 15025 H 1433.34 -3.10767 -0.33807 0
M  V30 15026 H 1432.56 -3.31101 2.1393 0
M  V30 15027 H 1433.85 -4.50917 2.35693 0
M  V30 15028 H 1433.25 -5.62259 -0.623038 0
M  V30 15029 H 1431.8 -6.50941 -0.334615 0
M  V30 15030 N 1435.24 -1.07045 -1.15668 0
M  V30 15031 C 1436.65 -0.795369 -1.38369 0
M  V30 15032 C 1436.85 0.601829 -1.92303 0
M  V30 15033 O 1435.91 1.36109 -2.12675 0
M  V30 15034 C 1437.22 -1.86659 -2.35752 0
M  V30 15035 C 1438.77 -1.89098 -2.49421 0
M  V30 15036 C 1439.24 -2.95296 -3.50092 0
M  V30 15037 N 1440.73 -2.94378 -3.57625 0
M  V30 15038 C 1441.47 -3.73194 -4.35331 0
M  V30 15039 N 1440.97 -4.61851 -5.16397 0
M  V30 15040 N 1442.76 -3.61554 -4.30389 0
M  V30 15041 H 1434.91 -1.97162 -0.790004 0
M  V30 15042 H 1437.17 -0.854816 -0.40987 0
M  V30 15043 H 1436.88 -2.87036 -2.03232 0
M  V30 15044 H 1436.75 -1.72406 -3.35494 0
M  V30 15045 H 1439.14 -0.893752 -2.8124 0
M  V30 15046 H 1439.22 -2.07429 -1.49689 0
M  V30 15047 H 1438.86 -3.95217 -3.19008 0
M  V30 15048 H 1438.79 -2.74212 -4.49572 0
M  V30 15049 H 1441.29 -2.3011 -2.99763 0
M  V30 15050 H 1441.6 -5.18629 -5.72926 0
M  V30 15051 H 1439.94 -4.65902 -5.15714 0
M  V30 15052 H 1443.13 -2.91672 -3.66122 0
M  V30 15053 H 1443.31 -4.23221 -4.90701 0
M  V30 15054 N 1436.71 1.32449 -0.85411 0
M  V30 15055 C 1437.94 2.01997 -0.470307 0
M  V30 15056 C 1438.36 1.63772 0.925225 0
M  V30 15057 O 1437.72 0.838089 1.60766 0
M  V30 15058 C 1437.77 3.55294 -0.616301 0
M  V30 15059 O 1436.87 4.10902 0.351133 0
M  V30 15060 H 1436.21 0.63651 -0.189079 0
M  V30 15061 H 1438.74 1.69008 -1.15315 0
M  V30 15062 H 1438.75 4.0488 -0.503624 0
M  V30 15063 H 1437.43 3.82459 -1.63396 0
M  V30 15064 H 1436.01 3.72391 0.194741 0
M  V30 15065 N 1438.19 0.611994 1.45232 0
M  V30 15066 C 1439.44 0.108696 2.01807 0
M  V30 15067 C 1439.76 -1.26692 1.48237 0
M  V30 15068 O 1439.03 -1.8378 0.678368 0
M  V30 15069 H 1437.61 0.0371921 0.746074 0
M  V30 15070 H 1440.27 0.794386 1.77976 0
M  V30 15071 H 1439.37 0.0618207 3.12039 0
M  V30 15072 N 1439.67 -1.53632 0.351409 0
M  V30 15073 C 1440.62 -2.25281 -0.501724 0
M  V30 15074 C 1441.59 -1.25406 -1.08915 0
M  V30 15075 O 1442.77 -1.54157 -1.1243 0
M  V30 15076 C 1439.91 -3.03491 -1.64278 0
M  V30 15077 C 1439.02 -4.18233 -1.0819 0
M  V30 15078 C 1438.16 -4.83914 -2.1909 0
M  V30 15079 C 1437.2 -5.90712 -1.60394 0
M  V30 15080 N 1436.34 -6.50141 -2.65068 0
M  V30 15081 H 1441.18 -2.97775 0.11579 0
M  V30 15082 H 1438.71 -1.46938 0.0689141 0
M  V30 15083 H 1440.67 -3.47101 -2.31467 0
M  V30 15084 H 1439.3 -2.33279 -2.23116 0
M  V30 15085 H 1438.35 -3.7921 -0.300713 0
M  V30 15086 H 1439.66 -4.95023 -0.612644 0
M  V30 15087 H 1438.82 -5.30635 -2.94128 0
M  V30 15088 H 1437.56 -4.06565 -2.69362 0
M  V30 15089 H 1436.56 -5.43366 -0.838646 0
M  V30 15090 H 1437.79 -6.69973 -1.10964 0
M  V30 15091 H 1435.73 -5.75652 -3.14581 0
M  V30 15092 H 1435.65 -7.22427 -2.22788 0
M  V30 15093 H 1436.92 -7.01513 -3.39852 0
M  V30 15094 N 1441.15 -0.0802183 -1.57396 0
M  V30 15095 C 1442.09 0.884041 -2.13198 0
M  V30 15096 C 1443.06 1.28975 -1.04664 0
M  V30 15097 O 1444.25 1.37413 -1.32372 0
M  V30 15098 C 1441.39 2.14323 -2.7048 0
M  V30 15099 C 1440.5 1.7894 -3.93198 0
M  V30 15100 C 1439.64 2.99534 -4.38695 0
M  V30 15101 C 1438.68 2.60207 -5.54039 0
M  V30 15102 N 1437.81 3.73587 -5.94455 0
M  V30 15103 H 1442.65 0.40131 -2.95285 0
M  V30 15104 H 1440.19 0.186429 -1.45914 0
M  V30 15105 H 1442.15 2.88046 -3.01804 0
M  V30 15106 H 1440.78 2.60122 -1.91144 0
M  V30 15107 H 1439.83 0.952465 -3.68283 0
M  V30 15108 H 1441.14 1.46012 -4.76951 0
M  V30 15109 H 1440.3 3.81526 -4.71724 0
M  V30 15110 H 1439.04 3.35661 -3.53812 0
M  V30 15111 H 1438.04 1.76638 -5.20652 0
M  V30 15112 H 1439.27 2.2524 -6.40659 0
M  V30 15113 H 1437.21 4.0946 -5.12521 0
M  V30 15114 H 1437.13 3.44455 -6.72969 0
M  V30 15115 H 1438.4 4.56133 -6.3211 0
M  V30 15116 N 1442.63 1.56409 0.193394 0
M  V30 15117 C 1443.86 1.84569 0.928328 0
M  V30 15118 C 1444.26 0.660788 1.77286 0
M  V30 15119 O 1443.61 -0.379752 1.79732 0
M  V30 15120 C 1443.67 3.06854 1.87299 0
M  V30 15121 C 1443.33 4.40684 1.21025 0
M  V30 15122 C 1444.33 5.16583 0.58635 0
M  V30 15123 C 1442.01 4.87419 1.21359 0
M  V30 15124 C 1444.01 6.37395 -0.0253573 0
M  V30 15125 C 1441.7 6.08167 0.598052 0
M  V30 15126 C 1442.69 6.82997 -0.0203414 0
M  V30 15127 O 1442.38 8.01457 -0.626232 0
M  V30 15128 H 1442.11 0.616966 0.276277 0
M  V30 15129 H 1444.67 2.04373 0.205102 0
M  V30 15130 H 1442.9 2.82938 2.63596 0
M  V30 15131 H 1444.59 3.21645 2.47587 0
M  V30 15132 H 1445.35 4.81569 0.575894 0
M  V30 15133 H 1441.23 4.29129 1.68432 0
M  V30 15134 H 1444.78 6.95743 -0.508644 0
M  V30 15135 H 1440.67 6.42649 0.606017 0
M  V30 15136 H 1441.44 8.16825 -0.523305 0
M  V30 15137 N 1444.1 -0.461169 1.50702 0
M  V30 15138 C 1445.35 -1.21012 1.61866 0
M  V30 15139 C 1445.67 -1.9226 0.325736 0
M  V30 15140 O 1444.94 -1.84543 -0.657306 0
M  V30 15141 H 1443.52 -0.449671 0.596494 0
M  V30 15142 H 1446.18 -0.531056 1.87525 0
M  V30 15143 H 1445.28 -1.95266 2.4347 0
M  V30 15144 N 1445.58 -1.40446 -0.715026 0
M  V30 15145 C 1446.83 -1.38754 -1.47491 0
M  V30 15146 C 1447.16 0.0099443 -1.94497 0
M  V30 15147 O 1446.41 0.99458 -1.68543 0
M  V30 15148 C 1446.71 -2.32392 -2.7153 0
M  V30 15149 C 1446.38 -3.79635 -2.43286 0
M  V30 15150 C 1445.04 -4.19751 -2.35293 0
M  V30 15151 C 1447.39 -4.72681 -2.19596 0
M  V30 15152 C 1444.72 -5.50947 -2.01679 0
M  V30 15153 C 1447.07 -6.04176 -1.87495 0
M  V30 15154 C 1445.73 -6.43333 -1.77985 0
M  V30 15155 H 1445 -0.507738 -0.539706 0
M  V30 15156 H 1447.65 -1.73104 -0.81898 0
M  V30 15157 H 1445.96 -1.91229 -3.41963 0
M  V30 15158 H 1447.65 -2.28366 -3.29621 0
M  V30 15159 H 1444.24 -3.47852 -2.50393 0
M  V30 15160 H 1448.43 -4.42506 -2.24727 0
M  V30 15161 H 1443.68 -5.80187 -1.92854 0
M  V30 15162 H 1447.86 -6.75788 -1.68179 0
M  V30 15163 H 1445.48 -7.44909 -1.51706 0
M  V30 15164 N 1447.06 0.947303 -1.25952 0
M  V30 15165 C 1448.29 1.7273 -1.13895 0
M  V30 15166 C 1448.7 1.86296 0.306488 0
M  V30 15167 O 1448.06 1.36594 1.2103 0
M  V30 15168 C 1448.11 3.13727 -1.79604 0
M  V30 15169 O 1447.83 3.00816 -3.18499 0
M  V30 15170 C 1449.33 4.0797 -1.73422 0
M  V30 15171 H 1446.55 0.54102 -0.39691 0
M  V30 15172 H 1449.1 1.18797 -1.66456 0
M  V30 15173 H 1447.25 3.6458 -1.30997 0
M  V30 15174 H 1447.67 3.89813 -3.50922 0
M  V30 15175 H 1449.14 5.04487 -2.24047 0
M  V30 15176 H 1449.62 4.33594 -0.699481 0
M  V30 15177 H 1450.22 3.63035 -2.21553 0
M  V30 15178 N 1448.54 1.07657 1.15099 0
M  V30 15179 C 1449.47 0.721201 2.22083 0
M  V30 15180 C 1450.45 -0.292808 1.67561 0
M  V30 15181 O 1451.63 -0.164872 1.93499 0
M  V30 15182 C 1448.76 0.12153 3.47087 0
M  V30 15183 C 1447.72 1.06303 4.14588 0
M  V30 15184 C 1447.04 0.325964 5.33706 0
M  V30 15185 C 1448.34 2.39796 4.63999 0
M  V30 15186 H 1450.04 1.61566 2.52065 0
M  V30 15187 H 1447.58 0.778282 1.21156 0
M  V30 15188 H 1449.54 -0.139037 4.21171 0
M  V30 15189 H 1448.26 -0.808022 3.16447 0
M  V30 15190 H 1446.92 1.30858 3.4245 0
M  V30 15191 H 1446.57 -0.607147 4.99322 0
M  V30 15192 H 1446.27 0.953552 5.79811 0
M  V30 15193 H 1447.79 0.0732695 6.10556 0
M  V30 15194 H 1449.21 2.19552 5.29594 0
M  V30 15195 H 1447.6 2.98178 5.20778 0
M  V30 15196 H 1448.67 3.01876 3.79472 0
M  V30 15197 N 1450.02 -1.31994 0.861122 0
M  V30 15198 C 1451.43 -1.49756 0.551844 0
M  V30 15199 C 1451.63 -1.79473 -0.916056 0
M  V30 15200 O 1450.69 -1.86813 -1.69874 0
M  V30 15201 C 1452 -2.63737 1.44442 0
M  V30 15202 C 1453.55 -2.77621 1.44552 0
M  V30 15203 C 1454.02 -3.94689 2.32346 0
M  V30 15204 N 1455.52 -4.01961 2.30177 0
M  V30 15205 C 1456.25 -4.91794 2.94833 0
M  V30 15206 N 1455.75 -5.86589 3.68626 0
M  V30 15207 N 1457.54 -4.84968 2.84188 0
M  V30 15208 H 1449.69 -1.10972 1.81105 0
M  V30 15209 H 1451.95 -0.54753 0.773896 0
M  V30 15210 H 1451.66 -2.48526 2.48853 0
M  V30 15211 H 1451.53 -3.59671 1.13651 0
M  V30 15212 H 1453.92 -2.92251 0.409034 0
M  V30 15213 H 1454 -1.8238 1.79363 0
M  V30 15214 H 1453.65 -3.80817 3.36067 0
M  V30 15215 H 1453.58 -4.89219 1.94865 0
M  V30 15216 H 1456.07 -3.34132 1.76533 0
M  V30 15217 H 1456.38 -6.51846 4.15111 0
M  V30 15218 H 1454.72 -5.86596 3.72734 0
M  V30 15219 H 1457.92 -4.09883 2.26084 0
M  V30 15220 H 1458.09 -5.54774 3.34857 0
M  V30 15221 N 1451.49 -0.619688 -1.44906 0
M  V30 15222 C 1452.46 0.0822364 -2.29052 0
M  V30 15223 C 1453.46 0.783427 -1.40425 0
M  V30 15224 O 1454.65 0.629751 -1.62419 0
M  V30 15225 C 1451.78 1.12685 -3.21737 0
M  V30 15226 H 1452.97 -0.657726 -2.92599 0
M  V30 15227 H 1450.53 -0.379286 -1.51628 0
M  V30 15228 H 1451.26 1.89717 -2.63017 0
M  V30 15229 H 1451.05 0.628122 -3.87036 0
M  V30 15230 H 1452.54 1.61808 -3.84978 0
M  V30 15231 N 1452.97 1.53444 -0.359552 0
M  V30 15232 C 1454.22 2.00348 0.233109 0
M  V30 15233 C 1454.53 1.25104 1.50361 0
M  V30 15234 O 1455.74 1.62566 2.1745 0
M  V30 15235 C 1454.2 3.56871 0.465951 0
M  V30 15236 C 1453.8 4.40987 -0.789571 0
M  V30 15237 C 1455.55 4.12148 1.0166 0
M  V30 15238 C 1453.46 5.8905 -0.526646 0
M  V30 15239 H 1452.39 0.748502 0.0908851 0
M  V30 15240 H 1455.04 1.77182 -0.47736 0
M  V30 15241 H 1453.42 3.76167 1.23753 0
M  V30 15242 H 1454.59 4.33465 -1.56348 0
M  V30 15243 H 1452.91 3.96784 -1.263 0
M  V30 15244 H 1455.5 5.20395 1.22853 0
M  V30 15245 H 1455.85 3.66364 1.97694 0
M  V30 15246 H 1456.38 3.96626 0.305334 0
M  V30 15247 H 1453.12 6.39099 -1.45715 0
M  V30 15248 H 1452.64 5.99436 0.208875 0
M  V30 15249 H 1454.32 6.46826 -0.149889 0
M  V30 15250 N 1454.45 0.0885642 1.57351 0
M  V30 15251 C 1455.87 -0.268088 1.57332 0
M  V30 15252 C 1456.07 -1.68875 1.09924 0
M  V30 15253 O 1455.12 -2.40385 0.772729 0
M  V30 15254 C 1456.44 -0.0624654 3.00635 0
M  V30 15255 C 1457.98 -0.130717 3.12727 0
M  V30 15256 C 1458.46 0.0468305 4.57976 0
M  V30 15257 N 1459.95 -0.00822093 4.63199 0
M  V30 15258 C 1460.68 0.104497 5.73305 0
M  V30 15259 N 1460.18 0.271682 6.92267 0
M  V30 15260 N 1461.97 0.0462333 5.62081 0
M  V30 15261 H 1454.12 1.01686 1.86477 0
M  V30 15262 H 1456.39 0.397971 0.86042 0
M  V30 15263 H 1456.09 0.918505 3.39494 0
M  V30 15264 H 1455.97 -0.807602 3.68453 0
M  V30 15265 H 1458.35 -1.10219 2.73744 0
M  V30 15266 H 1458.44 0.645801 2.47514 0
M  V30 15267 H 1458.08 1.01514 4.97652 0
M  V30 15268 H 1458.01 -0.7493 5.21242 0
M  V30 15269 H 1460.5 -0.135164 3.77658 0
M  V30 15270 H 1460.81 0.349381 7.7201 0
M  V30 15271 H 1459.16 0.307265 6.9432 0
M  V30 15272 H 1462.35 -0.0831995 4.68026 0
M  V30 15273 H 1462.52 0.137529 6.47854 0
M  V30 15274 N 1455.93 -1.56509 -0.185096 0
M  V30 15275 C 1457.17 -1.81474 -0.905263 0
M  V30 15276 C 1457.51 -0.664225 -1.82488 0
M  V30 15277 O 1456.78 0.33466 -1.91599 0
M  V30 15278 C 1457.07 -3.16754 -1.71287 0
M  V30 15279 C 1456.92 -4.42312 -0.817302 0
M  V30 15280 C 1458.24 -3.48828 -2.68342 0
M  V30 15281 H 1455.36 -0.660155 -0.327664 0
M  V30 15282 H 1458 -1.89219 -0.172129 0
M  V30 15283 H 1456.15 -3.10282 -2.33789 0
M  V30 15284 H 1457.82 -4.60839 -0.206218 0
M  V30 15285 H 1456.06 -4.33621 -0.124564 0
M  V30 15286 H 1456.73 -5.33487 -1.41758 0
M  V30 15287 H 1459.21 -3.55663 -2.15969 0
M  V30 15288 H 1458.09 -4.44585 -3.21924 0
M  V30 15289 H 1458.35 -2.72829 -3.47875 0
M  V30 15290 N 1457.41 0.45317 -1.50944 0
M  V30 15291 C 1458.64 1.22494 -1.66369 0
M  V30 15292 C 1459.04 1.85862 -0.353854 0
M  V30 15293 O 1458.39 1.70808 0.676031 0
M  V30 15294 C 1458.45 2.36145 -2.71064 0
M  V30 15295 C 1458.11 1.93273 -4.14119 0
M  V30 15296 C 1459.11 1.44508 -4.99413 0
M  V30 15297 C 1456.8 2.01447 -4.60135 0
M  V30 15298 C 1458.79 1.04482 -6.28778 0
M  V30 15299 C 1456.48 1.61033 -5.89501 0
M  V30 15300 C 1457.47 1.1263 -6.73649 0
M  V30 15301 O 1457.16 0.727835 -8.00598 0
M  V30 15302 H 1456.89 0.37591 -0.561843 0
M  V30 15303 H 1459.45 0.545218 -1.98032 0
M  V30 15304 H 1457.68 3.07345 -2.34682 0
M  V30 15305 H 1459.37 2.9806 -2.75527 0
M  V30 15306 H 1460.13 1.376 -4.65071 0
M  V30 15307 H 1456.01 2.38068 -3.94771 0
M  V30 15308 H 1459.56 0.666322 -6.9441 0
M  V30 15309 H 1455.45 1.67606 -6.23361 0
M  V30 15310 H 1456.22 0.855097 -8.14021 0
M  V30 15311 N 1458.88 1.40823 0.707568 0
M  V30 15312 C 1459.82 1.36132 1.83149 0
M  V30 15313 C 1460.8 0.230423 1.60959 0
M  V30 15314 O 1461.98 0.415391 1.83866 0
M  V30 15315 C 1459.11 1.12055 3.19627 0
M  V30 15316 C 1458.15 2.27703 3.6063 0
M  V30 15317 S 1458.99 3.90134 3.66818 0
M  V30 15318 C 1460.14 3.68336 5.06043 0
M  V30 15319 H 1460.37 2.31246 1.86849 0
M  V30 15320 H 1457.91 1.27204 0.875126 0
M  V30 15321 H 1459.87 0.988486 3.98421 0
M  V30 15322 H 1458.53 0.185809 3.1355 0
M  V30 15323 H 1457.72 2.06519 4.59746 0
M  V30 15324 H 1457.32 2.37254 2.89114 0
M  V30 15325 H 1459.61 3.27299 5.93196 0
M  V30 15326 H 1460.56 4.67012 5.32265 0
M  V30 15327 H 1460.96 3.01856 4.77015 0
M  V30 15328 N 1460.36 -0.94061 1.26453 0
M  V30 15329 C 1461.61 -1.68354 1.11809 0
M  V30 15330 C 1461.93 -1.9203 -0.339037 0
M  V30 15331 O 1461.2 -1.51739 -1.23903 0
M  V30 15332 H 1459.78 -0.623916 0.410777 0
M  V30 15333 H 1462.44 -1.13014 1.58789 0
M  V30 15334 H 1461.54 -2.65706 1.63728 0
M  V30 15335 N 1461.84 -1.08266 -1.14527 0
M  V30 15336 C 1463.12 -0.724254 -1.81697 0
M  V30 15337 C 1463.5 0.792212 -1.95671 0
M  V30 15338 O 1462.85 1.71017 -1.51543 0
M  V30 15339 C 1463.06 -1.44949 -3.17475 0
M  V30 15340 C 1464.4 -1.60761 -3.9299 0
M  V30 15341 O 1465.43 -1.41103 -3.2706 0
M  V30 15342 O 1464.29 -1.93184 -5.11216 0
M  V30 15343 H 1461.38 -0.258814 -0.785458 0
M  V30 15344 H 1463.93 -1.18414 -1.21557 0
M  V30 15345 H 1462.7 -2.48262 -3.02459 0
M  V30 15346 H 1462.32 -0.980993 -3.85308 0
M  V30 15347 N 1463.32 1.31536 -0.86811 0
M  V30 15348 C 1464.55 2.00952 -0.492529 0
M  V30 15349 C 1464.96 1.65174 0.914487 0
M  V30 15350 O 1464.32 0.880002 1.59882 0
M  V30 15351 C 1464.37 3.55829 -0.637798 0
M  V30 15352 O 1464.09 3.90326 -1.9894 0
M  V30 15353 C 1465.59 4.42519 -0.262986 0
M  V30 15354 H 1462.81 0.642913 -0.192105 0
M  V30 15355 H 1465.36 1.6781 -1.16876 0
M  V30 15356 H 1463.51 3.87399 -0.0091406 0
M  V30 15357 H 1463.93 4.85043 -1.99583 0
M  V30 15358 H 1465.4 5.50433 -0.415591 0
M  V30 15359 H 1465.88 4.31895 0.797705 0
M  V30 15360 H 1466.48 4.16363 -0.867268 0
M  V30 15361 N 1464.8 0.627364 1.44575 0
M  V30 15362 C 1466.07 0.0614392 1.95503 0
M  V30 15363 C 1466.45 -1.41182 1.56942 0
M  V30 15364 O 1465.8 -2.12435 0.841634 0
M  V30 15365 C 1466.01 0.280349 3.47872 0
M  V30 15366 C 1467.36 0.171559 4.24253 0
M  V30 15367 O 1468.38 0.211515 3.55571 0
M  V30 15368 O 1467.24 0.0733152 5.46451 0
M  V30 15369 H 1464.34 -0.0244626 0.826638 0
M  V30 15370 H 1466.88 0.698805 1.54644 0
M  V30 15371 H 1465.66 1.30278 3.68976 0
M  V30 15372 H 1465.28 -0.391336 3.95669 0
M  V30 15373 N 1466.28 -1.53251 0.367684 0
M  V30 15374 C 1467.52 -2.01585 -0.221679 0
M  V30 15375 C 1467.85 -1.25444 -1.48248 0
M  V30 15376 O 1467.13 -0.348726 -1.91348 0
M  V30 15377 C 1467.41 -3.56449 -0.511507 0
M  V30 15378 C 1467.27 -4.4328 0.763075 0
M  V30 15379 C 1468.58 -4.20113 -1.31121 0
M  V30 15380 H 1465.7 -0.732743 -0.0790954 0
M  V30 15381 H 1468.35 -1.83493 0.492991 0
M  V30 15382 H 1466.5 -3.71996 -1.12033 0
M  V30 15383 H 1468.17 -4.39526 1.40052 0
M  V30 15384 H 1466.41 -4.11164 1.38299 0
M  V30 15385 H 1467.08 -5.4959 0.515215 0
M  V30 15386 H 1469.56 -4.08412 -0.796169 0
M  V30 15387 H 1468.43 -5.28494 -1.48274 0
M  V30 15388 H 1468.69 -3.76316 -2.32032 0
M  V30 15389 N 1467.75 -0.0969077 -1.57302 0
M  V30 15390 C 1468.98 0.573872 -1.9847 0
M  V30 15391 C 1469.39 1.62149 -0.974894 0
M  V30 15392 O 1468.73 1.83649 0.0434873 0
M  V30 15393 C 1468.8 1.2781 -3.36013 0
M  V30 15394 C 1468.46 0.381022 -4.55409 0
M  V30 15395 C 1469.46 -0.371559 -5.18571 0
M  V30 15396 C 1467.14 0.29855 -5.01412 0
M  V30 15397 C 1469.14 -1.19457 -6.26106 0
M  V30 15398 C 1466.82 -0.528116 -6.08814 0
M  V30 15399 C 1467.82 -1.27333 -6.71026 0
M  V30 15400 O 1467.51 -2.08631 -7.76356 0
M  V30 15401 H 1467.24 0.158369 -0.657187 0
M  V30 15402 H 1469.8 -0.173415 -2.04667 0
M  V30 15403 H 1468.03 2.07199 -3.26505 0
M  V30 15404 H 1469.71 1.84359 -3.61617 0
M  V30 15405 H 1470.48 -0.317586 -4.83959 0
M  V30 15406 H 1466.36 0.868247 -4.5275 0
M  V30 15407 H 1469.9 -1.77673 -6.74595 0
M  V30 15408 H 1465.8 -0.583563 -6.42857 0
M  V30 15409 H 1466.57 -2.01333 -7.93352 0
M  V30 15410 N 1469.23 1.56605 0.176793 0
M  V30 15411 C 1470.46 1.8617 0.91408 0
M  V30 15412 C 1470.88 0.68262 1.75277 0
M  V30 15413 O 1470.24 -0.368391 1.77518 0
M  V30 15414 C 1470.29 3.14109 1.7711 0
M  V30 15415 O 1469.39 2.95947 2.87209 0
M  V30 15416 H 1468.73 0.612507 0.25638 0
M  V30 15417 H 1471.26 2.03837 0.176586 0
M  V30 15418 H 1471.27 3.45373 2.17213 0
M  V30 15419 H 1469.95 3.9954 1.15502 0
M  V30 15420 H 1468.52 2.76024 2.50729 0
M  V30 15421 N 1470.71 -0.445159 1.51182 0
M  V30 15422 C 1471.96 -1.19701 1.63705 0
M  V30 15423 C 1472.29 -1.91047 0.348511 0
M  V30 15424 O 1471.56 -1.83264 -0.651497 0
M  V30 15425 C 1471.85 -2.22021 2.83511 0
M  V30 15426 C 1471.7 -1.54809 4.2232 0
M  V30 15427 C 1473.02 -3.23083 2.9884 0
M  V30 15428 H 1470.14 -0.433818 0.595795 0
M  V30 15429 H 1472.78 -0.487276 1.83645 0
M  V30 15430 H 1470.93 -2.82551 2.66641 0
M  V30 15431 H 1472.6 -0.976774 4.5084 0
M  V30 15432 H 1470.84 -0.850596 4.25379 0
M  V30 15433 H 1471.52 -2.29289 5.02126 0
M  V30 15434 H 1473.99 -2.72601 3.14369 0
M  V30 15435 H 1472.87 -3.91978 3.84246 0
M  V30 15436 H 1473.13 -3.88732 2.1057 0
M  V30 15437 N 1472.19 -1.41197 -0.700089 0
M  V30 15438 C 1473.14 -1.39158 -1.80607 0
M  V30 15439 C 1474.12 -0.266653 -1.58675 0
M  V30 15440 O 1475.31 -0.506973 -1.69584 0
M  V30 15441 C 1472.44 -1.27176 -3.18875 0
M  V30 15442 C 1471.53 -2.44513 -3.46517 0
M  V30 15443 N 1471.92 -3.69984 -3.44885 0
M  V30 15444 C 1470.22 -2.38228 -3.77046 0
M  V30 15445 C 1470.92 -4.4778 -3.71306 0
M  V30 15446 N 1469.89 -3.77831 -3.90826 0
M  V30 15447 H 1473.7 -2.34093 -1.77701 0
M  V30 15448 H 1471.21 -1.35188 -0.899887 0
M  V30 15449 H 1473.21 -1.23797 -3.98095 0
M  V30 15450 H 1471.87 -0.332215 -3.22996 0
M  V30 15451 H 1472.88 -4.02932 -3.25371 0
M  V30 15452 H 1469.56 -1.52722 -3.88564 0
M  V30 15453 H 1470.95 -5.56695 -3.76218 0
M  V30 15454 N 1473.67 0.933891 -1.2695 0
M  V30 15455 C 1474.62 2.01966 -1.05801 0
M  V30 15456 C 1475.6 1.60896 0.0119868 0
M  V30 15457 O 1476.79 1.75799 -0.205827 0
M  V30 15458 C 1473.92 3.36073 -0.700695 0
M  V30 15459 C 1473.01 3.83606 -1.80852 0
M  V30 15460 N 1473.4 4.03713 -3.04712 0
M  V30 15461 C 1471.7 4.12586 -1.69378 0
M  V30 15462 C 1472.4 4.43199 -3.76762 0
M  V30 15463 N 1471.37 4.50319 -3.0449 0
M  V30 15464 H 1475.17 2.15534 -1.99806 0
M  V30 15465 H 1472.69 1.12027 -1.17574 0
M  V30 15466 H 1474.69 4.13513 -0.530316 0
M  V30 15467 H 1473.35 3.23872 0.231801 0
M  V30 15468 H 1474.36 3.90196 -3.4054 0
M  V30 15469 H 1471.03 4.09132 -0.831695 0
M  V30 15470 H 1472.42 4.66887 -4.83184 0
M  V30 15471 N 1475.14 1.08871 1.13951 0
M  V30 15472 C 1476.39 0.816198 1.84448 0
M  V30 15473 C 1476.71 -0.660396 1.84114 0
M  V30 15474 O 1477.91 -1.04825 2.50448 0
M  V30 15475 C 1476.37 1.41015 3.31123 0
M  V30 15476 C 1475.98 2.91888 3.39861 0
M  V30 15477 C 1477.72 1.21633 4.06701 0
M  V30 15478 C 1475.63 3.44397 4.80775 0
M  V30 15479 H 1474.56 0.301662 0.691025 0
M  V30 15480 H 1477.21 1.31072 1.28423 0
M  V30 15481 H 1475.59 0.843333 3.86916 0
M  V30 15482 H 1476.76 3.54747 2.94094 0
M  V30 15483 H 1475.08 3.10238 2.77743 0
M  V30 15484 H 1477.68 1.58324 5.10723 0
M  V30 15485 H 1478.02 0.156519 4.16006 0
M  V30 15486 H 1478.55 1.75035 3.57222 0
M  V30 15487 H 1475.29 4.49973 4.7666 0
M  V30 15488 H 1474.81 2.86299 5.27061 0
M  V30 15489 H 1476.49 3.41266 5.49679 0
M  V30 15490 N 1476.62 -1.31073 0.875073 0
M  V30 15491 C 1477.87 -1.96809 0.489273 0
M  V30 15492 C 1478.2 -1.68979 -0.957073 0
M  V30 15493 O 1477.48 -0.989061 -1.67475 0
M  V30 15494 C 1477.76 -3.52139 0.752998 0
M  V30 15495 C 1477.61 -3.89524 2.24925 0
M  V30 15496 C 1478.93 -4.39535 0.222871 0
M  V30 15497 H 1476.05 -0.714873 0.179238 0
M  V30 15498 H 1478.69 -1.55114 1.09725 0
M  V30 15499 H 1476.84 -3.87785 0.23553 0
M  V30 15500 H 1478.51 -3.63953 2.83436 0
M  V30 15501 H 1476.76 -3.37948 2.71981 0
M  V30 15502 H 1477.43 -4.97845 2.38441 0
M  V30 15503 H 1479.9 -4.10741 0.665645 0
M  V30 15504 H 1478.78 -5.47159 0.436806 0
M  V30 15505 H 1479.04 -4.33346 -0.875445 0
M  V30 15506 N 1478.1 -0.635022 -1.4424 0
M  V30 15507 C 1479.35 -0.149809 -2.02848 0
M  V30 15508 C 1479.7 1.21619 -1.49086 0
M  V30 15509 O 1478.99 1.79619 -0.666909 0
M  V30 15510 C 1479.19 -0.081191 -3.57308 0
M  V30 15511 C 1479.02 -1.439 -4.26055 0
M  V30 15512 C 1477.79 -2.02677 -4.62872 0
M  V30 15513 C 1479.99 -2.37365 -4.56248 0
M  V30 15514 N 1477.97 -3.31652 -5.16605 0
M  V30 15515 C 1479.34 -3.50957 -5.11106 0
M  V30 15516 C 1481.39 -2.36395 -4.38203 0
M  V30 15517 C 1480.1 -4.63781 -5.49818 0
M  V30 15518 C 1482.12 -3.48286 -4.77965 0
M  V30 15519 C 1481.48 -4.60603 -5.3294 0
M  V30 15520 H 1477.58 -0.0988293 -0.77573 0
M  V30 15521 H 1480.17 -0.839365 -1.75678 0
M  V30 15522 H 1478.34 0.577656 -3.8408 0
M  V30 15523 H 1480.07 0.41321 -4.02585 0
M  V30 15524 H 1476.83 -1.55579 -4.47316 0
M  V30 15525 H 1477.25 -3.97602 -5.47943 0
M  V30 15526 H 1481.89 -1.50807 -3.9499 0
M  V30 15527 H 1479.61 -5.50074 -5.91983 0
M  V30 15528 H 1483.2 -3.48716 -4.65713 0
M  V30 15529 H 1482.08 -5.45751 -5.63139 0
M  V30 15530 N 1479.58 1.53054 -0.375806 0
M  V30 15531 C 1480.53 2.22837 0.482477 0
M  V30 15532 C 1481.51 1.22728 1.04051 0
M  V30 15533 O 1482.7 1.48129 0.968854 0
M  V30 15534 C 1479.83 3.02869 1.61634 0
M  V30 15535 C 1478.92 4.10362 1.07069 0
M  V30 15536 N 1479.31 5.05187 0.248878 0
M  V30 15537 C 1477.61 4.25251 1.34452 0
M  V30 15538 C 1478.31 5.81678 -0.0510458 0
M  V30 15539 N 1477.29 5.40817 0.549318 0
M  V30 15540 H 1481.09 2.93506 -0.1521 0
M  V30 15541 H 1478.6 1.6135 -0.184373 0
M  V30 15542 H 1480.6 3.51387 2.24349 0
M  V30 15543 H 1479.26 2.33732 2.25387 0
M  V30 15544 H 1480.27 5.17777 -0.112766 0
M  V30 15545 H 1476.95 3.67342 1.98408 0
M  V30 15546 H 1478.34 6.68073 -0.716061 0
M  V30 15547 N 1481.06 0.105248 1.57248 0
M  V30 15548 C 1482.3 -0.556878 1.95004 0
M  V30 15549 C 1482.64 -1.672 0.987818 0
M  V30 15550 O 1481.91 -1.94487 0.022616 0
M  V30 15551 C 1482.19 -1.10252 3.42807 0
M  V30 15552 C 1482.05 0.00823908 4.49799 0
M  V30 15553 C 1483.37 -1.99774 3.92146 0
M  V30 15554 H 1480.48 -0.200959 0.709073 0
M  V30 15555 H 1483.13 0.178019 1.89164 0
M  V30 15556 H 1481.28 -1.7288 3.47915 0
M  V30 15557 H 1482.95 0.642944 4.56797 0
M  V30 15558 H 1481.19 0.673265 4.28544 0
M  V30 15559 H 1481.86 -0.414538 5.50441 0
M  V30 15560 H 1484.34 -1.47036 3.89255 0
M  V30 15561 H 1483.21 -2.34874 4.9611 0
M  V30 15562 H 1483.48 -2.91902 3.32033 0
M  V30 15563 N 1482.53 -1.56697 -0.168486 0
M  V30 15564 C 1483.44 -1.99866 -1.22845 0
M  V30 15565 C 1484.46 -0.910491 -1.48277 0
M  V30 15566 O 1485.64 -1.21834 -1.6037 0
M  V30 15567 C 1482.7 -2.35227 -2.54694 0
M  V30 15568 C 1481.76 -3.57886 -2.37099 0
M  V30 15569 C 1481 -3.91551 -3.62661 0
M  V30 15570 O 1481.22 -3.26148 -4.67957 0
M  V30 15571 O 1480.15 -4.8489 -3.56603 0
M  V30 15572 H 1483.98 -2.90305 -0.892015 0
M  V30 15573 H 1481.56 -1.44602 -0.375571 0
M  V30 15574 H 1483.45 -2.58928 -3.32467 0
M  V30 15575 H 1482.12 -1.4795 -2.87911 0
M  V30 15576 H 1481.03 -3.394 -1.57348 0
M  V30 15577 H 1482.36 -4.45714 -2.08806 0
M  V30 15578 N 1484.01 0.437135 -1.51416 0
M  V30 15579 C 1484.92 1.55581 -1.75589 0
M  V30 15580 C 1485.94 1.61797 -0.640132 0
M  V30 15581 O 1487.11 1.79035 -0.922406 0
M  V30 15582 C 1484.18 2.91561 -1.87598 0
M  V30 15583 C 1483.24 2.9546 -3.11451 0
M  V30 15584 C 1482.47 4.24954 -3.22878 0
M  V30 15585 O 1482.7 5.17341 -2.40238 0
M  V30 15586 O 1481.63 4.35141 -4.15856 0
M  V30 15587 H 1485.46 1.38098 -2.70486 0
M  V30 15588 H 1483.04 0.620163 -1.3592 0
M  V30 15589 H 1484.92 3.72262 -1.97481 0
M  V30 15590 H 1483.6 3.09171 -0.958889 0
M  V30 15591 H 1482.51 2.13713 -3.07046 0
M  V30 15592 H 1483.84 2.82794 -4.0285 0
M  V30 15593 N 1485.49 1.41566 0.692592 0
M  V30 15594 C 1486.74 1.40805 1.44978 0
M  V30 15595 C 1487.06 0.0191039 1.94991 0
M  V30 15596 O 1486.33 -0.939544 1.71899 0
M  V30 15597 H 1484.91 0.518293 0.537942 0
M  V30 15598 H 1487.57 1.76831 0.81956 0
M  V30 15599 H 1486.67 2.09706 2.31149 0
M  V30 15600 N 1486.97 -0.927146 1.27443 0
M  V30 15601 C 1488.22 -1.67159 1.13589 0
M  V30 15602 C 1488.54 -1.92379 -0.31865 0
M  V30 15603 O 1487.81 -1.53045 -1.22287 0
M  V30 15604 H 1486.39 -0.619524 0.417371 0
M  V30 15605 H 1489.05 -1.11323 1.59979 0
M  V30 15606 H 1488.15 -2.63954 1.66537 0
M  V30 15607 N 1488.45 -1.09474 -1.13372 0
M  V30 15608 C 1489.86 -0.850378 -1.66209 0
M  V30 15609 C 1490.21 0.621071 -1.86111 0
M  V30 15610 O 1489.33 1.47837 -1.58029 0
M  V30 15611 C 1489.93 -1.53713 -3.01924 0
M  V30 15612 C 1488.49 -1.33972 -3.5175 0
M  V30 15613 C 1487.63 -1.5929 -2.26985 0
M  V30 15614 H 1490.59 -1.25383 -0.972874 0
M  V30 15615 H 1490.61 -0.970503 -3.67915 0
M  V30 15616 H 1490.12 -2.60804 -2.87407 0
M  V30 15617 H 1488.22 -0.289998 -3.7147 0
M  V30 15618 H 1488.33 -2.0749 -4.31839 0
M  V30 15619 H 1486.7 -1.01505 -2.336 0
M  V30 15620 H 1487.48 -2.67611 -2.15033 0
M  V30 15621 N 1489.92 1.30607 -0.882012 0
M  V30 15622 C 1490.89 2.26489 -0.351498 0
M  V30 15623 C 1491.89 1.52686 0.504348 0
M  V30 15624 O 1493.08 1.71385 0.311928 0
M  V30 15625 C 1490.21 3.37222 0.499435 0
M  V30 15626 H 1491.4 2.74929 -1.19809 0
M  V30 15627 H 1488.96 1.41746 -0.658616 0
M  V30 15628 H 1489.69 2.94093 1.36673 0
M  V30 15629 H 1489.48 3.91936 -0.11356 0
M  V30 15630 H 1490.97 4.08596 0.862497 0
M  V30 15631 N 1491.4 0.642663 1.43901 0
M  V30 15632 C 1492.33 -0.0938945 2.29008 0
M  V30 15633 C 1493.35 -0.797561 1.41925 0
M  V30 15634 O 1494.54 -0.65708 1.65966 0
M  V30 15635 C 1491.64 -1.15564 3.18588 0
M  V30 15636 C 1490.81 -0.532208 4.3415 0
M  V30 15637 C 1489.87 -1.48943 5.0468 0
M  V30 15638 O 1488.89 -1.00211 5.60309 0
M  V30 15639 N 1490.1 -2.82362 5.072 0
M  V30 15640 H 1492.86 0.636539 2.92862 0
M  V30 15641 H 1490.42 0.484665 1.54475 0
M  V30 15642 H 1492.41 -1.79658 3.62636 0
M  V30 15643 H 1490.98 -1.78816 2.56405 0
M  V30 15644 H 1490.2 0.287598 3.93149 0
M  V30 15645 H 1491.49 -0.0965526 5.08708 0
M  V30 15646 H 1490.89 -3.24524 4.63358 0
M  V30 15647 H 1489.45 -3.41786 5.55001 0
M  V30 15648 N 1492.88 -1.52852 0.383918 0
M  V30 15649 C 1493.79 -2.3002 -0.461298 0
M  V30 15650 C 1494.81 -1.36717 -1.07631 0
M  V30 15651 O 1495.98 -1.69784 -1.08329 0
M  V30 15652 C 1493.05 -3.08804 -1.57609 0
M  V30 15653 C 1492.11 -4.17806 -0.986737 0
M  V30 15654 C 1491.34 -4.92825 -2.04841 0
M  V30 15655 O 1491.57 -4.67879 -3.26259 0
M  V30 15656 O 1490.5 -5.78306 -1.66871 0
M  V30 15657 H 1494.33 -3.03239 0.167189 0
M  V30 15658 H 1491.91 -1.48667 0.147781 0
M  V30 15659 H 1493.79 -3.57943 -2.22384 0
M  V30 15660 H 1492.47 -2.38404 -2.18964 0
M  V30 15661 H 1491.37 -3.72876 -0.302396 0
M  V30 15662 H 1492.71 -4.90426 -0.417481 0
M  V30 15663 N 1494.36 -0.113586 -1.5719 0
M  V30 15664 C 1495.32 0.824258 -2.13866 0
M  V30 15665 C 1496.32 1.19831 -1.07224 0
M  V30 15666 O 1497.51 1.12471 -1.33026 0
M  V30 15667 C 1494.64 2.11391 -2.67445 0
M  V30 15668 H 1495.84 0.331803 -2.98059 0
M  V30 15669 H 1493.39 0.135599 -1.55711 0
M  V30 15670 H 1494.13 2.65079 -1.86824 0
M  V30 15671 H 1493.91 1.85523 -3.45433 0
M  V30 15672 H 1495.4 2.78443 -3.11222 0
M  V30 15673 N 1495.84 1.56784 0.160173 0
M  V30 15674 C 1497.09 1.8226 0.873253 0
M  V30 15675 C 1497.41 0.692384 1.82294 0
M  V30 15676 O 1496.68 -0.286961 1.93787 0
M  V30 15677 H 1495.26 0.672371 0.325463 0
M  V30 15678 H 1497.92 1.94264 0.157325 0
M  V30 15679 H 1497.01 2.76714 1.44345 0
M  V30 15680 N 1497.32 -0.429099 1.51646 0
M  V30 15681 C 1498.25 -1.52867 1.76505 0
M  V30 15682 C 1499.23 -1.58586 0.615178 0
M  V30 15683 O 1500.41 -1.74182 0.858742 0
M  V30 15684 C 1497.54 -2.90875 1.8976 0
M  V30 15685 C 1496.5 -3.00014 3.05247 0
M  V30 15686 C 1495.82 -4.40082 3.03696 0
M  V30 15687 C 1497.12 -2.73334 4.45068 0
M  V30 15688 H 1498.82 -1.32315 2.68576 0
M  V30 15689 H 1496.36 -0.635091 1.29238 0
M  V30 15690 H 1498.31 -3.67765 2.05734 0
M  V30 15691 H 1497.04 -3.12677 0.943442 0
M  V30 15692 H 1495.7 -2.25565 2.88991 0
M  V30 15693 H 1495.35 -4.58864 2.06042 0
M  V30 15694 H 1495.05 -4.47125 3.81252 0
M  V30 15695 H 1496.57 -5.18935 3.21774 0
M  V30 15696 H 1497.98 -3.39954 4.61632 0
M  V30 15697 H 1496.38 -2.91777 5.24391 0
M  V30 15698 H 1497.45 -1.68889 4.54538 0
M  V30 15699 N 1498.79 -1.41931 -0.685074 0
M  V30 15700 C 1500.03 -1.43328 -1.45727 0
M  V30 15701 C 1500.4 -0.0443486 -1.91949 0
M  V30 15702 O 1501.6 0.0669235 -2.68717 0
M  V30 15703 C 1499.87 -2.42071 -2.62938 0
M  V30 15704 S 1501.43 -2.62085 -3.51933 0
M  V30 15705 H 1498.25 -0.507607 -0.497852 0
M  V30 15706 H 1500.85 -1.78453 -0.798414 0
M  V30 15707 H 1499.55 -3.41771 -2.27203 0
M  V30 15708 H 1499.08 -2.08335 -3.33707 0
M  V30 15709 H 1501.1 -1.89613 -4.58543 0
M  V30 15710 N 1500.27 0.920374 -1.27933 0
M  V30 15711 C 1501.23 2.0035 -1.11321 0
M  V30 15712 C 1502.23 1.60706 -0.0549132 0
M  V30 15713 O 1503.42 1.71595 -0.300134 0
M  V30 15714 C 1500.56 3.33681 -0.69782 0
M  V30 15715 H 1501.75 2.16518 -2.07509 0
M  V30 15716 H 1499.3 1.10216 -1.10825 0
M  V30 15717 H 1500.04 3.23214 0.265122 0
M  V30 15718 H 1499.82 3.63815 -1.46223 0
M  V30 15719 H 1501.31 4.13208 -0.604048 0
M  V30 15720 N 1501.75 1.10074 1.1279 0
M  V30 15721 C 1503 0.839212 1.83852 0
M  V30 15722 C 1503.32 -0.637023 1.84301 0
M  V30 15723 O 1502.59 -1.46239 1.30349 0
M  V30 15724 H 1501.17 0.307468 0.680788 0
M  V30 15725 H 1503.83 1.39025 1.36595 0
M  V30 15726 H 1502.93 1.19872 2.88162 0
M  V30 15727 N 1503.23 -1.30138 0.888926 0
M  V30 15728 C 1504.5 -1.90831 0.42928 0
M  V30 15729 C 1504.88 -1.80765 -1.09028 0
M  V30 15730 O 1504.23 -1.22741 -1.92735 0
M  V30 15731 C 1504.44 -3.36331 0.931798 0
M  V30 15732 C 1505.79 -4.13393 0.969106 0
M  V30 15733 O 1506.81 -3.45191 0.878731 0
M  V30 15734 O 1505.67 -5.35249 1.10323 0
M  V30 15735 H 1502.77 -0.816401 0.131976 0
M  V30 15736 H 1505.31 -1.38678 0.978086 0
M  V30 15737 H 1504.09 -3.37761 1.97568 0
M  V30 15738 H 1503.71 -3.95945 0.362383 0
M  V30 15739 N 1504.71 -0.650285 -1.43559 0
M  V30 15740 C 1505.64 0.0295939 -2.33481 0
M  V30 15741 C 1506.62 0.815017 -1.49303 0
M  V30 15742 O 1507.8 0.77708 -1.77975 0
M  V30 15743 C 1504.93 0.998683 -3.32631 0
M  V30 15744 C 1503.89 0.323577 -4.26775 0
M  V30 15745 C 1503.21 1.40391 -5.1594 0
M  V30 15746 C 1504.51 -0.782197 -5.1641 0
M  V30 15747 H 1506.21 -0.721349 -2.9058 0
M  V30 15748 H 1503.75 -0.348339 -1.39723 0
M  V30 15749 H 1505.7 1.4832 -3.94435 0
M  V30 15750 H 1504.43 1.78075 -2.73782 0
M  V30 15751 H 1503.09 -0.140467 -3.66331 0
M  V30 15752 H 1502.74 2.17734 -4.53432 0
M  V30 15753 H 1502.44 0.957462 -5.79747 0
M  V30 15754 H 1503.96 1.88985 -5.80618 0
M  V30 15755 H 1505.37 -0.379966 -5.72039 0
M  V30 15756 H 1503.77 -1.15293 -5.88921 0
M  V30 15757 H 1504.84 -1.6414 -4.56274 0
M  V30 15758 N 1506.18 1.52647 -0.392018 0
M  V30 15759 C 1507.43 2.00798 0.19056 0
M  V30 15760 C 1507.75 1.28265 1.47673 0
M  V30 15761 O 1508.95 1.67142 2.13953 0
M  V30 15762 C 1507.41 3.57779 0.390148 0
M  V30 15763 C 1507.02 4.39213 -0.882933 0
M  V30 15764 C 1508.76 4.14211 0.928945 0
M  V30 15765 C 1506.67 5.87801 -0.651474 0
M  V30 15766 H 1505.6 0.750262 0.0749879 0
M  V30 15767 H 1508.25 1.7613 -0.514835 0
M  V30 15768 H 1506.63 3.78707 1.15746 0
M  V30 15769 H 1507.8 4.30051 -1.65507 0
M  V30 15770 H 1506.12 3.94015 -1.34688 0
M  V30 15771 H 1508.72 5.22884 1.11787 0
M  V30 15772 H 1509.06 3.70475 1.89878 0
M  V30 15773 H 1509.59 3.97185 0.221135 0
M  V30 15774 H 1506.33 6.35864 -1.59239 0
M  V30 15775 H 1505.85 5.99744 0.0816786 0
M  V30 15776 H 1507.53 6.46363 -0.287057 0
M  V30 15777 N 1507.66 0.121921 1.57128 0
M  V30 15778 C 1508.89 -0.543012 1.99647 0
M  V30 15779 C 1509.31 -1.60038 1.00165 0
M  V30 15780 O 1508.66 -1.82499 -0.00504688 0
M  V30 15781 C 1508.71 -1.1665 3.42162 0
M  V30 15782 O 1508.43 -0.151385 4.37838 0
M  V30 15783 C 1509.94 -1.91447 3.99829 0
M  V30 15784 H 1507.16 -0.143524 0.655471 0
M  V30 15785 H 1509.7 0.20912 2.03428 0
M  V30 15786 H 1507.85 -1.86939 3.39312 0
M  V30 15787 H 1508.27 -0.604773 5.21002 0
M  V30 15788 H 1509.74 -2.30394 5.0162 0
M  V30 15789 H 1510.22 -2.7908 3.39133 0
M  V30 15790 H 1510.83 -1.25913 4.06234 0
M  V30 15791 N 1509.14 -1.56867 -0.151857 0
M  V30 15792 C 1510.09 -1.94315 -1.19271 0
M  V30 15793 C 1511.07 -0.813807 -1.38802 0
M  V30 15794 O 1512.27 -1.07722 -1.40446 0
M  V30 15795 C 1509.4 -2.32316 -2.52753 0
M  V30 15796 C 1508.48 -3.5181 -2.36835 0
M  V30 15797 N 1508.87 -4.68488 -1.90663 0
M  V30 15798 C 1507.17 -3.56799 -2.67602 0
M  V30 15799 C 1507.87 -5.50594 -1.87673 0
M  V30 15800 N 1506.85 -4.92169 -2.30805 0
M  V30 15801 H 1510.65 -2.82003 -0.827747 0
M  V30 15802 H 1508.16 -1.58361 -0.359958 0
M  V30 15803 H 1510.16 -2.57347 -3.27991 0
M  V30 15804 H 1508.82 -1.45977 -2.90036 0
M  V30 15805 H 1509.83 -4.92336 -1.60703 0
M  V30 15806 H 1506.51 -2.80988 -3.08791 0
M  V30 15807 H 1507.9 -6.54129 -1.53509 0
M  V30 15808 N 1510.62 0.421051 -1.51871 0
M  V30 15809 C 1511.86 1.17082 -1.65589 0
M  V30 15810 C 1512.2 1.90469 -0.378861 0
M  V30 15811 O 1511.47 1.84277 0.622259 0
M  V30 15812 C 1511.76 2.17483 -2.87007 0
M  V30 15813 C 1511.61 1.48071 -4.24729 0
M  V30 15814 C 1512.93 3.18288 -3.03942 0
M  V30 15815 H 1510.05 0.424284 -0.602621 0
M  V30 15816 H 1512.69 0.457998 -1.84397 0
M  V30 15817 H 1510.84 2.78273 -2.71102 0
M  V30 15818 H 1512.51 0.904926 -4.52337 0
M  V30 15819 H 1510.75 0.782814 -4.26678 0
M  V30 15820 H 1511.42 2.21272 -5.0571 0
M  V30 15821 H 1513.9 2.67565 -3.18666 0
M  V30 15822 H 1512.78 3.85815 -3.90433 0
M  V30 15823 H 1513.04 3.85333 -2.16728 0
M  V30 15824 N 1512.1 1.42293 0.677538 0
M  V30 15825 C 1513.04 1.45787 1.81243 0
M  V30 15826 C 1514.04 0.333895 1.66077 0
M  V30 15827 O 1515.24 0.50678 1.72719 0
M  V30 15828 H 1511.62 0.456538 0.597559 0
M  V30 15829 H 1513.59 2.41398 1.75413 0
M  V30 15830 C 1512.34 1.37449 3.19379 0
M  V30 15831 H 1511.66 2.23231 3.31674 0
M  V30 15832 H 1513.1 1.43955 3.98814 0
M  V30 15833 C 1511.56 0.0889433 3.36783 0
M  V30 15834 O 1512.09 -0.859357 3.924 0
M  V30 15835 N 1510.3 0.00698476 2.90599 0
M  V30 15836 H 1509.84 0.779459 2.45524 0
M  V30 15837 H 1509.8 -0.852522 3.02621 0
M  V30 15838 N 1513.57 -0.913576 1.28419 0
M  V30 15839 C 1514.82 -1.65944 1.15355 0
M  V30 15840 C 1515.14 -1.92706 -0.298228 0
M  V30 15841 O 1514.41 -1.54333 -1.20657 0
M  V30 15842 H 1512.99 -0.615063 0.423919 0
M  V30 15843 H 1515.66 -1.0962 1.6115 0
M  V30 15844 H 1514.75 -2.62173 1.69327 0
M  V30 15845 N 1515.05 -1.1067 -1.12204 0
M  V30 15846 C 1515.96 -0.770221 -2.21596 0
M  V30 15847 C 1516.98 0.233297 -1.72429 0
M  V30 15848 O 1518.15 0.0714493 -2.01273 0
M  V30 15849 C 1515.22 -0.209682 -3.46065 0
M  V30 15850 C 1514.28 -1.27079 -4.1006 0
M  V30 15851 C 1513.51 -0.736899 -5.28588 0
M  V30 15852 O 1513.74 0.435838 -5.68732 0
M  V30 15853 O 1512.67 -1.49797 -5.82962 0
M  V30 15854 H 1516.5 -1.6834 -2.52776 0
M  V30 15855 H 1514.08 -0.882012 -1.20586 0
M  V30 15856 H 1515.96 0.0989516 -4.21284 0
M  V30 15857 H 1514.64 0.676316 -3.16556 0
M  V30 15858 H 1513.55 -1.63231 -3.3661 0
M  V30 15859 H 1514.88 -2.12989 -4.4373 0
M  V30 15860 N 1516.53 1.29665 -0.895815 0
M  V30 15861 C 1517.94 1.77825 -0.568784 0
M  V30 15862 C 1518.29 1.73534 0.915443 0
M  V30 15863 O 1517.42 1.31885 1.71567 0
M  V30 15864 C 1518.01 3.22901 -1.0257 0
M  V30 15865 C 1516.57 3.68854 -0.749903 0
M  V30 15866 C 1515.72 2.49866 -1.20259 0
M  V30 15867 H 1518.67 1.16381 -1.07894 0
M  V30 15868 H 1518.69 3.788 -0.359312 0
M  V30 15869 H 1518.2 3.25991 -2.10597 0
M  V30 15870 H 1516.3 3.71241 0.317916 0
M  V30 15871 H 1516.42 4.59831 -1.34506 0
M  V30 15872 H 1514.78 2.46997 -0.621676 0
M  V30 15873 H 1515.56 2.55687 -2.29083 0
M  V30 15874 N 1518.01 0.657889 1.43212 0
M  V30 15875 C 1519.25 0.173443 2.02057 0
M  V30 15876 C 1519.59 -1.21108 1.51811 0
M  V30 15877 O 1518.86 -1.80953 0.71317 0
M  V30 15878 C 1519.15 0.189429 3.59601 0
M  V30 15879 C 1519 1.6082 4.20068 0
M  V30 15880 C 1520.32 -0.471633 4.37566 0
M  V30 15881 H 1517.44 0.0644999 0.734172 0
M  V30 15882 H 1520.08 0.839462 1.7045 0
M  V30 15883 H 1518.23 -0.377689 3.8666 0
M  V30 15884 H 1519.9 2.22627 4.04024 0
M  V30 15885 H 1518.14 2.15407 3.7654 0
M  V30 15886 H 1518.81 1.5712 5.29167 0
M  V30 15887 H 1521.29 0.0109387 4.16099 0
M  V30 15888 H 1520.17 -0.429739 5.47215 0
M  V30 15889 H 1520.43 -1.54652 4.14168 0
M  V30 15890 N 1519.49 -1.52437 0.400108 0
M  V30 15891 C 1520.44 -2.23576 -0.446964 0
M  V30 15892 C 1521.42 -1.24368 -1.02085 0
M  V30 15893 O 1522.61 -1.49652 -0.945165 0
M  V30 15894 C 1519.74 -3.05402 -1.56795 0
M  V30 15895 C 1518.83 -4.12013 -1.00527 0
M  V30 15896 N 1519.22 -5.05519 -0.168475 0
M  V30 15897 C 1517.52 -4.27337 -1.27669 0
M  V30 15898 C 1518.22 -5.81523 0.143579 0
M  V30 15899 N 1517.19 -5.41623 -0.463209 0
M  V30 15900 H 1521 -2.93227 0.198775 0
M  V30 15901 H 1518.51 -1.61036 0.210019 0
M  V30 15902 H 1520.51 -3.54912 -2.1873 0
M  V30 15903 H 1519.17 -2.37288 -2.2164 0
M  V30 15904 H 1520.18 -5.17532 0.195125 0
M  V30 15905 H 1516.85 -3.70452 -1.92539 0
M  V30 15906 H 1518.24 -6.6685 0.822256 0
M  V30 15907 N 1520.96 -0.130252 -1.57061 0
M  V30 15908 C 1522.21 0.523969 -1.9519 0
M  V30 15909 C 1522.53 1.66493 -1.01514 0
M  V30 15910 O 1521.8 1.95762 -0.0735194 0
M  V30 15911 H 1520.38 0.196553 -0.720677 0
M  V30 15912 H 1523.05 -0.20183 -1.93852 0
M  V30 15913 H 1522.14 0.911156 -2.98504 0
M  V30 15914 N 1522.44 1.56945 0.143535 0
M  V30 15915 C 1523.38 1.93682 1.20675 0
M  V30 15916 C 1524.35 0.803117 1.41382 0
M  V30 15917 O 1525.54 1.05905 1.55937 0
M  V30 15918 C 1522.67 2.21185 2.56505 0
M  V30 15919 C 1521.71 3.43817 2.52372 0
M  V30 15920 S 1522.54 4.9726 1.98728 0
M  V30 15921 C 1523.7 5.27889 3.3628 0
M  V30 15922 H 1523.93 2.83561 0.893345 0
M  V30 15923 H 1521.47 1.50397 0.349294 0
M  V30 15924 H 1523.42 2.3771 3.3467 0
M  V30 15925 H 1522.09 1.31964 2.85034 0
M  V30 15926 H 1521.28 3.60349 3.5237 0
M  V30 15927 H 1520.88 3.26552 1.82318 0
M  V30 15928 H 1523.17 5.21568 4.32404 0
M  V30 15929 H 1524.12 6.29318 3.24598 0
M  V30 15930 H 1524.52 4.55398 3.33576 0
M  V30 15931 N 1523.92 -0.412991 1.52093 0
M  V30 15932 C 1525.17 -1.16202 1.66208 0
M  V30 15933 C 1525.5 -1.90265 0.388957 0
M  V30 15934 O 1524.78 -1.84605 -0.612477 0
M  V30 15935 C 1525.06 -2.15958 2.88157 0
M  V30 15936 C 1524.91 -1.45817 4.25509 0
M  V30 15937 C 1526.23 -3.16671 3.05626 0
M  V30 15938 H 1523.35 -0.421083 0.604862 0
M  V30 15939 H 1525.99 -0.448212 1.84638 0
M  V30 15940 H 1524.14 -2.76831 2.72574 0
M  V30 15941 H 1525.81 -0.880925 4.52811 0
M  V30 15942 H 1524.06 -0.760175 4.27088 0
M  V30 15943 H 1524.73 -2.18587 5.06877 0
M  V30 15944 H 1527.2 -2.65871 3.20081 0
M  V30 15945 H 1526.08 -3.83739 3.92474 0
M  V30 15946 H 1526.34 -3.84178 2.18769 0
M  V30 15947 N 1525.4 -1.4265 -0.669982 0
M  V30 15948 C 1526.35 -1.42958 -1.77615 0
M  V30 15949 C 1527.33 -0.30025 -1.58074 0
M  V30 15950 O 1528.53 -0.54283 -1.68471 0
M  V30 15951 C 1525.65 -1.33911 -3.16106 0
M  V30 15952 C 1524.74 -2.51808 -3.41253 0
M  V30 15953 N 1525.13 -3.77216 -3.36959 0
M  V30 15954 C 1523.43 -2.46172 -3.71908 0
M  V30 15955 C 1524.13 -4.55555 -3.61724 0
M  V30 15956 N 1523.11 -3.86036 -3.82724 0
M  V30 15957 H 1526.91 -2.3781 -1.72696 0
M  V30 15958 H 1524.42 -1.37066 -0.871009 0
M  V30 15959 H 1526.42 -1.32214 -3.9538 0
M  V30 15960 H 1525.08 -0.400652 -3.22219 0
M  V30 15961 H 1526.09 -4.09743 -3.16751 0
M  V30 15962 H 1522.77 -1.6093 -3.85237 0
M  V30 15963 H 1524.16 -5.6455 -3.64325 0
M  V30 15964 N 1526.88 0.906753 -1.28902 0
M  V30 15965 C 1528.29 1.47175 -1.14876 0
M  V30 15966 C 1528.64 1.94487 0.258693 0
M  V30 15967 O 1527.76 1.83088 1.15359 0
M  V30 15968 C 1528.36 2.67491 -2.07928 0
M  V30 15969 C 1526.92 3.20148 -1.97946 0
M  V30 15970 C 1526.07 1.92846 -1.99263 0
M  V30 15971 H 1529.02 0.718777 -1.4149 0
M  V30 15972 H 1529.04 3.42989 -1.64738 0
M  V30 15973 H 1528.55 2.33025 -3.10356 0
M  V30 15974 H 1526.65 3.59322 -0.985806 0
M  V30 15975 H 1526.76 3.84923 -2.85256 0
M  V30 15976 H 1525.13 2.10247 -1.43765 0
M  V30 15977 H 1525.91 1.60666 -3.03383 0
M  V30 15978 N 1528.36 1.11264 1.11616 0
M  V30 15979 C 1529.27 0.781961 2.21184 0
M  V30 15980 C 1530.28 -0.224149 1.7255 0
M  V30 15981 O 1531.46 -0.0607743 2.01308 0
M  V30 15982 C 1528.52 0.228031 3.45949 0
M  V30 15983 C 1527.58 1.29251 4.09381 0
M  V30 15984 C 1526.82 0.764921 5.2819 0
M  V30 15985 O 1527.04 -0.405671 5.68956 0
M  V30 15986 O 1525.97 1.52886 5.82159 0
M  V30 15987 H 1529.8 1.69678 2.51879 0
M  V30 15988 H 1527.38 0.888394 1.20116 0
M  V30 15989 H 1529.27 -0.0766085 4.2133 0
M  V30 15990 H 1527.94 -0.659519 3.1691 0
M  V30 15991 H 1526.85 1.65014 3.3574 0
M  V30 15992 H 1528.18 2.15339 4.42595 0
M  V30 15993 N 1529.83 -1.29188 0.902679 0
M  V30 15994 C 1531.08 -1.95727 0.530909 0
M  V30 15995 C 1531.41 -1.70971 -0.921014 0
M  V30 15996 O 1530.69 -1.02436 -1.65339 0
M  V30 15997 C 1530.97 -3.50463 0.827523 0
M  V30 15998 C 1530.82 -3.84665 2.33137 0
M  V30 15999 C 1532.14 -4.38964 0.316053 0
M  V30 16000 H 1529.26 -0.71091 0.194361 0
M  V30 16001 H 1531.9 -1.52752 1.1299 0
M  V30 16002 H 1530.05 -3.87199 0.317732 0
M  V30 16003 H 1531.73 -3.57859 2.91093 0
M  V30 16004 H 1529.97 -3.32102 2.79088 0
M  V30 16005 H 1530.64 -4.92676 2.48947 0
M  V30 16006 H 1533.12 -4.09237 0.75262 0
M  V30 16007 H 1531.99 -5.4611 0.552769 0
M  V30 16008 H 1532.25 -4.35105 -0.783329 0
M  V30 16009 N 1531.31 -0.665475 -1.42861 0
M  V30 16010 C 1532.56 -0.184156 -2.01962 0
M  V30 16011 C 1532.89 1.20301 -1.52451 0
M  V30 16012 O 1532.17 1.80573 -0.722756 0
M  V30 16013 C 1532.45 -0.208497 -3.59496 0
M  V30 16014 C 1532.3 -1.63045 -4.19209 0
M  V30 16015 C 1533.62 0.448421 -4.3781 0
M  V30 16016 H 1530.74 -0.0683924 -0.73382 0
M  V30 16017 H 1533.38 -0.84849 -1.70002 0
M  V30 16018 H 1531.53 0.357179 -3.86855 0
M  V30 16019 H 1533.2 -2.24766 -4.02837 0
M  V30 16020 H 1531.45 -2.17401 -3.75392 0
M  V30 16021 H 1532.12 -1.59924 -5.28326 0
M  V30 16022 H 1534.59 -0.0330053 -4.16087 0
M  V30 16023 H 1533.47 0.400713 -5.47435 0
M  V30 16024 H 1533.73 1.52454 -4.14982 0
M  V30 16025 N 1532.79 1.52222 -0.408187 0
M  V30 16026 C 1533.7 2.30725 0.424645 0
M  V30 16027 C 1534.72 1.38412 1.05442 0
M  V30 16028 O 1535.89 1.71486 1.05614 0
M  V30 16029 C 1532.96 3.11273 1.52677 0
M  V30 16030 C 1532.02 4.19323 0.920143 0
M  V30 16031 C 1531.25 4.96021 1.96974 0
M  V30 16032 O 1531.47 4.73011 3.18774 0
M  V30 16033 O 1530.41 5.80887 1.5765 0
M  V30 16034 H 1534.23 3.02935 -0.215411 0
M  V30 16035 H 1531.82 1.48413 -0.171414 0
M  V30 16036 H 1533.7 3.61436 2.16661 0
M  V30 16037 H 1532.38 2.41857 2.15144 0
M  V30 16038 H 1531.28 3.7331 0.243037 0
M  V30 16039 H 1532.62 4.91028 0.339405 0
M  V30 16040 N 1534.27 0.138579 1.5699 0
M  V30 16041 C 1535.2 -0.800568 2.19347 0
M  V30 16042 C 1536.18 -1.26318 1.13921 0
M  V30 16043 O 1537.36 -1.32226 1.42232 0
M  V30 16044 C 1534.49 -2.04317 2.80842 0
M  V30 16045 C 1533.45 -1.71764 3.92022 0
M  V30 16046 C 1532.77 -3.03217 4.40413 0
M  V30 16047 C 1534.07 -0.970789 5.13199 0
M  V30 16048 H 1535.77 -0.280888 2.98079 0
M  V30 16049 H 1533.31 -0.133663 1.43378 0
M  V30 16050 H 1535.27 -2.70491 3.2313 0
M  V30 16051 H 1533.99 -2.58643 1.99428 0
M  V30 16052 H 1532.65 -1.07972 3.50339 0
M  V30 16053 H 1532.3 -3.55517 3.55832 0
M  V30 16054 H 1532 -2.82203 5.15398 0
M  V30 16055 H 1533.52 -3.70477 4.85365 0
M  V30 16056 H 1534.94 -1.53445 5.52384 0
M  V30 16057 H 1533.33 -0.860895 5.93893 0
M  V30 16058 H 1534.4 0.0390088 4.84884 0
M  V30 16059 N 1535.75 -1.57019 -0.13521 0
M  V30 16060 C 1536.99 -1.83178 -0.844308 0
M  V30 16061 C 1537.31 -0.7217 -1.81799 0
M  V30 16062 O 1538.51 -0.869232 -2.57209 0
M  V30 16063 C 1536.97 -3.2471 -1.55214 0
M  V30 16064 C 1536.58 -4.43685 -0.620268 0
M  V30 16065 C 1538.32 -3.60133 -2.24732 0
M  V30 16066 C 1536.23 -5.76242 -1.3304 0
M  V30 16067 H 1535.16 -0.683175 -0.319041 0
M  V30 16068 H 1537.81 -1.83243 -0.0970242 0
M  V30 16069 H 1536.19 -3.19067 -2.34547 0
M  V30 16070 H 1537.37 -4.60591 0.138685 0
M  V30 16071 H 1535.68 -4.16387 -0.0328906 0
M  V30 16072 H 1538.28 -4.56431 -2.78522 0
M  V30 16073 H 1538.62 -2.86767 -3.01779 0
M  V30 16074 H 1539.15 -3.67489 -1.52305 0
M  V30 16075 H 1535.89 -6.52734 -0.60155 0
M  V30 16076 H 1535.41 -5.63251 -2.06176 0
M  V30 16077 H 1537.09 -6.19445 -1.86808 0
M  V30 16078 N 1537.22 0.404919 -1.52309 0
M  V30 16079 C 1538.15 1.50039 -1.78915 0
M  V30 16080 C 1539.14 1.57587 -0.640329 0
M  V30 16081 O 1540.32 1.72793 -0.886344 0
M  V30 16082 C 1537.45 2.87819 -1.94364 0
M  V30 16083 C 1536.4 2.9512 -3.09981 0
M  V30 16084 C 1535.73 4.35195 -3.10659 0
M  V30 16085 C 1537.03 2.66219 -4.4936 0
M  V30 16086 H 1538.72 1.28025 -2.70647 0
M  V30 16087 H 1536.27 0.61445 -1.30233 0
M  V30 16088 H 1538.22 3.64446 -2.11559 0
M  V30 16089 H 1536.95 3.11136 -0.993067 0
M  V30 16090 H 1535.61 2.20939 -2.92543 0
M  V30 16091 H 1535.25 4.55528 -2.13316 0
M  V30 16092 H 1534.95 4.41003 -3.88317 0
M  V30 16093 H 1536.48 5.1375 -3.29989 0
M  V30 16094 H 1537.89 3.32567 -4.66982 0
M  V30 16095 H 1536.29 2.83398 -5.28967 0
M  V30 16096 H 1537.36 1.61636 -4.57167 0
M  V30 16097 N 1538.7 1.43003 0.662408 0
M  V30 16098 C 1539.65 1.47448 1.77561 0
M  V30 16099 C 1540.62 0.325121 1.62887 0
M  V30 16100 O 1541.8 0.530971 1.83263 0
M  V30 16101 C 1538.94 1.3946 3.15666 0
M  V30 16102 C 1538.06 2.64529 3.41539 0
M  V30 16103 C 1537.19 2.48594 4.69441 0
M  V30 16104 C 1536.23 3.68976 4.88388 0
M  V30 16105 N 1535.37 3.51908 6.0754 0
M  V30 16106 H 1540.21 2.42573 1.73097 0
M  V30 16107 H 1537.75 1.2042 0.84484 0
M  V30 16108 H 1539.7 1.32824 3.95492 0
M  V30 16109 H 1538.33 0.479227 3.19223 0
M  V30 16110 H 1537.39 2.81481 2.55877 0
M  V30 16111 H 1538.7 3.53977 3.51429 0
M  V30 16112 H 1537.85 2.39614 5.57378 0
M  V30 16113 H 1536.59 1.56656 4.61855 0
M  V30 16114 H 1535.6 3.78374 3.9889 0
M  V30 16115 H 1536.82 4.61911 4.9781 0
M  V30 16116 H 1534.77 2.62697 6.01104 0
M  V30 16117 H 1534.68 4.34951 6.18347 0
M  V30 16118 H 1535.95 3.46763 6.98123 0
M  V30 16119 N 1540.18 -0.899904 1.29381 0
M  V30 16120 C 1541.41 -1.68911 1.20349 0
M  V30 16121 C 1541.83 -1.86657 -0.232523 0
M  V30 16122 O 1541.19 -1.38674 -1.16787 0
M  V30 16123 C 1541.24 -3.05124 1.92177 0
M  V30 16124 O 1540.34 -3.93358 1.23867 0
M  V30 16125 H 1539.68 -0.516698 0.417036 0
M  V30 16126 H 1542.21 -1.12422 1.70946 0
M  V30 16127 H 1542.22 -3.55267 2.00623 0
M  V30 16128 H 1540.9 -2.91525 2.96624 0
M  V30 16129 H 1539.47 -3.51793 1.23677 0
M  V30 16130 N 1541.66 -1.11854 -1.11024 0
M  V30 16131 C 1542.91 -0.868355 -1.82494 0
M  V30 16132 C 1543.23 0.607622 -1.85292 0
M  V30 16133 O 1542.5 1.44147 -1.32659 0
M  V30 16134 H 1541.08 -0.31826 -0.67581 0
M  V30 16135 H 1543.74 -1.4118 -1.34366 0
M  V30 16136 H 1542.84 -1.24441 -2.86218 0
M  V30 16137 N 1543.14 1.28707 -0.909517 0
M  V30 16138 C 1544.08 2.29396 -0.384756 0
M  V30 16139 C 1545.08 1.61179 0.521318 0
M  V30 16140 O 1546.28 1.7543 0.403032 0
M  V30 16141 H 1542.66 0.744518 -0.105814 0
M  V30 16142 H 1544.63 2.71089 -1.24714 0
M  V30 16143 C 1543.38 3.45792 0.363795 0
M  V30 16144 H 1542.7 3.98483 -0.324198 0
M  V30 16145 H 1544.14 4.18254 0.695681 0
M  V30 16146 C 1542.6 2.98075 1.57012 0
M  V30 16147 O 1543.13 3.00187 2.66929 0
M  V30 16148 N 1541.34 2.53787 1.41565 0
M  V30 16149 H 1540.88 2.52268 0.521415 0
M  V30 16150 H 1540.84 2.2222 2.22408 0
M  V30 16151 N 1544.61 0.673042 1.42506 0
M  V30 16152 C 1545.56 -0.00638067 2.30799 0
M  V30 16153 C 1546.53 -0.794524 1.45865 0
M  V30 16154 O 1547.72 -0.767129 1.74699 0
M  V30 16155 C 1544.86 -0.952923 3.31683 0
M  V30 16156 C 1543.97 -0.158787 4.31708 0
M  V30 16157 C 1543.1 -1.10092 5.19666 0
M  V30 16158 C 1542.14 -0.29837 6.11372 0
M  V30 16159 N 1541.28 -1.19312 6.91888 0
M  V30 16160 H 1546.12 0.75237 2.88346 0
M  V30 16161 H 1543.66 0.382763 1.42033 0
M  V30 16162 H 1545.62 -1.51552 3.887 0
M  V30 16163 H 1544.25 -1.67832 2.75739 0
M  V30 16164 H 1543.3 0.520406 3.76823 0
M  V30 16165 H 1544.61 0.464385 4.96634 0
M  V30 16166 H 1543.76 -1.7335 5.81407 0
M  V30 16167 H 1542.5 -1.75798 4.54914 0
M  V30 16168 H 1541.51 0.347437 5.48701 0
M  V30 16169 H 1542.73 0.354569 6.78174 0
M  V30 16170 H 1540.68 -1.83661 6.29765 0
M  V30 16171 H 1540.6 -0.624986 7.53412 0
M  V30 16172 H 1541.86 -1.81323 7.58118 0
M  V30 16173 N 1546.09 -1.52004 0.416254 0
M  V30 16174 C 1547.34 -2.02188 -0.157434 0
M  V30 16175 C 1547.67 -1.30097 -1.44182 0
M  V30 16176 O 1546.95 -0.409426 -1.90142 0
M  V30 16177 C 1547.23 -3.57896 -0.397847 0
M  V30 16178 C 1547.08 -4.40628 0.903715 0
M  V30 16179 C 1548.4 -4.24072 -1.17689 0
M  V30 16180 H 1545.52 -0.734889 -0.0557437 0
M  V30 16181 H 1548.16 -1.81831 0.551118 0
M  V30 16182 H 1546.31 -3.75372 -1.00142 0
M  V30 16183 H 1547.98 -4.34848 1.53964 0
M  V30 16184 H 1546.23 -4.06556 1.5131 0
M  V30 16185 H 1546.9 -5.47673 0.689802 0
M  V30 16186 H 1549.37 -4.10738 -0.665832 0
M  V30 16187 H 1548.25 -5.32944 -1.31386 0
M  V30 16188 H 1548.51 -3.83507 -2.19942 0
M  V30 16189 N 1547.57 -0.146903 -1.56914 0
M  V30 16190 C 1548.53 0.778709 -2.15566 0
M  V30 16191 C 1549.53 1.1753 -1.09742 0
M  V30 16192 O 1550.72 1.09624 -1.35382 0
M  V30 16193 C 1547.86 2.0567 -2.71869 0
M  V30 16194 H 1549.05 0.268506 -2.98696 0
M  V30 16195 H 1546.6 0.10254 -1.55963 0
M  V30 16196 H 1547.34 2.61057 -1.92405 0
M  V30 16197 H 1547.12 1.78154 -3.4929 0
M  V30 16198 H 1548.61 2.71779 -3.17059 0
M  V30 16199 N 1549.05 1.57088 0.126881 0
M  V30 16200 C 1550.29 1.84709 0.837287 0
M  V30 16201 C 1550.63 0.731496 1.79897 0
M  V30 16202 O 1549.9 -0.263319 1.92709 0
M  V30 16203 C 1550.19 3.22893 1.59412 0
M  V30 16204 C 1550.04 4.45041 0.652578 0
M  V30 16205 C 1551.36 3.58547 2.5521 0
M  V30 16206 H 1548.48 0.671862 0.302937 0
M  V30 16207 H 1551.12 1.89727 0.101783 0
M  V30 16208 H 1549.27 3.18746 2.22112 0
M  V30 16209 H 1550.94 4.61287 0.0350382 0
M  V30 16210 H 1549.18 4.33785 -0.0364578 0
M  V30 16211 H 1549.85 5.38381 1.21861 0
M  V30 16212 H 1552.33 3.63434 2.0262 0
M  V30 16213 H 1551.21 4.56227 3.05202 0
M  V30 16214 H 1551.47 2.85552 3.37509 0
M  V30 16215 N 1550.53 -0.396836 1.52522 0
M  V30 16216 C 1551.75 -1.16404 1.71049 0
M  V30 16217 C 1552.17 -1.83946 0.425378 0
M  V30 16218 O 1551.53 -1.7237 -0.599561 0
M  V30 16219 C 1551.58 -2.21796 2.85463 0
M  V30 16220 O 1551.3 -1.57009 4.08998 0
M  V30 16221 C 1552.8 -3.11303 3.15603 0
M  V30 16222 H 1550.02 -0.349314 0.572905 0
M  V30 16223 H 1552.56 -0.465297 1.99136 0
M  V30 16224 H 1550.72 -2.87318 2.59859 0
M  V30 16225 H 1551.13 -2.26977 4.72844 0
M  V30 16226 H 1552.61 -3.81299 3.99143 0
M  V30 16227 H 1553.08 -3.7437 2.2966 0
M  V30 16228 H 1553.69 -2.51435 3.43017 0
M  V30 16229 N 1552.01 -1.43353 -0.654814 0
M  V30 16230 C 1553.23 -1.48322 -1.4425 0
M  V30 16231 C 1553.65 -0.100608 -1.88532 0
M  V30 16232 O 1553.01 0.888831 -1.59393 0
M  V30 16233 C 1553.06 -2.42769 -2.67853 0
M  V30 16234 O 1552.78 -3.75653 -2.25424 0
M  V30 16235 C 1554.28 -2.56964 -3.61226 0
M  V30 16236 H 1551.5 -0.503805 -0.443195 0
M  V30 16237 H 1554.04 -1.88078 -0.802916 0
M  V30 16238 H 1552.2 -2.06212 -3.27956 0
M  V30 16239 H 1552.61 -4.26427 -3.05386 0
M  V30 16240 H 1554.09 -3.27129 -4.44624 0
M  V30 16241 H 1554.56 -1.61404 -4.08467 0
M  V30 16242 H 1555.17 -2.94325 -3.07006 0
M  V30 16243 N 1553.48 0.89303 -1.29857 0
M  V30 16244 C 1554.71 1.67744 -1.21119 0
M  V30 16245 C 1555.13 1.87428 0.227198 0
M  V30 16246 O 1554.48 1.41605 1.15128 0
M  V30 16247 C 1554.53 3.05827 -1.92749 0
M  V30 16248 O 1554.26 2.87036 -3.30971 0
M  V30 16249 C 1555.76 4.00248 -1.9057 0
M  V30 16250 H 1552.98 0.523699 -0.4195 0
M  V30 16251 H 1555.52 1.1163 -1.71344 0
M  V30 16252 H 1553.68 3.58696 -1.46342 0
M  V30 16253 H 1554.09 3.74578 -3.6714 0
M  V30 16254 H 1555.56 4.9453 -2.45242 0
M  V30 16255 H 1556.04 4.30237 -0.882753 0
M  V30 16256 H 1556.65 3.53312 -2.36751 0
M  V30 16257 N 1554.96 1.12442 1.10429 0
M  V30 16258 C 1556.37 0.894147 1.63896 0
M  V30 16259 C 1556.72 -0.571509 1.87692 0
M  V30 16260 O 1555.85 -1.43595 1.61893 0
M  V30 16261 C 1556.44 1.61664 2.97742 0
M  V30 16262 C 1555 1.43251 3.48075 0
M  V30 16263 C 1554.15 1.65252 2.22682 0
M  V30 16264 H 1557.1 1.27918 0.939289 0
M  V30 16265 H 1557.12 1.06771 3.65213 0
M  V30 16266 H 1556.63 2.68333 2.80391 0
M  V30 16267 H 1554.73 0.388385 3.7057 0
M  V30 16268 H 1554.85 2.18866 4.26186 0
M  V30 16269 H 1553.21 1.07663 2.30827 0
M  V30 16270 H 1553.99 2.73219 2.07862 0
M  V30 16271 N 1556.44 -1.28223 0.91633 0
M  V30 16272 C 1557.69 -1.94865 0.550823 0
M  V30 16273 C 1558.01 -1.72113 -0.905945 0
M  V30 16274 O 1557.27 -1.03668 -1.65987 0
M  V30 16275 C 1557.57 -3.48112 0.809509 0
M  V30 16276 C 1557.23 -3.90967 2.24623 0
M  V30 16277 C 1555.9 -4.02379 2.63903 0
M  V30 16278 C 1558.25 -4.12865 3.18106 0
M  V30 16279 C 1555.58 -4.33069 3.95814 0
M  V30 16280 C 1557.93 -4.45036 4.49584 0
M  V30 16281 C 1556.59 -4.54659 4.88714 0
M  V30 16282 H 1555.86 -0.71306 0.20156 0
M  V30 16283 H 1558.51 -1.5251 1.15814 0
M  V30 16284 H 1556.81 -3.91618 0.119411 0
M  V30 16285 H 1558.51 -3.97797 0.505843 0
M  V30 16286 H 1555.1 -3.82614 1.93144 0
M  V30 16287 H 1559.29 -4.035 2.88966 0
M  V30 16288 H 1554.54 -4.38725 4.25829 0
M  V30 16289 H 1558.72 -4.60928 5.22033 0
M  V30 16290 H 1556.34 -4.78194 5.90961 0
M  V30 16291 N 1557.92 -0.68059 -1.42147 0
M  V30 16292 C 1558.83 -0.00595573 -2.34599 0
M  V30 16293 C 1559.84 0.782528 -1.55411 0
M  V30 16294 O 1561.02 0.723524 -1.87955 0
M  V30 16295 C 1558.08 0.92964 -3.34004 0
M  V30 16296 C 1557.15 0.135041 -4.29088 0
M  V30 16297 C 1556.38 1.02607 -5.23744 0
M  V30 16298 O 1556.6 2.26562 -5.23475 0
M  V30 16299 O 1555.54 0.483774 -5.99953 0
M  V30 16300 H 1559.36 -0.767652 -2.93838 0
M  V30 16301 H 1556.95 -0.440849 -1.42748 0
M  V30 16302 H 1558.83 1.46657 -3.95057 0
M  V30 16303 H 1557.5 1.67109 -2.7723 0
M  V30 16304 H 1556.41 -0.44613 -3.7143 0
M  V30 16305 H 1557.74 -0.567417 -4.88918 0
M  V30 16306 N 1559.4 1.51781 -0.424309 0
M  V30 16307 C 1560.34 2.2899 0.408193 0
M  V30 16308 C 1561.34 1.34301 1.03246 0
M  V30 16309 O 1562.54 1.51697 0.968919 0
M  V30 16310 H 1558.92 0.736799 0.150435 0
M  V30 16311 H 1560.89 2.9723 -0.264022 0
M  V30 16312 C 1559.64 3.13477 1.50425 0
M  V30 16313 H 1558.96 3.86218 1.03324 0
M  V30 16314 H 1560.4 3.7058 2.06026 0
M  V30 16315 C 1558.86 2.2801 2.48018 0
M  V30 16316 O 1559.39 1.93076 3.52257 0
M  V30 16317 N 1557.6 1.91484 2.18591 0
M  V30 16318 H 1557.14 2.20093 1.33854 0
M  V30 16319 H 1557.1 1.34595 2.84133 0
M  V30 16320 N 1560.87 0.155222 1.56834 0
M  V30 16321 C 1562.1 -0.500542 2.00754 0
M  V30 16322 C 1562.52 -1.57878 1.03538 0
M  V30 16323 O 1561.87 -1.82469 0.0336651 0
M  V30 16324 C 1561.92 -1.09366 3.4456 0
M  V30 16325 O 1561.65 -0.0584788 4.38061 0
M  V30 16326 C 1563.15 -1.82923 4.038 0
M  V30 16327 H 1560.37 -0.129589 0.658368 0
M  V30 16328 H 1562.91 0.252223 2.02939 0
M  V30 16329 H 1561.07 -1.797 3.43201 0
M  V30 16330 H 1561.48 -0.494125 5.22167 0
M  V30 16331 H 1562.95 -2.19703 5.06394 0
M  V30 16332 H 1563.43 -2.71823 3.44976 0
M  V30 16333 H 1564.04 -1.17268 4.08813 0
M  V30 16334 N 1562.35 -1.57153 -0.118549 0
M  V30 16335 C 1563.58 -1.89434 -0.844355 0
M  V30 16336 C 1564 -0.747203 -1.72622 0
M  V30 16337 O 1563.36 0.302252 -1.78763 0
M  V30 16338 C 1563.41 -3.20466 -1.65331 0
M  V30 16339 O 1562.51 -3.06403 -2.76027 0
M  V30 16340 H 1561.85 -0.621601 -0.23347 0
M  V30 16341 H 1564.38 -2.04351 -0.100811 0
M  V30 16342 H 1564.39 -3.53197 -2.04245 0
M  V30 16343 H 1563.07 -4.03551 -1.00594 0
M  V30 16344 H 1561.64 -2.85139 -2.40312 0
M  V30 16345 N 1563.83 0.388742 -1.5273 0
M  V30 16346 C 1565.08 1.13094 -1.67011 0
M  V30 16347 C 1565.39 1.91115 -0.416467 0
M  V30 16348 O 1566.6 2.67921 -0.43941 0
M  V30 16349 C 1565.05 2.0595 -2.95149 0
M  V30 16350 C 1564.66 1.3335 -4.27694 0
M  V30 16351 C 1566.41 2.80303 -3.18795 0
M  V30 16352 C 1564.31 2.24973 -5.46938 0
M  V30 16353 H 1563.24 0.425887 -0.622203 0
M  V30 16354 H 1565.89 0.393708 -1.79227 0
M  V30 16355 H 1564.28 2.83309 -2.7668 0
M  V30 16356 H 1565.45 0.612137 -4.56716 0
M  V30 16357 H 1563.76 0.709547 -4.1031 0
M  V30 16358 H 1566.36 3.49036 -4.05065 0
M  V30 16359 H 1566.7 3.44394 -2.33877 0
M  V30 16360 H 1567.24 2.10036 -3.37831 0
M  V30 16361 H 1563.98 1.65497 -6.34264 0
M  V30 16362 H 1563.5 2.95024 -5.22227 0
M  V30 16363 H 1565.18 2.8505 -5.80823 0
M  V30 16364 N 1565.31 1.43698 0.647203 0
M  V30 16365 C 1566.72 1.27231 0.963563 0
M  V30 16366 C 1566.92 0.196385 2.00541 0
M  V30 16367 O 1565.98 -0.423162 2.48929 0
M  V30 16368 C 1567.29 2.63863 1.44211 0
M  V30 16369 C 1568.84 2.71444 1.55844 0
M  V30 16370 C 1569.32 4.08508 2.07087 0
M  V30 16371 N 1570.81 4.10603 2.14381 0
M  V30 16372 C 1571.54 5.13496 2.55166 0
M  V30 16373 N 1571.04 6.26759 2.95203 0
M  V30 16374 N 1572.83 5.0085 2.55158 0
M  V30 16375 H 1564.98 2.12358 -0.0420956 0
M  V30 16376 H 1567.24 0.946989 0.0437628 0
M  V30 16377 H 1566.95 3.43589 0.75096 0
M  V30 16378 H 1566.82 2.89666 2.41605 0
M  V30 16379 H 1569.21 1.92046 2.24058 0
M  V30 16380 H 1569.29 2.49399 0.56866 0
M  V30 16381 H 1568.94 4.88375 1.39472 0
M  V30 16382 H 1568.87 4.2792 3.06907 0
M  V30 16383 H 1571.36 3.2885 1.86188 0
M  V30 16384 H 1571.67 7.01096 3.25091 0
M  V30 16385 H 1570.02 6.30222 2.92993 0
M  V30 16386 H 1573.21 4.11428 2.2326 0
M  V30 16387 H 1573.38 5.81165 2.86621 0
M  V30 16388 N 1566.79 -0.886131 1.30328 0
M  V30 16389 C 1568.04 -1.63255 1.18451 0
M  V30 16390 C 1568.35 -1.93864 -0.260016 0
M  V30 16391 O 1569.55 -2.66851 -0.500288 0
M  V30 16392 C 1568.01 -2.94232 2.07257 0
M  V30 16393 C 1567.62 -2.71168 3.56612 0
M  V30 16394 C 1569.36 -3.72193 2.04139 0
M  V30 16395 C 1567.27 -3.97954 4.37478 0
M  V30 16396 H 1566.2 -0.612491 0.439739 0
M  V30 16397 H 1568.85 -0.981129 1.55068 0
M  V30 16398 H 1567.23 -3.60661 1.63522 0
M  V30 16399 H 1568.41 -2.13247 4.08488 0
M  V30 16400 H 1566.72 -2.06584 3.61541 0
M  V30 16401 H 1569.32 -4.66219 2.61809 0
M  V30 16402 H 1569.66 -4.03495 1.02459 0
M  V30 16403 H 1570.19 -3.12624 2.45989 0
M  V30 16404 H 1566.93 -3.71811 5.39849 0
M  V30 16405 H 1566.45 -4.55384 3.90366 0
M  V30 16406 H 1568.13 -4.65984 4.48852 0
M  V30 16407 N 1568.26 -1.13026 -1.09832 0
M  V30 16408 C 1569.51 -0.887662 -1.81563 0
M  V30 16409 C 1569.83 0.587935 -1.85926 0
M  V30 16410 O 1569.1 1.42732 -1.3418 0
M  V30 16411 H 1567.68 -0.32541 -0.672397 0
M  V30 16412 H 1570.35 -1.42597 -1.32861 0
M  V30 16413 H 1569.44 -1.2747 -2.84882 0
M  V30 16414 N 1569.74 1.27735 -0.923117 0
M  V30 16415 C 1571.15 1.76579 -0.606376 0
M  V30 16416 C 1571.5 1.75437 0.878428 0
M  V30 16417 O 1570.63 1.35495 1.68731 0
M  V30 16418 C 1571.22 3.20652 -1.09396 0
M  V30 16419 C 1569.78 3.67181 -0.827974 0
M  V30 16420 C 1568.93 2.47259 -1.25532 0
M  V30 16421 H 1571.88 1.14067 -1.10338 0
M  V30 16422 H 1571.9 3.77952 -0.439581 0
M  V30 16423 H 1571.41 3.21451 -2.17465 0
M  V30 16424 H 1569.52 3.71832 0.239098 0
M  V30 16425 H 1569.63 4.56875 -1.44229 0
M  V30 16426 H 1567.99 2.45622 -0.673928 0
M  V30 16427 H 1568.78 2.50771 -2.34455 0
M  V30 16428 N 1571.22 0.688118 1.41784 0
M  V30 16429 C 1572.18 0.0271411 2.29184 0
M  V30 16430 C 1573.18 -0.715537 1.44002 0
M  V30 16431 O 1574.37 -0.551542 1.65238 0
M  V30 16432 C 1571.51 -0.97206 3.26747 0
M  V30 16433 H 1572.7 0.79658 2.89127 0
M  V30 16434 H 1570.25 0.451198 1.49646 0
M  V30 16435 H 1570.99 -1.76953 2.71769 0
M  V30 16436 H 1570.77 -0.442746 3.89592 0
M  V30 16437 H 1572.26 -1.43256 3.92259 0
M  V30 16438 N 1572.7 -1.51554 0.432352 0
M  V30 16439 C 1574.11 -1.59377 0.0843863 0
M  V30 16440 C 1574.31 -1.44364 -1.40575 0
M  V30 16441 O 1573.37 -1.28234 -2.17514 0
M  V30 16442 C 1574.68 -2.94652 0.600046 0
M  V30 16443 C 1576.23 -3.07949 0.560049 0
M  V30 16444 C 1576.71 -4.4574 1.0526 0
M  V30 16445 N 1578.2 -4.52046 1.01038 0
M  V30 16446 C 1578.93 -5.56979 1.36242 0
M  V30 16447 N 1578.43 -6.69355 1.78707 0
M  V30 16448 N 1580.22 -5.47311 1.2809 0
M  V30 16449 H 1572.37 -1.59558 1.40197 0
M  V30 16450 H 1574.64 -0.751868 0.577406 0
M  V30 16451 H 1574.34 -3.10993 1.64245 0
M  V30 16452 H 1574.22 -3.77193 0.0222482 0
M  V30 16453 H 1576.6 -2.91279 -0.473357 0
M  V30 16454 H 1576.68 -2.27259 1.17419 0
M  V30 16455 H 1576.33 -4.63156 2.08445 0
M  V30 16456 H 1576.26 -5.24962 0.415047 0
M  V30 16457 H 1578.75 -3.71389 0.69847 0
M  V30 16458 H 1579.06 -7.45438 2.03819 0
M  V30 16459 H 1577.41 -6.70576 1.82629 0
M  V30 16460 H 1580.6 -4.58403 0.947848 0
M  V30 16461 H 1580.77 -6.28978 1.55855 0
M  V30 16462 N 1574.18 -0.163538 -1.56749 0
M  V30 16463 C 1575.59 0.192717 -1.58432 0
M  V30 16464 C 1575.79 1.63438 -1.17856 0
M  V30 16465 O 1574.85 2.36425 -0.88654 0
M  V30 16466 C 1576.16 -0.0810427 -3.00591 0
M  V30 16467 C 1577.71 -0.0186378 -3.12994 0
M  V30 16468 C 1578.18 -0.265283 -4.57231 0
M  V30 16469 N 1579.68 -0.212787 -4.62711 0
M  V30 16470 C 1580.41 -0.37791 -5.72153 0
M  V30 16471 N 1579.91 -0.601663 -6.90182 0
M  V30 16472 N 1581.7 -0.314357 -5.6122 0
M  V30 16473 H 1573.85 -1.10467 -1.81413 0
M  V30 16474 H 1576.11 -0.438569 -0.840453 0
M  V30 16475 H 1575.82 -1.07944 -3.34725 0
M  V30 16476 H 1575.69 0.630888 -3.71887 0
M  V30 16477 H 1578.08 0.970324 -2.78691 0
M  V30 16478 H 1578.16 -0.763158 -2.44151 0
M  V30 16479 H 1577.81 -1.25142 -4.92242 0
M  V30 16480 H 1577.74 0.499756 -5.24223 0
M  V30 16481 H 1580.23 -0.0451754 -3.77873 0
M  V30 16482 H 1580.54 -0.717319 -7.69464 0
M  V30 16483 H 1578.88 -0.638184 -6.92064 0
M  V30 16484 H 1582.08 -0.140197 -4.6789 0
M  V30 16485 H 1582.25 -0.446472 -6.4646 0
M  V30 16486 N 1575.65 1.57214 0.110213 0
M  V30 16487 C 1576.88 1.8988 0.834297 0
M  V30 16488 C 1577.3 0.756347 1.72224 0
M  V30 16489 O 1576.66 -0.292768 1.78921 0
M  V30 16490 C 1576.71 3.21338 1.63629 0
M  V30 16491 O 1575.81 3.07862 2.74399 0
M  V30 16492 H 1575.16 0.62283 0.23017 0
M  V30 16493 H 1577.69 2.04402 0.0899726 0
M  V30 16494 H 1577.7 3.54275 2.02369 0
M  V30 16495 H 1576.37 4.04079 0.984521 0
M  V30 16496 H 1574.95 2.8641 2.38797 0
M  V30 16497 N 1577.13 -0.380637 1.52934 0
M  V30 16498 C 1578.36 -1.15033 1.72575 0
M  V30 16499 C 1578.78 -1.82715 0.446869 0
M  V30 16500 O 1578.14 -1.71154 -0.598004 0
M  V30 16501 C 1578.19 -2.16773 2.8817 0
M  V30 16502 O 1577.29 -3.23539 2.55727 0
M  V30 16503 H 1576.63 -0.334489 0.573597 0
M  V30 16504 H 1579.16 -0.442369 1.9976 0
M  V30 16505 H 1579.17 -2.60629 3.13905 0
M  V30 16506 H 1577.85 -1.669 3.80943 0
M  V30 16507 H 1576.43 -2.84761 2.4076 0
M  V30 16508 N 1578.61 -1.44039 -0.639573 0
M  V30 16509 C 1579.84 -1.49626 -1.42462 0
M  V30 16510 C 1580.25 -0.117078 -1.88837 0
M  V30 16511 O 1579.59 0.885666 -1.6094 0
M  V30 16512 C 1579.65 -2.39182 -2.68388 0
M  V30 16513 C 1579.32 -3.86496 -2.43865 0
M  V30 16514 C 1580.31 -4.7725 -2.06224 0
M  V30 16515 C 1578 -4.31117 -2.57766 0
M  V30 16516 C 1579.99 -6.10625 -1.82801 0
M  V30 16517 C 1577.68 -5.64541 -2.33958 0
M  V30 16518 C 1578.68 -6.54113 -1.96533 0
M  V30 16519 O 1578.37 -7.85068 -1.72983 0
M  V30 16520 H 1578.1 -0.510054 -0.443645 0
M  V30 16521 H 1580.65 -1.89593 -0.790162 0
M  V30 16522 H 1578.88 -1.94127 -3.34442 0
M  V30 16523 H 1580.57 -2.35816 -3.30372 0
M  V30 16524 H 1581.34 -4.44051 -1.95048 0
M  V30 16525 H 1577.22 -3.61663 -2.85868 0
M  V30 16526 H 1580.76 -6.80499 -1.53514 0
M  V30 16527 H 1576.66 -5.97304 -2.44741 0
M  V30 16528 H 1577.43 -7.96782 -1.87298 0
M  V30 16529 N 1580.09 0.879207 -1.30796 0
M  V30 16530 C 1581.04 1.98553 -1.17667 0
M  V30 16531 C 1582.01 1.65974 -0.0647231 0
M  V30 16532 O 1583.19 1.89336 -0.235941 0
M  V30 16533 C 1580.33 3.3368 -0.880434 0
M  V30 16534 C 1579.44 3.78913 -2.07482 0
M  V30 16535 C 1578.58 5.02714 -1.71617 0
M  V30 16536 C 1577.62 5.40371 -2.87517 0
M  V30 16537 N 1576.75 6.55352 -2.5191 0
M  V30 16538 H 1581.59 2.09115 -2.12309 0
M  V30 16539 H 1579.13 1.02382 -1.05623 0
M  V30 16540 H 1581.09 4.11467 -0.689278 0
M  V30 16541 H 1579.72 3.22787 0.0291283 0
M  V30 16542 H 1578.77 2.96987 -2.37704 0
M  V30 16543 H 1580.08 4.02757 -2.94259 0
M  V30 16544 H 1579.24 5.88142 -1.4891 0
M  V30 16545 H 1577.98 4.80754 -0.820181 0
M  V30 16546 H 1576.98 4.53466 -3.10883 0
M  V30 16547 H 1578.21 5.64301 -3.77811 0
M  V30 16548 H 1576.15 6.34956 -1.64823 0
M  V30 16549 H 1576.07 6.79093 -3.32217 0
M  V30 16550 H 1577.34 7.43996 -2.32573 0
M  V30 16551 N 1581.57 1.13606 1.09231 0
M  V30 16552 C 1582.53 0.818197 2.14099 0
M  V30 16553 C 1583.53 -0.173275 1.59864 0
M  V30 16554 O 1584.72 0.05405 1.74116 0
M  V30 16555 C 1581.85 0.218138 3.40201 0
M  V30 16556 H 1583.05 1.74748 2.43727 0
M  V30 16557 H 1580.6 0.940962 1.24802 0
M  V30 16558 H 1581.33 -0.720269 3.162 0
M  V30 16559 H 1581.12 0.932156 3.80859 0
M  V30 16560 H 1582.61 0.0126639 4.17598 0
M  V30 16561 N 1583.05 -1.27244 0.929878 0
M  V30 16562 C 1583.99 -2.26773 0.429287 0
M  V30 16563 C 1584.96 -1.58238 -0.50498 0
M  V30 16564 O 1586.15 -1.86037 -0.423661 0
M  V30 16565 C 1583.29 -3.43706 -0.309865 0
M  V30 16566 C 1582.4 -4.26948 0.658764 0
M  V30 16567 C 1581.54 -5.31105 -0.10045 0
M  V30 16568 C 1580.57 -6.06018 0.860743 0
M  V30 16569 N 1579.71 -7.01972 0.134015 0
M  V30 16570 H 1584.55 -2.68967 1.283 0
M  V30 16571 H 1582.09 -1.32257 0.643923 0
M  V30 16572 H 1584.05 -4.10316 -0.754754 0
M  V30 16573 H 1582.68 -3.02457 -1.1278 0
M  V30 16574 H 1581.73 -3.60232 1.22218 0
M  V30 16575 H 1583.04 -4.78946 1.39326 0
M  V30 16576 H 1582.19 -6.03674 -0.605153 0
M  V30 16577 H 1580.93 -4.79915 -0.867902 0
M  V30 16578 H 1579.94 -5.32285 1.37668 0
M  V30 16579 H 1581.16 -6.59297 1.62801 0
M  V30 16580 H 1579.11 -6.53109 -0.615152 0
M  V30 16581 H 1579.03 -7.51669 0.808045 0
M  V30 16582 H 1580.29 -7.78714 -0.349964 0
M  V30 16583 N 1584.52 -0.695628 -1.41417 0
M  V30 16584 C 1585.46 0.0202064 -2.28191 0
M  V30 16585 C 1586.43 0.787887 -1.42236 0
M  V30 16586 O 1587.62 0.778692 -1.71664 0
M  V30 16587 C 1584.75 1.03599 -3.22467 0
M  V30 16588 C 1583.79 0.361472 -4.24965 0
M  V30 16589 S 1584.62 -0.896181 -5.27948 0
M  V30 16590 C 1585.78 0.118005 -6.25789 0
M  V30 16591 H 1586.01 -0.715769 -2.88555 0
M  V30 16592 H 1583.55 -0.485904 -1.46555 0
M  V30 16593 H 1585.5 1.6169 -3.77315 0
M  V30 16594 H 1584.17 1.74454 -2.61198 0
M  V30 16595 H 1583.36 1.12866 -4.912 0
M  V30 16596 H 1582.96 -0.146366 -3.73713 0
M  V30 16597 H 1585.25 0.971258 -6.70502 0
M  V30 16598 H 1586.2 -0.510417 -7.06258 0
M  V30 16599 H 1586.6 0.472806 -5.62516 0
M  V30 16600 N 1586 1.51322 -0.440383 0
M  V30 16601 C 1586.96 2.26388 0.357911 0
M  V30 16602 C 1587.96 1.2995 0.947083 0
M  V30 16603 O 1589.15 1.53637 0.821057 0
M  V30 16604 C 1586.29 3.05797 1.50669 0
M  V30 16605 H 1587.48 2.98396 -0.300002 0
M  V30 16606 H 1585.03 1.55096 -0.193628 0
M  V30 16607 H 1585.77 2.38213 2.20057 0
M  V30 16608 H 1585.55 3.76634 1.09037 0
M  V30 16609 H 1587.04 3.6265 2.07062 0
M  V30 16610 N 1587.48 0.171848 1.5666 0
M  V30 16611 C 1588.9 -0.184312 1.58532 0
M  V30 16612 C 1589.1 -1.62811 1.18721 0
M  V30 16613 O 1588.15 -2.35951 0.899066 0
M  V30 16614 C 1589.46 0.0969826 3.00544 0
M  V30 16615 C 1591.01 0.0352364 3.1298 0
M  V30 16616 C 1591.49 0.289528 4.57084 0
M  V30 16617 N 1592.98 0.237322 4.62592 0
M  V30 16618 C 1593.71 0.408247 5.71945 0
M  V30 16619 N 1593.21 0.638256 6.89854 0
M  V30 16620 N 1595 0.344115 5.61046 0
M  V30 16621 H 1587.15 1.11427 1.80825 0
M  V30 16622 H 1589.42 0.44302 0.838115 0
M  V30 16623 H 1589.12 1.09717 3.34148 0
M  V30 16624 H 1589 -0.611157 3.72216 0
M  V30 16625 H 1591.38 -0.955531 2.79202 0
M  V30 16626 H 1591.46 0.776095 2.43743 0
M  V30 16627 H 1591.11 1.27751 4.91571 0
M  V30 16628 H 1591.04 -0.471948 5.24481 0
M  V30 16629 H 1593.53 0.0652142 3.77844 0
M  V30 16630 H 1593.84 0.758116 7.69072 0
M  V30 16631 H 1592.19 0.674877 6.91716 0
M  V30 16632 H 1595.38 0.165008 4.67809 0
M  V30 16633 H 1595.55 0.480749 6.46214 0
M  V30 16634 N 1588.96 -1.5727 -0.101874 0
M  V30 16635 C 1590.37 -1.5295 -0.455899 0
M  V30 16636 C 1590.57 -0.887526 -1.80901 0
M  V30 16637 O 1589.63 -0.477143 -2.47951 0
M  V30 16638 C 1590.94 -2.97687 -0.424625 0
M  V30 16639 C 1592.49 -3.08867 -0.506963 0
M  V30 16640 C 1592.97 -4.55197 -0.505907 0
M  V30 16641 N 1594.46 -4.59718 -0.566856 0
M  V30 16642 C 1595.19 -5.7038 -0.587766 0
M  V30 16643 N 1594.69 -6.9049 -0.56529 0
M  V30 16644 N 1596.48 -5.58535 -0.632067 0
M  V30 16645 H 1588.63 -1.97381 0.784509 0
M  V30 16646 H 1590.89 -0.902141 0.291284 0
M  V30 16647 H 1590.6 -3.48094 0.502312 0
M  V30 16648 H 1590.47 -3.56022 -1.24612 0
M  V30 16649 H 1592.86 -2.58451 -1.42432 0
M  V30 16650 H 1592.94 -2.53496 0.342544 0
M  V30 16651 H 1592.59 -5.06263 0.407477 0
M  V30 16652 H 1592.52 -5.08399 -1.37253 0
M  V30 16653 H 1595.01 -3.73271 -0.589696 0
M  V30 16654 H 1595.32 -7.70588 -0.584342 0
M  V30 16655 H 1593.67 -6.92957 -0.532444 0
M  V30 16656 H 1596.86 -4.63606 -0.647109 0
M  V30 16657 H 1597.03 -6.44783 -0.644895 0
M  V30 16658 N 1590.44 0.372521 -1.53134 0
M  V30 16659 C 1591.38 1.47633 -1.79742 0
M  V30 16660 C 1592.38 1.55752 -0.66617 0
M  V30 16661 O 1593.58 1.58721 -0.848979 0
M  V30 16662 H 1589.96 0.491677 -0.568997 0
M  V30 16663 H 1591.93 1.22392 -2.72145 0
M  V30 16664 C 1590.68 2.84559 -1.99803 0
M  V30 16665 H 1590 2.79069 -2.86288 0
M  V30 16666 H 1591.44 3.60989 -2.22402 0
M  V30 16667 C 1589.9 3.27861 -0.775162 0
M  V30 16668 O 1590.43 4.01681 0.0394991 0
M  V30 16669 N 1588.64 2.84326 -0.600573 0
M  V30 16670 H 1588.18 2.2442 -1.26466 0
M  V30 16671 H 1588.14 3.13655 0.216241 0
M  V30 16672 N 1591.91 1.44376 0.631925 0
M  V30 16673 C 1592.86 1.51181 1.74393 0
M  V30 16674 C 1593.83 0.359599 1.62161 0
M  V30 16675 O 1595.02 0.569725 1.82096 0
M  V30 16676 C 1592.16 1.46124 3.12637 0
M  V30 16677 C 1591.27 2.71714 3.35851 0
M  V30 16678 C 1590.4 2.58496 4.64062 0
M  V30 16679 C 1589.44 3.79252 4.80452 0
M  V30 16680 N 1588.58 3.64715 5.99939 0
M  V30 16681 H 1593.42 2.4619 1.67912 0
M  V30 16682 H 1590.96 1.22184 0.819108 0
M  V30 16683 H 1592.91 1.41183 3.92585 0
M  V30 16684 H 1591.54 0.546831 3.18135 0
M  V30 16685 H 1590.6 2.86845 2.49848 0
M  V30 16686 H 1591.91 3.61351 3.43841 0
M  V30 16687 H 1591.06 2.51383 5.5217 0
M  V30 16688 H 1589.8 1.66417 4.58428 0
M  V30 16689 H 1588.81 3.8675 3.90774 0
M  V30 16690 H 1590.03 4.72367 4.879 0
M  V30 16691 H 1587.98 2.75388 5.95397 0
M  V30 16692 H 1587.89 4.47969 6.08982 0
M  V30 16693 H 1589.16 3.61493 6.90611 0
M  V30 16694 N 1593.39 -0.872258 1.31261 0
M  V30 16695 C 1594.81 -1.15763 1.09868 0
M  V30 16696 C 1595.01 -2.01065 -0.132331 0
M  V30 16697 O 1594.06 -2.38735 -0.822317 0
M  V30 16698 C 1595.38 -1.85199 2.36901 0
M  V30 16699 C 1596.92 -1.9791 2.42489 0
M  V30 16700 C 1597.4 -2.70759 3.69396 0
M  V30 16701 N 1598.89 -2.78296 3.70278 0
M  V30 16702 C 1599.63 -3.3527 4.65168 0
M  V30 16703 N 1599.12 -3.93193 5.70413 0
M  V30 16704 N 1600.91 -3.33206 4.52692 0
M  V30 16705 H 1593.07 -0.303784 2.10216 0
M  V30 16706 H 1595.33 -0.197172 0.927269 0
M  V30 16707 H 1595.03 -1.29968 3.26804 0
M  V30 16708 H 1594.91 -2.85493 2.46523 0
M  V30 16709 H 1597.3 -2.52305 1.53056 0
M  V30 16710 H 1597.38 -0.966644 2.36833 0
M  V30 16711 H 1597.02 -2.17031 4.59195 0
M  V30 16712 H 1596.95 -3.72407 3.72318 0
M  V30 16713 H 1599.44 -2.37185 2.94197 0
M  V30 16714 H 1599.75 -4.34771 6.38901 0
M  V30 16715 H 1598.1 -3.91575 5.7419 0
M  V30 16716 H 1601.29 -2.87191 3.69647 0
M  V30 16717 H 1601.46 -3.7731 5.26822 0
M  V30 16718 N 1594.87 -1.14184 -1.08627 0
M  V30 16719 C 1596.28 -0.920108 -1.62453 0
M  V30 16720 C 1596.63 0.541577 -1.88577 0
M  V30 16721 O 1595.76 1.41002 -1.64157 0
M  V30 16722 C 1596.35 -1.6638 -2.95132 0
M  V30 16723 C 1594.91 -1.48771 -3.45752 0
M  V30 16724 C 1594.06 -1.68774 -2.20024 0
M  V30 16725 H 1597.01 -1.29396 -0.91882 0
M  V30 16726 H 1597.03 -1.12568 -3.63468 0
M  V30 16727 H 1596.54 -2.72759 -2.76087 0
M  V30 16728 H 1594.64 -0.44729 -3.69905 0
M  V30 16729 H 1594.76 -2.25619 -4.2265 0
M  V30 16730 H 1593.12 -1.11321 -2.29084 0
M  V30 16731 H 1593.9 -2.76491 -2.03489 0
M  V30 16732 N 1596.35 1.26749 -0.936613 0
M  V30 16733 C 1597.57 1.98597 -0.597817 0
M  V30 16734 C 1598 1.69324 0.8192 0
M  V30 16735 O 1597.36 0.938634 1.55111 0
M  V30 16736 C 1597.4 3.50656 -0.841007 0
M  V30 16737 O 1596.51 4.12304 0.0891038 0
M  V30 16738 H 1595.85 0.623197 -0.229176 0
M  V30 16739 H 1598.38 1.61332 -1.2583 0
M  V30 16740 H 1598.39 4.00857 -0.760093 0
M  V30 16741 H 1597.06 3.71293 -1.87388 0
M  V30 16742 H 1595.64 3.72876 -0.0424804 0
M  V30 16743 N 1597.83 0.703118 1.41046 0
M  V30 16744 C 1598.79 0.0514476 2.29142 0
M  V30 16745 C 1599.79 -0.700223 1.44753 0
M  V30 16746 O 1600.98 -0.533985 1.65814 0
M  V30 16747 C 1598.11 -0.93735 3.2776 0
M  V30 16748 H 1599.3 0.827201 2.88266 0
M  V30 16749 H 1596.86 0.467045 1.49159 0
M  V30 16750 H 1597.59 -1.7406 2.7363 0
M  V30 16751 H 1597.38 -0.4014 3.9004 0
M  V30 16752 H 1598.87 -1.39088 3.93757 0
M  V30 16753 N 1599.3 -1.51086 0.448402 0
M  V30 16754 C 1600.25 -2.28015 -0.357438 0
M  V30 16755 C 1601.22 -1.32079 -1.00719 0
M  V30 16756 O 1602.41 -1.60995 -1.02398 0
M  V30 16757 C 1599.55 -3.13324 -1.44644 0
M  V30 16758 C 1598.66 -4.24267 -0.813729 0
M  V30 16759 C 1597.79 -4.96868 -1.87871 0
M  V30 16760 C 1596.83 -5.99716 -1.22502 0
M  V30 16761 N 1595.97 -6.65682 -2.23185 0
M  V30 16762 H 1600.81 -2.96436 0.30493 0
M  V30 16763 H 1598.35 -1.46203 0.162222 0
M  V30 16764 H 1600.31 -3.61119 -2.08924 0
M  V30 16765 H 1598.94 -2.46996 -2.07829 0
M  V30 16766 H 1597.99 -3.80354 -0.0589414 0
M  V30 16767 H 1599.3 -4.97917 -0.296587 0
M  V30 16768 H 1598.45 -5.48266 -2.59786 0
M  V30 16769 H 1597.19 -4.22873 -2.42961 0
M  V30 16770 H 1596.2 -5.476 -0.491388 0
M  V30 16771 H 1597.42 -6.75674 -0.681315 0
M  V30 16772 H 1595.37 -5.94493 -2.77334 0
M  V30 16773 H 1595.29 -7.35134 -1.76393 0
M  V30 16774 H 1596.55 -7.21707 -2.9455 0
M  V30 16775 N 1600.78 -0.180154 -1.56567 0
M  V30 16776 C 1601.69 0.758959 -2.21984 0
M  V30 16777 C 1602.71 1.24631 -1.21422 0
M  V30 16778 O 1603.88 1.29659 -1.54112 0
M  V30 16779 C 1600.95 1.96744 -2.85469 0
M  V30 16780 C 1600.01 1.52612 -4.01258 0
M  V30 16781 C 1599.24 2.677 -4.61706 0
M  V30 16782 O 1599.47 3.84799 -4.21054 0
M  V30 16783 O 1598.4 2.41269 -5.51428 0
M  V30 16784 H 1602.23 0.231919 -3.02813 0
M  V30 16785 H 1599.81 0.0484552 -1.49321 0
M  V30 16786 H 1601.69 2.67404 -3.25689 0
M  V30 16787 H 1600.37 2.48337 -2.0763 0
M  V30 16788 H 1599.28 0.78877 -3.6569 0
M  V30 16789 H 1600.61 1.05701 -4.80716 0
M  V30 16790 N 1602.26 1.57322 0.0935319 0
M  V30 16791 C 1603.51 1.858 0.795165 0
M  V30 16792 C 1603.83 0.769078 1.79193 0
M  V30 16793 O 1603.1 -0.204511 1.9483 0
M  V30 16794 H 1601.68 0.68557 0.296653 0
M  V30 16795 H 1604.34 1.94756 0.0747892 0
M  V30 16796 H 1603.44 2.82588 1.32479 0
M  V30 16797 N 1603.74 -0.364395 1.53329 0
M  V30 16798 C 1604.67 -1.46658 1.76137 0
M  V30 16799 C 1605.68 -1.496 0.642166 0
M  V30 16800 O 1606.87 -1.53058 0.918452 0
M  V30 16801 C 1603.97 -2.85417 1.8273 0
M  V30 16802 C 1603.15 -3.06158 3.12388 0
M  V30 16803 C 1602.2 -4.25038 3.10208 0
M  V30 16804 O 1601.23 -4.20156 3.84002 0
M  V30 16805 N 1602.43 -5.32511 2.31111 0
M  V30 16806 H 1605.2 -1.27471 2.7124 0
M  V30 16807 H 1602.76 -0.554127 1.52122 0
M  V30 16808 H 1604.75 -3.63086 1.78748 0
M  V30 16809 H 1603.32 -2.97845 0.949058 0
M  V30 16810 H 1602.54 -2.16139 3.29663 0
M  V30 16811 H 1603.83 -3.16885 3.98072 0
M  V30 16812 H 1603.23 -5.39341 1.70669 0
M  V30 16813 H 1601.78 -6.08752 2.32946 0
M  V30 16814 N 1605.22 -1.44709 -0.62426 0
M  V30 16815 C 1606.13 -1.54608 -1.76447 0
M  V30 16816 C 1607.14 -0.43137 -1.68568 0
M  V30 16817 O 1608.32 -0.6897 -1.89222 0
M  V30 16818 C 1605.38 -1.49404 -3.12857 0
M  V30 16819 C 1604.44 -2.71782 -3.32315 0
M  V30 16820 C 1603.68 -2.66817 -4.62217 0
M  V30 16821 O 1603.9 -1.73205 -5.43467 0
M  V30 16822 O 1602.83 -3.57773 -4.84027 0
M  V30 16823 H 1606.66 -2.50951 -1.71048 0
M  V30 16824 H 1604.25 -1.27033 -0.786326 0
M  V30 16825 H 1606.13 -1.4905 -3.9416 0
M  V30 16826 H 1604.8 -0.562078 -3.18783 0
M  V30 16827 H 1603.71 -2.77702 -2.50664 0
M  V30 16828 H 1605.04 -3.64048 -3.31255 0
M  V30 16829 N 1606.69 0.865285 -1.31722 0
M  V30 16830 C 1607.92 1.65661 -1.24785 0
M  V30 16831 C 1608.34 1.87208 0.182952 0
M  V30 16832 O 1607.7 1.41721 1.1307 0
M  V30 16833 C 1607.75 2.99921 -2.00199 0
M  V30 16834 O 1606.85 3.89936 -1.34253 0
M  V30 16835 H 1606.2 0.505459 -0.430589 0
M  V30 16836 H 1608.73 1.0785 -1.73867 0
M  V30 16837 H 1608.74 3.49823 -2.09971 0
M  V30 16838 H 1607.41 2.83559 -3.04249 0
M  V30 16839 H 1605.99 3.4839 -1.32961 0
M  V30 16840 N 1608.17 1.14759 1.0802 0
M  V30 16841 C 1609.12 0.838134 2.15044 0
M  V30 16842 C 1610.09 -0.206031 1.64817 0
M  V30 16843 O 1611.27 -0.0750812 1.90652 0
M  V30 16844 C 1608.41 0.326112 3.43556 0
M  V30 16845 C 1607.53 1.43104 4.07609 0
M  V30 16846 C 1606.66 0.875857 5.2393 0
M  V30 16847 C 1605.7 1.9582 5.79932 0
M  V30 16848 N 1604.84 1.41989 6.87593 0
M  V30 16849 H 1609.68 1.75478 2.40856 0
M  V30 16850 H 1607.22 0.875686 1.18195 0
M  V30 16851 H 1609.17 0.0110103 4.17199 0
M  V30 16852 H 1607.8 -0.55363 3.18017 0
M  V30 16853 H 1606.86 1.86247 3.31687 0
M  V30 16854 H 1608.17 2.24849 4.45246 0
M  V30 16855 H 1607.32 0.512893 6.04528 0
M  V30 16856 H 1606.06 0.0275017 4.87692 0
M  V30 16857 H 1605.07 2.33006 4.97984 0
M  V30 16858 H 1606.29 2.81021 6.18227 0
M  V30 16859 H 1604.24 0.593779 6.53307 0
M  V30 16860 H 1604.15 2.17367 7.24077 0
M  V30 16861 H 1605.42 1.08495 7.71913 0
M  V30 16862 N 1609.65 -1.26251 0.943322 0
M  V30 16863 C 1610.6 -2.26304 0.453315 0
M  V30 16864 C 1611.57 -1.58764 -0.488168 0
M  V30 16865 O 1612.75 -1.86476 -0.403906 0
M  V30 16866 C 1609.89 -3.44015 -0.273393 0
M  V30 16867 C 1609.01 -4.26225 0.70401 0
M  V30 16868 C 1608.14 -5.31182 -0.0441134 0
M  V30 16869 C 1607.18 -6.05071 0.924971 0
M  V30 16870 N 1606.32 -7.0179 0.208461 0
M  V30 16871 H 1611.16 -2.67591 1.31146 0
M  V30 16872 H 1608.69 -1.31567 0.657914 0
M  V30 16873 H 1610.65 -4.11094 -0.711192 0
M  V30 16874 H 1609.28 -3.03636 -1.09566 0
M  V30 16875 H 1608.33 -3.58915 1.26032 0
M  V30 16876 H 1609.65 -4.77442 1.44398 0
M  V30 16877 H 1608.8 -6.04282 -0.541091 0
M  V30 16878 H 1607.54 -4.80809 -0.816952 0
M  V30 16879 H 1606.54 -5.30795 1.43305 0
M  V30 16880 H 1607.77 -6.57533 1.69785 0
M  V30 16881 H 1605.71 -6.53725 -0.545846 0
M  V30 16882 H 1605.63 -7.5077 0.887725 0
M  V30 16883 H 1606.9 -7.79041 -0.267352 0
M  V30 16884 N 1611.13 -0.710588 -1.40671 0
M  V30 16885 C 1612.55 -0.383638 -1.54921 0
M  V30 16886 C 1612.75 1.10805 -1.68299 0
M  V30 16887 O 1611.8 1.89406 -1.66978 0
M  V30 16888 C 1613.11 -1.14532 -2.78034 0
M  V30 16889 C 1614.66 -1.13113 -2.91847 0
M  V30 16890 C 1615.14 -1.87487 -4.17867 0
M  V30 16891 N 1616.63 -1.8453 -4.24856 0
M  V30 16892 C 1617.36 -2.38904 -5.2126 0
M  V30 16893 N 1616.86 -3.01813 -6.23603 0
M  V30 16894 N 1618.65 -2.29075 -5.13304 0
M  V30 16895 H 1610.8 -1.67789 -1.30233 0
M  V30 16896 H 1613.07 -0.70892 -0.629393 0
M  V30 16897 H 1612.77 -2.19983 -2.74409 0
M  V30 16898 H 1612.65 -0.733669 -3.69996 0
M  V30 16899 H 1615.03 -0.0848347 -2.94978 0
M  V30 16900 H 1615.11 -1.58196 -2.01017 0
M  V30 16901 H 1614.76 -2.92104 -4.15497 0
M  V30 16902 H 1614.69 -1.39827 -5.07697 0
M  V30 16903 H 1617.18 -1.38679 -3.51535 0
M  V30 16904 H 1617.49 -3.40832 -6.9358 0
M  V30 16905 H 1615.84 -3.05896 -6.24062 0
M  V30 16906 H 1619.03 -1.79589 -4.32279 0
M  V30 16907 H 1619.2 -2.71752 -5.88264 0
M  V30 16908 N 1612.61 1.50847 -0.456408 0
M  V30 16909 C 1613.83 2.07139 0.104054 0
M  V30 16910 C 1614.26 1.31966 1.34039 0
M  V30 16911 O 1613.62 0.363038 1.77628 0
M  V30 16912 C 1613.66 3.5853 0.385794 0
M  V30 16913 O 1612.77 3.85351 1.46895 0
M  V30 16914 H 1612.11 0.663968 -0.00651246 0
M  V30 16915 H 1614.64 1.94226 -0.64323 0
M  V30 16916 H 1614.65 4.03097 0.630644 0
M  V30 16917 H 1613.32 4.12665 -0.51773 0
M  V30 16918 H 1611.9 3.52635 1.21256 0
M  V30 16919 N 1614.09 0.188454 1.56469 0
M  V30 16920 C 1615.31 -0.460975 2.02212 0
M  V30 16921 C 1615.74 -1.54856 1.06777 0
M  V30 16922 O 1615.09 -1.81231 0.0501425 0
M  V30 16923 C 1615.14 -1.00047 3.46443 0
M  V30 16924 O 1614.25 -2.1137 3.54114 0
M  V30 16925 H 1613.59 -0.108497 0.655076 0
M  V30 16926 H 1616.12 0.297381 2.02427 0
M  V30 16927 H 1616.13 -1.31876 3.86099 0
M  V30 16928 H 1614.8 -0.204273 4.15398 0
M  V30 16929 H 1613.38 -1.80456 3.26328 0
M  V30 16930 N 1615.56 -1.5737 -0.0851874 0
M  V30 16931 C 1616.49 -2.05796 -1.10319 0
M  V30 16932 C 1617.47 -0.948796 -1.4118 0
M  V30 16933 O 1618.66 -1.22069 -1.51039 0
M  V30 16934 C 1615.79 -2.49069 -2.42037 0
M  V30 16935 C 1614.74 -3.6374 -2.25561 0
M  V30 16936 C 1614.07 -3.93023 -3.62543 0
M  V30 16937 C 1615.37 -4.94274 -1.68793 0
M  V30 16938 H 1617.06 -2.91095 -0.700274 0
M  V30 16939 H 1614.61 -1.40039 -0.335405 0
M  V30 16940 H 1616.56 -2.81558 -3.13534 0
M  V30 16941 H 1615.29 -1.60781 -2.84283 0
M  V30 16942 H 1613.95 -3.31513 -1.56507 0
M  V30 16943 H 1613.59 -3.01887 -4.02335 0
M  V30 16944 H 1613.29 -4.70229 -3.52362 0
M  V30 16945 H 1614.82 -4.27995 -4.35491 0
M  V30 16946 H 1616.23 -5.25079 -2.30141 0
M  V30 16947 H 1614.63 -5.75711 -1.69344 0
M  V30 16948 H 1615.7 -4.80548 -0.648204 0
M  V30 16949 N 1617.04 0.356258 -1.53521 0
M  V30 16950 C 1618.29 1.0979 -1.70154 0
M  V30 16951 C 1618.62 1.89028 -0.458124 0
M  V30 16952 O 1617.87 1.87516 0.560033 0
M  V30 16953 C 1618.17 2.07669 -2.90875 0
M  V30 16954 C 1617.84 1.4484 -4.27004 0
M  V30 16955 C 1616.5 1.27434 -4.64019 0
M  V30 16956 C 1618.85 0.994684 -5.1162 0
M  V30 16957 C 1616.18 0.632539 -5.8328 0
M  V30 16958 C 1618.53 0.366847 -6.31535 0
M  V30 16959 C 1617.19 0.180356 -6.67256 0
M  V30 16960 H 1616.46 0.401751 -0.622637 0
M  V30 16961 H 1619.11 0.378618 -1.8772 0
M  V30 16962 H 1617.42 2.85934 -2.6786 0
M  V30 16963 H 1619.11 2.65023 -3.00939 0
M  V30 16964 H 1615.7 1.59384 -3.97863 0
M  V30 16965 H 1619.89 1.11706 -4.83565 0
M  V30 16966 H 1615.14 0.476548 -6.0954 0
M  V30 16967 H 1619.32 0.00712378 -6.964 0
M  V30 16968 H 1616.94 -0.319016 -7.5953 0
M  V30 16969 N 1618.52 1.45038 0.616577 0
M  V30 16970 C 1619.94 1.29246 0.936359 0
M  V30 16971 C 1620.14 0.238879 2.00079 0
M  V30 16972 O 1619.19 -0.370265 2.4977 0
M  V30 16973 C 1620.5 2.66863 1.38581 0
M  V30 16974 C 1622.05 2.74688 1.50051 0
M  V30 16975 C 1622.53 4.12809 1.98375 0
M  V30 16976 N 1624.02 4.15058 2.05623 0
M  V30 16977 C 1624.75 5.18793 2.44216 0
M  V30 16978 N 1624.25 6.3288 2.81843 0
M  V30 16979 N 1626.04 5.06149 2.44477 0
M  V30 16980 H 1618.19 2.12221 -0.0871304 0
M  V30 16981 H 1620.46 0.947705 0.0236659 0
M  V30 16982 H 1620.16 3.45105 0.677911 0
M  V30 16983 H 1620.04 2.94726 2.35407 0
M  V30 16984 H 1622.42 1.96756 2.19934 0
M  V30 16985 H 1622.5 2.50549 0.515631 0
M  V30 16986 H 1622.15 4.91223 1.29082 0
M  V30 16987 H 1622.08 4.34334 2.97761 0
M  V30 16988 H 1624.57 3.32726 1.79171 0
M  V30 16989 H 1624.88 7.07834 3.10147 0
M  V30 16990 H 1623.23 6.36295 2.7956 0
M  V30 16991 H 1626.42 4.16071 2.14482 0
M  V30 16992 H 1626.59 5.87114 2.74229 0
M  V30 16993 N 1620 -0.858287 1.32179 0
M  V30 16994 C 1620.94 -1.96656 1.20811 0
M  V30 16995 C 1621.91 -1.6585 0.0911199 0
M  V30 16996 O 1623.1 -1.88936 0.266033 0
M  V30 16997 C 1620.24 -3.32237 0.933408 0
M  V30 16998 C 1619.35 -3.75564 2.13484 0
M  V30 16999 C 1618.49 -4.9992 1.79593 0
M  V30 17000 C 1617.53 -5.35728 2.96077 0
M  V30 17001 N 1616.66 -6.51261 2.62304 0
M  V30 17002 H 1621.5 -2.05711 2.15609 0
M  V30 17003 H 1619.04 -1.00689 1.07239 0
M  V30 17004 H 1621 -4.10318 0.754651 0
M  V30 17005 H 1619.63 -3.22792 0.0222279 0
M  V30 17006 H 1618.68 -2.93167 2.42399 0
M  V30 17007 H 1619.99 -3.98025 3.00629 0
M  V30 17008 H 1619.15 -5.85698 1.58248 0
M  V30 17009 H 1617.89 -4.79388 0.896561 0
M  V30 17010 H 1616.89 -4.48463 3.18058 0
M  V30 17011 H 1618.12 -5.58219 3.86741 0
M  V30 17012 H 1616.06 -6.32254 1.74904 0
M  V30 17013 H 1615.98 -6.73722 3.42979 0
M  V30 17014 H 1617.25 -7.40202 2.4438 0
M  V30 17015 N 1621.48 -1.1533 -1.07409 0
M  V30 17016 C 1622.72 -0.922348 -1.79376 0
M  V30 17017 C 1623.04 0.551929 -1.87652 0
M  V30 17018 O 1624.24 0.900444 -2.56133 0
M  V30 17019 C 1622.7 -1.60081 -3.22339 0
M  V30 17020 C 1622.31 -3.11206 -3.22265 0
M  V30 17021 C 1624.05 -1.45138 -3.98917 0
M  V30 17022 C 1621.96 -3.71842 -4.59878 0
M  V30 17023 H 1620.89 -0.341438 -0.672262 0
M  V30 17024 H 1623.54 -1.38336 -1.20562 0
M  V30 17025 H 1621.92 -1.06748 -3.81341 0
M  V30 17026 H 1623.1 -3.7129 -2.72911 0
M  V30 17027 H 1621.41 -3.25903 -2.59183 0
M  V30 17028 H 1624.01 -1.87832 -5.00623 0
M  V30 17029 H 1624.35 -0.398796 -4.14385 0
M  V30 17030 H 1624.88 -1.95564 -3.46409 0
M  V30 17031 H 1621.62 -4.76998 -4.49614 0
M  V30 17032 H 1621.14 -3.16541 -5.09472 0
M  V30 17033 H 1622.82 -3.72733 -5.28847 0
M  V30 17034 N 1622.95 1.25748 -0.950004 0
M  V30 17035 C 1624.18 1.97413 -0.61933 0
M  V30 17036 C 1624.6 1.70656 0.807591 0
M  V30 17037 O 1623.95 0.979899 1.53962 0
M  V30 17038 C 1624 3.51053 -0.862801 0
M  V30 17039 O 1623.73 3.76884 -2.23361 0
M  V30 17040 C 1625.23 4.39951 -0.543879 0
M  V30 17041 H 1622.45 0.629394 -0.232603 0
M  V30 17042 H 1624.99 1.60037 -1.27312 0
M  V30 17043 H 1623.15 3.86557 -0.255493 0
M  V30 17044 H 1623.56 4.71368 -2.30026 0
M  V30 17045 H 1625.03 5.46676 -0.764804 0
M  V30 17046 H 1625.51 4.36094 0.521421 0
M  V30 17047 H 1626.12 4.10005 -1.1303 0
M  V30 17048 N 1624.43 0.718038 1.40292 0
M  V30 17049 C 1625.38 0.0670495 2.30703 0
M  V30 17050 C 1626.35 -0.747716 1.48319 0
M  V30 17051 O 1627.53 -0.711161 1.77051 0
M  V30 17052 C 1624.67 -0.846918 3.34546 0
M  V30 17053 C 1623.79 -0.0213622 4.31995 0
M  V30 17054 C 1622.92 -0.935035 5.22906 0
M  V30 17055 C 1621.96 -0.103715 6.12012 0
M  V30 17056 N 1621.1 -0.972397 6.95334 0
M  V30 17057 H 1625.94 0.843724 2.85806 0
M  V30 17058 H 1623.47 0.427756 1.40743 0
M  V30 17059 H 1625.43 -1.39109 3.93325 0
M  V30 17060 H 1624.06 -1.58975 2.80939 0
M  V30 17061 H 1623.11 0.640026 3.74977 0
M  V30 17062 H 1624.43 0.62215 4.94905 0
M  V30 17063 H 1623.58 -1.54766 5.86628 0
M  V30 17064 H 1622.32 -1.61236 4.60276 0
M  V30 17065 H 1621.32 0.521826 5.47318 0
M  V30 17066 H 1622.55 0.570146 6.76702 0
M  V30 17067 H 1620.5 -1.63533 6.3529 0
M  V30 17068 H 1620.41 -0.384977 7.55019 0
M  V30 17069 H 1621.68 -1.57112 7.63503 0
M  V30 17070 N 1625.91 -1.50602 0.464402 0
M  V30 17071 C 1626.84 -2.26203 -0.36943 0
M  V30 17072 C 1627.86 -1.31269 -0.962924 0
M  V30 17073 O 1629.04 -1.56829 -0.852465 0
M  V30 17074 C 1626.14 -3.02323 -1.53147 0
M  V30 17075 C 1625.32 -4.24561 -1.05198 0
M  V30 17076 C 1624.38 -4.83031 -2.08729 0
M  V30 17077 O 1623.4 -5.44131 -1.67062 0
M  V30 17078 N 1624.6 -4.6944 -3.41477 0
M  V30 17079 H 1627.37 -2.98402 0.278652 0
M  V30 17080 H 1624.93 -1.59193 0.294803 0
M  V30 17081 H 1626.92 -3.38319 -2.22086 0
M  V30 17082 H 1625.49 -2.32965 -2.08438 0
M  V30 17083 H 1624.71 -3.93748 -0.188705 0
M  V30 17084 H 1626 -5.0383 -0.709434 0
M  V30 17085 H 1625.4 -4.20832 -3.78044 0
M  V30 17086 H 1623.96 -5.09724 -4.06233 0
M  V30 17087 N 1627.39 -0.19675 -1.56367 0
M  V30 17088 C 1628.61 0.450245 -2.02454 0
M  V30 17089 C 1629.04 1.54287 -1.07597 0
M  V30 17090 O 1628.4 1.81202 -0.0597529 0
M  V30 17091 C 1628.44 0.982087 -3.46969 0
M  V30 17092 O 1627.55 2.09489 -3.5523 0
M  V30 17093 H 1626.89 0.105022 -0.655642 0
M  V30 17094 H 1629.42 -0.308112 -2.02267 0
M  V30 17095 H 1629.43 1.29826 -3.86793 0
M  V30 17096 H 1628.1 0.18224 -4.15501 0
M  V30 17097 H 1626.68 1.78723 -3.27281 0
M  V30 17098 N 1628.87 1.57413 0.0768405 0
M  V30 17099 C 1629.81 2.04373 1.1106 0
M  V30 17100 C 1630.81 0.948127 1.40381 0
M  V30 17101 O 1632.01 1.13325 1.39848 0
M  V30 17102 H 1628.39 0.65156 0.375464 0
M  V30 17103 H 1630.36 2.90352 0.688348 0
M  V30 17104 C 1629.11 2.49914 2.41741 0
M  V30 17105 H 1628.43 3.33808 2.20027 0
M  V30 17106 H 1629.87 2.8653 3.12532 0
M  V30 17107 C 1628.33 1.37996 3.07341 0
M  V30 17108 O 1628.86 0.719242 3.95209 0
M  V30 17109 N 1627.07 1.12635 2.67884 0
M  V30 17110 H 1626.61 1.66545 1.96521 0
M  V30 17111 H 1626.57 0.37956 3.121 0
M  V30 17112 N 1630.34 -0.348112 1.53707 0
M  V30 17113 C 1631.27 -1.43296 1.8436 0
M  V30 17114 C 1632.26 -1.55102 0.698376 0
M  V30 17115 O 1633.44 -1.69385 0.949864 0
M  V30 17116 C 1630.57 -2.80407 2.04912 0
M  V30 17117 C 1629.52 -2.83412 3.20721 0
M  V30 17118 C 1628.85 -4.23365 3.26597 0
M  V30 17119 C 1630.15 -2.49358 4.58931 0
M  V30 17120 H 1631.84 -1.17892 2.75212 0
M  V30 17121 H 1629.39 -0.565692 1.32423 0
M  V30 17122 H 1631.34 -3.56343 2.24939 0
M  V30 17123 H 1630.07 -3.07236 1.10786 0
M  V30 17124 H 1628.73 -2.09929 3.00542 0
M  V30 17125 H 1628.37 -4.47297 2.30076 0
M  V30 17126 H 1628.07 -4.26287 4.04417 0
M  V30 17127 H 1629.6 -5.01149 3.4883 0
M  V30 17128 H 1631.01 -3.15006 4.79003 0
M  V30 17129 H 1629.41 -2.6357 5.3912 0
M  V30 17130 H 1630.48 -1.44557 4.62851 0
M  V30 17131 N 1631.82 -1.45363 -0.608876 0
M  V30 17132 C 1632.75 -1.56778 -1.7304 0
M  V30 17133 C 1633.73 -0.419405 -1.64848 0
M  V30 17134 O 1634.92 -0.64238 -1.83268 0
M  V30 17135 C 1632.05 -1.5329 -3.1164 0
M  V30 17136 C 1631 -2.66832 -3.34641 0
M  V30 17137 C 1630.33 -2.48398 -4.735 0
M  V30 17138 C 1631.63 -4.0885 -3.25021 0
M  V30 17139 H 1633.32 -2.50656 -1.63743 0
M  V30 17140 H 1630.87 -1.20635 -0.786338 0
M  V30 17141 H 1632.82 -1.59873 -3.89895 0
M  V30 17142 H 1631.55 -0.559414 -3.21773 0
M  V30 17143 H 1630.2 -2.59675 -2.58775 0
M  V30 17144 H 1629.85 -1.49191 -4.80366 0
M  V30 17145 H 1629.55 -3.24537 -4.89846 0
M  V30 17146 H 1631.08 -2.56833 -5.53958 0
M  V30 17147 H 1632.49 -4.17257 -3.93153 0
M  V30 17148 H 1630.89 -4.85369 -3.52897 0
M  V30 17149 H 1631.96 -4.30849 -2.2248 0
M  V30 17150 N 1633.3 0.851265 -1.32632 0
M  V30 17151 C 1634.25 1.94828 -1.18431 0
M  V30 17152 C 1635.23 1.60646 -0.090361 0
M  V30 17153 O 1636.43 1.74134 -0.317212 0
M  V30 17154 C 1633.56 3.30937 -0.913006 0
M  V30 17155 C 1632.64 3.71328 -2.04882 0
M  V30 17156 N 1633.03 3.83517 -3.2977 0
M  V30 17157 C 1631.33 4.00979 -1.95274 0
M  V30 17158 C 1632.03 4.18341 -4.04185 0
M  V30 17159 N 1631.01 4.30043 -3.32512 0
M  V30 17160 H 1634.81 2.0239 -2.13109 0
M  V30 17161 H 1632.32 1.04323 -1.2446 0
M  V30 17162 H 1634.32 4.09304 -0.792221 0
M  V30 17163 H 1632.98 3.2469 0.0253611 0
M  V30 17164 H 1633.99 3.67749 -3.64666 0
M  V30 17165 H 1630.67 4.03015 -1.0902 0
M  V30 17166 H 1632.06 4.35213 -5.11898 0
M  V30 17167 N 1634.78 1.15898 1.06796 0
M  V30 17168 C 1636.01 0.961372 1.83208 0
M  V30 17169 C 1636.42 -0.490392 1.8232 0
M  V30 17170 O 1635.78 -1.34025 1.2387 0
M  V30 17171 C 1635.83 1.47486 3.30045 0
M  V30 17172 O 1635.55 2.86976 3.31023 0
M  V30 17173 C 1637.05 1.31955 4.23205 0
M  V30 17174 H 1634.27 0.34109 0.57784 0
M  V30 17175 H 1636.82 1.53805 1.34775 0
M  V30 17176 H 1634.97 0.940586 3.75808 0
M  V30 17177 H 1635.38 3.1038 4.22805 0
M  V30 17178 H 1636.86 1.72721 5.24282 0
M  V30 17179 H 1637.34 0.264439 4.38403 0
M  V30 17180 H 1637.94 1.84319 3.83284 0
M  V30 17181 N 1636.26 -1.25243 0.956659 0
M  V30 17182 C 1637.48 -1.97621 0.629337 0
M  V30 17183 C 1637.91 -1.70606 -0.792158 0
M  V30 17184 O 1637.26 -0.963192 -1.53598 0
M  V30 17185 C 1637.31 -3.49273 0.896687 0
M  V30 17186 O 1636.42 -4.12393 -0.0234986 0
M  V30 17187 H 1635.76 -0.619472 0.239061 0
M  V30 17188 H 1638.29 -1.5931 1.28381 0
M  V30 17189 H 1638.3 -3.99597 0.82377 0
M  V30 17190 H 1636.97 -3.68265 1.93271 0
M  V30 17191 H 1635.55 -3.72761 0.101796 0
M  V30 17192 N 1637.73 -0.725468 -1.3991 0
M  V30 17193 C 1639.15 -0.400048 -1.54505 0
M  V30 17194 C 1639.35 1.09014 -1.69464 0
M  V30 17195 O 1638.41 1.87624 -1.68977 0
M  V30 17196 C 1639.72 -1.17474 -2.76804 0
M  V30 17197 C 1641.27 -1.16202 -2.9063 0
M  V30 17198 C 1641.74 -1.91908 -4.15855 0
M  V30 17199 N 1643.23 -1.89026 -4.22875 0
M  V30 17200 C 1643.97 -2.4442 -5.18697 0
M  V30 17201 N 1643.46 -3.0841 -6.20367 0
M  V30 17202 N 1645.26 -2.34506 -5.10846 0
M  V30 17203 H 1637.41 -1.6916 -1.28447 0
M  V30 17204 H 1639.67 -0.715556 -0.621839 0
M  V30 17205 H 1639.38 -2.22881 -2.72061 0
M  V30 17206 H 1639.25 -0.772871 -3.69197 0
M  V30 17207 H 1641.64 -0.116116 -2.94871 0
M  V30 17208 H 1641.72 -1.60319 -1.99327 0
M  V30 17209 H 1641.36 -2.96494 -4.12375 0
M  V30 17210 H 1641.29 -1.45204 -5.06185 0
M  V30 17211 H 1643.78 -1.42399 -3.50044 0
M  V30 17212 H 1644.1 -3.48169 -6.89926 0
M  V30 17213 H 1642.44 -3.12497 -6.20782 0
M  V30 17214 H 1645.63 -1.84164 -4.3035 0
M  V30 17215 H 1645.81 -2.77976 -5.85349 0
M  V30 17216 N 1639.21 1.50354 -0.472382 0
M  V30 17217 C 1640.44 2.07238 0.0820787 0
M  V30 17218 C 1640.86 1.3338 1.32632 0
M  V30 17219 O 1640.22 0.381857 1.77233 0
M  V30 17220 C 1640.27 3.58919 0.347746 0
M  V30 17221 O 1639.37 3.86888 1.42799 0
M  V30 17222 H 1638.71 0.663862 -0.0135544 0
M  V30 17223 H 1641.24 1.93533 -0.663795 0
M  V30 17224 H 1641.25 4.03743 0.587855 0
M  V30 17225 H 1639.93 4.12093 -0.56147 0
M  V30 17226 H 1638.51 3.53901 1.17509 0
M  V30 17227 N 1640.69 0.205039 1.56261 0
M  V30 17228 C 1641.62 -0.706815 2.22545 0
M  V30 17229 C 1642.6 -1.21372 1.19176 0
M  V30 17230 O 1643.79 -1.26074 1.47712 0
M  V30 17231 C 1640.92 -1.92221 2.89255 0
M  V30 17232 C 1639.87 -1.54982 3.98954 0
M  V30 17233 C 1639.2 -2.84265 4.52877 0
M  V30 17234 C 1640.5 -0.75225 5.16854 0
M  V30 17235 H 1642.19 -0.15421 2.99003 0
M  V30 17236 H 1639.74 -0.0727309 1.43816 0
M  V30 17237 H 1641.69 -2.56542 3.34311 0
M  V30 17238 H 1640.41 -2.49952 2.10218 0
M  V30 17239 H 1639.07 -0.930155 3.54604 0
M  V30 17240 H 1638.72 -3.40105 3.70591 0
M  V30 17241 H 1638.42 -2.60089 5.26904 0
M  V30 17242 H 1639.95 -3.49557 5.00642 0
M  V30 17243 H 1641.36 -1.29878 5.58395 0
M  V30 17244 H 1639.76 -0.60823 5.9701 0
M  V30 17245 H 1640.83 0.24463 4.84283 0
M  V30 17246 N 1642.17 -1.57451 -0.0684915 0
M  V30 17247 C 1643.39 -1.92025 -0.78366 0
M  V30 17248 C 1643.82 -0.801743 -1.70158 0
M  V30 17249 O 1643.18 0.245227 -1.79634 0
M  V30 17250 C 1643.23 -3.25563 -1.55051 0
M  V30 17251 O 1642.33 -3.15029 -2.6614 0
M  V30 17252 H 1641.67 -0.628714 -0.213576 0
M  V30 17253 H 1644.2 -2.04569 -0.0357474 0
M  V30 17254 H 1644.21 -3.59516 -1.92905 0
M  V30 17255 H 1642.89 -4.06547 -0.87704 0
M  V30 17256 H 1641.46 -2.9264 -2.31119 0
M  V30 17257 N 1643.65 0.339955 -1.5389 0
M  V30 17258 C 1644.87 1.10417 -1.75564 0
M  V30 17259 C 1645.3 1.81466 -0.495156 0
M  V30 17260 O 1644.66 1.72679 0.552415 0
M  V30 17261 C 1644.7 2.09056 -2.93816 0
M  V30 17262 O 1643.81 3.16645 -2.64215 0
M  V30 17263 H 1643.15 0.319164 -0.582263 0
M  V30 17264 H 1645.68 0.389251 -2.00863 0
M  V30 17265 H 1645.69 2.52215 -3.20705 0
M  V30 17266 H 1644.36 1.56741 -3.85234 0
M  V30 17267 H 1642.94 2.78278 -2.48225 0
M  V30 17268 N 1645.13 1.45684 0.601159 0
M  V30 17269 C 1646.06 1.57694 1.72206 0
M  V30 17270 C 1647.04 0.428141 1.64624 0
M  V30 17271 O 1648.22 0.65209 1.82925 0
M  V30 17272 C 1645.35 1.54941 3.10822 0
M  V30 17273 C 1644.31 2.68603 3.33222 0
M  V30 17274 C 1643.63 2.50906 4.72176 0
M  V30 17275 C 1644.93 4.10568 3.22849 0
M  V30 17276 H 1646.63 2.51521 1.62412 0
M  V30 17277 H 1644.17 1.2105 0.779929 0
M  V30 17278 H 1646.12 1.61939 3.89042 0
M  V30 17279 H 1644.85 0.576471 3.21472 0
M  V30 17280 H 1643.51 2.61043 2.57394 0
M  V30 17281 H 1643.16 1.51736 4.79568 0
M  V30 17282 H 1642.86 3.27131 4.88118 0
M  V30 17283 H 1644.38 2.59767 5.52588 0
M  V30 17284 H 1645.79 4.19336 3.90935 0
M  V30 17285 H 1644.19 4.87234 3.50318 0
M  V30 17286 H 1645.26 4.32022 2.20192 0
M  V30 17287 N 1646.6 -0.84422 1.33082 0
M  V30 17288 C 1647.55 -1.97504 1.22862 0
M  V30 17289 C 1648.55 -1.68892 0.131141 0
M  V30 17290 O 1649.75 -1.7757 0.294753 0
M  V30 17291 H 1646.13 -0.648263 0.381129 0
M  V30 17292 H 1648.1 -2.03249 2.18478 0
M  V30 17293 C 1646.85 -3.33626 0.979228 0
M  V30 17294 H 1646.17 -3.56178 1.81596 0
M  V30 17295 H 1647.61 -4.13266 0.948007 0
M  V30 17296 C 1646.07 -3.35397 -0.317922 0
M  V30 17297 O 1646.6 -3.7917 -1.32638 0
M  V30 17298 N 1644.8 -2.88562 -0.343577 0
M  V30 17299 H 1644.35 -2.53133 0.477625 0
M  V30 17300 H 1644.31 -2.90129 -1.21131 0
M  V30 17301 N 1648.08 -1.16463 -1.0618 0
M  V30 17302 C 1649.5 -0.909776 -1.31131 0
M  V30 17303 C 1649.7 0.436686 -1.96711 0
M  V30 17304 O 1648.75 1.17595 -2.23445 0
M  V30 17305 C 1650.07 -2.05967 -2.19084 0
M  V30 17306 C 1651.61 -2.09557 -2.32497 0
M  V30 17307 C 1652.09 -3.23904 -3.23806 0
M  V30 17308 N 1653.58 -3.23628 -3.3139 0
M  V30 17309 C 1654.32 -4.08746 -4.02137 0
M  V30 17310 N 1653.81 -5.03954 -4.75397 0
M  V30 17311 N 1655.6 -3.96729 -3.98199 0
M  V30 17312 H 1647.76 -2.03148 -0.620066 0
M  V30 17313 H 1650.02 -0.886477 -0.335949 0
M  V30 17314 H 1649.72 -3.03227 -1.78174 0
M  V30 17315 H 1649.6 -2.00219 -3.19675 0
M  V30 17316 H 1651.99 -1.12889 -2.72654 0
M  V30 17317 H 1652.07 -2.19369 -1.3157 0
M  V30 17318 H 1651.71 -4.20831 -2.84366 0
M  V30 17319 H 1651.64 -3.11327 -4.24715 0
M  V30 17320 H 1654.13 -2.54687 -2.79182 0
M  V30 17321 H 1654.44 -5.65319 -5.2691 0
M  V30 17322 H 1652.79 -5.07932 -4.74373 0
M  V30 17323 H 1655.98 -3.21652 -3.40085 0
M  V30 17324 H 1656.15 -4.63286 -4.53067 0
M  V30 17325 N 1649.56 1.24734 -0.963288 0
M  V30 17326 C 1650.78 1.97285 -0.639808 0
M  V30 17327 C 1651.21 1.71024 0.783099 0
M  V30 17328 O 1650.57 0.971324 1.53085 0
M  V30 17329 C 1650.62 3.48793 -0.915197 0
M  V30 17330 O 1649.72 4.124 0.00162805 0
M  V30 17331 H 1649.06 0.618196 -0.242343 0
M  V30 17332 H 1651.59 1.58627 -1.29224 0
M  V30 17333 H 1651.6 3.99155 -0.84495 0
M  V30 17334 H 1650.28 3.67235 -1.95221 0
M  V30 17335 H 1648.85 3.72702 -0.121563 0
M  V30 17336 N 1651.04 0.732878 1.39523 0
M  V30 17337 C 1651.97 0.106583 2.33257 0
M  V30 17338 C 1652.95 -0.726582 1.53801 0
M  V30 17339 O 1654.13 -0.671994 1.82203 0
M  V30 17340 C 1651.26 -0.803051 3.37888 0
M  V30 17341 C 1650.22 -0.0742048 4.27936 0
M  V30 17342 C 1649.54 -1.10071 5.23248 0
M  V30 17343 C 1650.84 1.08195 5.10971 0
M  V30 17344 H 1652.54 0.889539 2.8588 0
M  V30 17345 H 1650.08 0.429209 1.37455 0
M  V30 17346 H 1652.04 -1.25071 4.02412 0
M  V30 17347 H 1650.76 -1.6181 2.83699 0
M  V30 17348 H 1649.42 0.35381 3.64889 0
M  V30 17349 H 1649.07 -1.90927 4.65356 0
M  V30 17350 H 1648.77 -0.617825 5.84343 0
M  V30 17351 H 1650.29 -1.54812 5.90649 0
M  V30 17352 H 1651.71 0.712835 5.68851 0
M  V30 17353 H 1650.1 1.49433 5.81197 0
M  V30 17354 H 1651.17 1.90463 4.45928 0
M  V30 17355 N 1652.52 -1.50101 0.480349 0
M  V30 17356 C 1653.74 -2.07278 -0.0710872 0
M  V30 17357 C 1654.17 -1.34082 -1.31923 0
M  V30 17358 O 1653.52 -0.391251 -1.77028 0
M  V30 17359 C 1653.57 -3.59099 -0.328706 0
M  V30 17360 O 1652.68 -3.8764 -1.40745 0
M  V30 17361 H 1652.02 -0.66378 0.0170748 0
M  V30 17362 H 1654.55 -1.93178 0.674049 0
M  V30 17363 H 1654.56 -4.04049 -0.566435 0
M  V30 17364 H 1653.23 -4.11789 0.583316 0
M  V30 17365 H 1651.81 -3.54519 -1.15631 0
M  V30 17366 N 1653.99 -0.213323 -1.5615 0
M  V30 17367 C 1655.22 0.428746 -2.0292 0
M  V30 17368 C 1655.64 1.53137 -1.09227 0
M  V30 17369 O 1655 1.81128 -0.0789684 0
M  V30 17370 C 1655.05 0.945231 -3.47991 0
M  V30 17371 O 1654.15 2.05709 -3.57432 0
M  V30 17372 H 1653.49 0.0980619 -0.656719 0
M  V30 17373 H 1656.02 -0.329548 -2.01929 0
M  V30 17374 H 1656.03 1.25717 -3.88149 0
M  V30 17375 H 1654.71 0.138161 -4.1567 0
M  V30 17376 H 1653.29 1.75242 -3.29158 0
M  V30 17377 N 1655.47 1.57485 0.0601405 0
M  V30 17378 C 1656.7 1.92438 0.773466 0
M  V30 17379 C 1657.12 0.810755 1.6973 0
M  V30 17380 O 1656.48 -0.235697 1.79761 0
M  V30 17381 C 1656.53 3.26381 1.53323 0
M  V30 17382 O 1655.63 3.16436 2.64465 0
M  V30 17383 H 1654.97 0.629838 0.210239 0
M  V30 17384 H 1657.5 2.04585 0.0248981 0
M  V30 17385 H 1657.51 3.60534 1.90996 0
M  V30 17386 H 1656.19 4.07007 0.855468 0
M  V30 17387 H 1654.77 2.93862 2.29564 0
M  V30 17388 N 1656.95 -0.331789 1.54068 0
M  V30 17389 C 1658.23 -1.08843 1.6252 0
M  V30 17390 C 1658.61 -2.06164 0.453847 0
M  V30 17391 O 1657.96 -2.21714 -0.552727 0
M  V30 17392 C 1658.17 -1.79767 2.9914 0
M  V30 17393 C 1659.51 -2.33086 3.54903 0
M  V30 17394 O 1660.54 -1.89846 3.01392 0
M  V30 17395 O 1659.4 -3.12226 4.48528 0
M  V30 17396 H 1656.49 -0.501222 0.657804 0
M  V30 17397 H 1659.04 -0.332339 1.66414 0
M  V30 17398 H 1657.81 -1.08932 3.75832 0
M  V30 17399 H 1657.43 -2.62205 2.98888 0
M  V30 17400 N 1658.43 -1.46001 -0.593424 0
M  V30 17401 C 1659.65 -1.54541 -1.38318 0
M  V30 17402 C 1660.08 -0.183555 -1.87202 0
M  V30 17403 O 1659.44 0.834407 -1.60958 0
M  V30 17404 C 1659.48 -2.54559 -2.55405 0
M  V30 17405 O 1658.59 -2.07321 -3.56499 0
M  V30 17406 H 1657.93 -0.520434 -0.412364 0
M  V30 17407 H 1660.46 -1.9148 -0.720862 0
M  V30 17408 H 1660.47 -2.73823 -3.02465 0
M  V30 17409 H 1659.14 -3.53461 -2.19176 0
M  V30 17410 H 1657.72 -1.97997 -3.15993 0
M  V30 17411 N 1659.91 0.83715 -1.33527 0
M  V30 17412 C 1660.84 1.96231 -1.26553 0
M  V30 17413 C 1661.82 1.69474 -0.14576 0
M  V30 17414 O 1663 1.91274 -0.335815 0
M  V30 17415 C 1660.13 3.32419 -1.00574 0
M  V30 17416 C 1659.09 3.73577 -2.08864 0
M  V30 17417 C 1658.41 5.07591 -1.68095 0
M  V30 17418 C 1659.71 3.87179 -3.50556 0
M  V30 17419 H 1661.41 2.02324 -2.20693 0
M  V30 17420 H 1658.95 0.972038 -1.06242 0
M  V30 17421 H 1660.91 4.10703 -0.943439 0
M  V30 17422 H 1659.63 3.26587 -0.0287268 0
M  V30 17423 H 1658.29 2.97557 -2.14139 0
M  V30 17424 H 1657.94 4.98232 -0.690922 0
M  V30 17425 H 1657.64 5.361 -2.40563 0
M  V30 17426 H 1659.16 5.88349 -1.63334 0
M  V30 17427 H 1660.57 4.55771 -3.47772 0
M  V30 17428 H 1658.97 4.27127 -4.21524 0
M  V30 17429 H 1660.04 2.8958 -3.88936 0
M  V30 17430 N 1661.38 1.17024 1.05561 0
M  V30 17431 C 1662.8 0.962856 1.59956 0
M  V30 17432 C 1663.15 -0.491388 1.89947 0
M  V30 17433 O 1662.27 -1.366 1.67838 0
M  V30 17434 C 1662.87 1.74146 2.90617 0
M  V30 17435 C 1661.43 1.57885 3.41686 0
M  V30 17436 C 1660.57 1.74548 2.15472 0
M  V30 17437 H 1663.52 1.31787 0.88419 0
M  V30 17438 H 1663.54 1.22165 3.60355 0
M  V30 17439 H 1663.06 2.79984 2.68758 0
M  V30 17440 H 1661.16 0.545207 3.6859 0
M  V30 17441 H 1661.27 2.36745 4.16519 0
M  V30 17442 H 1659.63 1.17356 2.26052 0
M  V30 17443 H 1660.42 2.81789 1.96087 0
M  V30 17444 N 1662.86 -1.24221 0.969889 0
M  V30 17445 C 1664.11 -1.91973 0.631725 0
M  V30 17446 C 1664.43 -1.76169 -0.836032 0
M  V30 17447 O 1663.7 -1.13459 -1.597 0
M  V30 17448 H 1662.28 -0.710497 0.230658 0
M  V30 17449 H 1664.94 -1.51069 1.23143 0
M  V30 17450 H 1664.04 -2.99606 0.874223 0
M  V30 17451 N 1664.34 -0.740267 -1.39132 0
M  V30 17452 C 1665.57 -0.299605 -2.05225 0
M  V30 17453 C 1665.99 1.05904 -1.55454 0
M  V30 17454 O 1665.35 1.67216 -0.700603 0
M  V30 17455 C 1665.4 -0.316792 -3.59206 0
M  V30 17456 O 1664.5 0.693786 -4.06522 0
M  V30 17457 H 1663.84 -0.135146 -0.650101 0
M  V30 17458 H 1666.37 -1.00766 -1.78065 0
M  V30 17459 H 1666.38 -0.163013 -4.07674 0
M  V30 17460 H 1665.06 -1.30814 -3.94792 0
M  V30 17461 H 1663.63 0.505712 -3.69455 0
M  V30 17462 N 1665.82 1.49844 -0.488302 0
M  V30 17463 C 1667.23 1.86663 -0.037377 0
M  V30 17464 C 1667.58 1.40172 1.37281 0
M  V30 17465 O 1666.71 0.77409 2.02081 0
M  V30 17466 C 1667.3 3.38745 -0.0610523 0
M  V30 17467 C 1665.86 3.74911 0.334475 0
M  V30 17468 C 1665.01 2.73801 -0.439109 0
M  V30 17469 H 1667.96 1.42343 -0.70173 0
M  V30 17470 H 1667.98 3.7329 0.737203 0
M  V30 17471 H 1667.49 3.72551 -1.08753 0
M  V30 17472 H 1665.59 3.4671 1.36466 0
M  V30 17473 H 1665.7 4.79094 0.0238536 0
M  V30 17474 H 1664.07 2.54465 0.109433 0
M  V30 17475 H 1664.85 3.10452 -1.46542 0
M  V30 17476 N 1667.3 0.221601 1.56034 0
M  V30 17477 C 1668.52 -0.414945 2.02696 0
M  V30 17478 C 1668.94 -1.53344 1.10141 0
M  V30 17479 O 1668.3 -1.82162 0.111026 0
M  V30 17480 C 1668.35 -0.946532 3.48888 0
M  V30 17481 O 1668.07 0.12737 4.37915 0
M  V30 17482 C 1669.57 -1.65631 4.11195 0
M  V30 17483 H 1666.79 -0.101548 0.663271 0
M  V30 17484 H 1669.33 0.338069 2.01686 0
M  V30 17485 H 1667.49 -1.64982 3.50514 0
M  V30 17486 H 1667.9 -0.272211 5.23793 0
M  V30 17487 H 1669.38 -1.98027 5.15257 0
M  V30 17488 H 1669.85 -2.56947 3.56195 0
M  V30 17489 H 1670.46 -0.998231 4.13419 0
M  V30 17490 N 1668.77 -1.57515 -0.0517878 0
M  V30 17491 C 1669.72 -2.01507 -1.06672 0
M  V30 17492 C 1670.71 -0.900432 -1.33346 0
M  V30 17493 O 1671.9 -1.16435 -1.33311 0
M  V30 17494 C 1669.03 -2.4792 -2.37467 0
M  V30 17495 C 1668.12 -3.66159 -2.13982 0
M  V30 17496 N 1668.51 -4.79665 -1.60483 0
M  V30 17497 C 1666.8 -3.73095 -2.44369 0
M  V30 17498 C 1667.51 -5.61415 -1.52278 0
M  V30 17499 N 1666.48 -5.05851 -1.99038 0
M  V30 17500 H 1670.28 -2.86696 -0.646728 0
M  V30 17501 H 1667.8 -1.60329 -0.258518 0
M  V30 17502 H 1669.79 -2.77685 -3.1096 0
M  V30 17503 H 1668.45 -1.64127 -2.80165 0
M  V30 17504 H 1669.47 -5.0156 -1.29067 0
M  V30 17505 H 1666.14 -3.00057 -2.90296 0
M  V30 17506 H 1667.53 -6.62567 -1.11598 0
M  V30 17507 N 1670.25 0.323614 -1.54242 0
M  V30 17508 C 1671.5 1.05947 -1.72104 0
M  V30 17509 C 1671.82 1.88547 -0.497512 0
M  V30 17510 O 1671.09 1.89712 0.488485 0
M  V30 17511 H 1669.67 0.394141 -0.634557 0
M  V30 17512 H 1672.33 0.360063 -1.91545 0
M  V30 17513 H 1671.43 1.72552 -2.60062 0
M  V30 17514 N 1671.73 1.46313 0.585673 0
M  V30 17515 C 1672.66 1.59511 1.70524 0
M  V30 17516 C 1673.64 0.445578 1.6416 0
M  V30 17517 O 1674.83 0.671455 1.82223 0
M  V30 17518 C 1671.96 1.58229 3.09162 0
M  V30 17519 C 1670.91 2.72122 3.30354 0
M  V30 17520 C 1670.24 2.559 4.69489 0
M  V30 17521 C 1671.54 4.13969 3.18476 0
M  V30 17522 H 1673.23 2.53229 1.59735 0
M  V30 17523 H 1670.78 1.2187 0.767046 0
M  V30 17524 H 1672.73 1.66056 3.87303 0
M  V30 17525 H 1671.45 0.610535 3.20843 0
M  V30 17526 H 1670.11 2.63759 2.54611 0
M  V30 17527 H 1669.76 1.56814 4.77931 0
M  V30 17528 H 1669.46 3.32289 4.84621 0
M  V30 17529 H 1670.99 2.65613 5.49802 0
M  V30 17530 H 1672.4 4.23459 3.86465 0
M  V30 17531 H 1670.8 4.90922 3.45131 0
M  V30 17532 H 1671.87 4.34334 2.15598 0
M  V30 17533 N 1673.21 -0.830057 1.33969 0
M  V30 17534 C 1674.62 -1.40227 1.23261 0
M  V30 17535 C 1674.97 -1.95664 -0.144862 0
M  V30 17536 O 1674.1 -1.89503 -1.04488 0
M  V30 17537 C 1674.69 -2.54913 2.2317 0
M  V30 17538 C 1673.25 -3.08062 2.16274 0
M  V30 17539 C 1672.4 -1.809 2.10168 0
M  V30 17540 H 1675.35 -0.635062 1.4544 0
M  V30 17541 H 1675.37 -3.32801 1.84455 0
M  V30 17542 H 1674.88 -2.14534 3.23414 0
M  V30 17543 H 1672.98 -3.52964 1.19362 0
M  V30 17544 H 1673.1 -3.67637 3.07213 0
M  V30 17545 H 1671.46 -2.01508 1.55778 0
M  V30 17546 H 1672.24 -1.42705 3.12234 0
M  V30 17547 N 1674.69 -1.17582 -1.04939 0
M  V30 17548 C 1675.65 -0.897095 -2.10914 0
M  V30 17549 C 1676.65 0.113823 -1.60397 0
M  V30 17550 O 1677.84 -0.118635 -1.73796 0
M  V30 17551 C 1674.97 -0.344251 -3.39157 0
M  V30 17552 H 1676.17 -1.83674 -2.37074 0
M  V30 17553 H 1673.72 -0.986634 -1.21224 0
M  V30 17554 H 1674.45 0.602417 -3.18656 0
M  V30 17555 H 1674.24 -1.07287 -3.77137 0
M  V30 17556 H 1675.73 -0.167644 -4.17263 0
M  V30 17557 N 1676.17 1.23705 -0.976463 0
M  V30 17558 C 1677.58 1.44179 -0.684434 0
M  V30 17559 C 1677.78 1.86992 0.75075 0
M  V30 17560 O 1676.84 2.01349 1.52365 0
M  V30 17561 C 1678.15 2.49661 -1.676 0
M  V30 17562 C 1679.7 2.63479 -1.68961 0
M  V30 17563 C 1680.17 3.72167 -2.66938 0
M  V30 17564 N 1681.66 3.79605 -2.65433 0
M  V30 17565 C 1682.4 4.63251 -3.37914 0
M  V30 17566 N 1681.9 5.51018 -4.19941 0
M  V30 17567 N 1683.69 4.57412 -3.26697 0
M  V30 17568 H 1675.84 0.942155 -1.90361 0
M  V30 17569 H 1678.1 0.475629 -0.820049 0
M  V30 17570 H 1677.81 2.25111 -2.70218 0
M  V30 17571 H 1677.68 3.47978 -1.45571 0
M  V30 17572 H 1680.07 2.87382 -0.670497 0
M  V30 17573 H 1680.15 1.65491 -1.95055 0
M  V30 17574 H 1679.79 3.49013 -3.68988 0
M  V30 17575 H 1679.72 4.69688 -2.3812 0
M  V30 17576 H 1682.22 3.16882 -2.05899 0
M  V30 17577 H 1682.53 6.11825 -4.72113 0
M  V30 17578 H 1680.87 5.50655 -4.24033 0
M  V30 17579 H 1684.06 3.87863 -2.62069 0
M  V30 17580 H 1684.24 5.22373 -3.83446 0
M  V30 17581 N 1677.64 0.747635 1.38738 0
M  V30 17582 C 1678.87 0.310484 2.05063 0
M  V30 17583 C 1679.29 -1.05078 1.56013 0
M  V30 17584 O 1678.65 -1.66842 0.709461 0
M  V30 17585 C 1678.7 0.335837 3.59033 0
M  V30 17586 O 1677.8 -0.672218 4.06884 0
M  V30 17587 H 1677.14 0.138591 0.649375 0
M  V30 17588 H 1679.67 1.01709 1.77529 0
M  V30 17589 H 1679.68 0.184631 4.07582 0
M  V30 17590 H 1678.36 1.32906 3.94092 0
M  V30 17591 H 1676.94 -0.486112 3.69718 0
M  V30 17592 N 1679.12 -1.49583 0.496242 0
M  V30 17593 C 1680.53 -1.8664 0.0472756 0
M  V30 17594 C 1680.88 -1.40898 -1.36536 0
M  V30 17595 O 1680.01 -0.784796 -2.01668 0
M  V30 17596 C 1680.6 -3.38708 0.079016 0
M  V30 17597 C 1679.16 -3.75083 -0.314587 0
M  V30 17598 C 1678.31 -2.73565 0.453624 0
M  V30 17599 H 1681.26 -1.41969 0.709269 0
M  V30 17600 H 1681.28 -3.73676 -0.717396 0
M  V30 17601 H 1680.79 -3.71969 1.10727 0
M  V30 17602 H 1678.89 -3.47429 -1.34625 0
M  V30 17603 H 1679.01 -4.791 0.00155427 0
M  V30 17604 H 1677.37 -2.54519 -0.095937 0
M  V30 17605 H 1678.15 -3.0967 1.48186 0
M  V30 17606 N 1680.6 -0.229873 -1.55915 0
M  V30 17607 C 1681.83 0.404189 -2.02914 0
M  V30 17608 C 1682.24 1.52758 -1.10952 0
M  V30 17609 O 1681.6 1.82101 -0.120685 0
M  V30 17610 C 1681.65 0.928016 -3.49385 0
M  V30 17611 O 1681.37 -0.150592 -4.37841 0
M  V30 17612 C 1682.87 1.63448 -4.12067 0
M  V30 17613 H 1680.09 0.0980294 -0.663801 0
M  V30 17614 H 1682.64 -0.34876 -2.01504 0
M  V30 17615 H 1680.79 1.63121 -3.51384 0
M  V30 17616 H 1681.21 0.244429 -5.2393 0
M  V30 17617 H 1682.68 1.95292 -5.16299 0
M  V30 17618 H 1683.16 2.55055 -3.57553 0
M  V30 17619 H 1683.76 0.976292 -4.13943 0
M  V30 17620 N 1682.08 1.5754 0.0434337 0
M  V30 17621 C 1683.03 2.0207 1.05602 0
M  V30 17622 C 1684.01 0.907491 1.32866 0
M  V30 17623 O 1685.2 1.17141 1.32692 0
M  V30 17624 C 1682.33 2.49176 2.36149 0
M  V30 17625 C 1681.42 3.67289 2.12037 0
M  V30 17626 N 1681.81 4.8051 1.57937 0
M  V30 17627 C 1680.11 3.74386 2.42387 0
M  V30 17628 C 1680.81 5.62214 1.49298 0
M  V30 17629 N 1679.78 5.06899 1.96353 0
M  V30 17630 H 1683.59 2.87035 0.631515 0
M  V30 17631 H 1681.1 1.60464 0.250012 0
M  V30 17632 H 1683.1 2.79331 3.09483 0
M  V30 17633 H 1681.76 1.65611 2.79291 0
M  V30 17634 H 1682.77 5.02237 1.26405 0
M  V30 17635 H 1679.45 3.01592 2.88701 0
M  V30 17636 H 1680.84 6.6315 1.08082 0
M  V30 17637 N 1683.56 -0.31543 1.54411 0
M  V30 17638 C 1684.78 -1.0761 1.77299 0
M  V30 17639 C 1685.21 -1.80655 0.523963 0
M  V30 17640 O 1684.56 -1.73536 -0.524874 0
M  V30 17641 C 1684.61 -2.04355 2.97105 0
M  V30 17642 O 1683.72 -3.12401 2.69219 0
M  V30 17643 H 1683.06 -0.30986 0.587267 0
M  V30 17644 H 1685.59 -0.357246 2.01457 0
M  V30 17645 H 1685.6 -2.47081 3.24677 0
M  V30 17646 H 1684.27 -1.50592 3.87679 0
M  V30 17647 H 1682.85 -2.74294 2.52621 0
M  V30 17648 N 1685.03 -1.46622 -0.577906 0
M  V30 17649 C 1686.26 -1.55534 -1.35988 0
M  V30 17650 C 1686.67 -0.197065 -1.88171 0
M  V30 17651 O 1686.02 0.816609 -1.64551 0
M  V30 17652 C 1686.08 -2.5035 -2.58002 0
M  V30 17653 C 1685.74 -3.96491 -2.27253 0
M  V30 17654 C 1686.74 -4.85567 -1.85797 0
M  V30 17655 C 1684.42 -4.41662 -2.39249 0
M  V30 17656 C 1686.42 -6.17828 -1.56738 0
M  V30 17657 C 1684.1 -5.73956 -2.09803 0
M  V30 17658 C 1685.1 -6.6186 -1.68613 0
M  V30 17659 O 1684.79 -7.91698 -1.3953 0
M  V30 17660 H 1684.52 -0.528412 -0.421612 0
M  V30 17661 H 1687.08 -1.92774 -0.709038 0
M  V30 17662 H 1685.31 -2.08137 -3.25908 0
M  V30 17663 H 1687 -2.49616 -3.20073 0
M  V30 17664 H 1687.76 -4.51924 -1.76039 0
M  V30 17665 H 1683.64 -3.73462 -2.70272 0
M  V30 17666 H 1687.18 -6.86398 -1.24514 0
M  V30 17667 H 1683.08 -6.07147 -2.19187 0
M  V30 17668 H 1683.85 -8.04009 -1.53335 0
M  V30 17669 N 1686.51 0.822941 -1.34408 0
M  V30 17670 C 1687.93 1.11606 -1.14089 0
M  V30 17671 C 1688.13 2.01418 0.0576164 0
M  V30 17672 O 1687.18 2.41622 0.733146 0
M  V30 17673 C 1688.5 1.76279 -2.43611 0
M  V30 17674 C 1690.05 1.88773 -2.49667 0
M  V30 17675 C 1690.52 2.56862 -3.79191 0
M  V30 17676 N 1692.01 2.64362 -3.80351 0
M  V30 17677 C 1692.75 3.17775 -4.77291 0
M  V30 17678 N 1692.24 3.71751 -5.84613 0
M  V30 17679 N 1694.04 3.16175 -4.64747 0
M  V30 17680 H 1686.19 0.225555 -2.11199 0
M  V30 17681 H 1688.45 0.162621 -0.933948 0
M  V30 17682 H 1688.16 1.17749 -3.31403 0
M  V30 17683 H 1688.03 2.76147 -2.56949 0
M  V30 17684 H 1690.42 2.46451 -1.62314 0
M  V30 17685 H 1690.5 0.878079 -2.40257 0
M  V30 17686 H 1690.14 1.99839 -4.66933 0
M  V30 17687 H 1690.07 3.58332 -3.85883 0
M  V30 17688 H 1692.56 2.26102 -3.02797 0
M  V30 17689 H 1692.88 4.10759 -6.54597 0
M  V30 17690 H 1691.22 3.69995 -5.88327 0
M  V30 17691 H 1694.41 2.73274 -3.80051 0
M  V30 17692 H 1694.58 3.57498 -5.40462 0
M  V30 17693 N 1687.99 1.18137 1.04314 0
M  V30 17694 C 1689.22 1.00062 1.81666 0
M  V30 17695 C 1689.64 -0.446281 1.82729 0
M  V30 17696 O 1689 -1.32004 1.24277 0
M  V30 17697 C 1689.05 1.55698 3.25255 0
M  V30 17698 O 1688.15 0.776662 4.05021 0
M  V30 17699 H 1687.49 0.354651 0.561354 0
M  V30 17700 H 1690.02 1.56837 1.3139 0
M  V30 17701 H 1690.03 1.58303 3.76037 0
M  V30 17702 H 1688.71 2.61016 3.23795 0
M  V30 17703 H 1687.28 0.822723 3.63711 0
M  V30 17704 N 1689.47 -1.23186 0.98301 0
M  V30 17705 C 1690.7 -1.95702 0.671453 0
M  V30 17706 C 1691.11 -1.72737 -0.76206 0
M  V30 17707 O 1690.47 -1.02037 -1.5131 0
M  V30 17708 C 1690.52 -3.48642 0.955573 0
M  V30 17709 O 1690.24 -3.70829 2.33275 0
M  V30 17710 C 1691.74 -4.38354 0.660333 0
M  V30 17711 H 1688.96 -0.623006 0.249209 0
M  V30 17712 H 1691.51 -1.56606 1.3151 0
M  V30 17713 H 1689.66 -3.85743 0.357892 0
M  V30 17714 H 1690.07 -4.65104 2.42443 0
M  V30 17715 H 1691.55 -5.44456 0.909477 0
M  V30 17716 H 1692.03 -4.37323 -0.405615 0
M  V30 17717 H 1692.63 -4.06864 1.23861 0
M  V30 17718 N 1690.95 -0.754982 -1.38339 0
M  V30 17719 C 1692.36 -0.379276 -1.82807 0
M  V30 17720 C 1692.71 1.09228 -1.62984 0
M  V30 17721 O 1691.83 1.84445 -1.13177 0
M  V30 17722 C 1692.43 -0.681628 -3.31872 0
M  V30 17723 C 1690.99 -0.359183 -3.74682 0
M  V30 17724 C 1690.13 -0.93409 -2.61094 0
M  V30 17725 H 1693.09 -0.951019 -1.27048 0
M  V30 17726 H 1693.11 0.0396803 -3.80479 0
M  V30 17727 H 1692.62 -1.75271 -3.46268 0
M  V30 17728 H 1690.72 0.705257 -3.65865 0
M  V30 17729 H 1690.83 -0.85571 -4.71396 0
M  V30 17730 H 1689.2 -0.359379 -2.52152 0
M  V30 17731 H 1689.98 -2.01023 -2.78289 0
M  V30 17732 N 1692.42 1.49318 -0.504168 0
M  V30 17733 C 1693.7 1.95332 0.102393 0
M  V30 17734 C 1694.08 1.44576 1.53821 0
M  V30 17735 O 1693.43 0.660894 2.18734 0
M  V30 17736 C 1693.64 3.48998 0.0117694 0
M  V30 17737 C 1694.99 4.24201 0.184101 0
M  V30 17738 O 1696.01 3.56094 0.0868056 0
M  V30 17739 O 1694.87 5.45147 0.384267 0
M  V30 17740 H 1691.96 0.821691 0.0935582 0
M  V30 17741 H 1694.51 1.5995 -0.566932 0
M  V30 17742 H 1693.28 3.78585 -0.989413 0
M  V30 17743 H 1692.91 3.91006 0.7211 0
M  V30 17744 N 1693.9 0.238138 1.5579 0
M  V30 17745 C 1695.13 -0.396409 2.03576 0
M  V30 17746 C 1695.55 -1.5138 1.11649 0
M  V30 17747 O 1694.91 -1.80979 0.107774 0
M  V30 17748 C 1694.96 -0.889749 3.49451 0
M  V30 17749 O 1694.06 -1.99997 3.60659 0
M  V30 17750 H 1693.4 -0.0876017 0.658196 0
M  V30 17751 H 1695.93 0.361632 2.01379 0
M  V30 17752 H 1695.94 -1.19526 3.901 0
M  V30 17753 H 1694.62 -0.0720136 4.15838 0
M  V30 17754 H 1693.2 -1.69983 3.31904 0
M  V30 17755 N 1695.38 -1.57561 -0.0350783 0
M  V30 17756 C 1696.34 -2.05145 -1.02217 0
M  V30 17757 C 1697.34 -0.954524 -1.29404 0
M  V30 17758 O 1698.53 -1.21833 -1.24509 0
M  V30 17759 C 1695.67 -2.4633 -2.35658 0
M  V30 17760 H 1696.86 -2.93605 -0.61126 0
M  V30 17761 H 1694.41 -1.53739 -0.28176 0
M  V30 17762 H 1695.15 -1.61008 -2.81508 0
M  V30 17763 H 1694.93 -3.26408 -2.17256 0
M  V30 17764 H 1696.42 -2.83592 -3.06537 0
M  V30 17765 N 1696.86 0.307236 -1.54576 0
M  V30 17766 C 1698.09 1.06079 -1.77287 0
M  V30 17767 C 1698.5 1.81643 -0.529395 0
M  V30 17768 O 1697.84 1.76474 0.510149 0
M  V30 17769 C 1697.9 2.09234 -2.92338 0
M  V30 17770 C 1697.57 1.52922 -4.30655 0
M  V30 17771 C 1698.56 0.962487 -5.10913 0
M  V30 17772 C 1696.25 1.56673 -4.77241 0
M  V30 17773 C 1698.24 0.44075 -6.35874 0
M  V30 17774 C 1695.93 1.04112 -6.02166 0
M  V30 17775 C 1696.93 0.479095 -6.81318 0
M  V30 17776 O 1696.61 -0.0385602 -8.03891 0
M  V30 17777 H 1696.35 0.320647 -0.595114 0
M  V30 17778 H 1698.9 0.353984 -2.02327 0
M  V30 17779 H 1697.13 2.83578 -2.62908 0
M  V30 17780 H 1698.82 2.70441 -3.02682 0
M  V30 17781 H 1699.59 0.926457 -4.76069 0
M  V30 17782 H 1695.46 1.99357 -4.15665 0
M  V30 17783 H 1699.01 0.00141848 -6.976 0
M  V30 17784 H 1694.91 1.07428 -6.36498 0
M  V30 17785 H 1695.67 0.0753282 -8.18465 0
M  V30 17786 N 1698.34 1.46926 0.570122 0
M  V30 17787 C 1699.27 1.61311 1.68822 0
M  V30 17788 C 1700.25 0.462964 1.63678 0
M  V30 17789 O 1701.43 0.690745 1.815 0
M  V30 17790 C 1698.56 1.61499 3.07466 0
M  V30 17791 C 1697.52 2.7561 3.27449 0
M  V30 17792 C 1696.84 2.60865 4.66748 0
M  V30 17793 C 1698.14 4.17324 3.14067 0
M  V30 17794 H 1699.84 2.54909 1.5704 0
M  V30 17795 H 1697.38 1.22677 0.754077 0
M  V30 17796 H 1699.34 1.70155 3.8552 0
M  V30 17797 H 1698.06 0.64453 3.20177 0
M  V30 17798 H 1696.72 2.66444 2.51799 0
M  V30 17799 H 1696.37 1.61875 4.76241 0
M  V30 17800 H 1696.07 3.37411 4.81069 0
M  V30 17801 H 1697.59 2.7143 5.46954 0
M  V30 17802 H 1699 4.27534 3.81952 0
M  V30 17803 H 1697.4 4.94555 3.39905 0
M  V30 17804 H 1698.47 4.36596 2.10979 0
M  V30 17805 N 1699.82 -0.815801 1.34842 0
M  V30 17806 C 1701.06 -1.5693 1.27347 0
M  V30 17807 C 1701.38 -1.94387 -0.154462 0
M  V30 17808 O 1700.65 -1.62858 -1.08876 0
M  V30 17809 H 1699.23 -0.581923 0.468374 0
M  V30 17810 H 1701.9 -0.973642 1.68838 0
M  V30 17811 H 1700.99 -2.4889 1.88308 0
M  V30 17812 N 1701.29 -1.18689 -1.03686 0
M  V30 17813 C 1702.26 -0.919415 -2.09951 0
M  V30 17814 C 1703.26 0.0968042 -1.60508 0
M  V30 17815 O 1704.45 -0.137062 -1.7366 0
M  V30 17816 C 1701.58 -0.380204 -3.38773 0
M  V30 17817 H 1702.77 -1.86178 -2.35112 0
M  V30 17818 H 1700.32 -0.999435 -1.20171 0
M  V30 17819 H 1701.06 0.568586 -3.19277 0
M  V30 17820 H 1700.84 -1.11281 -3.75977 0
M  V30 17821 H 1702.33 -0.211891 -4.17062 0
M  V30 17822 N 1702.77 1.22662 -0.989529 0
M  V30 17823 C 1704 1.95883 -0.681511 0
M  V30 17824 C 1704.42 1.72646 0.746646 0
M  V30 17825 O 1703.78 1.00358 1.5099 0
M  V30 17826 C 1703.83 3.46773 -0.988975 0
M  V30 17827 O 1702.93 4.12311 -0.0858485 0
M  V30 17828 H 1702.27 0.612916 -0.255401 0
M  V30 17829 H 1704.8 1.5585 -1.32559 0
M  V30 17830 H 1704.81 3.97273 -0.929426 0
M  V30 17831 H 1703.49 3.63011 -2.02967 0
M  V30 17832 H 1702.06 3.7236 -0.200592 0
M  V30 17833 N 1704.25 0.762308 1.37937 0
M  V30 17834 C 1705.47 0.332217 2.04722 0
M  V30 17835 C 1705.9 -1.03417 1.57119 0
M  V30 17836 O 1705.26 -1.6608 0.727117 0
M  V30 17837 C 1705.31 0.373899 3.58656 0
M  V30 17838 O 1704.41 -0.629024 4.07575 0
M  V30 17839 H 1703.75 0.145471 0.647869 0
M  V30 17840 H 1706.28 1.03586 1.7644 0
M  V30 17841 H 1706.29 0.22785 4.07363 0
M  V30 17842 H 1704.97 1.37079 3.92661 0
M  V30 17843 H 1703.54 -0.446871 3.70213 0
M  V30 17844 N 1705.73 -1.49049 0.51208 0
M  V30 17845 C 1706.66 -2.27264 -0.297278 0
M  V30 17846 C 1707.67 -1.34266 -0.920674 0
M  V30 17847 O 1708.86 -1.59461 -0.80214 0
M  V30 17848 C 1705.96 -3.07042 -1.43452 0
M  V30 17849 C 1705.13 -4.27693 -0.916376 0
M  V30 17850 C 1704.19 -4.89427 -1.93256 0
M  V30 17851 O 1703.22 -5.49171 -1.49666 0
M  V30 17852 N 1704.42 -4.80066 -3.26369 0
M  V30 17853 H 1707.19 -2.97364 0.373445 0
M  V30 17854 H 1704.75 -1.58175 0.3453 0
M  V30 17855 H 1706.74 -3.45213 -2.1121 0
M  V30 17856 H 1705.31 -2.39478 -2.0092 0
M  V30 17857 H 1704.53 -3.94149 -0.0633415 0
M  V30 17858 H 1705.82 -5.05832 -0.548786 0
M  V30 17859 H 1705.22 -4.32646 -3.64464 0
M  V30 17860 H 1703.77 -5.2239 -3.89811 0
M  V30 17861 N 1707.21 -0.246397 -1.55662 0
M  V30 17862 C 1708.43 0.385607 -2.03784 0
M  V30 17863 C 1708.86 1.50786 -1.12451 0
M  V30 17864 O 1708.21 1.8092 -0.117371 0
M  V30 17865 C 1708.26 0.871204 -3.49918 0
M  V30 17866 O 1707.37 1.98082 -3.61715 0
M  V30 17867 H 1706.71 0.0841099 -0.658651 0
M  V30 17868 H 1709.24 -0.372306 -2.01184 0
M  V30 17869 H 1709.25 1.17455 -3.90728 0
M  V30 17870 H 1707.92 0.0499597 -4.1587 0
M  V30 17871 H 1706.5 1.6822 -3.32801 0
M  V30 17872 N 1708.68 1.57577 0.026722 0
M  V30 17873 C 1709.91 1.94035 0.732473 0
M  V30 17874 C 1710.33 0.846575 1.67972 0
M  V30 17875 O 1709.69 -0.197514 1.80221 0
M  V30 17876 C 1709.74 3.2956 1.46365 0
M  V30 17877 O 1708.84 3.21975 2.57694 0
M  V30 17878 H 1708.18 0.634155 0.196832 0
M  V30 17879 H 1710.71 2.04592 -0.018503 0
M  V30 17880 H 1710.72 3.64504 1.83305 0
M  V30 17881 H 1709.4 4.0873 0.768943 0
M  V30 17882 H 1707.98 2.98665 2.23279 0
M  V30 17883 N 1710.16 -0.299034 1.54737 0
M  V30 17884 C 1711.39 -1.05723 1.7843 0
M  V30 17885 C 1711.81 -1.80089 0.543094 0
M  V30 17886 O 1711.17 -1.74083 -0.506438 0
M  V30 17887 C 1711.22 -2.01193 2.99255 0
M  V30 17888 O 1710.32 -3.09528 2.72518 0
M  V30 17889 H 1709.66 -0.303614 0.590521 0
M  V30 17890 H 1712.19 -0.335859 2.01825 0
M  V30 17891 H 1712.2 -2.43623 3.27279 0
M  V30 17892 H 1710.88 -1.46472 3.89254 0
M  V30 17893 H 1709.45 -2.71599 2.55516 0
M  V30 17894 N 1711.64 -1.47227 -0.562322 0
M  V30 17895 C 1713.05 -1.47509 -1.14446 0
M  V30 17896 C 1713.4 -0.22699 -1.94883 0
M  V30 17897 O 1712.53 0.668483 -2.05816 0
M  V30 17898 C 1713.12 -2.67266 -2.08217 0
M  V30 17899 C 1711.68 -2.70524 -2.61713 0
M  V30 17900 C 1710.83 -2.4053 -1.37988 0
M  V30 17901 H 1713.78 -1.54811 -0.349185 0
M  V30 17902 H 1713.8 -2.43945 -2.92012 0
M  V30 17903 H 1713.31 -3.58089 -1.49646 0
M  V30 17904 H 1711.41 -1.83827 -3.24096 0
M  V30 17905 H 1711.53 -3.71072 -3.03056 0
M  V30 17906 H 1709.89 -1.91007 -1.68489 0
M  V30 17907 H 1710.67 -3.33554 -0.812177 0
M  V30 17908 N 1713.12 0.808639 -1.35273 0
M  V30 17909 C 1714.08 1.90195 -1.279 0
M  V30 17910 C 1715.08 1.59663 -0.190915 0
M  V30 17911 O 1716.27 1.68434 -0.444482 0
M  V30 17912 C 1713.4 3.26567 -0.978106 0
M  V30 17913 H 1714.6 1.98152 -2.25113 0
M  V30 17914 H 1712.15 1.00426 -1.19767 0
M  V30 17915 H 1712.88 3.24299 -0.00975789 0
M  V30 17916 H 1712.67 3.50114 -1.7653 0
M  V30 17917 H 1714.16 4.06602 -0.95207 0
M  V30 17918 N 1714.6 1.19237 1.03055 0
M  V30 17919 C 1715.82 1.01983 1.80594 0
M  V30 17920 C 1716.25 -0.426875 1.83192 0
M  V30 17921 O 1715.6 -1.30678 1.2567 0
M  V30 17922 C 1715.65 1.59139 3.23585 0
M  V30 17923 O 1714.76 0.819576 4.04174 0
M  V30 17924 H 1714.1 0.360585 0.557561 0
M  V30 17925 H 1716.63 1.58222 1.29719 0
M  V30 17926 H 1716.64 1.62283 3.74337 0
M  V30 17927 H 1715.31 2.64436 3.21009 0
M  V30 17928 H 1713.89 0.861253 3.62818 0
M  V30 17929 N 1716.07 -1.22136 0.99602 0
M  V30 17930 C 1717.3 -1.95519 0.69189 0
M  V30 17931 C 1717.72 -1.7304 -0.73748 0
M  V30 17932 O 1717.08 -1.01157 -1.50456 0
M  V30 17933 C 1717.13 -3.46244 1.00735 0
M  V30 17934 O 1716.23 -4.12259 0.107713 0
M  V30 17935 H 1715.58 -0.611553 0.258648 0
M  V30 17936 H 1718.11 -1.55145 1.33384 0
M  V30 17937 H 1718.12 -3.96774 0.950482 0
M  V30 17938 H 1716.79 -3.6193 2.04889 0
M  V30 17939 H 1715.37 -3.72248 0.220336 0
M  V30 17940 N 1717.55 -0.769612 -1.37531 0
M  V30 17941 C 1718.78 -0.344282 -2.04015 0
M  V30 17942 C 1719.2 1.03281 -1.58046 0
M  V30 17943 O 1718.55 1.65888 -0.760746 0
M  V30 17944 C 1718.6 -0.375922 -3.5954 0
M  V30 17945 O 1718.32 -1.69869 -4.03827 0
M  V30 17946 C 1719.83 0.0612715 -4.43258 0
M  V30 17947 H 1717.05 -0.144584 -0.655238 0
M  V30 17948 H 1719.59 -1.04294 -1.75906 0
M  V30 17949 H 1717.74 0.274136 -3.86429 0
M  V30 17950 H 1718.16 -1.63584 -4.98338 0
M  V30 17951 H 1719.63 -0.012022 -5.51999 0
M  V30 17952 H 1720.11 1.11136 -4.24906 0
M  V30 17953 H 1720.72 -0.560517 -4.2159 0
M  V30 17954 N 1719.03 1.48775 -0.519977 0
M  V30 17955 C 1720.44 1.86541 -0.0769625 0
M  V30 17956 C 1720.79 1.43053 1.34277 0
M  V30 17957 O 1719.92 0.816781 2.00394 0
M  V30 17958 C 1720.51 3.38539 -0.132891 0
M  V30 17959 C 1719.07 3.75536 0.254875 0
M  V30 17960 C 1718.22 2.72808 -0.497088 0
M  V30 17961 H 1721.17 1.40822 -0.731765 0
M  V30 17962 H 1721.19 3.7477 0.657856 0
M  V30 17963 H 1720.7 3.70161 -1.1663 0
M  V30 17964 H 1718.8 3.49527 1.29081 0
M  V30 17965 H 1718.92 4.79037 -0.0777747 0
M  V30 17966 H 1717.28 2.5464 0.0554331 0
M  V30 17967 H 1718.06 3.07274 -1.53094 0
M  V30 17968 N 1720.51 0.254649 1.55529 0
M  V30 17969 C 1721.46 -0.657787 2.23105 0
M  V30 17970 C 1722.45 -1.17402 1.22119 0
M  V30 17971 O 1723.66 -1.13002 1.40109 0
M  V30 17972 H 1720.03 -0.230628 0.715762 0
M  V30 17973 H 1722 -0.0647759 2.9833 0
M  V30 17974 C 1720.75 -1.84018 2.95013 0
M  V30 17975 H 1720.07 -1.45211 3.72497 0
M  V30 17976 H 1721.51 -2.45568 3.45648 0
M  V30 17977 C 1719.97 -2.7161 1.99322 0
M  V30 17978 O 1720.5 -3.7137 1.53125 0
M  V30 17979 N 1718.71 -2.38342 1.66258 0
M  V30 17980 H 1718.26 -1.57268 2.04021 0
M  V30 17981 H 1718.21 -2.97222 1.025 0
M  V30 17982 N 1721.99 -1.57589 -0.0183649 0
M  V30 17983 C 1723.21 -1.94421 -0.722172 0
M  V30 17984 C 1723.64 -0.855471 -1.67521 0
M  V30 17985 O 1722.99 0.187954 -1.80323 0
M  V30 17986 C 1723.04 -3.30331 -1.44615 0
M  V30 17987 O 1722.15 -3.23337 -2.55982 0
M  V30 17988 H 1721.49 -0.63519 -0.193466 0
M  V30 17989 H 1724.02 -2.04579 0.0293527 0
M  V30 17990 H 1724.03 -3.65471 -1.8137 0
M  V30 17991 H 1722.7 -4.09132 -0.747256 0
M  V30 17992 H 1721.28 -2.99845 -2.21692 0
M  V30 17993 N 1723.46 0.290824 -1.54893 0
M  V30 17994 C 1724.88 0.86313 -1.6555 0
M  V30 17995 C 1725.23 1.87713 -0.570806 0
M  V30 17996 O 1724.35 2.14437 0.290826 0
M  V30 17997 C 1724.95 1.57231 -3.00107 0
M  V30 17998 C 1723.51 2.09288 -3.1285 0
M  V30 17999 C 1722.65 0.928933 -2.61278 0
M  V30 18000 H 1725.6 0.0675807 -1.58556 0
M  V30 18001 H 1725.62 2.43841 -2.92099 0
M  V30 18002 H 1725.14 0.834055 -3.79032 0
M  V30 18003 H 1723.24 2.86129 -2.38665 0
M  V30 18004 H 1723.35 2.32042 -4.19158 0
M  V30 18005 H 1721.71 1.31735 -2.17986 0
M  V30 18006 H 1722.5 0.204475 -3.42691 0
M  V30 18007 N 1724.94 1.47523 0.554506 0
M  V30 18008 C 1725.91 1.59761 1.64345 0
M  V30 18009 C 1726.91 0.472516 1.53701 0
M  V30 18010 O 1728.1 0.737659 1.57811 0
M  V30 18011 C 1725.23 1.54467 3.03896 0
M  V30 18012 H 1726.42 2.56834 1.54842 0
M  V30 18013 H 1723.97 1.35753 0.774643 0
M  V30 18014 H 1724.71 0.587789 3.18929 0
M  V30 18015 H 1724.49 2.36123 3.13031 0
M  V30 18016 H 1725.98 1.66174 3.83113 0
M  V30 18017 N 1726.42 -0.801453 1.357 0
M  V30 18018 C 1727.65 -1.59518 1.32547 0
M  V30 18019 C 1728.07 -1.87868 -0.0934243 0
M  V30 18020 O 1727.43 -1.46955 -1.06179 0
M  V30 18021 C 1727.48 -2.90028 2.14281 0
M  V30 18022 O 1726.58 -3.83086 1.52704 0
M  V30 18023 H 1725.92 -0.48434 0.454215 0
M  V30 18024 H 1728.45 -0.994315 1.78814 0
M  V30 18025 H 1728.46 -3.39406 2.26423 0
M  V30 18026 H 1727.14 -2.6872 3.17431 0
M  V30 18027 H 1725.71 -3.4165 1.49432 0
M  V30 18028 N 1727.9 -1.19782 -1.02421 0
M  V30 18029 C 1729.12 -1.02939 -1.80051 0
M  V30 18030 C 1729.55 0.417153 -1.83416 0
M  V30 18031 O 1728.91 1.3001 -1.26361 0
M  V30 18032 C 1728.95 -1.60853 -3.22736 0
M  V30 18033 O 1728.06 -0.840999 -4.03734 0
M  V30 18034 H 1727.4 -0.363537 -0.555641 0
M  V30 18035 H 1729.93 -1.58908 -1.28878 0
M  V30 18036 H 1729.94 -1.64266 -3.73471 0
M  V30 18037 H 1728.61 -2.66135 -3.19602 0
M  V30 18038 H 1727.19 -0.880482 -3.62356 0
M  V30 18039 N 1729.38 1.21606 -1.00248 0
M  V30 18040 C 1730.34 2.22107 -0.565772 0
M  V30 18041 C 1731.34 1.56798 0.356521 0
M  V30 18042 O 1732.53 1.73577 0.147154 0
M  V30 18043 C 1729.66 3.40447 0.175742 0
M  V30 18044 H 1730.86 2.62258 -1.45468 0
M  V30 18045 H 1728.41 1.34823 -0.790721 0
M  V30 18046 H 1729.14 3.05781 1.0802 0
M  V30 18047 H 1728.93 3.89069 -0.486612 0
M  V30 18048 H 1730.42 4.14957 0.469122 0
M  V30 18049 N 1730.86 0.776895 1.37121 0
M  V30 18050 C 1732.08 0.353911 2.04358 0
M  V30 18051 C 1732.51 -1.01745 1.58207 0
M  V30 18052 O 1731.86 -1.653 0.744691 0
M  V30 18053 C 1731.91 0.411918 3.5824 0
M  V30 18054 O 1731.02 -0.58576 4.08219 0
M  V30 18055 H 1730.36 0.152335 0.64629 0
M  V30 18056 H 1732.89 1.05452 1.75331 0
M  V30 18057 H 1732.9 0.271043 4.07099 0
M  V30 18058 H 1731.57 1.41236 3.91185 0
M  V30 18059 H 1730.15 -0.40758 3.70666 0
M  V30 18060 N 1732.33 -1.48497 0.527859 0
M  V30 18061 C 1733.28 -2.2656 -0.255874 0
M  V30 18062 C 1734.27 -1.32572 -0.911777 0
M  V30 18063 O 1735.46 -1.57124 -0.814934 0
M  V30 18064 C 1732.59 -3.17591 -1.30348 0
M  V30 18065 C 1731.67 -4.19051 -0.652474 0
M  V30 18066 N 1732.07 -5.05128 0.260561 0
M  V30 18067 C 1730.36 -4.36619 -0.909929 0
M  V30 18068 C 1731.06 -5.78214 0.635906 0
M  V30 18069 N 1730.04 -5.436 -0.00251422 0
M  V30 18070 H 1733.84 -2.90487 0.446571 0
M  V30 18071 H 1731.36 -1.58677 0.345742 0
M  V30 18072 H 1733.35 -3.72173 -1.87865 0
M  V30 18073 H 1732.01 -2.55219 -2.00733 0
M  V30 18074 H 1733.02 -5.14017 0.633035 0
M  V30 18075 H 1729.7 -3.85437 -1.6045 0
M  V30 18076 H 1731.09 -6.57482 1.38446 0
M  V30 18077 N 1733.81 -0.262893 -1.55392 0
M  V30 18078 C 1734.76 0.644115 -2.18712 0
M  V30 18079 C 1735.75 1.12746 -1.14792 0
M  V30 18080 O 1736.94 1.07457 -1.40649 0
M  V30 18081 C 1734.07 1.83346 -2.9024 0
M  V30 18082 C 1733.15 1.36787 -4.01435 0
M  V30 18083 N 1733.54 0.617586 -5.02015 0
M  V30 18084 C 1731.84 1.65185 -4.14283 0
M  V30 18085 C 1732.54 0.374392 -5.80494 0
M  V30 18086 N 1731.52 0.943273 -5.35353 0
M  V30 18087 H 1735.32 0.062908 -2.93833 0
M  V30 18088 H 1732.83 -0.0659062 -1.62266 0
M  V30 18089 H 1734.83 2.49441 -3.34043 0
M  V30 18090 H 1733.49 2.41874 -2.16627 0
M  V30 18091 H 1734.5 0.266115 -5.17216 0
M  V30 18092 H 1731.18 2.24736 -3.51852 0
M  V30 18093 H 1732.57 -0.225674 -6.71521 0
M  V30 18094 N 1735.29 1.57597 0.0100073 0
M  V30 18095 C 1736.54 1.89308 0.696075 0
M  V30 18096 C 1736.85 0.863884 1.75489 0
M  V30 18097 O 1738.06 1.07087 2.49489 0
M  V30 18098 C 1736.51 3.36017 1.2892 0
M  V30 18099 C 1736.12 4.47211 0.265731 0
M  V30 18100 C 1737.87 3.76852 1.95404 0
M  V30 18101 C 1735.77 5.84991 0.868277 0
M  V30 18102 H 1734.7 0.706368 0.263744 0
M  V30 18103 H 1737.35 1.83435 -0.0488972 0
M  V30 18104 H 1735.74 3.36696 2.08451 0
M  V30 18105 H 1736.91 4.58033 -0.504256 0
M  V30 18106 H 1735.22 4.15332 -0.298096 0
M  V30 18107 H 1737.82 4.77121 2.41371 0
M  V30 18108 H 1738.16 3.09841 2.78036 0
M  V30 18109 H 1738.7 3.7843 1.22621 0
M  V30 18110 H 1735.44 6.5545 0.0809513 0
M  V30 18111 H 1734.96 5.77853 1.60766 0
M  V30 18112 H 1736.64 6.32331 1.36993 0
M  V30 18113 N 1736.77 -0.282606 1.55045 0
M  V30 18114 C 1738.18 -0.629284 1.4667 0
M  V30 18115 C 1738.38 -1.89931 0.672932 0
M  V30 18116 O 1737.44 -2.518 0.187946 0
M  V30 18117 C 1738.75 -0.765174 2.90802 0
M  V30 18118 C 1740.3 -0.859859 3.00958 0
M  V30 18119 C 1740.78 -1.0276 4.46323 0
M  V30 18120 N 1742.27 -1.09336 4.50111 0
M  V30 18121 C 1743 -1.24178 5.59792 0
M  V30 18122 N 1742.5 -1.358 6.7936 0
M  V30 18123 N 1744.29 -1.27212 5.47516 0
M  V30 18124 H 1736.44 0.551592 2.05113 0
M  V30 18125 H 1738.7 0.185277 0.929718 0
M  V30 18126 H 1738.41 0.0974312 3.51565 0
M  V30 18127 H 1738.28 -1.64848 3.39271 0
M  V30 18128 H 1740.67 -1.71294 2.40297 0
M  V30 18129 H 1740.75 0.0478484 2.55755 0
M  V30 18130 H 1740.4 -0.179219 5.07584 0
M  V30 18131 H 1740.33 -1.94981 4.89173 0
M  V30 18132 H 1742.82 -1.01633 3.63977 0
M  V30 18133 H 1743.13 -1.46932 7.58703 0
M  V30 18134 H 1741.48 -1.32822 6.8219 0
M  V30 18135 H 1744.67 -1.17756 4.53046 0
M  V30 18136 H 1744.84 -1.38435 6.3304 0
M  V30 18137 N 1738.25 -1.47815 -0.546675 0
M  V30 18138 C 1739.66 -1.48715 -1.12875 0
M  V30 18139 C 1740.01 -0.247647 -1.94631 0
M  V30 18140 O 1739.13 0.646615 -2.06514 0
M  V30 18141 C 1739.73 -2.69459 -2.05371 0
M  V30 18142 C 1738.29 -2.73285 -2.58829 0
M  V30 18143 C 1737.43 -2.4198 -1.35429 0
M  V30 18144 H 1740.38 -1.55172 -0.332746 0
M  V30 18145 H 1740.41 -2.47028 -2.89408 0
M  V30 18146 H 1739.92 -3.59656 -1.4584 0
M  V30 18147 H 1738.02 -1.87254 -3.22128 0
M  V30 18148 H 1738.13 -3.74265 -2.99103 0
M  V30 18149 H 1736.5 -1.92783 -1.66454 0
M  V30 18150 H 1737.28 -3.34397 -0.776753 0
M  V30 18151 N 1739.72 0.794246 -1.36123 0
M  V30 18152 C 1740.95 1.58813 -1.33391 0
M  V30 18153 C 1741.37 1.87915 0.0834599 0
M  V30 18154 O 1740.73 1.47516 1.05398 0
M  V30 18155 C 1740.78 2.88887 -2.15816 0
M  V30 18156 O 1739.88 3.82271 -1.54734 0
M  V30 18157 H 1739.22 0.481924 -0.456777 0
M  V30 18158 H 1741.75 0.984818 -1.79339 0
M  V30 18159 H 1741.76 3.38201 -2.2822 0
M  V30 18160 H 1740.44 2.67032 -3.18852 0
M  V30 18161 H 1739.02 3.40852 -1.51242 0
M  V30 18162 N 1741.2 1.20323 1.01785 0
M  V30 18163 C 1742.43 1.03821 1.78966 0
M  V30 18164 C 1742.84 -0.412622 1.84236 0
M  V30 18165 O 1742.2 -1.2865 1.29443 0
M  V30 18166 C 1742.25 1.61352 3.23493 0
M  V30 18167 O 1741.97 3.00758 3.18553 0
M  V30 18168 C 1743.47 1.49786 4.17228 0
M  V30 18169 H 1740.69 0.365291 0.562853 0
M  V30 18170 H 1743.24 1.59383 1.2813 0
M  V30 18171 H 1741.39 1.09913 3.71481 0
M  V30 18172 H 1741.81 3.28034 4.09261 0
M  V30 18173 H 1743.28 1.94802 5.16484 0
M  V30 18174 H 1743.76 0.450143 4.36887 0
M  V30 18175 H 1744.36 2.00409 3.75122 0
M  V30 18176 N 1742.68 -1.21073 1.00892 0
M  V30 18177 C 1743.61 -2.25847 0.592897 0
M  V30 18178 C 1744.59 -1.6561 -0.38824 0
M  V30 18179 O 1745.78 -1.92238 -0.275361 0
M  V30 18180 C 1742.91 -3.47214 -0.0773439 0
M  V30 18181 C 1741.86 -4.19994 0.82398 0
M  V30 18182 C 1741.19 -5.34696 0.0199341 0
M  V30 18183 C 1742.49 -4.76964 2.12844 0
M  V30 18184 H 1744.18 -2.609 1.46873 0
M  V30 18185 H 1741.73 -1.25412 0.707656 0
M  V30 18186 H 1743.68 -4.19684 -0.379889 0
M  V30 18187 H 1742.4 -3.11303 -0.987833 0
M  V30 18188 H 1741.06 -3.49379 1.11041 0
M  V30 18189 H 1740.71 -4.95028 -0.891966 0
M  V30 18190 H 1740.41 -5.84319 0.620102 0
M  V30 18191 H 1741.93 -6.09974 -0.276336 0
M  V30 18192 H 1743.35 -5.41293 1.88878 0
M  V30 18193 H 1741.74 -5.36992 2.67879 0
M  V30 18194 H 1742.81 -3.96129 2.79659 0
M  V30 18195 N 1744.16 -0.784156 -1.36707 0
M  V30 18196 C 1745.11 -0.152155 -2.27492 0
M  V30 18197 C 1746.09 0.660807 -1.46704 0
M  V30 18198 O 1747.28 0.521744 -1.69136 0
M  V30 18199 C 1744.41 0.716367 -3.35743 0
M  V30 18200 C 1743.5 -0.1051 -4.2397 0
M  V30 18201 N 1743.89 -1.15697 -4.9239 0
M  V30 18202 C 1742.19 0.116908 -4.45847 0
M  V30 18203 C 1742.89 -1.65661 -5.57612 0
M  V30 18204 N 1741.87 -0.966703 -5.34935 0
M  V30 18205 H 1745.67 -0.957322 -2.77871 0
M  V30 18206 H 1743.18 -0.623106 -1.4997 0
M  V30 18207 H 1745.18 1.185 -3.99704 0
M  V30 18208 H 1743.84 1.52014 -2.86918 0
M  V30 18209 H 1744.85 -1.53933 -4.94495 0
M  V30 18210 H 1741.53 0.891605 -4.07868 0
M  V30 18211 H 1742.92 -2.53449 -6.22265 0
M  V30 18212 N 1745.64 1.48215 -0.535727 0
M  V30 18213 C 1746.88 2.021 -0.00372016 0
M  V30 18214 C 1747.21 1.41456 1.34221 0
M  V30 18215 O 1746.48 0.581987 1.87055 0
M  V30 18216 H 1745.06 0.746998 0.00161295 0
M  V30 18217 H 1747.72 1.81862 -0.700863 0
M  V30 18218 H 1746.81 3.11939 0.100352 0
M  V30 18219 N 1747.11 0.27113 1.5525 0
M  V30 18220 C 1748.04 -0.61179 2.25343 0
M  V30 18221 C 1749.03 -1.16208 1.24216 0
M  V30 18222 O 1750.21 -1.19696 1.52927 0
M  V30 18223 C 1747.34 -1.7978 2.97147 0
M  V30 18224 C 1746.29 -1.37922 4.05169 0
M  V30 18225 C 1745.62 -2.64801 4.64526 0
M  V30 18226 C 1746.92 -0.532357 5.1958 0
M  V30 18227 H 1748.61 -0.0272538 2.99388 0
M  V30 18228 H 1746.16 -0.0116681 1.43995 0
M  V30 18229 H 1748.11 -2.42132 3.44891 0
M  V30 18230 H 1746.84 -2.40811 2.20631 0
M  V30 18231 H 1745.5 -0.778918 3.5823 0
M  V30 18232 H 1745.14 -3.24081 3.84682 0
M  V30 18233 H 1744.84 -2.37507 5.37461 0
M  V30 18234 H 1746.37 -3.28009 5.15017 0
M  V30 18235 H 1747.78 -1.06078 5.63401 0
M  V30 18236 H 1746.18 -0.35447 5.99052 0
M  V30 18237 H 1747.25 0.44981 4.82809 0
M  V30 18238 N 1748.59 -1.576 -0.00164943 0
M  V30 18239 C 1749.82 -1.95176 -0.701511 0
M  V30 18240 C 1750.24 -0.873191 -1.66604 0
M  V30 18241 O 1749.6 0.168818 -1.80512 0
M  V30 18242 C 1749.65 -3.31847 -1.41104 0
M  V30 18243 O 1748.75 -3.26034 -2.52539 0
M  V30 18244 H 1748.09 -0.637207 -0.186718 0
M  V30 18245 H 1750.62 -2.04536 0.0510494 0
M  V30 18246 H 1750.63 -3.67374 -1.77483 0
M  V30 18247 H 1749.31 -4.09901 -0.70382 0
M  V30 18248 H 1747.89 -3.0218 -2.18499 0
M  V30 18249 N 1750.07 0.274379 -1.55193 0
M  V30 18250 C 1751.48 0.845522 -1.66457 0
M  V30 18251 C 1751.83 1.87097 -0.590684 0
M  V30 18252 O 1750.96 2.14733 0.268065 0
M  V30 18253 C 1751.55 1.54039 -3.01757 0
M  V30 18254 C 1750.11 2.05958 -3.15053 0
M  V30 18255 C 1749.26 0.901169 -2.62248 0
M  V30 18256 H 1752.21 0.0507599 -1.58619 0
M  V30 18257 H 1752.23 2.40729 -2.94669 0
M  V30 18258 H 1751.74 0.793807 -3.79895 0
M  V30 18259 H 1749.84 2.83582 -2.41686 0
M  V30 18260 H 1749.96 2.27584 -4.21595 0
M  V30 18261 H 1748.32 1.29416 -2.19371 0
M  V30 18262 H 1749.1 0.168116 -3.42888 0
M  V30 18263 N 1751.55 1.48103 0.538828 0
M  V30 18264 C 1752.5 1.61966 1.64425 0
M  V30 18265 C 1753.47 0.461999 1.59546 0
M  V30 18266 O 1754.65 0.684377 1.78104 0
M  V30 18267 C 1751.79 1.65711 3.02711 0
M  V30 18268 C 1750.9 2.92522 3.17891 0
M  V30 18269 C 1750.04 2.87485 4.46683 0
M  V30 18270 C 1749.08 4.0904 4.5536 0
M  V30 18271 N 1748.21 4.02131 5.7553 0
M  V30 18272 H 1753.05 2.5637 1.51916 0
M  V30 18273 H 1750.59 1.27146 0.739745 0
M  V30 18274 H 1752.55 1.65864 3.82812 0
M  V30 18275 H 1751.18 0.748045 3.14013 0
M  V30 18276 H 1750.23 3.02154 2.311 0
M  V30 18277 H 1751.54 3.82487 3.20165 0
M  V30 18278 H 1750.7 2.8599 5.35065 0
M  V30 18279 H 1749.44 1.95234 4.46917 0
M  V30 18280 H 1748.44 4.10819 3.65387 0
M  V30 18281 H 1749.67 5.02439 4.56872 0
M  V30 18282 H 1747.61 3.12695 5.76678 0
M  V30 18283 H 1747.53 4.85791 5.7926 0
M  V30 18284 H 1748.8 4.04682 6.66223 0
M  V30 18285 N 1753.03 -0.787016 1.36542 0
M  V30 18286 C 1753.96 -1.91399 1.33749 0
M  V30 18287 C 1754.94 -1.68817 0.208559 0
M  V30 18288 O 1756.12 -1.89896 0.406574 0
M  V30 18289 C 1753.25 -3.28457 1.12842 0
M  V30 18290 C 1752.21 -3.65568 2.22585 0
M  V30 18291 C 1751.53 -5.01002 1.86818 0
M  V30 18292 C 1752.83 -3.73902 3.64684 0
M  V30 18293 H 1754.53 -1.93993 2.2805 0
M  V30 18294 H 1752.07 -0.931937 1.09777 0
M  V30 18295 H 1754.03 -4.06919 1.09522 0
M  V30 18296 H 1752.75 -3.26256 0.149918 0
M  V30 18297 H 1751.41 -2.89405 2.25035 0
M  V30 18298 H 1751.06 -4.95325 0.875361 0
M  V30 18299 H 1750.76 -5.26802 2.60294 0
M  V30 18300 H 1752.28 -5.81881 1.85058 0
M  V30 18301 H 1753.69 -4.4255 3.64448 0
M  V30 18302 H 1752.09 -4.11188 4.37086 0
M  V30 18303 H 1753.16 -2.74946 3.99416 0
M  V30 18304 N 1754.5 -1.20861 -1.01145 0
M  V30 18305 C 1755.45 -0.929642 -2.08187 0
M  V30 18306 C 1756.44 0.112578 -1.60506 0
M  V30 18307 O 1757.63 -0.0954894 -1.76742 0
M  V30 18308 C 1754.76 -0.489163 -3.39797 0
M  V30 18309 C 1753.85 -1.5651 -3.94164 0
M  V30 18310 N 1754.24 -2.7887 -4.21978 0
M  V30 18311 C 1752.53 -1.43246 -4.2237 0
M  V30 18312 C 1753.24 -3.48309 -4.65892 0
M  V30 18313 N 1752.21 -2.75734 -4.68478 0
M  V30 18314 H 1756.01 -1.85937 -2.27606 0
M  V30 18315 H 1753.53 -1.10338 -1.19161 0
M  V30 18316 H 1755.52 -0.27069 -4.1602 0
M  V30 18317 H 1754.18 0.433877 -3.21788 0
M  V30 18318 H 1755.2 -3.15473 -4.10727 0
M  V30 18319 H 1751.87 -0.57422 -4.13532 0
M  V30 18320 H 1753.26 -4.53042 -4.96188 0
M  V30 18321 N 1755.98 1.20536 -1.01532 0
M  V30 18322 C 1757.4 1.41929 -0.729957 0
M  V30 18323 C 1757.6 1.89286 0.69088 0
M  V30 18324 O 1756.65 2.06094 1.45882 0
M  V30 18325 C 1757.97 2.44202 -1.75458 0
M  V30 18326 C 1759.52 2.57971 -1.77257 0
M  V30 18327 C 1759.99 3.63486 -2.78643 0
M  V30 18328 N 1761.48 3.70968 -2.77375 0
M  V30 18329 C 1762.22 4.52266 -3.52481 0
M  V30 18330 N 1761.71 5.37379 -4.37259 0
M  V30 18331 N 1763.51 4.46787 -3.41084 0
M  V30 18332 H 1755.66 0.881116 -1.93262 0
M  V30 18333 H 1757.92 0.449299 -0.834766 0
M  V30 18334 H 1757.63 2.16401 -2.77243 0
M  V30 18335 H 1757.5 3.43171 -1.56568 0
M  V30 18336 H 1759.89 2.85103 -0.761586 0
M  V30 18337 H 1759.97 1.59202 -2.00221 0
M  V30 18338 H 1759.61 3.37097 -3.79905 0
M  V30 18339 H 1759.54 4.61874 -2.52942 0
M  V30 18340 H 1762.03 3.10171 -2.15876 0
M  V30 18341 H 1762.35 5.96495 -4.91338 0
M  V30 18342 H 1760.69 5.36886 -4.41337 0
M  V30 18343 H 1763.88 3.79329 -2.74275 0
M  V30 18344 H 1764.05 5.0991 -3.9987 0
M  V30 18345 N 1757.46 0.791395 1.36289 0
M  V30 18346 C 1758.39 0.149076 2.28715 0
M  V30 18347 C 1759.41 -0.642827 1.49571 0
M  V30 18348 O 1760.59 -0.477685 1.7199 0
M  V30 18349 C 1757.69 -0.811868 3.29032 0
M  V30 18350 C 1756.87 -0.0695975 4.37345 0
M  V30 18351 C 1755.93 -0.946776 5.17612 0
M  V30 18352 O 1754.95 -0.403295 5.67769 0
M  V30 18353 N 1756.15 -2.27079 5.34243 0
M  V30 18354 H 1758.92 0.943005 2.84478 0
M  V30 18355 H 1756.48 0.645479 1.48476 0
M  V30 18356 H 1758.47 -1.40257 3.79618 0
M  V30 18357 H 1757.04 -1.50667 2.73895 0
M  V30 18358 H 1756.26 0.702196 3.87895 0
M  V30 18359 H 1757.55 0.442542 5.06872 0
M  V30 18360 H 1756.95 -2.73646 4.9511 0
M  V30 18361 H 1755.51 -2.81109 5.88065 0
M  V30 18362 N 1758.94 -1.47929 0.54358 0
M  V30 18363 C 1760.17 -2.06591 0.0188913 0
M  V30 18364 C 1760.58 -1.39864 -1.27415 0
M  V30 18365 O 1759.92 -0.484566 -1.77194 0
M  V30 18366 C 1759.98 -3.58546 -0.261686 0
M  V30 18367 C 1759.65 -4.4723 0.939893 0
M  V30 18368 C 1760.64 -4.86179 1.8419 0
M  V30 18369 C 1758.33 -4.88941 1.15073 0
M  V30 18370 C 1760.32 -5.65622 2.93854 0
M  V30 18371 C 1758.01 -5.68152 2.25048 0
M  V30 18372 C 1759.01 -6.06402 3.1427 0
M  V30 18373 O 1758.7 -6.8402 4.22341 0
M  V30 18374 H 1758.43 -0.675009 0.0365835 0
M  V30 18375 H 1760.98 -1.91115 0.752599 0
M  V30 18376 H 1759.21 -3.72185 -1.04954 0
M  V30 18377 H 1760.9 -3.9928 -0.730099 0
M  V30 18378 H 1761.67 -4.54565 1.69101 0
M  V30 18379 H 1757.55 -4.58644 0.465479 0
M  V30 18380 H 1761.09 -5.95397 3.63522 0
M  V30 18381 H 1756.99 -5.99179 2.40115 0
M  V30 18382 H 1757.75 -7.02395 4.20219 0
M  V30 18383 N 1760.42 -0.27936 -1.55104 0
M  V30 18384 C 1761.83 0.074665 -1.59425 0
M  V30 18385 C 1762.03 1.54246 -1.29655 0
M  V30 18386 O 1761.09 2.29197 -1.05947 0
M  V30 18387 C 1762.4 -0.30379 -2.99162 0
M  V30 18388 C 1763.95 -0.250758 -3.11994 0
M  V30 18389 C 1764.43 -0.603715 -4.54004 0
M  V30 18390 N 1765.92 -0.555428 -4.59858 0
M  V30 18391 C 1766.65 -0.801278 -5.67774 0
M  V30 18392 N 1766.15 -1.11197 -6.83818 0
M  V30 18393 N 1767.94 -0.72979 -5.57342 0
M  V30 18394 H 1760.09 -1.23619 -1.7272 0
M  V30 18395 H 1762.35 -0.499704 -0.805606 0
M  V30 18396 H 1762.06 -1.32475 -3.25796 0
M  V30 18397 H 1761.93 0.353294 -3.75542 0
M  V30 18398 H 1764.32 0.760925 -2.85121 0
M  V30 18399 H 1764.4 -0.94216 -2.37817 0
M  V30 18400 H 1764.05 -1.6131 -4.81603 0
M  V30 18401 H 1763.98 0.109523 -5.26486 0
M  V30 18402 H 1766.47 -0.325348 -3.76497 0
M  V30 18403 H 1766.78 -1.28611 -7.62023 0
M  V30 18404 H 1765.13 -1.14978 -6.85423 0
M  V30 18405 H 1768.32 -0.48688 -4.65561 0
M  V30 18406 H 1768.49 -0.92477 -6.41367 0
M  V30 18407 N 1761.9 1.57599 -0.0067085 0
M  V30 18408 C 1763.12 1.95545 0.69115 0
M  V30 18409 C 1763.55 0.882014 1.66139 0
M  V30 18410 O 1762.9 -0.159242 1.80599 0
M  V30 18411 C 1762.95 3.3259 1.39342 0
M  V30 18412 O 1762.06 3.27368 2.50806 0
M  V30 18413 H 1761.4 0.638188 0.183336 0
M  V30 18414 H 1763.93 2.04506 -0.0618957 0
M  V30 18415 H 1763.94 3.6831 1.75532 0
M  V30 18416 H 1762.61 4.10269 0.682072 0
M  V30 18417 H 1761.19 3.03334 2.16894 0
M  V30 18418 N 1763.37 -0.266145 1.55336 0
M  V30 18419 C 1764.34 -1.31242 1.87904 0
M  V30 18420 C 1765.34 -1.42022 0.754083 0
M  V30 18421 O 1766.53 -1.41054 1.02222 0
M  V30 18422 C 1763.66 -2.69285 2.09041 0
M  V30 18423 H 1764.85 -1.03592 2.81441 0
M  V30 18424 H 1762.4 -0.504537 1.47933 0
M  V30 18425 H 1763.14 -3.02106 1.17909 0
M  V30 18426 H 1762.92 -2.62846 2.90954 0
M  V30 18427 H 1764.41 -3.4487 2.35488 0
M  V30 18428 N 1764.85 -1.48386 -0.530967 0
M  V30 18429 C 1766.27 -1.34485 -0.859412 0
M  V30 18430 C 1766.47 -0.355124 -1.98346 0
M  V30 18431 O 1765.52 0.224012 -2.51504 0
M  V30 18432 C 1766.84 -2.74488 -1.22787 0
M  V30 18433 C 1768.38 -2.82969 -1.33781 0
M  V30 18434 C 1768.86 -4.23673 -1.7397 0
M  V30 18435 N 1770.35 -4.26341 -1.81074 0
M  V30 18436 C 1771.09 -5.32149 -2.13554 0
M  V30 18437 N 1770.58 -6.48235 -2.44464 0
M  V30 18438 N 1772.37 -5.19542 -2.14551 0
M  V30 18439 H 1764.53 -2.11352 0.210713 0
M  V30 18440 H 1766.79 -0.947472 0.0316283 0
M  V30 18441 H 1766.49 -3.4847 -0.475552 0
M  V30 18442 H 1766.37 -3.0795 -2.17823 0
M  V30 18443 H 1768.76 -2.09244 -2.08089 0
M  V30 18444 H 1768.84 -2.53129 -0.368677 0
M  V30 18445 H 1768.48 -4.97914 -1.00222 0
M  V30 18446 H 1768.41 -4.50956 -2.71931 0
M  V30 18447 H 1770.9 -3.42606 -1.59467 0
M  V30 18448 H 1771.21 -7.24712 -2.6835 0
M  V30 18449 H 1769.56 -6.51512 -2.41986 0
M  V30 18450 H 1772.75 -4.27868 -1.89859 0
M  V30 18451 H 1772.92 -6.02103 -2.39532 0
M  V30 18452 N 1766.33 0.779763 -1.36958 0
M  V30 18453 C 1767.57 1.55113 -1.33114 0
M  V30 18454 C 1767.93 1.91808 0.0859451 0
M  V30 18455 O 1769.13 2.67644 0.24903 0
M  V30 18456 C 1767.41 2.78752 -2.23679 0
M  V30 18457 S 1768.96 3.68899 -2.37611 0
M  V30 18458 H 1765.78 0.531134 -0.472671 0
M  V30 18459 H 1768.38 0.917613 -1.72627 0
M  V30 18460 H 1767.09 2.4986 -3.25573 0
M  V30 18461 H 1766.62 3.47069 -1.85221 0
M  V30 18462 H 1768.63 4.70347 -1.58075 0
M  V30 18463 N 1767.81 1.21396 1.00503 0
M  V30 18464 C 1768.75 0.973198 2.09279 0
M  V30 18465 C 1769.72 -0.100797 1.65794 0
M  V30 18466 O 1770.91 0.0463185 1.90744 0
M  V30 18467 C 1768.05 0.543941 3.40786 0
M  V30 18468 C 1767.16 1.68737 3.97683 0
M  V30 18469 C 1766.3 1.20728 5.17299 0
M  V30 18470 C 1765.34 2.32305 5.66305 0
M  V30 18471 N 1764.47 1.8543 6.77171 0
M  V30 18472 H 1769.31 1.90441 2.29208 0
M  V30 18473 H 1766.85 0.949082 1.12387 0
M  V30 18474 H 1768.81 0.276311 4.16284 0
M  V30 18475 H 1767.44 -0.350263 3.20894 0
M  V30 18476 H 1766.49 2.06964 3.19171 0
M  V30 18477 H 1767.8 2.5271 4.30045 0
M  V30 18478 H 1766.96 0.896312 6.00043 0
M  V30 18479 H 1765.7 0.3376 4.8653 0
M  V30 18480 H 1764.7 2.64205 4.82158 0
M  V30 18481 H 1765.93 3.19769 5.99103 0
M  V30 18482 H 1763.87 1.00806 6.48208 0
M  V30 18483 H 1763.79 2.62976 7.08788 0
M  V30 18484 H 1765.06 1.57366 7.6345 0
M  V30 18485 N 1769.29 -1.19996 1.0217 0
M  V30 18486 C 1770.51 -1.94007 0.733207 0
M  V30 18487 C 1770.94 -1.74565 -0.70061 0
M  V30 18488 O 1770.29 -1.04326 -1.48276 0
M  V30 18489 C 1770.34 -3.44029 1.08057 0
M  V30 18490 O 1769.45 -4.11938 0.195135 0
M  V30 18491 H 1768.79 -0.605929 0.271562 0
M  V30 18492 H 1771.32 -1.5228 1.36645 0
M  V30 18493 H 1771.33 -3.94669 1.03443 0
M  V30 18494 H 1770 -3.57502 2.1252 0
M  V30 18495 H 1768.58 -3.71697 0.299246 0
M  V30 18496 N 1770.76 -0.798611 -1.35867 0
M  V30 18497 C 1771.73 -0.209177 -2.28243 0
M  V30 18498 C 1772.73 0.598842 -1.49233 0
M  V30 18499 O 1773.92 0.418491 -1.69098 0
M  V30 18500 C 1771.05 0.709336 -3.33438 0
M  V30 18501 H 1772.24 -1.02382 -2.81883 0
M  V30 18502 H 1769.79 -0.568687 -1.45587 0
M  V30 18503 H 1770.53 1.54797 -2.84971 0
M  V30 18504 H 1770.31 0.131756 -3.91879 0
M  V30 18505 H 1771.8 1.11632 -4.02403 0
M  V30 18506 N 1772.24 1.47639 -0.551417 0
M  V30 18507 C 1773.49 2.02084 -0.0251553 0
M  V30 18508 C 1773.81 1.42872 1.32713 0
M  V30 18509 O 1773.08 0.601794 1.86428 0
M  V30 18510 H 1771.66 0.746973 -0.00631005 0
M  V30 18511 H 1774.32 1.81109 -0.720113 0
M  V30 18512 H 1773.42 3.12028 0.0672608 0
M  V30 18513 N 1773.72 0.287581 1.54954 0
M  V30 18514 C 1774.67 -0.610315 2.2445 0
M  V30 18515 C 1775.66 -1.14786 1.24582 0
M  V30 18516 O 1776.87 -1.10005 1.42474 0
M  V30 18517 H 1773.24 -0.215394 0.720493 0
M  V30 18518 H 1775.21 -0.00148121 2.984 0
M  V30 18519 C 1773.96 -1.77719 2.9885 0
M  V30 18520 H 1773.29 -1.37277 3.75493 0
M  V30 18521 H 1774.73 -2.38181 3.50779 0
M  V30 18522 C 1773.19 -2.67321 2.05039 0
M  V30 18523 O 1773.72 -3.68038 1.60968 0
M  V30 18524 N 1771.92 -2.34761 1.71276 0
M  V30 18525 H 1771.47 -1.52905 2.07311 0
M  V30 18526 H 1771.43 -2.94981 1.08781 0
M  V30 18527 N 1775.2 -1.57593 0.0150662 0
M  V30 18528 C 1776.45 -1.90392 -0.66587 0
M  V30 18529 C 1776.76 -0.891694 -1.74092 0
M  V30 18530 O 1777.97 -1.11043 -2.47753 0
M  V30 18531 C 1776.42 -3.38026 -1.23558 0
M  V30 18532 C 1776.03 -4.47577 -0.19455 0
M  V30 18533 C 1777.77 -3.79913 -1.89384 0
M  V30 18534 C 1775.68 -5.86299 -0.7751 0
M  V30 18535 H 1774.61 -0.710474 -0.252473 0
M  V30 18536 H 1777.26 -1.83334 0.0780739 0
M  V30 18537 H 1775.64 -3.3997 -2.03068 0
M  V30 18538 H 1776.82 -4.57172 0.577061 0
M  V30 18539 H 1775.13 -4.14805 0.364134 0
M  V30 18540 H 1777.73 -4.809 -2.3375 0
M  V30 18541 H 1778.07 -3.14225 -2.73072 0
M  V30 18542 H 1778.61 -3.80333 -1.16585 0
M  V30 18543 H 1775.35 -6.55496 0.0233354 0
M  V30 18544 H 1774.87 -5.80338 -1.51552 0
M  V30 18545 H 1776.54 -6.3443 -1.26915 0
M  V30 18546 N 1776.68 0.257904 -1.55475 0
M  V30 18547 C 1778.09 0.82782 -1.67344 0
M  V30 18548 C 1778.44 1.8646 -0.610494 0
M  V30 18549 O 1777.56 2.15005 0.245275 0
M  V30 18550 C 1778.16 1.5083 -3.03374 0
M  V30 18551 C 1776.72 2.02605 -3.17219 0
M  V30 18552 C 1775.86 0.873303 -2.63189 0
M  V30 18553 H 1778.82 0.0339334 -1.58664 0
M  V30 18554 H 1778.84 2.3759 -2.97205 0
M  V30 18555 H 1778.35 0.753469 -3.80716 0
M  V30 18556 H 1776.45 2.81002 -2.4468 0
M  V30 18557 H 1776.56 2.23099 -4.23985 0
M  V30 18558 H 1774.93 1.27082 -2.20731 0
M  V30 18559 H 1775.71 0.131739 -3.43047 0
M  V30 18560 N 1778.15 1.48666 0.52309 0
M  V30 18561 C 1779.08 1.666 1.63605 0
M  V30 18562 C 1780.07 0.514803 1.62123 0
M  V30 18563 O 1781.25 0.748138 1.79211 0
M  V30 18564 C 1778.38 1.71199 3.02172 0
M  V30 18565 C 1777.33 2.85888 3.18515 0
M  V30 18566 C 1776.66 2.75582 4.58213 0
M  V30 18567 C 1777.96 4.27104 3.00631 0
M  V30 18568 H 1779.65 2.59776 1.48851 0
M  V30 18569 H 1777.2 1.25014 0.714667 0
M  V30 18570 H 1779.15 1.82333 3.79911 0
M  V30 18571 H 1777.88 0.746066 3.17964 0
M  V30 18572 H 1776.54 2.7432 2.43195 0
M  V30 18573 H 1776.18 1.76944 4.7085 0
M  V30 18574 H 1775.88 3.52545 4.70091 0
M  V30 18575 H 1777.41 2.88693 5.38041 0
M  V30 18576 H 1778.82 4.3947 3.68157 0
M  V30 18577 H 1777.22 5.05119 3.23999 0
M  V30 18578 H 1778.29 4.43087 1.96982 0
M  V30 18579 N 1779.63 -0.772489 1.37369 0
M  V30 18580 C 1780.86 -1.56671 1.35901 0
M  V30 18581 C 1781.28 -1.88024 -0.0535538 0
M  V30 18582 O 1780.64 -1.49174 -1.03038 0
M  V30 18583 C 1780.69 -2.85417 2.20384 0
M  V30 18584 O 1779.79 -3.79761 1.60796 0
M  V30 18585 H 1779.13 -0.474596 0.464386 0
M  V30 18586 H 1781.66 -0.956162 1.80883 0
M  V30 18587 H 1781.67 -3.34527 2.33571 0
M  V30 18588 H 1780.35 -2.61926 3.2306 0
M  V30 18589 H 1778.93 -3.38403 1.56645 0
M  V30 18590 N 1781.11 -1.21927 -0.998575 0
M  V30 18591 C 1782.52 -1.03808 -1.5518 0
M  V30 18592 C 1782.87 0.400202 -1.92075 0
M  V30 18593 O 1782 1.28436 -1.74164 0
M  V30 18594 C 1782.59 -1.87814 -2.81978 0
M  V30 18595 C 1781.15 -1.74008 -3.33764 0
M  V30 18596 C 1780.3 -1.8463 -2.06899 0
M  V30 18597 H 1783.25 -1.35855 -0.820305 0
M  V30 18598 H 1783.27 -1.39219 -3.54116 0
M  V30 18599 H 1782.78 -2.92487 -2.55094 0
M  V30 18600 H 1780.88 -0.720445 -3.65569 0
M  V30 18601 H 1781 -2.56348 -4.0475 0
M  V30 18602 H 1779.36 -1.28007 -2.20196 0
M  V30 18603 H 1780.14 -2.90824 -1.82419 0
M  V30 18604 N 1782.59 1.19452 -1.02805 0
M  V30 18605 C 1783.52 2.24875 -0.628752 0
M  V30 18606 C 1784.5 1.66207 0.361844 0
M  V30 18607 O 1785.68 1.92652 0.244743 0
M  V30 18608 C 1782.81 3.47293 0.0220954 0
M  V30 18609 C 1781.77 4.1863 -0.890693 0
M  V30 18610 C 1781.09 5.34597 -0.104997 0
M  V30 18611 C 1782.39 4.73518 -2.20405 0
M  V30 18612 H 1784.09 2.5853 -1.51005 0
M  V30 18613 H 1781.63 1.24271 -0.727518 0
M  V30 18614 H 1783.59 4.20235 0.313073 0
M  V30 18615 H 1782.31 3.12835 0.938182 0
M  V30 18616 H 1780.97 3.47568 -1.16585 0
M  V30 18617 H 1780.62 4.96385 0.813098 0
M  V30 18618 H 1780.32 5.83258 -0.712983 0
M  V30 18619 H 1781.84 6.10337 0.179259 0
M  V30 18620 H 1783.26 5.3822 -1.97465 0
M  V30 18621 H 1781.65 5.32663 -2.76388 0
M  V30 18622 H 1782.72 3.9163 -2.85926 0
M  V30 18623 N 1784.07 0.805805 1.35442 0
M  V30 18624 C 1785.03 0.221278 2.28129 0
M  V30 18625 C 1786.03 -0.590919 1.49549 0
M  V30 18626 O 1787.22 -0.409518 1.69318 0
M  V30 18627 C 1784.35 -0.691643 3.3381 0
M  V30 18628 H 1785.54 1.03875 2.81336 0
M  V30 18629 H 1783.1 0.5764 1.45284 0
M  V30 18630 H 1783.83 -1.53283 2.85788 0
M  V30 18631 H 1783.62 -0.110972 3.91943 0
M  V30 18632 H 1785.11 -1.09497 4.02989 0
M  V30 18633 N 1785.54 -1.47344 0.559239 0
M  V30 18634 C 1786.49 -2.27051 -0.20776 0
M  V30 18635 C 1787.48 -1.34477 -0.883451 0
M  V30 18636 O 1788.67 -1.58817 -0.781423 0
M  V30 18637 C 1785.8 -3.20285 -1.23582 0
M  V30 18638 C 1784.89 -4.20341 -0.56344 0
M  V30 18639 N 1785.28 -5.04462 0.367648 0
M  V30 18640 C 1783.57 -4.38451 -0.817111 0
M  V30 18641 C 1784.28 -5.76735 0.758411 0
M  V30 18642 N 1783.25 -5.43483 0.112792 0
M  V30 18643 H 1787.05 -2.89475 0.508087 0
M  V30 18644 H 1784.57 -1.57908 0.379322 0
M  V30 18645 H 1786.56 -3.76074 -1.79928 0
M  V30 18646 H 1785.22 -2.59419 -1.95274 0
M  V30 18647 H 1786.24 -5.12558 0.741923 0
M  V30 18648 H 1782.91 -3.88754 -1.52238 0
M  V30 18649 H 1784.3 -6.54397 1.52361 0
M  V30 18650 N 1787.02 -0.295795 -1.54799 0
M  V30 18651 C 1788.25 0.317763 -2.04445 0
M  V30 18652 C 1788.67 1.47915 -1.17331 0
M  V30 18653 O 1788.02 1.81425 -0.197811 0
M  V30 18654 C 1788.07 0.778995 -3.53007 0
M  V30 18655 O 1787.79 -0.33616 -4.36808 0
M  V30 18656 C 1789.3 1.45824 -4.18629 0
M  V30 18657 H 1786.52 0.0697871 -0.667361 0
M  V30 18658 H 1789.06 -0.433911 -1.99844 0
M  V30 18659 H 1787.21 1.4807 -3.57986 0
M  V30 18660 H 1787.63 0.0219928 -5.24495 0
M  V30 18661 H 1789.1 1.73218 -5.24118 0
M  V30 18662 H 1789.58 2.3966 -3.68049 0
M  V30 18663 H 1790.19 0.799847 -4.17711 0
M  V30 18664 N 1788.5 1.57583 -0.0234236 0
M  V30 18665 C 1789.91 1.79422 0.516201 0
M  V30 18666 C 1790.26 0.933151 1.72588 0
M  V30 18667 O 1789.39 0.141985 2.15934 0
M  V30 18668 C 1789.98 3.25405 0.943248 0
M  V30 18669 C 1788.54 3.48259 1.42802 0
M  V30 18670 C 1787.69 2.74543 0.390074 0
M  V30 18671 H 1790.64 1.56727 -0.24949 0
M  V30 18672 H 1790.66 3.34803 1.80795 0
M  V30 18673 H 1790.17 3.88049 0.0626242 0
M  V30 18674 H 1788.27 2.9086 2.32877 0
M  V30 18675 H 1788.39 4.56968 1.43933 0
M  V30 18676 H 1786.75 2.39852 0.856919 0
M  V30 18677 H 1787.53 3.399 -0.481986 0
M  V30 18678 N 1789.98 -0.249655 1.5561 0
M  V30 18679 C 1791.2 -0.999931 1.81703 0
M  V30 18680 C 1791.63 -1.7827 0.600113 0
M  V30 18681 O 1790.99 -1.75606 -0.450799 0
M  V30 18682 C 1791.04 -1.9157 3.05505 0
M  V30 18683 O 1790.14 -3.00702 2.82227 0
M  V30 18684 H 1789.48 -0.284673 0.599881 0
M  V30 18685 H 1792.01 -0.27148 2.02791 0
M  V30 18686 H 1792.02 -2.33088 3.34864 0
M  V30 18687 H 1790.7 -1.34014 3.93717 0
M  V30 18688 H 1789.27 -2.63332 2.64027 0
M  V30 18689 N 1791.46 -1.48941 -0.515198 0
M  V30 18690 C 1792.87 -1.51076 -1.09695 0
M  V30 18691 C 1793.22 -0.288875 -1.94062 0
M  V30 18692 O 1792.34 0.602665 -2.07839 0
M  V30 18693 C 1792.94 -2.73755 -1.99609 0
M  V30 18694 C 1791.5 -2.78714 -2.52974 0
M  V30 18695 C 1790.65 -2.44798 -1.30266 0
M  V30 18696 H 1793.6 -1.55843 -0.299757 0
M  V30 18697 H 1793.62 -2.53112 -2.84103 0
M  V30 18698 H 1793.13 -3.62668 -1.38178 0
M  V30 18699 H 1791.23 -1.94045 -3.18084 0
M  V30 18700 H 1791.34 -3.80525 -2.91097 0
M  V30 18701 H 1789.71 -1.9627 -1.62327 0
M  V30 18702 H 1790.49 -3.35969 -0.705648 0
M  V30 18703 N 1792.94 0.765193 -1.37777 0
M  V30 18704 C 1794.16 1.55436 -1.36556 0
M  V30 18705 C 1794.58 1.8874 0.0475187 0
M  V30 18706 O 1793.94 1.51933 1.01107 0
M  V30 18707 C 1793.99 2.86063 -2.21021 0
M  V30 18708 O 1793.71 2.54183 -3.56823 0
M  V30 18709 C 1795.21 3.80261 -2.27851 0
M  V30 18710 H 1792.43 0.481331 -0.467506 0
M  V30 18711 H 1794.97 0.947906 -1.81204 0
M  V30 18712 H 1793.13 3.43114 -1.79864 0
M  V30 18713 H 1793.54 3.37879 -4.01171 0
M  V30 18714 H 1795.02 4.68904 -2.91261 0
M  V30 18715 H 1795.49 4.19865 -1.28881 0
M  V30 18716 H 1796.1 3.29137 -2.69349 0
M  V30 18717 N 1794.41 1.22455 0.992094 0
M  V30 18718 C 1795.35 0.953144 2.08441 0
M  V30 18719 C 1796.36 -0.0685432 1.62656 0
M  V30 18720 O 1797.55 0.165561 1.77731 0
M  V30 18721 C 1794.65 0.412046 3.36386 0
M  V30 18722 C 1793.82 1.49114 4.11198 0
M  V30 18723 C 1792.88 0.956984 5.17425 0
M  V30 18724 O 1791.91 1.64337 5.44961 0
M  V30 18725 N 1793.11 -0.221205 5.80078 0
M  V30 18726 H 1795.87 1.89353 2.32305 0
M  V30 18727 H 1793.43 1.13155 1.15791 0
M  V30 18728 H 1795.43 0.0400033 4.0468 0
M  V30 18729 H 1794 -0.433473 3.0958 0
M  V30 18730 H 1793.22 2.03647 3.37523 0
M  V30 18731 H 1794.5 2.21716 4.57951 0
M  V30 18732 H 1793.9 -0.795642 5.60077 0
M  V30 18733 H 1792.46 -0.534625 6.49604 0
M  V30 18734 N 1795.89 -1.18905 1.03437 0
M  V30 18735 C 1796.85 -2.20529 0.624461 0
M  V30 18736 C 1797.85 -1.57688 -0.314824 0
M  V30 18737 O 1799.04 -1.73906 -0.101082 0
M  V30 18738 C 1796.18 -3.40793 -0.0854166 0
M  V30 18739 H 1797.37 -2.58309 1.5237 0
M  V30 18740 H 1794.92 -1.32679 0.826189 0
M  V30 18741 H 1795.66 -3.08538 -0.998747 0
M  V30 18742 H 1795.44 -3.87642 0.589596 0
M  V30 18743 H 1796.93 -4.16055 -0.358938 0
M  V30 18744 N 1797.37 -0.812977 -1.35013 0
M  V30 18745 C 1798.59 -0.407969 -2.03348 0
M  V30 18746 C 1799.02 0.975148 -1.60849 0
M  V30 18747 O 1798.38 1.63267 -0.788256 0
M  V30 18748 C 1798.43 -0.506754 -3.57022 0
M  V30 18749 O 1797.53 0.477322 -4.09628 0
M  V30 18750 H 1796.87 -0.169416 -0.642023 0
M  V30 18751 H 1799.4 -1.10064 -1.72474 0
M  V30 18752 H 1799.41 -0.378883 -4.06237 0
M  V30 18753 H 1798.09 -1.51557 -3.87302 0
M  V30 18754 H 1796.66 0.309161 -3.71616 0
M  V30 18755 N 1798.85 1.47045 -0.567045 0
M  V30 18756 C 1800.26 1.86202 -0.13627 0
M  V30 18757 C 1800.61 1.47252 1.29658 0
M  V30 18758 O 1799.73 0.880121 1.97694 0
M  V30 18759 C 1800.33 3.37945 -0.240528 0
M  V30 18760 C 1798.89 3.76157 0.135272 0
M  V30 18761 C 1798.04 2.71089 -0.583628 0
M  V30 18762 H 1800.99 1.38423 -0.776196 0
M  V30 18763 H 1801.01 3.76673 0.538293 0
M  V30 18764 H 1800.52 3.66263 -1.28348 0
M  V30 18765 H 1798.62 3.53456 1.17896 0
M  V30 18766 H 1798.73 4.78547 -0.230137 0
M  V30 18767 H 1797.1 2.54687 -0.0256067 0
M  V30 18768 H 1797.88 3.02247 -1.62792 0
M  V30 18769 N 1800.33 0.304 1.5464 0
M  V30 18770 C 1801.74 -0.188042 1.85751 0
M  V30 18771 C 1802.09 -1.53186 1.22591 0
M  V30 18772 O 1801.21 -2.09943 0.524696 0
M  V30 18773 C 1801.81 -0.347976 3.37008 0
M  V30 18774 C 1800.37 -0.784238 3.68139 0
M  V30 18775 C 1799.51 0.105654 2.77099 0
M  V30 18776 H 1802.46 0.524918 1.49767 0
M  V30 18777 H 1802.49 -1.18207 3.61673 0
M  V30 18778 H 1802 0.630227 3.82949 0
M  V30 18779 H 1800.1 -1.77288 3.27719 0
M  V30 18780 H 1800.21 -0.601546 4.75309 0
M  V30 18781 H 1798.58 -0.415561 2.51287 0
M  V30 18782 H 1799.36 1.08027 3.25861 0
M  V30 18783 N 1801.8 -1.57568 0.0317802 0
M  V30 18784 C 1803.21 -1.79693 -0.506679 0
M  V30 18785 C 1803.57 -0.94229 -1.72091 0
M  V30 18786 O 1802.69 -0.153435 -2.15855 0
M  V30 18787 C 1803.29 -3.259 -0.925978 0
M  V30 18788 C 1801.84 -3.49012 -1.40953 0
M  V30 18789 C 1800.99 -2.74746 -0.375509 0
M  V30 18790 H 1803.94 -1.56592 0.257798 0
M  V30 18791 H 1803.96 -3.35757 -1.79017 0
M  V30 18792 H 1803.48 -3.88077 -0.0420441 0
M  V30 18793 H 1801.58 -2.9209 -2.31331 0
M  V30 18794 H 1801.69 -4.57725 -1.41508 0
M  V30 18795 H 1800.05 -2.40303 -0.844187 0
M  V30 18796 H 1800.84 -3.39639 0.500005 0
M  V30 18797 N 1803.28 0.241399 -1.5574 0
M  V30 18798 C 1804.21 1.30255 -1.93793 0
M  V30 18799 C 1805.19 1.49923 -0.803563 0
M  V30 18800 O 1806.38 1.62439 -1.06429 0
M  V30 18801 C 1803.51 2.65625 -2.23742 0
M  V30 18802 C 1802.46 2.60645 -3.39483 0
M  V30 18803 C 1801.79 3.99861 -3.54986 0
M  V30 18804 C 1803.09 2.17151 -4.75019 0
M  V30 18805 H 1804.78 0.986532 -2.8268 0
M  V30 18806 H 1802.33 0.473125 -1.36006 0
M  V30 18807 H 1804.28 3.40001 -2.48953 0
M  V30 18808 H 1803.01 2.98874 -1.31688 0
M  V30 18809 H 1801.66 1.88727 -3.14289 0
M  V30 18810 H 1801.31 4.30385 -2.60342 0
M  V30 18811 H 1801.01 3.97415 -4.32822 0
M  V30 18812 H 1802.54 4.75928 -3.82524 0
M  V30 18813 H 1803.95 2.8126 -4.99565 0
M  V30 18814 H 1802.35 2.25805 -5.55996 0
M  V30 18815 H 1803.42 1.12329 -4.7171 0
M  V30 18816 N 1804.76 1.49212 0.507292 0
M  V30 18817 C 1806.17 1.51655 1.08892 0
M  V30 18818 C 1806.52 0.299163 1.93906 0
M  V30 18819 O 1805.65 -0.591635 2.08155 0
M  V30 18820 C 1806.24 2.7481 1.98154 0
M  V30 18821 C 1804.8 2.80051 2.51492 0
M  V30 18822 C 1803.95 2.45486 1.28966 0
M  V30 18823 H 1806.9 1.56 0.291488 0
M  V30 18824 H 1806.92 2.54615 2.82757 0
M  V30 18825 H 1806.43 3.63396 1.36253 0
M  V30 18826 H 1804.53 1.95729 3.1705 0
M  V30 18827 H 1804.65 3.82064 2.89075 0
M  V30 18828 H 1803.01 1.97128 1.61284 0
M  V30 18829 H 1803.79 3.36339 0.687821 0
M  V30 18830 N 1806.24 -0.757876 1.38181 0
M  V30 18831 C 1807.49 -1.51388 1.33888 0
M  V30 18832 C 1807.81 -1.94867 -0.0718767 0
M  V30 18833 O 1807.08 -1.67329 -1.01871 0
M  V30 18834 H 1805.66 -0.561534 0.492634 0
M  V30 18835 H 1808.32 -0.901156 1.72815 0
M  V30 18836 H 1807.42 -2.4068 1.98695 0
M  V30 18837 N 1807.72 -1.22979 -0.985586 0
M  V30 18838 C 1808.67 -0.973592 -2.06168 0
M  V30 18839 C 1809.65 0.0785071 -1.60708 0
M  V30 18840 O 1810.84 -0.132958 -1.765 0
M  V30 18841 C 1807.97 -0.561129 -3.38683 0
M  V30 18842 C 1807.06 -1.64835 -3.90756 0
M  V30 18843 N 1807.45 -2.87758 -4.15967 0
M  V30 18844 C 1805.75 -1.52173 -4.19237 0
M  V30 18845 C 1806.45 -3.58113 -4.58399 0
M  V30 18846 N 1805.42 -2.85609 -4.62524 0
M  V30 18847 H 1809.23 -1.90723 -2.23611 0
M  V30 18848 H 1806.74 -1.12841 -1.16793 0
M  V30 18849 H 1808.74 -0.358874 -4.15353 0
M  V30 18850 H 1807.4 0.365524 -3.22636 0
M  V30 18851 H 1808.41 -3.24114 -4.03943 0
M  V30 18852 H 1805.08 -0.661807 -4.12221 0
M  V30 18853 H 1806.47 -4.63465 -4.86467 0
M  V30 18854 N 1809.19 1.18355 -1.04066 0
M  V30 18855 C 1810.42 1.92275 -0.76406 0
M  V30 18856 C 1810.84 1.76176 0.678777 0
M  V30 18857 O 1810.19 1.0914 1.46269 0
M  V30 18858 C 1810.25 3.43686 -1.12083 0
M  V30 18859 O 1809.97 3.59277 -2.50702 0
M  V30 18860 C 1811.47 4.34705 -0.868726 0
M  V30 18861 H 1808.69 0.610406 -0.278649 0
M  V30 18862 H 1811.23 1.50153 -1.38832 0
M  V30 18863 H 1809.39 3.83596 -0.541528 0
M  V30 18864 H 1809.8 4.53007 -2.64357 0
M  V30 18865 H 1811.27 5.39497 -1.16821 0
M  V30 18866 H 1811.75 4.3876 0.196501 0
M  V30 18867 H 1812.36 4.00491 -1.43132 0
M  V30 18868 N 1810.67 0.820125 1.3458 0
M  V30 18869 C 1811.92 0.407473 1.98664 0
M  V30 18870 C 1812.25 -1.02613 1.64877 0
M  V30 18871 O 1811.53 -1.71421 0.918964 0
M  V30 18872 C 1811.81 0.606744 3.54952 0
M  V30 18873 C 1811.66 2.08626 3.98491 0
M  V30 18874 C 1812.98 0.0409321 4.40081 0
M  V30 18875 H 1810.1 0.149524 0.721673 0
M  V30 18876 H 1812.74 1.03217 1.59519 0
M  V30 18877 H 1810.89 0.0749788 3.88428 0
M  V30 18878 H 1812.56 2.68144 3.75361 0
M  V30 18879 H 1810.81 2.57774 3.48905 0
M  V30 18880 H 1811.48 2.17651 5.07279 0
M  V30 18881 H 1813.95 0.495234 4.13142 0
M  V30 18882 H 1812.83 0.210182 5.48497 0
M  V30 18883 H 1813.09 -1.05389 4.29355 0
M  V30 18884 N 1812.15 -1.46743 0.574835 0
M  V30 18885 C 1813.4 -2.02019 0.057302 0
M  V30 18886 C 1813.72 -1.44965 -1.30423 0
M  V30 18887 O 1812.99 -0.631377 -1.85447 0
M  V30 18888 H 1811.57 -0.746778 0.018193 0
M  V30 18889 H 1814.23 -1.7994 0.748834 0
M  V30 18890 H 1813.33 -3.12095 -0.0176114 0
M  V30 18891 N 1813.63 -0.312197 -1.54477 0
M  V30 18892 C 1814.85 0.298829 -2.05236 0
M  V30 18893 C 1815.28 1.45881 -1.18745 0
M  V30 18894 O 1814.64 1.80259 -0.193999 0
M  V30 18895 C 1814.68 0.722008 -3.53298 0
M  V30 18896 O 1813.79 1.82562 -3.6979 0
M  V30 18897 H 1813.13 0.0560985 -0.661626 0
M  V30 18898 H 1815.66 -0.4573 -1.99424 0
M  V30 18899 H 1815.67 1.00777 -3.95358 0
M  V30 18900 H 1814.34 -0.12647 -4.15708 0
M  V30 18901 H 1812.92 1.53954 -3.39636 0
M  V30 18902 N 1815.11 1.57549 -0.040136 0
M  V30 18903 C 1816.33 1.96967 0.649517 0
M  V30 18904 C 1816.76 0.917056 1.64231 0
M  V30 18905 O 1816.11 -0.120899 1.80896 0
M  V30 18906 C 1816.16 3.35471 1.32256 0
M  V30 18907 O 1815.27 3.32615 2.43806 0
M  V30 18908 H 1814.61 0.641933 0.169758 0
M  V30 18909 H 1817.14 2.04329 -0.105261 0
M  V30 18910 H 1817.15 3.71951 1.6768 0
M  V30 18911 H 1815.82 4.11623 0.594895 0
M  V30 18912 H 1814.4 3.07867 2.10411 0
M  V30 18913 N 1816.58 -0.233136 1.55866 0
M  V30 18914 C 1817.53 -1.29204 1.87857 0
M  V30 18915 C 1818.52 -1.42842 0.740607 0
M  V30 18916 O 1819.71 -1.45852 1.00281 0
M  V30 18917 C 1816.84 -2.6448 2.18873 0
M  V30 18918 C 1815.93 -2.5479 3.39032 0
M  V30 18919 N 1816.32 -2.14742 4.57952 0
M  V30 18920 C 1814.61 -2.85774 3.42417 0
M  V30 18921 C 1815.32 -2.1602 5.40102 0
M  V30 18922 N 1814.29 -2.5606 4.79515 0
M  V30 18923 H 1818.09 -0.973116 2.77322 0
M  V30 18924 H 1815.61 -0.441733 1.56277 0
M  V30 18925 H 1817.6 -3.40916 2.39962 0
M  V30 18926 H 1816.26 -2.97227 1.30714 0
M  V30 18927 H 1817.28 -1.8606 4.83324 0
M  V30 18928 H 1813.95 -3.2297 2.64568 0
M  V30 18929 H 1815.34 -1.8728 6.45272 0
M  V30 18930 N 1818.06 -1.49479 -0.499372 0
M  V30 18931 C 1819.29 -1.6276 -1.27738 0
M  V30 18932 C 1819.71 -0.299635 -1.86407 0
M  V30 18933 O 1819.06 0.715092 -1.67907 0
M  V30 18934 C 1819.11 -2.69762 -2.40647 0
M  V30 18935 O 1818.84 -3.97407 -1.84388 0
M  V30 18936 C 1820.34 -2.93762 -3.31992 0
M  V30 18937 H 1817.56 -0.547893 -0.387368 0
M  V30 18938 H 1820.1 -1.95522 -0.599292 0
M  V30 18939 H 1818.26 -2.39773 -3.04282 0
M  V30 18940 H 1818.67 -4.56361 -2.58525 0
M  V30 18941 H 1820.14 -3.72361 -4.07494 0
M  V30 18942 H 1820.62 -2.0374 -3.89085 0
M  V30 18943 H 1821.23 -3.25173 -2.74122 0
M  V30 18944 N 1819.54 0.750537 -1.38581 0
M  V30 18945 C 1820.77 1.53978 -1.38196 0
M  V30 18946 C 1821.18 1.8878 0.0274976 0
M  V30 18947 O 1820.54 1.52997 0.994894 0
M  V30 18948 C 1820.59 2.83702 -2.24043 0
M  V30 18949 O 1820.31 2.50384 -3.59499 0
M  V30 18950 C 1821.81 3.77823 -2.31872 0
M  V30 18951 H 1819.03 0.476345 -0.472585 0
M  V30 18952 H 1821.58 0.928634 -1.82199 0
M  V30 18953 H 1819.73 3.41187 -1.83494 0
M  V30 18954 H 1820.15 3.33605 -4.04732 0
M  V30 18955 H 1821.62 4.65788 -2.96218 0
M  V30 18956 H 1822.1 4.18474 -1.33327 0
M  V30 18957 H 1822.7 3.26262 -2.72824 0
M  V30 18958 N 1821.02 1.235 0.979051 0
M  V30 18959 C 1821.95 0.975198 2.07419 0
M  V30 18960 C 1822.96 -0.0512875 1.62719 0
M  V30 18961 O 1824.15 0.184403 1.77545 0
M  V30 18962 C 1821.25 0.447701 3.3593 0
M  V30 18963 C 1820.43 1.53467 4.09593 0
M  V30 18964 C 1819.49 1.01181 5.16381 0
M  V30 18965 O 1818.51 1.70108 5.43187 0
M  V30 18966 N 1819.71 -0.159667 5.8028 0
M  V30 18967 H 1822.48 1.91806 2.30283 0
M  V30 18968 H 1820.04 1.14377 1.14584 0
M  V30 18969 H 1822.03 0.0829228 4.04615 0
M  V30 18970 H 1820.6 -0.400613 3.10022 0
M  V30 18971 H 1819.82 2.07215 3.35344 0
M  V30 18972 H 1821.11 2.2656 4.55574 0
M  V30 18973 H 1820.51 -0.736193 5.60889 0
M  V30 18974 H 1819.06 -0.465696 6.50134 0
M  V30 18975 N 1822.5 -1.17802 1.04693 0
M  V30 18976 C 1823.72 -1.92408 0.774194 0
M  V30 18977 C 1824.15 -1.76012 -0.663424 0
M  V30 18978 O 1823.51 -1.07447 -1.4603 0
M  V30 18979 C 1823.55 -3.4166 1.1533 0
M  V30 18980 O 1822.66 -4.11431 0.282469 0
M  V30 18981 H 1822 -0.600033 0.284353 0
M  V30 18982 H 1824.53 -1.49348 1.39844 0
M  V30 18983 H 1824.54 -3.92386 1.11791 0
M  V30 18984 H 1823.21 -3.52914 2.20056 0
M  V30 18985 H 1821.79 -3.70979 0.378021 0
M  V30 18986 N 1823.98 -0.827251 -1.34143 0
M  V30 18987 C 1825.22 -0.417385 -1.98152 0
M  V30 18988 C 1825.55 1.0206 -1.65572 0
M  V30 18989 O 1824.81 1.72636 -0.921706 0
M  V30 18990 C 1825.1 -0.571534 -3.52801 0
M  V30 18991 C 1824.77 -1.97588 -4.05302 0
M  V30 18992 C 1823.43 -2.36004 -4.19352 0
M  V30 18993 C 1825.78 -2.89371 -4.33491 0
M  V30 18994 C 1823.11 -3.65529 -4.58918 0
M  V30 18995 C 1825.46 -4.18364 -4.74504 0
M  V30 18996 C 1824.13 -4.56751 -4.86759 0
M  V30 18997 H 1823.4 -0.152732 -0.725089 0
M  V30 18998 H 1826.05 -1.05203 -1.60014 0
M  V30 18999 H 1824.35 0.146483 -3.91526 0
M  V30 19000 H 1826.05 -0.234868 -4.00312 0
M  V30 19001 H 1822.64 -1.66748 -3.94833 0
M  V30 19002 H 1826.82 -2.60933 -4.2217 0
M  V30 19003 H 1822.08 -3.95091 -4.66597 0
M  V30 19004 H 1826.25 -4.89568 -4.95274 0
M  V30 19005 H 1823.88 -5.57166 -5.17175 0
M  V30 19006 N 1825.45 1.46436 -0.582609 0
M  V30 19007 C 1826.86 1.86047 -0.156012 0
M  V30 19008 C 1827.22 1.48619 1.28089 0
M  V30 19009 O 1826.34 0.90104 1.96749 0
M  V30 19010 C 1826.94 3.37671 -0.276358 0
M  V30 19011 C 1825.49 3.76279 0.0953682 0
M  V30 19012 C 1824.64 2.70454 -0.612348 0
M  V30 19013 H 1827.59 1.37592 -0.790834 0
M  V30 19014 H 1827.61 3.77223 0.498312 0
M  V30 19015 H 1827.13 3.64881 -1.32225 0
M  V30 19016 H 1825.23 3.54687 1.1414 0
M  V30 19017 H 1825.34 4.78276 -0.280881 0
M  V30 19018 H 1823.7 2.54646 -0.0526182 0
M  V30 19019 H 1824.49 3.00504 -1.65989 0
M  V30 19020 N 1826.93 0.320385 1.54309 0
M  V30 19021 C 1827.89 -0.534308 2.22885 0
M  V30 19022 C 1828.89 -1.04605 1.22124 0
M  V30 19023 O 1830.08 -0.938988 1.46726 0
M  V30 19024 C 1827.22 -1.74181 2.93042 0
M  V30 19025 H 1828.41 0.0651232 2.99829 0
M  V30 19026 H 1825.96 0.0714303 1.56137 0
M  V30 19027 H 1826.7 -2.38056 2.20227 0
M  V30 19028 H 1826.48 -1.38231 3.66926 0
M  V30 19029 H 1827.97 -2.34857 3.45299 0
M  V30 19030 N 1828.41 -1.57525 0.0484906 0
M  V30 19031 C 1829.36 -2.11374 -0.926816 0
M  V30 19032 C 1830.33 -1.02045 -1.31058 0
M  V30 19033 O 1831.51 -1.29577 -1.40052 0
M  V30 19034 C 1828.65 -2.66107 -2.19729 0
M  V30 19035 C 1827.76 -3.89513 -1.86826 0
M  V30 19036 C 1826.9 -4.32571 -3.08312 0
M  V30 19037 C 1825.94 -5.48684 -2.71317 0
M  V30 19038 N 1825.08 -5.86808 -3.85488 0
M  V30 19039 H 1829.92 -2.94417 -0.460721 0
M  V30 19040 H 1827.45 -1.45509 -0.215789 0
M  V30 19041 H 1829.41 -2.95939 -2.94068 0
M  V30 19042 H 1828.04 -1.85865 -2.63921 0
M  V30 19043 H 1827.09 -3.66289 -1.02647 0
M  V30 19044 H 1828.4 -4.73912 -1.55592 0
M  V30 19045 H 1827.56 -4.63941 -3.90952 0
M  V30 19046 H 1826.3 -3.46978 -3.42721 0
M  V30 19047 H 1825.3 -5.16988 -1.87092 0
M  V30 19048 H 1826.53 -6.35991 -2.38102 0
M  V30 19049 H 1824.47 -5.04168 -4.19703 0
M  V30 19050 H 1824.39 -6.65892 -3.57944 0
M  V30 19051 H 1825.66 -6.22792 -4.68776 0
M  V30 19052 N 1829.89 0.224867 -1.55988 0
M  V30 19053 C 1830.82 1.28192 -1.95164 0
M  V30 19054 C 1831.8 1.49062 -0.81942 0
M  V30 19055 O 1832.98 1.61301 -1.08146 0
M  V30 19056 C 1830.11 2.63237 -2.26547 0
M  V30 19057 C 1829.07 2.57029 -3.42228 0
M  V30 19058 C 1828.39 3.96073 -3.59207 0
M  V30 19059 C 1829.69 2.12101 -4.77295 0
M  V30 19060 H 1831.39 0.956495 -2.8371 0
M  V30 19061 H 1828.93 0.458673 -1.365 0
M  V30 19062 H 1830.89 3.37341 -2.52545 0
M  V30 19063 H 1829.61 2.97461 -1.3485 0
M  V30 19064 H 1828.27 1.85382 -3.16273 0
M  V30 19065 H 1827.92 4.27599 -2.64892 0
M  V30 19066 H 1827.62 3.92802 -4.37013 0
M  V30 19067 H 1829.14 4.71844 -3.8755 0
M  V30 19068 H 1830.56 2.75946 -5.0252 0
M  V30 19069 H 1828.95 2.19895 -5.5836 0
M  V30 19070 H 1830.02 1.07319 -4.72875 0
M  V30 19071 N 1831.37 1.49742 0.491438 0
M  V30 19072 C 1832.32 1.63507 1.58901 0
M  V30 19073 C 1833.3 0.490352 1.53246 0
M  V30 19074 O 1834.49 0.74378 1.60614 0
M  V30 19075 C 1831.62 1.71377 2.97464 0
M  V30 19076 C 1830.71 2.91458 3.08079 0
M  V30 19077 N 1831.1 4.15412 2.88559 0
M  V30 19078 C 1829.4 2.89594 3.39192 0
M  V30 19079 C 1830.1 4.96183 3.03608 0
M  V30 19080 N 1829.07 4.29735 3.3291 0
M  V30 19081 H 1832.87 2.57055 1.42478 0
M  V30 19082 H 1830.39 1.46646 0.697765 0
M  V30 19083 H 1832.39 1.79338 3.76355 0
M  V30 19084 H 1831.05 0.789729 3.1495 0
M  V30 19085 H 1832.06 4.45239 2.64543 0
M  V30 19086 H 1828.73 2.06607 3.62794 0
M  V30 19087 H 1830.12 6.04684 2.92927 0
M  V30 19088 N 1832.84 -0.743177 1.38977 0
M  V30 19089 C 1834.07 -1.53753 1.39193 0
M  V30 19090 C 1834.49 -1.88095 -0.0136591 0
M  V30 19091 O 1833.85 -1.51326 -0.998508 0
M  V30 19092 C 1833.9 -2.80679 2.26389 0
M  V30 19093 O 1833 -3.76265 1.68815 0
M  V30 19094 H 1832.35 -0.464639 0.474349 0
M  V30 19095 H 1834.88 -0.917579 1.82871 0
M  V30 19096 H 1834.89 -3.29498 2.40614 0
M  V30 19097 H 1833.56 -2.55014 3.28543 0
M  V30 19098 H 1832.14 -3.35004 1.63788 0
M  V30 19099 N 1834.32 -1.24018 -0.972487 0
M  V30 19100 C 1835.55 -1.10483 -1.75523 0
M  V30 19101 C 1835.97 0.338985 -1.8502 0
M  V30 19102 O 1835.33 1.24534 -1.31761 0
M  V30 19103 C 1835.38 -1.74396 -3.15624 0
M  V30 19104 O 1834.48 -1.01148 -3.99804 0
M  V30 19105 H 1833.82 -0.386777 -0.539722 0
M  V30 19106 H 1836.35 -1.64231 -1.22022 0
M  V30 19107 H 1836.36 -1.79958 -3.66168 0
M  V30 19108 H 1835.04 -2.7945 -3.08026 0
M  V30 19109 H 1833.62 -1.03338 -3.58296 0
M  V30 19110 N 1835.8 1.17245 -1.05316 0
M  V30 19111 C 1837.21 1.69167 -0.789906 0
M  V30 19112 C 1837.56 1.83751 0.687762 0
M  V30 19113 O 1836.69 1.52596 1.53438 0
M  V30 19114 C 1837.28 3.07269 -1.42728 0
M  V30 19115 C 1835.84 3.56352 -1.21204 0
M  V30 19116 C 1834.99 2.3258 -1.51003 0
M  V30 19117 H 1837.94 1.01744 -1.21794 0
M  V30 19118 H 1837.96 3.71175 -0.837236 0
M  V30 19119 H 1837.47 2.96622 -2.50273 0
M  V30 19120 H 1835.57 3.72274 -0.155891 0
M  V30 19121 H 1835.69 4.39038 -1.91787 0
M  V30 19122 H 1834.05 2.37107 -0.930172 0
M  V30 19123 H 1834.83 2.2454 -2.59685 0
M  V30 19124 N 1837.28 0.834353 1.33702 0
M  V30 19125 C 1838.69 0.485213 1.80285 0
M  V30 19126 C 1839.04 -0.995397 1.69075 0
M  V30 19127 O 1838.17 -1.77532 1.23738 0
M  V30 19128 C 1838.76 0.873959 3.27334 0
M  V30 19129 C 1837.32 0.577023 3.71951 0
M  V30 19130 C 1836.47 1.08473 2.55204 0
M  V30 19131 H 1839.42 1.02347 1.21288 0
M  V30 19132 H 1839.44 0.182218 3.80063 0
M  V30 19133 H 1838.95 1.95161 3.35461 0
M  V30 19134 H 1837.05 -0.490747 3.69354 0
M  V30 19135 H 1837.16 1.12909 4.65605 0
M  V30 19136 H 1835.53 0.505779 2.49628 0
M  V30 19137 H 1836.31 2.16906 2.66095 0
M  V30 19138 N 1838.76 -1.46125 0.590367 0
M  V30 19139 C 1840 -2.02646 0.0789983 0
M  V30 19140 C 1840.34 -1.45996 -1.28058 0
M  V30 19141 O 1839.61 -0.627981 -1.84083 0
M  V30 19142 C 1839.89 -3.60094 0.0214749 0
M  V30 19143 C 1839.75 -4.27112 1.41049 0
M  V30 19144 C 1841.07 -4.34889 -0.675236 0
M  V30 19145 H 1838.18 -0.736382 0.0301818 0
M  V30 19146 H 1840.83 -1.7418 0.759037 0
M  V30 19147 H 1838.98 -3.84477 -0.557648 0
M  V30 19148 H 1840.65 -4.13969 2.03537 0
M  V30 19149 H 1838.89 -3.86178 1.97607 0
M  V30 19150 H 1839.56 -5.3592 1.32264 0
M  V30 19151 H 1842.04 -4.15697 -0.183176 0
M  V30 19152 H 1840.91 -5.44615 -0.684538 0
M  V30 19153 H 1841.18 -4.06503 -1.73804 0
M  V30 19154 N 1840.23 -0.328564 -1.54137 0
M  V30 19155 C 1841.48 0.272909 -2.00955 0
M  V30 19156 C 1841.81 1.51393 -1.2163 0
M  V30 19157 O 1841.09 1.92174 -0.299916 0
M  V30 19158 C 1841.37 0.602055 -3.55031 0
M  V30 19159 C 1841.22 -0.650016 -4.45078 0
M  V30 19160 C 1842.54 1.4177 -4.1664 0
M  V30 19161 H 1839.66 0.0977177 -0.730493 0
M  V30 19162 H 1842.3 -0.446133 -1.84688 0
M  V30 19163 H 1840.45 1.21464 -3.69024 0
M  V30 19164 H 1842.13 -1.28821 -4.42948 0
M  V30 19165 H 1840.37 -1.2779 -4.1455 0
M  V30 19166 H 1841.04 -0.375181 -5.50724 0
M  V30 19167 H 1843.52 0.899849 -4.06254 0
M  V30 19168 H 1842.39 1.61676 -5.24549 0
M  V30 19169 H 1842.65 2.41534 -3.70289 0
M  V30 19170 N 1841.71 1.57497 -0.0568439 0
M  V30 19171 C 1843.13 1.5676 0.299732 0
M  V30 19172 C 1843.33 1.065 1.71056 0
M  V30 19173 O 1842.38 0.72414 2.41893 0
M  V30 19174 C 1843.7 3.00448 0.123023 0
M  V30 19175 C 1845.25 3.124 0.193697 0
M  V30 19176 C 1845.72 4.57977 0.0454499 0
M  V30 19177 N 1847.21 4.63089 0.101543 0
M  V30 19178 C 1847.95 5.73399 0.0110306 0
M  V30 19179 N 1847.44 6.92674 -0.132152 0
M  V30 19180 N 1849.24 5.6206 0.0670216 0
M  V30 19181 H 1841.39 1.88488 -0.979078 0
M  V30 19182 H 1843.65 0.868264 -0.380554 0
M  V30 19183 H 1843.36 3.41276 -0.849919 0
M  V30 19184 H 1843.23 3.66751 0.881672 0
M  V30 19185 H 1845.62 2.71468 1.15712 0
M  V30 19186 H 1845.7 2.48765 -0.595802 0
M  V30 19187 H 1845.34 4.99596 -0.914669 0
M  V30 19188 H 1845.27 5.19626 0.854166 0
M  V30 19189 H 1847.76 3.77309 0.211226 0
M  V30 19190 H 1848.08 7.72557 -0.193769 0
M  V30 19191 H 1846.42 6.94799 -0.167314 0
M  V30 19192 H 1849.61 4.67763 0.177478 0
M  V30 19193 H 1849.78 6.48 -0.00697432 0
M  V30 19194 N 1843.19 -0.216591 1.56105 0
M  V30 19195 C 1844.6 -0.783161 1.6948 0
M  V30 19196 C 1844.95 -1.84776 0.659716 0
M  V30 19197 O 1844.08 -2.1558 -0.188184 0
M  V30 19198 C 1844.67 -1.42733 3.07267 0
M  V30 19199 C 1843.23 -1.94123 3.2248 0
M  V30 19200 C 1842.38 -0.803216 2.65412 0
M  V30 19201 H 1845.33 0.00814542 1.58698 0
M  V30 19202 H 1845.35 -2.29627 3.034 0
M  V30 19203 H 1844.86 -0.652264 3.8258 0
M  V30 19204 H 1842.96 -2.74416 2.52045 0
M  V30 19205 H 1843.08 -2.1178 4.29751 0
M  V30 19206 H 1841.44 -1.21185 2.24023 0
M  V30 19207 H 1842.22 -0.0407398 3.43276 0
M  V30 19208 N 1844.67 -1.5 -0.48349 0
M  V30 19209 C 1846.08 -1.37151 -0.816192 0
M  V30 19210 C 1846.28 -0.418047 -1.97116 0
M  V30 19211 O 1845.34 0.143884 -2.5209 0
M  V30 19212 C 1846.65 -2.78256 -1.13992 0
M  V30 19213 C 1848.2 -2.87082 -1.2471 0
M  V30 19214 C 1848.68 -4.28993 -1.60403 0
M  V30 19215 N 1850.17 -4.31886 -1.67419 0
M  V30 19216 C 1850.9 -5.38673 -1.96516 0
M  V30 19217 N 1850.4 -6.55685 -2.23718 0
M  V30 19218 N 1852.19 -5.26105 -1.97914 0
M  V30 19219 H 1844.34 -2.10575 0.277847 0
M  V30 19220 H 1846.61 -0.945986 0.0617554 0
M  V30 19221 H 1846.31 -3.49807 -0.364448 0
M  V30 19222 H 1846.19 -3.14724 -2.07916 0
M  V30 19223 H 1848.57 -2.15758 -2.01327 0
M  V30 19224 H 1848.65 -2.54174 -0.287959 0
M  V30 19225 H 1848.3 -5.0085 -0.84331 0
M  V30 19226 H 1848.23 -4.59379 -2.57447 0
M  V30 19227 H 1850.72 -3.47506 -1.48487 0
M  V30 19228 H 1851.03 -7.32883 -2.45158 0
M  V30 19229 H 1849.38 -6.58881 -2.21136 0
M  V30 19230 H 1852.57 -4.33692 -1.76151 0
M  V30 19231 H 1852.74 -6.09419 -2.20256 0
M  V30 19232 N 1846.15 0.735796 -1.39369 0
M  V30 19233 C 1847.56 1.31402 -1.32628 0
M  V30 19234 C 1847.91 1.96198 0.00972836 0
M  V30 19235 O 1847.03 1.9625 0.91185 0
M  V30 19236 C 1847.63 2.38934 -2.402 0
M  V30 19237 C 1846.19 2.92432 -2.36982 0
M  V30 19238 C 1845.33 1.65992 -2.2213 0
M  V30 19239 H 1848.29 0.533364 -1.49469 0
M  V30 19240 H 1848.31 3.19304 -2.06942 0
M  V30 19241 H 1847.82 1.91745 -3.37425 0
M  V30 19242 H 1845.92 3.43903 -1.43394 0
M  V30 19243 H 1846.03 3.456 -3.31809 0
M  V30 19244 H 1844.4 1.90298 -1.69289 0
M  V30 19245 H 1845.18 1.20857 -3.21323 0
M  V30 19246 N 1847.63 1.24532 0.965897 0
M  V30 19247 C 1848.57 1.03929 2.06076 0
M  V30 19248 C 1849.54 -0.0479997 1.66031 0
M  V30 19249 O 1850.73 0.106979 1.905 0
M  V30 19250 C 1847.87 0.652084 3.38883 0
M  V30 19251 C 1846.98 1.81304 3.92113 0
M  V30 19252 C 1846.12 1.37125 5.13196 0
M  V30 19253 C 1845.15 2.50204 5.58627 0
M  V30 19254 N 1844.29 2.0688 6.70929 0
M  V30 19255 H 1849.13 1.97636 2.23033 0
M  V30 19256 H 1846.67 0.984356 1.09311 0
M  V30 19257 H 1848.63 0.408608 4.15194 0
M  V30 19258 H 1847.26 -0.247995 3.21846 0
M  V30 19259 H 1846.31 2.17013 3.12425 0
M  V30 19260 H 1847.62 2.66264 4.21788 0
M  V30 19261 H 1846.77 1.08676 5.96887 0
M  V30 19262 H 1845.51 0.492215 4.8521 0
M  V30 19263 H 1844.52 2.7941 4.73508 0
M  V30 19264 H 1845.74 3.38667 5.88627 0
M  V30 19265 H 1843.69 1.21377 6.44673 0
M  V30 19266 H 1843.61 2.85392 7.00062 0
M  V30 19267 H 1844.87 1.81575 7.58057 0
M  V30 19268 N 1849.1 -1.16685 1.05936 0
M  V30 19269 C 1850.33 -1.91576 0.794558 0
M  V30 19270 C 1850.75 -1.76706 -0.644718 0
M  V30 19271 O 1850.11 -1.0899 -1.44882 0
M  V30 19272 C 1850.16 -3.40417 1.18947 0
M  V30 19273 O 1849.26 -4.11109 0.326091 0
M  V30 19274 H 1848.6 -0.596983 0.290702 0
M  V30 19275 H 1851.13 -1.47856 1.4142 0
M  V30 19276 H 1851.14 -3.91178 1.15947 0
M  V30 19277 H 1849.82 -3.5056 2.23786 0
M  V30 19278 H 1848.4 -3.70557 0.417347 0
M  V30 19279 N 1850.58 -0.841432 -1.33258 0
M  V30 19280 C 1851.54 -0.281685 -2.27462 0
M  V30 19281 C 1852.54 0.551062 -1.51063 0
M  V30 19282 O 1853.73 0.364482 -1.70344 0
M  V30 19283 C 1850.87 0.602896 -3.35526 0
M  V30 19284 H 1852.06 -1.11298 -2.78483 0
M  V30 19285 H 1849.61 -0.614717 -1.43704 0
M  V30 19286 H 1850.35 1.45652 -2.89751 0
M  V30 19287 H 1850.13 0.00701634 -3.92099 0
M  V30 19288 H 1851.62 0.987735 -4.05751 0
M  V30 19289 N 1852.06 1.4581 -0.598108 0
M  V30 19290 C 1852.97 2.34249 0.12834 0
M  V30 19291 C 1853.99 1.50677 0.870202 0
M  V30 19292 O 1855.16 1.83505 0.829924 0
M  V30 19293 C 1852.23 3.28135 1.1193 0
M  V30 19294 C 1851.29 4.27611 0.380432 0
M  V30 19295 C 1850.52 5.17012 1.32419 0
M  V30 19296 O 1850.74 5.09648 2.56154 0
M  V30 19297 O 1849.68 5.962 0.826397 0
M  V30 19298 H 1853.5 2.9775 -0.598199 0
M  V30 19299 H 1851.09 1.45037 -0.358416 0
M  V30 19300 H 1852.97 3.86014 1.6903 0
M  V30 19301 H 1851.65 2.6721 1.82703 0
M  V30 19302 H 1850.55 3.73375 -0.23279 0
M  V30 19303 H 1851.89 4.91365 -0.286627 0
M  V30 19304 N 1853.54 0.336733 1.53961 0
M  V30 19305 C 1854.95 -0.148599 1.86108 0
M  V30 19306 C 1855.3 -1.50551 1.25812 0
M  V30 19307 O 1854.42 -2.08782 0.569109 0
M  V30 19308 C 1855.02 -0.276413 3.37671 0
M  V30 19309 C 1853.58 -0.705973 3.6972 0
M  V30 19310 C 1852.73 0.164407 2.76812 0
M  V30 19311 H 1855.68 0.556568 1.4862 0
M  V30 19312 H 1855.7 -1.10509 3.64099 0
M  V30 19313 H 1855.21 0.711315 3.81526 0
M  V30 19314 H 1853.31 -1.70297 3.31406 0
M  V30 19315 H 1853.42 -0.500591 4.76478 0
M  V30 19316 H 1851.79 -0.362166 2.52112 0
M  V30 19317 H 1852.57 1.14914 3.23496 0
M  V30 19318 N 1855.02 -1.57465 0.0651956 0
M  V30 19319 C 1856.43 -1.80728 -0.468449 0
M  V30 19320 C 1856.78 -0.978581 -1.70054 0
M  V30 19321 O 1855.9 -0.199186 -2.15481 0
M  V30 19322 C 1856.5 -3.27791 -0.856641 0
M  V30 19323 C 1855.06 -3.51923 -1.33519 0
M  V30 19324 C 1854.2 -2.7548 -0.317147 0
M  V30 19325 H 1857.15 -1.5601 0.290955 0
M  V30 19326 H 1857.18 -3.39479 -1.71855 0
M  V30 19327 H 1856.69 -3.88079 0.0402823 0
M  V30 19328 H 1854.79 -2.96932 -2.25083 0
M  V30 19329 H 1854.9 -4.60624 -1.31767 0
M  V30 19330 H 1853.27 -2.4204 -0.793026 0
M  V30 19331 H 1854.05 -3.38502 0.571935 0
M  V30 19332 N 1856.49 0.20831 -1.56217 0
M  V30 19333 C 1857.91 0.55859 -1.49506 0
M  V30 19334 C 1858.11 1.86504 -0.762784 0
M  V30 19335 O 1857.17 2.50616 -0.307868 0
M  V30 19336 C 1858.48 0.625557 -2.94121 0
M  V30 19337 C 1860.03 0.715289 -3.04717 0
M  V30 19338 C 1860.5 0.813485 -4.50718 0
M  V30 19339 N 1861.99 0.87736 -4.54815 0
M  V30 19340 C 1862.73 0.973279 -5.65079 0
M  V30 19341 N 1862.22 1.03232 -6.85066 0
M  V30 19342 N 1864.02 1.00944 -5.52962 0
M  V30 19343 H 1856.17 -0.648826 -2.02247 0
M  V30 19344 H 1858.43 -0.229425 -0.91982 0
M  V30 19345 H 1858.14 -0.265056 -3.507 0
M  V30 19346 H 1858.01 1.48473 -3.4675 0
M  V30 19347 H 1860.4 1.59634 -2.48196 0
M  V30 19348 H 1860.48 -0.169818 -2.55236 0
M  V30 19349 H 1860.12 -0.0631602 -5.07861 0
M  V30 19350 H 1860.05 1.7142 -4.97918 0
M  V30 19351 H 1862.54 0.841513 -3.68411 0
M  V30 19352 H 1862.86 1.10566 -7.6485 0
M  V30 19353 H 1861.2 1.00122 -6.8775 0
M  V30 19354 H 1864.39 0.960065 -4.58149 0
M  V30 19355 H 1864.57 1.08074 -6.38924 0
M  V30 19356 N 1857.97 1.50255 0.475528 0
M  V30 19357 C 1859.2 1.65044 1.25599 0
M  V30 19358 C 1859.62 0.331736 1.85152 0
M  V30 19359 O 1858.98 -0.703863 1.67079 0
M  V30 19360 C 1859.03 2.7405 2.34369 0
M  V30 19361 O 1858.13 2.34994 3.38897 0
M  V30 19362 H 1857.47 0.551557 0.369704 0
M  V30 19363 H 1860 1.96603 0.566422 0
M  V30 19364 H 1860.01 2.96993 2.79749 0
M  V30 19365 H 1858.69 3.6976 1.90395 0
M  V30 19366 H 1857.26 2.22481 2.9926 0
M  V30 19367 N 1859.45 -0.728395 1.39758 0
M  V30 19368 C 1860.86 -1.30697 1.33323 0
M  V30 19369 C 1861.21 -1.962 0.000676614 0
M  V30 19370 O 1860.34 -1.96731 -0.90143 0
M  V30 19371 C 1860.93 -2.37656 2.41464 0
M  V30 19372 C 1859.49 -2.91171 2.3853 0
M  V30 19373 C 1858.64 -1.64812 2.23007 0
M  V30 19374 H 1861.59 -0.525429 1.4975 0
M  V30 19375 H 1861.61 -3.18202 2.08633 0
M  V30 19376 H 1861.12 -1.89953 3.38437 0
M  V30 19377 H 1859.22 -3.43137 1.45216 0
M  V30 19378 H 1859.34 -3.43836 3.33637 0
M  V30 19379 H 1857.7 -1.89397 1.70296 0
M  V30 19380 H 1858.48 -1.19151 3.21959 0
M  V30 19381 N 1860.93 -1.25042 -0.959279 0
M  V30 19382 C 1861.86 -1.07494 -2.07285 0
M  V30 19383 C 1862.84 0.0146264 -1.70094 0
M  V30 19384 O 1864.02 -0.154035 -1.93588 0
M  V30 19385 C 1861.15 -0.68794 -3.40418 0
M  V30 19386 C 1860.11 -1.72722 -3.91601 0
M  V30 19387 C 1859.43 -1.19504 -5.21175 0
M  V30 19388 C 1860.73 -3.12502 -4.18497 0
M  V30 19389 H 1862.43 -2.00641 -2.22224 0
M  V30 19390 H 1859.97 -0.966074 -1.06785 0
M  V30 19391 H 1861.93 -0.552133 -4.17767 0
M  V30 19392 H 1860.65 0.279224 -3.25404 0
M  V30 19393 H 1859.31 -1.85139 -3.16416 0
M  V30 19394 H 1858.96 -0.218239 -5.02526 0
M  V30 19395 H 1858.66 -1.88962 -5.56387 0
M  V30 19396 H 1860.18 -1.07153 -6.01124 0
M  V30 19397 H 1861.6 -3.03266 -4.86521 0
M  V30 19398 H 1859.99 -3.79389 -4.64956 0
M  V30 19399 H 1861.06 -3.5991 -3.2495 0
M  V30 19400 N 1862.41 1.16121 -1.06553 0
M  V30 19401 C 1863.34 2.22761 -0.699976 0
M  V30 19402 C 1864.32 1.67274 0.308783 0
M  V30 19403 O 1865.5 1.93333 0.183328 0
M  V30 19404 C 1862.63 3.47187 -0.0884044 0
M  V30 19405 C 1861.59 4.15584 -1.02343 0
M  V30 19406 C 1860.91 5.33992 -0.275022 0
M  V30 19407 C 1862.21 4.66266 -2.35358 0
M  V30 19408 H 1863.91 2.53595 -1.59153 0
M  V30 19409 H 1861.45 1.21893 -0.766686 0
M  V30 19410 H 1863.41 4.21019 0.17922 0
M  V30 19411 H 1862.13 3.15661 0.838181 0
M  V30 19412 H 1860.79 3.43683 -1.27584 0
M  V30 19413 H 1860.44 4.9872 0.654765 0
M  V30 19414 H 1860.14 5.80695 -0.898181 0
M  V30 19415 H 1861.66 6.10598 -0.0150056 0
M  V30 19416 H 1863.07 5.31665 -2.14488 0
M  V30 19417 H 1861.47 5.236 -2.93195 0
M  V30 19418 H 1862.54 3.82335 -2.98241 0
M  V30 19419 N 1863.88 0.848487 1.3281 0
M  V30 19420 C 1864.83 0.286636 2.29013 0
M  V30 19421 C 1865.8 -0.602944 1.5477 0
M  V30 19422 O 1866.99 -0.539169 1.83024 0
M  V30 19423 C 1864.13 -0.524193 3.41096 0
M  V30 19424 C 1863.24 0.390486 4.30232 0
M  V30 19425 C 1862.37 -0.432376 5.29437 0
M  V30 19426 C 1861.41 0.48009 6.10214 0
M  V30 19427 N 1860.55 -0.30522 7.01436 0
M  V30 19428 H 1865.39 1.1123 2.76463 0
M  V30 19429 H 1862.93 0.559956 1.36025 0
M  V30 19430 H 1864.89 -1.00987 4.04793 0
M  V30 19431 H 1863.52 -1.31474 2.94813 0
M  V30 19432 H 1862.57 0.994518 3.6717 0
M  V30 19433 H 1863.88 1.09103 4.86722 0
M  V30 19434 H 1863.03 -0.981471 5.98709 0
M  V30 19435 H 1861.77 -1.16631 4.73549 0
M  V30 19436 H 1860.78 1.04112 5.39853 0
M  V30 19437 H 1862 1.21254 6.68187 0
M  V30 19438 H 1859.95 -1.02236 6.47984 0
M  V30 19439 H 1859.87 0.336414 7.55251 0
M  V30 19440 H 1861.13 -0.836242 7.75001 0
M  V30 19441 N 1865.36 -1.4549 0.605832 0
M  V30 19442 C 1866.78 -1.57311 0.269339 0
M  V30 19443 C 1866.98 -1.59746 -1.22814 0
M  V30 19444 O 1866.03 -1.52682 -2.01108 0
M  V30 19445 C 1867.35 -2.85664 0.938963 0
M  V30 19446 C 1868.9 -2.99336 0.914717 0
M  V30 19447 C 1869.37 -4.30457 1.56432 0
M  V30 19448 N 1870.86 -4.37211 1.52973 0
M  V30 19449 C 1871.6 -5.37333 2.00152 0
M  V30 19450 N 1871.09 -6.44001 2.5541 0
M  V30 19451 N 1872.89 -5.28679 1.90931 0
M  V30 19452 H 1865.04 -1.42153 1.57817 0
M  V30 19453 H 1867.3 -0.679542 0.661004 0
M  V30 19454 H 1867.01 -2.89759 1.9933 0
M  V30 19455 H 1866.88 -3.7437 0.461178 0
M  V30 19456 H 1869.27 -2.94809 -0.131069 0
M  V30 19457 H 1869.35 -2.12045 1.43075 0
M  V30 19458 H 1868.99 -4.35742 2.60942 0
M  V30 19459 H 1868.92 -5.16561 1.02332 0
M  V30 19460 H 1871.41 -3.60733 1.12605 0
M  V30 19461 H 1871.73 -7.16644 2.89208 0
M  V30 19462 H 1870.07 -6.44757 2.59448 0
M  V30 19463 H 1873.26 -4.44253 1.47502 0
M  V30 19464 H 1873.43 -6.06559 2.28013 0
M  V30 19465 N 1866.84 -0.344893 -1.5378 0
M  V30 19466 C 1868.09 0.25158 -2.01233 0
M  V30 19467 C 1868.42 1.50094 -1.23229 0
M  V30 19468 O 1867.69 1.91845 -0.320282 0
M  V30 19469 C 1867.98 0.564366 -3.5565 0
M  V30 19470 C 1867.83 -0.697186 -4.44364 0
M  V30 19471 C 1869.15 1.37343 -4.18121 0
M  V30 19472 H 1866.27 0.0899643 -0.731488 0
M  V30 19473 H 1868.91 -0.465697 -1.84204 0
M  V30 19474 H 1867.06 1.17543 -3.70292 0
M  V30 19475 H 1868.73 -1.33512 -4.41557 0
M  V30 19476 H 1866.98 -1.3218 -4.13172 0
M  V30 19477 H 1867.65 -0.433571 -5.50295 0
M  V30 19478 H 1870.12 0.85671 -4.07185 0
M  V30 19479 H 1869 1.56103 -5.26235 0
M  V30 19480 H 1869.26 2.37593 -3.7283 0
M  V30 19481 N 1868.32 1.57428 -0.0735454 0
M  V30 19482 C 1869.25 2.09808 0.922679 0
M  V30 19483 C 1870.26 1.0306 1.26026 0
M  V30 19484 O 1871.45 1.30568 1.21714 0
M  V30 19485 C 1868.55 2.54492 2.23801 0
M  V30 19486 C 1867.73 3.84832 2.07901 0
M  V30 19487 C 1866.78 4.15592 3.22754 0
M  V30 19488 O 1865.81 4.85163 2.97667 0
M  V30 19489 N 1867.01 3.69277 4.47901 0
M  V30 19490 H 1869.78 2.95905 0.475456 0
M  V30 19491 H 1867.34 1.61511 0.112135 0
M  V30 19492 H 1869.33 2.7213 2.99545 0
M  V30 19493 H 1867.9 1.73523 2.60016 0
M  V30 19494 H 1867.12 3.76557 1.16614 0
M  V30 19495 H 1868.41 4.70144 1.9453 0
M  V30 19496 H 1867.81 3.13076 4.71168 0
M  V30 19497 H 1866.36 3.92111 5.20665 0
M  V30 19498 N 1869.8 -0.200022 1.56326 0
M  V30 19499 C 1871.02 -0.941617 1.84793 0
M  V30 19500 C 1871.45 -1.76271 0.656525 0
M  V30 19501 O 1870.8 -1.76951 -0.394703 0
M  V30 19502 C 1870.85 -1.81754 3.11445 0
M  V30 19503 O 1869.96 -2.91571 2.91651 0
M  V30 19504 H 1869.3 -0.265444 0.608634 0
M  V30 19505 H 1871.83 -0.206826 2.03552 0
M  V30 19506 H 1871.84 -2.22316 3.4211 0
M  V30 19507 H 1870.51 -1.2142 3.97781 0
M  V30 19508 H 1869.09 -2.54799 2.72271 0
M  V30 19509 N 1871.27 -1.50505 -0.467553 0
M  V30 19510 C 1872.24 -1.69071 -1.54751 0
M  V30 19511 C 1873.24 -0.561325 -1.50684 0
M  V30 19512 O 1874.43 -0.828412 -1.53242 0
M  V30 19513 C 1871.56 -1.71922 -2.94373 0
M  V30 19514 H 1872.75 -2.65425 -1.39605 0
M  V30 19515 H 1870.31 -1.40039 -0.694177 0
M  V30 19516 H 1871.04 -0.772734 -3.14959 0
M  V30 19517 H 1870.83 -2.53972 -2.98732 0
M  V30 19518 H 1872.32 -1.88228 -3.72773 0
M  V30 19519 N 1872.75 0.720973 -1.40142 0
M  V30 19520 C 1873.66 1.86527 -1.42284 0
M  V30 19521 C 1874.68 1.71106 -0.316044 0
M  V30 19522 O 1875.85 1.93465 -0.55977 0
M  V30 19523 C 1872.92 3.2227 -1.27841 0
M  V30 19524 C 1871.98 3.49984 -2.48616 0
M  V30 19525 C 1871.21 4.7925 -2.34852 0
M  V30 19526 O 1871.44 5.53963 -1.35945 0
M  V30 19527 O 1870.37 5.07179 -3.24119 0
M  V30 19528 H 1874.2 1.87675 -2.38771 0
M  V30 19529 H 1871.78 0.870677 -1.21407 0
M  V30 19530 H 1873.66 4.03362 -1.21973 0
M  V30 19531 H 1872.34 3.21861 -0.344566 0
M  V30 19532 H 1871.25 2.68922 -2.60061 0
M  V30 19533 H 1872.58 3.55184 -3.40742 0
M  V30 19534 N 1874.23 1.25549 0.952634 0
M  V30 19535 C 1875.18 1.06108 2.04963 0
M  V30 19536 C 1876.15 -0.0303872 1.66072 0
M  V30 19537 O 1877.33 0.127178 1.90376 0
M  V30 19538 C 1874.47 0.68799 3.38173 0
M  V30 19539 C 1873.59 1.85452 3.90168 0
M  V30 19540 C 1872.72 1.4256 5.11713 0
M  V30 19541 C 1871.76 2.56115 5.55942 0
M  V30 19542 N 1870.9 2.13984 6.68697 0
M  V30 19543 H 1875.74 1.99991 2.20925 0
M  V30 19544 H 1873.27 0.995895 1.08261 0
M  V30 19545 H 1875.23 0.452622 4.14737 0
M  V30 19546 H 1873.86 -0.213845 3.22091 0
M  V30 19547 H 1872.91 2.20314 3.10106 0
M  V30 19548 H 1874.23 2.70722 4.1894 0
M  V30 19549 H 1873.38 1.15 5.95701 0
M  V30 19550 H 1872.12 0.54365 4.8466 0
M  V30 19551 H 1871.12 2.84417 4.70518 0
M  V30 19552 H 1872.35 3.44891 5.85002 0
M  V30 19553 H 1870.29 1.28208 6.4335 0
M  V30 19554 H 1870.21 2.92801 6.96996 0
M  V30 19555 H 1871.48 1.89605 7.56089 0
M  V30 19556 N 1875.71 -1.15554 1.07168 0
M  V30 19557 C 1876.64 -2.22387 0.71178 0
M  V30 19558 C 1877.62 -1.67435 -0.299908 0
M  V30 19559 O 1878.8 -1.93427 -0.173073 0
M  V30 19560 C 1875.93 -3.47136 0.106815 0
M  V30 19561 C 1874.89 -4.15035 1.04545 0
M  V30 19562 C 1874.21 -5.33839 0.303337 0
M  V30 19563 C 1875.51 -4.65011 2.37827 0
M  V30 19564 H 1877.21 -2.52748 1.60496 0
M  V30 19565 H 1874.75 -1.21485 0.773139 0
M  V30 19566 H 1876.71 -4.21108 -0.15689 0
M  V30 19567 H 1875.43 -3.16101 -0.821429 0
M  V30 19568 H 1874.09 -3.43001 1.29405 0
M  V30 19569 H 1873.74 -4.9906 -0.628308 0
M  V30 19570 H 1873.44 -5.8021 0.928964 0
M  V30 19571 H 1874.96 -6.10582 0.0473869 0
M  V30 19572 H 1876.38 -5.3052 2.17305 0
M  V30 19573 H 1874.77 -5.22038 2.95967 0
M  V30 19574 H 1875.84 -3.80748 3.00264 0
M  V30 19575 N 1877.19 -0.855519 -1.32358 0
M  V30 19576 C 1878.44 -0.458415 -1.96832 0
M  V30 19577 C 1878.76 0.98946 -1.68032 0
M  V30 19578 O 1878.03 1.69161 -0.987995 0
M  V30 19579 H 1876.61 -0.166527 -0.728202 0
M  V30 19580 H 1879.27 -1.09214 -1.61426 0
M  V30 19581 H 1878.36 -0.604185 -3.06196 0
M  V30 19582 N 1878.67 1.45167 -0.61354 0
M  V30 19583 C 1879.63 2.29016 0.0919454 0
M  V30 19584 C 1880.63 1.40091 0.789373 0
M  V30 19585 O 1881.82 1.6215 0.636631 0
M  V30 19586 C 1878.95 3.21257 1.14048 0
M  V30 19587 H 1880.14 2.92875 -0.645317 0
M  V30 19588 H 1877.7 1.51788 -0.372855 0
M  V30 19589 H 1878.43 2.6221 1.90831 0
M  V30 19590 H 1878.22 3.86766 0.644523 0
M  V30 19591 H 1879.71 3.84288 1.63439 0
M  V30 19592 N 1880.14 0.353044 1.53595 0
M  V30 19593 C 1881.37 -0.244309 2.05956 0
M  V30 19594 C 1881.79 -1.42681 1.22571 0
M  V30 19595 O 1881.15 -1.79681 0.241723 0
M  V30 19596 C 1881.2 -0.628083 3.55088 0
M  V30 19597 O 1880.3 -1.72693 3.74501 0
M  V30 19598 H 1879.64 -0.038537 0.662881 0
M  V30 19599 H 1882.17 0.510013 1.98141 0
M  V30 19600 H 1882.18 -0.902597 3.97891 0
M  V30 19601 H 1880.86 0.236643 4.15226 0
M  V30 19602 H 1879.44 -1.44895 3.43599 0
M  V30 19603 N 1881.62 -1.57387 0.0818932 0
M  V30 19604 C 1882.55 -2.16318 -0.879124 0
M  V30 19605 C 1883.53 -1.09293 -1.30342 0
M  V30 19606 O 1884.72 -1.37373 -1.37267 0
M  V30 19607 C 1881.85 -2.73293 -2.14308 0
M  V30 19608 C 1880.8 -3.85575 -1.85785 0
M  V30 19609 C 1880.13 -4.29195 -3.18897 0
M  V30 19610 C 1881.43 -5.09365 -1.15517 0
M  V30 19611 H 1883.12 -2.96873 -0.388166 0
M  V30 19612 H 1880.67 -1.42803 -0.185265 0
M  V30 19613 H 1882.62 -3.13168 -2.81964 0
M  V30 19614 H 1881.34 -1.89974 -2.65664 0
M  V30 19615 H 1880 -3.46219 -1.20532 0
M  V30 19616 H 1879.65 -3.42784 -3.68114 0
M  V30 19617 H 1879.35 -5.04889 -3.006 0
M  V30 19618 H 1880.88 -4.71694 -3.87734 0
M  V30 19619 H 1882.29 -5.46493 -1.73259 0
M  V30 19620 H 1880.69 -5.90403 -1.07444 0
M  V30 19621 H 1881.76 -4.8471 -0.135822 0
M  V30 19622 N 1883.1 0.191729 -1.56429 0
M  V30 19623 C 1884.32 0.931804 -1.85289 0
M  V30 19624 C 1884.75 1.7592 -0.665864 0
M  V30 19625 O 1884.11 1.77158 0.385313 0
M  V30 19626 C 1884.16 1.801 -3.12404 0
M  V30 19627 O 1883.26 2.9002 -2.93193 0
M  V30 19628 H 1882.6 0.262213 -0.610033 0
M  V30 19629 H 1885.13 0.196028 -2.03659 0
M  V30 19630 H 1885.14 2.20499 -3.43285 0
M  V30 19631 H 1883.82 1.19309 -3.9842 0
M  V30 19632 H 1882.39 2.53352 -2.73619 0
M  V30 19633 N 1884.58 1.50751 0.459565 0
M  V30 19634 C 1885.54 1.69889 1.53852 0
M  V30 19635 C 1886.54 0.569308 1.50385 0
M  V30 19636 O 1887.73 0.836527 1.528 0
M  V30 19637 C 1884.86 1.73481 2.93457 0
M  V30 19638 H 1886.06 2.66162 1.38195 0
M  V30 19639 H 1883.61 1.40405 0.686741 0
M  V30 19640 H 1884.34 0.789426 3.14545 0
M  V30 19641 H 1884.13 2.55553 2.97381 0
M  V30 19642 H 1885.62 1.90202 3.7177 0
M  V30 19643 N 1886.06 -0.713531 1.40522 0
M  V30 19644 C 1887.33 -1.46672 1.29409 0
M  V30 19645 C 1887.71 -2.10922 -0.0866293 0
M  V30 19646 O 1887.06 -2.00303 -1.09959 0
M  V30 19647 C 1887.27 -2.50076 2.4344 0
M  V30 19648 C 1888.62 -3.15848 2.8377 0
M  V30 19649 O 1889.64 -2.60396 2.43048 0
M  V30 19650 O 1888.5 -4.16238 3.5413 0
M  V30 19651 H 1885.6 -0.652333 0.508322 0
M  V30 19652 H 1888.14 -0.745531 1.52446 0
M  V30 19653 H 1886.91 -2.01129 3.35653 0
M  V30 19654 H 1886.54 -3.29728 2.22183 0
M  V30 19655 N 1887.53 -1.26053 -0.945962 0
M  V30 19656 C 1888.48 -1.07194 -2.04397 0
M  V30 19657 C 1889.45 0.0215796 -1.66086 0
M  V30 19658 O 1890.64 -0.137272 -1.90306 0
M  V30 19659 C 1887.78 -0.705915 -3.37803 0
M  V30 19660 C 1886.89 -1.87519 -3.89179 0
M  V30 19661 C 1886.02 -1.45272 -5.1095 0
M  V30 19662 C 1885.06 -2.59059 -5.54576 0
M  V30 19663 N 1884.2 -2.17527 -6.67552 0
M  V30 19664 H 1889.04 -2.01159 -2.19861 0
M  V30 19665 H 1886.58 -1.00162 -1.07731 0
M  V30 19666 H 1888.53 -0.474611 -4.14492 0
M  V30 19667 H 1887.16 0.196761 -3.222 0
M  V30 19668 H 1886.22 -2.21956 -3.08933 0
M  V30 19669 H 1887.53 -2.7294 -4.17499 0
M  V30 19670 H 1886.68 -1.18158 -5.95083 0
M  V30 19671 H 1885.42 -0.569345 -4.84365 0
M  V30 19672 H 1884.43 -2.86908 -4.69003 0
M  V30 19673 H 1885.65 -3.47989 -5.83164 0
M  V30 19674 H 1883.6 -1.31618 -6.42661 0
M  V30 19675 H 1883.51 -2.96493 -6.95433 0
M  V30 19676 H 1884.78 -1.93612 -7.55073 0
M  V30 19677 N 1889.01 1.14984 -1.07779 0
M  V30 19678 C 1889.96 2.19864 -0.702018 0
M  V30 19679 C 1890.93 1.63206 0.308695 0
M  V30 19680 O 1892.11 1.8981 0.194157 0
M  V30 19681 C 1889.25 3.44923 -0.110634 0
M  V30 19682 C 1888.37 4.1576 -1.17335 0
M  V30 19683 C 1887.5 5.28381 -0.546508 0
M  V30 19684 C 1886.54 5.91042 -1.59171 0
M  V30 19685 N 1885.68 6.95126 -0.987129 0
M  V30 19686 H 1890.52 2.51358 -1.60073 0
M  V30 19687 H 1888.05 1.2344 -0.80006 0
M  V30 19688 H 1890.01 4.16451 0.249903 0
M  V30 19689 H 1888.64 3.13932 0.751416 0
M  V30 19690 H 1887.69 3.42685 -1.6514 0
M  V30 19691 H 1889.01 4.58436 -1.96566 0
M  V30 19692 H 1888.16 6.06552 -0.133852 0
M  V30 19693 H 1886.9 4.8691 0.277527 0
M  V30 19694 H 1885.9 5.1158 -2.01409 0
M  V30 19695 H 1887.13 6.3459 -2.4181 0
M  V30 19696 H 1885.08 6.55742 -0.184076 0
M  V30 19697 H 1884.99 7.36253 -1.71662 0
M  V30 19698 H 1886.26 7.77186 -0.60012 0
M  V30 19699 N 1890.49 0.862526 1.31902 0
M  V30 19700 C 1891.74 0.468847 1.96586 0
M  V30 19701 C 1892.06 -0.980535 1.68554 0
M  V30 19702 O 1891.33 -1.68635 0.996952 0
M  V30 19703 H 1889.91 0.170387 0.727308 0
M  V30 19704 H 1892.57 1.10068 1.60845 0
M  V30 19705 H 1891.67 0.620415 3.05871 0
M  V30 19706 N 1891.97 -1.4484 0.62123 0
M  V30 19707 C 1892.93 -2.29061 -0.0797989 0
M  V30 19708 C 1893.93 -1.40508 -0.781932 0
M  V30 19709 O 1895.12 -1.62485 -0.628023 0
M  V30 19710 C 1892.25 -3.21857 -1.12342 0
M  V30 19711 H 1893.45 -2.92528 0.66084 0
M  V30 19712 H 1891 -1.51588 0.3809 0
M  V30 19713 H 1891.73 -2.63218 -1.89437 0
M  V30 19714 H 1891.52 -3.87103 -0.624003 0
M  V30 19715 H 1893.01 -3.8515 -1.61398 0
M  V30 19716 N 1893.45 -0.361184 -1.53405 0
M  V30 19717 C 1894.38 0.479368 -2.28526 0
M  V30 19718 C 1895.36 1.08768 -1.3078 0
M  V30 19719 O 1896.54 1.10576 -1.59645 0
M  V30 19720 C 1893.67 1.6215 -3.07123 0
M  V30 19721 C 1892.63 1.14065 -4.12521 0
M  V30 19722 C 1891.95 2.37267 -4.79175 0
M  V30 19723 C 1893.25 0.228522 -5.218 0
M  V30 19724 H 1894.95 -0.147344 -2.99037 0
M  V30 19725 H 1892.49 -0.0723051 -1.43818 0
M  V30 19726 H 1894.45 2.21612 -3.58422 0
M  V30 19727 H 1893.17 2.27538 -2.34295 0
M  V30 19728 H 1891.83 0.568735 -3.62162 0
M  V30 19729 H 1891.48 3.01102 -4.02923 0
M  V30 19730 H 1891.18 2.05768 -5.50394 0
M  V30 19731 H 1892.7 2.97424 -5.33265 0
M  V30 19732 H 1894.11 0.730497 -5.68627 0
M  V30 19733 H 1892.51 0.00460259 -6.001 0
M  V30 19734 H 1893.58 -0.730537 -4.79365 0
M  V30 19735 N 1894.92 1.57341 -0.0902386 0
M  V30 19736 C 1896.34 1.57361 0.266413 0
M  V30 19737 C 1896.54 1.10104 1.68758 0
M  V30 19738 O 1895.6 0.775287 2.40303 0
M  V30 19739 C 1896.91 3.00642 0.0592661 0
M  V30 19740 C 1898.46 3.12741 0.127389 0
M  V30 19741 C 1898.93 4.57971 -0.0517042 0
M  V30 19742 N 1900.42 4.632 0.0032917 0
M  V30 19743 C 1901.16 5.73293 -0.110598 0
M  V30 19744 N 1900.65 6.92238 -0.279049 0
M  V30 19745 N 1902.45 5.62076 -0.0522147 0
M  V30 19746 H 1894.6 1.86369 -1.01884 0
M  V30 19747 H 1896.86 0.859996 -0.398886 0
M  V30 19748 H 1896.57 3.39396 -0.922117 0
M  V30 19749 H 1896.44 3.68539 0.80368 0
M  V30 19750 H 1898.83 2.73861 1.09927 0
M  V30 19751 H 1898.91 2.47445 -0.648435 0
M  V30 19752 H 1898.55 4.97544 -1.02043 0
M  V30 19753 H 1898.48 5.21321 0.743753 0
M  V30 19754 H 1900.97 3.77672 0.131145 0
M  V30 19755 H 1901.29 7.71972 -0.357596 0
M  V30 19756 H 1899.63 6.94287 -0.314653 0
M  V30 19757 H 1902.82 4.68035 0.0782189 0
M  V30 19758 H 1903 6.47839 -0.144423 0
M  V30 19759 N 1896.4 -0.183431 1.56529 0
M  V30 19760 C 1897.35 -1.22726 1.95466 0
M  V30 19761 C 1898.32 -1.44626 0.81686 0
M  V30 19762 O 1899.5 -1.57566 1.07599 0
M  V30 19763 C 1896.64 -2.56435 2.30944 0
M  V30 19764 C 1895.76 -2.42016 3.57844 0
M  V30 19765 C 1894.89 -3.68509 3.82589 0
M  V30 19766 C 1893.93 -3.48972 5.02877 0
M  V30 19767 N 1893.07 -4.67505 5.23817 0
M  V30 19768 H 1897.91 -0.888204 2.84456 0
M  V30 19769 H 1895.45 -0.427192 1.4076 0
M  V30 19770 H 1897.4 -3.3435 2.49532 0
M  V30 19771 H 1896.03 -2.8836 1.4508 0
M  V30 19772 H 1895.09 -1.55339 3.47237 0
M  V30 19773 H 1896.4 -2.23519 4.45915 0
M  V30 19774 H 1895.55 -4.54861 4.0148 0
M  V30 19775 H 1894.29 -3.89972 2.9287 0
M  V30 19776 H 1893.3 -2.61005 4.83897 0
M  V30 19777 H 1894.52 -3.28942 5.94116 0
M  V30 19778 H 1892.47 -4.8921 4.37047 0
M  V30 19779 H 1892.38 -4.51876 6.06089 0
M  V30 19780 H 1893.65 -5.55175 5.47176 0
M  V30 19781 N 1897.88 -1.50992 -0.451564 0
M  V30 19782 C 1898.83 -1.67662 -1.5451 0
M  V30 19783 C 1899.81 -0.53081 -1.51892 0
M  V30 19784 O 1901.01 -0.786103 -1.58586 0
M  V30 19785 C 1898.14 -1.79204 -2.92815 0
M  V30 19786 C 1897.22 -2.99524 -3.00244 0
M  V30 19787 N 1897.61 -4.22917 -2.77443 0
M  V30 19788 C 1895.91 -2.98485 -3.31395 0
M  V30 19789 C 1896.61 -5.04058 -2.90346 0
M  V30 19790 N 1895.59 -4.3841 -3.21399 0
M  V30 19791 H 1899.39 -2.60742 -1.35612 0
M  V30 19792 H 1896.9 -1.48444 -0.658639 0
M  V30 19793 H 1898.9 -1.89254 -3.71468 0
M  V30 19794 H 1897.56 -0.872954 -3.12745 0
M  V30 19795 H 1898.57 -4.52096 -2.52645 0
M  V30 19796 H 1895.25 -2.16153 -3.57189 0
M  V30 19797 H 1896.64 -6.12238 -2.76792 0
M  V30 19798 N 1899.36 0.706069 -1.40899 0
M  V30 19799 C 1900.58 1.50008 -1.43221 0
M  V30 19800 C 1901.01 1.88065 -0.0362158 0
M  V30 19801 O 1900.37 1.5392 0.958036 0
M  V30 19802 C 1900.41 2.74578 -2.33751 0
M  V30 19803 O 1899.52 3.71657 -1.78731 0
M  V30 19804 H 1898.86 0.451899 -0.486501 0
M  V30 19805 H 1901.39 0.868772 -1.85239 0
M  V30 19806 H 1901.4 3.23002 -2.49266 0
M  V30 19807 H 1900.07 2.46214 -3.35189 0
M  V30 19808 H 1898.65 3.30544 -1.72612 0
M  V30 19809 N 1900.84 1.26553 0.939264 0
M  V30 19810 C 1901.77 1.10778 2.05549 0
M  V30 19811 C 1902.75 0.0124359 1.70095 0
M  V30 19812 O 1903.93 0.184814 1.93319 0
M  V30 19813 C 1901.06 0.742011 3.39281 0
M  V30 19814 C 1900.02 1.78931 3.88803 0
M  V30 19815 C 1899.34 1.2778 5.19207 0
M  V30 19816 C 1900.64 3.1912 4.13473 0
M  V30 19817 H 1902.34 2.04151 2.19004 0
M  V30 19818 H 1899.88 0.98294 1.05234 0
M  V30 19819 H 1901.84 0.618526 4.16836 0
M  V30 19820 H 1900.56 -0.22742 3.25807 0
M  V30 19821 H 1899.22 1.9015 3.13431 0
M  V30 19822 H 1898.87 0.298159 5.02116 0
M  V30 19823 H 1898.57 1.9779 5.53311 0
M  V30 19824 H 1900.09 1.16703 5.99344 0
M  V30 19825 H 1901.5 3.10967 4.81635 0
M  V30 19826 H 1899.9 3.86738 4.58862 0
M  V30 19827 H 1900.97 3.65034 3.19183 0
M  V30 19828 N 1902.31 -1.14411 1.08387 0
M  V30 19829 C 1903.22 -2.23103 0.725418 0
M  V30 19830 C 1904.24 -1.71924 -0.26799 0
M  V30 19831 O 1905.42 -2.01088 -0.111986 0
M  V30 19832 C 1902.48 -3.46418 0.139915 0
M  V30 19833 C 1901.54 -4.12537 1.18791 0
M  V30 19834 C 1900.78 -5.29966 0.630252 0
M  V30 19835 O 1901 -5.67739 -0.550335 0
M  V30 19836 O 1899.93 -5.85862 1.38021 0
M  V30 19837 H 1903.76 -2.56116 1.63213 0
M  V30 19838 H 1901.34 -1.22338 0.857538 0
M  V30 19839 H 1903.23 -4.20999 -0.18381 0
M  V30 19840 H 1901.9 -3.15129 -0.739957 0
M  V30 19841 H 1900.81 -3.39831 1.56416 0
M  V30 19842 H 1902.14 -4.47932 2.04005 0
M  V30 19843 N 1903.79 -0.869509 -1.31443 0
M  V30 19844 C 1905.04 -0.480925 -1.97015 0
M  V30 19845 C 1905.37 0.964227 -1.68571 0
M  V30 19846 O 1904.65 1.67893 -0.981953 0
M  V30 19847 C 1904.93 -0.738064 -3.52455 0
M  V30 19848 C 1904.78 -2.23272 -3.90474 0
M  V30 19849 C 1906.1 -0.204237 -4.39626 0
M  V30 19850 H 1903.22 -0.176206 -0.715626 0
M  V30 19851 H 1905.86 -1.09066 -1.55578 0
M  V30 19852 H 1904.01 -0.21909 -3.87882 0
M  V30 19853 H 1905.68 -2.81891 -3.65151 0
M  V30 19854 H 1903.93 -2.70546 -3.39098 0
M  V30 19855 H 1904.6 -2.36328 -4.98852 0
M  V30 19856 H 1907.07 -0.648228 -4.1102 0
M  V30 19857 H 1905.95 -0.413608 -5.47339 0
M  V30 19858 H 1906.21 0.893807 -4.32971 0
M  V30 19859 N 1905.27 1.44508 -0.628902 0
M  V30 19860 C 1906.52 2.01667 -0.13224 0
M  V30 19861 C 1906.84 1.49706 1.24953 0
M  V30 19862 O 1906.11 0.699769 1.82976 0
M  V30 19863 H 1904.69 0.745589 -0.0458966 0
M  V30 19864 H 1907.35 1.77037 -0.815102 0
M  V30 19865 H 1906.45 3.11945 -0.0982328 0
M  V30 19866 N 1906.75 0.369315 1.53212 0
M  V30 19867 C 1907.7 -0.491919 2.2263 0
M  V30 19868 C 1908.68 -1.0457 1.22286 0
M  V30 19869 O 1909.88 -0.975125 1.47717 0
M  V30 19870 C 1907 -1.62916 3.02181 0
M  V30 19871 C 1906.09 -1.08808 4.09904 0
M  V30 19872 N 1906.48 -0.270291 5.05077 0
M  V30 19873 C 1904.78 -1.36253 4.24678 0
M  V30 19874 C 1905.48 0.0263875 5.81694 0
M  V30 19875 N 1904.46 -0.572239 5.4058 0
M  V30 19876 H 1908.26 0.139657 2.93568 0
M  V30 19877 H 1905.77 0.177531 1.61427 0
M  V30 19878 H 1907.77 -2.25837 3.50433 0
M  V30 19879 H 1906.43 -2.26376 2.32774 0
M  V30 19880 H 1907.44 0.0908158 5.1782 0
M  V30 19881 H 1904.12 -1.99964 3.66498 0
M  V30 19882 H 1905.51 0.687735 6.68371 0
M  V30 19883 N 1908.23 -1.57291 0.0985816 0
M  V30 19884 C 1909.64 -1.81681 -0.430009 0
M  V30 19885 C 1909.99 -1.01443 -1.6794 0
M  V30 19886 O 1909.11 -0.244848 -2.1501 0
M  V30 19887 C 1909.71 -3.29535 -0.786919 0
M  V30 19888 C 1908.27 -3.54676 -1.26024 0
M  V30 19889 C 1907.42 -2.76091 -0.258642 0
M  V30 19890 H 1910.37 -1.55358 0.323982 0
M  V30 19891 H 1910.39 -3.43048 -1.64616 0
M  V30 19892 H 1909.9 -3.87906 0.122591 0
M  V30 19893 H 1908 -3.01639 -2.18734 0
M  V30 19894 H 1908.11 -4.63315 -1.21967 0
M  V30 19895 H 1906.48 -2.43667 -0.741507 0
M  V30 19896 H 1907.26 -3.37213 0.643607 0
M  V30 19897 N 1909.71 0.175127 -1.56624 0
M  V30 19898 C 1910.98 0.919424 -1.72644 0
M  V30 19899 C 1911.36 2.00553 -0.658929 0
M  V30 19900 O 1910.71 2.2615 0.326897 0
M  V30 19901 C 1910.92 1.48764 -3.15706 0
M  V30 19902 C 1912.27 1.96204 -3.76549 0
M  V30 19903 O 1913.29 1.58565 -3.1896 0
M  V30 19904 O 1912.15 2.65525 -4.7766 0
M  V30 19905 H 1909.25 0.43251 -0.704886 0
M  V30 19906 H 1911.79 0.163255 -1.68913 0
M  V30 19907 H 1910.56 0.705743 -3.84883 0
M  V30 19908 H 1910.19 2.3081 -3.23748 0
M  V30 19909 N 1911.18 1.5123 0.44355 0
M  V30 19910 C 1912.43 1.6359 1.1935 0
M  V30 19911 C 1912.76 0.349172 1.9134 0
M  V30 19912 O 1912.01 -0.66645 1.84003 0
M  V30 19913 C 1912.31 2.78511 2.23978 0
M  V30 19914 C 1911.98 4.18013 1.69045 0
M  V30 19915 C 1910.64 4.55964 1.53786 0
M  V30 19916 C 1912.99 5.05088 1.28591 0
M  V30 19917 C 1910.32 5.78703 0.965374 0
M  V30 19918 C 1912.67 6.284 0.72774 0
M  V30 19919 C 1911.34 6.6513 0.562001 0
M  V30 19920 H 1910.61 0.59862 0.436733 0
M  V30 19921 H 1913.25 1.85245 0.485449 0
M  V30 19922 H 1911.56 2.51054 3.00798 0
M  V30 19923 H 1913.26 2.85275 2.81814 0
M  V30 19924 H 1909.85 3.88087 1.81896 0
M  V30 19925 H 1914.03 4.76378 1.39202 0
M  V30 19926 H 1909.29 6.05813 0.824671 0
M  V30 19927 H 1913.46 6.95217 0.405735 0
M  V30 19928 H 1911.09 7.60111 0.116266 0
M  V30 19929 N 1912.66 -0.698586 1.41271 0
M  V30 19930 C 1914.08 -1.0088 1.23674 0
M  V30 19931 C 1914.28 -2.01118 0.123961 0
M  V30 19932 O 1913.33 -2.47242 -0.512628 0
M  V30 19933 C 1914.65 -1.53629 2.58493 0
M  V30 19934 C 1916.19 -1.65528 2.65649 0
M  V30 19935 C 1916.67 -2.21679 4.00777 0
M  V30 19936 N 1918.16 -2.29044 4.02608 0
M  V30 19937 C 1918.9 -2.73512 5.03963 0
M  V30 19938 N 1918.39 -3.17607 6.15709 0
M  V30 19939 N 1920.18 -2.73049 4.91326 0
M  V30 19940 H 1912.34 -0.0344888 2.12372 0
M  V30 19941 H 1914.6 -0.0778742 0.944796 0
M  V30 19942 H 1914.3 -0.874339 3.40658 0
M  V30 19943 H 1914.18 -2.51891 2.80768 0
M  V30 19944 H 1916.57 -2.30836 1.83844 0
M  V30 19945 H 1916.65 -0.658201 2.47187 0
M  V30 19946 H 1916.29 -1.56988 4.83029 0
M  V30 19947 H 1916.22 -3.22134 4.16578 0
M  V30 19948 H 1918.71 -1.97922 3.21924 0
M  V30 19949 H 1919.02 -3.50155 6.88921 0
M  V30 19950 H 1917.37 -3.15523 6.1925 0
M  V30 19951 H 1920.56 -2.37947 4.03112 0
M  V30 19952 H 1920.73 -3.07386 5.70454 0
M  V30 19953 N 1914.14 -1.27049 -0.93254 0
M  V30 19954 C 1915.09 -1.09356 -2.03249 0
M  V30 19955 C 1916.06 0.00396271 -1.661 0
M  V30 19956 O 1917.24 -0.157449 -1.90149 0
M  V30 19957 C 1914.38 -0.741704 -3.37035 0
M  V30 19958 C 1913.49 -1.91636 -3.87169 0
M  V30 19959 C 1912.63 -1.50683 -5.0938 0
M  V30 19960 C 1911.67 -2.64927 -5.51797 0
M  V30 19961 N 1910.81 -2.24595 -6.65208 0
M  V30 19962 H 1915.65 -2.0348 -2.17715 0
M  V30 19963 H 1913.18 -1.01299 -1.06662 0
M  V30 19964 H 1915.14 -0.518546 -4.13965 0
M  V30 19965 H 1913.77 0.162576 -3.2239 0
M  V30 19966 H 1912.82 -2.2522 -3.06562 0
M  V30 19967 H 1914.13 -2.77353 -4.1458 0
M  V30 19968 H 1913.29 -1.24463 -5.93796 0
M  V30 19969 H 1912.03 -0.620687 -4.83734 0
M  V30 19970 H 1911.03 -2.91866 -4.65933 0
M  V30 19971 H 1912.26 -3.54154 -5.79441 0
M  V30 19972 H 1910.2 -1.38427 -6.41229 0
M  V30 19973 H 1910.12 -3.03853 -6.9225 0
M  V30 19974 H 1911.39 -2.0161 -7.52977 0
M  V30 19975 N 1915.62 1.13835 -1.08993 0
M  V30 19976 C 1916.89 1.81232 -0.735809 0
M  V30 19977 C 1917.27 1.96172 0.779737 0
M  V30 19978 O 1916.62 1.52629 1.70049 0
M  V30 19979 C 1916.83 3.16546 -1.46968 0
M  V30 19980 C 1918.18 3.91958 -1.6326 0
M  V30 19981 O 1919.2 3.26155 -1.43183 0
M  V30 19982 O 1918.06 5.09976 -1.96435 0
M  V30 19983 H 1915.16 0.783794 -0.26381 0
M  V30 19984 H 1917.7 1.20801 -1.19186 0
M  V30 19985 H 1916.48 3.00872 -2.50183 0
M  V30 19986 H 1916.1 3.84676 -1.00551 0
M  V30 19987 N 1917.1 0.876467 1.3098 0
M  V30 19988 C 1918.34 0.49064 1.96466 0
M  V30 19989 C 1918.67 -0.958443 1.69246 0
M  V30 19990 O 1917.93 -1.69096 0.985144 0
M  V30 19991 C 1918.22 0.70208 3.50436 0
M  V30 19992 C 1917.89 2.12494 3.9769 0
M  V30 19993 C 1916.55 2.51405 4.10303 0
M  V30 19994 C 1918.9 3.0526 4.22452 0
M  V30 19995 C 1916.23 3.82309 4.45035 0
M  V30 19996 C 1918.58 4.35686 4.5865 0
M  V30 19997 C 1917.25 4.74502 4.69472 0
M  V30 19998 H 1916.52 0.179538 0.718921 0
M  V30 19999 H 1919.17 1.1107 1.55999 0
M  V30 20000 H 1917.47 -0.00106996 3.918 0
M  V30 20001 H 1919.17 0.383279 3.99164 0
M  V30 20002 H 1915.76 1.81287 3.88372 0
M  V30 20003 H 1919.94 2.76422 4.12195 0
M  V30 20004 H 1915.2 4.12136 4.51612 0
M  V30 20005 H 1919.37 5.07612 4.76763 0
M  V30 20006 H 1917 5.75976 4.9614 0
M  V30 20007 N 1918.57 -1.44173 0.636557 0
M  V30 20008 C 1919.52 -2.27834 -0.087113 0
M  V30 20009 C 1920.51 -1.3897 -0.810926 0
M  V30 20010 O 1921.7 -1.62736 -0.696139 0
M  V30 20011 C 1918.83 -3.26385 -1.06431 0
M  V30 20012 C 1917.91 -4.22736 -0.339835 0
M  V30 20013 N 1918.31 -5.01804 0.634535 0
M  V30 20014 C 1916.6 -4.42166 -0.583549 0
M  V30 20015 C 1917.3 -5.71904 1.06306 0
M  V30 20016 N 1916.28 -5.42121 0.400722 0
M  V30 20017 H 1920.08 -2.86375 0.660817 0
M  V30 20018 H 1917.6 -1.55675 0.462493 0
M  V30 20019 H 1919.59 -3.85083 -1.5974 0
M  V30 20020 H 1918.25 -2.69405 -1.81248 0
M  V30 20021 H 1919.26 -5.07905 1.01258 0
M  V30 20022 H 1915.94 -3.96277 -1.31417 0
M  V30 20023 H 1917.33 -6.45401 1.86835 0
M  V30 20024 N 1920.05 -0.377435 -1.53014 0
M  V30 20025 C 1921.3 0.208118 -2.01026 0
M  V30 20026 C 1921.62 1.48307 -1.26609 0
M  V30 20027 O 1920.89 1.92125 -0.382732 0
M  V30 20028 H 1919.47 0.0798957 -0.742715 0
M  V30 20029 H 1922.13 -0.506396 -1.88206 0
M  V30 20030 H 1921.23 0.426737 -3.09169 0
M  V30 20031 N 1921.53 1.57237 -0.106922 0
M  V30 20032 C 1922.44 2.18202 0.861685 0
M  V30 20033 C 1923.46 1.15476 1.30159 0
M  V30 20034 O 1924.63 1.47896 1.36707 0
M  V30 20035 C 1921.7 2.7598 2.09847 0
M  V30 20036 C 1920.76 3.93702 1.71164 0
M  V30 20037 C 1919.99 4.48716 2.88946 0
M  V30 20038 O 1920.21 4.02645 4.04021 0
M  V30 20039 O 1919.15 5.39573 2.66729 0
M  V30 20040 H 1922.97 3.01402 0.372924 0
M  V30 20041 H 1920.56 1.48933 0.118058 0
M  V30 20042 H 1922.44 3.12861 2.82305 0
M  V30 20043 H 1921.12 1.9582 2.57753 0
M  V30 20044 H 1920.02 3.61613 0.958499 0
M  V30 20045 H 1921.36 4.75262 1.28011 0
M  V30 20046 N 1923.01 -0.166818 1.56715 0
M  V30 20047 C 1923.94 -1.2086 1.99787 0
M  V30 20048 C 1924.92 -1.45918 0.874178 0
M  V30 20049 O 1926.1 -1.57176 1.14058 0
M  V30 20050 C 1923.23 -2.54648 2.3616 0
M  V30 20051 C 1922.19 -2.44151 3.51532 0
M  V30 20052 C 1921.51 -3.82469 3.7366 0
M  V30 20053 C 1922.81 -1.9424 4.84838 0
M  V30 20054 H 1924.51 -0.850538 2.87065 0
M  V30 20055 H 1922.05 -0.407696 1.38108 0
M  V30 20056 H 1924.01 -3.27736 2.64891 0
M  V30 20057 H 1922.73 -2.92251 1.45797 0
M  V30 20058 H 1921.39 -1.73516 3.22936 0
M  V30 20059 H 1921.04 -4.17473 2.8058 0
M  V30 20060 H 1920.74 -3.76312 4.5129 0
M  V30 20061 H 1922.26 -4.57136 4.04796 0
M  V30 20062 H 1923.68 -2.57105 5.12416 0
M  V30 20063 H 1922.07 -1.99021 5.66137 0
M  V30 20064 H 1923.14 -0.89695 4.76532 0
M  V30 20065 N 1924.49 -1.51463 -0.435524 0
M  V30 20066 C 1925.45 -1.72315 -1.51129 0
M  V30 20067 C 1926.45 -0.593161 -1.4946 0
M  V30 20068 O 1927.64 -0.860731 -1.5145 0
M  V30 20069 C 1924.77 -1.78127 -2.9066 0
M  V30 20070 H 1925.96 -2.68327 -1.33943 0
M  V30 20071 H 1923.52 -1.4148 -0.664317 0
M  V30 20072 H 1924.25 -0.839367 -3.13249 0
M  V30 20073 H 1924.04 -2.60252 -2.93277 0
M  V30 20074 H 1925.53 -1.96093 -3.68697 0
M  V30 20075 N 1925.96 0.691085 -1.4164 0
M  V30 20076 C 1926.89 1.8173 -1.46616 0
M  V30 20077 C 1927.88 1.66979 -0.324357 0
M  V30 20078 O 1929.06 1.86644 -0.536424 0
M  V30 20079 C 1926.19 3.19903 -1.35201 0
M  V30 20080 C 1925.14 3.49366 -2.47239 0
M  V30 20081 C 1924.47 4.86942 -2.20887 0
M  V30 20082 C 1925.77 3.47891 -3.89575 0
M  V30 20083 H 1927.46 1.77823 -2.40872 0
M  V30 20084 H 1925.01 0.8541 -1.15936 0
M  V30 20085 H 1926.96 3.98407 -1.37293 0
M  V30 20086 H 1925.69 3.24448 -0.374312 0
M  V30 20087 H 1924.35 2.73215 -2.44436 0
M  V30 20088 H 1923.99 4.88118 -1.2145 0
M  V30 20089 H 1923.69 5.0762 -2.95966 0
M  V30 20090 H 1925.22 5.67751 -2.24703 0
M  V30 20091 H 1926.63 4.16392 -3.94069 0
M  V30 20092 H 1925.03 3.80101 -4.64374 0
M  V30 20093 H 1926.1 2.46778 -4.17407 0
M  V30 20094 N 1927.44 1.27542 0.925789 0
M  V30 20095 C 1928.39 1.07085 2.01288 0
M  V30 20096 C 1929.38 -0.0017417 1.609 0
M  V30 20097 O 1930.57 0.217017 1.75665 0
M  V30 20098 C 1927.7 0.72208 3.3562 0
M  V30 20099 C 1926.78 1.83291 3.82446 0
M  V30 20100 N 1927.17 3.07277 4.01764 0
M  V30 20101 C 1925.47 1.72002 4.11499 0
M  V30 20102 C 1926.17 3.79576 4.40791 0
M  V30 20103 N 1925.15 3.07351 4.48371 0
M  V30 20104 H 1928.95 2.01175 2.14257 0
M  V30 20105 H 1926.47 1.18285 1.11277 0
M  V30 20106 H 1928.46 0.556635 4.13167 0
M  V30 20107 H 1927.12 -0.211174 3.24013 0
M  V30 20108 H 1928.13 3.43018 3.88019 0
M  V30 20109 H 1924.81 0.857729 4.08594 0
M  V30 20110 H 1926.2 4.86147 4.63801 0
M  V30 20111 N 1928.92 -1.13255 1.09595 0
M  V30 20112 C 1930.15 -1.88952 0.855104 0
M  V30 20113 C 1930.57 -1.78668 -0.588174 0
M  V30 20114 O 1929.93 -1.13544 -1.41341 0
M  V30 20115 C 1929.98 -3.36461 1.29717 0
M  V30 20116 O 1929.08 -4.09863 0.456717 0
M  V30 20117 H 1928.42 -0.587432 0.309547 0
M  V30 20118 H 1930.95 -1.43282 1.46053 0
M  V30 20119 H 1930.96 -3.87291 1.28333 0
M  V30 20120 H 1929.64 -3.43263 2.34826 0
M  V30 20121 H 1928.21 -3.69042 0.535026 0
M  V30 20122 N 1930.4 -0.883401 -1.30514 0
M  V30 20123 C 1931.33 -0.36516 -2.30627 0
M  V30 20124 C 1932.31 0.551149 -1.60923 0
M  V30 20125 O 1933.49 0.465333 -1.88543 0
M  V30 20126 C 1930.62 0.422552 -3.4472 0
M  V30 20127 C 1929.58 -0.401856 -4.26109 0
M  V30 20128 C 1928.9 0.512363 -5.3224 0
M  V30 20129 C 1930.2 -1.64313 -4.95781 0
M  V30 20130 H 1931.9 -1.20175 -2.74223 0
M  V30 20131 H 1929.44 -0.579315 -1.31833 0
M  V30 20132 H 1931.4 0.795726 -4.13819 0
M  V30 20133 H 1930.12 1.29278 -2.99925 0
M  V30 20134 H 1928.78 -0.75715 -3.58696 0
M  V30 20135 H 1928.43 1.38025 -4.83692 0
M  V30 20136 H 1928.13 -0.0354331 -5.87589 0
M  V30 20137 H 1929.65 0.882088 -6.04195 0
M  V30 20138 H 1931.07 -1.34063 -5.57405 0
M  V30 20139 H 1929.46 -2.13101 -5.60989 0
M  V30 20140 H 1930.53 -2.38843 -4.21998 0
M  V30 20141 N 1931.88 1.43833 -0.644194 0
M  V30 20142 C 1932.84 2.29159 0.0433471 0
M  V30 20143 C 1933.84 1.41734 0.75948 0
M  V30 20144 O 1935.03 1.63464 0.602093 0
M  V30 20145 C 1932.16 3.23604 1.07208 0
M  V30 20146 H 1933.35 2.9144 -0.707295 0
M  V30 20147 H 1930.91 1.50963 -0.404968 0
M  V30 20148 H 1931.64 2.66199 1.85226 0
M  V30 20149 H 1931.43 3.88047 0.562339 0
M  V30 20150 H 1932.92 3.87669 1.55251 0
M  V30 20151 N 1933.35 0.385544 1.52811 0
M  V30 20152 C 1934.26 -0.45885 2.30069 0
M  V30 20153 C 1935.28 -1.07486 1.36831 0
M  V30 20154 O 1936.46 -1.08148 1.699 0
M  V30 20155 C 1933.52 -1.57281 3.08972 0
M  V30 20156 C 1932.58 -0.98229 4.17911 0
M  V30 20157 C 1931.82 -2.04316 4.93042 0
M  V30 20158 O 1932.04 -3.25761 4.68226 0
M  V30 20159 O 1930.97 -1.66256 5.78483 0
M  V30 20160 H 1934.8 0.170416 3.03221 0
M  V30 20161 H 1932.38 0.149363 1.48651 0
M  V30 20162 H 1934.27 -2.22003 3.5818 0
M  V30 20163 H 1932.94 -2.18711 2.38637 0
M  V30 20164 H 1931.85 -0.298428 3.72908 0
M  V30 20165 H 1933.18 -0.412261 4.9047 0
M  V30 20166 N 1934.83 -1.57178 0.115259 0
M  V30 20167 C 1936.06 -1.99842 -0.554802 0
M  V30 20168 C 1936.48 -0.994368 -1.59668 0
M  V30 20169 O 1935.84 0.0344531 -1.81267 0
M  V30 20170 C 1935.89 -3.41399 -1.16099 0
M  V30 20171 O 1934.99 -3.43868 -2.27659 0
M  V30 20172 H 1934.33 -0.649301 -0.138937 0
M  V30 20173 H 1936.86 -2.03594 0.202629 0
M  V30 20174 H 1936.87 -3.79527 -1.49743 0
M  V30 20175 H 1935.55 -4.13993 -0.397827 0
M  V30 20176 H 1934.13 -3.17555 -1.95482 0
M  V30 20177 N 1936.31 0.158505 -1.56801 0
M  V30 20178 C 1937.59 0.901061 -1.73609 0
M  V30 20179 C 1937.97 1.99842 -0.680163 0
M  V30 20180 O 1937.32 2.26484 0.302892 0
M  V30 20181 C 1937.53 1.45407 -3.17266 0
M  V30 20182 C 1938.87 1.92199 -3.78609 0
M  V30 20183 O 1939.9 1.55173 -3.20624 0
M  V30 20184 O 1938.76 2.60443 -4.80449 0
M  V30 20185 H 1935.85 0.425009 -0.709434 0
M  V30 20186 H 1938.4 0.14533 -1.69077 0
M  V30 20187 H 1937.17 0.664882 -3.8561 0
M  V30 20188 H 1936.79 2.27363 -3.26178 0
M  V30 20189 N 1937.79 1.51692 0.427485 0
M  V30 20190 C 1939.04 1.64521 1.17376 0
M  V30 20191 C 1939.36 0.368482 1.91487 0
M  V30 20192 O 1938.63 -0.616035 1.85962 0
M  V30 20193 H 1937.21 0.606362 0.436273 0
M  V30 20194 H 1939.87 1.88662 0.489152 0
M  V30 20195 H 1938.97 2.47759 1.89794 0
M  V30 20196 N 1939.27 -0.683564 1.42004 0
M  V30 20197 C 1940.18 -1.82689 1.4718 0
M  V30 20198 C 1941.19 -1.70208 0.361298 0
M  V30 20199 O 1942.37 -1.91912 0.610867 0
M  V30 20200 C 1939.43 -3.18767 1.3634 0
M  V30 20201 C 1938.5 -3.43269 2.57808 0
M  V30 20202 C 1937.73 -4.72855 2.47476 0
M  V30 20203 O 1937.95 -5.50164 1.50584 0
M  V30 20204 O 1936.89 -4.98407 3.37452 0
M  V30 20205 H 1940.71 -1.81279 2.43663 0
M  V30 20206 H 1938.3 -0.838182 1.23672 0
M  V30 20207 H 1940.18 -3.99986 1.32624 0
M  V30 20208 H 1938.85 -3.20834 0.429781 0
M  V30 20209 H 1937.76 -2.61933 2.67099 0
M  V30 20210 H 1939.09 -3.46025 3.50039 0
M  V30 20211 N 1940.75 -1.28031 -0.919012 0
M  V30 20212 C 1941.97 -1.17714 -1.7015 0
M  V30 20213 C 1942.39 0.264914 -1.86932 0
M  V30 20214 O 1941.75 1.17957 -1.39256 0
M  V30 20215 C 1941.8 -1.86548 -3.09648 0
M  V30 20216 O 1941.52 -3.25121 -2.93646 0
M  V30 20217 C 1943.02 -1.82467 -4.04006 0
M  V30 20218 H 1940.24 -0.408863 -0.532045 0
M  V30 20219 H 1942.78 -1.69061 -1.1506 0
M  V30 20220 H 1940.94 -1.39085 -3.61572 0
M  V30 20221 H 1941.35 -3.59518 -3.81899 0
M  V30 20222 H 1942.83 -2.35229 -4.99371 0
M  V30 20223 H 1943.3 -0.795892 -4.31928 0
M  V30 20224 H 1943.91 -2.29585 -3.5801 0
M  V30 20225 N 1942.22 1.12672 -1.10194 0
M  V30 20226 C 1943.63 1.65664 -0.860944 0
M  V30 20227 C 1943.99 1.86502 0.609208 0
M  V30 20228 O 1943.11 1.58967 1.46828 0
M  V30 20229 C 1943.71 3.00939 -1.55632 0
M  V30 20230 C 1942.26 3.5089 -1.36209 0
M  V30 20231 C 1941.41 2.25966 -1.60732 0
M  V30 20232 H 1944.36 0.964871 -1.26 0
M  V30 20233 H 1944.38 3.6729 -0.99391 0
M  V30 20234 H 1943.9 2.85741 -2.62629 0
M  V30 20235 H 1942 3.71278 -0.313645 0
M  V30 20236 H 1942.11 4.30509 -2.10235 0
M  V30 20237 H 1940.47 2.32949 -1.0299 0
M  V30 20238 H 1941.26 2.13324 -2.68975 0
M  V30 20239 N 1943.7 0.89031 1.30043 0
M  V30 20240 C 1945.11 0.561241 1.78065 0
M  V30 20241 C 1945.46 -0.922791 1.73144 0
M  V30 20242 O 1944.59 -1.72124 1.31157 0
M  V30 20243 C 1945.18 1.01201 3.23332 0
M  V30 20244 C 1943.74 0.734261 3.69169 0
M  V30 20245 C 1942.89 1.19199 2.50373 0
M  V30 20246 H 1945.84 1.074 1.16838 0
M  V30 20247 H 1945.86 0.343251 3.78949 0
M  V30 20248 H 1945.37 2.09213 3.26881 0
M  V30 20249 H 1943.47 -0.33365 3.71103 0
M  V30 20250 H 1943.59 1.32556 4.60397 0
M  V30 20251 H 1941.95 0.6112 2.47258 0
M  V30 20252 H 1942.73 2.27997 2.56656 0
M  V30 20253 N 1945.18 -1.43489 0.651812 0
M  V30 20254 C 1946.43 -2.02129 0.164876 0
M  V30 20255 C 1946.76 -1.51296 -1.2175 0
M  V30 20256 O 1946.03 -0.705492 -1.81254 0
M  V30 20257 C 1946.32 -3.59678 0.174184 0
M  V30 20258 C 1946.17 -4.20746 1.59038 0
M  V30 20259 C 1947.49 -4.37362 -0.490177 0
M  V30 20260 H 1944.61 -0.734439 0.0613871 0
M  V30 20261 H 1947.25 -1.70804 0.832229 0
M  V30 20262 H 1945.4 -3.86496 -0.394077 0
M  V30 20263 H 1947.07 -4.04964 2.20912 0
M  V30 20264 H 1945.31 -3.7745 2.13809 0
M  V30 20265 H 1945.99 -5.29828 1.54876 0
M  V30 20266 H 1948.46 -4.16099 -0.00670015 0
M  V30 20267 H 1947.34 -5.47028 -0.452932 0
M  V30 20268 H 1947.6 -4.13509 -1.56406 0
M  V30 20269 N 1946.66 -0.393643 -1.52605 0
M  V30 20270 C 1947.57 0.446642 -2.30309 0
M  V30 20271 C 1948.58 1.06758 -1.374 0
M  V30 20272 O 1949.76 1.07246 -1.70471 0
M  V30 20273 C 1946.82 1.5564 -3.09802 0
M  V30 20274 C 1945.89 0.960113 -4.18426 0
M  V30 20275 C 1945.12 2.01698 -4.94119 0
M  V30 20276 O 1945.34 3.23273 -4.69947 0
M  V30 20277 O 1944.28 1.63186 -5.79357 0
M  V30 20278 H 1948.1 -0.186494 -3.03127 0
M  V30 20279 H 1945.69 -0.157245 -1.4857 0
M  V30 20280 H 1947.57 2.201 -3.59352 0
M  V30 20281 H 1946.24 2.17442 -2.39793 0
M  V30 20282 H 1945.15 0.278648 -3.73061 0
M  V30 20283 H 1946.48 0.386245 -4.90682 0
M  V30 20284 N 1948.14 1.57115 -0.123593 0
M  V30 20285 C 1949.38 1.94966 0.532239 0
M  V30 20286 C 1949.7 1.00808 1.66922 0
M  V30 20287 O 1948.97 0.0652202 1.95791 0
M  V30 20288 H 1947.55 0.719838 0.199607 0
M  V30 20289 H 1950.22 1.93936 -0.19361 0
M  V30 20290 H 1949.31 2.98115 0.923802 0
M  V30 20291 N 1949.61 -0.150187 1.56883 0
M  V30 20292 C 1950.54 -1.18735 2.01058 0
M  V30 20293 C 1951.52 -1.44983 0.889606 0
M  V30 20294 O 1952.71 -1.55958 1.15719 0
M  V30 20295 C 1949.84 -2.52129 2.38848 0
M  V30 20296 C 1948.79 -2.40408 3.54101 0
M  V30 20297 C 1948.12 -3.78484 3.77695 0
M  V30 20298 C 1949.42 -1.89087 4.86871 0
M  V30 20299 H 1951.11 -0.820044 2.87951 0
M  V30 20300 H 1948.66 -0.393025 1.38533 0
M  V30 20301 H 1950.61 -3.24908 2.68352 0
M  V30 20302 H 1949.34 -2.90688 1.48889 0
M  V30 20303 H 1948 -1.70082 3.24758 0
M  V30 20304 H 1947.64 -4.14474 2.84992 0
M  V30 20305 H 1947.34 -3.71504 4.55256 0
M  V30 20306 H 1948.87 -4.52816 4.09621 0
M  V30 20307 H 1950.28 -2.51656 5.15114 0
M  V30 20308 H 1948.68 -1.93005 5.68216 0
M  V30 20309 H 1949.75 -0.846357 4.77457 0
M  V30 20310 N 1951.09 -1.51916 -0.419434 0
M  V30 20311 C 1952.34 -1.65142 -1.16502 0
M  V30 20312 C 1952.66 -0.378632 -1.91289 0
M  V30 20313 O 1951.93 0.606164 -1.86286 0
M  V30 20314 H 1950.51 -0.608667 -0.433051 0
M  V30 20315 H 1953.17 -1.88919 -0.47914 0
M  V30 20316 H 1952.27 -2.48762 -1.88477 0
M  V30 20317 N 1952.57 0.676023 -1.42365 0
M  V30 20318 C 1953.53 1.77138 -1.45446 0
M  V30 20319 C 1954.53 1.57116 -0.342226 0
M  V30 20320 O 1955.72 1.63431 -0.602999 0
M  V30 20321 C 1952.86 3.15757 -1.28492 0
M  V30 20322 H 1954.05 1.75794 -2.42974 0
M  V30 20323 H 1951.6 0.885538 -1.28794 0
M  V30 20324 H 1952.34 3.22729 -0.318815 0
M  V30 20325 H 1952.12 3.31694 -2.09097 0
M  V30 20326 H 1953.61 3.95677 -1.33528 0
M  V30 20327 N 1954.05 1.28517 0.912209 0
M  V30 20328 C 1955.46 1.14251 1.4766 0
M  V30 20329 C 1955.81 -0.266935 1.94376 0
M  V30 20330 O 1954.94 -1.16134 1.82598 0
M  V30 20331 C 1955.53 2.06792 2.6837 0
M  V30 20332 C 1954.09 1.96587 3.20984 0
M  V30 20333 C 1953.24 1.98444 1.93689 0
M  V30 20334 H 1956.19 1.41184 0.724769 0
M  V30 20335 H 1956.21 1.63282 3.43685 0
M  V30 20336 H 1955.72 3.09365 2.34339 0
M  V30 20337 H 1953.82 0.970565 3.59737 0
M  V30 20338 H 1953.93 2.83622 3.86129 0
M  V30 20339 H 1952.3 1.42872 2.10855 0
M  V30 20340 H 1953.08 3.02699 1.61951 0
M  V30 20341 N 1955.53 -1.12086 1.1079 0
M  V30 20342 C 1956.94 -1.35679 0.840432 0
M  V30 20343 C 1957.14 -1.94177 -0.538279 0
M  V30 20344 O 1956.2 -2.17035 -1.29043 0
M  V30 20345 C 1957.51 -2.29487 1.94309 0
M  V30 20346 C 1959.06 -2.43069 1.97197 0
M  V30 20347 C 1959.53 -3.40194 3.06646 0
M  V30 20348 N 1961.03 -3.47753 3.05977 0
M  V30 20349 C 1961.76 -4.22826 3.87305 0
M  V30 20350 N 1961.26 -5.00933 4.78579 0
M  V30 20351 N 1963.05 -4.1827 3.75509 0
M  V30 20352 H 1955.2 -0.724754 1.99652 0
M  V30 20353 H 1957.46 -0.381544 0.86783 0
M  V30 20354 H 1957.17 -1.93685 2.93563 0
M  V30 20355 H 1957.04 -3.29644 1.83343 0
M  V30 20356 H 1959.43 -2.7815 0.985735 0
M  V30 20357 H 1959.51 -1.42788 2.12239 0
M  V30 20358 H 1959.16 -3.05842 4.05491 0
M  V30 20359 H 1959.09 -4.40314 2.88845 0
M  V30 20360 H 1961.58 -2.92035 2.39841 0
M  V30 20361 H 1961.89 -5.55565 5.37185 0
M  V30 20362 H 1960.23 -5.00117 4.82605 0
M  V30 20363 H 1963.43 -3.56334 3.03551 0
M  V30 20364 H 1963.6 -4.76521 4.39126 0
M  V30 20365 N 1957 -0.897194 -1.29569 0
M  V30 20366 C 1957.94 -0.330353 -2.26807 0
M  V30 20367 C 1958.95 0.521937 -1.54207 0
M  V30 20368 O 1960.14 0.339502 -1.75242 0
M  V30 20369 C 1957.24 0.547835 -3.34443 0
M  V30 20370 C 1956.41 -0.278159 -4.36515 0
M  V30 20371 C 1955.47 0.532461 -5.23499 0
M  V30 20372 O 1954.5 -0.0491596 -5.69179 0
M  V30 20373 N 1955.7 1.83908 -5.50598 0
M  V30 20374 H 1958.46 -1.16608 -2.76084 0
M  V30 20375 H 1956.02 -0.761424 -1.42877 0
M  V30 20376 H 1958.02 1.09647 -3.89563 0
M  V30 20377 H 1956.59 1.28425 -2.85001 0
M  V30 20378 H 1955.81 -1.00822 -3.81089 0
M  V30 20379 H 1957.09 -0.843929 -5.01752 0
M  V30 20380 H 1956.49 2.33437 -5.1529 0
M  V30 20381 H 1955.05 2.33489 -6.08544 0
M  V30 20382 N 1958.48 1.43142 -0.659413 0
M  V30 20383 C 1959.73 2.02038 -0.175593 0
M  V30 20384 C 1960.06 1.5194 1.20946 0
M  V30 20385 O 1959.34 0.715095 1.80877 0
M  V30 20386 C 1959.62 3.59581 -0.193256 0
M  V30 20387 C 1959.47 4.19896 -1.61267 0
M  V30 20388 C 1960.79 4.37616 0.466976 0
M  V30 20389 H 1957.91 0.734103 -0.0652811 0
M  V30 20390 H 1960.55 1.7036 -0.841276 0
M  V30 20391 H 1958.7 3.867 0.373574 0
M  V30 20392 H 1960.37 4.03786 -2.23056 0
M  V30 20393 H 1958.62 3.7631 -2.15807 0
M  V30 20394 H 1959.29 5.28999 -1.57683 0
M  V30 20395 H 1961.76 4.16097 -0.0153667 0
M  V30 20396 H 1960.64 5.47261 0.423915 0
M  V30 20397 H 1960.9 4.14332 1.54211 0
M  V30 20398 N 1959.96 0.40173 1.52394 0
M  V30 20399 C 1960.92 -0.41541 2.25404 0
M  V30 20400 C 1961.92 -0.979848 1.27498 0
M  V30 20401 O 1963.11 -0.859891 1.51498 0
M  V30 20402 C 1960.25 -1.58403 3.01863 0
M  V30 20403 H 1961.44 0.223965 2.99063 0
M  V30 20404 H 1958.99 0.154095 1.55539 0
M  V30 20405 H 1959.73 -2.26048 2.32536 0
M  V30 20406 H 1959.51 -1.18586 3.73737 0
M  V30 20407 H 1961 -2.16224 3.57263 0
M  V30 20408 N 1961.44 -1.57047 0.131923 0
M  V30 20409 C 1962.68 -1.95921 -0.5237 0
M  V30 20410 C 1963.02 -1.01606 -1.65499 0
M  V30 20411 O 1962.29 -0.0556233 -1.9442 0
M  V30 20412 C 1962.58 -3.44629 -1.04418 0
M  V30 20413 C 1962.43 -4.4972 0.084583 0
M  V30 20414 C 1963.75 -3.9548 -1.93089 0
M  V30 20415 H 1960.87 -0.712382 -0.188894 0
M  V30 20416 H 1963.51 -1.88835 0.2101 0
M  V30 20417 H 1961.66 -3.50799 -1.6695 0
M  V30 20418 H 1963.33 -4.5564 0.720384 0
M  V30 20419 H 1961.57 -4.27339 0.745906 0
M  V30 20420 H 1962.24 -5.51066 -0.321051 0
M  V30 20421 H 1964.72 -3.91695 -1.40408 0
M  V30 20422 H 1963.6 -5.00025 -2.2642 0
M  V30 20423 H 1963.86 -3.36939 -2.86224 0
M  V30 20424 N 1962.92 0.141865 -1.5696 0
M  V30 20425 C 1964.33 0.494676 -1.5174 0
M  V30 20426 C 1964.53 1.83101 -0.8412 0
M  V30 20427 O 1963.59 2.49085 -0.413886 0
M  V30 20428 C 1964.9 0.500247 -2.9651 0
M  V30 20429 C 1966.45 0.585404 -3.07477 0
M  V30 20430 C 1966.92 0.621588 -4.53762 0
M  V30 20431 N 1968.42 0.683668 -4.58127 0
M  V30 20432 C 1969.15 0.732734 -5.68699 0
M  V30 20433 N 1968.65 0.740833 -6.88828 0
M  V30 20434 N 1970.44 0.774006 -5.56745 0
M  V30 20435 H 1962.59 -0.734022 -1.99314 0
M  V30 20436 H 1964.85 -0.268231 -0.909261 0
M  V30 20437 H 1964.56 -0.413562 -3.4926 0
M  V30 20438 H 1964.43 1.33632 -3.52735 0
M  V30 20439 H 1966.82 1.48963 -2.54743 0
M  V30 20440 H 1966.9 -0.277919 -2.54286 0
M  V30 20441 H 1966.55 -0.278504 -5.07136 0
M  V30 20442 H 1966.48 1.50147 -5.04741 0
M  V30 20443 H 1968.97 0.6845 -3.71649 0
M  V30 20444 H 1969.28 0.780262 -7.68851 0
M  V30 20445 H 1967.62 0.708625 -6.91378 0
M  V30 20446 H 1970.82 0.764885 -4.61809 0
M  V30 20447 H 1970.99 0.808779 -6.42933 0
M  V30 20448 N 1964.39 1.52136 0.411372 0
M  V30 20449 C 1965.81 1.40889 0.749825 0
M  V30 20450 C 1966.01 0.511617 1.94897 0
M  V30 20451 O 1965.07 -0.0234451 2.52489 0
M  V30 20452 C 1966.38 2.83378 1.00586 0
M  V30 20453 C 1967.93 2.92706 1.10871 0
M  V30 20454 C 1968.4 4.36157 1.39752 0
M  V30 20455 N 1969.89 4.39382 1.46622 0
M  V30 20456 C 1970.63 5.47436 1.70591 0
M  V30 20457 N 1970.12 6.65612 1.92179 0
M  V30 20458 N 1971.92 5.34949 1.72587 0
M  V30 20459 H 1964.07 2.09009 -0.377998 0
M  V30 20460 H 1966.33 0.941963 -0.106819 0
M  V30 20461 H 1966.04 3.51147 0.197136 0
M  V30 20462 H 1965.91 3.24285 1.92663 0
M  V30 20463 H 1968.3 2.25118 1.90803 0
M  V30 20464 H 1968.38 2.55258 0.166361 0
M  V30 20465 H 1968.02 5.04303 0.603387 0
M  V30 20466 H 1967.95 4.71139 2.35236 0
M  V30 20467 H 1970.44 3.54194 1.31738 0
M  V30 20468 H 1970.76 7.43745 2.09912 0
M  V30 20469 H 1969.1 6.68681 1.89449 0
M  V30 20470 H 1972.29 4.41602 1.55258 0
M  V30 20471 H 1972.47 6.19234 1.90929 0
M  V30 20472 N 1965.87 -0.668464 1.42721 0
M  V30 20473 C 1966.8 -1.79375 1.49489 0
M  V30 20474 C 1967.78 -1.66442 0.350881 0
M  V30 20475 O 1968.97 -1.85767 0.566049 0
M  V30 20476 C 1966.1 -3.17712 1.40273 0
M  V30 20477 C 1965.05 -3.45389 2.52766 0
M  V30 20478 C 1964.38 -4.83367 2.28606 0
M  V30 20479 C 1965.68 -3.4165 3.95061 0
M  V30 20480 H 1967.37 -1.73968 2.43671 0
M  V30 20481 H 1964.92 -0.835548 1.1728 0
M  V30 20482 H 1966.87 -3.96173 1.43614 0
M  V30 20483 H 1965.6 -3.23811 0.425882 0
M  V30 20484 H 1964.26 -2.69292 2.48752 0
M  V30 20485 H 1963.9 -4.86124 1.292 0
M  V30 20486 H 1963.6 -5.02847 3.04005 0
M  V30 20487 H 1965.13 -5.64104 2.33707 0
M  V30 20488 H 1966.54 -4.1007 4.00644 0
M  V30 20489 H 1964.94 -3.72666 4.70362 0
M  V30 20490 H 1966.01 -2.40106 4.2128 0
M  V30 20491 N 1967.35 -1.28999 -0.905381 0
M  V30 20492 C 1968.6 -1.1641 -1.65207 0
M  V30 20493 C 1968.92 0.285952 -1.92892 0
M  V30 20494 O 1968.19 1.19672 -1.55098 0
M  V30 20495 H 1966.77 -0.427826 -0.612351 0
M  V30 20496 H 1969.43 -1.61845 -1.08592 0
M  V30 20497 H 1968.53 -1.70993 -2.6109 0
M  V30 20498 N 1968.83 1.11497 -1.11383 0
M  V30 20499 C 1970.25 1.35232 -0.847616 0
M  V30 20500 C 1970.45 1.9446 0.527973 0
M  V30 20501 O 1969.5 2.17716 1.2789 0
M  V30 20502 C 1970.81 2.28454 -1.95523 0
M  V30 20503 C 1972.36 2.4202 -1.98483 0
M  V30 20504 C 1972.84 3.38563 -3.08446 0
M  V30 20505 N 1974.33 3.46126 -3.07817 0
M  V30 20506 C 1975.06 4.20766 -3.89542 0
M  V30 20507 N 1974.56 4.98388 -4.81229 0
M  V30 20508 N 1976.35 4.16272 -3.77722 0
M  V30 20509 H 1968.5 0.714156 -2.00034 0
M  V30 20510 H 1970.77 0.376936 -0.869841 0
M  V30 20511 H 1970.47 1.92126 -2.94586 0
M  V30 20512 H 1970.35 3.28667 -1.85089 0
M  V30 20513 H 1972.73 2.77623 -1.00047 0
M  V30 20514 H 1972.81 1.4166 -2.12993 0
M  V30 20515 H 1972.46 3.03687 -4.07107 0
M  V30 20516 H 1972.39 4.38776 -2.91176 0
M  V30 20517 H 1974.88 2.90759 -2.41387 0
M  V30 20518 H 1975.19 5.52708 -5.40124 0
M  V30 20519 H 1973.54 4.97551 -4.85251 0
M  V30 20520 H 1976.73 3.54719 -3.05437 0
M  V30 20521 H 1976.9 4.74186 -4.41647 0
M  V30 20522 N 1970.31 0.904053 1.29092 0
M  V30 20523 C 1971.24 0.342376 2.26628 0
M  V30 20524 C 1972.25 -0.513752 1.54481 0
M  V30 20525 O 1973.44 -0.330204 1.75419 0
M  V30 20526 C 1970.54 -0.530091 3.34729 0
M  V30 20527 C 1969.71 0.301305 4.36361 0
M  V30 20528 C 1968.77 -0.504691 5.23774 0
M  V30 20529 O 1967.8 0.0793438 5.69145 0
M  V30 20530 N 1969 -1.80985 5.51566 0
M  V30 20531 H 1971.77 1.18071 2.75462 0
M  V30 20532 H 1969.33 0.768991 1.42472 0
M  V30 20533 H 1971.32 -1.0758 3.90139 0
M  V30 20534 H 1969.89 -1.26912 2.85678 0
M  V30 20535 H 1969.11 1.02841 3.80549 0
M  V30 20536 H 1970.4 0.870527 5.01298 0
M  V30 20537 H 1969.8 -2.30701 5.16521 0
M  V30 20538 H 1968.35 -2.30259 6.09774 0
M  V30 20539 N 1971.79 -1.4279 0.666995 0
M  V30 20540 C 1972.7 -2.34594 -0.0164305 0
M  V30 20541 C 1973.71 -1.54657 -0.797322 0
M  V30 20542 O 1974.89 -1.87256 -0.741426 0
M  V30 20543 C 1971.95 -3.33102 -0.961469 0
M  V30 20544 C 1971.01 -4.28939 -0.17598 0
M  V30 20545 C 1970.25 -5.22741 -1.076 0
M  V30 20546 O 1970.47 -5.21289 -2.31546 0
M  V30 20547 O 1969.4 -5.99464 -0.541001 0
M  V30 20548 H 1973.23 -2.94557 0.739579 0
M  V30 20549 H 1970.81 -1.43162 0.427207 0
M  V30 20550 H 1972.7 -3.93639 -1.5042 0
M  V30 20551 H 1971.37 -2.75623 -1.69746 0
M  V30 20552 H 1970.28 -3.71839 0.410667 0
M  V30 20553 H 1971.61 -4.89438 0.520737 0
M  V30 20554 N 1973.26 -0.409806 -1.52179 0
M  V30 20555 C 1974.49 0.167702 -2.06721 0
M  V30 20556 C 1974.91 1.38034 -1.27782 0
M  V30 20557 O 1974.27 1.7866 -0.308244 0
M  V30 20558 C 1974.32 0.495862 -3.57174 0
M  V30 20559 O 1973.42 1.58675 -3.80652 0
M  V30 20560 H 1972.76 0.013908 -0.663854 0
M  V30 20561 H 1975.29 -0.583201 -1.96112 0
M  V30 20562 H 1975.3 0.754301 -4.00967 0
M  V30 20563 H 1973.98 -0.390588 -4.14062 0
M  V30 20564 H 1972.56 1.32042 -3.48739 0
M  V30 20565 N 1974.74 1.56975 -0.14025 0
M  V30 20566 C 1976.15 1.82757 0.381688 0
M  V30 20567 C 1976.5 1.0586 1.65191 0
M  V30 20568 O 1975.63 0.301768 2.14286 0
M  V30 20569 C 1976.22 3.31505 0.699272 0
M  V30 20570 C 1974.78 3.57892 1.16576 0
M  V30 20571 C 1973.93 2.7668 0.185351 0
M  V30 20572 H 1976.88 1.54444 -0.365058 0
M  V30 20573 H 1976.9 3.47292 1.55462 0
M  V30 20574 H 1976.41 3.87445 -0.225394 0
M  V30 20575 H 1974.51 3.07332 2.1066 0
M  V30 20576 H 1974.63 4.66386 1.0964 0
M  V30 20577 H 1972.99 2.45548 0.676642 0
M  V30 20578 H 1973.77 3.35388 -0.732787 0
M  V30 20579 N 1976.22 -0.133539 1.57033 0
M  V30 20580 C 1977.15 -1.16595 2.02306 0
M  V30 20581 C 1978.13 -1.44031 0.904933 0
M  V30 20582 O 1979.32 -1.54721 1.17367 0
M  V30 20583 C 1976.45 -2.49581 2.41509 0
M  V30 20584 C 1975.4 -2.36639 3.56631 0
M  V30 20585 C 1974.73 -3.74457 3.81688 0
M  V30 20586 C 1976.03 -1.83912 4.88849 0
M  V30 20587 H 1977.72 -0.789456 2.88804 0
M  V30 20588 H 1975.27 -0.378309 1.38942 0
M  V30 20589 H 1977.22 -3.22043 2.71783 0
M  V30 20590 H 1975.94 -2.89093 1.51964 0
M  V30 20591 H 1974.6 -1.66628 3.26544 0
M  V30 20592 H 1974.25 -4.11428 2.89372 0
M  V30 20593 H 1973.95 -3.66655 4.59171 0
M  V30 20594 H 1975.47 -4.48446 4.14401 0
M  V30 20595 H 1976.89 -2.46178 5.17754 0
M  V30 20596 H 1975.28 -1.86967 5.70231 0
M  V30 20597 H 1976.35 -0.795669 4.78327 0
M  V30 20598 N 1977.7 -1.52352 -0.403298 0
M  V30 20599 C 1978.92 -1.70849 -1.17582 0
M  V30 20600 C 1979.35 -0.419696 -1.83358 0
M  V30 20601 O 1978.71 0.623346 -1.70247 0
M  V30 20602 C 1978.75 -2.8492 -2.21027 0
M  V30 20603 O 1977.86 -2.50896 -3.273 0
M  V30 20604 H 1977.2 -0.568568 -0.342967 0
M  V30 20605 H 1979.73 -1.99082 -0.471975 0
M  V30 20606 H 1979.74 -3.10002 -2.6526 0
M  V30 20607 H 1978.41 -3.78423 -1.72536 0
M  V30 20608 H 1976.99 -2.36506 -2.88304 0
M  V30 20609 N 1979.18 0.660885 -1.43074 0
M  V30 20610 C 1980.11 1.78579 -1.50438 0
M  V30 20611 C 1981.09 1.66253 -0.359703 0
M  V30 20612 O 1982.27 1.85465 -0.575893 0
M  V30 20613 C 1979.4 3.16963 -1.41956 0
M  V30 20614 C 1978.36 3.44043 -2.54594 0
M  V30 20615 C 1977.68 4.82147 -2.31166 0
M  V30 20616 C 1978.98 3.3955 -3.96867 0
M  V30 20617 H 1980.68 1.72673 -2.4459 0
M  V30 20618 H 1978.22 0.829317 -1.17721 0
M  V30 20619 H 1980.17 3.95406 -1.45713 0
M  V30 20620 H 1978.9 3.23581 -0.443048 0
M  V30 20621 H 1977.56 2.67969 -2.50177 0
M  V30 20622 H 1977.21 4.85432 -1.31776 0
M  V30 20623 H 1976.91 5.01228 -3.06667 0
M  V30 20624 H 1978.43 5.62857 -2.36695 0
M  V30 20625 H 1979.84 4.0794 -4.02813 0
M  V30 20626 H 1978.24 3.70166 -4.72332 0
M  V30 20627 H 1979.31 2.37868 -4.22548 0
M  V30 20628 N 1980.65 1.29477 0.898527 0
M  V30 20629 C 1981.9 1.17284 1.64587 0
M  V30 20630 C 1982.22 -0.275718 1.93041 0
M  V30 20631 O 1981.49 -1.18847 1.55731 0
M  V30 20632 H 1980.07 0.431068 0.610073 0
M  V30 20633 H 1982.74 1.62419 1.07732 0
M  V30 20634 H 1981.83 1.72375 2.60179 0
M  V30 20635 N 1982.13 -1.10905 1.11972 0
M  V30 20636 C 1983.1 -2.1529 0.786324 0
M  V30 20637 C 1984.1 -1.59589 -0.196987 0
M  V30 20638 O 1985.29 -1.74177 0.0281964 0
M  V30 20639 C 1982.42 -3.40488 0.167611 0
M  V30 20640 H 1983.61 -2.46295 1.71111 0
M  V30 20641 H 1981.16 -1.26185 0.922332 0
M  V30 20642 H 1981.9 -3.15096 -0.76713 0
M  V30 20643 H 1981.68 -3.822 0.875514 0
M  V30 20644 H 1983.17 -4.17571 -0.0493303 0
M  V30 20645 N 1983.61 -0.910886 -1.2861 0
M  V30 20646 C 1984.89 -0.461608 -1.90075 0
M  V30 20647 C 1985.27 1.05944 -1.8259 0
M  V30 20648 O 1984.62 1.90624 -1.25995 0
M  V30 20649 C 1984.83 -0.98875 -3.34701 0
M  V30 20650 C 1986.17 -1.03913 -4.11688 0
M  V30 20651 O 1987.2 -0.937194 -3.4365 0
M  V30 20652 O 1986.06 -1.19392 -5.33299 0
M  V30 20653 H 1983.15 -0.145814 -0.814044 0
M  V30 20654 H 1985.7 -1.00148 -1.36998 0
M  V30 20655 H 1984.47 -2.03273 -3.34359 0
M  V30 20656 H 1984.09 -0.429535 -3.95273 0
M  V30 20657 N 1985.09 1.42434 -0.674558 0
M  V30 20658 C 1986.5 1.84678 -0.274015 0
M  V30 20659 C 1986.85 1.56464 1.18378 0
M  V30 20660 O 1985.98 1.02434 1.90621 0
M  V30 20661 C 1986.57 3.3523 -0.490545 0
M  V30 20662 C 1985.13 3.76124 -0.144124 0
M  V30 20663 C 1984.28 2.66013 -0.783107 0
M  V30 20664 H 1987.23 1.32284 -0.876737 0
M  V30 20665 H 1987.25 3.79628 0.257403 0
M  V30 20666 H 1986.76 3.55733 -1.55163 0
M  V30 20667 H 1984.86 3.61228 0.913523 0
M  V30 20668 H 1984.97 4.75521 -0.584478 0
M  V30 20669 H 1983.34 2.53796 -0.214457 0
M  V30 20670 H 1984.12 2.89339 -1.84764 0
M  V30 20671 N 1986.57 0.417871 1.51959 0
M  V30 20672 C 1987.5 -0.394222 2.30148 0
M  V30 20673 C 1988.48 -1.0384 1.34727 0
M  V30 20674 O 1989.66 -1.04575 1.63639 0
M  V30 20675 C 1986.79 -1.50639 3.1293 0
M  V30 20676 C 1985.75 -0.986759 4.1647 0
M  V30 20677 C 1985.07 -2.1932 4.8765 0
M  V30 20678 C 1986.37 -0.0347019 5.22288 0
M  V30 20679 H 1988.07 0.258228 2.98284 0
M  V30 20680 H 1985.61 0.125633 1.43451 0
M  V30 20681 H 1987.57 -2.08157 3.664 0
M  V30 20682 H 1986.29 -2.18685 2.42579 0
M  V30 20683 H 1984.95 -0.43393 3.64023 0
M  V30 20684 H 1984.6 -2.8594 4.1382 0
M  V30 20685 H 1984.3 -1.85199 5.57652 0
M  V30 20686 H 1985.82 -2.77427 5.43936 0
M  V30 20687 H 1987.23 -0.518951 5.70946 0
M  V30 20688 H 1985.63 0.218124 5.99703 0
M  V30 20689 H 1986.7 0.907947 4.76324 0
M  V30 20690 N 1988.04 -1.56898 0.148573 0
M  V30 20691 C 1988.97 -2.19852 -0.786585 0
M  V30 20692 C 1989.96 -1.14723 -1.2559 0
M  V30 20693 O 1991.14 -1.43071 -1.31317 0
M  V30 20694 C 1988.27 -2.82137 -2.02524 0
M  V30 20695 C 1987.22 -3.93108 -1.69264 0
M  V30 20696 C 1986.55 -4.42335 -3.00407 0
M  V30 20697 C 1987.85 -5.13807 -0.938092 0
M  V30 20698 H 1989.54 -2.98252 -0.261903 0
M  V30 20699 H 1987.09 -1.43461 -0.124531 0
M  V30 20700 H 1989.04 -3.24845 -2.68428 0
M  V30 20701 H 1987.77 -2.01071 -2.57368 0
M  V30 20702 H 1986.43 -3.5102 -1.05739 0
M  V30 20703 H 1986.07 -3.58089 -3.53244 0
M  V30 20704 H 1985.77 -5.17185 -2.78915 0
M  V30 20705 H 1987.3 -4.87714 -3.67378 0
M  V30 20706 H 1988.71 -5.53349 -1.49924 0
M  V30 20707 H 1987.11 -5.94429 -0.823062 0
M  V30 20708 H 1988.18 -4.8485 0.0698825 0
M  V30 20709 N 1989.52 0.125209 -1.57102 0
M  V30 20710 C 1990.93 0.683017 -1.73758 0
M  V30 20711 C 1991.28 1.80615 -0.766324 0
M  V30 20712 O 1990.41 2.16311 0.0621742 0
M  V30 20713 C 1991 1.24576 -3.15066 0
M  V30 20714 C 1989.56 1.74992 -3.33249 0
M  V30 20715 C 1988.71 0.647107 -2.69644 0
M  V30 20716 H 1991.66 -0.100657 -1.5838 0
M  V30 20717 H 1991.68 2.11547 -3.16272 0
M  V30 20718 H 1991.19 0.4281 -3.85732 0
M  V30 20719 H 1989.3 2.59255 -2.67615 0
M  V30 20720 H 1989.41 1.86364 -4.41368 0
M  V30 20721 H 1987.77 1.07918 -2.30707 0
M  V30 20722 H 1988.56 -0.159469 -3.42929 0
M  V30 20723 N 1991 1.52564 0.395213 0
M  V30 20724 C 1991.91 1.79813 1.5068 0
M  V30 20725 C 1992.93 0.684507 1.5997 0
M  V30 20726 O 1994.1 0.971428 1.76423 0
M  V30 20727 C 1991.17 1.95567 2.86277 0
M  V30 20728 C 1990.23 3.19481 2.86759 0
M  V30 20729 C 1989.46 3.34474 4.15888 0
M  V30 20730 O 1989.68 2.54414 5.10519 0
M  V30 20731 O 1988.62 4.27698 4.23507 0
M  V30 20732 H 1992.44 2.74191 1.30586 0
M  V30 20733 H 1990.03 1.37579 0.582445 0
M  V30 20734 H 1991.91 2.07672 3.66675 0
M  V30 20735 H 1990.59 1.04378 3.0641 0
M  V30 20736 H 1989.49 3.12823 2.05164 0
M  V30 20737 H 1990.83 4.10496 2.71577 0
M  V30 20738 N 1992.48 -0.653289 1.43422 0
M  V30 20739 C 1993.73 -1.41039 1.44749 0
M  V30 20740 C 1994.05 -1.94864 0.0728692 0
M  V30 20741 O 1993.32 -1.74425 -0.891782 0
M  V30 20742 H 1991.9 -0.523445 0.53293 0
M  V30 20743 H 1994.56 -0.770483 1.79024 0
M  V30 20744 H 1993.66 -2.25278 2.16001 0
M  V30 20745 N 1993.96 -1.29952 -0.891648 0
M  V30 20746 C 1994.92 -1.15756 -1.97821 0
M  V30 20747 C 1995.92 -0.0906975 -1.60544 0
M  V30 20748 O 1997.11 -0.338283 -1.70884 0
M  V30 20749 C 1994.24 -0.771976 -3.32044 0
M  V30 20750 H 1995.43 -2.12281 -2.11842 0
M  V30 20751 H 1992.99 -1.13253 -1.07719 0
M  V30 20752 H 1993.72 0.193059 -3.23725 0
M  V30 20753 H 1993.51 -1.54291 -3.60467 0
M  V30 20754 H 1995 -0.695941 -4.1176 0
M  V30 20755 N 1995.44 1.1031 -1.12559 0
M  V30 20756 C 1996.66 1.86618 -0.9049 0
M  V30 20757 C 1997.09 1.80164 0.540597 0
M  V30 20758 O 1996.44 1.17252 1.38281 0
M  V30 20759 C 1996.49 3.32903 -1.38592 0
M  V30 20760 O 1995.6 4.08508 -0.565225 0
M  V30 20761 H 1994.94 0.579019 -0.325013 0
M  V30 20762 H 1997.47 1.39359 -1.498 0
M  V30 20763 H 1997.48 3.83753 -1.38556 0
M  V30 20764 H 1996.15 3.36917 -2.43844 0
M  V30 20765 H 1994.73 3.67494 -0.632682 0
M  V30 20766 N 1996.91 0.917694 1.28125 0
M  V30 20767 C 1998.33 0.616431 1.47215 0
M  V30 20768 C 1998.53 -0.837161 1.83286 0
M  V30 20769 O 1997.59 -1.61591 1.94022 0
M  V30 20770 C 1998.9 1.55772 2.57207 0
M  V30 20771 C 2000.45 1.56486 2.71074 0
M  V30 20772 C 2000.92 2.49286 3.84214 0
M  V30 20773 N 2002.41 2.47436 3.91573 0
M  V30 20774 C 2003.15 3.15936 4.7851 0
M  V30 20775 N 2002.64 3.9378 5.70008 0
M  V30 20776 N 2004.44 3.05004 4.72154 0
M  V30 20777 H 1996.59 1.85758 1.02993 0
M  V30 20778 H 1998.85 0.796969 0.513366 0
M  V30 20779 H 1998.56 2.59423 2.37471 0
M  V30 20780 H 1998.43 1.2918 3.5439 0
M  V30 20781 H 2000.82 0.535708 2.90197 0
M  V30 20782 H 2000.9 1.87122 1.7441 0
M  V30 20783 H 2000.54 3.52306 3.65846 0
M  V30 20784 H 2000.47 2.1595 4.80284 0
M  V30 20785 H 2002.96 1.90893 3.26141 0
M  V30 20786 H 2003.28 4.43058 6.33182 0
M  V30 20787 H 2001.62 3.97885 5.69836 0
M  V30 20788 H 2004.81 2.4369 3.99666 0
M  V30 20789 H 2004.99 3.5866 5.39691 0
M  V30 20790 N 1998.39 -1.42074 0.682102 0
M  V30 20791 C 1999.8 -1.8453 0.283805 0
M  V30 20792 C 2000.15 -1.5709 -1.17547 0
M  V30 20793 O 1999.28 -1.03444 -1.90075 0
M  V30 20794 C 1999.87 -3.34965 0.508316 0
M  V30 20795 C 1998.43 -3.76042 0.164069 0
M  V30 20796 C 1997.58 -2.65594 0.797204 0
M  V30 20797 H 2000.53 -1.31817 0.88374 0
M  V30 20798 H 2000.55 -3.7976 -0.237267 0
M  V30 20799 H 2000.06 -3.54905 1.57047 0
M  V30 20800 H 1998.16 -3.61707 -0.894353 0
M  V30 20801 H 1998.28 -4.75205 0.609688 0
M  V30 20802 H 1996.64 -2.53678 0.227913 0
M  V30 20803 H 1997.42 -2.88355 1.86296 0
M  V30 20804 N 1999.87 -0.425924 -1.51735 0
M  V30 20805 C 2001.28 0.0398403 -1.86657 0
M  V30 20806 C 2001.63 1.4296 -1.34376 0
M  V30 20807 O 2000.76 2.05109 -0.689867 0
M  V30 20808 C 2001.35 0.0790715 -3.38708 0
M  V30 20809 C 1999.91 0.489215 -3.73207 0
M  V30 20810 C 1999.06 -0.325517 -2.75383 0
M  V30 20811 H 2002.01 -0.642271 -1.45123 0
M  V30 20812 H 2002.03 0.890928 -3.69923 0
M  V30 20813 H 2001.54 -0.932545 -3.7673 0
M  V30 20814 H 1999.64 1.50686 -3.40771 0
M  V30 20815 H 1999.76 0.221939 -4.78586 0
M  V30 20816 H 1998.12 0.214561 -2.53795 0
M  V30 20817 H 1998.9 -1.3358 -3.16246 0
M  V30 20818 N 2001.35 1.56817 -0.156891 0
M  V30 20819 C 2002.59 1.9673 0.492464 0
M  V30 20820 C 2002.93 1.04226 1.63862 0
M  V30 20821 O 2002.2 0.0865469 1.94307 0
M  V30 20822 C 2002.48 3.46246 0.989218 0
M  V30 20823 C 2002.34 4.49529 -0.156119 0
M  V30 20824 C 2003.66 3.98502 1.86773 0
M  V30 20825 H 2000.78 0.715297 0.177537 0
M  V30 20826 H 2003.42 1.88477 -0.240116 0
M  V30 20827 H 2001.57 3.53411 1.61348 0
M  V30 20828 H 2003.24 4.54437 -0.792781 0
M  V30 20829 H 2001.48 4.26098 -0.813797 0
M  V30 20830 H 2002.15 5.51507 0.233341 0
M  V30 20831 H 2004.63 3.93879 1.34159 0
M  V30 20832 H 2003.51 5.03564 2.18436 0
M  V30 20833 H 2003.77 3.4145 2.80828 0
M  V30 20834 N 2002.83 -0.116876 1.57166 0
M  V30 20835 C 2004.05 -0.842338 1.89524 0
M  V30 20836 C 2004.48 -1.72543 0.749039 0
M  V30 20837 O 2003.83 -1.78795 -0.30035 0
M  V30 20838 C 2003.88 -1.64989 3.20641 0
M  V30 20839 O 2002.99 -2.75701 3.06696 0
M  V30 20840 H 2002.33 -0.232809 0.621849 0
M  V30 20841 H 2004.86 -0.0986366 2.04362 0
M  V30 20842 H 2004.87 -2.03869 3.53414 0
M  V30 20843 H 2003.54 -1.00164 4.03658 0
M  V30 20844 H 2002.12 -2.40009 2.85395 0
M  V30 20845 N 2004.3 -1.52772 -0.387116 0
M  V30 20846 C 2005.53 -1.72086 -1.15763 0
M  V30 20847 C 2005.95 -0.43912 -1.82903 0
M  V30 20848 O 2005.31 0.605254 -1.70899 0
M  V30 20849 C 2005.36 -2.87248 -2.17992 0
M  V30 20850 O 2004.46 -2.54353 -3.2462 0
M  V30 20851 H 2003.8 -0.572174 -0.336918 0
M  V30 20852 H 2006.33 -1.99571 -0.450833 0
M  V30 20853 H 2006.34 -3.12798 -2.61957 0
M  V30 20854 H 2005.02 -3.80232 -1.68513 0
M  V30 20855 H 2003.6 -2.39551 -2.8578 0
M  V30 20856 N 2005.78 0.645673 -1.43767 0
M  V30 20857 C 2006.73 1.75828 -1.4951 0
M  V30 20858 C 2007.7 1.62496 -0.344109 0
M  V30 20859 O 2008.88 1.82631 -0.552323 0
M  V30 20860 C 2006.02 3.14017 -1.43134 0
M  V30 20861 C 2005.14 3.38428 -2.68496 0
M  V30 20862 C 2004.27 4.66507 -2.54056 0
M  V30 20863 C 2003.31 4.84049 -3.74651 0
M  V30 20864 N 2002.45 6.03392 -3.58974 0
M  V30 20865 H 2007.29 1.70254 -2.44576 0
M  V30 20866 H 2004.82 0.830729 -1.21397 0
M  V30 20867 H 2006.78 3.93915 -1.37431 0
M  V30 20868 H 2005.41 3.18642 -0.516449 0
M  V30 20869 H 2004.46 2.52574 -2.84448 0
M  V30 20870 H 2005.78 3.47274 -3.58054 0
M  V30 20871 H 2004.93 5.54543 -2.46103 0
M  V30 20872 H 2003.67 4.59996 -1.62035 0
M  V30 20873 H 2002.67 3.94447 -3.83004 0
M  V30 20874 H 2003.9 4.92385 -4.67689 0
M  V30 20875 H 2001.85 5.97998 -2.69694 0
M  V30 20876 H 2001.76 6.13229 -4.42138 0
M  V30 20877 H 2003.03 6.94029 -3.54887 0
M  V30 20878 N 2007.26 1.30423 0.884744 0
M  V30 20879 C 2008.17 1.18747 2.02327 0
M  V30 20880 C 2009.19 0.107354 1.73669 0
M  V30 20881 O 2010.36 0.322332 1.98804 0
M  V30 20882 C 2007.43 0.880361 3.35336 0
M  V30 20883 C 2006.49 2.04587 3.77416 0
M  V30 20884 C 2005.72 1.75332 5.04078 0
M  V30 20885 O 2005.94 0.68135 5.66316 0
M  V30 20886 O 2004.88 2.60579 5.4257 0
M  V30 20887 H 2008.7 2.14391 2.15105 0
M  V30 20888 H 2006.29 1.10019 1.01076 0
M  V30 20889 H 2008.17 0.7243 4.15129 0
M  V30 20890 H 2006.85 -0.0461673 3.23667 0
M  V30 20891 H 2005.75 2.25726 2.98326 0
M  V30 20892 H 2007.09 2.95413 3.9369 0
M  V30 20893 N 2008.74 -1.09711 1.13142 0
M  V30 20894 C 2009.68 -2.16265 0.806118 0
M  V30 20895 C 2010.65 -1.64493 -0.230476 0
M  V30 20896 O 2011.84 -1.9052 -0.103375 0
M  V30 20897 C 2008.98 -3.44002 0.275075 0
M  V30 20898 C 2008.09 -4.09688 1.37038 0
M  V30 20899 C 2007.23 -5.25172 0.797983 0
M  V30 20900 C 2006.27 -5.82775 1.87189 0
M  V30 20901 N 2005.4 -6.89625 1.31766 0
M  V30 20902 H 2010.24 -2.43434 1.71883 0
M  V30 20903 H 2007.78 -1.19482 0.858044 0
M  V30 20904 H 2009.74 -4.17169 -0.0509244 0
M  V30 20905 H 2008.37 -3.1716 -0.600779 0
M  V30 20906 H 2007.42 -3.34415 1.81302 0
M  V30 20907 H 2008.73 -4.48535 2.18215 0
M  V30 20908 H 2007.89 -6.05223 0.423093 0
M  V30 20909 H 2006.63 -4.87679 -0.0448997 0
M  V30 20910 H 2005.63 -5.01388 2.25588 0
M  V30 20911 H 2006.86 -6.2233 2.71812 0
M  V30 20912 H 2004.8 -6.54117 0.496729 0
M  V30 20913 H 2004.72 -7.27224 2.06594 0
M  V30 20914 H 2005.99 -7.73438 0.970242 0
M  V30 20915 N 2010.22 -0.924476 -1.27637 0
M  V30 20916 C 2011.13 -0.426579 -2.30689 0
M  V30 20917 C 2012.14 0.491134 -1.66925 0
M  V30 20918 O 2013.32 0.374724 -1.97883 0
M  V30 20919 C 2010.38 0.31558 -3.45261 0
M  V30 20920 C 2009.44 -0.636655 -4.24553 0
M  V30 20921 C 2008.68 0.0701807 -5.33654 0
M  V30 20922 O 2008.9 1.29011 -5.55619 0
M  V30 20923 O 2007.83 -0.599998 -5.98902 0
M  V30 20924 H 2011.66 -1.28216 -2.75308 0
M  V30 20925 H 2009.25 -0.689699 -1.32527 0
M  V30 20926 H 2011.13 0.734315 -4.14953 0
M  V30 20927 H 2009.8 1.14682 -3.02704 0
M  V30 20928 H 2008.71 -1.105 -3.57408 0
M  V30 20929 H 2010.04 -1.43502 -4.70816 0
M  V30 20930 N 2011.69 1.41711 -0.689627 0
M  V30 20931 C 2012.92 2.06171 -0.225425 0
M  V30 20932 C 2013.34 1.51535 1.11439 0
M  V30 20933 O 2012.7 0.639865 1.69633 0
M  V30 20934 C 2012.75 3.60114 -0.187089 0
M  V30 20935 O 2011.85 4.03757 0.83989 0
M  V30 20936 H 2011.2 0.654551 -0.111621 0
M  V30 20937 H 2013.73 1.81582 -0.942814 0
M  V30 20938 H 2013.74 4.07997 -0.0159369 0
M  V30 20939 H 2012.41 3.99251 -1.16497 0
M  V30 20940 H 2010.99 3.67392 0.638575 0
M  V30 20941 N 2013.17 0.433965 1.51507 0
M  V30 20942 C 2014.58 -0.0299408 1.86676 0
M  V30 20943 C 2014.93 -1.42245 1.35132 0
M  V30 20944 O 2014.06 -2.0474 0.700735 0
M  V30 20945 C 2014.65 -0.0611079 3.38745 0
M  V30 20946 C 2013.21 -0.469416 3.73461 0
M  V30 20947 C 2012.36 0.340116 2.75206 0
M  V30 20948 H 2015.31 0.649958 1.4478 0
M  V30 20949 H 2015.33 -0.871298 3.7039 0
M  V30 20950 H 2014.84 0.952511 3.7623 0
M  V30 20951 H 2012.95 -1.48876 3.41565 0
M  V30 20952 H 2013.06 -0.196556 4.78697 0
M  V30 20953 H 2011.42 -0.201099 2.53905 0
M  V30 20954 H 2012.21 1.35255 3.15533 0
M  V30 20955 N 2014.65 -1.56732 0.165206 0
M  V30 20956 C 2015.9 -1.96308 -0.48036 0
M  V30 20957 C 2016.22 -1.05198 -1.6419 0
M  V30 20958 O 2015.49 -0.117108 -1.9555 0
M  V30 20959 H 2014.07 -0.724877 -0.180451 0
M  V30 20960 H 2016.73 -1.93354 0.244961 0
M  V30 20961 H 2015.83 -3.00459 -0.844437 0
M  V30 20962 N 2016.13 0.10854 -1.57226 0
M  V30 20963 C 2017.38 0.812858 -1.85033 0
M  V30 20964 C 2017.7 1.79919 -0.751944 0
M  V30 20965 O 2016.97 1.94626 0.223093 0
M  V30 20966 H 2015.55 0.303181 -0.682708 0
M  V30 20967 H 2018.21 0.0933699 -1.94676 0
M  V30 20968 H 2017.31 1.35169 -2.81311 0
M  V30 20969 N 2017.61 1.52975 0.379009 0
M  V30 20970 C 2018.57 1.77806 1.4463 0
M  V30 20971 C 2019.57 0.648223 1.47155 0
M  V30 20972 O 2020.76 0.916347 1.48151 0
M  V30 20973 C 2017.89 1.88792 2.83849 0
M  V30 20974 H 2019.08 2.73113 1.23892 0
M  V30 20975 H 2016.64 1.43848 0.61135 0
M  V30 20976 H 2017.37 0.955049 3.09918 0
M  V30 20977 H 2017.16 2.70957 2.83416 0
M  V30 20978 H 2018.65 2.09642 3.61165 0
M  V30 20979 N 2019.08 -0.63804 1.44107 0
M  V30 20980 C 2019.99 -1.77914 1.52917 0
M  V30 20981 C 2021.01 -1.68972 0.415266 0
M  V30 20982 O 2022.19 -1.89872 0.671613 0
M  V30 20983 C 2019.25 -3.14268 1.46412 0
M  V30 20984 C 2018.31 -3.34893 2.68598 0
M  V30 20985 C 2017.55 -4.64742 2.62394 0
M  V30 20986 O 2017.77 -5.45095 1.68011 0
M  V30 20987 O 2016.7 -4.87419 3.53138 0
M  V30 20988 H 2020.53 -1.73435 2.49307 0
M  V30 20989 H 2018.11 -0.798412 1.26276 0
M  V30 20990 H 2020 -3.95564 1.45282 0
M  V30 20991 H 2018.67 -3.19304 0.531634 0
M  V30 20992 H 2017.58 -2.53302 2.75297 0
M  V30 20993 H 2018.91 -3.34714 3.6087 0
M  V30 20994 N 2020.56 -1.3089 -0.877815 0
M  V30 20995 C 2021.53 -1.17848 -1.96582 0
M  V30 20996 C 2022.53 -0.10772 -1.60439 0
M  V30 20997 O 2023.72 -0.356388 -1.70515 0
M  V30 20998 C 2020.85 -0.80715 -3.31207 0
M  V30 20999 H 2022.04 -2.14516 -2.09578 0
M  V30 21000 H 2019.59 -1.14389 -1.06512 0
M  V30 21001 H 2020.33 0.158713 -3.23911 0
M  V30 21002 H 2020.11 -1.58105 -3.58811 0
M  V30 21003 H 2021.6 -0.739575 -4.10999 0
M  V30 21004 N 2022.04 1.0911 -1.13723 0
M  V30 21005 C 2023.28 1.82962 -0.911268 0
M  V30 21006 C 2023.64 1.83878 0.552529 0
M  V30 21007 O 2024.85 2.53421 0.896168 0
M  V30 21008 C 2023.12 3.24999 -1.48696 0
M  V30 21009 S 2024.68 4.15816 -1.40153 0
M  V30 21010 H 2021.49 0.630622 -0.328386 0
M  V30 21011 H 2024.1 1.31201 -1.44936 0
M  V30 21012 H 2022.8 3.2191 -2.54562 0
M  V30 21013 H 2022.33 3.81833 -0.946951 0
M  V30 21014 H 2024.35 4.94726 -0.382175 0
M  V30 21015 N 2023.52 0.931232 1.27145 0
M  V30 21016 C 2024.75 0.589956 1.98311 0
M  V30 21017 C 2025.16 -0.832836 1.69438 0
M  V30 21018 O 2024.52 -1.55399 0.956935 0
M  V30 21019 C 2024.57 0.810592 3.52295 0
M  V30 21020 O 2024.29 2.17741 3.80158 0
M  V30 21021 C 2025.79 0.478508 4.4071 0
M  V30 21022 H 2023.01 0.223234 0.632778 0
M  V30 21023 H 2025.56 1.24922 1.6191 0
M  V30 21024 H 2023.71 0.198081 3.86893 0
M  V30 21025 H 2024.12 2.23003 4.74731 0
M  V30 21026 H 2025.6 0.683566 5.47751 0
M  V30 21027 H 2026.08 -0.586102 4.35272 0
M  V30 21028 H 2026.68 1.06931 4.11638 0
M  V30 21029 N 2025 -1.41343 0.697132 0
M  V30 21030 C 2026.41 -1.84219 0.303361 0
M  V30 21031 C 2026.76 -1.58328 -1.15874 0
M  V30 21032 O 2025.88 -1.05454 -1.88967 0
M  V30 21033 C 2026.48 -3.34407 0.543815 0
M  V30 21034 C 2025.04 -3.75847 0.203944 0
M  V30 21035 C 2024.19 -2.64733 0.825329 0
M  V30 21036 H 2027.14 -1.30872 0.897671 0
M  V30 21037 H 2027.16 -3.7999 -0.196975 0
M  V30 21038 H 2026.67 -3.5322 1.60802 0
M  V30 21039 H 2024.77 -3.62635 -0.855939 0
M  V30 21040 H 2024.88 -4.74531 0.660055 0
M  V30 21041 H 2023.25 -2.53422 0.254806 0
M  V30 21042 H 2024.03 -2.86363 1.89344 0
M  V30 21043 N 2026.48 -0.441993 -1.51275 0
M  V30 21044 C 2027.89 0.0200405 -1.86689 0
M  V30 21045 C 2028.24 1.41527 -1.35885 0
M  V30 21046 O 2027.36 2.04366 -0.711583 0
M  V30 21047 C 2027.96 0.0431426 -3.38773 0
M  V30 21048 C 2026.52 0.449604 -3.73705 0
M  V30 21049 C 2025.66 -0.354706 -2.75022 0
M  V30 21050 H 2028.61 -0.657627 -1.44433 0
M  V30 21051 H 2028.64 0.851643 -3.70847 0
M  V30 21052 H 2028.15 -0.97245 -3.75719 0
M  V30 21053 H 2026.25 1.47063 -3.4235 0
M  V30 21054 H 2026.36 0.171167 -4.78794 0
M  V30 21055 H 2024.73 0.187631 -2.54008 0
M  V30 21056 H 2025.51 -1.36926 -3.14811 0
M  V30 21057 N 2027.95 1.56642 -0.173515 0
M  V30 21058 C 2029.37 1.58552 0.182625 0
M  V30 21059 C 2029.57 1.18895 1.62685 0
M  V30 21060 O 2028.63 0.901576 2.35856 0
M  V30 21061 C 2029.94 3.00533 -0.100181 0
M  V30 21062 C 2031.49 3.12976 -0.038567 0
M  V30 21063 C 2031.96 4.57053 -0.294392 0
M  V30 21064 N 2033.45 4.62566 -0.242245 0
M  V30 21065 C 2034.19 5.71901 -0.414333 0
M  V30 21066 N 2033.68 6.89785 -0.645597 0
M  V30 21067 N 2035.48 5.61009 -0.350085 0
M  V30 21068 H 2027.63 1.80706 -1.1162 0
M  V30 21069 H 2029.89 0.837643 -0.443912 0
M  V30 21070 H 2029.6 3.34031 -1.10073 0
M  V30 21071 H 2029.47 3.72281 0.607196 0
M  V30 21072 H 2031.86 2.79303 0.952559 0
M  V30 21073 H 2031.94 2.4366 -0.778688 0
M  V30 21074 H 2031.58 4.91435 -1.28274 0
M  V30 21075 H 2031.51 5.24531 0.466366 0
M  V30 21076 H 2034 3.77837 -0.0692351 0
M  V30 21077 H 2034.32 7.68991 -0.766299 0
M  V30 21078 H 2032.66 6.91643 -0.682238 0
M  V30 21079 H 2035.85 4.67791 -0.169986 0
M  V30 21080 H 2036.03 6.46163 -0.487625 0
M  V30 21081 N 2029.43 -0.1002 1.57281 0
M  V30 21082 C 2030.39 -1.10612 2.00743 0
M  V30 21083 C 2031.39 -1.33241 0.900199 0
M  V30 21084 O 2032.58 -1.2944 1.1658 0
M  V30 21085 C 2029.72 -2.45642 2.36375 0
M  V30 21086 H 2030.91 -0.732144 2.90826 0
M  V30 21087 H 2028.46 -0.345091 1.52443 0
M  V30 21088 H 2029.2 -2.87925 1.4923 0
M  V30 21089 H 2028.98 -2.30567 3.17146 0
M  V30 21090 H 2030.47 -3.18002 2.70674 0
M  V30 21091 N 2030.91 -1.53174 -0.370891 0
M  V30 21092 C 2032.14 -1.73 -1.13484 0
M  V30 21093 C 2032.55 -0.456538 -1.83197 0
M  V30 21094 O 2031.91 0.570218 -1.73363 0
M  V30 21095 C 2031.96 -2.89186 -2.16919 0
M  V30 21096 O 2031.68 -4.11604 -1.50045 0
M  V30 21097 C 2033.18 -3.20841 -3.05901 0
M  V30 21098 H 2030.4 -0.578752 -0.33954 0
M  V30 21099 H 2032.95 -1.99897 -0.43143 0
M  V30 21100 H 2031.1 -2.64699 -2.82866 0
M  V30 21101 H 2031.52 -4.76629 -2.18918 0
M  V30 21102 H 2032.99 -4.05557 -3.7447 0
M  V30 21103 H 2033.47 -2.35982 -3.70418 0
M  V30 21104 H 2034.07 -3.47235 -2.45577 0
M  V30 21105 N 2032.39 0.630389 -1.44443 0
M  V30 21106 C 2033.62 1.41712 -1.50749 0
M  V30 21107 C 2034.03 1.88334 -0.132593 0
M  V30 21108 O 2033.39 1.60878 0.861649 0
M  V30 21109 C 2033.44 2.63694 -2.47281 0
M  V30 21110 O 2033.16 2.19016 -3.79425 0
M  V30 21111 C 2034.66 3.56813 -2.63058 0
M  V30 21112 H 2031.88 0.43458 -0.511255 0
M  V30 21113 H 2034.42 0.770878 -1.89414 0
M  V30 21114 H 2032.58 3.24409 -2.11749 0
M  V30 21115 H 2032.99 2.98104 -4.31549 0
M  V30 21116 H 2034.47 4.39008 -3.34628 0
M  V30 21117 H 2034.94 4.05669 -1.68313 0
M  V30 21118 H 2035.55 3.01966 -2.99494 0
M  V30 21119 N 2033.87 1.31354 0.870861 0
M  V30 21120 C 2035.28 1.18891 1.43951 0
M  V30 21121 C 2035.63 -0.204961 1.95126 0
M  V30 21122 O 2034.75 -1.10266 1.862 0
M  V30 21123 C 2035.35 2.15226 2.61655 0
M  V30 21124 C 2033.91 2.06699 3.14567 0
M  V30 21125 C 2033.05 2.04505 1.87277 0
M  V30 21126 H 2036 1.43418 0.679486 0
M  V30 21127 H 2036.03 1.74134 3.38316 0
M  V30 21128 H 2035.54 3.16664 2.24378 0
M  V30 21129 H 2033.64 1.08452 3.56467 0
M  V30 21130 H 2033.75 2.95763 3.7691 0
M  V30 21131 H 2032.12 1.49508 2.06202 0
M  V30 21132 H 2032.9 3.07698 1.52239 0
M  V30 21133 N 2035.34 -1.08505 1.143 0
M  V30 21134 C 2036.59 -1.80514 0.908791 0
M  V30 21135 C 2036.91 -1.86599 -0.566196 0
M  V30 21136 O 2036.18 -1.35837 -1.41156 0
M  V30 21137 H 2034.76 -0.668553 0.333235 0
M  V30 21138 H 2037.42 -1.31188 1.44138 0
M  V30 21139 H 2036.52 -2.83375 1.30786 0
M  V30 21140 N 2036.82 -0.937962 -1.26649 0
M  V30 21141 C 2038.07 -0.582665 -1.93519 0
M  V30 21142 C 2038.39 0.880595 -1.73984 0
M  V30 21143 O 2037.66 1.62535 -1.09358 0
M  V30 21144 H 2036.24 -0.212501 -0.716137 0
M  V30 21145 H 2038.9 -1.19259 -1.54154 0
M  V30 21146 H 2038 -0.797692 -3.01734 0
M  V30 21147 N 2038.3 1.40971 -0.704618 0
M  V30 21148 C 2039.72 1.55082 -0.377067 0
M  V30 21149 C 2039.92 1.67827 1.11518 0
M  V30 21150 O 2038.97 1.66173 1.90112 0
M  V30 21151 C 2040.28 2.78517 -1.13352 0
M  V30 21152 C 2041.83 2.92323 -1.11875 0
M  V30 21153 C 2042.31 4.18658 -1.85714 0
M  V30 21154 N 2043.8 4.25635 -1.82728 0
M  V30 21155 C 2044.53 5.22268 -2.36693 0
M  V30 21156 N 2044.03 6.24877 -2.99167 0
M  V30 21157 N 2045.82 5.14271 -2.26897 0
M  V30 21158 H 2037.97 1.30944 -1.67235 0
M  V30 21159 H 2040.24 0.632393 -0.706246 0
M  V30 21160 H 2039.94 2.75339 -2.18818 0
M  V30 21161 H 2039.82 3.70304 -0.717978 0
M  V30 21162 H 2042.2 2.95011 -0.0723296 0
M  V30 21163 H 2042.28 2.01685 -1.57343 0
M  V30 21164 H 2041.93 4.16732 -2.9034 0
M  V30 21165 H 2041.86 5.08285 -1.37674 0
M  V30 21166 H 2044.35 3.52119 -1.37187 0
M  V30 21167 H 2044.66 6.95019 -3.37889 0
M  V30 21168 H 2043.01 6.25353 -3.03247 0
M  V30 21169 H 2046.2 4.33037 -1.77755 0
M  V30 21170 H 2046.37 5.89411 -2.69256 0
M  V30 21171 N 2039.78 0.45001 1.51039 0
M  V30 21172 C 2041.01 -0.110496 2.06605 0
M  V30 21173 C 2041.42 -1.35362 1.31615 0
M  V30 21174 O 2040.78 -1.78515 0.379306 0
M  V30 21175 C 2040.83 -0.419948 3.59052 0
M  V30 21176 O 2040.55 0.773848 4.31211 0
M  V30 21177 C 2042.05 -1.02974 4.31174 0
M  V30 21178 H 2039.27 -0.00230221 0.670996 0
M  V30 21179 H 2041.82 0.632737 1.94465 0
M  V30 21180 H 2039.97 -1.11309 3.71065 0
M  V30 21181 H 2040.38 0.505717 5.22056 0
M  V30 21182 H 2041.86 -1.19617 5.38884 0
M  V30 21183 H 2042.34 -2.01422 3.9029 0
M  V30 21184 H 2042.94 -0.375607 4.23638 0
M  V30 21185 N 2041.26 -1.56548 0.18182 0
M  V30 21186 C 2042.19 -2.21471 -0.739774 0
M  V30 21187 C 2043.17 -1.17361 -1.23128 0
M  V30 21188 O 2044.35 -1.45825 -1.28253 0
M  V30 21189 C 2041.48 -2.86369 -1.96494 0
M  V30 21190 C 2040.44 -3.96609 -1.60888 0
M  V30 21191 C 2039.76 -4.48607 -2.90957 0
M  V30 21192 C 2041.06 -5.15681 -0.828895 0
M  V30 21193 H 2042.76 -2.98741 -0.19858 0
M  V30 21194 H 2040.3 -1.43692 -0.0940725 0
M  V30 21195 H 2042.26 -3.30466 -2.61477 0
M  V30 21196 H 2040.98 -2.06485 -2.53045 0
M  V30 21197 H 2039.64 -3.53184 -0.982694 0
M  V30 21198 H 2039.29 -3.65501 -3.45569 0
M  V30 21199 H 2038.99 -5.22984 -2.67882 0
M  V30 21200 H 2040.51 -4.95397 -3.56951 0
M  V30 21201 H 2041.92 -5.56405 -1.38153 0
M  V30 21202 H 2040.32 -5.96041 -0.696789 0
M  V30 21203 H 2041.39 -4.84592 0.172711 0
M  V30 21204 N 2042.73 0.0918577 -1.57332 0
M  V30 21205 C 2043.64 1.1295 -2.0562 0
M  V30 21206 C 2044.66 1.4366 -0.981728 0
M  V30 21207 O 2045.84 1.54237 -1.29511 0
M  V30 21208 C 2042.9 2.42918 -2.4737 0
M  V30 21209 C 2041.96 2.19361 -3.69024 0
M  V30 21210 C 2041.2 3.43132 -4.08774 0
M  V30 21211 O 2041.42 4.51492 -3.48584 0
M  V30 21212 O 2040.35 3.32529 -5.01705 0
M  V30 21213 H 2044.18 0.74936 -2.9431 0
M  V30 21214 H 2041.76 0.304595 -1.46262 0
M  V30 21215 H 2043.65 3.19442 -2.74835 0
M  V30 21216 H 2042.32 2.80352 -1.61816 0
M  V30 21217 H 2041.23 1.40607 -3.46671 0
M  V30 21218 H 2042.56 1.86818 -4.55368 0
M  V30 21219 N 2044.21 1.53368 0.362763 0
M  V30 21220 C 2045.63 1.43203 0.704623 0
M  V30 21221 C 2045.83 0.573363 1.9317 0
M  V30 21222 O 2044.88 0.0568943 2.52436 0
M  V30 21223 C 2046.2 2.86434 0.915198 0
M  V30 21224 C 2047.75 2.96085 1.01503 0
M  V30 21225 C 2048.22 4.40383 1.25806 0
M  V30 21226 N 2049.71 4.43824 1.32569 0
M  V30 21227 C 2050.45 5.52586 1.53089 0
M  V30 21228 N 2049.94 6.71389 1.70906 0
M  V30 21229 N 2051.74 5.40169 1.55481 0
M  V30 21230 H 2043.89 2.07701 -0.444302 0
M  V30 21231 H 2046.15 0.938087 -0.136733 0
M  V30 21232 H 2045.86 3.51596 0.0853212 0
M  V30 21233 H 2045.73 3.3025 1.82249 0
M  V30 21234 H 2048.12 2.31074 1.83545 0
M  V30 21235 H 2048.2 2.55659 0.0850686 0
M  V30 21236 H 2047.84 5.05967 0.442642 0
M  V30 21237 H 2047.77 4.78384 2.20128 0
M  V30 21238 H 2050.26 3.58206 1.20402 0
M  V30 21239 H 2050.58 7.50047 1.86144 0
M  V30 21240 H 2048.92 6.7437 1.68079 0
M  V30 21241 H 2052.11 4.46318 1.41131 0
M  V30 21242 H 2052.28 6.24994 1.71131 0
M  V30 21243 N 2045.69 -0.62272 1.44776 0
M  V30 21244 C 2046.97 -1.38145 1.38475 0
M  V30 21245 C 2047.35 -2.11046 0.0476847 0
M  V30 21246 O 2046.7 -2.0689 -0.969982 0
M  V30 21247 C 2046.91 -2.34088 2.58851 0
M  V30 21248 C 2048.25 -2.97162 3.03282 0
M  V30 21249 O 2049.28 -2.44412 2.59116 0
M  V30 21250 O 2048.14 -3.92874 3.79885 0
M  V30 21251 H 2045.23 -0.618685 0.548779 0
M  V30 21252 H 2047.78 -0.647072 1.56879 0
M  V30 21253 H 2046.55 -1.79376 3.47764 0
M  V30 21254 H 2046.17 -3.1493 2.42703 0
M  V30 21255 N 2047.17 -1.31814 -0.863883 0
M  V30 21256 C 2048.41 -1.22028 -1.61979 0
M  V30 21257 C 2048.75 0.219661 -1.92954 0
M  V30 21258 O 2048.02 1.15428 -1.56546 0
M  V30 21259 C 2048.31 -2.0707 -2.94608 0
M  V30 21260 C 2048.16 -3.59395 -2.70473 0
M  V30 21261 C 2049.48 -1.92477 -3.95779 0
M  V30 21262 H 2046.6 -0.444641 -0.587762 0
M  V30 21263 H 2049.24 -1.61666 -0.998202 0
M  V30 21264 H 2047.39 -1.73395 -3.47659 0
M  V30 21265 H 2049.06 -4.03237 -2.24048 0
M  V30 21266 H 2047.3 -3.82521 -2.04597 0
M  V30 21267 H 2047.97 -4.14213 -3.64871 0
M  V30 21268 H 2050.45 -2.21959 -3.51957 0
M  V30 21269 H 2049.33 -2.54272 -4.86453 0
M  V30 21270 H 2049.59 -0.889783 -4.33053 0
M  V30 21271 N 2048.65 1.07897 -1.14873 0
M  V30 21272 C 2049.89 1.8003 -0.918351 0
M  V30 21273 C 2050.22 1.86897 0.556293 0
M  V30 21274 O 2049.49 1.36584 1.40434 0
M  V30 21275 H 2048.07 0.666777 -0.336776 0
M  V30 21276 H 2050.73 1.30421 -1.44832 0
M  V30 21277 H 2049.82 2.82678 -1.32287 0
M  V30 21278 N 2050.12 0.944665 1.2615 0
M  V30 21279 C 2051.36 0.601621 1.95346 0
M  V30 21280 C 2051.73 -0.844182 1.72446 0
M  V30 21281 O 2052.93 -1.29633 2.35475 0
M  V30 21282 C 2051.2 0.938683 3.44853 0
M  V30 21283 S 2052.76 0.70671 4.33072 0
M  V30 21284 H 2049.58 0.221469 0.675628 0
M  V30 21285 H 2052.18 1.21672 1.53023 0
M  V30 21286 H 2050.88 1.98827 3.59021 0
M  V30 21287 H 2050.41 0.313442 3.92149 0
M  V30 21288 H 2052.43 -0.427395 4.94356 0
M  V30 21289 N 2051.6 -1.40596 0.712085 0
M  V30 21290 C 2052.83 -2.05265 0.259627 0
M  V30 21291 C 2053.25 -1.5364 -1.09728 0
M  V30 21292 O 2052.6 -0.691501 -1.68892 0
M  V30 21293 C 2052.65 -3.60787 0.22693 0
M  V30 21294 O 2052.37 -4.10506 1.53025 0
M  V30 21295 C 2053.88 -4.42625 -0.244507 0
M  V30 21296 H 2051.1 -0.660656 0.117366 0
M  V30 21297 H 2053.64 -1.80069 0.969308 0
M  V30 21298 H 2051.79 -3.84965 -0.43369 0
M  V30 21299 H 2052.21 -5.04676 1.42838 0
M  V30 21300 H 2053.68 -5.51576 -0.216241 0
M  V30 21301 H 2054.16 -4.19948 -1.2861 0
M  V30 21302 H 2054.77 -4.23547 0.385709 0
M  V30 21303 N 2053.08 -0.458013 -1.50798 0
M  V30 21304 C 2054.5 -0.111425 -1.59211 0
M  V30 21305 C 2054.7 1.38104 -1.46729 0
M  V30 21306 O 2053.75 2.15306 -1.31907 0
M  V30 21307 C 2055.07 -0.649971 -2.93591 0
M  V30 21308 C 2056.61 -0.612237 -3.06954 0
M  V30 21309 C 2057.09 -1.1281 -4.43889 0
M  V30 21310 N 2058.58 -1.08696 -4.50266 0
M  V30 21311 C 2059.31 -1.45676 -5.54586 0
M  V30 21312 N 2058.81 -1.90042 -6.66225 0
M  V30 21313 N 2060.6 -1.37362 -5.45058 0
M  V30 21314 H 2052.75 -1.42885 -1.57155 0
M  V30 21315 H 2055.02 -0.590085 -0.741959 0
M  V30 21316 H 2054.72 -1.695 -3.0816 0
M  V30 21317 H 2054.6 -0.0862666 -3.77101 0
M  V30 21318 H 2056.98 0.42385 -2.9204 0
M  V30 21319 H 2057.07 -1.21259 -2.25233 0
M  V30 21320 H 2056.71 -2.16276 -4.59551 0
M  V30 21321 H 2056.64 -0.50409 -5.24182 0
M  V30 21322 H 2059.13 -0.761406 -3.7015 0
M  V30 21323 H 2059.44 -2.16442 -7.41871 0
M  V30 21324 H 2057.79 -1.93985 -6.67379 0
M  V30 21325 H 2060.98 -1.02552 -4.56728 0
M  V30 21326 H 2061.15 -1.66508 -6.26242 0
M  V30 21327 N 2054.56 1.56449 -0.190119 0
M  V30 21328 C 2055.51 2.1547 0.74544 0
M  V30 21329 C 2056.49 1.09408 1.17978 0
M  V30 21330 O 2057.69 1.35483 1.13901 0
M  V30 21331 C 2054.81 2.81371 1.96685 0
M  V30 21332 C 2053.9 3.94617 1.55364 0
M  V30 21333 N 2054.29 4.98588 0.851095 0
M  V30 21334 C 2052.59 4.06126 1.8433 0
M  V30 21335 C 2053.29 5.78116 0.644775 0
M  V30 21336 N 2052.27 5.3037 1.19198 0
M  V30 21337 H 2056.07 2.93219 0.199907 0
M  V30 21338 H 2053.58 1.62397 0.00985994 0
M  V30 21339 H 2055.58 3.22044 2.64752 0
M  V30 21340 H 2054.24 2.05108 2.51716 0
M  V30 21341 H 2055.25 5.15411 0.507098 0
M  V30 21342 H 2051.93 3.40986 2.40905 0
M  V30 21343 H 2053.32 6.71843 0.0878244 0
M  V30 21344 N 2056.04 -0.0835127 1.57379 0
M  V30 21345 C 2056.97 -1.12692 1.99582 0
M  V30 21346 C 2057.98 -1.35658 0.900041 0
M  V30 21347 O 2059.17 -1.34105 1.17805 0
M  V30 21348 C 2056.27 -2.4802 2.30953 0
M  V30 21349 C 2055.44 -2.45172 3.62228 0
M  V30 21350 C 2054.5 -3.62516 3.81403 0
M  V30 21351 O 2053.53 -3.44479 4.53126 0
M  V30 21352 N 2054.73 -4.82432 3.22862 0
M  V30 21353 H 2057.5 -0.767618 2.89703 0
M  V30 21354 H 2055.06 -0.272335 1.59593 0
M  V30 21355 H 2057.05 -3.25144 2.40964 0
M  V30 21356 H 2055.62 -2.75996 1.46781 0
M  V30 21357 H 2054.84 -1.53514 3.6308 0
M  V30 21358 H 2056.13 -2.40359 4.48448 0
M  V30 21359 H 2055.53 -4.9999 2.64625 0
M  V30 21360 H 2054.08 -5.57108 3.3834 0
M  V30 21361 N 2057.52 -1.53558 -0.354624 0
M  V30 21362 C 2058.74 -1.74503 -1.12087 0
M  V30 21363 C 2059.17 -0.477817 -1.8193 0
M  V30 21364 O 2058.52 0.568868 -1.72144 0
M  V30 21365 C 2058.57 -2.91808 -2.1185 0
M  V30 21366 O 2057.68 -2.61182 -3.19152 0
M  V30 21367 H 2057.02 -0.579191 -0.324705 0
M  V30 21368 H 2059.55 -2.00483 -0.4084 0
M  V30 21369 H 2059.56 -3.18284 -2.55263 0
M  V30 21370 H 2058.23 -3.83721 -1.6041 0
M  V30 21371 H 2056.81 -2.45558 -2.80634 0
M  V30 21372 N 2058.99 0.615033 -1.45104 0
M  V30 21373 C 2060.24 1.37627 -1.48952 0
M  V30 21374 C 2060.57 1.93779 -0.127873 0
M  V30 21375 O 2059.85 1.74617 0.856686 0
M  V30 21376 C 2060.13 2.5297 -2.56278 0
M  V30 21377 C 2059.98 2.02063 -4.01859 0
M  V30 21378 C 2061.3 3.55121 -2.59956 0
M  V30 21379 H 2058.42 0.49907 -0.542308 0
M  V30 21380 H 2061.06 0.693977 -1.76873 0
M  V30 21381 H 2059.21 3.11174 -2.326 0
M  V30 21382 H 2060.89 1.48565 -4.36722 0
M  V30 21383 H 2059.13 1.3312 -4.1287 0
M  V30 21384 H 2059.8 2.85176 -4.72629 0
M  V30 21385 H 2062.28 3.06745 -2.81153 0
M  V30 21386 H 2061.15 4.33326 -3.36927 0
M  V30 21387 H 2061.41 4.10251 -1.64761 0
M  V30 21388 N 2060.47 1.3227 0.85688 0
M  V30 21389 C 2061.4 1.16846 1.97179 0
M  V30 21390 C 2062.42 0.10404 1.62467 0
M  V30 21391 O 2063.61 0.352788 1.74979 0
M  V30 21392 C 2060.71 0.76585 3.30133 0
M  V30 21393 C 2059.88 1.91808 3.93101 0
M  V30 21394 C 2058.94 1.49939 5.04386 0
M  V30 21395 O 2057.96 2.21106 5.245 0
M  V30 21396 N 2059.17 0.394147 5.7916 0
M  V30 21397 H 2061.93 2.12882 2.10953 0
M  V30 21398 H 2059.49 1.24777 1.03161 0
M  V30 21399 H 2061.48 0.4682 4.01983 0
M  V30 21400 H 2060.05 -0.103295 3.12429 0
M  V30 21401 H 2059.27 2.38235 3.14067 0
M  V30 21402 H 2060.56 2.68952 4.31906 0
M  V30 21403 H 2059.96 -0.198236 5.65353 0
M  V30 21404 H 2058.52 0.156093 6.51613 0
M  V30 21405 N 2061.95 -1.07287 1.15444 0
M  V30 21406 C 2063.18 -1.83614 0.953597 0
M  V30 21407 C 2063.59 -1.82111 -0.498116 0
M  V30 21408 O 2062.95 -1.233 -1.34548 0
M  V30 21409 C 2063 -3.30668 1.46086 0
M  V30 21410 O 2062.72 -3.32236 2.85571 0
M  V30 21411 C 2064.22 -4.23761 1.3016 0
M  V30 21412 H 2061.44 -0.57928 0.338638 0
M  V30 21413 H 2063.99 -1.35426 1.53232 0
M  V30 21414 H 2062.14 -3.76203 0.924647 0
M  V30 21415 H 2062.56 -4.24117 3.08585 0
M  V30 21416 H 2064.03 -5.25009 1.70497 0
M  V30 21417 H 2064.51 -4.38511 0.245852 0
M  V30 21418 H 2065.11 -3.84062 1.82692 0
M  V30 21419 N 2063.43 -0.951342 -1.25647 0
M  V30 21420 C 2064.34 -0.475416 -2.29732 0
M  V30 21421 C 2065.35 0.455617 -1.67929 0
M  V30 21422 O 2066.53 0.332666 -1.98634 0
M  V30 21423 C 2063.59 0.242274 -3.45852 0
M  V30 21424 C 2062.66 -0.726566 -4.23107 0
M  V30 21425 C 2061.89 -0.043031 -5.33683 0
M  V30 21426 O 2062.11 1.17196 -5.5823 0
M  V30 21427 O 2061.05 -0.726899 -5.97495 0
M  V30 21428 H 2064.87 -1.34027 -2.72526 0
M  V30 21429 H 2062.46 -0.717655 -1.31035 0
M  V30 21430 H 2064.34 0.646132 -4.16417 0
M  V30 21431 H 2063.01 1.08236 -3.05068 0
M  V30 21432 H 2061.92 -1.18057 -3.54984 0
M  V30 21433 H 2063.25 -1.53457 -4.67666 0
M  V30 21434 N 2064.91 1.40216 -0.719531 0
M  V30 21435 C 2066.18 1.94697 -0.18772 0
M  V30 21436 C 2066.56 1.65742 1.30739 0
M  V30 21437 O 2065.91 0.97723 2.06549 0
M  V30 21438 C 2066.12 3.45332 -0.50469 0
M  V30 21439 C 2067.47 4.22256 -0.445515 0
M  V30 21440 O 2068.49 3.5346 -0.440978 0
M  V30 21441 O 2067.35 5.44833 -0.426487 0
M  V30 21442 H 2064.45 0.82649 -0.0290376 0
M  V30 21443 H 2066.99 1.49802 -0.797333 0
M  V30 21444 H 2065.76 3.5978 -1.53863 0
M  V30 21445 H 2065.39 3.97372 0.134684 0
M  V30 21446 N 2066.38 0.466004 1.50553 0
M  V30 21447 C 2067.63 -0.09056 2.01897 0
M  V30 21448 C 2067.95 -1.40673 1.35041 0
M  V30 21449 O 2067.22 -1.89567 0.494095 0
M  V30 21450 H 2065.8 -0.0364574 0.74611 0
M  V30 21451 H 2068.46 0.615265 1.84934 0
M  V30 21452 H 2067.56 -0.245757 3.11131 0
M  V30 21453 N 2067.86 -1.56346 0.198413 0
M  V30 21454 C 2069.09 -2.02058 -0.444989 0
M  V30 21455 C 2069.5 -1.07852 -1.54963 0
M  V30 21456 O 2068.86 -0.0839717 -1.82307 0
M  V30 21457 C 2068.91 -3.47445 -0.99822 0
M  V30 21458 O 2068.63 -4.38056 0.0623476 0
M  V30 21459 C 2070.13 -4.08691 -1.71717 0
M  V30 21460 H 2067.35 -0.661691 -0.111383 0
M  V30 21461 H 2069.9 -2.02166 0.308092 0
M  V30 21462 H 2068.05 -3.48026 -1.70167 0
M  V30 21463 H 2068.47 -5.23331 -0.349939 0
M  V30 21464 H 2069.94 -5.1226 -2.05654 0
M  V30 21465 H 2070.42 -3.52341 -2.62207 0
M  V30 21466 H 2071.02 -4.11892 -1.05949 0
M  V30 21467 N 2069.34 0.0751653 -1.57421 0
M  V30 21468 C 2070.59 0.773427 -1.86715 0
M  V30 21469 C 2070.91 1.78283 -0.789938 0
M  V30 21470 O 2070.18 1.95055 0.18176 0
M  V30 21471 H 2068.76 0.288632 -0.688985 0
M  V30 21472 H 2071.42 0.0520552 -1.9483 0
M  V30 21473 H 2070.52 1.29172 -2.84114 0
M  V30 21474 N 2070.82 1.53744 0.346476 0
M  V30 21475 C 2072.07 1.70512 1.0849 0
M  V30 21476 C 2072.39 0.469467 1.89264 0
M  V30 21477 O 2071.66 -0.516594 1.88966 0
M  V30 21478 H 2070.24 0.628636 0.403517 0
M  V30 21479 H 2072.9 1.9099 0.388459 0
M  V30 21480 H 2072 2.57472 1.76394 0
M  V30 21481 N 2072.3 -0.607329 1.45428 0
M  V30 21482 C 2073.23 -1.73178 1.48609 0
M  V30 21483 C 2074.21 -1.58953 0.342449 0
M  V30 21484 O 2075.39 -1.8051 0.542987 0
M  V30 21485 C 2072.52 -3.11006 1.34138 0
M  V30 21486 C 2071.56 -3.43819 2.52371 0
M  V30 21487 S 2072.4 -3.3863 4.14837 0
M  V30 21488 C 2073.55 -4.79038 4.02831 0
M  V30 21489 H 2073.79 -1.70216 2.4375 0
M  V30 21490 H 2071.32 -0.784003 1.33014 0
M  V30 21491 H 2073.28 -3.90531 1.26476 0
M  V30 21492 H 2071.94 -3.11482 0.40468 0
M  V30 21493 H 2071.13 -4.44174 2.38172 0
M  V30 21494 H 2070.73 -2.7181 2.56896 0
M  V30 21495 H 2073.03 -5.68848 3.67991 0
M  V30 21496 H 2073.97 -4.98294 5.03099 0
M  V30 21497 H 2074.38 -4.54732 3.34484 0
M  V30 21498 N 2073.77 -1.32722 -0.849853 0
M  V30 21499 C 2074.74 -1.21991 -1.94038 0
M  V30 21500 C 2075.74 -0.141727 -1.60174 0
M  V30 21501 O 2076.93 -0.392477 -1.69721 0
M  V30 21502 C 2074.06 -0.877223 -3.2942 0
M  V30 21503 H 2075.25 -2.18913 -2.04981 0
M  V30 21504 H 2072.81 -1.16623 -1.04062 0
M  V30 21505 H 2073.54 0.0899704 -3.24175 0
M  V30 21506 H 2073.33 -1.65681 -3.55376 0
M  V30 21507 H 2074.82 -0.826588 -4.09338 0
M  V30 21508 N 2075.25 1.06673 -1.16011 0
M  V30 21509 C 2076.67 1.31515 -0.90421 0
M  V30 21510 C 2076.87 1.96524 0.445021 0
M  V30 21511 O 2075.92 2.22945 1.18541 0
M  V30 21512 C 2077.24 2.19955 -2.05037 0
M  V30 21513 C 2078.79 2.33384 -2.08569 0
M  V30 21514 C 2079.26 3.25176 -3.22528 0
M  V30 21515 N 2080.75 3.32759 -3.2222 0
M  V30 21516 C 2081.49 4.03866 -4.07038 0
M  V30 21517 N 2080.98 4.77529 -5.01934 0
M  V30 21518 N 2082.78 3.99877 -3.95037 0
M  V30 21519 H 2074.93 0.628672 -2.02883 0
M  V30 21520 H 2077.19 0.339704 -0.885045 0
M  V30 21521 H 2076.9 1.79458 -3.02469 0
M  V30 21522 H 2076.77 3.20521 -1.98862 0
M  V30 21523 H 2079.16 2.7313 -1.11732 0
M  V30 21524 H 2079.24 1.32499 -2.1881 0
M  V30 21525 H 2078.88 2.86147 -4.19622 0
M  V30 21526 H 2078.81 4.26031 -3.09524 0
M  V30 21527 H 2081.3 2.80259 -2.53502 0
M  V30 21528 H 2081.62 5.29302 -5.6308 0
M  V30 21529 H 2079.96 4.76522 -5.05917 0
M  V30 21530 H 2083.15 3.41446 -3.20207 0
M  V30 21531 H 2083.32 4.55027 -4.61361 0
M  V30 21532 N 2076.73 0.957992 1.25141 0
M  V30 21533 C 2077.69 0.485333 2.24003 0
M  V30 21534 C 2078.69 -0.412817 1.55411 0
M  V30 21535 O 2079.88 -0.209635 1.72934 0
M  V30 21536 C 2077.02 -0.298362 3.39592 0
M  V30 21537 H 2078.21 1.35918 2.67332 0
M  V30 21538 H 2075.76 0.741602 1.37586 0
M  V30 21539 H 2076.5 -1.18973 3.01688 0
M  V30 21540 H 2076.28 0.346033 3.9057 0
M  V30 21541 H 2077.77 -0.618412 4.12996 0
M  V30 21542 N 2078.21 -1.39832 0.726957 0
M  V30 21543 C 2079.45 -2.00971 0.271788 0
M  V30 21544 C 2079.79 -1.57537 -1.13559 0
M  V30 21545 O 2079.06 -0.800579 -1.7726 0
M  V30 21546 C 2079.35 -3.5825 0.364596 0
M  V30 21547 C 2079.2 -4.11724 1.81117 0
M  V30 21548 C 2080.52 -4.39345 -0.257652 0
M  V30 21549 H 2077.64 -0.730152 0.100232 0
M  V30 21550 H 2080.28 -1.66152 0.921599 0
M  V30 21551 H 2078.43 -3.88042 -0.18865 0
M  V30 21552 H 2080.1 -3.92684 2.42068 0
M  V30 21553 H 2078.34 -3.65585 2.33516 0
M  V30 21554 H 2079.01 -5.20873 1.82743 0
M  V30 21555 H 2081.49 -4.1555 0.213875 0
M  V30 21556 H 2080.37 -5.4866 -0.162327 0
M  V30 21557 H 2080.63 -4.21218 -1.34267 0
M  V30 21558 N 2079.69 -0.473982 -1.50304 0
M  V30 21559 C 2080.65 0.307394 -2.27129 0
M  V30 21560 C 2081.65 0.917901 -1.32027 0
M  V30 21561 O 2082.84 0.78663 -1.55428 0
M  V30 21562 C 2079.97 1.4382 -3.09077 0
M  V30 21563 H 2081.16 -0.366396 -2.97653 0
M  V30 21564 H 2078.72 -0.228128 -1.54626 0
M  V30 21565 H 2079.45 2.14696 -2.43056 0
M  V30 21566 H 2079.24 1.0062 -3.7897 0
M  V30 21567 H 2080.73 1.98932 -3.67173 0
M  V30 21568 N 2081.16 1.56239 -0.206702 0
M  V30 21569 C 2082.11 2.19624 0.709491 0
M  V30 21570 C 2083.08 1.1471 1.20128 0
M  V30 21571 O 2084.27 1.43008 1.26307 0
M  V30 21572 C 2081.41 2.8686 1.91847 0
M  V30 21573 C 2080.52 4.0633 1.46696 0
M  V30 21574 C 2079.65 4.6139 2.63235 0
M  V30 21575 C 2078.69 5.73193 2.14747 0
M  V30 21576 N 2077.83 6.22608 3.24505 0
M  V30 21577 H 2082.67 2.97558 0.162225 0
M  V30 21578 H 2080.21 1.46941 0.0683253 0
M  V30 21579 H 2082.17 3.24019 2.62807 0
M  V30 21580 H 2080.8 2.1147 2.43886 0
M  V30 21581 H 2079.85 3.74757 0.652809 0
M  V30 21582 H 2081.16 4.87159 1.07131 0
M  V30 21583 H 2080.31 5.00914 3.42301 0
M  V30 21584 H 2079.05 3.79693 3.0608 0
M  V30 21585 H 2078.06 5.33186 1.34139 0
M  V30 21586 H 2079.28 6.56716 1.72919 0
M  V30 21587 H 2077.23 5.43829 3.66859 0
M  V30 21588 H 2077.15 6.98521 2.89145 0
M  V30 21589 H 2078.41 6.66788 4.0375 0
M  V30 21590 N 2082.64 -0.0668159 1.57458 0
M  V30 21591 C 2083.61 -1.06329 2.03044 0
M  V30 21592 C 2084.61 -1.31301 0.928259 0
M  V30 21593 O 2085.8 -1.26938 1.193 0
M  V30 21594 C 2082.93 -2.40573 2.41532 0
M  V30 21595 H 2084.12 -0.67029 2.92313 0
M  V30 21596 H 2081.67 -0.312678 1.53141 0
M  V30 21597 H 2082.41 -2.84695 1.55303 0
M  V30 21598 H 2082.19 -2.23788 3.21965 0
M  V30 21599 H 2083.68 -3.12189 2.77359 0
M  V30 21600 N 2084.12 -1.53926 -0.338317 0
M  V30 21601 C 2085.08 -1.81578 -1.39865 0
M  V30 21602 C 2086.08 -0.687011 -1.45385 0
M  V30 21603 O 2087.27 -0.955305 -1.45669 0
M  V30 21604 C 2084.41 -1.96252 -2.78744 0
M  V30 21605 H 2085.6 -2.76302 -1.16608 0
M  V30 21606 H 2083.15 -1.45418 -0.572996 0
M  V30 21607 H 2083.89 -1.03688 -3.07277 0
M  V30 21608 H 2083.67 -2.78376 -2.76133 0
M  V30 21609 H 2085.16 -2.19144 -3.5548 0
M  V30 21610 N 2085.6 0.599608 -1.45748 0
M  V30 21611 C 2086.53 1.72038 -1.57877 0
M  V30 21612 C 2087.51 1.64578 -0.429893 0
M  V30 21613 O 2088.7 1.82855 -0.654037 0
M  V30 21614 C 2085.83 3.10657 -1.55272 0
M  V30 21615 C 2084.78 3.32936 -2.68957 0
M  V30 21616 C 2084.11 4.71909 -2.51408 0
M  V30 21617 C 2085.41 3.22412 -4.10911 0
M  V30 21618 H 2087.1 1.62144 -2.51694 0
M  V30 21619 H 2084.65 0.778641 -1.21133 0
M  V30 21620 H 2086.6 3.8887 -1.62353 0
M  V30 21621 H 2085.32 3.21411 -0.579891 0
M  V30 21622 H 2083.98 2.57117 -2.61317 0
M  V30 21623 H 2083.63 4.79406 -1.52247 0
M  V30 21624 H 2083.33 4.8777 -3.2765 0
M  V30 21625 H 2084.85 5.52311 -2.60355 0
M  V30 21626 H 2086.27 3.90488 -4.19752 0
M  V30 21627 H 2084.66 3.498 -4.87607 0
M  V30 21628 H 2085.73 2.19732 -4.32256 0
M  V30 21629 N 2087.08 1.33171 0.842803 0
M  V30 21630 C 2088.3 1.27579 1.63519 0
M  V30 21631 C 2088.73 -0.151151 1.87492 0
M  V30 21632 O 2088.09 -1.10648 1.4362 0
M  V30 21633 C 2088.13 2.05261 2.9648 0
M  V30 21634 O 2087.24 1.40852 3.87601 0
M  V30 21635 H 2086.58 0.439106 0.498078 0
M  V30 21636 H 2089.11 1.75672 1.04883 0
M  V30 21637 H 2089.12 2.15879 3.46209 0
M  V30 21638 H 2087.79 3.09018 2.78354 0
M  V30 21639 H 2086.37 1.38855 3.46083 0
M  V30 21640 N 2088.56 -1.06056 1.16576 0
M  V30 21641 C 2089.97 -1.60363 0.956067 0
M  V30 21642 C 2090.32 -1.89737 -0.499436 0
M  V30 21643 O 2089.44 -1.67257 -1.3731 0
M  V30 21644 C 2090.04 -2.91353 1.72913 0
M  V30 21645 C 2088.6 -3.42352 1.56436 0
M  V30 21646 C 2087.74 -2.1621 1.73633 0
M  V30 21647 H 2090.69 -0.889768 1.31411 0
M  V30 21648 H 2090.72 -3.6087 1.20636 0
M  V30 21649 H 2090.23 -2.69942 2.78842 0
M  V30 21650 H 2088.33 -3.68817 0.529577 0
M  V30 21651 H 2088.44 -4.17519 2.34978 0
M  V30 21652 H 2086.81 -2.26548 1.16396 0
M  V30 21653 H 2087.59 -1.97279 2.80955 0
M  V30 21654 N 2090.03 -0.964615 -1.24631 0
M  V30 21655 C 2091.28 -0.625742 -1.92905 0
M  V30 21656 C 2091.61 0.836529 -1.75259 0
M  V30 21657 O 2090.89 1.60146 -1.10379 0
M  V30 21658 C 2091.17 -0.997473 -3.46009 0
M  V30 21659 C 2091.02 -2.51621 -3.72836 0
M  V30 21660 C 2092.34 -0.529778 -4.369 0
M  V30 21661 H 2089.46 -0.228804 -0.700584 0
M  V30 21662 H 2092.1 -1.20306 -1.47059 0
M  V30 21663 H 2090.25 -0.506207 -3.85188 0
M  V30 21664 H 2091.93 -3.082 -3.43235 0
M  V30 21665 H 2090.17 -2.94954 -3.18095 0
M  V30 21666 H 2090.84 -2.72681 -4.79947 0
M  V30 21667 H 2093.32 -0.951326 -4.05079 0
M  V30 21668 H 2092.19 -0.818472 -5.42764 0
M  V30 21669 H 2092.45 0.570178 -4.38408 0
M  V30 21670 N 2091.51 1.39445 -0.734362 0
M  V30 21671 C 2092.44 2.29135 -0.0543743 0
M  V30 21672 C 2093.46 1.46785 0.704126 0
M  V30 21673 O 2094.65 1.69867 0.548394 0
M  V30 21674 C 2091.75 3.25393 0.947229 0
M  V30 21675 C 2090.92 4.36683 0.250381 0
M  V30 21676 C 2089.98 5.13255 1.16 0
M  V30 21677 O 2089 5.65616 0.637723 0
M  V30 21678 N 2090.21 5.24396 2.48976 0
M  V30 21679 H 2092.97 2.88134 -0.824567 0
M  V30 21680 H 2090.53 1.51018 -0.583531 0
M  V30 21681 H 2092.52 3.73494 1.55834 0
M  V30 21682 H 2091.09 2.6743 1.61863 0
M  V30 21683 H 2090.31 3.90467 -0.5412 0
M  V30 21684 H 2091.6 5.08268 -0.232571 0
M  V30 21685 H 2091 4.83371 2.93885 0
M  V30 21686 H 2089.56 5.75939 3.05185 0
M  V30 21687 N 2092.99 0.481946 1.5005 0
M  V30 21688 C 2093.9 -0.311606 2.32521 0
M  V30 21689 C 2094.92 -0.985661 1.4339 0
M  V30 21690 O 2096.09 -0.971246 1.76433 0
M  V30 21691 C 2093.16 -1.37313 3.18349 0
M  V30 21692 C 2092.22 -0.714526 4.23312 0
M  V30 21693 C 2091.45 -1.72547 5.05038 0
M  V30 21694 O 2091.67 -2.95324 4.87996 0
M  V30 21695 O 2090.61 -1.2913 5.87885 0
M  V30 21696 H 2094.43 0.362909 3.01524 0
M  V30 21697 H 2092.02 0.243598 1.47401 0
M  V30 21698 H 2093.9 -1.98774 3.71573 0
M  V30 21699 H 2092.58 -2.03091 2.52063 0
M  V30 21700 H 2091.48 -0.0606687 3.74051 0
M  V30 21701 H 2092.82 -0.099506 4.92099 0
M  V30 21702 N 2094.47 -1.56127 0.214985 0
M  V30 21703 C 2095.42 -2.16628 -0.711066 0
M  V30 21704 C 2096.4 -1.11271 -1.16222 0
M  V30 21705 O 2097.59 -1.37278 -1.11731 0
M  V30 21706 C 2094.72 -2.84465 -1.92184 0
M  V30 21707 C 2093.81 -3.97039 -1.49067 0
M  V30 21708 N 2094.2 -4.99879 -0.771666 0
M  V30 21709 C 2092.5 -4.09007 -1.77846 0
M  V30 21710 C 2093.2 -5.79068 -0.55272 0
M  V30 21711 N 2092.17 -5.322 -1.10745 0
M  V30 21712 H 2095.98 -2.935 -0.153234 0
M  V30 21713 H 2093.49 -1.62392 0.0159773 0
M  V30 21714 H 2095.49 -3.26215 -2.59595 0
M  V30 21715 H 2094.15 -2.09087 -2.48421 0
M  V30 21716 H 2095.16 -5.16153 -0.425036 0
M  V30 21717 H 2091.84 -3.44775 -2.35449 0
M  V30 21718 H 2093.23 -6.71897 0.019071 0
M  V30 21719 N 2095.95 0.0584645 -1.57492 0
M  V30 21720 C 2096.86 1.08563 -2.07969 0
M  V30 21721 C 2097.87 1.41545 -1.01198 0
M  V30 21722 O 2099.05 1.51455 -1.32753 0
M  V30 21723 C 2096.11 2.37616 -2.52467 0
M  V30 21724 C 2095.17 2.11485 -3.73594 0
M  V30 21725 C 2094.41 3.34384 -4.1596 0
M  V30 21726 O 2094.63 4.43997 -3.58083 0
M  V30 21727 O 2093.56 3.21812 -5.08646 0
M  V30 21728 H 2097.39 0.686764 -2.95833 0
M  V30 21729 H 2094.97 0.273502 -1.46875 0
M  V30 21730 H 2096.86 3.13541 -2.81549 0
M  V30 21731 H 2095.53 2.76857 -1.67726 0
M  V30 21732 H 2094.44 1.33222 -3.49575 0
M  V30 21733 H 2095.77 1.77117 -4.59228 0
M  V30 21734 N 2097.42 1.54103 0.330149 0
M  V30 21735 C 2098.65 1.75948 1.08857 0
M  V30 21736 C 2099.07 0.504949 1.81922 0
M  V30 21737 O 2098.42 -0.524053 1.74814 0
M  V30 21738 C 2098.47 2.94836 2.09175 0
M  V30 21739 O 2098.2 4.15438 1.39079 0
M  V30 21740 C 2099.7 3.28839 2.97287 0
M  V30 21741 H 2096.92 0.587551 0.324076 0
M  V30 21742 H 2099.46 2.00971 0.378279 0
M  V30 21743 H 2097.62 2.72105 2.75749 0
M  V30 21744 H 2098.03 4.82266 2.06204 0
M  V30 21745 H 2099.5 4.15343 3.63586 0
M  V30 21746 H 2099.98 2.4572 3.64031 0
M  V30 21747 H 2100.59 3.53624 2.36284 0
M  V30 21748 N 2098.9 -0.59187 1.46064 0
M  V30 21749 C 2100.15 -1.34773 1.50601 0
M  V30 21750 C 2100.47 -1.94379 0.155452 0
M  V30 21751 O 2099.74 -1.7805 -0.816999 0
M  V30 21752 H 2098.32 -0.50037 0.554652 0
M  V30 21753 H 2100.98 -0.69386 1.82131 0
M  V30 21754 H 2100.08 -2.15914 2.25361 0
M  V30 21755 N 2100.38 -1.33616 -0.835729 0
M  V30 21756 C 2101.8 -1.13019 -1.12689 0
M  V30 21757 C 2102 0.0768335 -2.01353 0
M  V30 21758 O 2101.05 0.756169 -2.40911 0
M  V30 21759 C 2102.37 -2.41918 -1.78595 0
M  V30 21760 C 2103.91 -2.47854 -1.91147 0
M  V30 21761 C 2104.39 -3.76723 -2.60469 0
M  V30 21762 N 2105.88 -3.77811 -2.67979 0
M  V30 21763 C 2106.61 -4.74237 -3.22315 0
M  V30 21764 N 2106.11 -5.81039 -3.77313 0
M  V30 21765 N 2107.9 -4.61709 -3.20596 0
M  V30 21766 H 2100.05 -2.10974 -0.245697 0
M  V30 21767 H 2102.32 -0.932353 -0.171526 0
M  V30 21768 H 2102.02 -3.30264 -1.20906 0
M  V30 21769 H 2101.9 -2.54302 -2.78586 0
M  V30 21770 H 2104.28 -1.59955 -2.47989 0
M  V30 21771 H 2104.37 -2.39408 -0.900965 0
M  V30 21772 H 2104.01 -4.65005 -2.04286 0
M  V30 21773 H 2103.94 -3.82447 -3.61998 0
M  V30 21774 H 2106.43 -3.00626 -2.28982 0
M  V30 21775 H 2106.74 -6.50648 -4.16986 0
M  V30 21776 H 2105.09 -5.8477 -3.75592 0
M  V30 21777 H 2108.28 -3.77426 -2.76888 0
M  V30 21778 H 2108.45 -5.37026 -3.62639 0
M  V30 21779 N 2101.86 1.05436 -1.17136 0
M  V30 21780 C 2103.27 1.30549 -0.918108 0
M  V30 21781 C 2103.47 1.96985 0.424152 0
M  V30 21782 O 2102.53 2.24189 1.1617 0
M  V30 21783 C 2103.84 2.17768 -2.07358 0
M  V30 21784 C 2105.39 2.31158 -2.11033 0
M  V30 21785 C 2105.87 3.21737 -3.25959 0
M  V30 21786 N 2107.36 3.29322 -3.25731 0
M  V30 21787 C 2108.09 3.99526 -4.11299 0
M  V30 21788 N 2107.59 4.72178 -5.06971 0
M  V30 21789 N 2109.38 3.95665 -3.99256 0
M  V30 21790 H 2101.53 0.607118 -2.03538 0
M  V30 21791 H 2103.8 0.330298 -0.888599 0
M  V30 21792 H 2103.5 1.7624 -3.04356 0
M  V30 21793 H 2103.38 3.18394 -2.02251 0
M  V30 21794 H 2105.76 2.71929 -1.14623 0
M  V30 21795 H 2105.84 1.30171 -2.20203 0
M  V30 21796 H 2105.49 2.8168 -4.22633 0
M  V30 21797 H 2105.42 4.22724 -3.14025 0
M  V30 21798 H 2107.91 2.77555 -2.5646 0
M  V30 21799 H 2108.22 5.233 -5.68662 0
M  V30 21800 H 2106.57 4.71129 -5.10943 0
M  V30 21801 H 2109.76 3.3803 -3.2381 0
M  V30 21802 H 2109.93 4.50108 -4.66161 0
M  V30 21803 N 2103.34 0.971211 1.24118 0
M  V30 21804 C 2104.56 0.652357 1.96873 0
M  V30 21805 C 2104.99 -0.772193 1.71519 0
M  V30 21806 O 2104.34 -1.52463 0.981051 0
M  V30 21807 C 2104.39 0.937388 3.48203 0
M  V30 21808 O 2103.5 0.0246311 4.12393 0
M  V30 21809 H 2102.84 0.246274 0.61664 0
M  V30 21810 H 2105.37 1.30231 1.578 0
M  V30 21811 H 2105.38 0.870349 3.98609 0
M  V30 21812 H 2104.05 1.97556 3.65984 0
M  V30 21813 H 2102.63 0.145292 3.72617 0
M  V30 21814 N 2104.81 -1.39054 0.741747 0
M  V30 21815 C 2106.04 -2.05193 0.301789 0
M  V30 21816 C 2106.46 -1.55567 -1.05739 0
M  V30 21817 O 2105.82 -0.702382 -1.67141 0
M  V30 21818 C 2105.87 -3.59172 0.320615 0
M  V30 21819 O 2104.97 -4.06596 -0.68946 0
M  V30 21820 H 2104.32 -0.649957 0.135837 0
M  V30 21821 H 2106.85 -1.77958 1.00956 0
M  V30 21822 H 2106.86 -4.07657 0.167351 0
M  V30 21823 H 2105.53 -3.94652 1.31234 0
M  V30 21824 H 2104.11 -3.69509 -0.50178 0
M  V30 21825 N 2106.29 -0.489897 -1.49792 0
M  V30 21826 C 2107.52 0.0578875 -2.07319 0
M  V30 21827 C 2107.94 1.31067 -1.34919 0
M  V30 21828 O 2107.3 1.76775 -0.402515 0
M  V30 21829 C 2107.35 0.305835 -3.59301 0
M  V30 21830 O 2106.45 1.38274 -3.88528 0
M  V30 21831 H 2105.79 -0.021301 -0.663658 0
M  V30 21832 H 2108.32 -0.686335 -1.92745 0
M  V30 21833 H 2108.33 0.540697 -4.04401 0
M  V30 21834 H 2107.01 -0.609525 -4.11409 0
M  V30 21835 H 2105.59 1.13371 -3.55248 0
M  V30 21836 N 2107.77 1.56011 -0.223262 0
M  V30 21837 C 2109.02 1.97956 0.407171 0
M  V30 21838 C 2109.34 1.11219 1.60173 0
M  V30 21839 O 2108.61 0.189604 1.9498 0
M  V30 21840 H 2107.19 0.731075 0.153424 0
M  V30 21841 H 2109.85 1.92312 -0.316554 0
M  V30 21842 H 2108.95 3.03386 0.732342 0
M  V30 21843 N 2109.25 -0.0501116 1.5752 0
M  V30 21844 C 2110.16 -1.07459 2.08542 0
M  V30 21845 C 2111.17 -1.41006 1.01947 0
M  V30 21846 O 2112.35 -1.50749 1.33555 0
M  V30 21847 C 2109.42 -2.36274 2.53723 0
M  V30 21848 C 2108.48 -2.095 3.74711 0
M  V30 21849 C 2107.71 -3.32174 4.17728 0
M  V30 21850 O 2107.93 -4.42091 3.60432 0
M  V30 21851 O 2106.87 -3.1911 5.10346 0
M  V30 21852 H 2110.69 -0.671065 2.96193 0
M  V30 21853 H 2108.28 -0.265709 1.47018 0
M  V30 21854 H 2110.16 -3.12043 2.83208 0
M  V30 21855 H 2108.83 -2.75963 1.69192 0
M  V30 21856 H 2107.74 -1.31366 3.50277 0
M  V30 21857 H 2109.07 -1.74679 4.60161 0
M  V30 21858 N 2110.73 -1.54276 -0.321972 0
M  V30 21859 C 2111.69 -1.83051 -1.37931 0
M  V30 21860 C 2112.69 -0.702392 -1.44648 0
M  V30 21861 O 2113.88 -0.970701 -1.44648 0
M  V30 21862 C 2111.01 -1.99197 -2.76647 0
M  V30 21863 H 2112.2 -2.77523 -1.1367 0
M  V30 21864 H 2109.76 -1.46018 -0.55754 0
M  V30 21865 H 2110.49 -1.06942 -3.0616 0
M  V30 21866 H 2110.28 -2.81289 -2.73164 0
M  V30 21867 H 2111.77 -2.22902 -3.53135 0
M  V30 21868 N 2112.2 0.584116 -1.46376 0
M  V30 21869 C 2113.45 1.33973 -1.51313 0
M  V30 21870 C 2113.77 1.94294 -0.165758 0
M  V30 21871 O 2113.04 1.78481 0.807546 0
M  V30 21872 H 2111.62 0.497422 -0.557298 0
M  V30 21873 H 2114.29 0.684191 -1.82496 0
M  V30 21874 H 2113.38 2.14716 -2.26503 0
M  V30 21875 N 2113.68 1.34058 0.828631 0
M  V30 21876 C 2114.91 1.29156 1.61636 0
M  V30 21877 C 2115.33 -0.135511 1.88313 0
M  V30 21878 O 2114.68 -1.08084 1.47051 0
M  V30 21879 C 2114.73 2.07436 2.96062 0
M  V30 21880 O 2114.46 3.44577 2.70552 0
M  V30 21881 C 2115.96 2.09865 3.90476 0
M  V30 21882 H 2113.18 0.444543 0.502615 0
M  V30 21883 H 2115.72 1.76585 1.0314 0
M  V30 21884 H 2113.88 1.63663 3.51131 0
M  V30 21885 H 2114.29 3.84972 3.56225 0
M  V30 21886 H 2115.76 2.69071 4.8198 0
M  V30 21887 H 2116.24 1.09155 4.2542 0
M  V30 21888 H 2116.85 2.53702 3.41344 0
M  V30 21889 N 2115.16 -1.04814 1.17694 0
M  V30 21890 C 2116.57 -1.5934 0.973022 0
M  V30 21891 C 2116.92 -1.90256 -0.479284 0
M  V30 21892 O 2116.05 -1.68704 -1.35528 0
M  V30 21893 C 2116.64 -2.89503 1.75993 0
M  V30 21894 C 2115.2 -3.40674 1.60058 0
M  V30 21895 C 2114.35 -2.14356 1.75916 0
M  V30 21896 H 2117.3 -0.87578 1.32347 0
M  V30 21897 H 2117.32 -3.5957 1.24457 0
M  V30 21898 H 2116.83 -2.6697 2.81689 0
M  V30 21899 H 2114.93 -3.68235 0.568665 0
M  V30 21900 H 2115.05 -4.15004 2.39393 0
M  V30 21901 H 2113.41 -2.25301 1.18793 0
M  V30 21902 H 2114.19 -1.94288 2.83032 0
M  V30 21903 N 2116.64 -0.977779 -1.23601 0
M  V30 21904 C 2117.57 -0.535228 -2.27283 0
M  V30 21905 C 2118.55 0.430261 -1.64568 0
M  V30 21906 O 2119.74 0.324195 -1.91475 0
M  V30 21907 C 2116.87 0.165683 -3.46905 0
M  V30 21908 C 2115.82 -0.716827 -4.21954 0
M  V30 21909 C 2115.15 0.116149 -5.34574 0
M  V30 21910 C 2116.45 -2.00636 -4.82227 0
M  V30 21911 H 2118.14 -1.40185 -2.64553 0
M  V30 21912 H 2115.69 -0.67551 -1.27173 0
M  V30 21913 H 2117.64 0.486573 -4.18581 0
M  V30 21914 H 2116.36 1.06674 -3.08688 0
M  V30 21915 H 2115.02 -1.02114 -3.52091 0
M  V30 21916 H 2114.67 1.01766 -4.92598 0
M  V30 21917 H 2114.37 -0.471195 -5.85708 0
M  V30 21918 H 2115.89 0.431481 -6.09074 0
M  V30 21919 H 2117.31 -1.75041 -5.45925 0
M  V30 21920 H 2115.7 -2.54126 -5.43636 0
M  V30 21921 H 2116.77 -2.69488 -4.03118 0
M  V30 21922 N 2118.12 1.38658 -0.749111 0
M  V30 21923 C 2119.36 2.00513 -0.303727 0
M  V30 21924 C 2119.7 1.59324 1.11039 0
M  V30 21925 O 2118.97 0.828679 1.75964 0
M  V30 21926 C 2119.25 3.57624 -0.421545 0
M  V30 21927 C 2119.11 4.0879 -1.87644 0
M  V30 21928 C 2120.43 4.39699 0.187724 0
M  V30 21929 H 2117.55 0.728465 -0.111835 0
M  V30 21930 H 2120.19 1.64665 -0.947915 0
M  V30 21931 H 2118.34 3.88293 0.126892 0
M  V30 21932 H 2120.01 3.88784 -2.48284 0
M  V30 21933 H 2118.25 3.61824 -2.39303 0
M  V30 21934 H 2118.92 5.179 -1.91006 0
M  V30 21935 H 2121.4 4.15157 -0.279958 0
M  V30 21936 H 2120.28 5.48849 0.0750199 0
M  V30 21937 H 2120.54 4.23301 1.27549 0
M  V30 21938 N 2119.6 0.497834 1.49531 0
M  V30 21939 C 2121.01 0.0492618 1.86635 0
M  V30 21940 C 2121.36 -1.36386 1.41044 0
M  V30 21941 O 2120.48 -2.01584 0.786942 0
M  V30 21942 C 2121.08 0.0826203 3.38699 0
M  V30 21943 C 2119.64 -0.310596 3.75116 0
M  V30 21944 C 2118.78 0.456535 2.73516 0
M  V30 21945 H 2121.73 0.71078 1.41893 0
M  V30 21946 H 2121.76 -0.713419 3.73752 0
M  V30 21947 H 2121.27 1.11123 3.71851 0
M  V30 21948 H 2119.37 -1.34255 3.47572 0
M  V30 21949 H 2119.48 0.0066527 4.791 0
M  V30 21950 H 2117.85 -0.0932284 2.54529 0
M  V30 21951 H 2118.63 1.48516 3.09512 0
M  V30 21952 N 2121.07 -1.5589 0.231532 0
M  V30 21953 C 2122.32 -1.97737 -0.397859 0
M  V30 21954 C 2122.64 -1.12252 -1.60184 0
M  V30 21955 O 2123.84 -1.44042 -2.30139 0
M  V30 21956 C 2122.3 -3.518 -0.759238 0
M  V30 21957 C 2121.91 -4.46003 0.422484 0
M  V30 21958 C 2123.65 -4.02338 -1.35368 0
M  V30 21959 C 2121.56 -5.91388 0.0381149 0
M  V30 21960 H 2120.49 -0.738433 -0.152423 0
M  V30 21961 H 2123.14 -1.80521 0.329322 0
M  V30 21962 H 2121.52 -3.64654 -1.54412 0
M  V30 21963 H 2122.69 -4.44902 1.19996 0
M  V30 21964 H 2121.01 -4.05863 0.930821 0
M  V30 21965 H 2123.61 -5.08464 -1.65433 0
M  V30 21966 H 2123.95 -3.48776 -2.2729 0
M  V30 21967 H 2124.48 -3.92747 -0.632021 0
M  V30 21968 H 2121.22 -6.48954 0.924083 0
M  V30 21969 H 2120.74 -5.9566 -0.703473 0
M  V30 21970 H 2122.42 -6.45853 -0.385094 0
M  V30 21971 N 2122.55 0.0417572 -1.57545 0
M  V30 21972 C 2123.8 0.736189 -1.88966 0
M  V30 21973 C 2124.13 1.75678 -0.827697 0
M  V30 21974 O 2123.41 1.93851 0.158734 0
M  V30 21975 C 2123.69 1.4172 -3.3104 0
M  V30 21976 C 2123.54 0.410987 -4.47918 0
M  V30 21977 C 2124.86 2.3545 -3.71822 0
M  V30 21978 H 2121.98 0.266166 -0.687259 0
M  V30 21979 H 2124.62 -0.000952352 -1.9 0
M  V30 21980 H 2122.77 2.04552 -3.30289 0
M  V30 21981 H 2124.44 -0.214433 -4.60801 0
M  V30 21982 H 2122.69 -0.270954 -4.32953 0
M  V30 21983 H 2123.36 0.925718 -5.44182 0
M  V30 21984 H 2125.83 1.82673 -3.73858 0
M  V30 21985 H 2124.71 2.80087 -4.72062 0
M  V30 21986 H 2124.97 3.21575 -3.03384 0
M  V30 21987 N 2124.03 1.54445 0.313786 0
M  V30 21988 C 2125.28 1.73373 1.05212 0
M  V30 21989 C 2125.61 0.511165 1.87352 0
M  V30 21990 O 2124.88 -0.491833 1.88179 0
M  V30 21991 C 2125.17 3.01517 1.96874 0
M  V30 21992 C 2125.02 4.34046 1.17999 0
M  V30 21993 C 2126.34 3.25462 2.96248 0
M  V30 21994 H 2123.46 0.630823 0.381092 0
M  V30 21995 H 2126.1 1.87149 0.327891 0
M  V30 21996 H 2124.25 2.89903 2.58628 0
M  V30 21997 H 2125.92 4.57559 0.586302 0
M  V30 21998 H 2124.16 4.31109 0.482437 0
M  V30 21999 H 2124.84 5.19949 1.85355 0
M  V30 22000 H 2127.31 3.36602 2.44619 0
M  V30 22001 H 2126.19 4.16464 3.57559 0
M  V30 22002 H 2126.45 2.43151 3.69229 0
M  V30 22003 N 2125.51 -0.576345 1.46683 0
M  V30 22004 C 2126.42 -1.71268 1.60326 0
M  V30 22005 C 2127.43 -1.67059 0.486559 0
M  V30 22006 O 2128.61 -1.86852 0.75154 0
M  V30 22007 C 2125.67 -3.07775 1.5961 0
M  V30 22008 C 2124.74 -3.232 2.8256 0
M  V30 22009 C 2123.97 -4.53195 2.81869 0
M  V30 22010 O 2124.19 -5.37478 1.90979 0
M  V30 22011 O 2123.13 -4.72003 3.73493 0
M  V30 22012 H 2126.95 -1.62705 2.56439 0
M  V30 22013 H 2124.54 -0.744135 1.29549 0
M  V30 22014 H 2126.42 -3.89046 1.61929 0
M  V30 22015 H 2125.09 -3.16762 0.666583 0
M  V30 22016 H 2124 -2.41398 2.85793 0
M  V30 22017 H 2125.33 -3.19107 3.74742 0
M  V30 22018 N 2126.99 -1.34495 -0.82151 0
M  V30 22019 C 2128.4 -1.24152 -1.39439 0
M  V30 22020 C 2128.75 0.1324 -1.95753 0
M  V30 22021 O 2127.87 1.03279 -1.90164 0
M  V30 22022 C 2128.47 -2.24789 -2.53487 0
M  V30 22023 C 2127.03 -2.18232 -3.06679 0
M  V30 22024 C 2126.17 -2.11315 -1.79558 0
M  V30 22025 H 2129.12 -1.45841 -0.625789 0
M  V30 22026 H 2129.15 -1.8657 -3.3162 0
M  V30 22027 H 2128.66 -3.24774 -2.1247 0
M  V30 22028 H 2126.76 -1.21608 -3.52196 0
M  V30 22029 H 2126.87 -3.09548 -3.65673 0
M  V30 22030 H 2125.24 -1.57058 -2.00512 0
M  V30 22031 H 2126.02 -3.13136 -1.40714 0
M  V30 22032 N 2128.46 1.04188 -1.18248 0
M  V30 22033 C 2129.43 2.10339 -0.910507 0
M  V30 22034 C 2130.43 1.60466 0.103607 0
M  V30 22035 O 2131.62 1.73717 -0.129699 0
M  V30 22036 C 2128.75 3.38931 -0.36584 0
M  V30 22037 H 2129.94 2.359 -1.85179 0
M  V30 22038 H 2127.5 1.20593 -0.994332 0
M  V30 22039 H 2128.23 3.19033 0.582115 0
M  V30 22040 H 2128.02 3.76446 -1.09686 0
M  V30 22041 H 2129.51 4.17148 -0.194209 0
M  V30 22042 N 2129.94 0.98432 1.23081 0
M  V30 22043 C 2131.36 0.6936 1.43741 0
M  V30 22044 C 2131.56 -0.738828 1.87466 0
M  V30 22045 O 2130.61 -1.51079 2.02315 0
M  V30 22046 C 2131.93 1.69187 2.48589 0
M  V30 22047 C 2133.48 1.70635 2.62398 0
M  V30 22048 C 2133.95 2.69302 3.7046 0
M  V30 22049 N 2135.44 2.67844 3.77907 0
M  V30 22050 C 2136.18 3.40857 4.6109 0
M  V30 22051 N 2135.67 4.23441 5.48333 0
M  V30 22052 N 2137.47 3.29603 4.55322 0
M  V30 22053 H 2129.62 1.90957 0.930015 0
M  V30 22054 H 2131.88 0.823061 0.470398 0
M  V30 22055 H 2131.59 2.71646 2.23386 0
M  V30 22056 H 2131.46 1.47784 3.47044 0
M  V30 22057 H 2133.85 0.688782 2.86949 0
M  V30 22058 H 2133.93 1.96104 1.64246 0
M  V30 22059 H 2133.57 3.71203 3.46656 0
M  V30 22060 H 2133.5 2.41106 4.68162 0
M  V30 22061 H 2135.99 2.07913 3.15564 0
M  V30 22062 H 2136.31 4.75999 6.08806 0
M  V30 22063 H 2134.65 4.27531 5.47944 0
M  V30 22064 H 2137.84 2.64533 3.86186 0
M  V30 22065 H 2138.01 3.86764 5.19921 0
M  V30 22066 N 2131.42 -1.38259 0.756453 0
M  V30 22067 C 2132.83 -1.82766 0.381221 0
M  V30 22068 C 2133.18 -1.631 -1.09054 0
M  V30 22069 O 2132.31 -1.13374 -1.84324 0
M  V30 22070 C 2132.9 -3.318 0.685159 0
M  V30 22071 C 2131.46 -3.74644 0.36317 0
M  V30 22072 C 2130.61 -2.60994 0.936868 0
M  V30 22073 H 2133.56 -1.26947 0.952371 0
M  V30 22074 H 2133.58 -3.80483 -0.0356313 0
M  V30 22075 H 2133.09 -3.46082 1.75639 0
M  V30 22076 H 2131.19 -3.65939 -0.701363 0
M  V30 22077 H 2131.31 -4.71305 0.860726 0
M  V30 22078 H 2129.67 -2.52113 0.362062 0
M  V30 22079 H 2130.45 -2.78075 2.01319 0
M  V30 22080 N 2132.9 -0.505757 -1.49264 0
M  V30 22081 C 2134.15 0.0369987 -2.02066 0
M  V30 22082 C 2134.47 1.37044 -1.38723 0
M  V30 22083 O 2133.74 1.8819 -0.544182 0
M  V30 22084 H 2132.32 0.0166628 -0.746814 0
M  V30 22085 H 2134.98 -0.66408 -1.83238 0
M  V30 22086 H 2134.08 0.163179 -3.11673 0
M  V30 22087 N 2134.38 1.55765 -0.239796 0
M  V30 22088 C 2135.34 2.19809 0.649364 0
M  V30 22089 C 2136.34 1.16526 1.10808 0
M  V30 22090 O 2137.53 1.41651 1.01394 0
M  V30 22091 C 2134.66 2.83599 1.89168 0
M  V30 22092 H 2135.85 2.99763 0.0907114 0
M  V30 22093 H 2133.41 1.56297 0.00977153 0
M  V30 22094 H 2134.14 2.07564 2.49174 0
M  V30 22095 H 2133.93 3.5925 1.57104 0
M  V30 22096 H 2135.42 3.32634 2.52477 0
M  V30 22097 N 2135.85 -0.0334016 1.57565 0
M  V30 22098 C 2136.8 -1.03536 2.06274 0
M  V30 22099 C 2137.77 -1.36182 0.950989 0
M  V30 22100 O 2138.96 -1.46593 1.22127 0
M  V30 22101 C 2136.1 -2.33256 2.54334 0
M  V30 22102 C 2135.21 -2.06807 3.79282 0
M  V30 22103 C 2134.34 -3.30365 4.15971 0
M  V30 22104 C 2133.38 -2.99452 5.33849 0
M  V30 22105 N 2132.52 -4.15449 5.65991 0
M  V30 22106 H 2137.36 -0.613034 2.91626 0
M  V30 22107 H 2134.9 -0.291083 1.44191 0
M  V30 22108 H 2136.86 -3.09044 2.80264 0
M  V30 22109 H 2135.49 -2.73219 1.71905 0
M  V30 22110 H 2134.54 -1.21536 3.60463 0
M  V30 22111 H 2135.85 -1.8 4.6519 0
M  V30 22112 H 2135 -4.14524 4.43007 0
M  V30 22113 H 2133.74 -3.60282 3.28706 0
M  V30 22114 H 2132.75 -2.13695 5.06571 0
M  V30 22115 H 2133.97 -2.70817 6.22764 0
M  V30 22116 H 2131.92 -4.45326 4.81686 0
M  V30 22117 H 2131.84 -3.9205 6.464 0
M  V30 22118 H 2133.1 -5.00494 5.976 0
M  V30 22119 N 2137.33 -1.54609 -0.305591 0
M  V30 22120 C 2138.3 -1.84504 -1.35982 0
M  V30 22121 C 2139.3 -0.717695 -1.43895 0
M  V30 22122 O 2140.49 -0.985988 -1.4361 0
M  V30 22123 C 2137.62 -2.0212 -2.74518 0
M  V30 22124 H 2138.81 -2.78713 -1.10721 0
M  V30 22125 H 2136.36 -1.46601 -0.542022 0
M  V30 22126 H 2137.1 -1.10183 -3.05009 0
M  V30 22127 H 2136.88 -2.84171 -2.70166 0
M  V30 22128 H 2138.37 -2.26635 -3.50751 0
M  V30 22129 N 2138.81 0.568558 -1.46987 0
M  V30 22130 C 2140.06 1.32819 -1.53255 0
M  V30 22131 C 2140.39 1.93274 -0.189458 0
M  V30 22132 O 2139.66 1.77254 0.800699 0
M  V30 22133 C 2139.95 2.44688 -2.64196 0
M  V30 22134 C 2139.8 1.89176 -4.08084 0
M  V30 22135 C 2141.12 3.46671 -2.71122 0
M  V30 22136 H 2138.24 0.481565 -0.557911 0
M  V30 22137 H 2140.88 0.637355 -1.78991 0
M  V30 22138 H 2139.03 3.03617 -2.42382 0
M  V30 22139 H 2140.7 1.34596 -4.41227 0
M  V30 22140 H 2138.95 1.19918 -4.16896 0
M  V30 22141 H 2139.62 2.69995 -4.81463 0
M  V30 22142 H 2142.09 2.97645 -2.90769 0
M  V30 22143 H 2140.97 4.22387 -3.50543 0
M  V30 22144 H 2141.23 4.04802 -1.7773 0
M  V30 22145 N 2140.29 1.34929 0.814366 0
M  V30 22146 C 2141.53 1.27956 1.57338 0
M  V30 22147 C 2141.87 -0.147896 1.93636 0
M  V30 22148 O 2141.14 -1.09539 1.60722 0
M  V30 22149 C 2141.43 2.17862 2.8672 0
M  V30 22150 C 2141.28 3.69185 2.56948 0
M  V30 22151 C 2142.6 2.07033 3.88362 0
M  V30 22152 H 2139.72 0.466149 0.570854 0
M  V30 22153 H 2142.36 1.65259 0.937513 0
M  V30 22154 H 2140.51 1.86178 3.40984 0
M  V30 22155 H 2142.18 4.11275 2.08927 0
M  V30 22156 H 2140.42 3.89851 1.90259 0
M  V30 22157 H 2141.09 4.2747 3.49247 0
M  V30 22158 H 2143.57 2.34869 3.43476 0
M  V30 22159 H 2142.45 2.72151 4.76681 0
M  V30 22160 H 2142.71 1.04989 4.29453 0
M  V30 22161 N 2141.77 -1.0356 1.18799 0
M  V30 22162 C 2143.18 -1.58299 0.989867 0
M  V30 22163 C 2143.53 -1.90754 -0.459077 0
M  V30 22164 O 2142.65 -1.70132 -1.33731 0
M  V30 22165 C 2143.25 -2.8762 1.79054 0
M  V30 22166 C 2141.81 -3.38957 1.63662 0
M  V30 22167 C 2140.95 -2.12479 1.7818 0
M  V30 22168 H 2143.91 -0.861694 1.33269 0
M  V30 22169 H 2143.93 -3.5823 1.28263 0
M  V30 22170 H 2143.44 -2.63967 2.84505 0
M  V30 22171 H 2141.54 -3.67611 0.607689 0
M  V30 22172 H 2141.65 -4.12441 2.43781 0
M  V30 22173 H 2140.02 -2.24028 1.21176 0
M  V30 22174 H 2140.8 -1.91275 2.85076 0
M  V30 22175 N 2143.25 -0.990834 -1.22557 0
M  V30 22176 C 2144.18 -0.497682 -2.23731 0
M  V30 22177 C 2145.19 0.406113 -1.57653 0
M  V30 22178 O 2146.38 0.208577 -1.77277 0
M  V30 22179 C 2143.48 0.298244 -3.37585 0
M  V30 22180 C 2142.65 -0.601189 -4.33249 0
M  V30 22181 C 2141.71 0.142675 -5.26007 0
M  V30 22182 O 2140.74 -0.471227 -5.67246 0
M  V30 22183 N 2141.94 1.42559 -5.62723 0
M  V30 22184 H 2144.7 -1.36766 -2.66674 0
M  V30 22185 H 2142.27 -0.86531 -1.36836 0
M  V30 22186 H 2144.26 0.804481 -3.96623 0
M  V30 22187 H 2142.83 1.06931 -2.93742 0
M  V30 22188 H 2142.05 -1.28812 -3.7256 0
M  V30 22189 H 2143.34 -1.21379 -4.9411 0
M  V30 22190 H 2142.73 1.94571 -5.31186 0
M  V30 22191 H 2141.29 1.87706 -6.24187 0
M  V30 22192 N 2144.72 1.37856 -0.763775 0
M  V30 22193 C 2146.13 1.82562 -0.390909 0
M  V30 22194 C 2146.49 1.63676 1.08188 0
M  V30 22195 O 2145.61 1.14349 1.8372 0
M  V30 22196 C 2146.21 3.31432 -0.702745 0
M  V30 22197 C 2144.76 3.74446 -0.383033 0
M  V30 22198 C 2143.91 2.60494 -0.950696 0
M  V30 22199 H 2146.86 1.2644 -0.95909 0
M  V30 22200 H 2146.88 3.80497 0.0154528 0
M  V30 22201 H 2146.4 3.45145 -1.77472 0
M  V30 22202 H 2144.5 3.66306 0.681946 0
M  V30 22203 H 2144.61 4.70842 -0.885708 0
M  V30 22204 H 2142.97 2.51918 -0.375427 0
M  V30 22205 H 2143.76 2.77003 -2.02791 0
M  V30 22206 N 2146.2 0.513665 1.48994 0
M  V30 22207 C 2147.13 -0.247058 2.32189 0
M  V30 22208 C 2148.11 -0.950613 1.41058 0
M  V30 22209 O 2149.3 -0.939562 1.69958 0
M  V30 22210 C 2146.43 -1.30433 3.21876 0
M  V30 22211 C 2145.38 -0.719902 4.21902 0
M  V30 22212 C 2144.71 -1.87863 5.00611 0
M  V30 22213 C 2146.01 0.297524 5.21452 0
M  V30 22214 H 2147.7 0.447403 2.96038 0
M  V30 22215 H 2145.25 0.216608 1.42362 0
M  V30 22216 H 2147.2 -1.84434 3.78896 0
M  V30 22217 H 2145.92 -2.02815 2.55995 0
M  V30 22218 H 2144.58 -0.201546 3.66046 0
M  V30 22219 H 2144.23 -2.59044 4.31167 0
M  V30 22220 H 2143.93 -1.49359 5.68301 0
M  V30 22221 H 2145.46 -2.42273 5.60478 0
M  V30 22222 H 2146.87 -0.1548 5.73091 0
M  V30 22223 H 2145.27 0.599071 5.97102 0
M  V30 22224 H 2146.34 1.20903 4.69585 0
M  V30 22225 N 2147.68 -1.55636 0.248053 0
M  V30 22226 C 2148.93 -1.98579 -0.375626 0
M  V30 22227 C 2149.25 -1.13753 -1.58383 0
M  V30 22228 O 2148.52 -0.2206 -1.94654 0
M  V30 22229 H 2147.1 -0.733423 -0.141773 0
M  V30 22230 H 2149.76 -1.91784 0.34711 0
M  V30 22231 H 2148.86 -3.04513 -0.683983 0
M  V30 22232 N 2149.16 0.0250451 -1.5758 0
M  V30 22233 C 2150.12 1.00908 -2.05791 0
M  V30 22234 C 2151.12 1.28794 -0.962744 0
M  V30 22235 O 2152.31 1.2373 -1.22623 0
M  V30 22236 C 2149.44 2.34084 -2.47825 0
M  V30 22237 H 2150.64 0.592553 -2.93988 0
M  V30 22238 H 2148.19 0.271965 -1.53916 0
M  V30 22239 H 2148.92 2.80477 -1.62797 0
M  V30 22240 H 2148.71 2.15173 -3.27785 0
M  V30 22241 H 2150.2 3.04725 -2.85539 0
M  V30 22242 N 2150.64 1.54769 0.297388 0
M  V30 22243 C 2151.91 1.64904 1.05195 0
M  V30 22244 C 2152.29 0.499658 2.05102 0
M  V30 22245 O 2151.64 -0.503202 2.2289 0
M  V30 22246 C 2151.85 3.03071 1.73058 0
M  V30 22247 C 2153.2 3.60007 2.25123 0
M  V30 22248 O 2154.22 3.05546 1.83085 0
M  V30 22249 O 2153.08 4.55371 3.02158 0
M  V30 22250 H 2150.18 0.668805 0.486444 0
M  V30 22251 H 2152.72 1.67113 0.295187 0
M  V30 22252 H 2151.49 3.78165 1.00534 0
M  V30 22253 H 2151.12 3.04655 2.55482 0
M  V30 22254 N 2152.11 -0.560755 1.47286 0
M  V30 22255 C 2153.34 -1.34841 1.57584 0
M  V30 22256 C 2153.76 -1.86747 0.22521 0
M  V30 22257 O 2153.12 -1.62776 -0.798346 0
M  V30 22258 C 2153.17 -2.49671 2.60186 0
M  V30 22259 O 2152.27 -3.51793 2.1521 0
M  V30 22260 H 2151.61 -0.400669 0.529491 0
M  V30 22261 H 2154.14 -0.67803 1.93039 0
M  V30 22262 H 2154.15 -2.9629 2.80493 0
M  V30 22263 H 2152.83 -2.11248 3.58256 0
M  V30 22264 H 2151.41 -3.11504 2.04987 0
M  V30 22265 N 2153.59 -1.35359 -0.807199 0
M  V30 22266 C 2154.54 -1.2823 -1.919 0
M  V30 22267 C 2155.51 -0.154371 -1.65381 0
M  V30 22268 O 2156.69 -0.337971 -1.87783 0
M  V30 22269 C 2153.83 -1.05957 -3.28431 0
M  V30 22270 C 2152.95 -2.27666 -3.6714 0
M  V30 22271 C 2152.08 -1.98548 -4.92699 0
M  V30 22272 C 2151.12 -3.16315 -5.24034 0
M  V30 22273 N 2150.26 -2.86976 -6.40772 0
M  V30 22274 H 2155.1 -2.23305 -1.97329 0
M  V30 22275 H 2152.63 -1.11004 -0.965216 0
M  V30 22276 H 2154.59 -0.910752 -4.07138 0
M  V30 22277 H 2153.22 -0.145447 -3.22472 0
M  V30 22278 H 2152.27 -2.53414 -2.83699 0
M  V30 22279 H 2153.59 -3.15606 -3.86257 0
M  V30 22280 H 2152.74 -1.80493 -5.7923 0
M  V30 22281 H 2151.48 -1.07893 -4.75616 0
M  V30 22282 H 2150.48 -3.34948 -4.35993 0
M  V30 22283 H 2151.71 -4.07771 -5.43047 0
M  V30 22284 H 2149.66 -1.98914 -6.25115 0
M  V30 22285 H 2149.57 -3.6845 -6.60137 0
M  V30 22286 H 2150.84 -2.72461 -7.30332 0
M  V30 22287 N 2155.07 1.02928 -1.19346 0
M  V30 22288 C 2156.32 1.75973 -0.993881 0
M  V30 22289 C 2156.64 1.89088 0.476523 0
M  V30 22290 O 2155.91 1.42417 1.34515 0
M  V30 22291 H 2154.49 0.651893 -0.364753 0
M  V30 22292 H 2157.15 1.24161 -1.50233 0
M  V30 22293 H 2156.25 2.76812 -1.44157 0
M  V30 22294 N 2156.55 0.997319 1.2203 0
M  V30 22295 C 2157.48 0.571319 2.26403 0
M  V30 22296 C 2158.46 -0.404025 1.65232 0
M  V30 22297 O 2159.64 -0.293692 1.91966 0
M  V30 22298 C 2156.77 -0.110472 3.47124 0
M  V30 22299 C 2155.73 0.783865 4.20761 0
M  V30 22300 C 2155.05 -0.0310887 5.34691 0
M  V30 22301 C 2156.35 2.08283 4.78974 0
M  V30 22302 H 2158.05 1.44376 2.6229 0
M  V30 22303 H 2155.59 0.695656 1.26082 0
M  V30 22304 H 2157.55 -0.419919 4.19303 0
M  V30 22305 H 2156.27 -1.01749 3.10346 0
M  V30 22306 H 2154.93 1.07702 3.50422 0
M  V30 22307 H 2154.58 -0.939162 4.94155 0
M  V30 22308 H 2154.28 0.564316 5.84884 0
M  V30 22309 H 2155.8 -0.334528 6.09683 0
M  V30 22310 H 2157.22 1.83704 5.43071 0
M  V30 22311 H 2155.61 2.62743 5.39524 0
M  V30 22312 H 2156.68 2.75867 3.9878 0
M  V30 22313 N 2158.03 -1.37449 0.771075 0
M  V30 22314 C 2158.96 -2.28911 0.115106 0
M  V30 22315 C 2159.97 -1.48601 -0.664961 0
M  V30 22316 O 2161.16 -1.71262 -0.503164 0
M  V30 22317 C 2158.26 -3.2779 -0.860623 0
M  V30 22318 C 2157.43 -4.37193 -0.134514 0
M  V30 22319 C 2156.49 -5.1615 -1.02351 0
M  V30 22320 O 2155.52 -5.67108 -0.487536 0
M  V30 22321 N 2156.72 -5.30813 -2.34985 0
M  V30 22322 H 2159.49 -2.85846 0.900671 0
M  V30 22323 H 2157.05 -1.49418 0.623366 0
M  V30 22324 H 2159.04 -3.77494 -1.45877 0
M  V30 22325 H 2157.61 -2.71628 -1.54716 0
M  V30 22326 H 2156.83 -3.88895 0.644535 0
M  V30 22327 H 2158.12 -5.07473 0.367248 0
M  V30 22328 H 2157.51 -4.90993 -2.80966 0
M  V30 22329 H 2156.07 -5.83828 -2.89808 0
M  V30 22330 N 2159.5 -0.52156 -1.4872 0
M  V30 22331 C 2160.41 0.249847 -2.33266 0
M  V30 22332 C 2161.43 0.947297 -1.45953 0
M  V30 22333 O 2162.61 0.924126 -1.78947 0
M  V30 22334 C 2159.67 1.28824 -3.21878 0
M  V30 22335 C 2158.73 0.602041 -4.25058 0
M  V30 22336 C 2157.97 1.59096 -5.09435 0
M  V30 22337 O 2158.19 2.82282 -4.95654 0
M  V30 22338 O 2157.12 1.13498 -5.91102 0
M  V30 22339 H 2160.95 -0.442725 -3.00456 0
M  V30 22340 H 2158.53 -0.282593 -1.46703 0
M  V30 22341 H 2160.42 1.88853 -3.76713 0
M  V30 22342 H 2159.09 1.96337 -2.57359 0
M  V30 22343 H 2158 -0.0385256 -3.7408 0
M  V30 22344 H 2159.33 -0.0310005 -4.9219 0
M  V30 22345 N 2160.98 1.55502 -0.256304 0
M  V30 22346 C 2162.39 1.85085 0.245072 0
M  V30 22347 C 2162.74 1.17822 1.56883 0
M  V30 22348 O 2161.87 0.459889 2.11457 0
M  V30 22349 C 2162.46 3.35779 0.451444 0
M  V30 22350 C 2161.02 3.65554 0.897072 0
M  V30 22351 C 2160.17 2.77293 -0.0203944 0
M  V30 22352 H 2163.12 1.51311 -0.478616 0
M  V30 22353 H 2163.14 3.57867 1.29273 0
M  V30 22354 H 2162.65 3.84706 -0.51217 0
M  V30 22355 H 2160.76 3.22112 1.87282 0
M  V30 22356 H 2160.87 4.73234 0.747422 0
M  V30 22357 H 2159.23 2.4989 0.492637 0
M  V30 22358 H 2160.02 3.29028 -0.979551 0
M  V30 22359 N 2162.46 -0.0166879 1.57591 0
M  V30 22360 C 2163.42 -0.998156 2.06324 0
M  V30 22361 C 2164.42 -1.28282 0.969561 0
M  V30 22362 O 2165.61 -1.23078 1.23278 0
M  V30 22363 C 2162.75 -2.32767 2.49063 0
M  V30 22364 H 2163.94 -0.576954 2.94298 0
M  V30 22365 H 2161.49 -0.263799 1.54058 0
M  V30 22366 H 2162.23 -2.7961 1.64282 0
M  V30 22367 H 2162.01 -2.13431 3.28922 0
M  V30 22368 H 2163.5 -3.03207 2.87151 0
M  V30 22369 N 2163.94 -1.54924 -0.289176 0
M  V30 22370 C 2165.35 -1.65642 -0.861368 0
M  V30 22371 C 2165.7 -0.572803 -1.87652 0
M  V30 22372 O 2164.83 0.288543 -2.14468 0
M  V30 22373 C 2165.42 -3.00274 -1.56911 0
M  V30 22374 C 2163.98 -3.13073 -2.08955 0
M  V30 22375 C 2163.13 -2.61377 -0.926152 0
M  V30 22376 H 2166.08 -1.58563 -0.0658933 0
M  V30 22377 H 2166.1 -2.92358 -2.4353 0
M  V30 22378 H 2165.61 -3.7912 -0.830021 0
M  V30 22379 H 2163.71 -2.38969 -2.85875 0
M  V30 22380 H 2163.82 -4.19404 -2.31596 0
M  V30 22381 H 2162.19 -2.18126 -1.31503 0
M  V30 22382 H 2162.97 -3.42712 -0.200828 0
M  V30 22383 N 2165.42 0.552936 -1.47582 0
M  V30 22384 C 2166.35 1.66928 -1.6327 0
M  V30 22385 C 2167.33 1.63127 -0.482035 0
M  V30 22386 O 2168.51 1.80682 -0.71188 0
M  V30 22387 C 2165.64 3.0556 -1.65076 0
M  V30 22388 C 2164.6 3.2421 -2.79413 0
M  V30 22389 C 2163.92 4.63672 -2.66294 0
M  V30 22390 C 2165.22 3.09176 -4.20961 0
M  V30 22391 H 2166.92 1.54055 -2.56725 0
M  V30 22392 H 2164.46 0.739709 -1.23549 0
M  V30 22393 H 2166.42 3.83508 -1.74642 0
M  V30 22394 H 2165.14 3.19403 -0.681852 0
M  V30 22395 H 2163.8 2.48673 -2.69365 0
M  V30 22396 H 2163.45 4.7432 -1.67422 0
M  V30 22397 H 2163.15 4.77099 -3.43002 0
M  V30 22398 H 2164.67 5.43749 -2.77795 0
M  V30 22399 H 2166.08 3.76936 -4.31963 0
M  V30 22400 H 2164.48 3.3411 -4.98488 0
M  V30 22401 H 2165.55 2.05869 -4.39028 0
M  V30 22402 N 2166.89 1.35785 0.800009 0
M  V30 22403 C 2167.86 1.29109 1.89377 0
M  V30 22404 C 2168.86 0.201077 1.59538 0
M  V30 22405 O 2170.05 0.455197 1.68148 0
M  V30 22406 C 2167.18 0.99888 3.25937 0
M  V30 22407 H 2168.37 2.2637 1.96715 0
M  V30 22408 H 2165.93 1.20404 0.996618 0
M  V30 22409 H 2166.66 0.0304071 3.24286 0
M  V30 22410 H 2166.45 1.78756 3.48982 0
M  V30 22411 H 2167.94 0.977941 4.05988 0
M  V30 22412 N 2168.37 -1.02294 1.19891 0
M  V30 22413 C 2169.78 -1.5724 1.0066 0
M  V30 22414 C 2170.13 -1.9123 -0.43882 0
M  V30 22415 O 2169.26 -1.71541 -1.31919 0
M  V30 22416 C 2169.85 -2.85704 1.82094 0
M  V30 22417 C 2168.41 -3.37202 1.67248 0
M  V30 22418 C 2167.56 -2.10577 1.80424 0
M  V30 22419 H 2170.51 -0.84751 1.34175 0
M  V30 22420 H 2170.53 -3.56849 1.32056 0
M  V30 22421 H 2170.04 -2.60935 2.87289 0
M  V30 22422 H 2168.15 -3.66946 0.646645 0
M  V30 22423 H 2168.26 -4.09832 2.48142 0
M  V30 22424 H 2166.62 -2.2273 1.23545 0
M  V30 22425 H 2167.41 -1.88241 2.87089 0
M  V30 22426 N 2169.85 -1.00378 -1.21499 0
M  V30 22427 C 2171.08 -0.704325 -1.95074 0
M  V30 22428 C 2171.5 0.726447 -1.73506 0
M  V30 22429 O 2170.86 1.49809 -1.02113 0
M  V30 22430 C 2170.91 -1.02938 -3.45595 0
M  V30 22431 O 2170.01 -0.133961 -4.12182 0
M  V30 22432 H 2169.35 -0.262537 -0.609894 0
M  V30 22433 H 2171.88 -1.34369 -1.54292 0
M  V30 22434 H 2171.89 -0.975727 -3.96161 0
M  V30 22435 H 2170.57 -2.0719 -3.60618 0
M  V30 22436 H 2169.14 -0.244034 -3.72101 0
M  V30 22437 N 2171.33 1.37038 -0.778354 0
M  V30 22438 C 2172.57 1.99823 -0.34619 0
M  V30 22439 C 2172.91 1.61643 1.07634 0
M  V30 22440 O 2172.18 0.865817 1.74166 0
M  V30 22441 C 2172.47 3.56649 -0.497307 0
M  V30 22442 C 2172.32 4.04718 -1.96273 0
M  V30 22443 C 2173.64 4.39999 0.0944148 0
M  V30 22444 H 2170.76 0.725929 -0.127262 0
M  V30 22445 H 2173.4 1.62617 -0.98263 0
M  V30 22446 H 2171.55 3.88475 0.0445004 0
M  V30 22447 H 2173.22 3.8343 -2.56475 0
M  V30 22448 H 2171.46 3.56667 -2.46924 0
M  V30 22449 H 2172.13 5.13732 -2.01949 0
M  V30 22450 H 2174.61 4.1447 -0.367956 0
M  V30 22451 H 2173.49 5.48884 -0.0414159 0
M  V30 22452 H 2173.75 4.25911 1.18542 0
M  V30 22453 N 2172.81 0.529439 1.48441 0
M  V30 22454 C 2174.22 0.0888387 1.86489 0
M  V30 22455 C 2174.57 -1.33364 1.43905 0
M  V30 22456 O 2173.69 -1.9987 0.829524 0
M  V30 22457 C 2174.29 0.154445 3.38448 0
M  V30 22458 C 2172.85 -0.230958 3.75691 0
M  V30 22459 C 2172 0.514449 2.72486 0
M  V30 22460 H 2174.95 0.740717 1.40353 0
M  V30 22461 H 2174.97 -0.63398 3.75181 0
M  V30 22462 H 2174.48 1.18985 3.69411 0
M  V30 22463 H 2172.58 -1.26853 3.50341 0
M  V30 22464 H 2172.69 0.108275 4.78978 0
M  V30 22465 H 2171.06 -0.039218 2.5467 0
M  V30 22466 H 2171.84 1.55048 3.06293 0
M  V30 22467 N 2174.29 -1.55364 0.264547 0
M  V30 22468 C 2175.2 -2.25763 -0.637821 0
M  V30 22469 C 2176.21 -1.27983 -1.17883 0
M  V30 22470 O 2177.39 -1.60897 -1.21136 0
M  V30 22471 C 2174.45 -2.95689 -1.81021 0
M  V30 22472 C 2173.51 -4.08923 -1.30693 0
M  V30 22473 C 2172.75 -4.75505 -2.42344 0
M  V30 22474 O 2172.97 -4.41244 -3.61469 0
M  V30 22475 O 2171.9 -5.63667 -2.111 0
M  V30 22476 H 2175.73 -3.03624 -0.0678471 0
M  V30 22477 H 2173.31 -1.49365 0.0323545 0
M  V30 22478 H 2175.2 -3.39671 -2.49402 0
M  V30 22479 H 2173.87 -2.20754 -2.36747 0
M  V30 22480 H 2172.78 -3.6942 -0.589885 0
M  V30 22481 H 2174.11 -4.85728 -0.795542 0
M  V30 22482 N 2175.76 0.00833021 -1.57598 0
M  V30 22483 C 2176.73 0.9872 -2.0685 0
M  V30 22484 C 2177.73 1.27766 -0.976351 0
M  V30 22485 O 2178.92 1.22423 -1.23929 0
M  V30 22486 C 2176.05 2.31443 -2.50294 0
M  V30 22487 H 2177.24 0.561338 -2.946 0
M  V30 22488 H 2174.79 0.255625 -1.54195 0
M  V30 22489 H 2175.53 2.78735 -1.65763 0
M  V30 22490 H 2175.31 2.11684 -3.30049 0
M  V30 22491 H 2176.8 3.0168 -2.88754 0
M  V30 22492 N 2177.24 1.55075 0.280956 0
M  V30 22493 C 2178.65 1.66097 0.852571 0
M  V30 22494 C 2179 0.582747 1.87346 0
M  V30 22495 O 2178.13 -0.277166 2.14618 0
M  V30 22496 C 2178.72 3.01102 1.55317 0
M  V30 22497 C 2177.28 3.14177 2.07292 0
M  V30 22498 C 2176.43 2.61864 0.912278 0
M  V30 22499 H 2179.38 1.58596 0.0574834 0
M  V30 22500 H 2179.4 2.93646 2.41976 0
M  V30 22501 H 2178.91 3.79555 0.809903 0
M  V30 22502 H 2177.01 2.40482 2.84604 0
M  V30 22503 H 2177.13 4.20627 2.29369 0
M  V30 22504 H 2175.49 2.1882 1.30345 0
M  V30 22505 H 2176.27 3.42814 0.18265 0
M  V30 22506 N 2178.72 -0.545102 1.47873 0
M  V30 22507 C 2180.14 -0.872206 1.33659 0
M  V30 22508 C 2180.34 -1.98676 0.336181 0
M  V30 22509 O 2179.39 -2.51279 -0.248001 0
M  V30 22510 C 2180.7 -1.254 2.73304 0
M  V30 22511 C 2182.25 -1.36475 2.8168 0
M  V30 22512 C 2182.73 -1.78005 4.21993 0
M  V30 22513 N 2184.22 -1.85134 4.24593 0
M  V30 22514 C 2184.95 -2.18622 5.30087 0
M  V30 22515 N 2184.45 -2.50639 6.45873 0
M  V30 22516 N 2186.24 -2.19499 5.17471 0
M  V30 22517 H 2178.39 0.190536 2.11544 0
M  V30 22518 H 2180.66 0.0225858 0.947731 0
M  V30 22519 H 2180.36 -0.508782 3.48 0
M  V30 22520 H 2180.24 -2.20752 3.05857 0
M  V30 22521 H 2182.62 -2.10076 2.07249 0
M  V30 22522 H 2182.7 -0.392814 2.52766 0
M  V30 22523 H 2182.35 -1.04969 4.96935 0
M  V30 22524 H 2182.28 -2.76222 4.4834 0
M  V30 22525 H 2184.77 -1.62729 3.41068 0
M  V30 22526 H 2185.08 -2.75253 7.22119 0
M  V30 22527 H 2183.43 -2.48192 6.49173 0
M  V30 22528 H 2186.62 -1.93934 4.26037 0
M  V30 22529 H 2186.79 -2.45267 5.9979 0
M  V30 22530 N 2180.2 -1.36208 -0.792797 0
M  V30 22531 C 2181.45 -1.29992 -1.54746 0
M  V30 22532 C 2181.77 0.121446 -1.94621 0
M  V30 22533 O 2181.04 1.06096 -1.64683 0
M  V30 22534 H 2179.62 -0.478184 -0.573889 0
M  V30 22535 H 2182.28 -1.70466 -0.944845 0
M  V30 22536 H 2181.37 -1.92505 -2.45658 0
M  V30 22537 N 2181.68 1.01656 -1.20431 0
M  V30 22538 C 2183.09 1.27562 -0.959176 0
M  V30 22539 C 2183.29 1.98235 0.361268 0
M  V30 22540 O 2182.35 2.27772 1.08979 0
M  V30 22541 C 2183.66 2.11061 -2.14181 0
M  V30 22542 C 2185.21 2.24327 -2.1828 0
M  V30 22543 C 2185.68 3.11204 -3.3603 0
M  V30 22544 N 2187.17 3.18793 -3.36044 0
M  V30 22545 C 2187.91 3.86239 -4.23801 0
M  V30 22546 N 2187.41 4.55811 -5.21736 0
M  V30 22547 N 2189.2 3.82763 -4.11642 0
M  V30 22548 H 2181.35 0.542057 -2.05367 0
M  V30 22549 H 2183.61 0.30186 -0.898657 0
M  V30 22550 H 2183.32 1.66468 -3.09808 0
M  V30 22551 H 2183.19 3.11798 -2.12278 0
M  V30 22552 H 2185.58 2.68145 -1.23216 0
M  V30 22553 H 2185.66 1.23099 -2.24232 0
M  V30 22554 H 2185.3 2.68092 -4.3138 0
M  V30 22555 H 2185.23 4.1252 -3.27315 0
M  V30 22556 H 2187.73 2.69255 -2.6516 0
M  V30 22557 H 2188.04 5.04944 -5.85023 0
M  V30 22558 H 2186.38 4.54635 -5.25673 0
M  V30 22559 H 2189.57 3.27557 -3.34401 0
M  V30 22560 H 2189.75 4.3505 -4.80245 0
M  V30 22561 N 2183.15 1.01021 1.20965 0
M  V30 22562 C 2184.06 0.584483 2.27202 0
M  V30 22563 C 2185.08 -0.374977 1.69912 0
M  V30 22564 O 2186.26 -0.237516 1.99995 0
M  V30 22565 C 2183.32 -0.0769879 3.46615 0
M  V30 22566 C 2182.38 0.927608 4.19159 0
M  V30 22567 C 2181.61 0.297609 5.3287 0
M  V30 22568 O 2181.84 -0.904289 5.63186 0
M  V30 22569 O 2180.77 1.01114 5.93346 0
M  V30 22570 H 2184.6 1.46877 2.65821 0
M  V30 22571 H 2182.18 0.779356 1.27461 0
M  V30 22572 H 2184.06 -0.446718 4.19026 0
M  V30 22573 H 2182.74 -0.935572 3.09885 0
M  V30 22574 H 2181.65 1.34859 3.48947 0
M  V30 22575 H 2182.98 1.75595 4.59812 0
M  V30 22576 N 2184.63 -1.36623 0.78561 0
M  V30 22577 C 2186.05 -1.5262 0.466843 0
M  V30 22578 C 2186.25 -1.74044 -1.01543 0
M  V30 22579 O 2185.3 -1.76975 -1.801 0
M  V30 22580 C 2186.62 -2.71435 1.29398 0
M  V30 22581 C 2188.16 -2.85304 1.28728 0
M  V30 22582 C 2188.64 -4.07118 2.09807 0
M  V30 22583 N 2190.13 -4.14257 2.07233 0
M  V30 22584 C 2190.87 -5.0758 2.6674 0
M  V30 22585 N 2190.36 -6.06372 3.3509 0
M  V30 22586 N 2192.15 -5.00167 2.56494 0
M  V30 22587 H 2184.31 -1.20971 1.74585 0
M  V30 22588 H 2186.57 -0.590141 0.741915 0
M  V30 22589 H 2186.27 -2.62113 2.34498 0
M  V30 22590 H 2186.15 -3.65488 0.932654 0
M  V30 22591 H 2188.54 -2.94088 0.244207 0
M  V30 22592 H 2188.62 -1.92169 1.68834 0
M  V30 22593 H 2188.26 -3.99095 3.14143 0
M  V30 22594 H 2188.19 -4.99393 1.67074 0
M  V30 22595 H 2190.68 -3.43522 1.57483 0
M  V30 22596 H 2190.99 -6.74137 3.77836 0
M  V30 22597 H 2189.34 -6.06609 3.39191 0
M  V30 22598 H 2192.53 -4.21936 2.027 0
M  V30 22599 H 2192.7 -5.7271 3.03162 0
M  V30 22600 N 2186.11 -0.537304 -1.48158 0
M  V30 22601 C 2187.36 -0.0140445 -2.03395 0
M  V30 22602 C 2187.71 1.31301 -1.40633 0
M  V30 22603 O 2187 1.83671 -0.5455 0
M  V30 22604 C 2187.2 0.157545 -3.57053 0
M  V30 22605 C 2187.03 -1.15133 -4.34712 0
M  V30 22606 C 2185.8 -1.71321 -4.75371 0
M  V30 22607 C 2187.99 -2.06374 -4.71078 0
M  V30 22608 N 2185.98 -2.96421 -5.37595 0
M  V30 22609 C 2187.35 -3.16051 -5.33397 0
M  V30 22610 C 2189.4 -2.06611 -4.53008 0
M  V30 22611 C 2188.11 -4.26038 -5.79555 0
M  V30 22612 C 2190.13 -3.15598 -5.00152 0
M  V30 22613 C 2189.49 -4.23993 -5.62502 0
M  V30 22614 H 2185.59 -0.0468176 -0.780597 0
M  V30 22615 H 2188.18 -0.720202 -1.8089 0
M  V30 22616 H 2186.35 0.832796 -3.79367 0
M  V30 22617 H 2188.08 0.681071 -3.98928 0
M  V30 22618 H 2184.83 -1.25367 -4.56706 0
M  V30 22619 H 2185.26 -3.60132 -5.73266 0
M  V30 22620 H 2189.9 -1.24099 -4.04177 0
M  V30 22621 H 2187.62 -5.09324 -6.27387 0
M  V30 22622 H 2191.2 -3.16845 -4.87956 0
M  V30 22623 H 2190.08 -5.06936 -5.98319 0
M  V30 22624 N 2187.59 1.55221 -0.272782 0
M  V30 22625 C 2188.83 1.99841 0.345178 0
M  V30 22626 C 2189.17 1.16093 1.55679 0
M  V30 22627 O 2188.44 0.230441 1.9313 0
M  V30 22628 C 2188.73 3.5263 0.729656 0
M  V30 22629 C 2188.58 4.47133 -0.489138 0
M  V30 22630 C 2189.9 4.11259 1.56698 0
M  V30 22631 H 2187.02 0.726495 0.123989 0
M  V30 22632 H 2189.66 1.86176 -0.379262 0
M  V30 22633 H 2187.81 3.64405 1.34689 0
M  V30 22634 H 2189.48 4.47304 -1.12769 0
M  V30 22635 H 2187.72 4.18888 -1.12762 0
M  V30 22636 H 2188.39 5.51718 -0.176396 0
M  V30 22637 H 2190.87 4.02745 1.04572 0
M  V30 22638 H 2189.75 5.1838 1.80481 0
M  V30 22639 H 2190.01 3.61341 2.54726 0
M  V30 22640 N 2189.07 2.77022e-05 1.576 0
M  V30 22641 C 2190 -0.990304 2.1146 0
M  V30 22642 C 2190.98 -1.35844 1.02374 0
M  V30 22643 O 2192.16 -1.44218 1.30057 0
M  V30 22644 C 2189.29 -2.28215 2.61792 0
M  V30 22645 C 2188.25 -2.05563 3.75404 0
M  V30 22646 C 2187.57 -3.40761 4.12051 0
M  V30 22647 C 2188.87 -1.4182 5.02677 0
M  V30 22648 H 2190.57 -0.541853 2.94456 0
M  V30 22649 H 2188.11 -0.259194 1.41648 0
M  V30 22650 H 2190.07 -2.97851 2.98099 0
M  V30 22651 H 2188.79 -2.75174 1.75918 0
M  V30 22652 H 2187.45 -1.38353 3.39491 0
M  V30 22653 H 2187.1 -3.85423 3.232 0
M  V30 22654 H 2186.8 -3.26421 4.88593 0
M  V30 22655 H 2188.32 -4.11712 4.50916 0
M  V30 22656 H 2189.73 -2.01413 5.36755 0
M  V30 22657 H 2188.13 -1.37967 5.84025 0
M  V30 22658 H 2189.2 -0.387421 4.8335 0
M  V30 22659 N 2190.54 -1.55222 -0.272728 0
M  V30 22660 C 2191.45 -1.91218 -1.35915 0
M  V30 22661 C 2192.47 -0.809463 -1.54025 0
M  V30 22662 O 2193.65 -1.10855 -1.68146 0
M  V30 22663 C 2190.71 -2.17698 -2.69831 0
M  V30 22664 C 2189.77 -3.41258 -2.60464 0
M  V30 22665 C 2189.01 -3.66465 -3.87994 0
M  V30 22666 O 2189.23 -2.94178 -4.88688 0
M  V30 22667 O 2188.16 -4.59999 -3.88181 0
M  V30 22668 H 2191.99 -2.83701 -1.08385 0
M  V30 22669 H 2189.57 -1.41772 -0.471276 0
M  V30 22670 H 2191.46 -2.36153 -3.49012 0
M  V30 22671 H 2190.13 -1.28397 -2.97146 0
M  V30 22672 H 2189.04 -3.28137 -1.79657 0
M  V30 22673 H 2190.37 -4.30778 -2.38098 0
M  V30 22674 N 2192.02 0.537252 -1.4816 0
M  V30 22675 C 2193.27 1.29538 -1.56038 0
M  V30 22676 C 2193.6 1.92828 -0.230411 0
M  V30 22677 O 2192.88 1.78913 0.762921 0
M  V30 22678 C 2193.16 2.39029 -2.69327 0
M  V30 22679 C 2193.01 1.80478 -4.12005 0
M  V30 22680 C 2194.33 3.40842 -2.78414 0
M  V30 22681 H 2191.45 0.469622 -0.568 0
M  V30 22682 H 2194.09 0.599245 -1.80303 0
M  V30 22683 H 2192.24 2.98407 -2.48768 0
M  V30 22684 H 2193.91 1.25207 -4.43983 0
M  V30 22685 H 2192.16 1.11048 -4.19346 0
M  V30 22686 H 2192.83 2.59722 -4.87082 0
M  V30 22687 H 2195.3 2.9141 -2.97017 0
M  V30 22688 H 2194.18 4.14857 -3.59423 0
M  V30 22689 H 2194.44 4.00941 -1.86276 0
M  V30 22690 N 2193.5 1.36626 0.785562 0
M  V30 22691 C 2194.75 1.31264 1.54588 0
M  V30 22692 C 2195.08 -0.106789 1.93906 0
M  V30 22693 O 2194.35 -1.06105 1.63009 0
M  V30 22694 C 2194.64 2.23894 2.82034 0
M  V30 22695 C 2194.49 3.74553 2.49059 0
M  V30 22696 C 2195.81 2.15224 3.83884 0
M  V30 22697 H 2192.93 0.478152 0.560838 0
M  V30 22698 H 2195.57 1.67211 0.902248 0
M  V30 22699 H 2193.72 1.93369 3.36958 0
M  V30 22700 H 2195.39 4.15614 2.00157 0
M  V30 22701 H 2193.64 3.93799 1.81947 0
M  V30 22702 H 2194.31 4.34782 3.40101 0
M  V30 22703 H 2196.78 2.42101 3.38417 0
M  V30 22704 H 2195.66 2.82201 4.70801 0
M  V30 22705 H 2195.92 1.14075 4.27129 0
M  V30 22706 N 2194.98 -1.01016 1.20969 0
M  V30 22707 C 2195.89 -2.13142 0.980194 0
M  V30 22708 C 2196.9 -1.73875 -0.0660359 0
M  V30 22709 O 2198.08 -2.01025 0.122857 0
M  V30 22710 C 2195.15 -3.42434 0.54222 0
M  V30 22711 C 2194.21 -3.95905 1.66006 0
M  V30 22712 C 2193.44 -5.19026 1.24289 0
M  V30 22713 O 2193.66 -5.70285 0.114296 0
M  V30 22714 O 2192.6 -5.65812 2.05281 0
M  V30 22715 H 2196.42 -2.35376 1.91917 0
M  V30 22716 H 2194.01 -1.11524 0.994118 0
M  V30 22717 H 2195.89 -4.20276 0.307514 0
M  V30 22718 H 2194.56 -3.216 -0.368093 0
M  V30 22719 H 2193.47 -3.19312 1.94912 0
M  V30 22720 H 2194.8 -4.21139 2.54761 0
M  V30 22721 N 2196.46 -1.01661 -1.20428 0
M  V30 22722 C 2197.37 -0.596524 -2.26889 0
M  V30 22723 C 2198.38 0.365961 -1.70108 0
M  V30 22724 O 2199.56 0.226907 -2.00118 0
M  V30 22725 C 2196.62 0.058605 -3.4665 0
M  V30 22726 C 2195.68 -0.949824 -4.18661 0
M  V30 22727 C 2194.92 -0.325864 -5.32704 0
M  V30 22728 O 2195.14 0.87441 -5.63658 0
M  V30 22729 O 2194.07 -1.0426 -5.92801 0
M  V30 22730 H 2197.9 -1.48285 -2.65038 0
M  V30 22731 H 2195.49 -0.786105 -1.27046 0
M  V30 22732 H 2197.37 0.42449 -4.19257 0
M  V30 22733 H 2196.04 0.919125 -3.10377 0
M  V30 22734 H 2194.95 -1.36708 -3.48227 0
M  V30 22735 H 2196.28 -1.78031 -4.58875 0
M  V30 22736 N 2197.93 1.36205 -0.792844 0
M  V30 22737 C 2199.35 1.5237 -0.47493 0
M  V30 22738 C 2199.55 1.7458 1.00619 0
M  V30 22739 O 2198.61 1.77927 1.79159 0
M  V30 22740 C 2199.92 2.70745 -1.30835 0
M  V30 22741 C 2201.47 2.84617 -1.30239 0
M  V30 22742 C 2201.94 4.06 -2.11963 0
M  V30 22743 N 2203.43 4.13152 -2.09427 0
M  V30 22744 C 2204.17 5.06158 -2.69428 0
M  V30 22745 N 2203.66 6.04586 -3.38301 0
M  V30 22746 N 2205.46 4.988 -2.59143 0
M  V30 22747 H 2197.61 1.20043 -1.75224 0
M  V30 22748 H 2199.87 0.586198 -0.745034 0
M  V30 22749 H 2199.58 2.60866 -2.35885 0
M  V30 22750 H 2199.45 3.64988 -0.952024 0
M  V30 22751 H 2201.84 2.93954 -0.259799 0
M  V30 22752 H 2201.92 1.91271 -1.6985 0
M  V30 22753 H 2201.56 3.97423 -3.16255 0
M  V30 22754 H 2201.49 4.985 -1.6972 0
M  V30 22755 H 2203.98 3.42682 -1.59303 0
M  V30 22756 H 2204.3 6.72123 -3.81405 0
M  V30 22757 H 2202.64 6.04801 -3.42404 0
M  V30 22758 H 2205.83 4.20855 -2.04935 0
M  V30 22759 H 2206.01 5.71094 -3.06195 0
M  V30 22760 N 2199.41 0.545154 1.47871 0
M  V30 22761 C 2200.64 0.0211204 2.06889 0
M  V30 22762 C 2201.06 -1.26718 1.39957 0
M  V30 22763 O 2200.41 -1.75741 0.492067 0
M  V30 22764 C 2200.46 -0.190754 3.60996 0
M  V30 22765 O 2200.18 1.04652 4.25417 0
M  V30 22766 C 2201.69 -0.753445 4.3685 0
M  V30 22767 H 2198.91 0.0403753 0.669784 0
M  V30 22768 H 2201.45 0.755128 1.90048 0
M  V30 22769 H 2199.6 -0.874854 3.77392 0
M  V30 22770 H 2200.02 0.836702 5.17783 0
M  V30 22771 H 2201.49 -0.851043 5.454 0
M  V30 22772 H 2201.97 -1.76193 4.02309 0
M  V30 22773 H 2202.58 -0.105429 4.25169 0
M  V30 22774 N 2200.89 -1.55074 0.28101 0
M  V30 22775 C 2202.12 -2.04133 -0.337257 0
M  V30 22776 C 2202.53 -1.15915 -1.49028 0
M  V30 22777 O 2201.89 -0.180491 -1.81605 0
M  V30 22778 C 2201.94 -3.52248 -0.812644 0
M  V30 22779 O 2201.66 -4.37109 0.294464 0
M  V30 22780 C 2203.16 -4.17218 -1.49812 0
M  V30 22781 H 2200.38 -0.666665 -0.0761521 0
M  V30 22782 H 2202.93 -2.00249 0.414822 0
M  V30 22783 H 2201.08 -3.56557 -1.5148 0
M  V30 22784 H 2201.5 -5.24451 -0.0720403 0
M  V30 22785 H 2202.97 -5.22441 -1.78211 0
M  V30 22786 H 2203.45 -3.65745 -2.43161 0
M  V30 22787 H 2204.05 -4.16929 -0.839669 0
M  V30 22788 N 2202.37 -0.00838561 -1.57598 0
M  V30 22789 C 2203.3 0.979076 -2.11982 0
M  V30 22790 C 2204.28 1.35299 -1.03093 0
M  V30 22791 O 2205.47 1.43526 -1.3082 0
M  V30 22792 C 2202.6 2.26824 -2.62999 0
M  V30 22793 C 2201.55 2.03569 -3.76488 0
M  V30 22794 C 2200.88 3.38571 -4.13852 0
M  V30 22795 C 2202.18 1.39152 -5.03422 0
M  V30 22796 H 2203.87 0.52623 -2.94739 0
M  V30 22797 H 2201.42 0.251679 -1.41784 0
M  V30 22798 H 2203.37 2.96266 -2.99674 0
M  V30 22799 H 2202.09 2.74237 -1.77374 0
M  V30 22800 H 2200.75 1.36551 -3.4022 0
M  V30 22801 H 2200.4 3.83704 -3.25239 0
M  V30 22802 H 2200.1 3.23825 -4.90317 0
M  V30 22803 H 2201.62 4.09315 -4.53093 0
M  V30 22804 H 2203.04 1.98563 -5.37815 0
M  V30 22805 H 2201.43 1.34868 -5.84748 0
M  V30 22806 H 2202.5 0.361783 -4.83548 0
M  V30 22807 N 2203.85 1.55365 0.264492 0
M  V30 22808 C 2205.07 1.80741 1.01722 0
M  V30 22809 C 2205.5 0.583075 1.78835 0
M  V30 22810 O 2204.86 -0.467535 1.75168 0
M  V30 22811 C 2204.9 3.03663 1.94477 0
M  V30 22812 O 2204.01 2.79345 3.03381 0
M  V30 22813 H 2203.35 0.597137 0.290384 0
M  V30 22814 H 2205.88 2.02523 0.290818 0
M  V30 22815 H 2205.89 3.32625 2.36272 0
M  V30 22816 H 2204.56 3.9242 1.37765 0
M  V30 22817 H 2203.14 2.61503 2.6584 0
M  V30 22818 N 2205.33 -0.529387 1.48443 0
M  V30 22819 C 2206.57 -1.28264 1.56181 0
M  V30 22820 C 2206.89 -1.93545 0.237755 0
M  V30 22821 O 2206.16 -1.81355 -0.740747 0
M  V30 22822 H 2204.74 -0.476395 0.575375 0
M  V30 22823 H 2207.41 -0.615988 1.8491 0
M  V30 22824 H 2206.5 -2.06161 2.34316 0
M  V30 22825 N 2206.8 -1.37041 -0.778305 0
M  V30 22826 C 2208.21 -1.28525 -1.35419 0
M  V30 22827 C 2208.57 0.0700557 -1.96075 0
M  V30 22828 O 2207.69 0.971767 -1.93354 0
M  V30 22829 C 2208.29 -2.32739 -2.46207 0
M  V30 22830 C 2206.84 -2.27878 -2.99581 0
M  V30 22831 C 2205.99 -2.16921 -1.72744 0
M  V30 22832 H 2208.94 -1.47758 -0.579074 0
M  V30 22833 H 2208.96 -1.97026 -3.25517 0
M  V30 22834 H 2208.48 -3.31369 -2.0203 0
M  V30 22835 H 2206.58 -1.32751 -3.48149 0
M  V30 22836 H 2206.69 -3.21025 -3.5564 0
M  V30 22837 H 2205.05 -1.63358 -1.95413 0
M  V30 22838 H 2205.84 -3.17455 -1.30681 0
M  V30 22839 N 2208.28 1.00373 -1.21503 0
M  V30 22840 C 2209.7 1.26537 -0.972652 0
M  V30 22841 C 2209.9 1.98607 0.340222 0
M  V30 22842 O 2208.95 2.28915 1.06557 0
M  V30 22843 C 2210.27 2.08778 -2.16408 0
M  V30 22844 C 2211.81 2.22 -2.20647 0
M  V30 22845 C 2212.29 3.07623 -3.39312 0
M  V30 22846 N 2213.78 3.15211 -3.39406 0
M  V30 22847 C 2214.52 3.81722 -4.27874 0
M  V30 22848 N 2214.01 4.50251 -5.26541 0
M  V30 22849 N 2215.8 3.78375 -4.15679 0
M  V30 22850 H 2207.96 0.520244 -2.0593 0
M  V30 22851 H 2210.22 0.292312 -0.901808 0
M  V30 22852 H 2209.92 1.63173 -3.11557 0
M  V30 22853 H 2209.8 3.09529 -2.15573 0
M  V30 22854 H 2212.19 2.66823 -1.26053 0
M  V30 22855 H 2212.27 1.20714 -2.25525 0
M  V30 22856 H 2211.91 2.63502 -4.342 0
M  V30 22857 H 2211.84 4.09025 -3.31672 0
M  V30 22858 H 2214.33 2.66428 -2.68001 0
M  V30 22859 H 2214.64 4.9871 -5.90346 0
M  V30 22860 H 2212.99 4.49034 -5.30465 0
M  V30 22861 H 2216.18 3.23992 -3.37856 0
M  V30 22862 H 2216.35 4.29932 -4.84833 0
M  V30 22863 N 2209.76 1.02298 1.19887 0
M  V30 22864 C 2210.98 0.735271 1.93929 0
M  V30 22865 C 2211.41 -0.698751 1.7464 0
M  V30 22866 O 2210.77 -1.48165 1.04483 0
M  V30 22867 C 2210.82 1.08423 3.43914 0
M  V30 22868 O 2209.92 0.199519 4.11917 0
M  V30 22869 H 2209.26 0.272207 0.60564 0
M  V30 22870 H 2211.79 1.36807 1.52135 0
M  V30 22871 H 2211.8 1.03863 3.94559 0
M  V30 22872 H 2210.48 2.12901 3.57276 0
M  V30 22873 H 2209.05 0.303201 3.71665 0
M  V30 22874 N 2211.24 -1.35782 0.800057 0
M  V30 22875 C 2212.18 -2.29898 0.203888 0
M  V30 22876 C 2213.15 -1.52496 -0.658348 0
M  V30 22877 O 2214.34 -1.80961 -0.6048 0
M  V30 22878 C 2211.48 -3.38984 -0.64682 0
M  V30 22879 C 2210.59 -4.3136 0.23513 0
M  V30 22880 C 2209.73 -5.27534 -0.622961 0
M  V30 22881 C 2208.77 -6.11548 0.25979 0
M  V30 22882 N 2207.9 -6.9988 -0.557896 0
M  V30 22883 H 2212.74 -2.80294 1.01191 0
M  V30 22884 H 2210.28 -1.37956 0.510554 0
M  V30 22885 H 2212.24 -4.00889 -1.15514 0
M  V30 22886 H 2210.87 -2.89881 -1.42016 0
M  V30 22887 H 2209.92 -3.70516 0.861504 0
M  V30 22888 H 2211.23 -4.90339 0.914854 0
M  V30 22889 H 2210.39 -5.94781 -1.19667 0
M  V30 22890 H 2209.13 -4.69036 -1.33628 0
M  V30 22891 H 2208.13 -5.43255 0.845822 0
M  V30 22892 H 2209.36 -6.72124 0.970866 0
M  V30 22893 H 2207.3 -6.43877 -1.2553 0
M  V30 22894 H 2207.22 -7.55973 0.06392 0
M  V30 22895 H 2208.49 -7.71483 -1.11509 0
M  V30 22896 N 2212.72 -0.552988 -1.4758 0
M  V30 22897 C 2214.13 -0.118496 -1.86324 0
M  V30 22898 C 2214.48 1.31057 -1.46008 0
M  V30 22899 O 2213.6 1.98525 -0.861217 0
M  V30 22900 C 2214.2 -0.208269 -3.38159 0
M  V30 22901 C 2212.76 0.17116 -3.76011 0
M  V30 22902 C 2211.9 -0.557734 -2.71633 0
M  V30 22903 H 2214.85 -0.762953 -1.39157 0
M  V30 22904 H 2214.88 0.574212 -3.76142 0
M  V30 22905 H 2214.39 -1.24847 -3.67471 0
M  V30 22906 H 2212.49 1.21263 -3.52315 0
M  V30 22907 H 2212.6 -0.184463 -4.78745 0
M  V30 22908 H 2210.97 -0.00130269 -2.547 0
M  V30 22909 H 2211.75 -1.59901 -3.03787 0
M  V30 22910 N 2214.19 1.54923 -0.28923 0
M  V30 22911 C 2215.16 2.21763 0.579105 0
M  V30 22912 C 2216.16 1.19992 1.07045 0
M  V30 22913 O 2217.35 1.44805 0.968359 0
M  V30 22914 C 2214.48 2.89473 1.8005 0
M  V30 22915 H 2215.67 2.999 -0.00470179 0
M  V30 22916 H 2213.22 1.56249 -0.0399581 0
M  V30 22917 H 2213.96 2.15386 2.42445 0
M  V30 22918 H 2213.74 3.64067 1.45595 0
M  V30 22919 H 2215.23 3.40498 2.41767 0
M  V30 22920 N 2215.67 0.0167433 1.57591 0
M  V30 22921 C 2216.9 -0.678685 1.95981 0
M  V30 22922 C 2217.32 -1.65574 0.892575 0
M  V30 22923 O 2216.68 -1.80697 -0.14774 0
M  V30 22924 C 2216.73 -1.37221 3.33471 0
M  V30 22925 O 2215.83 -2.48717 3.28959 0
M  V30 22926 H 2215.17 -0.179269 0.639342 0
M  V30 22927 H 2217.7 0.0749162 2.04463 0
M  V30 22928 H 2217.71 -1.73184 3.6942 0
M  V30 22929 H 2216.39 -0.655935 4.10695 0
M  V30 22930 H 2214.96 -2.14958 3.04709 0
M  V30 22931 N 2217.15 -1.55503 -0.256249 0
M  V30 22932 C 2218.56 -1.67432 -0.826039 0
M  V30 22933 C 2218.91 -0.612478 -1.86395 0
M  V30 22934 O 2218.04 0.242987 -2.15031 0
M  V30 22935 C 2218.63 -3.03535 -1.50507 0
M  V30 22936 C 2217.19 -3.17435 -2.02267 0
M  V30 22937 C 2216.34 -2.63282 -0.870502 0
M  V30 22938 H 2219.29 -1.58667 -0.0322449 0
M  V30 22939 H 2219.31 -2.97458 -2.37274 0
M  V30 22940 H 2218.82 -3.80796 -0.749417 0
M  V30 22941 H 2216.92 -2.44979 -2.80742 0
M  V30 22942 H 2217.04 -4.24223 -2.22648 0
M  V30 22943 H 2215.4 -2.20866 -1.26847 0
M  V30 22944 H 2216.18 -3.43061 -0.128088 0
M  V30 22945 N 2218.63 0.521507 -1.48721 0
M  V30 22946 C 2219.58 1.62524 -1.63874 0
M  V30 22947 C 2220.55 1.58996 -0.480587 0
M  V30 22948 O 2221.73 1.77293 -0.705116 0
M  V30 22949 C 2218.87 3.00756 -1.69232 0
M  V30 22950 C 2217.98 3.14455 -2.96212 0
M  V30 22951 C 2217.12 4.43298 -2.92678 0
M  V30 22952 C 2216.16 4.50556 -4.14326 0
M  V30 22953 N 2215.29 5.70798 -4.0882 0
M  V30 22954 H 2220.13 1.48913 -2.58126 0
M  V30 22955 H 2217.67 0.724856 -1.28001 0
M  V30 22956 H 2219.63 3.8085 -1.70321 0
M  V30 22957 H 2218.26 3.13119 -0.784641 0
M  V30 22958 H 2217.31 2.27558 -3.0483 0
M  V30 22959 H 2218.62 3.15679 -3.86197 0
M  V30 22960 H 2217.78 5.31691 -2.92215 0
M  V30 22961 H 2216.52 4.44608 -2.00437 0
M  V30 22962 H 2215.52 3.60568 -4.15055 0
M  V30 22963 H 2216.75 4.50977 -5.07737 0
M  V30 22964 H 2214.69 5.7299 -3.19404 0
M  V30 22965 H 2214.61 5.73552 -4.92519 0
M  V30 22966 H 2215.88 6.61455 -4.12429 0
M  V30 22967 N 2220.11 1.37452 0.771027 0
M  V30 22968 C 2221.04 1.35974 1.89825 0
M  V30 22969 C 2222.02 0.228246 1.68562 0
M  V30 22970 O 2223.2 0.428708 1.89409 0
M  V30 22971 C 2220.33 1.16668 3.27118 0
M  V30 22972 C 2219.29 2.26836 3.62946 0
M  V30 22973 C 2218.61 1.92652 4.98788 0
M  V30 22974 C 2219.91 3.69023 3.6962 0
M  V30 22975 H 2221.61 2.30299 1.91319 0
M  V30 22976 H 2219.15 1.10857 0.919062 0
M  V30 22977 H 2221.11 1.14263 4.05613 0
M  V30 22978 H 2219.83 0.187983 3.26059 0
M  V30 22979 H 2218.49 2.28397 2.86759 0
M  V30 22980 H 2218.14 0.933108 4.94269 0
M  V30 22981 H 2217.84 2.66425 5.23729 0
M  V30 22982 H 2219.36 1.91836 5.79682 0
M  V30 22983 H 2220.77 3.69588 4.38266 0
M  V30 22984 H 2219.17 4.41855 4.06059 0
M  V30 22985 H 2220.24 4.02597 2.70266 0
M  V30 22986 N 2221.58 -0.997276 1.22033 0
M  V30 22987 C 2222.81 -1.77713 1.06924 0
M  V30 22988 C 2223.23 -1.843 -0.376193 0
M  V30 22989 O 2222.59 -1.29226 -1.27163 0
M  V30 22990 C 2222.64 -3.19073 1.68002 0
M  V30 22991 O 2221.74 -4.0176 0.930723 0
M  V30 22992 H 2221.09 -0.547405 0.375824 0
M  V30 22993 H 2223.62 -1.25306 1.61739 0
M  V30 22994 H 2223.63 -3.6972 1.72544 0
M  V30 22995 H 2222.3 -3.13594 2.73188 0
M  V30 22996 H 2220.88 -3.60305 0.96098 0
M  V30 22997 N 2223.06 -1.02932 -1.19343 0
M  V30 22998 C 2224.47 -0.755663 -1.70724 0
M  V30 22999 C 2224.82 0.724644 -1.82328 0
M  V30 23000 O 2223.95 1.56482 -1.49474 0
M  V30 23001 C 2224.54 -1.36508 -3.10082 0
M  V30 23002 C 2223.1 -1.14 -3.58721 0
M  V30 23003 C 2222.25 -1.46287 -2.35575 0
M  V30 23004 H 2225.2 -1.19719 -1.04178 0
M  V30 23005 H 2225.22 -0.762283 -3.72786 0
M  V30 23006 H 2224.73 -2.44246 -3.01605 0
M  V30 23007 H 2222.84 -0.0808556 -3.72512 0
M  V30 23008 H 2222.95 -1.82902 -4.42813 0
M  V30 23009 H 2221.31 -0.882212 -2.38933 0
M  V30 23010 H 2222.1 -2.55109 -2.29727 0
M  V30 23011 N 2224.54 1.35356 -0.807246 0
M  V30 23012 C 2225.45 2.3357 -0.219635 0
M  V30 23013 C 2226.47 1.61893 0.637705 0
M  V30 23014 O 2227.64 1.93764 0.549302 0
M  V30 23015 C 2224.71 3.41084 0.62152 0
M  V30 23016 C 2223.77 4.28534 -0.25639 0
M  V30 23017 C 2223 5.30913 0.544713 0
M  V30 23018 O 2223.22 5.41937 1.77935 0
M  V30 23019 O 2222.16 6.01865 -0.0647536 0
M  V30 23020 H 2225.98 2.85624 -1.03213 0
M  V30 23021 H 2223.57 1.38138 -0.569049 0
M  V30 23022 H 2225.45 4.06774 1.1006 0
M  V30 23023 H 2224.13 2.913 1.4116 0
M  V30 23024 H 2223.03 3.65822 -0.782623 0
M  V30 23025 H 2224.37 4.81717 -1.01043 0
M  V30 23026 N 2226.02 0.560807 1.47284 0
M  V30 23027 C 2227.43 0.128376 1.86258 0
M  V30 23028 C 2227.78 -1.30281 1.46701 0
M  V30 23029 O 2226.91 -1.98065 0.871733 0
M  V30 23030 C 2227.5 0.2262 3.38044 0
M  V30 23031 C 2226.06 -0.151217 3.76096 0
M  V30 23032 C 2225.21 0.572131 2.71334 0
M  V30 23033 H 2228.16 0.770322 1.38751 0
M  V30 23034 H 2228.18 -0.554256 3.76442 0
M  V30 23035 H 2227.69 1.26794 3.66804 0
M  V30 23036 H 2225.79 -1.19393 3.52953 0
M  V30 23037 H 2225.9 0.209849 4.7864 0
M  V30 23038 H 2224.27 0.01481 2.54696 0
M  V30 23039 H 2225.05 1.6151 3.02935 0
M  V30 23040 N 2227.5 -1.54768 0.297442 0
M  V30 23041 C 2228.43 -2.20827 -0.613842 0
M  V30 23042 C 2229.44 -1.19989 -1.1003 0
M  V30 23043 O 2230.63 -1.466 -1.01836 0
M  V30 23044 C 2227.73 -2.83824 -1.85195 0
M  V30 23045 C 2226.9 -4.10561 -1.50858 0
M  V30 23046 C 2225.96 -4.57395 -2.60146 0
M  V30 23047 O 2224.99 -5.22674 -2.25389 0
M  V30 23048 N 2226.19 -4.29413 -3.90621 0
M  V30 23049 H 2228.96 -2.99661 -0.0483364 0
M  V30 23050 H 2226.52 -1.61458 0.119488 0
M  V30 23051 H 2228.51 -3.1209 -2.57647 0
M  V30 23052 H 2227.08 -2.08852 -2.32594 0
M  V30 23053 H 2226.3 -3.89344 -0.616857 0
M  V30 23054 H 2227.59 -4.93092 -1.2545 0
M  V30 23055 H 2226.98 -3.77108 -4.21671 0
M  V30 23056 H 2225.54 -4.62396 -4.59383 0
M  V30 23057 N 2228.97 -0.0251005 -1.5758 0
M  V30 23058 C 2230.2 0.664712 -1.95932 0
M  V30 23059 C 2230.62 1.65893 -0.901382 0
M  V30 23060 O 2229.97 1.82123 0.117223 0
M  V30 23061 C 2230.03 1.37462 -3.34345 0
M  V30 23062 O 2229.75 0.420247 -4.3608 0
M  V30 23063 C 2231.25 2.15663 -3.87304 0
M  V30 23064 H 2228.47 0.183546 -0.645408 0
M  V30 23065 H 2231.01 -0.0836731 -2.04329 0
M  V30 23066 H 2229.17 2.07444 -3.27179 0
M  V30 23067 H 2229.58 0.9239 -5.16299 0
M  V30 23068 H 2231.05 2.60794 -4.86508 0
M  V30 23069 H 2231.53 2.99399 -3.21336 0
M  V30 23070 H 2232.14 1.50647 -3.97726 0
M  V30 23071 N 2230.45 1.55637 0.247999 0
M  V30 23072 C 2231.86 1.67868 0.817148 0
M  V30 23073 C 2232.21 0.622355 1.86068 0
M  V30 23074 O 2231.34 -0.23158 2.15157 0
M  V30 23075 C 2231.93 3.04328 1.48895 0
M  V30 23076 C 2230.49 3.18503 2.00581 0
M  V30 23077 C 2229.64 2.6374 0.856527 0
M  V30 23078 H 2232.59 1.58682 0.02383 0
M  V30 23079 H 2232.61 2.98712 2.35693 0
M  V30 23080 H 2232.12 3.81188 0.729212 0
M  V30 23081 H 2230.23 2.46465 2.79439 0
M  V30 23082 H 2230.34 4.25397 2.20395 0
M  V30 23083 H 2228.7 2.21536 1.25674 0
M  V30 23084 H 2229.49 3.43124 0.109893 0
M  V30 23085 N 2231.93 -0.513613 1.48996 0
M  V30 23086 C 2233.16 -1.29759 1.61794 0
M  V30 23087 C 2233.58 -1.85936 0.284508 0
M  V30 23088 O 2232.94 -1.65234 -0.746156 0
M  V30 23089 C 2232.99 -2.41268 2.67997 0
M  V30 23090 O 2232.09 -3.44768 2.26294 0
M  V30 23091 H 2231.43 -0.383621 0.54197 0
M  V30 23092 H 2233.96 -0.616273 1.95098 0
M  V30 23093 H 2233.97 -2.87216 2.89777 0
M  V30 23094 H 2232.65 -1.99743 3.64795 0
M  V30 23095 H 2231.22 -3.04825 2.14793 0
M  V30 23096 N 2233.41 -1.37859 -0.763727 0
M  V30 23097 C 2234.34 -1.36978 -1.89101 0
M  V30 23098 C 2235.32 -0.237182 -1.68438 0
M  V30 23099 O 2236.51 -0.438747 -1.89179 0
M  V30 23100 C 2233.64 -1.18401 -3.26494 0
M  V30 23101 C 2232.59 -2.28758 -3.61737 0
M  V30 23102 C 2231.92 -1.95295 -4.97759 0
M  V30 23103 C 2233.22 -3.70978 -3.67658 0
M  V30 23104 H 2234.91 -2.3131 -1.90095 0
M  V30 23105 H 2232.46 -1.11343 -0.91317 0
M  V30 23106 H 2234.41 -1.16413 -4.05001 0
M  V30 23107 H 2233.13 -0.205272 -3.25954 0
M  V30 23108 H 2231.79 -2.29914 -2.85543 0
M  V30 23109 H 2231.44 -0.959307 -4.93767 0
M  V30 23110 H 2231.14 -2.69198 -5.22308 0
M  V30 23111 H 2232.66 -1.94908 -5.78656 0
M  V30 23112 H 2234.08 -3.71907 -4.363 0
M  V30 23113 H 2232.47 -4.44002 -4.0371 0
M  V30 23114 H 2233.54 -4.04025 -2.68127 0
M  V30 23115 N 2234.89 0.990791 -1.22561 0
M  V30 23116 C 2235.85 2.06288 -0.998899 0
M  V30 23117 C 2236.85 1.60761 0.0354551 0
M  V30 23118 O 2238.04 1.7301 -0.203261 0
M  V30 23119 C 2235.17 3.37075 -0.509263 0
M  V30 23120 H 2236.37 2.27833 -1.95018 0
M  V30 23121 H 2233.92 1.16267 -1.04459 0
M  V30 23122 H 2234.65 3.21215 0.446279 0
M  V30 23123 H 2234.44 3.71455 -1.25554 0
M  V30 23124 H 2235.93 4.15949 -0.370961 0
M  V30 23125 N 2236.37 1.03564 1.18795 0
M  V30 23126 C 2237.78 0.764706 1.70321 0
M  V30 23127 C 2238.13 -0.714964 1.82709 0
M  V30 23128 O 2237.25 -1.55687 1.50302 0
M  V30 23129 C 2237.85 1.38151 3.09354 0
M  V30 23130 C 2236.41 1.15901 3.58112 0
M  V30 23131 C 2235.55 1.47534 2.34796 0
M  V30 23132 H 2238.5 1.2027 1.03541 0
M  V30 23133 H 2238.53 0.782042 3.72377 0
M  V30 23134 H 2238.04 2.45842 3.00305 0
M  V30 23135 H 2236.14 0.10061 3.72464 0
M  V30 23136 H 2236.25 1.85248 4.41837 0
M  V30 23137 H 2234.62 0.894871 2.38462 0
M  V30 23138 H 2235.4 2.56323 2.28371 0
M  V30 23139 N 2237.84 -1.34926 0.814413 0
M  V30 23140 C 2238.81 -2.27984 0.235799 0
M  V30 23141 C 2239.81 -1.49922 -0.581385 0
M  V30 23142 O 2241 -1.69575 -0.398728 0
M  V30 23143 C 2238.13 -3.34244 -0.670374 0
M  V30 23144 H 2239.32 -2.80669 1.05664 0
M  V30 23145 H 2236.87 -1.44914 0.585639 0
M  V30 23146 H 2237.61 -2.86758 -1.51461 0
M  V30 23147 H 2237.39 -3.92006 -0.0860133 0
M  V30 23148 H 2238.88 -4.03678 -1.06928 0
M  V30 23149 N 2239.32 -0.56861 -1.46985 0
M  V30 23150 C 2240.27 0.172666 -2.30153 0
M  V30 23151 C 2241.24 0.897562 -1.39761 0
M  V30 23152 O 2242.42 0.891014 -1.68717 0
M  V30 23153 C 2239.56 1.18944 -3.23954 0
M  V30 23154 C 2238.68 0.469441 -4.29442 0
M  V30 23155 C 2237.81 1.4725 -5.10383 0
M  V30 23156 C 2236.85 0.738118 -6.07633 0
M  V30 23157 N 2235.99 1.68856 -6.81493 0
M  V30 23158 H 2240.83 -0.542647 -2.93018 0
M  V30 23159 H 2238.36 -0.279426 -1.44422 0
M  V30 23160 H 2240.32 1.79166 -3.7677 0
M  V30 23161 H 2238.95 1.87264 -2.62929 0
M  V30 23162 H 2238 -0.247534 -3.79594 0
M  V30 23163 H 2239.32 -0.105329 -4.98689 0
M  V30 23164 H 2238.47 2.14793 -5.67405 0
M  V30 23165 H 2237.21 2.0812 -4.41064 0
M  V30 23166 H 2236.21 0.0488326 -5.49778 0
M  V30 23167 H 2237.44 0.13501 -6.78966 0
M  V30 23168 H 2235.39 2.28562 -6.14895 0
M  V30 23169 H 2235.3 1.16623 -7.4695 0
M  V30 23170 H 2236.57 2.35477 -7.43082 0
M  V30 23171 N 2240.8 1.54608 -0.305646 0
M  V30 23172 C 2242.04 2.02141 0.303078 0
M  V30 23173 C 2242.4 1.18924 1.50735 0
M  V30 23174 O 2243.6 1.56176 2.18775 0
M  V30 23175 C 2241.88 3.51508 0.64627 0
M  V30 23176 S 2243.43 4.20998 1.2372 0
M  V30 23177 H 2240.25 0.704924 0.0927519 0
M  V30 23178 H 2242.85 1.90608 -0.434599 0
M  V30 23179 H 2241.56 4.09706 -0.238613 0
M  V30 23180 H 2241.09 3.67086 1.41462 0
M  V30 23181 H 2243.1 4.27162 2.52482 0
M  V30 23182 N 2242.28 0.033457 1.57564 0
M  V30 23183 C 2243.5 -0.657861 1.9669 0
M  V30 23184 C 2243.93 -1.64618 0.910086 0
M  V30 23185 O 2243.29 -1.80844 -0.128566 0
M  V30 23186 C 2243.33 -1.33677 3.34907 0
M  V30 23187 O 2242.44 -2.45213 3.31578 0
M  V30 23188 H 2241.78 -0.172478 0.641208 0
M  V30 23189 H 2244.31 0.096598 2.04372 0
M  V30 23190 H 2244.32 -1.69256 3.71236 0
M  V30 23191 H 2242.99 -0.612339 4.11368 0
M  V30 23192 H 2241.57 -2.11714 3.06972 0
M  V30 23193 N 2243.76 -1.55766 -0.239741 0
M  V30 23194 C 2244.72 -1.90105 -1.28034 0
M  V30 23195 C 2245.72 -0.77808 -1.40722 0
M  V30 23196 O 2246.91 -1.04601 -1.39299 0
M  V30 23197 C 2244.04 -2.13581 -2.65699 0
M  V30 23198 H 2245.23 -2.83158 -0.987998 0
M  V30 23199 H 2242.79 -1.48768 -0.479356 0
M  V30 23200 H 2243.52 -1.2302 -3.00061 0
M  V30 23201 H 2243.31 -2.95374 -2.5787 0
M  V30 23202 H 2244.8 -2.41307 -3.40823 0
M  V30 23203 N 2245.23 0.505704 -1.49266 0
M  V30 23204 C 2246.64 1.08731 -1.51771 0
M  V30 23205 C 2247 1.93874 -0.301226 0
M  V30 23206 O 2246.12 2.08218 0.589419 0
M  V30 23207 C 2246.72 1.97862 -2.7502 0
M  V30 23208 C 2245.27 2.51194 -2.80319 0
M  V30 23209 C 2244.42 1.28704 -2.45623 0
M  V30 23210 H 2247.37 0.289827 -1.56031 0
M  V30 23211 H 2247.39 2.82486 -2.54915 0
M  V30 23212 H 2246.91 1.35866 -3.63541 0
M  V30 23213 H 2245.01 3.16842 -1.96067 0
M  V30 23214 H 2245.12 2.88668 -3.82371 0
M  V30 23215 H 2243.48 1.61074 -1.973 0
M  V30 23216 H 2244.27 0.684241 -3.36412 0
M  V30 23217 N 2246.71 1.38262 0.756405 0
M  V30 23218 C 2247.94 1.3772 1.55074 0
M  V30 23219 C 2248.36 -0.0316069 1.88073 0
M  V30 23220 O 2247.72 -1.0129 1.50366 0
M  V30 23221 C 2247.77 2.237 2.82826 0
M  V30 23222 O 2246.87 1.65217 3.77859 0
M  V30 23223 H 2246.21 0.469893 0.469144 0
M  V30 23224 H 2248.74 1.81987 0.934987 0
M  V30 23225 H 2248.75 2.37459 3.31779 0
M  V30 23226 H 2247.43 3.26095 2.58138 0
M  V30 23227 H 2246.01 1.60584 3.36552 0
M  V30 23228 N 2248.19 -0.984277 1.23084 0
M  V30 23229 C 2249.42 -1.76569 1.08803 0
M  V30 23230 C 2249.84 -1.84688 -0.356625 0
M  V30 23231 O 2249.2 -1.30567 -1.25785 0
M  V30 23232 C 2249.25 -3.17273 1.71376 0
M  V30 23233 O 2248.35 -4.0075 0.973283 0
M  V30 23234 H 2247.69 -0.543388 0.381609 0
M  V30 23235 H 2250.22 -1.23584 1.63059 0
M  V30 23236 H 2250.23 -3.67869 1.76456 0
M  V30 23237 H 2248.91 -3.10679 2.76498 0
M  V30 23238 H 2247.48 -3.59265 0.999141 0
M  V30 23239 N 2249.67 -1.04192 -1.18244 0
M  V30 23240 C 2250.63 -0.638491 -2.20127 0
M  V30 23241 C 2251.63 0.304777 -1.57885 0
M  V30 23242 O 2252.82 0.0900063 -1.73967 0
M  V30 23243 C 2249.95 0.0637152 -3.4084 0
M  V30 23244 H 2251.15 -1.54012 -2.57333 0
M  V30 23245 H 2248.7 -0.834621 -1.32151 0
M  V30 23246 H 2249.43 0.979081 -3.09167 0
M  V30 23247 H 2249.22 -0.614266 -3.87259 0
M  V30 23248 H 2250.71 0.332439 -4.16275 0
M  V30 23249 N 2251.15 1.34492 -0.821557 0
M  V30 23250 C 2252.39 1.98621 -0.409587 0
M  V30 23251 C 2252.73 1.64986 1.02437 0
M  V30 23252 O 2252 0.920788 1.71324 0
M  V30 23253 C 2252.28 3.54887 -0.610521 0
M  V30 23254 C 2252.14 3.98269 -2.0905 0
M  V30 23255 C 2253.46 4.40076 -0.0456153 0
M  V30 23256 H 2250.57 0.721513 -0.150292 0
M  V30 23257 H 2253.22 1.59409 -1.03387 0
M  V30 23258 H 2251.37 3.88419 -0.0791123 0
M  V30 23259 H 2253.04 3.75076 -2.68544 0
M  V30 23260 H 2251.28 3.48631 -2.58146 0
M  V30 23261 H 2251.95 5.07047 -2.18191 0
M  V30 23262 H 2254.43 4.13089 -0.49963 0
M  V30 23263 H 2253.3 5.48475 -0.216018 0
M  V30 23264 H 2253.57 4.29467 1.04932 0
M  V30 23265 N 2252.62 0.576397 1.46681 0
M  V30 23266 C 2253.85 0.0649999 2.06798 0
M  V30 23267 C 2254.27 -1.23721 1.42614 0
M  V30 23268 O 2253.62 -1.74658 0.529234 0
M  V30 23269 C 2253.68 -0.114138 3.6132 0
M  V30 23270 O 2253.4 1.13652 4.23102 0
M  V30 23271 C 2254.9 -0.660613 4.3835 0
M  V30 23272 H 2252.12 0.0545733 0.668777 0
M  V30 23273 H 2254.66 0.79527 1.88403 0
M  V30 23274 H 2252.82 -0.794606 3.79163 0
M  V30 23275 H 2253.23 0.946343 5.15892 0
M  V30 23276 H 2254.7 -0.735164 5.47083 0
M  V30 23277 H 2255.18 -1.6762 4.05956 0
M  V30 23278 H 2255.79 -0.0152203 4.25297 0
M  V30 23279 N 2254.1 -1.54444 0.313841 0
M  V30 23280 C 2255.51 -1.85867 -0.176211 0
M  V30 23281 C 2255.86 -1.23563 -1.52402 0
M  V30 23282 O 2254.99 -0.538053 -2.09604 0
M  V30 23283 C 2255.58 -3.37223 -0.32651 0
M  V30 23284 C 2254.14 -3.68631 -0.760781 0
M  V30 23285 C 2253.29 -2.77026 0.123296 0
M  V30 23286 H 2256.24 -1.4943 0.534444 0
M  V30 23287 H 2256.26 -3.62418 -1.15902 0
M  V30 23288 H 2255.77 -3.8254 0.654598 0
M  V30 23289 H 2253.88 -3.28841 -1.75198 0
M  V30 23290 H 2253.99 -4.75682 -0.571269 0
M  V30 23291 H 2252.35 -2.51547 -0.399552 0
M  V30 23292 H 2253.14 -3.25166 1.10099 0
M  V30 23293 N 2255.58 -0.0418125 -1.57545 0
M  V30 23294 C 2256.83 0.634987 -1.92603 0
M  V30 23295 C 2257.16 1.71044 -0.919657 0
M  V30 23296 O 2256.43 1.9442 0.055755 0
M  V30 23297 C 2256.72 1.23973 -3.38087 0
M  V30 23298 C 2256.57 0.172978 -4.49467 0
M  V30 23299 C 2257.89 2.1541 -3.83779 0
M  V30 23300 H 2255.01 0.229362 -0.700401 0
M  V30 23301 H 2257.65 -0.101666 -1.89728 0
M  V30 23302 H 2255.8 1.86756 -3.40667 0
M  V30 23303 H 2257.47 -0.458392 -4.59017 0
M  V30 23304 H 2255.72 -0.500072 -4.30908 0
M  V30 23305 H 2256.39 0.635957 -5.48324 0
M  V30 23306 H 2258.86 1.62599 -3.83016 0
M  V30 23307 H 2257.74 2.5467 -4.86245 0
M  V30 23308 H 2258 3.05042 -3.20003 0
M  V30 23309 N 2257.06 1.55891 0.231477 0
M  V30 23310 C 2258.47 1.68725 0.799297 0
M  V30 23311 C 2258.82 0.642055 1.85397 0
M  V30 23312 O 2257.95 -0.208746 2.15391 0
M  V30 23313 C 2258.54 3.05891 1.45659 0
M  V30 23314 C 2257.1 3.20613 1.97192 0
M  V30 23315 C 2256.25 2.64634 0.828506 0
M  V30 23316 H 2259.2 1.58698 0.00699826 0
M  V30 23317 H 2259.22 3.01195 2.32512 0
M  V30 23318 H 2258.73 3.8194 0.688741 0
M  V30 23319 H 2256.83 2.49414 2.76809 0
M  V30 23320 H 2256.94 4.27711 2.15871 0
M  V30 23321 H 2255.31 2.22856 1.23317 0
M  V30 23322 H 2256.09 3.43221 0.0734941 0
M  V30 23323 N 2258.54 -0.497781 1.49532 0
M  V30 23324 C 2259.95 -1.07924 1.52346 0
M  V30 23325 C 2260.3 -1.93711 0.311503 0
M  V30 23326 O 2259.42 -2.08528 -0.578369 0
M  V30 23327 C 2260.02 -1.964 2.76066 0
M  V30 23328 C 2258.58 -2.49704 2.81647 0
M  V30 23329 C 2257.72 -1.274 2.46302 0
M  V30 23330 H 2260.68 -0.281549 1.56183 0
M  V30 23331 H 2260.7 -2.8113 2.5641 0
M  V30 23332 H 2260.21 -1.33936 3.64256 0
M  V30 23333 H 2258.31 -3.15797 1.97744 0
M  V30 23334 H 2258.42 -2.86636 3.83896 0
M  V30 23335 H 2256.79 -1.60025 1.98151 0
M  V30 23336 H 2257.57 -0.666391 3.3677 0
M  V30 23337 N 2260.01 -1.38661 -0.749062 0
M  V30 23338 C 2260.98 -1.36048 -1.84455 0
M  V30 23339 C 2261.98 -0.26015 -1.58682 0
M  V30 23340 O 2263.17 -0.517291 -1.66342 0
M  V30 23341 C 2260.3 -1.11916 -3.22006 0
M  V30 23342 H 2261.49 -2.33515 -1.88178 0
M  V30 23343 H 2259.05 -1.2402 -0.951244 0
M  V30 23344 H 2259.78 -0.150743 -3.23949 0
M  V30 23345 H 2259.57 -1.91585 -3.42108 0
M  V30 23346 H 2261.06 -1.12795 -4.02078 0
M  V30 23347 N 2261.49 0.977736 -1.23605 0
M  V30 23348 C 2262.72 1.75989 -1.09738 0
M  V30 23349 C 2263.14 1.84875 0.346825 0
M  V30 23350 O 2262.5 1.31232 1.25091 0
M  V30 23351 C 2262.55 3.1636 -1.73057 0
M  V30 23352 O 2261.65 4.00229 -0.994522 0
M  V30 23353 H 2260.99 0.541357 -0.384485 0
M  V30 23354 H 2263.52 1.22717 -1.63712 0
M  V30 23355 H 2263.53 3.66928 -1.78404 0
M  V30 23356 H 2262.21 3.09208 -2.78142 0
M  V30 23357 H 2260.79 3.5873 -1.01818 0
M  V30 23358 N 2262.97 1.04818 1.1769 0
M  V30 23359 C 2263.9 0.66683 2.23776 0
M  V30 23360 C 2264.88 -0.333581 1.66797 0
M  V30 23361 O 2266.07 -0.212008 1.93039 0
M  V30 23362 C 2263.2 0.0368544 3.4728 0
M  V30 23363 C 2262.15 0.961619 4.17057 0
M  V30 23364 C 2261.48 0.19572 5.34342 0
M  V30 23365 C 2262.78 2.2841 4.69709 0
M  V30 23366 H 2264.47 1.55371 2.5593 0
M  V30 23367 H 2262.02 0.748506 1.23018 0
M  V30 23368 H 2263.97 -0.241701 4.20706 0
M  V30 23369 H 2262.69 -0.884949 3.14382 0
M  V30 23370 H 2261.35 1.22468 3.45539 0
M  V30 23371 H 2261 -0.728729 4.97693 0
M  V30 23372 H 2260.7 0.811878 5.81964 0
M  V30 23373 H 2262.23 -0.0756399 6.10553 0
M  V30 23374 H 2263.64 2.06572 5.34791 0
M  V30 23375 H 2262.04 2.8539 5.27895 0
M  V30 23376 H 2263.11 2.92532 3.86721 0
M  V30 23377 N 2264.45 -1.34055 0.828678 0
M  V30 23378 C 2265.38 -2.3194 0.269483 0
M  V30 23379 C 2266.36 -1.58507 -0.617219 0
M  V30 23380 O 2267.55 -1.86457 -0.542898 0
M  V30 23381 C 2264.68 -3.42678 -0.564733 0
M  V30 23382 C 2263.63 -4.27407 0.225316 0
M  V30 23383 C 2262.96 -5.29666 -0.732007 0
M  V30 23384 C 2264.26 -5.02151 1.43672 0
M  V30 23385 H 2265.95 -2.78958 1.08733 0
M  V30 23386 H 2263.5 -1.34116 0.524307 0
M  V30 23387 H 2265.45 -4.10175 -0.966161 0
M  V30 23388 H 2264.17 -2.94323 -1.41569 0
M  V30 23389 H 2262.83 -3.6152 0.608181 0
M  V30 23390 H 2262.48 -4.77571 -1.57908 0
M  V30 23391 H 2262.18 -5.87233 -0.207566 0
M  V30 23392 H 2263.7 -6.00031 -1.13117 0
M  V30 23393 H 2265.12 -5.62471 1.109 0
M  V30 23394 H 2263.51 -5.6932 1.89721 0
M  V30 23395 H 2264.58 -4.31513 2.21189 0
M  V30 23396 N 2265.93 -0.584167 -1.46374 0
M  V30 23397 C 2267.18 -0.0701642 -2.01978 0
M  V30 23398 C 2267.5 1.29497 -1.45792 0
M  V30 23399 O 2266.77 1.85041 -0.643172 0
M  V30 23400 H 2265.35 -0.0229476 -0.746647 0
M  V30 23401 H 2268.01 -0.760277 -1.7946 0
M  V30 23402 H 2267.1 -0.00226126 -3.121 0
M  V30 23403 N 2267.41 1.54275 -0.322027 0
M  V30 23404 C 2268.63 2.05422 0.285755 0
M  V30 23405 C 2269.06 1.19671 1.45122 0
M  V30 23406 O 2268.41 0.205473 1.80132 0
M  V30 23407 C 2268.46 3.5375 0.699497 0
M  V30 23408 O 2267.57 3.70945 1.80203 0
M  V30 23409 H 2266.91 0.66197 0.0518846 0
M  V30 23410 H 2269.44 1.99129 -0.469989 0
M  V30 23411 H 2269.45 3.95992 0.982579 0
M  V30 23412 H 2268.12 4.15619 -0.152937 0
M  V30 23413 H 2266.7 3.40609 1.51788 0
M  V30 23414 N 2268.88 0.0501669 1.5752 0
M  V30 23415 C 2270.13 -0.622608 1.92271 0
M  V30 23416 C 2270.45 -1.71442 0.929113 0
M  V30 23417 O 2269.72 -1.95883 -0.0261842 0
M  V30 23418 H 2268.3 -0.232968 0.709743 0
M  V30 23419 H 2270.96 0.102932 1.94628 0
M  V30 23420 H 2270.06 -1.06186 2.93481 0
M  V30 23421 N 2270.36 -1.56011 -0.223207 0
M  V30 23422 C 2271.59 -1.83029 -0.96478 0
M  V30 23423 C 2272 -0.629072 -1.78012 0
M  V30 23424 O 2271.36 0.402382 -1.78009 0
M  V30 23425 C 2271.41 -3.08545 -1.88368 0
M  V30 23426 O 2271.13 -4.24032 -1.1013 0
M  V30 23427 C 2272.63 -3.48537 -2.73928 0
M  V30 23428 H 2269.85 -0.60848 -0.282831 0
M  V30 23429 H 2272.4 -2.03099 -0.238936 0
M  V30 23430 H 2270.55 -2.90455 -2.56349 0
M  V30 23431 H 2270.97 -4.95325 -1.72492 0
M  V30 23432 H 2272.44 -4.39403 -3.3411 0
M  V30 23433 H 2272.92 -2.70213 -3.46239 0
M  V30 23434 H 2273.52 -3.69061 -2.11362 0
M  V30 23435 N 2271.84 0.489844 -1.49794 0
M  V30 23436 C 2272.79 1.59011 -1.67284 0
M  V30 23437 C 2273.76 1.5794 -0.514204 0
M  V30 23438 O 2274.94 1.75757 -0.742564 0
M  V30 23439 C 2272.08 2.97099 -1.75574 0
M  V30 23440 C 2271.19 3.08102 -3.02816 0
M  V30 23441 C 2270.33 4.3699 -3.02016 0
M  V30 23442 C 2269.37 4.41666 -4.2379 0
M  V30 23443 N 2268.51 5.61998 -4.20836 0
M  V30 23444 H 2273.35 1.43405 -2.61226 0
M  V30 23445 H 2270.88 0.697542 -1.2951 0
M  V30 23446 H 2272.84 3.77152 -1.78361 0
M  V30 23447 H 2271.47 3.11384 -0.850882 0
M  V30 23448 H 2270.52 2.21041 -3.09588 0
M  V30 23449 H 2271.83 3.07416 -3.92806 0
M  V30 23450 H 2270.99 5.25373 -3.03427 0
M  V30 23451 H 2269.73 4.40256 -2.09823 0
M  V30 23452 H 2268.73 3.51683 -4.2261 0
M  V30 23453 H 2269.96 4.40106 -5.17188 0
M  V30 23454 H 2267.9 5.66086 -3.31486 0
M  V30 23455 H 2267.82 5.62976 -5.04574 0
M  V30 23456 H 2269.09 6.52558 -4.26367 0
M  V30 23457 N 2273.32 1.39056 0.741698 0
M  V30 23458 C 2274.73 1.3207 1.31963 0
M  V30 23459 C 2275.08 -0.0180453 1.96192 0
M  V30 23460 O 2274.2 -0.920162 1.95862 0
M  V30 23461 C 2274.8 2.39185 2.3995 0
M  V30 23462 C 2273.36 2.35741 2.93434 0
M  V30 23463 C 2272.51 2.21425 1.66932 0
M  V30 23464 H 2275.46 1.49241 0.539695 0
M  V30 23465 H 2275.48 2.05587 3.20178 0
M  V30 23466 H 2274.99 3.36609 1.93174 0
M  V30 23467 H 2273.09 1.41935 3.44507 0
M  V30 23468 H 2273.2 3.30341 3.47004 0
M  V30 23469 H 2271.57 1.68481 1.91014 0
M  V30 23470 H 2272.35 3.20808 1.22218 0
M  V30 23471 N 2274.8 -0.971167 1.24121 0
M  V30 23472 C 2275.73 -2.06794 0.988386 0
M  V30 23473 C 2276.74 -1.62749 -0.0409255 0
M  V30 23474 O 2277.93 -1.77424 0.195704 0
M  V30 23475 C 2275.03 -3.35638 0.469082 0
M  V30 23476 C 2274.2 -4.08608 1.56072 0
M  V30 23477 C 2273.26 -5.15726 1.04467 0
M  V30 23478 O 2272.29 -5.42093 1.73563 0
M  V30 23479 N 2273.49 -5.8037 -0.122715 0
M  V30 23480 H 2276.25 -2.29057 1.93269 0
M  V30 23481 H 2273.82 -1.13854 1.15104 0
M  V30 23482 H 2275.81 -4.04554 0.108685 0
M  V30 23483 H 2274.38 -3.10271 -0.380865 0
M  V30 23484 H 2273.6 -3.34018 2.09346 0
M  V30 23485 H 2274.89 -4.54122 2.29457 0
M  V30 23486 H 2274.28 -5.61347 -0.700464 0
M  V30 23487 H 2272.84 -6.50418 -0.42429 0
M  V30 23488 N 2276.27 -1.05441 -1.17133 0
M  V30 23489 C 2277.52 -0.76711 -1.87732 0
M  V30 23490 C 2277.85 0.704221 -1.80982 0
M  V30 23491 O 2277.13 1.51517 -1.21954 0
M  V30 23492 C 2277.41 -1.25139 -3.37657 0
M  V30 23493 C 2277.26 -2.78584 -3.53145 0
M  V30 23494 C 2278.58 -0.8524 -4.31766 0
M  V30 23495 H 2275.7 -0.280141 -0.681682 0
M  V30 23496 H 2278.34 -1.30883 -1.3773 0
M  V30 23497 H 2276.49 -0.790536 -3.80372 0
M  V30 23498 H 2278.17 -3.32812 -3.19428 0
M  V30 23499 H 2276.41 -3.17737 -2.9534 0
M  V30 23500 H 2277.08 -3.07531 -4.58398 0
M  V30 23501 H 2279.56 -1.24918 -3.96906 0
M  V30 23502 H 2278.43 -1.21883 -5.35197 0
M  V30 23503 H 2278.69 0.243407 -4.41429 0
M  V30 23504 N 2277.75 1.33613 -0.835776 0
M  V30 23505 C 2279 1.97491 -0.429144 0
M  V30 23506 C 2279.32 1.66544 1.0143 0
M  V30 23507 O 2278.59 0.962774 1.70609 0
M  V30 23508 H 2277.17 0.730594 -0.155699 0
M  V30 23509 H 2279.83 1.6303 -1.06805 0
M  V30 23510 H 2278.93 3.07059 -0.558664 0
M  V30 23511 N 2279.23 0.591922 1.46062 0
M  V30 23512 C 2280.16 -0.123632 2.33172 0
M  V30 23513 C 2281.14 -0.874505 1.45899 0
M  V30 23514 O 2282.33 -0.84815 1.747 0
M  V30 23515 C 2279.46 -1.13188 3.28338 0
M  V30 23516 C 2278.41 -0.495249 4.25125 0
M  V30 23517 C 2277.74 -1.61063 5.09866 0
M  V30 23518 C 2279.04 0.573516 5.19142 0
M  V30 23519 H 2280.73 0.603698 2.9325 0
M  V30 23520 H 2278.28 0.291766 1.41013 0
M  V30 23521 H 2280.23 -1.6409 3.8814 0
M  V30 23522 H 2278.95 -1.8896 2.66386 0
M  V30 23523 H 2277.61 -0.00723008 3.66599 0
M  V30 23524 H 2277.26 -2.35824 4.44293 0
M  V30 23525 H 2276.96 -1.19025 5.75419 0
M  V30 23526 H 2278.48 -2.12223 5.72533 0
M  V30 23527 H 2279.9 0.149201 5.73106 0
M  V30 23528 H 2278.3 0.91474 5.93087 0
M  V30 23529 H 2279.37 1.45625 4.62516 0
M  V30 23530 N 2280.71 -1.54102 0.330204 0
M  V30 23531 C 2281.94 -2.05102 -0.272143 0
M  V30 23532 C 2282.35 -1.20597 -1.45264 0
M  V30 23533 O 2281.71 -0.238175 -1.80939 0
M  V30 23534 C 2281.76 -3.54655 -0.700168 0
M  V30 23535 O 2281.48 -4.35951 0.433378 0
M  V30 23536 C 2282.98 -4.21773 -1.36463 0
M  V30 23537 H 2280.2 -0.66875 -0.0549041 0
M  V30 23538 H 2282.75 -1.98827 0.47832 0
M  V30 23539 H 2280.9 -3.61195 -1.40059 0
M  V30 23540 H 2281.31 -5.24414 0.0948461 0
M  V30 23541 H 2282.79 -5.27846 -1.615 0
M  V30 23542 H 2283.27 -3.73296 -2.31402 0
M  V30 23543 H 2283.87 -4.19389 -0.706601 0
M  V30 23544 N 2282.19 -0.0585199 -1.57491 0
M  V30 23545 C 2283.41 0.626486 -1.97712 0
M  V30 23546 C 2283.84 1.63149 -0.93616 0
M  V30 23547 O 2283.19 1.81025 0.0997792 0
M  V30 23548 C 2283.24 1.28332 -3.36992 0
M  V30 23549 O 2282.35 2.39907 -3.35437 0
M  V30 23550 H 2281.69 0.162255 -0.643871 0
M  V30 23551 H 2284.22 -0.1291 -2.04192 0
M  V30 23552 H 2284.23 1.63328 -3.73882 0
M  V30 23553 H 2282.9 0.546816 -4.1229 0
M  V30 23554 H 2281.48 2.06803 -3.10301 0
M  V30 23555 N 2283.66 1.56128 0.21493 0
M  V30 23556 C 2285.08 1.49268 0.564922 0
M  V30 23557 C 2285.28 0.754871 1.86826 0
M  V30 23558 O 2284.34 0.297242 2.50744 0
M  V30 23559 C 2285.65 2.93853 0.638019 0
M  V30 23560 C 2287.2 3.04411 0.7282 0
M  V30 23561 C 2287.67 4.50369 0.832584 0
M  V30 23562 N 2289.16 4.54439 0.896632 0
M  V30 23563 C 2289.9 5.64662 0.997225 0
M  V30 23564 N 2289.39 6.84622 1.06135 0
M  V30 23565 N 2291.19 5.52529 1.03288 0
M  V30 23566 H 2283.34 2.02521 -0.640247 0
M  V30 23567 H 2285.6 0.920784 -0.225523 0
M  V30 23568 H 2285.31 3.50809 -0.250188 0
M  V30 23569 H 2285.18 3.46118 1.49941 0
M  V30 23570 H 2287.57 2.47517 1.60685 0
M  V30 23571 H 2287.65 2.55305 -0.158997 0
M  V30 23572 H 2287.29 5.07883 -0.041631 0
M  V30 23573 H 2287.22 4.97187 1.73529 0
M  V30 23574 H 2289.71 3.68051 0.857123 0
M  V30 23575 H 2290.03 7.64374 1.13807 0
M  V30 23576 H 2288.37 6.8732 1.03037 0
M  V30 23577 H 2291.56 4.57738 0.979478 0
M  V30 23578 H 2291.74 6.3846 1.10782 0
M  V30 23579 N 2285.14 -0.481893 1.50052 0
M  V30 23580 C 2286.38 -1.24471 1.62131 0
M  V30 23581 C 2286.75 -1.89485 0.309775 0
M  V30 23582 O 2287.95 -2.67054 0.305901 0
M  V30 23583 C 2286.22 -2.26877 2.76155 0
M  V30 23584 S 2287.78 -3.12242 3.08302 0
M  V30 23585 H 2284.6 -0.422749 0.571668 0
M  V30 23586 H 2287.2 -0.543557 1.87792 0
M  V30 23587 H 2285.9 -1.77677 3.69945 0
M  V30 23588 H 2285.43 -3.01635 2.52546 0
M  V30 23589 H 2287.45 -4.27861 2.51295 0
M  V30 23590 N 2286.62 -1.39448 -0.734313 0
M  V30 23591 C 2288.03 -1.32768 -1.31261 0
M  V30 23592 C 2288.38 0.00764048 -1.96199 0
M  V30 23593 O 2287.51 0.909762 -1.96347 0
M  V30 23594 C 2288.1 -2.40454 -2.38678 0
M  V30 23595 C 2286.66 -2.37293 -2.92179 0
M  V30 23596 C 2285.81 -2.22307 -1.65756 0
M  V30 23597 H 2288.76 -1.49525 -0.531773 0
M  V30 23598 H 2288.78 -2.07282 -3.19084 0
M  V30 23599 H 2288.29 -3.37629 -1.91386 0
M  V30 23600 H 2286.39 -1.4376 -3.4375 0
M  V30 23601 H 2286.51 -3.32176 -3.45247 0
M  V30 23602 H 2284.87 -1.69492 -1.90117 0
M  V30 23603 H 2285.65 -3.21451 -1.20515 0
M  V30 23604 N 2288.1 0.964571 -1.24635 0
M  V30 23605 C 2289.06 2.04123 -1.04243 0
M  V30 23606 C 2290.06 1.608 0.00134736 0
M  V30 23607 O 2291.25 1.7254 -0.239913 0
M  V30 23608 C 2288.38 3.35919 -0.580647 0
M  V30 23609 H 2289.58 2.23645 -1.99807 0
M  V30 23610 H 2287.13 1.14026 -1.06901 0
M  V30 23611 H 2287.86 3.22089 0.378044 0
M  V30 23612 H 2287.65 3.68708 -1.33404 0
M  V30 23613 H 2289.14 4.15069 -0.459107 0
M  V30 23614 N 2289.58 1.0606 1.16572 0
M  V30 23615 C 2290.49 0.680321 2.24519 0
M  V30 23616 C 2291.5 -0.302574 1.71349 0
M  V30 23617 O 2292.68 -0.152478 2.00822 0
M  V30 23618 C 2289.74 0.0700925 3.46629 0
M  V30 23619 C 2288.8 1.10455 4.14847 0
M  V30 23620 C 2288.04 0.523349 5.31128 0
M  V30 23621 O 2288.26 -0.664609 5.66515 0
M  V30 23622 O 2287.19 1.26189 5.88523 0
M  V30 23623 H 2291.02 1.58019 2.59352 0
M  V30 23624 H 2288.61 0.832715 1.24041 0
M  V30 23625 H 2290.49 -0.268593 4.20543 0
M  V30 23626 H 2289.16 -0.803298 3.13574 0
M  V30 23627 H 2288.07 1.49538 3.42913 0
M  V30 23628 H 2289.4 1.94939 4.51951 0
M  V30 23629 N 2291.06 -1.33168 0.84285 0
M  V30 23630 C 2292.02 -2.27432 0.284105 0
M  V30 23631 C 2293.02 -1.51121 -0.549454 0
M  V30 23632 O 2294.21 -1.70383 -0.362669 0
M  V30 23633 C 2291.34 -3.3559 -0.599325 0
M  V30 23634 H 2292.53 -2.78364 1.11594 0
M  V30 23635 H 2290.09 -1.43639 0.616246 0
M  V30 23636 H 2290.82 -2.89906 -1.45344 0
M  V30 23637 H 2290.61 -3.921 -0.00284374 0
M  V30 23638 H 2292.1 -4.05855 -0.983417 0
M  V30 23639 N 2292.53 -0.599659 -1.45746 0
M  V30 23640 C 2293.78 -0.0918999 -2.02592 0
M  V30 23641 C 2294.11 1.27126 -1.46808 0
M  V30 23642 O 2293.39 1.8368 -0.63969 0
M  V30 23643 C 2293.67 -0.044403 -3.60073 0
M  V30 23644 C 2293.52 -1.43766 -4.26206 0
M  V30 23645 C 2294.84 0.647532 -4.3531 0
M  V30 23646 H 2291.96 -0.03487 -0.736175 0
M  V30 23647 H 2294.6 -0.770112 -1.73693 0
M  V30 23648 H 2292.75 0.533156 -3.84824 0
M  V30 23649 H 2294.43 -2.06169 -4.12665 0
M  V30 23650 H 2292.67 -2.00062 -3.84912 0
M  V30 23651 H 2293.34 -1.35674 -5.35067 0
M  V30 23652 H 2295.82 0.156703 -4.15805 0
M  V30 23653 H 2294.69 0.649846 -5.4504 0
M  V30 23654 H 2294.95 1.71212 -4.07601 0
M  V30 23655 N 2294.01 1.53925 -0.338371 0
M  V30 23656 C 2295.42 1.86123 0.146619 0
M  V30 23657 C 2295.77 1.25972 1.50417 0
M  V30 23658 O 2294.9 0.571331 2.08722 0
M  V30 23659 C 2295.49 3.377 0.27282 0
M  V30 23660 C 2294.05 3.69795 0.702038 0
M  V30 23661 C 2293.2 2.76795 -0.167352 0
M  V30 23662 H 2296.15 1.48561 -0.558149 0
M  V30 23663 H 2296.17 3.64216 1.10121 0
M  V30 23664 H 2295.68 3.8145 -0.715374 0
M  V30 23665 H 2293.78 3.31587 1.69944 0
M  V30 23666 H 2293.9 4.76531 0.49552 0
M  V30 23667 H 2292.26 2.5215 0.359483 0
M  V30 23668 H 2293.04 3.23373 -1.15258 0
M  V30 23669 N 2295.49 0.0668712 1.57458 0
M  V30 23670 C 2296.9 -0.466526 1.80777 0
M  V30 23671 C 2297.25 -1.69949 0.98039 0
M  V30 23672 O 2296.38 -2.1546 0.201479 0
M  V30 23673 C 2296.97 -0.853153 3.27882 0
M  V30 23674 C 2295.53 -1.33144 3.52065 0
M  V30 23675 C 2294.68 -0.314215 2.75514 0
M  V30 23676 H 2297.63 0.292615 1.55979 0
M  V30 23677 H 2297.65 -1.71494 3.39662 0
M  V30 23678 H 2297.16 0.0444121 3.88075 0
M  V30 23679 H 2295.26 -2.24767 2.97171 0
M  V30 23680 H 2295.38 -1.31276 4.60764 0
M  V30 23681 H 2293.74 -0.79045 2.42124 0
M  V30 23682 H 2294.52 0.575537 3.38441 0
M  V30 23683 N 2296.97 -1.56239 -0.206647 0
M  V30 23684 C 2297.93 -1.92778 -1.23973 0
M  V30 23685 C 2298.93 -0.807754 -1.39039 0
M  V30 23686 O 2300.12 -1.07532 -1.37049 0
M  V30 23687 C 2297.25 -2.19169 -2.61108 0
M  V30 23688 H 2298.45 -2.8519 -0.927714 0
M  V30 23689 H 2296 -1.49751 -0.447692 0
M  V30 23690 H 2296.73 -1.29357 -2.97384 0
M  V30 23691 H 2296.52 -3.00777 -2.51547 0
M  V30 23692 H 2298.01 -2.48482 -3.35628 0
M  V30 23693 N 2298.45 0.473929 -1.50305 0
M  V30 23694 C 2299.69 1.2238 -1.60834 0
M  V30 23695 C 2300.01 1.92529 -0.309424 0
M  V30 23696 O 2299.28 1.8398 0.672928 0
M  V30 23697 H 2297.86 0.454712 -0.59266 0
M  V30 23698 H 2300.53 0.546935 -1.87069 0
M  V30 23699 H 2299.62 1.97323 -2.41806 0
M  V30 23700 N 2299.92 1.39835 0.726907 0
M  V30 23701 C 2300.85 1.41944 1.85403 0
M  V30 23702 C 2301.83 0.281757 1.6775 0
M  V30 23703 O 2303.02 0.48875 1.87949 0
M  V30 23704 C 2300.15 1.27015 3.2324 0
M  V30 23705 C 2299.1 2.38268 3.55545 0
M  V30 23706 C 2298.43 2.08423 4.92406 0
M  V30 23707 C 2299.73 3.80595 3.57693 0
M  V30 23708 H 2301.42 2.36269 1.83895 0
M  V30 23709 H 2298.97 1.13725 0.883329 0
M  V30 23710 H 2300.92 1.2711 4.01772 0
M  V30 23711 H 2299.65 0.291621 3.25295 0
M  V30 23712 H 2298.31 2.37404 2.79347 0
M  V30 23713 H 2297.95 1.08988 4.9105 0
M  V30 23714 H 2297.65 2.82952 5.14987 0
M  V30 23715 H 2299.18 2.10181 5.73285 0
M  V30 23716 H 2300.59 3.83344 4.26286 0
M  V30 23717 H 2298.99 4.5455 3.91796 0
M  V30 23718 H 2300.06 4.10992 2.5732 0
M  V30 23719 N 2301.4 -0.957948 1.25144 0
M  V30 23720 C 2302.63 -1.73689 1.12427 0
M  V30 23721 C 2303.04 -1.86029 -0.322272 0
M  V30 23722 O 2302.4 -1.35563 -1.22184 0
M  V30 23723 C 2302.45 -3.15238 1.76938 0
M  V30 23724 O 2302.17 -3.03505 3.15937 0
M  V30 23725 C 2303.67 -4.09426 1.69957 0
M  V30 23726 H 2300.89 -0.544366 0.392309 0
M  V30 23727 H 2303.44 -1.20204 1.65442 0
M  V30 23728 H 2301.59 -3.65678 1.27901 0
M  V30 23729 H 2302.01 -3.92774 3.47605 0
M  V30 23730 H 2303.48 -5.06368 2.19762 0
M  V30 23731 H 2303.96 -4.34172 0.662695 0
M  V30 23732 H 2304.56 -3.649 2.18467 0
M  V30 23733 N 2302.88 -1.06677 -1.16008 0
M  V30 23734 C 2303.83 -0.681006 -2.20524 0
M  V30 23735 C 2304.8 0.324255 -1.62904 0
M  V30 23736 O 2305.98 0.21226 -1.89616 0
M  V30 23737 C 2303.12 -0.0777158 -3.45012 0
M  V30 23738 C 2302.23 -1.13362 -4.16861 0
M  V30 23739 C 2301.37 -0.496063 -5.28879 0
M  V30 23740 C 2300.41 -1.53524 -5.92534 0
M  V30 23741 N 2299.55 -0.920754 -6.96036 0
M  V30 23742 H 2304.39 -1.57667 -2.52874 0
M  V30 23743 H 2301.92 -0.788245 -1.24198 0
M  V30 23744 H 2303.88 0.28963 -4.16193 0
M  V30 23745 H 2302.51 0.781338 -3.13201 0
M  V30 23746 H 2301.56 -1.61863 -3.44245 0
M  V30 23747 H 2302.87 -1.92182 -4.6029 0
M  V30 23748 H 2302.03 -0.0759671 -6.06652 0
M  V30 23749 H 2300.77 0.323976 -4.86623 0
M  V30 23750 H 2299.77 -1.96519 -5.13479 0
M  V30 23751 H 2301 -2.35744 -6.36869 0
M  V30 23752 H 2298.94 -0.121495 -6.55887 0
M  V30 23753 H 2298.86 -1.64629 -7.37857 0
M  V30 23754 H 2300.13 -0.525932 -7.77724 0
M  V30 23755 N 2304.36 1.32719 -0.8499 0
M  V30 23756 C 2305.3 2.28983 -0.289073 0
M  V30 23757 C 2306.27 1.54834 0.601297 0
M  V30 23758 O 2307.46 1.83081 0.537221 0
M  V30 23759 C 2304.6 3.41151 0.520563 0
M  V30 23760 C 2303.71 4.3019 -0.395064 0
M  V30 23761 C 2302.85 5.29483 0.426741 0
M  V30 23762 C 2301.89 6.10163 -0.486583 0
M  V30 23763 N 2301.02 7.01468 0.297755 0
M  V30 23764 H 2305.86 2.76345 -1.11524 0
M  V30 23765 H 2303.4 1.35966 -0.561403 0
M  V30 23766 H 2305.36 4.049 1.00556 0
M  V30 23767 H 2303.99 2.94952 1.3116 0
M  V30 23768 H 2303.04 3.67064 -0.998425 0
M  V30 23769 H 2304.35 4.86605 -1.09621 0
M  V30 23770 H 2303.51 5.98813 0.9751 0
M  V30 23771 H 2302.25 4.73673 1.16127 0
M  V30 23772 H 2301.25 5.39741 -1.04686 0
M  V30 23773 H 2302.48 6.68058 -1.21965 0
M  V30 23774 H 2300.42 6.48093 1.01547 0
M  V30 23775 H 2300.34 7.55215 -0.34445 0
M  V30 23776 H 2301.61 7.7509 0.827994 0
M  V30 23777 N 2305.84 0.60738 1.45426 0
M  V30 23778 C 2307.08 0.102288 2.01841 0
M  V30 23779 C 2307.41 -1.27162 1.47834 0
M  V30 23780 O 2306.68 -1.83994 0.672529 0
M  V30 23781 H 2305.26 0.0348232 0.746188 0
M  V30 23782 H 2307.92 0.788731 1.78228 0
M  V30 23783 H 2307.01 0.0519134 3.12057 0
M  V30 23784 N 2307.31 -1.53743 0.34653 0
M  V30 23785 C 2308.56 -2.0126 -0.249438 0
M  V30 23786 C 2308.89 -1.23389 -1.49963 0
M  V30 23787 O 2308.17 -0.322323 -1.91811 0
M  V30 23788 C 2308.45 -3.5571 -0.560581 0
M  V30 23789 C 2308.3 -4.4429 0.701914 0
M  V30 23790 C 2309.62 -4.18267 -1.36898 0
M  V30 23791 H 2306.74 -0.731584 -0.0891859 0
M  V30 23792 H 2309.38 -1.84155 0.467657 0
M  V30 23793 H 2307.53 -3.70416 -1.17149 0
M  V30 23794 H 2309.21 -4.41414 1.33982 0
M  V30 23795 H 2307.45 -4.13031 1.3262 0
M  V30 23796 H 2308.12 -5.50248 0.439427 0
M  V30 23797 H 2310.6 -4.07276 -0.852376 0
M  V30 23798 H 2309.47 -5.264 -1.55543 0
M  V30 23799 H 2309.73 -3.73082 -2.37196 0
M  V30 23800 N 2308.79 -0.0752207 -1.5742 0
M  V30 23801 C 2310.02 0.60548 -1.98365 0
M  V30 23802 C 2310.44 1.62147 -0.953412 0
M  V30 23803 O 2309.8 1.81121 0.0805734 0
M  V30 23804 C 2309.85 1.2475 -3.38334 0
M  V30 23805 O 2308.95 2.36336 -3.37963 0
M  V30 23806 H 2308.29 0.155417 -0.645555 0
M  V30 23807 H 2310.82 -0.15075 -2.04044 0
M  V30 23808 H 2310.83 1.59353 -3.75594 0
M  V30 23809 H 2309.51 0.503056 -4.12846 0
M  V30 23810 H 2308.09 2.03501 -3.12477 0
M  V30 23811 N 2310.27 1.56347 0.198358 0
M  V30 23812 C 2311.5 1.84893 0.93965 0
M  V30 23813 C 2311.92 0.6584 1.76201 0
M  V30 23814 O 2311.28 -0.39282 1.76993 0
M  V30 23815 C 2311.33 3.11638 1.81422 0
M  V30 23816 O 2310.43 2.91961 2.9126 0
M  V30 23817 H 2309.77 0.608916 0.264796 0
M  V30 23818 H 2312.3 2.03574 0.20466 0
M  V30 23819 H 2312.31 3.42347 2.21952 0
M  V30 23820 H 2310.99 3.9791 1.20997 0
M  V30 23821 H 2309.56 2.72542 2.54509 0
M  V30 23822 N 2311.75 -0.465951 1.50554 0
M  V30 23823 C 2313.16 -1.04669 1.54601 0
M  V30 23824 C 2313.51 -1.93007 0.352522 0
M  V30 23825 O 2312.64 -2.09708 -0.534007 0
M  V30 23826 C 2313.23 -1.905 2.8017 0
M  V30 23827 C 2311.79 -2.43673 2.8688 0
M  V30 23828 C 2310.94 -1.22147 2.48949 0
M  V30 23829 H 2313.89 -0.248357 1.56745 0
M  V30 23830 H 2313.91 -2.75628 2.62315 0
M  V30 23831 H 2313.42 -1.2618 3.67015 0
M  V30 23832 H 2311.52 -3.11532 2.04398 0
M  V30 23833 H 2311.63 -2.78429 3.8989 0
M  V30 23834 H 2310 -1.55786 2.01501 0
M  V30 23835 H 2310.78 -0.594807 3.38108 0
M  V30 23836 N 2313.23 -1.40218 -0.719481 0
M  V30 23837 C 2314.19 -1.3993 -1.81527 0
M  V30 23838 C 2315.19 -0.29375 -1.58094 0
M  V30 23839 O 2316.38 -0.552458 -1.65208 0
M  V30 23840 C 2313.51 -1.18721 -3.19559 0
M  V30 23841 H 2314.7 -2.37454 -1.83182 0
M  V30 23842 H 2312.26 -1.2601 -0.924724 0
M  V30 23843 H 2312.99 -0.219423 -3.23557 0
M  V30 23844 H 2312.78 -1.98799 -3.37967 0
M  V30 23845 H 2314.27 -1.21298 -3.99595 0
M  V30 23846 N 2314.7 0.951297 -1.25651 0
M  V30 23847 C 2316.12 1.51104 -1.09656 0
M  V30 23848 C 2316.47 1.93463 0.326581 0
M  V30 23849 O 2315.59 1.7894 1.21694 0
M  V30 23850 C 2316.19 2.74602 -1.98442 0
M  V30 23851 C 2314.75 3.26877 -1.86623 0
M  V30 23852 C 2313.89 1.99699 -1.92394 0
M  V30 23853 H 2316.84 0.767841 -1.38888 0
M  V30 23854 H 2316.86 3.48543 -1.52636 0
M  V30 23855 H 2316.38 2.43741 -3.02013 0
M  V30 23856 H 2314.48 3.62552 -0.859485 0
M  V30 23857 H 2314.59 3.94668 -2.71614 0
M  V30 23858 H 2312.95 2.15148 -1.36321 0
M  V30 23859 H 2313.74 1.71183 -2.97576 0
M  V30 23860 N 2316.18 1.07291 1.1544 0
M  V30 23861 C 2317.59 0.818505 1.67802 0
M  V30 23862 C 2317.94 -0.656475 1.84891 0
M  V30 23863 O 2317.07 -1.50826 1.55179 0
M  V30 23864 C 2317.66 1.47923 3.04802 0
M  V30 23865 C 2316.22 1.27235 3.54243 0
M  V30 23866 C 2315.37 1.54929 2.29983 0
M  V30 23867 H 2318.32 1.23503 0.996625 0
M  V30 23868 H 2318.34 0.900115 3.697 0
M  V30 23869 H 2317.85 2.55272 2.92332 0
M  V30 23870 H 2315.96 0.219055 3.71956 0
M  V30 23871 H 2316.07 1.99211 4.3572 0
M  V30 23872 H 2314.43 0.970283 2.35494 0
M  V30 23873 H 2315.22 2.63459 2.201 0
M  V30 23874 N 2317.66 -1.32267 0.856927 0
M  V30 23875 C 2318.91 -1.96783 0.460509 0
M  V30 23876 C 2319.23 -1.68137 -0.987672 0
M  V30 23877 O 2318.5 -0.989795 -1.69056 0
M  V30 23878 H 2317.08 -0.728024 0.167302 0
M  V30 23879 H 2319.74 -1.6131 1.09385 0
M  V30 23880 H 2318.84 -3.06132 0.607443 0
M  V30 23881 N 2319.14 -0.615084 -1.45102 0
M  V30 23882 C 2320.55 -0.197416 -1.85653 0
M  V30 23883 C 2320.9 1.24747 -1.51435 0
M  V30 23884 O 2320.03 1.94693 -0.944643 0
M  V30 23885 C 2320.62 -0.351507 -3.36972 0
M  V30 23886 C 2319.18 0.0115268 -3.76398 0
M  V30 23887 C 2318.33 -0.672441 -2.69023 0
M  V30 23888 H 2321.28 -0.821287 -1.35796 0
M  V30 23889 H 2321.3 0.41416 -3.78239 0
M  V30 23890 H 2320.81 -1.4032 -3.61845 0
M  V30 23891 H 2318.91 1.06211 -3.57141 0
M  V30 23892 H 2319.02 -0.387349 -4.77532 0
M  V30 23893 H 2317.39 -0.109328 -2.54465 0
M  V30 23894 H 2318.17 -1.72642 -2.96732 0
M  V30 23895 O 2320.66 1.53667 -0.496873 0
M  V30 23896 H 2321.35 1.93688 0.0218219 0
M  V30 END ATOM
M  V30 BEGIN BOND
M  V30 END BOND
M  V30 END CTAB
M  END
$$$$
