drugbank_target|P12564 Hemagglutinin-neuraminidase (DB03991; DB04265)
 OpenBabel12092119583D

  0  0  0     0  0            999 V3000
M  V30 BEGIN CTAB
M  V30 COUNTS 9038 9136 0 0 0
M  V30 BEGIN ATOM
M  V30 1 H -0.908 1.98254 -0.117106 0
M  V30 2 N 0 1.576 0 0
M  V30 3 C 0.933 2.03868 1.02534 0
M  V30 4 C 1.911 0.928543 1.3348 0
M  V30 5 O 3.095 1.19667 1.45644 0
M  V30 6 C 0.222 2.43627 2.35294 0
M  V30 7 C -0.732 3.65373 2.2001 0
M  V30 8 S 0.101 5.13292 1.52614 0
M  V30 9 C 1.257 5.56322 2.86805 0
M  V30 10 H 1.49 2.90518 0.631377 0
M  V30 11 H -0.977 1.52953 0.210867 0
M  V30 12 H 0.981 2.67203 3.11629 0
M  V30 13 H -0.358 1.57376 2.7183 0
M  V30 14 H -1.165 3.90944 3.18086 0
M  V30 15 H -1.563 3.418 1.51819 0
M  V30 16 H 0.729 5.58782 3.83104 0
M  V30 17 H 1.672 6.56266 2.65933 0
M  V30 18 H 2.08 4.83886 2.90714 0
M  V30 19 N 1.4781 -0.272755 1.55222 0
M  V30 20 C 2.3881 -1.35918 1.91216 0
M  V30 21 C 3.4041 -1.54026 0.809436 0
M  V30 22 O 4.5801 -1.68148 1.10852 0
M  V30 23 C 1.6451 -2.69834 2.17693 0
M  V30 24 C 0.7061 -2.6047 3.41253 0
M  V30 25 C -0.0609 -3.88 3.66458 0
M  V30 26 O 0.1621 -4.88693 2.94169 0
M  V30 27 O -0.9039 -3.88189 4.59992 0
M  V30 28 H 2.9221 -1.0839 2.83699 0
M  V30 29 H 0.5071 -0.471301 1.41771 0
M  V30 30 H 2.3891 -3.49017 2.36147 0
M  V30 31 H 1.0641 -2.97148 1.28392 0
M  V30 32 H -0.0289 -1.79663 3.28134 0
M  V30 33 H 1.3041 -2.38106 4.30774 0
M  V30 34 N 2.9562 -1.48159 -0.537278 0
M  V30 35 C 4.1862 -1.59223 -1.3165 0
M  V30 36 C 4.5942 -0.248849 -1.87556 0
M  V30 37 O 3.9372 0.770949 -1.6674 0
M  V30 38 C 3.9992 -2.57365 -2.51005 0
M  V30 39 C 3.6632 -4.02603 -2.16239 0
M  V30 40 C 4.6602 -4.90503 -1.72344 0
M  V30 41 C 2.3452 -4.48088 -2.26986 0
M  V30 42 C 4.3392 -6.21913 -1.39651 0
M  V30 43 C 2.0262 -5.7952 -1.93906 0
M  V30 44 C 3.0242 -6.66255 -1.50309 0
M  V30 45 O 2.7122 -7.95243 -1.17659 0
M  V30 46 H 2.4442 -0.539831 -0.406889 0
M  V30 47 H 4.9982 -1.94655 -0.655641 0
M  V30 48 H 3.2282 -2.1704 -3.20048 0
M  V30 49 H 4.9172 -2.58342 -3.13072 0
M  V30 50 H 5.6832 -4.56604 -1.63517 0
M  V30 51 H 1.5622 -3.80769 -2.59877 0
M  V30 52 H 5.1062 -6.89569 -1.0555 0
M  V30 53 H 1.0032 -6.12957 -2.02371 0
M  V30 54 H 1.7712 -8.0793 -1.31119 0
M  V30 55 N 4.4343 0.785586 -1.36625 0
M  V30 56 C 5.6803 1.5452 -1.32269 0
M  V30 57 C 6.0353 1.92159 0.0962266 0
M  V30 58 O 5.3283 1.60158 1.05167 0
M  V30 59 C 5.5223 2.83007 -2.1827 0
M  V30 60 C 5.3513 2.57925 -3.68382 0
M  V30 61 C 4.1213 2.52752 -4.37544 0
M  V30 62 C 6.3193 2.26861 -4.61561 0
M  V30 63 N 4.3013 2.19608 -5.73276 0
M  V30 64 C 5.6723 2.03738 -5.85569 0
M  V30 65 C 7.7273 2.129 -4.50087 0
M  V30 66 C 6.4303 1.68065 -6.9939 0
M  V30 67 C 8.4563 1.78626 -5.63779 0
M  V30 68 C 7.8183 1.56353 -6.86828 0
M  V30 69 H 3.9173 0.566301 -0.539283 0
M  V30 70 H 6.5013 0.917736 -1.71714 0
M  V30 71 H 4.6723 3.43614 -1.81063 0
M  V30 72 H 6.4043 3.48775 -2.05275 0
M  V30 73 H 3.1593 2.6813 -3.90389 0
M  V30 74 H 3.5833 2.05771 -6.44971 0
M  V30 75 H 8.2253 2.28808 -3.55537 0
M  V30 76 H 5.9433 1.50895 -7.93887 0
M  V30 77 H 9.5293 1.68502 -5.56865 0
M  V30 78 H 8.4093 1.30223 -7.73312 0
M  V30 79 N 5.9124 1.20967 1.01018 0
M  V30 80 C 6.8594 0.964281 2.09691 0
M  V30 81 C 7.8294 -0.107853 1.65749 0
M  V30 82 O 9.0144 0.0381987 1.90762 0
M  V30 83 C 6.1544 0.52943 3.41015 0
M  V30 84 C 5.2674 1.67043 3.98398 0
M  V30 85 C 4.4024 1.18525 5.17808 0
M  V30 86 C 3.4414 2.29892 5.67288 0
M  V30 87 N 2.5784 1.82546 6.77954 0
M  V30 88 H 7.4184 1.89463 2.30017 0
M  V30 89 H 4.9554 0.944289 1.1279 0
M  V30 90 H 6.9134 0.258588 4.16398 0
M  V30 91 H 5.5434 -0.363919 3.20742 0
M  V30 92 H 4.5954 2.05603 3.20049 0
M  V30 93 H 5.9074 2.50877 4.31117 0
M  V30 94 H 5.0614 0.870762 6.00419 0
M  V30 95 H 3.8004 0.316887 4.86669 0
M  V30 96 H 2.8054 2.6215 4.83278 0
M  V30 97 H 4.0304 3.17216 6.00459 0
M  V30 98 H 1.9764 0.980454 6.48632 0
M  V30 99 H 1.8934 2.59956 7.09901 0
M  V30 100 H 3.1614 1.54115 7.64113 0
M  V30 101 N 7.3905 -1.2043 1.01659 0
M  V30 102 C 8.3405 -2.21076 0.557623 0
M  V30 103 C 9.3245 -1.56176 -0.387029 0
M  V30 104 O 10.5165 -1.7575 -0.209996 0
M  V30 105 C 7.6455 -3.43146 -0.102707 0
M  V30 106 C 6.7315 -4.15213 0.863652 0
M  V30 107 N 7.1225 -4.63662 2.02117 0
M  V30 108 C 5.4205 -4.40716 0.684472 0
M  V30 109 C 6.1215 -5.18868 2.62966 0
M  V30 110 N 5.0975 -5.0893 1.91027 0
M  V30 111 H 8.8995 -2.56201 1.44008 0
M  V30 112 H 6.4135 -1.36366 0.881931 0
M  V30 113 H 8.4105 -4.14475 -0.449054 0
M  V30 114 H 7.0705 -3.09526 -0.981003 0
M  V30 115 H 8.0815 -4.58877 2.40109 0
M  V30 116 H 4.7585 -4.17245 -0.14577 0
M  V30 117 H 6.1485 -5.6673 3.60924 0
M  V30 118 N 8.8686 -0.792821 -1.36206 0
M  V30 119 C 10.0966 -0.378825 -2.03402 0
M  V30 120 C 10.5116 1.00586 -1.59774 0
M  V30 121 O 9.8686 1.64574 -0.788764 0
M  V30 122 C 9.9196 -0.43683 -3.58851 0
M  V30 123 O 9.6406 -1.76691 -4.00889 0
M  V30 124 C 11.1416 -0.0138943 -4.43298 0
M  V30 125 H 8.3616 -0.155673 -0.652692 0
M  V30 126 H 10.9056 -1.07261 -1.74113 0
M  V30 127 H 9.0606 0.208575 -3.86838 0
M  V30 128 H 9.4746 -1.72011 -4.95492 0
M  V30 129 H 10.9486 -0.105615 -5.51899 0
M  V30 130 H 11.4256 1.03915 -4.2673 0
M  V30 131 H 12.0316 -0.63192 -4.20579 0
M  V30 132 N 10.3467 1.47872 -0.545128 0
M  V30 133 C 11.2947 2.31533 0.222512 0
M  V30 134 C 12.2887 1.42177 0.920985 0
M  V30 135 O 13.4947 1.59005 0.843645 0
M  V30 136 H 9.8697 0.746519 0.0906278 0
M  V30 137 H 11.8407 2.94139 -0.50246 0
M  V30 138 C 10.5897 3.2457 1.24699 0
M  V30 139 H 9.9127 3.93283 0.718944 0
M  V30 140 H 11.3527 3.85963 1.75523 0
M  V30 141 C 9.8117 2.47237 2.28856 0
M  V30 142 O 10.3417 2.20808 3.35569 0
M  V30 143 N 8.5477 2.08461 2.02466 0
M  V30 144 H 8.0947 2.30155 1.157 0
M  V30 145 H 8.0527 1.57033 2.72375 0
M  V30 146 N 11.8248 0.280983 1.55075 0
M  V30 147 C 12.7748 -0.618585 2.19448 0
M  V30 148 C 13.7588 -1.11401 1.16098 0
M  V30 149 O 14.9508 -1.0581 1.41891 0
M  V30 150 C 12.0798 -1.79951 2.92357 0
M  V30 151 C 11.1658 -1.321 4.03002 0
M  V30 152 N 11.5568 -0.559044 5.02701 0
M  V30 153 C 9.8548 -1.60346 4.16179 0
M  V30 154 C 10.5558 -0.306722 5.80891 0
M  V30 155 N 9.5318 -0.880825 5.36416 0
M  V30 156 H 13.3338 -0.0286638 2.93886 0
M  V30 157 H 10.8478 0.0848104 1.62178 0
M  V30 158 H 12.8448 -2.45531 3.36927 0
M  V30 159 H 11.5048 -2.39333 2.19431 0
M  V30 160 H 12.5158 -0.205827 5.17491 0
M  V30 161 H 9.1928 -2.20621 3.54447 0
M  V30 162 H 10.5828 0.30391 6.71212 0
M  V30 163 N 13.3029 -1.57598 0.00835791 0
M  V30 164 C 14.5509 -1.90551 -0.6734 0
M  V30 165 C 14.8719 -0.883301 -1.73847 0
M  V30 166 O 14.1419 0.0781442 -1.95744 0
M  V30 167 H 12.7219 -0.703312 -0.251717 0
M  V30 168 H 15.3839 -1.94833 0.0512592 0
M  V30 169 H 14.4799 -2.9056 -1.13935 0
M  V30 170 N 14.781 0.264519 -1.55364 0
M  V30 171 C 15.728 1.32717 -1.88825 0
M  V30 172 C 16.698 1.48675 -0.740605 0
M  V30 173 O 17.883 1.62945 -0.992657 0
M  V30 174 C 15.023 2.68089 -2.17307 0
M  V30 175 C 14.136 2.60284 -3.44785 0
M  V30 176 C 13.271 3.87892 -3.62924 0
M  V30 177 C 12.31 3.74631 -4.84064 0
M  V30 178 N 11.447 4.94092 -4.98816 0
M  V30 179 H 16.287 1.03481 -2.79456 0
M  V30 180 H 13.824 0.499757 -1.3835 0
M  V30 181 H 15.782 3.46864 -2.31821 0
M  V30 182 H 14.412 2.95509 -1.299 0
M  V30 183 H 13.464 1.73173 -3.38697 0
M  V30 184 H 14.776 2.46388 -4.33698 0
M  V30 185 H 13.93 4.75109 -3.77302 0
M  V30 186 H 12.669 4.04664 -2.7221 0
M  V30 187 H 11.674 2.85797 -4.69681 0
M  V30 188 H 12.899 3.5937 -5.76221 0
M  V30 189 H 10.845 5.11259 -4.11036 0
M  V30 190 H 10.762 4.8276 -5.81789 0
M  V30 191 H 12.03 5.82857 -5.17588 0
M  V30 192 N 16.2591 1.48442 0.529413 0
M  V30 193 C 17.5361 1.46978 1.29062 0
M  V30 194 C 17.9161 0.181769 2.10316 0
M  V30 195 O 17.2641 -0.836481 2.12639 0
M  V30 196 C 17.4741 2.7321 2.17157 0
M  V30 197 C 18.8221 3.21562 2.77278 0
M  V30 198 O 19.8461 2.74131 2.27444 0
M  V30 199 O 18.7051 4.04094 3.67927 0
M  V30 200 H 15.7991 0.587003 0.582543 0
M  V30 201 H 18.3451 1.60676 0.546021 0
M  V30 202 H 17.1171 3.58465 1.56903 0
M  V30 203 H 16.7401 2.62235 2.98862 0
M  V30 204 N 17.7372 -0.778329 1.37039 0
M  V30 205 C 18.7002 -1.87301 1.32102 0
M  V30 206 C 19.7002 -1.59198 0.226405 0
M  V30 207 O 20.8902 -1.67403 0.481861 0
M  V30 208 C 18.0222 -3.24309 1.05055 0
M  V30 209 H 19.2152 -1.93093 2.29467 0
M  V30 210 H 16.7682 -0.977358 1.21973 0
M  V30 211 H 17.5032 -3.24196 0.0819373 0
M  V30 212 H 17.2882 -3.46098 1.84279 0
M  V30 213 H 18.7782 -4.04382 1.04234 0
M  V30 214 N 19.2153 -1.21501 -1.00376 0
M  V30 215 C 20.4633 -1.03095 -1.73827 0
M  V30 216 C 20.7843 0.436341 -1.90055 0
M  V30 217 O 20.0543 1.31466 -1.45236 0
M  V30 218 H 18.6343 -0.378487 -0.644016 0
M  V30 219 H 21.2963 -1.52831 -1.20949 0
M  V30 220 H 20.3923 -1.49991 -2.73695 0
M  V30 221 N 20.6934 1.19889 -1.02296 0
M  V30 222 C 21.6414 2.24938 -0.592081 0
M  V30 223 C 22.6354 1.65257 0.372357 0
M  V30 224 O 23.8414 1.78371 0.241583 0
M  V30 225 H 20.2164 0.731787 -0.173182 0
M  V30 226 H 22.1874 2.58603 -1.48885 0
M  V30 227 C 20.9364 3.47668 0.047351 0
M  V30 228 H 20.2594 3.93875 -0.685772 0
M  V30 229 H 21.6994 4.22852 0.311862 0
M  V30 230 C 20.1584 3.11136 1.29212 0
M  V30 231 O 20.6884 3.2325 2.38479 0
M  V30 232 N 18.8944 2.65625 1.17863 0
M  V30 233 H 18.4414 2.55968 0.289493 0
M  V30 234 H 18.3994 2.41553 2.01245 0
M  V30 235 N 22.1715 0.800033 1.35784 0
M  V30 236 C 23.0815 0.207204 2.33683 0
M  V30 237 C 24.0975 -0.64631 1.61551 0
M  V30 238 O 25.2735 -0.559604 1.93469 0
M  V30 239 C 22.3385 -0.639659 3.40748 0
M  V30 240 C 21.3995 0.233585 4.28664 0
M  V30 241 C 20.6325 -0.572954 5.30616 0
M  V30 242 O 20.8555 -1.80816 5.40982 0
M  V30 243 O 19.7895 0.0327285 6.01891 0
M  V30 244 H 23.6155 1.01692 2.86169 0
M  V30 245 H 21.2005 0.561691 1.38439 0
M  V30 246 H 23.0825 -1.12223 4.06182 0
M  V30 247 H 21.7575 -1.42708 2.90544 0
M  V30 248 H 20.6645 0.763147 3.66233 0
M  V30 249 H 21.9975 0.984784 4.82248 0
M  V30 250 N 23.6496 -1.47581 0.552962 0
M  V30 251 C 24.5796 -2.32762 -0.185451 0
M  V30 252 C 25.5606 -1.43527 -0.912905 0
M  V30 253 O 26.7456 -1.72388 -0.894201 0
M  V30 254 C 23.8756 -3.25219 -1.21859 0
M  V30 255 C 22.8296 -4.23661 -0.607864 0
M  V30 256 C 22.1556 -5.05413 -1.74533 0
M  V30 257 C 23.4556 -5.20481 0.435582 0
M  V30 258 H 25.1496 -2.94749 0.525684 0
M  V30 259 H 22.6956 -1.41738 0.254251 0
M  V30 260 H 24.6486 -3.8365 -1.7433 0
M  V30 261 H 23.3726 -2.61279 -1.95961 0
M  V30 262 H 22.0316 -3.66451 -0.104489 0
M  V30 263 H 21.6796 -4.3788 -2.47529 0
M  V30 264 H 21.3796 -5.72059 -1.34249 0
M  V30 265 H 22.9036 -5.66701 -2.27338 0
M  V30 266 H 24.3176 -5.733 -0.00290157 0
M  V30 267 H 22.7146 -5.95305 0.757067 0
M  V30 268 H 23.7846 -4.66217 1.33303 0
M  V30 269 N 25.1277 -0.289203 -1.54924 0
M  V30 270 C 26.0377 0.601863 -2.26748 0
M  V30 271 C 27.0537 1.15834 -1.2984 0
M  V30 272 O 28.2297 1.18564 -1.62802 0
M  V30 273 C 25.2947 1.76299 -2.98529 0
M  V30 274 C 24.3557 1.24178 -4.10948 0
M  V30 275 C 23.5887 2.34757 -4.79296 0
M  V30 276 O 23.8117 3.54411 -4.46933 0
M  V30 277 O 22.7457 2.02115 -5.66951 0
M  V30 278 H 26.5717 0.0195879 -3.03694 0
M  V30 279 H 24.1567 -0.0560868 -1.49295 0
M  V30 280 H 26.0387 2.43973 -3.43592 0
M  V30 281 H 24.7137 2.33209 -2.24488 0
M  V30 282 H 23.6207 0.531104 -3.70311 0
M  V30 283 H 24.9537 0.718252 -4.86931 0
M  V30 284 N 26.6058 1.57591 -0.0167156 0
M  V30 285 C 27.8338 1.95575 0.675128 0
M  V30 286 C 28.2488 0.892542 1.6637 0
M  V30 287 O 27.6058 -0.126912 1.82058 0
M  V30 288 C 27.6568 3.33608 1.39239 0
M  V30 289 O 27.3778 4.3585 0.443444 0
M  V30 290 C 28.8788 3.86151 2.17721 0
M  V30 291 H 26.0988 0.644423 0.186978 0
M  V30 292 H 28.6428 2.0437 -0.0728 0
M  V30 293 H 26.7978 3.2607 2.09182 0
M  V30 294 H 27.2118 5.158 0.951358 0
M  V30 295 H 28.6858 4.85114 2.63379 0
M  V30 296 H 29.1628 3.19738 3.01105 0
M  V30 297 H 29.7688 3.96918 1.52761 0
M  V30 298 N 28.0839 -0.256276 1.55502 0
M  V30 299 C 29.3089 -1.00766 1.81276 0
M  V30 300 C 29.7339 -1.78524 0.59252 0
M  V30 301 O 29.0919 -1.75413 -0.45827 0
M  V30 302 C 29.1399 -1.92869 3.04687 0
M  V30 303 O 28.2439 -3.019 2.80945 0
M  V30 304 H 27.5849 -0.287224 0.598664 0
M  V30 305 H 30.1149 -0.280109 2.02674 0
M  V30 306 H 30.1249 -2.34511 3.33869 0
M  V30 307 H 28.7999 -1.35689 3.93143 0
M  V30 308 H 27.3769 -2.64454 2.62904 0
M  V30 309 N 29.562 -1.4872 -0.521534 0
M  V30 310 C 30.495 -1.58451 -1.64221 0
M  V30 311 C 31.473 -0.434513 -1.56687 0
M  V30 312 O 32.657 -0.647275 -1.77038 0
M  V30 313 C 29.784 -1.52037 -3.02659 0
M  V30 314 C 28.83 -2.71981 -3.28525 0
M  V30 315 S 29.663 -4.33869 -3.13876 0
M  V30 316 C 30.819 -4.30067 -4.54745 0
M  V30 317 H 31.052 -2.53256 -1.55719 0
M  V30 318 H 28.585 -1.37358 -0.705143 0
M  V30 319 H 30.543 -1.49023 -3.82495 0
M  V30 320 H 29.204 -0.585541 -3.08594 0
M  V30 321 H 28.397 -2.63656 -4.29536 0
M  V30 322 H 27.999 -2.72302 -2.56374 0
M  V30 323 H 30.291 -4.00521 -5.46433 0
M  V30 324 H 31.234 -5.31287 -4.68123 0
M  V30 325 H 31.642 -3.60419 -4.34463 0
M  V30 326 N 31.0401 0.771051 -1.3745 0
M  V30 327 C 32.0031 1.86598 -1.33093 0
M  V30 328 C 33.0031 1.59076 -0.234845 0
M  V30 329 O 34.1931 1.67145 -0.490732 0
M  V30 330 C 31.3251 3.23747 -1.06773 0
M  V30 331 H 32.5181 1.91873 -2.30488 0
M  V30 332 H 30.0711 0.970876 -1.2249 0
M  V30 333 H 30.8061 3.24148 -0.099129 0
M  V30 334 H 30.5911 3.45115 -1.86112 0
M  V30 335 H 32.0811 4.03824 -1.06377 0
M  V30 336 N 32.5182 1.22032 0.997298 0
M  V30 337 C 33.7462 1.06841 1.7718 0
M  V30 338 C 34.1612 -0.381325 1.84909 0
M  V30 339 O 33.5182 -1.26437 1.31605 0
M  V30 340 C 33.5692 1.66814 3.20711 0
M  V30 341 O 33.2902 3.06116 3.13408 0
M  V30 342 C 34.7912 1.56838 4.14628 0
M  V30 343 H 32.0112 0.374782 0.556578 0
M  V30 344 H 34.5552 1.61532 1.2541 0
M  V30 345 H 32.7102 1.16196 3.69564 0
M  V30 346 H 33.1242 3.34926 4.0364 0
M  V30 347 H 34.5982 2.03532 5.13107 0
M  V30 348 H 35.0752 0.524155 4.36061 0
M  V30 349 H 35.6812 2.06741 3.7167 0
M  V30 350 N 33.9963 -1.19345 1.0293 0
M  V30 351 C 34.9463 -2.20472 0.58104 0
M  V30 352 C 35.9303 -1.56578 -0.370442 0
M  V30 353 O 37.1223 -1.75963 -0.191344 0
M  V30 354 C 34.2513 -3.43236 -0.066306 0
M  V30 355 C 33.3373 -4.14274 0.907642 0
M  V30 356 N 33.7283 -4.61492 2.07023 0
M  V30 357 C 32.0263 -4.39966 0.731177 0
M  V30 358 C 32.7273 -5.1605 2.68454 0
M  V30 359 N 31.7033 -5.06875 1.96414 0
M  V30 360 H 35.5053 -2.54659 1.46717 0
M  V30 361 H 33.0193 -1.35423 0.896345 0
M  V30 362 H 35.0163 -4.14927 -0.405068 0
M  V30 363 H 33.6763 -3.10549 -0.948118 0
M  V30 364 H 34.6873 -4.56304 2.44963 0
M  V30 365 H 31.3643 -4.17377 -0.101507 0
M  V30 366 H 32.7543 -5.6287 3.66915 0
M  V30 367 N 35.4744 -0.807222 -1.35358 0
M  V30 368 C 36.7224 -0.387122 -1.98358 0
M  V30 369 C 37.0434 1.04942 -1.64354 0
M  V30 370 O 36.3134 1.72615 -0.926339 0
M  V30 371 H 34.8934 -0.140154 -0.733734 0
M  V30 372 H 37.5554 -1.0332 -1.6526 0
M  V30 373 H 36.6514 -0.493352 -3.08176 0
M  V30 374 N 36.9525 1.47285 -0.560781 0
M  V30 375 C 37.9005 2.31756 0.197942 0
M  V30 376 C 38.8945 1.43146 0.905854 0
M  V30 377 O 40.1005 1.59891 0.826733 0
M  V30 378 H 36.4755 0.747438 0.0827049 0
M  V30 379 H 38.4465 2.9359 -0.533629 0
M  V30 380 C 37.1955 3.25874 1.21249 0
M  V30 381 H 36.5185 3.94023 0.67719 0
M  V30 382 H 37.9585 3.87803 1.71419 0
M  V30 383 C 36.4175 2.49651 2.26221 0
M  V30 384 O 36.9475 2.24355 3.33208 0
M  V30 385 N 35.1535 2.10597 2.00243 0
M  V30 386 H 34.7005 2.31369 1.13252 0
M  V30 387 H 34.6585 1.59913 2.70694 0
M  V30 388 N 38.4306 0.297415 1.54768 0
M  V30 389 C 39.3776 -0.580276 2.23386 0
M  V30 390 C 40.3476 -1.13238 1.21517 0
M  V30 391 O 41.5326 -1.17757 1.50126 0
M  V30 392 C 38.6726 -1.74801 2.97555 0
M  V30 393 C 37.7856 -1.22764 4.1419 0
M  V30 394 C 36.9206 -2.35895 4.75949 0
M  V30 395 C 35.9596 -1.80974 5.84735 0
M  V30 396 N 35.0966 -2.87664 6.40464 0
M  V30 397 H 39.9366 0.0114833 2.97998 0
M  V30 398 H 37.4736 0.0174361 1.4709 0
M  V30 399 H 39.4316 -2.43475 3.38786 0
M  V30 400 H 38.0616 -2.31145 2.25326 0
M  V30 401 H 37.1136 -0.433271 3.77924 0
M  V30 402 H 38.4256 -0.785551 4.92575 0
M  V30 403 H 37.5796 -3.12523 5.20014 0
M  V30 404 H 36.3186 -2.83429 3.96887 0
M  V30 405 H 35.3236 -1.02834 5.40097 0
M  V30 406 H 36.5486 -1.34348 6.65678 0
M  V30 407 H 34.4946 -3.34538 5.64287 0
M  V30 408 H 34.4116 -2.4794 7.14186 0
M  V30 409 H 35.6796 -3.642 6.89187 0
M  V30 410 N 39.9087 -1.5758 0.0250728 0
M  V30 411 C 40.8387 -2.13007 -0.956575 0
M  V30 412 C 41.8197 -1.0452 -1.342 0
M  V30 413 O 43.0047 -1.32332 -1.42133 0
M  V30 414 C 40.1347 -2.65386 -2.24026 0
M  V30 415 C 39.0887 -3.78623 -1.99571 0
M  V30 416 C 38.4147 -4.17414 -3.3417 0
M  V30 417 C 39.7147 -5.04867 -1.33814 0
M  V30 418 H 41.4087 -2.9528 -0.494991 0
M  V30 419 H 38.9547 -1.42042 -0.236651 0
M  V30 420 H 40.9077 -3.02794 -2.93076 0
M  V30 421 H 39.6317 -1.80268 -2.72343 0
M  V30 422 H 38.2907 -3.41646 -1.32941 0
M  V30 423 H 37.9387 -3.29284 -3.80238 0
M  V30 424 H 37.6387 -4.93719 -3.18615 0
M  V30 425 H 39.1627 -4.57402 -4.04495 0
M  V30 426 H 40.5767 -5.39888 -1.92857 0
M  V30 427 H 38.9737 -5.86144 -1.28669 0
M  V30 428 H 40.0437 -4.83904 -0.310561 0
M  V30 429 N 41.3868 0.248026 -1.55636 0
M  V30 430 C 42.6148 0.993808 -1.81469 0
M  V30 431 C 43.0298 1.78991 -0.60064 0
M  V30 432 O 42.3868 1.77345 0.430682 0
M  V30 433 C 42.4378 1.93258 -3.05506 0
M  V30 434 O 42.1588 1.16869 -4.22224 0
M  V30 435 C 43.6598 2.79444 -3.4413 0
M  V30 436 H 40.8798 0.292486 -0.603898 0
M  V30 437 H 43.4238 0.271253 -2.02693 0
M  V30 438 H 41.5788 2.60943 -2.86335 0
M  V30 439 H 41.9928 1.80359 -4.92515 0
M  V30 440 H 43.4668 3.41066 -4.34026 0
M  V30 441 H 43.9438 3.50499 -2.64665 0
M  V30 442 H 44.5498 2.17214 -3.65648 0
M  V30 443 N 42.8649 1.48995 0.513639 0
M  V30 444 C 43.8129 1.65199 1.63744 0
M  V30 445 C 44.8069 0.51809 1.61283 0
M  V30 446 O 46.0129 0.697335 1.65943 0
M  V30 447 H 42.3879 0.52069 0.542574 0
M  V30 448 H 44.3589 2.59552 1.47226 0
M  V30 449 C 43.1079 1.72409 3.01945 0
M  V30 450 H 42.4309 2.59029 3.04539 0
M  V30 451 H 43.8709 1.87785 3.80148 0
M  V30 452 C 42.3299 0.46618 3.33659 0
M  V30 453 O 42.8599 -0.413744 3.99564 0
M  V30 454 N 41.0659 0.332931 2.88687 0
M  V30 455 H 40.6129 1.04996 2.35231 0
M  V30 456 H 40.5709 -0.507665 3.10274 0
M  V30 457 N 44.343 -0.763751 1.37857 0
M  V30 458 C 45.29 -1.87726 1.34267 0
M  V30 459 C 46.26 -1.64807 0.206879 0
M  V30 460 O 47.445 -1.86613 0.397508 0
M  V30 461 C 44.585 -3.24896 1.16346 0
M  V30 462 C 43.698 -3.59716 2.39225 0
M  V30 463 C 42.833 -4.86137 2.14114 0
M  V30 464 C 41.872 -5.13711 3.32817 0
M  V30 465 N 41.009 -6.31323 3.07206 0
M  V30 466 H 45.849 -1.90129 2.29466 0
M  V30 467 H 43.386 -0.929433 1.14017 0
M  V30 468 H 45.344 -4.04036 1.03975 0
M  V30 469 H 43.974 -3.21847 0.247909 0
M  V30 470 H 43.026 -2.75498 2.62307 0
M  V30 471 H 44.338 -3.76027 3.27728 0
M  V30 472 H 43.492 -5.73198 1.9882 0
M  V30 473 H 42.231 -4.71945 1.22961 0
M  V30 474 H 41.236 -4.25123 3.48641 0
M  V30 475 H 42.461 -5.29807 4.24832 0
M  V30 476 H 40.407 -6.18474 2.1869 0
M  V30 477 H 40.324 -6.48087 3.89254 0
M  V30 478 H 41.592 -7.213 2.95546 0
M  V30 479 N 45.8211 -1.22559 -0.990812 0
M  V30 480 C 47.0701 -1.04553 -1.72486 0
M  V30 481 C 47.3831 0.419349 -1.91052 0
M  V30 482 O 48.5891 0.719121 -2.61803 0
M  V30 483 C 47.0451 -1.82231 -3.10355 0
M  V30 484 C 46.6531 -3.32981 -2.99713 0
M  V30 485 C 48.3971 -1.7268 -3.87791 0
M  V30 486 C 46.3041 -4.03091 -4.32748 0
M  V30 487 H 45.2341 -0.387614 -0.646739 0
M  V30 488 H 47.8851 -1.46429 -1.10593 0
M  V30 489 H 46.2671 -1.33155 -3.72942 0
M  V30 490 H 47.4411 -3.89466 -2.46278 0
M  V30 491 H 45.7561 -3.43231 -2.35758 0
M  V30 492 H 48.3531 -2.22381 -4.86262 0
M  V30 493 H 48.6961 -0.687607 -4.10582 0
M  V30 494 H 49.2291 -2.1931 -3.31885 0
M  V30 495 H 45.9681 -5.07273 -4.15156 0
M  V30 496 H 45.4881 -3.51394 -4.86089 0
M  V30 497 H 47.1671 -4.08804 -5.01486 0
M  V30 498 N 47.2992 1.18797 -1.03562 0
M  V30 499 C 48.5482 1.87978 -0.731235 0
M  V30 500 C 48.8612 1.80911 0.743671 0
M  V30 501 O 50.0672 2.45407 1.16137 0
M  V30 502 C 48.5232 3.3721 -1.25768 0
M  V30 503 C 48.1312 3.52818 -2.76085 0
M  V30 504 C 49.8752 4.11825 -1.0296 0
M  V30 505 C 47.7822 4.9598 -3.22114 0
M  V30 506 H 46.7122 0.704063 -0.269835 0
M  V30 507 H 49.3632 1.34266 -1.25079 0
M  V30 508 H 47.7452 3.90359 -0.666011 0
M  V30 509 H 48.9192 3.09965 -3.40966 0
M  V30 510 H 47.2342 2.91602 -2.97249 0
M  V30 511 H 49.8312 5.17411 -1.34869 0
M  V30 512 H 50.1742 4.16287 0.0333546 0
M  V30 513 H 50.7072 3.64833 -1.58562 0
M  V30 514 H 47.4462 4.96684 -4.27768 0
M  V30 515 H 46.9662 5.39569 -2.61965 0
M  V30 516 H 48.6452 5.6467 -3.15844 0
M  V30 517 N 48.7773 0.814389 1.34928 0
M  V30 518 C 50.0073 0.41054 2.0248 0
M  V30 519 C 50.4153 -0.985625 1.61499 0
M  V30 520 O 49.7583 -1.64781 0.811976 0
M  V30 521 C 49.8203 0.423384 3.56998 0
M  V30 522 C 49.4843 1.77141 4.21272 0
M  V30 523 C 50.4813 2.73093 4.42398 0
M  V30 524 C 48.1663 2.05755 4.58225 0
M  V30 525 C 50.1603 3.95838 4.9959 0
M  V30 526 C 47.8473 3.28762 5.1513 0
M  V30 527 C 48.8453 4.23621 5.35755 0
M  V30 528 O 48.5333 5.44456 5.91458 0
M  V30 529 H 48.2653 0.163997 0.655806 0
M  V30 530 H 50.8193 1.10155 1.73364 0
M  V30 531 H 49.0493 -0.324276 3.85338 0
M  V30 532 H 50.7383 0.0407683 4.0588 0
M  V30 533 H 51.5043 2.5228 4.14222 0
M  V30 534 H 47.3833 1.32727 4.4148 0
M  V30 535 H 50.9273 4.69891 5.15605 0
M  V30 536 H 46.8243 3.49443 5.42734 0
M  V30 537 H 47.5923 5.4586 6.09901 0
M  V30 538 N 50.2554 -1.46986 0.568584 0
M  V30 539 C 51.5044 -2.01646 0.0465894 0
M  V30 540 C 51.8174 -1.44721 -1.31587 0
M  V30 541 O 53.0234 -1.91113 -1.92842 0
M  V30 542 C 51.4794 -3.59885 0.032752 0
M  V30 543 C 51.0874 -4.25804 1.39266 0
M  V30 544 C 52.8314 -4.22255 -0.436038 0
M  V30 545 C 50.7384 -5.76081 1.33732 0
M  V30 546 H 49.6684 -0.753876 0.013647 0
M  V30 547 H 52.3194 -1.68864 0.718131 0
M  V30 548 H 50.7014 -3.8968 -0.704669 0
M  V30 549 H 51.8754 -4.07637 2.1487 0
M  V30 550 H 50.1904 -3.7547 1.80032 0
M  V30 551 H 52.7874 -5.32394 -0.49602 0
M  V30 552 H 53.1304 -3.90212 -1.45053 0
M  V30 553 H 53.6634 -3.97033 0.246877 0
M  V30 554 H 50.4024 -6.12761 2.32817 0
M  V30 555 H 49.9224 -5.96553 0.623267 0
M  V30 556 H 51.6014 -6.38518 1.0442 0
M  V30 557 N 51.7335 -0.305618 -1.54608 0
M  V30 558 C 52.6635 0.561482 -2.26649 0
M  V30 559 C 53.6445 1.13415 -1.26772 0
M  V30 560 O 54.8295 1.16262 -1.55553 0
M  V30 561 C 51.9595 1.73122 -3.01075 0
M  V30 562 C 50.9135 1.2887 -4.08138 0
M  V30 563 C 50.2395 2.54396 -4.70305 0
M  V30 564 C 51.5395 0.416578 -5.20636 0
M  V30 565 H 53.2335 -0.0393902 -2.99374 0
M  V30 566 H 50.7795 -0.020385 -1.43986 0
M  V30 567 H 52.7325 2.34396 -3.50195 0
M  V30 568 H 51.4565 2.3584 -2.25936 0
M  V30 569 H 50.1155 0.698991 -3.59875 0
M  V30 570 H 49.7635 3.15439 -3.918 0
M  V30 571 H 49.4635 2.25486 -5.42614 0
M  V30 572 H 50.9875 3.16464 -5.2219 0
M  V30 573 H 52.4015 0.935116 -5.65622 0
M  V30 574 H 50.7985 0.221046 -5.99693 0
M  V30 575 H 51.8685 -0.557162 -4.81688 0
M  V30 576 N 53.2116 1.57565 -0.0334293 0
M  V30 577 C 54.4576 1.93088 0.639417 0
M  V30 578 C 54.8126 0.910589 1.69488 0
M  V30 579 O 54.1056 -0.0727725 1.91462 0
M  V30 580 C 54.2996 3.33112 1.29504 0
M  V30 581 C 54.1286 4.48667 0.304604 0
M  V30 582 C 52.8986 5.05207 -0.0970777 0
M  V30 583 C 55.0966 5.1239 -0.442845 0
M  V30 584 N 53.0786 6.04286 -1.08223 0
M  V30 585 C 54.4496 6.06609 -1.28161 0
M  V30 586 C 56.5046 4.95352 -0.50308 0
M  V30 587 C 55.2076 6.85622 -2.17519 0
M  V30 588 C 57.2336 5.74978 -1.38401 0
M  V30 589 C 56.5956 6.68816 -2.21054 0
M  V30 590 H 52.6946 0.754335 0.206161 0
M  V30 591 H 55.2786 1.94435 -0.101613 0
M  V30 592 H 53.4496 3.32576 2.00618 0
M  V30 593 H 55.1816 3.55972 1.92525 0
M  V30 594 H 51.9366 4.72782 0.278255 0
M  V30 595 H 52.3606 6.58516 -1.57117 0
M  V30 596 H 57.0026 4.22625 0.121694 0
M  V30 597 H 54.7206 7.57652 -2.81049 0
M  V30 598 H 58.3066 5.63826 -1.43496 0
M  V30 599 H 57.1866 7.29355 -2.88116 0
M  V30 600 N 54.6897 -0.239769 1.55765 0
M  V30 601 C 55.9177 -0.98417 1.81994 0
M  V30 602 C 56.3327 -1.7867 0.610124 0
M  V30 603 O 55.6897 -1.77571 -0.421271 0
M  V30 604 C 55.7407 -1.91635 3.06526 0
M  V30 605 O 55.4617 -1.14629 4.22838 0
M  V30 606 C 56.9627 -2.77616 3.45607 0
M  V30 607 H 54.1827 -0.28928 0.605441 0
M  V30 608 H 56.7267 -0.260499 2.02834 0
M  V30 609 H 54.8817 -2.5942 2.87715 0
M  V30 610 H 55.2957 -1.77745 4.93464 0
M  V30 611 H 56.7697 -3.38759 4.35828 0
M  V30 612 H 57.2467 -3.4909 2.6652 0
M  V30 613 H 57.8527 -2.15271 3.66795 0
M  V30 614 N 56.1678 -1.49265 -0.50573 0
M  V30 615 C 57.4168 -1.57761 -1.25675 0
M  V30 616 C 57.7298 -0.267371 -1.93764 0
M  V30 617 O 58.9358 -0.230827 -2.70517 0
M  V30 618 C 57.3918 -2.78332 -2.28165 0
M  V30 619 C 56.9998 -4.16096 -1.66037 0
M  V30 620 C 58.7438 -2.96155 -3.04125 0
M  V30 621 C 56.6508 -5.27895 -2.6661 0
M  V30 622 H 55.5808 -0.587391 -0.472745 0
M  V30 623 H 58.2318 -1.75644 -0.53118 0
M  V30 624 H 56.6138 -2.53934 -3.03865 0
M  V30 625 H 57.7878 -4.50612 -0.963622 0
M  V30 626 H 56.1028 -4.03591 -1.02484 0
M  V30 627 H 58.6998 -3.76849 -3.79327 0
M  V30 628 H 59.0428 -2.06534 -3.61455 0
M  V30 629 H 59.5758 -3.2057 -2.35541 0
M  V30 630 H 56.3148 -6.1956 -2.14068 0
M  V30 631 H 55.8348 -4.97839 -3.34539 0
M  V30 632 H 57.5138 -5.57031 -3.29129 0
M  V30 633 N 57.6459 0.756429 -1.3826 0
M  V30 634 C 58.8949 1.51082 -1.3363 0
M  V30 635 C 59.2079 1.95467 0.0720068 0
M  V30 636 O 60.4139 2.7043 0.240834 0
M  V30 637 C 58.8699 2.72893 -2.34644 0
M  V30 638 C 58.4779 2.35544 -3.81081 0
M  V30 639 C 60.2219 3.50791 -2.39052 0
M  V30 640 C 58.1289 3.53948 -4.73787 0
M  V30 641 H 57.0589 0.56727 -0.49671 0
M  V30 642 H 59.7099 0.827147 -1.638 0
M  V30 643 H 58.0919 3.43227 -1.97513 0
M  V30 644 H 59.2659 1.72894 -4.27135 0
M  V30 645 H 57.5809 1.70786 -3.79764 0
M  V30 646 H 60.1779 4.38823 -3.05513 0
M  V30 647 H 60.5209 3.91745 -1.40861 0
M  V30 648 H 61.0539 2.87467 -2.74968 0
M  V30 649 H 57.7929 3.18064 -5.73163 0
M  V30 650 H 57.3129 4.15651 -4.32428 0
M  V30 651 H 58.9919 4.20566 -4.91663 0
M  V30 652 N 59.124 1.23083 0.984299 0
M  V30 653 C 60.054 1.03292 2.09411 0
M  V30 654 C 61.035 -0.048923 1.7003 0
M  V30 655 O 62.22 0.114967 1.93859 0
M  V30 656 C 59.35 0.619155 3.41736 0
M  V30 657 C 58.304 1.64791 3.95004 0
M  V30 658 C 57.63 1.0897 5.23478 0
M  V30 659 C 58.93 3.03999 4.24714 0
M  V30 660 H 60.624 1.96119 2.26225 0
M  V30 661 H 58.17 0.944344 1.08711 0
M  V30 662 H 60.123 0.467777 4.18796 0
M  V30 663 H 58.847 -0.344786 3.24775 0
M  V30 664 H 57.506 1.78721 3.20085 0
M  V30 665 H 57.154 0.11686 5.02864 0
M  V30 666 H 56.854 1.77704 5.60085 0
M  V30 667 H 58.378 0.950093 6.03163 0
M  V30 668 H 59.792 2.93393 4.92538 0
M  V30 669 H 58.189 3.69936 4.72512 0
M  V30 670 H 59.259 3.53285 3.32142 0
M  V30 671 N 60.6021 -1.18246 1.0419 0
M  V30 672 C 61.8481 -1.88536 0.747122 0
M  V30 673 C 62.1811 -1.80223 -0.723409 0
M  V30 674 O 61.4561 -1.20337 -1.52804 0
M  V30 675 C 61.7391 -3.38968 1.21544 0
M  V30 676 C 61.5921 -3.56084 2.74816 0
M  V30 677 C 62.9111 -4.32648 0.806482 0
M  V30 678 H 60.0301 -0.684619 0.272883 0
M  V30 679 H 62.6721 -1.39113 1.29413 0
M  V30 680 H 60.8221 -3.8119 0.750081 0
M  V30 681 H 62.4941 -3.22946 3.29399 0
M  V30 682 H 60.7371 -2.98699 3.14582 0
M  V30 683 H 61.4081 -4.61639 3.02644 0
M  V30 684 H 63.8841 -3.98211 1.20695 0
M  V30 685 H 62.7601 -5.36462 1.1619 0
M  V30 686 H 63.0211 -4.41146 -0.29029 0
M  V30 687 N 62.0802 -0.821533 -1.34494 0
M  V30 688 C 63.0102 -0.257138 -2.3208 0
M  V30 689 C 63.9912 0.625645 -1.58176 0
M  V30 690 O 65.1762 0.552811 -1.86166 0
M  V30 691 C 62.3062 0.582958 -3.42372 0
M  V30 692 C 61.2602 -0.202571 -4.2752 0
M  V30 693 C 60.5862 0.760179 -5.29269 0
M  V30 694 C 61.8862 -1.40998 -5.02908 0
M  V30 695 H 63.5802 -1.07247 -2.79532 0
M  V30 696 H 61.1262 -0.517163 -1.34393 0
M  V30 697 H 63.0792 0.987972 -4.09655 0
M  V30 698 H 61.8032 1.43133 -2.93565 0
M  V30 699 H 60.4622 -0.588936 -3.61838 0
M  V30 700 H 60.1102 1.60447 -4.76724 0
M  V30 701 H 59.8102 0.238809 -5.87115 0
M  V30 702 H 61.3342 1.16308 -5.9942 0
M  V30 703 H 62.7482 -1.07905 -5.63054 0
M  V30 704 H 61.1452 -1.86689 -5.70322 0
M  V30 705 H 62.2152 -2.1889 -4.32684 0
M  V30 706 N 63.5583 1.46682 -0.576371 0
M  V30 707 C 64.4883 2.33028 0.148397 0
M  V30 708 C 65.4693 1.44961 0.889956 0
M  V30 709 O 66.6543 1.73789 0.866662 0
M  V30 710 C 63.7843 3.27117 1.1667 0
M  V30 711 C 62.7383 4.24575 0.540386 0
M  V30 712 C 62.0643 5.08126 1.6647 0
M  V30 713 C 63.3643 5.19722 -0.518331 0
M  V30 714 H 65.0583 2.93875 -0.572509 0
M  V30 715 H 62.6043 1.41315 -0.276768 0
M  V30 716 H 64.5573 3.86374 1.68204 0
M  V30 717 H 63.2813 2.64364 1.9178 0
M  V30 718 H 61.9403 3.66571 0.0461769 0
M  V30 719 H 61.5883 4.41762 2.40531 0
M  V30 720 H 61.2883 5.74122 1.25131 0
M  V30 721 H 62.8123 5.70246 2.18293 0
M  V30 722 H 64.2263 5.73232 -0.0883058 0
M  V30 723 H 62.6233 5.94026 -0.851679 0
M  V30 724 H 63.6933 4.64037 -1.40703 0
M  V30 725 N 65.0364 0.313813 1.54444 0
M  V30 726 C 66.2614 -0.296681 2.05267 0
M  V30 727 C 66.6864 -1.45757 1.18897 0
M  V30 728 O 66.0444 -1.80239 0.195886 0
M  V30 729 C 66.0924 -0.71831 3.53373 0
M  V30 730 O 65.1964 -1.82175 3.69981 0
M  V30 731 H 64.5374 -0.0554061 0.661684 0
M  V30 732 H 67.0674 0.459387 1.99376 0
M  V30 733 H 67.0774 -1.00364 3.95463 0
M  V30 734 H 65.7524 0.130821 4.15694 0
M  V30 735 H 64.3294 -1.53598 3.39797 0
M  V30 736 N 66.5145 -1.57545 0.0417849 0
M  V30 737 C 67.7635 -1.91494 -0.633492 0
M  V30 738 C 68.0765 -0.921084 -1.72556 0
M  V30 739 O 69.2825 -1.15228 -2.45835 0
M  V30 740 C 67.7385 -3.40072 -1.17808 0
M  V30 741 C 67.3465 -4.47843 -0.118633 0
M  V30 742 C 69.0905 -3.8307 -1.82915 0
M  V30 743 C 66.9975 -5.87529 -0.675578 0
M  V30 744 H 65.9275 -0.714653 -0.24039 0
M  V30 745 H 68.5785 -1.83175 0.109148 0
M  V30 746 H 66.9605 -3.43364 -1.97274 0
M  V30 747 H 68.1345 -4.56128 0.654494 0
M  V30 748 H 66.4495 -4.14128 0.434414 0
M  V30 749 H 69.0465 -4.84794 -2.25563 0
M  V30 750 H 69.3895 -3.1881 -2.67705 0
M  V30 751 H 69.9225 -3.82255 -1.10119 0
M  V30 752 H 66.6615 -6.55362 0.134475 0
M  V30 753 H 66.1815 -5.82824 -1.4169 0
M  V30 754 H 67.8605 -6.36491 -1.1614 0
M  V30 755 N 67.9926 0.231505 -1.5589 0
M  V30 756 C 69.2386 0.95877 -1.78705 0
M  V30 757 C 69.5716 1.8438 -0.609725 0
M  V30 758 O 68.8466 1.90521 0.391426 0
M  V30 759 C 69.1296 1.8062 -3.11526 0
M  V30 760 C 68.9826 0.948328 -4.39689 0
M  V30 761 C 70.3016 2.78585 -3.40703 0
M  V30 762 H 67.4206 0.347129 -0.650131 0
M  V30 763 H 70.0626 0.228259 -1.88624 0
M  V30 764 H 68.2126 2.42902 -3.03201 0
M  V30 765 H 69.8846 0.343016 -4.60023 0
M  V30 766 H 68.1276 0.253314 -4.3306 0
M  V30 767 H 68.7986 1.57543 -5.29041 0
M  V30 768 H 71.2746 2.26439 -3.49091 0
M  V30 769 H 70.1506 3.34988 -4.34826 0
M  V30 770 H 70.4116 3.55825 -2.62375 0
M  V30 771 N 69.4707 1.49531 0.497807 0
M  V30 772 C 70.7177 1.59179 1.25173 0
M  V30 773 C 71.0457 0.279932 1.92475 0
M  V30 774 O 70.3007 -0.732383 1.81479 0
M  V30 775 C 70.5997 2.70252 2.33878 0
M  V30 776 C 70.2657 4.11644 1.84012 0
M  V30 777 C 68.9277 4.50121 1.70132 0
M  V30 778 C 71.2797 5.00121 1.46725 0
M  V30 779 C 68.6077 5.74845 1.17348 0
M  V30 780 C 70.9597 6.25366 0.95392 0
M  V30 781 C 69.6237 6.6267 0.801538 0
M  V30 782 H 68.8937 0.582478 0.45804 0
M  V30 783 H 71.5407 1.83373 0.551948 0
M  V30 784 H 69.8457 2.40041 3.09657 0
M  V30 785 H 71.5427 2.74925 2.9192 0
M  V30 786 H 68.1327 3.81274 1.95775 0
M  V30 787 H 72.3167 4.71048 1.56294 0
M  V30 788 H 67.5727 6.02444 1.04264 0
M  V30 789 H 71.7467 6.93301 0.656225 0
M  V30 790 H 69.3737 7.59197 0.390351 0
M  V30 791 N 70.9488 -0.749086 1.3866 0
M  V30 792 C 72.1978 -1.50371 1.3443 0
M  V30 793 C 72.5108 -1.95503 -0.0616397 0
M  V30 794 O 73.7168 -2.70554 -0.226489 0
M  V30 795 C 72.1728 -2.71644 2.36088 0
M  V30 796 C 71.7808 -2.3352 3.82325 0
M  V30 797 C 73.5248 -3.49518 2.40909 0
M  V30 798 C 71.4318 -3.51431 4.75658 0
M  V30 799 H 70.3618 -0.564628 0.499712 0
M  V30 800 H 73.0128 -0.818449 1.64237 0
M  V30 801 H 71.3948 -3.42175 1.9933 0
M  V30 802 H 72.5688 -1.70627 4.28046 0
M  V30 803 H 70.8838 -1.6877 3.80665 0
M  V30 804 H 73.4808 -4.37197 3.07836 0
M  V30 805 H 73.8238 -3.90992 1.42937 0
M  V30 806 H 74.3568 -2.86005 2.76489 0
M  V30 807 H 71.0958 -3.15019 5.74842 0
M  V30 808 H 70.6158 -4.13352 4.34627 0
M  V30 809 H 72.2948 -4.17953 4.93887 0
M  V30 810 N 72.4269 -1.23603 -0.977757 0
M  V30 811 C 73.6759 -1.06377 -1.71368 0
M  V30 812 C 73.9889 0.399062 -1.91486 0
M  V30 813 O 75.1949 0.691312 -2.62551 0
M  V30 814 C 73.6509 -1.85512 -3.08404 0
M  V30 815 C 73.2589 -3.36141 -2.96164 0
M  V30 816 C 75.0029 -1.76783 -3.85938 0
M  V30 817 C 72.9099 -4.07659 -4.28449 0
M  V30 818 H 71.8399 -0.394452 -0.642591 0
M  V30 819 H 74.4909 -1.47594 -1.09034 0
M  V30 820 H 72.8729 -1.37103 -3.71509 0
M  V30 821 H 74.0469 -3.92056 -2.42133 0
M  V30 822 H 72.3619 -3.45712 -2.32104 0
M  V30 823 H 74.9589 -2.27526 -4.83876 0
M  V30 824 H 75.3019 -0.731116 -4.0983 0
M  V30 825 H 75.8349 -2.22818 -3.2954 0
M  V30 826 H 72.5739 -5.11648 -4.09752 0
M  V30 827 H 72.0939 -3.5653 -4.82334 0
M  V30 828 H 73.7729 -4.141 -4.97122 0
M  V30 829 N 73.905 1.17692 -1.04816 0
M  V30 830 C 75.151 1.88137 -0.75711 0
M  V30 831 C 75.484 1.80604 0.713841 0
M  V30 832 O 74.759 1.21146 1.52164 0
M  V30 833 C 75.042 3.38318 -1.2334 0
M  V30 834 C 74.895 3.54622 -2.76701 0
M  V30 835 C 76.214 4.32214 -0.829415 0
M  V30 836 H 73.333 0.683163 -0.27651 0
M  V30 837 H 75.975 1.38424 -1.30149 0
M  V30 838 H 74.125 3.80787 -0.770286 0
M  V30 839 H 75.797 3.21194 -3.31107 0
M  V30 840 H 74.04 2.97026 -3.16161 0
M  V30 841 H 74.711 4.60028 -3.05088 0
M  V30 842 H 77.187 3.97565 -1.22805 0
M  V30 843 H 76.063 5.35838 -1.19033 0
M  V30 844 H 76.324 4.41294 0.266891 0
M  V30 845 N 75.3831 0.828654 1.34056 0
M  V30 846 C 76.3131 0.269443 2.3194 0
M  V30 847 C 77.2941 -0.617247 1.58506 0
M  V30 848 O 78.4791 -0.542931 1.86456 0
M  V30 849 C 75.6091 -0.564793 3.42677 0
M  V30 850 C 74.5631 0.225241 4.27407 0
M  V30 851 C 73.8891 -0.7321 5.29664 0
M  V30 852 C 75.1891 1.43663 5.02154 0
M  V30 853 H 76.8831 1.08728 2.7896 0
M  V30 854 H 74.4291 0.524283 1.34117 0
M  V30 855 H 76.3821 -0.966233 4.10173 0
M  V30 856 H 75.1061 -1.41574 2.9432 0
M  V30 857 H 73.7651 0.608117 3.61521 0
M  V30 858 H 73.4131 -1.57916 4.77568 0
M  V30 859 H 73.1131 -0.20767 5.87233 0
M  V30 860 H 74.6371 -1.13128 6.00029 0
M  V30 861 H 76.0511 1.1089 5.62473 0
M  V30 862 H 74.4481 1.89711 5.69324 0
M  V30 863 H 75.5181 2.21181 4.31517 0
M  V30 864 N 76.8612 -1.46375 0.584142 0
M  V30 865 C 78.1102 -2.01585 0.0679741 0
M  V30 866 C 78.4232 -1.46109 -1.30045 0
M  V30 867 O 79.6292 -1.93148 -1.90804 0
M  V30 868 C 78.0852 -3.5983 0.0709207 0
M  V30 869 C 77.6932 -4.24303 1.43775 0
M  V30 870 C 79.4372 -4.22693 -0.391228 0
M  V30 871 C 77.3442 -5.74631 1.39834 0
M  V30 872 H 76.2742 -0.753689 0.0216421 0
M  V30 873 H 78.9252 -1.68093 0.736001 0
M  V30 874 H 77.3072 -3.90405 -0.663299 0
M  V30 875 H 78.4812 -4.05335 2.19181 0
M  V30 876 H 76.7962 -3.73539 1.84004 0
M  V30 877 H 79.3932 -5.3289 -0.439524 0
M  V30 878 H 79.7362 -3.91728 -1.40906 0
M  V30 879 H 80.2692 -3.96749 0.288974 0
M  V30 880 H 77.0082 -6.10258 2.39303 0
M  V30 881 H 76.5282 -5.95858 0.686505 0
M  V30 882 H 78.2072 -6.37375 1.11187 0
M  V30 883 N 78.3393 -0.321999 -1.54275 0
M  V30 884 C 79.2873 0.560206 -2.25753 0
M  V30 885 C 80.2813 1.11984 -1.27106 0
M  V30 886 O 81.4873 1.06806 -1.44888 0
M  V30 887 H 77.8623 0.199304 -0.725108 0
M  V30 888 H 79.8333 -0.0649365 -2.98329 0
M  V30 889 C 78.5823 1.71023 -3.02731 0
M  V30 890 H 77.9053 1.28885 -3.78456 0
M  V30 891 H 79.3453 2.30314 -3.55993 0
M  V30 892 C 77.8043 2.62692 -2.10938 0
M  V30 893 O 78.3343 3.64364 -1.6912 0
M  V30 894 N 76.5403 2.30891 -1.76459 0
M  V30 895 H 76.0873 1.48253 -2.10663 0
M  V30 896 H 76.0453 2.92487 -1.1532 0
M  V30 897 N 79.8174 1.5752 -0.0501392 0
M  V30 898 C 81.0424 1.97376 0.636997 0
M  V30 899 C 81.4674 0.927466 1.63645 0
M  V30 900 O 80.8254 -0.10941 1.8097 0
M  V30 901 C 80.8734 3.36304 1.30123 0
M  V30 902 O 79.9774 3.34156 2.41689 0
M  V30 903 H 79.3184 0.642998 0.165679 0
M  V30 904 H 81.8484 2.04258 -0.118233 0
M  V30 905 H 81.8584 3.73008 1.65315 0
M  V30 906 H 80.5334 4.11993 0.568746 0
M  V30 907 H 79.1104 3.09196 2.08451 0
M  V30 908 N 81.2955 -0.223234 1.56011 0
M  V30 909 C 82.5445 -0.945912 1.78144 0
M  V30 910 C 82.8575 -1.85567 0.618396 0
M  V30 911 O 84.0635 -2.61688 0.723318 0
M  V30 912 C 82.5195 -1.73216 3.15475 0
M  V30 913 C 82.1275 -0.868619 4.39499 0
M  V30 914 C 83.8715 -2.44615 3.46935 0
M  V30 915 C 81.7785 -1.65212 5.67855 0
M  V30 916 H 80.7085 -0.356929 0.664167 0
M  V30 917 H 83.3595 -0.199845 1.82409 0
M  V30 918 H 81.7415 -2.52107 3.05382 0
M  V30 919 H 82.9155 -0.120366 4.60643 0
M  V30 920 H 81.2305 -0.26683 4.15544 0
M  V30 921 H 83.8275 -3.03732 4.40058 0
M  V30 922 H 84.1705 -3.17417 2.69355 0
M  V30 923 H 84.7035 -1.72715 3.58349 0
M  V30 924 H 81.4425 -0.967407 6.48322 0
M  V30 925 H 80.9625 -2.37503 5.50774 0
M  V30 926 H 82.6415 -2.21322 6.07968 0
M  V30 927 N 82.7736 -1.49793 -0.48987 0
M  V30 928 C 83.7206 -1.67281 -1.59014 0
M  V30 929 C 84.6906 -0.514177 -1.57941 0
M  V30 930 O 85.8756 -0.742533 -1.75759 0
M  V30 931 C 83.0156 -1.75569 -2.97102 0
M  V30 932 C 82.1286 -3.0281 -3.08107 0
M  V30 933 C 81.2636 -3.02008 -4.36995 0
M  V30 934 C 80.3026 -4.23782 -4.41673 0
M  V30 935 N 79.4396 -4.20826 -5.62005 0
M  V30 936 H 84.2796 -2.61224 -1.43409 0
M  V30 937 H 81.8166 -1.29508 -0.697565 0
M  V30 938 H 83.7746 -1.78354 -3.77155 0
M  V30 939 H 82.4046 -0.850827 -3.11385 0
M  V30 940 H 81.4566 -3.09584 -2.21047 0
M  V30 941 H 82.7686 -3.92801 -3.07423 0
M  V30 942 H 81.9226 -3.03418 -5.25378 0
M  V30 943 H 80.6616 -2.09815 -4.4026 0
M  V30 944 H 79.6666 -4.22604 -3.5169 0
M  V30 945 H 80.8916 -5.17181 -4.40115 0
M  V30 946 H 78.8376 -3.31476 -5.66091 0
M  V30 947 H 78.7546 -5.04564 -5.62984 0
M  V30 948 H 80.0226 -4.26355 -6.52565 0
M  V30 949 N 84.2517 0.741722 -1.39055 0
M  V30 950 C 85.4767 1.53607 -1.39354 0
M  V30 951 C 85.9017 1.88096 0.0116905 0
M  V30 952 O 85.2597 1.5143 0.996924 0
M  V30 953 C 85.3077 2.80441 -2.26682 0
M  V30 954 O 84.4117 3.76088 -1.69208 0
M  V30 955 H 83.7527 0.464142 -0.474835 0
M  V30 956 H 86.2827 0.915665 -1.82967 0
M  V30 957 H 86.2927 3.29246 -2.40959 0
M  V30 958 H 84.9677 2.5467 -3.2881 0
M  V30 959 H 83.5447 3.34833 -1.64138 0
M  V30 960 N 85.7298 1.2412 0.971189 0
M  V30 961 C 86.6398 1.04747 2.09917 0
M  V30 962 C 87.6558 -0.0107162 1.73997 0
M  V30 963 O 88.8318 0.186714 2.00533 0
M  V30 964 C 85.8968 0.650828 3.40537 0
M  V30 965 C 84.9578 1.7851 3.90426 0
M  V30 966 C 84.1908 1.40729 5.14812 0
M  V30 967 O 84.4138 0.29557 5.69634 0
M  V30 968 O 83.3478 2.23168 5.58999 0
M  V30 969 H 87.1738 1.99304 2.29154 0
M  V30 970 H 84.7588 1.02908 1.08307 0
M  V30 971 H 86.6408 0.440992 4.19086 0
M  V30 972 H 85.3158 -0.265649 3.22608 0
M  V30 973 H 84.2228 2.04966 3.12953 0
M  V30 974 H 85.5558 2.68023 4.12825 0
M  V30 975 N 87.2079 -1.17134 1.05439 0
M  V30 976 C 88.1549 -2.21235 0.657539 0
M  V30 977 C 89.1249 -1.62551 -0.341543 0
M  V30 978 O 90.3099 -1.89379 -0.232393 0
M  V30 979 C 87.4499 -3.45076 0.0410575 0
M  V30 980 C 86.5629 -4.18042 1.08927 0
M  V30 981 C 85.6979 -5.29376 0.439848 0
M  V30 982 C 84.7369 -5.94132 1.4722 0
M  V30 983 N 83.8739 -6.96975 0.846756 0
M  V30 984 H 88.7139 -2.54534 1.54972 0
M  V30 985 H 86.2509 -1.25028 0.775006 0
M  V30 986 H 88.2089 -4.15862 -0.33383 0
M  V30 987 H 86.8389 -3.12353 -0.814568 0
M  V30 988 H 85.8909 -3.45945 1.58196 0
M  V30 989 H 87.2029 -4.62306 1.87282 0
M  V30 990 H 86.3569 -6.06699 0.0115125 0
M  V30 991 H 85.0959 -4.86251 -0.375656 0
M  V30 992 H 84.1009 -5.15538 1.91052 0
M  V30 993 H 85.3259 -6.39337 2.28965 0
M  V30 994 H 83.2719 -6.5598 0.0518075 0
M  V30 995 H 83.1889 -7.39565 1.5678 0
M  V30 996 H 84.4569 -7.78239 0.443277 0
M  V30 997 N 88.686 -0.835752 -1.33615 0
M  V30 998 C 89.649 -0.272 -2.2758 0
M  V30 999 C 90.649 0.557487 -1.50827 0
M  V30 1000 O 91.839 0.37173 -1.70188 0
M  V30 1001 C 88.971 0.617173 -3.35267 0
M  V30 1002 H 90.164 -1.10111 -2.78954 0
M  V30 1003 H 87.717 -0.608594 -1.43965 0
M  V30 1004 H 88.452 1.46884 -2.89129 0
M  V30 1005 H 88.237 0.0237066 -3.92093 0
M  V30 1006 H 89.727 1.005 -4.05326 0
M  V30 1007 N 90.1641 1.46063 -0.591896 0
M  V30 1008 C 91.1141 2.27458 0.157172 0
M  V30 1009 C 92.0981 1.3641 0.853301 0
M  V30 1010 O 93.2901 1.60517 0.74588 0
M  V30 1011 C 90.4191 3.22956 1.16423 0
M  V30 1012 C 89.5051 4.2149 0.469742 0
M  V30 1013 N 89.8961 5.03519 -0.479839 0
M  V30 1014 C 88.1941 4.40161 0.719319 0
M  V30 1015 C 88.8951 5.74904 -0.886591 0
M  V30 1016 N 87.8711 5.43097 -0.233731 0
M  V30 1017 H 91.6731 2.88272 -0.572392 0
M  V30 1018 H 89.1871 1.57024 -0.414375 0
M  V30 1019 H 91.1841 3.79986 1.71513 0
M  V30 1020 H 89.8441 2.63701 1.89451 0
M  V30 1021 H 90.8551 5.1078 -0.855823 0
M  V30 1022 H 87.5321 3.92046 1.43548 0
M  V30 1023 H 88.9221 6.50844 -1.66888 0
M  V30 1024 N 91.6422 0.330177 1.54103 0
M  V30 1025 C 92.5522 -0.541534 2.28264 0
M  V30 1026 C 93.5682 -1.12351 1.32866 0
M  V30 1027 O 94.7442 -1.14206 1.65888 0
M  V30 1028 C 91.8092 -1.68322 3.03098 0
M  V30 1029 C 90.8702 -1.13238 4.14096 0
M  V30 1030 C 90.1032 -2.21966 4.85352 0
M  V30 1031 O 90.3262 -3.42437 4.56172 0
M  V30 1032 O 89.2602 -1.87013 5.7211 0
M  V30 1033 H 93.0862 0.060938 3.03639 0
M  V30 1034 H 90.6712 0.09565 1.49093 0
M  V30 1035 H 92.5532 -2.34777 3.49939 0
M  V30 1036 H 91.2282 -2.27176 2.30593 0
M  V30 1037 H 90.1352 -0.432736 3.71589 0
M  V30 1038 H 91.4682 -0.588898 4.88664 0
M  V30 1039 N 93.1203 -1.57491 0.0584922 0
M  V30 1040 C 94.3453 -1.97711 -0.62652 0
M  V30 1041 C 94.7703 -0.936132 -1.63151 0
M  V30 1042 O 94.1283 0.099811 -1.81025 0
M  V30 1043 C 94.1763 -3.36989 -1.28338 0
M  V30 1044 O 93.2803 -3.35433 -2.39913 0
M  V30 1045 H 92.6213 -0.643868 -0.162266 0
M  V30 1046 H 95.1513 -2.04193 0.129064 0
M  V30 1047 H 95.1613 -3.73879 -1.63335 0
M  V30 1048 H 93.8363 -4.12289 -0.546889 0
M  V30 1049 H 92.4133 -3.10298 -2.06809 0
M  V30 1050 N 94.5984 0.214957 -1.56127 0
M  V30 1051 C 95.5284 1.2695 -1.95974 0
M  V30 1052 C 96.5094 1.48539 -0.828868 0
M  V30 1053 O 97.6944 1.60611 -1.09168 0
M  V30 1054 C 94.8244 2.61794 -2.28214 0
M  V30 1055 C 93.7784 2.54851 -3.43853 0
M  V30 1056 C 93.1044 3.93785 -3.61715 0
M  V30 1057 C 94.4044 2.09065 -4.78632 0
M  V30 1058 H 96.0984 0.93846 -2.84312 0
M  V30 1059 H 93.6444 0.449996 -1.36788 0
M  V30 1060 H 95.5974 3.35731 -2.54682 0
M  V30 1061 H 94.3214 2.96599 -1.36736 0
M  V30 1062 H 92.9804 1.8337 -3.17444 0
M  V30 1063 H 92.6284 4.25908 -2.67602 0
M  V30 1064 H 92.3284 3.90019 -4.39498 0
M  V30 1065 H 93.8524 4.69374 -3.90539 0
M  V30 1066 H 95.2664 2.7275 -5.04262 0
M  V30 1067 H 93.6634 2.16346 -5.59745 0
M  V30 1068 H 94.7334 1.04315 -4.73547 0
M  V30 1069 N 96.0765 1.50051 0.48192 0
M  V30 1070 C 97.0065 1.71046 1.58951 0
M  V30 1071 C 97.9875 0.559288 1.60642 0
M  V30 1072 O 99.1725 0.797243 1.77081 0
M  V30 1073 C 96.3025 1.79462 2.97339 0
M  V30 1074 C 95.2565 2.94558 3.10515 0
M  V30 1075 C 94.5825 2.88105 4.50444 0
M  V30 1076 C 95.8825 4.35227 2.88747 0
M  V30 1077 H 97.5765 2.6378 1.41635 0
M  V30 1078 H 95.1225 1.26936 0.679942 0
M  V30 1079 H 97.0755 1.92734 3.74742 0
M  V30 1080 H 95.7995 0.833412 3.15788 0
M  V30 1081 H 94.4585 2.80918 2.35543 0
M  V30 1082 H 94.1065 1.89853 4.65795 0
M  V30 1083 H 93.8065 3.65366 4.60197 0
M  V30 1084 H 95.3305 3.03412 5.29881 0
M  V30 1085 H 96.7445 4.49449 3.55905 0
M  V30 1086 H 95.1415 5.13856 3.09955 0
M  V30 1087 H 96.2115 4.48347 1.84696 0
M  V30 1088 N 97.5546 -0.734337 1.39446 0
M  V30 1089 C 98.9706 -1.03997 1.21065 0
M  V30 1090 C 99.1706 -2.01369 0.0727019 0
M  V30 1091 O 98.2266 -2.45856 -0.575426 0
M  V30 1092 C 99.5396 -1.60163 2.54496 0
M  V30 1093 C 101.088 -1.7224 2.61347 0
M  V30 1094 C 101.563 -2.31814 3.95002 0
M  V30 1095 N 103.054 -2.39223 3.96644 0
M  V30 1096 C 103.789 -2.86258 4.96834 0
M  V30 1097 N 103.285 -3.33184 6.07421 0
M  V30 1098 N 105.078 -2.85473 4.84213 0
M  V30 1099 H 97.2286 -0.0885624 2.12215 0
M  V30 1100 H 99.4916 -0.10191 0.942506 0
M  V30 1101 H 99.1976 -0.960811 3.38321 0
M  V30 1102 H 99.0716 -2.5896 2.74262 0
M  V30 1103 H 101.459 -2.35443 1.77906 0
M  V30 1104 H 101.54 -0.720939 2.4543 0
M  V30 1105 H 101.184 -1.69238 4.78875 0
M  V30 1106 H 101.114 -3.32638 4.08239 0
M  V30 1107 H 103.605 -2.06057 3.16779 0
M  V30 1108 H 103.918 -3.67586 6.7978 0
M  V30 1109 H 102.263 -3.31191 6.11013 0
M  V30 1110 H 105.454 -2.48136 3.96921 0
M  V30 1111 H 105.627 -3.21814 5.62441 0
M  V30 1112 N 99.0327 -1.24633 -0.964593 0
M  V30 1113 C 100.31 -0.995809 -1.68354 0
M  V30 1114 C 100.69 0.480964 -2.05548 0
M  V30 1115 O 100.038 1.45599 -1.76105 0
M  V30 1116 C 100.248 -1.92177 -2.91323 0
M  V30 1117 C 101.596 -2.19446 -3.63495 0
M  V30 1118 O 102.62 -1.89855 -3.01386 0
M  V30 1119 O 101.479 -2.69714 -4.75307 0
M  V30 1120 H 98.5727 -0.376854 -0.736146 0
M  V30 1121 H 101.119 -1.35745 -1.0184 0
M  V30 1122 H 99.8907 -2.91938 -2.60553 0
M  V30 1123 H 99.5137 -1.56349 -3.65569 0
M  V30 1124 N 100.511 1.16574 -1.06058 0
M  V30 1125 C 101.76 1.86385 -0.770944 0
M  V30 1126 C 102.073 1.82448 0.705129 0
M  V30 1127 O 103.279 2.47815 1.10905 0
M  V30 1128 C 101.735 3.34466 -1.32893 0
M  V30 1129 C 101.343 3.46883 -2.83507 0
M  V30 1130 C 103.087 4.09548 -1.11672 0
M  V30 1131 C 100.994 4.89036 -3.32562 0
M  V30 1132 H 99.9238 0.698181 -0.284709 0
M  V30 1133 H 102.575 1.31583 -1.27899 0
M  V30 1134 H 100.957 3.88859 -0.748662 0
M  V30 1135 H 102.131 3.02663 -3.47465 0
M  V30 1136 H 100.446 2.85232 -3.03368 0
M  V30 1137 H 103.043 5.14434 -1.45814 0
M  V30 1138 H 103.386 4.16264 -0.0549535 0
M  V30 1139 H 103.919 3.61387 -1.66265 0
M  V30 1140 H 100.658 4.87499 -4.38207 0
M  V30 1141 H 100.178 5.3389 -2.73351 0
M  V30 1142 H 101.857 5.57843 -3.2775 0
M  V30 1143 N 101.989 0.842826 1.3317 0
M  V30 1144 C 102.937 0.267495 2.31057 0
M  V30 1145 C 103.931 -0.602682 1.58316 0
M  V30 1146 O 105.137 -0.491803 1.73151 0
M  V30 1147 H 101.512 0.0677813 0.748939 0
M  V30 1148 H 103.483 1.10754 2.77085 0
M  V30 1149 C 102.232 -0.539331 3.43492 0
M  V30 1150 H 101.555 0.12095 3.99617 0
M  V30 1151 H 102.995 -0.90767 4.14171 0
M  V30 1152 C 101.454 -1.71981 2.89697 0
M  V30 1153 O 101.984 -2.81862 2.86211 0
M  V30 1154 N 100.19 -1.54299 2.46252 0
M  V30 1155 H 99.7369 -0.649143 2.49287 0
M  V30 1156 H 99.6949 -2.33431 2.10612 0
M  V30 1157 N 103.467 -1.45747 0.599634 0
M  V30 1158 C 104.415 -2.322 -0.136426 0
M  V30 1159 C 105.409 -1.45497 -0.867583 0
M  V30 1160 O 106.615 -1.62027 -0.78405 0
M  V30 1161 H 102.99 -0.749368 -0.0628588 0
M  V30 1162 H 104.961 -2.92072 0.611281 0
M  V30 1163 C 103.71 -3.28974 -1.12567 0
M  V30 1164 H 103.033 -3.9568 -0.572484 0
M  V30 1165 H 104.473 -3.92212 -1.61077 0
M  V30 1166 C 102.932 -2.55561 -2.19523 0
M  V30 1167 O 103.462 -2.33111 -3.27143 0
M  V30 1168 N 101.668 -2.15832 -1.94589 0
M  V30 1169 H 101.215 -2.3429 -1.07078 0
M  V30 1170 H 101.173 -1.67034 -2.66359 0
M  V30 1171 N 104.945 -0.338344 -1.53925 0
M  V30 1172 C 105.855 0.529421 -2.28548 0
M  V30 1173 C 106.871 1.11645 -1.3346 0
M  V30 1174 O 108.047 1.13325 -1.66492 0
M  V30 1175 C 105.112 1.66713 -3.03987 0
M  V30 1176 C 104.173 1.11041 -4.14691 0
M  V30 1177 C 103.406 2.19389 -4.86522 0
M  V30 1178 O 103.629 3.40013 -4.57982 0
M  V30 1179 O 102.563 1.83976 -5.73094 0
M  V30 1180 H 106.389 -0.0770399 -3.03602 0
M  V30 1181 H 103.974 -0.103555 -1.49041 0
M  V30 1182 H 105.856 2.32918 -3.5118 0
M  V30 1183 H 104.531 2.25949 -2.31794 0
M  V30 1184 H 103.438 0.413024 -3.71813 0
M  V30 1185 H 104.771 0.562975 -4.8897 0
M  V30 1186 N 106.423 1.57458 -0.0668435 0
M  V30 1187 C 107.67 1.93301 0.603406 0
M  V30 1188 C 107.998 0.946486 1.69917 0
M  V30 1189 O 107.253 -0.0387021 1.95662 0
M  V30 1190 C 107.552 3.35784 1.22409 0
M  V30 1191 C 107.218 4.50179 0.254955 0
M  V30 1192 C 105.88 4.81199 -0.0116746 0
M  V30 1193 C 108.232 5.19598 -0.408338 0
M  V30 1194 C 105.56 5.78978 -0.94877 0
M  V30 1195 C 107.912 6.18381 -1.33372 0
M  V30 1196 C 106.576 6.47821 -1.60887 0
M  V30 1197 H 105.846 0.707338 0.220802 0
M  V30 1198 H 108.493 1.91012 -0.136665 0
M  V30 1199 H 106.798 3.34515 2.03978 0
M  V30 1200 H 108.495 3.60804 1.74989 0
M  V30 1201 H 105.085 4.25983 0.472954 0
M  V30 1202 H 109.269 4.95832 -0.215456 0
M  V30 1203 H 104.525 6.00115 -1.16925 0
M  V30 1204 H 108.699 6.71277 -1.85367 0
M  V30 1205 H 106.326 7.23399 -2.33661 0
M  V30 1206 N 107.901 -0.206675 1.56239 0
M  V30 1207 C 108.834 -1.28383 1.88661 0
M  V30 1208 C 109.812 -1.44504 0.745481 0
M  V30 1209 O 110.996 -1.60079 0.995336 0
M  V30 1210 C 108.123 -2.65211 2.10667 0
M  V30 1211 C 107.169 -2.66025 3.33366 0
M  V30 1212 S 108.002 -2.18609 4.88846 0
M  V30 1213 C 109.158 -3.57283 5.13906 0
M  V30 1214 H 109.391 -1.00691 2.7973 0
M  V30 1215 H 106.924 -0.409627 1.48867 0
M  V30 1216 H 108.882 -3.43979 2.24029 0
M  V30 1217 H 107.543 -2.90121 1.20369 0
M  V30 1218 H 106.736 -3.66607 3.45855 0
M  V30 1219 H 106.338 -1.95331 3.18938 0
M  V30 1220 H 108.63 -4.53074 5.03717 0
M  V30 1221 H 109.573 -3.49699 6.15724 0
M  V30 1222 H 109.981 -3.51659 4.41583 0
M  V30 1223 N 109.379 -1.50304 -0.473955 0
M  V30 1224 C 110.289 -1.7174 -1.5982 0
M  V30 1225 C 111.305 -0.600457 -1.63311 0
M  V30 1226 O 112.481 -0.878441 -1.81233 0
M  V30 1227 C 109.546 -1.80427 -2.96052 0
M  V30 1228 C 108.607 -3.04148 -3.02972 0
M  V30 1229 C 107.84 -3.12411 -4.32706 0
M  V30 1230 O 108.063 -2.27542 -5.23049 0
M  V30 1231 O 106.997 -4.05113 -4.45159 0
M  V30 1232 H 110.823 -2.67035 -1.44657 0
M  V30 1233 H 108.408 -1.34366 -0.653148 0
M  V30 1234 H 110.29 -1.88338 -3.7697 0
M  V30 1235 H 108.965 -0.883156 -3.11419 0
M  V30 1236 H 107.872 -3.0174 -2.21142 0
M  V30 1237 H 109.205 -3.95829 -2.92541 0
M  V30 1238 N 110.857 0.726932 -1.39834 0
M  V30 1239 C 112.106 1.48214 -1.36805 0
M  V30 1240 C 112.419 1.95576 0.0305291 0
M  V30 1241 O 113.625 2.7088 0.183417 0
M  V30 1242 C 112.081 2.67854 -2.40379 0
M  V30 1243 C 111.689 2.27408 -3.85992 0
M  V30 1244 C 113.433 3.45641 -2.46439 0
M  V30 1245 C 111.34 3.43819 -4.81189 0
M  V30 1246 H 110.27 0.556606 -0.508631 0
M  V30 1247 H 112.921 0.792216 -1.65518 0
M  V30 1248 H 111.303 3.3896 -2.04749 0
M  V30 1249 H 112.477 1.63795 -4.30706 0
M  V30 1250 H 110.792 1.62692 -3.83302 0
M  V30 1251 H 113.389 4.32244 -3.14753 0
M  V30 1252 H 113.732 3.88669 -1.49139 0
M  V30 1253 H 114.265 2.8157 -2.81004 0
M  V30 1254 H 111.004 3.05834 -5.79781 0
M  V30 1255 H 110.524 4.06385 -4.41148 0
M  V30 1256 H 112.203 4.10043 -5.00474 0
M  V30 1257 N 112.336 1.25143 0.95797 0
M  V30 1258 C 113.564 1.12424 1.73691 0
M  V30 1259 C 113.979 -0.322304 1.86029 0
M  V30 1260 O 113.336 -1.22186 1.35561 0
M  V30 1261 C 113.387 1.76933 3.15241 0
M  V30 1262 O 113.108 3.15932 3.03511 0
M  V30 1263 C 114.609 1.6995 4.09429 0
M  V30 1264 H 111.829 0.3923 0.544373 0
M  V30 1265 H 114.373 1.6544 1.20207 0
M  V30 1266 H 112.528 1.27895 3.6568 0
M  V30 1267 H 112.942 3.47598 3.9278 0
M  V30 1268 H 114.416 2.19753 5.06372 0
M  V30 1269 H 114.893 0.662619 4.34173 0
M  V30 1270 H 115.499 2.18461 3.64904 0
M  V30 1271 N 113.814 -1.1601 1.06675 0
M  V30 1272 C 115.062 -1.86264 0.784229 0
M  V30 1273 C 115.383 -1.82328 -0.691488 0
M  V30 1274 O 114.653 -1.25947 -1.50047 0
M  V30 1275 H 113.233 -0.689621 0.28711 0
M  V30 1276 H 115.895 -1.40664 1.34906 0
M  V30 1277 H 114.991 -2.91595 1.11259 0
M  V30 1278 N 115.292 -0.849877 -1.32721 0
M  V30 1279 C 116.239 -0.289033 -2.28983 0
M  V30 1280 C 117.209 0.601324 -1.54833 0
M  V30 1281 O 118.394 0.537253 -1.8308 0
M  V30 1282 C 115.534 0.520623 -3.4115 0
M  V30 1283 C 114.647 -0.394989 -4.3019 0
M  V30 1284 C 113.782 0.426834 -5.29482 0
M  V30 1285 C 112.821 -0.486476 -6.10164 0
M  V30 1286 N 111.958 0.297879 -7.01468 0
M  V30 1287 H 116.798 -1.11519 -2.76347 0
M  V30 1288 H 114.335 -0.56138 -1.35967 0
M  V30 1289 H 116.293 1.00563 -4.04899 0
M  V30 1290 H 114.923 1.31165 -2.9495 0
M  V30 1291 H 113.975 -0.99836 -3.67065 0
M  V30 1292 H 115.287 -1.09612 -4.86607 0
M  V30 1293 H 114.441 0.975205 -5.98811 0
M  V30 1294 H 113.18 1.16136 -4.73671 0
M  V30 1295 H 112.185 -1.04677 -5.39743 0
M  V30 1296 H 113.41 -1.21953 -6.6806 0
M  V30 1297 H 111.356 1.01558 -6.48091 0
M  V30 1298 H 111.273 -0.344318 -7.55216 0
M  V30 1299 H 112.541 0.828131 -7.75089 0
M  V30 1300 N 116.77 1.45427 -0.607355 0
M  V30 1301 C 118.019 2.01452 -0.100036 0
M  V30 1302 C 118.332 1.48159 1.27704 0
M  V30 1303 O 119.538 1.96159 1.87707 0
M  V30 1304 C 117.994 3.59672 -0.128158 0
M  V30 1305 C 117.602 4.21962 -1.50507 0
M  V30 1306 C 119.346 4.23262 0.323932 0
M  V30 1307 C 117.253 5.72333 -1.48959 0
M  V30 1308 H 116.183 0.75325 -0.0336299 0
M  V30 1309 H 118.834 1.66901 -0.76265 0
M  V30 1310 H 117.216 3.91411 0.601105 0
M  V30 1311 H 118.39 4.01796 -2.25602 0
M  V30 1312 H 116.705 3.70565 -1.89923 0
M  V30 1313 H 119.302 5.33522 0.354691 0
M  V30 1314 H 119.645 3.93921 1.34656 0
M  V30 1315 H 120.178 3.96239 -0.352056 0
M  V30 1316 H 116.917 6.06373 -2.48981 0
M  V30 1317 H 116.437 5.94691 -0.781214 0
M  V30 1318 H 118.116 6.35525 -1.21313 0
M  V30 1319 N 118.248 0.346503 1.53744 0
M  V30 1320 C 119.18 -0.543316 2.22667 0
M  V30 1321 C 120.193 -1.06159 1.23427 0
M  V30 1322 O 121.382 -0.971235 1.49764 0
M  V30 1323 C 118.482 -1.76076 2.89569 0
M  V30 1324 C 117.655 -1.37727 4.15151 0
M  V30 1325 C 116.714 -2.45471 4.65436 0
M  V30 1326 O 115.74 -2.08655 5.29577 0
M  V30 1327 N 116.942 -3.7677 4.41616 0
M  V30 1328 H 119.707 0.0469703 2.99663 0
M  V30 1329 H 117.268 0.170766 1.60997 0
M  V30 1330 H 119.26 -2.47593 3.20125 0
M  V30 1331 H 117.83 -2.25835 2.16142 0
M  V30 1332 H 117.05 -0.492746 3.91108 0
M  V30 1333 H 118.338 -1.09708 4.96832 0
M  V30 1334 H 117.736 -4.09467 3.90325 0
M  V30 1335 H 116.293 -4.44448 4.7677 0
M  V30 1336 N 119.726 -1.57421 0.075193 0
M  V30 1337 C 120.659 -2.08528 -0.926904 0
M  V30 1338 C 121.637 -0.991171 -1.28898 0
M  V30 1339 O 122.821 -1.26479 -1.39769 0
M  V30 1340 C 119.948 -2.54576 -2.23402 0
M  V30 1341 C 118.994 -3.75454 -2.02327 0
M  V30 1342 S 119.827 -5.19989 -1.27951 0
M  V30 1343 C 120.983 -5.69372 -2.59935 0
M  V30 1344 H 121.216 -2.932 -0.492048 0
M  V30 1345 H 118.749 -1.53785 -0.137651 0
M  V30 1346 H 120.707 -2.81767 -2.98526 0
M  V30 1347 H 119.368 -1.70166 -2.64012 0
M  V30 1348 H 118.561 -4.05675 -2.99071 0
M  V30 1349 H 118.163 -3.48654 -1.35339 0
M  V30 1350 H 120.455 -5.76424 -3.56008 0
M  V30 1351 H 121.398 -6.68207 -2.34319 0
M  V30 1352 H 121.806 -4.97205 -2.67296 0
M  V30 1353 N 121.204 0.198386 -1.56346 0
M  V30 1354 C 122.167 1.22952 -1.93431 0
M  V30 1355 C 123.167 1.38611 -0.815092 0
M  V30 1356 O 124.357 1.36479 -1.08255 0
M  V30 1357 C 121.489 2.59946 -2.20546 0
M  V30 1358 H 122.682 0.912626 -2.85677 0
M  V30 1359 H 120.235 0.43977 -1.49986 0
M  V30 1360 H 120.97 2.96696 -1.30927 0
M  V30 1361 H 120.755 2.49953 -3.02102 0
M  V30 1362 H 122.245 3.3431 -2.50253 0
M  V30 1363 N 122.682 1.50554 0.465978 0
M  V30 1364 C 123.907 1.65838 1.24549 0
M  V30 1365 C 124.332 0.343486 1.84937 0
M  V30 1366 O 123.69 -0.69324 1.67523 0
M  V30 1367 C 123.738 2.75533 2.32624 0
M  V30 1368 O 122.842 2.37142 3.37398 0
M  V30 1369 H 122.183 0.553893 0.366194 0
M  V30 1370 H 124.713 1.96959 0.553927 0
M  V30 1371 H 124.723 2.98763 2.77857 0
M  V30 1372 H 123.398 3.70962 1.88043 0
M  V30 1373 H 121.975 2.24377 2.97841 0
M  V30 1374 N 124.16 -0.719506 1.40217 0
M  V30 1375 C 125.437 -1.47221 1.28784 0
M  V30 1376 C 125.817 -2.10883 -0.0956067 0
M  V30 1377 O 125.165 -1.99833 -1.10811 0
M  V30 1378 C 125.375 -2.5111 2.42373 0
M  V30 1379 C 126.723 -3.17053 2.82423 0
M  V30 1380 O 127.747 -2.61429 2.41937 0
M  V30 1381 O 126.606 -4.17742 3.52355 0
M  V30 1382 H 123.7 -0.654491 0.50554 0
M  V30 1383 H 126.246 -0.752014 1.52128 0
M  V30 1384 H 125.018 -2.02556 3.34793 0
M  V30 1385 H 124.641 -3.3067 2.20778 0
M  V30 1386 N 125.638 -1.25649 -0.95132 0
M  V30 1387 C 126.586 -1.06118 -2.06982 0
M  V30 1388 C 127.58 0.00889169 -1.69398 0
M  V30 1389 O 128.786 -0.146988 -1.79399 0
M  V30 1390 H 125.161 -0.326248 -0.677544 0
M  V30 1391 H 127.132 -2.00932 -2.2061 0
M  V30 1392 C 125.881 -0.700145 -3.40578 0
M  V30 1393 H 125.204 -1.51537 -3.69968 0
M  V30 1394 H 126.644 -0.603211 -4.19687 0
M  V30 1395 C 125.103 0.59403 -3.31622 0
M  V30 1396 O 125.633 1.63522 -3.66911 0
M  V30 1397 N 123.839 0.58089 -2.84735 0
M  V30 1398 H 123.386 -0.266783 -2.56215 0
M  V30 1399 H 123.344 1.44695 -2.79125 0
M  V30 1400 N 127.117 1.15442 -1.07289 0
M  V30 1401 C 128.345 1.90096 -0.81676 0
M  V30 1402 C 128.76 1.7798 0.629966 0
M  V30 1403 O 128.117 1.1313 1.43206 0
M  V30 1404 C 128.168 3.40466 -1.21512 0
M  V30 1405 O 127.889 3.52232 -2.60508 0
M  V30 1406 C 129.39 4.32145 -0.988198 0
M  V30 1407 H 126.61 0.602495 -0.295366 0
M  V30 1408 H 129.154 1.4627 -1.42918 0
M  V30 1409 H 127.309 3.81958 -0.647039 0
M  V30 1410 H 127.723 4.45549 -2.76742 0
M  V30 1411 H 129.197 5.36072 -1.31645 0
M  V30 1412 H 129.674 4.39135 0.0755063 0
M  V30 1413 H 130.28 3.96395 -1.54115 0
M  V30 1414 N 128.595 0.856903 1.32268 0
M  V30 1415 C 129.543 0.291987 2.3076 0
M  V30 1416 C 130.537 -0.585857 1.58947 0
M  V30 1417 O 131.743 -0.47341 1.73663 0
M  V30 1418 H 128.118 0.075721 0.748178 0
M  V30 1419 H 130.089 1.13687 2.75895 0
M  V30 1420 C 128.838 -0.502869 3.44044 0
M  V30 1421 H 128.161 0.163328 3.99466 0
M  V30 1422 H 129.601 -0.863691 4.1511 0
M  V30 1423 C 128.06 -1.68898 2.91505 0
M  V30 1424 O 128.59 -2.78811 2.89184 0
M  V30 1425 N 126.796 -1.51679 2.47875 0
M  V30 1426 H 126.343 -0.622666 2.49961 0
M  V30 1427 H 126.301 -2.31184 2.13076 0
M  V30 1428 N 130.073 -1.45103 0.615059 0
M  V30 1429 C 131.35 -1.95549 0.0448276 0
M  V30 1430 C 131.73 -1.55737 -1.4251 0
M  V30 1431 O 131.078 -0.823556 -2.13143 0
M  V30 1432 C 131.288 -3.48098 0.250785 0
M  V30 1433 C 132.636 -4.24384 0.135509 0
M  V30 1434 O 133.66 -3.55738 0.181299 0
M  V30 1435 O 132.519 -5.46493 0.0268878 0
M  V30 1436 H 129.613 -0.8264 -0.0314845 0
M  V30 1437 H 132.159 -1.55232 0.685642 0
M  V30 1438 H 130.931 -3.7007 1.27139 0
M  V30 1439 H 130.554 -3.95323 -0.424937 0
M  V30 1440 N 131.551 -0.354651 -1.53558 0
M  V30 1441 C 132.481 0.489091 -2.2832 0
M  V30 1442 C 133.462 1.09324 -1.30316 0
M  V30 1443 O 134.647 1.11255 -1.59173 0
M  V30 1444 C 131.777 1.63456 -3.0643 0
M  V30 1445 C 130.731 1.1582 -4.12031 0
M  V30 1446 C 130.057 2.39305 -4.7816 0
M  V30 1447 C 131.357 0.250731 -5.21698 0
M  V30 1448 H 133.051 -0.134614 -2.99097 0
M  V30 1449 H 130.597 -0.0661826 -1.43848 0
M  V30 1450 H 132.55 2.23136 -3.57475 0
M  V30 1451 H 131.274 2.28533 -2.33325 0
M  V30 1452 H 129.933 0.584146 -3.61916 0
M  V30 1453 H 129.581 3.02814 -4.01637 0
M  V30 1454 H 129.281 2.08109 -5.49513 0
M  V30 1455 H 130.805 2.99691 -5.31994 0
M  V30 1456 H 132.219 0.754695 -5.68311 0
M  V30 1457 H 130.616 0.0301468 -6.00092 0
M  V30 1458 H 131.686 -0.710125 -4.79672 0
M  V30 1459 N 133.029 1.57378 -0.0835403 0
M  V30 1460 C 134.278 1.93106 0.582498 0
M  V30 1461 C 134.591 0.96651 1.70053 0
M  V30 1462 O 135.797 1.21705 2.42693 0
M  V30 1463 C 134.253 3.43076 1.08751 0
M  V30 1464 C 133.861 4.48 -0.000146404 0
M  V30 1465 C 135.605 3.87785 1.72694 0
M  V30 1466 C 133.512 5.89113 0.519568 0
M  V30 1467 H 132.442 0.720775 0.221358 0
M  V30 1468 H 135.093 1.82821 -0.157675 0
M  V30 1469 H 133.475 3.48474 1.88101 0
M  V30 1470 H 134.649 4.54233 -0.775199 0
M  V30 1471 H 132.964 4.1283 -0.54406 0
M  V30 1472 H 135.561 4.90604 2.1263 0
M  V30 1473 H 135.904 3.25796 2.59158 0
M  V30 1474 H 136.437 3.8504 0.999457 0
M  V30 1475 H 133.176 6.54775 -0.308186 0
M  V30 1476 H 132.696 5.86376 1.26188 0
M  V30 1477 H 134.375 6.39346 0.992237 0
M  V30 1478 N 134.507 -0.190092 1.56449 0
M  V30 1479 C 135.439 -1.25973 1.91477 0
M  V30 1480 C 136.452 -1.41452 0.805931 0
M  V30 1481 O 137.641 -1.41789 1.08435 0
M  V30 1482 C 134.741 -2.63117 2.13594 0
M  V30 1483 C 133.914 -2.69182 3.4476 0
M  V30 1484 C 132.973 -3.87557 3.5593 0
M  V30 1485 O 131.999 -3.74427 4.28711 0
M  V30 1486 N 133.201 -5.03224 2.89388 0
M  V30 1487 H 135.966 -0.962394 2.83828 0
M  V30 1488 H 133.527 -0.379981 1.57378 0
M  V30 1489 H 135.519 -3.40742 2.1835 0
M  V30 1490 H 134.089 -2.85319 1.27719 0
M  V30 1491 H 133.309 -1.77793 3.51828 0
M  V30 1492 H 134.597 -2.70229 4.31107 0
M  V30 1493 H 133.995 -5.16791 2.30094 0
M  V30 1494 H 132.552 -5.78778 2.99764 0
M  V30 1495 N 135.985 -1.50799 -0.457987 0
M  V30 1496 C 137.21 -1.66496 -1.23668 0
M  V30 1497 C 137.635 -0.353288 -1.84752 0
M  V30 1498 O 136.993 0.684346 -1.67888 0
M  V30 1499 C 137.041 -2.76763 -2.3116 0
M  V30 1500 O 136.145 -2.38928 -3.36136 0
M  V30 1501 H 135.486 -0.555828 -0.363252 0
M  V30 1502 H 138.016 -1.9725 -0.543474 0
M  V30 1503 H 138.026 -3.00232 -2.76269 0
M  V30 1504 H 136.701 -3.71954 -1.86073 0
M  V30 1505 H 135.278 -2.25953 -2.96647 0
M  V30 1506 N 137.463 0.71206 -1.40597 0
M  V30 1507 C 138.711 1.46907 -1.38791 0
M  V30 1508 C 139.032 1.94998 0.00780391 0
M  V30 1509 O 138.302 1.70587 0.963174 0
M  V30 1510 H 136.882 0.545043 -0.51082 0
M  V30 1511 H 139.544 0.843882 -1.75683 0
M  V30 1512 H 138.64 2.34021 -2.06496 0
M  V30 1513 N 138.941 1.26152 0.944643 0
M  V30 1514 C 140.187 1.11657 1.69294 0
M  V30 1515 C 140.52 -0.339926 1.91202 0
M  V30 1516 O 139.795 -1.24994 1.49019 0
M  V30 1517 C 140.078 1.88236 3.06984 0
M  V30 1518 C 139.931 3.41772 2.92424 0
M  V30 1519 C 141.25 1.67343 4.07043 0
M  V30 1520 H 138.369 0.407004 0.614424 0
M  V30 1521 H 141.011 1.55106 1.09737 0
M  V30 1522 H 139.161 1.51308 3.57824 0
M  V30 1523 H 140.833 3.88433 2.48832 0
M  V30 1524 H 139.076 3.68974 2.28124 0
M  V30 1525 H 139.747 3.90579 3.90067 0
M  V30 1526 H 142.223 1.99509 3.65151 0
M  V30 1527 H 141.099 2.23346 5.01406 0
M  V30 1528 H 141.36 0.617158 4.37771 0
M  V30 1529 N 140.419 -1.14872 1.07899 0
M  V30 1530 C 141.367 -2.21857 0.698727 0
M  V30 1531 C 142.361 -1.66845 -0.293086 0
M  V30 1532 O 143.567 -1.79321 -0.156204 0
M  V30 1533 H 139.942 -0.722691 0.207899 0
M  V30 1534 H 141.913 -2.51205 1.61054 0
M  V30 1535 C 140.662 -3.47498 0.11858 0
M  V30 1536 H 139.985 -3.90154 0.872914 0
M  V30 1537 H 141.425 -4.23858 -0.109759 0
M  V30 1538 C 139.884 -3.16947 -1.1422 0
M  V30 1539 O 140.414 -3.3426 -2.22785 0
M  V30 1540 N 138.62 -2.70946 -1.05055 0
M  V30 1541 H 138.167 -2.57058 -0.167038 0
M  V30 1542 H 138.125 -2.50879 -1.89491 0
M  V30 1543 N 141.898 -0.863906 -1.31812 0
M  V30 1544 C 143.126 -0.486111 -2.01108 0
M  V30 1545 C 143.541 0.919755 -1.64882 0
M  V30 1546 O 142.898 1.60162 -0.874893 0
M  V30 1547 C 142.949 -0.626435 -3.56031 0
M  V30 1548 O 142.67 -1.97693 -3.90959 0
M  V30 1549 C 144.171 -0.248857 -4.42601 0
M  V30 1550 H 141.391 -0.190052 -0.643523 0
M  V30 1551 H 143.935 -1.1634 -1.68182 0
M  V30 1552 H 142.09 0.00322717 -3.874 0
M  V30 1553 H 142.504 -1.98034 -4.85678 0
M  V30 1554 H 143.978 -0.398016 -5.50563 0
M  V30 1555 H 144.455 0.811489 -4.31638 0
M  V30 1556 H 145.061 -0.853971 -4.16638 0
M  V30 1557 N 143.376 1.44774 -0.622745 0
M  V30 1558 C 144.792 1.56986 -0.287652 0
M  V30 1559 C 144.992 1.61167 1.20944 0
M  V30 1560 O 144.048 1.55015 1.99315 0
M  V30 1561 C 145.361 2.84551 -0.972188 0
M  V30 1562 C 146.909 2.9825 -0.949536 0
M  V30 1563 C 147.384 4.28605 -1.61437 0
M  V30 1564 N 148.875 4.35399 -1.58057 0
M  V30 1565 C 149.61 5.34964 -2.064 0
M  V30 1566 N 149.106 6.40981 -2.62897 0
M  V30 1567 N 150.899 5.26419 -1.97078 0
M  V30 1568 H 143.05 1.40304 -1.59463 0
M  V30 1569 H 145.313 0.671794 -0.668878 0
M  V30 1570 H 145.019 2.87417 -2.02693 0
M  V30 1571 H 144.893 3.73807 -0.504771 0
M  V30 1572 H 147.28 2.94941 0.0967067 0
M  V30 1573 H 147.361 2.10364 -1.45536 0
M  V30 1574 H 147.005 4.32672 -2.66002 0
M  V30 1575 H 146.935 5.15334 -1.08344 0
M  V30 1576 H 149.426 3.59397 -1.16801 0
M  V30 1577 H 149.739 7.13225 -2.97539 0
M  V30 1578 H 148.084 6.4169 -2.66943 0
M  V30 1579 H 151.275 4.42504 -1.52669 0
M  V30 1580 H 151.448 6.03861 -2.35066 0
M  V30 1581 N 144.854 0.36279 1.53368 0
M  V30 1582 C 145.784 -0.476976 2.28576 0
M  V30 1583 C 146.765 -1.08631 1.30894 0
M  V30 1584 O 147.95 -1.10409 1.59761 0
M  V30 1585 C 145.08 -1.61828 3.07293 0
M  V30 1586 C 144.034 -1.13633 4.1264 0
M  V30 1587 C 143.36 -2.36766 4.79423 0
M  V30 1588 C 144.66 -0.223061 5.21823 0
M  V30 1589 H 146.354 0.150474 2.99022 0
M  V30 1590 H 143.9 0.0738103 1.43811 0
M  V30 1591 H 145.853 -2.21237 3.58653 0
M  V30 1592 H 144.577 -2.27292 2.34533 0
M  V30 1593 H 143.236 -0.564945 3.62221 0
M  V30 1594 H 142.884 -3.0068 4.03238 0
M  V30 1595 H 142.584 -2.05192 5.50609 0
M  V30 1596 H 144.108 -2.96865 5.33576 0
M  V30 1597 H 145.522 -0.724545 5.68703 0
M  V30 1598 H 143.919 0.001678 6.001 0
M  V30 1599 H 144.989 0.735553 4.79289 0
M  V30 1600 N 146.332 -1.57332 0.0918853 0
M  V30 1601 C 147.262 -2.16872 -0.865371 0
M  V30 1602 C 148.243 -1.10118 -1.29646 0
M  V30 1603 O 149.428 -1.38242 -1.36392 0
M  V30 1604 C 146.558 -2.74649 -2.12569 0
M  V30 1605 C 145.512 -3.86747 -1.83333 0
M  V30 1606 C 144.838 -4.31212 -3.16166 0
M  V30 1607 C 146.138 -5.10089 -1.1228 0
M  V30 1608 H 147.832 -2.97114 -0.369307 0
M  V30 1609 H 145.378 -1.42918 -0.176194 0
M  V30 1610 H 147.331 -3.14952 -2.7997 0
M  V30 1611 H 146.055 -1.91657 -2.64452 0
M  V30 1612 H 144.714 -3.46978 -1.18331 0
M  V30 1613 H 144.362 -3.45115 -3.6593 0
M  V30 1614 H 144.062 -5.06788 -2.97388 0
M  V30 1615 H 145.586 -4.74146 -3.84731 0
M  V30 1616 H 147 -5.47582 -1.69785 0
M  V30 1617 H 145.397 -5.91073 -1.03693 0
M  V30 1618 H 146.467 -4.84786 -0.105041 0
M  V30 1619 N 147.81 0.181792 -1.56548 0
M  V30 1620 C 149.038 0.915947 -1.85521 0
M  V30 1621 C 149.453 1.76282 -0.676016 0
M  V30 1622 O 148.81 1.79012 0.355077 0
M  V30 1623 C 148.861 1.80126 -3.13427 0
M  V30 1624 O 148.582 0.988562 -4.26801 0
M  V30 1625 C 150.083 2.64597 -3.55673 0
M  V30 1626 H 147.303 0.26661 -0.61576 0
M  V30 1627 H 149.847 0.185039 -2.03661 0
M  V30 1628 H 148.002 2.48563 -2.97145 0
M  V30 1629 H 148.416 1.59308 -4.99721 0
M  V30 1630 H 149.89 3.2235 -4.48101 0
M  V30 1631 H 150.367 3.38958 -2.79292 0
M  V30 1632 H 150.973 2.0151 -3.74532 0
M  V30 1633 N 149.288 1.51039 0.449983 0
M  V30 1634 C 150.537 1.62317 1.19733 0
M  V30 1635 C 150.85 0.339101 1.92638 0
M  V30 1636 O 152.056 0.331069 2.69474 0
M  V30 1637 C 150.512 2.86608 2.17678 0
M  V30 1638 C 150.12 4.21972 1.50479 0
M  V30 1639 C 151.864 3.07239 2.92924 0
M  V30 1640 C 149.771 5.37426 2.46834 0
M  V30 1641 H 148.701 0.604532 0.450619 0
M  V30 1642 H 151.352 1.77494 0.465625 0
M  V30 1643 H 149.734 2.65037 2.94231 0
M  V30 1644 H 150.908 4.53878 0.795716 0
M  V30 1645 H 149.223 4.07117 0.874344 0
M  V30 1646 H 151.82 3.90668 3.65079 0
M  V30 1647 H 152.163 2.19807 3.5354 0
M  V30 1648 H 152.696 3.29091 2.23481 0
M  V30 1649 H 149.435 6.27079 1.90926 0
M  V30 1650 H 148.955 5.09912 3.15832 0
M  V30 1651 H 150.634 5.68862 3.08228 0
M  V30 1652 N 150.766 -0.704594 1.40972 0
M  V30 1653 C 151.698 -1.82974 1.38033 0
M  V30 1654 C 152.711 -1.60305 0.283931 0
M  V30 1655 O 153.9 -1.69975 0.545042 0
M  V30 1656 C 151 -3.19578 1.12795 0
M  V30 1657 C 150.173 -3.69352 2.34302 0
M  V30 1658 C 149.232 -4.84601 2.05058 0
M  V30 1659 O 148.258 -4.96682 2.7802 0
M  V30 1660 N 149.46 -5.71194 1.03528 0
M  V30 1661 H 152.225 -1.85991 2.35005 0
M  V30 1662 H 149.786 -0.886567 1.35468 0
M  V30 1663 H 151.778 -3.9429 0.911987 0
M  V30 1664 H 150.348 -3.11642 0.24452 0
M  V30 1665 H 149.568 -2.85649 2.71659 0
M  V30 1666 H 150.856 -3.99345 3.1528 0
M  V30 1667 H 150.254 -5.64054 0.431217 0
M  V30 1668 H 148.811 -6.45843 0.879205 0
M  V30 1669 N 152.244 -1.26651 -0.937939 0
M  V30 1670 C 153.469 -1.15279 -1.72411 0
M  V30 1671 C 153.894 0.287866 -1.85884 0
M  V30 1672 O 153.252 1.20855 -1.35143 0
M  V30 1673 C 153.3 -1.83028 -3.10698 0
M  V30 1674 O 152.404 -1.12128 -3.96864 0
M  V30 1675 H 151.745 -0.401504 -0.528858 0
M  V30 1676 H 154.275 -1.67531 -1.1745 0
M  V30 1677 H 154.285 -1.89981 -3.6107 0
M  V30 1678 H 152.96 -2.87833 -3.00208 0
M  V30 1679 H 151.537 -1.13173 -3.55312 0
M  V30 1680 N 153.722 1.14298 -1.08507 0
M  V30 1681 C 154.672 2.17449 -0.685569 0
M  V30 1682 C 155.656 1.58167 0.295315 0
M  V30 1683 O 156.848 1.76675 0.107172 0
M  V30 1684 C 153.977 3.43161 -0.0975318 0
M  V30 1685 C 153.063 4.09471 -1.10426 0
M  V30 1686 N 153.454 4.51089 -2.28806 0
M  V30 1687 C 151.752 4.35976 -0.940258 0
M  V30 1688 C 152.453 5.02654 -2.9277 0
M  V30 1689 N 151.429 4.96927 -2.20374 0
M  V30 1690 H 155.231 2.47369 -1.587 0
M  V30 1691 H 152.745 1.30992 -0.959936 0
M  V30 1692 H 154.742 4.16388 0.20664 0
M  V30 1693 H 153.402 3.14719 0.798872 0
M  V30 1694 H 154.413 4.44097 -2.66455 0
M  V30 1695 H 151.09 4.17386 -0.0977441 0
M  V30 1696 H 152.48 5.44723 -3.93352 0
M  V30 1697 N 155.201 0.870884 1.31352 0
M  V30 1698 C 156.447 0.482987 1.96965 0
M  V30 1699 C 156.78 -0.962462 1.68672 0
M  V30 1700 O 156.055 -1.6779 0.98371 0
M  V30 1701 C 156.338 0.741752 3.52378 0
M  V30 1702 C 156.191 2.2368 3.9024 0
M  V30 1703 C 157.51 0.208838 4.39604 0
M  V30 1704 H 154.629 0.176955 0.715441 0
M  V30 1705 H 157.271 1.09229 1.55464 0
M  V30 1706 H 155.421 0.223149 3.87859 0
M  V30 1707 H 157.093 2.82273 3.64856 0
M  V30 1708 H 155.336 2.70901 3.38814 0
M  V30 1709 H 156.007 2.3685 4.98604 0
M  V30 1710 H 158.483 0.652529 4.10952 0
M  V30 1711 H 157.359 0.419336 5.47296 0
M  V30 1712 H 157.62 -0.889275 4.33064 0
M  V30 1713 N 156.679 -1.44442 0.630414 0
M  V30 1714 C 157.611 -2.2892 -0.113347 0
M  V30 1715 C 158.624 -1.41243 -0.80959 0
M  V30 1716 O 159.813 -1.65402 -0.671156 0
M  V30 1717 C 156.913 -3.17594 -1.18266 0
M  V30 1718 C 156.086 -4.33682 -0.569073 0
M  V30 1719 C 155.145 -5.03397 -1.53226 0
M  V30 1720 O 154.171 -5.59438 -1.04967 0
M  V30 1721 N 155.373 -5.04783 -2.86661 0
M  V30 1722 H 158.138 -2.93392 0.611636 0
M  V30 1723 H 155.699 -1.54881 0.471523 0
M  V30 1724 H 157.691 -3.61097 -1.82732 0
M  V30 1725 H 156.261 -2.54876 -1.80988 0
M  V30 1726 H 155.481 -3.9338 0.254187 0
M  V30 1727 H 156.769 -5.08608 -0.139767 0
M  V30 1728 H 156.167 -4.60584 -3.28449 0
M  V30 1729 H 154.724 -5.52077 -3.46489 0
M  V30 1730 N 158.157 -0.370918 -1.53173 0
M  V30 1731 C 159.105 0.488101 -2.27421 0
M  V30 1732 C 160.099 1.07884 -1.30604 0
M  V30 1733 O 161.305 1.02143 -1.48212 0
M  V30 1734 H 157.68 0.176134 -0.731082 0
M  V30 1735 H 159.651 -0.159815 -2.97972 0
M  V30 1736 C 158.4 1.61306 -3.08019 0
M  V30 1737 H 157.723 1.1678 -3.82364 0
M  V30 1738 H 159.163 2.18872 -3.63141 0
M  V30 1739 C 157.622 2.55848 -2.19188 0
M  V30 1740 O 158.152 3.58799 -1.80626 0
M  V30 1741 N 156.358 2.2516 -1.83715 0
M  V30 1742 H 155.905 1.41476 -2.15273 0
M  V30 1743 H 155.863 2.8867 -1.24567 0
M  V30 1744 N 159.635 1.57281 -0.100228 0
M  V30 1745 C 160.865 1.98591 0.569681 0
M  V30 1746 C 161.273 0.978315 1.61943 0
M  V30 1747 O 160.616 -0.0396108 1.83657 0
M  V30 1748 C 160.678 3.36282 1.271 0
M  V30 1749 C 160.342 4.55488 0.371409 0
M  V30 1750 C 161.339 5.18491 -0.382504 0
M  V30 1751 C 159.024 5.01474 0.287965 0
M  V30 1752 C 161.018 6.25852 -1.20779 0
M  V30 1753 C 158.705 6.08701 -0.540965 0
M  V30 1754 C 159.703 6.70755 -1.28749 0
M  V30 1755 O 159.391 7.75914 -2.10269 0
M  V30 1756 H 159.123 0.65752 0.156982 0
M  V30 1757 H 161.677 2.0463 -0.177734 0
M  V30 1758 H 159.907 3.26941 2.0651 0
M  V30 1759 H 161.596 3.62005 1.83595 0
M  V30 1760 H 162.362 4.83891 -0.3278 0
M  V30 1761 H 158.241 4.52932 0.858689 0
M  V30 1762 H 161.785 6.74218 -1.79096 0
M  V30 1763 H 157.682 6.42732 -0.597131 0
M  V30 1764 H 158.45 7.92925 -2.03007 0
M  V30 1765 N 161.113 -0.173488 1.56642 0
M  V30 1766 C 162.362 -0.888758 1.81063 0
M  V30 1767 C 162.675 -1.83506 0.67712 0
M  V30 1768 O 163.881 -2.59254 0.806206 0
M  V30 1769 C 162.337 -1.63091 3.20826 0
M  V30 1770 C 161.945 -0.728357 4.4204 0
M  V30 1771 C 163.689 -2.33454 3.54541 0
M  V30 1772 C 161.596 -1.47062 5.72823 0
M  V30 1773 H 160.526 -0.335618 0.675186 0
M  V30 1774 H 163.177 -0.141712 1.82952 0
M  V30 1775 H 161.559 -2.42263 3.13248 0
M  V30 1776 H 162.733 0.0262449 4.60793 0
M  V30 1777 H 161.048 -0.134492 4.16183 0
M  V30 1778 H 163.645 -2.89578 4.49498 0
M  V30 1779 H 163.988 -3.08687 2.79317 0
M  V30 1780 H 164.521 -1.61227 3.63663 0
M  V30 1781 H 161.26 -0.760658 6.51072 0
M  V30 1782 H 160.78 -2.1986 5.58052 0
M  V30 1783 H 162.459 -2.01868 6.14702 0
M  V30 1784 N 162.591 -1.51276 -0.441967 0
M  V30 1785 C 164.002 -1.56244 -1.02199 0
M  V30 1786 C 164.353 -0.383149 -1.92422 0
M  V30 1787 O 163.478 0.500613 -2.1053 0
M  V30 1788 C 164.073 -2.83162 -1.86024 0
M  V30 1789 C 162.632 -2.90716 -2.39084 0
M  V30 1790 C 161.779 -2.50858 -1.18175 0
M  V30 1791 H 164.73 -1.5712 -0.223416 0
M  V30 1792 H 164.751 -2.66663 -2.71425 0
M  V30 1793 H 164.263 -3.68974 -1.20331 0
M  V30 1794 H 162.364 -2.09323 -3.08244 0
M  V30 1795 H 162.477 -3.94266 -2.72198 0
M  V30 1796 H 160.841 -2.03951 -1.52565 0
M  V30 1797 H 161.624 -3.3901 -0.541001 0
M  V30 1798 N 164.069 0.697108 -1.41344 0
M  V30 1799 C 165.318 1.45279 -1.39918 0
M  V30 1800 C 165.631 1.95597 -0.0109624 0
M  V30 1801 O 166.837 2.71208 0.125919 0
M  V30 1802 C 165.293 2.62695 -2.46007 0
M  V30 1803 C 164.901 2.19169 -3.90729 0
M  V30 1804 C 166.645 3.40336 -2.53715 0
M  V30 1805 C 164.552 3.33535 -4.88373 0
M  V30 1806 H 163.482 0.545692 -0.520323 0
M  V30 1807 H 166.133 0.756929 -1.67161 0
M  V30 1808 H 164.515 3.34541 -2.11892 0
M  V30 1809 H 165.689 1.54623 -4.34083 0
M  V30 1810 H 164.004 1.54525 -3.86666 0
M  V30 1811 H 166.601 4.2547 -3.2385 0
M  V30 1812 H 166.944 3.85418 -1.5735 0
M  V30 1813 H 167.477 2.75546 -2.86913 0
M  V30 1814 H 164.216 2.93468 -5.86137 0
M  V30 1815 H 163.736 3.96936 -4.49668 0
M  V30 1816 H 165.415 3.99335 -5.09059 0
M  V30 1817 N 165.547 1.27147 0.931209 0
M  V30 1818 C 166.772 1.16191 1.71797 0
M  V30 1819 C 167.197 -0.278004 1.86034 0
M  V30 1820 O 166.555 -1.20137 1.35782 0
M  V30 1821 C 166.603 1.84673 3.09723 0
M  V30 1822 O 165.707 1.14231 3.96264 0
M  V30 1823 H 165.048 0.404303 0.526721 0
M  V30 1824 H 167.578 1.68152 1.1656 0
M  V30 1825 H 167.588 1.91893 3.60057 0
M  V30 1826 H 166.263 2.89421 2.98677 0
M  V30 1827 H 164.84 1.15056 3.54706 0
M  V30 1828 N 167.025 -1.13721 1.09112 0
M  V30 1829 C 167.955 -2.21148 0.749385 0
M  V30 1830 C 168.936 -1.6792 -0.271475 0
M  V30 1831 O 170.121 -1.93693 -0.140251 0
M  V30 1832 C 167.251 -3.46905 0.165659 0
M  V30 1833 C 166.205 -4.13203 1.11567 0
M  V30 1834 C 165.531 -5.33248 0.393809 0
M  V30 1835 C 166.831 -4.60912 2.45678 0
M  V30 1836 H 168.525 -2.4999 1.64758 0
M  V30 1837 H 166.071 -1.20156 0.793626 0
M  V30 1838 H 168.024 -4.21313 -0.085466 0
M  V30 1839 H 166.748 -3.17449 -0.767714 0
M  V30 1840 H 165.407 -3.40758 1.35202 0
M  V30 1841 H 165.055 -5.00054 -0.543599 0
M  V30 1842 H 164.755 -5.78552 1.02721 0
M  V30 1843 H 166.279 -6.10413 0.150908 0
M  V30 1844 H 167.693 -5.26759 2.26269 0
M  V30 1845 H 166.09 -5.16944 3.04776 0
M  V30 1846 H 167.16 -3.75603 3.06677 0
M  V30 1847 N 168.503 -0.877838 -1.30888 0
M  V30 1848 C 169.731 -0.507414 -2.00581 0
M  V30 1849 C 170.146 0.902216 -1.65848 0
M  V30 1850 O 169.503 1.59225 -0.891831 0
M  V30 1851 C 169.554 -0.664162 -3.55347 0
M  V30 1852 O 169.275 -2.01829 -3.8884 0
M  V30 1853 C 170.776 -0.295787 -4.42312 0
M  V30 1854 H 167.996 -0.196866 -0.641471 0
M  V30 1855 H 170.54 -1.18117 -1.66939 0
M  V30 1856 H 168.695 -0.0378619 -3.87381 0
M  V30 1857 H 169.109 -2.03174 -4.8355 0
M  V30 1858 H 170.583 -0.456388 -5.5011 0
M  V30 1859 H 171.06 0.765663 -4.32475 0
M  V30 1860 H 171.666 -0.898113 -4.15709 0
M  V30 1861 N 169.982 1.44106 -0.638065 0
M  V30 1862 C 170.914 2.28976 0.101205 0
M  V30 1863 C 171.927 1.4167 0.802088 0
M  V30 1864 O 173.116 1.65755 0.662375 0
M  V30 1865 C 170.216 3.18217 1.16581 0
M  V30 1866 C 169.389 4.33978 0.546066 0
M  V30 1867 C 168.448 5.04202 1.50554 0
M  V30 1868 O 167.474 5.59986 1.01999 0
M  V30 1869 N 168.676 5.06296 2.8398 0
M  V30 1870 H 171.441 2.93064 -0.627186 0
M  V30 1871 H 169.002 1.54629 -0.479731 0
M  V30 1872 H 170.994 3.62061 1.80815 0
M  V30 1873 H 169.564 2.55833 1.79634 0
M  V30 1874 H 168.784 3.93239 -0.275046 0
M  V30 1875 H 170.072 5.08675 0.112793 0
M  V30 1876 H 169.47 4.62319 3.26002 0
M  V30 1877 H 168.027 5.53907 3.43556 0
M  V30 1878 N 171.46 0.379036 1.52974 0
M  V30 1879 C 172.392 -0.495963 2.2377 0
M  V30 1880 C 173.405 -1.03517 1.25651 0
M  V30 1881 O 174.594 -0.939249 1.51791 0
M  V30 1882 C 171.694 -1.69894 2.93239 0
M  V30 1883 C 170.867 -1.2889 4.17979 0
M  V30 1884 C 169.926 -2.35543 4.70538 0
M  V30 1885 O 168.952 -1.97375 5.33883 0
M  V30 1886 N 170.154 -3.67318 4.49508 0
M  V30 1887 H 172.919 0.110523 2.99496 0
M  V30 1888 H 170.48 0.204878 1.60598 0
M  V30 1889 H 172.472 -2.40747 3.25304 0
M  V30 1890 H 171.042 -2.212 2.20883 0
M  V30 1891 H 170.262 -0.409676 3.92065 0
M  V30 1892 H 171.55 -0.991443 4.99047 0
M  V30 1893 H 170.948 -4.01095 3.98923 0
M  V30 1894 H 169.505 -4.34235 4.8609 0
M  V30 1895 N 172.938 -1.57226 0.108567 0
M  V30 1896 C 173.871 -2.10447 -0.882464 0
M  V30 1897 C 174.849 -1.01829 -1.26766 0
M  V30 1898 O 176.033 -1.29415 -1.37054 0
M  V30 1899 C 173.16 -2.59258 -2.17952 0
M  V30 1900 C 172.206 -3.79662 -1.94318 0
M  V30 1901 S 173.039 -5.22586 -1.16892 0
M  V30 1902 C 174.195 -5.74758 -2.47799 0
M  V30 1903 H 174.428 -2.94178 -0.429745 0
M  V30 1904 H 171.961 -1.54043 -0.105 0
M  V30 1905 H 173.919 -2.88036 -2.92482 0
M  V30 1906 H 172.58 -1.75728 -2.60343 0
M  V30 1907 H 171.773 -4.11928 -2.90399 0
M  V30 1908 H 171.375 -3.51446 -1.27913 0
M  V30 1909 H 173.667 -5.83846 -3.43701 0
M  V30 1910 H 174.61 -6.73027 -2.20093 0
M  V30 1911 H 175.018 -5.02763 -2.56689 0
M  V30 1912 N 174.416 0.165178 -1.56732 0
M  V30 1913 C 175.641 0.900253 -1.86843 0
M  V30 1914 C 176.066 1.74766 -0.695596 0
M  V30 1915 O 175.424 1.77786 0.35522 0
M  V30 1916 C 175.472 1.74777 -3.15413 0
M  V30 1917 O 174.576 2.85007 -2.98068 0
M  V30 1918 H 173.917 0.251832 -0.614391 0
M  V30 1919 H 176.447 0.161468 -2.03962 0
M  V30 1920 H 176.457 2.14646 -3.46974 0
M  V30 1921 H 175.132 1.12537 -4.00385 0
M  V30 1922 H 173.709 2.48676 -2.77875 0
M  V30 1923 N 175.894 1.51508 0.433938 0
M  V30 1924 C 177.171 1.54888 1.19453 0
M  V30 1925 C 177.551 0.315154 2.08734 0
M  V30 1926 O 176.899 -0.699558 2.17528 0
M  V30 1927 C 177.109 2.86467 1.99342 0
M  V30 1928 C 178.457 3.38545 2.56267 0
M  V30 1929 O 179.481 2.88041 2.0955 0
M  V30 1930 O 178.34 4.26675 3.41483 0
M  V30 1931 H 175.434 0.622863 0.544032 0
M  V30 1932 H 177.98 1.63823 0.442732 0
M  V30 1933 H 176.752 3.67718 1.33788 0
M  V30 1934 H 176.375 2.8071 2.8158 0
M  V30 1935 N 177.372 -0.689602 1.41712 0
M  V30 1936 C 178.302 -1.81577 1.46806 0
M  V30 1937 C 179.283 -1.66945 0.326105 0
M  V30 1938 O 180.468 -1.86588 0.538377 0
M  V30 1939 C 177.598 -3.19762 1.35535 0
M  V30 1940 C 176.552 -3.49107 2.47605 0
M  V30 1941 C 175.878 -4.86711 2.21397 0
M  V30 1942 C 177.178 -3.47483 3.89939 0
M  V30 1943 H 178.872 -1.7757 2.41058 0
M  V30 1944 H 176.418 -0.852887 1.16025 0
M  V30 1945 H 178.371 -3.98263 1.3771 0
M  V30 1946 H 177.095 -3.24409 0.377708 0
M  V30 1947 H 175.754 -2.72959 2.44722 0
M  V30 1948 H 175.402 -4.8799 1.21961 0
M  V30 1949 H 175.102 -5.0731 2.96497 0
M  V30 1950 H 176.626 -5.67515 2.25297 0
M  V30 1951 H 178.04 -4.1598 3.94505 0
M  V30 1952 H 176.437 -3.79615 4.64771 0
M  V30 1953 H 177.507 -2.46341 4.17665 0
M  V30 1954 N 178.85 -1.27639 -0.924453 0
M  V30 1955 C 180.266 -1.05113 -1.20097 0
M  V30 1956 C 180.466 0.213262 -2.00368 0
M  V30 1957 O 179.522 0.91787 -2.35226 0
M  V30 1958 C 180.835 -2.29244 -1.94596 0
M  V30 1959 C 182.383 -2.34315 -2.07522 0
M  V30 1960 C 182.858 -3.58183 -2.85427 0
M  V30 1961 N 184.349 -3.5876 -2.92994 0
M  V30 1962 C 185.084 -4.51277 -3.53746 0
M  V30 1963 N 184.58 -5.54102 -4.15863 0
M  V30 1964 N 186.373 -4.38894 -3.51181 0
M  V30 1965 H 178.524 -2.08821 -0.388264 0
M  V30 1966 H 180.787 -0.918568 -0.234385 0
M  V30 1967 H 180.493 -3.21301 -1.43034 0
M  V30 1968 H 180.367 -2.34816 -2.95197 0
M  V30 1969 H 182.754 -1.42762 -2.58269 0
M  V30 1970 H 182.835 -2.32744 -1.06131 0
M  V30 1971 H 182.479 -4.50074 -2.35363 0
M  V30 1972 H 182.409 -3.57006 -3.8711 0
M  V30 1973 H 184.9 -2.84398 -2.4885 0
M  V30 1974 H 185.213 -6.20859 -4.60168 0
M  V30 1975 H 183.558 -5.57941 -4.144 0
M  V30 1976 H 186.749 -3.57772 -3.01856 0
M  V30 1977 H 186.922 -5.11186 -3.98237 0
M  V30 1978 N 180.328 1.1314 -1.09713 0
M  V30 1979 C 181.275 2.18642 -0.739196 0
M  V30 1980 C 182.245 1.63706 0.280978 0
M  V30 1981 O 183.43 1.90111 0.161946 0
M  V30 1982 C 180.57 3.44685 -0.169102 0
M  V30 1983 C 179.683 4.13711 -1.24367 0
M  V30 1984 C 178.818 5.27379 -0.636019 0
M  V30 1985 C 177.857 5.88259 -1.69169 0
M  V30 1986 N 176.994 6.93352 -1.10485 0
M  V30 1987 H 181.834 2.48607 -1.64312 0
M  V30 1988 H 179.371 1.22066 -0.820875 0
M  V30 1989 H 181.329 4.16815 0.179256 0
M  V30 1990 H 179.959 3.15161 0.698079 0
M  V30 1991 H 179.011 3.39835 -1.70927 0
M  V30 1992 H 180.323 4.55037 -2.04311 0
M  V30 1993 H 179.477 6.06238 -0.236677 0
M  V30 1994 H 178.216 4.8731 0.194928 0
M  V30 1995 H 177.221 5.08092 -2.10055 0
M  V30 1996 H 178.446 6.30399 -2.52536 0
M  V30 1997 H 176.392 6.55335 -0.295234 0
M  V30 1998 H 176.309 7.33236 -1.84121 0
M  V30 1999 H 177.577 7.76057 -0.73181 0
M  V30 2000 N 181.806 0.884767 1.30421 0
M  V30 2001 C 183.053 0.503105 1.96151 0
M  V30 2002 C 183.381 -0.947676 1.69851 0
M  V30 2003 O 182.636 -1.68467 0.995861 0
M  V30 2004 C 182.935 0.724318 3.49983 0
M  V30 2005 C 182.601 2.15015 3.96332 0
M  V30 2006 C 181.263 2.54005 4.08699 0
M  V30 2007 C 183.615 3.07936 4.20505 0
M  V30 2008 C 180.943 3.85128 4.42599 0
M  V30 2009 C 183.295 4.3859 4.55874 0
M  V30 2010 C 181.959 4.77474 4.66449 0
M  V30 2011 H 181.229 0.184099 0.717766 0
M  V30 2012 H 183.876 1.12058 1.55291 0
M  V30 2013 H 182.181 0.0238086 3.91793 0
M  V30 2014 H 183.878 0.408617 3.98913 0
M  V30 2015 H 180.468 1.8375 3.87213 0
M  V30 2016 H 184.652 2.79033 4.10431 0
M  V30 2017 H 179.908 4.14996 4.48986 0
M  V30 2018 H 184.082 5.10629 4.7353 0
M  V30 2019 H 181.709 5.79115 4.92473 0
M  V30 2020 N 183.284 -1.43765 0.645699 0
M  V30 2021 C 184.533 -2.01116 0.153412 0
M  V30 2022 C 184.846 -1.51493 -1.23731 0
M  V30 2023 O 186.052 -2.01067 -1.8244 0
M  V30 2024 C 184.508 -3.59206 0.223473 0
M  V30 2025 C 184.116 -4.17823 1.61642 0
M  V30 2026 C 185.86 -4.23972 -0.211597 0
M  V30 2027 C 183.767 -5.68183 1.64081 0
M  V30 2028 H 182.697 -0.752093 0.0535891 0
M  V30 2029 H 185.348 -1.6482 0.806633 0
M  V30 2030 H 183.73 -3.92867 -0.497118 0
M  V30 2031 H 184.904 -3.95674 2.36176 0
M  V30 2032 H 183.219 -3.65399 1.99681 0
M  V30 2033 H 185.816 -5.34275 -0.213112 0
M  V30 2034 H 186.159 -3.97352 -1.24165 0
M  V30 2035 H 186.692 -3.95166 0.456988 0
M  V30 2036 H 183.431 -5.99559 2.64971 0
M  V30 2037 H 182.951 -5.9241 0.938611 0
M  V30 2038 H 184.63 -6.32085 1.3812 0
M  V30 2039 N 184.763 -0.387143 -1.52771 0
M  V30 2040 C 185.988 0.198407 -2.06449 0
M  V30 2041 C 186.413 1.39918 -1.25716 0
M  V30 2042 O 185.771 1.79099 -0.281657 0
M  V30 2043 C 185.819 0.548893 -3.56398 0
M  V30 2044 O 184.923 1.64315 -3.78252 0
M  V30 2045 H 184.264 0.0237731 -0.663574 0
M  V30 2046 H 186.794 -0.553989 -1.96957 0
M  V30 2047 H 186.804 0.813812 -3.99801 0
M  V30 2048 H 185.479 -0.329005 -4.14597 0
M  V30 2049 H 184.056 1.37211 -3.46738 0
M  V30 2050 N 186.241 1.57166 -0.116904 0
M  V30 2051 C 187.151 2.18745 0.847812 0
M  V30 2052 C 188.167 1.163 1.29423 0
M  V30 2053 O 189.343 1.48761 1.35765 0
M  V30 2054 C 186.408 2.77307 2.0809 0
M  V30 2055 C 185.469 3.94781 1.68661 0
M  V30 2056 C 184.702 4.50541 2.86091 0
M  V30 2057 O 184.925 4.05202 4.01456 0
M  V30 2058 O 183.859 5.41256 2.63298 0
M  V30 2059 H 187.685 3.01632 0.353778 0
M  V30 2060 H 185.27 1.49005 0.108599 0
M  V30 2061 H 187.152 3.14647 2.80313 0
M  V30 2062 H 185.827 1.97452 2.56504 0
M  V30 2063 H 184.734 3.62214 0.935518 0
M  V30 2064 H 186.067 4.76065 1.24991 0
M  V30 2065 N 187.719 -0.156864 1.56817 0
M  V30 2066 C 188.968 -0.869504 1.81996 0
M  V30 2067 C 189.281 -1.82777 0.696545 0
M  V30 2068 O 190.487 -2.58384 0.833658 0
M  V30 2069 C 188.943 -1.59679 3.22538 0
M  V30 2070 C 188.551 -0.681431 4.42787 0
M  V30 2071 C 190.295 -2.2968 3.56997 0
M  V30 2072 C 188.202 -1.40978 5.74351 0
M  V30 2073 H 187.132 -0.328438 0.678708 0
M  V30 2074 H 189.783 -0.1223 1.83092 0
M  V30 2075 H 188.165 -2.38927 3.158 0
M  V30 2076 H 189.339 0.0751166 4.60739 0
M  V30 2077 H 187.654 -0.0903431 4.16302 0
M  V30 2078 H 190.251 -2.84794 4.52544 0
M  V30 2079 H 190.594 -3.05707 2.82576 0
M  V30 2080 H 191.127 -1.57361 3.65352 0
M  V30 2081 H 187.866 -0.691561 6.51842 0
M  V30 2082 H 187.386 -2.13929 5.60352 0
M  V30 2083 H 189.065 -1.95337 6.16808 0
M  V30 2084 N 189.197 -1.51736 -0.425897 0
M  V30 2085 C 190.425 -1.68794 -1.1965 0
M  V30 2086 C 190.84 -0.390164 -1.84725 0
M  V30 2087 O 190.197 0.632376 -1.71194 0
M  V30 2088 C 190.248 -2.81174 -2.27208 0
M  V30 2089 O 189.969 -4.05925 -1.64793 0
M  V30 2090 C 191.47 -3.09599 -3.17275 0
M  V30 2091 H 188.69 -0.566128 -0.360194 0
M  V30 2092 H 191.234 -1.98211 -0.503249 0
M  V30 2093 H 189.389 -2.54324 -2.9223 0
M  V30 2094 H 189.803 -4.68423 -2.35967 0
M  V30 2095 H 191.277 -3.91786 -3.88854 0
M  V30 2096 H 191.754 -2.22468 -3.78688 0
M  V30 2097 H 192.36 -3.38151 -2.57941 0
M  V30 2098 N 190.675 0.682077 -1.42076 0
M  V30 2099 C 191.924 1.43786 -1.41451 0
M  V30 2100 C 192.237 1.95574 -0.0317074 0
M  V30 2101 O 193.443 2.71326 0.0971462 0
M  V30 2102 C 191.899 2.60071 -2.48779 0
M  V30 2103 C 191.507 2.15013 -3.93031 0
M  V30 2104 C 193.251 3.37626 -2.57311 0
M  V30 2105 C 191.158 3.28336 -4.91883 0
M  V30 2106 H 190.088 0.540143 -0.526082 0
M  V30 2107 H 192.739 0.739157 -1.67955 0
M  V30 2108 H 191.121 3.32275 -2.15429 0
M  V30 2109 H 192.295 1.5001 -4.35699 0
M  V30 2110 H 190.61 1.50416 -3.88284 0
M  V30 2111 H 193.207 4.22012 -3.28345 0
M  V30 2112 H 193.55 3.83727 -1.61429 0
M  V30 2113 H 194.083 2.72488 -2.89819 0
M  V30 2114 H 190.822 2.87234 -5.89217 0
M  V30 2115 H 190.342 3.92145 -4.53853 0
M  V30 2116 H 192.021 3.93913 -5.13265 0
M  V30 2117 N 192.153 1.28127 0.917671 0
M  V30 2118 C 193.569 1.05749 1.19538 0
M  V30 2119 C 193.769 -0.202633 2.00479 0
M  V30 2120 O 192.825 -0.905382 2.3571 0
M  V30 2121 C 194.138 2.30273 1.93378 0
M  V30 2122 C 195.686 2.35412 2.06277 0
M  V30 2123 C 196.161 3.59692 2.83524 0
M  V30 2124 N 197.652 3.60309 2.91087 0
M  V30 2125 C 198.387 4.53147 3.51348 0
M  V30 2126 N 197.883 5.563 4.12919 0
M  V30 2127 N 199.676 4.40751 3.48849 0
M  V30 2128 H 191.827 2.09024 0.377184 0
M  V30 2129 H 194.09 0.919798 0.22951 0
M  V30 2130 H 193.796 3.22055 1.41328 0
M  V30 2131 H 193.67 2.36378 2.93947 0
M  V30 2132 H 196.057 1.4413 2.57508 0
M  V30 2133 H 196.138 2.33304 1.04895 0
M  V30 2134 H 195.782 4.51316 2.32973 0
M  V30 2135 H 195.712 3.59054 3.85211 0
M  V30 2136 H 198.203 2.85714 2.47338 0
M  V30 2137 H 198.516 6.2329 4.56869 0
M  V30 2138 H 196.861 5.60131 4.11435 0
M  V30 2139 H 200.052 3.59367 2.99955 0
M  V30 2140 H 200.225 5.13291 3.9552 0
M  V30 2141 N 193.631 -1.12557 1.10312 0
M  V30 2142 C 194.579 -2.20325 0.745629 0
M  V30 2143 C 195.573 -1.67429 -0.25763 0
M  V30 2144 O 196.779 -1.79612 -0.118132 0
M  V30 2145 H 193.154 -0.718118 0.223182 0
M  V30 2146 H 195.125 -2.47733 1.66346 0
M  V30 2147 C 193.874 -3.47168 0.192262 0
M  V30 2148 H 193.197 -3.88215 0.955475 0
M  V30 2149 H 194.637 -4.23995 -0.0198274 0
M  V30 2150 C 193.096 -3.19298 -1.07472 0
M  V30 2151 O 193.626 -3.3891 -2.15645 0
M  V30 2152 N 191.832 -2.73113 -0.992847 0
M  V30 2153 H 191.379 -2.57354 -0.112474 0
M  V30 2154 H 191.337 -2.54842 -1.84127 0
M  V30 2155 N 195.109 -0.891671 -1.2995 0
M  V30 2156 C 196.386 -0.433307 -1.9074 0
M  V30 2157 C 196.766 1.08646 -1.80995 0
M  V30 2158 O 196.114 1.92476 -1.23147 0
M  V30 2159 C 196.324 -0.938895 -3.36134 0
M  V30 2160 C 197.672 -0.977829 -4.13187 0
M  V30 2161 O 198.696 -0.886015 -3.45005 0
M  V30 2162 O 197.555 -1.11453 -5.35015 0
M  V30 2163 H 194.649 -0.133699 -0.816121 0
M  V30 2164 H 197.195 -0.981011 -1.38471 0
M  V30 2165 H 195.967 -1.98281 -3.37343 0
M  V30 2166 H 195.59 -0.37074 -3.95868 0
M  V30 2167 N 196.587 1.43421 -0.653314 0
M  V30 2168 C 197.535 2.32546 0.0501531 0
M  V30 2169 C 198.529 1.48617 0.812985 0
M  V30 2170 O 199.735 1.64825 0.723375 0
M  V30 2171 H 196.11 0.751185 0.0350032 0
M  V30 2172 H 198.081 2.89602 -0.719261 0
M  V30 2173 C 196.83 3.32925 1.00279 0
M  V30 2174 H 196.153 3.97532 0.425236 0
M  V30 2175 H 197.593 3.9792 1.46409 0
M  V30 2176 C 196.052 2.63532 2.09886 0
M  V30 2177 O 196.582 2.45092 3.18265 0
M  V30 2178 N 194.788 2.22905 1.86445 0
M  V30 2179 H 194.335 2.38103 0.98309 0
M  V30 2180 H 194.293 1.76805 2.59976 0
M  V30 2181 N 198.065 0.39524 1.52563 0
M  V30 2182 C 198.997 -0.472201 2.24283 0
M  V30 2183 C 200.01 -1.02178 1.26742 0
M  V30 2184 O 201.199 -0.923097 1.52778 0
M  V30 2185 C 198.299 -1.66775 2.95024 0
M  V30 2186 C 197.472 -1.2445 4.19322 0
M  V30 2187 C 196.531 -2.30539 4.7301 0
M  V30 2188 O 195.557 -1.91702 5.35947 0
M  V30 2189 N 196.759 -3.6253 4.53379 0
M  V30 2190 H 199.524 0.142282 2.99362 0
M  V30 2191 H 197.085 0.2219 1.60372 0
M  V30 2192 H 199.077 -2.37283 3.27839 0
M  V30 2193 H 197.647 -2.18845 2.23217 0
M  V30 2194 H 196.867 -0.368069 3.92478 0
M  V30 2195 H 198.155 -0.938457 5.0007 0
M  V30 2196 H 197.553 -3.96841 4.03154 0
M  V30 2197 H 196.11 -4.29055 4.90668 0
M  V30 2198 N 199.544 -1.57102 0.125237 0
M  V30 2199 C 200.454 -2.19191 -0.8362 0
M  V30 2200 C 201.47 -1.16985 -1.28805 0
M  V30 2201 O 202.646 -1.49479 -1.34974 0
M  V30 2202 C 199.711 -2.78407 -2.06617 0
M  V30 2203 C 198.772 -3.9567 -1.66565 0
M  V30 2204 C 198.005 -4.52052 -2.83698 0
M  V30 2205 O 198.228 -4.07326 -3.99302 0
M  V30 2206 O 197.162 -5.42645 -2.60423 0
M  V30 2207 H 200.988 -3.01816 -0.337776 0
M  V30 2208 H 198.573 -1.4906 -0.100695 0
M  V30 2209 H 200.455 -3.16129 -2.7864 0
M  V30 2210 H 199.13 -1.9881 -2.55453 0
M  V30 2211 H 198.037 -3.62705 -0.916296 0
M  V30 2212 H 199.37 -4.76722 -1.22464 0
M  V30 2213 N 201.022 0.148545 -1.56898 0
M  V30 2214 C 202.268 0.862694 -1.83536 0
M  V30 2215 C 202.601 1.80889 -0.706604 0
M  V30 2216 O 201.876 1.92328 0.289885 0
M  V30 2217 C 202.159 1.63853 -3.20662 0
M  V30 2218 C 202.012 0.713925 -4.44098 0
M  V30 2219 C 203.331 2.60133 -3.54991 0
M  V30 2220 H 200.45 0.312179 -0.667618 0
M  V30 2221 H 203.092 0.127953 -1.89569 0
M  V30 2222 H 201.242 2.26489 -3.1565 0
M  V30 2223 H 202.914 0.098686 -4.61194 0
M  V30 2224 H 201.157 0.0234019 -4.33794 0
M  V30 2225 H 201.828 1.29278 -5.36648 0
M  V30 2226 H 204.304 2.07616 -3.60603 0
M  V30 2227 H 203.18 3.11468 -4.51972 0
M  V30 2228 H 203.441 3.41417 -2.80868 0
M  V30 2229 N 202.5 1.5196 0.417844 0
M  V30 2230 C 203.43 1.77634 1.51554 0
M  V30 2231 C 204.411 0.626918 1.58126 0
M  V30 2232 O 205.596 0.871632 1.7354 0
M  V30 2233 C 202.726 1.91911 2.8946 0
M  V30 2234 C 201.68 3.07463 2.97743 0
M  V30 2235 C 201.006 3.06951 4.37819 0
M  V30 2236 C 202.306 4.47082 2.70027 0
M  V30 2237 H 204 2.6955 1.3032 0
M  V30 2238 H 201.546 1.29706 0.625492 0
M  V30 2239 H 203.499 2.08455 3.6623 0
M  V30 2240 H 202.223 0.966598 3.11969 0
M  V30 2241 H 200.882 2.90656 2.23416 0
M  V30 2242 H 200.53 2.09438 4.57323 0
M  V30 2243 H 200.23 3.84556 4.44286 0
M  V30 2244 H 201.754 3.25613 5.16535 0
M  V30 2245 H 203.168 4.6414 3.36522 0
M  V30 2246 H 201.565 5.2654 2.87881 0
M  V30 2247 H 202.635 4.55777 1.65514 0
M  V30 2248 N 203.978 -0.674533 1.42435 0
M  V30 2249 C 205.389 -1.25514 1.38214 0
M  V30 2250 C 205.74 -1.96055 0.0755464 0
M  V30 2251 O 204.865 -2.00028 -0.8257 0
M  V30 2252 C 205.46 -2.28269 2.50357 0
M  V30 2253 C 204.019 -2.81856 2.49467 0
M  V30 2254 C 203.166 -1.56182 2.29134 0
M  V30 2255 H 206.117 -0.467902 1.51646 0
M  V30 2256 H 206.138 -3.10009 2.20624 0
M  V30 2257 H 205.65 -1.769 3.45439 0
M  V30 2258 H 203.751 -3.37346 1.58204 0
M  V30 2259 H 203.864 -3.30854 3.46515 0
M  V30 2260 H 202.228 -1.82761 1.774 0
M  V30 2261 H 203.011 -1.06778 3.26272 0
M  V30 2262 N 205.456 -1.28612 -0.910864 0
M  V30 2263 C 206.388 -1.08589 -2.01844 0
M  V30 2264 C 207.401 -0.0367419 -1.62759 0
M  V30 2265 O 208.59 -0.280101 -1.76289 0
M  V30 2266 C 205.69 -0.628626 -3.33019 0
M  V30 2267 C 204.863 -1.75382 -4.00699 0
M  V30 2268 C 203.922 -1.28945 -5.10156 0
M  V30 2269 O 202.948 -1.9922 -5.33198 0
M  V30 2270 N 204.15 -0.154224 -5.80295 0
M  V30 2271 H 206.915 -2.03973 -2.19579 0
M  V30 2272 H 204.476 -1.20403 -1.08234 0
M  V30 2273 H 206.468 -0.301508 -4.03575 0
M  V30 2274 H 205.038 0.232451 -3.11735 0
M  V30 2275 H 204.258 -2.25039 -3.23653 0
M  V30 2276 H 205.546 -2.50854 -4.42662 0
M  V30 2277 H 204.944 0.43194 -5.64049 0
M  V30 2278 H 203.501 0.113599 -6.51701 0
M  V30 2279 N 206.934 1.1197 -1.10907 0
M  V30 2280 C 208.35 1.35591 -0.841852 0
M  V30 2281 C 208.55 1.94233 0.536246 0
M  V30 2282 O 207.606 2.1717 1.28816 0
M  V30 2283 C 208.919 2.29284 -1.94549 0
M  V30 2284 C 210.467 2.42862 -1.97451 0
M  V30 2285 C 210.942 3.39873 -3.07002 0
M  V30 2286 N 212.433 3.47433 -3.06341 0
M  V30 2287 C 213.168 4.22421 -3.87748 0
M  V30 2288 N 212.664 5.00432 -4.79103 0
M  V30 2289 N 214.457 4.17876 -3.75946 0
M  V30 2290 H 206.608 0.722664 -1.99728 0
M  V30 2291 H 208.871 0.380635 -0.868229 0
M  V30 2292 H 208.577 1.93378 -2.93765 0
M  V30 2293 H 208.451 3.29452 -1.83688 0
M  V30 2294 H 210.838 2.78046 -0.988645 0
M  V30 2295 H 210.919 1.42566 -2.12388 0
M  V30 2296 H 210.563 3.05417 -4.05811 0
M  V30 2297 H 210.493 4.40011 -2.89306 0
M  V30 2298 H 212.984 2.91784 -2.40147 0
M  V30 2299 H 213.297 5.55002 -5.37766 0
M  V30 2300 H 211.642 4.99612 -4.83128 0
M  V30 2301 H 214.833 3.56016 -3.03924 0
M  V30 2302 H 215.006 4.76061 -4.39624 0
M  V30 2303 N 208.412 0.89855 1.29475 0
M  V30 2304 C 209.661 0.519863 1.94885 0
M  V30 2305 C 209.974 -0.9383 1.71625 0
M  V30 2306 O 211.18 -1.42445 2.31131 0
M  V30 2307 C 209.636 0.878836 3.49005 0
M  V30 2308 C 209.244 2.35569 3.81066 0
M  V30 2309 C 210.988 0.570004 4.20656 0
M  V30 2310 C 208.895 2.65558 5.28425 0
M  V30 2311 H 207.825 0.190692 0.729488 0
M  V30 2312 H 210.476 1.09539 1.47219 0
M  V30 2313 H 208.858 0.232253 3.95318 0
M  V30 2314 H 210.032 3.04773 3.45616 0
M  V30 2315 H 208.347 2.63343 3.22552 0
M  V30 2316 H 210.944 0.770925 5.29113 0
M  V30 2317 H 211.287 -0.491404 4.1339 0
M  V30 2318 H 211.82 1.17438 3.8007 0
M  V30 2319 H 208.559 3.70493 5.40754 0
M  V30 2320 H 208.079 2.00977 5.65127 0
M  V30 2321 H 209.758 2.51765 5.96006 0
M  V30 2322 N 209.89 -1.43072 0.660911 0
M  V30 2323 C 211.118 -2.06067 0.185422 0
M  V30 2324 C 211.533 -1.49582 -1.15198 0
M  V30 2325 O 210.89 -0.630134 -1.71276 0
M  V30 2326 C 210.941 -3.61371 0.0966523 0
M  V30 2327 O 210.662 -4.15758 1.38119 0
M  V30 2328 C 212.163 -4.41455 -0.403996 0
M  V30 2329 H 209.383 -0.664459 0.0934604 0
M  V30 2330 H 211.927 -1.83447 0.90373 0
M  V30 2331 H 210.082 -3.8315 -0.572259 0
M  V30 2332 H 210.496 -5.09499 1.24542 0
M  V30 2333 H 211.97 -5.50437 -0.415045 0
M  V30 2334 H 212.447 -4.15036 -1.43674 0
M  V30 2335 H 213.053 -4.24663 0.232691 0
M  V30 2336 N 211.368 -0.403325 -1.52352 0
M  V30 2337 C 212.318 0.442244 -2.2367 0
M  V30 2338 C 213.302 1.01823 -1.24583 0
M  V30 2339 O 214.494 0.942005 -1.49851 0
M  V30 2340 C 211.623 1.5615 -3.05732 0
M  V30 2341 C 210.709 0.996575 -4.12225 0
M  V30 2342 N 211.1 0.157804 -5.05554 0
M  V30 2343 C 209.398 1.26767 -4.27605 0
M  V30 2344 C 210.099 -0.155853 -5.81491 0
M  V30 2345 N 209.075 0.451775 -5.41719 0
M  V30 2346 H 212.877 -0.204964 -2.93184 0
M  V30 2347 H 210.391 -0.213418 -1.60992 0
M  V30 2348 H 212.388 2.17981 -3.55373 0
M  V30 2349 H 211.048 2.21139 -2.37755 0
M  V30 2350 H 212.059 -0.206049 -5.1749 0
M  V30 2351 H 208.736 1.91757 -3.70858 0
M  V30 2352 H 210.126 -0.836329 -6.66675 0
M  V30 2353 N 212.846 1.57033 -0.133567 0
M  V30 2354 C 214.123 1.87256 0.56522 0
M  V30 2355 C 214.503 1.03726 1.83859 0
M  V30 2356 O 213.851 0.120247 2.28183 0
M  V30 2357 C 214.061 3.3865 0.843636 0
M  V30 2358 C 215.409 4.07574 1.19032 0
M  V30 2359 O 216.433 3.43752 0.933429 0
M  V30 2360 O 215.292 5.20259 1.67312 0
M  V30 2361 H 212.386 0.775678 0.286796 0
M  V30 2362 H 214.932 1.68855 -0.169168 0
M  V30 2363 H 213.704 3.91257 -0.0581149 0
M  V30 2364 H 213.327 3.62532 1.63268 0
M  V30 2365 N 214.325 -0.140222 1.56975 0
M  V30 2366 C 215.571 -0.852949 1.83991 0
M  V30 2367 C 215.904 -1.80512 0.716187 0
M  V30 2368 O 215.179 -1.92479 -0.279681 0
M  V30 2369 C 215.462 -1.6215 3.21527 0
M  V30 2370 C 215.315 -0.690363 4.4447 0
M  V30 2371 C 216.634 -2.58247 3.56366 0
M  V30 2372 H 213.753 -0.308634 0.669264 0
M  V30 2373 H 216.395 -0.117898 1.89634 0
M  V30 2374 H 214.545 -2.24812 3.16847 0
M  V30 2375 H 216.217 -0.0742264 4.6124 0
M  V30 2376 H 214.46 -0.000396433 4.338 0
M  V30 2377 H 215.131 -1.2643 5.37326 0
M  V30 2378 H 217.607 -2.05701 3.61699 0
M  V30 2379 H 216.483 -3.09067 4.53617 0
M  V30 2380 H 216.744 -3.39923 2.82674 0
M  V30 2381 N 215.803 -1.52179 -0.40978 0
M  V30 2382 C 217.051 -1.65878 -1.15451 0
M  V30 2383 C 217.372 -0.390771 -1.91044 0
M  V30 2384 O 216.642 0.594323 -1.86667 0
M  V30 2385 H 215.222 -0.611405 -0.429177 0
M  V30 2386 H 217.884 -1.89219 -0.467134 0
M  V30 2387 H 216.98 -2.49954 -1.86894 0
M  V30 2388 N 217.281 0.66697 -1.42791 0
M  V30 2389 C 218.53 1.42278 -1.42968 0
M  V30 2390 C 218.843 1.9553 -0.0524489 0
M  V30 2391 O 220.049 2.71414 0.068363 0
M  V30 2392 C 218.505 2.57418 -2.51524 0
M  V30 2393 C 218.113 2.10832 -3.9529 0
M  V30 2394 C 219.857 3.34878 -2.60877 0
M  V30 2395 C 217.764 3.23101 -4.95338 0
M  V30 2396 H 216.694 0.534533 -0.531781 0
M  V30 2397 H 219.345 0.721302 -1.68729 0
M  V30 2398 H 217.727 3.29971 -2.18941 0
M  V30 2399 H 218.901 1.4538 -4.37266 0
M  V30 2400 H 217.216 1.46289 -3.89857 0
M  V30 2401 H 219.813 4.18505 -3.32802 0
M  V30 2402 H 220.156 3.81993 -1.6549 0
M  V30 2403 H 220.689 2.69398 -2.92693 0
M  V30 2404 H 217.428 2.80969 -5.9223 0
M  V30 2405 H 216.948 3.87309 -4.57987 0
M  V30 2406 H 218.627 3.88447 -5.17415 0
M  V30 2407 N 218.759 1.29093 0.90403 0
M  V30 2408 C 219.706 1.13853 2.00764 0
M  V30 2409 C 220.676 0.0330084 1.66067 0
M  V30 2410 O 221.861 0.199733 1.89752 0
M  V30 2411 C 219.001 0.816537 3.35301 0
M  V30 2412 C 218.114 2.00206 3.82807 0
M  V30 2413 C 217.249 1.61983 5.059 0
M  V30 2414 C 216.288 2.77143 5.45764 0
M  V30 2415 N 215.425 2.39346 6.60044 0
M  V30 2416 H 220.265 2.08276 2.13132 0
M  V30 2417 H 217.802 1.03648 1.04381 0
M  V30 2418 H 219.76 0.610557 4.12708 0
M  V30 2419 H 218.39 -0.090779 3.22672 0
M  V30 2420 H 217.442 2.31988 3.01473 0
M  V30 2421 H 218.754 2.86512 4.08304 0
M  V30 2422 H 217.908 1.37649 5.90879 0
M  V30 2423 H 216.647 0.728202 4.82233 0
M  V30 2424 H 215.652 3.02165 4.59322 0
M  V30 2425 H 216.877 3.66964 5.71414 0
M  V30 2426 H 214.823 1.52665 6.37989 0
M  V30 2427 H 214.74 3.19185 6.85315 0
M  V30 2428 H 216.008 2.1832 7.48303 0
M  V30 2429 N 220.237 -1.11381 1.11499 0
M  V30 2430 C 221.648 -1.6465 0.880191 0
M  V30 2431 C 221.999 -1.87199 -0.587434 0
M  V30 2432 O 221.124 -1.60667 -1.44966 0
M  V30 2433 C 221.719 -2.99105 1.59128 0
M  V30 2434 C 220.278 -3.49279 1.40289 0
M  V30 2435 C 219.425 -2.24077 1.63354 0
M  V30 2436 H 222.376 -0.950123 1.27116 0
M  V30 2437 H 222.397 -3.66107 1.03664 0
M  V30 2438 H 221.909 -2.82661 2.65941 0
M  V30 2439 H 220.01 -3.70887 0.356888 0
M  V30 2440 H 220.123 -4.2803 2.15238 0
M  V30 2441 H 218.487 -2.31733 1.05698 0
M  V30 2442 H 219.27 -2.10175 2.71443 0
M  V30 2443 N 221.715 -0.905404 -1.28997 0
M  V30 2444 C 222.645 -0.404212 -2.29975 0
M  V30 2445 C 223.626 0.523784 -1.61835 0
M  V30 2446 O 224.811 0.433298 -1.89304 0
M  V30 2447 C 221.941 0.364042 -3.45387 0
M  V30 2448 C 220.895 -0.474048 -4.25367 0
M  V30 2449 C 220.221 0.422045 -5.33032 0
M  V30 2450 C 221.521 -1.72696 -4.92923 0
M  V30 2451 H 223.215 -1.24807 -2.72146 0
M  V30 2452 H 220.761 -0.601585 -1.30832 0
M  V30 2453 H 222.714 0.725447 -4.15109 0
M  V30 2454 H 221.438 1.24174 -3.02074 0
M  V30 2455 H 220.097 -0.81786 -3.57361 0
M  V30 2456 H 219.745 1.29804 -4.85963 0
M  V30 2457 H 219.445 -0.135057 -5.87445 0
M  V30 2458 H 220.969 0.779517 -6.05604 0
M  V30 2459 H 222.383 -1.43495 -5.55051 0
M  V30 2460 H 220.78 -2.22582 -5.57295 0
M  V30 2461 H 221.85 -2.45964 -4.17887 0
M  V30 2462 N 223.193 1.4272 -0.668489 0
M  V30 2463 C 224.141 2.32586 0.0254857 0
M  V30 2464 C 225.135 1.49471 0.797176 0
M  V30 2465 O 226.341 1.65583 0.705853 0
M  V30 2466 H 222.716 0.751514 0.0270339 0
M  V30 2467 H 224.687 2.88823 -0.749936 0
M  V30 2468 C 223.436 3.3397 0.967427 0
M  V30 2469 H 222.759 3.97961 0.383048 0
M  V30 2470 H 224.199 3.9945 1.42181 0
M  V30 2471 C 222.658 2.65744 2.0708 0
M  V30 2472 O 223.188 2.48454 3.15648 0
M  V30 2473 N 221.394 2.2487 1.8407 0
M  V30 2474 H 220.941 2.39132 0.95778 0
M  V30 2475 H 220.899 1.79552 2.58086 0
M  V30 2476 N 224.671 0.411399 1.52136 0
M  V30 2477 C 226.082 -0.0576826 1.86611 0
M  V30 2478 C 226.433 -1.44238 1.33003 0
M  V30 2479 O 225.558 -2.05759 0.670228 0
M  V30 2480 C 226.153 -0.111448 3.38617 0
M  V30 2481 C 224.712 -0.52487 3.72723 0
M  V30 2482 C 223.859 0.299176 2.75681 0
M  V30 2483 H 226.81 0.628368 1.4573 0
M  V30 2484 H 226.831 -0.926252 3.69054 0
M  V30 2485 H 226.343 0.896488 3.77604 0
M  V30 2486 H 224.444 -1.53936 3.39315 0
M  V30 2487 H 224.557 -0.267681 4.78352 0
M  V30 2488 H 222.921 -0.238814 2.53578 0
M  V30 2489 H 223.704 1.3055 3.17508 0
M  V30 2490 N 226.149 -1.5696 0.141893 0
M  V30 2491 C 227.426 -1.87553 -0.555281 0
M  V30 2492 C 227.806 -1.04699 -1.83306 0
M  V30 2493 O 227.154 -0.132346 -2.28116 0
M  V30 2494 C 227.364 -3.39093 -0.825664 0
M  V30 2495 C 228.712 -4.08199 -1.16869 0
M  V30 2496 O 229.736 -3.44242 -0.915185 0
M  V30 2497 O 228.595 -5.21139 -1.6455 0
M  V30 2498 H 225.689 -0.777188 -0.282679 0
M  V30 2499 H 228.235 -1.68763 0.17812 0
M  V30 2500 H 227.007 -3.91221 0.0788633 0
M  V30 2501 H 226.63 -3.63393 -1.61343 0
M  V30 2502 N 227.627 0.131896 -1.57047 0
M  V30 2503 C 228.904 0.871495 -1.75112 0
M  V30 2504 C 229.284 1.9866 -0.713949 0
M  V30 2505 O 228.632 2.26965 0.264447 0
M  V30 2506 C 228.842 1.40007 -3.19686 0
M  V30 2507 C 230.19 1.85752 -3.81813 0
M  V30 2508 O 231.214 1.49715 -3.23209 0
M  V30 2509 O 230.073 2.5226 -4.84796 0
M  V30 2510 H 227.167 0.412919 -0.716538 0
M  V30 2511 H 229.713 0.116641 -1.69299 0
M  V30 2512 H 228.485 0.599404 -3.86682 0
M  V30 2513 H 228.108 2.218 -3.29986 0
M  V30 2514 N 229.106 1.52395 0.401703 0
M  V30 2515 C 230.353 1.66817 1.14796 0
M  V30 2516 C 230.681 0.401772 1.90305 0
M  V30 2517 O 229.936 -0.615487 1.85769 0
M  V30 2518 C 230.235 2.84578 2.16217 0
M  V30 2519 C 229.901 4.22513 1.5746 0
M  V30 2520 C 228.563 4.60029 1.41161 0
M  V30 2521 C 230.915 5.0844 1.14622 0
M  V30 2522 C 228.243 5.81144 0.80552 0
M  V30 2523 C 230.595 6.30167 0.55428 0
M  V30 2524 C 229.259 6.66426 0.378482 0
M  V30 2525 H 228.529 0.610428 0.420069 0
M  V30 2526 H 231.176 1.86512 0.434212 0
M  V30 2527 H 229.481 2.59248 2.93764 0
M  V30 2528 H 231.178 2.92933 2.73845 0
M  V30 2529 H 227.768 3.92953 1.71132 0
M  V30 2530 H 231.952 4.80034 1.26021 0
M  V30 2531 H 227.208 6.07855 0.657399 0
M  V30 2532 H 231.382 6.96071 0.213983 0
M  V30 2533 H 229.009 7.60143 -0.0932606 0
M  V30 2534 N 230.584 -0.659388 1.43143 0
M  V30 2535 C 231.83 -1.41984 1.45644 0
M  V30 2536 C 232.185 -1.92245 0.0771718 0
M  V30 2537 O 231.478 -1.68976 -0.903205 0
M  V30 2538 C 231.672 -2.62206 2.42864 0
M  V30 2539 C 231.501 -2.23711 3.90107 0
M  V30 2540 C 230.271 -2.12332 4.58523 0
M  V30 2541 C 232.469 -1.84384 4.80112 0
M  V30 2542 N 230.451 -1.67102 5.9072 0
M  V30 2543 C 231.822 -1.5019 6.01534 0
M  V30 2544 C 233.877 -1.71512 4.67427 0
M  V30 2545 C 232.58 -1.04414 7.11681 0
M  V30 2546 C 234.606 -1.27142 5.77572 0
M  V30 2547 C 233.968 -0.938808 6.98116 0
M  V30 2548 H 230.067 -0.515448 0.588079 0
M  V30 2549 H 232.651 -0.759409 1.79279 0
M  V30 2550 H 230.822 -3.25917 2.11265 0
M  V30 2551 H 232.554 -3.28877 2.35843 0
M  V30 2552 H 229.309 -2.31893 4.12944 0
M  V30 2553 H 229.733 -1.46866 6.60878 0
M  V30 2554 H 234.375 -1.95868 3.74694 0
M  V30 2555 H 232.093 -0.788061 8.04248 0
M  V30 2556 H 235.679 -1.17681 5.69774 0
M  V30 2557 H 234.559 -0.6007 7.81896 0
M  V30 2558 N 232.062 -1.29571 -0.897171 0
M  V30 2559 C 233.478 -1.07637 -1.17841 0
M  V30 2560 C 233.678 0.170713 -2.00776 0
M  V30 2561 O 232.734 0.867768 -2.3712 0
M  V30 2562 C 234.047 -2.3332 -1.8969 0
M  V30 2563 C 235.595 -2.38664 -2.02505 0
M  V30 2564 C 236.07 -3.64157 -2.77765 0
M  V30 2565 N 237.561 -3.64894 -2.85318 0
M  V30 2566 C 238.296 -4.58679 -3.44094 0
M  V30 2567 N 237.792 -5.62799 -4.04017 0
M  V30 2568 N 239.585 -4.46245 -3.41793 0
M  V30 2569 H 231.736 -2.09598 -0.343883 0
M  V30 2570 H 233.999 -0.923333 -0.214848 0
M  V30 2571 H 233.705 -3.24262 -1.36187 0
M  V30 2572 H 233.579 -2.41025 -2.9015 0
M  V30 2573 H 235.966 -1.48208 -2.55183 0
M  V30 2574 H 236.047 -2.34943 -1.01171 0
M  V30 2575 H 235.691 -4.54965 -2.25763 0
M  V30 2576 H 235.621 -3.65137 -3.7945 0
M  V30 2577 H 238.112 -2.89613 -2.42761 0
M  V30 2578 H 238.425 -6.3048 -4.46895 0
M  V30 2579 H 236.77 -5.66605 -4.02472 0
M  V30 2580 H 239.961 -3.64094 -2.94199 0
M  V30 2581 H 240.134 -5.19518 -3.87304 0
M  V30 2582 N 233.54 1.10788 -1.12088 0
M  V30 2583 C 234.78 1.84297 -0.883974 0
M  V30 2584 C 235.144 1.83036 0.579797 0
M  V30 2585 O 236.345 2.52061 0.933734 0
M  V30 2586 C 234.616 3.27173 -1.43849 0
M  V30 2587 S 236.175 4.17853 -1.33957 0
M  V30 2588 H 232.993 0.635433 -0.318977 0
M  V30 2589 H 235.595 1.33341 -1.4297 0
M  V30 2590 H 234.299 3.25658 -2.49749 0
M  V30 2591 H 233.83 3.83198 -0.890096 0
M  V30 2592 H 235.845 4.95239 -0.308603 0
M  V30 2593 N 235.018 0.912232 1.28515 0
M  V30 2594 C 236.246 0.560416 1.99166 0
M  V30 2595 C 236.661 -0.857927 1.68182 0
M  V30 2596 O 236.018 -1.56805 0.933733 0
M  V30 2597 C 236.069 0.758142 3.53461 0
M  V30 2598 O 235.79 2.12067 3.83352 0
M  V30 2599 C 237.291 0.412954 4.41372 0
M  V30 2600 H 234.511 0.213805 0.636026 0
M  V30 2601 H 237.055 1.22502 1.63749 0
M  V30 2602 H 235.21 0.140556 3.87145 0
M  V30 2603 H 235.624 2.15923 4.77993 0
M  V30 2604 H 237.098 0.60208 5.48707 0
M  V30 2605 H 237.575 -0.65073 4.34353 0
M  V30 2606 H 238.181 1.00802 4.13182 0
M  V30 2607 N 236.496 -1.42363 0.676048 0
M  V30 2608 C 237.721 -2.06377 0.205705 0
M  V30 2609 C 238.146 -1.50463 -1.12883 0
M  V30 2610 O 237.504 -0.623619 -1.70237 0
M  V30 2611 C 237.552 -3.60277 0.152655 0
M  V30 2612 O 236.656 -4.02935 -0.87845 0
M  V30 2613 H 235.997 -0.655588 0.105359 0
M  V30 2614 H 238.527 -1.82475 0.925412 0
M  V30 2615 H 238.537 -4.07993 -0.0230675 0
M  V30 2616 H 237.212 -4.00346 1.12675 0
M  V30 2617 H 235.789 -3.66764 -0.673668 0
M  V30 2618 N 237.974 -0.419461 -1.51915 0
M  V30 2619 C 239.222 0.152637 -2.01523 0
M  V30 2620 C 239.543 1.44762 -1.30649 0
M  V30 2621 O 238.813 1.90997 -0.435535 0
M  V30 2622 H 237.393 0.0593966 -0.744635 0
M  V30 2623 H 240.055 -0.558073 -1.86739 0
M  V30 2624 H 239.151 0.341369 -3.10227 0
M  V30 2625 N 239.452 1.56882 -0.150215 0
M  V30 2626 C 240.382 2.19935 0.784284 0
M  V30 2627 C 241.363 1.14854 1.25469 0
M  V30 2628 O 242.548 1.43209 1.31168 0
M  V30 2629 C 239.678 2.82349 2.02229 0
M  V30 2630 C 238.632 3.93285 1.68853 0
M  V30 2631 C 237.958 4.42649 2.99944 0
M  V30 2632 C 239.258 5.13904 0.932714 0
M  V30 2633 H 240.952 2.9828 0.258781 0
M  V30 2634 H 238.498 1.43473 0.123029 0
M  V30 2635 H 240.451 3.25126 2.68088 0
M  V30 2636 H 239.175 2.0134 2.57157 0
M  V30 2637 H 237.834 3.5113 1.05371 0
M  V30 2638 H 237.482 3.58458 3.52869 0
M  V30 2639 H 237.182 5.17476 2.78374 0
M  V30 2640 H 238.706 4.88099 3.66868 0
M  V30 2641 H 240.12 5.53506 1.49345 0
M  V30 2642 H 238.517 5.94515 0.81684 0
M  V30 2643 H 239.587 4.84842 -0.0749568 0
M  V30 2644 N 240.93 -0.123565 1.57115 0
M  V30 2645 C 242.341 -0.681198 1.73829 0
M  V30 2646 C 242.692 -1.80535 0.768214 0
M  V30 2647 O 241.817 -2.16317 -0.0599103 0
M  V30 2648 C 242.412 -1.24246 3.15196 0
M  V30 2649 C 240.971 -1.74643 3.33432 0
M  V30 2650 C 240.118 -0.644284 2.69711 0
M  V30 2651 H 243.069 0.102315 1.5837 0
M  V30 2652 H 243.09 -2.11216 3.16493 0
M  V30 2653 H 242.602 -0.424062 3.85776 0
M  V30 2654 H 240.703 -2.58974 2.67886 0
M  V30 2655 H 240.816 -1.85902 4.41562 0
M  V30 2656 H 239.18 -1.07676 2.3082 0
M  V30 2657 H 239.963 0.163058 3.42913 0
M  V30 2658 N 242.408 -1.52605 -0.393616 0
M  V30 2659 C 243.633 -1.71592 -1.16495 0
M  V30 2660 C 244.058 -0.43133 -1.83088 0
M  V30 2661 O 243.416 0.612523 -1.7064 0
M  V30 2662 C 243.464 -2.86318 -2.19213 0
M  V30 2663 O 242.568 -2.52969 -3.257 0
M  V30 2664 H 241.909 -0.570734 -0.33935 0
M  V30 2665 H 244.439 -1.99377 -0.459324 0
M  V30 2666 H 244.449 -3.1168 -2.63286 0
M  V30 2667 H 243.124 -3.79511 -1.7013 0
M  V30 2668 H 241.701 -2.38332 -2.86797 0
M  V30 2669 N 243.887 0.651787 -1.4349 0
M  V30 2670 C 244.817 1.77621 -1.51569 0
M  V30 2671 C 245.798 1.66022 -0.370253 0
M  V30 2672 O 246.983 1.85095 -0.587658 0
M  V30 2673 C 244.113 3.16056 -1.43966 0
M  V30 2674 C 243.067 3.4242 -2.56774 0
M  V30 2675 C 242.393 4.8067 -2.34223 0
M  V30 2676 C 243.693 3.37023 -3.99015 0
M  V30 2677 H 245.387 1.71117 -2.45681 0
M  V30 2678 H 242.933 0.821825 -1.18246 0
M  V30 2679 H 244.886 3.94472 -1.48221 0
M  V30 2680 H 243.61 3.23293 -0.463586 0
M  V30 2681 H 242.269 2.66375 -2.51873 0
M  V30 2682 H 241.917 4.84585 -1.34856 0
M  V30 2683 H 241.617 4.9927 -3.09844 0
M  V30 2684 H 243.141 5.61342 -2.40265 0
M  V30 2685 H 244.555 4.05374 -4.05395 0
M  V30 2686 H 242.952 3.67159 -4.74673 0
M  V30 2687 H 244.022 2.3518 -4.2405 0
M  V30 2688 N 245.365 1.30045 0.890287 0
M  V30 2689 C 246.298 1.10301 1.99772 0
M  V30 2690 C 247.276 0.0121631 1.62595 0
M  V30 2691 O 248.46 0.16469 1.87779 0
M  V30 2692 C 245.587 0.681125 3.31781 0
M  V30 2693 C 244.633 1.77206 3.87944 0
M  V30 2694 S 245.466 3.37335 4.15891 0
M  V30 2695 C 246.622 2.97036 5.50927 0
M  V30 2696 H 246.855 2.04057 2.16213 0
M  V30 2697 H 244.388 1.14299 1.03804 0
M  V30 2698 H 246.346 0.444439 4.08087 0
M  V30 2699 H 245.007 -0.236981 3.13205 0
M  V30 2700 H 244.2 1.42903 4.83316 0
M  V30 2701 H 243.802 1.96275 3.18358 0
M  V30 2702 H 246.094 2.44666 6.31779 0
M  V30 2703 H 247.037 3.91296 5.90164 0
M  V30 2704 H 247.445 2.35057 5.13233 0
M  V30 2705 N 246.843 -1.10192 1.12674 0
M  V30 2706 C 247.79 -2.16606 0.796906 0
M  V30 2707 C 248.76 -1.64394 -0.237476 0
M  V30 2708 O 249.945 -1.90474 -0.111484 0
M  V30 2709 C 247.085 -3.44116 0.26043 0
M  V30 2710 C 246.198 -4.10268 1.35293 0
M  V30 2711 C 245.333 -5.25507 0.775621 0
M  V30 2712 C 244.372 -5.83567 1.84706 0
M  V30 2713 N 243.509 -6.90179 1.28829 0
M  V30 2714 H 248.349 -2.44163 1.70846 0
M  V30 2715 H 245.886 -1.19846 0.85295 0
M  V30 2716 H 247.844 -4.17143 -0.0686814 0
M  V30 2717 H 246.474 -3.16901 -0.614274 0
M  V30 2718 H 245.526 -3.35184 1.79877 0
M  V30 2719 H 246.838 -4.4946 2.16303 0
M  V30 2720 H 245.992 -6.05398 0.397327 0
M  V30 2721 H 244.731 -4.87656 -0.0656581 0
M  V30 2722 H 243.736 -5.02344 2.23452 0
M  V30 2723 H 244.961 -6.23482 2.69161 0
M  V30 2724 H 242.907 -6.54322 0.468881 0
M  V30 2725 H 242.824 -7.28097 2.03497 0
M  V30 2726 H 244.092 -7.73844 0.937311 0
M  V30 2727 N 248.321 -0.919034 -1.28029 0
M  V30 2728 C 249.549 -0.570971 -1.98866 0
M  V30 2729 C 249.964 0.848996 -1.68634 0
M  V30 2730 O 249.321 1.56307 -0.942036 0
M  V30 2731 C 249.372 -0.776876 -3.53054 0
M  V30 2732 O 249.093 -2.14097 -3.82222 0
M  V30 2733 C 250.594 -0.436356 -4.41147 0
M  V30 2734 H 247.814 -0.217175 -0.634883 0
M  V30 2735 H 250.358 -1.23368 -1.63097 0
M  V30 2736 H 248.513 -0.161085 -3.87065 0
M  V30 2737 H 248.927 -2.18455 -4.76841 0
M  V30 2738 H 250.401 -0.63117 -5.4838 0
M  V30 2739 H 250.878 0.627686 -4.34692 0
M  V30 2740 H 251.484 -1.02991 -4.12641 0
M  V30 2741 N 249.799 1.42003 -0.683588 0
M  V30 2742 C 251.21 1.84501 -0.285736 0
M  V30 2743 C 251.561 1.57213 1.17382 0
M  V30 2744 O 250.686 1.03642 1.89966 0
M  V30 2745 C 251.281 3.34912 -0.511821 0
M  V30 2746 C 249.84 3.76025 -0.168005 0
M  V30 2747 C 248.987 2.6551 -0.799983 0
M  V30 2748 H 251.938 1.31724 -0.885119 0
M  V30 2749 H 251.959 3.79784 0.233292 0
M  V30 2750 H 251.471 3.54741 -1.57418 0
M  V30 2751 H 249.572 3.61801 0.890567 0
M  V30 2752 H 249.685 4.75141 -0.614661 0
M  V30 2753 H 248.049 2.53654 -0.230568 0
M  V30 2754 H 248.832 2.8816 -1.86597 0
M  V30 2755 N 251.277 0.427512 1.51691 0
M  V30 2756 C 252.224 -0.388867 2.275 0
M  V30 2757 C 253.194 -1.02532 1.30677 0
M  V30 2758 O 254.379 -1.0461 1.59566 0
M  V30 2759 C 251.519 -1.48954 3.11298 0
M  V30 2760 C 250.632 -0.872194 4.23104 0
M  V30 2761 C 249.767 -1.94709 4.94228 0
M  V30 2762 C 248.806 -1.30766 5.97969 0
M  V30 2763 N 247.943 -2.32349 6.62539 0
M  V30 2764 H 252.783 0.263997 2.96828 0
M  V30 2765 H 250.32 0.142033 1.46413 0
M  V30 2766 H 252.278 -2.13887 3.58201 0
M  V30 2767 H 250.908 -2.11217 2.44105 0
M  V30 2768 H 249.96 -0.111419 3.80237 0
M  V30 2769 H 251.272 -0.365264 4.97461 0
M  V30 2770 H 250.426 -2.67327 5.44629 0
M  V30 2771 H 249.165 -2.48773 4.1948 0
M  V30 2772 H 248.17 -0.566902 5.4687 0
M  V30 2773 H 249.395 -0.774483 6.74669 0
M  V30 2774 H 247.341 -2.85511 5.90609 0
M  V30 2775 H 247.258 -1.8652 7.3263 0
M  V30 2776 H 248.526 -3.04481 7.17574 0
M  V30 2777 N 252.755 -1.56801 0.158532 0
M  V30 2778 C 254.004 -1.95665 -0.489702 0
M  V30 2779 C 254.317 -1.04654 -1.65248 0
M  V30 2780 O 255.523 -1.33146 -2.3661 0
M  V30 2781 C 253.979 -3.47874 -0.922582 0
M  V30 2782 C 253.587 -4.47489 0.213893 0
M  V30 2783 C 255.331 -3.95583 -1.53996 0
M  V30 2784 C 253.238 -5.90921 -0.237903 0
M  V30 2785 H 252.168 -0.730516 -0.186716 0
M  V30 2786 H 254.819 -1.81861 0.244722 0
M  V30 2787 H 253.201 -3.57051 -1.71261 0
M  V30 2788 H 254.375 -4.50017 0.991036 0
M  V30 2789 H 252.69 -4.09764 0.740407 0
M  V30 2790 H 255.287 -5.0019 -1.8898 0
M  V30 2791 H 255.63 -3.37789 -2.43319 0
M  V30 2792 H 256.163 -3.8937 -0.814611 0
M  V30 2793 H 252.902 -6.52559 0.620236 0
M  V30 2794 H 252.422 -5.91729 -0.980676 0
M  V30 2795 H 254.101 -6.43352 -0.686067 0
M  V30 2796 N 254.233 0.115231 -1.57178 0
M  V30 2797 C 255.649 0.468877 -1.52557 0
M  V30 2798 C 255.849 1.81649 -0.872125 0
M  V30 2799 O 254.905 2.48347 -0.45606 0
M  V30 2800 C 256.218 0.4499 -2.97315 0
M  V30 2801 C 257.766 0.533185 -3.08425 0
M  V30 2802 C 258.241 0.54456 -4.54751 0
M  V30 2803 N 259.732 0.605892 -4.5922 0
M  V30 2804 C 260.467 0.636203 -5.6986 0
M  V30 2805 N 259.963 0.623931 -6.89985 0
M  V30 2806 N 261.756 0.679496 -5.57978 0
M  V30 2807 H 253.907 -0.767712 -1.9804 0
M  V30 2808 H 256.17 -0.283609 -0.904583 0
M  V30 2809 H 255.876 -0.472721 -3.48509 0
M  V30 2810 H 255.75 1.27632 -3.5495 0
M  V30 2811 H 258.137 1.44623 -2.57232 0
M  V30 2812 H 258.218 -0.320995 -2.53778 0
M  V30 2813 H 257.862 -0.364452 -5.06591 0
M  V30 2814 H 257.792 1.41568 -5.07214 0
M  V30 2815 H 260.283 0.621386 -3.72756 0
M  V30 2816 H 260.596 0.649787 -7.70063 0
M  V30 2817 H 258.941 0.591296 -6.9248 0
M  V30 2818 H 262.132 0.686472 -4.63039 0
M  V30 2819 H 262.305 0.69965 -6.44212 0
M  V30 2820 N 255.711 1.52812 0.385517 0
M  V30 2821 C 256.641 1.80808 1.47752 0
M  V30 2822 C 257.622 0.660318 1.5676 0
M  V30 2823 O 258.807 0.908246 1.71652 0
M  V30 2824 C 255.937 1.98008 2.85324 0
M  V30 2825 C 254.891 3.13709 2.91154 0
M  V30 2826 C 254.217 3.16169 4.31209 0
M  V30 2827 C 255.517 4.52709 2.60483 0
M  V30 2828 H 257.211 2.72253 1.24573 0
M  V30 2829 H 254.757 1.31003 0.597839 0
M  V30 2830 H 256.71 2.16176 3.61726 0
M  V30 2831 H 255.434 1.03255 3.09848 0
M  V30 2832 H 254.093 2.95329 2.17201 0
M  V30 2833 H 253.741 2.19092 4.52778 0
M  V30 2834 H 253.441 3.93894 4.36029 0
M  V30 2835 H 254.965 3.36496 5.09512 0
M  V30 2836 H 256.379 4.71173 3.26602 0
M  V30 2837 H 254.776 5.32528 2.76648 0
M  V30 2838 H 255.846 4.59186 1.55809 0
M  V30 2839 N 257.189 -0.644168 1.43834 0
M  V30 2840 C 258.122 -1.76906 1.44151 0
M  V30 2841 C 259.1 -1.59774 0.301857 0
M  V30 2842 O 260.284 -1.81834 0.496841 0
M  V30 2843 C 257.411 -3.14321 1.26174 0
M  V30 2844 C 256.457 -3.50134 2.43533 0
M  V30 2845 S 257.29 -3.49085 4.06079 0
M  V30 2846 C 258.446 -4.89142 3.90501 0
M  V30 2847 H 258.679 -1.76368 2.39336 0
M  V30 2848 H 256.212 -0.817624 1.30974 0
M  V30 2849 H 258.17 -3.93625 1.16489 0
M  V30 2850 H 256.831 -3.12412 0.325224 0
M  V30 2851 H 256.024 -4.50095 2.26783 0
M  V30 2852 H 255.626 -2.78264 2.4989 0
M  V30 2853 H 257.918 -5.78036 3.53385 0
M  V30 2854 H 258.861 -5.10945 4.90246 0
M  V30 2855 H 259.269 -4.63102 3.22795 0
M  V30 2856 N 258.668 -1.30515 -0.883378 0
M  V30 2857 C 260.079 -1.17509 -1.45081 0
M  V30 2858 C 260.43 0.223605 -1.94922 0
M  V30 2859 O 259.555 1.12041 -1.85137 0
M  V30 2860 C 260.15 -2.12715 -2.63701 0
M  V30 2861 C 258.709 -2.03682 -3.16529 0
M  V30 2862 C 257.856 -2.02706 -1.89224 0
M  V30 2863 H 260.807 -1.42762 -0.693165 0
M  V30 2864 H 260.828 -1.70891 -3.39965 0
M  V30 2865 H 260.34 -3.14505 -2.27395 0
M  V30 2866 H 258.441 -1.05039 -3.57488 0
M  V30 2867 H 258.554 -2.92146 -3.7972 0
M  V30 2868 H 256.918 -1.4753 -2.07622 0
M  V30 2869 H 257.701 -3.06229 -1.55174 0
M  V30 2870 N 260.146 1.09593 -1.13257 0
M  V30 2871 C 261.394 1.81375 -0.891492 0
M  V30 2872 C 261.715 1.86049 0.584009 0
M  V30 2873 O 260.985 1.34481 1.42449 0
M  V30 2874 H 259.565 0.671708 -0.326828 0
M  V30 2875 H 262.227 1.3256 -1.42877 0
M  V30 2876 H 261.323 2.84612 -1.28071 0
M  V30 2877 N 261.624 0.925811 1.2754 0
M  V30 2878 C 263.035 0.610102 1.7645 0
M  V30 2879 C 263.386 -0.874723 1.75622 0
M  V30 2880 O 262.511 -1.68444 1.35851 0
M  V30 2881 C 263.106 1.10073 3.20421 0
M  V30 2882 C 261.665 0.835723 3.67005 0
M  V30 2883 C 260.812 1.26054 2.46993 0
M  V30 2884 H 263.763 1.10579 1.13833 0
M  V30 2885 H 263.784 0.447557 3.77859 0
M  V30 2886 H 263.296 2.18143 3.20991 0
M  V30 2887 H 261.397 -0.231249 3.71882 0
M  V30 2888 H 261.51 1.45193 4.56569 0
M  V30 2889 H 259.874 0.679111 2.45479 0
M  V30 2890 H 260.657 2.34984 2.50275 0
M  V30 2891 N 263.102 -1.41638 0.69111 0
M  V30 2892 C 264.35 -2.00902 0.219758 0
M  V30 2893 C 264.671 -1.54994 -1.18329 0
M  V30 2894 O 263.941 -0.778628 -1.79762 0
M  V30 2895 H 262.521 -0.74289 0.0782558 0
M  V30 2896 H 265.183 -1.73327 0.891271 0
M  V30 2897 H 264.279 -3.11224 0.233708 0
M  V30 2898 N 264.58 -0.43555 -1.51462 0
M  V30 2899 C 265.51 0.367376 -2.30592 0
M  V30 2900 C 266.491 1.02263 -1.35928 0
M  V30 2901 O 267.676 1.02661 -1.64847 0
M  V30 2902 C 264.806 1.46983 -3.14664 0
M  V30 2903 C 263.76 0.938161 -4.17591 0
M  V30 2904 C 263.086 2.13622 -4.90173 0
M  V30 2905 C 264.386 -0.0261621 -5.22293 0
M  V30 2906 H 266.08 -0.292969 -2.97963 0
M  V30 2907 H 263.626 -0.14234 -1.43295 0
M  V30 2908 H 265.579 2.03873 -3.688 0
M  V30 2909 H 264.303 2.15843 -2.4511 0
M  V30 2910 H 262.962 0.391481 -3.64504 0
M  V30 2911 H 262.61 2.81098 -4.17124 0
M  V30 2912 H 262.31 1.78688 -5.59772 0
M  V30 2913 H 263.834 2.7107 -5.47132 0
M  V30 2914 H 265.248 0.452384 -5.71512 0
M  V30 2915 H 263.645 -0.287992 -5.99409 0
M  V30 2916 H 264.715 -0.963391 -4.75233 0
M  V30 2917 N 266.058 1.56714 -0.166846 0
M  V30 2918 C 266.988 2.20754 0.760913 0
M  V30 2919 C 267.969 1.16178 1.24244 0
M  V30 2920 O 269.154 1.44592 1.29641 0
M  V30 2921 C 266.284 2.84478 1.99223 0
M  V30 2922 C 265.238 3.95053 1.64672 0
M  V30 2923 C 264.564 4.45805 2.95232 0
M  V30 2924 C 265.864 5.14865 0.878155 0
M  V30 2925 H 267.558 2.98537 0.22713 0
M  V30 2926 H 265.104 1.43596 0.107805 0
M  V30 2927 H 267.057 3.27951 2.64624 0
M  V30 2928 H 265.781 2.04056 2.55007 0
M  V30 2929 H 264.44 3.52228 1.01641 0
M  V30 2930 H 264.088 3.62181 3.49047 0
M  V30 2931 H 263.788 5.204 2.7287 0
M  V30 2932 H 265.312 4.91962 3.6167 0
M  V30 2933 H 266.726 5.55059 1.43466 0
M  V30 2934 H 265.123 5.95348 0.753738 0
M  V30 2935 H 266.193 4.84735 -0.126377 0
M  V30 2936 N 267.536 -0.106894 1.57237 0
M  V30 2937 C 268.499 -1.11466 2.0027 0
M  V30 2938 C 269.499 -1.33623 0.894519 0
M  V30 2939 O 270.689 -1.29935 1.16028 0
M  V30 2940 C 267.821 -2.46646 2.35327 0
M  V30 2941 H 269.014 -0.744516 2.90512 0
M  V30 2942 H 266.567 -0.351576 1.52295 0
M  V30 2943 H 267.302 -2.88558 1.48003 0
M  V30 2944 H 267.087 -2.31915 3.16161 0
M  V30 2945 H 268.577 -3.19151 2.69318 0
M  V30 2946 N 269.014 -1.53014 -0.377408 0
M  V30 2947 C 269.947 -1.73382 -1.48371 0
M  V30 2948 C 270.925 -0.581879 -1.51832 0
M  V30 2949 O 272.109 -0.81307 -1.70063 0
M  V30 2950 C 269.236 -1.80192 -2.8679 0
M  V30 2951 C 268.282 -3.02056 -3.01105 0
M  V30 2952 S 269.115 -4.61811 -2.71093 0
M  V30 2953 C 270.271 -4.71453 -4.11683 0
M  V30 2954 H 270.504 -2.66946 -1.30872 0
M  V30 2955 H 268.037 -1.43453 -0.571012 0
M  V30 2956 H 269.995 -1.84802 -3.6655 0
M  V30 2957 H 268.656 -0.877008 -3.01608 0
M  V30 2958 H 267.849 -3.03396 -4.02451 0
M  V30 2959 H 267.451 -2.95498 -2.29253 0
M  V30 2960 H 269.743 -4.50781 -5.0577 0
M  V30 2961 H 270.686 -5.73487 -4.15353 0
M  V30 2962 H 271.094 -4.00189 -3.98132 0
M  V30 2963 N 270.492 0.636531 -1.44174 0
M  V30 2964 C 271.903 1.21806 -1.41493 0
M  V30 2965 C 272.254 1.95785 -0.1275 0
M  V30 2966 O 271.379 2.02147 0.772376 0
M  V30 2967 C 271.974 2.21551 -2.56321 0
M  V30 2968 C 270.533 2.75143 -2.56853 0
M  V30 2969 C 269.68 1.50052 -2.33195 0
M  V30 2970 H 272.631 0.427531 -1.52833 0
M  V30 2971 H 272.652 3.0405 -2.28765 0
M  V30 2972 H 272.164 1.67679 -3.50008 0
M  V30 2973 H 270.265 3.33033 -1.67093 0
M  V30 2974 H 270.378 3.2155 -3.55165 0
M  V30 2975 H 268.742 1.77993 -1.82183 0
M  V30 2976 H 269.525 0.980903 -3.28988 0
M  V30 2977 N 271.97 1.30982 0.876444 0
M  V30 2978 C 273.198 1.23242 1.6619 0
M  V30 2979 C 273.613 -0.203345 1.87702 0
M  V30 2980 O 272.97 -1.13317 1.43057 0
M  V30 2981 C 273.021 1.96623 3.03351 0
M  V30 2982 O 272.742 3.34594 2.82804 0
M  V30 2983 C 274.243 1.95644 3.97792 0
M  V30 2984 H 271.463 0.426126 0.518322 0
M  V30 2985 H 274.007 1.7275 1.09442 0
M  V30 2986 H 272.162 1.50892 3.56806 0
M  V30 2987 H 272.576 3.71873 3.69879 0
M  V30 2988 H 274.05 2.51511 4.91372 0
M  V30 2989 H 274.527 0.937395 4.2908 0
M  V30 2990 H 275.133 2.41225 3.50272 0
M  V30 2991 N 273.449 -1.08991 1.13837 0
M  V30 2992 C 274.677 -1.85011 0.926202 0
M  V30 2993 C 275.092 -1.8135 -0.525127 0
M  V30 2994 O 274.449 -1.21287 -1.36366 0
M  V30 2995 C 274.5 -3.32802 1.41155 0
M  V30 2996 O 274.221 -3.36444 2.80601 0
M  V30 2997 C 275.722 -4.25649 1.23847 0
M  V30 2998 H 272.942 -0.584249 0.32999 0
M  V30 2999 H 275.486 -1.37688 1.51202 0
M  V30 3000 H 273.641 -3.77536 0.868631 0
M  V30 3001 H 274.055 -4.28657 3.02248 0
M  V30 3002 H 275.529 -5.27485 1.62675 0
M  V30 3003 H 276.006 -4.38828 0.18065 0
M  V30 3004 H 276.612 -3.86735 1.76964 0
M  V30 3005 N 274.927 -0.932562 -1.27047 0
M  V30 3006 C 276.204 -0.49377 -1.89265 0
M  V30 3007 C 276.584 1.02833 -1.8436 0
M  V30 3008 O 275.932 1.88461 -1.29209 0
M  V30 3009 C 276.142 -1.04536 -3.32976 0
M  V30 3010 C 277.49 -1.10879 -4.09867 0
M  V30 3011 O 278.514 -0.995327 -3.42011 0
M  V30 3012 O 277.373 -1.28417 -5.31198 0
M  V30 3013 H 274.467 -0.159596 -0.811454 0
M  V30 3014 H 277.013 -1.02457 -1.3528 0
M  V30 3015 H 275.785 -2.08913 -3.30864 0
M  V30 3016 H 275.408 -0.496494 -3.94488 0
M  V30 3017 N 276.405 1.4127 -0.698611 0
M  V30 3018 C 277.682 1.94955 -0.158762 0
M  V30 3019 C 278.062 1.63781 1.33188 0
M  V30 3020 O 277.41 0.946423 2.07979 0
M  V30 3021 C 277.62 3.46044 -0.453309 0
M  V30 3022 C 278.968 4.22872 -0.382707 0
M  V30 3023 O 279.992 3.54076 -0.388396 0
M  V30 3024 O 278.851 5.45407 -0.345463 0
M  V30 3025 H 275.945 0.82683 -0.0167505 0
M  V30 3026 H 278.491 1.50971 -0.77498 0
M  V30 3027 H 277.263 3.62028 -1.48498 0
M  V30 3028 H 276.886 3.97128 0.19373 0
M  V30 3029 N 277.883 0.443576 1.51229 0
M  V30 3030 C 279.131 -0.120557 2.0174 0
M  V30 3031 C 279.452 -1.42665 1.32935 0
M  V30 3032 O 278.722 -1.9028 0.465866 0
M  V30 3033 H 277.302 -0.0475426 0.745486 0
M  V30 3034 H 279.964 0.587711 1.85828 0
M  V30 3035 H 279.06 -0.291972 3.10731 0
M  V30 3036 N 279.361 -1.56624 0.175154 0
M  V30 3037 C 280.601 -1.98894 -0.471221 0
M  V30 3038 C 280.965 -1.05889 -1.60161 0
M  V30 3039 O 282.166 -1.37315 -2.3108 0
M  V30 3040 C 280.437 -3.44865 -0.938241 0
M  V30 3041 S 281.996 -4.09164 -1.58526 0
M  V30 3042 H 278.814 -0.694686 -0.151434 0
M  V30 3043 H 281.416 -1.93577 0.27352 0
M  V30 3044 H 280.12 -4.10265 -0.10518 0
M  V30 3045 H 279.651 -3.53956 -1.71693 0
M  V30 3046 H 281.666 -4.04528 -2.87352 0
M  V30 3047 N 280.839 0.0985539 -1.57292 0
M  V30 3048 C 282.088 0.801358 -1.85098 0
M  V30 3049 C 282.401 1.80066 -0.763902 0
M  V30 3050 O 283.607 2.55112 -0.928981 0
M  V30 3051 C 282.063 1.47599 -3.28242 0
M  V30 3052 C 281.671 0.516624 -4.45011 0
M  V30 3053 C 283.415 2.16272 -3.65276 0
M  V30 3054 C 281.322 1.19564 -5.79188 0
M  V30 3055 H 280.252 0.303022 -0.69043 0
M  V30 3056 H 282.903 0.0542623 -1.8342 0
M  V30 3057 H 281.285 2.27042 -3.2445 0
M  V30 3058 H 282.459 -0.246065 -4.60143 0
M  V30 3059 H 280.774 -0.064227 -4.1635 0
M  V30 3060 H 283.371 2.67802 -4.62803 0
M  V30 3061 H 283.714 2.95009 -2.93727 0
M  V30 3062 H 284.247 1.43693 -3.70941 0
M  V30 3063 H 280.986 0.449157 -6.53959 0
M  V30 3064 H 280.506 1.92984 -5.67906 0
M  V30 3065 H 282.185 1.7231 -6.23633 0
M  V30 3066 N 282.317 1.53212 0.369288 0
M  V30 3067 C 283.733 1.42902 0.710712 0
M  V30 3068 C 283.933 0.565135 1.93413 0
M  V30 3069 O 282.989 0.0461484 2.52458 0
M  V30 3070 C 284.302 2.86042 0.927382 0
M  V30 3071 C 285.85 2.9565 1.02762 0
M  V30 3072 C 286.325 4.39843 1.27679 0
M  V30 3073 N 287.816 4.43256 1.34457 0
M  V30 3074 C 288.551 5.51929 1.55439 0
M  V30 3075 N 288.047 6.70655 1.73762 0
M  V30 3076 N 289.84 5.39502 1.57779 0
M  V30 3077 H 281.991 2.07888 -0.435457 0
M  V30 3078 H 284.254 0.938661 -0.132739 0
M  V30 3079 H 283.96 3.51557 0.100287 0
M  V30 3080 H 283.834 3.29472 1.83653 0
M  V30 3081 H 286.221 2.30291 1.84527 0
M  V30 3082 H 286.302 2.5562 0.0959504 0
M  V30 3083 H 285.946 5.05774 0.464175 0
M  V30 3084 H 285.876 4.77443 2.22162 0
M  V30 3085 H 288.367 3.5769 1.21926 0
M  V30 3086 H 288.68 7.49248 1.89335 0
M  V30 3087 H 287.025 6.73648 1.70948 0
M  V30 3088 H 290.216 4.45713 1.43029 0
M  V30 3089 H 290.389 6.2426 1.7379 0
M  V30 3090 N 283.795 -0.628877 1.44509 0
M  V30 3091 C 285.023 -1.41554 1.50897 0
M  V30 3092 C 285.438 -1.8832 0.134564 0
M  V30 3093 O 284.795 -1.60969 -0.859965 0
M  V30 3094 C 284.846 -2.63435 2.47556 0
M  V30 3095 O 284.567 -2.18619 3.79654 0
M  V30 3096 C 286.068 -3.56537 2.63431 0
M  V30 3097 H 283.288 -0.434044 0.511709 0
M  V30 3098 H 285.832 -0.768895 1.89495 0
M  V30 3099 H 283.987 -3.24187 2.12089 0
M  V30 3100 H 284.401 -2.97652 4.31861 0
M  V30 3101 H 285.875 -4.38657 3.35088 0
M  V30 3102 H 286.352 -4.05493 1.68738 0
M  V30 3103 H 286.958 -3.01653 2.9981 0
M  V30 3104 N 285.273 -1.31445 -0.869486 0
M  V30 3105 C 286.684 -1.19042 -1.43826 0
M  V30 3106 C 287.035 0.202919 -1.95148 0
M  V30 3107 O 286.16 1.10071 -1.86315 0
M  V30 3108 C 286.755 -2.15499 -2.6143 0
M  V30 3109 C 285.314 -2.07028 -3.14351 0
M  V30 3110 C 284.461 -2.04701 -1.87063 0
M  V30 3111 H 287.412 -1.43489 -0.677984 0
M  V30 3112 H 287.433 -1.74488 -3.38134 0
M  V30 3113 H 286.945 -3.16899 -2.24046 0
M  V30 3114 H 285.046 -1.08825 -3.56354 0
M  V30 3115 H 285.159 -2.96157 -3.766 0
M  V30 3116 H 283.523 -1.49724 -2.06046 0
M  V30 3117 H 284.306 -3.07857 -1.51917 0
M  V30 3118 N 286.751 1.08385 -1.14413 0
M  V30 3119 C 287.976 1.85057 -0.936413 0
M  V30 3120 C 288.401 1.81055 0.509971 0
M  V30 3121 O 287.759 1.1958 1.36273 0
M  V30 3122 C 287.807 3.30505 -1.44217 0
M  V30 3123 O 286.911 4.07491 -0.634409 0
M  V30 3124 H 286.252 0.573425 -0.334784 0
M  V30 3125 H 288.782 1.36799 -1.52142 0
M  V30 3126 H 288.792 3.81348 -1.45043 0
M  V30 3127 H 287.467 3.32734 -2.49522 0
M  V30 3128 H 286.044 3.66368 -0.694902 0
M  V30 3129 N 288.23 0.939286 1.26551 0
M  V30 3130 C 289.16 0.465044 2.28822 0
M  V30 3131 C 290.141 -0.480692 1.63167 0
M  V30 3132 O 291.326 -0.382955 1.90387 0
M  V30 3133 C 288.456 -0.27234 3.46231 0
M  V30 3134 C 287.41 0.58666 4.2396 0
M  V30 3135 C 286.736 -0.280573 5.33963 0
M  V30 3136 C 288.036 1.85704 4.88171 0
M  V30 3137 H 289.73 1.31979 2.68741 0
M  V30 3138 H 287.276 0.636061 1.29191 0
M  V30 3139 H 289.229 -0.615133 4.16886 0
M  V30 3140 H 287.953 -1.16121 3.0526 0
M  V30 3141 H 286.612 0.91232 3.55067 0
M  V30 3142 H 286.26 -1.16874 4.89234 0
M  V30 3143 H 285.96 0.29076 5.8688 0
M  V30 3144 H 287.484 -0.618678 6.07458 0
M  V30 3145 H 288.898 1.58161 5.51052 0
M  V30 3146 H 287.295 2.37279 5.51197 0
M  V30 3147 H 288.365 2.56957 4.11219 0
M  V30 3148 N 289.708 -1.40897 0.706093 0
M  V30 3149 C 290.954 -2.01352 0.241889 0
M  V30 3150 C 291.287 -1.55832 -1.15888 0
M  V30 3151 O 290.562 -0.774145 -1.7843 0
M  V30 3152 C 290.845 -3.58752 0.311311 0
M  V30 3153 C 290.698 -4.1437 1.74978 0
M  V30 3154 C 292.017 -4.38914 -0.322922 0
M  V30 3155 H 289.136 -0.731562 0.0893687 0
M  V30 3156 H 291.778 -1.67504 0.896802 0
M  V30 3157 H 289.928 -3.87718 -0.246302 0
M  V30 3158 H 291.6 -3.96239 2.36205 0
M  V30 3159 H 289.843 -3.69016 2.28057 0
M  V30 3160 H 290.514 -5.23532 1.74981 0
M  V30 3161 H 292.99 -4.15822 0.152089 0
M  V30 3162 H 291.866 -5.48358 -0.243855 0
M  V30 3163 H 292.127 -4.19176 -1.40513 0
M  V30 3164 N 291.186 -0.45159 -1.50991 0
M  V30 3165 C 292.435 0.111653 -2.01391 0
M  V30 3166 C 292.748 1.42529 -1.33959 0
M  V30 3167 O 293.954 2.07232 -1.75405 0
M  V30 3168 C 292.41 0.249514 -3.59034 0
M  V30 3169 C 292.018 -1.05453 -4.35412 0
M  V30 3170 C 293.762 0.765762 -4.17536 0
M  V30 3171 C 291.669 -0.881529 -5.84793 0
M  V30 3172 H 290.599 0.0455022 -0.752626 0
M  V30 3173 H 293.25 -0.583524 -1.73975 0
M  V30 3174 H 291.632 1.00803 -3.82955 0
M  V30 3175 H 292.806 -1.82248 -4.23229 0
M  V30 3176 H 291.121 -1.50039 -3.88429 0
M  V30 3177 H 293.718 0.911913 -5.26866 0
M  V30 3178 H 294.061 1.75201 -3.77638 0
M  V30 3179 H 294.594 0.0651744 -3.97747 0
M  V30 3180 H 291.333 -1.84057 -6.29129 0
M  V30 3181 H 290.853 -0.153625 -5.99603 0
M  V30 3182 H 292.532 -0.540363 -6.4474 0
M  V30 3183 N 292.664 1.56529 -0.183458 0
M  V30 3184 C 293.612 2.19873 0.758845 0
M  V30 3185 C 294.606 1.16638 1.22849 0
M  V30 3186 O 295.812 1.3481 1.19274 0
M  V30 3187 H 292.187 0.7045 0.263029 0
M  V30 3188 H 294.158 2.97724 0.200755 0
M  V30 3189 C 292.907 2.86314 1.9728 0
M  V30 3190 H 292.23 3.65487 1.62047 0
M  V30 3191 H 293.67 3.3409 2.61075 0
M  V30 3192 C 292.129 1.86729 2.80418 0
M  V30 3193 O 292.659 1.36031 3.77966 0
M  V30 3194 N 290.865 1.55216 2.45675 0
M  V30 3195 H 290.412 1.96636 1.66409 0
M  V30 3196 H 290.37 0.888388 3.01588 0
M  V30 3197 N 294.142 -0.090211 1.57342 0
M  V30 3198 C 295.419 -0.824761 1.77361 0
M  V30 3199 C 295.799 -1.96698 0.76637 0
M  V30 3200 O 295.147 -2.27586 -0.204179 0
M  V30 3201 C 295.357 -1.31481 3.23286 0
M  V30 3202 C 296.705 -1.75563 3.86604 0
M  V30 3203 O 297.729 -1.41093 3.27065 0
M  V30 3204 O 296.588 -2.39317 4.91314 0
M  V30 3205 H 293.682 -0.393776 0.727234 0
M  V30 3206 H 296.228 -0.0717138 1.69548 0
M  V30 3207 H 295 -0.496671 3.88135 0
M  V30 3208 H 294.623 -2.12973 3.35751 0
M  V30 3209 N 295.62 -1.53406 -0.361157 0
M  V30 3210 C 296.55 -1.83136 -1.44857 0
M  V30 3211 C 297.531 -0.685174 -1.5569 0
M  V30 3212 O 298.716 -0.93544 -1.70186 0
M  V30 3213 C 295.846 -2.02522 -2.82138 0
M  V30 3214 C 294.8 -3.18302 -2.86126 0
M  V30 3215 C 294.126 -3.22989 -4.26125 0
M  V30 3216 C 295.426 -4.56796 -2.53248 0
M  V30 3217 H 297.12 -2.74201 -1.20226 0
M  V30 3218 H 294.666 -1.31938 -0.576922 0
M  V30 3219 H 296.619 -2.21904 -3.58241 0
M  V30 3220 H 295.343 -1.08172 -3.08166 0
M  V30 3221 H 294.002 -2.98747 -2.12475 0
M  V30 3222 H 293.65 -2.26267 -4.49235 0
M  V30 3223 H 293.35 -4.00781 -4.29708 0
M  V30 3224 H 294.874 -3.44559 -5.04094 0
M  V30 3225 H 296.288 -4.7631 -3.19064 0
M  V30 3226 H 294.685 -5.36862 -2.68141 0
M  V30 3227 H 295.755 -4.61606 -1.48484 0
M  V30 3228 N 297.098 0.621204 -1.44841 0
M  V30 3229 C 298.347 1.37658 -1.47422 0
M  V30 3230 C 298.66 1.95264 -0.114629 0
M  V30 3231 O 299.866 2.71494 -0.0180199 0
M  V30 3232 C 298.322 2.49285 -2.59586 0
M  V30 3233 C 297.93 1.98149 -4.01797 0
M  V30 3234 C 299.674 3.26409 -2.71399 0
M  V30 3235 C 297.581 3.07178 -5.05367 0
M  V30 3236 H 296.511 0.517344 -0.548517 0
M  V30 3237 H 299.162 0.667257 -1.70938 0
M  V30 3238 H 297.544 3.22839 -2.29328 0
M  V30 3239 H 298.718 1.31395 -4.41669 0
M  V30 3240 H 297.033 1.33812 -3.94314 0
M  V30 3241 H 299.63 4.07706 -3.45948 0
M  V30 3242 H 299.973 3.76535 -1.77559 0
M  V30 3243 H 300.506 2.5995 -3.01116 0
M  V30 3244 H 297.245 2.61985 -6.00869 0
M  V30 3245 H 296.765 3.72542 -4.70077 0
M  V30 3246 H 298.444 3.71789 -5.29511 0
M  V30 3247 N 298.576 1.31904 0.862503 0
M  V30 3248 C 299.806 1.24817 1.64634 0
M  V30 3249 C 300.214 -0.187579 1.88268 0
M  V30 3250 O 299.557 -1.13253 1.44635 0
M  V30 3251 C 299.619 1.92996 3.03303 0
M  V30 3252 C 299.283 3.42336 3.02746 0
M  V30 3253 C 300.28 4.37956 2.80162 0
M  V30 3254 C 297.965 3.84147 3.2363 0
M  V30 3255 C 299.959 5.73361 2.78453 0
M  V30 3256 C 297.646 5.19663 3.21549 0
M  V30 3257 C 298.644 6.14081 2.98988 0
M  V30 3258 O 298.332 7.47118 2.96766 0
M  V30 3259 H 298.064 0.432222 0.519769 0
M  V30 3260 H 300.618 1.7445 1.08427 0
M  V30 3261 H 298.848 1.37922 3.61268 0
M  V30 3262 H 300.537 1.79723 3.63943 0
M  V30 3263 H 301.303 4.06981 2.63802 0
M  V30 3264 H 297.182 3.11083 3.40218 0
M  V30 3265 H 300.726 6.4703 2.60763 0
M  V30 3266 H 296.623 5.5027 3.37451 0
M  V30 3267 H 297.391 7.56382 3.12775 0
M  V30 3268 N 300.054 -1.07777 1.14986 0
M  V30 3269 C 301.017 -2.13041 0.845358 0
M  V30 3270 C 302.017 -1.60071 -0.152931 0
M  V30 3271 O 303.207 -1.74033 0.0761879 0
M  V30 3272 C 300.339 -3.39896 0.261383 0
M  V30 3273 H 301.532 -2.41485 1.77834 0
M  V30 3274 H 299.085 -1.23595 0.956757 0
M  V30 3275 H 299.82 -3.17091 -0.68 0
M  V30 3276 H 299.605 -3.79642 0.980514 0
M  V30 3277 H 301.095 -4.17548 0.0657687 0
M  V30 3278 N 301.532 -0.945985 -1.26051 0
M  V30 3279 C 302.762 -0.612136 -1.97323 0
M  V30 3280 C 303.17 0.818171 -1.70595 0
M  V30 3281 O 302.513 1.55777 -0.973613 0
M  V30 3282 C 302.575 -0.780347 -3.50929 0
M  V30 3283 C 302.239 -2.18619 -4.01317 0
M  V30 3284 C 303.236 -3.16209 -4.12683 0
M  V30 3285 C 300.921 -2.50805 -4.35203 0
M  V30 3286 C 302.915 -4.44085 -4.57238 0
M  V30 3287 C 300.602 -3.78912 -4.79446 0
M  V30 3288 C 301.6 -4.75365 -4.90425 0
M  V30 3289 O 301.288 -6.01191 -5.3369 0
M  V30 3290 H 301.02 -0.229134 -0.635982 0
M  V30 3291 H 303.574 -1.27036 -1.61404 0
M  V30 3292 H 301.804 -0.0649864 -3.86645 0
M  V30 3293 H 303.493 -0.448842 -4.03411 0
M  V30 3294 H 304.259 -2.92668 -3.86744 0
M  V30 3295 H 300.138 -1.76463 -4.2589 0
M  V30 3296 H 303.682 -5.19373 -4.65723 0
M  V30 3297 H 299.579 -4.02265 -5.0483 0
M  V30 3298 H 300.347 -6.04442 -5.51899 0
M  V30 3299 N 303.011 1.40521 -0.713556 0
M  V30 3300 C 304.239 2.05237 -0.261775 0
M  V30 3301 C 304.654 1.53755 1.09567 0
M  V30 3302 O 304.011 0.693268 1.6882 0
M  V30 3303 C 304.062 3.60763 -0.230706 0
M  V30 3304 O 303.783 4.10345 -1.53455 0
M  V30 3305 C 305.284 4.42651 0.239874 0
M  V30 3306 H 302.504 0.660533 -0.118057 0
M  V30 3307 H 305.048 1.79967 -0.971192 0
M  V30 3308 H 303.203 3.8501 0.429661 0
M  V30 3309 H 303.617 5.04526 -1.43366 0
M  V30 3310 H 305.091 5.51599 0.210468 0
M  V30 3311 H 305.568 4.20082 1.28171 0
M  V30 3312 H 306.174 4.23507 -0.390142 0
M  V30 3313 N 304.489 0.459591 1.5075 0
M  V30 3314 C 305.714 -0.0996819 2.0716 0
M  V30 3315 C 306.139 -1.33761 1.32249 0
M  V30 3316 O 305.497 -1.77551 0.366786 0
M  V30 3317 C 305.545 -0.378226 3.58611 0
M  V30 3318 O 304.649 -1.46081 3.85661 0
M  V30 3319 H 303.99 0.00791392 0.663953 0
M  V30 3320 H 306.52 0.647329 1.9409 0
M  V30 3321 H 306.53 -0.622135 4.03229 0
M  V30 3322 H 305.205 0.526439 4.12555 0
M  V30 3323 H 303.782 -1.20511 3.5289 0
M  V30 3324 N 305.967 -1.56429 0.191757 0
M  V30 3325 C 306.915 -2.20273 -0.747174 0
M  V30 3326 C 307.909 -1.17288 -1.22229 0
M  V30 3327 O 309.115 -1.35441 -1.18557 0
M  V30 3328 H 305.49 -0.705885 -0.259289 0
M  V30 3329 H 307.461 -2.97826 -0.184963 0
M  V30 3330 C 306.21 -2.87356 -1.95759 0
M  V30 3331 H 305.533 -3.66341 -1.60106 0
M  V30 3332 H 306.973 -3.3547 -2.59299 0
M  V30 3333 C 305.432 -1.88213 -2.79423 0
M  V30 3334 O 305.962 -1.38033 -3.7724 0
M  V30 3335 N 304.168 -1.56516 -2.44849 0
M  V30 3336 H 303.715 -1.97516 -1.65364 0
M  V30 3337 H 303.673 -0.904369 -3.01112 0
M  V30 3338 N 307.445 0.0818655 -1.57387 0
M  V30 3339 C 308.375 1.09885 -2.06028 0
M  V30 3340 C 309.356 1.4098 -0.951774 0
M  V30 3341 O 310.541 1.50781 -1.22387 0
M  V30 3342 C 307.671 2.4151 -2.4958 0
M  V30 3343 C 306.625 2.24792 -3.64215 0
M  V30 3344 C 305.951 3.61712 -3.93787 0
M  V30 3345 C 307.251 1.67749 -4.94629 0
M  V30 3346 H 308.945 0.694128 -2.91243 0
M  V30 3347 H 306.491 0.332448 -1.4011 0
M  V30 3348 H 308.444 3.12939 -2.82219 0
M  V30 3349 H 307.168 2.83943 -1.61381 0
M  V30 3350 H 305.827 1.55807 -3.31843 0
M  V30 3351 H 305.475 4.01697 -3.02735 0
M  V30 3352 H 305.175 3.51368 -4.70971 0
M  V30 3353 H 306.699 4.34587 -4.28913 0
M  V30 3354 H 308.113 2.29032 -5.25564 0
M  V30 3355 H 306.51 1.68128 -5.76067 0
M  V30 3356 H 307.58 0.638059 -4.80684 0
M  V30 3357 N 308.923 1.53595 0.353017 0
M  V30 3358 C 310.172 1.69603 1.09168 0
M  V30 3359 C 310.485 0.460925 1.90092 0
M  V30 3360 O 311.691 0.501774 2.66823 0
M  V30 3361 C 310.147 2.99872 1.9901 0
M  V30 3362 C 309.755 4.30687 1.23339 0
M  V30 3363 C 311.499 3.25246 2.72792 0
M  V30 3364 C 309.406 5.52036 2.12156 0
M  V30 3365 H 308.336 0.631966 0.411261 0
M  V30 3366 H 310.987 1.80096 0.351802 0
M  V30 3367 H 309.369 2.83212 2.7678 0
M  V30 3368 H 310.543 4.58019 0.505456 0
M  V30 3369 H 308.858 4.11853 0.613663 0
M  V30 3370 H 311.455 4.13095 3.39495 0
M  V30 3371 H 311.798 2.41846 3.38846 0
M  V30 3372 H 312.331 3.42638 2.021 0
M  V30 3373 H 309.07 6.37951 1.50659 0
M  V30 3374 H 308.59 5.28966 2.82764 0
M  V30 3375 H 310.269 5.87313 2.71427 0
M  V30 3376 N 310.401 -0.613514 1.45168 0
M  V30 3377 C 311.629 -1.39946 1.5239 0
M  V30 3378 C 312.044 -1.88167 0.154531 0
M  V30 3379 O 311.401 -1.61872 -0.842843 0
M  V30 3380 C 311.452 -2.60795 2.50337 0
M  V30 3381 O 311.173 -2.1458 3.81952 0
M  V30 3382 C 312.674 -3.53723 2.67198 0
M  V30 3383 H 309.894 -0.428593 0.516284 0
M  V30 3384 H 312.438 -0.748753 1.903 0
M  V30 3385 H 310.593 -3.21919 2.15515 0
M  V30 3386 H 311.007 -2.93055 4.34993 0
M  V30 3387 H 312.481 -4.35079 3.39721 0
M  V30 3388 H 312.958 -4.0368 1.73029 0
M  V30 3389 H 313.564 -2.98456 3.02992 0
M  V30 3390 N 311.879 -1.3236 -0.855495 0
M  V30 3391 C 313.295 -1.11332 -1.14356 0
M  V30 3392 C 313.495 0.106751 -2.01217 0
M  V30 3393 O 312.551 0.791891 -2.39761 0
M  V30 3394 C 313.864 -2.39237 -1.82171 0
M  V30 3395 C 315.412 -2.44986 -1.9481 0
M  V30 3396 C 315.887 -3.7281 -2.66039 0
M  V30 3397 N 317.378 -3.73787 -2.73565 0
M  V30 3398 C 318.113 -4.69394 -3.29327 0
M  V30 3399 N 317.609 -5.75367 -3.85907 0
M  V30 3400 N 319.402 -4.56893 -3.27423 0
M  V30 3401 H 311.553 -2.10586 -0.277027 0
M  V30 3402 H 313.816 -0.929701 -0.185364 0
M  V30 3403 H 313.522 -3.28431 -1.25802 0
M  V30 3404 H 313.396 -2.50134 -2.82335 0
M  V30 3405 H 315.783 -1.56252 -2.50338 0
M  V30 3406 H 315.864 -2.38043 -0.936448 0
M  V30 3407 H 315.508 -4.61918 -2.11174 0
M  V30 3408 H 315.438 -3.77024 -3.67642 0
M  V30 3409 H 317.929 -2.97189 -2.33424 0
M  V30 3410 H 318.242 -6.44378 -4.26611 0
M  V30 3411 H 316.587 -5.79123 -3.84242 0
M  V30 3412 H 319.778 -3.73269 -2.82467 0
M  V30 3413 H 319.951 -5.31577 -3.7058 0
M  V30 3414 N 313.357 1.07166 -1.15556 0
M  V30 3415 C 314.605 1.79443 -0.929764 0
M  V30 3416 C 314.926 1.87246 0.544414 0
M  V30 3417 O 314.196 1.37473 1.39564 0
M  V30 3418 H 312.776 0.664625 -0.341003 0
M  V30 3419 H 315.438 1.29499 -1.45657 0
M  V30 3420 H 314.534 2.81832 -1.34079 0
M  V30 3421 N 314.835 0.952656 1.25548 0
M  V30 3422 C 316.075 0.614013 1.9496 0
M  V30 3423 C 316.439 -0.833215 1.72978 0
M  V30 3424 O 317.64 -1.28135 2.36294 0
M  V30 3425 C 315.911 0.960562 3.4425 0
M  V30 3426 S 317.47 0.734195 4.32614 0
M  V30 3427 H 314.288 0.225754 0.674208 0
M  V30 3428 H 316.89 1.22641 1.52248 0
M  V30 3429 H 315.594 2.01103 3.57751 0
M  V30 3430 H 315.125 0.338336 3.91942 0
M  V30 3431 H 317.14 -0.395995 4.94617 0
M  V30 3432 N 316.313 -1.40141 0.720998 0
M  V30 3433 C 317.245 -2.29177 0.0324669 0
M  V30 3434 C 318.258 -1.46105 -0.718126 0
M  V30 3435 O 319.447 -1.69335 -0.564608 0
M  V30 3436 C 316.547 -3.24473 -0.978292 0
M  V30 3437 C 315.72 -4.36423 -0.292115 0
M  V30 3438 C 314.779 -5.12122 -1.20901 0
M  V30 3439 O 313.805 -5.64981 -0.691766 0
M  V30 3440 N 315.007 -5.21992 -2.53978 0
M  V30 3441 H 317.772 -2.88909 0.796984 0
M  V30 3442 H 315.333 -1.51569 0.569068 0
M  V30 3443 H 317.325 -3.71987 -1.59398 0
M  V30 3444 H 315.895 -2.65871 -1.64413 0
M  V30 3445 H 315.115 -3.90967 0.503847 0
M  V30 3446 H 316.403 -5.08467 0.183971 0
M  V30 3447 H 315.801 -4.8054 -2.98493 0
M  V30 3448 H 314.358 -5.72995 -3.10677 0
M  V30 3449 N 317.792 -0.46758 -1.50504 0
M  V30 3450 C 319.069 0.15003 -1.95024 0
M  V30 3451 C 319.449 1.57304 -1.40779 0
M  V30 3452 O 318.797 2.20281 -0.607319 0
M  V30 3453 C 319.007 0.0969324 -3.48865 0
M  V30 3454 C 320.355 0.287565 -4.23625 0
M  V30 3455 O 321.379 0.173678 -3.55776 0
M  V30 3456 O 320.238 0.517186 -5.44047 0
M  V30 3457 H 317.332 0.113582 -0.819163 0
M  V30 3458 H 319.878 -0.52773 -1.61286 0
M  V30 3459 H 318.65 -0.896732 -3.80886 0
M  V30 3460 H 318.273 0.816303 -3.8913 0
M  V30 3461 N 319.27 1.56325 -0.20005 0
M  V30 3462 C 320.519 1.96895 0.437652 0
M  V30 3463 C 320.832 1.08999 1.62415 0
M  V30 3464 O 322.038 1.39372 2.32997 0
M  V30 3465 C 320.494 3.50198 0.830025 0
M  V30 3466 C 320.102 4.46765 -0.332461 0
M  V30 3467 C 321.846 3.99526 1.43453 0
M  V30 3468 C 319.753 5.91344 0.0811468 0
M  V30 3469 H 318.683 0.735209 0.167282 0
M  V30 3470 H 321.334 1.81148 -0.292853 0
M  V30 3471 H 319.716 3.61467 1.61734 0
M  V30 3472 H 320.89 4.47231 -1.11 0
M  V30 3473 H 319.205 4.07657 -0.848789 0
M  V30 3474 H 321.802 5.05025 1.75652 0
M  V30 3475 H 322.145 3.44122 2.34277 0
M  V30 3476 H 322.678 3.91393 0.71109 0
M  V30 3477 H 319.417 6.50685 -0.793033 0
M  V30 3478 H 318.937 5.94121 0.823445 0
M  V30 3479 H 320.616 6.44945 0.515252 0
M  V30 3480 N 320.748 -0.0735177 1.57428 0
M  V30 3481 C 321.996 -0.771472 1.86796 0
M  V30 3482 C 322.317 -1.78201 0.791804 0
M  V30 3483 O 321.587 -1.95074 -0.179718 0
M  V30 3484 H 320.167 -0.28791 0.689287 0
M  V30 3485 H 322.829 -0.0500161 1.94836 0
M  V30 3486 H 321.925 -1.28874 2.8425 0
M  V30 3487 N 322.226 -1.5378 -0.344866 0
M  V30 3488 C 323.173 -1.81676 -1.42346 0
M  V30 3489 C 324.143 -0.662376 -1.52321 0
M  V30 3490 O 325.328 -0.906675 -1.67881 0
M  V30 3491 C 322.468 -2.03087 -2.79015 0
M  V30 3492 C 321.581 -3.30799 -2.77842 0
M  V30 3493 C 320.716 -3.42285 -4.0622 0
M  V30 3494 C 319.755 -4.6395 -3.9927 0
M  V30 3495 N 318.892 -4.72477 -5.19336 0
M  V30 3496 H 323.732 -2.73703 -1.17858 0
M  V30 3497 H 321.269 -1.35568 -0.570949 0
M  V30 3498 H 323.227 -2.1349 -3.58438 0
M  V30 3499 H 321.857 -1.14375 -3.01858 0
M  V30 3500 H 320.909 -3.29244 -1.90533 0
M  V30 3501 H 322.221 -4.20314 -2.68584 0
M  V30 3502 H 321.375 -3.52113 -4.94066 0
M  V30 3503 H 320.114 -2.50823 -4.18258 0
M  V30 3504 H 319.119 -4.54201 -3.09809 0
M  V30 3505 H 320.344 -5.56775 -3.88817 0
M  V30 3506 H 318.29 -3.83924 -5.3192 0
M  V30 3507 H 318.207 -5.55927 -5.12329 0
M  V30 3508 H 319.475 -4.86613 -6.08957 0
M  V30 3509 N 323.704 0.605807 -1.45491 0
M  V30 3510 C 324.929 1.39625 -1.53361 0
M  V30 3511 C 325.354 1.87351 -0.167645 0
M  V30 3512 O 324.712 1.60243 0.848051 0
M  V30 3513 C 324.76 2.57559 -2.5238 0
M  V30 3514 O 323.864 3.58248 -2.04285 0
M  V30 3515 H 323.205 0.416771 -0.516912 0
M  V30 3516 H 325.735 0.737103 -1.90861 0
M  V30 3517 H 325.745 3.0478 -2.71244 0
M  V30 3518 H 324.42 2.22171 -3.51586 0
M  V30 3519 H 322.997 3.17664 -1.95305 0
M  V30 3520 N 325.182 1.32811 0.848464 0
M  V30 3521 C 326.412 1.26556 1.63301 0
M  V30 3522 C 326.82 -0.1676 1.88456 0
M  V30 3523 O 326.163 -1.11713 1.45828 0
M  V30 3524 C 326.225 1.96202 3.01239 0
M  V30 3525 C 325.889 3.45528 2.99098 0
M  V30 3526 C 326.886 4.40903 2.75501 0
M  V30 3527 C 324.571 3.87558 3.19537 0
M  V30 3528 C 326.565 5.76282 2.72356 0
M  V30 3529 C 324.252 5.23044 3.16019 0
M  V30 3530 C 325.25 6.17217 2.92458 0
M  V30 3531 O 324.938 7.50223 2.88825 0
M  V30 3532 H 324.67 0.43771 0.515156 0
M  V30 3533 H 327.224 1.7559 1.0657 0
M  V30 3534 H 325.454 1.41746 3.59785 0
M  V30 3535 H 327.143 1.83573 3.62016 0
M  V30 3536 H 327.909 4.09756 2.5947 0
M  V30 3537 H 323.788 3.14674 3.369 0
M  V30 3538 H 327.332 6.4976 2.53886 0
M  V30 3539 H 323.229 5.53818 3.31596 0
M  V30 3540 H 323.997 7.59657 3.04735 0
M  V30 3541 N 326.66 -1.06551 1.16123 0
M  V30 3542 C 327.592 -2.13908 0.823171 0
M  V30 3543 C 328.605 -1.61926 -0.16843 0
M  V30 3544 O 329.794 -1.78412 0.055962 0
M  V30 3545 C 326.894 -3.38283 0.204424 0
M  V30 3546 C 326.067 -4.19589 1.23548 0
M  V30 3547 C 325.126 -5.2233 0.637011 0
M  V30 3548 O 324.152 -5.54034 1.30516 0
M  V30 3549 N 325.354 -5.77621 -0.577474 0
M  V30 3550 H 328.119 -2.43508 1.74711 0
M  V30 3551 H 325.68 -1.2253 1.05821 0
M  V30 3552 H 327.672 -4.0416 -0.208909 0
M  V30 3553 H 326.242 -3.06329 -0.623012 0
M  V30 3554 H 325.462 -3.49406 1.82507 0
M  V30 3555 H 326.75 -4.70718 1.93137 0
M  V30 3556 H 326.148 -5.54125 -1.13853 0
M  V30 3557 H 324.705 -6.45087 -0.933053 0
M  V30 3558 N 328.138 -0.959301 -1.25041 0
M  V30 3559 C 329.384 -0.617525 -1.9317 0
M  V30 3560 C 329.717 0.843981 -1.74902 0
M  V30 3561 O 328.992 1.60615 -1.09696 0
M  V30 3562 C 329.275 -0.982736 -3.46431 0
M  V30 3563 C 329.128 -2.50032 -3.73904 0
M  V30 3564 C 330.447 -0.511176 -4.37121 0
M  V30 3565 H 327.566 -0.22582 -0.701552 0
M  V30 3566 H 330.208 -1.19679 -1.4757 0
M  V30 3567 H 328.358 -0.489806 -3.854 0
M  V30 3568 H 330.03 -3.06737 -3.44544 0
M  V30 3569 H 328.273 -2.93598 -3.19348 0
M  V30 3570 H 328.944 -2.70635 -4.81103 0
M  V30 3571 H 331.42 -0.934075 -4.0548 0
M  V30 3572 H 330.296 -0.795361 -5.43107 0
M  V30 3573 H 330.557 0.588834 -4.38161 0
M  V30 3574 N 329.616 1.39756 -0.72842 0
M  V30 3575 C 330.546 2.33289 -0.0991354 0
M  V30 3576 C 331.527 1.53568 0.731489 0
M  V30 3577 O 332.712 1.81987 0.677807 0
M  V30 3578 C 329.842 3.3763 0.813834 0
M  V30 3579 C 328.796 4.2791 0.0878663 0
M  V30 3580 C 328.122 5.22894 1.11741 0
M  V30 3581 C 329.422 5.11314 -1.06563 0
M  V30 3582 H 331.116 2.86163 -0.880408 0
M  V30 3583 H 328.662 1.37591 -0.424819 0
M  V30 3584 H 330.615 4.0201 1.26355 0
M  V30 3585 H 329.339 2.83181 1.62715 0
M  V30 3586 H 327.998 3.65 -0.342159 0
M  V30 3587 H 327.646 4.64744 1.92412 0
M  V30 3588 H 327.346 5.84143 0.636477 0
M  V30 3589 H 328.87 5.90151 1.56697 0
M  V30 3590 H 330.284 5.69076 -0.694671 0
M  V30 3591 H 328.681 5.81671 -1.47577 0
M  V30 3592 H 329.751 4.46534 -1.89038 0
M  V30 3593 N 331.094 0.475555 1.50254 0
M  V30 3594 C 332.026 -0.352649 2.26471 0
M  V30 3595 C 333.039 -0.953165 1.3198 0
M  V30 3596 O 334.228 -0.840815 1.57457 0
M  V30 3597 C 331.328 -1.50902 3.0345 0
M  V30 3598 C 330.501 -1.02047 4.25329 0
M  V30 3599 C 329.56 -2.05142 4.84565 0
M  V30 3600 O 328.586 -1.63023 5.45355 0
M  V30 3601 N 329.788 -3.37987 4.71959 0
M  V30 3602 H 332.553 0.300767 2.98187 0
M  V30 3603 H 330.114 0.306598 1.5897 0
M  V30 3604 H 332.106 -2.19572 3.39956 0
M  V30 3605 H 330.676 -2.06705 2.34504 0
M  V30 3606 H 329.896 -0.159507 3.93877 0
M  V30 3607 H 331.184 -0.672061 5.04342 0
M  V30 3608 H 330.582 -3.74913 4.23623 0
M  V30 3609 H 329.139 -4.02443 5.12721 0
M  V30 3610 N 332.573 -1.56217 0.208337 0
M  V30 3611 C 333.822 -1.97124 -0.427204 0
M  V30 3612 C 334.135 -1.09859 -1.61835 0
M  V30 3613 O 335.341 -1.40606 -2.32255 0
M  V30 3614 C 333.797 -3.50633 -0.811442 0
M  V30 3615 C 333.405 -4.46582 0.35615 0
M  V30 3616 C 335.149 -4.00282 -1.41332 0
M  V30 3617 C 333.056 -5.91379 -0.0497852 0
M  V30 3618 H 331.986 -0.736086 -0.163381 0
M  V30 3619 H 334.637 -1.8099 0.302456 0
M  V30 3620 H 333.019 -3.62319 -1.59815 0
M  V30 3621 H 334.193 -4.46636 1.1337 0
M  V30 3622 H 332.508 -4.07202 0.870396 0
M  V30 3623 H 335.105 -5.0595 -1.72972 0
M  V30 3624 H 335.448 -3.45359 -2.32449 0
M  V30 3625 H 335.981 -3.91764 -0.690323 0
M  V30 3626 H 332.72 -6.50255 0.827529 0
M  V30 3627 H 332.24 -5.94549 -0.791926 0
M  V30 3628 H 333.919 -6.45209 -0.481042 0
M  V30 3629 N 334.051 0.0651679 -1.57465 0
M  V30 3630 C 335.299 0.761555 -1.87202 0
M  V30 3631 C 335.62 1.77778 -0.801243 0
M  V30 3632 O 334.89 1.95166 0.16937 0
M  V30 3633 H 333.47 0.284251 -0.690804 0
M  V30 3634 H 336.132 0.0396827 -1.9486 0
M  V30 3635 H 335.228 1.27365 -2.84929 0
M  V30 3636 N 335.529 1.53961 0.336706 0
M  V30 3637 C 336.778 1.70751 1.07363 0
M  V30 3638 C 337.091 0.481061 1.89592 0
M  V30 3639 O 338.297 0.530046 2.66276 0
M  V30 3640 C 336.753 3.01965 1.95818 0
M  V30 3641 C 336.361 4.31971 1.18764 0
M  V30 3642 C 338.105 3.28121 2.69327 0
M  V30 3643 C 336.012 5.54255 2.06289 0
M  V30 3644 H 334.942 0.636292 0.404535 0
M  V30 3645 H 337.593 1.80459 0.332681 0
M  V30 3646 H 335.975 2.86132 2.7376 0
M  V30 3647 H 337.149 4.5853 0.456849 0
M  V30 3648 H 335.464 4.12481 0.569946 0
M  V30 3649 H 338.061 4.16673 3.35094 0
M  V30 3650 H 338.404 2.45426 3.36261 0
M  V30 3651 H 338.937 3.44762 1.98454 0
M  V30 3652 H 335.676 6.39513 1.43885 0
M  V30 3653 H 335.196 5.31935 2.77138 0
M  V30 3654 H 336.875 5.90159 2.65182 0
M  V30 3655 N 337.007 -0.598083 1.45811 0
M  V30 3656 C 338.256 -1.35295 1.49594 0
M  V30 3657 C 338.569 -1.95057 0.145679 0
M  V30 3658 O 339.775 -2.71431 0.0612099 0
M  V30 3659 C 338.231 -2.45124 2.63519 0
M  V30 3660 C 337.839 -1.91732 4.04899 0
M  V30 3661 C 339.583 -3.2205 2.76558 0
M  V30 3662 C 337.49 -2.991 5.1019 0
M  V30 3663 H 336.42 -0.508552 0.556679 0
M  V30 3664 H 339.071 -0.639977 1.71978 0
M  V30 3665 H 337.453 -3.19149 2.34435 0
M  V30 3666 H 338.627 -1.24352 4.43704 0
M  V30 3667 H 336.942 -1.27522 3.96393 0
M  V30 3668 H 339.539 -4.0215 3.52391 0
M  V30 3669 H 339.882 -3.73663 1.83526 0
M  V30 3670 H 340.415 -2.55127 3.05213 0
M  V30 3671 H 337.154 -2.52393 6.04961 0
M  V30 3672 H 336.674 -3.65017 4.75944 0
M  V30 3673 H 338.353 -3.63318 5.35359 0
M  V30 3674 N 338.485 -1.33259 -0.841409 0
M  V30 3675 C 339.713 -1.27605 -1.62864 0
M  V30 3676 C 340.128 0.153507 -1.88175 0
M  V30 3677 O 339.485 1.09485 -1.46011 0
M  V30 3678 C 339.536 -2.04596 -2.98031 0
M  V30 3679 O 339.257 -3.41975 -2.73834 0
M  V30 3680 C 340.758 -2.06122 -3.92465 0
M  V30 3681 H 337.978 -0.439718 -0.506842 0
M  V30 3682 H 340.522 -1.75591 -1.04824 0
M  V30 3683 H 338.677 -1.60299 -3.5268 0
M  V30 3684 H 339.091 -3.81549 -3.59889 0
M  V30 3685 H 340.565 -2.64451 -4.84531 0
M  V30 3686 H 341.042 -1.05083 -4.26444 0
M  V30 3687 H 341.648 -2.50427 -3.43753 0
M  V30 3688 N 339.963 1.05934 -1.16686 0
M  V30 3689 C 341.209 1.79065 -0.95203 0
M  V30 3690 C 341.542 1.87147 0.518629 0
M  V30 3691 O 340.817 1.36574 1.38484 0
M  V30 3692 C 341.1 3.23359 -1.58464 0
M  V30 3693 C 340.953 3.23336 -3.12689 0
M  V30 3694 C 342.272 4.21004 -1.28232 0
M  V30 3695 H 339.391 0.65005 -0.34728 0
M  V30 3696 H 342.033 1.23868 -1.44072 0
M  V30 3697 H 340.183 3.70493 -1.16908 0
M  V30 3698 H 341.855 2.84336 -3.6325 0
M  V30 3699 H 340.098 2.61886 -3.4583 0
M  V30 3700 H 340.769 4.25144 -3.52075 0
M  V30 3701 H 343.245 3.8233 -1.64203 0
M  V30 3702 H 342.121 5.20225 -1.75092 0
M  V30 3703 H 342.382 4.41639 -0.201791 0
M  V30 3704 N 341.441 0.965919 1.2453 0
M  V30 3705 C 342.389 0.486506 2.27455 0
M  V30 3706 C 343.383 -0.449041 1.6334 0
M  V30 3707 O 344.589 -0.324527 1.7705 0
M  V30 3708 H 340.964 0.138857 0.739069 0
M  V30 3709 H 342.935 1.3666 2.65267 0
M  V30 3710 C 341.684 -0.209481 3.47068 0
M  V30 3711 H 341.007 0.50129 3.96645 0
M  V30 3712 H 342.447 -0.508775 4.20936 0
M  V30 3713 C 340.906 -1.43586 3.0477 0
M  V30 3714 O 341.436 -2.53299 3.11773 0
M  V30 3715 N 339.642 -1.30126 2.59838 0
M  V30 3716 H 339.189 -0.408583 2.54339 0
M  V30 3717 H 339.147 -2.12294 2.31902 0
M  V30 3718 N 342.919 -1.39368 0.735821 0
M  V30 3719 C 344.144 -2.05319 0.293052 0
M  V30 3720 C 344.569 -1.55115 -1.064 0
M  V30 3721 O 343.927 -0.695261 -1.67439 0
M  V30 3722 C 343.975 -3.59305 0.305323 0
M  V30 3723 O 343.079 -4.06299 -0.706761 0
M  V30 3724 H 342.42 -0.650529 0.13307 0
M  V30 3725 H 344.95 -1.78386 1.00197 0
M  V30 3726 H 344.96 -4.07724 0.149997 0
M  V30 3727 H 343.635 -3.95207 1.29553 0
M  V30 3728 H 342.212 -3.69292 -0.517504 0
M  V30 3729 N 344.397 -0.483516 -1.5 0
M  V30 3730 C 345.674 0.129337 -1.95172 0
M  V30 3731 C 346.054 1.55802 -1.4244 0
M  V30 3732 O 345.402 2.19625 -0.630649 0
M  V30 3733 C 345.612 0.0599251 -3.48949 0
M  V30 3734 C 346.96 0.242617 -4.23906 0
M  V30 3735 O 347.984 0.135933 -3.55941 0
M  V30 3736 O 346.843 0.459454 -5.44565 0
M  V30 3737 H 343.937 0.104887 -0.820322 0
M  V30 3738 H 346.483 -0.544807 -1.60717 0
M  V30 3739 H 345.255 -0.937079 -3.79914 0
M  V30 3740 H 344.878 0.774984 -3.89974 0
M  V30 3741 N 345.875 1.56104 -0.216619 0
M  V30 3742 C 346.805 2.23063 0.690296 0
M  V30 3743 C 347.786 1.20072 1.20485 0
M  V30 3744 O 348.971 1.48643 1.24976 0
M  V30 3745 C 346.101 2.90672 1.90072 0
M  V30 3746 C 345.055 4.00092 1.5202 0
M  V30 3747 C 344.381 4.54972 2.80899 0
M  V30 3748 C 345.681 5.17398 0.71391 0
M  V30 3749 H 347.375 2.99109 0.132038 0
M  V30 3750 H 344.921 1.43866 0.0620664 0
M  V30 3751 H 346.874 3.36204 2.54057 0
M  V30 3752 H 345.598 2.12066 2.48386 0
M  V30 3753 H 344.257 3.55283 0.903839 0
M  V30 3754 H 343.905 3.73102 3.37348 0
M  V30 3755 H 343.605 5.28817 2.56176 0
M  V30 3756 H 345.129 5.0322 3.45836 0
M  V30 3757 H 346.543 5.59342 1.25735 0
M  V30 3758 H 344.94 5.97444 0.563951 0
M  V30 3759 H 346.01 4.84088 -0.280527 0
M  V30 3760 N 347.353 -0.0568162 1.57498 0
M  V30 3761 C 348.599 -0.75422 1.88253 0
M  V30 3762 C 348.932 -1.76461 0.810865 0
M  V30 3763 O 348.207 -1.93691 -0.177259 0
M  V30 3764 C 348.49 -1.44878 3.2967 0
M  V30 3765 C 348.343 -0.453789 4.47505 0
M  V30 3766 C 349.662 -2.38994 3.69554 0
M  V30 3767 H 346.781 -0.272724 0.684683 0
M  V30 3768 H 349.423 -0.0172113 1.89992 0
M  V30 3769 H 347.573 -2.077 3.28318 0
M  V30 3770 H 349.245 0.170371 4.60985 0
M  V30 3771 H 347.488 0.229552 4.33192 0
M  V30 3772 H 348.159 -0.977699 5.43273 0
M  V30 3773 H 350.635 -1.86239 3.72095 0
M  V30 3774 H 349.511 -2.84587 4.69363 0
M  V30 3775 H 349.772 -3.24461 3.00296 0
M  V30 3776 N 348.832 -1.54138 -0.328536 0
M  V30 3777 C 350.243 -1.63395 -0.903272 0
M  V30 3778 C 350.594 -0.524828 -1.8905 0
M  V30 3779 O 349.719 0.343068 -2.13663 0
M  V30 3780 C 350.314 -2.9618 -1.64507 0
M  V30 3781 C 348.873 -3.0765 -2.1686 0
M  V30 3782 C 348.02 -2.58933 -0.992416 0
M  V30 3783 H 350.971 -1.58344 -0.106253 0
M  V30 3784 H 350.992 -2.86061 -2.50897 0
M  V30 3785 H 350.504 -3.76884 -0.926302 0
M  V30 3786 H 348.605 -2.31611 -2.91868 0
M  V30 3787 H 348.718 -4.1337 -2.42202 0
M  V30 3788 H 347.082 -2.14706 -1.37016 0
M  V30 3789 H 347.865 -3.42089 -0.288041 0
M  V30 3790 N 350.31 0.590341 -1.46126 0
M  V30 3791 C 351.587 1.35029 -1.41515 0
M  V30 3792 C 351.967 2.10888 -0.0946472 0
M  V30 3793 O 351.315 2.08998 0.923693 0
M  V30 3794 C 351.525 2.28269 -2.63997 0
M  V30 3795 C 352.873 2.90338 -3.09821 0
M  V30 3796 O 353.897 2.38585 -2.64492 0
M  V30 3797 O 352.756 3.84321 -3.88535 0
M  V30 3798 H 349.85 0.606317 -0.562413 0
M  V30 3799 H 352.396 0.611994 -1.58281 0
M  V30 3800 H 351.168 1.71591 -3.51671 0
M  V30 3801 H 350.791 3.0945 -2.49652 0
M  V30 3802 N 351.788 1.33704 0.83433 0
M  V30 3803 C 352.718 1.26967 1.95963 0
M  V30 3804 C 353.699 0.149337 1.69443 0
M  V30 3805 O 354.884 0.339852 1.91203 0
M  V30 3806 C 352.014 1.01275 3.32206 0
M  V30 3807 C 350.968 2.09652 3.73136 0
M  V30 3808 C 350.294 1.69166 5.07235 0
M  V30 3809 C 351.594 3.51372 3.86439 0
M  V30 3810 H 353.288 2.2112 2.01857 0
M  V30 3811 H 350.834 1.06447 0.969793 0
M  V30 3812 H 352.787 0.952106 4.10503 0
M  V30 3813 H 351.511 0.0356203 3.26581 0
M  V30 3814 H 350.17 2.14766 2.97104 0
M  V30 3815 H 349.818 0.701437 4.98085 0
M  V30 3816 H 349.518 2.41694 5.35591 0
M  V30 3817 H 351.042 1.64576 5.88003 0
M  V30 3818 H 352.456 3.48734 4.55036 0
M  V30 3819 H 350.853 4.22425 4.26236 0
M  V30 3820 H 351.923 3.89546 2.88759 0
M  V30 3821 N 353.266 -1.05314 1.17247 0
M  V30 3822 C 354.214 -2.15137 0.884238 0
M  V30 3823 C 355.208 -1.68729 -0.15063 0
M  V30 3824 O 356.414 -1.8 -0.00366673 0
M  V30 3825 H 352.789 -0.702471 0.2684 0
M  V30 3826 H 354.76 -2.36652 1.81764 0
M  V30 3827 C 353.509 -3.45243 0.412659 0
M  V30 3828 H 352.832 -3.81352 1.20043 0
M  V30 3829 H 354.272 -4.23263 0.249858 0
M  V30 3830 C 352.731 -3.25487 -0.86948 0
M  V30 3831 O 353.261 -3.51938 -1.93655 0
M  V30 3832 N 351.467 -2.78875 -0.817147 0
M  V30 3833 H 351.014 -2.57549 0.0514211 0
M  V30 3834 H 350.972 -2.66036 -1.67547 0
M  V30 3835 N 354.744 -0.972509 -1.24016 0
M  V30 3836 C 356.155 -0.67517 -1.74064 0
M  V30 3837 C 356.506 0.808939 -1.78747 0
M  V30 3838 O 355.631 1.63286 -1.42009 0
M  V30 3839 C 356.226 -1.21889 -3.16115 0
M  V30 3840 C 354.785 -0.971358 -3.6365 0
M  V30 3841 C 353.932 -1.35134 -2.42145 0
M  V30 3842 H 356.883 -1.14727 -1.09651 0
M  V30 3843 H 356.904 -0.587489 -3.75937 0
M  V30 3844 H 356.416 -2.29906 -3.12674 0
M  V30 3845 H 354.517 0.0930686 -3.72484 0
M  V30 3846 H 354.63 -1.62039 -4.50866 0
M  V30 3847 H 352.994 -0.769751 -2.4279 0
M  V30 3848 H 353.777 -2.4411 -2.41381 0
M  V30 3849 N 356.222 1.38976 -0.743202 0
M  V30 3850 C 357.638 1.53984 -0.419664 0
M  V30 3851 C 357.838 1.70837 1.0685 0
M  V30 3852 O 356.894 1.7135 1.8546 0
M  V30 3853 C 358.207 2.75287 -1.20985 0
M  V30 3854 C 359.755 2.89129 -1.19889 0
M  V30 3855 C 360.23 4.13381 -1.97181 0
M  V30 3856 N 361.721 4.20437 -1.94389 0
M  V30 3857 C 362.456 5.15547 -2.50996 0
M  V30 3858 N 361.952 6.16395 -3.16274 0
M  V30 3859 N 363.745 5.07822 -2.40984 0
M  V30 3860 H 355.896 1.26285 -1.7078 0
M  V30 3861 H 358.159 0.612689 -0.723406 0
M  V30 3862 H 357.865 2.69204 -2.26323 0
M  V30 3863 H 357.739 3.68184 -0.819759 0
M  V30 3864 H 360.126 2.947 -0.153606 0
M  V30 3865 H 360.207 1.97272 -1.62841 0
M  V30 3866 H 359.851 4.08572 -3.01714 0
M  V30 3867 H 359.781 5.04298 -1.51629 0
M  V30 3868 H 362.272 3.48205 -1.46839 0
M  V30 3869 H 362.585 6.85443 -3.56915 0
M  V30 3870 H 360.93 6.16758 -3.20367 0
M  V30 3871 H 364.121 4.27973 -1.89622 0
M  V30 3872 H 364.294 5.81767 -2.85397 0
M  V30 3873 N 357.7 0.491464 1.49741 0
M  V30 3874 C 358.949 -0.0582189 2.01616 0
M  V30 3875 C 359.262 -1.38927 1.3769 0
M  V30 3876 O 360.468 -2.02509 1.80838 0
M  V30 3877 C 358.924 -0.154235 3.59569 0
M  V30 3878 C 358.532 1.1696 4.32463 0
M  V30 3879 C 360.276 -0.65479 4.1942 0
M  V30 3880 C 358.183 1.03627 5.8225 0
M  V30 3881 H 357.113 -0.0255317 0.753568 0
M  V30 3882 H 359.764 0.629445 1.72367 0
M  V30 3883 H 358.146 -0.906138 3.85493 0
M  V30 3884 H 359.32 1.93405 4.18248 0
M  V30 3885 H 357.635 1.60285 3.84315 0
M  V30 3886 H 360.232 -0.771903 5.29099 0
M  V30 3887 H 360.575 -1.65127 3.8215 0
M  V30 3888 H 361.108 0.040304 3.9778 0
M  V30 3889 H 357.847 2.00672 6.24028 0
M  V30 3890 H 357.367 0.312546 5.98985 0
M  V30 3891 H 359.046 0.711114 6.4308 0
M  V30 3892 N 359.178 -1.55987 0.224894 0
M  V30 3893 C 360.403 -2.03232 -0.41369 0
M  V30 3894 C 360.828 -1.10359 -1.52323 0
M  V30 3895 O 360.186 -0.092395 -1.81064 0
M  V30 3896 C 360.234 -3.48682 -0.919405 0
M  V30 3897 O 359.338 -3.58947 -2.03054 0
M  V30 3898 H 358.679 -0.657428 -0.0931903 0
M  V30 3899 H 361.209 -2.01679 0.34451 0
M  V30 3900 H 361.219 -3.8907 -1.22835 0
M  V30 3901 H 359.894 -4.15761 -0.107339 0
M  V30 3902 H 358.471 -3.30448 -1.72796 0
M  V30 3903 N 360.656 0.0484629 -1.57525 0
M  V30 3904 C 361.606 1.06246 -2.01732 0
M  V30 3905 C 362.59 1.33155 -0.903245 0
M  V30 3906 O 363.782 1.33065 -1.16717 0
M  V30 3907 C 360.911 2.36943 -2.48421 0
M  V30 3908 C 359.997 2.13208 -3.6661 0
M  V30 3909 N 360.388 1.5947 -4.80003 0
M  V30 3910 C 358.686 2.43581 -3.7361 0
M  V30 3911 C 359.387 1.51092 -5.61735 0
M  V30 3912 N 358.363 1.9797 -5.0627 0
M  V30 3913 H 362.165 0.640675 -2.86832 0
M  V30 3914 H 359.679 0.255134 -1.60383 0
M  V30 3915 H 361.676 3.10374 -2.78341 0
M  V30 3916 H 360.336 2.79818 -1.64718 0
M  V30 3917 H 361.347 1.28008 -5.01831 0
M  V30 3918 H 358.024 2.89662 -3.00669 0
M  V30 3919 H 359.414 1.10199 -6.62801 0
M  V30 3920 N 362.134 1.5431 0.320358 0
M  V30 3921 C 363.362 1.76636 1.07738 0
M  V30 3922 C 363.777 0.51649 1.81598 0
M  V30 3923 O 363.134 -0.512942 1.75143 0
M  V30 3924 C 363.185 2.96158 2.07299 0
M  V30 3925 O 362.906 4.16313 1.36438 0
M  V30 3926 C 364.407 3.3072 2.95193 0
M  V30 3927 H 361.627 0.589597 0.320339 0
M  V30 3928 H 364.171 2.01207 0.36551 0
M  V30 3929 H 362.326 2.73851 2.74016 0
M  V30 3930 H 362.74 4.83565 2.03138 0
M  V30 3931 H 364.214 4.17643 3.60941 0
M  V30 3932 H 364.691 2.48026 3.62463 0
M  V30 3933 H 365.297 3.55117 2.34034 0
M  V30 3934 N 363.613 -0.582584 1.46437 0
M  V30 3935 C 364.86 -1.34079 1.51753 0
M  V30 3936 C 365.188 -1.93762 0.169299 0
M  V30 3937 O 364.443 -1.76989 -0.835062 0
M  V30 3938 C 364.742 -2.48964 2.56421 0
M  V30 3939 C 364.408 -2.07273 4.00436 0
M  V30 3940 C 363.07 -1.95618 4.39644 0
M  V30 3941 C 365.422 -1.75111 4.90903 0
M  V30 3942 C 362.75 -1.5006 5.67185 0
M  V30 3943 C 365.102 -1.31032 6.18881 0
M  V30 3944 C 363.766 -1.17954 6.56996 0
M  V30 3945 H 363.036 -0.49063 0.555304 0
M  V30 3946 H 365.683 -0.656007 1.79913 0
M  V30 3947 H 363.988 -3.22889 2.21923 0
M  V30 3948 H 365.685 -3.07178 2.57765 0
M  V30 3949 H 362.275 -2.17279 3.69443 0
M  V30 3950 H 366.459 -1.83001 4.61329 0
M  V30 3951 H 361.715 -1.38577 5.95488 0
M  V30 3952 H 365.889 -1.052 6.88408 0
M  V30 3953 H 363.516 -0.824279 7.55718 0
M  V30 3954 N 365.091 -1.34144 -0.827227 0
M  V30 3955 C 366.039 -1.25364 -1.95925 0
M  V30 3956 C 367.033 -0.152608 -1.68711 0
M  V30 3957 O 368.239 -0.317311 -1.77181 0
M  V30 3958 H 364.614 -0.389342 -0.643364 0
M  V30 3959 H 366.585 -2.21045 -2.00454 0
M  V30 3960 C 365.334 -1.02158 -3.32354 0
M  V30 3961 H 364.657 -1.86111 -3.5384 0
M  V30 3962 H 366.097 -1.00048 -4.12027 0
M  V30 3963 C 364.556 0.275244 -3.35774 0
M  V30 3964 O 365.086 1.27806 -3.80826 0
M  V30 3965 N 363.292 0.306853 -2.88975 0
M  V30 3966 H 362.839 -0.509777 -2.52506 0
M  V30 3967 H 362.797 1.17432 -2.91646 0
M  V30 3968 N 366.569 1.04691 -1.17803 0
M  V30 3969 C 367.818 1.77176 -0.963931 0
M  V30 3970 C 368.131 1.88888 0.508015 0
M  V30 3971 O 369.337 2.58164 0.840465 0
M  V30 3972 C 367.793 3.18518 -1.67555 0
M  V30 3973 C 367.401 3.14919 -3.18637 0
M  V30 3974 C 369.145 3.95424 -1.54402 0
M  V30 3975 C 367.052 4.51081 -3.82466 0
M  V30 3976 H 365.982 0.664116 -0.357023 0
M  V30 3977 H 368.633 1.17303 -1.4111 0
M  V30 3978 H 367.015 3.78748 -1.15613 0
M  V30 3979 H 368.189 2.64178 -3.77554 0
M  V30 3980 H 366.504 2.51512 -3.31859 0
M  V30 3981 H 369.101 4.96106 -1.99456 0
M  V30 3982 H 369.444 4.13343 -0.495329 0
M  V30 3983 H 369.977 3.41754 -2.0359 0
M  V30 3984 H 366.716 4.38368 -4.87354 0
M  V30 3985 H 366.236 5.01951 -3.28337 0
M  V30 3986 H 367.915 5.2001 -3.84965 0
M  V30 3987 N 368.047 0.979072 1.23499 0
M  V30 3988 C 368.995 0.510604 2.26926 0
M  V30 3989 C 369.989 -0.431691 1.63807 0
M  V30 3990 O 371.195 -0.30573 1.77385 0
M  V30 3991 H 367.57 0.146688 0.737554 0
M  V30 3992 H 369.541 1.39466 2.63803 0
M  V30 3993 C 368.29 -0.172658 3.47271 0
M  V30 3994 H 367.613 0.543331 3.96091 0
M  V30 3995 H 369.053 -0.464101 4.21452 0
M  V30 3996 C 367.512 -1.40345 3.06276 0
M  V30 3997 O 368.042 -2.49978 3.14442 0
M  V30 3998 N 366.248 -1.27362 2.61203 0
M  V30 3999 H 365.795 -0.381584 2.54758 0
M  V30 4000 H 365.753 -2.09822 2.34141 0
M  V30 4001 N 369.525 -1.3858 0.750561 0
M  V30 4002 C 370.802 -1.94231 0.231009 0
M  V30 4003 C 371.182 -1.68611 -1.27018 0
M  V30 4004 O 370.53 -1.02296 -2.04323 0
M  V30 4005 C 370.74 -3.44123 0.581428 0
M  V30 4006 C 372.088 -4.2116 0.539389 0
M  V30 4007 O 373.112 -3.52391 0.519541 0
M  V30 4008 O 371.971 -5.43749 0.54765 0
M  V30 4009 H 369.065 -0.825639 0.0474263 0
M  V30 4010 H 371.611 -1.4799 0.830478 0
M  V30 4011 H 370.383 -3.56267 1.61833 0
M  V30 4012 H 370.006 -3.97573 -0.0462047 0
M  V30 4013 N 371.003 -0.499398 -1.49478 0
M  V30 4014 C 371.951 0.293604 -2.3074 0
M  V30 4015 C 372.945 0.96427 -1.39277 0
M  V30 4016 O 374.151 0.892141 -1.56336 0
M  V30 4017 H 370.526 0.113541 -0.743379 0
M  V30 4018 H 372.497 -0.411772 -2.95545 0
M  V30 4019 C 371.246 1.3462 -3.20582 0
M  V30 4020 H 370.569 0.83954 -3.90886 0
M  V30 4021 H 372.009 1.87308 -3.80384 0
M  V30 4022 C 370.468 2.36351 -2.40083 0
M  V30 4023 O 370.998 3.422 -2.10385 0
M  V30 4024 N 369.204 2.0878 -2.02137 0
M  V30 4025 H 368.751 1.22723 -2.26488 0
M  V30 4026 H 368.709 2.77075 -1.48583 0
M  V30 4027 N 372.481 1.55866 -0.233164 0
M  V30 4028 C 373.897 1.59133 0.121988 0
M  V30 4029 C 374.097 1.25016 1.58029 0
M  V30 4030 O 373.153 0.990922 2.32243 0
M  V30 4031 C 374.466 2.99932 -0.214792 0
M  V30 4032 C 376.014 3.12601 -0.157971 0
M  V30 4033 C 376.489 4.55597 -0.46859 0
M  V30 4034 N 377.98 4.61305 -0.418585 0
M  V30 4035 C 378.715 5.69903 -0.63227 0
M  V30 4036 N 378.211 6.86819 -0.90835 0
M  V30 4037 N 380.004 5.59264 -0.563913 0
M  V30 4038 H 372.155 1.76315 -1.18434 0
M  V30 4039 H 374.418 0.820093 -0.475553 0
M  V30 4040 H 374.124 3.29588 -1.22739 0
M  V30 4041 H 373.998 3.74327 0.464691 0
M  V30 4042 H 376.385 2.82735 0.845283 0
M  V30 4043 H 376.466 2.40511 -0.871102 0
M  V30 4044 H 376.11 4.86182 -1.46934 0
M  V30 4045 H 376.04 5.25928 0.265865 0
M  V30 4046 H 378.531 3.77297 -0.213368 0
M  V30 4047 H 378.844 7.65507 -1.05919 0
M  V30 4048 H 377.189 6.88536 -0.945673 0
M  V30 4049 H 380.38 4.66802 -0.348372 0
M  V30 4050 H 380.553 6.43831 -0.733847 0
M  V30 4051 N 373.959 -0.0401083 1.57549 0
M  V30 4052 C 374.906 -1.04413 2.05831 0
M  V30 4053 C 375.876 -1.36585 0.945184 0
M  V30 4054 O 377.061 -1.47112 1.21502 0
M  V30 4055 C 374.201 -2.34336 2.53339 0
M  V30 4056 C 373.314 -2.08419 3.78398 0
M  V30 4057 C 372.449 -3.32133 4.14561 0
M  V30 4058 C 371.488 -3.01721 5.3257 0
M  V30 4059 N 370.625 -4.17855 5.64218 0
M  V30 4060 H 375.465 -0.625442 2.91363 0
M  V30 4061 H 373.002 -0.297218 1.44066 0
M  V30 4062 H 374.96 -3.10234 2.78946 0
M  V30 4063 H 373.59 -2.73948 1.7074 0
M  V30 4064 H 372.642 -1.23069 3.59942 0
M  V30 4065 H 373.954 -1.81978 4.64419 0
M  V30 4066 H 373.108 -4.16406 4.41238 0
M  V30 4067 H 371.847 -3.61678 3.2717 0
M  V30 4068 H 370.852 -2.15849 5.05657 0
M  V30 4069 H 372.077 -2.73466 6.21605 0
M  V30 4070 H 370.023 -4.47372 4.79786 0
M  V30 4071 H 369.94 -3.94798 6.44725 0
M  V30 4072 H 371.208 -5.03033 5.95465 0
M  V30 4073 N 375.437 -1.54477 -0.31217 0
M  V30 4074 C 376.662 -1.77526 -1.07235 0
M  V30 4075 C 377.087 -0.527775 -1.80544 0
M  V30 4076 O 376.445 0.52121 -1.73646 0
M  V30 4077 C 376.493 -2.97535 -2.03728 0
M  V30 4078 O 375.597 -2.69878 -3.11833 0
M  V30 4079 H 374.938 -0.58792 -0.30862 0
M  V30 4080 H 377.468 -2.01532 -0.352993 0
M  V30 4081 H 377.478 -3.25198 -2.46395 0
M  V30 4082 H 376.153 -3.87996 -1.49774 0
M  V30 4083 H 374.73 -2.53199 -2.7376 0
M  V30 4084 N 376.915 0.57481 -1.46744 0
M  V30 4085 C 378.155 1.34369 -1.54027 0
M  V30 4086 C 378.519 1.91051 -0.190642 0
M  V30 4087 O 379.72 2.68444 -0.138255 0
M  V30 4088 C 377.991 2.43706 -2.61423 0
M  V30 4089 S 379.55 3.30915 -2.88167 0
M  V30 4090 H 376.368 0.45768 -0.544105 0
M  V30 4091 H 378.97 0.659959 -1.84024 0
M  V30 4092 H 377.674 2.0047 -3.58106 0
M  V30 4093 H 377.205 3.16842 -2.33184 0
M  V30 4094 H 379.22 4.42742 -2.24039 0
M  V30 4095 N 378.394 1.34581 0.820102 0
M  V30 4096 C 379.619 1.30333 1.61332 0
M  V30 4097 C 380.044 -0.119339 1.87721 0
M  V30 4098 O 379.402 -1.08197 1.45475 0
M  V30 4099 C 379.45 2.10258 2.92957 0
M  V30 4100 O 378.554 1.47404 3.85157 0
M  V30 4101 H 377.895 0.447488 0.490561 0
M  V30 4102 H 380.425 1.77425 1.01889 0
M  V30 4103 H 380.435 2.21718 3.42498 0
M  V30 4104 H 379.11 3.13693 2.73074 0
M  V30 4105 H 377.687 1.44703 3.43679 0
M  V30 4106 N 379.872 -1.04064 1.18357 0
M  V30 4107 C 380.802 -2.14001 0.934113 0
M  V30 4108 C 381.783 -1.69616 -0.128186 0
M  V30 4109 O 382.968 -1.94185 0.0244093 0
M  V30 4110 C 380.098 -3.44253 0.459066 0
M  V30 4111 C 379.052 -4.02261 1.46185 0
M  V30 4112 C 378.378 -5.27992 0.844322 0
M  V30 4113 C 379.678 -4.38432 2.83856 0
M  V30 4114 H 381.372 -2.35127 1.85352 0
M  V30 4115 H 378.918 -1.12998 0.892604 0
M  V30 4116 H 380.871 -4.20522 0.271907 0
M  V30 4117 H 379.595 -3.22813 -0.495912 0
M  V30 4118 H 378.254 -3.28074 1.63595 0
M  V30 4119 H 377.902 -5.02862 -0.117845 0
M  V30 4120 H 377.602 -5.67765 1.51384 0
M  V30 4121 H 379.126 -6.06938 0.667693 0
M  V30 4122 H 380.54 -5.05688 2.70098 0
M  V30 4123 H 378.937 -4.89254 3.47491 0
M  V30 4124 H 380.007 -3.4826 3.37406 0
M  V30 4125 N 381.35 -0.985608 -1.22978 0
M  V30 4126 C 382.313 -0.535071 -2.22867 0
M  V30 4127 C 383.313 0.378123 -1.56291 0
M  V30 4128 O 384.503 0.171092 -1.73358 0
M  V30 4129 C 381.635 0.222702 -3.40172 0
M  V30 4130 H 382.828 -1.41835 -2.6424 0
M  V30 4131 H 380.381 -0.772042 -1.35901 0
M  V30 4132 H 381.116 1.12229 -3.04262 0
M  V30 4133 H 380.901 -0.43288 -3.89703 0
M  V30 4134 H 382.391 0.526335 -4.1427 0
M  V30 4135 N 382.828 1.3818 -0.7579 0
M  V30 4136 C 383.758 2.33027 -0.148597 0
M  V30 4137 C 384.739 1.55085 0.69875 0
M  V30 4138 O 385.924 1.83384 0.639053 0
M  V30 4139 C 383.054 3.3928 0.742034 0
M  V30 4140 C 382.008 4.28 -0.00291946 0
M  V30 4141 C 381.334 5.25146 1.00625 0
M  V30 4142 C 382.634 5.08938 -1.17385 0
M  V30 4143 H 384.328 2.84231 -0.940909 0
M  V30 4144 H 381.874 1.36659 -0.453908 0
M  V30 4145 H 383.827 4.046 1.17799 0
M  V30 4146 H 382.551 2.86569 1.56671 0
M  V30 4147 H 381.21 3.64192 -0.419504 0
M  V30 4148 H 380.858 4.68721 1.8251 0
M  V30 4149 H 380.558 5.85361 0.512428 0
M  V30 4150 H 382.082 5.93342 1.44143 0
M  V30 4151 H 383.496 5.67474 -0.815224 0
M  V30 4152 H 381.893 5.7841 -1.59882 0
M  V30 4153 H 382.963 4.42424 -1.98468 0
M  V30 4154 N 384.306 0.507319 1.49211 0
M  V30 4155 C 385.236 -0.256939 2.32082 0
M  V30 4156 C 386.217 -0.956609 1.40652 0
M  V30 4157 O 387.402 -0.946788 1.69557 0
M  V30 4158 C 384.532 -1.31802 3.21318 0
M  V30 4159 C 383.486 -0.737855 4.21592 0
M  V30 4160 C 382.812 -1.89992 4.99807 0
M  V30 4161 C 384.112 0.275325 5.21574 0
M  V30 4162 H 385.806 0.434798 2.96226 0
M  V30 4163 H 383.352 0.210546 1.42452 0
M  V30 4164 H 385.305 -1.86045 3.78107 0
M  V30 4165 H 384.029 -2.03903 2.5513 0
M  V30 4166 H 382.688 -0.217126 3.65956 0
M  V30 4167 H 382.336 -2.60877 4.30061 0
M  V30 4168 H 382.036 -1.51777 5.6766 0
M  V30 4169 H 383.56 -2.44657 5.59442 0
M  V30 4170 H 384.974 -0.179193 5.7302 0
M  V30 4171 H 383.371 0.573649 5.97352 0
M  V30 4172 H 384.441 1.18903 4.70096 0
M  V30 4173 N 385.784 -1.5574 0.241426 0
M  V30 4174 C 386.732 -2.22538 -0.676718 0
M  V30 4175 C 387.726 -1.21117 -1.18436 0
M  V30 4176 O 388.932 -1.39144 -1.14188 0
M  V30 4177 H 385.307 -0.713776 -0.236701 0
M  V30 4178 H 387.278 -2.98264 -0.0901187 0
M  V30 4179 C 386.027 -2.93439 -1.86518 0
M  V30 4180 H 385.35 -3.7125 -1.4837 0
M  V30 4181 H 386.79 -3.43549 -2.48495 0
M  V30 4182 C 385.249 -1.97008 -2.73294 0
M  V30 4183 O 385.779 -1.49965 -3.72657 0
M  V30 4184 N 383.985 -1.64227 -2.39745 0
M  V30 4185 H 383.532 -2.02677 -1.58996 0
M  V30 4186 H 383.49 -0.999708 -2.98083 0
M  V30 4187 N 387.262 0.0317525 -1.57568 0
M  V30 4188 C 388.49 0.734949 -1.93407 0
M  V30 4189 C 388.905 1.69036 -0.84096 0
M  V30 4190 O 388.262 1.81582 0.182836 0
M  V30 4191 C 388.313 1.49432 -3.29169 0
M  V30 4192 O 388.034 0.577261 -4.3428 0
M  V30 4193 C 389.535 2.29492 -3.79273 0
M  V30 4194 H 386.755 0.206706 -0.638368 0
M  V30 4195 H 389.299 -0.00992046 -2.04498 0
M  V30 4196 H 387.454 2.1911 -3.19483 0
M  V30 4197 H 387.868 1.10952 -5.1263 0
M  V30 4198 H 389.342 2.78172 -4.76785 0
M  V30 4199 H 389.819 3.10794 -3.10328 0
M  V30 4200 H 390.425 1.64894 -3.92033 0
M  V30 4201 N 388.74 1.54641 0.303973 0
M  V30 4202 C 390.017 1.64455 1.05896 0
M  V30 4203 C 390.397 0.490923 2.05312 0
M  V30 4204 O 389.745 -0.512685 2.22674 0
M  V30 4205 C 389.955 3.02331 1.74347 0
M  V30 4206 C 391.303 3.59045 2.26653 0
M  V30 4207 O 392.327 3.04764 1.84384 0
M  V30 4208 O 391.186 4.54081 3.04093 0
M  V30 4209 H 388.28 0.666729 0.489287 0
M  V30 4210 H 390.826 1.66986 0.302298 0
M  V30 4211 H 389.598 3.77734 1.02142 0
M  V30 4212 H 389.221 3.03565 2.56777 0
M  V30 4213 N 390.218 -0.567019 1.47046 0
M  V30 4214 C 391.464 -1.32658 1.53394 0
M  V30 4215 C 391.797 -1.93254 0.19148 0
M  V30 4216 O 391.072 -1.77338 -0.798844 0
M  V30 4217 C 391.355 -2.44412 2.64452 0
M  V30 4218 C 391.208 -1.88749 4.08282 0
M  V30 4219 C 392.527 -3.46387 2.71485 0
M  V30 4220 H 389.646 -0.48098 0.558415 0
M  V30 4221 H 392.288 -0.635481 1.79058 0
M  V30 4222 H 390.438 -3.03363 2.427 0
M  V30 4223 H 392.11 -1.34134 4.41368 0
M  V30 4224 H 390.353 -1.19481 4.17021 0
M  V30 4225 H 391.024 -2.69491 4.81745 0
M  V30 4226 H 393.5 -2.9734 2.91081 0
M  V30 4227 H 392.376 -4.2202 3.50985 0
M  V30 4228 H 392.637 -4.04616 1.78153 0
M  V30 4229 N 391.696 -1.35014 -0.812953 0
M  V30 4230 C 392.926 -1.30841 -1.59888 0
M  V30 4231 C 393.334 0.117576 -1.88834 0
M  V30 4232 O 392.677 1.07807 -1.48739 0
M  V30 4233 C 392.739 -2.0412 -2.95931 0
M  V30 4234 C 392.403 -3.53336 -2.89832 0
M  V30 4235 C 393.4 -4.48052 -2.63714 0
M  V30 4236 C 391.085 -3.95894 -3.0915 0
M  V30 4237 C 393.079 -5.833 -2.56982 0
M  V30 4238 C 390.766 -5.31239 -3.0204 0
M  V30 4239 C 391.764 -6.24754 -2.75991 0
M  V30 4240 O 391.452 -7.57617 -2.68833 0
M  V30 4241 H 391.184 -0.451215 -0.50337 0
M  V30 4242 H 393.738 -1.78354 -1.01877 0
M  V30 4243 H 391.968 -1.51235 -3.559 0
M  V30 4244 H 393.657 -1.93107 -3.57022 0
M  V30 4245 H 394.423 -4.16492 -2.48515 0
M  V30 4246 H 390.302 -3.23495 -3.28438 0
M  V30 4247 H 393.846 -6.56263 -2.36569 0
M  V30 4248 H 389.743 -5.62415 -3.16796 0
M  V30 4249 H 390.511 -7.67469 -2.84487 0
M  V30 4250 N 393.175 1.03435 -1.18907 0
M  V30 4251 C 394.107 2.1165 -0.879595 0
M  V30 4252 C 395.12 1.62316 0.125439 0
M  V30 4253 O 396.309 1.78201 -0.103245 0
M  V30 4254 C 393.409 3.37622 -0.294042 0
M  V30 4255 C 392.582 4.16166 -1.34629 0
M  V30 4256 C 391.641 5.20457 -0.775274 0
M  V30 4257 O 390.667 5.50379 -1.4516 0
M  V30 4258 N 391.869 5.78949 0.424126 0
M  V30 4259 H 394.634 2.38791 -1.81105 0
M  V30 4260 H 392.195 1.19681 -1.09032 0
M  V30 4261 H 394.187 4.04572 0.101679 0
M  V30 4262 H 392.757 3.07873 0.541575 0
M  V30 4263 H 391.977 3.44444 -1.91707 0
M  V30 4264 H 393.265 4.65432 -2.05549 0
M  V30 4265 H 392.663 5.56948 0.991209 0
M  V30 4266 H 391.22 6.47334 0.761691 0
M  V30 4267 N 394.653 0.992116 1.22453 0
M  V30 4268 C 395.583 0.561677 2.26644 0
M  V30 4269 C 396.564 -0.411055 1.65059 0
M  V30 4270 O 397.749 -0.301861 1.9184 0
M  V30 4271 C 394.879 -0.125247 3.47074 0
M  V30 4272 C 393.833 0.765948 4.21091 0
M  V30 4273 C 393.159 -0.0538484 5.34673 0
M  V30 4274 C 394.459 2.06242 4.79856 0
M  V30 4275 H 396.153 1.43259 2.62902 0
M  V30 4276 H 393.699 0.690283 1.26377 0
M  V30 4277 H 395.652 -0.437764 4.1912 0
M  V30 4278 H 394.376 -1.03069 3.0991 0
M  V30 4279 H 393.035 1.0621 3.50878 0
M  V30 4280 H 392.683 -0.960188 4.9375 0
M  V30 4281 H 392.383 0.539415 5.85119 0
M  V30 4282 H 393.907 -0.360477 6.09535 0
M  V30 4283 H 395.321 1.8139 5.43848 0
M  V30 4284 H 393.718 2.60444 5.40638 0
M  V30 4285 H 394.788 2.74167 3.99951 0
M  V30 4286 N 396.131 -1.37776 0.765217 0
M  V30 4287 C 397.371 -2.01691 0.331669 0
M  V30 4288 C 397.735 -1.59432 -1.06983 0
M  V30 4289 O 398.936 -2.15761 -1.60314 0
M  V30 4290 C 397.207 -3.54385 0.463261 0
M  V30 4291 S 398.766 -4.38652 0.114011 0
M  V30 4292 H 395.584 -0.699387 0.127979 0
M  V30 4293 H 398.186 -1.68084 0.998396 0
M  V30 4294 H 396.89 -3.82629 1.48401 0
M  V30 4295 H 396.421 -3.92783 -0.220246 0
M  V30 4296 H 398.436 -4.84021 -1.09261 0
M  V30 4297 N 397.609 -0.515225 -1.4894 0
M  V30 4298 C 398.834 0.022727 -2.07388 0
M  V30 4299 C 399.259 1.2876 -1.37122 0
M  V30 4300 O 398.617 1.76067 -0.432431 0
M  V30 4301 C 398.665 0.244869 -3.59768 0
M  V30 4302 O 397.769 1.31667 -3.90817 0
M  V30 4303 H 397.11 -0.0325506 -0.663202 0
M  V30 4304 H 399.64 -0.718918 -1.91553 0
M  V30 4305 H 399.65 0.47205 -4.0526 0
M  V30 4306 H 398.325 -0.679194 -4.10317 0
M  V30 4307 H 396.902 1.07331 -3.5712 0
M  V30 4308 N 399.087 1.5561 -0.249682 0
M  V30 4309 C 400.315 2.03411 0.378352 0
M  V30 4310 C 400.73 1.12886 1.51335 0
M  V30 4311 O 400.087 0.143833 1.81932 0
M  V30 4312 C 400.138 3.50537 0.88351 0
M  V30 4313 O 399.859 4.37614 -0.20626 0
M  V30 4314 C 401.36 4.14113 1.58195 0
M  V30 4315 H 398.58 0.664994 0.08958 0
M  V30 4316 H 401.124 2.01044 -0.374357 0
M  V30 4317 H 399.279 3.5343 1.58639 0
M  V30 4318 H 399.693 5.24199 0.177782 0
M  V30 4319 H 401.167 5.18741 1.8871 0
M  V30 4320 H 401.644 3.60767 2.50487 0
M  V30 4321 H 402.25 4.15151 0.923573 0
M  V30 4322 N 400.565 -0.0233959 1.57583 0
M  V30 4323 C 401.976 -0.56927 1.77809 0
M  V30 4324 C 402.327 -1.75284 0.881472 0
M  V30 4325 O 401.452 -2.1626 0.0777805 0
M  V30 4326 C 402.047 -1.03949 3.22459 0
M  V30 4327 C 400.606 -1.53084 3.43864 0
M  V30 4328 C 399.753 -0.471454 2.73263 0
M  V30 4329 H 402.704 0.202825 1.57399 0
M  V30 4330 H 402.725 -1.90661 3.29285 0
M  V30 4331 H 402.237 -0.177865 3.87692 0
M  V30 4332 H 400.338 -2.41414 2.83814 0
M  V30 4333 H 400.451 -1.57443 4.52491 0
M  V30 4334 H 398.815 -0.927788 2.37201 0
M  V30 4335 H 399.598 0.380808 3.41181 0
M  V30 4336 N 402.043 -1.548 -0.295768 0
M  V30 4337 C 402.99 -1.86113 -1.36494 0
M  V30 4338 C 403.96 -0.7105 -1.50137 0
M  V30 4339 O 405.145 -0.959626 -1.64912 0
M  V30 4340 C 402.285 -2.11861 -2.72413 0
M  V30 4341 C 401.398 -3.39471 -2.67177 0
M  V30 4342 C 400.533 -3.55035 -3.95125 0
M  V30 4343 C 399.572 -4.76418 -3.84308 0
M  V30 4344 N 398.709 -4.8876 -5.04042 0
M  V30 4345 H 403.549 -2.77314 -1.09091 0
M  V30 4346 H 401.086 -1.37315 -0.52753 0
M  V30 4347 H 403.044 -2.24786 -3.51464 0
M  V30 4348 H 401.674 -1.2392 -2.98066 0
M  V30 4349 H 400.726 -3.35139 -1.79962 0
M  V30 4350 H 402.038 -4.28646 -2.55076 0
M  V30 4351 H 401.192 -3.67653 -4.82614 0
M  V30 4352 H 399.931 -2.64002 -4.10066 0
M  V30 4353 H 398.936 -4.63827 -2.95202 0
M  V30 4354 H 400.161 -5.68863 -3.70906 0
M  V30 4355 H 398.107 -4.00652 -5.19436 0
M  V30 4356 H 398.024 -5.71945 -4.94384 0
M  V30 4357 H 399.292 -5.0574 -5.93167 0
M  V30 4358 N 403.521 0.559213 -1.47345 0
M  V30 4359 C 404.767 1.31843 -1.54095 0
M  V30 4360 C 405.1 1.93149 -0.201726 0
M  V30 4361 O 404.375 1.77759 0.789428 0
M  V30 4362 C 404.658 2.43006 -2.65744 0
M  V30 4363 C 404.511 1.86581 -4.09277 0
M  V30 4364 C 405.83 3.44943 -2.73318 0
M  V30 4365 H 402.949 0.478012 -0.560957 0
M  V30 4366 H 405.591 0.625977 -1.79392 0
M  V30 4367 H 403.741 3.02072 -2.44305 0
M  V30 4368 H 405.413 1.31792 -4.42073 0
M  V30 4369 H 403.656 1.17268 -4.17649 0
M  V30 4370 H 404.327 2.66933 -4.83168 0
M  V30 4371 H 406.803 2.95793 -2.92653 0
M  V30 4372 H 405.679 4.20153 -3.53218 0
M  V30 4373 H 405.94 4.03665 -1.80296 0
M  V30 4374 N 404.999 1.35443 0.805782 0
M  V30 4375 C 406.276 1.19325 1.54987 0
M  V30 4376 C 406.656 -0.227294 2.09873 0
M  V30 4377 O 406.004 -1.2309 1.92512 0
M  V30 4378 C 406.214 2.26196 2.65775 0
M  V30 4379 C 407.562 2.62043 3.34094 0
M  V30 4380 O 408.586 2.25115 2.76046 0
M  V30 4381 O 407.445 3.25542 4.38958 0
M  V30 4382 H 404.539 0.463623 0.684823 0
M  V30 4383 H 407.085 1.47127 0.845674 0
M  V30 4384 H 405.857 3.21471 2.23096 0
M  V30 4385 H 405.48 1.99667 3.43829 0
M  V30 4386 N 406.477 -1.02803 1.19454 0
M  V30 4387 C 407.387 -2.14575 0.948408 0
M  V30 4388 C 408.403 -1.73757 -0.091871 0
M  V30 4389 O 409.579 -2.01185 0.0929654 0
M  V30 4390 C 406.644 -3.43202 0.491265 0
M  V30 4391 C 405.705 -3.98328 1.60103 0
M  V30 4392 C 404.938 -5.20816 1.16561 0
M  V30 4393 O 405.161 -5.70392 0.0295238 0
M  V30 4394 O 404.095 -5.68801 1.96849 0
M  V30 4395 H 407.921 -2.38202 1.88397 0
M  V30 4396 H 405.506 -1.12989 0.977433 0
M  V30 4397 H 407.388 -4.20687 0.245015 0
M  V30 4398 H 406.063 -3.21018 -0.415851 0
M  V30 4399 H 404.97 -3.22174 1.90144 0
M  V30 4400 H 406.303 -4.24879 2.48473 0
M  V30 4401 N 407.956 -0.998596 -1.21925 0
M  V30 4402 C 409.372 -0.710303 -1.42923 0
M  V30 4403 C 409.572 0.716933 -1.88314 0
M  V30 4404 O 408.628 1.48712 -2.04062 0
M  V30 4405 C 409.941 -1.72072 -2.466 0
M  V30 4406 C 411.489 -1.73681 -2.60392 0
M  V30 4407 C 411.964 -2.73601 -3.67296 0
M  V30 4408 N 413.455 -2.7223 -3.7476 0
M  V30 4409 C 414.19 -3.46206 -4.57087 0
M  V30 4410 N 413.686 -4.29802 -5.43362 0
M  V30 4411 N 415.479 -3.34886 -4.51451 0
M  V30 4412 H 407.63 -1.92028 -0.9077 0
M  V30 4413 H 409.893 -0.828487 -0.460775 0
M  V30 4414 H 409.599 -2.74231 -2.20206 0
M  V30 4415 H 409.473 -1.51818 -3.45299 0
M  V30 4416 H 411.86 -0.722173 -2.86127 0
M  V30 4417 H 411.941 -1.98005 -1.61949 0
M  V30 4418 H 411.585 -3.75217 -3.42307 0
M  V30 4419 H 411.515 -2.46545 -4.65321 0
M  V30 4420 H 414.006 -2.11576 -3.1312 0
M  V30 4421 H 414.319 -4.83061 -6.03218 0
M  V30 4422 H 412.664 -4.33887 -5.42925 0
M  V30 4423 H 415.855 -2.69015 -3.83078 0
M  V30 4424 H 416.028 -3.92796 -5.15379 0
M  V30 4425 N 409.434 1.37368 -0.772513 0
M  V30 4426 C 410.659 2.0447 -0.347386 0
M  V30 4427 C 411.084 1.57882 1.0225 0
M  V30 4428 O 410.442 0.73941 1.65537 0
M  V30 4429 C 410.49 3.58369 -0.400479 0
M  V30 4430 O 409.594 4.0803 0.598789 0
M  V30 4431 H 408.935 0.646773 -0.15027 0
M  V30 4432 H 411.465 1.75667 -1.04892 0
M  V30 4433 H 411.475 4.07183 -0.258045 0
M  V30 4434 H 410.15 3.91633 -1.39986 0
M  V30 4435 H 408.727 3.70534 0.419411 0
M  V30 4436 N 410.912 0.523116 1.48665 0
M  V30 4437 C 412.189 -0.0775449 1.95446 0
M  V30 4438 C 412.569 -1.5197 1.4652 0
M  V30 4439 O 411.917 -2.17876 0.688657 0
M  V30 4440 C 412.127 0.0326135 3.48985 0
M  V30 4441 C 413.475 -0.130141 4.24401 0
M  V30 4442 O 414.499 -0.0415142 3.56176 0
M  V30 4443 O 413.358 -0.31491 5.45592 0
M  V30 4444 H 410.452 -0.0831012 0.822814 0
M  V30 4445 H 412.998 0.587227 1.59216 0
M  V30 4446 H 411.77 1.03748 3.77296 0
M  V30 4447 H 411.393 -0.671317 3.91892 0
M  V30 4448 N 412.39 -1.55475 0.257931 0
M  V30 4449 C 413.62 -2.03314 -0.367026 0
M  V30 4450 C 414.028 -1.13625 -1.51281 0
M  V30 4451 O 413.371 -0.145334 -1.83124 0
M  V30 4452 C 413.433 -3.47362 -0.926284 0
M  V30 4453 C 413.097 -4.56914 0.0886584 0
M  V30 4454 C 414.094 -5.12013 0.902123 0
M  V30 4455 C 411.779 -5.01827 0.217936 0
M  V30 4456 C 413.773 -6.10529 1.83122 0
M  V30 4457 C 411.46 -6.00172 1.15052 0
M  V30 4458 C 412.458 -6.54402 1.95568 0
M  V30 4459 O 412.146 -7.50827 2.87253 0
M  V30 4460 H 411.878 -0.669976 -0.0900443 0
M  V30 4461 H 414.432 -2.01804 0.382673 0
M  V30 4462 H 412.662 -3.46056 -1.72575 0
M  V30 4463 H 414.351 -3.78637 -1.46249 0
M  V30 4464 H 415.117 -4.78139 0.812891 0
M  V30 4465 H 410.996 -4.59272 -0.398721 0
M  V30 4466 H 414.54 -6.52783 2.46008 0
M  V30 4467 H 410.437 -6.33465 1.24064 0
M  V30 4468 H 411.205 -7.68483 2.81739 0
M  V30 4469 N 413.868 0.0150385 -1.57593 0
M  V30 4470 C 414.831 0.995996 -2.06428 0
M  V30 4471 C 415.831 1.2818 -0.970903 0
M  V30 4472 O 417.021 1.22949 -1.23406 0
M  V30 4473 C 414.153 2.32506 -2.49307 0
M  V30 4474 H 415.346 0.573873 -2.94358 0
M  V30 4475 H 412.899 0.262186 -1.54085 0
M  V30 4476 H 413.634 2.79438 -1.64575 0
M  V30 4477 H 413.419 2.13087 -3.29145 0
M  V30 4478 H 414.909 3.02906 -2.87468 0
M  V30 4479 N 415.346 1.54954 0.287554 0
M  V30 4480 C 416.571 1.79209 1.04397 0
M  V30 4481 C 416.996 0.556431 1.79682 0
M  V30 4482 O 416.354 -0.493518 1.74454 0
M  V30 4483 C 416.402 3.00739 1.98969 0
M  V30 4484 O 415.506 2.74805 3.075 0
M  V30 4485 H 414.847 0.592755 0.299227 0
M  V30 4486 H 417.377 2.02068 0.320886 0
M  V30 4487 H 417.387 3.29077 2.4119 0
M  V30 4488 H 416.062 3.90329 1.43582 0
M  V30 4489 H 414.639 2.57523 2.69697 0
M  V30 4490 N 416.824 -0.551391 1.4764 0
M  V30 4491 C 418.049 -1.33837 1.58437 0
M  V30 4492 C 418.474 -1.866 0.237063 0
M  V30 4493 O 417.832 -1.6328 -0.787994 0
M  V30 4494 C 417.88 -2.48014 2.61766 0
M  V30 4495 O 416.984 -3.50419 2.1744 0
M  V30 4496 H 416.325 -0.397299 0.532024 0
M  V30 4497 H 418.855 -0.665759 1.93465 0
M  V30 4498 H 418.865 -2.94503 2.82369 0
M  V30 4499 H 417.54 -2.08969 3.5959 0
M  V30 4500 H 416.117 -3.10196 2.06961 0
M  V30 4501 N 418.302 -1.35869 -0.798587 0
M  V30 4502 C 419.55 -1.29332 -1.55298 0
M  V30 4503 C 419.871 0.129729 -1.94568 0
M  V30 4504 O 419.141 1.06796 -1.6423 0
M  V30 4505 H 417.721 -0.475737 -0.57592 0
M  V30 4506 H 420.383 -1.70062 -0.952093 0
M  V30 4507 H 419.479 -1.91458 -2.46476 0
M  V30 4508 N 419.78 1.02168 -1.19998 0
M  V30 4509 C 421.029 1.75091 -1.0013 0
M  V30 4510 C 421.342 1.89923 0.467835 0
M  V30 4511 O 422.548 2.59888 0.785515 0
M  V30 4512 C 421.004 3.14892 -1.74273 0
M  V30 4513 C 420.612 3.0809 -3.25245 0
M  V30 4514 C 422.356 3.9206 -1.62755 0
M  V30 4515 C 420.263 4.42867 -3.91948 0
M  V30 4516 H 419.193 0.656394 -0.37103 0
M  V30 4517 H 421.844 1.14284 -1.43567 0
M  V30 4518 H 420.226 3.7621 -1.2362 0
M  V30 4519 H 421.4 2.5611 -3.83072 0
M  V30 4520 H 419.715 2.44416 -3.3712 0
M  V30 4521 H 422.312 4.91764 -2.09934 0
M  V30 4522 H 422.655 4.12199 -0.582894 0
M  V30 4523 H 423.188 3.37359 -2.10793 0
M  V30 4524 H 419.927 4.27931 -4.96543 0
M  V30 4525 H 419.447 4.94874 -3.3891 0
M  V30 4526 H 421.126 5.11728 -3.95909 0
M  V30 4527 N 421.258 1.00505 1.21394 0
M  V30 4528 C 422.168 0.574806 2.27449 0
M  V30 4529 C 423.184 -0.382206 1.6975 0
M  V30 4530 O 424.36 -0.246027 1.99892 0
M  V30 4531 C 421.425 -0.0917414 3.46579 0
M  V30 4532 C 420.486 0.909758 4.1955 0
M  V30 4533 C 419.719 0.274924 5.32991 0
M  V30 4534 O 419.942 -0.928254 5.62796 0
M  V30 4535 O 418.876 0.985877 5.93771 0
M  V30 4536 H 422.702 1.45744 2.66444 0
M  V30 4537 H 420.287 0.773923 1.27792 0
M  V30 4538 H 422.169 -0.464551 4.18832 0
M  V30 4539 H 420.844 -0.948755 3.09484 0
M  V30 4540 H 419.751 1.33372 3.49518 0
M  V30 4541 H 421.084 1.73636 4.60555 0
M  V30 4542 N 422.737 -1.36956 0.779787 0
M  V30 4543 C 424.014 -1.93697 0.272156 0
M  V30 4544 C 424.394 -1.71267 -1.23413 0
M  V30 4545 O 423.742 -1.06607 -2.02107 0
M  V30 4546 C 423.952 -3.42812 0.654291 0
M  V30 4547 C 425.3 -4.19921 0.628602 0
M  V30 4548 O 426.324 -3.51209 0.594172 0
M  V30 4549 O 425.183 -5.42465 0.662864 0
M  V30 4550 H 422.277 -0.824447 0.0649286 0
M  V30 4551 H 424.823 -1.46196 0.861682 0
M  V30 4552 H 423.595 -3.52754 1.69353 0
M  V30 4553 H 423.218 -3.97582 0.0381369 0
M  V30 4554 N 424.215 -0.530993 -1.48385 0
M  V30 4555 C 425.464 0.00474348 -2.01699 0
M  V30 4556 C 425.777 1.35227 -1.41325 0
M  V30 4557 O 426.983 1.97643 -1.86144 0
M  V30 4558 C 425.439 0.0588473 -3.59852 0
M  V30 4559 C 425.047 -1.28385 -4.2921 0
M  V30 4560 C 426.791 0.543358 -4.21008 0
M  V30 4561 C 424.698 -1.19028 -5.79298 0
M  V30 4562 H 423.628 0.00554317 -0.75398 0
M  V30 4563 H 426.279 -0.674924 -1.70637 0
M  V30 4564 H 424.661 0.803612 -3.8776 0
M  V30 4565 H 425.835 -2.04426 -4.12973 0
M  V30 4566 H 424.15 -1.70418 -3.7993 0
M  V30 4567 H 426.747 0.631351 -5.3096 0
M  V30 4568 H 427.09 1.54937 -3.86394 0
M  V30 4569 H 427.623 -0.145754 -3.97533 0
M  V30 4570 H 424.362 -2.17147 -6.18488 0
M  V30 4571 H 423.882 -0.471246 -5.97946 0
M  V30 4572 H 425.561 -0.881365 -6.40969 0
M  V30 4573 N 425.693 1.55336 -0.266172 0
M  V30 4574 C 426.939 1.99692 0.353681 0
M  V30 4575 C 427.272 1.1543 1.56172 0
M  V30 4576 O 426.547 0.222218 1.93226 0
M  V30 4577 C 426.83 3.52316 0.74466 0
M  V30 4578 C 426.683 4.47337 -0.470101 0
M  V30 4579 C 428.002 4.10588 1.58447 0
M  V30 4580 H 425.121 0.725961 0.12708 0
M  V30 4581 H 427.763 1.86336 -0.371333 0
M  V30 4582 H 425.913 3.63829 1.36239 0
M  V30 4583 H 427.585 4.4778 -1.10864 0
M  V30 4584 H 425.828 4.19364 -1.10978 0
M  V30 4585 H 426.499 5.51788 -0.15291 0
M  V30 4586 H 428.975 4.02297 1.06286 0
M  V30 4587 H 427.851 5.17607 1.82686 0
M  V30 4588 H 428.112 3.60253 2.56262 0
M  V30 4589 N 427.171 -0.0066808 1.57599 0
M  V30 4590 C 428.101 -0.999296 2.11036 0
M  V30 4591 C 429.082 -1.36278 1.01795 0
M  V30 4592 O 430.267 -1.4477 1.29442 0
M  V30 4593 C 427.397 -2.29328 2.60818 0
M  V30 4594 C 426.351 -2.07159 3.74525 0
M  V30 4595 C 425.677 -3.42512 4.10596 0
M  V30 4596 C 426.977 -1.43959 5.02069 0
M  V30 4597 H 428.671 -0.554382 2.94223 0
M  V30 4598 H 426.217 -0.265221 1.41536 0
M  V30 4599 H 428.17 -2.99117 2.96828 0
M  V30 4600 H 426.894 -2.7592 1.74745 0
M  V30 4601 H 425.553 -1.39797 3.38899 0
M  V30 4602 H 425.201 -3.86795 3.21556 0
M  V30 4603 H 424.901 -3.28498 4.87199 0
M  V30 4604 H 426.425 -4.13628 4.4916 0
M  V30 4605 H 427.839 -2.03696 5.35893 0
M  V30 4606 H 426.236 -1.40452 5.83432 0
M  V30 4607 H 427.306 -0.407992 4.83181 0
M  V30 4608 N 428.649 -1.55105 -0.279332 0
M  V30 4609 C 429.926 -1.66119 -1.03267 0
M  V30 4610 C 430.306 -0.523525 -2.04505 0
M  V30 4611 O 429.654 0.477194 -2.23462 0
M  V30 4612 C 429.864 -3.05067 -1.69515 0
M  V30 4613 C 431.212 -3.62606 -2.20912 0
M  V30 4614 O 432.236 -3.07659 -1.79512 0
M  V30 4615 O 431.095 -4.58861 -2.96831 0
M  V30 4616 H 428.189 -0.674429 -0.478618 0
M  V30 4617 H 430.735 -1.67446 -0.275694 0
M  V30 4618 H 429.507 -3.79311 -0.9612 0
M  V30 4619 H 429.13 -3.07611 -2.51915 0
M  V30 4620 N 430.127 0.543554 -1.4793 0
M  V30 4621 C 431.376 1.29649 -1.54512 0
M  V30 4622 C 431.689 1.94382 -0.217973 0
M  V30 4623 O 432.895 2.71017 -0.161908 0
M  V30 4624 C 431.351 2.35175 -2.72435 0
M  V30 4625 C 430.959 1.76572 -4.11736 0
M  V30 4626 C 432.703 3.11564 -2.8832 0
M  V30 4627 C 430.61 2.79958 -5.20939 0
M  V30 4628 H 429.54 0.487541 -0.57517 0
M  V30 4629 H 432.191 0.575708 -1.74235 0
M  V30 4630 H 430.573 3.10229 -2.46118 0
M  V30 4631 H 431.747 1.07799 -4.48013 0
M  V30 4632 H 430.062 1.12722 -4.00852 0
M  V30 4633 H 432.659 3.88794 -3.67074 0
M  V30 4634 H 433.002 3.66594 -1.97268 0
M  V30 4635 H 433.535 2.43623 -3.14472 0
M  V30 4636 H 430.274 2.29766 -6.13912 0
M  V30 4637 H 429.794 3.47101 -4.89164 0
M  V30 4638 H 431.473 3.43198 -5.48474 0
M  V30 4639 N 431.605 1.3629 0.791371 0
M  V30 4640 C 432.851 1.30605 1.55146 0
M  V30 4641 C 433.184 -0.115042 1.93859 0
M  V30 4642 O 432.459 -1.06798 1.62556 0
M  V30 4643 C 432.742 2.22692 2.82985 0
M  V30 4644 C 432.595 3.73489 2.50651 0
M  V30 4645 C 433.914 2.13588 3.84796 0
M  V30 4646 H 431.033 0.475761 0.562868 0
M  V30 4647 H 433.675 1.66825 0.909358 0
M  V30 4648 H 431.825 1.91933 3.37778 0
M  V30 4649 H 433.497 4.14758 2.01924 0
M  V30 4650 H 431.74 3.93021 1.83622 0
M  V30 4651 H 432.411 4.3333 3.41949 0
M  V30 4652 H 434.887 2.40659 3.39445 0
M  V30 4653 H 433.763 2.80195 4.71998 0
M  V30 4654 H 434.024 1.12256 4.27611 0
M  V30 4655 N 433.083 -1.0153 1.20538 0
M  V30 4656 C 434.031 -2.12215 0.952235 0
M  V30 4657 C 435.025 -1.69123 -0.0968735 0
M  V30 4658 O 436.231 -1.7992 0.0536006 0
M  V30 4659 H 432.606 -0.693576 0.290613 0
M  V30 4660 H 434.577 -2.3075 1.89201 0
M  V30 4661 C 433.326 -3.43755 0.522287 0
M  V30 4662 H 432.649 -3.7734 1.32115 0
M  V30 4663 H 434.089 -4.22254 0.384389 0
M  V30 4664 C 432.548 -3.28088 -0.765489 0
M  V30 4665 O 433.078 -3.57921 -1.8236 0
M  V30 4666 N 431.284 -2.81333 -0.728011 0
M  V30 4667 H 430.831 -2.57255 0.133332 0
M  V30 4668 H 430.789 -2.71232 -1.58999 0
M  V30 4669 N 434.561 -1.01147 -1.20859 0
M  V30 4670 C 435.791 -0.715872 -1.93801 0
M  V30 4671 C 436.199 0.726592 -1.74692 0
M  V30 4672 O 435.542 1.50397 -1.05482 0
M  V30 4673 C 435.604 -0.965269 -3.46299 0
M  V30 4674 C 435.268 -2.39584 -3.89164 0
M  V30 4675 C 436.265 -3.3764 -3.95342 0
M  V30 4676 C 433.95 -2.73522 -4.21297 0
M  V30 4677 C 435.944 -4.67698 -4.33056 0
M  V30 4678 C 433.631 -4.03794 -4.58687 0
M  V30 4679 C 434.629 -5.00693 -4.64538 0
M  V30 4680 O 434.317 -6.28635 -5.01072 0
M  V30 4681 H 434.049 -0.262524 -0.622942 0
M  V30 4682 H 436.603 -1.35413 -1.54443 0
M  V30 4683 H 434.833 -0.269847 -3.85757 0
M  V30 4684 H 436.522 -0.662051 -4.00464 0
M  V30 4685 H 437.288 -3.12757 -3.70686 0
M  V30 4686 H 433.167 -1.9879 -4.15937 0
M  V30 4687 H 436.711 -5.4333 -4.37537 0
M  V30 4688 H 432.608 -4.28459 -4.82797 0
M  V30 4689 H 433.376 -6.32847 -5.19083 0
M  V30 4690 N 436.039 1.36541 -0.78704 0
M  V30 4691 C 437.316 1.9355 -0.282424 0
M  V30 4692 C 437.696 1.71919 1.22503 0
M  V30 4693 O 437.044 1.07677 2.01539 0
M  V30 4694 C 437.254 3.4246 -0.672462 0
M  V30 4695 C 438.602 4.19582 -0.650863 0
M  V30 4696 O 439.626 3.50889 -0.612789 0
M  V30 4697 O 438.485 5.42106 -0.691623 0
M  V30 4698 H 435.579 0.824091 -0.0693 0
M  V30 4699 H 438.125 1.45736 -0.869423 0
M  V30 4700 H 436.897 3.51851 -1.71221 0
M  V30 4701 H 436.52 3.97556 -0.0592211 0
M  V30 4702 N 437.518 0.538854 1.48102 0
M  V30 4703 C 438.766 0.00798599 2.02098 0
M  V30 4704 C 439.087 -1.33922 1.41739 0
M  V30 4705 O 438.357 -1.86932 0.585934 0
M  V30 4706 H 436.937 -3.62179e-05 0.747 0
M  V30 4707 H 439.599 0.7047 1.81714 0
M  V30 4708 H 438.695 -0.0937672 3.11959 0
M  V30 4709 N 438.996 -1.55193 0.274407 0
M  V30 4710 C 440.221 -2.04446 -0.348824 0
M  V30 4711 C 440.646 -1.15149 -1.48735 0
M  V30 4712 O 440.004 -0.149952 -1.80679 0
M  V30 4713 C 440.052 -3.51431 -0.808009 0
M  V30 4714 O 439.156 -3.65225 -1.91531 0
M  V30 4715 H 438.497 -0.66006 -0.0722276 0
M  V30 4716 H 441.027 -2.00481 0.408498 0
M  V30 4717 H 441.037 -3.92781 -1.10395 0
M  V30 4718 H 439.712 -4.15892 0.0249865 0
M  V30 4719 H 438.289 -3.35778 -1.62196 0
M  V30 4720 N 440.474 -0.00167713 -1.576 0
M  V30 4721 C 441.723 0.682021 -1.89819 0
M  V30 4722 C 442.036 1.74844 -0.876871 0
M  V30 4723 O 443.242 2.48688 -1.08934 0
M  V30 4724 C 441.698 1.26425 -3.36964 0
M  V30 4725 C 441.306 0.232568 -4.47396 0
M  V30 4726 C 443.05 1.92604 -3.78291 0
M  V30 4727 C 440.957 0.824882 -5.85619 0
M  V30 4728 H 439.887 0.258499 -0.708304 0
M  V30 4729 H 442.538 -0.0624957 -1.83394 0
M  V30 4730 H 440.92 2.05949 -3.38232 0
M  V30 4731 H 442.094 -0.5382 -4.57646 0
M  V30 4732 H 440.409 -0.32888 -4.15099 0
M  V30 4733 H 443.006 2.37827 -4.78897 0
M  V30 4734 H 443.349 2.75732 -3.11894 0
M  V30 4735 H 443.882 1.19812 -3.79328 0
M  V30 4736 H 440.621 0.0323542 -6.55492 0
M  V30 4737 H 440.141 1.56477 -5.79029 0
M  V30 4738 H 441.82 1.32301 -6.33329 0
M  V30 4739 N 441.952 1.55251 0.271103 0
M  V30 4740 C 443.177 1.80306 1.02491 0
M  V30 4741 C 443.602 0.575457 1.79081 0
M  V30 4742 O 442.96 -0.474987 1.74967 0
M  V30 4743 C 443.008 3.02832 1.95768 0
M  V30 4744 O 442.112 2.78051 3.04568 0
M  V30 4745 H 441.453 0.595896 0.292923 0
M  V30 4746 H 443.983 2.02397 0.299436 0
M  V30 4747 H 443.993 3.31616 2.37686 0
M  V30 4748 H 442.668 3.9183 1.39434 0
M  V30 4749 H 441.245 2.60369 2.66951 0
M  V30 4750 N 443.43 -0.535701 1.48216 0
M  V30 4751 C 444.658 -1.31671 1.59594 0
M  V30 4752 C 445.073 -1.87083 0.254056 0
M  V30 4753 O 444.43 -1.66112 -0.755854 0
M  V30 4754 C 444.481 -2.47158 2.63809 0
M  V30 4755 O 444.202 -1.94032 3.92789 0
M  V30 4756 C 445.703 -3.39062 2.85573 0
M  V30 4757 H 442.923 -0.400623 0.538277 0
M  V30 4758 H 445.467 -0.646827 1.94001 0
M  V30 4759 H 443.622 -3.10043 2.32276 0
M  V30 4760 H 444.036 -2.69585 4.49916 0
M  V30 4761 H 445.51 -4.16459 3.62306 0
M  V30 4762 H 445.987 -3.93941 1.94184 0
M  V30 4763 H 446.593 -2.81975 3.18387 0
M  V30 4764 N 444.908 -1.36708 -0.784132 0
M  V30 4765 C 446.136 -1.34398 -1.57305 0
M  V30 4766 C 446.551 0.0735577 -1.88657 0
M  V30 4767 O 445.908 1.03193 -1.50524 0
M  V30 4768 C 445.959 -2.17053 -2.89085 0
M  V30 4769 O 445.68 -3.53281 -2.59083 0
M  V30 4770 C 447.181 -2.22583 -3.83369 0
M  V30 4771 H 444.401 -0.460819 -0.487736 0
M  V30 4772 H 446.945 -1.79879 -0.972819 0
M  V30 4773 H 445.1 -1.75113 -3.45564 0
M  V30 4774 H 445.514 -3.9647 -3.43383 0
M  V30 4775 H 446.988 -2.84763 -4.72878 0
M  V30 4776 H 447.465 -1.23075 -4.21603 0
M  V30 4777 H 448.071 -2.64781 -3.32823 0
M  V30 4778 N 446.386 1.0089 -1.21074 0
M  V30 4779 C 447.802 1.2695 -0.967257 0
M  V30 4780 C 448.002 1.9846 0.348673 0
M  V30 4781 O 447.058 2.28459 1.0753 0
M  V30 4782 C 448.371 2.09697 -2.15517 0
M  V30 4783 C 449.919 2.22937 -2.197 0
M  V30 4784 C 450.394 3.09064 -3.37999 0
M  V30 4785 N 451.885 3.16653 -3.38061 0
M  V30 4786 C 452.62 3.8354 -4.26245 0
M  V30 4787 N 452.116 4.52488 -5.2462 0
M  V30 4788 N 453.909 3.80141 -4.14064 0
M  V30 4789 H 446.06 0.529005 -2.05707 0
M  V30 4790 H 448.323 0.296148 -0.900556 0
M  V30 4791 H 448.029 1.64497 -3.10859 0
M  V30 4792 H 447.903 3.10444 -2.14253 0
M  V30 4793 H 450.29 2.67357 -1.24916 0
M  V30 4794 H 450.371 1.21673 -2.2501 0
M  V30 4795 H 450.015 2.65347 -4.33074 0
M  V30 4796 H 449.945 4.10433 -3.29928 0
M  V30 4797 H 452.436 2.67566 -2.66865 0
M  V30 4798 H 452.749 5.01219 -5.88217 0
M  V30 4799 H 451.094 4.51288 -5.28549 0
M  V30 4800 H 454.285 3.25427 -3.36474 0
M  V30 4801 H 454.458 4.31992 -4.82998 0
M  V30 4802 N 447.864 1.01787 1.20321 0
M  V30 4803 C 449.111 0.707936 1.89722 0
M  V30 4804 C 449.439 -0.762535 1.78929 0
M  V30 4805 O 448.694 -1.56977 1.16861 0
M  V30 4806 C 448.993 1.09076 3.40349 0
M  V30 4807 C 448.659 2.55765 3.71342 0
M  V30 4808 C 447.321 2.95845 3.79511 0
M  V30 4809 C 449.673 3.50723 3.85542 0
M  V30 4810 C 447.001 4.2982 3.99339 0
M  V30 4811 C 449.353 4.84387 4.06881 0
M  V30 4812 C 448.017 5.24172 4.1328 0
M  V30 4813 H 447.287 0.259052 0.694243 0
M  V30 4814 H 449.934 1.27868 1.42555 0
M  V30 4815 H 448.239 0.438453 3.89339 0
M  V30 4816 H 449.936 0.828636 3.92345 0
M  V30 4817 H 446.526 2.2371 3.65584 0
M  V30 4818 H 450.71 3.20916 3.78585 0
M  V30 4819 H 445.966 4.60196 4.02529 0
M  V30 4820 H 450.14 5.57891 4.1681 0
M  V30 4821 H 447.767 6.27997 4.28396 0
M  V30 4822 N 449.342 -1.36122 0.79427 0
M  V30 4823 C 450.289 -2.29982 0.194101 0
M  V30 4824 C 451.259 -1.52214 -0.664833 0
M  V30 4825 O 452.444 -1.80702 -0.612498 0
M  V30 4826 C 449.584 -3.38706 -0.661244 0
M  V30 4827 C 448.697 -4.31456 0.216766 0
M  V30 4828 C 447.832 -5.27265 -0.645411 0
M  V30 4829 C 446.871 -6.11653 0.233756 0
M  V30 4830 N 446.008 -6.99636 -0.587682 0
M  V30 4831 H 450.848 -2.80722 0.999965 0
M  V30 4832 H 448.385 -1.38172 0.504677 0
M  V30 4833 H 450.343 -4.00394 -1.17219 0
M  V30 4834 H 448.973 -2.89274 -1.43249 0
M  V30 4835 H 448.025 -3.7088 0.845724 0
M  V30 4836 H 449.337 -4.90724 0.893973 0
M  V30 4837 H 448.491 -5.94266 -1.22198 0
M  V30 4838 H 447.23 -4.68463 -1.35623 0
M  V30 4839 H 446.235 -5.4361 0.82269 0
M  V30 4840 H 447.46 -6.72531 0.942247 0
M  V30 4841 H 445.406 -6.43337 -1.2827 0
M  V30 4842 H 445.323 -7.55993 0.0317402 0
M  V30 4843 H 446.591 -7.71001 -1.14792 0
M  V30 4844 N 450.82 -0.546701 -1.47814 0
M  V30 4845 C 451.768 0.220048 -2.31557 0
M  V30 4846 C 452.762 0.919472 -1.42275 0
M  V30 4847 O 453.968 0.841953 -1.59095 0
M  V30 4848 H 450.343 0.0898334 -0.746615 0
M  V30 4849 H 452.314 -0.505589 -2.94086 0
M  V30 4850 C 451.063 1.24353 -3.24702 0
M  V30 4851 H 450.386 0.714758 -3.93359 0
M  V30 4852 H 451.826 1.75112 -3.8615 0
M  V30 4853 C 450.285 2.28593 -2.47481 0
M  V30 4854 O 450.815 3.35334 -2.21165 0
M  V30 4855 N 449.021 2.02244 -2.08676 0
M  V30 4856 H 448.568 1.15455 -2.30278 0
M  V30 4857 H 448.526 2.72207 -1.57323 0
M  V30 4858 N 452.299 1.55045 -0.282633 0
M  V30 4859 C 453.247 2.24254 0.617478 0
M  V30 4860 C 454.241 1.24215 1.15183 0
M  V30 4861 O 455.447 1.42123 1.10459 0
M  V30 4862 H 451.822 0.719801 0.217693 0
M  V30 4863 H 453.793 2.98398 0.0110076 0
M  V30 4864 C 452.542 2.98281 1.78672 0
M  V30 4865 H 451.865 3.75053 1.38475 0
M  V30 4866 H 453.305 3.50017 2.393 0
M  V30 4867 C 451.764 2.04184 2.67975 0
M  V30 4868 O 452.294 1.59792 3.6855 0
M  V30 4869 N 450.5 1.70526 2.35307 0
M  V30 4870 H 450.047 2.06821 1.53567 0
M  V30 4871 H 450.005 1.07839 2.95327 0
M  V30 4872 N 453.777 0.010035 1.57597 0
M  V30 4873 C 454.725 -0.996272 2.10184 0
M  V30 4874 C 455.719 -1.34942 1.02406 0
M  V30 4875 O 456.925 -1.33389 1.20861 0
M  V30 4876 H 453.3 -0.338982 0.671264 0
M  V30 4877 H 455.271 -0.527272 2.93705 0
M  V30 4878 C 454.02 -2.27599 2.62857 0
M  V30 4879 H 453.343 -2.01295 3.45428 0
M  V30 4880 H 454.783 -2.96265 3.0332 0
M  V30 4881 C 453.242 -2.99269 1.54725 0
M  V30 4882 O 453.772 -3.90644 0.93597 0
M  V30 4883 N 451.978 -2.61269 1.27228 0
M  V30 4884 H 451.525 -1.87043 1.77123 0
M  V30 4885 H 451.483 -3.09534 0.550999 0
M  V30 4886 N 455.255 -1.55392 -0.262866 0
M  V30 4887 C 456.504 -1.75679 -0.990943 0
M  V30 4888 C 456.817 -0.57097 -1.87081 0
M  V30 4889 O 458.023 -0.656486 -2.63444 0
M  V30 4890 C 456.479 -3.10964 -1.81188 0
M  V30 4891 C 456.087 -4.37146 -0.980188 0
M  V30 4892 C 457.831 -3.40597 -2.53365 0
M  V30 4893 C 455.738 -5.63466 -1.7961 0
M  V30 4894 H 454.668 -0.654868 -0.373716 0
M  V30 4895 H 457.319 -1.81841 -0.246203 0
M  V30 4896 H 455.701 -2.98867 -2.59797 0
M  V30 4897 H 456.875 -4.60187 -0.237558 0
M  V30 4898 H 455.19 -4.14731 -0.372497 0
M  V30 4899 H 457.787 -4.32186 -3.14833 0
M  V30 4900 H 458.13 -2.6119 -3.24169 0
M  V30 4901 H 458.663 -3.53838 -1.81779 0
M  V30 4902 H 455.402 -6.4565 -1.13209 0
M  V30 4903 H 454.922 -5.44552 -2.51443 0
M  V30 4904 H 456.601 -6.02139 -2.36723 0
M  V30 4905 N 456.733 0.527833 -1.48498 0
M  V30 4906 C 457.958 1.313 -1.60546 0
M  V30 4907 C 458.383 1.86199 -0.26672 0
M  V30 4908 O 457.741 1.64513 0.761918 0
M  V30 4909 C 457.789 2.43818 -2.65678 0
M  V30 4910 O 456.893 3.46916 -2.22987 0
M  V30 4911 H 456.234 0.388784 -0.538277 0
M  V30 4912 H 458.764 0.634896 -1.945 0
M  V30 4913 H 458.774 2.89973 -2.87018 0
M  V30 4914 H 457.449 2.03222 -3.62869 0
M  V30 4915 H 456.026 3.06864 -2.11869 0
M  V30 4916 N 458.211 1.37122 0.776871 0
M  V30 4917 C 459.458 1.32047 1.53524 0
M  V30 4918 C 459.786 -0.0965631 1.9426 0
M  V30 4919 O 459.041 -1.06866 1.63945 0
M  V30 4920 C 459.34 2.20068 2.81611 0
M  V30 4921 C 459.006 3.68423 2.59953 0
M  V30 4922 C 457.668 4.08854 2.53755 0
M  V30 4923 C 460.02 4.62431 2.40431 0
M  V30 4924 C 457.348 5.41417 2.26018 0
M  V30 4925 C 459.7 5.95225 2.14219 0
M  V30 4926 C 458.364 6.34767 2.06462 0
M  V30 4927 H 457.634 0.483196 0.561785 0
M  V30 4928 H 460.281 1.69284 0.895268 0
M  V30 4929 H 458.586 1.75809 3.50141 0
M  V30 4930 H 460.283 2.13458 3.39465 0
M  V30 4931 H 456.873 3.36354 2.65638 0
M  V30 4932 H 461.057 4.32057 2.44213 0
M  V30 4933 H 456.313 5.71022 2.18504 0
M  V30 4934 H 460.487 6.67626 1.98112 0
M  V30 4935 H 458.114 7.37413 1.84733 0
M  V30 4936 N 459.689 -1.00246 1.21608 0
M  V30 4937 C 460.966 -1.71336 0.943568 0
M  V30 4938 C 461.346 -2.03972 -0.543943 0
M  V30 4939 O 460.694 -1.71545 -1.50946 0
M  V30 4940 C 460.904 -2.97094 1.83128 0
M  V30 4941 C 462.252 -3.70071 2.08165 0
M  V30 4942 O 463.276 -3.07081 1.80498 0
M  V30 4943 O 462.135 -4.83376 2.54971 0
M  V30 4944 H 459.229 -0.747386 0.354039 0
M  V30 4945 H 461.775 -1.05967 1.32549 0
M  V30 4946 H 460.547 -2.69407 2.83788 0
M  V30 4947 H 460.17 -3.70204 1.45034 0
M  V30 4948 N 461.167 -1.02423 -1.1978 0
M  V30 4949 C 462.099 -0.559152 -2.22275 0
M  V30 4950 C 463.112 0.36251 -1.58713 0
M  V30 4951 O 464.301 0.159641 -1.77785 0
M  V30 4952 C 461.401 0.205094 -3.38279 0
M  V30 4953 C 460.574 -0.720361 -4.31427 0
M  V30 4954 C 459.633 -0.00234368 -5.262 0
M  V30 4955 O 458.659 -0.627378 -5.65732 0
M  V30 4956 N 459.861 1.26996 -5.66438 0
M  V30 4957 H 462.626 -1.44064 -2.62804 0
M  V30 4958 H 460.187 -0.902692 -1.34399 0
M  V30 4959 H 462.179 0.694868 -3.9869 0
M  V30 4960 H 460.749 0.987947 -2.96578 0
M  V30 4961 H 459.969 -1.39031 -3.68869 0
M  V30 4962 H 461.257 -1.3495 -4.90577 0
M  V30 4963 H 460.655 1.79858 -5.36347 0
M  V30 4964 H 459.212 1.70432 -6.29123 0
M  V30 4965 N 462.645 1.35699 -0.801477 0
M  V30 4966 C 464.056 1.81415 -0.441073 0
M  V30 4967 C 464.407 1.66595 1.03636 0
M  V30 4968 O 463.532 1.19369 1.80499 0
M  V30 4969 C 464.127 3.29369 -0.793819 0
M  V30 4970 C 462.686 3.73248 -0.486083 0
M  V30 4971 C 461.833 2.57775 -1.02213 0
M  V30 4972 H 464.784 1.23749 -0.993572 0
M  V30 4973 H 464.805 3.80395 -0.0894158 0
M  V30 4974 H 464.317 3.40123 -1.86917 0
M  V30 4975 H 462.418 3.68046 0.580735 0
M  V30 4976 H 462.531 4.68222 -1.01513 0
M  V30 4977 H 460.895 2.50788 -0.444712 0
M  V30 4978 H 461.678 2.71309 -2.10348 0
M  V30 4979 N 464.123 0.554532 1.47522 0
M  V30 4980 C 465.353 0.0342074 2.06572 0
M  V30 4981 C 465.761 -1.26375 1.40805 0
M  V30 4982 O 465.104 -1.7683 0.49769 0
M  V30 4983 C 465.166 -0.235096 3.5873 0
M  V30 4984 C 464.83 0.973024 4.46521 0
M  V30 4985 C 465.827 1.8779 4.848 0
M  V30 4986 C 463.512 1.18694 4.88075 0
M  V30 4987 C 465.506 2.98039 5.63428 0
M  V30 4988 C 463.193 2.29254 5.66468 0
M  V30 4989 C 464.191 3.18757 6.04055 0
M  V30 4990 O 463.879 4.27401 6.8087 0
M  V30 4991 H 463.611 0.041587 0.67472 0
M  V30 4992 H 466.165 0.766748 1.90552 0
M  V30 4993 H 464.395 -1.02191 3.72953 0
M  V30 4994 H 466.084 -0.700477 3.9981 0
M  V30 4995 H 466.85 1.72467 4.53299 0
M  V30 4996 H 462.729 0.49947 4.58286 0
M  V30 4997 H 466.273 3.67926 5.92685 0
M  V30 4998 H 462.17 2.4455 5.97382 0
M  V30 4999 H 462.938 4.25415 6.9926 0
M  V30 5000 N 465.601 -1.54893 0.290851 0
M  V30 5001 C 466.564 -2.21824 -0.576784 0
M  V30 5002 C 467.564 -1.20104 -1.06919 0
M  V30 5003 O 468.754 -1.44906 -0.966843 0
M  V30 5004 C 465.886 -2.89662 -1.79747 0
M  V30 5005 H 467.079 -2.99899 0.00784051 0
M  V30 5006 H 464.632 -1.56245 0.0415934 0
M  V30 5007 H 465.367 -2.15639 -2.42219 0
M  V30 5008 H 465.152 -3.64219 -1.45214 0
M  V30 5009 H 466.642 -3.4075 -2.4141 0
M  V30 5010 N 467.08 -0.0183926 -1.57589 0
M  V30 5011 C 468.043 0.951986 -2.08494 0
M  V30 5012 C 469.043 1.26092 -0.997874 0
M  V30 5013 O 470.233 1.20304 -1.25987 0
M  V30 5014 C 467.365 2.27165 -2.54182 0
M  V30 5015 H 468.558 0.511307 -2.95509 0
M  V30 5016 H 466.111 0.229444 -1.54607 0
M  V30 5017 H 466.846 2.75884 -1.70465 0
M  V30 5018 H 466.631 2.06057 -3.33591 0
M  V30 5019 H 468.121 2.9674 -2.93828 0
M  V30 5020 N 468.558 1.5553 0.254621 0
M  V30 5021 C 469.488 1.9268 1.31897 0
M  V30 5022 C 470.469 0.790797 1.506 0
M  V30 5023 O 471.654 1.05045 1.63337 0
M  V30 5024 C 468.784 2.21477 2.67517 0
M  V30 5025 C 467.738 3.37256 2.63519 0
M  V30 5026 C 467.064 3.51576 4.02862 0
M  V30 5027 C 468.364 4.73157 2.21179 0
M  V30 5028 H 470.058 2.81832 1.01051 0
M  V30 5029 H 467.604 1.35599 0.484662 0
M  V30 5030 H 469.557 2.46055 3.42104 0
M  V30 5031 H 468.281 1.29144 2.99982 0
M  V30 5032 H 466.94 3.12675 1.9139 0
M  V30 5033 H 466.588 2.56676 4.32581 0
M  V30 5034 H 466.288 4.2943 4.01078 0
M  V30 5035 H 467.812 3.78467 4.79161 0
M  V30 5036 H 469.226 4.97158 2.85494 0
M  V30 5037 H 467.623 5.54058 2.30521 0
M  V30 5038 H 468.693 4.70739 1.16332 0
M  V30 5039 N 470.036 -0.519951 1.48776 0
M  V30 5040 C 471.266 -1.29783 1.60748 0
M  V30 5041 C 471.674 -1.87253 0.27072 0
M  V30 5042 O 471.017 -1.67628 -0.751438 0
M  V30 5043 C 471.079 -2.47984 2.60277 0
M  V30 5044 C 470.743 -2.11526 4.051 0
M  V30 5045 C 471.74 -1.66608 4.92481 0
M  V30 5046 C 469.425 -2.21742 4.50706 0
M  V30 5047 C 471.419 -1.32384 6.23501 0
M  V30 5048 C 469.106 -1.87129 5.81744 0
M  V30 5049 C 470.104 -1.42523 6.67964 0
M  V30 5050 O 469.792 -1.0837 7.96562 0
M  V30 5051 H 469.524 -0.400562 0.544542 0
M  V30 5052 H 472.078 -0.632879 1.95407 0
M  V30 5053 H 470.308 -3.17493 2.2076 0
M  V30 5054 H 471.997 -3.10036 2.61978 0
M  V30 5055 H 472.763 -1.58178 4.58481 0
M  V30 5056 H 468.642 -2.55415 3.83776 0
M  V30 5057 H 472.186 -0.974949 6.90754 0
M  V30 5058 H 468.083 -1.95204 6.15277 0
M  V30 5059 H 468.851 -1.21681 8.09405 0
M  V30 5060 N 471.514 -1.37532 -0.769588 0
M  V30 5061 C 472.925 -1.29382 -1.346 0
M  V30 5062 C 473.276 0.0576039 -1.96115 0
M  V30 5063 O 472.401 0.95947 -1.93967 0
M  V30 5064 C 472.996 -2.34298 -2.44724 0
M  V30 5065 C 471.555 -2.29776 -2.98128 0
M  V30 5066 C 470.702 -2.18013 -1.71364 0
M  V30 5067 H 473.653 -1.48123 -0.56968 0
M  V30 5068 H 473.674 -1.99089 -3.24259 0
M  V30 5069 H 473.186 -3.32645 -1.99922 0
M  V30 5070 H 471.287 -1.34959 -3.47299 0
M  V30 5071 H 471.4 -3.23276 -3.53595 0
M  V30 5072 H 469.764 -1.64595 -1.94372 0
M  V30 5073 H 470.547 -3.18278 -1.28662 0
M  V30 5074 N 472.992 0.995999 -1.22138 0
M  V30 5075 C 474.217 1.77601 -1.0711 0
M  V30 5076 C 474.642 1.84339 0.374264 0
M  V30 5077 O 474 1.29359 1.27028 0
M  V30 5078 C 474.048 3.18897 -1.68336 0
M  V30 5079 O 473.152 4.01663 -0.934928 0
M  V30 5080 H 472.493 0.547011 -0.376397 0
M  V30 5081 H 475.023 1.25137 -1.6187 0
M  V30 5082 H 475.033 3.69539 -1.72931 0
M  V30 5083 H 473.708 3.13308 -2.73516 0
M  V30 5084 H 472.285 3.60204 -0.964751 0
M  V30 5085 N 474.47 1.03057 1.19235 0
M  V30 5086 C 475.716 0.729098 1.89241 0
M  V30 5087 C 476.049 -0.740573 1.79525 0
M  V30 5088 O 475.324 -1.53946 1.18874 0
M  V30 5089 C 475.607 1.18304 3.40112 0
M  V30 5090 C 475.46 2.71406 3.5869 0
M  V30 5091 C 476.779 0.765161 4.33397 0
M  V30 5092 H 473.898 0.266338 0.687192 0
M  V30 5093 H 476.54 1.28079 1.40341 0
M  V30 5094 H 474.69 0.713672 3.81889 0
M  V30 5095 H 476.362 3.26303 3.26074 0
M  V30 5096 H 474.605 3.11717 3.01687 0
M  V30 5097 H 475.276 2.98225 4.64506 0
M  V30 5098 H 477.752 1.16889 3.99345 0
M  V30 5099 H 476.628 1.11065 5.37546 0
M  V30 5100 H 476.889 -0.332372 4.40849 0
M  V30 5101 N 475.948 -1.35272 0.808662 0
M  V30 5102 C 477.196 -1.98316 0.389233 0
M  V30 5103 C 477.517 -1.64465 -1.04767 0
M  V30 5104 O 476.787 -0.928175 -1.72516 0
M  V30 5105 H 475.367 -0.733585 0.140935 0
M  V30 5106 H 478.029 -1.6515 1.03496 0
M  V30 5107 H 477.125 -3.08123 0.496631 0
M  V30 5108 N 477.426 -0.562348 -1.47226 0
M  V30 5109 C 478.837 -0.130325 -1.86245 0
M  V30 5110 C 479.188 1.30128 -1.46838 0
M  V30 5111 O 478.313 1.97974 -0.873805 0
M  V30 5112 C 478.908 -0.229738 -3.3802 0
M  V30 5113 C 477.467 0.14728 -3.76112 0
M  V30 5114 C 476.614 -0.574971 -2.71274 0
M  V30 5115 H 479.565 -0.771773 -1.3867 0
M  V30 5116 H 479.586 0.550316 -3.76499 0
M  V30 5117 H 479.098 -1.27178 -3.66671 0
M  V30 5118 H 477.199 1.19023 -3.53078 0
M  V30 5119 H 477.312 -0.214858 -4.78618 0
M  V30 5120 H 475.676 -0.0174756 -2.54694 0
M  V30 5121 H 476.459 -1.61827 -3.02766 0
M  V30 5122 N 478.904 1.54736 -0.299062 0
M  V30 5123 C 480.152 1.99706 0.31017 0
M  V30 5124 C 480.473 1.18896 1.54559 0
M  V30 5125 O 479.743 0.284445 1.93824 0
M  V30 5126 H 478.323 0.737686 0.117596 0
M  V30 5127 H 480.985 1.9054 -0.409943 0
M  V30 5128 H 480.081 3.06596 0.58355 0
M  V30 5129 N 480.382 0.0267497 1.57577 0
M  V30 5130 C 481.631 -0.651736 1.9088 0
M  V30 5131 C 481.944 -1.73427 0.904576 0
M  V30 5132 O 483.15 -2.46923 1.12877 0
M  V30 5133 C 481.606 -1.21048 3.38933 0
M  V30 5134 C 481.214 -0.161362 4.47709 0
M  V30 5135 C 482.958 -1.86562 3.81307 0
M  V30 5136 C 480.865 -0.731611 5.86857 0
M  V30 5137 H 479.795 -0.247198 0.712326 0
M  V30 5138 H 482.446 0.0916641 1.83271 0
M  V30 5139 H 480.828 -2.00542 3.41466 0
M  V30 5140 H 482.002 0.61094 4.56732 0
M  V30 5141 H 480.317 0.394877 4.14523 0
M  V30 5142 H 482.914 -2.30178 4.8262 0
M  V30 5143 H 483.257 -2.70735 3.16241 0
M  V30 5144 H 483.79 -1.13762 3.81186 0
M  V30 5145 H 480.529 0.0719329 6.55461 0
M  V30 5146 H 480.049 -1.47245 5.81445 0
M  V30 5147 H 481.728 -1.22208 6.35354 0
M  V30 5148 N 481.861 -1.55662 -0.24637 0
M  V30 5149 C 483.091 -1.81312 -0.990438 0
M  V30 5150 C 483.499 -0.600234 -1.79426 0
M  V30 5151 O 482.842 0.440537 -1.78339 0
M  V30 5152 C 482.904 -3.0032 -1.97607 0
M  V30 5153 C 482.568 -4.36322 -1.35912 0
M  V30 5154 C 483.565 -5.14295 -0.761348 0
M  V30 5155 C 481.25 -4.83019 -1.37833 0
M  V30 5156 C 483.244 -6.37114 -0.190998 0
M  V30 5157 C 480.931 -6.05786 -0.804128 0
M  V30 5158 C 481.929 -6.82672 -0.211489 0
M  V30 5159 O 481.617 -8.03121 0.353845 0
M  V30 5160 H 481.349 -0.607233 -0.297058 0
M  V30 5161 H 483.903 -2.0356 -0.274351 0
M  V30 5162 H 482.133 -2.73829 -2.73047 0
M  V30 5163 H 483.822 -3.13057 -2.58361 0
M  V30 5164 H 484.588 -4.79337 -0.739013 0
M  V30 5165 H 480.467 -4.23165 -1.829 0
M  V30 5166 H 484.011 -6.97069 0.272206 0
M  V30 5167 H 479.908 -6.40222 -0.823792 0
M  V30 5168 H 480.676 -8.18131 0.245761 0
M  V30 5169 N 483.339 0.512053 -1.4905 0
M  V30 5170 C 484.569 1.28928 -1.61434 0
M  V30 5171 C 484.977 1.87107 -0.280647 0
M  V30 5172 O 484.32 1.68024 0.742537 0
M  V30 5173 C 484.382 2.466 -2.61588 0
M  V30 5174 C 484.046 2.09375 -4.06216 0
M  V30 5175 C 485.043 1.63994 -4.93358 0
M  V30 5176 C 482.728 2.19348 -4.51876 0
M  V30 5177 C 484.722 1.29076 -6.24194 0
M  V30 5178 C 482.409 1.84041 -5.82728 0
M  V30 5179 C 483.407 1.38978 -6.68711 0
M  V30 5180 O 483.095 1.04144 -7.97126 0
M  V30 5181 H 482.827 0.397668 -0.546659 0
M  V30 5182 H 485.381 0.622507 -1.9574 0
M  V30 5183 H 483.611 3.16318 -2.22441 0
M  V30 5184 H 485.3 3.08642 -2.63619 0
M  V30 5185 H 486.066 1.55744 -4.59313 0
M  V30 5186 H 481.945 2.53376 -3.85125 0
M  V30 5187 H 485.489 0.938303 -6.91261 0
M  V30 5188 H 481.386 1.91938 -6.16304 0
M  V30 5189 H 482.154 1.17387 -8.10039 0
M  V30 5190 N 484.817 1.37938 0.762283 0
M  V30 5191 C 485.764 1.34467 1.87583 0
M  V30 5192 C 486.734 0.208633 1.64785 0
M  V30 5193 O 487.919 0.399494 1.86571 0
M  V30 5194 C 485.059 1.16692 3.24772 0
M  V30 5195 C 484.172 2.39608 3.59461 0
M  V30 5196 C 483.307 2.14631 4.85908 0
M  V30 5197 C 482.346 3.33364 5.13357 0
M  V30 5198 N 481.483 3.07877 6.30996 0
M  V30 5199 H 486.323 2.29669 1.89885 0
M  V30 5200 H 483.86 1.14116 0.928219 0
M  V30 5201 H 485.818 1.04405 4.03925 0
M  V30 5202 H 484.448 0.251333 3.2182 0
M  V30 5203 H 483.5 2.626 2.75219 0
M  V30 5204 H 484.812 3.28128 3.75678 0
M  V30 5205 H 483.966 1.99429 5.72986 0
M  V30 5206 H 482.705 1.23463 4.71814 0
M  V30 5207 H 481.71 3.49094 4.24751 0
M  V30 5208 H 482.935 4.25395 5.29354 0
M  V30 5209 H 480.881 2.19348 6.18241 0
M  V30 5210 H 480.798 3.89944 6.47673 0
M  V30 5211 H 482.066 2.96313 7.20985 0
M  V30 5212 N 486.295 -0.989507 1.22664 0
M  V30 5213 C 487.543 -1.72612 1.05117 0
M  V30 5214 C 487.864 -1.90552 -0.414131 0
M  V30 5215 O 487.134 -1.4676 -1.29762 0
M  V30 5216 H 485.714 -0.639555 0.385977 0
M  V30 5217 H 488.376 -1.19158 1.54232 0
M  V30 5218 H 487.472 -2.71926 1.53175 0
M  V30 5219 N 487.773 -1.03688 -1.18687 0
M  V30 5220 C 488.72 -0.624624 -2.22187 0
M  V30 5221 C 489.69 0.365636 -1.62026 0
M  V30 5222 O 490.875 0.260481 -1.89014 0
M  V30 5223 C 488.015 0.0101738 -3.45099 0
M  V30 5224 C 487.128 -1.02709 -4.19613 0
M  V30 5225 C 486.263 -0.361213 -5.2997 0
M  V30 5226 C 485.302 -1.38384 -5.96252 0
M  V30 5227 N 484.439 -0.743196 -6.98155 0
M  V30 5228 H 489.279 -1.51176 -2.56807 0
M  V30 5229 H 486.816 -0.75636 -1.26165 0
M  V30 5230 H 488.774 0.395528 -4.15321 0
M  V30 5231 H 487.404 0.860848 -3.1111 0
M  V30 5232 H 486.456 -1.53043 -3.48256 0
M  V30 5233 H 487.768 -1.80398 -4.65036 0
M  V30 5234 H 486.922 0.0785537 -6.06649 0
M  V30 5235 H 485.661 0.447799 -4.8564 0
M  V30 5236 H 484.666 -1.83378 -5.18317 0
M  V30 5237 H 485.891 -2.19448 -6.42666 0
M  V30 5238 H 483.837 0.0455789 -6.55984 0
M  V30 5239 H 483.754 -1.45784 -7.41811 0
M  V30 5240 H 485.022 -0.327698 -7.78811 0
M  V30 5241 N 489.251 1.34841 -0.815825 0
M  V30 5242 C 490.5 1.97755 -0.396976 0
M  V30 5243 C 490.813 1.65422 1.04379 0
M  V30 5244 O 492.019 2.21771 1.5662 0
M  V30 5245 C 490.475 3.53818 -0.658869 0
M  V30 5246 C 490.083 3.95051 -2.11278 0
M  V30 5247 C 491.827 4.23397 -0.305834 0
M  V30 5248 C 489.734 5.43997 -2.31994 0
M  V30 5249 H 488.664 0.739985 -0.1447 0
M  V30 5250 H 491.315 1.53781 -1.00118 0
M  V30 5251 H 489.697 3.95997 0.0154112 0
M  V30 5252 H 490.871 3.63998 -2.82564 0
M  V30 5253 H 489.186 3.38388 -2.42657 0
M  V30 5254 H 491.783 5.32899 -0.43854 0
M  V30 5255 H 492.126 4.09508 0.748952 0
M  V30 5256 H 492.659 3.8667 -0.934403 0
M  V30 5257 H 489.398 5.62865 -3.35952 0
M  V30 5258 H 488.918 5.76589 -1.65244 0
M  V30 5259 H 490.597 6.10584 -2.14001 0
M  V30 5260 N 490.729 0.570148 1.46925 0
M  V30 5261 C 491.978 0.0487352 2.01641 0
M  V30 5262 C 492.291 -1.31433 1.44861 0
M  V30 5263 O 493.497 -1.92638 1.91318 0
M  V30 5264 C 491.953 0.0365817 3.59881 0
M  V30 5265 C 491.561 1.39719 4.25655 0
M  V30 5266 C 493.305 -0.431545 4.22301 0
M  V30 5267 C 491.212 1.34345 5.75939 0
M  V30 5268 H 490.142 0.0144492 0.753862 0
M  V30 5269 H 492.793 0.719928 1.68788 0
M  V30 5270 H 491.175 -0.700522 3.89755 0
M  V30 5271 H 492.349 2.15303 4.07408 0
M  V30 5272 H 490.664 1.80431 3.75278 0
M  V30 5273 H 493.261 -0.490354 5.32447 0
M  V30 5274 H 493.604 -1.44638 3.90366 0
M  V30 5275 H 494.137 0.251102 3.97007 0
M  V30 5276 H 490.876 2.33469 6.12513 0
M  V30 5277 H 490.396 0.629615 5.96486 0
M  V30 5278 H 492.075 1.051 6.38407 0
M  V30 5279 N 492.207 -1.54576 0.307264 0
M  V30 5280 C 493.454 -2.00263 -0.300167 0
M  V30 5281 C 493.782 -1.19561 -1.53413 0
M  V30 5282 O 493.037 -0.261487 -1.93945 0
M  V30 5283 C 493.336 -3.50572 -0.695253 0
M  V30 5284 C 493.002 -4.48771 0.437679 0
M  V30 5285 C 491.664 -4.7534 0.748681 0
M  V30 5286 C 494.016 -5.0721 1.19949 0
M  V30 5287 C 491.344 -5.5761 1.8245 0
M  V30 5288 C 493.696 -5.90651 2.26527 0
M  V30 5289 C 492.36 -6.15528 2.58227 0
M  V30 5290 H 491.63 -0.732814 -0.109839 0
M  V30 5291 H 494.277 -1.86664 0.427661 0
M  V30 5292 H 492.582 -3.61814 -1.50326 0
M  V30 5293 H 494.279 -3.83352 -1.17653 0
M  V30 5294 H 490.869 -4.282 0.185187 0
M  V30 5295 H 495.053 -4.86679 0.972474 0
M  V30 5296 H 490.309 -5.75121 2.07476 0
M  V30 5297 H 494.483 -6.34957 2.86011 0
M  V30 5298 H 492.11 -6.79066 3.4172 0
M  V30 5299 N 493.685 -0.035106 -1.57561 0
M  V30 5300 C 494.615 0.942993 -2.13612 0
M  V30 5301 C 495.596 1.33531 -1.05373 0
M  V30 5302 O 496.781 1.41287 -1.33235 0
M  V30 5303 C 493.911 2.22332 -2.66807 0
M  V30 5304 C 492.865 1.97156 -3.79886 0
M  V30 5305 C 492.191 3.31506 -4.19533 0
M  V30 5306 C 493.491 1.30596 -5.05709 0
M  V30 5307 H 495.185 0.476179 -2.95589 0
M  V30 5308 H 492.731 0.227602 -1.4219 0
M  V30 5309 H 494.684 2.91142 -3.04654 0
M  V30 5310 H 493.408 2.7119 -1.81999 0
M  V30 5311 H 492.067 1.30763 -3.42486 0
M  V30 5312 H 491.715 3.78134 -3.31698 0
M  V30 5313 H 491.415 3.15465 -4.95738 0
M  V30 5314 H 492.939 4.01574 -4.59968 0
M  V30 5315 H 494.353 1.89416 -5.41105 0
M  V30 5316 H 492.75 1.24934 -5.86951 0
M  V30 5317 H 493.82 0.279742 -4.84092 0
M  V30 5318 N 495.163 1.55791 0.238111 0
M  V30 5319 C 496.411 1.77681 0.963001 0
M  V30 5320 C 496.732 0.600674 1.85518 0
M  V30 5321 O 496.002 -0.383182 1.92116 0
M  V30 5322 H 494.582 0.655315 0.358568 0
M  V30 5323 H 497.244 1.93239 0.253945 0
M  V30 5324 H 496.34 2.69177 1.57956 0
M  V30 5325 N 496.642 -0.504142 1.49319 0
M  V30 5326 C 497.872 -1.28071 1.62116 0
M  V30 5327 C 498.28 -1.86955 0.290566 0
M  V30 5328 O 497.623 -1.68415 -0.733616 0
M  V30 5329 C 497.685 -2.4521 2.62893 0
M  V30 5330 C 497.349 -2.07218 4.0732 0
M  V30 5331 C 498.346 -1.61375 4.94221 0
M  V30 5332 C 496.031 -2.16949 4.53033 0
M  V30 5333 C 498.025 -1.25763 6.2487 0
M  V30 5334 C 495.712 -1.80949 5.83696 0
M  V30 5335 C 496.71 -1.3543 6.69438 0
M  V30 5336 O 496.398 -0.99915 7.97667 0
M  V30 5337 H 496.13 -0.394763 0.54876 0
M  V30 5338 H 498.684 -0.612118 1.96067 0
M  V30 5339 H 496.914 -3.15134 2.24115 0
M  V30 5340 H 498.603 -3.0724 2.65252 0
M  V30 5341 H 499.369 -1.53306 4.60133 0
M  V30 5342 H 495.248 -2.5133 3.86463 0
M  V30 5343 H 498.792 -0.901631 6.91749 0
M  V30 5344 H 494.689 -1.88667 6.17313 0
M  V30 5345 H 495.457 -1.13089 8.1065 0
M  V30 5346 N 498.12 -1.38341 -0.754957 0
M  V30 5347 C 499.368 -1.34208 -1.51105 0
M  V30 5348 C 499.689 0.0677634 -1.94882 0
M  V30 5349 O 498.959 1.01517 -1.67544 0
M  V30 5350 H 497.539 -0.493819 -0.560493 0
M  V30 5351 H 500.201 -1.73005 -0.897507 0
M  V30 5352 H 499.297 -1.99203 -2.4026 0
M  V30 5353 N 499.598 0.982988 -1.23187 0
M  V30 5354 C 500.846 1.72052 -1.06031 0
M  V30 5355 C 501.167 1.90769 0.404019 0
M  V30 5356 O 500.437 1.47446 1.28982 0
M  V30 5357 H 499.017 0.637499 -0.389363 0
M  V30 5358 H 501.679 1.18338 -1.54862 0
M  V30 5359 H 500.775 2.7111 -1.54615 0
M  V30 5360 N 501.076 1.04316 1.18135 0
M  V30 5361 C 502.006 0.657299 2.24058 0
M  V30 5362 C 502.987 -0.340678 1.66654 0
M  V30 5363 O 504.172 -0.220223 1.92947 0
M  V30 5364 C 501.302 0.0220715 3.47293 0
M  V30 5365 C 500.256 0.943857 4.17463 0
M  V30 5366 C 499.582 0.172973 5.3442 0
M  V30 5367 C 500.882 2.26409 4.70677 0
M  V30 5368 H 502.576 1.5428 2.56589 0
M  V30 5369 H 500.122 0.743263 1.23335 0
M  V30 5370 H 502.075 -0.259607 4.206 0
M  V30 5371 H 500.799 -0.898323 3.14003 0
M  V30 5372 H 499.458 1.20996 3.46057 0
M  V30 5373 H 499.106 -0.749907 4.97379 0
M  V30 5374 H 498.806 0.787098 5.82304 0
M  V30 5375 H 500.33 -0.101628 6.10515 0
M  V30 5376 H 501.744 2.04294 5.35665 0
M  V30 5377 H 500.141 2.8314 5.29105 0
M  V30 5378 H 501.211 2.90883 3.87962 0
M  V30 5379 N 502.554 -1.34406 0.822964 0
M  V30 5380 C 503.464 -2.33298 0.246838 0
M  V30 5381 C 504.48 -1.62625 -0.618797 0
M  V30 5382 O 505.656 -1.94391 -0.526685 0
M  V30 5383 C 502.721 -3.41785 -0.581731 0
M  V30 5384 C 501.782 -4.28206 0.306309 0
M  V30 5385 C 501.015 -5.31512 -0.48281 0
M  V30 5386 O 501.238 -5.43973 -1.71607 0
M  V30 5387 O 500.172 -6.01749 0.134884 0
M  V30 5388 H 503.998 -2.84401 1.06534 0
M  V30 5389 H 501.583 -1.37466 0.585108 0
M  V30 5390 H 503.465 -4.08028 -1.05313 0
M  V30 5391 H 502.14 -2.92925 -1.37756 0
M  V30 5392 H 501.047 -3.64885 0.825199 0
M  V30 5393 H 502.38 -4.80507 1.06649 0
M  V30 5394 N 504.032 -0.577932 -1.46621 0
M  V30 5395 C 504.982 0.178869 -2.27297 0
M  V30 5396 C 505.966 0.866279 -1.35589 0
M  V30 5397 O 507.158 0.761163 -1.59798 0
M  V30 5398 C 504.287 1.19499 -3.2183 0
M  V30 5399 C 503.373 0.50994 -4.21023 0
M  V30 5400 N 503.764 -0.43177 -5.03954 0
M  V30 5401 C 502.062 0.761287 -4.39455 0
M  V30 5402 C 502.763 -0.831693 -5.75724 0
M  V30 5403 N 501.739 -0.181897 -5.43296 0
M  V30 5404 H 505.541 -0.544859 -2.88805 0
M  V30 5405 H 503.055 -0.399373 -1.57413 0
M  V30 5406 H 505.052 1.75131 -3.78332 0
M  V30 5407 H 503.712 1.91959 -2.61881 0
M  V30 5408 H 504.723 -0.807045 -5.11573 0
M  V30 5409 H 501.4 1.47282 -3.90659 0
M  V30 5410 H 502.79 -1.6067 -6.52407 0
M  V30 5411 N 505.51 1.54411 -0.315457 0
M  V30 5412 C 506.921 1.85885 0.174265 0
M  V30 5413 C 507.272 1.23723 1.52273 0
M  V30 5414 O 506.397 0.540246 2.09548 0
M  V30 5415 C 506.992 3.37257 0.322981 0
M  V30 5416 C 505.551 3.68711 0.756922 0
M  V30 5417 C 504.698 2.77013 -0.126195 0
M  V30 5418 H 507.649 1.49374 -0.536007 0
M  V30 5419 H 507.67 3.62539 1.15522 0
M  V30 5420 H 507.182 3.82471 -0.658602 0
M  V30 5421 H 505.283 3.29024 1.74854 0
M  V30 5422 H 505.396 4.75741 0.566291 0
M  V30 5423 H 503.76 2.51588 0.39692 0
M  V30 5424 H 504.543 3.25051 -1.1044 0
M  V30 5425 N 506.988 0.0434614 1.5754 0
M  V30 5426 C 508.237 -0.631454 1.91561 0
M  V30 5427 C 508.55 -1.72457 0.92292 0
M  V30 5428 O 509.756 -2.45712 1.15489 0
M  V30 5429 C 508.212 -1.17447 3.40197 0
M  V30 5430 C 507.82 -0.113867 4.47855 0
M  V30 5431 C 509.564 -1.82507 3.83264 0
M  V30 5432 C 507.471 -0.669326 5.876 0
M  V30 5433 H 506.401 -0.239629 0.714908 0
M  V30 5434 H 509.052 0.111097 1.83163 0
M  V30 5435 H 507.434 -1.96909 3.43574 0
M  V30 5436 H 508.608 0.659348 4.56058 0
M  V30 5437 H 506.923 0.438821 4.14081 0
M  V30 5438 H 509.52 -2.25047 4.85034 0
M  V30 5439 H 509.863 -2.67365 3.19095 0
M  V30 5440 H 510.396 -1.09712 3.82372 0
M  V30 5441 H 507.135 0.141449 6.55347 0
M  V30 5442 H 506.655 -1.4107 5.82974 0
M  V30 5443 H 508.334 -1.15463 6.36614 0
M  V30 5444 N 508.466 -1.55915 -0.229846 0
M  V30 5445 C 509.414 -1.9258 -1.30444 0
M  V30 5446 C 510.408 -0.806839 -1.48951 0
M  V30 5447 O 511.614 -0.991606 -1.50224 0
M  V30 5448 H 507.989 -0.611878 -0.437161 0
M  V30 5449 H 509.96 -2.82264 -0.96797 0
M  V30 5450 C 508.709 -2.25171 -2.6494 0
M  V30 5451 H 508.032 -3.10782 -2.51504 0
M  V30 5452 H 509.472 -2.54716 -3.38963 0
M  V30 5453 C 507.931 -1.07394 -3.19324 0
M  V30 5454 O 508.461 -0.330759 -4.00336 0
M  V30 5455 N 506.667 -0.859984 -2.77584 0
M  V30 5456 H 506.214 -1.46605 -2.11813 0
M  V30 5457 H 506.172 -0.0736671 -3.14314 0
M  V30 5458 N 509.944 0.496216 -1.49584 0
M  V30 5459 C 510.854 1.62352 -1.69349 0
M  V30 5460 C 511.87 1.64184 -0.576147 0
M  V30 5461 O 513.046 1.82517 -0.85144 0
M  V30 5462 C 510.111 2.98698 -1.76013 0
M  V30 5463 C 509.172 3.07454 -2.99617 0
M  V30 5464 C 508.405 4.37296 -3.05953 0
M  V30 5465 O 508.628 5.2637 -2.19752 0
M  V30 5466 O 507.562 4.51124 -3.9846 0
M  V30 5467 H 511.388 1.48606 -2.64859 0
M  V30 5468 H 508.973 0.673022 -1.33382 0
M  V30 5469 H 510.855 3.79725 -1.82721 0
M  V30 5470 H 509.53 3.12696 -0.836828 0
M  V30 5471 H 508.437 2.25597 -2.98424 0
M  V30 5472 H 509.77 2.98385 -3.91443 0
M  V30 5473 N 511.423 1.38739 0.74761 0
M  V30 5474 C 512.371 1.36573 1.88283 0
M  V30 5475 C 513.365 0.250712 1.67534 0
M  V30 5476 O 514.571 0.420073 1.7503 0
M  V30 5477 H 510.946 0.42619 0.619569 0
M  V30 5478 H 512.917 2.32356 1.87226 0
M  V30 5479 C 511.666 1.21361 3.25832 0
M  V30 5480 H 510.989 2.06424 3.42388 0
M  V30 5481 H 512.429 1.23901 4.05493 0
M  V30 5482 C 510.888 -0.0790099 3.36807 0
M  V30 5483 O 511.418 -1.05385 3.8763 0
M  V30 5484 N 509.624 -0.13785 2.90273 0
M  V30 5485 H 509.171 0.656128 2.49104 0
M  V30 5486 H 509.129 -1.00228 2.97996 0
M  V30 5487 N 512.901 -0.976442 1.23707 0
M  V30 5488 C 514.147 -1.72081 1.07312 0
M  V30 5489 C 514.48 -1.90275 -0.388476 0
M  V30 5490 O 513.755 -1.4579 -1.28746 0
M  V30 5491 C 514.038 -3.11675 1.80363 0
M  V30 5492 C 513.891 -3.01027 3.3422 0
M  V30 5493 C 515.21 -4.1117 1.5693 0
M  V30 5494 H 512.329 -0.624583 0.391236 0
M  V30 5495 H 514.971 -1.13649 1.52263 0
M  V30 5496 H 513.121 -3.61559 1.42153 0
M  V30 5497 H 514.793 -2.58637 3.81975 0
M  V30 5498 H 513.036 -2.3744 3.63049 0
M  V30 5499 H 513.707 -3.9988 3.80525 0
M  V30 5500 H 516.183 -3.7011 1.90151 0
M  V30 5501 H 515.059 -5.06928 2.10513 0
M  V30 5502 H 515.32 -4.392 0.505548 0
M  V30 5503 N 514.379 -1.04941 -1.1758 0
M  V30 5504 C 515.628 -0.753124 -1.87112 0
M  V30 5505 C 515.941 0.722507 -1.81767 0
M  V30 5506 O 517.147 1.13265 -2.46746 0
M  V30 5507 C 515.603 -1.29695 -3.35719 0
M  V30 5508 C 515.211 -2.80184 -3.49572 0
M  V30 5509 C 516.955 -1.07759 -4.10595 0
M  V30 5510 C 514.862 -3.2788 -4.92187 0
M  V30 5511 H 513.792 -0.278034 -0.700866 0
M  V30 5512 H 516.443 -1.26637 -1.32798 0
M  V30 5513 H 514.825 -0.711522 -3.89555 0
M  V30 5514 H 515.999 -3.44561 -3.05965 0
M  V30 5515 H 514.314 -3.00632 -2.88113 0
M  V30 5516 H 516.911 -1.40899 -5.15802 0
M  V30 5517 H 517.254 -0.0152302 -4.16297 0
M  V30 5518 H 517.787 -1.62809 -3.62957 0
M  V30 5519 H 514.526 -4.33535 -4.91658 0
M  V30 5520 H 514.046 -2.68245 -5.36475 0
M  V30 5521 H 515.725 -3.22412 -5.60945 0
M  V30 5522 N 515.857 1.33968 -0.830081 0
M  V30 5523 C 517.097 1.99879 -0.427521 0
M  V30 5524 C 517.461 1.64355 0.992546 0
M  V30 5525 O 518.662 2.23164 1.49837 0
M  V30 5526 C 516.933 3.51771 -0.631815 0
M  V30 5527 S 518.492 4.37608 -0.323168 0
M  V30 5528 H 515.31 0.692485 -0.161202 0
M  V30 5529 H 517.912 1.63129 -1.07745 0
M  V30 5530 H 516.616 3.75113 -1.66488 0
M  V30 5531 H 516.147 3.93386 0.0325936 0
M  V30 5532 H 518.162 4.88683 0.860432 0
M  V30 5533 N 517.335 0.585699 1.46312 0
M  V30 5534 C 518.283 -0.158577 2.32059 0
M  V30 5535 C 519.277 -0.881427 1.44662 0
M  V30 5536 O 520.483 -0.799476 1.61271 0
M  V30 5537 H 516.858 -0.0700066 0.748734 0
M  V30 5538 H 518.829 0.583383 2.92642 0
M  V30 5539 C 517.578 -1.15701 3.27885 0
M  V30 5540 H 516.901 -0.610215 3.95116 0
M  V30 5541 H 518.341 -1.64812 3.90657 0
M  V30 5542 C 516.8 -2.21951 2.53455 0
M  V30 5543 O 517.33 -3.29352 2.29978 0
M  V30 5544 N 515.536 -1.9664 2.13965 0
M  V30 5545 H 515.083 -1.09309 2.33258 0
M  V30 5546 H 515.041 -2.6794 1.64485 0
M  V30 5547 N 518.813 -1.54241 0.323641 0
M  V30 5548 C 520.041 -2.04985 -0.280871 0
M  V30 5549 C 520.456 -1.19978 -1.45777 0
M  V30 5550 O 519.813 -0.230471 -1.81039 0
M  V30 5551 C 519.864 -3.54353 -0.715258 0
M  V30 5552 O 519.585 -4.36132 0.414817 0
M  V30 5553 C 521.086 -4.21189 -1.38257 0
M  V30 5554 H 518.306 -0.66851 -0.0577502 0
M  V30 5555 H 520.85 -1.99029 0.469852 0
M  V30 5556 H 519.005 -3.60596 -1.41596 0
M  V30 5557 H 519.419 -5.2445 0.0725227 0
M  V30 5558 H 520.893 -5.27154 -1.63745 0
M  V30 5559 H 521.37 -3.72307 -2.32989 0
M  V30 5560 H 521.976 -4.19085 -0.724447 0
M  V30 5561 N 520.291 -0.0518155 -1.57515 0
M  V30 5562 C 521.519 0.631395 -1.9703 0
M  V30 5563 C 521.934 1.64341 -0.92938 0
M  V30 5564 O 521.291 1.82296 0.0863266 0
M  V30 5565 C 521.342 1.31774 -3.36627 0
M  V30 5566 O 521.063 0.346247 -4.3673 0
M  V30 5567 C 522.564 2.09065 -3.90905 0
M  V30 5568 H 519.784 0.172576 -0.648428 0
M  V30 5569 H 522.328 -0.118306 -2.04158 0
M  V30 5570 H 520.483 2.01867 -3.30649 0
M  V30 5571 H 520.897 0.836226 -5.17791 0
M  V30 5572 H 522.371 2.52508 -4.9086 0
M  V30 5573 H 522.848 2.93908 -3.26366 0
M  V30 5574 H 523.454 1.43882 -4.00223 0
M  V30 5575 N 521.769 1.56035 0.221574 0
M  V30 5576 C 523.017 1.78693 0.944102 0
M  V30 5577 C 523.338 0.620317 1.8487 0
M  V30 5578 O 522.608 -0.362784 1.92512 0
M  V30 5579 H 521.188 0.659082 0.351597 0
M  V30 5580 H 523.85 1.93497 0.233435 0
M  V30 5581 H 522.946 2.70837 1.55093 0
M  V30 5582 N 523.247 -0.488276 1.49845 0
M  V30 5583 C 524.487 -1.2516 1.61599 0
M  V30 5584 C 524.851 -1.89615 0.301706 0
M  V30 5585 O 526.052 -2.67182 0.29453 0
M  V30 5586 C 524.323 -2.2805 2.75187 0
M  V30 5587 S 525.882 -3.13552 3.0697 0
M  V30 5588 H 522.7 -0.425178 0.569864 0
M  V30 5589 H 525.302 -0.551545 1.87559 0
M  V30 5590 H 524.006 -1.7925 3.69185 0
M  V30 5591 H 523.537 -3.02708 2.5126 0
M  V30 5592 H 525.552 -4.28927 2.49471 0
M  V30 5593 N 524.725 -1.39134 -0.740242 0
M  V30 5594 C 526.136 -1.32208 -1.31825 0
M  V30 5595 C 526.487 0.0159919 -1.96193 0
M  V30 5596 O 525.612 0.918111 -1.95958 0
M  V30 5597 C 526.207 -2.39436 -2.39699 0
M  V30 5598 C 524.766 -2.36048 -2.93187 0
M  V30 5599 C 523.913 -2.21599 -1.66701 0
M  V30 5600 H 526.864 -1.49298 -0.538133 0
M  V30 5601 H 526.885 -2.05922 -3.19963 0
M  V30 5602 H 526.397 -3.36811 -1.92821 0
M  V30 5603 H 524.498 -1.42295 -3.44359 0
M  V30 5604 H 524.611 -3.30704 -3.46658 0
M  V30 5605 H 522.975 -1.68681 -1.90837 0
M  V30 5606 H 523.758 -3.20936 -1.21882 0
M  V30 5607 N 526.204 0.969867 -1.24223 0
M  V30 5608 C 527.452 1.70918 -1.0785 0
M  V30 5609 C 527.773 1.91186 0.383763 0
M  V30 5610 O 527.043 1.48806 1.27411 0
M  V30 5611 H 525.623 0.633334 -0.396103 0
M  V30 5612 H 528.285 1.16689 -1.56108 0
M  V30 5613 H 527.381 2.69455 -1.57482 0
M  V30 5614 N 527.682 1.05563 1.17022 0
M  V30 5615 C 528.629 0.659893 2.21165 0
M  V30 5616 C 529.599 -0.339813 1.62587 0
M  V30 5617 O 530.784 -0.230378 1.89404 0
M  V30 5618 C 527.924 0.0447297 3.45071 0
M  V30 5619 C 527.037 1.09372 4.17926 0
M  V30 5620 C 526.172 0.445481 5.29329 0
M  V30 5621 C 525.211 1.47852 5.93975 0
M  V30 5622 N 524.348 0.854172 6.96885 0
M  V30 5623 H 529.188 1.55243 2.54369 0
M  V30 5624 H 526.725 0.776336 1.24946 0
M  V30 5625 H 528.683 -0.329404 4.15898 0
M  V30 5626 H 527.313 -0.811244 3.1244 0
M  V30 5627 H 526.365 1.58564 3.45777 0
M  V30 5628 H 527.677 1.87773 4.62107 0
M  V30 5629 H 526.831 0.0179688 6.06697 0
M  V30 5630 H 525.57 -0.370481 4.86291 0
M  V30 5631 H 524.575 1.91601 5.15334 0
M  V30 5632 H 525.8 2.29645 6.39093 0
M  V30 5633 H 523.746 0.0587882 6.55974 0
M  V30 5634 H 523.663 1.57567 7.39397 0
M  V30 5635 H 524.931 0.451559 7.78191 0
M  V30 5636 N 529.16 -1.33526 0.837174 0
M  V30 5637 C 530.388 -2.02047 0.445494 0
M  V30 5638 C 530.803 -1.62995 -0.952788 0
M  V30 5639 O 530.16 -0.842447 -1.61892 0
M  V30 5640 C 530.211 -3.57221 0.554577 0
M  V30 5641 O 529.932 -3.94863 1.89776 0
M  V30 5642 C 531.433 -4.43012 0.159634 0
M  V30 5643 H 528.653 -0.647221 0.177048 0
M  V30 5644 H 531.197 -1.70492 1.12928 0
M  V30 5645 H 529.352 -3.87315 -0.0812781 0
M  V30 5646 H 529.766 -4.89569 1.88208 0
M  V30 5647 H 531.24 -5.51253 0.28701 0
M  V30 5648 H 531.717 -4.29916 -0.898289 0
M  V30 5649 H 532.323 -4.18274 0.769855 0
M  V30 5650 N 530.638 -0.59345 -1.46 0
M  V30 5651 C 531.57 0.171569 -2.28557 0
M  V30 5652 C 532.583 0.845273 -1.39137 0
M  V30 5653 O 533.772 0.713033 -1.6364 0
M  V30 5654 C 530.872 1.26311 -3.14482 0
M  V30 5655 C 530.045 0.679258 -4.32094 0
M  V30 5656 C 529.104 1.65987 -4.99334 0
M  V30 5657 O 528.13 1.19171 -5.56585 0
M  V30 5658 N 529.332 2.99414 -4.97324 0
M  V30 5659 H 532.097 -0.536771 -2.94854 0
M  V30 5660 H 529.658 -0.431954 -1.56031 0
M  V30 5661 H 531.65 1.91863 -3.5633 0
M  V30 5662 H 530.22 1.87416 -2.50188 0
M  V30 5663 H 529.44 -0.153992 -3.93899 0
M  V30 5664 H 530.728 0.26916 -5.08088 0
M  V30 5665 H 530.126 3.40064 -4.52076 0
M  V30 5666 H 528.683 3.60426 -5.4308 0
M  V30 5667 N 532.116 1.54067 -0.331816 0
M  V30 5668 C 533.532 1.59587 0.0205388 0
M  V30 5669 C 533.732 1.34813 1.49759 0
M  V30 5670 O 532.788 1.13661 2.25471 0
M  V30 5671 C 534.101 2.97959 -0.405103 0
M  V30 5672 C 535.649 3.10964 -0.356454 0
M  V30 5673 C 536.124 4.51694 -0.757384 0
M  V30 5674 N 537.615 4.57709 -0.71111 0
M  V30 5675 C 538.35 5.64729 -0.993427 0
M  V30 5676 N 537.846 6.79652 -1.3433 0
M  V30 5677 N 539.639 5.54546 -0.918442 0
M  V30 5678 H 531.79 1.68426 -1.29407 0
M  V30 5679 H 534.053 0.78819 -0.526745 0
M  V30 5680 H 533.759 3.21115 -1.43451 0
M  V30 5681 H 533.633 3.76524 0.225692 0
M  V30 5682 H 536.02 2.87538 0.663763 0
M  V30 5683 H 536.101 2.34484 -1.02229 0
M  V30 5684 H 535.745 4.75853 -1.77555 0
M  V30 5685 H 535.675 5.26555 -0.0691444 0
M  V30 5686 H 538.166 3.75176 -0.452883 0
M  V30 5687 H 538.479 7.57221 -1.54388 0
M  V30 5688 H 536.824 6.81128 -1.38164 0
M  V30 5689 H 540.015 4.63641 -0.644536 0
M  V30 5690 H 540.188 6.37861 -1.14181 0
M  V30 5691 N 533.594 0.0601682 1.57485 0
M  V30 5692 C 534.871 -0.651956 1.84415 0
M  V30 5693 C 535.251 -1.88498 0.950361 0
M  V30 5694 O 534.599 -2.28496 0.0136719 0
M  V30 5695 C 534.809 -1.00069 3.34346 0
M  V30 5696 C 536.157 -1.37915 4.01578 0
M  V30 5697 O 537.181 -1.09277 3.39024 0
M  V30 5698 O 536.04 -1.91399 5.11887 0
M  V30 5699 H 533.134 -0.322668 0.761455 0
M  V30 5700 H 535.68 0.0902159 1.6946 0
M  V30 5701 H 534.452 -0.124463 3.91102 0
M  V30 5702 H 534.075 -1.80001 3.54521 0
M  V30 5703 N 535.072 -1.5615 -0.213296 0
M  V30 5704 C 536.312 -1.81325 -0.943435 0
M  V30 5705 C 536.676 -0.634934 -1.81198 0
M  V30 5706 O 537.877 -0.766166 -2.5765 0
M  V30 5707 C 536.148 -3.11437 -1.75334 0
M  V30 5708 S 537.707 -3.57955 -2.53799 0
M  V30 5709 H 534.525 -0.636538 -0.316766 0
M  V30 5710 H 537.127 -1.94387 -0.208313 0
M  V30 5711 H 535.831 -3.95228 -1.10556 0
M  V30 5712 H 535.362 -3.01204 -2.53061 0
M  V30 5713 H 537.377 -3.21947 -3.77577 0
M  V30 5714 N 536.55 0.480323 -1.50102 0
M  V30 5715 C 537.498 1.60024 -1.68805 0
M  V30 5716 C 538.492 1.60089 -0.553888 0
M  V30 5717 O 539.698 1.64349 -0.734127 0
M  V30 5718 H 536.073 0.530841 -0.532646 0
M  V30 5719 H 538.044 1.41408 -2.62767 0
M  V30 5720 C 536.793 2.98029 -1.79092 0
M  V30 5721 H 536.116 2.98694 -2.65748 0
M  V30 5722 H 537.556 3.75871 -1.96206 0
M  V30 5723 C 536.015 3.32538 -0.540388 0
M  V30 5724 O 536.545 4.00386 0.324637 0
M  V30 5725 N 534.751 2.87873 -0.397154 0
M  V30 5726 H 534.298 2.32834 -1.1021 0
M  V30 5727 H 534.256 3.11328 0.438425 0
M  V30 5728 N 538.028 1.39524 0.732853 0
M  V30 5729 C 538.96 1.34318 1.85718 0
M  V30 5730 C 539.973 0.251576 1.60844 0
M  V30 5731 O 541.162 0.510685 1.71039 0
M  V30 5732 C 538.262 1.06334 3.21786 0
M  V30 5733 C 537.435 2.26813 3.73998 0
M  V30 5734 C 536.494 1.95253 4.88634 0
M  V30 5735 O 535.52 2.67957 5.02183 0
M  V30 5736 N 536.722 0.919984 5.73164 0
M  V30 5737 H 539.487 2.3121 1.90688 0
M  V30 5738 H 537.048 1.33654 0.91368 0
M  V30 5739 H 539.04 0.832363 3.96048 0
M  V30 5740 H 537.61 0.181682 3.12072 0
M  V30 5741 H 536.83 2.65849 2.91064 0
M  V30 5742 H 538.118 3.0717 4.05616 0
M  V30 5743 H 537.516 0.317487 5.64808 0
M  V30 5744 H 536.073 0.748905 6.47483 0
M  V30 5745 N 539.506 -0.963266 1.24736 0
M  V30 5746 C 540.469 -2.04013 1.04457 0
M  V30 5747 C 541.469 -1.608 0.000335555 0
M  V30 5748 O 542.659 -1.72515 0.241719 0
M  V30 5749 C 539.791 -3.35858 0.584162 0
M  V30 5750 H 540.984 -2.23436 2.00041 0
M  V30 5751 H 538.537 -1.13914 1.07021 0
M  V30 5752 H 539.272 -3.22128 -0.374673 0
M  V30 5753 H 539.057 -3.68568 1.3379 0
M  V30 5754 H 540.547 -4.1502 0.463451 0
M  V30 5755 N 540.985 -1.06182 -1.16461 0
M  V30 5756 C 542.21 -0.798599 -1.91408 0
M  V30 5757 C 542.635 0.640987 -1.76842 0
M  V30 5758 O 541.993 1.44652 -1.09296 0
M  V30 5759 C 542.041 -1.19665 -3.40165 0
M  V30 5760 O 541.145 -0.334768 -4.11039 0
M  V30 5761 H 540.486 -0.291961 -0.596368 0
M  V30 5762 H 543.016 -1.41732 -1.47557 0
M  V30 5763 H 543.026 -1.16772 -3.90933 0
M  V30 5764 H 541.701 -2.24526 -3.50087 0
M  V30 5765 H 540.278 -0.425168 -3.70468 0
M  V30 5766 N 542.463 1.3308 -0.844243 0
M  V30 5767 C 543.413 2.26589 -0.253289 0
M  V30 5768 C 544.397 1.49501 0.594836 0
M  V30 5769 O 545.589 1.71291 0.445924 0
M  V30 5770 C 542.718 3.38599 0.566176 0
M  V30 5771 C 541.804 4.23081 -0.293756 0
M  V30 5772 N 542.195 4.86751 -1.37505 0
M  V30 5773 C 540.493 4.45925 -0.0817086 0
M  V30 5774 C 541.194 5.49684 -1.90323 0
M  V30 5775 N 540.17 5.30101 -1.20391 0
M  V30 5776 H 543.972 2.73334 -1.08009 0
M  V30 5777 H 541.486 1.47048 -0.689258 0
M  V30 5778 H 543.483 4.04584 1.00587 0
M  V30 5779 H 542.143 2.93401 1.39089 0
M  V30 5780 H 543.154 4.87151 -1.75796 0
M  V30 5781 H 539.831 4.11434 0.709129 0
M  V30 5782 H 541.221 6.10363 -2.80902 0
M  V30 5783 N 543.941 0.601185 1.45683 0
M  V30 5784 C 545.166 0.0982245 2.07167 0
M  V30 5785 C 545.591 -1.20546 1.44396 0
M  V30 5786 O 544.949 -1.73247 0.534347 0
M  V30 5787 C 544.997 -0.0346976 3.60583 0
M  V30 5788 O 544.101 -1.08657 3.97828 0
M  V30 5789 H 543.442 0.0711618 0.660176 0
M  V30 5790 H 545.972 0.829376 1.87036 0
M  V30 5791 H 545.982 -0.234969 4.07323 0
M  V30 5792 H 544.657 0.917265 4.05659 0
M  V30 5793 H 543.234 -0.863275 3.6277 0
M  V30 5794 N 545.419 -1.53889 0.339982 0
M  V30 5795 C 546.83 -1.86139 -0.144671 0
M  V30 5796 C 547.181 -1.2613 -1.50285 0
M  V30 5797 O 546.306 -0.573515 -2.08662 0
M  V30 5798 C 546.901 -3.37728 -0.269285 0
M  V30 5799 C 545.46 -3.69868 -0.698168 0
M  V30 5800 C 544.607 -2.76777 0.170249 0
M  V30 5801 H 547.558 -1.48503 0.559704 0
M  V30 5802 H 547.579 -3.64331 -1.0974 0
M  V30 5803 H 547.091 -3.81375 0.719366 0
M  V30 5804 H 545.192 -3.31764 -1.69597 0
M  V30 5805 H 545.305 -4.76582 -0.490533 0
M  V30 5806 H 543.669 -2.52188 -0.356844 0
M  V30 5807 H 544.452 -3.23253 1.15597 0
M  V30 5808 N 546.897 -0.0685191 -1.57451 0
M  V30 5809 C 548.143 0.596247 -1.94465 0
M  V30 5810 C 548.498 1.67417 -0.948117 0
M  V30 5811 O 547.791 1.91576 0.0301056 0
M  V30 5812 C 547.985 1.22051 -3.35914 0
M  V30 5813 C 547.814 0.204586 -4.49234 0
M  V30 5814 C 546.584 -0.20959 -5.04865 0
M  V30 5815 C 548.782 -0.556872 -5.11276 0
M  V30 5816 N 546.764 -1.21656 -6.01725 0
M  V30 5817 C 548.135 -1.41642 -6.03604 0
M  V30 5818 C 550.19 -0.613297 -4.94108 0
M  V30 5819 C 548.893 -2.32737 -6.80607 0
M  V30 5820 C 550.919 -1.51174 -5.71752 0
M  V30 5821 C 550.281 -2.35898 -6.63726 0
M  V30 5822 H 546.38 0.189307 -0.75874 0
M  V30 5823 H 548.964 -0.144899 -1.9416 0
M  V30 5824 H 547.135 1.9316 -3.36963 0
M  V30 5825 H 548.867 1.84548 -3.60172 0
M  V30 5826 H 545.622 0.172871 -4.73284 0
M  V30 5827 H 546.046 -1.71746 -6.54853 0
M  V30 5828 H 550.688 0.0275228 -4.22791 0
M  V30 5829 H 548.406 -2.97856 -7.51204 0
M  V30 5830 H 551.992 -1.5602 -5.6049 0
M  V30 5831 H 550.872 -3.04291 -7.22756 0
M  V30 5832 N 548.375 1.56261 0.205012 0
M  V30 5833 C 549.622 1.8004 0.926927 0
M  V30 5834 C 549.95 0.640086 1.83666 0
M  V30 5835 O 549.205 -0.374702 1.92079 0
M  V30 5836 C 549.504 3.09722 1.78345 0
M  V30 5837 C 549.17 4.39082 1.02555 0
M  V30 5838 C 547.832 4.74226 0.816256 0
M  V30 5839 C 550.184 5.18877 0.491559 0
M  V30 5840 C 547.512 5.86668 0.0613287 0
M  V30 5841 C 549.864 6.32105 -0.250107 0
M  V30 5842 C 548.528 6.6584 -0.470508 0
M  V30 5843 H 547.798 0.658812 0.339187 0
M  V30 5844 H 550.445 1.90515 0.19395 0
M  V30 5845 H 548.75 2.9444 2.5848 0
M  V30 5846 H 550.447 3.25324 2.34446 0
M  V30 5847 H 547.037 4.11497 1.19868 0
M  V30 5848 H 551.221 4.92147 0.640684 0
M  V30 5849 H 546.477 6.11283 -0.119501 0
M  V30 5850 H 550.651 6.93157 -0.671307 0
M  V30 5851 H 548.278 7.5281 -1.05739 0
M  V30 5852 N 549.853 -0.472356 1.50355 0
M  V30 5853 C 551.078 -1.25251 1.65309 0
M  V30 5854 C 551.503 -1.85081 0.335643 0
M  V30 5855 O 550.861 -1.67227 -0.700335 0
M  V30 5856 C 550.909 -2.3379 2.74544 0
M  V30 5857 O 550.013 -3.38401 2.35709 0
M  V30 5858 H 549.354 -0.368539 0.552336 0
M  V30 5859 H 551.884 -0.562271 1.96722 0
M  V30 5860 H 551.894 -2.79121 2.97583 0
M  V30 5861 H 550.569 -1.89614 3.70161 0
M  V30 5862 H 549.146 -2.9879 2.23112 0
M  V30 5863 N 551.331 -1.39911 -0.725443 0
M  V30 5864 C 552.608 -1.28158 -1.47766 0
M  V30 5865 C 552.988 0.104545 -2.10841 0
M  V30 5866 O 552.336 1.11657 -1.99361 0
M  V30 5867 C 552.546 -2.41306 -2.52135 0
M  V30 5868 C 553.894 -2.81076 -3.18247 0
M  V30 5869 O 554.918 -2.40827 -2.62452 0
M  V30 5870 O 553.777 -3.50581 -4.19231 0
M  V30 5871 H 550.871 -0.502761 -0.656628 0
M  V30 5872 H 553.417 -1.51808 -0.758456 0
M  V30 5873 H 552.189 -3.33932 -2.03974 0
M  V30 5874 H 551.812 -2.19374 -3.31603 0
M  V30 5875 N 552.809 0.956637 -1.25245 0
M  V30 5876 C 554.225 1.22733 -1.02023 0
M  V30 5877 C 554.425 1.99761 0.264186 0
M  V30 5878 O 553.481 2.32814 0.977436 0
M  V30 5879 C 554.794 2.00367 -2.24217 0
M  V30 5880 C 556.342 2.13418 -2.28958 0
M  V30 5881 C 556.817 2.9445 -3.50803 0
M  V30 5882 N 558.308 3.02029 -3.51187 0
M  V30 5883 C 559.043 3.65116 -4.42129 0
M  V30 5884 N 558.539 4.2983 -5.43339 0
M  V30 5885 N 560.332 3.62237 -4.29815 0
M  V30 5886 H 552.483 0.441282 -2.07765 0
M  V30 5887 H 554.746 0.257686 -0.912306 0
M  V30 5888 H 554.452 1.51165 -3.17556 0
M  V30 5889 H 554.326 3.01077 -2.27228 0
M  V30 5890 H 556.713 2.61819 -1.36143 0
M  V30 5891 H 556.794 1.1202 -2.29968 0
M  V30 5892 H 556.438 2.46741 -4.43939 0
M  V30 5893 H 556.368 3.9607 -3.47039 0
M  V30 5894 H 558.859 2.56007 -2.77973 0
M  V30 5895 H 559.172 4.75819 -6.08947 0
M  V30 5896 H 557.517 4.28465 -5.47214 0
M  V30 5897 H 560.708 3.10863 -3.49974 0
M  V30 5898 H 560.881 4.11117 -5.00886 0
M  V30 5899 N 554.287 1.06798 1.15896 0
M  V30 5900 C 555.703 0.792423 1.38538 0
M  V30 5901 C 555.903 -0.60592 1.92174 0
M  V30 5902 O 554.959 -1.36561 2.12385 0
M  V30 5903 C 556.272 1.86157 2.36149 0
M  V30 5904 C 557.82 1.88567 2.49823 0
M  V30 5905 C 558.295 2.9455 3.5072 0
M  V30 5906 N 559.786 2.93616 3.58251 0
M  V30 5907 C 560.521 3.72267 4.36125 0
M  V30 5908 N 560.017 4.60751 5.17379 0
M  V30 5909 N 561.81 3.60637 4.31158 0
M  V30 5910 H 553.961 1.96993 0.794198 0
M  V30 5911 H 556.224 0.853942 0.411688 0
M  V30 5912 H 555.93 2.86603 2.03843 0
M  V30 5913 H 555.804 1.71692 3.3586 0
M  V30 5914 H 558.191 0.887765 2.8143 0
M  V30 5915 H 558.272 2.0711 1.5013 0
M  V30 5916 H 557.916 3.94537 3.19849 0
M  V30 5917 H 557.846 2.73255 4.50155 0
M  V30 5918 H 560.337 2.29472 3.00252 0
M  V30 5919 H 560.65 5.17408 5.74028 0
M  V30 5920 H 558.995 4.64803 5.16704 0
M  V30 5921 H 562.186 2.90892 3.66742 0
M  V30 5922 H 562.359 4.22176 4.91601 0
M  V30 5923 N 555.766 -1.3263 0.851289 0
M  V30 5924 C 556.699 -2.26952 0.238318 0
M  V30 5925 C 557.677 -1.50243 -0.621757 0
M  V30 5926 O 558.861 -1.79378 -0.579298 0
M  V30 5927 C 555.988 -3.32124 -0.664178 0
M  V30 5928 C 555.034 -4.26325 0.122067 0
M  V30 5929 S 555.867 -5.14404 1.48824 0
M  V30 5930 C 557.023 -6.231 0.591372 0
M  V30 5931 H 557.256 -2.78594 1.03791 0
M  V30 5932 H 554.789 -1.4011 0.648731 0
M  V30 5933 H 556.747 -3.93197 -1.17924 0
M  V30 5934 H 555.408 -2.79273 -1.43755 0
M  V30 5935 H 554.601 -5.00821 -0.565181 0
M  V30 5936 H 554.203 -3.69652 0.568602 0
M  V30 5937 H 556.495 -6.77187 -0.205762 0
M  V30 5938 H 557.438 -6.95936 1.30687 0
M  V30 5939 H 557.846 -5.64252 0.167206 0
M  V30 5940 N 557.244 -0.608902 -1.45362 0
M  V30 5941 C 558.49 -0.104762 -2.02529 0
M  V30 5942 C 558.823 1.26191 -1.47613 0
M  V30 5943 O 558.098 1.8327 -0.65134 0
M  V30 5944 C 558.381 -0.0672661 -3.60037 0
M  V30 5945 C 558.234 -1.4647 -4.25284 0
M  V30 5946 C 559.553 0.619877 -4.35713 0
M  V30 5947 H 556.672 -0.0395438 -0.735938 0
M  V30 5948 H 559.314 -0.781126 -1.73201 0
M  V30 5949 H 557.464 0.50871 -3.85155 0
M  V30 5950 H 559.136 -2.08785 -4.11347 0
M  V30 5951 H 557.379 -2.02502 -3.83634 0
M  V30 5952 H 558.05 -1.39069 -5.34195 0
M  V30 5953 H 560.526 0.130297 -4.15896 0
M  V30 5954 H 559.402 0.615224 -5.45441 0
M  V30 5955 H 559.663 1.68621 -4.0868 0
M  V30 5956 N 558.722 1.53707 -0.348139 0
M  V30 5957 C 559.67 2.26671 0.521808 0
M  V30 5958 C 560.664 1.28988 1.09811 0
M  V30 5959 O 561.87 1.4668 1.04332 0
M  V30 5960 H 558.245 0.728387 0.186968 0
M  V30 5961 H 560.216 2.98176 -0.115563 0
M  V30 5962 C 558.965 3.05591 1.6586 0
M  V30 5963 H 558.288 3.80589 1.22443 0
M  V30 5964 H 559.728 3.59851 2.24239 0
M  V30 5965 C 558.187 2.15366 2.59073 0
M  V30 5966 O 558.717 1.7528 3.61441 0
M  V30 5967 N 556.923 1.80352 2.27863 0
M  V30 5968 H 556.47 2.13149 1.44656 0
M  V30 5969 H 556.428 1.20268 2.90488 0
M  V30 5970 N 560.2 0.0768682 1.57412 0
M  V30 5971 C 561.425 -0.603404 1.98428 0
M  V30 5972 C 561.85 -1.62047 0.955108 0
M  V30 5973 O 561.208 -1.81129 -0.0786778 0
M  V30 5974 C 561.256 -1.24396 3.38464 0
M  V30 5975 O 560.36 -2.35982 3.3821 0
M  V30 5976 H 559.701 -0.154741 0.645718 0
M  V30 5977 H 562.231 0.152885 2.04028 0
M  V30 5978 H 562.241 -1.5896 3.7576 0
M  V30 5979 H 560.916 -0.498735 4.12899 0
M  V30 5980 H 559.493 -2.03173 3.1269 0
M  V30 5981 N 561.678 -1.56367 -0.196722 0
M  V30 5982 C 562.927 -1.79724 -0.915539 0
M  V30 5983 C 563.24 -0.649804 -1.84491 0
M  V30 5984 O 564.446 -0.767631 -2.60422 0
M  V30 5985 C 562.902 -3.18369 -1.67836 0
M  V30 5986 C 562.51 -4.4091 -0.793897 0
M  V30 5987 C 564.254 -3.51037 -2.38691 0
M  V30 5988 C 562.161 -5.70577 -1.55549 0
M  V30 5989 H 561.091 -0.67013 -0.345604 0
M  V30 5990 H 563.742 -1.82721 -0.168856 0
M  V30 5991 H 562.124 -3.09617 -2.46887 0
M  V30 5992 H 563.298 -4.60781 -0.042163 0
M  V30 5993 H 561.613 -4.15937 -0.19626 0
M  V30 5994 H 564.21 -4.4515 -2.96219 0
M  V30 5995 H 564.553 -2.74704 -3.12799 0
M  V30 5996 H 565.086 -3.61229 -1.66608 0
M  V30 5997 H 561.825 -6.49871 -0.857226 0
M  V30 5998 H 561.345 -5.54726 -2.2812 0
M  V30 5999 H 563.024 -6.11637 -2.10971 0
M  V30 6000 N 563.156 0.464375 -1.50603 0
M  V30 6001 C 564.405 1.21277 -1.61167 0
M  V30 6002 C 564.718 1.92953 -0.320704 0
M  V30 6003 O 565.924 2.69778 -0.30534 0
M  V30 6004 C 564.38 2.20403 -2.84518 0
M  V30 6005 C 563.988 1.54499 -4.20516 0
M  V30 6006 C 565.732 2.95843 -3.0443 0
M  V30 6007 C 563.639 2.51951 -5.35047 0
M  V30 6008 H 562.569 0.456367 -0.600204 0
M  V30 6009 H 565.22 0.48254 -1.77042 0
M  V30 6010 H 563.602 2.96746 -2.62217 0
M  V30 6011 H 564.776 0.83899 -4.53098 0
M  V30 6012 H 563.091 0.913152 -4.06264 0
M  V30 6013 H 565.688 3.6879 -3.87167 0
M  V30 6014 H 566.031 3.55622 -2.16423 0
M  V30 6015 H 566.564 2.26611 -3.26944 0
M  V30 6016 H 563.303 1.96901 -6.25228 0
M  V30 6017 H 562.823 3.20683 -5.06875 0
M  V30 6018 H 564.502 3.13643 -5.65895 0
M  V30 6019 N 564.634 1.40294 0.718013 0
M  V30 6020 C 565.88 1.38645 1.48005 0
M  V30 6021 C 566.213 -0.0121202 1.94196 0
M  V30 6022 O 565.488 -0.980309 1.67989 0
M  V30 6023 C 565.771 2.37379 2.70782 0
M  V30 6024 C 565.624 3.8625 2.30501 0
M  V30 6025 C 566.943 2.33685 3.72933 0
M  V30 6026 H 564.062 0.504928 0.536858 0
M  V30 6027 H 566.704 1.71411 0.819649 0
M  V30 6028 H 564.854 2.09568 3.27129 0
M  V30 6029 H 566.526 4.24879 1.79655 0
M  V30 6030 H 564.769 4.02202 1.6253 0
M  V30 6031 H 565.44 4.50847 3.18498 0
M  V30 6032 H 567.916 2.58314 3.2621 0
M  V30 6033 H 566.792 3.0482 4.56482 0
M  V30 6034 H 567.053 1.34765 4.21059 0
M  V30 6035 N 566.112 -0.949982 1.2575 0
M  V30 6036 C 567.358 -1.69766 1.10938 0
M  V30 6037 C 567.691 -1.91056 -0.348028 0
M  V30 6038 O 566.966 -1.48488 -1.25625 0
M  V30 6039 C 567.249 -3.07779 1.86933 0
M  V30 6040 C 567.102 -2.9387 3.4053 0
M  V30 6041 C 568.421 -4.07749 1.65616 0
M  V30 6042 H 565.54 -0.616144 0.404396 0
M  V30 6043 H 568.182 -1.10394 1.54639 0
M  V30 6044 H 566.332 -3.58462 1.4979 0
M  V30 6045 H 568.004 -2.50476 3.87375 0
M  V30 6046 H 566.247 -2.29686 3.68004 0
M  V30 6047 H 566.918 -3.91719 3.88922 0
M  V30 6048 H 569.394 -3.65994 1.97959 0
M  V30 6049 H 568.27 -5.02348 2.21218 0
M  V30 6050 H 568.531 -4.38029 0.598595 0
M  V30 6051 N 567.59 -1.07411 -1.15328 0
M  V30 6052 C 568.867 -0.710732 -1.82231 0
M  V30 6053 C 569.247 0.806732 -1.95077 0
M  V30 6054 O 568.595 1.72139 -1.50268 0
M  V30 6055 C 568.805 -1.42586 -3.18544 0
M  V30 6056 C 570.153 -1.57836 -3.94174 0
M  V30 6057 O 571.177 -1.38669 -3.281 0
M  V30 6058 O 570.036 -1.8938 -5.12638 0
M  V30 6059 H 567.13 -0.25297 -0.78736 0
M  V30 6060 H 569.676 -1.17508 -1.22434 0
M  V30 6061 H 568.448 -2.46008 -3.04296 0
M  V30 6062 H 568.071 -0.952332 -3.86026 0
M  V30 6063 N 569.068 1.32177 -0.85831 0
M  V30 6064 C 570.015 2.28794 -0.303607 0
M  V30 6065 C 570.985 1.55213 0.591453 0
M  V30 6066 O 572.17 1.83418 0.525585 0
M  V30 6067 C 569.31 3.41475 0.49889 0
M  V30 6068 C 568.423 4.2993 -0.422373 0
M  V30 6069 C 567.558 5.29743 0.393111 0
M  V30 6070 C 566.597 6.09842 -0.525317 0
M  V30 6071 N 565.734 7.01643 0.253208 0
M  V30 6072 H 570.574 2.75631 -1.13276 0
M  V30 6073 H 568.111 1.35606 -0.570026 0
M  V30 6074 H 570.069 4.05531 0.979826 0
M  V30 6075 H 568.699 2.95779 1.29284 0
M  V30 6076 H 567.751 3.66422 -1.02171 0
M  V30 6077 H 569.063 4.85899 -1.12709 0
M  V30 6078 H 568.217 5.9942 0.937056 0
M  V30 6079 H 566.956 4.744 1.13117 0
M  V30 6080 H 565.961 5.39066 -1.08112 0
M  V30 6081 H 567.186 6.6727 -1.26205 0
M  V30 6082 H 565.132 6.48725 0.974295 0
M  V30 6083 H 565.049 7.54981 -0.392398 0
M  V30 6084 H 566.317 7.756 0.778761 0
M  V30 6085 N 570.547 0.616602 1.45037 0
M  V30 6086 C 571.795 0.115103 2.01772 0
M  V30 6087 C 572.116 -1.2622 1.48639 0
M  V30 6088 O 571.386 -1.83563 0.684199 0
M  V30 6089 H 569.966 0.0395607 0.745952 0
M  V30 6090 H 572.628 0.800032 1.77723 0
M  V30 6091 H 571.724 0.0717274 3.12018 0
M  V30 6092 N 572.025 -1.5352 0.356285 0
M  V30 6093 C 572.955 -2.28372 -0.486661 0
M  V30 6094 C 573.936 -1.30432 -1.09185 0
M  V30 6095 O 575.121 -1.59291 -1.11085 0
M  V30 6096 C 572.251 -3.06604 -1.63129 0
M  V30 6097 C 571.205 -4.12154 -1.15381 0
M  V30 6098 C 570.531 -4.78415 -2.38796 0
M  V30 6099 C 571.831 -5.21724 -0.245179 0
M  V30 6100 H 573.525 -2.99083 0.137797 0
M  V30 6101 H 571.071 -1.43841 0.0677134 0
M  V30 6102 H 573.024 -3.57712 -2.22755 0
M  V30 6103 H 571.748 -2.33568 -2.28284 0
M  V30 6104 H 570.407 -3.61978 -0.580294 0
M  V30 6105 H 570.055 -4.01959 -3.02387 0
M  V30 6106 H 569.755 -5.49734 -2.07524 0
M  V30 6107 H 571.279 -5.32313 -2.99125 0
M  V30 6108 H 572.693 -5.68391 -0.748646 0
M  V30 6109 H 571.09 -6.00095 -0.0237608 0
M  V30 6110 H 572.16 -4.79596 0.715229 0
M  V30 6111 N 573.503 -0.0852151 -1.57369 0
M  V30 6112 C 574.451 0.894856 -2.14698 0
M  V30 6113 C 575.445 1.29903 -1.08727 0
M  V30 6114 O 576.651 1.27471 -1.27088 0
M  V30 6115 H 573.026 0.306569 -0.686673 0
M  V30 6116 H 574.997 0.386542 -2.95886 0
M  V30 6117 C 573.746 2.14798 -2.73417 0
M  V30 6118 H 573.069 1.84585 -3.54638 0
M  V30 6119 H 574.509 2.81456 -3.1711 0
M  V30 6120 C 572.968 2.91546 -1.68828 0
M  V30 6121 O 573.498 3.85733 -1.12129 0
M  V30 6122 N 571.704 2.54901 -1.39549 0
M  V30 6123 H 571.251 1.7838 -1.85845 0
M  V30 6124 H 571.209 3.06553 -0.698054 0
M  V30 6125 N 574.981 1.5647 0.188427 0
M  V30 6126 C 576.206 1.85486 0.927891 0
M  V30 6127 C 576.631 0.669575 1.75779 0
M  V30 6128 O 575.989 -0.381573 1.77239 0
M  V30 6129 C 576.037 3.12784 1.7944 0
M  V30 6130 O 575.141 2.93805 2.894 0
M  V30 6131 H 574.482 0.610585 0.260925 0
M  V30 6132 H 577.012 2.037 0.191729 0
M  V30 6133 H 577.022 3.43749 2.19774 0
M  V30 6134 H 575.697 3.98671 1.18468 0
M  V30 6135 H 574.274 2.74153 2.52774 0
M  V30 6136 N 576.459 -0.456382 1.50847 0
M  V30 6137 C 577.687 -1.23026 1.66349 0
M  V30 6138 C 578.102 -1.85473 0.352868 0
M  V30 6139 O 577.459 -1.69885 -0.666739 0
M  V30 6140 C 577.51 -2.32827 2.76539 0
M  V30 6141 O 577.231 -1.72938 4.02522 0
M  V30 6142 C 578.732 -3.23448 3.03144 0
M  V30 6143 H 575.952 -0.371527 0.558756 0
M  V30 6144 H 578.496 -0.543082 1.97157 0
M  V30 6145 H 576.651 -2.97294 2.48384 0
M  V30 6146 H 577.065 -2.45357 4.63573 0
M  V30 6147 H 578.539 -3.96669 3.83872 0
M  V30 6148 H 579.016 -3.83094 2.14793 0
M  V30 6149 H 579.622 -2.64702 3.32886 0
M  V30 6150 N 577.937 -1.40673 -0.710563 0
M  V30 6151 C 579.348 -1.34975 -1.28991 0
M  V30 6152 C 579.699 -0.0256272 -1.96183 0
M  V30 6153 O 578.824 0.876339 -1.97862 0
M  V30 6154 C 579.419 -2.44467 -2.34567 0
M  V30 6155 C 577.978 -2.42213 -2.88114 0
M  V30 6156 C 577.125 -2.25085 -1.61963 0
M  V30 6157 H 580.076 -1.50406 -0.506343 0
M  V30 6158 H 580.097 -2.12663 -3.15523 0
M  V30 6159 H 579.609 -3.40825 -1.85634 0
M  V30 6160 H 577.71 -1.49568 -3.41263 0
M  V30 6161 H 577.823 -3.37983 -3.39565 0
M  V30 6162 H 576.187 -1.72691 -1.87216 0
M  V30 6163 H 576.97 -3.23449 -1.15047 0
M  V30 6164 N 579.415 0.9433 -1.26252 0
M  V30 6165 C 580.362 2.0417 -1.07625 0
M  V30 6166 C 581.332 1.6609 0.0180738 0
M  V30 6167 O 582.517 1.90276 -0.141289 0
M  V30 6168 C 579.657 3.37653 -0.713043 0
M  V30 6169 C 578.77 3.88783 -1.8834 0
M  V30 6170 C 577.905 5.10642 -1.4635 0
M  V30 6171 C 576.944 5.54028 -2.60229 0
M  V30 6172 N 576.081 6.67092 -2.18936 0
M  V30 6173 H 580.921 2.19436 -2.01623 0
M  V30 6174 H 578.458 1.07519 -1.00389 0
M  V30 6175 H 580.416 4.14391 -0.483358 0
M  V30 6176 H 579.046 3.22241 0.18996 0
M  V30 6177 H 578.098 3.08464 -2.22608 0
M  V30 6178 H 579.41 4.16922 -2.73821 0
M  V30 6179 H 578.564 5.94832 -1.19414 0
M  V30 6180 H 577.303 4.84244 -0.579568 0
M  V30 6181 H 576.308 4.68396 -2.87898 0
M  V30 6182 H 577.533 5.82429 -3.49219 0
M  V30 6183 H 575.479 6.42381 -1.32974 0
M  V30 6184 H 575.396 6.94806 -2.97961 0
M  V30 6185 H 576.664 7.54662 -1.95206 0
M  V30 6186 N 580.893 1.08022 1.14757 0
M  V30 6187 C 581.823 0.728248 2.21853 0
M  V30 6188 C 582.804 -0.287486 1.67653 0
M  V30 6189 O 583.989 -0.158727 1.9355 0
M  V30 6190 C 581.119 0.132549 3.47047 0
M  V30 6191 C 580.073 1.07619 4.14249 0
M  V30 6192 C 579.399 0.342907 5.33599 0
M  V30 6193 C 580.699 2.41268 4.63235 0
M  V30 6194 H 582.393 1.62365 2.51551 0
M  V30 6195 H 579.939 0.782125 1.20908 0
M  V30 6196 H 581.892 -0.125665 4.21213 0
M  V30 6197 H 580.616 -0.797971 3.16702 0
M  V30 6198 H 579.275 1.31944 3.42033 0
M  V30 6199 H 578.923 -0.59129 4.99513 0
M  V30 6200 H 578.623 0.971955 5.79506 0
M  V30 6201 H 580.147 0.0926538 6.1053 0
M  V30 6202 H 581.561 2.21232 5.28894 0
M  V30 6203 H 579.958 2.9983 5.19829 0
M  V30 6204 H 581.028 3.03079 3.78512 0
M  V30 6205 N 582.371 -1.3172 0.865308 0
M  V30 6206 C 583.318 -2.2863 0.315736 0
M  V30 6207 C 584.288 -1.55524 -0.583213 0
M  V30 6208 O 585.473 -1.83694 -0.51585 0
M  V30 6209 C 582.613 -3.41735 -0.480773 0
M  V30 6210 C 581.726 -4.297 0.445167 0
M  V30 6211 C 580.861 -5.29944 -0.365012 0
M  V30 6212 C 579.9 -6.09554 0.557651 0
M  V30 6213 N 579.037 -7.01768 -0.215994 0
M  V30 6214 H 583.877 -2.75026 1.14736 0
M  V30 6215 H 581.414 -1.35302 0.577209 0
M  V30 6216 H 583.372 -4.06045 -0.958306 0
M  V30 6217 H 582.002 -2.96461 -1.27714 0
M  V30 6218 H 581.054 -3.65875 1.04113 0
M  V30 6219 H 582.366 -4.85295 1.15284 0
M  V30 6220 H 581.52 -5.99908 -0.905255 0
M  V30 6221 H 580.259 -4.74994 -1.106 0
M  V30 6222 H 579.264 -5.38485 1.10969 0
M  V30 6223 H 580.489 -6.66591 1.29742 0
M  V30 6224 H 578.435 -6.49232 -0.939878 0
M  V30 6225 H 578.352 -7.54762 0.432431 0
M  V30 6226 H 579.62 -7.76002 -0.737618 0
M  V30 6227 N 583.85 -0.624285 -1.44708 0
M  V30 6228 C 585.096 -0.126237 -2.02407 0
M  V30 6229 C 585.428 1.24618 -1.48943 0
M  V30 6230 O 584.704 1.82569 -0.670742 0
M  V30 6231 C 584.986 -0.105449 -3.59946 0
M  V30 6232 C 584.84 -1.50972 -4.23707 0
M  V30 6233 C 586.159 0.573629 -4.36346 0
M  V30 6234 H 583.278 -0.0473472 -0.735478 0
M  V30 6235 H 585.92 -0.799452 -1.72362 0
M  V30 6236 H 584.07 0.46783 -3.85673 0
M  V30 6237 H 585.742 -2.13136 -4.0911 0
M  V30 6238 H 583.985 -2.0656 -3.81465 0
M  V30 6239 H 584.656 -1.44727 -5.32689 0
M  V30 6240 H 587.132 0.0861787 -4.16011 0
M  V30 6241 H 586.008 0.557338 -5.46063 0
M  V30 6242 H 586.269 1.64276 -4.10446 0
M  V30 6243 N 585.328 1.53329 -0.364422 0
M  V30 6244 C 586.574 2.02222 0.21855 0
M  V30 6245 C 586.929 1.24702 1.46517 0
M  V30 6246 O 586.222 0.331969 1.88702 0
M  V30 6247 C 586.416 3.52911 0.564661 0
M  V30 6248 C 586.245 4.45023 -0.646862 0
M  V30 6249 C 585.015 4.91838 -1.15858 0
M  V30 6250 C 587.213 4.91581 -1.51172 0
M  V30 6251 N 585.195 5.67955 -2.33025 0
M  V30 6252 C 586.566 5.66028 -2.53006 0
M  V30 6253 C 588.621 4.73656 -1.53473 0
M  V30 6254 C 587.324 6.24457 -3.56996 0
M  V30 6255 C 589.35 5.3295 -2.56356 0
M  V30 6256 C 588.712 6.07282 -3.56914 0
M  V30 6257 H 584.811 0.780832 0.0427199 0
M  V30 6258 H 587.395 1.87937 -0.508704 0
M  V30 6259 H 585.566 3.6736 1.26099 0
M  V30 6260 H 587.298 3.88528 1.13262 0
M  V30 6261 H 584.053 4.68043 -0.723393 0
M  V30 6262 H 584.477 6.10675 -2.92241 0
M  V30 6263 H 589.119 4.15714 -0.770842 0
M  V30 6264 H 586.837 6.81496 -4.34268 0
M  V30 6265 H 590.423 5.20976 -2.58989 0
M  V30 6266 H 589.303 6.52345 -4.35218 0
M  V30 6267 N 586.806 0.0935595 1.57322 0
M  V30 6268 C 588.034 -0.578934 1.98635 0
M  V30 6269 C 588.449 -1.61819 0.972626 0
M  V30 6270 O 587.806 -1.82461 -0.0379638 0
M  V30 6271 C 587.857 -1.22802 3.40003 0
M  V30 6272 O 587.578 -0.230334 4.37494 0
M  V30 6273 C 589.079 -1.98627 3.96311 0
M  V30 6274 H 586.299 -0.155324 0.652775 0
M  V30 6275 H 588.843 0.172393 2.03772 0
M  V30 6276 H 586.998 -1.93029 3.35885 0
M  V30 6277 H 587.412 -0.698649 5.19826 0
M  V30 6278 H 588.886 -2.39405 4.97382 0
M  V30 6279 H 589.363 -2.85151 3.34044 0
M  V30 6280 H 589.969 -1.3322 4.03897 0
M  V30 6281 N 588.284 -1.56567 -0.180126 0
M  V30 6282 C 589.533 -1.80685 -0.896426 0
M  V30 6283 C 589.846 -0.669335 -1.83791 0
M  V30 6284 O 591.052 -0.795209 -2.59593 0
M  V30 6285 C 589.508 -3.20132 -1.6445 0
M  V30 6286 C 589.116 -4.41727 -0.747088 0
M  V30 6287 C 590.86 -3.53549 -2.34955 0
M  V30 6288 C 588.767 -5.72195 -1.49489 0
M  V30 6289 H 587.697 -0.673758 -0.338477 0
M  V30 6290 H 590.348 -1.8289 -0.149467 0
M  V30 6291 H 588.73 -3.12218 -2.43589 0
M  V30 6292 H 589.904 -4.608 0.00671129 0
M  V30 6293 H 588.219 -4.16122 -0.152134 0
M  V30 6294 H 590.816 -4.48267 -2.91481 0
M  V30 6295 H 591.159 -2.78006 -3.09868 0
M  V30 6296 H 591.692 -3.62976 -1.62768 0
M  V30 6297 H 588.431 -6.50743 -0.788251 0
M  V30 6298 H 587.951 -5.57115 -2.22224 0
M  V30 6299 H 589.63 -6.1384 -2.04472 0
M  V30 6300 N 589.762 0.448376 -1.51087 0
M  V30 6301 C 590.987 1.22605 -1.6728 0
M  V30 6302 C 591.412 1.84524 -0.365045 0
M  V30 6303 O 590.77 1.6832 0.673642 0
M  V30 6304 C 590.818 2.29393 -2.78229 0
M  V30 6305 O 589.922 3.34608 -2.41063 0
M  V30 6306 H 589.263 0.359705 -0.558129 0
M  V30 6307 H 591.793 0.530903 -1.97592 0
M  V30 6308 H 591.803 2.74352 -3.01986 0
M  V30 6309 H 590.478 1.83701 -3.73131 0
M  V30 6310 H 589.055 2.95202 -2.27838 0
M  V30 6311 N 591.24 1.41047 0.703093 0
M  V30 6312 C 592.173 1.36713 1.82715 0
M  V30 6313 C 593.151 0.235533 1.60885 0
M  V30 6314 O 594.335 0.421227 1.83733 0
M  V30 6315 C 591.462 1.13069 3.1927 0
M  V30 6316 C 590.508 2.28846 3.59905 0
M  V30 6317 S 591.341 3.91297 3.65578 0
M  V30 6318 C 592.497 3.69941 5.04871 0
M  V30 6319 H 592.73 2.31838 1.86114 0
M  V30 6320 H 590.263 1.27481 0.871083 0
M  V30 6321 H 592.221 1.00113 3.98105 0
M  V30 6322 H 590.882 0.195763 3.13489 0
M  V30 6323 H 590.075 2.07977 4.59088 0
M  V30 6324 H 589.677 2.3817 2.88359 0
M  V30 6325 H 591.969 3.29181 5.92154 0
M  V30 6326 H 592.912 4.68699 5.30779 0
M  V30 6327 H 593.32 3.03369 4.76054 0
M  V30 6328 N 592.718 -0.936591 1.26751 0
M  V30 6329 C 594.134 -1.21095 1.03963 0
M  V30 6330 C 594.334 -2.00156 -0.232372 0
M  V30 6331 O 593.39 -2.3434 -0.940274 0
M  V30 6332 C 594.703 -1.96775 2.27377 0
M  V30 6333 C 596.251 -2.09749 2.32324 0
M  V30 6334 C 596.726 -2.88832 3.55443 0
M  V30 6335 N 598.217 -2.96404 3.55948 0
M  V30 6336 C 598.952 -3.58036 4.47881 0
M  V30 6337 N 598.448 -4.21132 5.50109 0
M  V30 6338 N 600.241 -3.55353 4.35523 0
M  V30 6339 H 592.392 -0.408173 2.08441 0
M  V30 6340 H 594.655 -0.243139 0.91629 0
M  V30 6341 H 594.361 -1.46094 3.19921 0
M  V30 6342 H 594.235 -2.97424 2.31989 0
M  V30 6343 H 596.622 -2.5962 1.40291 0
M  V30 6344 H 596.703 -1.08347 2.31721 0
M  V30 6345 H 596.347 -2.39647 4.47808 0
M  V30 6346 H 596.277 -3.90499 3.53296 0
M  V30 6347 H 598.768 -2.51552 2.82011 0
M  V30 6348 H 599.081 -4.66071 6.16439 0
M  V30 6349 H 597.426 -4.19705 5.53961 0
M  V30 6350 H 600.617 -3.05256 3.54875 0
M  V30 6351 H 600.79 -4.03097 5.07363 0
M  V30 6352 N 594.196 -1.08629 -1.14182 0
M  V30 6353 C 595.128 -0.676189 -2.18998 0
M  V30 6354 C 596.141 0.277871 -1.60411 0
M  V30 6355 O 597.33 0.0651771 -1.78381 0
M  V30 6356 C 594.43 0.0254916 -3.3889 0
M  V30 6357 C 593.603 -0.948039 -4.27002 0
M  V30 6358 C 592.662 -0.281268 -5.25448 0
M  V30 6359 O 591.688 -0.926378 -5.61611 0
M  V30 6360 N 592.89 0.967923 -5.72374 0
M  V30 6361 H 595.655 -1.57792 -2.54798 0
M  V30 6362 H 593.216 -0.972665 -1.29425 0
M  V30 6363 H 595.208 0.482554 -4.01813 0
M  V30 6364 H 593.778 0.829348 -3.01398 0
M  V30 6365 H 592.998 -1.58388 -3.6098 0
M  V30 6366 H 594.286 -1.60765 -4.82734 0
M  V30 6367 H 593.684 1.51175 -5.45126 0
M  V30 6368 H 592.241 1.36844 -6.37273 0
M  V30 6369 N 595.674 1.31259 -0.872281 0
M  V30 6370 C 596.622 2.30404 -0.318897 0
M  V30 6371 C 597.616 1.5962 0.567267 0
M  V30 6372 O 598.822 1.74204 0.453111 0
M  V30 6373 H 595.197 0.747243 -0.0844474 0
M  V30 6374 H 597.168 2.74549 -1.16899 0
M  V30 6375 C 595.917 3.44608 0.462683 0
M  V30 6376 H 595.24 3.99248 -0.209936 0
M  V30 6377 H 596.68 4.1609 0.815187 0
M  V30 6378 C 595.139 2.93456 1.65485 0
M  V30 6379 O 595.669 2.92418 2.75417 0
M  V30 6380 N 593.875 2.49628 1.48776 0
M  V30 6381 H 593.422 2.50671 0.593452 0
M  V30 6382 H 593.38 2.15759 2.28682 0
M  V30 6383 N 597.152 0.631951 1.44375 0
M  V30 6384 C 598.382 0.143658 2.061 0
M  V30 6385 C 598.79 -1.18733 1.47306 0
M  V30 6386 O 598.133 -1.73943 0.590724 0
M  V30 6387 C 598.195 -0.0446102 3.59472 0
M  V30 6388 C 597.859 1.20835 4.40736 0
M  V30 6389 C 598.856 2.13224 4.74164 0
M  V30 6390 C 596.541 1.44399 4.81097 0
M  V30 6391 C 598.535 3.27487 5.46838 0
M  V30 6392 C 596.222 2.58959 5.53519 0
M  V30 6393 C 597.22 3.50329 5.86309 0
M  V30 6394 O 596.908 4.62891 6.57257 0
M  V30 6395 H 596.64 0.0772939 0.671567 0
M  V30 6396 H 599.194 0.866677 1.8622 0
M  V30 6397 H 597.424 -0.822783 3.77845 0
M  V30 6398 H 599.113 -0.487561 4.02961 0
M  V30 6399 H 599.879 1.96253 4.4352 0
M  V30 6400 H 595.758 0.741696 4.54994 0
M  V30 6401 H 599.302 3.98826 5.72349 0
M  V30 6402 H 595.199 2.75873 5.83579 0
M  V30 6403 H 595.967 4.61883 6.75726 0
M  V30 6404 N 598.631 -1.53133 0.372548 0
M  V30 6405 C 599.877 -2.02336 -0.207823 0
M  V30 6406 C 600.232 -1.25477 -1.45853 0
M  V30 6407 O 599.525 -0.341971 -1.88524 0
M  V30 6408 C 599.719 -3.53206 -0.545938 0
M  V30 6409 C 599.548 -4.44674 0.670454 0
M  V30 6410 C 598.318 -4.91217 1.18465 0
M  V30 6411 C 600.516 -4.90772 1.53777 0
M  V30 6412 N 598.498 -5.66711 2.36034 0
M  V30 6413 C 599.869 -5.64678 2.56004 0
M  V30 6414 C 601.924 -4.72836 1.55983 0
M  V30 6415 C 600.627 -6.22555 3.60303 0
M  V30 6416 C 602.653 -5.31583 2.59179 0
M  V30 6417 C 602.015 -6.05381 3.6013 0
M  V30 6418 H 598.114 -0.781048 -0.0385783 0
M  V30 6419 H 600.698 -1.87665 0.518664 0
M  V30 6420 H 598.869 -3.68024 -1.24149 0
M  V30 6421 H 600.601 -3.89123 -1.112 0
M  V30 6422 H 597.356 -4.67652 0.748205 0
M  V30 6423 H 597.78 -6.09117 2.95475 0
M  V30 6424 H 602.422 -4.15299 0.792877 0
M  V30 6425 H 600.14 -6.79183 4.37876 0
M  V30 6426 H 603.726 -5.19595 2.61749 0
M  V30 6427 H 602.606 -6.50028 4.38672 0
M  V30 6428 N 600.109 -0.101901 -1.5727 0
M  V30 6429 C 601.357 0.559091 -1.94213 0
M  V30 6430 C 601.678 1.68297 -0.984948 0
M  V30 6431 O 600.948 1.95863 -0.0381975 0
M  V30 6432 H 599.528 0.20952 -0.717015 0
M  V30 6433 H 602.19 -0.166831 -1.94185 0
M  V30 6434 H 601.286 0.96485 -2.96811 0
M  V30 6435 N 601.587 1.56661 0.17182 0
M  V30 6436 C 602.812 1.86459 0.908165 0
M  V30 6437 C 603.237 0.688181 1.75059 0
M  V30 6438 O 602.595 -0.362753 1.77634 0
M  V30 6439 C 602.643 3.14669 1.76112 0
M  V30 6440 O 601.747 2.96858 2.86268 0
M  V30 6441 H 601.088 0.613318 0.254434 0
M  V30 6442 H 603.618 2.03892 0.170113 0
M  V30 6443 H 603.628 3.46061 2.16115 0
M  V30 6444 H 602.303 3.99905 1.14233 0
M  V30 6445 H 600.88 2.76819 2.49852 0
M  V30 6446 N 603.065 -0.440357 1.51323 0
M  V30 6447 C 603.975 -1.55955 1.75258 0
M  V30 6448 C 604.991 -1.61933 0.636687 0
M  V30 6449 O 606.167 -1.79231 0.918593 0
M  V30 6450 C 603.232 -2.9196 1.86977 0
M  V30 6451 C 602.293 -2.96122 3.10822 0
M  V30 6452 C 601.526 -4.2564 3.21973 0
M  V30 6453 O 601.749 -5.17851 2.39137 0
M  V30 6454 O 600.683 -4.36025 4.14929 0
M  V30 6455 H 604.509 -1.38673 2.70191 0
M  V30 6456 H 602.094 -0.623055 1.35788 0
M  V30 6457 H 603.976 -3.72682 1.96688 0
M  V30 6458 H 602.651 -3.09375 0.952307 0
M  V30 6459 H 601.558 -2.14366 3.06591 0
M  V30 6460 H 602.891 -2.83651 4.02247 0
M  V30 6461 N 604.543 -1.41418 -0.695603 0
M  V30 6462 C 605.791 -1.40496 -1.45277 0
M  V30 6463 C 606.112 -0.0149538 -1.94994 0
M  V30 6464 O 605.382 0.9432 -1.71699 0
M  V30 6465 H 603.962 -0.517147 -0.539044 0
M  V30 6466 H 606.624 -1.76656 -0.823321 0
M  V30 6467 H 605.72 -2.09214 -2.31595 0
M  V30 6468 N 606.021 0.929856 -1.27246 0
M  V30 6469 C 607.437 1.20542 -1.04603 0
M  V30 6470 C 607.637 2.00276 0.221754 0
M  V30 6471 O 606.693 2.34835 0.927833 0
M  V30 6472 C 608.006 1.95566 -2.28417 0
M  V30 6473 C 609.554 2.08513 -2.33433 0
M  V30 6474 C 610.029 2.86943 -3.5697 0
M  V30 6475 N 611.52 2.94512 -3.57515 0
M  V30 6476 C 612.255 3.55656 -4.49774 0
M  V30 6477 N 611.751 4.18209 -5.52334 0
M  V30 6478 N 613.544 3.53038 -4.37402 0
M  V30 6479 H 605.695 0.397113 -2.08655 0
M  V30 6480 H 607.958 0.238277 -0.917566 0
M  V30 6481 H 607.664 1.44395 -3.20691 0
M  V30 6482 H 607.538 2.9619 -2.33563 0
M  V30 6483 H 609.925 2.58872 -1.41666 0
M  V30 6484 H 610.006 1.07117 -2.32292 0
M  V30 6485 H 609.65 2.37268 -4.49072 0
M  V30 6486 H 609.58 3.8862 -3.55362 0
M  V30 6487 H 612.071 2.50053 -2.83341 0
M  V30 6488 H 612.384 4.62796 -6.18902 0
M  V30 6489 H 610.729 4.16761 -5.56179 0
M  V30 6490 H 613.92 3.0337 -3.56489 0
M  V30 6491 H 614.093 4.004 -5.09493 0
M  V30 6492 N 607.499 1.09233 1.13605 0
M  V30 6493 C 608.429 0.751738 2.21068 0
M  V30 6494 C 609.41 -0.269688 1.67948 0
M  V30 6495 O 610.595 -0.13819 1.93708 0
M  V30 6496 C 607.725 0.16935 3.46887 0
M  V30 6497 C 606.679 1.12007 4.13084 0
M  V30 6498 C 606.005 0.399483 5.33206 0
M  V30 6499 C 607.305 2.46168 4.6065 0
M  V30 6500 H 608.999 1.65024 2.49815 0
M  V30 6501 H 606.545 0.794905 1.20072 0
M  V30 6502 H 608.498 -0.0809824 4.21322 0
M  V30 6503 H 607.222 -0.764335 3.1753 0
M  V30 6504 H 605.881 1.35564 3.40614 0
M  V30 6505 H 605.529 -0.538277 5.00112 0
M  V30 6506 H 605.229 1.03337 5.78442 0
M  V30 6507 H 606.753 0.157403 6.10397 0
M  V30 6508 H 608.167 2.26829 5.26518 0
M  V30 6509 H 606.564 3.05326 5.1662 0
M  V30 6510 H 607.634 3.07076 3.75276 0
M  V30 6511 N 608.977 -1.30795 0.87923 0
M  V30 6512 C 609.907 -2.30742 0.357796 0
M  V30 6513 C 610.888 -1.60747 -0.556283 0
M  V30 6514 O 612.073 -1.88393 -0.47135 0
M  V30 6515 C 609.203 -3.44583 -0.433555 0
M  V30 6516 C 608.157 -4.26235 0.388251 0
M  V30 6517 C 607.483 -5.32073 -0.529352 0
M  V30 6518 C 608.783 -4.96303 1.62729 0
M  V30 6519 H 610.477 -2.74605 1.19299 0
M  V30 6520 H 608.023 -1.32017 0.575104 0
M  V30 6521 H 609.976 -4.13563 -0.808934 0
M  V30 6522 H 608.7 -2.99511 -1.30234 0
M  V30 6523 H 607.359 -3.58936 0.745695 0
M  V30 6524 H 607.007 -4.83249 -1.39569 0
M  V30 6525 H 606.707 -5.87598 0.0166741 0
M  V30 6526 H 608.231 -6.0391 -0.901373 0
M  V30 6527 H 609.645 -5.5783 1.32283 0
M  V30 6528 H 608.042 -5.61666 2.11309 0
M  V30 6529 H 609.112 -4.22758 2.37494 0
M  V30 6530 N 610.455 -0.639598 -1.44038 0
M  V30 6531 C 611.385 0.0469443 -2.33453 0
M  V30 6532 C 612.366 0.82609 -1.48694 0
M  V30 6533 O 613.551 0.790285 -1.77393 0
M  V30 6534 C 610.681 1.02338 -3.3188 0
M  V30 6535 C 609.635 0.355284 -4.26523 0
M  V30 6536 C 608.961 1.44221 -5.14883 0
M  V30 6537 C 610.261 -0.743798 -5.16977 0
M  V30 6538 H 611.955 -0.699735 -2.91108 0
M  V30 6539 H 609.501 -0.337946 -1.39978 0
M  V30 6540 H 611.454 1.51247 -3.93322 0
M  V30 6541 H 610.178 1.80105 -2.72451 0
M  V30 6542 H 608.837 -0.113239 -3.66425 0
M  V30 6543 H 608.485 2.21097 -4.51802 0
M  V30 6544 H 608.185 1.00052 -5.79019 0
M  V30 6545 H 609.709 1.93295 -5.79197 0
M  V30 6546 H 611.123 -0.337444 -5.72306 0
M  V30 6547 H 609.52 -1.10914 -5.89761 0
M  V30 6548 H 610.59 -1.60745 -4.57481 0
M  V30 6549 N 611.933 1.52934 -0.380664 0
M  V30 6550 C 612.863 2.29118 0.450268 0
M  V30 6551 C 613.844 1.32153 1.07096 0
M  V30 6552 O 615.029 1.61038 1.08537 0
M  V30 6553 C 612.159 3.09161 1.58231 0
M  V30 6554 C 611.113 4.13938 1.0881 0
M  V30 6555 C 610.439 4.82153 2.31155 0
M  V30 6556 C 611.739 5.22048 0.162146 0
M  V30 6557 H 613.433 2.98826 -0.185361 0
M  V30 6558 H 610.979 1.43715 -0.0905886 0
M  V30 6559 H 612.932 3.61211 2.17036 0
M  V30 6560 H 611.656 2.3717 2.2454 0
M  V30 6561 H 610.315 3.62855 0.522633 0
M  V30 6562 H 609.963 4.06719 2.95953 0
M  V30 6563 H 609.663 5.52966 1.98752 0
M  V30 6564 H 611.187 5.37004 2.90618 0
M  V30 6565 H 612.601 5.6951 0.658126 0
M  V30 6566 H 610.998 6.00057 -0.0717122 0
M  V30 6567 H 612.068 4.78398 -0.791438 0
M  V30 6568 N 613.412 0.11024 1.57214 0
M  V30 6569 C 614.66 -0.548783 1.94506 0
M  V30 6570 C 614.981 -1.67772 0.99386 0
M  V30 6571 O 614.251 -1.9584 0.0485841 0
M  V30 6572 H 612.831 -0.205715 0.718116 0
M  V30 6573 H 615.493 0.177127 1.94093 0
M  V30 6574 H 614.589 -0.949096 2.97319 0
M  V30 6575 N 614.89 -1.56749 -0.16351 0
M  V30 6576 C 615.838 -1.97939 -1.22159 0
M  V30 6577 C 616.832 -0.869288 -1.45395 0
M  V30 6578 O 618.038 -1.05443 -1.45883 0
M  V30 6579 H 614.413 -0.629869 -0.410815 0
M  V30 6580 H 616.384 -2.86115 -0.847381 0
M  V30 6581 C 615.133 -2.36206 -2.55151 0
M  V30 6582 H 614.456 -3.2117 -2.38097 0
M  V30 6583 H 615.896 -2.68863 -3.27854 0
M  V30 6584 C 614.355 -1.20841 -3.14482 0
M  V30 6585 O 614.885 -0.500258 -3.98573 0
M  V30 6586 N 613.091 -0.976943 -2.73686 0
M  V30 6587 H 612.638 -1.55457 -2.05404 0
M  V30 6588 H 612.596 -0.206912 -3.13718 0
M  V30 6589 N 616.368 0.432326 -1.51554 0
M  V30 6590 C 617.315 1.52512 -1.7323 0
M  V30 6591 C 618.285 1.55863 -0.5741 0
M  V30 6592 O 619.47 1.72796 -0.809093 0
M  V30 6593 C 616.61 2.90183 -1.86783 0
M  V30 6594 C 615.723 2.96322 -3.14352 0
M  V30 6595 C 614.858 4.25147 -3.18471 0
M  V30 6596 C 613.897 4.25172 -4.40335 0
M  V30 6597 N 613.034 5.45529 -4.41975 0
M  V30 6598 H 617.874 1.33332 -2.66508 0
M  V30 6599 H 615.411 0.647613 -1.32077 0
M  V30 6600 H 617.369 3.70071 -1.92623 0
M  V30 6601 H 615.999 3.0791 -0.969087 0
M  V30 6602 H 615.051 2.09066 -3.17798 0
M  V30 6603 H 616.363 2.92203 -4.04251 0
M  V30 6604 H 615.517 5.13411 -3.23255 0
M  V30 6605 H 614.256 4.31929 -2.2647 0
M  V30 6606 H 613.261 3.353 -4.35723 0
M  V30 6607 H 614.486 4.20049 -5.33606 0
M  V30 6608 H 612.432 5.53024 -3.52847 0
M  V30 6609 H 612.349 5.43311 -5.25689 0
M  V30 6610 H 613.617 6.35812 -4.50958 0
M  V30 6611 N 617.846 1.41785 0.688094 0
M  V30 6612 C 619.095 1.4084 1.44385 0
M  V30 6613 C 619.408 0.0234166 1.95586 0
M  V30 6614 O 620.614 -0.108647 2.71283 0
M  V30 6615 C 619.07 2.47675 2.61123 0
M  V30 6616 C 618.678 3.92116 2.16677 0
M  V30 6617 C 620.422 2.55877 3.38714 0
M  V30 6618 C 618.329 4.90487 3.30419 0
M  V30 6619 H 617.259 0.523787 0.542368 0
M  V30 6620 H 619.91 1.6764 0.74627 0
M  V30 6621 H 618.292 2.14018 3.33185 0
M  V30 6622 H 619.466 4.35059 1.51856 0
M  V30 6623 H 617.781 3.87642 1.5206 0
M  V30 6624 H 620.378 3.26553 4.234 0
M  V30 6625 H 620.721 1.59801 3.84408 0
M  V30 6626 H 621.254 2.88662 2.73714 0
M  V30 6627 H 617.993 5.87994 2.89729 0
M  V30 6628 H 617.513 4.52187 3.94065 0
M  V30 6629 H 619.192 5.11591 3.96085 0
M  V30 6630 N 619.324 -0.923095 1.27737 0
M  V30 6631 C 620.554 -1.70277 1.17001 0
M  V30 6632 C 620.962 -1.87188 -0.275199 0
M  V30 6633 O 620.305 -1.39195 -1.19877 0
M  V30 6634 C 620.367 -3.11976 1.78637 0
M  V30 6635 C 620.031 -3.18386 3.27841 0
M  V30 6636 C 621.028 -3.00287 4.2441 0
M  V30 6637 C 618.713 -3.41198 3.68632 0
M  V30 6638 C 620.707 -3.04896 5.59747 0
M  V30 6639 C 618.394 -3.4544 5.04097 0
M  V30 6640 C 619.392 -3.27309 5.99465 0
M  V30 6641 O 619.08 -3.31295 7.32461 0
M  V30 6642 H 618.812 -0.539366 0.407505 0
M  V30 6643 H 621.366 -1.16446 1.69202 0
M  V30 6644 H 619.596 -3.67308 1.20919 0
M  V30 6645 H 621.285 -3.7193 1.6255 0
M  V30 6646 H 622.051 -2.825 3.94232 0
M  V30 6647 H 617.93 -3.54359 2.94873 0
M  V30 6648 H 621.474 -2.90662 6.34162 0
M  V30 6649 H 617.371 -3.62753 5.33929 0
M  V30 6650 H 618.139 -3.47719 7.40968 0
M  V30 6651 N 620.802 -1.09834 -1.13024 0
M  V30 6652 C 622.051 -0.831806 -1.83749 0
M  V30 6653 C 622.364 0.644763 -1.84668 0
M  V30 6654 O 623.57 1.02697 -2.51327 0
M  V30 6655 C 622.026 -1.43817 -3.29916 0
M  V30 6656 C 621.634 -2.94759 -3.37374 0
M  V30 6657 C 623.378 -1.25077 -4.05655 0
M  V30 6658 C 621.285 -3.48461 -4.77838 0
M  V30 6659 H 620.215 -0.30751 -0.688443 0
M  V30 6660 H 622.866 -1.32156 -1.27307 0
M  V30 6661 H 621.248 -0.876106 -3.86187 0
M  V30 6662 H 622.422 -3.57228 -2.91076 0
M  V30 6663 H 620.737 -3.12581 -2.75103 0
M  V30 6664 H 623.334 -1.62649 -5.09362 0
M  V30 6665 H 623.677 -0.191782 -4.15858 0
M  V30 6666 H 624.21 -1.78057 -3.55725 0
M  V30 6667 H 620.949 -4.53998 -4.72828 0
M  V30 6668 H 620.469 -2.90757 -5.24615 0
M  V30 6669 H 622.148 -3.45914 -5.46766 0
M  V30 6670 N 622.28 1.30327 -0.886154 0
M  V30 6671 C 623.51 1.99964 -0.519421 0
M  V30 6672 C 623.918 1.66593 0.89686 0
M  V30 6673 O 623.261 0.899886 1.60149 0
M  V30 6674 C 623.323 3.54187 -0.615795 0
M  V30 6675 C 622.987 4.11078 -1.9966 0
M  V30 6676 C 623.984 4.26985 -2.96614 0
M  V30 6677 C 621.669 4.46429 -2.30231 0
M  V30 6678 C 623.663 4.77456 -4.22273 0
M  V30 6679 C 621.35 4.966 -3.56135 0
M  V30 6680 C 622.348 5.12066 -4.5197 0
M  V30 6681 O 622.036 5.61154 -5.7564 0
M  V30 6682 H 621.768 0.645979 -0.199217 0
M  V30 6683 H 624.322 1.67154 -1.19368 0
M  V30 6684 H 622.552 3.86528 0.115448 0
M  V30 6685 H 624.241 4.05065 -0.26017 0
M  V30 6686 H 625.007 3.99975 -2.74308 0
M  V30 6687 H 620.886 4.33658 -1.56404 0
M  V30 6688 H 624.43 4.89444 -4.97082 0
M  V30 6689 H 620.327 5.23045 -3.78277 0
M  V30 6690 H 621.095 5.79494 -5.78039 0
M  V30 6691 N 623.758 0.647228 1.43697 0
M  V30 6692 C 624.986 0.16575 2.06235 0
M  V30 6693 C 625.401 -1.1662 1.48476 0
M  V30 6694 O 624.758 -1.7187 0.613762 0
M  V30 6695 C 624.809 0.0621651 3.61447 0
M  V30 6696 O 624.53 1.34146 4.17057 0
M  V30 6697 C 626.031 -0.446102 4.4105 0
M  V30 6698 H 623.251 0.0871158 0.665321 0
M  V30 6699 H 625.795 0.886183 1.84301 0
M  V30 6700 H 623.95 -0.608794 3.82587 0
M  V30 6701 H 624.364 1.19675 5.10664 0
M  V30 6702 H 625.838 -0.46755 5.50016 0
M  V30 6703 H 626.315 -1.47627 4.13646 0
M  V30 6704 H 626.921 0.192159 4.24866 0
M  V30 6705 N 625.236 -1.5273 0.388769 0
M  V30 6706 C 626.652 -1.59553 0.0387049 0
M  V30 6707 C 626.852 -1.40278 -1.44652 0
M  V30 6708 O 625.908 -1.21951 -2.21098 0
M  V30 6709 C 627.221 -2.9625 0.515409 0
M  V30 6710 C 628.769 -3.09426 0.471621 0
M  V30 6711 C 629.244 -4.48572 0.924505 0
M  V30 6712 N 630.735 -4.54754 0.880496 0
M  V30 6713 C 631.47 -5.60653 1.20234 0
M  V30 6714 N 630.966 -6.74198 1.59463 0
M  V30 6715 N 632.759 -5.50755 1.12363 0
M  V30 6716 H 624.91 -1.63508 1.35569 0
M  V30 6717 H 627.173 -0.768097 0.555636 0
M  V30 6718 H 626.879 -3.15569 1.5527 0
M  V30 6719 H 626.753 -3.77102 -0.085792 0
M  V30 6720 H 629.14 -2.89804 -0.556588 0
M  V30 6721 H 629.221 -2.30528 1.10862 0
M  V30 6722 H 628.865 -4.68936 1.95094 0
M  V30 6723 H 628.795 -5.25935 0.264524 0
M  V30 6724 H 631.286 -3.73237 0.591815 0
M  V30 6725 H 631.599 -7.5097 1.82385 0
M  V30 6726 H 629.944 -6.75531 1.63349 0
M  V30 6727 H 633.135 -4.6093 0.816169 0
M  V30 6728 H 633.308 -6.33184 1.37777 0
M  V30 6729 N 626.714 -0.118576 -1.57153 0
M  V30 6730 C 627.939 0.550582 -1.99958 0
M  V30 6731 C 628.364 1.59458 -0.997736 0
M  V30 6732 O 627.722 1.81274 0.0306269 0
M  V30 6733 C 627.77 1.15379 -3.41643 0
M  V30 6734 O 626.874 2.26932 -3.44348 0
M  V30 6735 H 626.215 0.137567 -0.649593 0
M  V30 6736 H 628.745 -0.206926 -2.03551 0
M  V30 6737 H 628.755 1.48942 -3.79843 0
M  V30 6738 H 627.43 0.389087 -4.14076 0
M  V30 6739 H 626.007 1.94812 -3.17967 0
M  V30 6740 N 628.193 1.56834 0.155195 0
M  V30 6741 C 629.421 1.87049 0.884326 0
M  V30 6742 C 629.836 0.705839 1.7511 0
M  V30 6743 O 629.193 -0.324641 1.79589 0
M  V30 6744 C 629.244 3.1644 1.74781 0
M  V30 6745 O 628.965 4.28417 0.915978 0
M  V30 6746 C 630.466 3.60113 2.58522 0
M  V30 6747 H 627.686 0.620196 0.25612 0
M  V30 6748 H 630.23 2.03946 0.150445 0
M  V30 6749 H 628.385 3.01321 2.43484 0
M  V30 6750 H 628.799 5.02353 1.50803 0
M  V30 6751 H 630.273 4.53508 3.14698 0
M  V30 6752 H 630.75 2.85005 3.34169 0
M  V30 6753 H 631.356 3.77898 1.95124 0
M  V30 6754 N 629.671 -0.424282 1.51781 0
M  V30 6755 C 630.896 -1.19928 1.6921 0
M  V30 6756 C 631.321 -1.8392 0.394355 0
M  V30 6757 O 630.679 -1.69371 -0.646778 0
M  V30 6758 C 630.727 -2.24937 2.81843 0
M  V30 6759 O 629.831 -3.3073 2.46356 0
M  V30 6760 H 629.172 -0.35078 0.563781 0
M  V30 6761 H 631.702 -0.499401 1.98412 0
M  V30 6762 H 631.712 -2.69512 3.06312 0
M  V30 6763 H 630.387 -1.77742 3.76006 0
M  V30 6764 H 628.964 -2.9154 2.32505 0
M  V30 6765 N 631.149 -1.42148 -0.680565 0
M  V30 6766 C 632.395 -1.4352 -1.44131 0
M  V30 6767 C 632.75 -0.0486244 -1.92339 0
M  V30 6768 O 632.043 0.92819 -1.67616 0
M  V30 6769 C 632.237 -2.38945 -2.65782 0
M  V30 6770 C 632.066 -3.86743 -2.29477 0
M  V30 6771 C 630.836 -4.5532 -2.19115 0
M  V30 6772 C 633.034 -4.77321 -1.91491 0
M  V30 6773 N 631.016 -5.88174 -1.75853 0
M  V30 6774 C 632.387 -5.99238 -1.59103 0
M  V30 6775 C 634.442 -4.64829 -1.78432 0
M  V30 6776 C 633.145 -7.10053 -1.14968 0
M  V30 6777 C 635.171 -5.75621 -1.35702 0
M  V30 6778 C 634.533 -6.96645 -1.04234 0
M  V30 6779 H 630.632 -0.580363 -0.524121 0
M  V30 6780 H 633.216 -1.78132 -0.785939 0
M  V30 6781 H 631.387 -2.06403 -3.29017 0
M  V30 6782 H 633.119 -2.30935 -3.32342 0
M  V30 6783 H 629.874 -4.09456 -2.37998 0
M  V30 6784 H 630.298 -6.58625 -1.56661 0
M  V30 6785 H 634.94 -3.71745 -2.01409 0
M  V30 6786 H 632.658 -8.0299 -0.907365 0
M  V30 6787 H 636.244 -5.67964 -1.26126 0
M  V30 6788 H 635.124 -7.80918 -0.716707 0
M  V30 6789 N 632.627 0.916307 -1.28225 0
M  V30 6790 C 633.577 2.00488 -1.08574 0
M  V30 6791 C 634.561 1.60897 -0.0101874 0
M  V30 6792 O 635.753 1.75499 -0.230034 0
M  V30 6793 C 632.882 3.35076 -0.746943 0
M  V30 6794 C 631.968 3.81077 -1.86121 0
M  V30 6795 N 632.359 3.99475 -3.10247 0
M  V30 6796 C 630.657 4.10212 -1.75048 0
M  V30 6797 C 631.358 4.37965 -3.82834 0
M  V30 6798 N 630.334 4.4608 -3.10667 0
M  V30 6799 H 634.136 2.1276 -2.02757 0
M  V30 6800 H 631.65 1.10397 -1.19107 0
M  V30 6801 H 633.647 4.12743 -0.587252 0
M  V30 6802 H 632.307 3.2416 0.187146 0
M  V30 6803 H 633.318 3.85466 -3.45885 0
M  V30 6804 H 629.995 4.07947 -0.887999 0
M  V30 6805 H 631.385 4.60183 -4.89572 0
M  V30 6806 N 634.105 1.10431 1.1244 0
M  V30 6807 C 635.33 0.869089 1.88313 0
M  V30 6808 C 635.755 -0.574912 1.79099 0
M  V30 6809 O 635.113 -1.40496 1.14589 0
M  V30 6810 C 635.161 1.32208 3.3549 0
M  V30 6811 O 634.265 0.487092 4.09513 0
M  V30 6812 H 633.606 0.313894 0.585121 0
M  V30 6813 H 636.136 1.47111 1.42195 0
M  V30 6814 H 636.146 1.31201 3.86329 0
M  V30 6815 H 634.821 2.37364 3.41513 0
M  V30 6816 H 633.398 0.562372 3.68635 0
M  V30 6817 N 635.583 -1.29855 0.893053 0
M  V30 6818 C 636.53 -2.27909 0.364161 0
M  V30 6819 C 637.5 -1.56726 -0.550093 0
M  V30 6820 O 638.685 -1.84747 -0.47677 0
M  V30 6821 C 635.825 -3.42678 -0.408178 0
M  V30 6822 C 634.938 -4.28659 0.536212 0
M  V30 6823 C 634.073 -5.30599 -0.252521 0
M  V30 6824 C 633.112 -6.08234 0.686822 0
M  V30 6825 N 632.249 -7.02068 -0.0670902 0
M  V30 6826 H 637.089 -2.72531 1.20544 0
M  V30 6827 H 634.626 -1.34047 0.605779 0
M  V30 6828 H 636.584 -4.07986 -0.871962 0
M  V30 6829 H 635.214 -2.99103 -1.21397 0
M  V30 6830 H 634.266 -3.63584 1.1185 0
M  V30 6831 H 635.578 -4.8274 1.25552 0
M  V30 6832 H 634.732 -6.01694 -0.777801 0
M  V30 6833 H 633.471 -4.77233 -1.005 0
M  V30 6834 H 632.476 -5.3601 1.22366 0
M  V30 6835 H 633.701 -6.63689 1.43852 0
M  V30 6836 H 631.647 -6.5108 -0.801955 0
M  V30 6837 H 631.564 -7.53675 0.59243 0
M  V30 6838 H 632.832 -7.77392 -0.572851 0
M  V30 6839 N 637.061 -0.65484 -1.43351 0
M  V30 6840 C 637.991 0.0221809 -2.33489 0
M  V30 6841 C 638.972 0.810272 -1.49561 0
M  V30 6842 O 640.157 0.771426 -1.78221 0
M  V30 6843 C 637.287 0.988117 -3.32947 0
M  V30 6844 C 636.241 0.310026 -4.26876 0
M  V30 6845 C 635.567 1.38752 -5.16384 0
M  V30 6846 C 636.867 -0.798589 -5.16159 0
M  V30 6847 H 638.561 -0.730571 -2.9035 0
M  V30 6848 H 636.107 -0.352773 -1.39612 0
M  V30 6849 H 638.06 1.47067 -3.94904 0
M  V30 6850 H 636.784 1.77205 -2.74346 0
M  V30 6851 H 635.443 -0.152097 -3.66284 0
M  V30 6852 H 635.091 2.16293 -4.54121 0
M  V30 6853 H 634.791 0.939051 -5.80048 0
M  V30 6854 H 636.315 1.87141 -5.81215 0
M  V30 6855 H 637.729 -0.398126 -5.71916 0
M  V30 6856 H 636.126 -1.17163 -5.88552 0
M  V30 6857 H 637.196 -1.65588 -4.55751 0
M  V30 6858 N 638.539 1.52521 -0.396863 0
M  V30 6859 C 639.471 2.24333 0.469814 0
M  V30 6860 C 640.484 1.2685 1.02043 0
M  V30 6861 O 641.673 1.52876 0.92147 0
M  V30 6862 C 638.773 2.95202 1.66461 0
M  V30 6863 C 637.946 4.19454 1.24003 0
M  V30 6864 C 637.005 4.73255 2.30036 0
M  V30 6865 O 636.031 5.36151 1.91131 0
M  V30 6866 N 637.233 4.53765 3.62047 0
M  V30 6867 H 639.998 2.99347 -0.145468 0
M  V30 6868 H 637.559 1.60348 -0.223606 0
M  V30 6869 H 639.551 3.28092 2.36934 0
M  V30 6870 H 638.121 2.2345 2.18607 0
M  V30 6871 H 637.341 3.92517 0.363892 0
M  V30 6872 H 638.629 5.0017 0.933135 0
M  V30 6873 H 638.027 4.03576 3.96412 0
M  V30 6874 H 636.584 4.91124 4.28533 0
M  V30 6875 N 640.017 0.126909 1.57088 0
M  V30 6876 C 640.947 -0.816847 2.18746 0
M  V30 6877 C 641.928 -1.27161 1.12979 0
M  V30 6878 O 643.113 -1.33279 1.41246 0
M  V30 6879 C 640.243 -2.06398 2.79315 0
M  V30 6880 C 639.197 -1.74673 3.90735 0
M  V30 6881 C 638.523 -3.06482 4.38147 0
M  V30 6882 C 639.823 -1.0089 5.12463 0
M  V30 6883 H 641.517 -0.303032 2.97863 0
M  V30 6884 H 639.063 -0.144314 1.43275 0
M  V30 6885 H 641.016 -2.72885 3.2111 0
M  V30 6886 H 639.74 -2.60118 1.975 0
M  V30 6887 H 638.399 -1.10572 3.49527 0
M  V30 6888 H 638.047 -3.58152 3.5318 0
M  V30 6889 H 637.747 -2.86025 5.13287 0
M  V30 6890 H 639.271 -3.74073 4.82599 0
M  V30 6891 H 640.685 -1.57546 5.51228 0
M  V30 6892 H 639.082 -0.905006 5.93237 0
M  V30 6893 H 640.152 0.00297335 4.849 0
M  V30 6894 N 641.495 -1.56914 -0.146875 0
M  V30 6895 C 642.743 -1.82994 -0.85777 0
M  V30 6896 C 643.064 -0.707814 -1.817 0
M  V30 6897 O 642.334 0.270521 -1.94023 0
M  V30 6898 H 640.914 -0.675106 -0.319751 0
M  V30 6899 H 643.576 -1.9439 -0.140849 0
M  V30 6900 H 642.672 -2.77928 -1.41994 0
M  V30 6901 N 642.974 0.416227 -1.52004 0
M  V30 6902 C 644.223 1.16088 -1.64944 0
M  V30 6903 C 644.536 1.91835 -0.381928 0
M  V30 6904 O 645.742 2.6867 -0.391013 0
M  V30 6905 C 644.198 2.1124 -2.91386 0
M  V30 6906 C 643.806 1.41042 -4.25219 0
M  V30 6907 C 645.55 2.86008 -3.13688 0
M  V30 6908 C 643.457 2.34801 -5.42791 0
M  V30 6909 H 642.387 0.437041 -0.61442 0
M  V30 6910 H 645.038 0.425971 -1.78487 0
M  V30 6911 H 643.42 2.88254 -2.71525 0
M  V30 6912 H 644.594 0.694416 -4.55538 0
M  V30 6913 H 642.909 0.78344 -4.08964 0
M  V30 6914 H 645.506 3.56286 -3.98703 0
M  V30 6915 H 645.849 3.48556 -2.27628 0
M  V30 6916 H 646.382 2.16095 -3.33988 0
M  V30 6917 H 643.121 1.7691 -6.31176 0
M  V30 6918 H 642.641 3.04395 -5.16821 0
M  V30 6919 H 644.32 2.9548 -5.75587 0
M  V30 6920 N 644.452 1.42507 0.673017 0
M  V30 6921 C 645.701 1.42364 1.42883 0
M  V30 6922 C 646.014 0.0441598 1.9555 0
M  V30 6923 O 647.22 -0.0798679 2.71382 0
M  V30 6924 C 645.676 2.5043 2.58482 0
M  V30 6925 C 645.284 3.94392 2.12506 0
M  V30 6926 C 647.028 2.59455 3.35981 0
M  V30 6927 C 644.935 4.93964 3.25198 0
M  V30 6928 H 643.865 0.52951 0.536782 0
M  V30 6929 H 646.516 1.68422 0.728448 0
M  V30 6930 H 644.898 2.1754 3.30896 0
M  V30 6931 H 646.072 4.36645 1.47233 0
M  V30 6932 H 644.387 3.89233 1.4794 0
M  V30 6933 H 646.984 3.31025 4.19912 0
M  V30 6934 H 647.327 1.63869 3.82691 0
M  V30 6935 H 647.86 2.91549 2.70637 0
M  V30 6936 H 644.599 5.91034 2.83477 0
M  V30 6937 H 644.119 4.56341 3.89247 0
M  V30 6938 H 645.798 5.15763 3.90637 0
M  V30 6939 N 645.93 -0.909495 1.28709 0
M  V30 6940 C 647.207 -1.63865 1.06806 0
M  V30 6941 C 647.587 -2.07445 -0.391143 0
M  V30 6942 O 646.935 -1.82269 -1.37805 0
M  V30 6943 C 647.145 -2.82692 2.04661 0
M  V30 6944 C 648.493 -3.5361 2.35042 0
M  V30 6945 O 649.517 -2.92847 2.02779 0
M  V30 6946 O 648.376 -4.63131 2.90124 0
M  V30 6947 H 645.47 -0.719065 0.408502 0
M  V30 6948 H 648.016 -0.958424 1.40044 0
M  V30 6949 H 646.788 -2.47614 3.0299 0
M  V30 6950 H 646.411 -3.58426 1.72095 0
M  V30 6951 N 647.408 -1.11026 -1.11852 0
M  V30 6952 C 648.657 -0.851249 -1.82857 0
M  V30 6953 C 648.97 0.62514 -1.85341 0
M  V30 6954 O 650.176 1.00026 -2.52403 0
M  V30 6955 C 648.632 -1.47309 -3.28372 0
M  V30 6956 C 648.24 -2.9832 -3.34229 0
M  V30 6957 C 649.984 -1.29373 -4.04306 0
M  V30 6958 C 647.891 -3.53509 -4.74115 0
M  V30 6959 H 646.821 -0.314794 -0.685143 0
M  V30 6960 H 649.472 -1.33499 -1.25898 0
M  V30 6961 H 647.854 -0.917017 -3.85236 0
M  V30 6962 H 649.028 -3.60295 -2.87271 0
M  V30 6963 H 647.343 -3.15482 -2.71772 0
M  V30 6964 H 649.94 -1.68042 -5.07608 0
M  V30 6965 H 650.283 -0.235879 -4.15631 0
M  V30 6966 H 650.816 -1.8182 -3.53817 0
M  V30 6967 H 647.555 -4.58987 -4.67986 0
M  V30 6968 H 647.075 -2.96305 -5.21501 0
M  V30 6969 H 648.754 -3.51693 -5.43066 0
M  V30 6970 N 648.886 1.2938 -0.899927 0
M  V30 6971 C 650.114 1.99691 -0.541386 0
M  V30 6972 C 650.529 1.67355 0.873936 0
M  V30 6973 O 649.886 0.918728 1.57688 0
M  V30 6974 C 649.937 3.54168 -0.72438 0
M  V30 6975 O 649.658 3.85359 -2.08399 0
M  V30 6976 C 651.159 4.41746 -0.370819 0
M  V30 6977 H 648.379 0.638037 -0.207726 0
M  V30 6978 H 650.923 1.6491 -1.20934 0
M  V30 6979 H 649.078 3.87261 -0.103607 0
M  V30 6980 H 649.492 4.80032 -2.11352 0
M  V30 6981 H 650.966 5.49256 -0.549693 0
M  V30 6982 H 651.443 4.33712 0.692148 0
M  V30 6983 H 652.049 4.14125 -0.968543 0
M  V30 6984 N 650.364 0.662433 1.43002 0
M  V30 6985 C 651.641 0.109096 1.95296 0
M  V30 6986 C 652.021 -1.37313 1.60338 0
M  V30 6987 O 651.369 -2.1032 0.893187 0
M  V30 6988 C 651.579 0.365096 3.47085 0
M  V30 6989 C 652.927 0.274964 4.23709 0
M  V30 6990 O 653.951 0.29816 3.5495 0
M  V30 6991 O 652.81 0.206549 5.4611 0
M  V30 6992 H 649.904 -0.00429724 0.826989 0
M  V30 6993 H 652.45 0.736308 1.52894 0
M  V30 6994 H 651.222 1.39237 3.65689 0
M  V30 6995 H 650.845 -0.294733 3.96506 0
M  V30 6996 N 651.842 -1.52309 0.404946 0
M  V30 6997 C 653.072 -2.05886 -0.171569 0
M  V30 6998 C 653.48 -1.27527 -1.39762 0
M  V30 6999 O 652.823 -0.319215 -1.80905 0
M  V30 7000 C 652.885 -3.54609 -0.590983 0
M  V30 7001 C 652.549 -4.53989 0.523757 0
M  V30 7002 C 653.546 -5.01084 1.38604 0
M  V30 7003 C 651.231 -4.97465 0.695255 0
M  V30 7004 C 653.225 -5.90295 2.4048 0
M  V30 7005 C 650.912 -5.86473 1.71733 0
M  V30 7006 C 651.91 -6.32782 2.57051 0
M  V30 7007 O 651.598 -7.20029 3.57509 0
M  V30 7008 H 651.33 -0.675508 -0.0257763 0
M  V30 7009 H 653.884 -1.97238 0.573278 0
M  V30 7010 H 652.114 -3.60929 -1.38805 0
M  V30 7011 H 653.803 -3.90853 -1.09494 0
M  V30 7012 H 654.569 -4.68214 1.26492 0
M  V30 7013 H 650.448 -4.60982 0.0408447 0
M  V30 7014 H 653.992 -6.26363 3.07108 0
M  V30 7015 H 649.889 -6.18756 1.83877 0
M  V30 7016 H 650.657 -7.3813 3.53703 0
M  V30 7017 N 653.32 -0.135238 -1.57019 0
M  V30 7018 C 654.545 0.529343 -2.00531 0
M  V30 7019 C 654.97 1.58391 -1.01459 0
M  V30 7020 O 654.328 1.81296 0.0113986 0
M  V30 7021 C 654.376 1.11748 -3.42848 0
M  V30 7022 O 653.48 2.23267 -3.46736 0
M  V30 7023 H 652.821 0.130669 -0.651016 0
M  V30 7024 H 655.351 -0.228503 -2.0332 0
M  V30 7025 H 655.361 1.44905 -3.81401 0
M  V30 7026 H 654.036 0.345147 -4.14465 0
M  V30 7027 H 652.613 1.91428 -3.20015 0
M  V30 7028 N 654.798 1.5699 0.138552 0
M  V30 7029 C 656.075 1.74741 0.87891 0
M  V30 7030 C 656.455 0.705522 1.98961 0
M  V30 7031 O 655.803 -0.274066 2.2685 0
M  V30 7032 C 656.013 3.1909 1.4136 0
M  V30 7033 C 657.361 3.81023 1.87368 0
M  V30 7034 O 658.385 3.22571 1.51084 0
M  V30 7035 O 657.244 4.83722 2.54312 0
M  V30 7036 H 654.338 0.714781 0.415953 0
M  V30 7037 H 656.884 1.69248 0.123817 0
M  V30 7038 H 655.656 3.86424 0.61579 0
M  V30 7039 H 655.279 3.29043 2.23196 0
M  V30 7040 N 656.276 -0.40816 1.52223 0
M  V30 7041 C 657.525 -1.15212 1.65557 0
M  V30 7042 C 657.838 -1.9163 0.392096 0
M  V30 7043 O 659.044 -2.68458 0.405256 0
M  V30 7044 C 657.5 -2.09691 2.92502 0
M  V30 7045 C 657.108 -1.38785 4.25961 0
M  V30 7046 C 658.852 -2.8434 3.152 0
M  V30 7047 C 656.759 -2.31919 5.44029 0
M  V30 7048 H 655.689 -0.433776 0.616729 0
M  V30 7049 H 658.34 -0.4165 1.78711 0
M  V30 7050 H 656.722 -2.8681 2.7305 0
M  V30 7051 H 657.896 -0.670248 4.55899 0
M  V30 7052 H 656.211 -0.761741 4.09373 0
M  V30 7053 H 658.808 -3.54166 4.00587 0
M  V30 7054 H 659.151 -3.47344 2.29473 0
M  V30 7055 H 659.684 -2.14321 3.35129 0
M  V30 7056 H 656.423 -1.7356 6.32105 0
M  V30 7057 H 655.943 -3.0165 5.18428 0
M  V30 7058 H 657.622 -2.92424 5.77146 0
M  V30 7059 N 657.755 -1.42862 -0.66545 0
M  V30 7060 C 659.171 -1.25993 -0.979687 0
M  V30 7061 C 659.371 -0.170831 -2.00775 0
M  V30 7062 O 658.427 0.454827 -2.4837 0
M  V30 7063 C 659.74 -2.62005 -1.47559 0
M  V30 7064 C 661.288 -2.69437 -1.59288 0
M  V30 7065 C 661.763 -4.05838 -2.12272 0
M  V30 7066 N 663.254 -4.0784 -2.19592 0
M  V30 7067 C 663.989 -5.10205 -2.61684 0
M  V30 7068 N 663.485 -6.22949 -3.03161 0
M  V30 7069 N 665.278 -4.9756 -2.61516 0
M  V30 7070 H 657.429 -2.12395 0.0150493 0
M  V30 7071 H 659.692 -0.946355 -0.0558187 0
M  V30 7072 H 659.398 -3.42605 -0.794654 0
M  V30 7073 H 659.272 -2.86566 -2.45275 0
M  V30 7074 H 661.659 -1.89178 -2.26486 0
M  V30 7075 H 661.74 -2.48655 -0.600374 0
M  V30 7076 H 661.384 -4.86559 -1.4568 0
M  V30 7077 H 661.314 -4.23977 -3.12331 0
M  V30 7078 H 663.805 -3.26452 -1.90361 0
M  V30 7079 H 664.118 -6.96899 -3.33993 0
M  V30 7080 H 662.463 -6.2644 -3.00995 0
M  V30 7081 H 665.654 -4.08551 -2.28481 0
M  V30 7082 H 665.827 -5.77468 -2.93999 0
M  V30 7083 N 659.233 0.902656 -1.29189 0
M  V30 7084 C 660.482 1.6475 -1.16362 0
M  V30 7085 C 660.795 1.93517 0.284682 0
M  V30 7086 O 662.001 2.66192 0.534229 0
M  V30 7087 C 660.457 2.96848 -2.03493 0
M  V30 7088 C 660.065 2.75687 -3.5313 0
M  V30 7089 C 661.809 3.74762 -1.99383 0
M  V30 7090 C 659.716 4.03492 -4.32375 0
M  V30 7091 H 658.646 0.618041 -0.431904 0
M  V30 7092 H 661.297 1.0008 -1.53806 0
M  V30 7093 H 659.679 3.62715 -1.58916 0
M  V30 7094 H 660.853 2.18431 -4.05739 0
M  V30 7095 H 659.168 2.11171 -3.58881 0
M  V30 7096 H 661.765 4.69515 -2.5585 0
M  V30 7097 H 662.108 4.04767 -0.973123 0
M  V30 7098 H 662.641 3.15732 -2.41988 0
M  V30 7099 H 659.38 3.78656 -5.3507 0
M  V30 7100 H 658.9 4.60318 -3.84535 0
M  V30 7101 H 660.579 4.71662 -4.42881 0
M  V30 7102 N 660.711 1.11618 1.11262 0
M  V30 7103 C 661.658 0.7762 2.17356 0
M  V30 7104 C 662.628 -0.253152 1.6416 0
M  V30 7105 O 663.813 -0.129655 1.90359 0
M  V30 7106 C 660.953 0.227581 3.44349 0
M  V30 7107 C 660.066 1.31372 4.1154 0
M  V30 7108 C 659.201 0.72544 5.26223 0
M  V30 7109 C 658.24 1.7913 5.85302 0
M  V30 7110 N 657.377 1.22237 6.91377 0
M  V30 7111 H 662.217 1.68508 2.45783 0
M  V30 7112 H 659.754 0.841475 1.20655 0
M  V30 7113 H 661.712 -0.108483 4.17059 0
M  V30 7114 H 660.342 -0.644486 3.16301 0
M  V30 7115 H 659.394 1.7667 3.36885 0
M  V30 7116 H 660.706 2.12005 4.51504 0
M  V30 7117 H 659.86 0.339541 6.05749 0
M  V30 7118 H 658.599 -0.112188 4.87571 0
M  V30 7119 H 657.604 2.18648 5.04453 0
M  V30 7120 H 658.829 2.63199 6.26022 0
M  V30 7121 H 656.775 0.406423 6.5474 0
M  V30 7122 H 656.692 1.9654 7.30006 0
M  V30 7123 H 657.96 0.863426 7.74703 0
M  V30 7124 N 662.189 -1.289 0.906776 0
M  V30 7125 C 663.435 -1.95919 0.546551 0
M  V30 7126 C 663.79 -1.70126 -0.8986 0
M  V30 7127 O 663.083 -1.00775 -1.62957 0
M  V30 7128 C 663.277 -3.48704 0.783617 0
M  V30 7129 C 663.106 -3.8935 2.25026 0
M  V30 7130 C 661.876 -4.13864 2.89905 0
M  V30 7131 C 664.074 -4.00535 3.22608 0
M  V30 7132 N 662.056 -4.41131 4.26939 0
M  V30 7133 C 663.427 -4.31936 4.44783 0
M  V30 7134 C 665.482 -3.83035 3.18102 0
M  V30 7135 C 664.185 -4.47659 5.63022 0
M  V30 7136 C 666.211 -3.99971 4.35634 0
M  V30 7137 C 665.573 -4.31738 5.5658 0
M  V30 7138 H 661.672 -0.74105 0.249737 0
M  V30 7139 H 664.256 -1.55696 1.16906 0
M  V30 7140 H 662.427 -3.87933 0.190437 0
M  V30 7141 H 664.159 -4.02835 0.38812 0
M  V30 7142 H 660.914 -4.07893 2.40666 0
M  V30 7143 H 661.338 -4.5886 4.97771 0
M  V30 7144 H 665.98 -3.57533 2.25677 0
M  V30 7145 H 663.698 -4.71995 6.55932 0
M  V30 7146 H 667.284 -3.87874 4.33641 0
M  V30 7147 H 666.164 -4.44568 6.4601 0
M  V30 7148 N 663.667 -0.670007 -1.42649 0
M  V30 7149 C 664.895 -0.19854 -2.05945 0
M  V30 7150 C 665.31 1.14243 -1.50313 0
M  V30 7151 O 664.667 1.70872 -0.641027 0
M  V30 7152 C 664.718 -0.11966 -3.61302 0
M  V30 7153 O 664.439 -1.40764 -4.1487 0
M  V30 7154 C 665.94 0.375878 -4.41704 0
M  V30 7155 H 663.16 -0.0976894 -0.663851 0
M  V30 7156 H 665.704 -0.915392 -1.82868 0
M  V30 7157 H 663.859 0.547851 -3.83507 0
M  V30 7158 H 664.273 -1.27784 -5.08696 0
M  V30 7159 H 665.747 0.379988 -5.50691 0
M  V30 7160 H 666.224 1.41028 -4.15942 0
M  V30 7161 H 666.83 -0.259727 -4.24506 0
M  V30 7162 N 665.145 1.52092 -0.413018 0
M  V30 7163 C 666.391 2.02815 0.154104 0
M  V30 7164 C 666.746 1.293 1.42475 0
M  V30 7165 O 666.039 0.391835 1.87551 0
M  V30 7166 C 666.233 3.54529 0.4521 0
M  V30 7167 C 666.062 4.4274 -0.788116 0
M  V30 7168 C 664.832 4.87903 -1.31447 0
M  V30 7169 C 667.03 4.86522 -1.66735 0
M  V30 7170 N 665.012 5.60254 -2.50976 0
M  V30 7171 C 666.383 5.57692 -2.70886 0
M  V30 7172 C 668.438 4.68534 -1.68465 0
M  V30 7173 C 667.141 6.12783 -3.76682 0
M  V30 7174 C 669.167 5.24524 -2.73182 0
M  V30 7175 C 668.529 5.9562 -3.76054 0
M  V30 7176 H 664.628 0.781796 0.0178567 0
M  V30 7177 H 667.212 1.86223 -0.568237 0
M  V30 7178 H 665.383 3.71186 1.14348 0
M  V30 7179 H 667.115 3.91934 1.00844 0
M  V30 7180 H 663.87 4.65504 -0.871931 0
M  V30 7181 H 664.294 6.01069 -3.11521 0
M  V30 7182 H 668.936 4.13051 -0.902708 0
M  V30 7183 H 666.654 6.67335 -4.55729 0
M  V30 7184 H 670.24 5.12473 -2.75433 0
M  V30 7185 H 669.12 6.38169 -4.55752 0
M  V30 7186 N 666.623 0.143563 1.56945 0
M  V30 7187 C 667.573 -0.809115 2.1316 0
M  V30 7188 C 668.557 -1.21176 1.05855 0
M  V30 7189 O 669.749 -1.17875 1.3204 0
M  V30 7190 C 666.878 -2.04957 2.75405 0
M  V30 7191 C 665.964 -1.67018 3.89828 0
M  V30 7192 N 666.355 -0.998822 4.9584 0
M  V30 7193 C 664.653 -1.96313 4.00471 0
M  V30 7194 C 665.354 -0.816217 5.75945 0
M  V30 7195 N 664.33 -1.349 5.26596 0
M  V30 7196 H 668.132 -0.286919 2.92496 0
M  V30 7197 H 665.646 -0.0580948 1.62296 0
M  V30 7198 H 667.643 -2.74201 3.14037 0
M  V30 7199 H 666.303 -2.57697 1.97541 0
M  V30 7200 H 667.314 -0.659975 5.13678 0
M  V30 7201 H 663.991 -2.50927 3.33679 0
M  V30 7202 H 665.381 -0.287353 6.71285 0
M  V30 7203 N 668.101 -1.57061 -0.130224 0
M  V30 7204 C 669.049 -2.00486 -1.17933 0
M  V30 7205 C 670.043 -0.899933 -1.43519 0
M  V30 7206 O 671.249 -1.08514 -1.43613 0
M  V30 7207 H 667.624 -0.638441 -0.397363 0
M  V30 7208 H 669.595 -2.87848 -0.786501 0
M  V30 7209 C 668.344 -2.41565 -2.50084 0
M  V30 7210 H 667.667 -3.26148 -2.31231 0
M  V30 7211 H 669.107 -2.75757 -3.22078 0
M  V30 7212 C 667.566 -1.27485 -3.11848 0
M  V30 7213 O 668.096 -0.584688 -3.97422 0
M  V30 7214 N 666.302 -1.03478 -2.71552 0
M  V30 7215 H 665.849 -1.59779 -2.02061 0
M  V30 7216 H 665.807 -0.27341 -3.13209 0
M  V30 7217 N 669.579 0.400081 -1.52437 0
M  V30 7218 C 670.825 1.14788 -1.67187 0
M  V30 7219 C 671.158 1.89928 -0.405074 0
M  V30 7220 O 670.433 1.85118 0.596804 0
M  V30 7221 C 670.716 2.13507 -2.89977 0
M  V30 7222 C 670.569 1.42204 -4.2673 0
M  V30 7223 C 671.888 3.14069 -3.083 0
M  V30 7224 H 669.007 0.415939 -0.608411 0
M  V30 7225 H 671.649 0.432542 -1.85011 0
M  V30 7226 H 669.799 2.7451 -2.74912 0
M  V30 7227 H 671.471 0.842503 -4.53541 0
M  V30 7228 H 669.714 0.723939 -4.27717 0
M  V30 7229 H 670.385 2.14281 -5.08712 0
M  V30 7230 H 672.861 2.63148 -3.22323 0
M  V30 7231 H 671.737 3.80398 -3.95713 0
M  V30 7232 H 671.998 3.82309 -2.22018 0
M  V30 7233 N 671.057 1.43213 0.657864 0
M  V30 7234 C 671.987 1.50815 1.78262 0
M  V30 7235 C 672.968 0.363211 1.66177 0
M  V30 7236 O 674.153 0.579806 1.85343 0
M  V30 7237 C 671.283 1.42625 3.16663 0
M  V30 7238 C 670.237 2.5532 3.43505 0
M  V30 7239 C 669.563 2.32184 4.81658 0
M  V30 7240 C 670.863 3.97583 3.38711 0
M  V30 7241 H 672.557 2.44954 1.72157 0
M  V30 7242 H 670.103 1.17896 0.82683 0
M  V30 7243 H 672.056 1.46548 3.95097 0
M  V30 7244 H 670.78 0.449877 3.23487 0
M  V30 7245 H 669.439 2.50742 2.6744 0
M  V30 7246 H 669.087 1.32801 4.85153 0
M  V30 7247 H 668.787 3.07724 5.00579 0
M  V30 7248 H 670.311 2.37883 5.62356 0
M  V30 7249 H 671.725 4.03673 4.07089 0
M  V30 7250 H 670.122 4.73112 3.69168 0
M  V30 7251 H 671.192 4.23049 2.36976 0
M  V30 7252 N 672.536 -0.895792 1.29666 0
M  V30 7253 C 673.761 -1.68528 1.20885 0
M  V30 7254 C 674.186 -1.8673 -0.226595 0
M  V30 7255 O 673.544 -1.39044 -1.16347 0
M  V30 7256 C 673.592 -3.04512 1.93144 0
M  V30 7257 O 672.696 -3.92963 1.25115 0
M  V30 7258 H 672.037 -0.515371 0.418675 0
M  V30 7259 H 674.567 -1.11878 1.71302 0
M  V30 7260 H 674.577 -3.54628 2.0175 0
M  V30 7261 H 673.252 -2.90582 2.97548 0
M  V30 7262 H 671.829 -3.51399 1.24794 0
M  V30 7263 N 674.014 -1.12206 -1.10668 0
M  V30 7264 C 675.43 -0.857619 -1.346 0
M  V30 7265 C 675.63 0.513542 -1.94846 0
M  V30 7266 O 674.686 1.26273 -2.18658 0
M  V30 7267 C 675.999 -1.97212 -2.26998 0
M  V30 7268 C 677.547 -2.00272 -2.40542 0
M  V30 7269 C 678.022 -3.10948 -3.36267 0
M  V30 7270 N 679.513 -3.10375 -3.43834 0
M  V30 7271 C 680.248 -3.92651 -4.17867 0
M  V30 7272 N 679.744 -4.84911 -4.94807 0
M  V30 7273 N 681.537 -3.80798 -4.1346 0
M  V30 7274 H 673.688 -2.00558 -0.699306 0
M  V30 7275 H 675.951 -0.872612 -0.370477 0
M  V30 7276 H 675.657 -2.96002 -1.89936 0
M  V30 7277 H 675.531 -1.87521 -3.27286 0
M  V30 7278 H 677.918 -1.02103 -2.76874 0
M  V30 7279 H 677.999 -2.14037 -1.40077 0
M  V30 7280 H 677.643 -4.09348 -3.00661 0
M  V30 7281 H 677.573 -2.94421 -4.36605 0
M  V30 7282 H 680.064 -2.43536 -2.88961 0
M  V30 7283 H 680.377 -5.44207 -5.48688 0
M  V30 7284 H 678.722 -4.88926 -4.93939 0
M  V30 7285 H 681.913 -3.08058 -3.52445 0
M  V30 7286 H 682.086 -4.4515 -4.70898 0
M  V30 7287 N 675.492 1.28418 -0.913599 0
M  V30 7288 C 676.903 1.77024 -0.593237 0
M  V30 7289 C 677.254 1.74779 0.891441 0
M  V30 7290 O 676.379 1.34237 1.69733 0
M  V30 7291 C 676.974 3.21456 -1.07011 0
M  V30 7292 C 675.533 3.67786 -0.800664 0
M  V30 7293 C 674.68 2.48185 -1.23691 0
M  V30 7294 H 677.631 1.14883 -1.09487 0
M  V30 7295 H 677.652 3.78269 -0.411481 0
M  V30 7296 H 677.164 3.23058 -2.1507 0
M  V30 7297 H 675.265 3.71644 0.266725 0
M  V30 7298 H 675.378 4.57934 -1.4083 0
M  V30 7299 H 673.742 2.46116 -0.655655 0
M  V30 7300 H 674.525 2.52506 -2.32585 0
M  V30 7301 N 676.97 0.677563 1.42291 0
M  V30 7302 C 678.218 0.200578 2.01102 0
M  V30 7303 C 678.539 -1.19803 1.53858 0
M  V30 7304 O 677.809 -1.80496 0.761439 0
M  V30 7305 H 676.389 0.0711634 0.743603 0
M  V30 7306 H 679.051 0.874691 1.7417 0
M  V30 7307 H 678.147 0.204 3.11433 0
M  V30 7308 N 678.448 -1.51871 0.421078 0
M  V30 7309 C 679.396 -2.28903 -0.413066 0
M  V30 7310 C 680.39 -1.3408 -1.03532 0
M  V30 7311 O 681.596 -1.5149 -0.972146 0
M  V30 7312 H 677.971 -0.736478 -0.152003 0
M  V30 7313 H 679.942 -2.97285 0.257695 0
M  V30 7314 C 678.691 -3.13156 -1.51091 0
M  V30 7315 H 678.014 -3.85997 -1.04145 0
M  V30 7316 H 679.454 -3.7014 -2.06814 0
M  V30 7317 C 677.913 -2.27482 -2.48503 0
M  V30 7318 O 678.443 -1.92325 -3.52667 0
M  V30 7319 N 676.649 -1.91019 -2.18998 0
M  V30 7320 H 676.196 -2.19808 -1.34322 0
M  V30 7321 H 676.154 -1.3399 -2.84419 0
M  V30 7322 N 679.926 -0.151884 -1.56866 0
M  V30 7323 C 680.874 0.80299 -2.183 0
M  V30 7324 C 681.868 1.25174 -1.14139 0
M  V30 7325 O 683.074 1.21966 -1.3238 0
M  V30 7326 H 679.449 0.277169 -0.699057 0
M  V30 7327 H 681.42 0.260699 -2.97259 0
M  V30 7328 C 680.169 2.03009 -2.82281 0
M  V30 7329 H 679.492 1.69377 -3.62148 0
M  V30 7330 H 680.932 2.67753 -3.28762 0
M  V30 7331 C 679.391 2.84123 -1.81041 0
M  V30 7332 O 679.921 3.8063 -1.28388 0
M  V30 7333 N 678.127 2.48753 -1.50234 0
M  V30 7334 H 677.674 1.70337 -1.93244 0
M  V30 7335 H 677.632 3.03316 -0.827445 0
M  V30 7336 N 681.404 1.57128 0.121893 0
M  V30 7337 C 682.314 2.03425 1.16857 0
M  V30 7338 C 683.33 0.954108 1.45509 0
M  V30 7339 O 684.506 1.26541 1.56682 0
M  V30 7340 C 681.571 2.42685 2.47599 0
M  V30 7341 C 680.632 3.64767 2.2637 0
M  V30 7342 C 679.865 4.02145 3.50878 0
M  V30 7343 O 680.088 3.39897 4.58068 0
M  V30 7344 O 679.022 4.95262 3.42051 0
M  V30 7345 H 682.848 2.92825 0.80544 0
M  V30 7346 H 680.433 1.45654 0.332477 0
M  V30 7347 H 682.315 2.68684 3.24634 0
M  V30 7348 H 680.99 1.56432 2.83392 0
M  V30 7349 H 679.897 3.43922 1.47203 0
M  V30 7350 H 681.23 4.51716 1.95482 0
M  V30 7351 N 682.882 -0.391992 1.52647 0
M  V30 7352 C 684.122 -1.1463 1.69232 0
M  V30 7353 C 684.486 -1.87312 0.421684 0
M  V30 7354 O 685.687 -2.64768 0.463852 0
M  V30 7355 C 683.958 -2.10088 2.89133 0
M  V30 7356 S 685.517 -2.93395 3.2629 0
M  V30 7357 H 682.335 -0.388076 0.59575 0
M  V30 7358 H 684.937 -0.431149 1.90687 0
M  V30 7359 H 683.641 -1.55408 3.79837 0
M  V30 7360 H 683.172 -2.86116 2.70003 0
M  V30 7361 H 685.187 -4.12193 2.76244 0
M  V30 7362 N 684.36 -1.4356 -0.65026 0
M  V30 7363 C 685.771 -1.40324 -1.2315 0
M  V30 7364 C 686.122 -0.108812 -1.95898 0
M  V30 7365 O 685.247 0.79163 -2.01401 0
M  V30 7366 C 685.842 -2.54195 -2.23987 0
M  V30 7367 C 684.401 -2.54215 -2.77582 0
M  V30 7368 C 683.548 -2.31752 -1.5227 0
M  V30 7369 H 686.499 -1.52418 -0.442095 0
M  V30 7370 H 686.52 -2.25854 -3.0622 0
M  V30 7371 H 686.032 -3.48392 -1.71011 0
M  V30 7372 H 684.133 -1.63907 -3.34612 0
M  V30 7373 H 684.246 -3.52081 -3.24925 0
M  V30 7374 H 682.61 -1.80476 -1.79723 0
M  V30 7375 H 683.393 -3.28037 -1.01225 0
M  V30 7376 N 685.838 0.888903 -1.30139 0
M  V30 7377 C 687.084 1.64288 -1.19922 0
M  V30 7378 C 687.439 1.90839 0.244561 0
M  V30 7379 O 686.732 1.51544 1.17239 0
M  V30 7380 C 686.926 2.99041 -1.95728 0
M  V30 7381 C 686.755 2.85644 -3.47329 0
M  V30 7382 C 685.525 2.85836 -4.16685 0
M  V30 7383 C 687.723 2.6188 -4.42632 0
M  V30 7384 N 685.705 2.63289 -5.54574 0
M  V30 7385 C 687.076 2.48418 -5.68057 0
M  V30 7386 C 689.131 2.47073 -4.32272 0
M  V30 7387 C 687.834 2.21655 -6.84296 0
M  V30 7388 C 689.86 2.21695 -5.48275 0
M  V30 7389 C 689.222 2.09007 -6.72678 0
M  V30 7390 H 685.321 0.606315 -0.493868 0
M  V30 7391 H 687.905 1.0478 -1.64102 0
M  V30 7392 H 686.076 3.56589 -1.53945 0
M  V30 7393 H 687.808 3.63607 -1.77685 0
M  V30 7394 H 684.563 2.97521 -3.68481 0
M  V30 7395 H 684.987 2.55039 -6.27124 0
M  V30 7396 H 689.629 2.55621 -3.36776 0
M  V30 7397 H 687.347 2.11845 -7.79838 0
M  V30 7398 H 690.933 2.11067 -5.42164 0
M  V30 7399 H 689.813 1.89643 -7.60924 0
M  V30 7400 N 687.317 1.12792 1.10072 0
M  V30 7401 C 688.565 0.883796 1.81751 0
M  V30 7402 C 688.886 -0.591891 1.858 0
M  V30 7403 O 688.156 -1.43017 1.33876 0
M  V30 7404 H 686.736 0.323978 0.673088 0
M  V30 7405 H 689.398 1.42314 1.33164 0
M  V30 7406 H 688.494 1.26863 2.85153 0
M  V30 7407 N 688.795 -1.27931 0.920396 0
M  V30 7408 C 689.745 -2.24727 0.384966 0
M  V30 7409 C 690.729 -1.52715 -0.506661 0
M  V30 7410 O 691.921 -1.73599 -0.345298 0
M  V30 7411 C 689.05 -3.41324 -0.3678 0
M  V30 7412 C 688.136 -4.20649 0.539925 0
M  V30 7413 N 688.527 -4.77906 1.6565 0
M  V30 7414 C 686.825 -4.4469 0.341557 0
M  V30 7415 C 687.526 -5.37652 2.22047 0
M  V30 7416 N 686.502 -5.2218 1.51093 0
M  V30 7417 H 690.304 -2.66572 1.23761 0
M  V30 7418 H 687.818 -1.42779 0.773819 0
M  V30 7419 H 689.815 -4.0976 -0.768277 0
M  V30 7420 H 688.475 -3.01012 -1.21746 0
M  V30 7421 H 689.486 -4.76073 2.03899 0
M  V30 7422 H 686.163 -4.14868 -0.468045 0
M  V30 7423 H 687.553 -5.92948 3.1601 0
M  V30 7424 N 690.273 -0.685099 -1.4193 0
M  V30 7425 C 691.498 -0.218842 -2.06242 0
M  V30 7426 C 691.923 1.11923 -1.51178 0
M  V30 7427 O 691.281 1.69837 -0.634446 0
M  V30 7428 C 691.329 -0.175592 -3.60172 0
M  V30 7429 O 690.433 0.852776 -4.03487 0
M  V30 7430 H 689.774 -0.109531 -0.654904 0
M  V30 7431 H 692.304 -0.937013 -1.81882 0
M  V30 7432 H 692.314 -0.00291151 -4.08 0
M  V30 7433 H 690.989 -1.15222 -3.99621 0
M  V30 7434 H 689.566 0.650301 -3.67186 0
M  V30 7435 N 691.751 1.51645 -0.429126 0
M  V30 7436 C 692.991 2.03924 0.139354 0
M  V30 7437 C 693.355 1.30673 1.40672 0
M  V30 7438 O 694.556 1.73282 2.05491 0
M  V30 7439 C 692.827 3.5557 0.361179 0
M  V30 7440 S 694.386 4.29591 0.894241 0
M  V30 7441 H 691.204 0.710103 0.0356986 0
M  V30 7442 H 693.806 1.86491 -0.586644 0
M  V30 7443 H 692.51 4.06455 -0.567686 0
M  V30 7444 H 692.041 3.77283 1.11449 0
M  V30 7445 H 694.056 4.46102 2.17272 0
M  V30 7446 N 693.229 0.160201 1.56784 0
M  V30 7447 C 694.64 -0.358417 1.83227 0
M  V30 7448 C 694.991 -1.63831 1.07952 0
M  V30 7449 O 694.116 -2.13885 0.328995 0
M  V30 7450 C 694.711 -0.657058 3.32368 0
M  V30 7451 C 693.27 -1.12015 3.59346 0
M  V30 7452 C 692.417 -0.15015 2.76893 0
M  V30 7453 H 695.368 0.384669 1.53967 0
M  V30 7454 H 695.389 -1.51033 3.49241 0
M  V30 7455 H 694.901 0.274647 3.87127 0
M  V30 7456 H 693.002 -2.06734 3.09987 0
M  V30 7457 H 693.115 -1.037 4.67743 0
M  V30 7458 H 691.479 -0.645361 2.46388 0
M  V30 7459 H 692.262 0.775379 3.34429 0
M  V30 7460 N 694.707 -1.5719 -0.113559 0
M  V30 7461 C 695.984 -1.76117 -0.850999 0
M  V30 7462 C 696.364 -0.737085 -1.97814 0
M  V30 7463 O 695.712 0.237942 -2.27258 0
M  V30 7464 C 695.922 -3.21298 -1.36266 0
M  V30 7465 C 697.27 -3.83955 -1.81283 0
M  V30 7466 O 698.294 -3.24934 -1.45933 0
M  V30 7467 O 697.153 -4.87707 -2.46585 0
M  V30 7468 H 694.247 -0.721308 -0.404529 0
M  V30 7469 H 696.793 -1.69423 -0.0968756 0
M  V30 7470 H 695.565 -3.87355 -0.554235 0
M  V30 7471 H 695.188 -3.32552 -2.17933 0
M  V30 7472 N 696.185 0.383891 -1.52853 0
M  V30 7473 C 697.433 1.12619 -1.67814 0
M  V30 7474 C 697.754 1.90354 -0.423141 0
M  V30 7475 O 697.024 1.87649 0.562554 0
M  V30 7476 H 695.604 0.418738 -0.618601 0
M  V30 7477 H 698.266 0.43495 -1.89985 0
M  V30 7478 H 697.362 1.82624 -2.5309 0
M  V30 7479 N 697.663 1.43903 0.642637 0
M  V30 7480 C 698.903 1.47591 1.41408 0
M  V30 7481 C 699.267 0.101313 1.91733 0
M  V30 7482 O 700.468 0.0128797 2.68797 0
M  V30 7483 C 698.739 2.4977 2.55636 0
M  V30 7484 S 700.298 2.72417 3.43998 0
M  V30 7485 H 697.116 0.522163 0.482563 0
M  V30 7486 H 699.718 1.80745 0.745085 0
M  V30 7487 H 698.422 3.48365 2.16956 0
M  V30 7488 H 697.953 2.1815 3.27375 0
M  V30 7489 H 699.968 2.03142 4.52712 0
M  V30 7490 N 699.141 -0.881989 1.30609 0
M  V30 7491 C 700.39 -1.62878 1.18969 0
M  V30 7492 C 700.703 -1.93946 -0.253859 0
M  V30 7493 O 701.909 -2.67008 -0.491813 0
M  V30 7494 C 700.365 -2.93573 2.0819 0
M  V30 7495 C 699.973 -2.70034 3.57471 0
M  V30 7496 C 701.717 -3.71543 2.0532 0
M  V30 7497 C 699.624 -3.96563 4.38739 0
M  V30 7498 H 698.554 -0.611092 0.441682 0
M  V30 7499 H 701.205 -0.976201 1.55379 0
M  V30 7500 H 699.587 -3.6014 1.64666 0
M  V30 7501 H 700.761 -2.11949 4.09163 0
M  V30 7502 H 699.076 -2.05435 3.62195 0
M  V30 7503 H 701.673 -4.65386 2.63288 0
M  V30 7504 H 702.016 -4.03167 1.03739 0
M  V30 7505 H 702.549 -3.11842 2.46981 0
M  V30 7506 H 699.288 -3.70095 5.41027 0
M  V30 7507 H 698.808 -4.54142 3.9181 0
M  V30 7508 H 700.487 -4.64557 4.50329 0
M  V30 7509 N 700.619 -1.13374 -1.09472 0
M  V30 7510 C 701.847 -0.918351 -1.85402 0
M  V30 7511 C 702.262 0.53281 -1.81126 0
M  V30 7512 O 701.619 1.36879 -1.20708 0
M  V30 7513 C 701.67 -1.39743 -3.33398 0
M  V30 7514 O 701.391 -2.79172 -3.37631 0
M  V30 7515 C 702.892 -1.22042 -4.2617 0
M  V30 7516 H 700.112 -0.327511 -0.585643 0
M  V30 7517 H 702.656 -1.50617 -1.38328 0
M  V30 7518 H 700.811 -0.852619 -3.77901 0
M  V30 7519 H 701.225 -3.00428 -4.29934 0
M  V30 7520 H 702.699 -1.60438 -5.2817 0
M  V30 7521 H 703.176 -0.162047 -4.38901 0
M  V30 7522 H 703.782 -1.75323 -3.87482 0
M  V30 7523 N 702.098 1.27442 -0.927168 0
M  V30 7524 C 703.346 1.94007 -0.566203 0
M  V30 7525 C 703.667 1.7323 0.895345 0
M  V30 7526 O 702.937 1.07973 1.63459 0
M  V30 7527 H 701.517 0.717917 -0.206409 0
M  V30 7528 H 704.179 1.55161 -1.17945 0
M  V30 7529 H 703.275 3.02401 -0.772028 0
M  V30 7530 N 703.576 0.692616 1.41565 0
M  V30 7531 C 704.822 0.222664 2.01574 0
M  V30 7532 C 705.155 -1.1737 1.54719 0
M  V30 7533 O 704.43 -1.79161 0.757084 0
M  V30 7534 C 704.713 0.277064 3.59033 0
M  V30 7535 C 704.566 1.71016 4.16021 0
M  V30 7536 C 705.885 -0.36479 4.38586 0
M  V30 7537 H 703.004 0.0823839 0.732381 0
M  V30 7538 H 705.646 0.880778 1.68352 0
M  V30 7539 H 703.796 -0.283288 3.87466 0
M  V30 7540 H 705.468 2.32413 3.98475 0
M  V30 7541 H 703.711 2.24525 3.71175 0
M  V30 7542 H 704.382 1.69978 5.25178 0
M  V30 7543 H 706.858 0.112404 4.15948 0
M  V30 7544 H 705.734 -0.296169 5.481 0
M  V30 7545 H 705.995 -1.44506 4.17816 0
M  V30 7546 N 705.054 -1.51416 0.437162 0
M  V30 7547 C 706.284 -2.06204 -0.127859 0
M  V30 7548 C 706.692 -1.30463 -1.37026 0
M  V30 7549 O 706.035 -0.357516 -1.80187 0
M  V30 7550 C 706.097 -3.55783 -0.515632 0
M  V30 7551 C 705.761 -4.52776 0.619937 0
M  V30 7552 C 706.758 -4.98031 1.49201 0
M  V30 7553 C 704.443 -4.95878 0.800618 0
M  V30 7554 C 706.437 -5.85061 2.52947 0
M  V30 7555 C 704.124 -5.82699 1.84135 0
M  V30 7556 C 705.122 -6.27188 2.70416 0
M  V30 7557 O 704.81 -7.12284 3.72702 0
M  V30 7558 H 704.542 -0.675903 -0.011442 0
M  V30 7559 H 707.096 -1.95977 0.614986 0
M  V30 7560 H 705.326 -3.63793 -1.31118 0
M  V30 7561 H 707.015 -3.93087 -1.01179 0
M  V30 7562 H 707.781 -4.65426 1.36395 0
M  V30 7563 H 703.66 -4.60792 0.138617 0
M  V30 7564 H 707.204 -6.19708 3.20325 0
M  V30 7565 H 703.101 -6.14717 1.9696 0
M  V30 7566 H 703.869 -7.30462 3.69281 0
M  V30 7567 N 706.532 -0.168513 -1.56696 0
M  V30 7568 C 707.76 0.483503 -2.01171 0
M  V30 7569 C 708.175 1.56994 -1.04872 0
M  V30 7570 O 707.532 1.82434 -0.0491337 0
M  V30 7571 C 707.583 1.0644 -3.45475 0
M  V30 7572 O 707.304 0.0213375 -4.38095 0
M  V30 7573 C 708.805 1.79493 -4.05336 0
M  V30 7574 H 706.025 0.124002 -0.659443 0
M  V30 7575 H 708.569 -0.269419 -2.02717 0
M  V30 7576 H 706.724 1.76784 -3.44712 0
M  V30 7577 H 707.138 0.449837 -5.22567 0
M  V30 7578 H 708.612 2.15401 -5.08238 0
M  V30 7579 H 709.089 2.68889 -3.47269 0
M  V30 7580 H 709.695 1.13798 -4.09793 0
M  V30 7581 N 708.01 1.57248 0.105221 0
M  V30 7582 C 709.287 1.76566 0.841647 0
M  V30 7583 C 709.667 0.747566 1.9742 0
M  V30 7584 O 709.015 -0.225886 2.27381 0
M  V30 7585 C 709.225 3.22016 1.3456 0
M  V30 7586 C 710.573 3.84911 1.79244 0
M  V30 7587 O 711.597 3.25703 1.44207 0
M  V30 7588 O 710.456 4.89008 2.43995 0
M  V30 7589 H 707.55 0.723443 0.400698 0
M  V30 7590 H 710.096 1.69472 0.0878893 0
M  V30 7591 H 708.868 3.87644 0.533685 0
M  V30 7592 H 708.491 3.33703 2.16167 0
M  V30 7593 N 709.488 -0.375779 1.53054 0
M  V30 7594 C 710.451 -1.44254 1.7811 0
M  V30 7595 C 711.451 -1.47018 0.651328 0
M  V30 7596 O 712.641 -1.47957 0.919472 0
M  V30 7597 C 709.773 -2.8345 1.89391 0
M  V30 7598 H 710.966 -1.23316 2.73374 0
M  V30 7599 H 708.519 -0.608312 1.43977 0
M  V30 7600 H 709.254 -3.09716 0.961589 0
M  V30 7601 H 709.039 -2.82844 2.71555 0
M  V30 7602 H 710.529 -3.60722 2.10404 0
M  V30 7603 N 710.966 -1.44241 -0.634997 0
M  V30 7604 C 712.196 -1.50078 -1.41987 0
M  V30 7605 C 712.604 -0.123072 -1.88799 0
M  V30 7606 O 711.947 0.880552 -1.6122 0
M  V30 7607 C 712.009 -2.40033 -2.67628 0
M  V30 7608 C 711.673 -3.87268 -2.42637 0
M  V30 7609 C 712.67 -4.77902 -2.04708 0
M  V30 7610 C 710.355 -4.31933 -2.56396 0
M  V30 7611 C 712.349 -6.11202 -1.80862 0
M  V30 7612 C 710.036 -5.65281 -2.32164 0
M  V30 7613 C 711.034 -6.54734 -1.94455 0
M  V30 7614 O 710.722 -7.85613 -1.7049 0
M  V30 7615 H 710.454 -0.51146 -0.442023 0
M  V30 7616 H 713.008 -1.89843 -0.784138 0
M  V30 7617 H 711.238 -1.95188 -3.33824 0
M  V30 7618 H 712.927 -2.36863 -3.29622 0
M  V30 7619 H 713.693 -4.44668 -1.93638 0
M  V30 7620 H 709.572 -3.62569 -2.84719 0
M  V30 7621 H 713.116 -6.80983 -1.51353 0
M  V30 7622 H 709.013 -5.98078 -2.42843 0
M  V30 7623 H 709.781 -7.97373 -1.84767 0
M  V30 7624 N 712.444 0.87505 -1.31075 0
M  V30 7625 C 713.855 1.4433 -1.18431 0
M  V30 7626 C 714.206 1.9506 0.211189 0
M  V30 7627 O 713.331 1.85847 1.10859 0
M  V30 7628 C 713.926 2.62341 -2.14389 0
M  V30 7629 C 712.485 3.15225 -2.05694 0
M  V30 7630 C 711.632 1.87929 -2.03907 0
M  V30 7631 H 714.583 0.684061 -1.432 0
M  V30 7632 H 714.604 3.3887 -1.73053 0
M  V30 7633 H 714.116 2.25388 -3.15946 0
M  V30 7634 H 712.217 3.56812 -1.07314 0
M  V30 7635 H 712.33 3.77853 -2.94558 0
M  V30 7636 H 710.694 2.06679 -1.48849 0
M  V30 7637 H 711.477 1.53221 -3.07211 0
M  V30 7638 N 713.922 1.13953 1.08869 0
M  V30 7639 C 714.852 0.844824 2.17681 0
M  V30 7640 C 715.833 -0.198213 1.68941 0
M  V30 7641 O 717.018 -0.0559073 1.9412 0
M  V30 7642 C 714.148 0.316325 3.45856 0
M  V30 7643 C 713.102 1.29426 4.07962 0
M  V30 7644 C 712.428 0.625275 5.31031 0
M  V30 7645 C 713.728 2.65484 4.49795 0
M  V30 7646 H 715.422 1.75471 2.42591 0
M  V30 7647 H 712.968 0.845116 1.16592 0
M  V30 7648 H 714.921 0.0977876 4.21287 0
M  V30 7649 H 713.645 -0.628972 3.20486 0
M  V30 7650 H 712.304 1.49889 3.34558 0
M  V30 7651 H 711.952 -0.325678 5.01945 0
M  V30 7652 H 711.652 1.27777 5.73539 0
M  V30 7653 H 713.176 0.416152 6.0918 0
M  V30 7654 H 714.59 2.48957 5.16424 0
M  V30 7655 H 712.987 3.26963 5.03205 0
M  V30 7656 H 714.057 3.22717 3.61914 0
M  V30 7657 N 715.4 -1.26948 0.933913 0
M  V30 7658 C 716.348 -2.2862 0.428463 0
M  V30 7659 C 717.342 -1.62144 -0.490464 0
M  V30 7660 O 718.548 -1.76167 -0.36948 0
M  V30 7661 H 714.923 -0.742363 0.120003 0
M  V30 7662 H 716.894 -2.68659 1.29865 0
M  V30 7663 C 715.643 -3.46423 -0.29774 0
M  V30 7664 H 714.966 -3.97792 0.400183 0
M  V30 7665 H 716.406 -4.19505 -0.615736 0
M  V30 7666 C 714.865 -3.01017 -1.51295 0
M  V30 7667 O 715.395 -3.05226 -2.61151 0
M  V30 7668 N 713.601 -2.56442 -1.36696 0
M  V30 7669 H 713.148 -2.53217 -0.473178 0
M  V30 7670 H 713.106 -2.26424 -2.18127 0
M  V30 7671 N 716.879 -0.700114 -1.41195 0
M  V30 7672 C 718.29 -0.307249 -1.84154 0
M  V30 7673 C 718.641 1.15539 -1.58572 0
M  V30 7674 O 717.766 1.88744 -1.05852 0
M  V30 7675 C 718.361 -0.550872 -3.34292 0
M  V30 7676 C 716.92 -0.211877 -3.75803 0
M  V30 7677 C 716.067 -0.830915 -2.64558 0
M  V30 7678 H 719.018 -0.900431 -1.30683 0
M  V30 7679 H 719.039 0.188954 -3.80031 0
M  V30 7680 H 718.551 -1.61548 -3.5288 0
M  V30 7681 H 716.652 0.848283 -3.62815 0
M  V30 7682 H 716.765 -0.67007 -4.74391 0
M  V30 7683 H 715.129 -0.260155 -2.53368 0
M  V30 7684 H 715.912 -1.89948 -2.85963 0
M  V30 7685 N 718.357 1.51182 -0.445186 0
M  V30 7686 C 719.585 2.06568 0.117091 0
M  V30 7687 C 720 1.31182 1.35781 0
M  V30 7688 O 719.357 0.373605 1.78635 0
M  V30 7689 C 719.408 3.58917 0.431408 0
M  V30 7690 O 719.129 4.31456 -0.760078 0
M  V30 7691 C 720.63 4.30843 1.0435 0
M  V30 7692 H 717.85 0.670985 0.00444436 0
M  V30 7693 H 720.394 1.94666 -0.626525 0
M  V30 7694 H 718.549 3.70708 1.12493 0
M  V30 7695 H 718.963 5.22215 -0.489048 0
M  V30 7696 H 720.437 5.38499 1.21337 0
M  V30 7697 H 720.914 3.89644 2.02667 0
M  V30 7698 H 721.52 4.23516 0.38913 0
M  V30 7699 N 719.835 0.176821 1.56605 0
M  V30 7700 C 721.083 -0.465793 1.96659 0
M  V30 7701 C 721.404 -1.63406 1.06412 0
M  V30 7702 O 720.674 -1.95457 0.131603 0
M  V30 7703 H 719.254 -0.175072 0.726195 0
M  V30 7704 H 721.916 0.25929 1.93168 0
M  V30 7705 H 721.012 -0.822138 3.01077 0
M  V30 7706 N 721.313 -1.57302 -0.09688 0
M  V30 7707 C 722.538 -1.9058 -0.818169 0
M  V30 7708 C 722.963 -0.770921 -1.71576 0
M  V30 7709 O 722.321 0.277588 -1.79162 0
M  V30 7710 C 722.369 -3.22714 -1.60898 0
M  V30 7711 O 721.473 -3.10178 -2.71779 0
M  V30 7712 H 720.814 -0.624759 -0.224882 0
M  V30 7713 H 723.344 -2.04471 -0.07264 0
M  V30 7714 H 723.354 -3.55978 -1.99358 0
M  V30 7715 H 722.029 -4.04899 -0.950227 0
M  V30 7716 H 720.606 -2.88424 -2.3636 0
M  V30 7717 N 722.791 0.367657 -1.53252 0
M  V30 7718 C 724.04 1.10782 -1.68554 0
M  V30 7719 C 724.353 1.90523 -0.442765 0
M  V30 7720 O 725.559 2.6729 -0.47629 0
M  V30 7721 C 724.015 2.01863 -2.97959 0
M  V30 7722 C 723.623 1.27443 -4.29491 0
M  V30 7723 C 725.367 2.75883 -3.22628 0
M  V30 7724 C 723.274 2.17414 -5.49987 0
M  V30 7725 H 722.204 0.417272 -0.628013 0
M  V30 7726 H 724.855 0.368971 -1.79752 0
M  V30 7727 H 723.237 2.7947 -2.80558 0
M  V30 7728 H 724.411 0.549138 -4.57516 0
M  V30 7729 H 722.726 0.652935 -4.11249 0
M  V30 7730 H 725.323 3.43421 -4.09837 0
M  V30 7731 H 725.666 3.41138 -2.38601 0
M  V30 7732 H 726.199 2.0536 -3.40693 0
M  V30 7733 H 722.938 1.5674 -6.36485 0
M  V30 7734 H 722.458 2.87799 -5.26243 0
M  V30 7735 H 724.137 2.77019 -5.84696 0
M  V30 7736 N 724.269 1.44576 0.627338 0
M  V30 7737 C 725.515 1.47777 1.38888 0
M  V30 7738 C 725.848 0.111406 1.9388 0
M  V30 7739 O 725.123 -0.87149 1.73883 0
M  V30 7740 C 725.406 2.54119 2.55138 0
M  V30 7741 C 725.259 4.00128 2.0547 0
M  V30 7742 C 726.578 2.56929 3.57317 0
M  V30 7743 H 723.697 0.538048 0.50366 0
M  V30 7744 H 726.339 1.76277 0.708978 0
M  V30 7745 H 724.489 2.29948 3.13139 0
M  V30 7746 H 726.161 4.35444 1.5227 0
M  V30 7747 H 724.404 4.11724 1.36623 0
M  V30 7748 H 725.075 4.7019 2.89181 0
M  V30 7749 H 727.551 2.78536 3.09122 0
M  V30 7750 H 726.427 3.33234 4.36173 0
M  V30 7751 H 726.688 1.6127 4.11636 0
M  V30 7752 N 725.747 -0.868086 1.31537 0
M  V30 7753 C 726.972 -1.65926 1.24432 0
M  V30 7754 C 727.397 -1.87169 -0.186936 0
M  V30 7755 O 726.755 -1.4148 -1.13371 0
M  V30 7756 C 726.803 -3.00347 1.9956 0
M  V30 7757 O 725.907 -3.90221 1.33422 0
M  V30 7758 H 725.248 -0.506375 0.429512 0
M  V30 7759 H 727.778 -1.0822 1.73637 0
M  V30 7760 H 727.788 -3.50269 2.09226 0
M  V30 7761 H 726.463 -2.84205 3.03645 0
M  V30 7762 H 725.04 -3.48672 1.32219 0
M  V30 7763 N 727.225 -1.14528 -1.08264 0
M  V30 7764 C 728.45 -0.938381 -1.84957 0
M  V30 7765 C 728.875 0.508044 -1.81109 0
M  V30 7766 O 728.233 1.36146 -1.19724 0
M  V30 7767 C 728.281 -1.44568 -3.30352 0
M  V30 7768 O 727.385 -0.638745 -4.07423 0
M  V30 7769 H 726.726 -0.335394 -0.573068 0
M  V30 7770 H 729.256 -1.52287 -1.36637 0
M  V30 7771 H 729.266 -1.45449 -3.81194 0
M  V30 7772 H 727.941 -2.49876 -3.32468 0
M  V30 7773 H 726.518 -0.698801 -3.66294 0
M  V30 7774 N 728.703 1.26451 -0.940633 0
M  V30 7775 C 729.949 1.94065 -0.58878 0
M  V30 7776 C 730.282 1.7363 0.869853 0
M  V30 7777 O 729.557 1.073 1.62225 0
M  V30 7778 C 729.84 3.47852 -0.931199 0
M  V30 7779 C 729.693 3.77575 -2.44453 0
M  V30 7780 C 731.012 4.37832 -0.446229 0
M  V30 7781 H 728.131 0.704827 -0.21538 0
M  V30 7782 H 730.773 1.4933 -1.17475 0
M  V30 7783 H 728.923 3.86085 -0.432539 0
M  V30 7784 H 730.595 3.49059 -3.01588 0
M  V30 7785 H 728.838 3.23671 -2.88825 0
M  V30 7786 H 729.509 4.85068 -2.63464 0
M  V30 7787 H 731.985 4.06822 -0.873778 0
M  V30 7788 H 730.861 5.44228 -0.714648 0
M  V30 7789 H 731.122 4.37239 0.653815 0
M  V30 7790 N 730.181 0.707592 1.40822 0
M  V30 7791 C 731.43 0.240705 2.00259 0
M  V30 7792 C 731.743 -1.17027 1.56729 0
M  V30 7793 O 732.949 -1.73526 2.08809 0
M  V30 7794 C 731.405 0.379432 3.57894 0
M  V30 7795 C 731.013 1.79654 4.104 0
M  V30 7796 C 732.757 -0.0270684 4.24491 0
M  V30 7797 C 730.664 1.88628 5.60512 0
M  V30 7798 H 729.594 0.0862369 0.749052 0
M  V30 7799 H 732.245 0.877528 1.61157 0
M  V30 7800 H 730.627 -0.325842 3.94657 0
M  V30 7801 H 731.801 2.53155 3.85032 0
M  V30 7802 H 730.116 2.15379 3.56372 0
M  V30 7803 H 732.713 0.0193743 5.34696 0
M  V30 7804 H 733.056 -1.06772 4.02375 0
M  V30 7805 H 733.589 0.628361 3.92806 0
M  V30 7806 H 730.328 2.90787 5.87472 0
M  V30 7807 H 729.848 1.19528 5.8777 0
M  V30 7808 H 731.527 1.6547 6.25483 0
M  V30 7809 N 731.66 -1.50943 0.453197 0
M  V30 7810 C 732.59 -2.31005 -0.34044 0
M  V30 7811 C 733.571 -1.37112 -1.00669 0
M  V30 7812 O 734.756 -1.66033 -1.0073 0
M  V30 7813 C 731.886 -3.16358 -1.433 0
M  V30 7814 C 730.84 -4.18658 -0.889363 0
M  V30 7815 C 730.166 -4.92633 -2.07887 0
M  V30 7816 C 731.466 -5.22227 0.0871142 0
M  V30 7817 H 733.16 -2.97601 0.327723 0
M  V30 7818 H 730.706 -1.43119 0.159054 0
M  V30 7819 H 732.659 -3.71155 -1.99555 0
M  V30 7820 H 731.383 -2.47613 -2.12968 0
M  V30 7821 H 730.042 -3.64936 -0.348915 0
M  V30 7822 H 729.69 -4.20376 -2.76211 0
M  V30 7823 H 729.39 -5.61819 -1.72143 0
M  V30 7824 H 730.914 -5.50258 -2.64666 0
M  V30 7825 H 732.328 -5.72001 -0.385656 0
M  V30 7826 H 730.725 -5.99032 0.357926 0
M  V30 7827 H 731.795 -4.74077 1.01879 0
M  V30 7828 N 733.138 -0.185124 -1.56509 0
M  V30 7829 C 734.415 0.503348 -1.89013 0
M  V30 7830 C 734.795 1.80349 -1.09715 0
M  V30 7831 O 734.143 2.27665 -0.195203 0
M  V30 7832 C 734.353 0.731839 -3.41241 0
M  V30 7833 C 735.701 1.05568 -4.11267 0
M  V30 7834 O 736.725 0.819906 -3.46635 0
M  V30 7835 O 735.584 1.50116 -5.25478 0
M  V30 7836 H 732.678 0.261139 -0.784688 0
M  V30 7837 H 735.224 -0.224592 -1.68207 0
M  V30 7838 H 733.996 -0.18672 -3.90854 0
M  V30 7839 H 733.619 1.5126 -3.67704 0
M  V30 7840 N 734.616 1.57351 0.0885366 0
M  V30 7841 C 735.841 1.91011 0.80805 0
M  V30 7842 C 736.266 0.780009 1.71165 0
M  V30 7843 O 735.624 -0.268083 1.79307 0
M  V30 7844 C 735.672 3.23562 1.59185 0
M  V30 7845 O 734.776 3.11615 2.7013 0
M  V30 7846 H 734.117 0.625943 0.221565 0
M  V30 7847 H 736.647 2.04507 0.0617954 0
M  V30 7848 H 736.657 3.5703 1.97468 0
M  V30 7849 H 735.332 4.05398 0.928741 0
M  V30 7850 H 733.909 2.89673 2.34827 0
M  V30 7851 N 736.094 -0.359525 1.53444 0
M  V30 7852 C 737.026 -1.46098 1.76602 0
M  V30 7853 C 738.039 -1.49395 0.646912 0
M  V30 7854 O 739.228 -1.52765 0.923307 0
M  V30 7855 C 736.328 -2.84836 1.83635 0
M  V30 7856 C 735.501 -3.05164 3.13358 0
M  V30 7857 C 734.56 -4.24051 3.11556 0
M  V30 7858 O 733.586 -4.18935 3.85334 0
M  V30 7859 N 734.788 -5.31775 2.328 0
M  V30 7860 H 737.553 -1.2661 2.71643 0
M  V30 7861 H 735.114 -0.549294 1.52297 0
M  V30 7862 H 737.106 -3.62516 1.799 0
M  V30 7863 H 735.676 -2.97542 0.958509 0
M  V30 7864 H 734.896 -2.15091 3.30348 0
M  V30 7865 H 736.184 -3.15619 3.99076 0
M  V30 7866 H 735.582 -5.38796 1.7238 0
M  V30 7867 H 734.139 -6.0801 2.34877 0
M  V30 7868 N 737.572 -1.44907 -0.619662 0
M  V30 7869 C 738.519 -1.52654 -1.73105 0
M  V30 7870 C 739.489 -0.373334 -1.6185 0
M  V30 7871 O 740.674 -0.585143 -1.81606 0
M  V30 7872 C 737.814 -1.48769 -3.11387 0
M  V30 7873 C 736.927 -2.74551 -3.33535 0
M  V30 7874 C 736.062 -2.62421 -4.61854 0
M  V30 7875 C 735.101 -3.83312 -4.77219 0
M  V30 7876 N 734.238 -3.69789 -5.96826 0
M  V30 7877 H 739.078 -2.47605 -1.65819 0
M  V30 7878 H 736.615 -1.22875 -0.808719 0
M  V30 7879 H 738.573 -1.44507 -3.91374 0
M  V30 7880 H 737.203 -0.573783 -3.1766 0
M  V30 7881 H 736.255 -2.88953 -2.47408 0
M  V30 7882 H 737.567 -3.64253 -3.40765 0
M  V30 7883 H 736.721 -2.56056 -5.50019 0
M  V30 7884 H 735.46 -1.70298 -4.57001 0
M  V30 7885 H 734.465 -3.90049 -3.87481 0
M  V30 7886 H 735.69 -4.76486 -4.83878 0
M  V30 7887 H 733.636 -2.80426 -5.93041 0
M  V30 7888 H 733.553 -4.53116 -6.05163 0
M  V30 7889 H 734.821 -3.67335 -6.87521 0
M  V30 7890 N 739.05 0.861098 -1.31996 0
M  V30 7891 C 740.275 1.65264 -1.2531 0
M  V30 7892 C 740.7 1.87265 0.177007 0
M  V30 7893 O 740.058 1.4208 1.12619 0
M  V30 7894 C 740.106 2.99284 -2.0115 0
M  V30 7895 O 739.21 3.89508 -1.3549 0
M  V30 7896 H 738.551 0.50409 -0.432192 0
M  V30 7897 H 741.081 1.07297 -1.74208 0
M  V30 7898 H 741.091 3.49154 -2.11081 0
M  V30 7899 H 739.766 2.82591 -3.05148 0
M  V30 7900 H 738.343 3.47966 -1.34066 0
M  V30 7901 N 740.528 1.15101 1.07655 0
M  V30 7902 C 741.944 0.893004 1.32279 0
M  V30 7903 C 742.144 -0.461701 1.96139 0
M  V30 7904 O 741.2 -1.20431 2.21929 0
M  V30 7905 C 742.513 2.03161 2.21689 0
M  V30 7906 C 744.061 2.06579 2.35147 0
M  V30 7907 C 744.536 3.19754 3.27905 0
M  V30 7908 N 746.027 3.19382 3.35484 0
M  V30 7909 C 746.762 4.03592 4.07309 0
M  V30 7910 N 746.258 4.97859 4.81776 0
M  V30 7911 N 748.051 3.91626 4.03219 0
M  V30 7912 H 740.202 2.02341 0.645886 0
M  V30 7913 H 742.465 0.882127 0.347211 0
M  V30 7914 H 742.171 3.00934 1.82021 0
M  V30 7915 H 742.045 1.96132 3.22199 0
M  V30 7916 H 744.432 1.09408 2.74069 0
M  V30 7917 H 744.513 2.17676 1.34353 0
M  V30 7918 H 744.157 4.17175 2.89702 0
M  V30 7919 H 744.087 3.05893 4.28645 0
M  V30 7920 H 746.578 2.51112 2.82403 0
M  V30 7921 H 746.891 5.58563 5.34067 0
M  V30 7922 H 745.236 5.0185 4.80803 0
M  V30 7923 H 748.427 3.17295 3.44154 0
M  V30 7924 H 748.6 4.57479 4.5893 0
M  V30 7925 N 742.006 -1.2595 0.947325 0
M  V30 7926 C 743.252 -1.9375 0.599064 0
M  V30 7927 C 743.585 -1.74088 -0.860632 0
M  V30 7928 O 742.86 -1.08158 -1.61654 0
M  V30 7929 C 743.143 -3.47353 0.949634 0
M  V30 7930 C 742.996 -3.76273 2.46452 0
M  V30 7931 C 744.315 -4.37589 0.469442 0
M  V30 7932 H 741.434 -0.703674 0.219115 0
M  V30 7933 H 744.076 -1.48705 1.18266 0
M  V30 7934 H 742.226 -3.8585 0.453008 0
M  V30 7935 H 743.898 -3.47455 3.03435 0
M  V30 7936 H 742.141 -3.22135 2.90537 0
M  V30 7937 H 742.812 -4.83664 2.66032 0
M  V30 7938 H 745.288 -4.06353 0.89534 0
M  V30 7939 H 744.164 -5.43841 0.7435 0
M  V30 7940 H 744.425 -4.37579 -0.630618 0
M  V30 7941 N 743.484 -0.715051 -1.40445 0
M  V30 7942 C 744.432 -0.0509974 -2.32544 0
M  V30 7943 C 745.426 0.747602 -1.52011 0
M  V30 7944 O 746.632 0.651031 -1.67814 0
M  V30 7945 H 743.007 0.00231113 -0.751996 0
M  V30 7946 H 744.978 -0.84449 -2.86201 0
M  V30 7947 C 743.727 0.857101 -3.3697 0
M  V30 7948 H 743.05 0.252 -3.99005 0
M  V30 7949 H 744.49 1.28971 -4.03909 0
M  V30 7950 C 742.949 1.98231 -2.72408 0
M  V30 7951 O 743.479 3.07309 -2.58697 0
M  V30 7952 N 741.685 1.76577 -2.308 0
M  V30 7953 H 741.232 0.878641 -2.42152 0
M  V30 7954 H 741.19 2.52043 -1.87941 0
M  V30 7955 N 744.962 1.50701 -0.461195 0
M  V30 7956 C 746.373 1.867 -0.00370227 0
M  V30 7957 C 746.724 1.37673 1.39787 0
M  V30 7958 O 745.849 0.737515 2.03445 0
M  V30 7959 C 746.444 3.388 5.75786e-05 0
M  V30 7960 C 745.003 3.74247 0.402044 0
M  V30 7961 C 744.15 2.74549 -0.389652 0
M  V30 7962 H 747.101 1.43585 -0.675942 0
M  V30 7963 H 747.122 3.719 0.804414 0
M  V30 7964 H 746.634 3.74452 -1.02015 0
M  V30 7965 H 744.735 3.44192 1.42697 0
M  V30 7966 H 744.848 4.78973 0.110265 0
M  V30 7967 H 743.212 2.54226 0.155314 0
M  V30 7968 H 743.995 3.13044 -1.40919 0
M  V30 7969 N 746.441 0.193421 1.56409 0
M  V30 7970 C 747.687 -0.446449 1.97825 0
M  V30 7971 C 748.02 -1.61386 1.08019 0
M  V30 7972 O 747.295 -1.94053 0.131839 0
M  V30 7973 C 747.578 -0.908199 3.48459 0
M  V30 7974 C 747.431 0.260914 4.49043 0
M  V30 7975 C 748.75 -1.77428 4.0275 0
M  V30 7976 H 745.869 -0.160807 0.719243 0
M  V30 7977 H 748.511 0.284006 1.87865 0
M  V30 7978 H 746.661 -1.53062 3.57077 0
M  V30 7979 H 748.333 0.898548 4.52464 0
M  V30 7980 H 746.576 0.912949 4.24085 0
M  V30 7981 H 747.247 -0.104657 5.51901 0
M  V30 7982 H 749.723 -1.24936 3.96901 0
M  V30 7983 H 748.599 -2.06633 5.08521 0
M  V30 7984 H 748.86 -2.72788 3.47907 0
M  V30 7985 N 747.919 -1.57396 -0.0801906 0
M  V30 7986 C 749.168 -1.8602 -0.779702 0
M  V30 7987 C 749.481 -0.784864 -1.79163 0
M  V30 7988 O 750.687 -0.958691 -2.54011 0
M  V30 7989 C 749.143 -3.29942 -1.43758 0
M  V30 7990 C 748.751 -4.45584 -0.464654 0
M  V30 7991 C 750.495 -3.67775 -2.11995 0
M  V30 7992 C 748.402 -5.80544 -1.12797 0
M  V30 7993 H 747.332 -0.69392 -0.294943 0
M  V30 7994 H 749.983 -1.83471 -0.0328527 0
M  V30 7995 H 748.365 -3.27078 -2.2324 0
M  V30 7996 H 749.539 -4.59824 0.299749 0
M  V30 7997 H 747.854 -4.16247 0.112813 0
M  V30 7998 H 750.451 -4.65896 -2.62383 0
M  V30 7999 H 750.794 -2.9715 -2.91561 0
M  V30 8000 H 751.327 -3.72593 -1.39354 0
M  V30 8001 H 748.066 -6.54439 -0.372807 0
M  V30 8002 H 747.586 -5.70119 -1.86344 0
M  V30 8003 H 749.265 -6.25602 -1.6502 0
M  V30 8004 N 749.397 0.351382 -1.53633 0
M  V30 8005 C 750.625 1.11275 -1.74429 0
M  V30 8006 C 751.04 1.82602 -0.479798 0
M  V30 8007 O 750.397 1.74074 0.548125 0
M  V30 8008 C 750.448 2.13223 -2.91921 0
M  V30 8009 O 750.169 1.44798 -4.13479 0
M  V30 8010 C 751.67 3.01797 -3.24706 0
M  V30 8011 H 748.89 0.332153 -0.583023 0
M  V30 8012 H 751.434 0.405974 -2.0043 0
M  V30 8013 H 749.589 2.79477 -2.68274 0
M  V30 8014 H 750.003 2.12839 -4.79374 0
M  V30 8015 H 751.477 3.69282 -4.10286 0
M  V30 8016 H 751.954 3.67387 -2.40673 0
M  V30 8017 H 752.56 2.41141 -3.5033 0
M  V30 8018 N 750.875 1.45233 0.611969 0
M  V30 8019 C 752.105 1.52318 1.39581 0
M  V30 8020 C 752.513 0.153093 1.8858 0
M  V30 8021 O 751.856 -0.854792 1.62601 0
M  V30 8022 C 751.918 2.4426 2.63775 0
M  V30 8023 C 751.582 3.91079 2.36445 0
M  V30 8024 C 752.579 4.81099 1.97079 0
M  V30 8025 C 750.264 4.35958 2.49492 0
M  V30 8026 C 752.258 6.14002 1.71115 0
M  V30 8027 C 749.945 5.68903 2.23142 0
M  V30 8028 C 750.943 6.57744 1.84015 0
M  V30 8029 O 750.631 7.88226 1.5797 0
M  V30 8030 H 750.363 0.518428 0.43383 0
M  V30 8031 H 752.917 1.91067 0.753837 0
M  V30 8032 H 751.147 2.00474 3.30677 0
M  V30 8033 H 752.836 2.42077 3.25812 0
M  V30 8034 H 753.602 4.47692 1.86539 0
M  V30 8035 H 749.481 3.67053 2.78914 0
M  V30 8036 H 753.025 6.83305 1.405 0
M  V30 8037 H 748.922 6.01866 2.33297 0
M  V30 8038 H 749.69 8.00211 1.72058 0
M  V30 8039 N 752.353 -0.854086 1.3245 0
M  V30 8040 C 753.578 -1.64597 1.26185 0
M  V30 8041 C 754.003 -1.87357 -0.167074 0
M  V30 8042 O 753.361 -1.42675 -1.11864 0
M  V30 8043 C 753.409 -2.98213 2.02734 0
M  V30 8044 O 752.513 -3.88784 1.37554 0
M  V30 8045 H 751.854 -0.50179 0.434859 0
M  V30 8046 H 754.384 -1.06372 1.74775 0
M  V30 8047 H 754.394 -3.4803 2.1293 0
M  V30 8048 H 753.069 -2.80969 3.06642 0
M  V30 8049 H 751.646 -3.4725 1.3591 0
M  V30 8050 N 753.831 -1.1567 -1.07043 0
M  V30 8051 C 755.059 -0.957471 -1.83412 0
M  V30 8052 C 755.474 0.494271 -1.82215 0
M  V30 8053 O 754.831 1.34288 -1.23584 0
M  V30 8054 C 754.882 -1.46784 -3.30359 0
M  V30 8055 O 754.603 -2.86271 -3.31633 0
M  V30 8056 C 756.104 -1.31054 -4.23485 0
M  V30 8057 H 753.324 -0.33986 -0.578564 0
M  V30 8058 H 755.868 -1.53518 -1.35102 0
M  V30 8059 H 754.023 -0.932586 -3.76007 0
M  V30 8060 H 754.437 -3.0948 -4.23465 0
M  V30 8061 H 755.911 -1.71605 -5.24648 0
M  V30 8062 H 756.388 -0.255107 -4.38458 0
M  V30 8063 H 756.994 -1.83503 -3.83676 0
M  V30 8064 N 755.309 1.25446 -0.953992 0
M  V30 8065 C 756.272 2.24156 -0.478179 0
M  V30 8066 C 757.272 1.55278 0.417776 0
M  V30 8067 O 758.462 1.72866 0.215155 0
M  V30 8068 C 755.594 3.39495 0.309202 0
M  V30 8069 H 756.787 2.67764 -1.35064 0
M  V30 8070 H 754.34 1.37822 -0.737206 0
M  V30 8071 H 755.075 3.01307 1.19936 0
M  V30 8072 H 754.86 3.90679 -0.333562 0
M  V30 8073 H 756.35 4.12796 0.631594 0
M  V30 8074 N 756.787 0.722489 1.40064 0
M  V30 8075 C 758.015 0.274838 2.05066 0
M  V30 8076 C 758.43 -1.08586 1.54449 0
M  V30 8077 O 757.787 -1.68375 0.704003 0
M  V30 8078 C 757.838 0.253673 3.60609 0
M  V30 8079 O 757.559 1.56064 4.0936 0
M  V30 8080 C 759.06 -0.211684 4.42794 0
M  V30 8081 H 756.28 0.12226 0.659768 0
M  V30 8082 H 758.824 0.982632 1.79345 0
M  V30 8083 H 756.979 -0.405137 3.85276 0
M  V30 8084 H 757.393 1.46576 5.03603 0
M  V30 8085 H 758.867 -0.175341 5.51721 0
M  V30 8086 H 759.344 -1.25493 4.2089 0
M  V30 8087 H 759.95 0.4171 4.2325 0
M  V30 8088 N 758.265 -1.50454 0.469181 0
M  V30 8089 C 759.175 -2.32248 -0.331349 0
M  V30 8090 C 760.191 -1.42548 -0.997807 0
M  V30 8091 O 761.367 -1.75602 -0.9862 0
M  V30 8092 C 758.432 -3.17171 -1.40012 0
M  V30 8093 C 757.493 -4.2269 -0.750463 0
M  V30 8094 C 756.726 -5.03554 -1.76831 0
M  V30 8095 O 756.949 -4.85469 -2.99459 0
M  V30 8096 O 755.883 -5.86767 -1.3412 0
M  V30 8097 H 759.709 -3.01821 0.337279 0
M  V30 8098 H 757.294 -1.47602 0.231066 0
M  V30 8099 H 759.176 -3.69871 -2.01924 0
M  V30 8100 H 757.851 -2.50328 -2.05226 0
M  V30 8101 H 756.758 -3.73986 -0.0924446 0
M  V30 8102 H 758.091 -4.91997 -0.14131 0
M  V30 8103 N 759.743 -0.201713 -1.56304 0
M  V30 8104 C 761.159 0.154025 -1.58855 0
M  V30 8105 C 761.359 1.60516 -1.21807 0
M  V30 8106 O 760.415 2.34193 -0.94393 0
M  V30 8107 C 761.728 -0.154319 -3.00304 0
M  V30 8108 C 763.276 -0.0949578 -3.12856 0
M  V30 8109 C 763.751 -0.376703 -4.56448 0
M  V30 8110 N 765.242 -0.325558 -4.62054 0
M  V30 8111 C 765.977 -0.51732 -5.71062 0
M  V30 8112 N 765.473 -0.769789 -6.8851 0
M  V30 8113 N 767.266 -0.45112 -5.60287 0
M  V30 8114 H 759.417 -1.14858 -1.78666 0
M  V30 8115 H 761.68 -0.458934 -0.829508 0
M  V30 8116 H 761.386 -1.16074 -3.31994 0
M  V30 8117 H 761.26 0.540014 -3.73314 0
M  V30 8118 H 763.647 0.902075 -2.80974 0
M  V30 8119 H 763.728 -0.822468 -2.42217 0
M  V30 8120 H 763.372 -1.37108 -4.89044 0
M  V30 8121 H 763.302 0.371772 -5.25286 0
M  V30 8122 H 765.793 -0.137308 -3.7765 0
M  V30 8123 H 766.106 -0.904744 -7.67486 0
M  V30 8124 H 764.451 -0.806758 -6.90302 0
M  V30 8125 H 767.642 -0.254253 -4.67409 0
M  V30 8126 H 767.815 -0.603982 -6.45179 0
M  V30 8127 N 761.222 1.57436 0.0718424 0
M  V30 8128 C 762.468 1.87525 0.772149 0
M  V30 8129 C 762.801 0.79399 1.77227 0
M  V30 8130 O 762.076 -0.195733 1.93513 0
M  V30 8131 C 762.359 3.28272 1.48018 0
M  V30 8132 C 762.212 4.47052 0.49647 0
M  V30 8133 C 763.531 3.67256 2.42509 0
M  V30 8134 H 760.65 0.682049 0.279245 0
M  V30 8135 H 763.292 1.89967 0.03534 0
M  V30 8136 H 761.442 3.26321 2.10824 0
M  V30 8137 H 763.114 4.61127 -0.126375 0
M  V30 8138 H 761.357 4.33392 -0.188205 0
M  V30 8139 H 762.028 5.42315 1.02949 0
M  V30 8140 H 764.504 3.70301 1.89781 0
M  V30 8141 H 763.38 4.66626 2.89053 0
M  V30 8142 H 763.641 2.97186 3.27312 0
M  V30 8143 N 762.7 -0.34323 1.53817 0
M  V30 8144 C 763.648 -1.44176 1.82527 0
M  V30 8145 C 764.642 -1.54452 0.695772 0
M  V30 8146 O 765.848 -1.57072 0.879114 0
M  V30 8147 H 762.223 -0.480729 0.578277 0
M  V30 8148 H 764.194 -1.17176 2.74431 0
M  V30 8149 C 762.943 -2.80695 2.05197 0
M  V30 8150 H 762.266 -2.73554 2.91561 0
M  V30 8151 H 763.706 -3.56679 2.29251 0
M  V30 8152 C 762.165 -3.26322 0.837589 0
M  V30 8153 O 762.695 -4.01683 0.0371631 0
M  V30 8154 N 760.901 -2.83128 0.654724 0
M  V30 8155 H 760.448 -2.21965 1.30725 0
M  V30 8156 H 760.406 -3.14011 -0.156345 0
M  V30 8157 N 764.178 -1.45556 -0.604258 0
M  V30 8158 C 765.088 -1.57025 -1.74299 0
M  V30 8159 C 766.104 -0.45456 -1.67958 0
M  V30 8160 O 767.28 -0.715711 -1.88254 0
M  V30 8161 C 764.345 -1.53702 -3.10768 0
M  V30 8162 C 763.406 -2.76335 -3.28538 0
M  V30 8163 C 762.639 -2.73161 -4.58496 0
M  V30 8164 O 762.862 -1.80678 -5.41028 0
M  V30 8165 O 761.796 -3.64409 -4.79051 0
M  V30 8166 H 765.622 -2.53284 -1.67573 0
M  V30 8167 H 763.207 -1.28104 -0.768745 0
M  V30 8168 H 765.089 -1.54468 -3.92068 0
M  V30 8169 H 763.764 -0.605957 -3.17978 0
M  V30 8170 H 762.671 -2.8113 -2.46813 0
M  V30 8171 H 764.004 -3.68578 -3.26207 0
M  V30 8172 N 765.656 0.84705 -1.32902 0
M  V30 8173 C 766.586 1.97166 -1.25091 0
M  V30 8174 C 767.567 1.69578 -0.133161 0
M  V30 8175 O 768.752 1.91519 -0.321591 0
M  V30 8176 C 765.882 3.33157 -0.981006 0
M  V30 8177 C 764.836 3.75119 -2.06082 0
M  V30 8178 C 764.162 5.08826 -1.64318 0
M  V30 8179 C 765.462 3.89774 -3.47669 0
M  V30 8180 H 767.156 2.03958 -2.19184 0
M  V30 8181 H 764.702 0.979907 -1.05517 0
M  V30 8182 H 766.655 4.11393 -0.912891 0
M  V30 8183 H 765.379 3.266 -0.00445559 0
M  V30 8184 H 764.038 2.9914 -2.11921 0
M  V30 8185 H 763.686 4.98732 -0.653876 0
M  V30 8186 H 763.386 5.37873 -2.36572 0
M  V30 8187 H 764.91 5.89546 -1.58958 0
M  V30 8188 H 766.324 4.58343 -3.44376 0
M  V30 8189 H 764.721 4.30248 -4.18338 0
M  V30 8190 H 765.791 2.92463 -3.86773 0
M  V30 8191 N 767.134 1.16236 1.06428 0
M  V30 8192 C 768.097 0.870163 2.1204 0
M  V30 8193 C 769.097 -0.134239 1.60239 0
M  V30 8194 O 770.287 0.0964932 1.73933 0
M  V30 8195 C 767.419 0.301033 3.39568 0
M  V30 8196 H 768.612 1.8064 2.39394 0
M  V30 8197 H 766.165 0.971116 1.2247 0
M  V30 8198 H 766.9 -0.642948 3.17863 0
M  V30 8199 H 766.685 1.02475 3.78472 0
M  V30 8200 H 768.175 0.114494 4.17443 0
M  V30 8201 N 768.612 -1.24939 0.960631 0
M  V30 8202 C 769.861 -1.92118 0.614298 0
M  V30 8203 C 770.174 -1.75998 -0.853474 0
M  V30 8204 O 771.38 -2.37804 -1.31003 0
M  V30 8205 C 769.836 -3.44303 1.04801 0
M  V30 8206 C 769.444 -3.69123 2.53875 0
M  V30 8207 C 771.188 -4.17375 0.774497 0
M  V30 8208 C 769.095 -5.14843 2.91016 0
M  V30 8209 H 768.025 -0.719319 0.226045 0
M  V30 8210 H 770.676 -1.41701 1.16589 0
M  V30 8211 H 769.058 -3.93715 0.42479 0
M  V30 8212 H 770.232 -3.30339 3.21267 0
M  V30 8213 H 768.547 -3.09323 2.78762 0
M  V30 8214 H 771.144 -5.24723 1.02808 0
M  V30 8215 H 771.487 -4.15294 -0.289192 0
M  V30 8216 H 772.02 -3.7389 1.35835 0
M  V30 8217 H 768.759 -5.2204 3.96427 0
M  V30 8218 H 768.279 -5.54652 2.28302 0
M  V30 8219 H 769.958 -5.83017 2.80535 0
M  V30 8220 N 770.09 -0.729906 -1.39679 0
M  V30 8221 C 771.506 -0.404951 -1.54377 0
M  V30 8222 C 771.706 1.08476 -1.6981 0
M  V30 8223 O 770.762 1.87087 -1.69572 0
M  V30 8224 C 772.075 -1.18352 -2.76429 0
M  V30 8225 C 773.623 -1.17124 -2.9026 0
M  V30 8226 C 774.098 -1.93227 -4.15244 0
M  V30 8227 N 775.589 -1.90368 -4.22273 0
M  V30 8228 C 776.324 -2.46065 -5.17918 0
M  V30 8229 N 775.82 -3.10378 -6.19385 0
M  V30 8230 N 777.613 -2.36127 -5.10099 0
M  V30 8231 H 769.764 -1.69567 -1.27909 0
M  V30 8232 H 772.027 -0.717527 -0.619564 0
M  V30 8233 H 771.733 -2.23743 -2.71352 0
M  V30 8234 H 771.607 -0.784589 -3.6895 0
M  V30 8235 H 773.994 -0.125478 -2.94833 0
M  V30 8236 H 774.075 -1.60951 -1.98817 0
M  V30 8237 H 773.719 -2.97802 -4.11432 0
M  V30 8238 H 773.649 -1.4681 -5.05722 0
M  V30 8239 H 776.14 -1.4351 -3.4959 0
M  V30 8240 H 776.453 -3.50358 -6.88817 0
M  V30 8241 H 774.798 -3.14467 -6.19787 0
M  V30 8242 H 777.989 -1.85529 -4.29763 0
M  V30 8243 H 778.162 -2.79833 -5.84463 0
M  V30 8244 N 771.568 1.50203 -0.477153 0
M  V30 8245 C 772.516 2.30278 0.327826 0
M  V30 8246 C 773.51 1.37831 0.984839 0
M  V30 8247 O 774.716 1.54994 0.915251 0
M  V30 8248 H 771.091 0.741612 0.124564 0
M  V30 8249 H 773.062 2.96124 -0.367853 0
M  V30 8250 C 771.811 3.18548 1.39365 0
M  V30 8251 H 771.134 3.89596 0.897475 0
M  V30 8252 H 772.574 3.77561 1.92934 0
M  V30 8253 C 771.033 2.36548 2.39889 0
M  V30 8254 O 771.563 2.05282 3.45286 0
M  V30 8255 N 769.769 1.99015 2.11758 0
M  V30 8256 H 769.316 2.24641 1.26071 0
M  V30 8257 H 769.274 1.44454 2.7925 0
M  V30 8258 N 773.046 0.209999 1.56195 0
M  V30 8259 C 774.462 -0.145598 1.58934 0
M  V30 8260 C 774.662 -1.59868 1.22656 0
M  V30 8261 O 773.718 -2.33689 0.956336 0
M  V30 8262 C 775.031 0.170243 3.00218 0
M  V30 8263 C 776.579 0.111548 3.12801 0
M  V30 8264 C 777.054 0.400904 4.56242 0
M  V30 8265 N 778.545 0.350058 4.61875 0
M  V30 8266 C 779.28 0.547598 5.70779 0
M  V30 8267 N 778.776 0.806291 6.88092 0
M  V30 8268 N 780.569 0.480827 5.6004 0
M  V30 8269 H 772.72 1.15804 1.78054 0
M  V30 8270 H 774.983 0.463326 0.827063 0
M  V30 8271 H 774.689 1.17833 3.31373 0
M  V30 8272 H 774.563 -0.520208 3.73596 0
M  V30 8273 H 776.95 -0.887162 2.81449 0
M  V30 8274 H 777.031 0.835302 2.41777 0
M  V30 8275 H 776.675 1.397 4.8831 0
M  V30 8276 H 776.605 -0.34391 5.25476 0
M  V30 8277 H 779.096 0.157334 3.77572 0
M  V30 8278 H 779.409 0.945433 7.66995 0
M  V30 8279 H 777.754 0.843355 6.89864 0
M  V30 8280 H 780.945 0.279037 4.67268 0
M  V30 8281 H 781.118 0.638189 6.4485 0
M  V30 8282 N 774.524 -1.57472 -0.0634922 0
M  V30 8283 C 775.752 -1.91887 -0.773767 0
M  V30 8284 C 776.167 -0.806733 -1.70696 0
M  V30 8285 O 775.524 0.219383 -1.81177 0
M  V30 8286 C 775.575 -3.26092 -1.56034 0
M  V30 8287 O 775.296 -4.33029 -0.66464 0
M  V30 8288 C 776.797 -3.74573 -2.37087 0
M  V30 8289 H 774.017 -0.634074 -0.219525 0
M  V30 8290 H 776.561 -2.04476 -0.0312828 0
M  V30 8291 H 774.716 -3.15004 -2.25502 0
M  V30 8292 H 775.13 -5.10291 -1.21258 0
M  V30 8293 H 776.604 -4.71084 -2.87722 0
M  V30 8294 H 777.081 -3.04003 -3.16984 0
M  V30 8295 H 777.687 -3.88631 -1.72759 0
M  V30 8296 N 776.003 0.335068 -1.53997 0
M  V30 8297 C 776.933 1.41727 -1.85568 0
M  V30 8298 C 777.914 1.54505 -0.7115 0
M  V30 8299 O 779.099 1.68573 -0.964191 0
M  V30 8300 C 776.229 2.7866 -2.07282 0
M  V30 8301 C 775.183 2.80682 -3.23112 0
M  V30 8302 C 774.509 4.20581 -3.30175 0
M  V30 8303 C 775.809 2.45458 -4.61029 0
M  V30 8304 H 777.503 1.15555 -2.76202 0
M  V30 8305 H 775.049 0.554445 -1.32898 0
M  V30 8306 H 777.002 3.54423 -2.27952 0
M  V30 8307 H 775.726 3.06286 -1.13387 0
M  V30 8308 H 774.385 2.07373 -3.02311 0
M  V30 8309 H 774.033 4.4533 -2.33859 0
M  V30 8310 H 773.733 4.22843 -4.08016 0
M  V30 8311 H 775.257 4.98174 -3.53066 0
M  V30 8312 H 776.671 3.10934 -4.81656 0
M  V30 8313 H 775.068 2.5899 -5.41336 0
M  V30 8314 H 776.138 1.40628 -4.6406 0
M  V30 8315 N 777.481 1.45874 0.596531 0
M  V30 8316 C 778.706 1.54247 1.38646 0
M  V30 8317 C 779.131 0.179571 1.87241 0
M  V30 8318 O 778.489 -0.837831 1.6078 0
M  V30 8319 C 778.537 2.54015 2.55946 0
M  V30 8320 O 777.641 2.06561 3.5694 0
M  V30 8321 H 776.982 0.519555 0.413471 0
M  V30 8322 H 779.512 1.91327 0.724936 0
M  V30 8323 H 779.522 2.73179 3.03047 0
M  V30 8324 H 778.197 3.52994 2.19928 0
M  V30 8325 H 776.774 1.97324 3.16414 0
M  V30 8326 N 778.959 -0.83999 1.33349 0
M  V30 8327 C 779.922 -1.93128 1.23426 0
M  V30 8328 C 780.922 -1.60065 0.153599 0
M  V30 8329 O 782.112 -1.69425 0.405049 0
M  V30 8330 C 779.244 -3.28761 0.901622 0
M  V30 8331 H 780.437 -2.03352 2.20427 0
M  V30 8332 H 777.99 -1.03194 1.17391 0
M  V30 8333 H 778.725 -3.24233 -0.0659337 0
M  V30 8334 H 778.51 -3.54138 1.68311 0
M  V30 8335 H 780 -4.08714 0.856913 0
M  V30 8336 N 780.437 -1.16799 -1.0581 0
M  V30 8337 C 781.685 -0.950642 -1.78346 0
M  V30 8338 C 782.006 0.522524 -1.87869 0
M  V30 8339 O 781.276 1.3795 -1.39092 0
M  V30 8340 H 779.856 -0.348736 -0.6606 0
M  V30 8341 H 782.518 -1.47158 -1.27791 0
M  V30 8342 H 781.614 -1.37359 -2.80248 0
M  V30 8343 N 781.915 1.24427 -0.967243 0
M  V30 8344 C 783.145 1.96256 -0.64554 0
M  V30 8345 C 783.553 1.71959 0.789098 0
M  V30 8346 O 782.896 0.999913 1.54102 0
M  V30 8347 C 782.958 3.49553 -0.839798 0
M  V30 8348 C 782.622 3.97548 -2.25399 0
M  V30 8349 C 783.619 4.07257 -3.23168 0
M  V30 8350 C 781.304 4.30884 -2.58156 0
M  V30 8351 C 783.298 4.49635 -4.51782 0
M  V30 8352 C 780.985 4.72946 -3.86996 0
M  V30 8353 C 781.983 4.82286 -4.83621 0
M  V30 8354 O 781.671 5.23409 -6.10162 0
M  V30 8355 H 781.403 0.632002 -0.239895 0
M  V30 8356 H 783.957 1.59224 -1.29757 0
M  V30 8357 H 782.187 3.86479 -0.130603 0
M  V30 8358 H 783.876 4.02591 -0.517249 0
M  V30 8359 H 784.642 3.8172 -2.9919 0
M  V30 8360 H 780.521 4.22833 -1.83666 0
M  V30 8361 H 784.065 4.5684 -5.27203 0
M  V30 8362 H 779.962 4.9793 -4.10775 0
M  V30 8363 H 780.73 5.4156 -6.13722 0
M  V30 8364 N 783.393 0.737304 1.3929 0
M  V30 8365 C 784.621 0.296573 2.04763 0
M  V30 8366 C 785.036 -1.06941 1.55592 0
M  V30 8367 O 784.393 -1.67619 0.721822 0
M  V30 8368 C 784.444 0.291906 3.6032 0
M  V30 8369 O 784.165 1.60397 4.07682 0
M  V30 8370 C 785.666 -0.164708 4.42994 0
M  V30 8371 H 782.886 0.129251 0.658434 0
M  V30 8372 H 785.43 1.0016 1.78293 0
M  V30 8373 H 783.585 -0.364251 3.85684 0
M  V30 8374 H 783.999 1.51909 5.0202 0
M  V30 8375 H 785.473 -0.116814 5.51876 0
M  V30 8376 H 785.95 -1.21022 4.22197 0
M  V30 8377 H 786.556 0.461968 4.22784 0
M  V30 8378 N 784.871 -1.49948 0.485112 0
M  V30 8379 C 786.099 -2.06806 -0.0622824 0
M  V30 8380 C 786.514 -1.34736 -1.32256 0
M  V30 8381 O 785.871 -0.420836 -1.77582 0
M  V30 8382 C 785.922 -3.59934 -0.336096 0
M  V30 8383 O 785.643 -4.29289 0.874203 0
M  V30 8384 C 787.144 -4.33459 -0.928903 0
M  V30 8385 H 784.364 -0.670867 0.0133472 0
M  V30 8386 H 786.908 -1.92937 0.677917 0
M  V30 8387 H 785.063 -3.7356 -1.02625 0
M  V30 8388 H 785.477 -5.20735 0.627332 0
M  V30 8389 H 786.951 -5.41527 -1.07017 0
M  V30 8390 H 787.428 -3.94881 -1.92265 0
M  V30 8391 H 788.034 -4.24399 -0.276705 0
M  V30 8392 N 786.349 -0.21828 -1.56081 0
M  V30 8393 C 787.577 0.419258 -2.02608 0
M  V30 8394 C 787.992 1.53578 -1.09814 0
M  V30 8395 O 787.349 1.82185 -0.107149 0
M  V30 8396 C 787.4 0.953955 -3.48686 0
M  V30 8397 O 787.121 -0.11805 -4.37941 0
M  V30 8398 C 788.622 1.66506 -4.10841 0
M  V30 8399 H 785.842 0.10296 -0.663054 0
M  V30 8400 H 788.386 -0.333776 -2.01758 0
M  V30 8401 H 786.541 1.65727 -3.50162 0
M  V30 8402 H 786.955 0.283359 -5.23734 0
M  V30 8403 H 788.429 1.99123 -5.14834 0
M  V30 8404 H 788.906 2.57705 -3.55647 0
M  V30 8405 H 789.512 1.00703 -4.13206 0
M  V30 8406 N 787.827 1.57504 0.0551401 0
M  V30 8407 C 789.052 1.92682 0.767352 0
M  V30 8408 C 789.477 0.81614 1.69472 0
M  V30 8409 O 788.835 -0.229989 1.79835 0
M  V30 8410 C 788.883 3.26866 1.52286 0
M  V30 8411 O 787.987 3.17274 2.63459 0
M  V30 8412 H 787.328 0.630502 0.208238 0
M  V30 8413 H 789.858 2.04592 0.0184026 0
M  V30 8414 H 789.868 3.61138 1.8985 0
M  V30 8415 H 788.543 4.07276 0.842541 0
M  V30 8416 H 787.12 2.94589 2.2863 0
M  V30 8417 N 789.305 -0.326896 1.54172 0
M  V30 8418 C 790.545 -1.07349 1.73941 0
M  V30 8419 C 790.909 -1.85355 0.50075 0
M  V30 8420 O 792.11 -2.62562 0.575731 0
M  V30 8421 C 790.381 -1.97636 2.97783 0
M  V30 8422 S 791.94 -2.79292 3.3844 0
M  V30 8423 H 788.758 -0.362459 0.611673 0
M  V30 8424 H 791.36 -0.349884 1.92344 0
M  V30 8425 H 790.064 -1.39158 3.86087 0
M  V30 8426 H 789.595 -2.74406 2.81895 0
M  V30 8427 H 791.61 -4.00106 2.93478 0
M  V30 8428 N 790.784 -1.46188 -0.588786 0
M  V30 8429 C 792.033 -1.50452 -1.34339 0
M  V30 8430 C 792.346 -0.158096 -1.9496 0
M  V30 8431 O 793.552 -0.0784918 -2.71387 0
M  V30 8432 C 792.008 -2.65074 -2.43441 0
M  V30 8433 C 791.616 -4.06111 -1.8915 0
M  V30 8434 C 793.36 -2.78603 -3.20282 0
M  V30 8435 C 791.267 -5.12084 -2.95845 0
M  V30 8436 H 790.197 -0.559905 -0.504997 0
M  V30 8437 H 792.848 -1.72382 -0.629014 0
M  V30 8438 H 791.23 -2.36462 -3.1765 0
M  V30 8439 H 792.404 -4.44487 -1.21524 0
M  V30 8440 H 790.719 -3.97197 -1.24995 0
M  V30 8441 H 793.316 -3.54944 -3.99898 0
M  V30 8442 H 793.659 -1.85902 -3.72486 0
M  V30 8443 H 794.192 -3.06832 -2.53178 0
M  V30 8444 H 790.931 -6.06556 -2.48535 0
M  V30 8445 H 790.451 -4.78259 -3.61979 0
M  V30 8446 H 792.13 -5.37661 -3.59902 0
M  V30 8447 N 792.262 0.832906 -1.33792 0
M  V30 8448 C 793.49 1.62048 -1.28639 0
M  V30 8449 C 793.905 1.88269 0.141522 0
M  V30 8450 O 793.262 1.46706 1.08553 0
M  V30 8451 C 793.313 2.96722 -2.0649 0
M  V30 8452 O 793.034 2.7165 -3.43712 0
M  V30 8453 C 794.535 3.91144 -2.08617 0
M  V30 8454 H 791.755 0.504032 -0.442937 0
M  V30 8455 H 794.299 1.03704 -1.76255 0
M  V30 8456 H 792.454 3.51652 -1.62541 0
M  V30 8457 H 792.868 3.57453 -3.83833 0
M  V30 8458 H 794.342 4.82837 -2.67531 0
M  V30 8459 H 794.819 4.25766 -1.07796 0
M  V30 8460 H 795.425 3.42152 -2.52611 0
M  V30 8461 N 793.74 1.17359 1.05189 0
M  V30 8462 C 794.69 0.858445 2.11222 0
M  V30 8463 C 795.674 -0.166991 1.60031 0
M  V30 8464 O 796.866 0.0354456 1.76965 0
M  V30 8465 C 793.995 0.373549 3.41262 0
M  V30 8466 C 793.081 1.43041 3.99249 0
M  V30 8467 N 793.472 2.64387 4.312 0
M  V30 8468 C 791.77 1.28828 4.26989 0
M  V30 8469 C 792.471 3.32296 4.77446 0
M  V30 8470 N 791.447 2.59674 4.77567 0
M  V30 8471 H 795.249 1.78104 2.33786 0
M  V30 8472 H 792.763 1.0623 1.22837 0
M  V30 8473 H 794.76 0.129331 4.16699 0
M  V30 8474 H 793.42 -0.542847 3.2013 0
M  V30 8475 H 794.431 3.01351 4.21198 0
M  V30 8476 H 791.108 0.43353 4.15243 0
M  V30 8477 H 792.498 4.35939 5.11279 0
M  V30 8478 N 795.218 -1.23913 0.973828 0
M  V30 8479 C 796.448 -1.95911 0.655938 0
M  V30 8480 C 796.856 -1.72375 -0.779967 0
M  V30 8481 O 796.199 -1.00807 -1.5357 0
M  V30 8482 C 796.261 -3.49103 0.858324 0
M  V30 8483 C 795.925 -3.96347 2.27504 0
M  V30 8484 C 796.922 -4.05537 3.25324 0
M  V30 8485 C 794.607 -4.29509 2.60437 0
M  V30 8486 C 796.601 -4.47233 4.5416 0
M  V30 8487 C 794.288 -4.70887 3.89498 0
M  V30 8488 C 795.286 -4.79714 4.86172 0
M  V30 8489 O 794.974 -5.20166 6.1293 0
M  V30 8490 H 794.706 -0.630721 0.243244 0
M  V30 8491 H 797.26 -1.58534 1.30599 0
M  V30 8492 H 795.49 -3.86405 0.151097 0
M  V30 8493 H 797.179 -4.02311 0.538592 0
M  V30 8494 H 797.945 -3.80128 3.0121 0
M  V30 8495 H 793.824 -4.21853 1.85906 0
M  V30 8496 H 797.368 -4.54038 5.29618 0
M  V30 8497 H 793.265 -4.95744 4.1341 0
M  V30 8498 H 794.033 -5.38298 6.16586 0
M  V30 8499 N 796.696 -0.74468 -1.38897 0
M  V30 8500 C 797.644 -0.100312 -2.32384 0
M  V30 8501 C 798.638 0.715191 -1.53562 0
M  V30 8502 O 799.844 0.615288 -1.69157 0
M  V30 8503 H 796.219 -0.0136403 -0.751876 0
M  V30 8504 H 798.19 -0.905007 -2.84345 0
M  V30 8505 C 796.939 0.785432 -3.38713 0
M  V30 8506 H 796.262 0.167308 -3.9945 0
M  V30 8507 H 797.702 1.20374 -4.06554 0
M  V30 8508 C 796.161 1.92408 -2.76552 0
M  V30 8509 O 796.691 3.01752 -2.65157 0
M  V30 8510 N 794.897 1.71642 -2.34494 0
M  V30 8511 H 794.444 0.827079 -2.43961 0
M  V30 8512 H 794.402 2.48 -1.93244 0
M  V30 8513 N 798.174 1.49689 -0.493057 0
M  V30 8514 C 799.121 2.28976 0.28959 0
M  V30 8515 C 800.091 1.35011 0.967536 0
M  V30 8516 O 801.276 1.63964 0.975736 0
M  V30 8517 C 798.416 3.1748 1.35279 0
M  V30 8518 C 797.529 4.26496 0.687418 0
M  V30 8519 C 796.664 5.02226 1.73038 0
M  V30 8520 C 795.703 6.03089 1.04645 0
M  V30 8521 N 794.84 6.72014 2.03325 0
M  V30 8522 H 799.68 2.954 -0.392798 0
M  V30 8523 H 797.217 1.45657 -0.205554 0
M  V30 8524 H 799.175 3.67162 1.98111 0
M  V30 8525 H 797.805 2.53057 2.00405 0
M  V30 8526 H 796.857 3.80362 -0.0540001 0
M  V30 8527 H 798.169 4.98578 0.14864 0
M  V30 8528 H 797.323 5.55737 2.43395 0
M  V30 8529 H 796.062 4.29899 2.303 0
M  V30 8530 H 795.067 5.48817 0.328606 0
M  V30 8531 H 796.292 6.77398 0.480428 0
M  V30 8532 H 794.238 6.02464 2.59564 0
M  V30 8533 H 794.155 7.40046 1.54492 0
M  V30 8534 H 795.423 7.30133 2.72995 0
M  V30 8535 N 799.652 0.226554 1.55963 0
M  V30 8536 C 800.9 -0.402991 1.98041 0
M  V30 8537 C 801.221 -1.59938 1.11557 0
M  V30 8538 O 800.491 -1.9494 0.193719 0
M  V30 8539 H 799.071 -0.15188 0.731397 0
M  V30 8540 H 801.733 0.320613 1.92245 0
M  V30 8541 H 800.829 -0.725937 3.0354 0
M  V30 8542 N 801.13 -1.57531 -0.0467866 0
M  V30 8543 C 802.36 -1.92417 -0.752279 0
M  V30 8544 C 802.768 -0.823134 -1.70356 0
M  V30 8545 O 802.111 0.210598 -1.82489 0
M  V30 8546 C 802.173 -3.22974 -1.57887 0
M  V30 8547 C 801.837 -4.50045 -0.794285 0
M  V30 8548 C 802.834 -5.19799 -0.102368 0
M  V30 8549 C 800.519 -4.96608 -0.754061 0
M  V30 8550 C 802.513 -6.34385 0.619267 0
M  V30 8551 C 800.2 -6.11093 -0.0286682 0
M  V30 8552 C 801.198 -6.79835 0.656772 0
M  V30 8553 O 800.886 -7.92133 1.37042 0
M  V30 8554 H 800.618 -0.640029 -0.217576 0
M  V30 8555 H 803.172 -2.05395 -0.0137438 0
M  V30 8556 H 801.402 -3.06273 -2.3608 0
M  V30 8557 H 803.091 -3.43319 -2.16533 0
M  V30 8558 H 803.857 -4.8484 -0.124589 0
M  V30 8559 H 799.736 -4.42958 -1.27706 0
M  V30 8560 H 803.28 -6.87975 1.15483 0
M  V30 8561 H 799.177 -6.455 -0.00446214 0
M  V30 8562 H 799.945 -8.08394 1.28227 0
M  V30 8563 N 802.608 0.318715 -1.54344 0
M  V30 8564 C 803.848 1.06425 -1.74508 0
M  V30 8565 C 804.212 1.85087 -0.510572 0
M  V30 8566 O 805.413 2.62253 -0.589647 0
M  V30 8567 C 803.684 1.96054 -2.98827 0
M  V30 8568 S 805.243 2.77493 -3.39916 0
M  V30 8569 H 802.061 0.35921 -0.613587 0
M  V30 8570 H 804.663 0.339679 -1.92526 0
M  V30 8571 H 803.367 1.37109 -3.8682 0
M  V30 8572 H 802.898 2.72908 -2.83346 0
M  V30 8573 H 804.913 3.98544 -2.95596 0
M  V30 8574 N 804.086 1.46499 0.581025 0
M  V30 8575 C 805.333 1.51896 1.33918 0
M  V30 8576 C 805.661 0.171361 1.93744 0
M  V30 8577 O 804.916 -0.833178 1.77078 0
M  V30 8578 C 805.215 2.56686 2.48691 0
M  V30 8579 C 804.881 4.00656 2.06847 0
M  V30 8580 C 803.543 4.39852 1.9515 0
M  V30 8581 C 805.895 4.91089 1.74589 0
M  V30 8582 C 803.223 5.67345 1.49456 0
M  V30 8583 C 805.575 6.1902 1.30373 0
M  V30 8584 C 804.239 6.57121 1.17255 0
M  V30 8585 H 803.509 0.555826 0.490039 0
M  V30 8586 H 806.156 1.79983 0.654092 0
M  V30 8587 H 804.461 2.22266 3.22653 0
M  V30 8588 H 806.158 2.58091 3.06904 0
M  V30 8589 H 802.748 3.69674 2.16886 0
M  V30 8590 H 806.932 4.61523 1.8251 0
M  V30 8591 H 802.188 5.95635 1.37944 0
M  V30 8592 H 806.362 6.8852 1.04467 0
M  V30 8593 H 803.989 7.55805 0.816236 0
M  V30 8594 N 805.565 -0.825799 1.34232 0
M  V30 8595 C 806.515 -1.92533 1.22128 0
M  V30 8596 C 807.499 -1.60444 0.121002 0
M  V30 8597 O 808.691 -1.73497 0.350385 0
M  V30 8598 C 805.82 -3.29134 0.975995 0
M  V30 8599 C 804.906 -3.6735 2.11931 0
M  V30 8600 N 805.297 -3.77154 3.37029 0
M  V30 8601 C 803.595 -3.97179 2.02891 0
M  V30 8602 C 804.296 -4.10552 4.12095 0
M  V30 8603 N 803.272 -4.23619 3.40658 0
M  V30 8604 H 807.074 -1.98287 2.16932 0
M  V30 8605 H 804.588 -1.01929 1.26429 0
M  V30 8606 H 806.585 -4.07717 0.870187 0
M  V30 8607 H 805.245 -3.24679 0.036606 0
M  V30 8608 H 806.256 -3.60723 3.71618 0
M  V30 8609 H 802.933 -4.00861 1.16692 0
M  V30 8610 H 804.323 -4.25365 5.2011 0
M  V30 8611 N 807.043 -1.17915 -1.04565 0
M  V30 8612 C 808.292 -0.965816 -1.77073 0
M  V30 8613 C 808.605 0.506005 -1.88942 0
M  V30 8614 O 809.811 0.837717 -2.58253 0
M  V30 8615 C 808.267 -1.67894 -3.18339 0
M  V30 8616 C 807.875 -3.18972 -3.1458 0
M  V30 8617 C 809.619 -1.54823 -3.9526 0
M  V30 8618 C 807.526 -3.82946 -4.50674 0
M  V30 8619 H 806.456 -0.357729 -0.663736 0
M  V30 8620 H 809.107 -1.41235 -1.17153 0
M  V30 8621 H 807.489 -1.16016 -3.78624 0
M  V30 8622 H 808.663 -3.77835 -2.63776 0
M  V30 8623 H 806.978 -3.32127 -2.51159 0
M  V30 8624 H 809.575 -1.99984 -4.95894 0
M  V30 8625 H 809.918 -0.499727 -4.1329 0
M  V30 8626 H 810.451 -2.03953 -3.41538 0
M  V30 8627 H 807.19 -4.8782 -4.37849 0
M  V30 8628 H 806.71 -3.2887 -5.01602 0
M  V30 8629 H 808.389 -3.85518 -5.196 0
M  V30 8630 N 808.521 1.23394 -0.980386 0
M  V30 8631 C 809.767 1.92094 -0.650223 0
M  V30 8632 C 810.1 1.76309 0.814173 0
M  V30 8633 O 809.375 1.12406 1.5873 0
M  V30 8634 C 809.658 3.44713 -1.04139 0
M  V30 8635 C 809.511 3.69606 -2.56342 0
M  V30 8636 C 810.83 4.36191 -0.585296 0
M  V30 8637 H 807.949 0.697618 -0.237695 0
M  V30 8638 H 810.591 1.45517 -1.22167 0
M  V30 8639 H 808.741 3.84513 -0.55515 0
M  V30 8640 H 810.413 3.39288 -3.1254 0
M  V30 8641 H 808.656 3.14318 -2.98976 0
M  V30 8642 H 809.327 4.76441 -2.78762 0
M  V30 8643 H 811.803 4.03836 -1.00276 0
M  V30 8644 H 810.679 5.41679 -0.887428 0
M  V30 8645 H 810.94 4.39097 0.51438 0
M  V30 8646 N 809.999 0.752036 1.385 0
M  V30 8647 C 810.909 0.125318 2.34265 0
M  V30 8648 C 811.925 -0.702437 1.59191 0
M  V30 8649 O 813.101 -0.626951 1.91393 0
M  V30 8650 C 810.166 -0.758486 3.38301 0
M  V30 8651 C 809.227 0.0834636 4.29219 0
M  V30 8652 C 808.46 -0.758252 5.28286 0
M  V30 8653 O 808.683 -1.99632 5.34325 0
M  V30 8654 O 807.617 -0.177878 6.01637 0
M  V30 8655 H 811.443 0.91617 2.89551 0
M  V30 8656 H 809.028 0.512911 1.4032 0
M  V30 8657 H 810.91 -1.26365 4.02007 0
M  V30 8658 H 809.585 -1.52786 2.85374 0
M  V30 8659 H 808.492 0.634545 3.68679 0
M  V30 8660 H 809.825 0.815455 4.85398 0
M  V30 8661 N 811.477 -1.49425 0.500989 0
M  V30 8662 C 812.726 -2.01649 -0.04538 0
M  V30 8663 C 813.039 -1.38572 -1.38047 0
M  V30 8664 O 814.245 -1.82124 -2.01353 0
M  V30 8665 C 812.701 -3.5966 -0.131337 0
M  V30 8666 C 812.309 -4.3171 1.19711 0
M  V30 8667 C 814.053 -4.19828 -0.628071 0
M  V30 8668 C 811.96 -5.81579 1.07332 0
M  V30 8669 H 810.89 -0.753715 -0.0207329 0
M  V30 8670 H 813.541 -1.71962 0.640407 0
M  V30 8671 H 811.923 -3.86063 -0.881574 0
M  V30 8672 H 813.097 -4.17008 1.96064 0
M  V30 8673 H 811.412 -3.83286 1.62729 0
M  V30 8674 H 814.009 -5.2958 -0.738198 0
M  V30 8675 H 814.352 -3.83194 -1.6269 0
M  V30 8676 H 814.885 -3.97746 0.0656314 0
M  V30 8677 H 811.624 -6.22738 2.04642 0
M  V30 8678 H 811.144 -5.98774 0.350679 0
M  V30 8679 H 812.823 -6.42614 0.752047 0
M  V30 8680 N 812.955 -0.234822 -1.55841 0
M  V30 8681 C 813.903 0.686145 -2.22249 0
M  V30 8682 C 814.897 1.18948 -1.20614 0
M  V30 8683 O 816.103 1.14777 -1.38659 0
M  V30 8684 H 812.478 0.239724 -0.712767 0
M  V30 8685 H 814.449 0.102762 -2.98223 0
M  V30 8686 C 813.198 1.8776 -2.92646 0
M  V30 8687 H 812.521 1.49943 -3.70617 0
M  V30 8688 H 813.961 2.4995 -3.42493 0
M  V30 8689 C 812.42 2.74127 -1.95847 0
M  V30 8690 O 812.95 3.7329 -1.48384 0
M  V30 8691 N 811.156 2.4044 -1.63209 0
M  V30 8692 H 810.703 1.59854 -2.02001 0
M  V30 8693 H 810.661 2.98504 -0.987063 0
M  V30 8694 N 814.433 1.57553 0.0384317 0
M  V30 8695 C 815.383 2.02404 1.0496 0
M  V30 8696 C 816.367 0.911705 1.32577 0
M  V30 8697 O 817.559 1.17561 1.32319 0
M  V30 8698 C 814.688 2.49924 2.35357 0
M  V30 8699 C 813.774 3.6796 2.1087 0
M  V30 8700 N 814.165 4.81009 1.56411 0
M  V30 8701 C 812.463 3.75153 2.41197 0
M  V30 8702 C 813.164 5.62686 1.47512 0
M  V30 8703 N 812.14 5.0752 1.94742 0
M  V30 8704 H 815.942 2.87234 0.622399 0
M  V30 8705 H 813.456 1.60543 0.244916 0
M  V30 8706 H 815.453 2.80312 3.08595 0
M  V30 8707 H 814.113 1.66496 2.78763 0
M  V30 8708 H 815.124 5.02636 1.2481 0
M  V30 8709 H 811.801 3.02507 2.87742 0
M  V30 8710 H 813.191 6.6349 1.05976 0
M  V30 8711 N 815.911 -0.310526 1.54511 0
M  V30 8712 C 816.858 -1.38264 1.84802 0
M  V30 8713 C 817.828 -1.50808 0.696141 0
M  V30 8714 O 819.013 -1.6582 0.943846 0
M  V30 8715 C 816.153 -2.74422 2.09252 0
M  V30 8716 C 815.266 -2.70405 3.36906 0
M  V30 8717 C 814.401 -3.98495 3.51248 0
M  V30 8718 C 813.44 -3.88836 4.72729 0
M  V30 8719 N 812.577 -5.08683 4.83928 0
M  V30 8720 H 817.417 -1.11732 2.76261 0
M  V30 8721 H 814.954 -0.540609 1.36806 0
M  V30 8722 H 816.912 -3.53593 2.21422 0
M  V30 8723 H 815.542 -2.99235 1.2107 0
M  V30 8724 H 814.594 -1.83151 3.33406 0
M  V30 8725 H 815.906 -2.59155 4.26193 0
M  V30 8726 H 815.06 -4.861 3.63031 0
M  V30 8727 H 813.799 -4.12567 2.60077 0
M  V30 8728 H 812.804 -2.99615 4.60989 0
M  V30 8729 H 814.029 -3.76318 5.65298 0
M  V30 8730 H 811.975 -5.23236 3.95677 0
M  V30 8731 H 811.892 -4.99819 5.67201 0
M  V30 8732 H 813.16 -5.97966 5.00057 0
M  V30 8733 N 817.389 -1.46805 -0.573248 0
M  V30 8734 C 818.614 -1.56433 -1.36175 0
M  V30 8735 C 819.039 -0.209336 -1.86932 0
M  V30 8736 O 818.397 0.812146 -1.62092 0
M  V30 8737 C 818.445 -2.58055 -2.51873 0
M  V30 8738 O 817.549 -2.12214 -3.53609 0
M  V30 8739 H 816.89 -0.526068 -0.405153 0
M  V30 8740 H 819.42 -1.92456 -0.694405 0
M  V30 8741 H 819.43 -2.77966 -2.98662 0
M  V30 8742 H 818.105 -3.56448 -2.14284 0
M  V30 8743 H 816.682 -2.02333 -3.13234 0
M  V30 8744 N 818.867 0.818669 -1.34668 0
M  V30 8745 C 819.797 1.94468 -1.29245 0
M  V30 8746 C 820.778 1.69257 -0.169101 0
M  V30 8747 O 821.963 1.90794 -0.362143 0
M  V30 8748 C 819.093 3.31001 -1.05145 0
M  V30 8749 C 818.047 3.70663 -2.13992 0
M  V30 8750 C 817.373 5.05226 -1.75074 0
M  V30 8751 C 818.673 3.82312 -3.55858 0
M  V30 8752 H 820.367 1.99263 -2.2346 0
M  V30 8753 H 817.913 0.957304 -1.07572 0
M  V30 8754 H 819.866 4.09364 -0.999949 0
M  V30 8755 H 818.59 3.26517 -0.0737312 0
M  V30 8756 H 817.249 2.94578 -2.18219 0
M  V30 8757 H 816.897 4.97233 -0.759518 0
M  V30 8758 H 816.597 5.32734 -2.47928 0
M  V30 8759 H 818.121 5.86042 -1.71427 0
M  V30 8760 H 819.535 4.50935 -3.5402 0
M  V30 8761 H 817.932 4.21278 -4.2737 0
M  V30 8762 H 819.002 2.84193 -3.9289 0
M  V30 8763 N 820.346 1.18468 1.03938 0
M  V30 8764 C 821.294 0.909286 2.14091 0
M  V30 8765 C 822.288 -0.130928 1.68893 0
M  V30 8766 O 823.494 0.0173403 1.79992 0
M  V30 8767 H 819.869 0.27658 0.699291 0
M  V30 8768 H 821.84 1.84514 2.34515 0
M  V30 8769 C 820.589 0.452922 3.44737 0
M  V30 8770 H 819.912 1.24485 3.79926 0
M  V30 8771 H 821.352 0.299238 4.22943 0
M  V30 8772 C 819.811 -0.831435 3.26479 0
M  V30 8773 O 820.341 -1.89535 3.54174 0
M  V30 8774 N 818.547 -0.784545 2.79809 0
M  V30 8775 H 818.094 0.0814746 2.57471 0
M  V30 8776 H 818.052 -1.64431 2.67973 0
M  V30 8777 N 821.824 -1.22873 0.986916 0
M  V30 8778 C 823.052 -1.95487 0.677663 0
M  V30 8779 C 823.467 -1.72978 -0.756572 0
M  V30 8780 O 822.824 -1.02517 -1.50985 0
M  V30 8781 C 822.875 -3.48337 0.966638 0
M  V30 8782 O 822.596 -3.70087 2.34451 0
M  V30 8783 C 824.097 -4.38142 0.674248 0
M  V30 8784 H 821.317 -0.622211 0.251185 0
M  V30 8785 H 823.861 -1.56187 1.32007 0
M  V30 8786 H 822.016 -3.85628 0.370137 0
M  V30 8787 H 822.43 -4.64332 2.43918 0
M  V30 8788 H 823.904 -5.44165 0.926759 0
M  V30 8789 H 824.381 -4.3745 -0.391728 0
M  V30 8790 H 824.987 -4.06469 1.25152 0
M  V30 8791 N 823.302 -0.75937 -1.38099 0
M  V30 8792 C 824.549 -0.318113 -1.99986 0
M  V30 8793 C 824.877 1.10184 -1.6028 0
M  V30 8794 O 824.132 1.77015 -0.834524 0
M  V30 8795 C 824.431 -0.394999 -3.55211 0
M  V30 8796 C 824.097 -1.77143 -4.14646 0
M  V30 8797 C 822.759 -2.14811 -4.30592 0
M  V30 8798 C 825.111 -2.67407 -4.47373 0
M  V30 8799 C 822.439 -3.42203 -4.76565 0
M  V30 8800 C 824.791 -3.94196 -4.94765 0
M  V30 8801 C 823.455 -4.31925 -5.08918 0
M  V30 8802 H 822.725 -0.116406 -0.7318 0
M  V30 8803 H 825.372 -0.97098 -1.65058 0
M  V30 8804 H 823.677 0.341426 -3.9031 0
M  V30 8805 H 825.374 -0.0350722 -4.00985 0
M  V30 8806 H 821.964 -1.46864 -4.02652 0
M  V30 8807 H 826.148 -2.39569 -4.3465 0
M  V30 8808 H 821.404 -3.71346 -4.85708 0
M  V30 8809 H 825.578 -4.64276 -5.19057 0
M  V30 8810 H 823.205 -5.30699 -5.443 0
M  V30 8811 N 824.78 1.49157 -0.508906 0
M  V30 8812 C 825.712 2.272 0.302115 0
M  V30 8813 C 826.725 1.3407 0.923529 0
M  V30 8814 O 827.914 1.5929 0.805532 0
M  V30 8815 C 825.014 3.06736 1.44105 0
M  V30 8816 C 824.187 4.27497 0.925477 0
M  V30 8817 C 823.246 4.89014 1.94297 0
M  V30 8818 O 822.272 5.48851 1.50834 0
M  V30 8819 N 823.474 4.7937 3.2739 0
M  V30 8820 H 826.239 2.97443 -0.367115 0
M  V30 8821 H 823.8 1.58248 -0.341933 0
M  V30 8822 H 825.792 3.44763 2.11944 0
M  V30 8823 H 824.362 2.3905 2.0143 0
M  V30 8824 H 823.582 3.94135 0.0717301 0
M  V30 8825 H 824.87 5.05714 0.55955 0
M  V30 8826 H 824.268 4.31869 3.65384 0
M  V30 8827 H 822.825 5.21559 3.90922 0
M  V30 8828 N 826.258 0.243083 1.55714 0
M  V30 8829 C 827.669 -0.260788 1.8487 0
M  V30 8830 C 828.02 -1.57879 1.16485 0
M  V30 8831 O 827.145 -2.1184 0.441908 0
M  V30 8832 C 827.74 -0.479954 3.35383 0
M  V30 8833 C 826.299 -0.928096 3.64778 0
M  V30 8834 C 825.446 -0.00316416 2.773 0
M  V30 8835 H 828.397 0.465743 1.51712 0
M  V30 8836 H 828.418 -1.32308 3.56756 0
M  V30 8837 H 827.93 0.479468 3.85127 0
M  V30 8838 H 826.031 -1.90012 3.20509 0
M  V30 8839 H 826.144 -0.7876 4.72582 0
M  V30 8840 H 824.508 -0.513849 2.49463 0
M  V30 8841 H 825.291 0.951562 3.29849 0
M  V30 8842 N 827.736 -1.57571 -0.0300757 0
M  V30 8843 C 828.669 -2.01874 -1.06406 0
M  V30 8844 C 829.647 -0.902901 -1.35227 0
M  V30 8845 O 830.831 -1.16865 -1.47901 0
M  V30 8846 C 827.958 -2.39093 -2.39901 0
M  V30 8847 C 827.004 -3.61108 -2.26943 0
M  V30 8848 S 827.837 -5.10287 -1.62382 0
M  V30 8849 C 828.993 -5.50747 -2.97369 0
M  V30 8850 H 829.226 -2.89261 -0.686703 0
M  V30 8851 H 826.759 -1.52523 -0.240017 0
M  V30 8852 H 828.717 -2.61207 -3.16672 0
M  V30 8853 H 827.378 -1.52159 -2.74784 0
M  V30 8854 H 826.571 -3.84803 -3.25489 0
M  V30 8855 H 826.173 -3.3884 -1.58314 0
M  V30 8856 H 828.465 -5.51369 -3.93698 0
M  V30 8857 H 829.408 -6.51071 -2.78409 0
M  V30 8858 H 829.816 -4.7825 -2.99895 0
M  V30 8859 N 829.214 0.302327 -1.54673 0
M  V30 8860 C 830.144 1.37759 -1.88533 0
M  V30 8861 C 831.125 1.52961 -0.744113 0
M  V30 8862 O 832.31 1.6649 -0.999731 0
M  V30 8863 C 829.44 2.74201 -2.13146 0
M  V30 8864 C 828.394 2.73765 -3.28993 0
M  V30 8865 C 827.72 4.13483 -3.39022 0
M  V30 8866 C 829.02 2.35624 -4.66132 0
M  V30 8867 H 830.714 1.0967 -2.78591 0
M  V30 8868 H 828.26 0.52613 -1.34044 0
M  V30 8869 H 830.213 3.49508 -2.35419 0
M  V30 8870 H 828.937 3.03812 -1.19858 0
M  V30 8871 H 827.596 2.00914 -3.06642 0
M  V30 8872 H 827.244 4.40269 -2.43253 0
M  V30 8873 H 826.944 4.14093 -4.16894 0
M  V30 8874 H 828.468 4.90572 -3.63553 0
M  V30 8875 H 829.882 3.00647 -4.88143 0
M  V30 8876 H 828.279 2.47449 -5.46707 0
M  V30 8877 H 829.349 1.30753 -4.66939 0
M  V30 8878 N 830.692 1.47107 0.565454 0
M  V30 8879 C 831.939 1.53308 1.32299 0
M  V30 8880 C 832.267 0.1919 1.93551 0
M  V30 8881 O 831.522 -0.81435 1.77952 0
M  V30 8882 C 831.821 2.59309 2.45954 0
M  V30 8883 C 831.487 4.02827 2.02586 0
M  V30 8884 C 830.149 4.41897 1.90474 0
M  V30 8885 C 832.501 4.92913 1.6937 0
M  V30 8886 C 829.829 5.68898 1.4343 0
M  V30 8887 C 832.181 6.20368 1.238 0
M  V30 8888 C 830.845 6.58327 1.10278 0
M  V30 8889 H 830.115 0.560993 0.484116 0
M  V30 8890 H 832.762 1.80667 0.634965 0
M  V30 8891 H 831.067 2.25676 3.20277 0
M  V30 8892 H 832.764 2.61332 3.04149 0
M  V30 8893 H 829.354 3.71953 2.12952 0
M  V30 8894 H 833.538 4.63433 1.77605 0
M  V30 8895 H 828.794 5.97065 1.31618 0
M  V30 8896 H 832.968 6.89589 0.971586 0
M  V30 8897 H 830.595 7.56628 0.736027 0
M  V30 8898 N 832.17 -0.811516 1.35101 0
M  V30 8899 C 833.117 -1.92308 1.27617 0
M  V30 8900 C 834.087 -1.6543 0.149091 0
M  V30 8901 O 835.272 -1.8789 0.331974 0
M  V30 8902 C 832.412 -3.28768 1.04908 0
M  V30 8903 C 831.525 -3.67865 2.26493 0
M  V30 8904 C 830.66 -4.9333 1.96974 0
M  V30 8905 C 829.699 -5.25041 3.1464 0
M  V30 8906 N 828.836 -6.41685 2.84929 0
M  V30 8907 H 833.676 -1.98041 2.22674 0
M  V30 8908 H 831.213 -0.968755 1.10696 0
M  V30 8909 H 833.171 -4.07426 0.897749 0
M  V30 8910 H 831.801 -3.22517 0.135151 0
M  V30 8911 H 830.853 -2.84507 2.52507 0
M  V30 8912 H 832.165 -3.87263 3.14371 0
M  V30 8913 H 831.319 -5.79803 1.78643 0
M  V30 8914 H 830.058 -4.75958 1.06374 0
M  V30 8915 H 829.063 -4.3706 3.33554 0
M  V30 8916 H 830.288 -5.44346 4.06035 0
M  V30 8917 H 828.234 -6.25747 1.96918 0
M  V30 8918 H 828.151 -6.6131 3.66341 0
M  V30 8919 H 829.419 -7.31198 2.70128 0
M  V30 8920 N 833.648 -1.19017 -1.03309 0
M  V30 8921 C 834.876 -1.01534 -1.80273 0
M  V30 8922 C 835.291 0.43605 -1.83696 0
M  V30 8923 O 834.648 1.30288 -1.27794 0
M  V30 8924 C 834.699 -1.5722 -3.25522 0
M  V30 8925 O 834.42 -2.96677 -3.22358 0
M  V30 8926 C 835.921 -1.4446 -4.19102 0
M  V30 8927 H 833.141 -0.358094 -0.567459 0
M  V30 8928 H 835.685 -1.57738 -1.3015 0
M  V30 8929 H 833.84 -1.05174 -3.7285 0
M  V30 8930 H 834.254 -3.22795 -4.13405 0
M  V30 8931 H 835.728 -1.88209 -5.18923 0
M  V30 8932 H 836.205 -0.394471 -4.37425 0
M  V30 8933 H 836.811 -1.95616 -3.77643 0
M  V30 8934 N 835.127 1.22348 -0.993418 0
M  V30 8935 C 836.037 2.27987 -0.553076 0
M  V30 8936 C 837.053 1.69378 0.398386 0
M  V30 8937 O 838.229 1.99648 0.26509 0
M  V30 8938 C 835.294 3.46475 0.124809 0
M  V30 8939 C 834.355 4.20399 -0.869682 0
M  V30 8940 C 833.588 5.33229 -0.224052 0
M  V30 8941 O 833.811 5.61885 0.981915 0
M  V30 8942 O 832.745 5.94685 -0.929174 0
M  V30 8943 H 836.571 2.67822 -1.43195 0
M  V30 8944 H 834.156 1.28525 -0.761694 0
M  V30 8945 H 836.038 4.18369 0.504496 0
M  V30 8946 H 834.713 3.08565 0.978243 0
M  V30 8947 H 833.62 3.50774 -1.30031 0
M  V30 8948 H 834.953 4.62191 -1.69233 0
M  V30 8949 N 836.605 0.766683 1.37694 0
M  V30 8950 C 837.854 0.325425 1.99057 0
M  V30 8951 C 838.167 -1.10275 1.61551 0
M  V30 8952 O 839.373 -1.64513 2.1598 0
M  V30 8953 C 837.829 0.530886 3.55963 0
M  V30 8954 C 837.437 1.96899 4.02411 0
M  V30 8955 C 839.181 0.152997 4.24224 0
M  V30 8956 C 837.088 2.12232 5.52007 0
M  V30 8957 H 836.018 0.117929 0.744721 0
M  V30 8958 H 838.669 0.945091 1.5729 0
M  V30 8959 H 837.051 -0.158162 3.95684 0
M  V30 8960 H 838.225 2.69258 3.73948 0
M  V30 8961 H 836.54 2.303 3.46916 0
M  V30 8962 H 839.137 0.24614 5.34133 0
M  V30 8963 H 839.48 -0.896096 4.06541 0
M  V30 8964 H 840.013 0.794398 3.89787 0
M  V30 8965 H 836.752 3.15442 5.7461 0
M  V30 8966 H 836.272 1.4435 5.82171 0
M  V30 8967 H 837.951 1.9185 6.17902 0
M  V30 8968 N 838.083 -1.48885 0.516809 0
M  V30 8969 C 839.494 -1.86557 0.0729921 0
M  V30 8970 C 839.845 -1.42767 -1.34581 0
M  V30 8971 O 838.97 -0.812514 -2.00567 0
M  V30 8972 C 839.565 -3.38567 0.125686 0
M  V30 8973 C 838.124 -3.75481 -0.262867 0
M  V30 8974 C 837.271 -2.72913 0.491281 0
M  V30 8975 H 840.222 -1.40978 0.728767 0
M  V30 8976 H 840.243 -3.74629 -0.665831 0
M  V30 8977 H 839.755 -3.70408 1.15842 0
M  V30 8978 H 837.856 -3.49251 -1.29824 0
M  V30 8979 H 837.969 -4.79052 0.067579 0
M  V30 8980 H 836.333 -2.54627 -0.0608525 0
M  V30 8981 H 837.116 -3.07599 1.5244 0
M  V30 8982 N 839.561 -0.251338 -1.55583 0
M  V30 8983 C 840.508 0.646337 -2.21565 0
M  V30 8984 C 841.478 1.16796 -1.18102 0
M  V30 8985 O 842.663 1.22162 -1.46564 0
M  V30 8986 C 839.803 1.83557 -2.92234 0
M  V30 8987 C 838.916 1.35006 -4.10363 0
M  V30 8988 C 838.051 2.4992 -4.68736 0
M  V30 8989 C 837.09 1.98253 -5.79105 0
M  V30 8990 N 836.227 3.06551 -6.31642 0
M  V30 8991 H 841.067 0.0769881 -2.97901 0
M  V30 8992 H 838.604 0.026238 -1.47077 0
M  V30 8993 H 840.562 2.53425 -3.31408 0
M  V30 8994 H 839.192 2.37733 -2.18364 0
M  V30 8995 H 838.244 0.545274 -3.76472 0
M  V30 8996 H 839.556 0.931435 -4.90026 0
M  V30 8997 H 838.71 3.27823 -5.10507 0
M  V30 8998 H 837.449 2.95086 -3.88298 0
M  V30 8999 H 836.454 1.18822 -5.36807 0
M  V30 9000 H 837.679 1.54051 -6.61396 0
M  V30 9001 H 835.625 3.51143 -5.54107 0
M  V30 9002 H 835.542 2.69033 -7.06511 0
M  V30 9003 H 836.81 3.84499 -6.78071 0
M  V30 9004 N 841.039 1.57585 0.0217189 0
M  V30 9005 C 842.264 1.94267 0.726309 0
M  V30 9006 C 842.689 0.851904 1.67703 0
M  V30 9007 O 842.047 -0.191792 1.80283 0
M  V30 9008 C 842.095 3.30023 1.45318 0
M  V30 9009 O 841.199 3.22791 2.5667 0
M  V30 9010 H 840.54 0.634777 0.194818 0
M  V30 9011 H 843.07 2.04585 -0.0249985 0
M  V30 9012 H 843.08 3.65084 1.82147 0
M  V30 9013 H 841.755 4.08972 0.755962 0
M  V30 9014 H 840.332 2.99373 2.2233 0
M  V30 9015 N 842.517 -0.29412 1.54831 0
M  V30 9016 C 843.757 -1.03635 1.76179 0
M  V30 9017 C 844.121 -1.84251 0.539953 0
M  V30 9018 O 845.322 -2.61282 0.631295 0
M  V30 9019 C 843.593 -1.91275 3.01909 0
M  V30 9020 S 845.152 -2.7205 3.44288 0
M  V30 9021 H 841.97 -0.349403 0.619224 0
M  V30 9022 H 844.572 -0.309006 1.93042 0
M  V30 9023 H 843.276 -1.30937 3.88952 0
M  V30 9024 H 842.807 -2.68365 2.87652 0
M  V30 9025 H 844.822 -3.93791 3.01899 0
M  V30 9026 N 843.995 -1.47404 -0.557645 0
M  V30 9027 C 845.22 -1.57868 -1.34508 0
M  V30 9028 C 845.645 -0.229151 -1.86699 0
M  V30 9029 O 845.003 0.794908 -1.62944 0
M  V30 9030 C 845.051 -2.60712 -2.49122 0
M  V30 9031 O 844.155 -2.15952 -3.51338 0
M  V30 9032 H 843.496 -0.530335 -0.399551 0
M  V30 9033 H 846.026 -1.93181 -0.673954 0
M  V30 9034 H 846.036 -2.81118 -2.95697 0
M  V30 9035 H 844.711 -3.58701 -2.10491 0
M  V30 9036 H 843.288 -2.05644 -3.11071 0
M  V30 9037 O 845.512 0.702284 -1.45431 0
M  V30 9038 H 846.203 1.35379 -1.38536 0
M  V30 END ATOM
M  V30 BEGIN BOND
M  V30 END BOND
M  V30 END CTAB
M  END
$$$$
