drugbank_target|O00459 Phosphatidylinositol 3-kinase regulatory subunit beta (DB01064; DB05210)
 OpenBabel12092120103D

  0  0  0     0  0            999 V3000
M  V30 BEGIN CTAB
M  V30 COUNTS 11452 11597 0 0 0
M  V30 BEGIN ATOM
M  V30 1 H -0.908 1.98254 -0.117106 0
M  V30 2 N 0 1.576 0 0
M  V30 3 C 0.933 2.03868 1.02534 0
M  V30 4 C 1.911 0.928543 1.3348 0
M  V30 5 O 3.095 1.19667 1.45644 0
M  V30 6 C 0.222 2.43627 2.35294 0
M  V30 7 C -0.732 3.65373 2.2001 0
M  V30 8 S 0.101 5.13292 1.52614 0
M  V30 9 C 1.257 5.56322 2.86805 0
M  V30 10 H 1.49 2.90518 0.631377 0
M  V30 11 H -0.977 1.52953 0.210867 0
M  V30 12 H 0.981 2.67203 3.11629 0
M  V30 13 H -0.358 1.57376 2.7183 0
M  V30 14 H -1.165 3.90944 3.18086 0
M  V30 15 H -1.563 3.418 1.51819 0
M  V30 16 H 0.729 5.58782 3.83104 0
M  V30 17 H 1.672 6.56266 2.65933 0
M  V30 18 H 2.08 4.83886 2.90714 0
M  V30 19 N 1.4781 -0.272755 1.55222 0
M  V30 20 C 2.4411 -1.32041 1.87344 0
M  V30 21 C 3.4411 -1.42342 0.74803 0
M  V30 22 O 4.6311 -1.41488 1.0162 0
M  V30 23 C 1.7631 -2.70173 2.07893 0
M  V30 24 H 2.9561 -1.04789 2.80997 0
M  V30 25 H 0.5091 -0.51083 1.47717 0
M  V30 26 H 1.2441 -3.02605 1.16622 0
M  V30 27 H 1.0291 -2.64082 2.89833 0
M  V30 28 H 2.5191 -3.45869 2.34017 0
M  V30 29 N 2.9562 -1.48159 -0.537278 0
M  V30 30 C 4.2042 -1.55497 -1.29094 0
M  V30 31 C 4.5252 -0.227454 -1.93669 0
M  V30 32 O 3.7952 0.750386 -1.80959 0
M  V30 33 H 2.3752 -0.572832 -0.47945 0
M  V30 34 H 5.0372 -1.84579 -0.625818 0
M  V30 35 H 4.1332 -2.33216 -2.07405 0
M  V30 36 N 4.4343 0.785586 -1.36625 0
M  V30 37 C 5.8453 1.36101 -1.27803 0
M  V30 38 C 6.1963 1.96035 0.0804875 0
M  V30 39 O 5.3213 1.92834 0.982042 0
M  V30 40 C 5.9163 2.47442 -2.31426 0
M  V30 41 C 4.4753 3.00789 -2.26281 0
M  V30 42 C 3.6223 1.73896 -2.15999 0
M  V30 43 H 6.5733 0.586928 -1.47448 0
M  V30 44 H 6.5943 3.2656 -1.95291 0
M  V30 45 H 6.1063 2.03791 -3.30289 0
M  V30 46 H 4.2073 3.48851 -1.30896 0
M  V30 47 H 4.3203 3.57343 -3.19128 0
M  V30 48 H 2.6843 1.9628 -1.62316 0
M  V30 49 H 3.4673 1.32368 -3.16755 0
M  V30 50 N 5.9124 1.20967 1.01018 0
M  V30 51 C 6.8224 0.980157 2.13143 0
M  V30 52 C 7.8384 -0.0660665 1.73875 0
M  V30 53 O 9.0144 0.122821 2.01025 0
M  V30 54 C 6.0794 0.54216 3.42435 0
M  V30 55 C 5.1404 1.65999 3.95908 0
M  V30 56 C 4.3734 1.2428 5.19028 0
M  V30 57 O 4.5964 0.114196 5.70286 0
M  V30 58 O 3.5304 2.05271 5.65816 0
M  V30 59 H 7.3564 1.91913 2.35379 0
M  V30 60 H 4.9414 0.994099 1.11526 0
M  V30 61 H 6.8234 0.30744 4.20277 0
M  V30 62 H 5.4984 -0.36815 3.216 0
M  V30 63 H 4.4054 1.94906 3.19316 0
M  V30 64 H 5.7384 2.54753 4.21143 0
M  V30 65 N 7.3905 -1.2043 1.01659 0
M  V30 66 C 8.6385 -1.89423 0.704522 0
M  V30 67 C 8.9595 -1.79231 -0.768197 0
M  V30 68 O 8.2295 -1.1947 -1.55254 0
M  V30 69 H 6.8095 -0.701178 0.257602 0
M  V30 70 H 9.4715 -1.4626 1.28818 0
M  V30 71 H 8.5675 -2.96052 0.987916 0
M  V30 72 N 8.8686 -0.792821 -1.36206 0
M  V30 73 C 10.1156 -0.366786 -1.99151 0
M  V30 74 C 10.4436 1.06243 -1.62919 0
M  V30 75 O 9.6986 1.74927 -0.877442 0
M  V30 76 C 9.9976 -0.481501 -3.54142 0
M  V30 77 C 9.6636 -1.87202 -4.10203 0
M  V30 78 C 8.3256 -2.25248 -4.25226 0
M  V30 79 C 10.6776 -2.78237 -4.40719 0
M  V30 80 C 8.0056 -3.53723 -4.68078 0
M  V30 81 C 10.3576 -4.06144 -4.85005 0
M  V30 82 C 9.0216 -4.44207 -4.98234 0
M  V30 83 H 8.2916 -0.134217 -0.728743 0
M  V30 84 H 10.9386 -1.01094 -1.62641 0
M  V30 85 H 9.2436 0.246146 -3.91026 0
M  V30 86 H 10.9406 -0.132844 -4.0078 0
M  V30 87 H 7.5306 -1.56639 -3.98951 0
M  V30 88 H 11.7146 -2.50097 -4.28679 0
M  V30 89 H 6.9706 -3.8308 -4.76508 0
M  V30 90 H 11.1446 -4.76796 -5.07581 0
M  V30 91 H 8.7716 -5.43814 -5.31197 0
M  V30 92 N 10.3467 1.47872 -0.545128 0
M  V30 93 C 11.2787 2.27869 0.246621 0
M  V30 94 C 12.2917 1.36282 0.890561 0
M  V30 95 O 13.4807 1.61207 0.766449 0
M  V30 96 C 10.5807 3.10159 1.36582 0
M  V30 97 C 9.7537 4.29627 0.820954 0
M  V30 98 C 8.8127 4.93607 1.82314 0
M  V30 99 O 7.8387 5.52366 1.37406 0
M  V30 100 N 9.0407 4.87211 3.15603 0
M  V30 101 H 11.8057 2.96459 -0.439539 0
M  V30 102 H 9.3667 1.57367 -0.380421 0
M  V30 103 H 11.3587 3.49829 2.03474 0
M  V30 104 H 9.9287 2.43891 1.9554 0
M  V30 105 H 9.1487 3.94192 -0.0244032 0
M  V30 106 H 10.4367 5.06928 0.436063 0
M  V30 107 H 9.8347 4.40651 3.54744 0
M  V30 108 H 8.3917 5.30937 3.78087 0
M  V30 109 N 11.8248 0.280983 1.55075 0
M  V30 110 C 13.0548 -0.336804 2.03836 0
M  V30 111 C 13.4628 -1.49577 1.15859 0
M  V30 112 O 12.8058 -1.82888 0.172503 0
M  V30 113 C 12.8678 -0.874616 3.48699 0
M  V30 114 C 12.5318 0.156478 4.56732 0
M  V30 115 C 13.5288 0.978032 5.10618 0
M  V30 116 C 11.2138 0.292409 5.01448 0
M  V30 117 C 13.2078 1.92165 6.07743 0
M  V30 118 C 10.8948 1.23949 5.98398 0
M  V30 119 C 11.8928 2.05261 6.51427 0
M  V30 120 O 11.5808 2.98367 7.4648 0
M  V30 121 H 11.3128 -0.0800885 0.671239 0
M  V30 122 H 13.8668 0.412589 2.01213 0
M  V30 123 H 12.0968 -1.67418 3.4858 0
M  V30 124 H 13.7858 -1.40612 3.80766 0
M  V30 125 H 14.5518 0.883782 4.7688 0
M  V30 126 H 10.4308 -0.330498 4.59814 0
M  V30 127 H 13.9748 2.55672 6.49059 0
M  V30 128 H 9.8718 1.33454 6.31554 0
M  V30 129 H 10.6398 2.93116 7.64215 0
M  V30 130 N 13.3029 -1.57598 0.00835791 0
M  V30 131 C 14.7189 -1.55764 -0.347822 0
M  V30 132 C 14.9189 -1.01186 -1.74252 0
M  V30 133 O 13.9749 -0.649371 -2.44007 0
M  V30 134 C 15.2879 -2.99927 -0.215407 0
M  V30 135 C 16.8359 -3.11656 -0.289725 0
M  V30 136 C 17.3109 -4.57621 -0.18634 0
M  V30 137 N 18.8019 -4.62557 -0.243978 0
M  V30 138 C 19.5369 -5.73094 -0.18745 0
M  V30 139 N 19.0329 -6.92753 -0.0810331 0
M  V30 140 N 20.8259 -5.61588 -0.239925 0
M  V30 141 H 12.9769 -1.91411 0.92062 0
M  V30 142 H 15.2399 -0.879562 0.353659 0
M  V30 143 H 14.9459 -3.43729 0.744512 0
M  V30 144 H 14.8199 -3.63865 -0.994097 0
M  V30 145 H 17.2069 -2.67779 -1.24009 0
M  V30 146 H 17.2879 -2.5048 0.51898 0
M  V30 147 H 16.9319 -5.02174 0.760519 0
M  V30 148 H 16.8619 -5.16752 -1.01364 0
M  V30 149 H 19.3529 -3.76481 -0.327217 0
M  V30 150 H 19.6659 -7.72787 -0.0440241 0
M  V30 151 H 18.0109 -6.94984 -0.0465419 0
M  V30 152 H 21.2019 -4.66996 -0.321317 0
M  V30 153 H 21.3749 -6.47714 -0.192407 0
M  V30 154 N 14.781 0.264519 -1.55364 0
M  V30 155 C 15.744 1.31046 -1.88042 0
M  V30 156 C 16.744 1.41943 -0.755569 0
M  V30 157 O 17.934 1.40947 -1.02369 0
M  V30 158 C 15.066 2.69067 -2.09323 0
M  V30 159 H 16.259 1.03297 -2.81549 0
M  V30 160 H 13.812 0.502989 -1.47986 0
M  V30 161 H 14.547 3.01982 -1.18226 0
M  V30 162 H 14.332 2.62542 -2.91229 0
M  V30 163 H 15.822 3.44623 -2.35848 0
M  V30 164 N 16.2591 1.48442 0.529413 0
M  V30 165 C 17.1891 1.65902 1.64313 0
M  V30 166 C 18.1701 0.507897 1.6234 0
M  V30 167 O 19.3551 0.740503 1.79528 0
M  V30 168 C 16.4851 1.69911 3.02898 0
M  V30 169 C 15.4391 2.8453 3.19729 0
M  V30 170 C 14.7651 2.73629 4.59381 0
M  V30 171 C 16.0651 4.25821 3.02447 0
M  V30 172 H 17.7591 2.5914 1.49955 0
M  V30 173 H 15.3051 1.24709 0.719982 0
M  V30 174 H 17.2581 1.80715 3.80684 0
M  V30 175 H 15.9821 0.732524 3.18279 0
M  V30 176 H 14.6411 2.73283 2.44361 0
M  V30 177 H 14.2891 1.74938 4.71599 0
M  V30 178 H 13.9891 3.50541 4.71588 0
M  V30 179 H 15.5131 2.86401 5.39265 0
M  V30 180 H 16.9271 4.37898 3.70024 0
M  V30 181 H 15.3241 5.03735 3.26146 0
M  V30 182 H 16.3941 4.42244 1.98867 0
M  V30 183 N 17.7372 -0.778329 1.37039 0
M  V30 184 C 18.9672 -1.56507 1.34868 0
M  V30 185 C 19.3752 -1.89072 -0.0694802 0
M  V30 186 O 18.7182 -1.51434 -1.03987 0
M  V30 187 C 18.7802 -2.90641 2.11585 0
M  V30 188 C 18.4442 -2.80746 3.60598 0
M  V30 189 C 19.4412 -2.52226 4.54618 0
M  V30 190 C 17.1262 -2.98974 4.03633 0
M  V30 191 C 19.1202 -2.42054 5.89651 0
M  V30 192 C 16.8072 -2.88423 5.38754 0
M  V30 193 C 17.8052 -2.60002 6.31576 0
M  V30 194 O 17.4932 -2.49465 7.64214 0
M  V30 195 H 17.2252 -0.491723 0.463879 0
M  V30 196 H 19.7792 -0.973053 1.80889 0
M  V30 197 H 18.0092 -3.51936 1.60243 0
M  V30 198 H 19.6982 -3.51992 2.0213 0
M  V30 199 H 20.4642 -2.37835 4.22681 0
M  V30 200 H 16.3432 -3.20099 3.31749 0
M  V30 201 H 19.8872 -2.19791 6.62071 0
M  V30 202 H 15.7842 -3.0238 5.70295 0
M  V30 203 H 16.5522 -2.64864 7.74461 0
M  V30 204 N 19.2153 -1.21501 -1.00376 0
M  V30 205 C 20.6263 -1.03146 -1.55621 0
M  V30 206 C 20.9773 0.408375 -1.91903 0
M  V30 207 O 20.1023 1.29177 -1.73616 0
M  V30 208 C 20.6973 -1.86612 -2.82775 0
M  V30 209 C 19.2563 -1.72586 -3.34501 0
M  V30 210 C 18.4033 -1.83747 -2.07683 0
M  V30 211 H 21.3543 -1.35505 -0.826081 0
M  V30 212 H 21.3753 -1.3771 -3.54706 0
M  V30 213 H 20.8873 -2.91399 -2.56336 0
M  V30 214 H 18.9883 -0.704877 -3.65872 0
M  V30 215 H 19.1013 -2.54623 -4.05837 0
M  V30 216 H 17.4653 -1.27069 -2.20739 0
M  V30 217 H 18.2483 -2.90044 -1.83655 0
M  V30 218 N 20.6934 1.19889 -1.02296 0
M  V30 219 C 21.9404 1.8942 -0.715972 0
M  V30 220 C 22.2684 1.79251 0.754944 0
M  V30 221 O 21.5234 1.17526 1.56481 0
M  V30 222 C 21.8224 3.39883 -1.10518 0
M  V30 223 C 21.4884 3.70254 -2.57337 0
M  V30 224 C 20.1504 3.78254 -2.97452 0
M  V30 225 C 22.5024 3.84052 -3.52354 0
M  V30 226 C 19.8304 3.97514 -4.31509 0
M  V30 227 C 22.1824 4.04824 -4.86108 0
M  V30 228 C 20.8464 4.11054 -5.25919 0
M  V30 229 H 20.1164 0.693138 -0.261993 0
M  V30 230 H 22.7634 1.42012 -1.28472 0
M  V30 231 H 21.0684 3.8915 -0.454953 0
M  V30 232 H 22.7654 3.9199 -0.845261 0
M  V30 233 H 19.3554 3.64632 -2.25258 0
M  V30 234 H 23.5394 3.77221 -3.22518 0
M  V30 235 H 18.7954 4.00574 -4.61898 0
M  V30 236 H 22.9694 4.14442 -5.59653 0
M  V30 237 H 20.5964 4.2573 -6.29808 0
M  V30 238 N 22.1715 0.800033 1.35784 0
M  V30 239 C 23.5875 0.482977 1.52117 0
M  V30 240 C 23.7875 -0.996948 1.75109 0
M  V30 241 O 22.8435 -1.78216 1.78872 0
M  V30 242 C 24.1565 1.32264 2.70049 0
M  V30 243 C 25.7045 1.31742 2.83924 0
M  V30 244 C 26.1795 2.14106 4.04874 0
M  V30 245 N 27.6705 2.11607 4.12039 0
M  V30 246 C 28.4055 2.72099 5.04727 0
M  V30 247 N 27.9015 3.41492 6.02789 0
M  V30 248 N 29.6945 2.61776 4.97423 0
M  V30 249 H 21.8455 1.75856 1.19115 0
M  V30 250 H 24.1085 0.748122 0.582252 0
M  V30 251 H 23.8145 2.37261 2.59616 0
M  V30 252 H 23.6885 0.971303 3.6448 0
M  V30 253 H 26.0755 0.275333 2.93813 0
M  V30 254 H 26.1565 1.70859 1.9037 0
M  V30 255 H 25.8005 3.18351 3.95746 0
M  V30 256 H 25.7305 1.72353 4.97596 0
M  V30 257 H 28.2215 1.61112 3.41835 0
M  V30 258 H 28.5345 3.84953 6.70098 0
M  V30 259 H 26.8795 3.45596 6.02983 0
M  V30 260 H 30.0705 2.07157 4.19766 0
M  V30 261 H 30.2435 3.0921 5.69468 0
M  V30 262 N 23.6496 -1.47581 0.552962 0
M  V30 263 C 25.0656 -1.5818 0.212424 0
M  V30 264 C 25.2656 -1.55213 -1.28496 0
M  V30 265 O 24.3216 -1.45329 -2.06484 0
M  V30 266 C 25.6346 -2.88865 0.835318 0
M  V30 267 C 27.1826 -3.0244 0.806156 0
M  V30 268 C 27.6576 -4.35819 1.40804 0
M  V30 269 N 29.1486 -4.42444 1.37103 0
M  V30 270 C 29.8836 -5.44202 1.80641 0
M  V30 271 N 29.3796 -6.52795 2.32015 0
M  V30 272 N 31.1726 -5.35222 1.71738 0
M  V30 273 H 23.3236 -1.47753 1.52587 0
M  V30 274 H 25.5866 -0.702941 0.636064 0
M  V30 275 H 25.2926 -2.9676 1.88749 0
M  V30 276 H 25.1666 -3.7579 0.325848 0
M  V30 277 H 27.5536 -2.94144 -0.237317 0
M  V30 278 H 27.6346 -2.17068 1.35334 0
M  V30 279 H 27.2786 -4.44871 2.45056 0
M  V30 280 H 27.2086 -5.19916 0.836338 0
M  V30 281 H 29.6996 -3.6456 0.995202 0
M  V30 282 H 30.0126 -7.26609 2.63171 0
M  V30 283 H 28.3576 -6.53696 2.36023 0
M  V30 284 H 31.5486 -4.49284 1.31382 0
M  V30 285 H 31.7216 -6.14389 2.05987 0
M  V30 286 N 25.1277 -0.289203 -1.54924 0
M  V30 287 C 26.0377 0.601863 -2.26748 0
M  V30 288 C 27.0537 1.15834 -1.2984 0
M  V30 289 O 28.2297 1.18564 -1.62802 0
M  V30 290 C 25.2947 1.76299 -2.98529 0
M  V30 291 C 24.3557 1.24178 -4.10948 0
M  V30 292 C 23.5887 2.34757 -4.79296 0
M  V30 293 O 23.8117 3.54411 -4.46933 0
M  V30 294 O 22.7457 2.02115 -5.66951 0
M  V30 295 H 26.5717 0.0195879 -3.03694 0
M  V30 296 H 24.1567 -0.0560868 -1.49295 0
M  V30 297 H 26.0387 2.43973 -3.43592 0
M  V30 298 H 24.7137 2.33209 -2.24488 0
M  V30 299 H 23.6207 0.531104 -3.70311 0
M  V30 300 H 24.9537 0.718252 -4.86931 0
M  V30 301 N 26.6058 1.57591 -0.0167156 0
M  V30 302 C 28.0218 1.55946 0.339557 0
M  V30 303 C 28.2218 1.02109 1.73713 0
M  V30 304 O 27.2778 0.662303 2.43659 0
M  V30 305 C 28.5908 3.00037 0.199499 0
M  V30 306 C 30.1388 3.11805 0.273193 0
M  V30 307 C 30.6138 4.57713 0.162068 0
M  V30 308 N 32.1048 4.6268 0.219444 0
M  V30 309 C 32.8398 5.73185 0.157054 0
M  V30 310 N 32.3358 6.92786 0.0442936 0
M  V30 311 N 34.1288 5.61707 0.21014 0
M  V30 312 H 26.2798 1.90921 -0.930758 0
M  V30 313 H 28.5428 0.877674 -0.358319 0
M  V30 314 H 28.2488 3.4333 -0.76273 0
M  V30 315 H 28.1228 3.64387 0.974786 0
M  V30 316 H 30.5098 2.68433 1.22587 0
M  V30 317 H 30.5908 2.50201 -0.532256 0
M  V30 318 H 30.2348 5.01763 -0.78714 0
M  V30 319 H 30.1648 5.17283 0.986222 0
M  V30 320 H 32.6558 3.76649 0.307246 0
M  V30 321 H 32.9688 7.728 0.00304069 0
M  V30 322 H 31.3138 6.94999 0.00968457 0
M  V30 323 H 34.5048 4.6716 0.296546 0
M  V30 324 H 34.6778 6.47807 0.158054 0
M  V30 325 N 28.0839 -0.256276 1.55502 0
M  V30 326 C 29.4949 -0.826068 1.67431 0
M  V30 327 C 29.8459 -1.86396 0.612446 0
M  V30 328 O 28.9709 -2.15031 -0.243025 0
M  V30 329 C 29.5659 -1.50512 3.03532 0
M  V30 330 C 28.1249 -2.02273 3.17431 0
M  V30 331 C 27.2719 -0.870548 2.63281 0
M  V30 332 H 30.2229 -0.0322728 1.58667 0
M  V30 333 H 30.2439 -2.37279 2.97454 0
M  V30 334 H 29.7559 -0.749484 3.80794 0
M  V30 335 H 27.8569 -2.80746 2.44974 0
M  V30 336 H 27.9699 -2.22655 4.24219 0
M  V30 337 H 26.3339 -1.26851 2.20864 0
M  V30 338 H 27.1169 -0.128149 3.43061 0
M  V30 339 N 29.562 -1.4872 -0.521534 0
M  V30 340 C 30.472 -1.66569 -1.65203 0
M  V30 341 C 31.488 -0.548197 -1.65139 0
M  V30 342 O 32.664 -0.820339 -1.83936 0
M  V30 343 C 29.729 -1.70917 -3.01642 0
M  V30 344 C 28.79 -2.94356 -3.12495 0
M  V30 345 C 28.023 -2.98487 -4.42426 0
M  V30 346 O 28.246 -2.10786 -5.30024 0
M  V30 347 O 27.18 -3.90746 -4.57822 0
M  V30 348 H 31.006 -2.62298 -1.5308 0
M  V30 349 H 28.591 -1.3222 -0.695565 0
M  V30 350 H 30.473 -1.7625 -3.82771 0
M  V30 351 H 29.148 -0.783633 -3.14071 0
M  V30 352 H 28.055 -2.94552 -2.3063 0
M  V30 353 H 29.388 -3.86322 -3.04986 0
M  V30 354 N 31.0401 0.771051 -1.3745 0
M  V30 355 C 32.3171 1.519 -1.23231 0
M  V30 356 C 32.6971 2.10383 0.173809 0
M  V30 357 O 32.0451 1.95583 1.18151 0
M  V30 358 C 32.2551 2.59933 -2.32886 0
M  V30 359 C 33.6031 3.27316 -2.70461 0
M  V30 360 O 34.6271 2.70228 -2.32068 0
M  V30 361 O 33.4861 4.30531 -3.36608 0
M  V30 362 H 30.5801 0.672803 -0.480901 0
M  V30 363 H 33.1261 0.807957 -1.49232 0
M  V30 364 H 31.8981 2.14842 -3.27045 0
M  V30 365 H 31.5211 3.38637 -2.08353 0
M  V30 366 N 32.5182 1.22032 0.997298 0
M  V30 367 C 33.4482 1.01065 2.10495 0
M  V30 368 C 34.4292 -0.0669542 1.69968 0
M  V30 369 O 35.6142 0.0943987 1.9397 0
M  V30 370 C 32.7442 0.582874 3.42374 0
M  V30 371 C 31.6982 1.60592 3.96729 0
M  V30 372 C 31.0242 1.03412 5.24605 0
M  V30 373 C 32.3242 2.99478 4.27914 0
M  V30 374 H 34.0182 1.93708 2.28292 0
M  V30 375 H 31.5642 0.932761 1.09707 0
M  V30 376 H 33.5172 0.423332 4.19268 0
M  V30 377 H 32.2412 -0.379213 3.24391 0
M  V30 378 H 30.9002 1.75316 3.21963 0
M  V30 379 H 30.5482 0.063518 5.0296 0
M  V30 380 H 30.2482 1.71754 5.61938 0
M  V30 381 H 31.7722 0.886066 6.04137 0
M  V30 382 H 33.1862 2.88153 4.95622 0
M  V30 383 H 31.5832 3.64903 4.76409 0
M  V30 384 H 32.6532 3.49742 3.3587 0
M  V30 385 N 33.9963 -1.19345 1.0293 0
M  V30 386 C 34.9063 -2.26245 0.620515 0
M  V30 387 C 35.9223 -1.70486 -0.347928 0
M  V30 388 O 37.0983 -2.00347 -0.205704 0
M  V30 389 C 34.1633 -3.46693 -0.0218957 0
M  V30 390 C 33.2243 -4.17632 0.994102 0
M  V30 391 C 32.4573 -5.32329 0.382253 0
M  V30 392 O 32.6803 -5.64552 -0.814676 0
M  V30 393 O 31.6143 -5.91664 1.10531 0
M  V30 394 H 35.4403 -2.63453 1.51083 0
M  V30 395 H 33.0253 -1.26207 0.799513 0
M  V30 396 H 34.9073 -4.19683 -0.380072 0
M  V30 397 H 33.5823 -3.11333 -0.886209 0
M  V30 398 H 32.4893 -3.4676 1.40387 0
M  V30 399 H 33.8223 -4.56964 1.8288 0
M  V30 400 N 35.4744 -0.807222 -1.35358 0
M  V30 401 C 36.4044 -0.232509 -2.3234 0
M  V30 402 C 37.3854 0.642386 -1.57504 0
M  V30 403 O 38.5704 0.572526 -1.85569 0
M  V30 404 C 35.7004 0.619238 -3.41735 0
M  V30 405 C 34.6544 -0.157215 -4.27711 0
M  V30 406 C 33.9804 0.816273 -5.28433 0
M  V30 407 C 35.2804 -1.35656 -5.04376 0
M  V30 408 H 36.9744 -1.04276 -2.80654 0
M  V30 409 H 34.5204 -0.50288 -1.34934 0
M  V30 410 H 36.4734 1.03137 -4.08584 0
M  V30 411 H 35.1974 1.46239 -2.92031 0
M  V30 412 H 33.8564 -0.550525 -3.62443 0
M  V30 413 H 33.5044 1.65494 -4.74996 0
M  V30 414 H 33.2044 0.301067 -5.86828 0
M  V30 415 H 34.7284 1.22659 -5.98153 0
M  V30 416 H 36.1424 -1.01927 -5.64166 0
M  V30 417 H 34.5394 -1.8063 -5.7227 0
M  V30 418 H 35.6094 -2.14288 -4.34981 0
M  V30 419 N 36.9525 1.47285 -0.560781 0
M  V30 420 C 37.8825 2.32857 0.173105 0
M  V30 421 C 38.8635 1.44009 0.905281 0
M  V30 422 O 40.0485 1.7286 0.885046 0
M  V30 423 C 37.1785 3.25861 1.20133 0
M  V30 424 C 36.1325 4.23978 0.585388 0
M  V30 425 C 35.4585 5.06332 1.7185 0
M  V30 426 C 36.7585 5.20242 -0.463178 0
M  V30 427 H 38.4525 2.94466 -0.541307 0
M  V30 428 H 35.9985 1.41601 -0.261764 0
M  V30 429 H 37.9515 3.84569 1.72293 0
M  V30 430 H 36.6755 2.62315 1.94573 0
M  V30 431 H 35.3345 3.66501 0.085054 0
M  V30 432 H 34.9825 4.39186 2.45203 0
M  V30 433 H 34.6825 5.72762 1.31213 0
M  V30 434 H 36.2065 5.67899 2.24329 0
M  V30 435 H 37.6205 5.73293 -0.027502 0
M  V30 436 H 36.0175 5.94896 -0.788627 0
M  V30 437 H 37.0875 4.65504 -1.35773 0
M  V30 438 N 38.4306 0.297415 1.54768 0
M  V30 439 C 39.8416 -0.195947 1.85669 0
M  V30 440 C 40.1926 -1.53707 1.21937 0
M  V30 441 O 39.3176 -2.10164 0.515754 0
M  V30 442 C 39.9126 -0.362318 3.36857 0
M  V30 443 C 38.4716 -0.799901 3.67802 0
M  V30 444 C 37.6186 0.0938578 2.77141 0
M  V30 445 H 40.5696 0.518538 1.4999 0
M  V30 446 H 40.5906 -1.19745 3.61167 0
M  V30 447 H 40.1026 0.613921 3.83214 0
M  V30 448 H 38.2036 -1.78682 3.26961 0
M  V30 449 H 38.3166 -0.621773 4.75048 0
M  V30 450 H 36.6806 -0.426254 2.51108 0
M  V30 451 H 37.4636 1.06639 3.26318 0
M  V30 452 N 39.9087 -1.5758 0.0250728 0
M  V30 453 C 41.1567 -1.91255 -0.653151 0
M  V30 454 C 41.4777 -0.901691 -1.729 0
M  V30 455 O 40.7477 0.0573785 -1.95816 0
M  V30 456 H 39.3277 -0.705942 -0.244243 0
M  V30 457 H 41.9897 -1.94767 0.0719209 0
M  V30 458 H 41.0857 -2.91752 -1.10847 0
M  V30 459 N 41.3868 0.248026 -1.55636 0
M  V30 460 C 42.6638 0.998988 -1.68165 0
M  V30 461 C 43.0438 2.03409 -0.564621 0
M  V30 462 O 42.3918 2.24378 0.432076 0
M  V30 463 C 42.6018 1.63334 -3.0842 0
M  V30 464 C 43.9498 2.13562 -3.66983 0
M  V30 465 O 44.9738 1.73277 -3.11213 0
M  V30 466 O 43.8328 2.87526 -4.64749 0
M  V30 467 H 40.9268 0.464933 -0.683935 0
M  V30 468 H 43.4728 0.241902 -1.67967 0
M  V30 469 H 42.2448 0.884583 -3.8117 0
M  V30 470 H 41.8678 2.45666 -3.12624 0
M  V30 471 N 42.8649 1.48995 0.513639 0
M  V30 472 C 44.1109 1.58076 1.27042 0
M  V30 473 C 44.4439 0.261026 1.92438 0
M  V30 474 O 43.7189 -0.734393 1.80103 0
M  V30 475 C 44.0019 2.73091 2.34719 0
M  V30 476 C 43.8549 4.14821 1.73907 0
M  V30 477 C 45.1739 2.83796 3.36375 0
M  V30 478 H 42.2929 0.575391 0.460536 0
M  V30 479 H 44.9349 1.81232 0.570516 0
M  V30 480 H 43.0849 2.53479 2.94416 0
M  V30 481 H 44.7569 4.45917 1.18135 0
M  V30 482 H 42.9999 4.21058 1.0437 0
M  V30 483 H 43.6709 4.91147 2.51949 0
M  V30 484 H 46.1469 3.01611 2.86653 0
M  V30 485 H 45.0229 3.65971 4.09093 0
M  V30 486 H 45.2839 1.92624 3.9793 0
M  V30 487 N 44.343 -0.763751 1.37857 0
M  V30 488 C 45.273 -1.89103 1.36975 0
M  V30 489 C 46.254 -1.68439 0.237152 0
M  V30 490 O 47.439 -1.8918 0.438713 0
M  V30 491 C 44.569 -3.26496 1.18395 0
M  V30 492 C 43.523 -3.61741 2.28751 0
M  V30 493 C 42.849 -4.97762 1.95286 0
M  V30 494 C 44.149 -3.67665 3.70972 0
M  V30 495 H 45.843 -1.90099 2.31307 0
M  V30 496 H 43.389 -0.91319 1.11341 0
M  V30 497 H 45.342 -4.05003 1.16406 0
M  V30 498 H 44.066 -3.25955 0.205215 0
M  V30 499 H 42.725 -2.85547 2.29909 0
M  V30 500 H 42.373 -4.93769 0.959221 0
M  V30 501 H 42.073 -5.22313 2.69189 0
M  V30 502 H 43.597 -5.7866 1.94898 0
M  V30 503 H 45.011 -4.36307 3.719 0
M  V30 504 H 43.408 -4.03718 4.43995 0
M  V30 505 H 44.478 -2.68134 4.0402 0
M  V30 506 N 45.8211 -1.22559 -0.990812 0
M  V30 507 C 47.0671 -1.05297 -1.73322 0
M  V30 508 C 47.4001 0.410655 -1.89808 0
M  V30 509 O 46.6751 1.30439 -1.44277 0
M  V30 510 C 46.9581 -1.76713 -3.13759 0
M  V30 511 C 46.8111 -3.30684 -3.04907 0
M  V30 512 C 48.1301 -1.52121 -4.12974 0
M  V30 513 H 45.2491 -0.38392 -0.629106 0
M  V30 514 H 47.8911 -1.50926 -1.15418 0
M  V30 515 H 46.0411 -1.37924 -3.63193 0
M  V30 516 H 47.7131 -3.7893 -2.63077 0
M  V30 517 H 45.9561 -3.60253 -2.41661 0
M  V30 518 H 46.6271 -3.75833 -4.04294 0
M  V30 519 H 49.1031 -1.85819 -3.72304 0
M  V30 520 H 47.9791 -2.04582 -5.0935 0
M  V30 521 H 48.2401 -0.454257 -4.3976 0
M  V30 522 N 47.2992 1.18797 -1.03562 0
M  V30 523 C 48.5452 1.8893 -0.737113 0
M  V30 524 C 48.8782 1.79837 0.732956 0
M  V30 525 O 48.1532 1.19525 1.5344 0
M  V30 526 C 48.4362 3.39607 -1.19745 0
M  V30 527 C 48.2892 3.57537 -2.72924 0
M  V30 528 C 49.6082 4.33069 -0.783526 0
M  V30 529 H 46.7272 0.686057 -0.269249 0
M  V30 530 H 49.3692 1.39797 -1.28673 0
M  V30 531 H 47.5192 3.81583 -0.729855 0
M  V30 532 H 49.1912 3.24688 -3.27682 0
M  V30 533 H 47.4342 3.00363 -3.12993 0
M  V30 534 H 48.1052 4.63238 -3.00191 0
M  V30 535 H 50.5812 3.98846 -1.18581 0
M  V30 536 H 49.4572 5.3707 -1.13343 0
M  V30 537 H 49.7182 4.40986 0.313681 0
M  V30 538 N 48.7773 0.814389 1.34928 0
M  V30 539 C 50.0023 0.410097 2.03305 0
M  V30 540 C 50.4273 -0.973464 1.60951 0
M  V30 541 O 49.7853 -1.63185 0.789964 0
M  V30 542 C 49.8333 0.51049 3.56968 0
M  V30 543 O 48.9373 -0.473035 4.09678 0
M  V30 544 H 48.2783 0.170088 0.641846 0
M  V30 545 H 50.8083 1.10244 1.72358 0
M  V30 546 H 50.8183 0.383135 4.06197 0
M  V30 547 H 49.4933 1.51963 3.87144 0
M  V30 548 H 48.0703 -0.305272 3.71648 0
M  V30 549 N 50.2554 -1.46986 0.568584 0
M  V30 550 C 51.6714 -1.57946 0.229189 0
M  V30 551 C 51.8714 -1.56567 -1.26843 0
M  V30 552 O 50.9274 -1.47511 -2.04931 0
M  V30 553 C 52.2404 -2.87963 0.865909 0
M  V30 554 C 53.7884 -3.01568 0.838188 0
M  V30 555 C 54.2634 -4.34301 1.45419 0
M  V30 556 N 55.7544 -4.40965 1.41788 0
M  V30 557 C 56.4894 -5.42256 1.86403 0
M  V30 558 N 55.9854 -6.50297 2.38926 0
M  V30 559 N 57.7784 -5.3337 1.77405 0
M  V30 560 H 49.9294 -1.46126 1.54146 0
M  V30 561 H 52.1924 -0.696156 0.643484 0
M  V30 562 H 51.8984 -2.94742 1.91886 0
M  V30 563 H 51.7724 -3.75423 0.365687 0
M  V30 564 H 54.1594 -2.94379 -0.206106 0
M  V30 565 H 54.2404 -2.1562 1.37629 0
M  V30 566 H 53.8844 -4.42247 2.49761 0
M  V30 567 H 53.8144 -5.19 0.891435 0
M  V30 568 H 56.3054 -3.63484 1.03381 0
M  V30 569 H 56.6184 -7.23777 2.70863 0
M  V30 570 H 54.9634 -6.51155 2.42944 0
M  V30 571 H 58.1544 -4.47865 1.3614 0
M  V30 572 H 58.3274 -6.12169 2.12492 0
M  V30 573 N 51.7335 -0.305618 -1.54608 0
M  V30 574 C 52.6965 0.555591 -2.22364 0
M  V30 575 C 53.6965 1.05768 -1.21119 0
M  V30 576 O 54.8865 0.952972 -1.45822 0
M  V30 577 C 52.0185 1.76974 -2.91364 0
M  V30 578 H 53.2115 -0.0364572 -2.99878 0
M  V30 579 H 50.7645 -0.0565007 -1.56198 0
M  V30 580 H 51.4995 2.40151 -2.17941 0
M  V30 581 H 51.2845 1.41732 -3.65588 0
M  V30 582 H 52.7745 2.38148 -3.43038 0
M  V30 583 N 53.2116 1.57565 -0.0334293 0
M  V30 584 C 54.1746 2.09393 0.932048 0
M  V30 585 C 55.1746 1.00986 1.25134 0
M  V30 586 O 56.3646 1.27129 1.19096 0
M  V30 587 C 53.4966 2.56338 2.2473 0
M  V30 588 H 54.6896 2.95984 0.483085 0
M  V30 589 H 52.2426 1.54819 0.21468 0
M  V30 590 H 52.9776 1.7309 2.74245 0
M  V30 591 H 52.7626 3.35542 2.02865 0
M  V30 592 H 54.2526 2.96646 2.93923 0
M  V30 593 N 54.6897 -0.239769 1.55765 0
M  V30 594 C 55.6197 -1.30052 1.9393 0
M  V30 595 C 56.6007 -1.49839 0.805132 0
M  V30 596 O 57.7857 -1.62328 1.06599 0
M  V30 597 C 54.9157 -2.65391 2.2402 0
M  V30 598 C 53.8697 -2.60289 3.39755 0
M  V30 599 C 53.1957 -3.99489 3.55405 0
M  V30 600 C 54.4957 -2.16654 4.75246 0
M  V30 601 H 56.1897 -0.983573 2.82783 0
M  V30 602 H 53.7357 -0.471701 1.36055 0
M  V30 603 H 55.6887 -3.3974 2.49308 0
M  V30 604 H 54.4127 -2.98736 1.32 0
M  V30 605 H 53.0717 -1.88398 3.14487 0
M  V30 606 H 52.7197 -4.30112 2.60793 0
M  V30 607 H 52.4197 -3.96962 4.33238 0
M  V30 608 H 53.9437 -4.75528 3.83022 0
M  V30 609 H 55.3577 -2.80737 4.99859 0
M  V30 610 H 53.7547 -2.25223 5.56232 0
M  V30 611 H 54.8247 -1.11835 4.71827 0
M  V30 612 N 56.1678 -1.49265 -0.50573 0
M  V30 613 C 57.0998 -1.617 -1.62437 0
M  V30 614 C 58.1128 -0.499924 -1.54934 0
M  V30 615 O 59.3018 -0.771785 -1.60953 0
M  V30 616 C 56.4018 -1.5533 -3.01207 0
M  V30 617 C 55.5748 -2.8249 -3.33943 0
M  V30 618 C 54.6338 -2.69238 -4.52103 0
M  V30 619 O 53.6598 -3.43167 -4.5412 0
M  V30 620 N 54.8618 -1.80468 -5.51735 0
M  V30 621 H 57.6268 -2.58177 -1.52199 0
M  V30 622 H 55.1878 -1.46294 -0.693511 0
M  V30 623 H 57.1798 -1.44125 -3.78167 0
M  V30 624 H 55.7498 -0.667297 -3.05395 0
M  V30 625 H 54.9698 -3.08081 -2.45926 0
M  V30 626 H 56.2578 -3.66802 -3.5261 0
M  V30 627 H 55.6558 -1.19653 -5.52901 0
M  V30 628 H 54.2128 -1.75188 -6.27816 0
M  V30 629 N 57.6459 0.756429 -1.3826 0
M  V30 630 C 58.6089 1.85176 -1.35065 0
M  V30 631 C 59.6089 1.58818 -0.251703 0
M  V30 632 O 60.7989 1.66615 -0.508433 0
M  V30 633 C 57.9309 3.22596 -1.10201 0
M  V30 634 H 59.1239 1.89417 -2.3251 0
M  V30 635 H 56.6769 0.95783 -1.23512 0
M  V30 636 H 57.4119 3.24025 -0.133504 0
M  V30 637 H 57.1969 3.43122 -1.89762 0
M  V30 638 H 58.6869 4.02673 -1.10654 0
M  V30 639 N 59.124 1.23083 0.984299 0
M  V30 640 C 60.054 1.03292 2.09411 0
M  V30 641 C 61.035 -0.048923 1.7003 0
M  V30 642 O 62.22 0.114967 1.93859 0
M  V30 643 C 59.35 0.619155 3.41736 0
M  V30 644 C 58.304 1.64791 3.95004 0
M  V30 645 C 57.63 1.0897 5.23478 0
M  V30 646 C 58.93 3.03999 4.24714 0
M  V30 647 H 60.624 1.96119 2.26225 0
M  V30 648 H 58.17 0.944344 1.08711 0
M  V30 649 H 60.123 0.467777 4.18796 0
M  V30 650 H 58.847 -0.344786 3.24775 0
M  V30 651 H 57.506 1.78721 3.20085 0
M  V30 652 H 57.154 0.11686 5.02864 0
M  V30 653 H 56.854 1.77704 5.60085 0
M  V30 654 H 58.378 0.950093 6.03163 0
M  V30 655 H 59.792 2.93393 4.92538 0
M  V30 656 H 58.189 3.69936 4.72512 0
M  V30 657 H 59.259 3.53285 3.32142 0
M  V30 658 N 60.6021 -1.18246 1.0419 0
M  V30 659 C 61.8501 -1.87886 0.744543 0
M  V30 660 C 62.1711 -1.8082 -0.730006 0
M  V30 661 O 61.4411 -1.22736 -1.52685 0
M  V30 662 H 60.0211 -0.695556 0.272417 0
M  V30 663 H 62.6831 -1.43494 1.31892 0
M  V30 664 H 61.7791 -2.9389 1.05049 0
M  V30 665 N 62.0802 -0.821533 -1.34494 0
M  V30 666 C 63.3262 -0.409552 -1.98622 0
M  V30 667 C 63.6592 1.0244 -1.64984 0
M  V30 668 O 62.9342 1.71325 -0.920758 0
M  V30 669 C 63.2172 -0.610458 -3.54888 0
M  V30 670 C 63.0702 -2.09043 -3.98273 0
M  V30 671 C 64.3892 -0.0455379 -4.40076 0
M  V30 672 H 61.5082 -0.15028 -0.721516 0
M  V30 673 H 64.1502 -1.03384 -1.59411 0
M  V30 674 H 62.3002 -0.079044 -3.8842 0
M  V30 675 H 63.9722 -2.68537 -3.75081 0
M  V30 676 H 62.2152 -2.58139 -3.48635 0
M  V30 677 H 62.8862 -2.18182 -5.07051 0
M  V30 678 H 65.3622 -0.499557 -4.1309 0
M  V30 679 H 64.2382 -0.215922 -5.48475 0
M  V30 680 H 64.4992 1.04939 -4.29465 0
M  V30 681 N 63.5583 1.46682 -0.576371 0
M  V30 682 C 64.5213 2.28707 0.150239 0
M  V30 683 C 65.5213 1.38035 0.824794 0
M  V30 684 O 66.7113 1.60476 0.677719 0
M  V30 685 C 63.8433 3.18248 1.22192 0
M  V30 686 H 65.0363 2.94423 -0.570521 0
M  V30 687 H 62.5893 1.52688 -0.334078 0
M  V30 688 H 63.3243 2.57265 1.97447 0
M  V30 689 H 63.1093 3.85 0.742812 0
M  V30 690 H 64.5993 3.80001 1.73172 0
M  V30 691 N 65.0364 0.313813 1.54444 0
M  V30 692 C 65.9464 -0.565714 2.27677 0
M  V30 693 C 66.9624 -1.13754 1.31666 0
M  V30 694 O 68.1384 -1.15959 1.64668 0
M  V30 695 C 65.2034 -1.71528 3.01296 0
M  V30 696 C 64.2644 -1.17624 4.12872 0
M  V30 697 C 63.4974 -2.27102 4.8297 0
M  V30 698 O 63.7204 -3.47256 4.52514 0
M  V30 699 O 62.6544 -1.9307 5.70094 0
M  V30 700 H 66.4804 0.0287296 3.03686 0
M  V30 701 H 64.0654 0.0798312 1.49187 0
M  V30 702 H 65.9474 -2.38476 3.4743 0
M  V30 703 H 64.6224 -2.29608 2.2817 0
M  V30 704 H 63.5294 -0.472124 3.71109 0
M  V30 705 H 64.8624 -0.640695 4.88012 0
M  V30 706 N 66.5145 -1.57545 0.0417849 0
M  V30 707 C 67.7625 -1.91937 -0.632829 0
M  V30 708 C 68.0835 -0.919978 -1.71934 0
M  V30 709 O 67.3535 0.0366064 -1.95866 0
M  V30 710 H 65.9335 -0.708493 -0.236742 0
M  V30 711 H 68.5955 -1.9468 0.0925745 0
M  V30 712 H 67.6915 -2.92912 -1.07746 0
M  V30 713 N 67.9926 0.231505 -1.5589 0
M  V30 714 C 69.2406 0.955461 -1.78088 0
M  V30 715 C 69.5616 1.85262 -0.608533 0
M  V30 716 O 68.8316 1.92277 0.375035 0
M  V30 717 H 67.4116 0.355787 -0.656829 0
M  V30 718 H 70.0736 0.245751 -1.93344 0
M  V30 719 H 69.1696 1.56814 -2.69844 0
M  V30 720 N 69.4707 1.49531 0.497807 0
M  V30 721 C 70.3807 1.69176 1.62532 0
M  V30 722 C 71.3967 0.5744 1.64246 0
M  V30 723 O 72.5727 0.849497 1.82608 0
M  V30 724 C 69.6377 1.75695 2.98885 0
M  V30 725 C 68.6987 2.9929 3.07773 0
M  V30 726 C 67.9317 3.05488 4.37622 0
M  V30 727 O 68.1547 2.19192 5.26603 0
M  V30 728 O 67.0887 3.9798 4.51548 0
M  V30 729 H 70.9147 2.647 1.48887 0
M  V30 730 H 68.4997 1.3331 0.674441 0
M  V30 731 H 70.3817 1.82317 3.79919 0
M  V30 732 H 69.0567 0.8335 3.12785 0
M  V30 733 H 67.9637 2.98183 2.25915 0
M  V30 734 H 69.2967 3.91125 2.98801 0
M  V30 735 N 70.9488 -0.749086 1.3866 0
M  V30 736 C 72.3648 -1.05276 1.19955 0
M  V30 737 C 72.5648 -2.01435 0.05134 0
M  V30 738 O 71.6208 -2.45232 -0.60147 0
M  V30 739 C 72.9338 -1.62853 2.52783 0
M  V30 740 C 74.4818 -1.75002 2.59506 0
M  V30 741 C 74.9568 -2.35991 3.92521 0
M  V30 742 N 76.4478 -2.43416 3.94085 0
M  V30 743 C 77.1828 -2.91511 4.9377 0
M  V30 744 N 76.6788 -3.39608 6.03853 0
M  V30 745 N 78.4718 -2.90592 4.81157 0
M  V30 746 H 70.6228 -0.111066 2.12109 0
M  V30 747 H 72.8858 -0.111901 0.941373 0
M  V30 748 H 72.5918 -0.99664 3.37283 0
M  V30 749 H 72.4658 -2.61854 2.715 0
M  V30 750 H 74.8528 -2.37317 1.75398 0
M  V30 751 H 74.9338 -0.74693 2.44652 0
M  V30 752 H 74.5778 -1.74308 4.77053 0
M  V30 753 H 74.5078 -3.3695 4.04688 0
M  V30 754 H 76.9988 -2.09405 3.14576 0
M  V30 755 H 77.3118 -3.74775 6.75843 0
M  V30 756 H 75.6568 -3.37653 6.07466 0
M  V30 757 H 78.8478 -2.52332 3.94267 0
M  V30 758 H 79.0208 -3.27762 5.58996 0
M  V30 759 N 72.4269 -1.23603 -0.977757 0
M  V30 760 C 73.6669 -1.08148 -1.73446 0
M  V30 761 C 74.0309 0.374785 -1.88307 0
M  V30 762 O 75.2319 0.650588 -2.60808 0
M  V30 763 C 73.5029 -1.78991 -3.0935 0
M  V30 764 S 75.0619 -1.79141 -4.00567 0
M  V30 765 H 71.8799 -0.386987 -0.596458 0
M  V30 766 H 74.4819 -1.5678 -1.16792 0
M  V30 767 H 73.1859 -2.8408 -2.96187 0
M  V30 768 H 72.7169 -1.30651 -3.71071 0
M  V30 769 H 74.7319 -0.851892 -4.88833 0
M  V30 770 N 73.905 1.17692 -1.04816 0
M  V30 771 C 75.316 1.69501 -0.782698 0
M  V30 772 C 75.667 1.83456 0.695577 0
M  V30 773 O 74.792 1.51942 1.54086 0
M  V30 774 C 75.387 3.07874 -1.41419 0
M  V30 775 C 73.946 3.56864 -1.19686 0
M  V30 776 C 73.093 2.3322 -1.50012 0
M  V30 777 H 76.044 1.02262 -1.2136 0
M  V30 778 H 76.065 3.71528 -0.821428 0
M  V30 779 H 75.577 2.97685 -2.49009 0
M  V30 780 H 73.678 3.72337 -0.140043 0
M  V30 781 H 73.791 4.39851 -1.89916 0
M  V30 782 H 72.155 2.37501 -0.920071 0
M  V30 783 H 72.938 2.25644 -2.58727 0
M  V30 784 N 75.3831 0.828654 1.34056 0
M  V30 785 C 76.3151 0.212052 2.28217 0
M  V30 786 C 77.3281 -0.601362 1.51286 0
M  V30 787 O 78.5171 -0.430104 1.73241 0
M  V30 788 C 75.6171 -0.72088 3.31144 0
M  V30 789 C 74.7901 0.0509587 4.3737 0
M  V30 790 C 73.8491 -0.803766 5.20025 0
M  V30 791 O 72.8751 -0.246667 5.68665 0
M  V30 792 N 74.0771 -2.1227 5.40298 0
M  V30 793 H 76.8421 1.02105 2.81771 0
M  V30 794 H 74.4031 0.686153 1.46641 0
M  V30 795 H 76.3951 -1.29742 3.8334 0
M  V30 796 H 74.9651 -1.43061 2.77943 0
M  V30 797 H 74.1851 0.808831 3.85813 0
M  V30 798 H 75.4731 0.582065 5.0546 0
M  V30 799 H 74.8711 -2.59898 5.02464 0
M  V30 800 H 73.4281 -2.64796 5.95589 0
M  V30 801 N 76.8612 -1.46375 0.584142 0
M  V30 802 C 78.0862 -2.07268 0.0740405 0
M  V30 803 C 78.5112 -1.42979 -1.22223 0
M  V30 804 O 77.8692 -0.514092 -1.73859 0
M  V30 805 C 77.9172 -3.60518 -0.0767769 0
M  V30 806 O 77.0212 -3.96533 -1.13292 0
M  V30 807 H 76.3622 -0.660961 0.0634524 0
M  V30 808 H 78.8922 -1.87991 0.807492 0
M  V30 809 H 78.9022 -4.07021 -0.282489 0
M  V30 810 H 77.5772 -4.06702 0.86986 0
M  V30 811 H 76.1542 -3.61738 -0.905553 0
M  V30 812 N 78.3393 -0.321999 -1.54275 0
M  V30 813 C 79.5853 0.281461 -2.00837 0
M  V30 814 C 79.9183 1.51909 -1.20985 0
M  V30 815 O 79.1933 1.923 -0.291733 0
M  V30 816 C 79.4763 0.617162 -3.54772 0
M  V30 817 C 79.3293 -0.631064 -4.45351 0
M  V30 818 C 80.6483 1.43542 -4.16033 0
M  V30 819 H 77.7673 0.100826 -0.730071 0
M  V30 820 H 80.4093 -0.438268 -1.84876 0
M  V30 821 H 78.5593 1.23034 -3.68504 0
M  V30 822 H 80.2313 -1.26934 -4.43492 0
M  V30 823 H 78.4743 -1.26025 -4.15091 0
M  V30 824 H 79.1453 -0.351735 -5.50878 0
M  V30 825 H 81.6213 0.917134 -4.05867 0
M  V30 826 H 80.4973 1.63907 -5.23856 0
M  V30 827 H 80.7583 2.43108 -3.69257 0
M  V30 828 N 79.8174 1.5752 -0.0501392 0
M  V30 829 C 81.0654 1.9227 0.622642 0
M  V30 830 C 81.3864 0.929083 1.71444 0
M  V30 831 O 80.6564 -0.0262186 1.95882 0
M  V30 832 H 79.2364 0.709739 0.232981 0
M  V30 833 H 81.8984 1.94628 -0.102898 0
M  V30 834 H 80.9944 2.93479 1.06191 0
M  V30 835 N 81.2955 -0.223234 1.56011 0
M  V30 836 C 82.5415 -0.944891 1.8012 0
M  V30 837 C 82.8965 -1.82039 0.622862 0
M  V30 838 O 82.1895 -1.8773 -0.383143 0
M  V30 839 C 82.3835 -1.81948 3.0762 0
M  V30 840 C 82.2125 -1.03014 4.37742 0
M  V30 841 C 80.9825 -0.72574 5.00061 0
M  V30 842 C 83.1805 -0.396256 5.12771 0
M  V30 843 N 81.1625 0.0851816 6.13841 0
M  V30 844 C 82.5335 0.278137 6.19376 0
M  V30 845 C 84.5885 -0.309117 4.9694 0
M  V30 846 C 83.2915 1.03133 7.11868 0
M  V30 847 C 85.3175 0.430607 5.8983 0
M  V30 848 C 84.6795 1.09355 6.9586 0
M  V30 849 H 80.7785 -0.326081 0.710771 0
M  V30 850 H 83.3625 -0.215914 1.93499 0
M  V30 851 H 81.5335 -2.52029 2.95527 0
M  V30 852 H 83.2655 -2.47848 3.19927 0
M  V30 853 H 80.0205 -1.04335 4.61964 0
M  V30 854 H 80.4445 0.479428 6.753 0
M  V30 855 H 85.0865 -0.807313 4.15021 0
M  V30 856 H 82.8045 1.54105 7.9327 0
M  V30 857 H 86.3905 0.499012 5.79656 0
M  V30 858 H 85.2705 1.65679 7.66499 0
M  V30 859 N 82.7736 -1.49793 -0.48987 0
M  V30 860 C 83.7066 -1.61898 -1.60823 0
M  V30 861 C 84.6846 -0.467651 -1.5573 0
M  V30 862 O 85.8686 -0.684682 -1.75626 0
M  V30 863 C 82.9956 -1.58422 -2.99366 0
M  V30 864 C 82.0416 -2.78889 -3.22682 0
M  V30 865 S 82.8746 -4.40429 -3.04602 0
M  V30 866 C 84.0306 -4.39617 -4.4552 0
M  V30 867 H 84.2636 -2.56502 -1.50312 0
M  V30 868 H 81.7966 -1.38822 -0.675849 0
M  V30 869 H 83.7546 -1.57103 -3.79248 0
M  V30 870 H 82.4156 -0.650866 -3.07283 0
M  V30 871 H 81.6086 -2.72708 -4.23847 0
M  V30 872 H 81.2106 -2.77678 -2.50541 0
M  V30 873 H 83.5026 -4.12022 -5.37814 0
M  V30 874 H 84.4456 -5.41097 -4.56749 0
M  V30 875 H 84.8536 -3.69554 -4.2672 0
M  V30 876 N 84.2517 0.741722 -1.39055 0
M  V30 877 C 85.6627 1.31966 -1.32068 0
M  V30 878 C 86.0137 1.96192 0.0180797 0
M  V30 879 O 85.1387 1.95861 0.920196 0
M  V30 880 C 85.7337 2.39954 -2.39181 0
M  V30 881 C 84.2927 2.93438 -2.35735 0
M  V30 882 C 83.4397 1.66936 -2.21422 0
M  V30 883 H 86.3907 0.539721 -1.4924 0
M  V30 884 H 86.4117 3.20182 -2.05581 0
M  V30 885 H 85.9237 1.9318 -3.36605 0
M  V30 886 H 84.0247 3.4451 -1.41929 0
M  V30 887 H 84.1377 3.4701 -3.30335 0
M  V30 888 H 82.5017 1.91016 -1.68478 0
M  V30 889 H 83.2847 1.22224 -3.20806 0
M  V30 890 N 85.7298 1.2412 0.971189 0
M  V30 891 C 86.9778 1.07668 1.71032 0
M  V30 892 C 87.2988 -0.385797 1.91146 0
M  V30 893 O 86.5688 -1.27569 1.4867 0
M  V30 894 H 85.1488 0.395429 0.633755 0
M  V30 895 H 87.8108 1.55984 1.16855 0
M  V30 896 H 86.9068 1.57195 2.69622 0
M  V30 897 N 87.2079 -1.17134 1.05439 0
M  V30 898 C 88.1379 -2.2342 0.678649 0
M  V30 899 C 89.1189 -1.66971 -0.32476 0
M  V30 900 O 90.3039 -1.93149 -0.201802 0
M  V30 901 C 87.4339 -3.47256 0.0552099 0
M  V30 902 C 86.3879 -4.16543 0.98365 0
M  V30 903 C 85.7139 -5.34231 0.223961 0
M  V30 904 C 87.0139 -4.68495 2.3089 0
M  V30 905 H 88.7079 -2.55105 1.56722 0
M  V30 906 H 86.2539 -1.2262 0.754998 0
M  V30 907 H 88.2069 -4.20828 -0.21946 0
M  V30 908 H 86.9309 -3.14846 -0.868319 0
M  V30 909 H 85.5899 -3.44887 1.24293 0
M  V30 910 H 85.2379 -4.98071 -0.702412 0
M  V30 911 H 84.9379 -5.81527 0.842627 0
M  V30 912 H 86.4619 -6.10585 -0.0433671 0
M  V30 913 H 87.8759 -5.33691 2.09396 0
M  V30 914 H 86.2729 -5.26379 2.88176 0
M  V30 915 H 87.3429 -3.85169 2.94572 0
M  V30 916 N 88.686 -0.835752 -1.33615 0
M  V30 917 C 89.634 -0.255238 -2.31195 0
M  V30 918 C 90.628 0.61107 -1.57995 0
M  V30 919 O 91.834 0.500979 -1.72888 0
M  V30 920 H 88.209 -0.0638085 -0.749288 0
M  V30 921 H 90.18 -1.09283 -2.77669 0
M  V30 922 C 88.929 0.55754 -3.43201 0
M  V30 923 H 88.252 -0.0997553 -3.99676 0
M  V30 924 H 89.692 0.929622 -4.13683 0
M  V30 925 C 88.151 1.73515 -2.88781 0
M  V30 926 O 88.681 2.83376 -2.84712 0
M  V30 927 N 86.887 1.55603 -2.4543 0
M  V30 928 H 86.434 0.662354 -2.48939 0
M  V30 929 H 86.392 2.34545 -2.09371 0
M  V30 930 N 90.1641 1.46063 -0.591896 0
M  V30 931 C 91.0741 2.34192 0.13831 0
M  V30 932 C 92.0901 1.50305 0.876608 0
M  V30 933 O 93.2661 1.8315 0.837728 0
M  V30 934 C 90.3311 3.27656 1.13326 0
M  V30 935 C 89.3921 4.27445 0.39863 0
M  V30 936 C 88.6251 5.16443 1.34618 0
M  V30 937 O 88.8481 5.08553 2.58321 0
M  V30 938 O 87.7821 5.95843 0.851768 0
M  V30 939 H 91.6081 2.98002 -0.58552 0
M  V30 940 H 89.1931 1.45188 -0.352239 0
M  V30 941 H 91.0751 3.85291 1.70671 0
M  V30 942 H 89.7501 2.6643 1.83839 0
M  V30 943 H 88.6571 3.73471 -0.216895 0
M  V30 944 H 89.9901 4.91482 -0.265709 0
M  V30 945 N 91.6422 0.330177 1.54103 0
M  V30 946 C 93.0582 -0.0222371 1.59585 0
M  V30 947 C 93.2582 -1.49902 1.34654 0
M  V30 948 O 92.3142 -2.25592 1.13421 0
M  V30 949 C 93.6272 0.401932 2.98002 0
M  V30 950 C 95.1752 0.353145 3.11001 0
M  V30 951 C 95.6502 0.752576 4.51775 0
M  V30 952 N 97.1412 0.706239 4.57784 0
M  V30 953 C 97.8762 0.987417 5.64834 0
M  V30 954 N 97.3722 1.33607 6.79795 0
M  V30 955 N 99.1652 0.91254 5.54643 0
M  V30 956 H 91.3162 1.29228 1.68564 0
M  V30 957 H 93.5792 0.525906 0.78875 0
M  V30 958 H 93.2852 1.4311 3.21267 0
M  V30 959 H 93.1592 -0.229699 3.765 0
M  V30 960 H 95.5462 -0.666822 2.87467 0
M  V30 961 H 95.6272 1.0198 2.34593 0
M  V30 962 H 95.2712 1.77049 4.76042 0
M  V30 963 H 95.2012 0.0635409 5.26562 0
M  V30 964 H 97.6922 0.44889 3.75224 0
M  V30 965 H 98.0052 1.53582 7.57385 0
M  V30 966 H 96.3502 1.37439 6.81275 0
M  V30 967 H 99.5412 0.639601 4.6371 0
M  V30 968 H 99.7142 1.13503 6.37982 0
M  V30 969 N 93.1203 -1.57491 0.0584922 0
M  V30 970 C 94.3483 -1.97296 -0.623037 0
M  V30 971 C 94.7633 -0.936338 -1.63946 0
M  V30 972 O 94.1203 0.0785981 -1.82331 0
M  V30 973 C 94.1713 -3.37183 -1.30345 0
M  V30 974 O 93.8923 -4.36872 -0.32773 0
M  V30 975 C 95.3933 -3.91788 -2.07406 0
M  V30 976 H 92.6133 -0.649153 -0.169826 0
M  V30 977 H 95.1573 -2.04106 0.12696 0
M  V30 978 H 93.3123 -3.31502 -2.00463 0
M  V30 979 H 93.7263 -5.18141 -0.814269 0
M  V30 980 H 95.2003 -4.91926 -2.50425 0
M  V30 981 H 95.6773 -3.27609 -2.92521 0
M  V30 982 H 96.2833 -4.00829 -1.42184 0
M  V30 983 N 94.5984 0.214957 -1.56127 0
M  V30 984 C 96.0144 0.564948 -1.49267 0
M  V30 985 C 96.2144 1.86827 -0.754838 0
M  V30 986 O 95.2704 2.50745 -0.297198 0
M  V30 987 C 96.5834 0.638071 -2.93852 0
M  V30 988 C 98.1314 0.728253 -3.0441 0
M  V30 989 C 98.6064 0.832663 -4.50367 0
M  V30 990 N 100.097 0.896712 -4.54437 0
M  V30 991 C 100.832 0.997324 -5.6466 0
M  V30 992 N 100.328 1.06147 -6.8462 0
M  V30 993 N 102.121 1.03297 -5.52527 0
M  V30 994 H 94.2724 -0.640211 -2.02522 0
M  V30 995 H 96.5354 -0.225507 -0.920788 0
M  V30 996 H 96.2414 -0.250126 -3.50809 0
M  V30 997 H 96.1154 1.49947 -3.46115 0
M  V30 998 H 98.5024 1.60689 -2.47514 0
M  V30 999 H 98.5834 -0.158952 -2.55306 0
M  V30 1000 H 98.2274 -0.0415417 -5.07883 0
M  V30 1001 H 98.1574 1.73538 -4.97184 0
M  V30 1002 H 100.648 0.857188 -3.6805 0
M  V30 1003 H 100.961 1.1382 -7.64372 0
M  V30 1004 H 99.3064 1.03049 -6.87318 0
M  V30 1005 H 102.497 0.979558 -4.57736 0
M  V30 1006 H 102.67 1.10793 -6.38458 0
M  V30 1007 N 96.0765 1.50051 0.48192 0
M  V30 1008 C 97.0085 1.64263 1.59844 0
M  V30 1009 C 98.0215 0.52451 1.54119 0
M  V30 1010 O 99.2105 0.797293 1.59704 0
M  V30 1011 C 96.3105 1.60102 2.98698 0
M  V30 1012 C 95.4835 2.87767 3.29407 0
M  V30 1013 C 94.5425 2.76397 4.47762 0
M  V30 1014 O 93.5685 3.50348 4.48603 0
M  V30 1015 N 94.7705 1.89222 5.48794 0
M  V30 1016 H 97.5355 2.60566 1.48073 0
M  V30 1017 H 95.0965 1.47379 0.670149 0
M  V30 1018 H 97.0885 1.50123 3.75826 0
M  V30 1019 H 95.6585 0.715798 3.04294 0
M  V30 1020 H 94.8785 3.11954 2.40994 0
M  V30 1021 H 96.1665 3.72365 3.4673 0
M  V30 1022 H 95.5645 1.28434 5.50928 0
M  V30 1023 H 94.1215 1.85154 6.24949 0
M  V30 1024 N 97.5546 -0.734337 1.39446 0
M  V30 1025 C 98.9706 -1.03997 1.21065 0
M  V30 1026 C 99.1706 -2.01369 0.0727019 0
M  V30 1027 O 98.2266 -2.45856 -0.575426 0
M  V30 1028 C 99.5396 -1.60163 2.54496 0
M  V30 1029 C 101.088 -1.7224 2.61347 0
M  V30 1030 C 101.563 -2.31814 3.95002 0
M  V30 1031 N 103.054 -2.39223 3.96644 0
M  V30 1032 C 103.789 -2.86258 4.96834 0
M  V30 1033 N 103.285 -3.33184 6.07421 0
M  V30 1034 N 105.078 -2.85473 4.84213 0
M  V30 1035 H 97.2286 -0.0885624 2.12215 0
M  V30 1036 H 99.4916 -0.10191 0.942506 0
M  V30 1037 H 99.1976 -0.960811 3.38321 0
M  V30 1038 H 99.0716 -2.5896 2.74262 0
M  V30 1039 H 101.459 -2.35443 1.77906 0
M  V30 1040 H 101.54 -0.720939 2.4543 0
M  V30 1041 H 101.184 -1.69238 4.78875 0
M  V30 1042 H 101.114 -3.32638 4.08239 0
M  V30 1043 H 103.605 -2.06057 3.16779 0
M  V30 1044 H 103.918 -3.67586 6.7978 0
M  V30 1045 H 102.263 -3.31191 6.11013 0
M  V30 1046 H 105.454 -2.48136 3.96921 0
M  V30 1047 H 105.627 -3.21814 5.62441 0
M  V30 1048 N 99.0327 -1.24633 -0.964593 0
M  V30 1049 C 100.281 -1.08573 -1.70459 0
M  V30 1050 C 100.602 0.375655 -1.91347 0
M  V30 1051 O 99.8717 1.26779 -1.49345 0
M  V30 1052 H 98.4517 -0.398784 -0.631649 0
M  V30 1053 H 101.114 -1.56601 -1.16026 0
M  V30 1054 H 100.21 -1.58623 -2.68785 0
M  V30 1055 N 100.511 1.16574 -1.06058 0
M  V30 1056 C 101.788 1.83048 -0.689416 0
M  V30 1057 C 102.168 1.94122 0.829443 0
M  V30 1058 O 101.516 1.48249 1.7388 0
M  V30 1059 C 101.726 3.20186 -1.38859 0
M  V30 1060 C 103.074 3.95989 -1.53226 0
M  V30 1061 O 104.098 3.29696 -1.3483 0
M  V30 1062 O 102.957 5.14813 -1.83384 0
M  V30 1063 H 100.051 0.790258 -0.243764 0
M  V30 1064 H 102.597 1.23797 -1.16071 0
M  V30 1065 H 101.369 3.07146 -2.4244 0
M  V30 1066 H 100.992 3.87112 -0.907216 0
M  V30 1067 N 101.989 0.842826 1.3317 0
M  V30 1068 C 103.236 0.440447 1.97652 0
M  V30 1069 C 103.564 -1.00123 1.6675 0
M  V30 1070 O 102.819 -1.7155 0.941761 0
M  V30 1071 C 103.118 0.612607 3.52111 0
M  V30 1072 C 102.784 2.02297 4.02972 0
M  V30 1073 C 101.446 2.40874 4.16573 0
M  V30 1074 C 103.798 2.94402 4.30089 0
M  V30 1075 C 101.126 3.70852 4.54627 0
M  V30 1076 C 103.478 4.23865 4.69597 0
M  V30 1077 C 102.142 4.62392 4.81404 0
M  V30 1078 H 101.412 0.161171 0.72326 0
M  V30 1079 H 104.059 1.07061 1.58777 0
M  V30 1080 H 102.364 -0.100849 3.9167 0
M  V30 1081 H 104.061 0.2815 4.00011 0
M  V30 1082 H 100.651 1.71338 3.92863 0
M  V30 1083 H 104.835 2.65835 4.19101 0
M  V30 1084 H 100.091 4.00501 4.61962 0
M  V30 1085 H 104.265 4.95306 4.89536 0
M  V30 1086 H 101.892 5.63154 5.10648 0
M  V30 1087 N 103.467 -1.45747 0.599634 0
M  V30 1088 C 104.878 -1.85853 0.177681 0
M  V30 1089 C 105.229 -1.50102 -1.26348 0
M  V30 1090 O 104.354 -0.923905 -1.95686 0
M  V30 1091 C 104.949 -3.37326 0.315688 0
M  V30 1092 C 103.508 -3.76365 -0.0515144 0
M  V30 1093 C 102.655 -2.69722 0.643822 0
M  V30 1094 H 105.606 -1.36661 0.806814 0
M  V30 1095 H 105.627 -3.77778 -0.454321 0
M  V30 1096 H 105.139 -3.63315 1.36468 0
M  V30 1097 H 103.24 -3.55993 -1.09999 0
M  V30 1098 H 103.353 -4.77916 0.336594 0
M  V30 1099 H 101.717 -2.54567 0.0822881 0
M  V30 1100 H 102.5 -2.98549 1.6948 0
M  V30 1101 N 104.945 -0.338344 -1.53925 0
M  V30 1102 C 106.193 0.259245 -2.0043 0
M  V30 1103 C 106.514 1.51484 -1.22791 0
M  V30 1104 O 105.784 1.93037 -0.33368 0
M  V30 1105 H 104.364 0.0987845 -0.740439 0
M  V30 1106 H 107.026 -0.458302 -1.89435 0
M  V30 1107 H 106.122 0.505334 -3.07982 0
M  V30 1108 N 106.423 1.57458 -0.0668435 0
M  V30 1109 C 107.651 1.97624 0.612565 0
M  V30 1110 C 108.066 0.94502 1.63447 0
M  V30 1111 O 107.423 -0.0689276 1.8237 0
M  V30 1112 C 107.474 3.37869 1.28555 0
M  V30 1113 O 107.195 4.3704 0.304557 0
M  V30 1114 C 108.696 3.92882 2.05325 0
M  V30 1115 H 105.916 0.650045 0.166381 0
M  V30 1116 H 108.46 2.04035 -0.137782 0
M  V30 1117 H 106.615 3.3256 1.98702 0
M  V30 1118 H 107.029 5.18565 0.786779 0
M  V30 1119 H 108.503 4.93247 2.47812 0
M  V30 1120 H 108.98 3.29156 2.9078 0
M  V30 1121 H 109.586 4.01577 1.40056 0
M  V30 1122 N 107.901 -0.206675 1.56239 0
M  V30 1123 C 109.131 -0.943975 1.83773 0
M  V30 1124 C 109.539 -1.77841 0.645703 0
M  V30 1125 O 108.882 -1.79403 -0.395008 0
M  V30 1126 C 108.944 -1.899 3.05251 0
M  V30 1127 C 108.608 -1.24764 4.39639 0
M  V30 1128 C 109.605 -0.630216 5.16066 0
M  V30 1129 C 107.29 -1.25496 4.8637 0
M  V30 1130 C 109.284 -0.0287946 6.37393 0
M  V30 1131 C 106.971 -0.649698 6.07637 0
M  V30 1132 C 107.969 -0.0376845 6.8299 0
M  V30 1133 O 107.657 0.55812 8.0196 0
M  V30 1134 H 107.389 -0.281508 0.614597 0
M  V30 1135 H 109.943 -0.222458 2.04192 0
M  V30 1136 H 108.173 -2.6599 2.80689 0
M  V30 1137 H 109.862 -2.5031 3.1953 0
M  V30 1138 H 110.628 -0.616785 4.81062 0
M  V30 1139 H 106.507 -1.72072 4.27683 0
M  V30 1140 H 110.051 0.449518 6.9615 0
M  V30 1141 H 105.948 -0.660592 6.42111 0
M  V30 1142 H 106.716 0.453891 8.17241 0
M  V30 1143 N 109.379 -1.50304 -0.473955 0
M  V30 1144 C 110.625 -1.61389 -1.22806 0
M  V30 1145 C 110.958 -0.311955 -1.91678 0
M  V30 1146 O 110.233 0.686384 -1.81986 0
M  V30 1147 C 110.516 -2.79219 -2.27396 0
M  V30 1148 C 110.369 -4.19286 -1.62848 0
M  V30 1149 C 111.688 -2.92614 -3.28732 0
M  V30 1150 H 108.807 -0.587399 -0.445119 0
M  V30 1151 H 111.449 -1.82681 -0.522265 0
M  V30 1152 H 109.599 -2.61195 -2.87592 0
M  V30 1153 H 111.271 -4.48892 -1.06271 0
M  V30 1154 H 109.514 -4.23677 -0.931693 0
M  V30 1155 H 110.185 -4.97655 -2.38838 0
M  V30 1156 H 112.661 -3.09105 -2.78556 0
M  V30 1157 H 111.537 -3.76688 -3.99246 0
M  V30 1158 H 111.798 -2.03107 -3.92683 0
M  V30 1159 N 110.857 0.726932 -1.39834 0
M  V30 1160 C 111.767 1.87131 -1.41489 0
M  V30 1161 C 112.783 1.71239 -0.308757 0
M  V30 1162 O 113.959 1.93701 -0.551529 0
M  V30 1163 C 111.024 3.22811 -1.26468 0
M  V30 1164 C 110.085 3.51039 -2.47124 0
M  V30 1165 C 109.318 4.80245 -2.3281 0
M  V30 1166 O 109.541 5.54537 -1.33585 0
M  V30 1167 O 108.475 5.08554 -3.21957 0
M  V30 1168 H 112.301 1.8869 -2.3797 0
M  V30 1169 H 109.886 0.875837 -1.21035 0
M  V30 1170 H 111.768 4.03877 -1.20255 0
M  V30 1171 H 110.443 3.22005 -0.330862 0
M  V30 1172 H 109.35 2.70027 -2.58914 0
M  V30 1173 H 110.683 3.56632 -3.39227 0
M  V30 1174 N 112.336 1.25143 0.95797 0
M  V30 1175 C 113.583 1.09692 1.70217 0
M  V30 1176 C 113.911 -0.362654 1.91089 0
M  V30 1177 O 113.166 -1.28386 1.47701 0
M  V30 1178 C 113.465 1.79272 3.09187 0
M  V30 1179 C 113.131 3.29196 3.08125 0
M  V30 1180 C 111.793 3.70096 3.07543 0
M  V30 1181 C 114.145 4.24995 3.0171 0
M  V30 1182 C 111.473 5.05213 2.9829 0
M  V30 1183 C 113.825 5.60132 2.93999 0
M  V30 1184 C 112.489 6.00365 2.9175 0
M  V30 1185 H 111.759 0.401393 0.622868 0
M  V30 1186 H 114.406 1.55372 1.11945 0
M  V30 1187 H 112.711 1.26014 3.70982 0
M  V30 1188 H 114.408 1.64773 3.65583 0
M  V30 1189 H 110.998 2.96651 3.09348 0
M  V30 1190 H 115.182 3.9439 3.01281 0
M  V30 1191 H 110.438 5.35569 2.94916 0
M  V30 1192 H 114.612 6.3406 2.87996 0
M  V30 1193 H 112.239 7.05023 2.84336 0
M  V30 1194 N 113.814 -1.1601 1.06675 0
M  V30 1195 C 114.744 -2.22688 0.702307 0
M  V30 1196 C 115.725 -1.67306 -0.307032 0
M  V30 1197 O 116.91 -1.93352 -0.181305 0
M  V30 1198 C 114.04 -3.47178 0.092038 0
M  V30 1199 C 112.994 -4.15477 1.02777 0
M  V30 1200 C 112.32 -5.33963 0.28061 0
M  V30 1201 C 113.62 -4.66019 2.35846 0
M  V30 1202 H 115.314 -2.53429 1.59419 0
M  V30 1203 H 112.86 -1.21813 0.767961 0
M  V30 1204 H 114.813 -4.21037 -0.174814 0
M  V30 1205 H 113.537 -3.15749 -0.834877 0
M  V30 1206 H 112.196 -3.43549 1.27944 0
M  V30 1207 H 111.844 -4.98788 -0.649545 0
M  V30 1208 H 111.544 -5.806 0.904258 0
M  V30 1209 H 113.068 -6.10596 0.021396 0
M  V30 1210 H 114.482 -5.3144 2.15045 0
M  V30 1211 H 112.879 -5.23293 2.93743 0
M  V30 1212 H 113.949 -3.82023 2.98641 0
M  V30 1213 N 115.292 -0.849877 -1.32721 0
M  V30 1214 C 116.54 -0.450032 -1.97026 0
M  V30 1215 C 116.861 0.996604 -1.67609 0
M  V30 1216 O 116.131 1.6958 -0.980786 0
M  V30 1217 H 114.711 -0.163426 -0.728904 0
M  V30 1218 H 117.373 -1.08526 -1.6189 0
M  V30 1219 H 116.469 -0.591146 -3.0645 0
M  V30 1220 N 116.77 1.45427 -0.607355 0
M  V30 1221 C 118.181 1.85756 -0.187535 0
M  V30 1222 C 118.532 1.5077 1.25551 0
M  V30 1223 O 117.657 0.93427 1.95193 0
M  V30 1224 C 118.252 3.37154 -0.333572 0
M  V30 1225 C 116.811 3.76387 0.0315542 0
M  V30 1226 C 115.958 2.69377 -0.658117 0
M  V30 1227 H 118.909 1.36231 -0.81405 0
M  V30 1228 H 118.93 3.78014 0.43428 0
M  V30 1229 H 118.442 3.62586 -1.38393 0
M  V30 1230 H 116.543 3.56571 1.0811 0
M  V30 1231 H 116.656 4.77731 -0.361935 0
M  V30 1232 H 115.02 2.5452 -0.0957873 0
M  V30 1233 H 115.803 2.97646 -1.7106 0
M  V30 1234 N 118.248 0.346503 1.53744 0
M  V30 1235 C 119.494 -0.249473 2.0126 0
M  V30 1236 C 119.827 -1.49965 1.23386 0
M  V30 1237 O 119.102 -1.91811 0.32229 0
M  V30 1238 C 119.385 -0.560643 3.55709 0
M  V30 1239 C 119.238 0.701836 4.44291 0
M  V30 1240 C 120.557 -1.36905 4.18264 0
M  V30 1241 H 117.676 -0.0891987 0.731582 0
M  V30 1242 H 120.318 0.467624 1.84156 0
M  V30 1243 H 118.468 -1.17156 3.70414 0
M  V30 1244 H 120.14 1.33974 4.41417 0
M  V30 1245 H 118.383 1.32612 4.13033 0
M  V30 1246 H 119.054 0.43933 5.50249 0
M  V30 1247 H 121.53 -0.852448 4.07275 0
M  V30 1248 H 120.406 -1.55553 5.26398 0
M  V30 1249 H 120.667 -2.37203 3.73078 0
M  V30 1250 N 119.726 -1.57421 0.075193 0
M  V30 1251 C 120.689 -2.11791 -0.876203 0
M  V30 1252 C 121.689 -1.04268 -1.22412 0
M  V30 1253 O 122.879 -1.30242 -1.15684 0
M  V30 1254 C 120.011 -2.62207 -2.17854 0
M  V30 1255 H 121.204 -2.9716 -0.40444 0
M  V30 1256 H 118.757 -1.55333 -0.173557 0
M  V30 1257 H 119.492 -1.803 -2.6956 0
M  V30 1258 H 119.277 -3.40802 -1.93897 0
M  V30 1259 H 120.767 -3.04335 -2.85955 0
M  V30 1260 N 121.204 0.198386 -1.56346 0
M  V30 1261 C 122.134 1.24865 -1.9731 0
M  V30 1262 C 123.115 1.47651 -0.844576 0
M  V30 1263 O 124.3 1.59444 -1.10866 0
M  V30 1264 C 121.43 2.59358 -2.30977 0
M  V30 1265 C 120.384 2.5119 -3.46537 0
M  V30 1266 C 119.71 3.89926 -3.65871 0
M  V30 1267 C 121.01 2.03977 -4.80823 0
M  V30 1268 H 122.704 0.908252 -2.85291 0
M  V30 1269 H 120.25 0.435462 -1.37258 0
M  V30 1270 H 122.203 3.33011 -2.58228 0
M  V30 1271 H 120.927 2.95132 -1.39874 0
M  V30 1272 H 119.586 1.79993 -3.19371 0
M  V30 1273 H 119.234 4.23046 -2.72105 0
M  V30 1274 H 118.934 3.85336 -4.4361 0
M  V30 1275 H 120.458 4.65205 -3.95495 0
M  V30 1276 H 121.872 2.67386 -5.07127 0
M  V30 1277 H 120.269 2.10397 -5.62008 0
M  V30 1278 H 121.339 0.992861 -4.74626 0
M  V30 1279 N 122.682 1.50554 0.465978 0
M  V30 1280 C 123.645 1.69233 1.54574 0
M  V30 1281 C 124.645 0.562901 1.50626 0
M  V30 1282 O 125.835 0.830016 1.53155 0
M  V30 1283 C 122.967 1.7223 2.94193 0
M  V30 1284 H 124.16 2.65571 1.39327 0
M  V30 1285 H 121.713 1.40111 0.692711 0
M  V30 1286 H 122.448 0.77603 3.14878 0
M  V30 1287 H 122.233 2.54285 2.98466 0
M  V30 1288 H 123.723 1.88618 3.72576 0
M  V30 1289 N 124.16 -0.719506 1.40217 0
M  V30 1290 C 125.576 -1.02707 1.22161 0
M  V30 1291 C 125.776 -2.0128 0.0940557 0
M  V30 1292 O 124.832 -2.46452 -0.549318 0
M  V30 1293 C 126.145 -1.57454 2.56181 0
M  V30 1294 C 127.693 -1.69458 2.63159 0
M  V30 1295 C 128.168 -2.27611 3.97438 0
M  V30 1296 N 129.659 -2.35002 3.99159 0
M  V30 1297 C 130.394 -2.80972 4.99842 0
M  V30 1298 N 129.89 -3.26723 6.10921 0
M  V30 1299 N 131.683 -2.80321 4.87213 0
M  V30 1300 H 123.834 -0.0660492 2.12297 0
M  V30 1301 H 126.097 -0.0919077 0.943534 0
M  V30 1302 H 125.803 -0.924873 3.39321 0
M  V30 1303 H 125.677 -2.56036 2.76993 0
M  V30 1304 H 128.064 -2.33543 1.80393 0
M  V30 1305 H 128.145 -0.694867 2.46181 0
M  V30 1306 H 127.789 -1.6415 4.80643 0
M  V30 1307 H 127.719 -3.2829 4.11744 0
M  V30 1308 H 130.21 -2.02685 3.18947 0
M  V30 1309 H 130.523 -3.60355 6.8364 0
M  V30 1310 H 128.868 -3.24692 6.14492 0
M  V30 1311 H 132.059 -2.43912 3.9953 0
M  V30 1312 H 132.232 -3.15831 5.65822 0
M  V30 1313 N 125.638 -1.25649 -0.95132 0
M  V30 1314 C 127.049 -1.09654 -1.51106 0
M  V30 1315 C 127.4 0.326615 -1.93462 0
M  V30 1316 O 126.525 1.21697 -1.78938 0
M  V30 1317 C 127.12 -1.98437 -2.74605 0
M  V30 1318 C 125.679 -1.86618 -3.2688 0
M  V30 1319 C 124.826 -1.9239 -1.99703 0
M  V30 1320 H 127.777 -1.38887 -0.767865 0
M  V30 1321 H 127.798 -1.5263 -3.48546 0
M  V30 1322 H 127.31 -3.02009 -2.43746 0
M  V30 1323 H 125.411 -0.859421 -3.62553 0
M  V30 1324 H 125.524 -2.71607 -3.94673 0
M  V30 1325 H 123.888 -1.36317 -2.15151 0
M  V30 1326 H 124.671 -2.97573 -1.71188 0
M  V30 1327 N 127.117 1.15442 -1.07289 0
M  V30 1328 C 128.365 1.85845 -0.794096 0
M  V30 1329 C 128.686 1.82692 0.681809 0
M  V30 1330 O 127.956 1.26741 1.49377 0
M  V30 1331 H 126.536 0.688089 -0.290763 0
M  V30 1332 H 129.198 1.39947 -1.3565 0
M  V30 1333 H 128.294 2.91001 -1.12804 0
M  V30 1334 N 128.595 0.856903 1.32268 0
M  V30 1335 C 130.006 0.515711 1.79436 0
M  V30 1336 C 130.357 -0.966586 1.70738 0
M  V30 1337 O 129.482 -1.75409 1.26731 0
M  V30 1338 C 130.077 0.929335 3.25805 0
M  V30 1339 C 128.636 0.640006 3.70919 0
M  V30 1340 C 127.783 1.12784 2.53328 0
M  V30 1341 H 130.734 1.04389 1.19535 0
M  V30 1342 H 130.755 0.246633 3.797 0
M  V30 1343 H 130.267 2.00821 3.32103 0
M  V30 1344 H 128.368 -0.428051 3.70133 0
M  V30 1345 H 128.481 1.20788 4.63624 0
M  V30 1346 H 126.845 0.548033 2.48734 0
M  V30 1347 H 127.628 2.21387 2.62379 0
M  V30 1348 N 130.073 -1.45103 0.615059 0
M  V30 1349 C 131.489 -1.57137 0.279322 0
M  V30 1350 C 131.689 -1.60523 -1.21797 0
M  V30 1351 O 130.745 -1.53956 -2.00134 0
M  V30 1352 C 132.058 -2.85062 0.957083 0
M  V30 1353 C 133.606 -2.98749 0.933706 0
M  V30 1354 C 134.081 -4.29455 1.59162 0
M  V30 1355 N 135.572 -4.36231 1.55746 0
M  V30 1356 C 136.307 -5.36051 2.0356 0
M  V30 1357 N 135.803 -6.42367 2.59494 0
M  V30 1358 N 137.596 -5.27456 1.94284 0
M  V30 1359 H 129.747 -1.41148 1.58717 0
M  V30 1360 H 132.01 -0.675331 0.665306 0
M  V30 1361 H 131.716 -2.88488 2.01166 0
M  V30 1362 H 131.59 -3.7407 0.48494 0
M  V30 1363 H 133.977 -2.94886 -0.112347 0
M  V30 1364 H 134.058 -2.11132 1.44419 0
M  V30 1365 H 133.702 -4.34077 2.63704 0
M  V30 1366 H 133.632 -5.15901 1.0561 0
M  V30 1367 H 136.123 -3.60011 1.14893 0
M  V30 1368 H 136.436 -7.14793 2.93752 0
M  V30 1369 H 134.781 -6.43097 2.63537 0
M  V30 1370 H 137.972 -4.43308 1.5032 0
M  V30 1371 H 138.145 -6.05099 2.3186 0
M  V30 1372 N 131.551 -0.354651 -1.53558 0
M  V30 1373 C 132.962 0.126902 -1.86268 0
M  V30 1374 C 133.313 1.49075 -1.27558 0
M  V30 1375 O 132.438 2.08105 -0.5934 0
M  V30 1376 C 133.033 0.237046 -3.3797 0
M  V30 1377 C 131.592 0.662842 -3.70518 0
M  V30 1378 C 130.739 -0.196652 -2.76602 0
M  V30 1379 H 133.69 -0.573849 -1.47962 0
M  V30 1380 H 133.711 1.06259 -3.65362 0
M  V30 1381 H 133.223 -0.755725 -3.80671 0
M  V30 1382 H 131.324 1.66424 -3.33367 0
M  V30 1383 H 131.437 0.445034 -4.77029 0
M  V30 1384 H 129.801 0.332763 -2.52517 0
M  V30 1385 H 130.584 -1.18676 -3.22135 0
M  V30 1386 N 133.029 1.57378 -0.0835403 0
M  V30 1387 C 134.445 1.57246 0.273109 0
M  V30 1388 C 134.645 1.09385 1.69225 0
M  V30 1389 O 133.701 0.765051 2.40631 0
M  V30 1390 C 135.014 3.00614 0.0720628 0
M  V30 1391 C 136.562 3.12684 0.1407 0
M  V30 1392 C 137.037 4.57989 -0.0322094 0
M  V30 1393 N 138.528 4.63194 0.0230085 0
M  V30 1394 C 139.263 5.73335 -0.0861941 0
M  V30 1395 N 138.759 6.9235 -0.24958 0
M  V30 1396 N 140.552 5.62093 -0.0282886 0
M  V30 1397 H 132.703 1.86801 -1.0109 0
M  V30 1398 H 134.966 0.861687 -0.395222 0
M  V30 1399 H 134.672 3.39786 -0.907662 0
M  V30 1400 H 134.546 3.68193 0.81936 0
M  V30 1401 H 136.933 2.73391 1.11092 0
M  V30 1402 H 137.014 2.47719 -0.637896 0
M  V30 1403 H 136.658 4.97973 -0.999247 0
M  V30 1404 H 136.588 5.21 0.765937 0
M  V30 1405 H 139.079 3.77613 0.14722 0
M  V30 1406 H 139.392 7.72117 -0.324733 0
M  V30 1407 H 137.737 6.94415 -0.285097 0
M  V30 1408 H 140.928 4.67997 0.0981408 0
M  V30 1409 H 141.101 6.47895 -0.116845 0
M  V30 1410 N 134.507 -0.190092 1.56449 0
M  V30 1411 C 135.755 -0.907908 1.80559 0
M  V30 1412 C 136.076 -1.83583 0.657438 0
M  V30 1413 O 135.346 -1.93203 -0.323924 0
M  V30 1414 H 133.926 -0.338247 0.666032 0
M  V30 1415 H 136.588 -0.194403 1.93928 0
M  V30 1416 H 135.684 -1.49604 2.73907 0
M  V30 1417 N 135.985 -1.50799 -0.457987 0
M  V30 1418 C 137.396 -1.55152 -1.0385 0
M  V30 1419 C 137.747 -0.362719 -1.92818 0
M  V30 1420 O 136.872 0.522915 -2.09987 0
M  V30 1421 C 137.467 -2.81173 -1.89017 0
M  V30 1422 C 136.026 -2.88164 -2.42154 0
M  V30 1423 C 135.173 -2.49591 -1.20829 0
M  V30 1424 H 138.124 -1.56874 -0.240068 0
M  V30 1425 H 138.145 -2.63769 -2.74238 0
M  V30 1426 H 137.657 -3.67677 -1.24238 0
M  V30 1427 H 135.758 -2.06042 -3.10447 0
M  V30 1428 H 135.871 -3.91356 -2.76364 0
M  V30 1429 H 134.235 -2.02322 -1.54719 0
M  V30 1430 H 135.018 -3.38418 -0.576927 0
M  V30 1431 N 137.463 0.71206 -1.40597 0
M  V30 1432 C 138.879 1.02058 -1.22704 0
M  V30 1433 C 139.079 2.01228 -0.104729 0
M  V30 1434 O 138.135 2.4674 0.53624 0
M  V30 1435 C 139.448 1.56094 -2.57012 0
M  V30 1436 C 140.996 1.6806 -2.64054 0
M  V30 1437 C 141.471 2.25501 -3.9864 0
M  V30 1438 N 142.962 2.32882 -4.004 0
M  V30 1439 C 143.697 2.78317 -5.01325 0
M  V30 1440 N 143.193 3.23478 -6.12645 0
M  V30 1441 N 144.986 2.77733 -4.88693 0
M  V30 1442 H 137.137 0.0547896 -2.12329 0
M  V30 1443 H 139.4 0.0869027 -0.944008 0
M  V30 1444 H 139.106 0.906865 -3.39807 0
M  V30 1445 H 138.98 2.54564 -2.78347 0
M  V30 1446 H 141.367 2.32583 -1.81629 0
M  V30 1447 H 141.448 0.681802 -2.46546 0
M  V30 1448 H 141.092 1.61598 -4.81506 0
M  V30 1449 H 141.022 3.26102 -4.13479 0
M  V30 1450 H 143.513 2.00991 -3.20017 0
M  V30 1451 H 143.826 3.56725 -6.85542 0
M  V30 1452 H 142.171 3.21429 -6.16205 0
M  V30 1453 H 145.362 2.4179 -4.00818 0
M  V30 1454 H 145.535 3.12826 -5.67489 0
M  V30 1455 N 138.941 1.26152 0.944643 0
M  V30 1456 C 140.352 1.10454 1.50522 0
M  V30 1457 C 140.703 -0.31635 1.93633 0
M  V30 1458 O 139.828 -1.20746 1.79581 0
M  V30 1459 C 140.423 1.99891 2.73549 0
M  V30 1460 C 138.982 1.88348 3.25886 0
M  V30 1461 C 138.129 1.93447 1.9868 0
M  V30 1462 H 141.08 1.39292 0.760489 0
M  V30 1463 H 141.101 1.54477 3.47732 0
M  V30 1464 H 140.613 3.03297 2.42141 0
M  V30 1465 H 138.714 0.878636 3.62092 0
M  V30 1466 H 138.827 2.73696 3.93227 0
M  V30 1467 H 137.191 1.37456 2.14425 0
M  V30 1468 H 137.974 2.98476 1.69607 0
M  V30 1469 N 140.419 -1.14872 1.07899 0
M  V30 1470 C 141.349 -2.2193 0.725887 0
M  V30 1471 C 142.33 -1.67622 -0.28927 0
M  V30 1472 O 143.515 -1.93533 -0.160787 0
M  V30 1473 C 140.645 -3.47061 0.128856 0
M  V30 1474 C 139.599 -4.14363 1.07178 0
M  V30 1475 C 138.925 -5.33636 0.337229 0
M  V30 1476 C 140.225 -4.63492 2.40775 0
M  V30 1477 H 141.919 -2.51724 1.62097 0
M  V30 1478 H 139.465 -1.20991 0.780838 0
M  V30 1479 H 141.418 -4.21199 -0.130147 0
M  V30 1480 H 140.142 -3.16617 -0.80134 0
M  V30 1481 H 138.801 -3.42173 1.3158 0
M  V30 1482 H 138.449 -4.99449 -0.596606 0
M  V30 1483 H 138.149 -5.79609 0.965788 0
M  V30 1484 H 139.673 -6.10539 0.0861567 0
M  V30 1485 H 141.087 -5.2913 2.20669 0
M  V30 1486 H 139.484 -5.20148 2.99276 0
M  V30 1487 H 140.554 -3.78834 3.02676 0
M  V30 1488 N 141.898 -0.863906 -1.31812 0
M  V30 1489 C 143.309 -0.52522 -1.7916 0
M  V30 1490 C 143.66 0.957518 -1.71248 0
M  V30 1491 O 142.785 1.74734 -1.27659 0
M  V30 1492 C 143.38 -0.9466 -3.25307 0
M  V30 1493 C 141.939 -0.659668 -3.70574 0
M  V30 1494 C 141.086 -1.14126 -2.52726 0
M  V30 1495 H 144.037 -1.05022 -1.1898 0
M  V30 1496 H 144.058 -0.266766 -3.79564 0
M  V30 1497 H 143.57 -2.02579 -3.31034 0
M  V30 1498 H 141.671 0.408416 -3.70355 0
M  V30 1499 H 141.784 -1.23245 -4.62977 0
M  V30 1500 H 140.148 -0.561216 -2.4844 0
M  V30 1501 H 140.931 -2.22775 -2.61201 0
M  V30 1502 N 143.376 1.44774 -0.622745 0
M  V30 1503 C 144.339 2.29069 0.0774015 0
M  V30 1504 C 145.339 1.4059 0.780461 0
M  V30 1505 O 146.529 1.62551 0.626322 0
M  V30 1506 C 143.661 3.21974 1.12006 0
M  V30 1507 H 144.854 2.92459 -0.663901 0
M  V30 1508 H 142.407 1.51548 -0.382486 0
M  V30 1509 H 143.142 2.63417 1.89162 0
M  V30 1510 H 142.927 3.87168 0.619951 0
M  V30 1511 H 144.417 3.85318 1.60995 0
M  V30 1512 N 144.854 0.36279 1.53368 0
M  V30 1513 C 146.27 0.0116182 1.59596 0
M  V30 1514 C 146.47 -1.47012 1.37803 0
M  V30 1515 O 145.526 -2.23136 1.18181 0
M  V30 1516 C 146.839 0.465052 2.97082 0
M  V30 1517 C 148.387 0.419033 3.10182 0
M  V30 1518 C 148.862 0.848235 4.50077 0
M  V30 1519 N 150.353 0.803183 4.56183 0
M  V30 1520 C 151.088 1.107 5.62613 0
M  V30 1521 N 150.584 1.47996 6.76808 0
M  V30 1522 N 152.377 1.02998 5.52583 0
M  V30 1523 H 144.528 1.32775 1.65785 0
M  V30 1524 H 146.791 0.542518 0.777417 0
M  V30 1525 H 146.497 1.49892 3.18159 0
M  V30 1526 H 146.371 -0.149786 3.76902 0
M  V30 1527 H 148.758 -0.605696 2.88817 0
M  V30 1528 H 148.839 1.06933 2.32377 0
M  V30 1529 H 148.483 1.87107 4.7218 0
M  V30 1530 H 148.413 0.175218 5.26308 0
M  V30 1531 H 150.904 0.52838 3.74188 0
M  V30 1532 H 151.217 1.69613 7.53957 0
M  V30 1533 H 149.562 1.51859 6.78206 0
M  V30 1534 H 152.753 0.737817 4.62249 0
M  V30 1535 H 152.926 1.2701 6.35431 0
M  V30 1536 N 146.332 -1.57332 0.0918853 0
M  V30 1537 C 147.743 -1.81496 -0.437739 0
M  V30 1538 C 148.094 -1.00727 -1.6837 0
M  V30 1539 O 147.219 -0.235694 -2.15113 0
M  V30 1540 C 147.814 -3.29197 -0.800939 0
M  V30 1541 C 146.373 -3.54136 -1.27532 0
M  V30 1542 C 145.52 -2.75979 -0.270392 0
M  V30 1543 H 148.471 -1.55494 0.317366 0
M  V30 1544 H 148.492 -3.42344 -1.66074 0
M  V30 1545 H 148.004 -3.87955 0.106078 0
M  V30 1546 H 146.105 -3.00705 -2.20016 0
M  V30 1547 H 146.218 -4.62792 -1.23938 0
M  V30 1548 H 144.582 -2.43349 -0.751872 0
M  V30 1549 H 145.365 -3.37484 0.629248 0
M  V30 1550 N 147.81 0.181792 -1.56548 0
M  V30 1551 C 149.226 0.53316 -1.50431 0
M  V30 1552 C 149.426 1.85184 -0.794297 0
M  V30 1553 O 148.482 2.50058 -0.350318 0
M  V30 1554 C 149.795 0.575597 -2.9514 0
M  V30 1555 C 151.343 0.663519 -3.05886 0
M  V30 1556 C 151.818 0.736946 -4.52032 0
M  V30 1557 N 153.309 0.800118 -4.56237 0
M  V30 1558 C 154.044 0.877327 -5.66649 0
M  V30 1559 N 153.54 0.916016 -6.86718 0
M  V30 1560 N 155.333 0.915542 -5.54594 0
M  V30 1561 H 147.484 -0.683025 -2.01118 0
M  V30 1562 H 149.747 -0.244988 -0.915797 0
M  V30 1563 H 149.453 -0.324482 -3.502 0
M  V30 1564 H 149.327 1.42572 -3.49218 0
M  V30 1565 H 151.714 1.55403 -2.50867 0
M  V30 1566 H 151.795 -0.21307 -2.54911 0
M  V30 1567 H 151.439 -0.149262 -5.07681 0
M  V30 1568 H 151.369 1.62953 -5.00753 0
M  V30 1569 H 153.86 0.778926 -3.69785 0
M  V30 1570 H 154.173 0.975813 -7.66614 0
M  V30 1571 H 152.518 0.884469 -6.89349 0
M  V30 1572 H 155.709 0.882245 -4.59711 0
M  V30 1573 H 155.882 0.972253 -6.40665 0
M  V30 1574 N 149.288 1.51039 0.449983 0
M  V30 1575 C 150.565 1.53612 1.21089 0
M  V30 1576 C 150.945 0.292997 2.09057 0
M  V30 1577 O 150.293 -0.72259 2.16774 0
M  V30 1578 C 150.503 2.84337 2.0237 0
M  V30 1579 C 151.851 3.35807 2.59843 0
M  V30 1580 O 152.875 2.85802 2.12593 0
M  V30 1581 O 151.734 4.23029 3.45989 0
M  V30 1582 H 148.828 0.617057 0.550608 0
M  V30 1583 H 151.374 1.63344 0.460082 0
M  V30 1584 H 150.146 3.66278 1.37681 0
M  V30 1585 H 149.769 2.77708 2.84542 0
M  V30 1586 N 150.766 -0.704594 1.40972 0
M  V30 1587 C 152.014 -1.46169 1.39568 0
M  V30 1588 C 152.335 -1.95 0.00253745 0
M  V30 1589 O 151.605 -1.71095 -0.954114 0
M  V30 1590 H 150.185 -0.542326 0.513704 0
M  V30 1591 H 152.847 -0.834553 1.76128 0
M  V30 1592 H 151.943 -2.32922 2.07735 0
M  V30 1593 N 152.244 -1.26651 -0.937939 0
M  V30 1594 C 153.207 -1.08546 -2.01867 0
M  V30 1595 C 154.207 -0.0327327 -1.60767 0
M  V30 1596 O 155.397 -0.276427 -1.71993 0
M  V30 1597 C 152.529 -0.651711 -3.34613 0
M  V30 1598 H 153.722 -2.04502 -2.1936 0
M  V30 1599 H 151.275 -1.09294 -1.11734 0
M  V30 1600 H 152.01 0.309696 -3.22818 0
M  V30 1601 H 151.795 -1.41189 -3.65798 0
M  V30 1602 H 153.285 -0.546973 -4.14002 0
M  V30 1603 N 153.722 1.14298 -1.08507 0
M  V30 1604 C 155.133 1.66926 -0.836227 0
M  V30 1605 C 155.484 1.85576 0.63686 0
M  V30 1606 O 154.609 1.56767 1.49175 0
M  V30 1607 C 155.204 3.03219 -1.51142 0
M  V30 1608 C 153.763 3.52876 -1.30979 0
M  V30 1609 C 152.91 2.2833 -1.57356 0
M  V30 1610 H 155.861 0.983491 -1.24552 0
M  V30 1611 H 155.882 3.68726 -0.939211 0
M  V30 1612 H 155.394 2.89612 -2.58353 0
M  V30 1613 H 153.495 3.71703 -0.258429 0
M  V30 1614 H 153.608 4.33586 -2.03814 0
M  V30 1615 H 151.972 2.34454 -0.995164 0
M  V30 1616 H 152.755 2.17298 -2.65775 0
M  V30 1617 N 155.201 0.870884 1.31352 0
M  V30 1618 C 156.111 0.330783 2.32256 0
M  V30 1619 C 157.127 -0.559767 1.6475 0
M  V30 1620 O 158.303 -0.456263 1.96164 0
M  V30 1621 C 155.368 -0.458137 3.4366 0
M  V30 1622 C 154.429 0.460482 4.26823 0
M  V30 1623 C 153.662 -0.290881 5.32907 0
M  V30 1624 O 153.885 -1.51885 5.49806 0
M  V30 1625 O 152.819 0.351732 6.00871 0
M  V30 1626 H 156.645 1.16718 2.80376 0
M  V30 1627 H 154.23 0.634285 1.35267 0
M  V30 1628 H 156.112 -0.905343 4.1156 0
M  V30 1629 H 154.787 -1.27106 2.97701 0
M  V30 1630 H 153.694 0.956207 3.61673 0
M  V30 1631 H 155.027 1.23903 4.7635 0
M  V30 1632 N 156.679 -1.44442 0.630414 0
M  V30 1633 C 158.09 -1.85434 0.217063 0
M  V30 1634 C 158.441 -1.52748 -1.23136 0
M  V30 1635 O 157.566 -0.965205 -1.93682 0
M  V30 1636 C 158.161 -3.36581 0.387168 0
M  V30 1637 C 156.72 -3.76389 0.0283297 0
M  V30 1638 C 155.867 -2.68296 0.700889 0
M  V30 1639 H 158.818 -1.34919 0.83562 0
M  V30 1640 H 158.839 -3.78657 -0.374086 0
M  V30 1641 H 158.351 -3.60339 1.44144 0
M  V30 1642 H 156.452 -3.58246 -1.02423 0
M  V30 1643 H 156.565 -4.77095 0.437892 0
M  V30 1644 H 154.929 -2.54335 0.136267 0
M  V30 1645 H 155.712 -2.94887 1.75774 0
M  V30 1646 N 158.157 -0.370918 -1.53173 0
M  V30 1647 C 159.405 0.216673 -2.00935 0
M  V30 1648 C 159.726 1.48845 -1.25977 0
M  V30 1649 O 158.996 1.92286 -0.374551 0
M  V30 1650 H 157.576 0.0830565 -0.742368 0
M  V30 1651 H 160.238 -0.49838 -1.8842 0
M  V30 1652 H 159.334 0.439893 -3.08984 0
M  V30 1653 N 159.635 1.57281 -0.100228 0
M  V30 1654 C 160.565 2.17328 0.853857 0
M  V30 1655 C 161.546 1.10804 1.2906 0
M  V30 1656 O 162.731 1.38963 1.35657 0
M  V30 1657 C 159.861 2.75772 2.11109 0
M  V30 1658 C 158.815 3.87713 1.81279 0
M  V30 1659 C 158.141 4.32882 3.13874 0
M  V30 1660 C 159.441 5.10677 1.09574 0
M  V30 1661 H 161.135 2.97305 0.353545 0
M  V30 1662 H 158.681 1.43009 0.168612 0
M  V30 1663 H 160.634 3.16433 2.78296 0
M  V30 1664 H 159.358 1.93057 2.63432 0
M  V30 1665 H 158.017 3.476 1.16489 0
M  V30 1666 H 157.665 3.47051 3.64095 0
M  V30 1667 H 157.365 5.08358 2.94696 0
M  V30 1668 H 158.889 4.7618 3.82211 0
M  V30 1669 H 160.303 5.48474 1.66879 0
M  V30 1670 H 158.7 5.91615 1.00557 0
M  V30 1671 H 159.77 4.84835 0.0793299 0
M  V30 1672 N 161.113 -0.173488 1.56642 0
M  V30 1673 C 162.341 -0.906095 1.86004 0
M  V30 1674 C 162.756 -1.75921 0.685355 0
M  V30 1675 O 162.113 -1.79198 -0.345578 0
M  V30 1676 C 162.164 -1.78462 3.14378 0
M  V30 1677 O 161.885 -0.965914 4.27319 0
M  V30 1678 C 163.386 -2.62707 3.57071 0
M  V30 1679 H 160.606 -0.263341 0.617165 0
M  V30 1680 H 163.15 -0.174236 2.03756 0
M  V30 1681 H 161.305 -2.46984 2.98459 0
M  V30 1682 H 161.719 -1.56655 5.00559 0
M  V30 1683 H 163.193 -3.19969 4.49804 0
M  V30 1684 H 163.67 -3.37472 2.81086 0
M  V30 1685 H 164.276 -1.99521 3.75595 0
M  V30 1686 N 162.591 -1.51276 -0.441967 0
M  V30 1687 C 163.521 -1.752 -1.54361 0
M  V30 1688 C 164.502 -0.601682 -1.59103 0
M  V30 1689 O 165.687 -0.843913 -1.74905 0
M  V30 1690 C 162.817 -1.87282 -2.92477 0
M  V30 1691 C 161.771 -3.02687 -3.02596 0
M  V30 1692 C 161.097 -2.99947 -4.42647 0
M  V30 1693 C 162.397 -4.4273 -2.77106 0
M  V30 1694 H 164.091 -2.67442 -1.34592 0
M  V30 1695 H 161.637 -1.28694 -0.646048 0
M  V30 1696 H 163.59 -2.02602 -3.695 0
M  V30 1697 H 162.314 -0.916844 -3.13467 0
M  V30 1698 H 160.973 -2.87065 -2.28012 0
M  V30 1699 H 160.621 -2.02136 -4.60597 0
M  V30 1700 H 160.321 -3.77439 -4.50348 0
M  V30 1701 H 161.845 -3.17354 -5.2165 0
M  V30 1702 H 163.259 -4.58727 -3.43864 0
M  V30 1703 H 161.656 -5.21893 -2.96222 0
M  V30 1704 H 162.726 -4.53087 -1.72744 0
M  V30 1705 N 164.069 0.697108 -1.41344 0
M  V30 1706 C 165.48 1.27697 -1.36199 0
M  V30 1707 C 165.831 1.9615 -0.0443463 0
M  V30 1708 O 164.956 1.98689 0.857419 0
M  V30 1709 C 165.551 2.32223 -2.46694 0
M  V30 1710 C 164.11 2.8579 -2.44952 0
M  V30 1711 C 163.257 1.59807 -2.26621 0
M  V30 1712 H 166.208 0.491968 -1.50882 0
M  V30 1713 H 166.229 3.1348 -2.15664 0
M  V30 1714 H 165.741 1.82373 -3.42581 0
M  V30 1715 H 163.842 3.3982 -1.52817 0
M  V30 1716 H 163.955 3.36325 -3.41207 0
M  V30 1717 H 162.319 1.8556 -1.7447 0
M  V30 1718 H 163.102 1.11956 -3.24532 0
M  V30 1719 N 165.547 1.27147 0.931209 0
M  V30 1720 C 166.824 1.0401 1.65654 0
M  V30 1721 C 167.204 -0.426297 2.06751 0
M  V30 1722 O 166.552 -1.40879 1.79904 0
M  V30 1723 C 166.762 1.99834 2.86125 0
M  V30 1724 C 168.11 2.29007 3.57549 0
M  V30 1725 O 169.134 1.97779 2.96246 0
M  V30 1726 O 167.993 2.82222 4.67989 0
M  V30 1727 H 165.087 0.396239 0.725895 0
M  V30 1728 H 167.633 1.38397 0.982056 0
M  V30 1729 H 166.405 2.98744 2.52721 0
M  V30 1730 H 166.028 1.65987 3.61295 0
M  V30 1731 N 167.025 -1.13721 1.09112 0
M  V30 1732 C 167.955 -2.21148 0.749385 0
M  V30 1733 C 168.936 -1.6792 -0.271475 0
M  V30 1734 O 170.121 -1.93693 -0.140251 0
M  V30 1735 C 167.251 -3.46905 0.165659 0
M  V30 1736 C 166.205 -4.13203 1.11567 0
M  V30 1737 C 165.531 -5.33248 0.393809 0
M  V30 1738 C 166.831 -4.60912 2.45678 0
M  V30 1739 H 168.525 -2.4999 1.64758 0
M  V30 1740 H 166.071 -1.20156 0.793626 0
M  V30 1741 H 168.024 -4.21313 -0.085466 0
M  V30 1742 H 166.748 -3.17449 -0.767714 0
M  V30 1743 H 165.407 -3.40758 1.35202 0
M  V30 1744 H 165.055 -5.00054 -0.543599 0
M  V30 1745 H 164.755 -5.78552 1.02721 0
M  V30 1746 H 166.279 -6.10413 0.150908 0
M  V30 1747 H 167.693 -5.26759 2.26269 0
M  V30 1748 H 166.09 -5.16944 3.04776 0
M  V30 1749 H 167.16 -3.75603 3.06677 0
M  V30 1750 N 168.503 -0.877838 -1.30888 0
M  V30 1751 C 169.914 -0.544193 -1.78593 0
M  V30 1752 C 170.265 0.939301 -1.72254 0
M  V30 1753 O 169.39 1.7337 -1.29505 0
M  V30 1754 C 169.985 -0.98105 -3.24285 0
M  V30 1755 C 168.544 -0.698935 -3.69854 0
M  V30 1756 C 167.691 -1.168 -2.51502 0
M  V30 1757 H 170.642 -1.06278 -1.17859 0
M  V30 1758 H 170.663 -0.307009 -3.79259 0
M  V30 1759 H 170.175 -2.06079 -3.28866 0
M  V30 1760 H 168.276 0.369112 -3.70767 0
M  V30 1761 H 168.389 -1.28148 -4.61644 0
M  V30 1762 H 166.753 -0.587535 -2.47831 0
M  V30 1763 H 167.536 -2.25533 -2.58824 0
M  V30 1764 N 169.982 1.44106 -0.638065 0
M  V30 1765 C 170.892 2.34513 0.0637334 0
M  V30 1766 C 171.908 1.53018 0.828346 0
M  V30 1767 O 173.084 1.85723 0.779036 0
M  V30 1768 C 170.149 3.31095 1.02844 0
M  V30 1769 C 169.21 4.28497 0.26244 0
M  V30 1770 C 168.443 5.20465 1.1812 0
M  V30 1771 O 168.666 5.16514 2.42011 0
M  V30 1772 O 167.6 5.98251 0.661774 0
M  V30 1773 H 171.426 2.95989 -0.68003 0
M  V30 1774 H 169.011 1.43994 -0.398252 0
M  V30 1775 H 170.893 3.90526 1.58327 0
M  V30 1776 H 169.568 2.72144 1.7527 0
M  V30 1777 H 168.475 3.72592 -0.335602 0
M  V30 1778 H 169.808 4.90388 -0.421936 0
M  V30 1779 N 171.46 0.379036 1.52974 0
M  V30 1780 C 172.392 -0.495963 2.2377 0
M  V30 1781 C 173.405 -1.03517 1.25651 0
M  V30 1782 O 174.594 -0.939249 1.51791 0
M  V30 1783 C 171.694 -1.69894 2.93239 0
M  V30 1784 C 170.867 -1.2889 4.17979 0
M  V30 1785 C 169.926 -2.35543 4.70538 0
M  V30 1786 O 168.952 -1.97375 5.33883 0
M  V30 1787 N 170.154 -3.67318 4.49508 0
M  V30 1788 H 172.919 0.110523 2.99496 0
M  V30 1789 H 170.48 0.204878 1.60598 0
M  V30 1790 H 172.472 -2.40747 3.25304 0
M  V30 1791 H 171.042 -2.212 2.20883 0
M  V30 1792 H 170.262 -0.409676 3.92065 0
M  V30 1793 H 171.55 -0.991443 4.99047 0
M  V30 1794 H 170.948 -4.01095 3.98923 0
M  V30 1795 H 169.505 -4.34235 4.8609 0
M  V30 1796 N 172.938 -1.57226 0.108567 0
M  V30 1797 C 174.185 -1.94833 -0.551943 0
M  V30 1798 C 174.513 -0.991204 -1.67348 0
M  V30 1799 O 173.768 -0.0131878 -1.95696 0
M  V30 1800 C 174.067 -3.38911 -1.13463 0
M  V30 1801 C 173.733 -4.50696 -0.135509 0
M  V30 1802 C 172.395 -4.80998 0.139252 0
M  V30 1803 C 174.747 -5.18333 0.545957 0
M  V30 1804 C 172.075 -5.76259 1.10194 0
M  V30 1805 C 174.427 -6.14627 1.49721 0
M  V30 1806 C 173.091 -6.43327 1.78006 0
M  V30 1807 H 172.361 -0.712944 -0.20197 0
M  V30 1808 H 175.008 -1.90582 0.18726 0
M  V30 1809 H 173.313 -3.39805 -1.95037 0
M  V30 1810 H 175.01 -3.65317 -1.65362 0
M  V30 1811 H 171.6 -4.27087 -0.359846 0
M  V30 1812 H 175.784 -4.95087 0.346842 0
M  V30 1813 H 171.04 -5.96804 1.32795 0
M  V30 1814 H 175.214 -6.66126 2.03099 0
M  V30 1815 H 172.841 -7.1695 2.52759 0
M  V30 1816 N 174.416 0.165178 -1.56732 0
M  V30 1817 C 175.641 0.900253 -1.86843 0
M  V30 1818 C 176.066 1.74766 -0.695596 0
M  V30 1819 O 175.424 1.77786 0.35522 0
M  V30 1820 C 175.472 1.74777 -3.15413 0
M  V30 1821 O 174.576 2.85007 -2.98068 0
M  V30 1822 H 173.917 0.251832 -0.614391 0
M  V30 1823 H 176.447 0.161468 -2.03962 0
M  V30 1824 H 176.457 2.14646 -3.46974 0
M  V30 1825 H 175.132 1.12537 -4.00385 0
M  V30 1826 H 173.709 2.48676 -2.77875 0
M  V30 1827 N 175.894 1.51508 0.433938 0
M  V30 1828 C 177.305 1.56784 1.01369 0
M  V30 1829 C 177.656 0.393349 1.92217 0
M  V30 1830 O 176.781 -0.489441 2.10792 0
M  V30 1831 C 177.376 2.84144 1.8452 0
M  V30 1832 C 175.935 2.9198 2.37539 0
M  V30 1833 C 175.082 2.51482 1.16843 0
M  V30 1834 H 178.033 1.57236 0.215081 0
M  V30 1835 H 178.054 2.68098 2.70007 0
M  V30 1836 H 177.566 3.69607 1.18373 0
M  V30 1837 H 175.667 2.10955 3.0713 0
M  V30 1838 H 175.78 3.95704 2.70103 0
M  V30 1839 H 174.144 2.04758 1.51481 0
M  V30 1840 H 174.927 3.39293 0.523015 0
M  V30 1841 N 177.372 -0.689602 1.41712 0
M  V30 1842 C 178.783 -1.26973 1.36875 0
M  V30 1843 C 179.134 -1.96124 0.054748 0
M  V30 1844 O 178.259 -1.99141 -0.84687 0
M  V30 1845 C 178.854 -2.30912 2.47922 0
M  V30 1846 C 177.413 -2.84486 2.46464 0
M  V30 1847 C 176.56 -1.58603 2.27465 0
M  V30 1848 H 179.511 -0.48396 1.51141 0
M  V30 1849 H 179.532 -3.12331 2.17323 0
M  V30 1850 H 179.044 -1.80554 3.43543 0
M  V30 1851 H 177.145 -3.39005 1.54617 0
M  V30 1852 H 177.258 -3.34511 3.42986 0
M  V30 1853 H 175.622 -1.84632 1.75451 0
M  V30 1854 H 176.405 -1.10233 3.25121 0
M  V30 1855 N 178.85 -1.27639 -0.924453 0
M  V30 1856 C 180.127 -1.04887 -1.651 0
M  V30 1857 C 180.507 0.415327 -2.06974 0
M  V30 1858 O 179.855 1.39923 -1.80648 0
M  V30 1859 C 180.065 -2.01348 -2.85061 0
M  V30 1860 C 181.413 -2.30899 -3.56329 0
M  V30 1861 O 182.437 -1.99348 -2.95193 0
M  V30 1862 O 181.296 -2.84699 -4.66485 0
M  V30 1863 H 178.39 -0.400083 -0.723784 0
M  V30 1864 H 180.936 -1.38916 -0.974703 0
M  V30 1865 H 179.708 -3.0008 -2.51133 0
M  V30 1866 H 179.331 -1.679 -3.6041 0
M  V30 1867 N 180.328 1.1314 -1.09713 0
M  V30 1868 C 181.574 1.84757 -0.836224 0
M  V30 1869 C 181.907 1.8347 0.636598 0
M  V30 1870 O 181.182 1.27491 1.46889 0
M  V30 1871 C 181.465 3.32782 -1.37578 0
M  V30 1872 C 181.318 3.42567 -2.91493 0
M  V30 1873 C 182.637 4.28307 -1.01198 0
M  V30 1874 H 179.756 0.67082 -0.305236 0
M  V30 1875 H 182.398 1.3278 -1.35903 0
M  V30 1876 H 180.548 3.77177 -0.931097 0
M  V30 1877 H 182.22 3.06862 -3.44432 0
M  V30 1878 H 180.463 2.83349 -3.28475 0
M  V30 1879 H 181.134 4.46674 -3.24324 0
M  V30 1880 H 183.61 3.91999 -1.39556 0
M  V30 1881 H 182.486 5.30307 -1.41653 0
M  V30 1882 H 182.747 4.42029 0.0794833 0
M  V30 1883 N 181.806 0.884767 1.30421 0
M  V30 1884 C 182.769 0.356277 2.26414 0
M  V30 1885 C 183.769 -0.501124 1.52792 0
M  V30 1886 O 184.959 -0.30831 1.7145 0
M  V30 1887 C 182.091 -0.492316 3.37326 0
M  V30 1888 H 183.284 1.20389 2.74675 0
M  V30 1889 H 180.837 0.661607 1.41607 0
M  V30 1890 H 181.572 -1.36052 2.94381 0
M  V30 1891 H 181.357 0.121832 3.91911 0
M  V30 1892 H 182.847 -0.853871 4.08777 0
M  V30 1893 N 183.284 -1.43765 0.645699 0
M  V30 1894 C 184.695 -1.85193 0.236719 0
M  V30 1895 C 185.046 -1.54045 -1.21509 0
M  V30 1896 O 184.171 -0.985694 -1.92647 0
M  V30 1897 C 184.766 -3.36151 0.422845 0
M  V30 1898 C 183.325 -3.76338 0.0682492 0
M  V30 1899 C 182.472 -2.67538 0.729306 0
M  V30 1900 H 185.423 -1.34025 0.849883 0
M  V30 1901 H 185.444 -3.79032 -0.333904 0
M  V30 1902 H 184.956 -3.5879 1.47958 0
M  V30 1903 H 183.057 -3.59312 -0.986179 0
M  V30 1904 H 183.17 -4.76603 0.488469 0
M  V30 1905 H 181.534 -2.54176 0.163235 0
M  V30 1906 H 182.317 -2.93006 1.78892 0
M  V30 1907 N 184.763 -0.387143 -1.52771 0
M  V30 1908 C 186.174 0.0873634 -1.86495 0
M  V30 1909 C 186.525 1.46336 -1.30691 0
M  V30 1910 O 185.65 2.068 -0.637409 0
M  V30 1911 C 186.245 0.165305 -3.38396 0
M  V30 1912 C 184.804 0.584101 -3.7184 0
M  V30 1913 C 183.951 -0.255279 -2.76122 0
M  V30 1914 H 186.902 -0.605104 -1.46711 0
M  V30 1915 H 186.923 0.984848 -3.67534 0
M  V30 1916 H 186.435 -0.836301 -3.78982 0
M  V30 1917 H 184.536 1.59315 -3.36823 0
M  V30 1918 H 184.649 0.343749 -4.77865 0
M  V30 1919 H 183.013 0.279126 -2.53166 0
M  V30 1920 H 183.796 -1.25482 -3.19545 0
M  V30 1921 N 186.241 1.57166 -0.116904 0
M  V30 1922 C 187.171 2.18222 0.830759 0
M  V30 1923 C 188.152 1.12167 1.27877 0
M  V30 1924 O 189.337 1.40394 1.34176 0
M  V30 1925 C 186.467 2.77996 2.08172 0
M  V30 1926 C 185.421 3.89614 1.77157 0
M  V30 1927 C 184.747 4.36187 3.09265 0
M  V30 1928 C 186.047 5.1181 1.04151 0
M  V30 1929 H 187.741 2.97664 0.321992 0
M  V30 1930 H 185.287 1.4318 0.153434 0
M  V30 1931 H 187.24 3.19366 2.74924 0
M  V30 1932 H 185.964 1.9584 2.6137 0
M  V30 1933 H 184.623 3.48816 1.12796 0
M  V30 1934 H 184.271 3.50893 3.60393 0
M  V30 1935 H 183.971 5.11455 2.89288 0
M  V30 1936 H 185.495 4.80207 3.77139 0
M  V30 1937 H 186.909 5.50214 1.61052 0
M  V30 1938 H 185.306 5.92648 0.942762 0
M  V30 1939 H 186.376 4.84892 0.0279022 0
M  V30 1940 N 187.719 -0.156864 1.56817 0
M  V30 1941 C 188.649 -1.19589 2.00551 0
M  V30 1942 C 189.63 -1.4536 0.883426 0
M  V30 1943 O 190.815 -1.56449 1.15054 0
M  V30 1944 C 187.945 -2.53143 2.37773 0
M  V30 1945 C 186.899 -2.41913 3.53075 0
M  V30 1946 C 186.225 -3.80088 3.76081 0
M  V30 1947 C 187.525 -1.91157 4.86062 0
M  V30 1948 H 189.219 -0.832293 2.87599 0
M  V30 1949 H 186.765 -0.398918 1.38364 0
M  V30 1950 H 188.718 -3.26047 2.66967 0
M  V30 1951 H 187.442 -2.91319 1.4765 0
M  V30 1952 H 186.101 -1.71462 3.24031 0
M  V30 1953 H 185.749 -4.15683 2.83225 0
M  V30 1954 H 185.449 -3.73439 4.53671 0
M  V30 1955 H 186.973 -4.54556 4.0769 0
M  V30 1956 H 188.387 -2.53846 5.14038 0
M  V30 1957 H 186.784 -1.95422 5.67389 0
M  V30 1958 H 187.854 -0.866673 4.77092 0
M  V30 1959 N 189.197 -1.51736 -0.425897 0
M  V30 1960 C 190.443 -1.65214 -1.1761 0
M  V30 1961 C 190.776 -0.372778 -1.90589 0
M  V30 1962 O 190.051 0.628139 -1.84078 0
M  V30 1963 C 190.334 -2.86312 -2.18398 0
M  V30 1964 C 190.187 -4.24254 -1.49426 0
M  V30 1965 C 191.506 -3.02925 -3.19256 0
M  V30 1966 H 188.625 -0.601263 -0.426206 0
M  V30 1967 H 191.267 -1.8425 -0.463882 0
M  V30 1968 H 189.417 -2.70213 -2.79137 0
M  V30 1969 H 191.089 -4.52046 -0.919362 0
M  V30 1970 H 189.332 -4.26426 -0.796432 0
M  V30 1971 H 190.003 -5.05001 -2.22885 0
M  V30 1972 H 192.479 -3.1781 -2.68581 0
M  V30 1973 H 191.355 -3.89199 -3.8706 0
M  V30 1974 H 191.616 -2.15497 -3.86023 0
M  V30 1975 N 190.675 0.682077 -1.42076 0
M  V30 1976 C 191.622 1.79578 -1.44984 0
M  V30 1977 C 192.592 1.6332 -0.302614 0
M  V30 1978 O 193.777 1.83978 -0.505633 0
M  V30 1979 C 190.917 3.1756 -1.35091 0
M  V30 1980 C 190.03 3.45156 -2.59791 0
M  V30 1981 C 189.165 4.72826 -2.42093 0
M  V30 1982 C 188.204 4.93433 -3.62202 0
M  V30 1983 N 187.341 6.12338 -3.43491 0
M  V30 1984 H 192.181 1.76427 -2.40161 0
M  V30 1985 H 189.718 0.861376 -1.19242 0
M  V30 1986 H 191.676 3.97287 -1.27354 0
M  V30 1987 H 190.306 3.19854 -0.435133 0
M  V30 1988 H 189.358 2.59736 -2.77923 0
M  V30 1989 H 190.67 3.5628 -3.49094 0
M  V30 1990 H 189.824 5.60631 -2.319 0
M  V30 1991 H 188.563 4.63973 -1.50268 0
M  V30 1992 H 187.568 4.04073 -3.72834 0
M  V30 1993 H 188.793 5.04136 -4.54998 0
M  V30 1994 H 186.739 6.04672 -2.54377 0
M  V30 1995 H 186.656 6.2429 -4.26377 0
M  V30 1996 H 187.924 7.02841 -3.37097 0
M  V30 1997 N 192.153 1.28127 0.917671 0
M  V30 1998 C 193.083 1.14248 2.03641 0
M  V30 1999 C 194.064 0.0412748 1.7005 0
M  V30 2000 O 195.249 0.217566 1.92977 0
M  V30 2001 C 192.379 0.799431 3.37974 0
M  V30 2002 C 191.333 1.85497 3.85713 0
M  V30 2003 C 190.659 1.36565 5.16966 0
M  V30 2004 C 191.959 3.26085 4.08002 0
M  V30 2005 H 193.653 2.07835 2.15511 0
M  V30 2006 H 191.199 1.00064 1.03553 0
M  V30 2007 H 193.152 0.689114 4.15727 0
M  V30 2008 H 191.876 -0.172145 3.26146 0
M  V30 2009 H 190.535 1.95437 3.10161 0
M  V30 2010 H 190.183 0.383253 5.01538 0
M  V30 2011 H 189.883 2.07143 5.49878 0
M  V30 2012 H 191.407 1.26848 5.97279 0
M  V30 2013 H 192.821 3.19089 4.76293 0
M  V30 2014 H 191.218 3.94462 4.52238 0
M  V30 2015 H 192.288 3.70394 3.12948 0
M  V30 2016 N 193.631 -1.12557 1.10312 0
M  V30 2017 C 194.877 -1.84311 0.846011 0
M  V30 2018 C 195.21 -1.83805 -0.626859 0
M  V30 2019 O 194.485 -1.28268 -1.46211 0
M  V30 2020 C 194.768 -3.32048 1.39341 0
M  V30 2021 C 194.621 -3.41016 2.93305 0
M  V30 2022 C 195.94 -4.27764 1.03468 0
M  V30 2023 H 193.059 -0.669192 0.30879 0
M  V30 2024 H 195.701 -1.32057 1.36605 0
M  V30 2025 H 193.851 -3.76678 0.951087 0
M  V30 2026 H 195.523 -3.05031 3.46055 0
M  V30 2027 H 193.766 -2.81603 3.29973 0
M  V30 2028 H 194.437 -4.44948 3.26689 0
M  V30 2029 H 196.913 -3.91253 1.41633 0
M  V30 2030 H 195.789 -5.29549 1.44463 0
M  V30 2031 H 196.05 -4.42064 -0.0560404 0
M  V30 2032 N 195.109 -0.891671 -1.2995 0
M  V30 2033 C 196.019 -0.367691 -2.31701 0
M  V30 2034 C 197.035 0.533486 -1.6562 0
M  V30 2035 O 198.211 0.424997 -1.96865 0
M  V30 2036 C 195.276 0.403406 -3.44345 0
M  V30 2037 C 194.337 -0.528328 -4.26037 0
M  V30 2038 C 193.57 0.206063 -5.33302 0
M  V30 2039 O 193.793 1.43119 -5.52153 0
M  V30 2040 O 192.727 -0.447281 -6.00236 0
M  V30 2041 H 196.553 -1.21163 -2.78484 0
M  V30 2042 H 194.138 -0.655725 -1.34241 0
M  V30 2043 H 196.02 0.839753 -4.12948 0
M  V30 2044 H 194.695 1.22354 -2.99685 0
M  V30 2045 H 193.602 -1.01362 -3.60106 0
M  V30 2046 H 194.935 -1.31465 -4.74318 0
M  V30 2047 N 196.587 1.43421 -0.653314 0
M  V30 2048 C 197.55 2.29182 0.0287951 0
M  V30 2049 C 198.55 1.42213 0.750465 0
M  V30 2050 O 199.74 1.63843 0.591701 0
M  V30 2051 C 196.872 3.24278 1.05151 0
M  V30 2052 H 198.065 2.90985 -0.725786 0
M  V30 2053 H 195.618 1.50702 -0.414545 0
M  V30 2054 H 196.353 2.6737 1.83532 0
M  V30 2055 H 196.138 3.88396 0.537687 0
M  V30 2056 H 197.628 3.88647 1.52786 0
M  V30 2057 N 198.065 0.39524 1.52563 0
M  V30 2058 C 199.314 -0.186321 2.00838 0
M  V30 2059 C 199.627 -1.47402 1.28577 0
M  V30 2060 O 200.833 -2.13599 1.67593 0
M  V30 2061 C 199.289 -0.382595 3.57861 0
M  V30 2062 C 198.897 0.892202 4.39026 0
M  V30 2063 C 200.641 -0.9202 4.14406 0
M  V30 2064 C 198.548 0.66388 5.87662 0
M  V30 2065 H 197.478 -0.0734041 0.750418 0
M  V30 2066 H 200.129 0.518552 1.76021 0
M  V30 2067 H 198.511 -1.14946 3.7895 0
M  V30 2068 H 199.685 1.66414 4.29701 0
M  V30 2069 H 198 1.35519 3.9373 0
M  V30 2070 H 200.597 -1.10683 5.23119 0
M  V30 2071 H 200.94 -1.89096 3.70875 0
M  V30 2072 H 201.473 -0.212751 3.97231 0
M  V30 2073 H 198.212 1.6058 6.35527 0
M  V30 2074 H 197.732 -0.0690193 5.9976 0
M  V30 2075 H 199.411 0.300699 6.46301 0
M  V30 2076 N 199.544 -1.57102 0.125237 0
M  V30 2077 C 200.454 -2.19191 -0.8362 0
M  V30 2078 C 201.47 -1.16985 -1.28805 0
M  V30 2079 O 202.646 -1.49479 -1.34974 0
M  V30 2080 C 199.711 -2.78407 -2.06617 0
M  V30 2081 C 198.772 -3.9567 -1.66565 0
M  V30 2082 C 198.005 -4.52052 -2.83698 0
M  V30 2083 O 198.228 -4.07326 -3.99302 0
M  V30 2084 O 197.162 -5.42645 -2.60423 0
M  V30 2085 H 200.988 -3.01816 -0.337776 0
M  V30 2086 H 198.573 -1.4906 -0.100695 0
M  V30 2087 H 200.455 -3.16129 -2.7864 0
M  V30 2088 H 199.13 -1.9881 -2.55453 0
M  V30 2089 H 198.037 -3.62705 -0.916296 0
M  V30 2090 H 199.37 -4.76722 -1.22464 0
M  V30 2091 N 201.022 0.148545 -1.56898 0
M  V30 2092 C 202.438 0.501131 -1.51528 0
M  V30 2093 C 202.638 1.83458 -0.833399 0
M  V30 2094 O 201.694 2.49259 -0.40328 0
M  V30 2095 C 203.007 0.512864 -2.96294 0
M  V30 2096 C 204.555 0.598487 -3.07225 0
M  V30 2097 C 205.03 0.640897 -4.53494 0
M  V30 2098 N 206.521 0.703163 -4.57832 0
M  V30 2099 C 207.256 0.756935 -5.68382 0
M  V30 2100 N 206.752 0.770147 -6.88506 0
M  V30 2101 N 208.545 0.797698 -5.56411 0
M  V30 2102 H 200.696 -0.725532 -1.99624 0
M  V30 2103 H 202.959 -0.264358 -0.910395 0
M  V30 2104 H 202.665 -0.398691 -3.49433 0
M  V30 2105 H 202.539 1.35133 -3.52163 0
M  V30 2106 H 204.926 1.50046 -2.54106 0
M  V30 2107 H 205.007 -0.267093 -2.54402 0
M  V30 2108 H 204.651 -0.256915 -5.0725 0
M  V30 2109 H 204.581 1.52295 -5.04097 0
M  V30 2110 H 207.072 0.700314 -3.71354 0
M  V30 2111 H 207.385 0.812983 -7.68512 0
M  V30 2112 H 205.73 0.738049 -6.9107 0
M  V30 2113 H 208.921 0.784535 -4.61479 0
M  V30 2114 H 209.094 0.83614 -6.42583 0
M  V30 2115 N 202.5 1.5196 0.417844 0
M  V30 2116 C 203.728 1.69426 1.18753 0
M  V30 2117 C 204.143 0.399955 1.84515 0
M  V30 2118 O 203.5 -0.623288 1.71527 0
M  V30 2119 C 203.551 2.82375 2.25714 0
M  V30 2120 O 203.272 4.06793 1.62638 0
M  V30 2121 C 204.773 3.11277 3.15628 0
M  V30 2122 H 201.993 0.568031 0.357186 0
M  V30 2123 H 204.537 1.98475 0.49273 0
M  V30 2124 H 202.692 2.5587 2.90877 0
M  V30 2125 H 203.106 4.69667 2.3348 0
M  V30 2126 H 204.58 3.93843 3.86771 0
M  V30 2127 H 205.057 2.24473 3.77503 0
M  V30 2128 H 205.663 3.39515 2.56144 0
M  V30 2129 N 203.978 -0.674533 1.42435 0
M  V30 2130 C 205.226 -1.43175 1.42637 0
M  V30 2131 C 205.547 -1.94951 0.0438992 0
M  V30 2132 O 204.817 -1.7308 -0.917607 0
M  V30 2133 H 203.397 -0.531307 0.525092 0
M  V30 2134 H 206.059 -0.797006 1.77859 0
M  V30 2135 H 205.155 -2.28463 2.12629 0
M  V30 2136 N 205.456 -1.28612 -0.910864 0
M  V30 2137 C 206.386 -1.15326 -2.03032 0
M  V30 2138 C 207.367 -0.0502924 -1.70026 0
M  V30 2139 O 208.552 -0.227797 -1.92859 0
M  V30 2140 C 205.682 -0.817343 -3.37545 0
M  V30 2141 C 204.636 -1.8754 -3.84724 0
M  V30 2142 C 203.962 -1.39305 -5.16235 0
M  V30 2143 C 205.262 -3.28244 -4.06267 0
M  V30 2144 H 206.956 -2.08975 -2.14406 0
M  V30 2145 H 204.502 -1.00612 -1.03021 0
M  V30 2146 H 206.455 -0.711151 -4.15356 0
M  V30 2147 H 205.179 0.154846 -3.26233 0
M  V30 2148 H 203.838 -1.97079 -3.09121 0
M  V30 2149 H 203.486 -0.409846 -5.01328 0
M  V30 2150 H 203.186 -2.10057 -5.48771 0
M  V30 2151 H 204.71 -1.30014 -5.96598 0
M  V30 2152 H 206.124 -3.21611 -4.74594 0
M  V30 2153 H 204.521 -3.96855 -4.5014 0
M  V30 2154 H 205.591 -3.72048 -3.10979 0
M  V30 2155 N 206.934 1.1197 -1.10907 0
M  V30 2156 C 208.211 1.79959 -0.766432 0
M  V30 2157 C 208.591 1.97466 0.746363 0
M  V30 2158 O 207.939 1.55491 1.67436 0
M  V30 2159 C 208.149 3.14009 -1.52314 0
M  V30 2160 C 209.497 3.89134 -1.69883 0
M  V30 2161 O 210.521 3.2368 -1.48692 0
M  V30 2162 O 209.38 5.06572 -2.05054 0
M  V30 2163 H 206.474 0.779208 -0.277062 0
M  V30 2164 H 209.02 1.18762 -1.21217 0
M  V30 2165 H 207.792 2.96587 -2.55249 0
M  V30 2166 H 207.415 3.82915 -1.07059 0
M  V30 2167 N 208.412 0.89855 1.29475 0
M  V30 2168 C 209.637 0.538561 2.00285 0
M  V30 2169 C 210.062 -0.869135 1.66816 0
M  V30 2170 O 209.42 -1.57831 0.892145 0
M  V30 2171 C 209.468 0.736475 3.52999 0
M  V30 2172 O 208.572 -0.211537 4.11857 0
M  V30 2173 H 207.913 0.210563 0.62973 0
M  V30 2174 H 210.443 1.20982 1.64998 0
M  V30 2175 H 210.453 0.640685 4.02938 0
M  V30 2176 H 209.128 1.76276 3.76696 0
M  V30 2177 H 207.705 -0.0682991 3.72837 0
M  V30 2178 N 209.89 -1.43072 0.660911 0
M  V30 2179 C 210.8 -2.34585 -0.0264163 0
M  V30 2180 C 211.816 -1.54316 -0.803898 0
M  V30 2181 O 212.992 -1.86939 -0.749391 0
M  V30 2182 C 210.057 -3.32689 -0.975639 0
M  V30 2183 C 209.118 -4.2886 -0.194236 0
M  V30 2184 C 208.351 -5.22278 -1.09825 0
M  V30 2185 O 208.574 -5.20299 -2.33763 0
M  V30 2186 O 207.508 -5.99228 -0.566513 0
M  V30 2187 H 211.334 -2.94869 0.727034 0
M  V30 2188 H 208.919 -1.43342 0.42111 0
M  V30 2189 H 210.801 -3.92995 -1.52094 0
M  V30 2190 H 209.476 -2.74898 -1.70918 0
M  V30 2191 H 208.383 -3.72011 0.394835 0
M  V30 2192 H 209.716 -4.89655 0.499899 0
M  V30 2193 N 211.368 -0.403325 -1.52352 0
M  V30 2194 C 212.593 0.176499 -2.06648 0
M  V30 2195 C 213.018 1.38577 -1.27193 0
M  V30 2196 O 212.376 1.7879 -0.300637 0
M  V30 2197 C 212.424 0.511061 -3.5696 0
M  V30 2198 O 211.528 1.60294 -3.79973 0
M  V30 2199 H 210.869 0.0167337 -0.663789 0
M  V30 2200 H 213.399 -0.574848 -1.96359 0
M  V30 2201 H 213.409 0.771362 -4.00642 0
M  V30 2202 H 212.084 -0.37296 -4.14224 0
M  V30 2203 H 210.661 1.33526 -3.48174 0
M  V30 2204 N 212.846 1.57033 -0.133567 0
M  V30 2205 C 213.796 2.12641 0.822671 0
M  V30 2206 C 214.78 1.05081 1.21847 0
M  V30 2207 O 215.972 1.31287 1.18713 0
M  V30 2208 C 213.101 2.74094 2.06706 0
M  V30 2209 C 212.187 3.88757 1.69497 0
M  V30 2210 N 212.578 4.95194 1.03037 0
M  V30 2211 C 210.876 3.99213 1.98859 0
M  V30 2212 C 211.577 5.75414 0.852873 0
M  V30 2213 N 210.553 5.25726 1.3825 0
M  V30 2214 H 214.355 2.92308 0.305537 0
M  V30 2215 H 211.869 1.62256 0.0684276 0
M  V30 2216 H 213.866 3.12285 2.76195 0
M  V30 2217 H 212.526 1.95896 2.5895 0
M  V30 2218 H 213.537 5.13247 0.692669 0
M  V30 2219 H 210.214 3.32075 2.53047 0
M  V30 2220 H 211.604 6.71089 0.330091 0
M  V30 2221 N 214.325 -0.140222 1.56975 0
M  V30 2222 C 215.555 -0.865181 1.87612 0
M  V30 2223 C 215.963 -1.74942 0.72055 0
M  V30 2224 O 215.306 -1.80917 -0.318561 0
M  V30 2225 C 215.368 -1.76782 3.13031 0
M  V30 2226 C 215.032 -1.06005 4.44536 0
M  V30 2227 C 216.029 -0.410768 5.18275 0
M  V30 2228 C 213.714 -1.04754 4.91255 0
M  V30 2229 C 215.708 0.241572 6.36942 0
M  V30 2230 C 213.395 -0.391394 6.09845 0
M  V30 2231 C 214.393 0.252029 6.82535 0
M  V30 2232 O 214.081 0.897757 7.98871 0
M  V30 2233 H 213.813 -0.255188 0.625983 0
M  V30 2234 H 216.367 -0.135653 2.04952 0
M  V30 2235 H 214.597 -2.53846 2.91718 0
M  V30 2236 H 216.286 -2.36533 3.29859 0
M  V30 2237 H 217.052 -0.412195 4.83245 0
M  V30 2238 H 212.931 -1.53777 4.34596 0
M  V30 2239 H 216.475 0.744375 6.93617 0
M  V30 2240 H 212.372 -0.387656 6.44335 0
M  V30 2241 H 213.14 0.800102 8.1458 0
M  V30 2242 N 215.803 -1.52179 -0.40978 0
M  V30 2243 C 217.219 -1.40968 -0.74835 0
M  V30 2244 C 217.419 -0.513657 -1.94843 0
M  V30 2245 O 216.475 0.0208026 -2.52491 0
M  V30 2246 C 217.788 -2.83483 -1.0029 0
M  V30 2247 C 219.336 -2.92821 -1.10565 0
M  V30 2248 C 219.811 -4.36303 -1.39296 0
M  V30 2249 N 221.302 -4.39535 -1.46162 0
M  V30 2250 C 222.037 -5.47614 -1.70018 0
M  V30 2251 N 221.533 -6.65812 -1.91483 0
M  V30 2252 N 223.326 -5.35129 -1.72027 0
M  V30 2253 H 215.477 -2.0897 0.380186 0
M  V30 2254 H 217.74 -0.94185 0.107805 0
M  V30 2255 H 217.446 -3.51168 -0.193461 0
M  V30 2256 H 217.32 -3.24487 -1.92323 0
M  V30 2257 H 219.707 -2.25318 -1.90568 0
M  V30 2258 H 219.788 -2.55276 -0.16369 0
M  V30 2259 H 219.432 -5.04366 -0.598109 0
M  V30 2260 H 219.362 -4.71385 -2.34743 0
M  V30 2261 H 221.853 -3.54332 -1.31367 0
M  V30 2262 H 222.166 -7.43964 -2.09134 0
M  V30 2263 H 220.511 -6.68879 -1.88749 0
M  V30 2264 H 223.702 -4.41764 -1.54796 0
M  V30 2265 H 223.875 -6.19433 -1.9028 0
M  V30 2266 N 217.281 0.66697 -1.42791 0
M  V30 2267 C 218.692 1.2478 -1.38877 0
M  V30 2268 C 219.043 1.96012 -0.0859426 0
M  V30 2269 O 218.168 2.00463 0.815081 0
M  V30 2270 C 218.763 2.26938 -2.51564 0
M  V30 2271 C 217.322 2.80529 -2.50959 0
M  V30 2272 C 216.469 1.54965 -2.29959 0
M  V30 2273 H 219.42 0.459853 -1.51892 0
M  V30 2274 H 219.441 3.08834 -2.22265 0
M  V30 2275 H 218.953 1.75065 -3.46372 0
M  V30 2276 H 217.054 3.36502 -1.59991 0
M  V30 2277 H 217.167 3.29012 -3.48265 0
M  V30 2278 H 215.531 1.81817 -1.78366 0
M  V30 2279 H 216.314 1.05047 -3.26833 0
M  V30 2280 N 218.759 1.29093 0.90403 0
M  V30 2281 C 219.669 1.15727 2.0407 0
M  V30 2282 C 220.685 0.0815308 1.73809 0
M  V30 2283 O 221.861 0.292749 1.99261 0
M  V30 2284 C 218.926 0.830424 3.36608 0
M  V30 2285 C 217.987 1.98955 3.80415 0
M  V30 2286 C 217.22 1.6782 5.06628 0
M  V30 2287 O 217.443 0.597105 5.67266 0
M  V30 2288 O 216.377 2.52486 5.46383 0
M  V30 2289 H 220.203 2.11171 2.18267 0
M  V30 2290 H 217.788 1.08504 1.027 0
M  V30 2291 H 219.67 0.662521 4.16159 0
M  V30 2292 H 218.345 -0.0942678 3.23563 0
M  V30 2293 H 217.252 2.21267 3.01648 0
M  V30 2294 H 218.585 2.89529 3.98037 0
M  V30 2295 N 220.237 -1.11381 1.11499 0
M  V30 2296 C 221.167 -2.19509 0.796125 0
M  V30 2297 C 222.148 -1.68458 -0.235796 0
M  V30 2298 O 223.333 -1.93947 -0.0991344 0
M  V30 2299 C 220.463 -3.46475 0.239205 0
M  V30 2300 C 219.417 -4.10744 1.20307 0
M  V30 2301 C 218.743 -5.32293 0.50683 0
M  V30 2302 C 220.043 -4.55597 2.55399 0
M  V30 2303 H 221.737 -2.46439 1.70024 0
M  V30 2304 H 219.283 -1.18446 0.818935 0
M  V30 2305 H 221.236 -4.214 0.00392006 0
M  V30 2306 H 219.96 -3.19006 -0.700206 0
M  V30 2307 H 218.619 -3.37813 1.42399 0
M  V30 2308 H 218.267 -5.01095 -0.437408 0
M  V30 2309 H 217.967 -5.76243 1.1497 0
M  V30 2310 H 219.491 -6.09956 0.280351 0
M  V30 2311 H 220.905 -5.21841 2.37391 0
M  V30 2312 H 219.302 -5.10363 3.15673 0
M  V30 2313 H 220.372 -3.69013 3.14575 0
M  V30 2314 N 221.715 -0.905404 -1.28997 0
M  V30 2315 C 223.126 -0.581953 -1.77398 0
M  V30 2316 C 223.477 0.902552 -1.74208 0
M  V30 2317 O 222.602 1.70584 -1.33154 0
M  V30 2318 C 223.197 -1.04961 -3.22131 0
M  V30 2319 C 221.756 -0.777229 -3.68288 0
M  V30 2320 C 220.903 -1.22109 -2.48967 0
M  V30 2321 H 223.854 -1.08754 -1.15578 0
M  V30 2322 H 223.875 -0.387387 -3.78523 0
M  V30 2323 H 223.387 -2.13008 -3.24421 0
M  V30 2324 H 221.488 0.290383 -3.71467 0
M  V30 2325 H 221.601 -1.37911 -4.58822 0
M  V30 2326 H 219.965 -0.639971 -2.46529 0
M  V30 2327 H 220.748 -2.30972 -2.53982 0
M  V30 2328 N 223.193 1.4272 -0.668489 0
M  V30 2329 C 224.156 2.292 0.00448567 0
M  V30 2330 C 225.156 1.43001 0.735339 0
M  V30 2331 O 226.346 1.64461 0.57429 0
M  V30 2332 C 223.478 3.25375 1.01705 0
M  V30 2333 H 224.671 2.90199 -0.756608 0
M  V30 2334 H 222.224 1.50254 -0.430506 0
M  V30 2335 H 222.959 2.69301 1.80686 0
M  V30 2336 H 222.744 3.88944 0.496463 0
M  V30 2337 H 224.234 3.90245 1.48655 0
M  V30 2338 N 224.671 0.411399 1.52136 0
M  V30 2339 C 226.082 -0.0576826 1.86611 0
M  V30 2340 C 226.433 -1.44238 1.33003 0
M  V30 2341 O 225.558 -2.05759 0.670228 0
M  V30 2342 C 226.153 -0.111448 3.38617 0
M  V30 2343 C 224.712 -0.52487 3.72723 0
M  V30 2344 C 223.859 0.299176 2.75681 0
M  V30 2345 H 226.81 0.628368 1.4573 0
M  V30 2346 H 226.831 -0.926252 3.69054 0
M  V30 2347 H 226.343 0.896488 3.77604 0
M  V30 2348 H 224.444 -1.53936 3.39315 0
M  V30 2349 H 224.557 -0.267681 4.78352 0
M  V30 2350 H 222.921 -0.238814 2.53578 0
M  V30 2351 H 223.704 1.3055 3.17508 0
M  V30 2352 N 226.149 -1.5696 0.141893 0
M  V30 2353 C 227.565 -1.58151 -0.21456 0
M  V30 2354 C 227.765 -1.1559 -1.65049 0
M  V30 2355 O 226.821 -0.853832 -2.37626 0
M  V30 2356 C 228.134 -3.00674 0.0395576 0
M  V30 2357 C 229.682 -3.1299 -0.0245529 0
M  V30 2358 C 230.157 -4.57554 0.202167 0
M  V30 2359 N 231.648 -4.62961 0.148919 0
M  V30 2360 C 232.383 -5.7262 0.298924 0
M  V30 2361 N 231.879 -6.90947 0.50637 0
M  V30 2362 N 233.672 -5.61601 0.236886 0
M  V30 2363 H 225.823 -1.8292 1.07953 0
M  V30 2364 H 228.086 -0.846425 0.42693 0
M  V30 2365 H 227.792 -3.36183 1.03315 0
M  V30 2366 H 227.666 -3.70981 -0.682143 0
M  V30 2367 H 230.053 -2.77326 -1.00869 0
M  V30 2368 H 230.134 -2.4518 0.729396 0
M  V30 2369 H 229.778 -4.93922 1.18338 0
M  V30 2370 H 229.708 -5.23484 -0.572044 0
M  V30 2371 H 232.199 -3.77899 -0.00697015 0
M  V30 2372 H 232.512 -7.7038 0.611076 0
M  V30 2373 H 230.857 -6.92878 0.542628 0
M  V30 2374 H 234.048 -4.68039 0.0756209 0
M  V30 2375 H 234.221 -6.47015 0.357227 0
M  V30 2376 N 227.627 0.131896 -1.57047 0
M  V30 2377 C 228.855 0.856461 -1.88341 0
M  V30 2378 C 229.27 1.74042 -0.731757 0
M  V30 2379 O 228.627 1.80051 0.297945 0
M  V30 2380 C 228.678 1.70064 -3.18999 0
M  V30 2381 O 228.399 0.852278 -4.2973 0
M  V30 2382 C 229.9 2.53148 -3.63911 0
M  V30 2383 H 227.12 0.246885 -0.62393 0
M  V30 2384 H 229.664 0.120152 -2.04147 0
M  V30 2385 H 227.819 2.38984 -3.04902 0
M  V30 2386 H 228.233 1.43329 -5.04537 0
M  V30 2387 H 229.707 3.07931 -4.58129 0
M  V30 2388 H 230.184 3.29901 -2.89935 0
M  V30 2389 H 230.79 1.89492 -3.80753 0
M  V30 2390 N 229.106 1.52395 0.401703 0
M  V30 2391 C 230.383 1.57387 1.16141 0
M  V30 2392 C 230.763 0.359359 2.08019 0
M  V30 2393 O 230.111 -0.65326 2.18963 0
M  V30 2394 C 230.321 2.90631 1.93221 0
M  V30 2395 C 231.669 3.43904 2.49028 0
M  V30 2396 O 232.693 2.92421 2.03393 0
M  V30 2397 O 231.552 4.33823 3.32356 0
M  V30 2398 H 228.646 0.634262 0.530698 0
M  V30 2399 H 231.192 1.64725 0.407883 0
M  V30 2400 H 229.964 3.70473 1.25958 0
M  V30 2401 H 229.587 2.8662 2.75563 0
M  V30 2402 N 230.584 -0.659388 1.43143 0
M  V30 2403 C 231.83 -1.41984 1.45644 0
M  V30 2404 C 232.185 -1.92245 0.0771718 0
M  V30 2405 O 231.478 -1.68976 -0.903205 0
M  V30 2406 C 231.672 -2.62206 2.42864 0
M  V30 2407 C 231.501 -2.23711 3.90107 0
M  V30 2408 C 230.271 -2.12332 4.58523 0
M  V30 2409 C 232.469 -1.84384 4.80112 0
M  V30 2410 N 230.451 -1.67102 5.9072 0
M  V30 2411 C 231.822 -1.5019 6.01534 0
M  V30 2412 C 233.877 -1.71512 4.67427 0
M  V30 2413 C 232.58 -1.04414 7.11681 0
M  V30 2414 C 234.606 -1.27142 5.77572 0
M  V30 2415 C 233.968 -0.938808 6.98116 0
M  V30 2416 H 230.067 -0.515448 0.588079 0
M  V30 2417 H 232.651 -0.759409 1.79279 0
M  V30 2418 H 230.822 -3.25917 2.11265 0
M  V30 2419 H 232.554 -3.28877 2.35843 0
M  V30 2420 H 229.309 -2.31893 4.12944 0
M  V30 2421 H 229.733 -1.46866 6.60878 0
M  V30 2422 H 234.375 -1.95868 3.74694 0
M  V30 2423 H 232.093 -0.788061 8.04248 0
M  V30 2424 H 235.679 -1.17681 5.69774 0
M  V30 2425 H 234.559 -0.6007 7.81896 0
M  V30 2426 N 232.062 -1.29571 -0.897171 0
M  V30 2427 C 233.287 -1.20705 -1.68656 0
M  V30 2428 C 233.712 0.228582 -1.86706 0
M  V30 2429 O 233.07 1.16494 -1.3892 0
M  V30 2430 C 233.118 -1.9282 -3.04717 0
M  V30 2431 O 232.222 -1.24697 -3.93096 0
M  V30 2432 H 231.563 -0.418126 -0.515816 0
M  V30 2433 H 234.093 -1.71183 -1.12061 0
M  V30 2434 H 234.103 -2.01372 -3.54843 0
M  V30 2435 H 232.778 -2.97239 -2.90899 0
M  V30 2436 H 231.355 -1.2442 -3.51531 0
M  V30 2437 N 233.54 1.10788 -1.12088 0
M  V30 2438 C 234.47 2.19083 -0.807755 0
M  V30 2439 C 235.451 1.6858 0.226859 0
M  V30 2440 O 236.636 1.93997 0.0888475 0
M  V30 2441 C 233.766 3.46344 -0.257576 0
M  V30 2442 C 232.72 4.101 -1.22483 0
M  V30 2443 C 232.046 5.32016 -0.535052 0
M  V30 2444 C 233.346 4.54236 -2.57811 0
M  V30 2445 H 235.04 2.45534 -1.71328 0
M  V30 2446 H 232.586 1.1801 -0.825205 0
M  V30 2447 H 234.539 4.21392 -0.0262679 0
M  V30 2448 H 233.263 3.19373 0.683278 0
M  V30 2449 H 231.922 3.37054 -1.44189 0
M  V30 2450 H 231.57 5.01319 0.410827 0
M  V30 2451 H 231.27 5.75625 -1.18024 0
M  V30 2452 H 232.794 6.09799 -0.312695 0
M  V30 2453 H 234.208 5.20575 -2.40155 0
M  V30 2454 H 232.605 5.08682 -3.18375 0
M  V30 2455 H 233.675 3.6734 -3.16528 0
M  V30 2456 N 235.018 0.912232 1.28515 0
M  V30 2457 C 236.243 0.559774 1.99703 0
M  V30 2458 C 236.668 -0.851393 1.67729 0
M  V30 2459 O 236.026 -1.56875 0.908834 0
M  V30 2460 C 236.074 0.773874 3.52198 0
M  V30 2461 O 235.178 -0.167842 4.12058 0
M  V30 2462 H 234.519 0.21723 0.627461 0
M  V30 2463 H 237.049 1.22725 1.63706 0
M  V30 2464 H 237.059 0.683386 4.02236 0
M  V30 2465 H 235.734 1.80261 3.74805 0
M  V30 2466 H 234.311 -0.0287509 3.72889 0
M  V30 2467 N 236.496 -1.42363 0.676048 0
M  V30 2468 C 237.773 -1.95183 0.127726 0
M  V30 2469 C 238.153 -1.61641 -1.35777 0
M  V30 2470 O 237.501 -0.913216 -2.09458 0
M  V30 2471 C 237.711 -3.46721 0.398199 0
M  V30 2472 C 239.059 -4.23427 0.315383 0
M  V30 2473 O 240.083 -3.54649 0.332016 0
M  V30 2474 O 238.942 -5.45888 0.25865 0
M  V30 2475 H 236.036 -0.826992 0.00359427 0
M  V30 2476 H 238.582 -1.52184 0.750864 0
M  V30 2477 H 237.354 -3.64344 1.4272 0
M  V30 2478 H 236.977 -3.96769 -0.256885 0
M  V30 2479 N 237.974 -0.419461 -1.51915 0
M  V30 2480 C 239.22 0.153166 -2.02221 0
M  V30 2481 C 239.553 1.43907 -1.30401 0
M  V30 2482 O 238.828 1.90055 -0.413438 0
M  V30 2483 C 239.111 0.390291 -3.57979 0
M  V30 2484 C 238.964 -0.913014 -4.40436 0
M  V30 2485 C 240.283 1.16794 -4.2432 0
M  V30 2486 H 237.402 0.0541924 -0.735005 0
M  V30 2487 H 240.044 -0.554955 -1.81715 0
M  V30 2488 H 238.194 0.993491 -3.75582 0
M  V30 2489 H 239.866 -1.54882 -4.34522 0
M  V30 2490 H 238.109 -1.52168 -4.06236 0
M  V30 2491 H 238.78 -0.701361 -5.47526 0
M  V30 2492 H 241.256 0.657161 -4.10878 0
M  V30 2493 H 240.132 1.3026 -5.3322 0
M  V30 2494 H 240.393 2.19132 -3.83971 0
M  V30 2495 N 239.452 1.56882 -0.150215 0
M  V30 2496 C 240.729 1.87844 0.545327 0
M  V30 2497 C 241.109 1.0567 1.82749 0
M  V30 2498 O 240.457 0.144442 2.28043 0
M  V30 2499 C 240.667 3.39526 0.80767 0
M  V30 2500 C 242.015 4.08814 1.14703 0
M  V30 2501 O 243.039 3.44723 0.896917 0
M  V30 2502 O 241.898 5.22004 1.61784 0
M  V30 2503 H 238.992 0.778677 0.278553 0
M  V30 2504 H 241.538 1.68666 -0.187068 0
M  V30 2505 H 240.31 3.91173 -0.0996096 0
M  V30 2506 H 239.933 3.64243 1.59413 0
M  V30 2507 N 240.93 -0.123565 1.57115 0
M  V30 2508 C 241.862 -1.17739 1.96648 0
M  V30 2509 C 242.875 -1.37906 0.865201 0
M  V30 2510 O 244.064 -1.37062 1.14351 0
M  V30 2511 C 241.164 -2.53821 2.24562 0
M  V30 2512 C 240.337 -2.54317 3.55867 0
M  V30 2513 C 239.396 -3.72112 3.72047 0
M  V30 2514 O 238.422 -3.55907 4.44206 0
M  V30 2515 N 239.624 -4.90498 3.10471 0
M  V30 2516 H 242.389 -0.841147 2.87654 0
M  V30 2517 H 239.95 -0.31289 1.58848 0
M  V30 2518 H 241.942 -3.31175 2.32606 0
M  V30 2519 H 240.512 -2.79645 1.39705 0
M  V30 2520 H 239.732 -1.62711 3.59053 0
M  V30 2521 H 241.02 -2.51701 4.42181 0
M  V30 2522 H 240.418 -5.06567 2.51806 0
M  V30 2523 H 238.975 -5.65544 3.24043 0
M  V30 2524 N 242.408 -1.52605 -0.393616 0
M  V30 2525 C 243.654 -1.68624 -1.13743 0
M  V30 2526 C 244.009 -0.418687 -1.87789 0
M  V30 2527 O 243.302 0.58747 -1.82371 0
M  V30 2528 C 243.496 -2.85721 -2.14705 0
M  V30 2529 C 243.325 -4.23742 -1.50575 0
M  V30 2530 C 242.095 -4.89033 -1.2718 0
M  V30 2531 C 244.293 -5.05293 -0.958311 0
M  V30 2532 N 242.275 -6.11048 -0.591058 0
M  V30 2533 C 243.646 -6.18673 -0.405367 0
M  V30 2534 C 245.701 -4.90517 -0.854274 0
M  V30 2535 C 244.404 -7.18895 0.241434 0
M  V30 2536 C 246.43 -5.90986 -0.221301 0
M  V30 2537 C 245.792 -7.03669 0.320894 0
M  V30 2538 H 241.891 -0.670556 -0.402342 0
M  V30 2539 H 244.475 -1.89946 -0.427607 0
M  V30 2540 H 242.646 -2.65987 -2.83029 0
M  V30 2541 H 244.378 -2.90699 -2.8156 0
M  V30 2542 H 241.133 -4.47672 -1.54554 0
M  V30 2543 H 241.557 -6.76474 -0.266862 0
M  V30 2544 H 246.199 -4.03612 -1.25926 0
M  V30 2545 H 243.917 -8.05413 0.658448 0
M  V30 2546 H 247.503 -5.81626 -0.142111 0
M  V30 2547 H 246.383 -7.80078 0.802956 0
M  V30 2548 N 243.887 0.651787 -1.4349 0
M  V30 2549 C 245.164 1.40909 -1.35661 0
M  V30 2550 C 245.544 2.11099 -0.00511733 0
M  V30 2551 O 244.892 2.04892 1.0115 0
M  V30 2552 C 245.102 2.3926 -2.54078 0
M  V30 2553 C 246.45 3.03217 -2.97228 0
M  V30 2554 O 247.474 2.49588 -2.54135 0
M  V30 2555 O 246.333 4.00455 -3.71885 0
M  V30 2556 H 243.427 0.629625 -0.536191 0
M  V30 2557 H 245.973 0.678575 -1.55542 0
M  V30 2558 H 244.745 1.86352 -3.44076 0
M  V30 2559 H 244.368 3.1976 -2.36303 0
M  V30 2560 N 245.365 1.30045 0.890287 0
M  V30 2561 C 246.593 1.21472 1.67487 0
M  V30 2562 C 247.008 -0.223241 1.87476 0
M  V30 2563 O 246.365 -1.14828 1.41847 0
M  V30 2564 C 246.416 1.93394 3.05419 0
M  V30 2565 O 246.137 3.31576 2.86337 0
M  V30 2566 C 247.638 1.91414 3.99844 0
M  V30 2567 H 244.858 0.420604 0.522813 0
M  V30 2568 H 247.402 1.7158 1.11268 0
M  V30 2569 H 245.557 1.47099 3.58386 0
M  V30 2570 H 245.971 3.67929 3.73802 0
M  V30 2571 H 247.445 2.46285 4.94012 0
M  V30 2572 H 247.922 0.891833 4.3005 0
M  V30 2573 H 248.528 2.37496 3.52811 0
M  V30 2574 N 246.843 -1.10192 1.12674 0
M  V30 2575 C 247.806 -2.14786 0.799979 0
M  V30 2576 C 248.806 -1.59711 -0.18685 0
M  V30 2577 O 249.996 -1.74156 0.0392558 0
M  V30 2578 C 247.128 -3.40374 0.189228 0
M  V30 2579 H 248.321 -2.45203 1.72671 0
M  V30 2580 H 245.874 -1.25597 0.930326 0
M  V30 2581 H 246.609 -3.15577 -0.747107 0
M  V30 2582 H 246.394 -3.81637 0.899766 0
M  V30 2583 H 247.884 -4.17594 -0.0228143 0
M  V30 2584 N 248.321 -0.919034 -1.28029 0
M  V30 2585 C 249.284 -0.416182 -2.2539 0
M  V30 2586 C 250.284 0.460438 -1.54067 0
M  V30 2587 O 251.474 0.262744 -1.72207 0
M  V30 2588 C 248.606 0.402707 -3.38513 0
M  V30 2589 H 249.799 -1.27629 -2.71387 0
M  V30 2590 H 247.352 -0.698919 -1.39803 0
M  V30 2591 H 248.087 1.282 -2.97885 0
M  V30 2592 H 247.872 -0.225698 -3.9145 0
M  V30 2593 H 249.362 0.745191 -4.10897 0
M  V30 2594 N 249.799 1.42003 -0.683588 0
M  V30 2595 C 250.729 2.33487 -0.024866 0
M  V30 2596 C 251.71 1.51163 0.779975 0
M  V30 2597 O 252.895 1.79739 0.735362 0
M  V30 2598 C 250.025 3.3487 0.920836 0
M  V30 2599 C 248.979 4.27414 0.223958 0
M  V30 2600 C 248.305 5.19074 1.2832 0
M  V30 2601 C 249.605 5.14445 -0.90242 0
M  V30 2602 H 251.299 2.88819 -0.788921 0
M  V30 2603 H 248.845 1.38873 -0.38083 0
M  V30 2604 H 250.798 3.97787 1.39081 0
M  V30 2605 H 249.522 2.77861 1.71642 0
M  V30 2606 H 248.181 3.65904 -0.225864 0
M  V30 2607 H 247.829 4.58387 2.071 0
M  V30 2608 H 247.529 5.81822 0.821995 0
M  V30 2609 H 249.053 5.84867 1.75392 0
M  V30 2610 H 250.467 5.70998 -0.513272 0
M  V30 2611 H 248.864 5.86072 -1.28997 0
M  V30 2612 H 249.934 4.52322 -1.74737 0
M  V30 2613 N 251.277 0.427512 1.51691 0
M  V30 2614 C 252.24 -0.377132 2.26076 0
M  V30 2615 C 253.24 -0.958089 1.29141 0
M  V30 2616 O 254.43 -0.83408 1.52934 0
M  V30 2617 C 251.562 -1.53262 3.04506 0
M  V30 2618 H 252.755 0.27464 2.9864 0
M  V30 2619 H 250.308 0.180445 1.55255 0
M  V30 2620 H 251.043 -2.22072 2.36335 0
M  V30 2621 H 250.828 -1.12232 3.75694 0
M  V30 2622 H 252.318 -2.10135 3.60878 0
M  V30 2623 N 252.755 -1.56801 0.158532 0
M  V30 2624 C 254.032 -1.88131 -0.535357 0
M  V30 2625 C 254.412 -1.06638 -1.82186 0
M  V30 2626 O 253.76 -0.156533 -2.27963 0
M  V30 2627 C 253.97 -3.39949 -0.789653 0
M  V30 2628 C 255.318 -4.09416 -1.12533 0
M  V30 2629 O 256.342 -3.45194 -0.878622 0
M  V30 2630 O 255.201 -5.22855 -1.59014 0
M  V30 2631 H 252.295 -0.780143 -0.27442 0
M  V30 2632 H 254.841 -1.68564 0.19601 0
M  V30 2633 H 253.613 -3.91115 0.120353 0
M  V30 2634 H 253.236 -3.65084 -1.57479 0
M  V30 2635 N 254.233 0.115231 -1.57178 0
M  V30 2636 C 255.481 0.820727 -1.84685 0
M  V30 2637 C 255.802 1.80237 -0.744279 0
M  V30 2638 O 255.072 1.94529 0.231375 0
M  V30 2639 H 253.652 0.306084 -0.681411 0
M  V30 2640 H 256.314 0.101656 -1.94635 0
M  V30 2641 H 255.41 1.36366 -2.80733 0
M  V30 2642 N 255.711 1.52812 0.385517 0
M  V30 2643 C 256.96 1.67249 1.12741 0
M  V30 2644 C 257.273 0.4205 1.91027 0
M  V30 2645 O 258.479 0.445064 2.67827 0
M  V30 2646 C 256.935 2.95583 2.05326 0
M  V30 2647 C 256.543 4.27974 1.32447 0
M  V30 2648 C 258.287 3.19386 2.7963 0
M  V30 2649 C 256.194 5.47412 2.23818 0
M  V30 2650 H 255.124 0.6231 0.424573 0
M  V30 2651 H 257.775 1.79309 0.389924 0
M  V30 2652 H 256.157 2.77277 2.82725 0
M  V30 2653 H 257.331 4.56844 0.602495 0
M  V30 2654 H 255.646 4.10459 0.700885 0
M  V30 2655 H 258.243 4.05801 3.48181 0
M  V30 2656 H 258.586 2.34604 3.43899 0
M  V30 2657 H 259.119 3.38274 2.09322 0
M  V30 2658 H 255.858 6.34612 1.64157 0
M  V30 2659 H 255.378 5.22849 2.93921 0
M  V30 2660 H 257.057 5.81423 2.83824 0
M  V30 2661 N 257.189 -0.644168 1.43834 0
M  V30 2662 C 258.136 -1.75671 1.49694 0
M  V30 2663 C 259.106 -1.6246 0.345809 0
M  V30 2664 O 260.291 -1.82573 0.554234 0
M  V30 2665 C 257.431 -3.13867 1.43463 0
M  V30 2666 C 256.544 -3.38147 2.6885 0
M  V30 2667 C 255.679 -4.66241 2.54544 0
M  V30 2668 C 254.718 -4.83657 3.75157 0
M  V30 2669 N 253.855 -6.03016 3.59605 0
M  V30 2670 H 258.695 -1.69998 2.44754 0
M  V30 2671 H 256.232 -0.829458 1.21484 0
M  V30 2672 H 258.19 -3.9377 1.37843 0
M  V30 2673 H 256.82 -3.18588 0.519783 0
M  V30 2674 H 255.872 -2.52276 2.84712 0
M  V30 2675 H 257.184 -3.46899 3.58417 0
M  V30 2676 H 256.338 -5.54285 2.46683 0
M  V30 2677 H 255.077 -4.59826 1.62516 0
M  V30 2678 H 254.082 -3.94046 3.83416 0
M  V30 2679 H 255.307 -4.91896 4.68204 0
M  V30 2680 H 253.253 -5.97715 2.7032 0
M  V30 2681 H 253.17 -6.12766 4.42779 0
M  V30 2682 H 254.438 -6.93657 3.55613 0
M  V30 2683 N 258.668 -1.30515 -0.883378 0
M  V30 2684 C 259.893 -1.22487 -1.67367 0
M  V30 2685 C 260.318 0.208767 -1.86938 0
M  V30 2686 O 259.676 1.15015 -1.40148 0
M  V30 2687 C 259.724 -1.96041 -3.02655 0
M  V30 2688 O 258.828 -1.28859 -3.91751 0
M  V30 2689 H 258.169 -0.423573 -0.511353 0
M  V30 2690 H 260.699 -1.72362 -1.10239 0
M  V30 2691 H 260.709 -2.05124 -3.52687 0
M  V30 2692 H 259.384 -3.00307 -2.8773 0
M  V30 2693 H 257.961 -1.28141 -3.50192 0
M  V30 2694 N 260.146 1.09593 -1.13257 0
M  V30 2695 C 261.393 1.81734 -0.893257 0
M  V30 2696 C 261.721 1.8563 0.580656 0
M  V30 2697 O 260.976 1.31906 1.44566 0
M  V30 2698 C 261.275 3.27802 -1.42411 0
M  V30 2699 C 260.941 3.44041 -2.91456 0
M  V30 2700 C 259.603 3.48181 -3.3215 0
M  V30 2701 C 261.955 3.48719 -3.87356 0
M  V30 2702 C 259.283 3.54575 -4.67433 0
M  V30 2703 C 261.635 3.56648 -5.2248 0
M  V30 2704 C 260.299 3.59055 -5.62704 0
M  V30 2705 H 259.569 0.665011 -0.326866 0
M  V30 2706 H 262.216 1.2912 -1.41422 0
M  V30 2707 H 260.521 3.83042 -0.823795 0
M  V30 2708 H 262.218 3.82149 -1.21503 0
M  V30 2709 H 258.808 3.41502 -2.58987 0
M  V30 2710 H 262.992 3.44763 -3.57004 0
M  V30 2711 H 258.248 3.54725 -4.97976 0
M  V30 2712 H 262.422 3.59212 -5.96607 0
M  V30 2713 H 260.049 3.63763 -6.67518 0
M  V30 2714 N 261.624 0.925811 1.2754 0
M  V30 2715 C 262.554 0.440748 2.29303 0
M  V30 2716 C 263.535 -0.497971 1.62648 0
M  V30 2717 O 264.72 -0.403126 1.8997 0
M  V30 2718 C 261.85 -0.309048 3.45922 0
M  V30 2719 C 260.804 0.54166 4.24559 0
M  V30 2720 C 260.13 -0.337191 5.33636 0
M  V30 2721 C 261.43 1.80516 4.90114 0
M  V30 2722 H 263.124 1.29121 2.70126 0
M  V30 2723 H 260.67 0.622323 1.29858 0
M  V30 2724 H 262.623 -0.659315 4.1621 0
M  V30 2725 H 261.347 -1.19352 3.04011 0
M  V30 2726 H 260.006 0.874609 3.56014 0
M  V30 2727 H 259.654 -1.22056 4.87966 0
M  V30 2728 H 259.354 0.228497 5.87156 0
M  V30 2729 H 260.878 -0.683072 6.06767 0
M  V30 2730 H 262.292 1.52307 5.52698 0
M  V30 2731 H 260.689 2.3142 5.53683 0
M  V30 2732 H 261.759 2.52581 4.13921 0
M  V30 2733 N 263.102 -1.41638 0.69111 0
M  V30 2734 C 264.032 -2.3347 0.037248 0
M  V30 2735 C 265.013 -1.51575 -0.771947 0
M  V30 2736 O 266.198 -1.80126 -0.72582 0
M  V30 2737 C 263.328 -3.35354 -0.903064 0
M  V30 2738 C 262.282 -4.27526 -0.201288 0
M  V30 2739 C 261.608 -5.19747 -1.25565 0
M  V30 2740 C 262.908 -5.13959 0.929689 0
M  V30 2741 H 264.602 -2.88397 0.804227 0
M  V30 2742 H 262.148 -1.38669 0.388189 0
M  V30 2743 H 264.101 -3.98519 -1.36969 0
M  V30 2744 H 262.825 -2.78767 -1.70166 0
M  V30 2745 H 261.484 -3.65779 0.245265 0
M  V30 2746 H 261.132 -4.59479 -2.04666 0
M  V30 2747 H 260.832 -5.8225 -0.791128 0
M  V30 2748 H 262.356 -5.85789 -1.72288 0
M  V30 2749 H 263.77 -5.70718 0.543546 0
M  V30 2750 H 262.167 -5.85379 1.32103 0
M  V30 2751 H 263.237 -4.51389 1.77133 0
M  V30 2752 N 264.58 -0.43555 -1.51462 0
M  V30 2753 C 265.543 0.365137 -2.26273 0
M  V30 2754 C 266.543 0.951227 -1.29647 0
M  V30 2755 O 267.733 0.825958 -1.53374 0
M  V30 2756 C 264.865 1.51645 -3.05314 0
M  V30 2757 H 266.058 -0.290474 -2.9849 0
M  V30 2758 H 263.611 -0.188676 -1.55157 0
M  V30 2759 H 264.346 2.20816 -2.3751 0
M  V30 2760 H 264.131 1.10238 -3.76284 0
M  V30 2761 H 265.621 2.08218 -3.61987 0
M  V30 2762 N 266.058 1.56714 -0.166846 0
M  V30 2763 C 266.988 2.20754 0.760913 0
M  V30 2764 C 267.969 1.16178 1.24244 0
M  V30 2765 O 269.154 1.44592 1.29641 0
M  V30 2766 C 266.284 2.84478 1.99223 0
M  V30 2767 C 265.238 3.95053 1.64672 0
M  V30 2768 C 264.564 4.45805 2.95232 0
M  V30 2769 C 265.864 5.14865 0.878155 0
M  V30 2770 H 267.558 2.98537 0.22713 0
M  V30 2771 H 265.104 1.43596 0.107805 0
M  V30 2772 H 267.057 3.27951 2.64624 0
M  V30 2773 H 265.781 2.04056 2.55007 0
M  V30 2774 H 264.44 3.52228 1.01641 0
M  V30 2775 H 264.088 3.62181 3.49047 0
M  V30 2776 H 263.788 5.204 2.7287 0
M  V30 2777 H 265.312 4.91962 3.6167 0
M  V30 2778 H 266.726 5.55059 1.43466 0
M  V30 2779 H 265.123 5.95348 0.753738 0
M  V30 2780 H 266.193 4.84735 -0.126377 0
M  V30 2781 N 267.536 -0.106894 1.57237 0
M  V30 2782 C 268.947 -0.662723 1.74542 0
M  V30 2783 C 269.298 -1.7971 0.787319 0
M  V30 2784 O 268.423 -2.16368 -0.0369636 0
M  V30 2785 C 269.018 -1.20896 3.16496 0
M  V30 2786 C 267.577 -1.71096 3.35266 0
M  V30 2787 C 266.724 -0.615642 2.7038 0
M  V30 2788 H 269.675 0.119106 1.58252 0
M  V30 2789 H 269.696 -2.07847 3.18716 0
M  V30 2790 H 269.208 -0.383122 3.86204 0
M  V30 2791 H 267.309 -2.56119 2.70618 0
M  V30 2792 H 267.422 -1.81208 4.43509 0
M  V30 2793 H 265.786 -1.05222 2.31949 0
M  V30 2794 H 266.569 0.199419 3.4272 0
M  V30 2795 N 269.014 -1.53014 -0.377408 0
M  V30 2796 C 269.977 -1.77957 -1.44444 0
M  V30 2797 C 270.977 -0.649763 -1.47087 0
M  V30 2798 O 272.167 -0.917897 -1.48055 0
M  V30 2799 C 269.299 -1.89089 -2.83651 0
M  V30 2800 H 270.492 -2.73243 -1.23606 0
M  V30 2801 H 268.045 -1.43912 -0.609844 0
M  V30 2802 H 268.78 -0.958293 -3.09818 0
M  V30 2803 H 268.565 -2.71254 -2.83132 0
M  V30 2804 H 270.055 -2.1002 -3.60945 0
M  V30 2805 N 270.492 0.636531 -1.44174 0
M  V30 2806 C 271.903 1.21806 -1.41493 0
M  V30 2807 C 272.254 1.95785 -0.1275 0
M  V30 2808 O 271.379 2.02147 0.772376 0
M  V30 2809 C 271.974 2.21551 -2.56321 0
M  V30 2810 C 270.533 2.75143 -2.56853 0
M  V30 2811 C 269.68 1.50052 -2.33195 0
M  V30 2812 H 272.631 0.427531 -1.52833 0
M  V30 2813 H 272.652 3.0405 -2.28765 0
M  V30 2814 H 272.164 1.67679 -3.50008 0
M  V30 2815 H 270.265 3.33033 -1.67093 0
M  V30 2816 H 270.378 3.2155 -3.55165 0
M  V30 2817 H 268.742 1.77993 -1.82183 0
M  V30 2818 H 269.525 0.980903 -3.28988 0
M  V30 2819 N 271.97 1.30982 0.876444 0
M  V30 2820 C 272.9 1.20668 1.99903 0
M  V30 2821 C 273.881 0.095354 1.69833 0
M  V30 2822 O 275.066 0.27885 1.92188 0
M  V30 2823 C 272.196 0.90655 3.3526 0
M  V30 2824 C 271.15 1.97675 3.79617 0
M  V30 2825 C 270.476 1.52943 5.1236 0
M  V30 2826 C 271.776 3.389 3.97422 0
M  V30 2827 H 273.47 2.14586 2.0879 0
M  V30 2828 H 271.016 1.03308 1.00317 0
M  V30 2829 H 272.969 0.821025 4.13324 0
M  V30 2830 H 271.693 -0.0682969 3.26529 0
M  V30 2831 H 270.352 2.05205 3.03787 0
M  V30 2832 H 270 0.54262 5.00065 0
M  V30 2833 H 269.7 2.24532 5.43009 0
M  V30 2834 H 271.224 1.45786 5.92941 0
M  V30 2835 H 272.638 3.34081 4.659 0
M  V30 2836 H 271.035 4.0865 4.3946 0
M  V30 2837 H 272.105 3.80163 3.01006 0
M  V30 2838 N 273.449 -1.08991 1.13837 0
M  V30 2839 C 274.695 -1.81526 0.90422 0
M  V30 2840 C 275.028 -1.85706 -0.568066 0
M  V30 2841 O 274.303 -1.32855 -1.42056 0
M  V30 2842 C 274.586 -3.27447 1.49835 0
M  V30 2843 C 274.439 -3.31512 3.04006 0
M  V30 2844 C 275.758 -4.24256 1.17025 0
M  V30 2845 H 272.877 -0.659029 0.329923 0
M  V30 2846 H 275.519 -1.27644 1.40737 0
M  V30 2847 H 273.669 -3.73462 1.07044 0
M  V30 2848 H 275.341 -2.93867 3.55584 0
M  V30 2849 H 273.584 -2.70963 3.38765 0
M  V30 2850 H 274.255 -4.34329 3.40679 0
M  V30 2851 H 276.731 -3.86549 1.54009 0
M  V30 2852 H 275.607 -5.24684 1.61237 0
M  V30 2853 H 275.868 -4.42019 0.0846274 0
M  V30 2854 N 274.927 -0.932562 -1.27047 0
M  V30 2855 C 276.155 -0.592031 -1.98249 0
M  V30 2856 C 276.57 0.831062 -1.69525 0
M  V30 2857 O 275.927 1.55299 -0.958561 0
M  V30 2858 C 275.978 -0.814279 -3.5221 0
M  V30 2859 O 275.699 -2.18139 -3.7993 0
M  V30 2860 C 277.2 -0.483121 -4.4066 0
M  V30 2861 H 274.42 -0.223896 -0.632544 0
M  V30 2862 H 276.964 -1.25091 -1.61779 0
M  V30 2863 H 275.119 -0.20213 -3.86872 0
M  V30 2864 H 275.533 -2.235 -4.74498 0
M  V30 2865 H 277.007 -0.689298 -5.47679 0
M  V30 2866 H 277.484 0.581546 -4.35333 0
M  V30 2867 H 278.09 -1.07362 -4.11526 0
M  V30 2868 N 276.405 1.4127 -0.698611 0
M  V30 2869 C 277.816 1.84187 -0.305289 0
M  V30 2870 C 278.167 1.58449 1.15708 0
M  V30 2871 O 277.292 1.05651 1.88856 0
M  V30 2872 C 277.887 3.3435 -0.547314 0
M  V30 2873 C 276.446 3.75826 -0.207878 0
M  V30 2874 C 275.593 2.64647 -0.828099 0
M  V30 2875 H 278.544 1.30778 -0.89904 0
M  V30 2876 H 278.565 3.8001 0.192998 0
M  V30 2877 H 278.077 3.53051 -1.61172 0
M  V30 2878 H 276.178 3.62725 0.852143 0
M  V30 2879 H 276.291 4.74462 -0.665021 0
M  V30 2880 H 274.655 2.53395 -0.257458 0
M  V30 2881 H 275.438 2.86165 -1.89643 0
M  V30 2882 N 277.883 0.443576 1.51229 0
M  V30 2883 C 278.793 -0.370721 2.31652 0
M  V30 2884 C 279.809 -1.02186 1.40833 0
M  V30 2885 O 280.985 -1.01586 1.73903 0
M  V30 2886 C 278.05 -1.45376 3.14749 0
M  V30 2887 C 277.111 -0.822099 4.21355 0
M  V30 2888 C 276.344 -1.85353 5.0048 0
M  V30 2889 O 276.567 -3.07656 4.80316 0
M  V30 2890 O 275.501 -1.4406 5.84406 0
M  V30 2891 H 279.327 0.286002 3.0235 0
M  V30 2892 H 276.912 0.20598 1.47973 0
M  V30 2893 H 278.794 -2.08173 3.66391 0
M  V30 2894 H 277.469 -2.09445 2.46809 0
M  V30 2895 H 276.376 -0.155909 3.73775 0
M  V30 2896 H 277.709 -0.224797 4.91686 0
M  V30 2897 N 279.361 -1.56624 0.175154 0
M  V30 2898 C 280.324 -2.16934 -0.739738 0
M  V30 2899 C 281.324 -1.11842 -1.15533 0
M  V30 2900 O 282.514 -1.37335 -1.07167 0
M  V30 2901 C 279.646 -2.75531 -2.00738 0
M  V30 2902 H 280.839 -2.99131 -0.214639 0
M  V30 2903 H 278.392 -1.56123 -0.0744197 0
M  V30 2904 H 279.127 -1.97078 -2.57548 0
M  V30 2905 H 278.912 -3.52444 -1.71831 0
M  V30 2906 H 280.402 -3.21904 -2.66021 0
M  V30 2907 N 280.839 0.0985539 -1.57292 0
M  V30 2908 C 282.064 0.820196 -1.90493 0
M  V30 2909 C 282.489 1.71658 -0.769094 0
M  V30 2910 O 281.847 1.79133 0.279495 0
M  V30 2911 C 281.895 1.61242 -3.22542 0
M  V30 2912 O 280.999 2.72108 -3.09888 0
M  V30 2913 H 280.34 0.225547 -0.62452 0
M  V30 2914 H 282.87 0.0748159 -2.04463 0
M  V30 2915 H 282.88 1.99737 -3.55766 0
M  V30 2916 H 281.555 0.954535 -4.04798 0
M  V30 2917 H 280.132 2.36667 -2.88172 0
M  V30 2918 N 282.317 1.53212 0.369288 0
M  V30 2919 C 283.28 1.7872 1.43498 0
M  V30 2920 C 284.28 0.657554 1.46741 0
M  V30 2921 O 285.47 0.925736 1.47566 0
M  V30 2922 C 282.602 1.90591 2.82645 0
M  V30 2923 H 283.795 2.73894 1.22156 0
M  V30 2924 H 281.348 1.44233 0.602203 0
M  V30 2925 H 282.083 0.974709 3.09306 0
M  V30 2926 H 281.868 2.72751 2.8169 0
M  V30 2927 H 283.358 2.11931 3.59826 0
M  V30 2928 N 283.795 -0.628877 1.44509 0
M  V30 2929 C 284.705 -1.7694 1.54044 0
M  V30 2930 C 285.721 -1.68705 0.425987 0
M  V30 2931 O 286.897 -1.89442 0.683656 0
M  V30 2932 C 283.962 -3.13332 1.48405 0
M  V30 2933 C 283.023 -3.33181 2.70719 0
M  V30 2934 C 282.256 -4.63067 2.6534 0
M  V30 2935 O 282.479 -5.44017 1.71469 0
M  V30 2936 O 281.413 -4.85167 3.56226 0
M  V30 2937 H 285.239 -1.71848 2.50403 0
M  V30 2938 H 282.824 -0.790378 1.26781 0
M  V30 2939 H 284.706 -3.94634 1.47791 0
M  V30 2940 H 283.381 -3.1896 0.551898 0
M  V30 2941 H 282.288 -2.51549 2.769 0
M  V30 2942 H 283.621 -3.32416 3.62988 0
M  V30 2943 N 285.273 -1.31445 -0.869486 0
M  V30 2944 C 286.236 -1.19094 -1.9583 0
M  V30 2945 C 287.236 -0.117906 -1.60367 0
M  V30 2946 O 288.426 -0.367208 -1.70286 0
M  V30 2947 C 285.558 -0.828165 -3.30688 0
M  V30 2948 H 286.751 -2.15842 -2.08212 0
M  V30 2949 H 284.304 -1.15063 -1.05784 0
M  V30 2950 H 285.039 0.138142 -3.24006 0
M  V30 2951 H 284.824 -1.6038 -3.578 0
M  V30 2952 H 286.314 -0.765658 -4.10521 0
M  V30 2953 N 286.751 1.08385 -1.14413 0
M  V30 2954 C 288.167 1.32844 -0.884563 0
M  V30 2955 C 288.367 1.95841 0.474181 0
M  V30 2956 O 287.423 2.21158 1.21842 0
M  V30 2957 C 288.736 2.22978 -2.01745 0
M  V30 2958 C 290.284 2.36458 -2.05077 0
M  V30 2959 C 290.759 3.29934 -3.1766 0
M  V30 2960 N 292.25 3.37511 -3.17239 0
M  V30 2961 C 292.985 4.09871 -4.0099 0
M  V30 2962 N 292.481 4.84936 -4.94781 0
M  V30 2963 N 294.274 4.05704 -3.89051 0
M  V30 2964 H 286.425 0.658756 -2.01926 0
M  V30 2965 H 288.688 0.352821 -0.879899 0
M  V30 2966 H 288.394 1.83934 -2.99769 0
M  V30 2967 H 288.268 3.23441 -1.94077 0
M  V30 2968 H 290.655 2.7476 -1.0766 0
M  V30 2969 H 290.736 1.35736 -2.16816 0
M  V30 2970 H 290.38 2.92352 -4.15322 0
M  V30 2971 H 290.31 4.30584 -3.03158 0
M  V30 2972 H 292.801 2.83996 -2.49308 0
M  V30 2973 H 293.114 5.37612 -5.55151 0
M  V30 2974 H 291.459 4.83988 -4.98779 0
M  V30 2975 H 294.65 3.46167 -3.15097 0
M  V30 2976 H 294.823 4.61834 -4.54547 0
M  V30 2977 N 288.23 0.939286 1.26551 0
M  V30 2978 C 289.646 0.641304 1.46149 0
M  V30 2979 C 289.846 -0.805964 1.84679 0
M  V30 2980 O 288.902 -1.58278 1.96734 0
M  V30 2981 C 290.215 1.6011 2.54529 0
M  V30 2982 C 291.763 1.6106 2.68382 0
M  V30 2983 C 292.238 2.55765 3.79932 0
M  V30 2984 N 293.729 2.5404 3.87322 0
M  V30 2985 C 294.464 3.24004 4.73085 0
M  V30 2986 N 293.96 4.03388 5.63249 0
M  V30 2987 N 295.753 3.12965 4.66914 0
M  V30 2988 H 287.904 1.87478 0.998285 0
M  V30 2989 H 290.167 0.805559 0.499779 0
M  V30 2990 H 289.873 2.63412 2.33039 0
M  V30 2991 H 289.747 1.35171 3.52149 0
M  V30 2992 H 292.134 0.584835 2.89247 0
M  V30 2993 H 292.215 1.90053 1.71212 0
M  V30 2994 H 291.859 3.58458 3.5982 0
M  V30 2995 H 291.789 2.24063 4.76554 0
M  V30 2996 H 294.28 1.96396 3.22858 0
M  V30 2997 H 294.593 4.5373 6.25579 0
M  V30 2998 H 292.938 4.07489 5.63008 0
M  V30 2999 H 296.129 2.50432 3.95476 0
M  V30 3000 H 296.302 3.67759 5.33533 0
M  V30 3001 N 289.708 -1.40897 0.706093 0
M  V30 3002 C 290.671 -2.29131 0.0562841 0
M  V30 3003 C 291.671 -1.44901 -0.697166 0
M  V30 3004 O 292.861 -1.65926 -0.530484 0
M  V30 3005 C 289.993 -3.27957 -0.93043 0
M  V30 3006 H 291.186 -2.88091 0.833284 0
M  V30 3007 H 288.739 -1.4906 0.470192 0
M  V30 3008 H 289.474 -2.73997 -1.73482 0
M  V30 3009 H 289.259 -3.90124 -0.393166 0
M  V30 3010 H 290.749 -3.94049 -1.38256 0
M  V30 3011 N 291.186 -0.45159 -1.50991 0
M  V30 3012 C 292.116 0.342898 -2.30969 0
M  V30 3013 C 293.097 1.00815 -1.37005 0
M  V30 3014 O 294.282 1.00907 -1.65926 0
M  V30 3015 C 291.412 1.43637 -3.16205 0
M  V30 3016 C 290.366 0.893818 -4.18563 0
M  V30 3017 C 289.692 2.08411 -4.92411 0
M  V30 3018 C 290.992 -0.0815568 -5.22236 0
M  V30 3019 H 292.686 -0.324556 -2.97636 0
M  V30 3020 H 290.232 -0.157531 -1.43136 0
M  V30 3021 H 292.185 1.9995 -3.70942 0
M  V30 3022 H 290.909 2.13232 -2.47386 0
M  V30 3023 H 289.568 0.352798 -3.64898 0
M  V30 3024 H 289.216 2.76658 -4.20082 0
M  V30 3025 H 288.916 1.72741 -5.61636 0
M  V30 3026 H 290.44 2.65251 -5.49976 0
M  V30 3027 H 291.854 0.391742 -5.7196 0
M  V30 3028 H 290.251 -0.351551 -5.99069 0
M  V30 3029 H 291.321 -1.01374 -4.74185 0
M  V30 3030 N 292.664 1.56529 -0.183458 0
M  V30 3031 C 294.08 1.58664 0.172554 0
M  V30 3032 C 294.28 1.19925 1.61926 0
M  V30 3033 O 293.336 0.916534 2.35278 0
M  V30 3034 C 294.649 3.00463 -0.119262 0
M  V30 3035 C 296.197 3.12945 -0.0584396 0
M  V30 3036 C 296.672 4.56857 -0.323408 0
M  V30 3037 N 298.163 4.62403 -0.271612 0
M  V30 3038 C 298.898 5.71626 -0.450639 0
M  V30 3039 N 298.394 6.89362 -0.689384 0
M  V30 3040 N 300.187 5.60775 -0.385701 0
M  V30 3041 H 292.338 1.79994 -1.12765 0
M  V30 3042 H 294.601 0.834808 -0.449222 0
M  V30 3043 H 294.307 3.33326 -1.12192 0
M  V30 3044 H 294.181 3.72659 0.583544 0
M  V30 3045 H 296.568 2.79902 0.934805 0
M  V30 3046 H 296.649 2.4316 -0.794144 0
M  V30 3047 H 296.293 4.9061 -1.31392 0
M  V30 3048 H 296.223 5.24816 0.43305 0
M  V30 3049 H 298.714 3.77785 -0.0932256 0
M  V30 3050 H 299.027 7.68489 -0.815113 0
M  V30 3051 H 297.372 6.91196 -0.726142 0
M  V30 3052 H 300.563 4.67674 -0.199687 0
M  V30 3053 H 300.736 6.4584 -0.528646 0
M  V30 3054 N 294.142 -0.090211 1.57342 0
M  V30 3055 C 295.052 -1.12735 2.05738 0
M  V30 3056 C 296.068 -1.43557 0.983231 0
M  V30 3057 O 297.244 -1.54101 1.29672 0
M  V30 3058 C 294.309 -2.42659 2.47624 0
M  V30 3059 C 293.37 -2.18975 3.69254 0
M  V30 3060 C 292.603 -3.42704 4.09133 0
M  V30 3061 O 292.826 -4.51127 3.49057 0
M  V30 3062 O 291.76 -3.32003 5.02053 0
M  V30 3063 H 295.586 -0.746279 2.94388 0
M  V30 3064 H 293.171 -0.303064 1.46294 0
M  V30 3065 H 295.053 -3.19155 2.7517 0
M  V30 3066 H 293.728 -2.80182 1.62109 0
M  V30 3067 H 292.635 -1.40244 3.46818 0
M  V30 3068 H 293.968 -1.86342 4.55563 0
M  V30 3069 N 295.62 -1.53406 -0.361157 0
M  V30 3070 C 296.583 -1.79479 -1.42548 0
M  V30 3071 C 297.583 -0.665327 -1.4639 0
M  V30 3072 O 298.773 -0.933549 -1.47073 0
M  V30 3073 C 295.905 -1.92087 -2.8163 0
M  V30 3074 H 297.098 -2.74538 -1.20701 0
M  V30 3075 H 294.651 -1.4455 -0.594546 0
M  V30 3076 H 295.386 -0.991099 -3.08784 0
M  V30 3077 H 295.171 -2.74241 -2.80239 0
M  V30 3078 H 296.661 -2.13836 -3.58697 0
M  V30 3079 N 297.098 0.621204 -1.44841 0
M  V30 3080 C 298.061 1.71459 -1.521 0
M  V30 3081 C 299.061 1.55696 -0.401933 0
M  V30 3082 O 300.251 1.61011 -0.664925 0
M  V30 3083 C 297.383 3.10624 -1.40447 0
M  V30 3084 H 298.576 1.66394 -2.49506 0
M  V30 3085 H 296.129 0.835745 -1.3208 0
M  V30 3086 H 296.864 3.21277 -0.441737 0
M  V30 3087 H 296.649 3.23473 -2.21602 0
M  V30 3088 H 298.139 3.90293 -1.4853 0
M  V30 3089 N 298.576 1.31904 0.862503 0
M  V30 3090 C 299.824 1.21776 1.61292 0
M  V30 3091 C 300.145 -0.222413 1.93727 0
M  V30 3092 O 299.415 -1.1451 1.58947 0
M  V30 3093 H 297.995 0.447717 0.597962 0
M  V30 3094 H 300.657 1.65326 1.03215 0
M  V30 3095 H 299.753 1.7948 2.5533 0
M  V30 3096 N 300.054 -1.07777 1.14986 0
M  V30 3097 C 301.465 -1.61766 0.932127 0
M  V30 3098 C 301.816 -1.88974 -0.527581 0
M  V30 3099 O 300.941 -1.65198 -1.39781 0
M  V30 3100 C 301.536 -2.93891 1.68563 0
M  V30 3101 C 300.095 -3.44639 1.5133 0
M  V30 3102 C 299.242 -2.18767 1.704 0
M  V30 3103 H 302.193 -0.909201 1.30074 0
M  V30 3104 H 302.214 -3.62623 1.15259 0
M  V30 3105 H 301.726 -2.74057 2.74799 0
M  V30 3106 H 299.827 -3.69564 0.474702 0
M  V30 3107 H 299.94 -4.20966 2.28746 0
M  V30 3108 H 298.304 -2.28253 1.13016 0
M  V30 3109 H 299.087 -2.01433 2.77992 0
M  V30 3110 N 301.532 -0.945985 -1.26051 0
M  V30 3111 C 302.778 -0.597002 -1.93814 0
M  V30 3112 C 303.111 0.862484 -1.73997 0
M  V30 3113 O 302.386 1.61769 -1.07986 0
M  V30 3114 C 302.669 -0.945937 -3.47454 0
M  V30 3115 C 302.522 -2.46052 -3.76535 0
M  V30 3116 C 303.841 -0.464785 -4.37639 0
M  V30 3117 H 300.96 -0.218366 -0.703907 0
M  V30 3118 H 303.602 -1.18107 -1.48831 0
M  V30 3119 H 301.752 -0.448902 -3.85898 0
M  V30 3120 H 303.424 -3.03065 -3.47778 0
M  V30 3121 H 301.667 -2.90194 -3.22444 0
M  V30 3122 H 302.338 -2.65517 -4.83947 0
M  V30 3123 H 304.814 -0.891016 -4.06448 0
M  V30 3124 H 303.69 -0.737712 -5.4392 0
M  V30 3125 H 303.951 0.635274 -4.37512 0
M  V30 3126 N 303.011 1.40521 -0.713556 0
M  V30 3127 C 304.259 2.00527 -0.251692 0
M  V30 3128 C 304.58 1.56857 1.15848 0
M  V30 3129 O 303.85 0.807127 1.785 0
M  V30 3130 H 302.43 0.741551 -0.0900646 0
M  V30 3131 H 305.092 1.71887 -0.918733 0
M  V30 3132 H 304.188 3.10813 -0.283192 0
M  V30 3133 N 304.489 0.459591 1.5075 0
M  V30 3134 C 305.9 0.00171547 1.867 0
M  V30 3135 C 306.251 -1.39934 1.37525 0
M  V30 3136 O 305.376 -2.03523 0.735349 0
M  V30 3137 C 305.971 -0.00366298 3.388 0
M  V30 3138 C 304.53 -0.406026 3.74204 0
M  V30 3139 C 303.677 0.38673 2.7459 0
M  V30 3140 H 306.628 0.674413 1.43657 0
M  V30 3141 H 306.649 -0.808371 3.71814 0
M  V30 3142 H 306.161 1.01617 3.74561 0
M  V30 3143 H 304.262 -1.43063 3.4404 0
M  V30 3144 H 304.375 -0.115362 4.78961 0
M  V30 3145 H 302.739 -0.158019 2.54209 0
M  V30 3146 H 303.522 1.40585 3.13194 0
M  V30 3147 N 305.967 -1.56429 0.191757 0
M  V30 3148 C 306.93 -2.17707 -0.716688 0
M  V30 3149 C 307.93 -1.13061 -1.14341 0
M  V30 3150 O 309.12 -1.38464 -1.05704 0
M  V30 3151 C 306.252 -2.77644 -1.97804 0
M  V30 3152 H 307.445 -2.99342 -0.1829 0
M  V30 3153 H 304.998 -1.56193 -0.0578566 0
M  V30 3154 H 305.733 -1.99799 -2.55443 0
M  V30 3155 H 305.518 -3.54246 -1.68083 0
M  V30 3156 H 307.008 -3.24708 -2.62592 0
M  V30 3157 N 307.445 0.0818655 -1.57387 0
M  V30 3158 C 308.375 1.09885 -2.06028 0
M  V30 3159 C 309.356 1.4098 -0.951774 0
M  V30 3160 O 310.541 1.50781 -1.22387 0
M  V30 3161 C 307.671 2.4151 -2.4958 0
M  V30 3162 C 306.625 2.24792 -3.64215 0
M  V30 3163 C 305.951 3.61712 -3.93787 0
M  V30 3164 C 307.251 1.67749 -4.94629 0
M  V30 3165 H 308.945 0.694128 -2.91243 0
M  V30 3166 H 306.491 0.332448 -1.4011 0
M  V30 3167 H 308.444 3.12939 -2.82219 0
M  V30 3168 H 307.168 2.83943 -1.61381 0
M  V30 3169 H 305.827 1.55807 -3.31843 0
M  V30 3170 H 305.475 4.01697 -3.02735 0
M  V30 3171 H 305.175 3.51368 -4.70971 0
M  V30 3172 H 306.699 4.34587 -4.28913 0
M  V30 3173 H 308.113 2.29032 -5.25564 0
M  V30 3174 H 306.51 1.68128 -5.76067 0
M  V30 3175 H 307.58 0.638059 -4.80684 0
M  V30 3176 N 308.923 1.53595 0.353017 0
M  V30 3177 C 309.833 1.83897 1.45667 0
M  V30 3178 C 310.849 0.728334 1.58023 0
M  V30 3179 O 312.025 1.01968 1.73679 0
M  V30 3180 C 309.09 2.03383 2.80778 0
M  V30 3181 C 308.151 3.27262 2.77845 0
M  V30 3182 C 307.384 3.45809 4.06512 0
M  V30 3183 O 307.607 2.68387 5.03314 0
M  V30 3184 O 306.541 4.39207 4.11559 0
M  V30 3185 H 310.367 2.77686 1.2298 0
M  V30 3186 H 307.952 1.39132 0.544308 0
M  V30 3187 H 309.834 2.17698 3.60812 0
M  V30 3188 H 308.509 1.12783 3.03417 0
M  V30 3189 H 307.416 3.18359 1.96465 0
M  V30 3190 H 308.749 4.17824 2.60161 0
M  V30 3191 N 310.401 -0.613514 1.45168 0
M  V30 3192 C 311.812 -1.19539 1.43413 0
M  V30 3193 C 312.163 -1.95558 0.158632 0
M  V30 3194 O 311.288 -2.0335 -0.740119 0
M  V30 3195 C 311.883 -2.17445 2.59813 0
M  V30 3196 C 310.442 -2.71022 2.61197 0
M  V30 3197 C 309.589 -1.46323 2.35552 0
M  V30 3198 H 312.54 -0.403163 1.53494 0
M  V30 3199 H 312.561 -3.00373 2.33574 0
M  V30 3200 H 312.073 -1.62089 3.52631 0
M  V30 3201 H 310.174 -3.30332 1.7237 0
M  V30 3202 H 310.287 -3.15859 3.60236 0
M  V30 3203 H 308.651 -1.75072 1.84992 0
M  V30 3204 H 309.434 -0.92844 3.30507 0
M  V30 3205 N 311.879 -1.3236 -0.855495 0
M  V30 3206 C 313.29 -1.2056 -1.42556 0
M  V30 3207 C 313.641 0.182209 -1.95352 0
M  V30 3208 O 312.766 1.08088 -1.87472 0
M  V30 3209 C 313.361 -2.1826 -2.59129 0
M  V30 3210 C 311.92 -2.10351 -3.12137 0
M  V30 3211 C 311.067 -2.06674 -1.84882 0
M  V30 3212 H 314.018 -1.442 -0.662727 0
M  V30 3213 H 314.039 -1.78064 -3.36264 0
M  V30 3214 H 313.551 -3.19257 -2.20673 0
M  V30 3215 H 311.652 -1.12599 -3.55179 0
M  V30 3216 H 311.765 -3.00135 -3.73438 0
M  V30 3217 H 310.129 -1.51901 -2.04446 0
M  V30 3218 H 310.912 -3.09451 -1.48643 0
M  V30 3219 N 313.357 1.07166 -1.15556 0
M  V30 3220 C 314.585 1.83514 -0.955519 0
M  V30 3221 C 315 1.82163 0.49621 0
M  V30 3222 O 314.357 1.23441 1.34419 0
M  V30 3223 C 314.408 3.30515 -1.46432 0
M  V30 3224 O 314.129 3.31937 -2.85918 0
M  V30 3225 C 315.63 4.23625 -1.30603 0
M  V30 3226 H 312.85 0.578926 -0.339244 0
M  V30 3227 H 315.394 1.35265 -1.53374 0
M  V30 3228 H 313.549 3.76106 -0.928584 0
M  V30 3229 H 313.963 4.23794 -3.09029 0
M  V30 3230 H 315.437 5.24831 -1.71047 0
M  V30 3231 H 315.914 4.38485 -0.250441 0
M  V30 3232 H 316.52 3.83871 -1.83094 0
M  V30 3233 N 314.835 0.952656 1.25548 0
M  V30 3234 C 315.765 0.489287 2.28316 0
M  V30 3235 C 316.746 -0.463359 1.63667 0
M  V30 3236 O 317.931 -0.36274 1.90782 0
M  V30 3237 C 315.061 -0.235603 3.465 0
M  V30 3238 C 314.015 0.631593 4.23314 0
M  V30 3239 C 313.341 -0.223923 5.34231 0
M  V30 3240 C 314.641 1.90871 4.86174 0
M  V30 3241 H 316.335 1.34822 2.67326 0
M  V30 3242 H 313.881 0.649728 1.28509 0
M  V30 3243 H 315.834 -0.570882 4.17515 0
M  V30 3244 H 314.558 -1.12877 3.06474 0
M  V30 3245 H 313.217 0.949929 3.54079 0
M  V30 3246 H 312.865 -1.11678 4.90446 0
M  V30 3247 H 312.565 0.35299 5.86539 0
M  V30 3248 H 314.089 -0.554214 6.0808 0
M  V30 3249 H 315.503 1.63997 5.49343 0
M  V30 3250 H 313.9 2.43112 5.4865 0
M  V30 3251 H 314.97 2.61304 4.08471 0
M  V30 3252 N 316.313 -1.40141 0.720998 0
M  V30 3253 C 317.724 -1.83678 0.334553 0
M  V30 3254 C 318.075 -1.6027 -1.13173 0
M  V30 3255 O 317.2 -1.08643 -1.87152 0
M  V30 3256 C 317.795 -3.33437 0.600437 0
M  V30 3257 C 316.354 -3.75447 0.267642 0
M  V30 3258 C 315.501 -2.63296 0.870097 0
M  V30 3259 H 318.452 -1.29331 0.919732 0
M  V30 3260 H 318.473 -3.80269 -0.132517 0
M  V30 3261 H 317.985 -3.50442 1.66768 0
M  V30 3262 H 316.086 -3.64035 -0.794329 0
M  V30 3263 H 316.199 -4.73344 0.74042 0
M  V30 3264 H 314.563 -2.52954 0.297739 0
M  V30 3265 H 315.346 -2.83112 1.94172 0
M  V30 3266 N 317.792 -0.46758 -1.50504 0
M  V30 3267 C 318.722 0.318381 -2.31319 0
M  V30 3268 C 319.703 0.993564 -1.38066 0
M  V30 3269 O 320.888 0.991411 -1.66987 0
M  V30 3270 C 318.018 1.40275 -3.17711 0
M  V30 3271 C 316.972 0.849373 -4.19487 0
M  V30 3272 C 316.298 2.03177 -4.94594 0
M  V30 3273 C 317.598 -0.136942 -5.2212 0
M  V30 3274 H 319.292 -0.356106 -2.97275 0
M  V30 3275 H 316.838 -0.172703 -1.42961 0
M  V30 3276 H 318.791 1.96004 -3.73042 0
M  V30 3277 H 317.515 2.10596 -2.49634 0
M  V30 3278 H 316.174 0.314076 -3.65252 0
M  V30 3279 H 315.822 2.72187 -4.22993 0
M  V30 3280 H 315.522 1.66774 -5.63436 0
M  V30 3281 H 317.046 2.59403 -5.52759 0
M  V30 3282 H 318.46 0.331056 -5.72343 0
M  V30 3283 H 316.857 -0.41507 -5.98663 0
M  V30 3284 H 317.927 -1.06398 -4.73083 0
M  V30 3285 N 319.27 1.56325 -0.20005 0
M  V30 3286 C 320.22 2.15939 0.731743 0
M  V30 3287 C 321.204 1.10154 1.17281 0
M  V30 3288 O 322.396 1.36203 1.13038 0
M  V30 3289 C 319.525 2.82614 1.94895 0
M  V30 3290 C 318.611 3.95596 1.52855 0
M  V30 3291 N 319.002 4.99118 0.819418 0
M  V30 3292 C 317.3 4.07288 1.81748 0
M  V30 3293 C 318.001 5.78513 0.608053 0
M  V30 3294 N 316.977 5.31117 1.15828 0
M  V30 3295 H 320.779 2.9334 0.181285 0
M  V30 3296 H 318.293 1.624 -0.000452172 0
M  V30 3297 H 320.29 3.23718 2.62702 0
M  V30 3298 H 318.95 2.06702 2.50408 0
M  V30 3299 H 319.961 5.15723 0.47436 0
M  V30 3300 H 316.638 3.42509 2.38734 0
M  V30 3301 H 318.028 6.71885 0.0451619 0
M  V30 3302 N 320.748 -0.0735177 1.57428 0
M  V30 3303 C 322.164 -0.428264 1.53747 0
M  V30 3304 C 322.364 -1.79272 0.91998 0
M  V30 3305 O 321.42 -2.47051 0.521745 0
M  V30 3306 C 322.733 -0.370914 2.98404 0
M  V30 3307 C 324.281 -0.451224 3.0973 0
M  V30 3308 C 324.756 -0.4238 4.56035 0
M  V30 3309 N 326.247 -0.483925 4.60665 0
M  V30 3310 C 326.982 -0.484891 5.71346 0
M  V30 3311 N 326.478 -0.440775 6.91396 0
M  V30 3312 N 328.271 -0.531319 5.59583 0
M  V30 3313 H 320.422 0.819949 1.95935 0
M  V30 3314 H 322.685 0.307493 0.896745 0
M  V30 3315 H 322.391 0.564956 3.47133 0
M  V30 3316 H 322.265 -1.18176 3.5821 0
M  V30 3317 H 324.652 -1.37752 2.60976 0
M  V30 3318 H 324.733 0.388167 2.52838 0
M  V30 3319 H 324.377 0.498638 5.05446 0
M  V30 3320 H 324.307 -1.2807 5.10789 0
M  V30 3321 H 326.798 -0.522338 3.74273 0
M  V30 3322 H 327.111 -0.44539 7.71515 0
M  V30 3323 H 325.456 -0.40749 6.93804 0
M  V30 3324 H 328.647 -0.563464 4.64696 0
M  V30 3325 H 328.82 -0.528603 6.4584 0
M  V30 3326 N 322.226 -1.5378 -0.344866 0
M  V30 3327 C 323.189 -1.80981 -1.40637 0
M  V30 3328 C 324.189 -0.680816 -1.45676 0
M  V30 3329 O 325.379 -0.949095 -1.46075 0
M  V30 3330 C 322.511 -1.95063 -2.79577 0
M  V30 3331 H 323.704 -2.75803 -1.17783 0
M  V30 3332 H 321.257 -1.45173 -0.579181 0
M  V30 3333 H 321.992 -1.02379 -3.07716 0
M  V30 3334 H 321.777 -2.77198 -2.77315 0
M  V30 3335 H 323.267 -2.17629 -3.56409 0
M  V30 3336 N 323.704 0.605807 -1.45491 0
M  V30 3337 C 324.634 1.72709 -1.57143 0
M  V30 3338 C 325.615 1.6476 -0.422884 0
M  V30 3339 O 326.8 1.83132 -0.646247 0
M  V30 3340 C 323.93 3.11316 -1.53948 0
M  V30 3341 C 322.884 3.34077 -2.67537 0
M  V30 3342 C 322.21 4.72975 -2.49397 0
M  V30 3343 C 323.51 3.24158 -4.09535 0
M  V30 3344 H 325.204 1.63214 -2.51001 0
M  V30 3345 H 322.75 0.78379 -1.208 0
M  V30 3346 H 324.703 3.89557 -1.60696 0
M  V30 3347 H 323.427 3.21655 -0.566205 0
M  V30 3348 H 322.086 2.58227 -2.6022 0
M  V30 3349 H 321.734 4.8005 -1.50205 0
M  V30 3350 H 321.434 4.8916 -3.25571 0
M  V30 3351 H 322.958 5.53414 -2.58002 0
M  V30 3352 H 324.372 3.92271 -4.18086 0
M  V30 3353 H 322.769 3.51872 -4.86113 0
M  V30 3354 H 323.839 2.2157 -4.31317 0
M  V30 3355 N 325.182 1.32811 0.848464 0
M  V30 3356 C 326.41 1.26739 1.63538 0
M  V30 3357 C 326.825 -0.163484 1.88091 0
M  V30 3358 O 326.182 -1.10258 1.45429 0
M  V30 3359 C 326.233 2.03013 2.99112 0
M  V30 3360 O 325.954 3.40518 2.75643 0
M  V30 3361 C 327.455 2.04038 3.93552 0
M  V30 3362 H 324.675 0.437024 0.509167 0
M  V30 3363 H 327.219 1.75033 1.05753 0
M  V30 3364 H 325.374 1.58426 3.53525 0
M  V30 3365 H 325.788 3.79635 3.61908 0
M  V30 3366 H 327.262 2.61877 4.85926 0
M  V30 3367 H 327.739 1.0282 4.26995 0
M  V30 3368 H 328.345 2.486 3.45077 0
M  V30 3369 N 326.66 -1.06551 1.16123 0
M  V30 3370 C 327.59 -2.15935 0.88851 0
M  V30 3371 C 328.571 -1.69306 -0.164135 0
M  V30 3372 O 329.756 -1.94193 -0.0167857 0
M  V30 3373 C 326.886 -3.45149 0.385942 0
M  V30 3374 C 325.84 -4.05271 1.3762 0
M  V30 3375 C 325.166 -5.29664 0.732137 0
M  V30 3376 C 326.466 -4.44355 2.74493 0
M  V30 3377 H 328.16 -2.39006 1.80323 0
M  V30 3378 H 325.706 -1.14866 0.868435 0
M  V30 3379 H 327.659 -4.21004 0.182647 0
M  V30 3380 H 326.383 -3.21689 -0.564274 0
M  V30 3381 H 325.042 -3.3147 1.56599 0
M  V30 3382 H 324.69 -5.02499 -0.224483 0
M  V30 3383 H 324.39 -5.70848 1.39307 0
M  V30 3384 H 325.914 -6.08218 0.538802 0
M  V30 3385 H 327.328 -5.11303 2.59311 0
M  V30 3386 H 325.725 -4.96515 3.37035 0
M  V30 3387 H 326.795 -3.55339 3.29943 0
M  V30 3388 N 328.138 -0.959301 -1.25041 0
M  V30 3389 C 329.554 -0.664474 -1.4511 0
M  V30 3390 C 329.754 0.776481 -1.85938 0
M  V30 3391 O 328.81 1.55128 -1.99227 0
M  V30 3392 C 330.123 -1.64139 -2.5195 0
M  V30 3393 C 331.671 -1.65309 -2.65786 0
M  V30 3394 C 332.146 -2.61777 -3.75815 0
M  V30 3395 N 333.637 -2.60169 -3.83231 0
M  V30 3396 C 334.372 -3.31489 -4.6787 0
M  V30 3397 N 333.868 -4.12298 -5.56761 0
M  V30 3398 N 335.661 -3.20354 -4.61876 0
M  V30 3399 H 327.812 -1.89043 -0.968332 0
M  V30 3400 H 330.075 -0.813408 -0.4869 0
M  V30 3401 H 329.781 -2.67086 -2.28819 0
M  V30 3402 H 329.655 -1.40756 -3.49954 0
M  V30 3403 H 332.042 -0.630778 -2.8828 0
M  V30 3404 H 332.123 -1.92753 -1.68167 0
M  V30 3405 H 331.767 -3.64137 -3.54071 0
M  V30 3406 H 331.697 -2.31616 -4.72929 0
M  V30 3407 H 334.188 -2.01507 -3.19692 0
M  V30 3408 H 334.501 -4.63625 -6.18281 0
M  V30 3409 H 332.846 -4.16395 -5.56454 0
M  V30 3410 H 336.037 -2.56692 -3.91442 0
M  V30 3411 H 336.21 -3.76201 -5.27614 0
M  V30 3412 N 329.616 1.39756 -0.72842 0
M  V30 3413 C 330.863 2.00645 -0.273487 0
M  V30 3414 C 331.191 1.57786 1.13727 0
M  V30 3415 O 330.446 0.794886 1.7883 0
M  V30 3416 C 330.745 3.56002 -0.315776 0
M  V30 3417 C 330.411 4.18489 -1.67863 0
M  V30 3418 C 329.073 4.3527 -2.05166 0
M  V30 3419 C 331.425 4.53219 -2.57375 0
M  V30 3420 C 328.753 4.84069 -3.31503 0
M  V30 3421 C 331.105 5.03423 -3.83077 0
M  V30 3422 C 329.769 5.18413 -4.20481 0
M  V30 3423 H 329.039 0.734211 -0.100076 0
M  V30 3424 H 331.686 1.6718 -0.933972 0
M  V30 3425 H 329.991 3.89452 0.428285 0
M  V30 3426 H 331.688 4.00963 0.0542575 0
M  V30 3427 H 328.278 4.05824 -1.37858 0
M  V30 3428 H 332.462 4.39878 -2.29827 0
M  V30 3429 H 327.718 4.93859 -3.60435 0
M  V30 3430 H 331.892 5.2927 -4.52599 0
M  V30 3431 H 329.519 5.55987 -5.18443 0
M  V30 3432 N 331.094 0.475555 1.50254 0
M  V30 3433 C 332.024 -0.30611 2.31485 0
M  V30 3434 C 333.005 -0.986228 1.38591 0
M  V30 3435 O 334.19 -0.982541 1.67511 0
M  V30 3436 C 331.32 -1.38588 3.1845 0
M  V30 3437 C 330.274 -0.827115 4.19932 0
M  V30 3438 C 329.6 -2.00551 4.95665 0
M  V30 3439 C 330.9 0.16463 5.2204 0
M  V30 3440 H 332.594 0.371866 2.97082 0
M  V30 3441 H 330.14 0.180282 1.42867 0
M  V30 3442 H 332.093 -1.94023 3.74076 0
M  V30 3443 H 330.817 -2.09269 2.50747 0
M  V30 3444 H 329.476 -0.294702 3.65414 0
M  V30 3445 H 329.124 -2.6994 4.2443 0
M  V30 3446 H 328.824 -1.63784 5.64313 0
M  V30 3447 H 330.348 -2.56468 5.54127 0
M  V30 3448 H 331.762 -0.300699 5.72511 0
M  V30 3449 H 330.159 0.446813 5.98434 0
M  V30 3450 H 331.229 1.08905 4.72512 0
M  V30 3451 N 332.573 -1.56217 0.208337 0
M  V30 3452 C 333.503 -2.22694 -0.702116 0
M  V30 3453 C 334.484 -1.19432 -1.2112 0
M  V30 3454 O 335.669 -1.47978 -1.25762 0
M  V30 3455 C 332.799 -2.8966 -1.9161 0
M  V30 3456 C 331.753 -3.9928 -1.5414 0
M  V30 3457 C 331.079 -4.53476 -2.83308 0
M  V30 3458 C 332.379 -5.17012 -0.741339 0
M  V30 3459 H 334.073 -2.99034 -0.147898 0
M  V30 3460 H 331.619 -1.43831 -0.0696951 0
M  V30 3461 H 333.572 -3.34852 -2.55836 0
M  V30 3462 H 332.296 -2.10746 -2.49507 0
M  V30 3463 H 330.955 -3.54799 -0.922668 0
M  V30 3464 H 330.603 -3.71308 -3.39322 0
M  V30 3465 H 330.303 -5.27451 -2.58976 0
M  V30 3466 H 331.827 -5.01378 -3.485 0
M  V30 3467 H 333.241 -5.58667 -1.28699 0
M  V30 3468 H 331.638 -5.97137 -0.595627 0
M  V30 3469 H 332.708 -4.8423 0.254851 0
M  V30 3470 N 334.051 0.0651679 -1.57465 0
M  V30 3471 C 334.983 1.10359 -2.00882 0
M  V30 3472 C 335.996 1.346 -0.915788 0
M  V30 3473 O 337.185 1.32723 -1.1936 0
M  V30 3474 C 334.285 2.45312 -2.33828 0
M  V30 3475 C 333.458 2.40934 -3.65061 0
M  V30 3476 C 332.517 3.58047 -3.85602 0
M  V30 3477 O 331.543 3.39175 -4.57109 0
M  V30 3478 N 332.745 4.78637 -3.28462 0
M  V30 3479 H 335.51 0.733807 -2.90578 0
M  V30 3480 H 333.071 0.253719 -1.599 0
M  V30 3481 H 335.063 3.22314 -2.44737 0
M  V30 3482 H 333.633 2.74267 -1.49988 0
M  V30 3483 H 332.853 1.49273 -3.64844 0
M  V30 3484 H 334.141 2.35117 -4.51218 0
M  V30 3485 H 333.539 4.96872 -2.70433 0
M  V30 3486 H 332.096 5.53127 -3.44809 0
M  V30 3487 N 335.529 1.53961 0.336706 0
M  V30 3488 C 336.479 1.7881 1.41461 0
M  V30 3489 C 337.463 0.643561 1.47469 0
M  V30 3490 O 338.655 0.903166 1.52223 0
M  V30 3491 C 335.784 2.00722 2.78506 0
M  V30 3492 C 334.87 3.2126 2.76862 0
M  V30 3493 N 335.261 4.42588 2.44845 0
M  V30 3494 C 333.559 3.22568 3.08004 0
M  V30 3495 C 334.26 5.2447 2.51607 0
M  V30 3496 N 333.236 4.61344 2.87511 0
M  V30 3497 H 337.038 2.70205 1.15615 0
M  V30 3498 H 334.552 1.52978 0.545112 0
M  V30 3499 H 336.549 2.1666 3.5618 0
M  V30 3500 H 335.209 1.10573 3.05293 0
M  V30 3501 H 336.22 4.69819 2.17922 0
M  V30 3502 H 332.897 2.42409 3.39918 0
M  V30 3503 H 334.287 6.31324 2.29955 0
M  V30 3504 N 337.007 -0.598083 1.45811 0
M  V30 3505 C 337.937 -1.71873 1.58057 0
M  V30 3506 C 338.918 -1.64533 0.431615 0
M  V30 3507 O 340.103 -1.82787 0.65595 0
M  V30 3508 C 337.233 -3.10495 1.55597 0
M  V30 3509 C 336.187 -3.32654 2.69305 0
M  V30 3510 C 335.513 -4.71646 2.51902 0
M  V30 3511 C 336.813 -3.21981 4.11248 0
M  V30 3512 H 338.507 -1.61881 2.51863 0
M  V30 3513 H 336.053 -0.777372 1.21214 0
M  V30 3514 H 338.006 -3.88699 1.6276 0
M  V30 3515 H 336.73 -3.2135 0.583255 0
M  V30 3516 H 335.389 -2.56843 2.61586 0
M  V30 3517 H 335.037 -4.79246 1.52748 0
M  V30 3518 H 334.737 -4.87426 3.2816 0
M  V30 3519 H 336.261 -5.52038 2.60933 0
M  V30 3520 H 337.675 -3.90049 4.20161 0
M  V30 3521 H 336.072 -3.49289 4.87972 0
M  V30 3522 H 337.142 -2.1928 4.32486 0
M  V30 3523 N 338.485 -1.33259 -0.841409 0
M  V30 3524 C 339.733 -1.24326 -1.59334 0
M  V30 3525 C 340.054 0.191564 -1.94057 0
M  V30 3526 O 339.324 1.11967 -1.60749 0
M  V30 3527 H 337.904 -0.457174 -0.590763 0
M  V30 3528 H 340.566 -1.66947 -1.00571 0
M  V30 3529 H 339.662 -1.8352 -2.52442 0
M  V30 3530 N 339.963 1.05934 -1.16686 0
M  V30 3531 C 341.379 1.30938 -0.912542 0
M  V30 3532 C 341.579 1.96803 0.432533 0
M  V30 3533 O 340.635 2.23693 1.17123 0
M  V30 3534 C 341.948 2.18649 -2.06429 0
M  V30 3535 C 343.496 2.32055 -2.10047 0
M  V30 3536 C 343.971 3.23122 -3.24586 0
M  V30 3537 N 345.462 3.30706 -3.24327 0
M  V30 3538 C 346.197 4.01273 -4.09594 0
M  V30 3539 N 345.693 4.74332 -5.04956 0
M  V30 3540 N 347.486 3.97361 -3.97569 0
M  V30 3541 H 339.637 0.615777 -2.03278 0
M  V30 3542 H 341.9 0.334077 -0.887185 0
M  V30 3543 H 341.606 1.77534 -3.03603 0
M  V30 3544 H 341.48 3.19252 -2.00894 0
M  V30 3545 H 343.867 2.72415 -1.13464 0
M  V30 3546 H 343.948 1.31107 -2.19647 0
M  V30 3547 H 343.592 2.83477 -4.2143 0
M  V30 3548 H 343.522 4.24057 -3.12223 0
M  V30 3549 H 346.013 2.78644 -2.55276 0
M  V30 3550 H 346.326 5.25716 -5.6643 0
M  V30 3551 H 344.671 4.733 -5.08933 0
M  V30 3552 H 347.862 3.39405 -3.22369 0
M  V30 3553 H 348.035 4.52089 -4.64241 0
M  V30 3554 N 341.441 0.965919 1.2453 0
M  V30 3555 C 342.687 0.62776 1.92839 0
M  V30 3556 C 343.02 -0.834694 1.75347 0
M  V30 3557 O 342.295 -1.60031 1.10546 0
M  V30 3558 C 342.578 1.00109 3.45905 0
M  V30 3559 C 342.431 2.52011 3.72573 0
M  V30 3560 C 343.75 0.53435 4.36844 0
M  V30 3561 H 340.869 0.229537 0.700344 0
M  V30 3562 H 343.511 1.2046 1.46933 0
M  V30 3563 H 341.661 0.510238 3.85135 0
M  V30 3564 H 343.333 3.08559 3.42912 0
M  V30 3565 H 341.576 2.95287 3.17786 0
M  V30 3566 H 342.247 2.73183 4.79661 0
M  V30 3567 H 344.723 0.955565 4.04979 0
M  V30 3568 H 343.599 0.824152 5.42678 0
M  V30 3569 H 343.86 -0.565589 4.38467 0
M  V30 3570 N 342.919 -1.39368 0.735821 0
M  V30 3571 C 343.882 -2.2896 0.104874 0
M  V30 3572 C 344.882 -1.46347 -0.666274 0
M  V30 3573 O 346.072 -1.67014 -0.49517 0
M  V30 3574 C 343.204 -3.29857 -0.860656 0
M  V30 3575 H 344.397 -2.86259 0.894205 0
M  V30 3576 H 341.95 -1.48029 0.501704 0
M  V30 3577 H 342.685 -2.77615 -1.67631 0
M  V30 3578 H 342.47 -3.9087 -0.310327 0
M  V30 3579 H 343.96 -3.96893 -1.29867 0
M  V30 3580 N 344.397 -0.483516 -1.5 0
M  V30 3581 C 345.622 0.0667119 -2.07293 0
M  V30 3582 C 346.047 1.3164 -1.3436 0
M  V30 3583 O 345.405 1.76945 -0.394987 0
M  V30 3584 C 345.453 0.321126 -3.59167 0
M  V30 3585 O 344.557 1.39927 -3.87936 0
M  V30 3586 H 343.898 -0.0184758 -0.663743 0
M  V30 3587 H 346.428 -0.678125 -1.93035 0
M  V30 3588 H 346.438 0.557906 -4.04168 0
M  V30 3589 H 345.113 -0.592007 -4.11665 0
M  V30 3590 H 343.69 1.14882 -3.54763 0
M  V30 3591 N 345.875 1.56104 -0.216619 0
M  V30 3592 C 347.291 1.58995 0.13886 0
M  V30 3593 C 347.491 1.23333 1.59346 0
M  V30 3594 O 346.547 0.966234 2.33281 0
M  V30 3595 C 347.86 3.00143 -0.182968 0
M  V30 3596 C 349.408 3.12751 -0.124807 0
M  V30 3597 C 349.883 4.56068 -0.420241 0
M  V30 3598 N 351.374 4.61723 -0.369634 0
M  V30 3599 C 352.109 5.70542 -0.571789 0
M  V30 3600 N 351.605 6.87744 -0.835453 0
M  V30 3601 N 353.398 5.59831 -0.504563 0
M  V30 3602 H 345.549 1.77562 -1.16557 0
M  V30 3603 H 347.812 0.825091 -0.466828 0
M  V30 3604 H 347.518 3.30871 -1.19237 0
M  V30 3605 H 347.392 3.73813 0.504367 0
M  V30 3606 H 349.779 2.81822 0.875223 0
M  V30 3607 H 349.86 2.41421 -0.845544 0
M  V30 3608 H 349.504 4.87713 -1.41769 0
M  V30 3609 H 349.434 5.25617 0.321631 0
M  V30 3610 H 351.925 3.77502 -0.173338 0
M  V30 3611 H 352.238 7.66587 -0.977938 0
M  V30 3612 H 350.583 6.895 -0.872592 0
M  V30 3613 H 353.774 4.67145 -0.298842 0
M  V30 3614 H 353.947 6.44573 -0.665519 0
M  V30 3615 N 347.353 -0.0568162 1.57498 0
M  V30 3616 C 348.316 -1.05038 2.03715 0
M  V30 3617 C 349.316 -1.30709 0.936577 0
M  V30 3618 O 350.506 -1.26178 1.20103 0
M  V30 3619 C 347.638 -2.39034 2.43055 0
M  V30 3620 H 348.831 -0.651715 2.92733 0
M  V30 3621 H 346.384 -0.302947 1.53336 0
M  V30 3622 H 347.119 -2.83703 1.57108 0
M  V30 3623 H 346.904 -2.21739 3.2338 0
M  V30 3624 H 348.394 -3.10421 2.79336 0
M  V30 3625 N 348.832 -1.54138 -0.328536 0
M  V30 3626 C 350.243 -1.63395 -0.903272 0
M  V30 3627 C 350.594 -0.524828 -1.8905 0
M  V30 3628 O 349.719 0.343068 -2.13663 0
M  V30 3629 C 350.314 -2.9618 -1.64507 0
M  V30 3630 C 348.873 -3.0765 -2.1686 0
M  V30 3631 C 348.02 -2.58933 -0.992416 0
M  V30 3632 H 350.971 -1.58344 -0.106253 0
M  V30 3633 H 350.992 -2.86061 -2.50897 0
M  V30 3634 H 350.504 -3.76884 -0.926302 0
M  V30 3635 H 348.605 -2.31611 -2.91868 0
M  V30 3636 H 348.718 -4.1337 -2.42202 0
M  V30 3637 H 347.082 -2.14706 -1.37016 0
M  V30 3638 H 347.865 -3.42089 -0.288041 0
M  V30 3639 N 350.31 0.590341 -1.46126 0
M  V30 3640 C 351.273 1.68194 -1.55703 0
M  V30 3641 C 352.273 1.54808 -0.434868 0
M  V30 3642 O 353.463 1.59564 -0.698928 0
M  V30 3643 C 350.595 3.07575 -1.47005 0
M  V30 3644 H 351.788 1.61064 -2.52979 0
M  V30 3645 H 349.341 0.807541 -1.33823 0
M  V30 3646 H 350.076 3.20268 -0.509785 0
M  V30 3647 H 349.861 3.187 -2.28414 0
M  V30 3648 H 351.351 3.87055 -1.56776 0
M  V30 3649 N 351.788 1.33704 0.83433 0
M  V30 3650 C 352.718 1.26967 1.95963 0
M  V30 3651 C 353.699 0.149337 1.69443 0
M  V30 3652 O 354.884 0.339852 1.91203 0
M  V30 3653 C 352.014 1.01275 3.32206 0
M  V30 3654 C 350.968 2.09652 3.73136 0
M  V30 3655 C 350.294 1.69166 5.07235 0
M  V30 3656 C 351.594 3.51372 3.86439 0
M  V30 3657 H 353.288 2.2112 2.01857 0
M  V30 3658 H 350.834 1.06447 0.969793 0
M  V30 3659 H 352.787 0.952106 4.10503 0
M  V30 3660 H 351.511 0.0356203 3.26581 0
M  V30 3661 H 350.17 2.14766 2.97104 0
M  V30 3662 H 349.818 0.701437 4.98085 0
M  V30 3663 H 349.518 2.41694 5.35591 0
M  V30 3664 H 351.042 1.64576 5.88003 0
M  V30 3665 H 352.456 3.48734 4.55036 0
M  V30 3666 H 350.853 4.22425 4.26236 0
M  V30 3667 H 351.923 3.89546 2.88759 0
M  V30 3668 N 353.266 -1.05314 1.17247 0
M  V30 3669 C 354.514 -1.77941 0.958194 0
M  V30 3670 C 354.835 -1.88089 -0.514556 0
M  V30 3671 O 354.105 -1.39676 -1.37359 0
M  V30 3672 H 352.685 -0.659116 0.351533 0
M  V30 3673 H 355.347 -1.27166 1.47699 0
M  V30 3674 H 354.443 -2.79663 1.38546 0
M  V30 3675 N 354.744 -0.972509 -1.24016 0
M  V30 3676 C 356.155 -0.67517 -1.74064 0
M  V30 3677 C 356.506 0.808939 -1.78747 0
M  V30 3678 O 355.631 1.63286 -1.42009 0
M  V30 3679 C 356.226 -1.21889 -3.16115 0
M  V30 3680 C 354.785 -0.971358 -3.6365 0
M  V30 3681 C 353.932 -1.35134 -2.42145 0
M  V30 3682 H 356.883 -1.14727 -1.09651 0
M  V30 3683 H 356.904 -0.587489 -3.75937 0
M  V30 3684 H 356.416 -2.29906 -3.12674 0
M  V30 3685 H 354.517 0.0930686 -3.72484 0
M  V30 3686 H 354.63 -1.62039 -4.50866 0
M  V30 3687 H 352.994 -0.769751 -2.4279 0
M  V30 3688 H 353.777 -2.4411 -2.41381 0
M  V30 3689 N 356.222 1.38976 -0.743202 0
M  V30 3690 C 357.185 2.28901 -0.117014 0
M  V30 3691 C 358.185 1.46698 0.658503 0
M  V30 3692 O 359.375 1.67274 0.486305 0
M  V30 3693 C 356.507 3.30309 0.84315 0
M  V30 3694 H 357.7 2.8578 -0.909373 0
M  V30 3695 H 355.253 1.47761 -0.509547 0
M  V30 3696 H 355.988 2.785 1.66157 0
M  V30 3697 H 355.773 3.91029 0.289594 0
M  V30 3698 H 357.263 3.97577 1.2776 0
M  V30 3699 N 357.7 0.491464 1.49741 0
M  V30 3700 C 358.946 -0.0565092 2.02721 0
M  V30 3701 C 359.279 -1.37522 1.37118 0
M  V30 3702 O 358.554 -1.87866 0.503645 0
M  V30 3703 C 358.837 -0.219051 3.59433 0
M  V30 3704 C 358.69 1.12211 4.35579 0
M  V30 3705 C 360.009 -0.964157 4.29409 0
M  V30 3706 H 357.128 -0.0190627 0.736753 0
M  V30 3707 H 359.77 0.641021 1.7886 0
M  V30 3708 H 357.92 -0.813165 3.79895 0
M  V30 3709 H 359.592 1.75437 4.26637 0
M  V30 3710 H 357.835 1.71377 3.98513 0
M  V30 3711 H 358.506 0.961794 5.43556 0
M  V30 3712 H 360.982 -0.460378 4.13545 0
M  V30 3713 H 359.858 -1.04671 5.38828 0
M  V30 3714 H 360.119 -2.00563 3.93988 0
M  V30 3715 N 359.178 -1.55987 0.224894 0
M  V30 3716 C 360.594 -1.59066 -0.130426 0
M  V30 3717 C 360.794 -1.24176 -1.5869 0
M  V30 3718 O 359.85 -0.978592 -2.32766 0
M  V30 3719 C 361.163 -3.00042 0.198883 0
M  V30 3720 C 362.711 -3.1268 0.141391 0
M  V30 3721 C 363.186 -4.55839 0.444422 0
M  V30 3722 N 364.677 -4.6152 0.394115 0
M  V30 3723 C 365.412 -5.70231 0.602038 0
M  V30 3724 N 364.908 -6.87291 0.871914 0
M  V30 3725 N 366.701 -5.59555 0.534245 0
M  V30 3726 H 358.852 -1.76941 1.17497 0
M  V30 3727 H 361.115 -0.822604 0.471197 0
M  V30 3728 H 360.821 -3.30234 1.2099 0
M  V30 3729 H 360.695 -3.74075 -0.484535 0
M  V30 3730 H 363.082 -2.82283 -0.860265 0
M  V30 3731 H 363.163 -2.40969 0.858335 0
M  V30 3732 H 362.807 -4.86954 1.44353 0
M  V30 3733 H 362.737 -5.2578 -0.293752 0
M  V30 3734 H 365.228 -3.77405 0.193356 0
M  V30 3735 H 365.541 -7.66058 1.01858 0
M  V30 3736 H 363.886 -6.89028 0.909145 0
M  V30 3737 H 367.077 -4.6698 0.323612 0
M  V30 3738 H 367.25 -6.44211 0.699693 0
M  V30 3739 N 360.656 0.0484629 -1.57525 0
M  V30 3740 C 361.619 1.03956 -2.04269 0
M  V30 3741 C 362.619 1.30211 -0.943496 0
M  V30 3742 O 363.809 1.25539 -1.20771 0
M  V30 3743 C 360.941 2.37742 -2.44319 0
M  V30 3744 H 362.134 0.636182 -2.93075 0
M  V30 3745 H 359.687 0.294811 -1.53494 0
M  V30 3746 H 360.422 2.82866 -1.5861 0
M  V30 3747 H 360.207 2.20021 -3.24551 0
M  V30 3748 H 361.697 3.08936 -2.80978 0
M  V30 3749 N 362.134 1.5431 0.320358 0
M  V30 3750 C 363.064 1.86912 1.3995 0
M  V30 3751 C 364.045 0.726211 1.53819 0
M  V30 3752 O 365.23 0.980233 1.67646 0
M  V30 3753 C 362.36 2.09932 2.7667 0
M  V30 3754 C 361.314 3.25776 2.77586 0
M  V30 3755 C 360.64 3.34173 4.17412 0
M  V30 3756 C 361.94 4.6335 2.41048 0
M  V30 3757 H 363.634 2.77292 1.12914 0
M  V30 3758 H 361.18 1.33421 0.541738 0
M  V30 3759 H 363.133 2.31324 3.52232 0
M  V30 3760 H 361.857 1.16304 3.0519 0
M  V30 3761 H 360.516 3.04276 2.04479 0
M  V30 3762 H 360.164 2.38098 4.43078 0
M  V30 3763 H 359.864 4.12033 4.18931 0
M  V30 3764 H 361.388 3.57803 4.94782 0
M  V30 3765 H 362.802 4.84602 3.06324 0
M  V30 3766 H 361.199 5.43782 2.53813 0
M  V30 3767 H 362.269 4.65381 1.36193 0
M  V30 3768 N 363.613 -0.582584 1.46437 0
M  V30 3769 C 364.861 -1.33814 1.51453 0
M  V30 3770 C 365.182 -1.94277 0.167792 0
M  V30 3771 O 364.452 -1.78566 -0.805677 0
M  V30 3772 H 363.032 -0.496838 0.557818 0
M  V30 3773 H 365.694 -0.682281 1.82568 0
M  V30 3774 H 364.79 -2.14479 2.26728 0
M  V30 3775 N 365.091 -1.34144 -0.827227 0
M  V30 3776 C 366.054 -1.25264 -1.91942 0
M  V30 3777 C 367.054 -0.168866 -1.59911 0
M  V30 3778 O 368.244 -0.421198 -1.69031 0
M  V30 3779 C 365.376 -0.932952 -3.27885 0
M  V30 3780 H 366.569 -2.22357 -2.0124 0
M  V30 3781 H 364.122 -1.1837 -1.0207 0
M  V30 3782 H 364.857 0.0349917 -3.24281 0
M  V30 3783 H 364.642 -1.71682 -3.52516 0
M  V30 3784 H 366.132 -0.895874 -4.07877 0
M  V30 3785 N 366.569 1.04691 -1.17803 0
M  V30 3786 C 367.797 1.81446 -0.99423 0
M  V30 3787 C 368.212 1.83174 0.457459 0
M  V30 3788 O 367.569 1.26265 1.31771 0
M  V30 3789 C 367.62 3.27334 -1.5341 0
M  V30 3790 O 367.341 3.25798 -2.92895 0
M  V30 3791 C 368.842 4.20759 -1.39559 0
M  V30 3792 H 366.062 0.571599 -0.351447 0
M  V30 3793 H 368.606 1.31982 -1.56208 0
M  V30 3794 H 366.761 3.74052 -1.00815 0
M  V30 3795 H 367.175 4.17144 -3.17949 0
M  V30 3796 H 368.649 5.21084 -1.82141 0
M  V30 3797 H 369.126 4.37856 -0.343394 0
M  V30 3798 H 369.732 3.79901 -1.91195 0
M  V30 3799 N 368.047 0.979072 1.23499 0
M  V30 3800 C 369.294 0.647219 1.91878 0
M  V30 3801 C 369.622 -0.819074 1.76413 0
M  V30 3802 O 368.877 -1.60616 1.11808 0
M  V30 3803 C 369.176 0.981932 3.43646 0
M  V30 3804 C 368.842 2.43822 3.79291 0
M  V30 3805 C 367.504 2.83622 3.88731 0
M  V30 3806 C 369.856 3.3828 3.96505 0
M  V30 3807 C 367.184 4.16897 4.12812 0
M  V30 3808 C 369.536 4.71197 4.22085 0
M  V30 3809 C 368.2 5.10758 4.29747 0
M  V30 3810 H 367.47 0.236834 0.702133 0
M  V30 3811 H 370.117 1.23268 1.46551 0
M  V30 3812 H 368.422 0.314365 3.90537 0
M  V30 3813 H 370.119 0.703395 3.94783 0
M  V30 3814 H 366.709 2.11966 3.72516 0
M  V30 3815 H 370.893 3.0871 3.88603 0
M  V30 3816 H 366.149 4.47157 4.16966 0
M  V30 3817 H 370.323 5.44348 4.34348 0
M  V30 3818 H 367.95 6.1405 4.48159 0
M  V30 3819 N 369.525 -1.3858 0.750561 0
M  V30 3820 C 370.773 -1.99789 0.30477 0
M  V30 3821 C 371.094 -1.59874 -1.11649 0
M  V30 3822 O 370.364 -0.85417 -1.76297 0
M  V30 3823 H 368.944 -0.738902 0.109694 0
M  V30 3824 H 371.606 -1.69391 0.963983 0
M  V30 3825 H 370.702 -3.09952 0.365499 0
M  V30 3826 N 371.003 -0.499398 -1.49478 0
M  V30 3827 C 372.414 -0.051215 -1.8663 0
M  V30 3828 C 372.765 1.36238 -1.41186 0
M  V30 3829 O 371.89 2.01502 -0.789051 0
M  V30 3830 C 372.485 -0.0861651 -3.3869 0
M  V30 3831 C 371.044 0.30667 -3.75149 0
M  V30 3832 C 370.191 -0.459397 -2.73468 0
M  V30 3833 H 373.142 -0.712264 -1.41818 0
M  V30 3834 H 373.163 0.709507 -3.73826 0
M  V30 3835 H 372.675 -1.11512 -3.71735 0
M  V30 3836 H 370.776 1.33892 -3.47712 0
M  V30 3837 H 370.889 -0.0116669 -4.79099 0
M  V30 3838 H 369.253 0.0905645 -2.54539 0
M  V30 3839 H 370.036 -1.4884 -3.09357 0
M  V30 3840 N 372.481 1.55866 -0.233164 0
M  V30 3841 C 373.411 2.23783 0.666599 0
M  V30 3842 C 374.392 1.21343 1.19205 0
M  V30 3843 O 375.577 1.4996 1.23392 0
M  V30 3844 C 372.707 2.92671 1.86978 0
M  V30 3845 C 371.661 4.01682 1.47768 0
M  V30 3846 C 370.987 4.57926 2.76058 0
M  V30 3847 C 372.287 5.18126 0.658993 0
M  V30 3848 H 373.981 2.99232 0.100306 0
M  V30 3849 H 371.527 1.43924 0.046804 0
M  V30 3850 H 373.48 3.3888 2.50476 0
M  V30 3851 H 372.204 2.14688 2.46123 0
M  V30 3852 H 370.863 3.56222 0.866106 0
M  V30 3853 H 370.511 3.76659 3.33372 0
M  V30 3854 H 370.211 5.31505 2.50552 0
M  V30 3855 H 371.735 5.06859 3.40479 0
M  V30 3856 H 373.149 5.60644 1.19795 0
M  V30 3857 H 371.546 5.98009 0.500552 0
M  V30 3858 H 372.616 4.83763 -0.331856 0
M  V30 3859 N 373.959 -0.0401083 1.57549 0
M  V30 3860 C 374.889 -1.04384 2.08869 0
M  V30 3861 C 375.87 -1.38407 0.988817 0
M  V30 3862 O 377.055 -1.47483 1.26342 0
M  V30 3863 C 374.185 -2.34808 2.55895 0
M  V30 3864 C 373.139 -2.15057 3.70047 0
M  V30 3865 C 372.465 -3.51145 4.03239 0
M  V30 3866 C 373.765 -1.54576 4.98902 0
M  V30 3867 H 375.459 -0.616666 2.92981 0
M  V30 3868 H 373.005 -0.295184 1.40942 0
M  V30 3869 H 374.958 -3.05346 2.90417 0
M  V30 3870 H 373.682 -2.79565 1.68853 0
M  V30 3871 H 372.341 -1.46954 3.35857 0
M  V30 3872 H 371.989 -3.93529 3.13279 0
M  V30 3873 H 371.689 -3.38758 4.80122 0
M  V30 3874 H 373.213 -4.23062 4.40285 0
M  V30 3875 H 374.627 -2.15017 5.31451 0
M  V30 3876 H 373.024 -1.52796 5.80322 0
M  V30 3877 H 374.094 -0.51039 4.82206 0
M  V30 3878 N 375.437 -1.54477 -0.31217 0
M  V30 3879 C 376.367 -1.87652 -1.38957 0
M  V30 3880 C 377.348 -0.734358 -1.53431 0
M  V30 3881 O 378.533 -0.98911 -1.67123 0
M  V30 3882 C 375.663 -2.11396 -2.75552 0
M  V30 3883 C 374.617 -3.27243 -2.75855 0
M  V30 3884 C 373.943 -3.36382 -4.15633 0
M  V30 3885 C 375.243 -4.64622 -2.38587 0
M  V30 3886 H 376.937 -2.77887 -1.11442 0
M  V30 3887 H 374.483 -1.33707 -0.534655 0
M  V30 3888 H 376.436 -2.33189 -3.51 0
M  V30 3889 H 375.16 -1.17921 -3.04569 0
M  V30 3890 H 373.819 -3.05356 -2.02863 0
M  V30 3891 H 373.467 -2.40445 -4.41809 0
M  V30 3892 H 373.167 -4.14249 -4.1674 0
M  V30 3893 H 374.691 -3.60422 -4.92877 0
M  V30 3894 H 376.105 -4.86219 -3.03749 0
M  V30 3895 H 374.502 -5.45121 -2.50925 0
M  V30 3896 H 375.572 -4.66097 -1.33723 0
M  V30 3897 N 376.915 0.57481 -1.46744 0
M  V30 3898 C 378.331 0.898981 -1.31873 0
M  V30 3899 C 378.531 1.99313 -0.29605 0
M  V30 3900 O 377.587 2.50728 0.298621 0
M  V30 3901 C 378.9 1.30886 -2.7072 0
M  V30 3902 C 380.448 1.42127 -2.78871 0
M  V30 3903 C 380.923 1.86478 -4.18318 0
M  V30 3904 N 382.414 1.93658 -4.20774 0
M  V30 3905 C 383.149 2.29267 -5.2557 0
M  V30 3906 N 382.645 2.63612 -6.40688 0
M  V30 3907 N 384.438 2.29889 -5.1294 0
M  V30 3908 H 376.589 -0.147839 -2.11885 0
M  V30 3909 H 378.852 -0.00347013 -0.947994 0
M  V30 3910 H 378.558 0.578853 -3.46904 0
M  V30 3911 H 378.432 2.26874 -3.01343 0
M  V30 3912 H 380.819 2.14213 -2.0297 0
M  V30 3913 H 380.9 0.443705 -2.51922 0
M  V30 3914 H 380.544 1.14968 -4.94717 0
M  V30 3915 H 380.474 2.85207 -4.42679 0
M  V30 3916 H 382.965 1.69574 -3.37718 0
M  V30 3917 H 383.278 2.89759 -7.16421 0
M  V30 3918 H 381.623 2.61232 -6.44036 0
M  V30 3919 H 384.814 2.02485 -4.22039 0
M  V30 3920 H 384.987 2.57312 -5.94722 0
M  V30 3921 N 378.394 1.34581 0.820102 0
M  V30 3922 C 379.357 1.2628 1.91275 0
M  V30 3923 C 380.357 0.177344 1.59819 0
M  V30 3924 O 381.547 0.430156 1.68806 0
M  V30 3925 C 378.679 0.950327 3.27386 0
M  V30 3926 H 379.872 2.23421 2.00057 0
M  V30 3927 H 377.425 1.1891 1.0144 0
M  V30 3928 H 378.16 -0.0177938 3.24295 0
M  V30 3929 H 377.945 1.73549 3.51601 0
M  V30 3930 H 379.435 0.917492 4.07396 0
M  V30 3931 N 379.872 -1.04064 1.18357 0
M  V30 3932 C 381.283 -1.58719 0.98312 0
M  V30 3933 C 381.634 -1.90556 -0.467193 0
M  V30 3934 O 380.759 -1.69561 -1.34454 0
M  V30 3935 C 381.354 -2.88379 1.77828 0
M  V30 3936 C 379.913 -3.3965 1.62218 0
M  V30 3937 C 379.06 -2.13235 1.77274 0
M  V30 3938 H 382.011 -0.867359 1.32901 0
M  V30 3939 H 382.032 -3.58773 1.26737 0
M  V30 3940 H 381.544 -2.65176 2.83379 0
M  V30 3941 H 379.645 -3.67866 0.592036 0
M  V30 3942 H 379.758 -4.13475 2.42023 0
M  V30 3943 H 378.122 -2.24542 1.20221 0
M  V30 3944 H 378.905 -1.92487 2.8426 0
M  V30 3945 N 381.35 -0.985608 -1.22978 0
M  V30 3946 C 382.761 -0.693593 -1.73338 0
M  V30 3947 C 383.112 0.789935 -1.79595 0
M  V30 3948 O 382.237 1.61771 -1.43733 0
M  V30 3949 C 382.832 -1.25235 -3.14804 0
M  V30 3950 C 381.391 -1.00987 -3.626 0
M  V30 3951 C 380.538 -1.37695 -2.40698 0
M  V30 3952 H 383.489 -1.15884 -1.08428 0
M  V30 3953 H 383.51 -0.627329 -3.75293 0
M  V30 3954 H 383.022 -2.33209 -3.10218 0
M  V30 3955 H 381.123 0.0535565 -3.72562 0
M  V30 3956 H 381.236 -1.66812 -4.49122 0
M  V30 3957 H 379.6 -0.795459 -2.4196 0
M  V30 3958 H 380.383 -2.46657 -2.38779 0
M  V30 3959 N 382.828 1.3818 -0.7579 0
M  V30 3960 C 384.239 1.82726 -0.383134 0
M  V30 3961 C 384.59 1.63214 1.08884 0
M  V30 3962 O 383.715 1.13566 1.84205 0
M  V30 3963 C 384.31 3.31728 -0.688631 0
M  V30 3964 C 382.869 3.74606 -0.367091 0
M  V30 3965 C 382.016 2.60896 -0.939599 0
M  V30 3966 H 384.967 1.26847 -0.953699 0
M  V30 3967 H 384.988 3.80487 0.0316492 0
M  V30 3968 H 384.5 3.45898 -1.76001 0
M  V30 3969 H 382.601 3.66013 0.697532 0
M  V30 3970 H 382.714 4.71215 -0.865658 0
M  V30 3971 H 381.078 2.52075 -0.3647 0
M  V30 3972 H 381.861 2.77864 -2.0161 0
M  V30 3973 N 384.306 0.507319 1.49211 0
M  V30 3974 C 385.717 0.0611118 1.866 0
M  V30 3975 C 386.068 -1.35488 1.41907 0
M  V30 3976 O 385.193 -2.0108 0.799726 0
M  V30 3977 C 385.788 0.104125 3.3864 0
M  V30 3978 C 384.347 -0.28677 3.75306 0
M  V30 3979 C 383.494 0.473893 2.73221 0
M  V30 3980 H 386.445 0.719775 1.41439 0
M  V30 3981 H 386.466 -0.689672 3.74198 0
M  V30 3982 H 385.978 1.13482 3.71138 0
M  V30 3983 H 384.079 -1.32046 3.48417 0
M  V30 3984 H 384.192 0.0370745 4.79086 0
M  V30 3985 H 382.556 -0.0770644 2.54583 0
M  V30 3986 H 383.339 1.50478 3.08563 0
M  V30 3987 N 385.784 -1.5574 0.241426 0
M  V30 3988 C 387.009 -2.0366 -0.392111 0
M  V30 3989 C 387.434 -1.11969 -1.51144 0
M  V30 3990 O 386.792 -0.111594 -1.80956 0
M  V30 3991 C 386.84 -3.49638 -0.882371 0
M  V30 3992 O 385.944 -3.6108 -1.99235 0
M  V30 3993 H 385.285 -0.658379 -0.0862122 0
M  V30 3994 H 387.815 -2.01302 0.365881 0
M  V30 3995 H 387.825 -3.90351 -1.18702 0
M  V30 3996 H 386.5 -4.15852 -0.0632361 0
M  V30 3997 H 385.077 -3.32262 -1.69282 0
M  V30 3998 N 387.262 0.0317525 -1.57568 0
M  V30 3999 C 388.487 0.738664 -1.938 0
M  V30 4000 C 388.912 1.68242 -0.841208 0
M  V30 4001 O 388.27 1.80157 0.203267 0
M  V30 4002 C 388.318 1.47417 -3.29091 0
M  V30 4003 O 387.422 2.5872 -3.2115 0
M  V30 4004 H 386.763 0.198856 -0.633524 0
M  V30 4005 H 389.293 -0.0119713 -2.04596 0
M  V30 4006 H 389.303 1.84468 -3.63917 0
M  V30 4007 H 387.978 0.781988 -4.08482 0
M  V30 4008 H 386.555 2.24231 -2.97951 0
M  V30 4009 N 388.74 1.54641 0.303973 0
M  V30 4010 C 390.151 1.64811 0.877163 0
M  V30 4011 C 390.502 0.554838 1.88191 0
M  V30 4012 O 389.627 -0.309033 2.14182 0
M  V30 4013 C 390.222 2.9876 1.59775 0
M  V30 4014 C 388.781 3.11061 2.11938 0
M  V30 4015 C 387.928 2.60479 0.951097 0
M  V30 4016 H 390.879 1.58493 0.0810486 0
M  V30 4017 H 390.9 2.90017 2.46314 0
M  V30 4018 H 390.412 3.7831 0.866226 0
M  V30 4019 H 388.513 2.36225 2.88146 0
M  V30 4020 H 388.626 4.17171 2.35595 0
M  V30 4021 H 386.99 2.16859 1.33583 0
M  V30 4022 H 387.773 3.42504 0.233581 0
M  V30 4023 N 390.218 -0.567019 1.47046 0
M  V30 4024 C 391.629 -1.14916 1.47143 0
M  V30 4025 C 391.98 -1.94954 0.220767 0
M  V30 4026 O 391.105 -2.05602 -0.67505 0
M  V30 4027 C 391.7 -2.09069 2.666 0
M  V30 4028 C 390.259 -2.62575 2.69687 0
M  V30 4029 C 389.406 -1.38755 2.40088 0
M  V30 4030 H 392.357 -0.354126 1.54699 0
M  V30 4031 H 392.378 -2.92789 2.43011 0
M  V30 4032 H 391.89 -1.50789 3.57609 0
M  V30 4033 H 389.991 -3.24681 1.82792 0
M  V30 4034 H 390.104 -3.04239 3.70102 0
M  V30 4035 H 388.468 -1.69098 1.90468 0
M  V30 4036 H 389.251 -0.822822 3.33293 0
M  V30 4037 N 391.696 -1.35014 -0.812953 0
M  V30 4038 C 393.107 -1.25035 -1.38648 0
M  V30 4039 C 393.458 0.119967 -1.95833 0
M  V30 4040 O 392.583 1.02069 -1.90816 0
M  V30 4041 C 393.178 -2.26394 -2.52054 0
M  V30 4042 C 391.737 -2.20175 -3.05287 0
M  V30 4043 C 390.884 -2.12451 -1.78213 0
M  V30 4044 H 393.835 -1.46235 -0.616516 0
M  V30 4045 H 393.856 -1.88672 -3.30429 0
M  V30 4046 H 393.368 -3.26116 -2.10404 0
M  V30 4047 H 391.469 -1.23841 -3.51417 0
M  V30 4048 H 391.582 -3.11863 -3.63701 0
M  V30 4049 H 389.946 -1.58328 -1.9951 0
M  V30 4050 H 390.729 -3.14024 -1.38723 0
M  V30 4051 N 393.175 1.03435 -1.18907 0
M  V30 4052 C 394.423 1.76394 -0.986382 0
M  V30 4053 C 394.744 1.88883 0.484567 0
M  V30 4054 O 394.014 1.41843 1.3512 0
M  V30 4055 H 392.594 0.65344 -0.361975 0
M  V30 4056 H 395.256 1.248 -1.49703 0
M  V30 4057 H 394.352 2.77424 -1.42978 0
M  V30 4058 N 394.653 0.992116 1.22453 0
M  V30 4059 C 395.901 0.666215 1.90804 0
M  V30 4060 C 396.222 -0.804152 1.77647 0
M  V30 4061 O 395.492 -1.57629 1.16318 0
M  V30 4062 H 394.072 0.243423 0.706225 0
M  V30 4063 H 396.734 1.25845 1.48825 0
M  V30 4064 H 395.83 0.928069 2.97982 0
M  V30 4065 N 396.131 -1.37776 0.765217 0
M  V30 4066 C 397.094 -2.28686 0.153416 0
M  V30 4067 C 398.094 -1.47727 -0.635081 0
M  V30 4068 O 399.284 -1.68027 -0.459632 0
M  V30 4069 C 396.416 -3.31608 -0.790495 0
M  V30 4070 H 397.609 -2.84297 0.954723 0
M  V30 4071 H 395.162 -1.46932 0.53299 0
M  V30 4072 H 395.897 -2.81109 -1.61705 0
M  V30 4073 H 395.682 -3.9144 -0.227348 0
M  V30 4074 H 397.172 -3.99559 -1.21419 0
M  V30 4075 N 397.609 -0.515225 -1.4894 0
M  V30 4076 C 399.02 -0.0710067 -1.86565 0
M  V30 4077 C 399.371 1.34733 -1.42623 0
M  V30 4078 O 398.496 2.00653 -0.810379 0
M  V30 4079 C 399.091 -0.122083 -3.3858 0
M  V30 4080 C 397.65 0.266863 -3.75453 0
M  V30 4081 C 396.797 -0.488376 -2.72966 0
M  V30 4082 H 399.748 -0.727266 -1.41055 0
M  V30 4083 H 399.769 0.669818 -3.74558 0
M  V30 4084 H 399.281 -1.15448 -3.70531 0
M  V30 4085 H 397.382 1.30196 -3.49113 0
M  V30 4086 H 397.495 -0.0624811 -4.79059 0
M  V30 4087 H 395.859 0.0635622 -2.54621 0
M  V30 4088 H 396.642 -1.52113 -3.07761 0
M  V30 4089 N 399.087 1.5561 -0.249682 0
M  V30 4090 C 400.364 1.90932 0.424761 0
M  V30 4091 C 400.744 1.17078 1.75658 0
M  V30 4092 O 400.092 0.289176 2.26663 0
M  V30 4093 C 400.302 3.43975 0.590109 0
M  V30 4094 C 401.65 4.15281 0.884714 0
M  V30 4095 O 402.674 3.49729 0.67587 0
M  V30 4096 O 401.533 5.31236 1.28259 0
M  V30 4097 H 398.627 0.794815 0.228468 0
M  V30 4098 H 401.173 1.67135 -0.293954 0
M  V30 4099 H 399.945 3.89748 -0.34818 0
M  V30 4100 H 399.568 3.73644 1.35926 0
M  V30 4101 N 400.565 -0.0233959 1.57583 0
M  V30 4102 C 401.813 -0.711654 1.89156 0
M  V30 4103 C 402.134 -1.75591 0.848096 0
M  V30 4104 O 401.404 -1.95547 -0.117566 0
M  V30 4105 H 399.984 -0.265835 0.698098 0
M  V30 4106 H 402.646 0.0119948 1.94896 0
M  V30 4107 H 401.742 -1.19766 2.88206 0
M  V30 4108 N 402.043 -1.548 -0.295768 0
M  V30 4109 C 403.268 -1.78653 -1.05346 0
M  V30 4110 C 403.693 -0.546894 -1.79974 0
M  V30 4111 O 403.051 0.502763 -1.7419 0
M  V30 4112 C 403.099 -2.99679 -2.00561 0
M  V30 4113 O 402.203 -2.7317 -3.08953 0
M  V30 4114 H 401.544 -0.59116 -0.302367 0
M  V30 4115 H 404.074 -2.01895 -0.331598 0
M  V30 4116 H 404.084 -3.27793 -2.42932 0
M  V30 4117 H 402.759 -3.89562 -1.4565 0
M  V30 4118 H 401.336 -2.56089 -2.71059 0
M  V30 4119 N 403.521 0.559213 -1.47345 0
M  V30 4120 C 404.431 1.69388 -1.62311 0
M  V30 4121 C 405.447 1.6648 -0.505993 0
M  V30 4122 O 406.623 1.85964 -0.773262 0
M  V30 4123 C 403.688 3.05894 -1.63185 0
M  V30 4124 C 402.749 3.19885 -2.86307 0
M  V30 4125 C 401.982 4.49879 -2.87131 0
M  V30 4126 O 402.205 5.35217 -1.97229 0
M  V30 4127 O 401.139 4.67618 -3.78968 0
M  V30 4128 H 404.965 1.59706 -2.58317 0
M  V30 4129 H 402.55 0.728989 -1.30407 0
M  V30 4130 H 404.432 3.87133 -1.66451 0
M  V30 4131 H 403.107 3.15964 -0.70345 0
M  V30 4132 H 402.014 2.38052 -2.88587 0
M  V30 4133 H 403.347 3.14718 -3.78435 0
M  V30 4134 N 404.999 1.35443 0.805782 0
M  V30 4135 C 406.41 1.25768 1.37983 0
M  V30 4136 C 406.761 -0.10958 1.95894 0
M  V30 4137 O 405.886 -1.01056 1.91355 0
M  V30 4138 C 406.481 2.27727 2.5085 0
M  V30 4139 C 405.04 2.2179 3.04115 0
M  V30 4140 C 404.187 2.13393 1.77084 0
M  V30 4141 H 407.138 1.4656 0.608752 0
M  V30 4142 H 407.159 1.90422 3.29424 0
M  V30 4143 H 406.671 3.27227 2.08671 0
M  V30 4144 H 404.772 1.25703 3.50756 0
M  V30 4145 H 404.885 3.13788 3.62042 0
M  V30 4146 H 403.249 1.59384 1.98668 0
M  V30 4147 H 404.032 3.14755 1.37056 0
M  V30 4148 N 406.477 -1.02803 1.19454 0
M  V30 4149 C 407.702 -1.80378 1.02364 0
M  V30 4150 C 408.127 -1.83282 -0.423007 0
M  V30 4151 O 407.485 -1.25945 -1.30413 0
M  V30 4152 C 407.533 -3.23248 1.59821 0
M  V30 4153 O 406.637 -4.04 0.828105 0
M  V30 4154 H 405.978 -0.556799 0.361761 0
M  V30 4155 H 408.508 -1.29385 1.58495 0
M  V30 4156 H 408.518 -3.73994 1.63073 0
M  V30 4157 H 407.193 -3.2045 2.65113 0
M  V30 4158 H 405.77 -3.62635 0.86891 0
M  V30 4159 N 407.956 -0.998596 -1.21925 0
M  V30 4160 C 409.367 -0.711939 -1.72593 0
M  V30 4161 C 409.718 0.770842 -1.80423 0
M  V30 4162 O 408.843 1.60237 -1.4544 0
M  V30 4163 C 409.438 -1.28567 -3.13458 0
M  V30 4164 C 407.997 -1.04828 -3.61508 0
M  V30 4165 C 407.144 -1.4024 -2.39224 0
M  V30 4166 H 410.095 -1.17027 -1.07193 0
M  V30 4167 H 410.116 -0.667098 -3.74607 0
M  V30 4168 H 409.628 -2.36486 -3.07727 0
M  V30 4169 H 407.729 0.0140383 -3.72597 0
M  V30 4170 H 407.842 -1.71566 -4.47328 0
M  V30 4171 H 406.206 -0.821077 -2.41103 0
M  V30 4172 H 406.989 -2.49176 -2.36149 0
M  V30 4173 N 409.434 1.37368 -0.772513 0
M  V30 4174 C 410.711 1.93839 -0.26188 0
M  V30 4175 C 411.091 1.7061 1.24319 0
M  V30 4176 O 410.439 1.05534 2.02669 0
M  V30 4177 C 410.649 3.43154 -0.636102 0
M  V30 4178 C 411.997 4.20249 -0.606324 0
M  V30 4179 O 413.021 3.5152 -0.575538 0
M  V30 4180 O 411.88 5.42809 -0.634086 0
M  V30 4181 H 408.974 0.82478 -0.0605555 0
M  V30 4182 H 411.52 1.4665 -0.853917 0
M  V30 4183 H 410.292 3.53647 -1.6748 0
M  V30 4184 H 409.915 3.97596 -0.0170516 0
M  V30 4185 N 410.912 0.523116 1.48665 0
M  V30 4186 C 412.159 -0.0134763 2.02496 0
M  V30 4187 C 412.487 -1.3493 1.40086 0
M  V30 4188 O 411.742 -1.88286 0.533567 0
M  V30 4189 C 412.041 -0.191671 3.56886 0
M  V30 4190 C 411.707 1.06893 4.38046 0
M  V30 4191 C 410.369 1.41443 4.59943 0
M  V30 4192 C 412.721 1.90584 4.85106 0
M  V30 4193 C 410.049 2.59594 5.26144 0
M  V30 4194 C 412.401 3.07907 5.52609 0
M  V30 4195 C 411.065 3.42811 5.72745 0
M  V30 4196 H 410.335 -0.00493133 0.740984 0
M  V30 4197 H 412.982 0.687751 1.78724 0
M  V30 4198 H 411.287 -0.97561 3.79459 0
M  V30 4199 H 412.984 -0.621659 3.96152 0
M  V30 4200 H 409.574 0.789848 4.21259 0
M  V30 4201 H 413.758 1.65203 4.67997 0
M  V30 4202 H 409.014 2.86847 5.39934 0
M  V30 4203 H 413.188 3.73066 5.88043 0
M  V30 4204 H 410.815 4.34462 6.23816 0
M  V30 4205 N 412.39 -1.55475 0.257931 0
M  V30 4206 C 413.801 -1.8511 -0.243135 0
M  V30 4207 C 414.152 -1.17986 -1.5676 0
M  V30 4208 O 413.277 -0.462102 -2.11409 0
M  V30 4209 C 413.872 -3.35826 -0.447929 0
M  V30 4210 C 412.431 -3.65647 -0.893245 0
M  V30 4211 C 411.578 -2.7729 0.0232965 0
M  V30 4212 H 414.529 -1.51261 0.480199 0
M  V30 4213 H 414.55 -3.58002 -1.28898 0
M  V30 4214 H 414.062 -3.84652 0.516196 0
M  V30 4215 H 412.163 -3.22308 -1.86945 0
M  V30 4216 H 412.276 -4.73312 -0.742469 0
M  V30 4217 H 410.64 -2.49942 -0.490021 0
M  V30 4218 H 411.423 -3.28926 0.982994 0
M  V30 4219 N 413.868 0.0150385 -1.57593 0
M  V30 4220 C 414.831 0.995996 -2.06428 0
M  V30 4221 C 415.831 1.2818 -0.970903 0
M  V30 4222 O 417.021 1.22949 -1.23406 0
M  V30 4223 C 414.153 2.32506 -2.49307 0
M  V30 4224 H 415.346 0.573873 -2.94358 0
M  V30 4225 H 412.899 0.262186 -1.54085 0
M  V30 4226 H 413.634 2.79438 -1.64575 0
M  V30 4227 H 413.419 2.13087 -3.29145 0
M  V30 4228 H 414.909 3.02906 -2.87468 0
M  V30 4229 N 415.346 1.54954 0.287554 0
M  V30 4230 C 416.276 1.89839 1.35954 0
M  V30 4231 C 417.257 0.758675 1.52244 0
M  V30 4232 O 418.442 1.01557 1.65529 0
M  V30 4233 C 415.572 2.15753 2.72154 0
M  V30 4234 C 414.526 3.3159 2.70614 0
M  V30 4235 C 413.852 3.42952 4.10229 0
M  V30 4236 C 415.152 4.68359 2.31165 0
M  V30 4237 H 416.846 2.79625 1.07007 0
M  V30 4238 H 414.392 1.3454 0.513316 0
M  V30 4239 H 416.345 2.38743 3.47246 0
M  V30 4240 H 415.069 1.22752 3.02654 0
M  V30 4241 H 413.728 3.08545 1.97979 0
M  V30 4242 H 413.376 2.47443 4.37928 0
M  V30 4243 H 413.076 4.20826 4.10097 0
M  V30 4244 H 414.6 3.68218 4.87081 0
M  V30 4245 H 416.014 4.9099 2.95976 0
M  V30 4246 H 414.411 5.49044 2.42221 0
M  V30 4247 H 415.481 4.68165 1.26291 0
M  V30 4248 N 416.824 -0.551391 1.4764 0
M  V30 4249 C 417.754 -1.66757 1.63445 0
M  V30 4250 C 418.735 -1.63077 0.483742 0
M  V30 4251 O 419.92 -1.80607 0.71377 0
M  V30 4252 C 417.05 -3.05387 1.65396 0
M  V30 4253 C 416.004 -3.23918 2.79752 0
M  V30 4254 C 415.33 -4.63393 2.66779 0
M  V30 4255 C 416.63 -3.08735 4.21284 0
M  V30 4256 H 418.324 -1.53786 2.56886 0
M  V30 4257 H 415.87 -0.738415 1.23626 0
M  V30 4258 H 417.823 -3.83325 1.75043 0
M  V30 4259 H 416.547 -3.19332 0.685195 0
M  V30 4260 H 415.206 -2.48391 2.69625 0
M  V30 4261 H 414.854 -4.74144 1.67918 0
M  V30 4262 H 414.554 -4.7674 3.43501 0
M  V30 4263 H 416.078 -5.43458 2.78364 0
M  V30 4264 H 417.492 -3.76484 4.32357 0
M  V30 4265 H 415.889 -3.33588 4.98838 0
M  V30 4266 H 416.959 -2.0541 4.39243 0
M  V30 4267 N 418.302 -1.35869 -0.798587 0
M  V30 4268 C 419.548 -1.2978 -1.55836 0
M  V30 4269 C 419.881 0.125322 -1.93795 0
M  V30 4270 O 419.156 1.07658 -1.61987 0
M  V30 4271 C 419.439 -2.21188 -2.84162 0
M  V30 4272 C 419.292 -3.72155 -2.52628 0
M  V30 4273 C 420.611 -2.11545 -3.85923 0
M  V30 4274 H 417.73 -0.472769 -0.565383 0
M  V30 4275 H 420.372 -1.66341 -0.918192 0
M  V30 4276 H 418.522 -1.90139 -3.38791 0
M  V30 4277 H 420.194 -4.13682 -2.04121 0
M  V30 4278 H 418.437 -3.92042 -1.85704 0
M  V30 4279 H 419.108 -4.31511 -3.44242 0
M  V30 4280 H 421.584 -2.38855 -3.40716 0
M  V30 4281 H 420.46 -2.77688 -4.73477 0
M  V30 4282 H 420.721 -1.09987 -4.282 0
M  V30 4283 N 419.78 1.02168 -1.19998 0
M  V30 4284 C 420.69 2.14069 -0.959774 0
M  V30 4285 C 421.706 1.73804 0.082655 0
M  V30 4286 O 422.882 2.01133 -0.103633 0
M  V30 4287 C 419.947 3.42936 -0.509459 0
M  V30 4288 C 419.008 3.97474 -1.62213 0
M  V30 4289 C 418.241 5.2019 -1.19321 0
M  V30 4290 O 418.464 5.70369 -0.0597726 0
M  V30 4291 O 417.398 5.67749 -1.99863 0
M  V30 4292 H 421.224 2.37199 -1.89658 0
M  V30 4293 H 418.809 1.12469 -0.983411 0
M  V30 4294 H 420.691 4.20551 -0.267322 0
M  V30 4295 H 419.366 3.21234 0.398821 0
M  V30 4296 H 418.273 3.21161 -1.9185 0
M  V30 4297 H 419.606 4.23555 -2.50723 0
M  V30 4298 N 421.258 1.00505 1.21394 0
M  V30 4299 C 422.205 0.565496 2.23765 0
M  V30 4300 C 423.175 -0.408466 1.60999 0
M  V30 4301 O 424.36 -0.310503 1.88257 0
M  V30 4302 C 421.5 -0.101667 3.4495 0
M  V30 4303 C 420.613 0.915479 4.22188 0
M  V30 4304 C 419.748 0.220574 5.30742 0
M  V30 4305 C 418.787 1.22527 5.99711 0
M  V30 4306 N 417.924 0.557831 6.9988 0
M  V30 4307 H 422.764 1.44314 2.60725 0
M  V30 4308 H 420.301 0.722643 1.28126 0
M  V30 4309 H 422.259 -0.505504 4.14126 0
M  V30 4310 H 420.889 -0.94303 3.08718 0
M  V30 4311 H 419.941 1.43756 3.52191 0
M  V30 4312 H 421.253 1.68005 4.69655 0
M  V30 4313 H 420.407 -0.239368 6.06228 0
M  V30 4314 H 419.146 -0.576401 4.84282 0
M  V30 4315 H 418.151 1.69571 5.22997 0
M  V30 4316 H 419.376 2.02332 6.48258 0
M  V30 4317 H 417.322 -0.219486 6.55633 0
M  V30 4318 H 417.239 1.26065 7.45415 0
M  V30 4319 H 418.507 0.121095 7.79406 0
M  V30 4320 N 422.737 -1.36956 0.779787 0
M  V30 4321 C 423.667 -2.32761 0.185651 0
M  V30 4322 C 424.648 -1.56177 -0.673989 0
M  V30 4323 O 425.833 -1.84378 -0.609797 0
M  V30 4324 C 422.963 -3.40418 -0.687964 0
M  V30 4325 C 421.917 -4.27941 0.0710102 0
M  V30 4326 C 421.243 -5.26681 -0.922573 0
M  V30 4327 C 422.543 -5.07006 1.25467 0
M  V30 4328 H 424.237 -2.82698 0.986008 0
M  V30 4329 H 421.783 -1.3592 0.475592 0
M  V30 4330 H 423.736 -4.06423 -1.11348 0
M  V30 4331 H 422.46 -2.89025 -1.52093 0
M  V30 4332 H 421.119 -3.63478 0.47739 0
M  V30 4333 H 420.767 -4.71565 -1.7503 0
M  V30 4334 H 420.467 -5.86103 -0.419237 0
M  V30 4335 H 421.991 -5.9556 -1.34686 0
M  V30 4336 H 423.405 -5.66105 0.905401 0
M  V30 4337 H 421.802 -5.75793 1.69063 0
M  V30 4338 H 422.872 -4.3921 2.05481 0
M  V30 4339 N 424.215 -0.530993 -1.48385 0
M  V30 4340 C 425.145 0.219985 -2.32461 0
M  V30 4341 C 426.126 0.934111 -1.42156 0
M  V30 4342 O 427.311 0.919694 -1.71042 0
M  V30 4343 C 424.441 1.26674 -3.23375 0
M  V30 4344 C 423.395 0.67069 -4.22712 0
M  V30 4345 C 422.721 1.82017 -5.02766 0
M  V30 4346 C 424.021 -0.358268 -5.2107 0
M  V30 4347 H 425.715 -0.48187 -2.95497 0
M  V30 4348 H 423.261 -0.233182 -1.42099 0
M  V30 4349 H 425.214 1.80006 -3.81019 0
M  V30 4350 H 423.938 1.99818 -2.58341 0
M  V30 4351 H 422.597 0.158878 -3.66256 0
M  V30 4352 H 422.245 2.54002 -4.34157 0
M  V30 4353 H 421.945 1.42727 -5.70003 0
M  V30 4354 H 423.469 2.35725 -5.63264 0
M  V30 4355 H 424.883 0.0880081 -5.73232 0
M  V30 4356 H 423.28 -0.66861 -5.96364 0
M  V30 4357 H 424.35 -1.26367 -4.68145 0
M  V30 4358 N 425.693 1.55336 -0.266172 0
M  V30 4359 C 426.625 2.19544 0.658247 0
M  V30 4360 C 427.638 1.17746 1.12427 0
M  V30 4361 O 428.827 1.44517 1.04772 0
M  V30 4362 C 425.927 2.80032 1.9088 0
M  V30 4363 C 425.1 4.07436 1.59106 0
M  V30 4364 C 424.159 4.52056 2.69317 0
M  V30 4365 O 423.185 5.18023 2.35883 0
M  V30 4366 N 424.387 4.21448 3.99201 0
M  V30 4367 H 427.152 2.99503 0.108754 0
M  V30 4368 H 424.713 1.61667 -0.0869059 0
M  V30 4369 H 426.705 3.06831 2.63888 0
M  V30 4370 H 425.275 2.04119 2.36758 0
M  V30 4371 H 424.495 3.88021 0.695243 0
M  V30 4372 H 425.783 4.90462 1.35367 0
M  V30 4373 H 425.181 3.68528 4.29189 0
M  V30 4374 H 423.738 4.53039 4.68614 0
M  V30 4375 N 427.171 -0.0066808 1.57599 0
M  V30 4376 C 428.081 -1.01671 2.11424 0
M  V30 4377 C 429.097 -1.38143 1.05795 0
M  V30 4378 O 430.273 -1.47011 1.37658 0
M  V30 4379 C 427.338 -2.29192 2.60139 0
M  V30 4380 C 426.399 -1.99094 3.80342 0
M  V30 4381 C 425.632 -3.20535 4.26724 0
M  V30 4382 O 425.855 -4.3199 3.72479 0
M  V30 4383 O 424.789 -3.04924 5.18946 0
M  V30 4384 H 428.615 -0.589181 2.9793 0
M  V30 4385 H 426.2 -0.225091 1.47695 0
M  V30 4386 H 428.082 -3.0412 2.917 0
M  V30 4387 H 426.757 -2.71195 1.76733 0
M  V30 4388 H 425.664 -1.21663 3.53764 0
M  V30 4389 H 426.997 -1.61931 4.648 0
M  V30 4390 N 428.649 -1.55105 -0.279332 0
M  V30 4391 C 429.599 -1.83937 -1.34727 0
M  V30 4392 C 430.583 -0.69785 -1.44979 0
M  V30 4393 O 431.775 -0.95904 -1.48766 0
M  V30 4394 C 428.904 -2.1092 -2.70864 0
M  V30 4395 C 427.99 -3.31314 -2.64748 0
M  V30 4396 N 428.381 -4.51371 -2.2825 0
M  V30 4397 C 426.679 -3.33777 -2.95819 0
M  V30 4398 C 427.38 -5.33447 -2.31969 0
M  V30 4399 N 426.356 -4.71697 -2.7019 0
M  V30 4400 H 430.158 -2.74309 -1.05506 0
M  V30 4401 H 427.672 -1.54896 -0.487959 0
M  V30 4402 H 429.669 -2.2973 -3.47893 0
M  V30 4403 H 428.329 -1.21828 -3.00979 0
M  V30 4404 H 429.34 -4.77584 -2.00335 0
M  V30 4405 H 426.017 -2.54858 -3.30687 0
M  V30 4406 H 427.407 -6.39424 -2.06365 0
M  V30 4407 N 430.127 0.543554 -1.4793 0
M  V30 4408 C 431.057 1.65888 -1.64327 0
M  V30 4409 C 432.038 1.62818 -0.492383 0
M  V30 4410 O 433.223 1.80226 -0.723338 0
M  V30 4411 C 430.353 3.04506 -1.67013 0
M  V30 4412 C 429.307 3.2243 -2.81466 0
M  V30 4413 C 428.633 4.61972 -2.69233 0
M  V30 4414 C 429.933 3.06496 -4.22915 0
M  V30 4415 H 431.627 1.52421 -2.57698 0
M  V30 4416 H 429.173 0.731849 -1.24016 0
M  V30 4417 H 431.126 3.82391 -1.77074 0
M  V30 4418 H 429.85 3.18964 -0.70212 0
M  V30 4419 H 428.509 2.46957 -2.70938 0
M  V30 4420 H 428.157 4.73247 -1.7043 0
M  V30 4421 H 427.857 4.74911 -3.46025 0
M  V30 4422 H 429.381 5.41974 -2.81242 0
M  V30 4423 H 430.795 3.74186 -4.34348 0
M  V30 4424 H 429.192 3.30938 -5.006 0
M  V30 4425 H 430.262 2.03077 -4.40327 0
M  V30 4426 N 431.605 1.3629 0.791371 0
M  V30 4427 C 432.515 1.32606 1.93527 0
M  V30 4428 C 433.531 0.228541 1.72493 0
M  V30 4429 O 434.707 0.460571 1.96063 0
M  V30 4430 C 431.772 1.11271 3.28359 0
M  V30 4431 C 430.833 2.3048 3.62185 0
M  V30 4432 C 430.066 2.10154 4.90583 0
M  V30 4433 O 430.289 1.07572 5.60165 0
M  V30 4434 O 429.223 2.97884 5.23019 0
M  V30 4435 H 433.049 2.28909 1.99585 0
M  V30 4436 H 430.634 1.16818 0.931344 0
M  V30 4437 H 432.516 1.01283 4.09047 0
M  V30 4438 H 431.191 0.180292 3.23198 0
M  V30 4439 H 430.098 2.46036 2.81811 0
M  V30 4440 H 431.431 3.22221 3.72068 0
M  V30 4441 N 433.083 -1.0153 1.20538 0
M  V30 4442 C 433.993 -2.13557 0.971113 0
M  V30 4443 C 435.009 -1.73845 -0.0734366 0
M  V30 4444 O 436.185 -2.01075 0.114299 0
M  V30 4445 C 433.25 -3.42661 0.527639 0
M  V30 4446 C 432.311 -3.96608 1.64319 0
M  V30 4447 C 431.544 -5.1955 1.22078 0
M  V30 4448 O 431.767 -5.70329 0.0900198 0
M  V30 4449 O 430.701 -5.66681 2.02871 0
M  V30 4450 H 434.527 -2.3619 1.90913 0
M  V30 4451 H 432.112 -1.11946 0.989362 0
M  V30 4452 H 433.994 -4.20404 0.289621 0
M  V30 4453 H 432.669 -3.21441 -0.381779 0
M  V30 4454 H 431.576 -3.20139 1.93551 0
M  V30 4455 H 432.909 -4.22219 2.52966 0
M  V30 4456 N 434.561 -1.01147 -1.20859 0
M  V30 4457 C 435.493 -0.535546 -2.22855 0
M  V30 4458 C 436.506 0.379323 -1.58319 0
M  V30 4459 O 437.695 0.178489 -1.77605 0
M  V30 4460 C 434.795 0.240962 -3.38042 0
M  V30 4461 C 433.968 -0.674562 -4.32167 0
M  V30 4462 C 433.027 0.053467 -5.26173 0
M  V30 4463 O 432.053 -0.567339 -5.66366 0
M  V30 4464 N 433.255 1.32997 -5.65059 0
M  V30 4465 H 436.02 -1.41268 -2.64317 0
M  V30 4466 H 433.581 -0.888386 -1.35349 0
M  V30 4467 H 435.573 0.737115 -3.97931 0
M  V30 4468 H 434.143 1.01935 -2.95513 0
M  V30 4469 H 433.363 -1.35111 -3.70322 0
M  V30 4470 H 434.651 -1.2974 -4.91981 0
M  V30 4471 H 434.049 1.85536 -5.34409 0
M  V30 4472 H 432.606 1.77095 -6.2728 0
M  V30 4473 N 436.039 1.36541 -0.78704 0
M  V30 4474 C 436.949 2.3387 -0.184896 0
M  V30 4475 C 437.965 1.60927 0.661697 0
M  V30 4476 O 439.141 1.92927 0.57804 0
M  V30 4477 C 436.206 3.40122 0.672145 0
M  V30 4478 C 435.267 4.28867 -0.19267 0
M  V30 4479 C 434.5 5.30045 0.623561 0
M  V30 4480 O 434.723 5.39232 1.8597 0
M  V30 4481 O 433.657 6.01895 0.0247068 0
M  V30 4482 H 437.483 2.87126 -0.989562 0
M  V30 4483 H 435.068 1.38969 -0.548455 0
M  V30 4484 H 436.95 4.05093 1.16094 0
M  V30 4485 H 435.625 2.89169 1.45474 0
M  V30 4486 H 434.532 3.66945 -0.728166 0
M  V30 4487 H 435.865 4.83165 -0.938722 0
M  V30 4488 N 437.518 0.538854 1.48102 0
M  V30 4489 C 438.764 0.00801365 2.02798 0
M  V30 4490 C 439.097 -1.3309 1.41424 0
M  V30 4491 O 438.372 -1.86169 0.563158 0
M  V30 4492 C 438.655 -0.104589 3.59948 0
M  V30 4493 C 438.508 1.26012 4.31788 0
M  V30 4494 C 439.827 -0.827055 4.32259 0
M  V30 4495 H 436.946 0.00438624 0.736987 0
M  V30 4496 H 439.588 0.6976 1.7673 0
M  V30 4497 H 437.738 -0.691893 3.82289 0
M  V30 4498 H 439.41 1.88922 4.2084 0
M  V30 4499 H 437.653 1.83968 3.92859 0
M  V30 4500 H 438.324 1.13424 5.40221 0
M  V30 4501 H 440.8 -0.328578 4.14801 0
M  V30 4502 H 439.676 -0.87476 5.41885 0
M  V30 4503 H 439.937 -1.87927 4.0017 0
M  V30 4504 N 438.996 -1.55193 0.274407 0
M  V30 4505 C 439.959 -2.212 -0.600279 0
M  V30 4506 C 440.959 -1.18963 -1.08187 0
M  V30 4507 O 442.149 -1.43873 -0.982158 0
M  V30 4508 C 439.281 -2.87739 -1.82809 0
M  V30 4509 H 440.474 -2.9989 -0.0239682 0
M  V30 4510 H 438.027 -1.5628 0.0250192 0
M  V30 4511 H 438.762 -2.13058 -2.44493 0
M  V30 4512 H 438.547 -3.62658 -1.49069 0
M  V30 4513 H 440.037 -3.38171 -2.45011 0
M  V30 4514 N 440.474 -0.00167713 -1.576 0
M  V30 4515 C 441.885 0.54091 -1.78693 0
M  V30 4516 C 442.236 1.7386 -0.909247 0
M  V30 4517 O 441.361 2.16109 -0.112176 0
M  V30 4518 C 441.956 0.98806 -3.24072 0
M  V30 4519 C 440.515 1.47594 -3.46256 0
M  V30 4520 C 439.662 0.42792 -2.73978 0
M  V30 4521 H 442.613 -0.22784 -1.57056 0
M  V30 4522 H 442.634 1.85398 -3.32277 0
M  V30 4523 H 442.146 0.116164 -3.87926 0
M  V30 4524 H 440.247 2.36868 -2.87618 0
M  V30 4525 H 440.36 1.50225 -4.54939 0
M  V30 4526 H 438.724 0.889934 -2.38647 0
M  V30 4527 H 439.507 -0.435038 -3.40532 0
M  V30 4528 N 441.952 1.55251 0.271103 0
M  V30 4529 C 443.363 1.66635 0.842007 0
M  V30 4530 C 443.714 0.594631 1.86972 0
M  V30 4531 O 442.839 -0.263532 2.14789 0
M  V30 4532 C 443.434 3.02082 1.53401 0
M  V30 4533 C 441.993 3.15487 2.05293 0
M  V30 4534 C 441.14 2.62438 0.895631 0
M  V30 4535 H 444.091 1.58629 0.0474117 0
M  V30 4536 H 444.112 2.95176 2.40107 0
M  V30 4537 H 443.624 3.80062 0.785786 0
M  V30 4538 H 441.725 2.42284 2.83071 0
M  V30 4539 H 441.838 4.22075 2.26693 0
M  V30 4540 H 440.202 2.19644 1.28953 0
M  V30 4541 H 440.985 3.42923 0.160878 0
M  V30 4542 N 443.43 -0.535701 1.48216 0
M  V30 4543 C 444.393 -1.623 1.61838 0
M  V30 4544 C 445.393 -1.53087 0.492024 0
M  V30 4545 O 446.583 -1.5686 0.757668 0
M  V30 4546 C 443.715 -3.01907 1.58319 0
M  V30 4547 H 444.908 -1.51564 2.58783 0
M  V30 4548 H 442.461 -0.757317 1.36727 0
M  V30 4549 H 443.196 -3.18155 0.628299 0
M  V30 4550 H 442.981 -3.10003 2.40085 0
M  V30 4551 H 444.471 -3.80969 1.71033 0
M  V30 4552 N 444.908 -1.36708 -0.784132 0
M  V30 4553 C 445.838 -1.34153 -1.91116 0
M  V30 4554 C 446.819 -0.212121 -1.68772 0
M  V30 4555 O 448.004 -0.410581 -1.8981 0
M  V30 4556 C 445.134 -1.13535 -3.28218 0
M  V30 4557 C 444.088 -2.23356 -3.65097 0
M  V30 4558 C 443.414 -1.87875 -5.00607 0
M  V30 4559 C 444.714 -3.65473 -3.73131 0
M  V30 4560 H 446.408 -2.28459 -1.93512 0
M  V30 4561 H 443.954 -1.09973 -0.929618 0
M  V30 4562 H 445.907 -1.10381 -4.06687 0
M  V30 4563 H 444.631 -0.156804 -3.26223 0
M  V30 4564 H 443.29 -2.25645 -2.88929 0
M  V30 4565 H 442.938 -0.885814 -4.95139 0
M  V30 4566 H 442.638 -2.61406 -5.26252 0
M  V30 4567 H 444.162 -1.86286 -5.81489 0
M  V30 4568 H 445.576 -3.65382 -4.41779 0
M  V30 4569 H 443.973 -4.37953 -4.10265 0
M  V30 4570 H 445.043 -3.99995 -2.74102 0
M  V30 4571 N 446.386 1.0089 -1.21074 0
M  V30 4572 C 447.797 1.56056 -1.02486 0
M  V30 4573 C 448.148 1.91728 0.416506 0
M  V30 4574 O 447.273 1.73066 1.29912 0
M  V30 4575 C 447.868 2.83563 -1.85411 0
M  V30 4576 C 446.427 3.3523 -1.71166 0
M  V30 4577 C 445.574 2.0846 -1.82865 0
M  V30 4578 H 448.525 0.831818 -1.35154 0
M  V30 4579 H 448.546 3.55286 -1.36205 0
M  V30 4580 H 448.058 2.57569 -2.9031 0
M  V30 4581 H 446.159 3.66167 -0.689361 0
M  V30 4582 H 446.272 4.06913 -2.52901 0
M  V30 4583 H 444.636 2.21275 -1.26132 0
M  V30 4584 H 445.419 1.84883 -2.89263 0
M  V30 4585 N 447.864 1.01787 1.20321 0
M  V30 4586 C 449.275 0.739307 1.71438 0
M  V30 4587 C 449.626 -0.742041 1.81627 0
M  V30 4588 O 448.751 -1.57903 1.47971 0
M  V30 4589 C 449.346 1.33538 3.11373 0
M  V30 4590 C 447.905 1.10566 3.59795 0
M  V30 4591 C 447.052 1.44028 2.36962 0
M  V30 4592 H 450.003 1.18718 1.05317 0
M  V30 4593 H 450.024 0.726611 3.73498 0
M  V30 4594 H 449.536 2.41352 3.03926 0
M  V30 4595 H 447.637 0.0452405 3.72573 0
M  V30 4596 H 447.75 1.78661 4.44542 0
M  V30 4597 H 446.114 0.85933 2.39766 0
M  V30 4598 H 446.897 2.52901 2.32155 0
M  V30 4599 N 449.342 -1.36122 0.79427 0
M  V30 4600 C 450.289 -2.29982 0.194101 0
M  V30 4601 C 451.259 -1.52214 -0.664833 0
M  V30 4602 O 452.444 -1.80702 -0.612498 0
M  V30 4603 C 449.584 -3.38706 -0.661244 0
M  V30 4604 C 448.697 -4.31456 0.216766 0
M  V30 4605 C 447.832 -5.27265 -0.645411 0
M  V30 4606 C 446.871 -6.11653 0.233756 0
M  V30 4607 N 446.008 -6.99636 -0.587682 0
M  V30 4608 H 450.848 -2.80722 0.999965 0
M  V30 4609 H 448.385 -1.38172 0.504677 0
M  V30 4610 H 450.343 -4.00394 -1.17219 0
M  V30 4611 H 448.973 -2.89274 -1.43249 0
M  V30 4612 H 448.025 -3.7088 0.845724 0
M  V30 4613 H 449.337 -4.90724 0.893973 0
M  V30 4614 H 448.491 -5.94266 -1.22198 0
M  V30 4615 H 447.23 -4.68463 -1.35623 0
M  V30 4616 H 446.235 -5.4361 0.82269 0
M  V30 4617 H 447.46 -6.72531 0.942247 0
M  V30 4618 H 445.406 -6.43337 -1.2827 0
M  V30 4619 H 445.323 -7.55993 0.0317402 0
M  V30 4620 H 446.591 -7.71001 -1.14792 0
M  V30 4621 N 450.82 -0.546701 -1.47814 0
M  V30 4622 C 452.231 -0.110564 -1.86372 0
M  V30 4623 C 452.582 1.31678 -1.45449 0
M  V30 4624 O 451.707 1.98889 -0.852758 0
M  V30 4625 C 452.302 -0.193873 -3.38245 0
M  V30 4626 C 450.861 0.187164 -3.75934 0
M  V30 4627 C 450.008 -0.546166 -2.71868 0
M  V30 4628 H 452.959 -0.757022 -1.39481 0
M  V30 4629 H 452.98 0.590218 -3.75895 0
M  V30 4630 H 452.492 -1.23282 -3.67999 0
M  V30 4631 H 450.593 1.22762 -3.51796 0
M  V30 4632 H 450.706 -0.164083 -4.78819 0
M  V30 4633 H 449.07 0.00953904 -2.54698 0
M  V30 4634 H 449.853 -1.58606 -3.04465 0
M  V30 4635 N 452.299 1.55045 -0.282633 0
M  V30 4636 C 453.71 1.85473 0.213655 0
M  V30 4637 C 454.061 1.20465 1.54863 0
M  V30 4638 O 453.186 0.495676 2.10647 0
M  V30 4639 C 453.781 3.36496 0.394445 0
M  V30 4640 C 452.34 3.67022 0.834961 0
M  V30 4641 C 451.487 2.77218 -0.0674081 0
M  V30 4642 H 454.438 1.50478 -0.504202 0
M  V30 4643 H 454.459 3.60007 1.23186 0
M  V30 4644 H 453.971 3.83782 -0.577326 0
M  V30 4645 H 452.072 3.25241 1.81794 0
M  V30 4646 H 452.185 4.74433 0.667075 0
M  V30 4647 H 450.549 2.5069 0.450196 0
M  V30 4648 H 451.332 3.2732 -1.0352 0
M  V30 4649 N 453.777 0.010035 1.57597 0
M  V30 4650 C 454.724 -0.978122 2.09049 0
M  V30 4651 C 455.694 -1.33509 0.988159 0
M  V30 4652 O 456.879 -1.43172 1.26121 0
M  V30 4653 C 454.019 -2.26158 2.60666 0
M  V30 4654 C 453.132 -1.96275 3.84838 0
M  V30 4655 C 452.267 -3.18776 4.24918 0
M  V30 4656 C 451.306 -2.84625 5.41899 0
M  V30 4657 N 450.443 -3.99693 5.77226 0
M  V30 4658 H 455.283 -0.532431 2.93205 0
M  V30 4659 H 452.82 -0.251234 1.44939 0
M  V30 4660 H 454.778 -3.01202 2.88675 0
M  V30 4661 H 453.408 -2.68378 1.79369 0
M  V30 4662 H 452.46 -1.11555 3.63675 0
M  V30 4663 H 453.772 -1.67111 4.69974 0
M  V30 4664 H 452.926 -4.02157 4.54262 0
M  V30 4665 H 451.665 -3.51087 3.38511 0
M  V30 4666 H 450.67 -1.99653 5.12268 0
M  V30 4667 H 451.895 -2.53551 6.29991 0
M  V30 4668 H 449.841 -4.31882 4.93776 0
M  V30 4669 H 449.758 -3.74087 6.56959 0
M  V30 4670 H 451.026 -4.83834 6.11167 0
M  V30 4671 N 455.255 -1.55392 -0.262866 0
M  V30 4672 C 456.218 -1.88181 -1.30846 0
M  V30 4673 C 457.218 -0.757079 -1.41862 0
M  V30 4674 O 458.408 -1.02519 -1.40838 0
M  V30 4675 C 455.54 -2.09609 -2.68844 0
M  V30 4676 H 456.733 -2.81659 -1.02997 0
M  V30 4677 H 454.286 -1.48039 -0.501414 0
M  V30 4678 H 455.021 -1.18547 -3.01856 0
M  V30 4679 H 454.806 -2.91508 -2.62231 0
M  V30 4680 H 456.296 -2.36215 -3.44372 0
M  V30 4681 N 456.733 0.527833 -1.48498 0
M  V30 4682 C 457.68 1.6322 -1.6318 0
M  V30 4683 C 458.65 1.59199 -0.473815 0
M  V30 4684 O 459.835 1.77591 -0.697563 0
M  V30 4685 C 456.975 3.01474 -1.67951 0
M  V30 4686 C 456.088 3.15713 -2.94871 0
M  V30 4687 C 455.223 4.44539 -2.90789 0
M  V30 4688 C 454.262 4.52315 -4.12404 0
M  V30 4689 N 453.399 5.72533 -4.06387 0
M  V30 4690 H 458.239 1.50011 -2.57489 0
M  V30 4691 H 455.776 0.730298 -1.27691 0
M  V30 4692 H 457.734 3.81572 -1.68698 0
M  V30 4693 H 456.364 3.1345 -0.771306 0
M  V30 4694 H 455.416 2.28854 -3.03859 0
M  V30 4695 H 456.728 3.1732 -3.8485 0
M  V30 4696 H 455.882 5.3293 -2.89949 0
M  V30 4697 H 454.621 4.45457 -1.98542 0
M  V30 4698 H 453.626 3.62331 -4.13517 0
M  V30 4699 H 454.851 4.53134 -5.05812 0
M  V30 4700 H 452.797 5.74344 -3.16962 0
M  V30 4701 H 452.714 5.75643 -4.90073 0
M  V30 4702 H 453.982 6.63204 -4.0961 0
M  V30 4703 N 458.211 1.37122 0.776871 0
M  V30 4704 C 459.622 1.28667 1.35284 0
M  V30 4705 C 459.973 -0.0680035 1.96082 0
M  V30 4706 O 459.098 -0.969743 1.93455 0
M  V30 4707 C 459.693 2.32997 2.45963 0
M  V30 4708 C 458.252 2.28191 2.99342 0
M  V30 4709 C 457.399 2.17101 1.72517 0
M  V30 4710 H 460.35 1.47819 0.577527 0
M  V30 4711 H 460.371 1.97366 3.2531 0
M  V30 4712 H 459.883 3.3158 2.01684 0
M  V30 4713 H 457.984 1.33115 3.4801 0
M  V30 4714 H 458.097 3.21397 3.55304 0
M  V30 4715 H 456.461 1.63562 1.95242 0
M  V30 4716 H 457.244 3.17591 1.30348 0
M  V30 4717 N 459.689 -1.00246 1.21608 0
M  V30 4718 C 460.652 -2.07233 0.979133 0
M  V30 4719 C 461.652 -1.6072 -0.0508219 0
M  V30 4720 O 462.842 -1.73196 0.186712 0
M  V30 4721 C 459.974 -3.37546 0.477016 0
M  V30 4722 H 461.167 -2.29687 1.92831 0
M  V30 4723 H 458.72 -1.17261 1.03342 0
M  V30 4724 H 459.455 -3.20773 -0.476966 0
M  V30 4725 H 459.24 -3.72638 1.21997 0
M  V30 4726 H 460.73 -4.16285 0.331181 0
M  V30 4727 N 461.167 -1.02423 -1.1978 0
M  V30 4728 C 462.392 -0.7373 -1.93852 0
M  V30 4729 C 462.817 0.696923 -1.74713 0
M  V30 4730 O 462.175 1.48056 -1.04638 0
M  V30 4731 C 462.223 -1.08783 -3.438 0
M  V30 4732 O 461.327 -0.20383 -4.11896 0
M  V30 4733 H 460.668 -0.27284 -0.605355 0
M  V30 4734 H 463.198 -1.36966 -1.51992 0
M  V30 4735 H 463.208 -1.04276 -3.9445 0
M  V30 4736 H 461.883 -2.13274 -3.57053 0
M  V30 4737 H 460.46 -0.307091 -3.71633 0
M  V30 4738 N 462.645 1.35699 -0.801477 0
M  V30 4739 C 463.873 2.03157 -0.391768 0
M  V30 4740 C 464.288 1.60412 0.995668 0
M  V30 4741 O 463.645 0.799228 1.64069 0
M  V30 4742 C 463.696 3.58566 -0.459671 0
M  V30 4743 O 463.417 3.99756 -1.7924 0
M  V30 4744 C 464.918 4.4328 -0.0421205 0
M  V30 4745 H 462.138 0.651688 -0.159825 0
M  V30 4746 H 464.682 1.73426 -1.08368 0
M  V30 4747 H 462.837 3.86963 0.183939 0
M  V30 4748 H 463.251 4.94387 -1.75162 0
M  V30 4749 H 464.725 5.51821 -0.140754 0
M  V30 4750 H 465.202 4.27383 1.01196 0
M  V30 4751 H 465.808 4.20168 -0.658687 0
M  V30 4752 N 464.123 0.554532 1.47522 0
M  V30 4753 C 465.369 0.0295227 2.02779 0
M  V30 4754 C 465.702 -1.31582 1.42828 0
M  V30 4755 O 464.977 -1.85561 0.582872 0
M  V30 4756 C 465.26 -0.0664057 3.60039 0
M  V30 4757 C 465.113 1.30585 4.30427 0
M  V30 4758 C 466.432 -0.781162 4.33112 0
M  V30 4759 H 463.551 0.0122027 0.736899 0
M  V30 4760 H 466.193 0.716305 1.7598 0
M  V30 4761 H 464.343 -0.651307 3.83002 0
M  V30 4762 H 466.015 1.93374 4.18813 0
M  V30 4763 H 464.258 1.88125 3.90886 0
M  V30 4764 H 464.929 1.19147 5.38988 0
M  V30 4765 H 467.405 -0.284565 4.15126 0
M  V30 4766 H 466.281 -0.817237 5.42782 0
M  V30 4767 H 466.542 -1.83672 4.0214 0
M  V30 4768 N 465.601 -1.54893 0.290851 0
M  V30 4769 C 466.531 -2.26103 -0.583084 0
M  V30 4770 C 467.512 -1.25684 -1.14619 0
M  V30 4771 O 468.697 -1.54436 -1.17741 0
M  V30 4772 C 465.827 -2.99409 -1.75987 0
M  V30 4773 C 464.781 -4.0689 -1.32758 0
M  V30 4774 C 464.107 -4.67856 -2.58872 0
M  V30 4775 C 465.407 -5.20215 -0.46624 0
M  V30 4776 H 467.101 -2.99398 0.0108214 0
M  V30 4777 H 464.647 -1.43998 0.00664468 0
M  V30 4778 H 466.6 -3.47943 -2.37727 0
M  V30 4779 H 465.324 -2.23675 -2.37985 0
M  V30 4780 H 463.983 -3.59191 -0.733299 0
M  V30 4781 H 463.631 -3.88772 -3.19163 0
M  V30 4782 H 463.331 -5.40438 -2.30653 0
M  V30 4783 H 464.855 -5.19147 -3.21433 0
M  V30 4784 H 466.269 -5.64704 -0.989047 0
M  V30 4785 H 464.666 -5.99455 -0.27826 0
M  V30 4786 H 465.736 -4.82198 0.511173 0
M  V30 4787 N 467.08 -0.0183926 -1.57589 0
M  V30 4788 C 468.043 0.951986 -2.08494 0
M  V30 4789 C 469.043 1.26092 -0.997874 0
M  V30 4790 O 470.233 1.20304 -1.25987 0
M  V30 4791 C 467.365 2.27165 -2.54182 0
M  V30 4792 H 468.558 0.511307 -2.95509 0
M  V30 4793 H 466.111 0.229444 -1.54607 0
M  V30 4794 H 466.846 2.75884 -1.70465 0
M  V30 4795 H 466.631 2.06057 -3.33591 0
M  V30 4796 H 468.121 2.9674 -2.93828 0
M  V30 4797 N 468.558 1.5553 0.254621 0
M  V30 4798 C 469.506 1.9048 1.33492 0
M  V30 4799 C 470.5 0.78304 1.50216 0
M  V30 4800 O 471.706 0.967582 1.51782 0
M  V30 4801 H 468.081 0.604846 0.44684 0
M  V30 4802 H 470.052 2.80688 1.01275 0
M  V30 4803 C 468.801 2.20928 2.68489 0
M  V30 4804 H 468.124 3.06742 2.56417 0
M  V30 4805 H 469.564 2.49291 3.42972 0
M  V30 4806 C 468.023 1.023 3.20993 0
M  V30 4807 O 468.553 0.267027 4.00811 0
M  V30 4808 N 466.759 0.815714 2.78917 0
M  V30 4809 H 466.306 1.43217 2.14119 0
M  V30 4810 H 466.264 0.0236532 3.14391 0
M  V30 4811 N 470.036 -0.519951 1.48776 0
M  V30 4812 C 471.284 -1.2727 1.56993 0
M  V30 4813 C 471.605 -1.9339 0.25004 0
M  V30 4814 O 470.875 -1.81822 -0.729216 0
M  V30 4815 H 469.455 -0.472732 0.578389 0
M  V30 4816 H 472.117 -0.604234 1.85297 0
M  V30 4817 H 471.213 -2.04669 2.3562 0
M  V30 4818 N 471.514 -1.37532 -0.769588 0
M  V30 4819 C 472.762 -1.32597 -1.5252 0
M  V30 4820 C 473.083 0.0884294 -1.94799 0
M  V30 4821 O 472.353 1.03289 -1.66458 0
M  V30 4822 H 470.933 -0.487846 -0.565699 0
M  V30 4823 H 473.595 -1.72044 -0.915806 0
M  V30 4824 H 472.691 -1.96643 -2.42359 0
M  V30 4825 N 472.992 0.995999 -1.22138 0
M  V30 4826 C 474.217 1.77601 -1.0711 0
M  V30 4827 C 474.642 1.84339 0.374264 0
M  V30 4828 O 474 1.29359 1.27028 0
M  V30 4829 C 474.048 3.18897 -1.68336 0
M  V30 4830 O 473.152 4.01663 -0.934928 0
M  V30 4831 H 472.493 0.547011 -0.376397 0
M  V30 4832 H 475.023 1.25137 -1.6187 0
M  V30 4833 H 475.033 3.69539 -1.72931 0
M  V30 4834 H 473.708 3.13308 -2.73516 0
M  V30 4835 H 472.285 3.60204 -0.964751 0
M  V30 4836 N 474.47 1.03057 1.19235 0
M  V30 4837 C 475.881 0.757449 1.70645 0
M  V30 4838 C 476.232 -0.722735 1.82403 0
M  V30 4839 O 475.357 -1.56325 1.49638 0
M  V30 4840 C 475.952 1.36833 3.09939 0
M  V30 4841 C 474.511 1.14375 3.58602 0
M  V30 4842 C 473.658 1.46533 2.35422 0
M  V30 4843 H 476.609 1.19828 1.04052 0
M  V30 4844 H 476.63 0.766184 3.72706 0
M  V30 4845 H 476.142 2.44562 3.01349 0
M  V30 4846 H 474.243 0.0847542 3.72504 0
M  V30 4847 H 474.356 1.83366 4.42622 0
M  V30 4848 H 472.72 0.884712 2.38841 0
M  V30 4849 H 473.503 2.55349 2.2946 0
M  V30 4850 N 475.948 -1.35272 0.808662 0
M  V30 4851 C 477.359 -1.81179 0.450688 0
M  V30 4852 C 477.71 -1.67143 -1.02751 0
M  V30 4853 O 476.835 -1.20325 -1.79864 0
M  V30 4854 C 477.43 -3.28943 0.811275 0
M  V30 4855 C 475.989 -3.72985 0.505871 0
M  V30 4856 C 475.136 -2.57229 1.03578 0
M  V30 4857 H 478.087 -1.2322 1.00012 0
M  V30 4858 H 478.108 -3.80342 0.109588 0
M  V30 4859 H 477.62 -3.39127 1.88718 0
M  V30 4860 H 475.721 -3.68349 -0.561209 0
M  V30 4861 H 475.834 -4.67677 1.03995 0
M  V30 4862 H 474.198 -2.50548 0.458005 0
M  V30 4863 H 474.981 -2.7019 2.11784 0
M  V30 4864 N 477.426 -0.562348 -1.47226 0
M  V30 4865 C 478.651 -0.0432632 -2.07355 0
M  V30 4866 C 479.076 1.24332 -1.41149 0
M  V30 4867 O 478.434 1.74603 -0.488226 0
M  V30 4868 C 478.482 0.130288 -3.60365 0
M  V30 4869 O 477.586 1.19166 -3.94808 0
M  V30 4870 H 476.927 -0.0536334 -0.66183 0
M  V30 4871 H 479.457 -0.779495 -1.89169 0
M  V30 4872 H 479.467 0.342881 -4.06557 0
M  V30 4873 H 478.142 -0.809389 -4.07948 0
M  V30 4874 H 476.719 0.959153 -3.60354 0
M  V30 4875 N 478.904 1.54736 -0.299062 0
M  V30 4876 C 479.834 2.26409 0.571085 0
M  V30 4877 C 480.815 1.2629 1.13951 0
M  V30 4878 O 482 1.55059 1.16921 0
M  V30 4879 C 479.13 3.00338 1.74396 0
M  V30 4880 C 478.084 4.07588 1.30599 0
M  V30 4881 C 477.41 4.69222 2.56387 0
M  V30 4882 C 478.71 5.20455 0.438645 0
M  V30 4883 H 480.404 2.99388 -0.0266991 0
M  V30 4884 H 477.95 1.43993 -0.0142812 0
M  V30 4885 H 479.903 3.49198 2.35878 0
M  V30 4886 H 478.627 2.24934 2.36796 0
M  V30 4887 H 477.286 3.59575 0.71424 0
M  V30 4888 H 476.934 3.9046 3.17097 0
M  V30 4889 H 476.634 5.41653 2.27784 0
M  V30 4890 H 478.158 5.20844 3.18675 0
M  V30 4891 H 479.572 5.65221 0.959085 0
M  V30 4892 H 477.969 5.99594 0.246466 0
M  V30 4893 H 479.039 4.8192 -0.536738 0
M  V30 4894 N 480.382 0.0267497 1.57577 0
M  V30 4895 C 481.314 -0.984594 2.06974 0
M  V30 4896 C 482.327 -1.29032 0.992705 0
M  V30 4897 O 483.516 -1.25539 1.26895 0
M  V30 4898 C 480.616 -2.31262 2.47732 0
M  V30 4899 C 479.789 -2.1924 3.78487 0
M  V30 4900 C 478.848 -3.34956 4.05821 0
M  V30 4901 O 477.874 -3.11948 4.76106 0
M  V30 4902 N 479.076 -4.58672 3.55809 0
M  V30 4903 H 481.841 -0.563143 2.94362 0
M  V30 4904 H 479.402 -0.160061 1.61107 0
M  V30 4905 H 481.394 -3.07496 2.63112 0
M  V30 4906 H 479.964 -2.65056 1.65723 0
M  V30 4907 H 479.184 -1.27747 3.72927 0
M  V30 4908 H 480.472 -2.08409 4.64158 0
M  V30 4909 H 479.87 -4.8026 2.98942 0
M  V30 4910 H 478.427 -5.32083 3.76472 0
M  V30 4911 N 481.861 -1.55662 -0.24637 0
M  V30 4912 C 483.138 -1.68272 -0.997198 0
M  V30 4913 C 483.518 -0.566785 -2.03349 0
M  V30 4914 O 482.866 0.429688 -2.24424 0
M  V30 4915 C 483.076 -3.08594 -1.63006 0
M  V30 4916 C 484.424 -3.6721 -2.13171 0
M  V30 4917 O 485.448 -3.11397 -1.72946 0
M  V30 4918 O 484.307 -4.65054 -2.87031 0
M  V30 4919 H 481.401 -0.684429 -0.464205 0
M  V30 4920 H 483.947 -1.67993 -0.240114 0
M  V30 4921 H 482.719 -3.81264 -0.880527 0
M  V30 4922 H 482.342 -3.12886 -2.45333 0
M  V30 4923 N 483.339 0.512053 -1.4905 0
M  V30 4924 C 484.302 1.59704 -1.64399 0
M  V30 4925 C 485.302 1.52285 -0.516317 0
M  V30 4926 O 486.492 1.55635 -0.782527 0
M  V30 4927 C 483.624 2.9935 -1.63102 0
M  V30 4928 H 484.817 1.47428 -2.61161 0
M  V30 4929 H 482.37 0.735469 -1.37915 0
M  V30 4930 H 483.105 3.17116 -0.678836 0
M  V30 4931 H 482.89 3.06144 -2.44986 0
M  V30 4932 H 484.38 3.782 -1.77072 0
M  V30 4933 N 484.817 1.37938 0.762283 0
M  V30 4934 C 485.727 1.36681 1.90671 0
M  V30 4935 C 486.743 0.265078 1.71969 0
M  V30 4936 O 487.919 0.502055 1.95042 0
M  V30 4937 C 484.984 1.18211 3.25925 0
M  V30 4938 C 484.045 2.3811 3.57214 0
M  V30 4939 C 483.278 2.20512 4.86014 0
M  V30 4940 O 483.501 1.19429 5.57757 0
M  V30 4941 O 482.435 3.08911 5.16583 0
M  V30 4942 H 486.261 2.33091 1.94685 0
M  V30 4943 H 483.846 1.18767 0.906356 0
M  V30 4944 H 485.728 1.09937 4.06807 0
M  V30 4945 H 484.403 0.248807 3.22742 0
M  V30 4946 H 483.31 2.51958 2.76529 0
M  V30 4947 H 484.643 3.30041 3.65149 0
M  V30 4948 N 486.295 -0.989507 1.22664 0
M  V30 4949 C 487.541 -1.73298 1.06487 0
M  V30 4950 C 487.896 -1.88292 -0.395438 0
M  V30 4951 O 487.189 -1.41748 -1.28911 0
M  V30 4952 C 487.383 -3.13649 1.71345 0
M  V30 4953 C 487.212 -3.12341 3.23532 0
M  V30 4954 C 485.982 -3.18044 3.92653 0
M  V30 4955 C 488.18 -2.96226 4.20422 0
M  V30 4956 N 486.162 -3.06526 5.31898 0
M  V30 4957 C 487.533 -2.92773 5.4652 0
M  V30 4958 C 489.588 -2.80642 4.11271 0
M  V30 4959 C 488.291 -2.75332 6.64519 0
M  V30 4960 C 490.317 -2.64563 5.28924 0
M  V30 4961 C 489.679 -2.618 6.53942 0
M  V30 4962 H 485.778 -0.643643 0.444126 0
M  V30 4963 H 488.362 -1.17489 1.55256 0
M  V30 4964 H 486.533 -3.67694 1.25122 0
M  V30 4965 H 488.265 -3.76577 1.48229 0
M  V30 4966 H 485.02 -3.25861 3.43673 0
M  V30 4967 H 485.444 -3.04067 6.04874 0
M  V30 4968 H 490.086 -2.81574 3.15398 0
M  V30 4969 H 487.804 -2.73145 7.60538 0
M  V30 4970 H 491.39 -2.53482 5.23677 0
M  V30 4971 H 490.27 -2.49511 7.43447 0
M  V30 4972 N 487.773 -1.03688 -1.18687 0
M  V30 4973 C 489.003 -0.756819 -1.92239 0
M  V30 4974 C 489.411 0.689374 -1.76194 0
M  V30 4975 O 488.754 1.48126 -1.08648 0
M  V30 4976 C 488.816 -1.03851 -3.44173 0
M  V30 4977 C 488.48 -2.47785 -3.83994 0
M  V30 4978 C 489.477 -3.4595 -3.88091 0
M  V30 4979 C 487.162 -2.82397 -4.154 0
M  V30 4980 C 489.156 -4.76779 -4.23038 0
M  V30 4981 C 486.843 -4.13433 -4.50018 0
M  V30 4982 C 487.841 -5.10434 -4.53813 0
M  V30 4983 O 487.529 -6.39122 -4.87625 0
M  V30 4984 H 487.261 -0.275678 -0.617234 0
M  V30 4985 H 489.815 -1.38658 -1.51536 0
M  V30 4986 H 488.045 -0.351612 -3.85098 0
M  V30 4987 H 489.734 -0.746846 -3.9897 0
M  V30 4988 H 490.5 -3.20549 -3.63969 0
M  V30 4989 H 486.379 -2.07568 -4.11627 0
M  V30 4990 H 489.923 -5.52488 -4.25914 0
M  V30 4991 H 485.82 -4.38604 -4.736 0
M  V30 4992 H 486.588 -6.43715 -5.05542 0
M  V30 4993 N 489.251 1.34841 -0.815825 0
M  V30 4994 C 490.497 1.99219 -0.410288 0
M  V30 4995 C 490.852 1.63532 1.01366 0
M  V30 4996 O 490.145 0.893093 1.69512 0
M  V30 4997 C 490.339 3.53273 -0.541541 0
M  V30 4998 C 490.168 4.03927 -1.9767 0
M  V30 4999 C 488.938 4.32852 -2.60706 0
M  V30 5000 C 491.136 4.21808 -2.9425 0
M  V30 5001 N 489.118 4.69494 -3.95536 0
M  V30 5002 C 490.489 4.6155 -4.13971 0
M  V30 5003 C 492.544 4.04038 -2.9096 0
M  V30 5004 C 491.247 4.85381 -5.30847 0
M  V30 5005 C 493.273 4.29031 -4.07046 0
M  V30 5006 C 492.635 4.69054 -5.25517 0
M  V30 5007 H 488.734 0.756494 -0.198094 0
M  V30 5008 H 491.318 1.63379 -1.05902 0
M  V30 5009 H 489.489 3.88323 0.0772544 0
M  V30 5010 H 491.221 4.04551 -0.109694 0
M  V30 5011 H 487.976 4.23503 -2.11995 0
M  V30 5012 H 488.4 4.92061 -4.64979 0
M  V30 5013 H 493.042 3.7223 -2.00512 0
M  V30 5014 H 490.76 5.16059 -6.21859 0
M  V30 5015 H 494.346 4.16826 -4.05891 0
M  V30 5016 H 493.226 4.88014 -6.1385 0
M  V30 5017 N 490.729 0.570148 1.46925 0
M  V30 5018 C 491.977 0.0508523 2.02036 0
M  V30 5019 C 492.298 -1.30885 1.44548 0
M  V30 5020 O 491.568 -1.85647 0.625453 0
M  V30 5021 H 490.148 0.0158088 0.746833 0
M  V30 5022 H 492.81 0.743086 1.80178 0
M  V30 5023 H 491.906 -0.027575 3.12088 0
M  V30 5024 N 492.207 -1.54576 0.307264 0
M  V30 5025 C 493.484 -1.92377 -0.353605 0
M  V30 5026 C 493.864 -1.23517 -1.71192 0
M  V30 5027 O 493.212 -0.373101 -2.25433 0
M  V30 5028 C 493.422 -3.45928 -0.462039 0
M  V30 5029 C 494.77 -4.18278 -0.729975 0
M  V30 5030 O 495.794 -3.51997 -0.545605 0
M  V30 5031 O 494.653 -5.3563 -1.08454 0
M  V30 5032 H 491.747 -0.802747 -0.198812 0
M  V30 5033 H 494.293 -1.65929 0.355783 0
M  V30 5034 H 493.065 -3.88187 0.492592 0
M  V30 5035 H 492.688 -3.78431 -1.21965 0
M  V30 5036 N 493.685 -0.035106 -1.57561 0
M  V30 5037 C 494.934 0.641604 -1.91223 0
M  V30 5038 C 495.247 1.72944 -0.913761 0
M  V30 5039 O 496.453 2.46321 -1.14185 0
M  V30 5040 C 494.909 1.19249 -3.3957 0
M  V30 5041 C 494.517 0.137616 -4.47789 0
M  V30 5042 C 496.261 1.84537 -3.82291 0
M  V30 5043 C 494.168 0.700478 -5.87237 0
M  V30 5044 H 493.098 0.243417 -0.713627 0
M  V30 5045 H 495.749 -0.101382 -1.8322 0
M  V30 5046 H 494.131 1.98728 -3.42525 0
M  V30 5047 H 495.305 -0.635153 -4.56402 0
M  V30 5048 H 493.62 -0.416855 -4.14308 0
M  V30 5049 H 496.217 2.27616 -4.83834 0
M  V30 5050 H 496.56 2.69054 -3.17672 0
M  V30 5051 H 497.093 1.11739 -3.81784 0
M  V30 5052 H 493.832 -0.106693 -6.55413 0
M  V30 5053 H 493.352 1.4416 -5.82218 0
M  V30 5054 H 495.031 1.18837 -6.35993 0
M  V30 5055 N 495.163 1.55791 0.238111 0
M  V30 5056 C 496.388 1.8244 0.986432 0
M  V30 5057 C 496.813 0.613314 1.7782 0
M  V30 5058 O 496.171 -0.437767 1.75935 0
M  V30 5059 C 496.219 3.06917 1.893 0
M  V30 5060 O 495.323 2.84449 2.98601 0
M  V30 5061 H 494.664 0.601975 0.280218 0
M  V30 5062 H 497.194 2.02987 0.256437 0
M  V30 5063 H 497.204 3.36583 2.30598 0
M  V30 5064 H 495.879 3.947 1.31091 0
M  V30 5065 H 494.456 2.65972 2.61368 0
M  V30 5066 N 496.642 -0.504142 1.49319 0
M  V30 5067 C 498.058 -0.835039 1.36012 0
M  V30 5068 C 498.258 -1.97674 0.390808 0
M  V30 5069 O 497.314 -2.51867 -0.178655 0
M  V30 5070 C 498.627 -1.17821 2.76656 0
M  V30 5071 C 500.175 -1.2866 2.85334 0
M  V30 5072 C 500.65 -1.66307 4.26739 0
M  V30 5073 N 502.141 -1.73362 4.29534 0
M  V30 5074 C 502.876 -2.0393 5.35911 0
M  V30 5075 N 502.372 -2.32744 6.52535 0
M  V30 5076 N 504.165 -2.05155 5.23324 0
M  V30 5077 H 496.316 0.248764 2.10938 0
M  V30 5078 H 498.579 0.0486962 0.946748 0
M  V30 5079 H 498.285 -0.412682 3.4927 0
M  V30 5080 H 498.159 -2.12239 3.11825 0
M  V30 5081 H 500.546 -2.04285 2.1296 0
M  V30 5082 H 500.627 -0.323004 2.53752 0
M  V30 5083 H 500.271 -0.91234 4.99639 0
M  V30 5084 H 500.201 -2.63761 4.55782 0
M  V30 5085 H 502.692 -1.53268 3.45424 0
M  V30 5086 H 503.005 -2.55248 7.2943 0
M  V30 5087 H 501.35 -2.30207 6.55767 0
M  V30 5088 H 504.541 -1.82119 4.3122 0
M  V30 5089 H 504.714 -2.28644 6.06322 0
M  V30 5090 N 498.12 -1.38341 -0.754957 0
M  V30 5091 C 499.03 -1.3769 -1.89944 0
M  V30 5092 C 500.046 -0.274194 -1.71826 0
M  V30 5093 O 501.222 -0.512391 -1.94773 0
M  V30 5094 C 498.287 -1.19938 -3.25293 0
M  V30 5095 C 497.348 -2.40001 -3.55946 0
M  V30 5096 C 496.581 -2.23087 -4.84838 0
M  V30 5097 O 496.804 -1.22386 -5.57116 0
M  V30 5098 O 495.738 -3.11646 -5.14937 0
M  V30 5099 H 499.564 -2.3412 -1.93446 0
M  V30 5100 H 497.149 -1.19246 -0.900044 0
M  V30 5101 H 499.031 -1.12093 -4.06218 0
M  V30 5102 H 497.706 -0.265919 -3.22606 0
M  V30 5103 H 496.613 -2.53421 -2.75188 0
M  V30 5104 H 497.946 -3.31973 -3.63394 0
M  V30 5105 N 499.598 0.982988 -1.23187 0
M  V30 5106 C 500.508 2.10907 -1.02739 0
M  V30 5107 C 501.524 1.73979 0.0273188 0
M  V30 5108 O 502.7 2.00702 -0.16757 0
M  V30 5109 C 499.765 3.41142 -0.618304 0
M  V30 5110 C 498.826 3.92112 -1.74777 0
M  V30 5111 C 498.059 5.16131 -1.3581 0
M  V30 5112 O 498.282 5.6989 -0.241201 0
M  V30 5113 O 497.216 5.61103 -2.17824 0
M  V30 5114 H 501.042 2.31046 -1.97108 0
M  V30 5115 H 498.627 1.09284 -1.01869 0
M  V30 5116 H 500.509 4.19488 -0.400982 0
M  V30 5117 H 499.184 3.2234 0.296421 0
M  V30 5118 H 498.091 3.14895 -2.0197 0
M  V30 5119 H 499.424 4.15364 -2.64071 0
M  V30 5120 N 501.076 1.04316 1.18135 0
M  V30 5121 C 502.322 0.749128 1.88457 0
M  V30 5122 C 502.655 -0.72149 1.803 0
M  V30 5123 O 501.93 -1.52676 1.205 0
M  V30 5124 C 502.213 1.21905 3.38838 0
M  V30 5125 C 502.066 2.75195 3.55792 0
M  V30 5126 C 503.385 0.811085 4.32561 0
M  V30 5127 H 500.504 0.273611 0.684329 0
M  V30 5128 H 503.146 1.29561 1.38975 0
M  V30 5129 H 501.296 0.754137 3.8111 0
M  V30 5130 H 502.968 3.29743 3.22595 0
M  V30 5131 H 501.211 3.14899 2.98364 0
M  V30 5132 H 501.882 3.03135 4.61317 0
M  V30 5133 H 504.358 1.21118 3.98082 0
M  V30 5134 H 503.234 1.16761 5.36338 0
M  V30 5135 H 503.495 -0.285596 4.41177 0
M  V30 5136 N 502.554 -1.34406 0.822964 0
M  V30 5137 C 503.502 -2.31428 0.233165 0
M  V30 5138 C 504.496 -1.57404 -0.626118 0
M  V30 5139 O 505.702 -1.72402 -0.517453 0
M  V30 5140 H 502.077 -0.749863 0.0566557 0
M  V30 5141 H 504.048 -2.78699 1.06628 0
M  V30 5142 C 502.797 -3.42653 -0.590264 0
M  V30 5143 H 502.12 -3.99753 0.0616129 0
M  V30 5144 H 503.56 -4.12778 -0.969054 0
M  V30 5145 C 502.019 -2.87112 -1.76262 0
M  V30 5146 O 502.549 -2.81995 -2.8608 0
M  V30 5147 N 500.755 -2.43934 -1.57938 0
M  V30 5148 H 500.302 -2.48296 -0.686078 0
M  V30 5149 H 500.26 -2.07123 -2.36532 0
M  V30 5150 N 504.032 -0.577932 -1.46621 0
M  V30 5151 C 504.942 0.160651 -2.34049 0
M  V30 5152 C 505.958 0.890911 -1.49462 0
M  V30 5153 O 507.134 0.855166 -1.82343 0
M  V30 5154 C 504.199 1.16447 -3.26559 0
M  V30 5155 C 503.26 0.4394 -4.27045 0
M  V30 5156 C 502.493 1.3954 -5.15135 0
M  V30 5157 O 502.716 2.63162 -5.06065 0
M  V30 5158 O 501.65 0.908585 -5.95003 0
M  V30 5159 H 505.476 -0.557057 -2.98547 0
M  V30 5160 H 503.061 -0.338369 -1.45518 0
M  V30 5161 H 504.943 1.7434 -3.83645 0
M  V30 5162 H 503.618 1.86373 -2.64663 0
M  V30 5163 H 502.525 -0.181247 -3.73661 0
M  V30 5164 H 503.858 -0.218799 -4.91713 0
M  V30 5165 N 505.51 1.54411 -0.315457 0
M  V30 5166 C 506.457 2.24048 0.554166 0
M  V30 5167 C 507.427 1.2283 1.11812 0
M  V30 5168 O 508.612 1.51491 1.15997 0
M  V30 5169 C 505.752 2.99574 1.71316 0
M  V30 5170 C 504.865 4.15594 1.17922 0
M  V30 5171 C 504 4.78669 2.30324 0
M  V30 5172 C 503.039 5.86807 1.74137 0
M  V30 5173 N 502.176 6.43777 2.8017 0
M  V30 5174 H 507.016 2.97964 -0.0462602 0
M  V30 5175 H 504.553 1.47059 -0.0346009 0
M  V30 5176 H 506.511 3.41604 2.39505 0
M  V30 5177 H 505.141 2.28008 2.285 0
M  V30 5178 H 504.193 3.78404 0.389136 0
M  V30 5179 H 505.505 4.93459 0.728012 0
M  V30 5180 H 504.659 5.23626 3.06433 0
M  V30 5181 H 503.398 4.00168 2.78778 0
M  V30 5182 H 502.403 5.41261 0.965236 0
M  V30 5183 H 503.628 6.67201 1.2657 0
M  V30 5184 H 501.574 5.68153 3.2793 0
M  V30 5185 H 501.491 7.17031 2.39588 0
M  V30 5186 H 502.759 6.9339 3.56132 0
M  V30 5187 N 506.988 0.0434614 1.5754 0
M  V30 5188 C 507.918 -0.931651 2.14109 0
M  V30 5189 C 508.899 -1.32971 1.06079 0
M  V30 5190 O 510.084 -1.40579 1.33982 0
M  V30 5191 C 507.214 -2.20914 2.67982 0
M  V30 5192 C 506.168 -1.95139 3.80926 0
M  V30 5193 C 505.494 -3.29276 4.21285 0
M  V30 5194 C 506.794 -1.27913 5.06395 0
M  V30 5195 H 508.488 -0.460497 2.95837 0
M  V30 5196 H 506.034 -0.220058 1.42309 0
M  V30 5197 H 507.987 -2.89522 3.06194 0
M  V30 5198 H 506.711 -2.70221 1.83434 0
M  V30 5199 H 505.37 -1.28945 3.43175 0
M  V30 5200 H 505.018 -3.76369 3.33699 0
M  V30 5201 H 504.718 -3.12831 4.97404 0
M  V30 5202 H 506.242 -3.99129 4.62091 0
M  V30 5203 H 507.656 -1.86544 5.42102 0
M  V30 5204 H 506.053 -1.2182 5.87605 0
M  V30 5205 H 507.123 -0.254066 4.84234 0
M  V30 5206 N 508.466 -1.55915 -0.229846 0
M  V30 5207 C 509.882 -1.48721 -0.579166 0
M  V30 5208 C 510.082 -0.736976 -1.87539 0
M  V30 5209 O 509.138 -0.273258 -2.51017 0
M  V30 5210 C 510.451 -2.9323 -0.666082 0
M  V30 5211 C 511.999 -3.03701 -0.757267 0
M  V30 5212 C 512.474 -4.49552 -0.8756 0
M  V30 5213 N 513.965 -4.53561 -0.940035 0
M  V30 5214 C 514.7 -5.63683 -1.05116 0
M  V30 5215 N 514.196 -6.83576 -1.12675 0
M  V30 5216 N 515.989 -5.51516 -1.08565 0
M  V30 5217 H 508.14 -2.03123 0.620857 0
M  V30 5218 H 510.403 -0.922898 0.21671 0
M  V30 5219 H 510.109 -3.51032 0.21664 0
M  V30 5220 H 509.983 -3.44668 -1.53243 0
M  V30 5221 H 512.37 -2.45969 -1.63043 0
M  V30 5222 H 512.451 -2.55446 0.134583 0
M  V30 5223 H 512.095 -5.079 -0.00692351 0
M  V30 5224 H 512.025 -4.95506 -1.78274 0
M  V30 5225 H 514.516 -3.67215 -0.892269 0
M  V30 5226 H 514.829 -7.63251 -1.21109 0
M  V30 5227 H 513.174 -6.86303 -1.09603 0
M  V30 5228 H 516.365 -4.5678 -1.02319 0
M  V30 5229 H 516.538 -6.37372 -1.1688 0
M  V30 5230 N 509.944 0.496216 -1.49584 0
M  V30 5231 C 511.221 1.25755 -1.49816 0
M  V30 5232 C 511.601 2.09859 -0.228572 0
M  V30 5233 O 510.949 2.14449 0.788908 0
M  V30 5234 C 511.159 2.11017 -2.7798 0
M  V30 5235 C 512.507 2.70047 -3.27658 0
M  V30 5236 O 513.531 2.21281 -2.79129 0
M  V30 5237 O 512.39 3.58834 -4.1219 0
M  V30 5238 H 509.484 0.569322 -0.599834 0
M  V30 5239 H 512.03 0.510094 -1.61852 0
M  V30 5240 H 510.802 1.48879 -3.61871 0
M  V30 5241 H 510.425 2.92947 -2.68827 0
M  V30 5242 N 511.423 1.38739 0.74761 0
M  V30 5243 C 512.651 1.38521 1.53686 0
M  V30 5244 C 513.066 -0.0235129 1.88785 0
M  V30 5245 O 512.423 -0.991662 1.53207 0
M  V30 5246 C 512.474 2.24641 2.83229 0
M  V30 5247 O 512.195 3.60026 2.49625 0
M  V30 5248 C 513.696 2.32669 3.77333 0
M  V30 5249 H 510.916 0.473589 0.475347 0
M  V30 5250 H 513.46 1.82395 0.924786 0
M  V30 5251 H 511.615 1.84213 3.40799 0
M  V30 5252 H 512.029 4.05435 3.3275 0
M  V30 5253 H 513.503 2.97201 4.65162 0
M  V30 5254 H 513.98 1.3421 4.18192 0
M  V30 5255 H 514.586 2.73512 3.25685 0
M  V30 5256 N 512.901 -0.976442 1.23707 0
M  V30 5257 C 514.312 -1.53284 1.06587 0
M  V30 5258 C 514.663 -1.92765 -0.365526 0
M  V30 5259 O 513.788 -1.7645 -1.25277 0
M  V30 5260 C 514.383 -2.78548 1.92864 0
M  V30 5261 C 512.942 -3.30574 1.79994 0
M  V30 5262 C 512.089 -2.03538 1.88328 0
M  V30 5263 H 515.04 -0.795692 1.37311 0
M  V30 5264 H 515.061 -3.5155 1.45577 0
M  V30 5265 H 514.573 -2.49782 2.97037 0
M  V30 5266 H 512.674 -3.64211 0.786202 0
M  V30 5267 H 512.787 -4.00065 2.636 0
M  V30 5268 H 511.151 -2.17853 1.31954 0
M  V30 5269 H 511.934 -1.77149 2.94063 0
M  V30 5270 N 514.379 -1.04941 -1.1758 0
M  V30 5271 C 515.656 -0.671918 -1.83697 0
M  V30 5272 C 516.036 0.847929 -1.93322 0
M  V30 5273 O 515.384 1.75287 -1.46583 0
M  V30 5274 C 515.594 -1.35797 -3.21497 0
M  V30 5275 C 516.942 -1.4944 -3.97433 0
M  V30 5276 O 517.966 -1.31678 -3.30967 0
M  V30 5277 O 516.825 -1.78463 -5.1654 0
M  V30 5278 H 513.919 -0.236212 -0.792548 0
M  V30 5279 H 516.465 -1.14884 -1.24899 0
M  V30 5280 H 515.237 -2.39498 -3.09446 0
M  V30 5281 H 514.86 -0.870236 -3.8796 0
M  V30 5282 N 515.857 1.33968 -0.830081 0
M  V30 5283 C 517.105 1.97672 -0.420734 0
M  V30 5284 C 517.426 1.66111 1.02138 0
M  V30 5285 O 516.696 0.955503 1.71017 0
M  V30 5286 H 515.276 0.73125 -0.152587 0
M  V30 5287 H 517.938 1.63483 -1.0611 0
M  V30 5288 H 517.034 3.07294 -0.545588 0
M  V30 5289 N 517.335 0.585699 1.46312 0
M  V30 5290 C 518.563 0.0781299 2.06752 0
M  V30 5291 C 518.978 -1.22812 1.43396 0
M  V30 5292 O 518.335 -1.74318 0.540314 0
M  V30 5293 C 518.386 -0.0911927 3.61385 0
M  V30 5294 O 518.107 1.16336 4.22371 0
M  V30 5295 C 519.608 -0.632765 4.38761 0
M  V30 5296 H 516.828 0.0588188 0.668417 0
M  V30 5297 H 519.372 0.807218 1.87894 0
M  V30 5298 H 517.527 -0.770514 3.7966 0
M  V30 5299 H 517.941 0.979082 5.15281 0
M  V30 5300 H 519.415 -0.70041 5.47538 0
M  V30 5301 H 519.892 -1.65039 4.07012 0
M  V30 5302 H 520.498 0.0117856 4.25298 0
M  V30 5303 N 518.813 -1.54241 0.323641 0
M  V30 5304 C 520.06 -2.0057 -0.27891 0
M  V30 5305 C 520.388 -1.21181 -1.52136 0
M  V30 5306 O 519.643 -0.282043 -1.93657 0
M  V30 5307 C 519.942 -3.5129 -0.658031 0
M  V30 5308 C 519.608 -4.48281 0.485252 0
M  V30 5309 C 518.27 -4.74519 0.799055 0
M  V30 5310 C 520.622 -5.05909 1.25322 0
M  V30 5311 C 517.95 -5.55643 1.88354 0
M  V30 5312 C 520.302 -5.88215 2.32779 0
M  V30 5313 C 518.966 -6.12755 2.64741 0
M  V30 5314 H 518.236 -0.733938 -0.10206 0
M  V30 5315 H 520.883 -1.862 0.447435 0
M  V30 5316 H 519.188 -3.63388 -1.4648 0
M  V30 5317 H 520.885 -3.84578 -1.1358 0
M  V30 5318 H 517.475 -4.27979 0.230593 0
M  V30 5319 H 521.659 -4.8562 1.02404 0
M  V30 5320 H 516.915 -5.72888 2.13564 0
M  V30 5321 H 521.089 -6.31888 2.92729 0
M  V30 5322 H 518.716 -6.75404 3.48904 0
M  V30 5323 N 520.291 -0.0518155 -1.57515 0
M  V30 5324 C 521.221 0.920283 -2.146 0
M  V30 5325 C 522.202 1.32406 -1.06783 0
M  V30 5326 O 523.387 1.39866 -1.34726 0
M  V30 5327 C 520.517 2.1949 -2.6915 0
M  V30 5328 C 519.471 1.93116 -3.81956 0
M  V30 5329 C 518.797 3.27037 -4.23026 0
M  V30 5330 C 520.097 1.25225 -5.07066 0
M  V30 5331 H 521.791 0.444801 -2.96077 0
M  V30 5332 H 519.337 0.212508 -1.42423 0
M  V30 5333 H 521.29 2.87894 -3.07725 0
M  V30 5334 H 520.014 2.69244 -1.84865 0
M  V30 5335 H 518.673 1.27123 -3.43854 0
M  V30 5336 H 518.321 3.74595 -3.3569 0
M  V30 5337 H 518.021 3.10189 -4.99056 0
M  V30 5338 H 519.545 3.96673 -4.64202 0
M  V30 5339 H 520.959 1.83666 -5.43083 0
M  V30 5340 H 519.356 1.18702 -5.88243 0
M  V30 5341 H 520.426 0.228382 -4.84362 0
M  V30 5342 N 521.769 1.56035 0.221574 0
M  V30 5343 C 523.015 1.79312 0.947372 0
M  V30 5344 C 523.348 0.621453 1.83988 0
M  V30 5345 O 522.623 -0.379287 1.90766 0
M  V30 5346 C 522.906 3.1267 1.78633 0
M  V30 5347 C 522.759 4.40284 0.920312 0
M  V30 5348 C 524.078 3.4247 2.7641 0
M  V30 5349 H 521.197 0.652328 0.342982 0
M  V30 5350 H 523.839 1.88765 0.216244 0
M  V30 5351 H 521.989 3.04741 2.40967 0
M  V30 5352 H 523.661 4.60232 0.313718 0
M  V30 5353 H 521.904 4.33212 0.225734 0
M  V30 5354 H 522.575 5.30033 1.54171 0
M  V30 5355 H 525.051 3.50526 2.24211 0
M  V30 5356 H 523.927 4.3695 3.32213 0
M  V30 5357 H 524.188 2.64635 3.54148 0
M  V30 5358 N 523.247 -0.488276 1.49845 0
M  V30 5359 C 524.663 -0.820566 1.3689 0
M  V30 5360 C 524.863 -1.97248 0.411752 0
M  V30 5361 O 523.919 -2.52042 -0.151931 0
M  V30 5362 C 525.232 -1.1488 2.77891 0
M  V30 5363 C 526.78 -1.25626 2.86683 0
M  V30 5364 C 527.255 -1.61772 4.28479 0
M  V30 5365 N 528.746 -1.68797 4.31349 0
M  V30 5366 C 529.481 -1.98235 5.38043 0
M  V30 5367 N 528.977 -2.2581 6.54967 0
M  V30 5368 N 530.77 -1.99593 5.2547 0
M  V30 5369 H 522.921 0.271123 2.10662 0
M  V30 5370 H 525.184 0.058735 0.946179 0
M  V30 5371 H 524.89 -0.375614 3.49688 0
M  V30 5372 H 524.764 -2.08919 3.14058 0
M  V30 5373 H 527.151 -2.02014 2.15114 0
M  V30 5374 H 527.232 -0.296072 2.54081 0
M  V30 5375 H 526.876 -0.859295 5.00578 0
M  V30 5376 H 526.806 -2.58912 4.58554 0
M  V30 5377 H 529.297 -1.49595 3.4703 0
M  V30 5378 H 529.61 -2.47497 7.32096 0
M  V30 5379 H 527.955 -2.23239 6.58171 0
M  V30 5380 H 531.146 -1.77535 4.33127 0
M  V30 5381 H 531.319 -2.222 6.08713 0
M  V30 5382 N 524.725 -1.39134 -0.740242 0
M  V30 5383 C 526.002 -1.26584 -1.49117 0
M  V30 5384 C 526.382 0.126902 -2.10718 0
M  V30 5385 O 525.73 1.13765 -1.98166 0
M  V30 5386 C 525.94 -2.38619 -2.54681 0
M  V30 5387 C 527.288 -2.77685 -3.21211 0
M  V30 5388 O 528.312 -2.38029 -2.64991 0
M  V30 5389 O 527.171 -3.46115 -4.22926 0
M  V30 5390 H 524.265 -0.495769 -0.661923 0
M  V30 5391 H 526.811 -1.50995 -0.774514 0
M  V30 5392 H 525.583 -3.3175 -2.07504 0
M  V30 5393 H 525.206 -2.15845 -3.33911 0
M  V30 5394 N 526.204 0.969867 -1.24223 0
M  V30 5395 C 527.167 2.04564 -1.03373 0
M  V30 5396 C 528.167 1.60798 0.00819206 0
M  V30 5397 O 529.357 1.72641 -0.232567 0
M  V30 5398 C 526.489 3.36163 -0.566343 0
M  V30 5399 H 527.682 2.24494 -1.98853 0
M  V30 5400 H 525.235 1.1448 -1.06415 0
M  V30 5401 H 525.97 3.21925 0.391751 0
M  V30 5402 H 525.755 3.69273 -1.31834 0
M  V30 5403 H 527.245 4.1526 -0.441435 0
M  V30 5404 N 527.682 1.05563 1.17022 0
M  V30 5405 C 528.907 0.788437 1.91829 0
M  V30 5406 C 529.332 -0.650356 1.76499 0
M  V30 5407 O 528.69 -1.45229 1.08527 0
M  V30 5408 C 528.738 1.1786 3.40795 0
M  V30 5409 O 527.842 0.312965 4.11211 0
M  V30 5410 H 527.183 0.288794 0.597908 0
M  V30 5411 H 529.713 1.40948 1.48307 0
M  V30 5412 H 529.723 1.14697 3.91546 0
M  V30 5413 H 528.398 2.22666 3.51273 0
M  V30 5414 H 526.975 0.405515 3.70689 0
M  V30 5415 N 529.16 -1.33526 0.837174 0
M  V30 5416 C 530.385 -2.0258 0.444545 0
M  V30 5417 C 530.81 -1.6258 -0.946006 0
M  V30 5418 O 530.168 -0.817548 -1.6182 0
M  V30 5419 C 530.216 -3.5605 0.571006 0
M  V30 5420 O 529.32 -4.10422 -0.403431 0
M  V30 5421 H 528.661 -0.638866 0.180958 0
M  V30 5422 H 531.191 -1.70462 1.13154 0
M  V30 5423 H 531.201 -4.05488 0.452024 0
M  V30 5424 H 529.876 -3.84509 1.58512 0
M  V30 5425 H 528.453 -3.72113 -0.242147 0
M  V30 5426 N 530.638 -0.59345 -1.46 0
M  V30 5427 C 531.585 0.133618 -2.30413 0
M  V30 5428 C 532.555 0.873736 -1.41262 0
M  V30 5429 O 533.74 0.862279 -1.70204 0
M  V30 5430 C 530.88 1.13434 -3.25924 0
M  V30 5431 C 529.993 0.39656 -4.30176 0
M  V30 5432 C 529.128 1.38575 -5.12806 0
M  V30 5433 C 528.167 0.634984 -6.08797 0
M  V30 5434 N 527.304 1.57276 -6.84258 0
M  V30 5435 H 532.144 -0.592252 -2.92055 0
M  V30 5436 H 529.681 -0.303874 -1.43927 0
M  V30 5437 H 531.639 1.72752 -3.79753 0
M  V30 5438 H 530.269 1.82779 -2.66067 0
M  V30 5439 H 529.321 -0.311861 -3.79119 0
M  V30 5440 H 530.633 -0.189869 -4.98438 0
M  V30 5441 H 529.787 2.05141 -5.70966 0
M  V30 5442 H 528.526 2.00611 -4.44529 0
M  V30 5443 H 527.531 -0.0443925 -5.49782 0
M  V30 5444 H 528.756 0.0198678 -6.79097 0
M  V30 5445 H 526.702 2.18103 -6.18682 0
M  V30 5446 H 526.619 1.03941 -7.48821 0
M  V30 5447 H 527.887 2.22844 -7.46968 0
M  V30 5448 N 532.116 1.54067 -0.331816 0
M  V30 5449 C 533.365 1.99895 0.269209 0
M  V30 5450 C 533.678 1.22371 1.52593 0
M  V30 5451 O 534.884 1.58618 2.20347 0
M  V30 5452 C 533.34 3.55972 0.530244 0
M  V30 5453 C 532.948 4.4234 -0.709901 0
M  V30 5454 C 534.692 4.10247 1.09077 0
M  V30 5455 C 532.599 5.89905 -0.420312 0
M  V30 5456 H 531.529 0.746741 0.104371 0
M  V30 5457 H 534.18 1.78014 -0.445324 0
M  V30 5458 H 532.562 3.73873 1.30518 0
M  V30 5459 H 533.736 4.36215 -1.48504 0
M  V30 5460 H 532.051 3.98997 -1.19123 0
M  V30 5461 H 534.648 5.18095 1.32219 0
M  V30 5462 H 534.991 3.62739 2.0427 0
M  V30 5463 H 535.524 3.96011 0.376824 0
M  V30 5464 H 532.263 6.41623 -1.34164 0
M  V30 5465 H 531.783 5.98962 0.316962 0
M  V30 5466 H 533.462 6.46991 -0.0331956 0
M  V30 5467 N 533.594 0.0601682 1.57485 0
M  V30 5468 C 534.526 -0.94047 2.09016 0
M  V30 5469 C 535.539 -1.26897 1.01985 0
M  V30 5470 O 536.728 -1.22819 1.29529 0
M  V30 5471 C 533.828 -2.25955 2.52582 0
M  V30 5472 C 533.001 -2.11163 3.83052 0
M  V30 5473 C 532.06 -3.26273 4.12835 0
M  V30 5474 O 531.086 -3.01779 4.82616 0
M  V30 5475 N 532.288 -4.51022 3.65458 0
M  V30 5476 H 535.053 -0.500578 2.9549 0
M  V30 5477 H 532.614 -0.125852 1.6141 0
M  V30 5478 H 534.606 -3.01846 2.69575 0
M  V30 5479 H 533.176 -2.61481 1.71308 0
M  V30 5480 H 532.396 -1.19808 3.75552 0
M  V30 5481 H 533.684 -1.98517 4.68475 0
M  V30 5482 H 533.082 -4.73811 3.09062 0
M  V30 5483 H 531.639 -5.23978 3.87673 0
M  V30 5484 N 535.072 -1.5615 -0.213296 0
M  V30 5485 C 536.32 -1.79191 -0.934612 0
M  V30 5486 C 536.641 -0.630112 -1.84539 0
M  V30 5487 O 535.911 0.35257 -1.92701 0
M  V30 5488 H 534.491 -0.660937 -0.348097 0
M  V30 5489 H 537.153 -1.93618 -0.22317 0
M  V30 5490 H 536.249 -2.71656 -1.53654 0
M  V30 5491 N 536.55 0.480323 -1.50102 0
M  V30 5492 C 537.46 1.60547 -1.71061 0
M  V30 5493 C 538.476 1.63564 -0.593529 0
M  V30 5494 O 539.652 1.81604 -0.870751 0
M  V30 5495 C 536.717 2.96814 -1.79171 0
M  V30 5496 C 535.778 3.04259 -3.02861 0
M  V30 5497 C 535.011 4.34027 -3.10574 0
M  V30 5498 O 535.234 5.24009 -2.25323 0
M  V30 5499 O 534.168 4.46873 -4.03223 0
M  V30 5500 H 537.994 1.45788 -2.6642 0
M  V30 5501 H 535.579 0.658838 -1.34088 0
M  V30 5502 H 537.461 3.77765 -1.86738 0
M  V30 5503 H 536.136 3.11791 -0.869947 0
M  V30 5504 H 535.043 2.22419 -3.008 0
M  V30 5505 H 536.376 2.94216 -3.94586 0
M  V30 5506 N 538.028 1.39524 0.732853 0
M  V30 5507 C 539.258 1.3994 1.51988 0
M  V30 5508 C 539.666 -0.00727973 1.89199 0
M  V30 5509 O 539.009 -0.989521 1.54771 0
M  V30 5510 C 539.071 2.21026 2.83527 0
M  V30 5511 C 538.735 3.69633 2.68738 0
M  V30 5512 C 539.732 4.62665 2.37143 0
M  V30 5513 C 537.417 4.13244 2.85542 0
M  V30 5514 C 539.411 5.97291 2.22536 0
M  V30 5515 C 537.098 5.47945 2.70554 0
M  V30 5516 C 538.096 6.39783 2.39097 0
M  V30 5517 O 537.784 7.72002 2.24204 0
M  V30 5518 H 537.516 0.479795 0.476206 0
M  V30 5519 H 540.07 1.8399 0.913054 0
M  V30 5520 H 538.3 1.71728 3.46477 0
M  V30 5521 H 539.989 2.13594 3.45156 0
M  V30 5522 H 540.755 4.30272 2.2381 0
M  V30 5523 H 536.634 3.42094 3.09019 0
M  V30 5524 H 540.178 6.68939 1.97905 0
M  V30 5525 H 536.075 5.79928 2.83466 0
M  V30 5526 H 536.843 7.8275 2.39258 0
M  V30 5527 N 539.506 -0.963266 1.24736 0
M  V30 5528 C 540.734 -1.74166 1.11686 0
M  V30 5529 C 541.149 -1.8589 -0.330187 0
M  V30 5530 O 540.506 -1.35042 -1.2276 0
M  V30 5531 C 540.557 -3.15989 1.75595 0
M  V30 5532 O 540.278 -3.04847 3.14642 0
M  V30 5533 C 541.779 -4.10145 1.68213 0
M  V30 5534 H 538.999 -0.546031 0.389989 0
M  V30 5535 H 541.543 -1.20907 1.64929 0
M  V30 5536 H 539.698 -3.66219 1.26343 0
M  V30 5537 H 540.112 -3.9425 3.4593 0
M  V30 5538 H 541.586 -5.07299 2.17604 0
M  V30 5539 H 542.063 -4.3445 0.644208 0
M  V30 5540 H 542.669 -3.65827 2.16912 0
M  V30 5541 N 540.985 -1.06182 -1.16461 0
M  V30 5542 C 541.915 -0.692861 -2.22984 0
M  V30 5543 C 542.896 0.314122 -1.67174 0
M  V30 5544 O 544.081 0.189499 -1.93273 0
M  V30 5545 C 541.211 -0.07732 -3.47214 0
M  V30 5546 C 540.165 -1.01015 -4.15909 0
M  V30 5547 C 539.491 -0.257973 -5.34077 0
M  V30 5548 C 540.791 -2.33868 -4.67015 0
M  V30 5549 H 542.485 -1.58343 -2.54102 0
M  V30 5550 H 540.031 -0.76279 -1.22137 0
M  V30 5551 H 541.984 0.19266 -4.20959 0
M  V30 5552 H 540.708 0.848254 -3.15392 0
M  V30 5553 H 539.367 -1.26486 -3.44088 0
M  V30 5554 H 539.015 0.670684 -4.98509 0
M  V30 5555 H 538.715 -0.879638 -5.80979 0
M  V30 5556 H 540.239 0.00448788 -6.106 0
M  V30 5557 H 541.653 -2.1279 -5.32347 0
M  V30 5558 H 540.05 -2.91522 -5.24533 0
M  V30 5559 H 541.12 -2.97019 -3.83286 0
M  V30 5560 N 542.463 1.3308 -0.844243 0
M  V30 5561 C 543.691 2.01808 -0.456203 0
M  V30 5562 C 544.106 1.63498 0.944131 0
M  V30 5563 O 543.463 0.85102 1.61443 0
M  V30 5564 C 543.514 3.56922 -0.573513 0
M  V30 5565 O 543.235 3.93851 -1.91868 0
M  V30 5566 C 544.736 4.42922 -0.183125 0
M  V30 5567 H 541.956 0.646273 -0.180477 0
M  V30 5568 H 544.5 1.69891 -1.1383 0
M  V30 5569 H 542.655 3.87352 0.0607367 0
M  V30 5570 H 543.069 4.88564 -1.90802 0
M  V30 5571 H 544.543 5.51093 -0.316241 0
M  V30 5572 H 545.02 4.30386 0.875477 0
M  V30 5573 H 545.626 4.1786 -0.792027 0
M  V30 5574 N 543.941 0.601185 1.45683 0
M  V30 5575 C 544.871 -0.108824 2.33246 0
M  V30 5576 C 545.852 -0.865223 1.46451 0
M  V30 5577 O 547.037 -0.83704 1.75235 0
M  V30 5578 C 544.167 -1.11101 3.2905 0
M  V30 5579 C 543.121 -0.468244 4.25431 0
M  V30 5580 C 542.447 -1.57822 5.10878 0
M  V30 5581 C 543.747 0.606469 5.18767 0
M  V30 5582 H 545.441 0.622306 2.92861 0
M  V30 5583 H 542.987 0.300714 1.40825 0
M  V30 5584 H 544.94 -1.61622 3.89174 0
M  V30 5585 H 543.664 -1.87265 2.67581 0
M  V30 5586 H 542.323 0.0160484 3.66596 0
M  V30 5587 H 541.971 -2.32998 4.45781 0
M  V30 5588 H 541.671 -1.15369 5.76163 0
M  V30 5589 H 543.195 -2.08583 5.73869 0
M  V30 5590 H 544.609 0.185589 5.73 0
M  V30 5591 H 543.006 0.952381 5.92494 0
M  V30 5592 H 544.076 1.48559 4.61582 0
M  V30 5593 N 545.419 -1.53889 0.339982 0
M  V30 5594 C 546.835 -1.59595 -0.0120752 0
M  V30 5595 C 547.035 -1.35605 -1.49042 0
M  V30 5596 O 546.091 -1.14856 -2.24865 0
M  V30 5597 C 547.404 -2.9774 0.420898 0
M  V30 5598 C 548.952 -3.1077 0.37294 0
M  V30 5599 C 549.427 -4.51286 0.781327 0
M  V30 5600 N 550.918 -4.57325 0.735374 0
M  V30 5601 C 551.653 -5.64194 1.02336 0
M  V30 5602 N 551.149 -6.7893 1.37933 0
M  V30 5603 N 552.942 -5.54051 0.947838 0
M  V30 5604 H 545.093 -1.67738 1.30299 0
M  V30 5605 H 547.356 -0.785385 0.530918 0
M  V30 5606 H 547.062 -3.20349 1.45152 0
M  V30 5607 H 546.936 -3.76639 -0.205721 0
M  V30 5608 H 549.323 -2.87886 -0.648505 0
M  V30 5609 H 549.404 -2.33939 1.03472 0
M  V30 5610 H 549.048 -4.74905 1.80077 0
M  V30 5611 H 548.978 -5.26511 0.0970679 0
M  V30 5612 H 551.469 -3.74931 0.472773 0
M  V30 5613 H 551.782 -7.56392 1.58402 0
M  V30 5614 H 550.127 -6.80386 1.41774 0
M  V30 5615 H 553.318 -4.63293 0.669115 0
M  V30 5616 H 553.491 -6.37246 1.17563 0
M  V30 5617 N 546.897 -0.0685191 -1.57451 0
M  V30 5618 C 547.844 0.899861 -2.12535 0
M  V30 5619 C 548.814 1.29749 -1.03703 0
M  V30 5620 O 549.999 1.38392 -1.31348 0
M  V30 5621 C 547.139 2.16328 -2.6888 0
M  V30 5622 C 546.252 1.81857 -3.91857 0
M  V30 5623 C 545.387 3.02786 -4.36457 0
M  V30 5624 C 544.426 2.64317 -5.5209 0
M  V30 5625 N 543.563 3.77994 -5.91663 0
M  V30 5626 H 548.403 0.423243 -2.94979 0
M  V30 5627 H 545.94 0.197268 -1.45771 0
M  V30 5628 H 547.898 2.90281 -2.99655 0
M  V30 5629 H 546.528 2.61536 -1.89206 0
M  V30 5630 H 545.58 0.979808 -3.67565 0
M  V30 5631 H 546.892 1.49553 -4.75852 0
M  V30 5632 H 546.046 3.85021 -4.68875 0
M  V30 5633 H 544.785 3.38281 -3.51308 0
M  V30 5634 H 543.79 1.80503 -5.19325 0
M  V30 5635 H 545.015 2.29995 -6.38967 0
M  V30 5636 H 542.961 4.13258 -5.09464 0
M  V30 5637 H 542.878 3.49447 -6.7039 0
M  V30 5638 H 544.146 4.60818 -6.28703 0
M  V30 5639 N 548.375 1.56261 0.205012 0
M  V30 5640 C 549.623 1.79684 0.925096 0
M  V30 5641 C 549.944 0.63989 1.84202 0
M  V30 5642 O 549.214 -0.342345 1.92885 0
M  V30 5643 H 547.794 0.662774 0.344587 0
M  V30 5644 H 550.456 1.93734 0.212899 0
M  V30 5645 H 549.552 2.72467 1.52211 0
M  V30 5646 N 549.853 -0.472356 1.50355 0
M  V30 5647 C 551.101 -1.22211 1.60962 0
M  V30 5648 C 551.422 -1.92497 0.311439 0
M  V30 5649 O 550.692 -1.8405 -0.671002 0
M  V30 5650 H 549.272 -0.454092 0.593135 0
M  V30 5651 H 551.934 -0.544977 1.87126 0
M  V30 5652 H 551.03 -1.9707 2.42012 0
M  V30 5653 N 551.331 -1.39911 -0.725443 0
M  V30 5654 C 552.279 -1.39552 -1.86086 0
M  V30 5655 C 553.273 -0.277334 -1.67114 0
M  V30 5656 O 554.479 -0.447865 -1.74339 0
M  V30 5657 H 550.854 -0.435993 -0.612711 0
M  V30 5658 H 552.825 -2.35305 -1.83505 0
M  V30 5659 C 551.574 -1.26529 -3.2386 0
M  V30 5660 H 550.897 -2.11845 -3.3906 0
M  V30 5661 H 552.337 -1.30336 -4.03471 0
M  V30 5662 C 550.796 0.0254168 -3.3689 0
M  V30 5663 O 551.326 0.992048 -3.89257 0
M  V30 5664 N 549.532 0.0916528 -2.90455 0
M  V30 5665 H 549.079 -0.695675 -2.48028 0
M  V30 5666 H 549.037 0.954745 -2.99553 0
M  V30 5667 N 552.809 0.956637 -1.25245 0
M  V30 5668 C 553.757 2.0743 -1.0524 0
M  V30 5669 C 554.751 1.69392 0.0160725 0
M  V30 5670 O 555.957 1.7946 -0.139382 0
M  V30 5671 H 552.332 0.678921 -0.323373 0
M  V30 5672 H 554.303 2.2146 -1.99995 0
M  V30 5673 C 553.052 3.40872 -0.685702 0
M  V30 5674 H 552.375 3.70607 -1.49968 0
M  V30 5675 H 553.815 4.19939 -0.585415 0
M  V30 5676 C 552.274 3.31367 0.608082 0
M  V30 5677 O 552.804 3.66214 1.65076 0
M  V30 5678 N 551.01 2.84486 0.592955 0
M  V30 5679 H 550.557 2.56326 -0.25592 0
M  V30 5680 H 550.515 2.78509 1.45877 0
M  V30 5681 N 554.287 1.06798 1.15896 0
M  V30 5682 C 555.234 0.683314 2.20453 0
M  V30 5683 C 556.204 -0.32255 1.62938 0
M  V30 5684 O 557.389 -0.210276 1.89638 0
M  V30 5685 C 554.529 0.0813266 3.45004 0
M  V30 5686 C 553.642 1.13799 4.16742 0
M  V30 5687 C 552.777 0.501598 5.28826 0
M  V30 5688 C 551.816 1.54144 5.92373 0
M  V30 5689 N 550.953 0.928038 6.9594 0
M  V30 5690 H 555.793 1.57932 2.52708 0
M  V30 5691 H 553.33 0.789544 1.24115 0
M  V30 5692 H 555.288 -0.285274 4.16224 0
M  V30 5693 H 553.918 -0.77806 3.13283 0
M  V30 5694 H 552.97 1.62223 3.44075 0
M  V30 5695 H 554.282 1.92664 4.60089 0
M  V30 5696 H 553.436 0.0823162 6.06644 0
M  V30 5697 H 552.175 -0.318883 4.86656 0
M  V30 5698 H 551.18 1.97056 5.13273 0
M  V30 5699 H 552.405 2.3641 6.36621 0
M  V30 5700 H 550.351 0.12836 6.55874 0
M  V30 5701 H 550.268 1.65401 7.37685 0
M  V30 5702 H 551.536 0.534071 7.77668 0
M  V30 5703 N 555.766 -1.3263 0.851289 0
M  V30 5704 C 556.696 -2.31449 0.308771 0
M  V30 5705 C 557.677 -1.59531 -0.590255 0
M  V30 5706 O 558.862 -1.87351 -0.511205 0
M  V30 5707 C 555.992 -3.43586 -0.506548 0
M  V30 5708 C 554.946 -4.26963 0.297753 0
M  V30 5709 C 554.272 -5.30831 -0.642094 0
M  V30 5710 C 555.572 -4.99643 1.52166 0
M  V30 5711 H 557.266 -2.77074 1.13447 0
M  V30 5712 H 554.812 -1.33207 0.546971 0
M  V30 5713 H 556.765 -4.11754 -0.896474 0
M  V30 5714 H 555.489 -2.96681 -1.36558 0
M  V30 5715 H 554.148 -3.60437 0.669391 0
M  V30 5716 H 553.796 -4.8018 -1.49788 0
M  V30 5717 H 553.496 -5.87501 -0.107968 0
M  V30 5718 H 555.02 -6.01862 -1.02927 0
M  V30 5719 H 556.434 -5.6051 1.20421 0
M  V30 5720 H 554.831 -5.66022 1.99347 0
M  V30 5721 H 555.901 -4.27701 2.28474 0
M  V30 5722 N 557.244 -0.608902 -1.45362 0
M  V30 5723 C 558.493 -0.10218 -2.01441 0
M  V30 5724 C 558.806 1.27546 -1.48295 0
M  V30 5725 O 560.012 1.87498 -1.96359 0
M  V30 5726 C 558.468 -0.131985 -3.59658 0
M  V30 5727 C 558.076 -1.50956 -4.21801 0
M  V30 5728 C 559.82 0.319427 -4.23296 0
M  V30 5729 C 557.727 -1.49568 -5.72174 0
M  V30 5730 H 556.657 -0.0344314 -0.753213 0
M  V30 5731 H 559.308 -0.764426 -1.6682 0
M  V30 5732 H 557.69 0.596939 -3.91475 0
M  V30 5733 H 558.864 -2.26029 -4.01556 0
M  V30 5734 H 557.179 -1.90318 -3.70362 0
M  V30 5735 H 559.776 0.349013 -5.3356 0
M  V30 5736 H 560.119 1.34237 -3.94064 0
M  V30 5737 H 560.652 -0.356273 -3.96201 0
M  V30 5738 H 557.391 -2.49626 -6.06108 0
M  V30 5739 H 556.911 -0.787542 -5.94607 0
M  V30 5740 H 558.59 -1.21989 -6.35396 0
M  V30 5741 N 558.722 1.53707 -0.348139 0
M  V30 5742 C 559.669 2.25173 0.506518 0
M  V30 5743 C 560.639 1.25174 1.09182 0
M  V30 5744 O 561.824 1.53917 1.12757 0
M  V30 5745 C 558.964 3.03141 1.64923 0
M  V30 5746 C 558.077 4.18002 1.0908 0
M  V30 5747 C 557.212 4.83447 2.20119 0
M  V30 5748 C 556.251 5.90369 1.61651 0
M  V30 5749 N 555.388 6.49575 2.66451 0
M  V30 5750 H 560.228 2.97799 -0.109452 0
M  V30 5751 H 557.765 1.46953 -0.0657866 0
M  V30 5752 H 559.723 3.46607 2.32205 0
M  V30 5753 H 558.353 2.32803 2.23612 0
M  V30 5754 H 557.405 3.79145 0.308783 0
M  V30 5755 H 558.717 4.94892 0.623178 0
M  V30 5756 H 557.871 5.30008 2.95257 0
M  V30 5757 H 556.61 4.05991 2.70227 0
M  V30 5758 H 555.615 5.43186 0.850209 0
M  V30 5759 H 556.84 6.69735 1.1239 0
M  V30 5760 H 554.786 5.74981 3.15805 0
M  V30 5761 H 554.703 7.21952 2.24325 0
M  V30 5762 H 555.971 7.00789 3.41344 0
M  V30 5763 N 560.2 0.0768682 1.57412 0
M  V30 5764 C 561.446 -0.591961 1.93968 0
M  V30 5765 C 561.779 -1.68954 0.9575 0
M  V30 5766 O 561.054 -1.94496 -0.0124675 0
M  V30 5767 C 561.337 -1.16418 3.40762 0
M  V30 5768 C 561.19 -0.0728933 4.49741 0
M  V30 5769 C 562.509 -2.06814 3.88479 0
M  V30 5770 H 559.628 -0.213716 0.705333 0
M  V30 5771 H 562.27 0.14387 1.89455 0
M  V30 5772 H 560.42 -1.79128 3.4474 0
M  V30 5773 H 562.092 0.560446 4.57883 0
M  V30 5774 H 560.335 0.595859 4.29688 0
M  V30 5775 H 561.006 -0.513755 5.49604 0
M  V30 5776 H 563.482 -1.54033 3.8654 0
M  V30 5777 H 562.358 -2.43785 4.91793 0
M  V30 5778 H 562.619 -2.97844 3.26713 0
M  V30 5779 N 561.678 -1.56367 -0.196722 0
M  V30 5780 C 562.925 -1.80529 -0.917366 0
M  V30 5781 C 563.253 -0.649817 -1.83324 0
M  V30 5782 O 562.508 0.36451 -1.92275 0
M  V30 5783 C 562.807 -3.10663 -1.767 0
M  V30 5784 C 562.473 -4.3962 -1.00225 0
M  V30 5785 C 561.135 -4.74653 -0.791095 0
M  V30 5786 C 563.487 -5.1913 -0.464035 0
M  V30 5787 C 560.815 -5.86692 -0.0302155 0
M  V30 5788 C 563.167 -6.31964 0.283625 0
M  V30 5789 C 561.831 -6.65581 0.505813 0
M  V30 5790 H 561.101 -0.660602 -0.335688 0
M  V30 5791 H 563.748 -1.90615 -0.183844 0
M  V30 5792 H 562.053 -2.95807 -2.56915 0
M  V30 5793 H 563.75 -3.26563 -2.32718 0
M  V30 5794 H 560.34 -4.12127 -1.17684 0
M  V30 5795 H 564.524 -4.9248 -0.614575 0
M  V30 5796 H 559.78 -6.11211 0.151917 0
M  V30 5797 H 563.954 -6.92791 0.708057 0
M  V30 5798 H 561.581 -7.52239 1.0973 0
M  V30 5799 N 563.156 0.464375 -1.50603 0
M  V30 5800 C 564.106 1.55929 -1.66343 0
M  V30 5801 C 565.09 1.52338 -0.517887 0
M  V30 5802 O 566.282 1.59248 -0.772601 0
M  V30 5803 C 563.411 2.94327 -1.7671 0
M  V30 5804 C 562.497 3.02777 -2.96962 0
M  V30 5805 N 562.888 2.81026 -4.20545 0
M  V30 5806 C 561.186 3.33919 -2.95659 0
M  V30 5807 C 561.887 2.94618 -5.01573 0
M  V30 5808 N 560.863 3.25112 -4.35664 0
M  V30 5809 H 564.665 1.37822 -2.59581 0
M  V30 5810 H 562.179 0.671227 -1.47879 0
M  V30 5811 H 564.176 3.73063 -1.86091 0
M  V30 5812 H 562.836 3.13476 -0.846353 0
M  V30 5813 H 563.847 2.56477 -4.49933 0
M  V30 5814 H 560.524 3.59013 -2.13111 0
M  V30 5815 H 561.914 2.81984 -6.09865 0
M  V30 5816 N 564.634 1.40294 0.718013 0
M  V30 5817 C 566.05 1.2227 1.02577 0
M  V30 5818 C 566.25 0.0961976 2.0127 0
M  V30 5819 O 565.306 -0.546695 2.46511 0
M  V30 5820 C 566.619 2.56348 1.57182 0
M  V30 5821 C 568.167 2.6334 1.69178 0
M  V30 5822 C 568.642 3.9768 2.27188 0
M  V30 5823 N 570.133 3.99409 2.34578 0
M  V30 5824 C 570.868 5.00141 2.8044 0
M  V30 5825 N 570.364 6.11268 3.26073 0
M  V30 5826 N 572.157 4.87511 2.79802 0
M  V30 5827 H 564.308 2.12304 0.0637899 0
M  V30 5828 H 566.571 0.943632 0.0909036 0
M  V30 5829 H 566.277 3.3942 0.921262 0
M  V30 5830 H 566.151 2.77266 2.55741 0
M  V30 5831 H 568.538 1.80641 2.33351 0
M  V30 5832 H 568.619 2.46255 0.692247 0
M  V30 5833 H 568.263 4.80817 1.63638 0
M  V30 5834 H 568.193 4.12093 3.27852 0
M  V30 5835 H 570.684 3.19162 2.02346 0
M  V30 5836 H 570.997 6.84023 3.59628 0
M  V30 5837 H 569.342 6.14837 3.24038 0
M  V30 5838 H 572.533 3.9979 2.43487 0
M  V30 5839 H 572.706 5.66158 3.15228 0
M  V30 5840 N 566.112 -0.949982 1.2575 0
M  V30 5841 C 567.389 -1.6718 1.01539 0
M  V30 5842 C 567.769 -2.06095 -0.456942 0
M  V30 5843 O 567.117 -1.77792 -1.43534 0
M  V30 5844 C 567.327 -2.8906 1.95564 0
M  V30 5845 C 568.675 -3.60909 2.23673 0
M  V30 5846 O 569.699 -2.9915 1.9336 0
M  V30 5847 O 568.558 -4.72127 2.75243 0
M  V30 5848 H 565.652 -0.731697 0.385419 0
M  V30 5849 H 568.198 -1.00249 1.36924 0
M  V30 5850 H 566.97 -2.57128 2.94959 0
M  V30 5851 H 566.593 -3.63719 1.60605 0
M  V30 5852 N 567.59 -1.07411 -1.15328 0
M  V30 5853 C 568.838 -0.796073 -1.85761 0
M  V30 5854 C 569.159 0.679864 -1.82764 0
M  V30 5855 O 568.429 1.49242 -1.269 0
M  V30 5856 H 567.009 -0.291495 -0.687779 0
M  V30 5857 H 569.671 -1.35799 -1.39802 0
M  V30 5858 H 568.767 -1.13114 -2.90881 0
M  V30 5859 N 569.068 1.32177 -0.85831 0
M  V30 5860 C 570.018 2.26307 -0.277307 0
M  V30 5861 C 571.002 1.50123 0.578946 0
M  V30 5862 O 572.194 1.71754 0.427731 0
M  V30 5863 C 569.323 3.39181 0.530232 0
M  V30 5864 C 568.409 4.22746 -0.338613 0
M  V30 5865 N 568.8 4.85265 -1.4266 0
M  V30 5866 C 567.098 4.45813 -0.129 0
M  V30 5867 C 567.799 5.47634 -1.96142 0
M  V30 5868 N 566.775 5.28794 -1.26007 0
M  V30 5869 H 570.577 2.72173 -1.10902 0
M  V30 5870 H 568.091 1.46308 -0.704816 0
M  V30 5871 H 570.088 4.05628 0.962904 0
M  V30 5872 H 568.748 2.9486 1.35969 0
M  V30 5873 H 569.759 4.85259 -1.80953 0
M  V30 5874 H 566.436 4.12163 0.665451 0
M  V30 5875 H 567.826 6.0735 -2.8736 0
M  V30 5876 N 570.547 0.616602 1.45037 0
M  V30 5877 C 571.777 0.121791 2.06241 0
M  V30 5878 C 572.185 -1.20289 1.46038 0
M  V30 5879 O 571.528 -1.7456 0.572242 0
M  V30 5880 C 571.59 -0.0827345 3.59405 0
M  V30 5881 C 571.254 1.16153 4.41993 0
M  V30 5882 C 572.251 2.08183 4.76399 0
M  V30 5883 C 569.936 1.39288 4.82601 0
M  V30 5884 C 571.93 3.21668 5.5028 0
M  V30 5885 C 569.617 2.53073 5.56235 0
M  V30 5886 C 570.615 3.44091 5.89992 0
M  V30 5887 O 570.303 4.55894 6.6213 0
M  V30 5888 H 570.035 0.0701667 0.672349 0
M  V30 5889 H 572.589 0.846877 1.87129 0
M  V30 5890 H 570.819 -0.862812 3.76952 0
M  V30 5891 H 572.508 -0.530273 4.02421 0
M  V30 5892 H 573.274 1.91538 4.45576 0
M  V30 5893 H 569.153 0.693396 4.55755 0
M  V30 5894 H 572.697 3.92733 5.76547 0
M  V30 5895 H 568.594 2.69667 5.86472 0
M  V30 5896 H 569.362 4.5469 6.80587 0
M  V30 5897 N 572.025 -1.5352 0.356285 0
M  V30 5898 C 573.273 -2.00719 -0.235837 0
M  V30 5899 C 573.594 -1.24551 -1.5004 0
M  V30 5900 O 572.864 -0.356185 -1.92635 0
M  V30 5901 H 571.444 -0.741542 -0.0901366 0
M  V30 5902 H 574.106 -1.88887 0.480378 0
M  V30 5903 H 573.202 -3.08551 -0.469357 0
M  V30 5904 N 573.503 -0.0852151 -1.57369 0
M  V30 5905 C 574.75 0.580806 -1.93992 0
M  V30 5906 C 575.078 1.68801 -0.966252 0
M  V30 5907 O 574.333 1.95694 0.0158649 0
M  V30 5908 C 574.632 1.18482 -3.3719 0
M  V30 5909 C 574.298 0.2024 -4.50446 0
M  V30 5910 C 572.96 -0.0678318 -4.81152 0
M  V30 5911 C 575.312 -0.46895 -5.19086 0
M  V30 5912 C 572.64 -1.01627 -5.77831 0
M  V30 5913 C 574.992 -1.4058 -6.16782 0
M  V30 5914 C 573.656 -1.68436 -6.45899 0
M  V30 5915 H 572.926 0.212532 -0.709867 0
M  V30 5916 H 575.573 -0.158947 -1.90839 0
M  V30 5917 H 573.878 2.0006 -3.36873 0
M  V30 5918 H 575.575 1.70767 -3.62822 0
M  V30 5919 H 572.165 0.423208 -4.26505 0
M  V30 5920 H 576.349 -0.273307 -4.95547 0
M  V30 5921 H 571.605 -1.2392 -5.9871 0
M  V30 5922 H 575.779 -1.93188 -6.69068 0
M  V30 5923 H 573.406 -2.42088 -7.20623 0
M  V30 5924 N 574.981 1.5647 0.188427 0
M  V30 5925 C 576.206 1.85486 0.927891 0
M  V30 5926 C 576.631 0.669575 1.75779 0
M  V30 5927 O 575.989 -0.381573 1.77239 0
M  V30 5928 C 576.037 3.12784 1.7944 0
M  V30 5929 O 575.141 2.93805 2.894 0
M  V30 5930 H 574.482 0.610585 0.260925 0
M  V30 5931 H 577.012 2.037 0.191729 0
M  V30 5932 H 577.022 3.43749 2.19774 0
M  V30 5933 H 575.697 3.98671 1.18468 0
M  V30 5934 H 574.274 2.74153 2.52774 0
M  V30 5935 N 576.459 -0.456382 1.50847 0
M  V30 5936 C 577.369 -1.57805 1.73594 0
M  V30 5937 C 578.385 -1.62599 0.619476 0
M  V30 5938 O 579.561 -1.80195 0.899532 0
M  V30 5939 C 576.626 -2.93926 1.8387 0
M  V30 5940 C 575.687 -2.99402 3.07663 0
M  V30 5941 C 574.92 -4.29031 3.1744 0
M  V30 5942 O 575.143 -5.20358 2.33631 0
M  V30 5943 O 574.077 -4.40401 4.10281 0
M  V30 5944 H 577.903 -1.41531 2.68705 0
M  V30 5945 H 575.488 -0.637422 1.3512 0
M  V30 5946 H 577.37 -3.74747 1.92725 0
M  V30 5947 H 576.045 -3.10368 0.91944 0
M  V30 5948 H 574.952 -2.17606 3.043 0
M  V30 5949 H 576.285 -2.87901 3.99216 0
M  V30 5950 N 577.937 -1.40673 -0.710563 0
M  V30 5951 C 579.348 -1.34975 -1.28991 0
M  V30 5952 C 579.699 -0.0256272 -1.96183 0
M  V30 5953 O 578.824 0.876339 -1.97862 0
M  V30 5954 C 579.419 -2.44467 -2.34567 0
M  V30 5955 C 577.978 -2.42213 -2.88114 0
M  V30 5956 C 577.125 -2.25085 -1.61963 0
M  V30 5957 H 580.076 -1.50406 -0.506343 0
M  V30 5958 H 580.097 -2.12663 -3.15523 0
M  V30 5959 H 579.609 -3.40825 -1.85634 0
M  V30 5960 H 577.71 -1.49568 -3.41263 0
M  V30 5961 H 577.823 -3.37983 -3.39565 0
M  V30 5962 H 576.187 -1.72691 -1.87216 0
M  V30 5963 H 576.97 -3.23449 -1.15047 0
M  V30 5964 N 579.415 0.9433 -1.26252 0
M  V30 5965 C 580.345 2.05902 -1.10122 0
M  V30 5966 C 581.326 1.70099 -0.00700552 0
M  V30 5967 O 582.511 1.93377 -0.178641 0
M  V30 5968 C 579.641 3.39516 -0.731175 0
M  V30 5969 C 578.595 3.89372 -1.77688 0
M  V30 5970 C 577.921 5.19613 -1.26122 0
M  V30 5971 C 579.221 4.14489 -3.17799 0
M  V30 5972 H 580.915 2.19655 -2.03451 0
M  V30 5973 H 578.461 1.05548 -0.979576 0
M  V30 5974 H 580.414 4.17031 -0.605215 0
M  V30 5975 H 579.138 3.25733 0.23782 0
M  V30 5976 H 577.797 3.14036 -1.89148 0
M  V30 5977 H 577.445 5.02208 -0.282128 0
M  V30 5978 H 577.145 5.53939 -1.96023 0
M  V30 5979 H 578.669 5.99713 -1.14789 0
M  V30 5980 H 580.083 4.82625 -3.09428 0
M  V30 5981 H 578.48 4.60094 -3.85271 0
M  V30 5982 H 579.55 3.20347 -3.64014 0
M  V30 5983 N 580.893 1.08022 1.14757 0
M  V30 5984 C 582.121 0.828847 1.89572 0
M  V30 5985 C 582.536 -0.618621 1.78377 0
M  V30 5986 O 581.893 -1.42482 1.1404 0
M  V30 5987 C 581.944 1.23677 3.39685 0
M  V30 5988 O 581.665 2.62746 3.50566 0
M  V30 5989 C 583.166 1.01569 4.31507 0
M  V30 5990 H 580.386 0.299196 0.600602 0
M  V30 5991 H 582.93 1.43846 1.45357 0
M  V30 5992 H 581.085 0.671347 3.81539 0
M  V30 5993 H 581.499 2.79573 4.43778 0
M  V30 5994 H 582.973 1.35055 5.35223 0
M  V30 5995 H 583.45 -0.0475433 4.39174 0
M  V30 5996 H 584.056 1.56636 3.95405 0
M  V30 5997 N 582.371 -1.3172 0.865308 0
M  V30 5998 C 583.618 -1.96876 0.473931 0
M  V30 5999 C 583.946 -1.68425 -0.972786 0
M  V30 6000 O 583.201 -0.970742 -1.69927 0
M  V30 6001 C 583.5 -3.5102 0.672283 0
M  V30 6002 C 583.166 -3.9948 2.09108 0
M  V30 6003 C 581.828 -4.12425 2.4791 0
M  V30 6004 C 584.18 -4.2503 3.0166 0
M  V30 6005 C 581.508 -4.48267 3.78515 0
M  V30 6006 C 583.86 -4.62335 4.31774 0
M  V30 6007 C 582.524 -4.73486 4.70497 0
M  V30 6008 H 581.794 -0.72042 0.173424 0
M  V30 6009 H 584.441 -1.56937 1.0974 0
M  V30 6010 H 582.746 -3.91785 -0.034356 0
M  V30 6011 H 584.443 -3.99475 0.349353 0
M  V30 6012 H 581.033 -3.89898 1.77981 0
M  V30 6013 H 585.217 -4.14529 2.7291 0
M  V30 6014 H 580.473 -4.55097 4.08285 0
M  V30 6015 H 584.647 -4.81058 5.03543 0
M  V30 6016 H 582.274 -5.01016 5.71741 0
M  V30 6017 N 583.85 -0.624285 -1.44708 0
M  V30 6018 C 585.09 -0.129273 -2.03991 0
M  V30 6019 C 585.454 1.22321 -1.47992 0
M  V30 6020 O 586.654 1.80993 -1.98734 0
M  V30 6021 C 584.926 -0.108231 -3.57236 0
M  V30 6022 S 586.485 0.323158 -4.37608 0
M  V30 6023 H 583.303 -0.0577318 -0.708652 0
M  V30 6024 H 585.904 -0.826139 -1.77187 0
M  V30 6025 H 584.609 -1.0958 -3.955 0
M  V30 6026 H 584.139 0.610101 -3.8864 0
M  V30 6027 H 586.154 1.56894 -4.70743 0
M  V30 6028 N 585.328 1.53329 -0.364422 0
M  V30 6029 C 586.553 2.06132 0.229033 0
M  V30 6030 C 586.978 1.23625 1.41769 0
M  V30 6031 O 586.336 0.255038 1.79497 0
M  V30 6032 C 586.384 3.55544 0.60174 0
M  V30 6033 O 585.488 3.75771 1.69912 0
M  V30 6034 H 584.829 0.663148 0.0336213 0
M  V30 6035 H 587.359 1.97758 -0.524689 0
M  V30 6036 H 587.369 3.98549 0.873073 0
M  V30 6037 H 586.044 4.15039 -0.267421 0
M  V30 6038 H 584.621 3.44663 1.42343 0
M  V30 6039 N 586.806 0.0935595 1.57322 0
M  V30 6040 C 588.052 -0.571355 1.94585 0
M  V30 6041 C 588.385 -1.67929 0.975366 0
M  V30 6042 O 587.66 -1.94498 0.00816206 0
M  V30 6043 C 587.943 -1.12797 3.41978 0
M  V30 6044 C 587.796 -0.0251881 4.49793 0
M  V30 6045 C 589.115 -2.02682 3.90651 0
M  V30 6046 H 586.234 -0.206223 0.70756 0
M  V30 6047 H 588.876 0.163956 1.89291 0
M  V30 6048 H 587.026 -1.75461 3.4662 0
M  V30 6049 H 588.698 0.608979 4.57263 0
M  V30 6050 H 586.941 0.641399 4.29032 0
M  V30 6051 H 587.612 -0.455433 5.50118 0
M  V30 6052 H 590.088 -1.49925 3.88152 0
M  V30 6053 H 588.964 -2.38555 4.94351 0
M  V30 6054 H 589.225 -2.94362 3.29854 0
M  V30 6055 N 588.284 -1.56567 -0.180126 0
M  V30 6056 C 589.53 -1.81761 -0.899497 0
M  V30 6057 C 589.863 -0.670015 -1.82276 0
M  V30 6058 O 589.138 0.328575 -1.91705 0
M  V30 6059 C 589.421 -3.17296 -1.7028 0
M  V30 6060 C 589.274 -4.4257 -0.803255 0
M  V30 6061 C 590.593 -3.49678 -2.67233 0
M  V30 6062 H 587.712 -0.661192 -0.325567 0
M  V30 6063 H 590.354 -1.89272 -0.16612 0
M  V30 6064 H 588.504 -3.11023 -2.32802 0
M  V30 6065 H 590.176 -4.60902 -0.191585 0
M  V30 6066 H 588.419 -4.33658 -0.110796 0
M  V30 6067 H 589.09 -5.33935 -1.40064 0
M  V30 6068 H 591.566 -3.56347 -2.14839 0
M  V30 6069 H 590.442 -4.45605 -3.20511 0
M  V30 6070 H 590.703 -2.73932 -3.47007 0
M  V30 6071 N 589.762 0.448376 -1.51087 0
M  V30 6072 C 591.039 1.20926 -1.53741 0
M  V30 6073 C 591.419 2.09025 -0.295222 0
M  V30 6074 O 590.767 2.16851 0.720283 0
M  V30 6075 C 590.977 2.02067 -2.84552 0
M  V30 6076 C 592.325 2.59486 -3.36084 0
M  V30 6077 O 593.349 2.12289 -2.86028 0
M  V30 6078 O 592.208 3.45539 -4.23397 0
M  V30 6079 H 589.302 0.549951 -0.617643 0
M  V30 6080 H 591.848 0.458344 -1.63393 0
M  V30 6081 H 590.62 1.37291 -3.66425 0
M  V30 6082 H 590.243 2.84246 -2.78011 0
M  V30 6083 N 591.24 1.41047 0.703093 0
M  V30 6084 C 592.17 1.45067 1.82969 0
M  V30 6085 C 593.151 0.31016 1.67248 0
M  V30 6086 O 594.336 0.520548 1.87093 0
M  V30 6087 C 591.466 1.32478 3.2104 0
M  V30 6088 C 590.42 2.44262 3.51454 0
M  V30 6089 C 589.746 2.16742 4.88801 0
M  V30 6090 C 591.046 3.86606 3.51189 0
M  V30 6091 H 592.74 2.39353 1.79863 0
M  V30 6092 H 590.286 1.15206 0.863919 0
M  V30 6093 H 592.239 1.33904 3.99559 0
M  V30 6094 H 590.963 0.346735 3.24754 0
M  V30 6095 H 589.622 2.42107 2.75282 0
M  V30 6096 H 589.27 1.17299 4.89132 0
M  V30 6097 H 588.97 2.91643 5.10116 0
M  V30 6098 H 590.494 2.19872 5.69639 0
M  V30 6099 H 591.908 3.90517 4.19725 0
M  V30 6100 H 590.305 4.61128 3.84033 0
M  V30 6101 H 591.375 4.15296 2.50315 0
M  V30 6102 N 592.718 -0.936591 1.26751 0
M  V30 6103 C 593.967 -1.67778 1.11953 0
M  V30 6104 C 594.28 -1.92694 -0.33589 0
M  V30 6105 O 595.486 -2.64682 -0.604618 0
M  V30 6106 C 593.942 -3.02138 1.95551 0
M  V30 6107 C 593.55 -2.84953 3.45696 0
M  V30 6108 C 595.294 -3.79917 1.89377 0
M  V30 6109 C 593.201 -4.14814 4.21525 0
M  V30 6110 H 592.131 -0.629275 0.415366 0
M  V30 6111 H 594.782 -1.04122 1.51099 0
M  V30 6112 H 593.164 -3.668 1.49243 0
M  V30 6113 H 594.338 -2.29112 3.99805 0
M  V30 6114 H 592.653 -2.20612 3.53156 0
M  V30 6115 H 595.25 -4.76134 2.43312 0
M  V30 6116 H 595.593 -4.07204 0.865464 0
M  V30 6117 H 596.126 -3.22037 2.33532 0
M  V30 6118 H 592.865 -3.92709 5.24843 0
M  V30 6119 H 592.385 -4.70352 3.72195 0
M  V30 6120 H 594.064 -4.83239 4.3022 0
M  V30 6121 N 594.196 -1.08629 -1.14182 0
M  V30 6122 C 595.144 -0.71284 -2.21408 0
M  V30 6123 C 596.138 0.282457 -1.67029 0
M  V30 6124 O 597.344 0.144783 -1.79417 0
M  V30 6125 H 593.719 -0.212497 -0.721352 0
M  V30 6126 H 595.69 -1.6265 -2.50175 0
M  V30 6127 C 594.439 -0.140704 -3.47415 0
M  V30 6128 H 593.762 -0.897739 -3.8959 0
M  V30 6129 H 595.202 0.0827677 -4.23919 0
M  V30 6130 C 593.661 1.122 -3.17668 0
M  V30 6131 O 594.191 2.20652 -3.35672 0
M  V30 6132 N 592.397 1.03328 -2.71609 0
M  V30 6133 H 591.944 0.150666 -2.57159 0
M  V30 6134 H 591.902 1.8789 -2.52081 0
M  V30 6135 N 595.674 1.31259 -0.872281 0
M  V30 6136 C 596.624 2.26 -0.301295 0
M  V30 6137 C 597.608 1.50729 0.562991 0
M  V30 6138 O 598.8 1.72198 0.40949 0
M  V30 6139 C 595.929 3.39724 0.494227 0
M  V30 6140 C 595.015 4.22363 -0.383432 0
M  V30 6141 N 595.406 4.83724 -1.47799 0
M  V30 6142 C 593.704 4.45652 -0.176278 0
M  V30 6143 C 594.405 5.45523 -2.01939 0
M  V30 6144 N 593.381 5.27428 -1.31608 0
M  V30 6145 H 597.183 2.70981 -1.13782 0
M  V30 6146 H 594.697 1.45552 -0.720294 0
M  V30 6147 H 596.694 4.06626 0.919828 0
M  V30 6148 H 595.354 2.96286 1.32834 0
M  V30 6149 H 596.365 4.83313 -1.8609 0
M  V30 6150 H 593.042 4.12845 0.621698 0
M  V30 6151 H 594.432 6.04268 -2.93786 0
M  V30 6152 N 597.152 0.631951 1.44375 0
M  V30 6153 C 598.382 0.143658 2.061 0
M  V30 6154 C 598.79 -1.18733 1.47306 0
M  V30 6155 O 598.133 -1.73943 0.590724 0
M  V30 6156 C 598.195 -0.0446102 3.59472 0
M  V30 6157 C 597.859 1.20835 4.40736 0
M  V30 6158 C 598.856 2.13224 4.74164 0
M  V30 6159 C 596.541 1.44399 4.81097 0
M  V30 6160 C 598.535 3.27487 5.46838 0
M  V30 6161 C 596.222 2.58959 5.53519 0
M  V30 6162 C 597.22 3.50329 5.86309 0
M  V30 6163 O 596.908 4.62891 6.57257 0
M  V30 6164 H 596.64 0.0772939 0.671567 0
M  V30 6165 H 599.194 0.866677 1.8622 0
M  V30 6166 H 597.424 -0.822783 3.77845 0
M  V30 6167 H 599.113 -0.487561 4.02961 0
M  V30 6168 H 599.879 1.96253 4.4352 0
M  V30 6169 H 595.758 0.741696 4.54994 0
M  V30 6170 H 599.302 3.98826 5.72349 0
M  V30 6171 H 595.199 2.75873 5.83579 0
M  V30 6172 H 595.967 4.61883 6.75726 0
M  V30 6173 N 598.631 -1.53133 0.372548 0
M  V30 6174 C 600.047 -1.59585 0.02178 0
M  V30 6175 C 600.247 -1.38736 -1.46132 0
M  V30 6176 O 599.303 -1.19599 -2.22379 0
M  V30 6177 C 600.616 -2.9678 0.483959 0
M  V30 6178 C 602.164 -3.09909 0.438775 0
M  V30 6179 C 602.639 -4.49527 0.876876 0
M  V30 6180 N 604.13 -4.55663 0.832214 0
M  V30 6181 C 604.865 -5.61896 1.14281 0
M  V30 6182 N 604.361 -6.75852 1.52303 0
M  V30 6183 N 606.154 -5.51916 1.06515 0
M  V30 6184 H 598.305 -1.64936 1.33827 0
M  V30 6185 H 600.568 -0.773947 0.547458 0
M  V30 6186 H 600.274 -3.17198 1.51915 0
M  V30 6187 H 600.148 -3.7699 -0.125784 0
M  V30 6188 H 602.535 -2.89197 -0.587294 0
M  V30 6189 H 602.616 -2.31691 1.0841 0
M  V30 6190 H 602.26 -4.70979 1.90109 0
M  V30 6191 H 602.19 -5.26186 0.208727 0
M  V30 6192 H 604.681 -3.73844 0.552195 0
M  V30 6193 H 604.994 -7.52862 1.7441 0
M  V30 6194 H 603.339 -6.77226 1.56175 0
M  V30 6195 H 606.53 -4.6177 0.767235 0
M  V30 6196 H 606.703 -6.34609 1.31053 0
M  V30 6197 N 600.109 -0.101901 -1.5727 0
M  V30 6198 C 601.059 0.865346 -2.1094 0
M  V30 6199 C 602.043 1.2394 -1.02605 0
M  V30 6200 O 603.235 1.21334 -1.28868 0
M  V30 6201 C 600.364 2.12187 -2.69874 0
M  V30 6202 C 599.45 1.77295 -3.85263 0
M  V30 6203 N 599.841 1.12993 -4.93017 0
M  V30 6204 C 598.139 2.06862 -3.95126 0
M  V30 6205 C 598.84 0.968631 -5.73579 0
M  V30 6206 N 597.816 1.48814 -5.22834 0
M  V30 6207 H 601.618 0.364368 -2.91633 0
M  V30 6208 H 599.132 0.101104 -1.62085 0
M  V30 6209 H 601.129 2.82431 -3.06657 0
M  V30 6210 H 599.789 2.62844 -1.90639 0
M  V30 6211 H 600.8 0.795935 -5.11747 0
M  V30 6212 H 597.477 2.59686 -3.26909 0
M  V30 6213 H 598.867 0.465231 -6.70287 0
M  V30 6214 N 601.587 1.56661 0.17182 0
M  V30 6215 C 602.497 1.99604 1.2327 0
M  V30 6216 C 603.513 0.907333 1.4847 0
M  V30 6217 O 604.689 1.21492 1.60629 0
M  V30 6218 C 601.754 2.34685 2.55194 0
M  V30 6219 C 600.815 3.57381 2.3786 0
M  V30 6220 C 600.048 3.90779 3.63494 0
M  V30 6221 O 600.271 3.25152 4.6865 0
M  V30 6222 O 599.205 4.84129 3.57634 0
M  V30 6223 H 603.031 2.90114 0.898192 0
M  V30 6224 H 600.616 1.44522 0.378647 0
M  V30 6225 H 602.498 2.5822 3.33017 0
M  V30 6226 H 601.173 1.47336 2.88225 0
M  V30 6227 H 600.08 3.39064 1.5807 0
M  V30 6228 H 601.413 4.45268 2.09754 0
M  V30 6229 N 603.065 -0.440357 1.51323 0
M  V30 6230 C 604.29 -1.21716 1.67928 0
M  V30 6231 C 604.715 -1.84328 0.374826 0
M  V30 6232 O 604.073 -1.68675 -0.664706 0
M  V30 6233 C 604.121 -2.27914 2.79442 0
M  V30 6234 O 603.225 -3.33325 2.42834 0
M  V30 6235 H 602.566 -0.35674 0.560029 0
M  V30 6236 H 605.096 -0.520417 1.97871 0
M  V30 6237 H 605.106 -2.72746 3.03436 0
M  V30 6238 H 603.781 -1.8172 3.741 0
M  V30 6239 H 602.358 -2.9399 2.294 0
M  V30 6240 N 604.543 -1.41418 -0.695603 0
M  V30 6241 C 605.473 -1.46035 -1.82197 0
M  V30 6242 C 606.454 -0.319025 -1.67082 0
M  V30 6243 O 607.639 -0.530462 -1.86815 0
M  V30 6244 C 604.769 -1.34179 -3.20333 0
M  V30 6245 C 603.723 -2.46123 -3.50154 0
M  V30 6246 C 603.049 -2.19332 -4.87645 0
M  V30 6247 C 604.349 -3.88463 -3.49133 0
M  V30 6248 H 606.043 -2.40303 -1.78591 0
M  V30 6249 H 603.589 -1.15663 -0.857797 0
M  V30 6250 H 605.542 -1.36021 -3.98844 0
M  V30 6251 H 604.266 -0.363952 -3.24566 0
M  V30 6252 H 602.925 -2.43563 -2.73994 0
M  V30 6253 H 602.573 -1.19891 -4.88503 0
M  V30 6254 H 602.273 -2.94344 -5.08562 0
M  V30 6255 H 603.797 -2.22889 -5.68465 0
M  V30 6256 H 605.211 -3.92738 -4.17648 0
M  V30 6257 H 603.608 -4.63158 -3.81582 0
M  V30 6258 H 604.678 -4.16617 -2.48109 0
M  V30 6259 N 606.021 0.929856 -1.27246 0
M  V30 6260 C 606.984 2.01172 -1.09829 0
M  V30 6261 C 607.984 1.60743 -0.0429687 0
M  V30 6262 O 609.174 1.71813 -0.287373 0
M  V30 6263 C 606.306 3.34191 -0.673003 0
M  V30 6264 H 607.499 2.18054 -2.05895 0
M  V30 6265 H 605.052 1.11036 -1.10003 0
M  V30 6266 H 605.787 3.23009 0.289134 0
M  V30 6267 H 605.572 3.64892 -1.43515 0
M  V30 6268 H 607.062 4.13646 -0.573323 0
M  V30 6269 N 607.499 1.09233 1.13605 0
M  V30 6270 C 608.431 0.687794 2.18637 0
M  V30 6271 C 609.444 -0.26936 1.60556 0
M  V30 6272 O 610.633 -0.0557162 1.78413 0
M  V30 6273 C 607.733 -0.00751901 3.38899 0
M  V30 6274 C 606.906 0.97067 4.26494 0
M  V30 6275 C 605.965 0.309129 5.25291 0
M  V30 6276 O 604.991 0.956149 5.61112 0
M  V30 6277 N 606.193 -0.937555 5.72879 0
M  V30 6278 H 608.958 1.59141 2.53957 0
M  V30 6279 H 606.519 0.979515 1.28907 0
M  V30 6280 H 608.511 -0.461238 4.02063 0
M  V30 6281 H 607.081 -0.813353 3.01833 0
M  V30 6282 H 606.301 1.603 3.60135 0
M  V30 6283 H 607.589 1.63323 4.81875 0
M  V30 6284 H 606.987 -1.48281 5.4592 0
M  V30 6285 H 605.544 -1.33463 6.3799 0
M  V30 6286 N 608.977 -1.30795 0.87923 0
M  V30 6287 C 610.207 -2.00237 0.50881 0
M  V30 6288 C 610.615 -1.66115 -0.905682 0
M  V30 6289 O 609.958 -0.89138 -1.60624 0
M  V30 6290 C 610.02 -3.54508 0.597003 0
M  V30 6291 C 609.684 -4.12131 1.97477 0
M  V30 6292 C 610.681 -4.28552 2.94346 0
M  V30 6293 C 608.366 -4.47644 2.2786 0
M  V30 6294 C 610.36 -4.79689 4.19735 0
M  V30 6295 C 608.047 -4.98481 3.53496 0
M  V30 6296 C 609.045 -5.14456 4.49248 0
M  V30 6297 O 608.733 -5.64199 5.72656 0
M  V30 6298 H 608.465 -0.647026 0.195788 0
M  V30 6299 H 611.019 -1.67785 1.1848 0
M  V30 6300 H 609.249 -3.86461 -0.135945 0
M  V30 6301 H 610.938 -4.05198 0.238684 0
M  V30 6302 H 611.704 -4.01424 2.72183 0
M  V30 6303 H 607.583 -4.34481 1.54102 0
M  V30 6304 H 611.127 -4.92073 4.9448 0
M  V30 6305 H 607.024 -5.25044 3.75498 0
M  V30 6306 H 607.792 -5.82551 5.74957 0
M  V30 6307 N 610.455 -0.639598 -1.44038 0
M  V30 6308 C 611.403 0.0723409 -2.32487 0
M  V30 6309 C 612.397 0.827129 -1.47834 0
M  V30 6310 O 613.603 0.73907 -1.64127 0
M  V30 6311 H 609.978 0.0421696 -0.750817 0
M  V30 6312 H 611.949 -0.691593 -2.90275 0
M  V30 6313 C 610.698 1.03452 -3.31953 0
M  V30 6314 H 610.021 0.46315 -3.97108 0
M  V30 6315 H 611.461 1.502 -3.96505 0
M  V30 6316 C 609.92 2.12392 -2.61518 0
M  V30 6317 O 610.45 3.2059 -2.42044 0
M  V30 6318 N 608.656 1.88563 -2.21116 0
M  V30 6319 H 608.203 1.00577 -2.37154 0
M  V30 6320 H 608.161 2.61651 -1.74316 0
M  V30 6321 N 611.933 1.52934 -0.380664 0
M  V30 6322 C 612.896 2.24809 0.446473 0
M  V30 6323 C 613.896 1.26133 0.997347 0
M  V30 6324 O 615.086 1.50297 0.880714 0
M  V30 6325 C 612.218 2.99649 1.62553 0
M  V30 6326 H 613.411 2.99343 -0.182677 0
M  V30 6327 H 610.964 1.55736 -0.132618 0
M  V30 6328 H 611.699 2.29395 2.29235 0
M  V30 6329 H 611.484 3.72066 1.23732 0
M  V30 6330 H 612.974 3.54246 2.21133 0
M  V30 6331 N 613.412 0.11024 1.57214 0
M  V30 6332 C 614.359 -0.843195 2.14846 0
M  V30 6333 C 615.329 -1.26954 1.07107 0
M  V30 6334 O 616.514 -1.34861 1.34971 0
M  V30 6335 C 613.654 -2.09123 2.74521 0
M  V30 6336 C 612.767 -1.71404 3.96541 0
M  V30 6337 C 611.902 -2.91107 4.44331 0
M  V30 6338 C 610.941 -2.49586 5.58903 0
M  V30 6339 N 610.078 -3.62175 6.01477 0
M  V30 6340 H 614.918 -0.344886 2.95998 0
M  V30 6341 H 612.455 -0.15855 1.46243 0
M  V30 6342 H 614.413 -2.82234 3.07246 0
M  V30 6343 H 613.043 -2.56427 1.96074 0
M  V30 6344 H 612.095 -0.88201 3.70033 0
M  V30 6345 H 613.407 -1.36884 4.7965 0
M  V30 6346 H 612.561 -3.72454 4.78919 0
M  V30 6347 H 611.3 -3.28848 3.60153 0
M  V30 6348 H 610.305 -1.6667 5.23929 0
M  V30 6349 H 611.53 -2.12973 6.4484 0
M  V30 6350 H 609.476 -3.99605 5.20242 0
M  V30 6351 H 609.393 -3.3155 6.79419 0
M  V30 6352 H 610.661 -4.43987 6.407 0
M  V30 6353 N 614.89 -1.56749 -0.16351 0
M  V30 6354 C 615.82 -2.00042 -1.20438 0
M  V30 6355 C 616.801 -0.877256 -1.45733 0
M  V30 6356 O 617.986 -1.1439 -1.56935 0
M  V30 6357 C 615.116 -2.36697 -2.54149 0
M  V30 6358 C 614.07 -3.52046 -2.43408 0
M  V30 6359 C 613.396 -3.74466 -3.81679 0
M  V30 6360 C 614.696 -4.85247 -1.93216 0
M  V30 6361 H 616.39 -2.87244 -0.844477 0
M  V30 6362 H 613.936 -1.38194 -0.40478 0
M  V30 6363 H 615.889 -2.65582 -3.27176 0
M  V30 6364 H 614.613 -1.46414 -2.91943 0
M  V30 6365 H 613.272 -3.23301 -1.72834 0
M  V30 6366 H 612.92 -2.81461 -4.1688 0
M  V30 6367 H 612.62 -4.52084 -3.75359 0
M  V30 6368 H 614.144 -4.0576 -4.5628 0
M  V30 6369 H 615.558 -5.12957 -2.56023 0
M  V30 6370 H 613.955 -5.66556 -1.97825 0
M  V30 6371 H 615.025 -4.7672 -0.88689 0
M  V30 6372 N 616.368 0.432326 -1.51554 0
M  V30 6373 C 617.645 1.19288 -1.55015 0
M  V30 6374 C 618.025 2.08701 -0.317375 0
M  V30 6375 O 617.373 2.17602 0.697243 0
M  V30 6376 C 617.583 1.99037 -2.86679 0
M  V30 6377 C 618.931 2.55907 -3.38817 0
M  V30 6378 O 619.955 2.09243 -2.88263 0
M  V30 6379 O 618.814 3.41029 -4.27038 0
M  V30 6380 H 615.908 0.543369 -0.623441 0
M  V30 6381 H 618.454 0.440988 -1.6387 0
M  V30 6382 H 617.226 1.33397 -3.6786 0
M  V30 6383 H 616.849 2.81281 -2.8101 0
M  V30 6384 N 617.846 1.41785 0.688094 0
M  V30 6385 C 619.074 1.44915 1.47673 0
M  V30 6386 C 619.489 0.0565786 1.88715 0
M  V30 6387 O 618.846 -0.92579 1.57275 0
M  V30 6388 C 618.897 2.36452 2.73446 0
M  V30 6389 O 618.618 3.7029 2.34131 0
M  V30 6390 C 620.119 2.48463 3.67125 0
M  V30 6391 H 617.339 0.493324 0.454832 0
M  V30 6392 H 619.883 1.86153 0.846594 0
M  V30 6393 H 618.038 1.98502 3.3268 0
M  V30 6394 H 618.452 4.19183 3.15255 0
M  V30 6395 H 619.926 3.16662 4.52138 0
M  V30 6396 H 620.403 1.51826 4.12123 0
M  V30 6397 H 621.009 2.8708 3.13792 0
M  V30 6398 N 619.324 -0.923095 1.27737 0
M  V30 6399 C 620.74 -1.19985 1.05241 0
M  V30 6400 C 620.94 -2.00391 -0.21113 0
M  V30 6401 O 619.996 -2.35324 -0.915366 0
M  V30 6402 C 621.309 -1.94352 2.29451 0
M  V30 6403 C 622.857 -2.07273 2.34536 0
M  V30 6404 C 623.332 -2.85046 3.58487 0
M  V30 6405 N 624.823 -2.92612 3.59072 0
M  V30 6406 C 625.558 -3.53266 4.51654 0
M  V30 6407 N 625.054 -4.15274 5.54545 0
M  V30 6408 N 626.847 -3.50714 4.39268 0
M  V30 6409 H 618.998 -0.386042 2.08862 0
M  V30 6410 H 621.261 -0.233407 0.918817 0
M  V30 6411 H 620.967 -1.42692 3.21453 0
M  V30 6412 H 620.841 -2.94947 2.3513 0
M  V30 6413 H 623.228 -2.58117 1.43037 0
M  V30 6414 H 623.309 -1.05884 2.32857 0
M  V30 6415 H 622.953 -2.34884 4.50324 0
M  V30 6416 H 622.883 -3.8673 3.57418 0
M  V30 6417 H 625.374 -2.48547 2.84663 0
M  V30 6418 H 625.687 -4.59507 6.21348 0
M  V30 6419 H 624.032 -4.13806 5.58382 0
M  V30 6420 H 627.223 -3.01475 3.58093 0
M  V30 6421 H 627.396 -3.97693 5.1161 0
M  V30 6422 N 620.802 -1.09834 -1.13024 0
M  V30 6423 C 621.732 -0.763451 -2.20666 0
M  V30 6424 C 622.713 0.260778 -1.68089 0
M  V30 6425 O 623.898 0.127915 -1.93778 0
M  V30 6426 C 621.028 -0.187744 -3.46792 0
M  V30 6427 C 619.982 -1.14196 -4.12484 0
M  V30 6428 C 619.308 -0.427755 -5.32986 0
M  V30 6429 C 620.608 -2.48607 -4.59338 0
M  V30 6430 H 622.302 -1.66347 -2.48936 0
M  V30 6431 H 619.848 -0.801261 -1.19649 0
M  V30 6432 H 621.801 0.0586375 -4.21359 0
M  V30 6433 H 620.525 0.747485 -3.17931 0
M  V30 6434 H 619.184 -1.37369 -3.3989 0
M  V30 6435 H 618.832 0.511747 -5.0039 0
M  V30 6436 H 618.532 -1.06403 -5.77886 0
M  V30 6437 H 620.056 -0.189772 -6.10305 0
M  V30 6438 H 621.47 -2.29618 -5.25308 0
M  V30 6439 H 619.867 -3.08062 -5.14993 0
M  V30 6440 H 620.937 -3.09062 -3.73642 0
M  V30 6441 N 622.28 1.30327 -0.886154 0
M  V30 6442 C 623.21 2.30549 -0.370028 0
M  V30 6443 C 624.191 1.61039 0.547751 0
M  V30 6444 O 625.376 1.8864 0.461353 0
M  V30 6445 C 622.506 3.44808 0.415275 0
M  V30 6446 C 621.46 4.26024 -0.41085 0
M  V30 6447 C 620.786 5.32347 0.501128 0
M  V30 6448 C 622.086 4.95433 -1.65359 0
M  V30 6449 H 623.78 2.73969 -1.20754 0
M  V30 6450 H 621.326 1.3171 -0.582097 0
M  V30 6451 H 623.279 4.13986 0.78699 0
M  V30 6452 H 622.003 3.00197 1.28644 0
M  V30 6453 H 620.662 3.58535 -0.764719 0
M  V30 6454 H 620.31 4.83982 1.37004 0
M  V30 6455 H 620.01 5.87581 -0.0478356 0
M  V30 6456 H 621.534 6.0438 0.869333 0
M  V30 6457 H 622.948 5.5712 -1.35239 0
M  V30 6458 H 621.345 5.60537 -2.14284 0
M  V30 6459 H 622.415 4.21493 -2.39733 0
M  V30 6460 N 623.758 0.647228 1.43697 0
M  V30 6461 C 624.988 0.16551 2.05936 0
M  V30 6462 C 625.396 -1.17164 1.48557 0
M  V30 6463 O 624.739 -1.73307 0.60914 0
M  V30 6464 C 624.801 -0.00648082 3.59499 0
M  V30 6465 C 624.465 1.25503 4.39429 0
M  V30 6466 C 625.462 2.18241 4.71876 0
M  V30 6467 C 623.147 1.49494 4.79538 0
M  V30 6468 C 625.141 3.33268 5.43333 0
M  V30 6469 C 622.828 2.64815 5.50742 0
M  V30 6470 C 623.826 3.56528 5.82561 0
M  V30 6471 O 623.514 4.69836 6.52311 0
M  V30 6472 H 623.246 0.0844124 0.670709 0
M  V30 6473 H 625.8 0.88638 1.8529 0
M  V30 6474 H 624.03 -0.782661 3.78697 0
M  V30 6475 H 625.719 -0.444794 4.03456 0
M  V30 6476 H 626.485 2.00946 4.41413 0
M  V30 6477 H 622.364 0.789912 4.54182 0
M  V30 6478 H 625.908 4.04874 5.68087 0
M  V30 6479 H 621.805 2.82047 5.8062 0
M  V30 6480 H 622.573 4.69024 6.70789 0
M  V30 6481 N 625.236 -1.5273 0.388769 0
M  V30 6482 C 626.647 -1.86505 -0.0853788 0
M  V30 6483 C 626.998 -1.30847 -1.46197 0
M  V30 6484 O 626.123 -0.639609 -2.06732 0
M  V30 6485 C 626.718 -3.38414 -0.161703 0
M  V30 6486 C 625.277 -3.71902 -0.580144 0
M  V30 6487 C 624.424 -2.76095 0.258218 0
M  V30 6488 H 627.375 -1.46647 0.606665 0
M  V30 6489 H 627.396 -3.67638 -0.980936 0
M  V30 6490 H 626.908 -3.78893 0.840333 0
M  V30 6491 H 625.009 -3.36992 -1.58957 0
M  V30 6492 H 625.122 -4.77902 -0.338663 0
M  V30 6493 H 623.486 -2.53195 -0.276432 0
M  V30 6494 H 624.269 -3.19411 1.25822 0
M  V30 6495 N 626.714 -0.118576 -1.57153 0
M  V30 6496 C 627.96 0.540326 -1.95469 0
M  V30 6497 C 628.293 1.66356 -1.00196 0
M  V30 6498 O 627.568 1.94461 -0.039104 0
M  V30 6499 C 627.851 1.07342 -3.43729 0
M  V30 6500 C 627.704 -0.0463732 -4.49776 0
M  V30 6501 C 629.023 1.96442 -3.93826 0
M  V30 6502 H 626.142 0.19494 -0.710751 0
M  V30 6503 H 628.784 -0.19405 -1.89006 0
M  V30 6504 H 626.934 1.69925 -3.49368 0
M  V30 6505 H 628.606 -0.681648 -4.56236 0
M  V30 6506 H 626.849 -0.709574 -4.27957 0
M  V30 6507 H 627.52 0.367856 -5.50773 0
M  V30 6508 H 629.996 1.43731 -3.90488 0
M  V30 6509 H 628.872 2.3066 -4.98084 0
M  V30 6510 H 629.133 2.89077 -3.34495 0
M  V30 6511 N 628.193 1.56834 0.155195 0
M  V30 6512 C 629.418 1.87412 0.888337 0
M  V30 6513 C 629.843 0.70671 1.74319 0
M  V30 6514 O 629.201 -0.343892 1.78009 0
M  V30 6515 C 629.249 3.1652 1.72765 0
M  V30 6516 O 628.353 2.99877 2.83103 0
M  V30 6517 H 627.694 0.615983 0.247914 0
M  V30 6518 H 630.224 2.04061 0.148478 0
M  V30 6519 H 630.234 3.48334 2.12433 0
M  V30 6520 H 628.909 4.01094 1.09985 0
M  V30 6521 H 627.486 2.79453 2.46902 0
M  V30 6522 N 629.671 -0.424282 1.51781 0
M  V30 6523 C 630.618 -1.51591 1.74037 0
M  V30 6524 C 631.588 -1.55556 0.582358 0
M  V30 6525 O 632.773 -1.72364 0.818245 0
M  V30 6526 C 629.913 -2.89188 1.8832 0
M  V30 6527 C 629.026 -2.9465 3.1592 0
M  V30 6528 C 628.161 -4.23452 3.20721 0
M  V30 6529 C 627.2 -4.22831 4.42584 0
M  V30 6530 N 626.337 -5.43178 4.44862 0
M  V30 6531 H 631.177 -1.31917 2.67212 0
M  V30 6532 H 628.714 -0.640599 1.32419 0
M  V30 6533 H 630.672 -3.69044 1.94583 0
M  V30 6534 H 629.302 -3.07392 0.985402 0
M  V30 6535 H 628.354 -2.07378 3.18902 0
M  V30 6536 H 629.666 -2.90055 4.05795 0
M  V30 6537 H 628.82 -5.1169 3.25973 0
M  V30 6538 H 627.559 -4.30722 2.28757 0
M  V30 6539 H 626.564 -3.32984 4.37495 0
M  V30 6540 H 627.789 -4.17213 5.35826 0
M  V30 6541 H 625.735 -5.51145 3.55775 0
M  V30 6542 H 625.652 -5.40515 5.28563 0
M  V30 6543 H 626.92 -6.33412 4.54324 0
M  V30 6544 N 631.149 -1.42148 -0.680565 0
M  V30 6545 C 632.379 -1.45485 -1.46689 0
M  V30 6546 C 632.787 -0.0629451 -1.89095 0
M  V30 6547 O 632.13 0.931397 -1.58337 0
M  V30 6548 C 632.192 -2.31397 -2.75129 0
M  V30 6549 C 631.856 -3.79353 -2.54834 0
M  V30 6550 C 632.853 -4.71148 -2.19808 0
M  V30 6551 C 630.538 -4.23557 -2.70008 0
M  V30 6552 C 632.532 -6.05139 -2.00215 0
M  V30 6553 C 630.219 -5.57609 -2.50031 0
M  V30 6554 C 631.217 -6.48216 -2.15187 0
M  V30 6555 O 630.905 -7.79792 -1.95397 0
M  V30 6556 H 630.637 -0.497139 -0.458071 0
M  V30 6557 H 633.191 -1.87252 -0.844139 0
M  V30 6558 H 631.421 -1.84468 -3.39865 0
M  V30 6559 H 633.11 -2.26257 -3.36991 0
M  V30 6560 H 633.876 -4.38282 -2.07686 0
M  V30 6561 H 629.755 -3.53327 -2.96109 0
M  V30 6562 H 633.299 -6.75823 -1.72941 0
M  V30 6563 H 629.196 -5.9005 -2.61748 0
M  V30 6564 H 629.964 -7.91091 -2.10042 0
M  V30 6565 N 632.627 0.916307 -1.28225 0
M  V30 6566 C 633.559 2.02303 -1.07732 0
M  V30 6567 C 634.572 1.62773 -0.0298421 0
M  V30 6568 O 635.761 1.76406 -0.272626 0
M  V30 6569 C 632.861 3.33282 -0.614504 0
M  V30 6570 C 632.034 4.01439 -1.73682 0
M  V30 6571 C 631.093 5.10698 -1.26781 0
M  V30 6572 O 630.119 5.34038 -1.96958 0
M  V30 6573 N 631.321 5.80355 -0.129624 0
M  V30 6574 H 634.086 2.20442 -2.03041 0
M  V30 6575 H 631.647 1.08744 -1.19943 0
M  V30 6576 H 633.639 4.03699 -0.284397 0
M  V30 6577 H 632.209 3.11633 0.245664 0
M  V30 6578 H 631.429 3.24604 -2.23665 0
M  V30 6579 H 632.717 4.43721 -2.48976 0
M  V30 6580 H 632.115 5.6386 0.455847 0
M  V30 6581 H 630.672 6.51647 0.141224 0
M  V30 6582 N 634.105 1.10431 1.1244 0
M  V30 6583 C 635.037 0.710945 2.17895 0
M  V30 6584 C 636.05 -0.252315 1.60833 0
M  V30 6585 O 637.239 -0.03679 1.78462 0
M  V30 6586 C 634.339 0.0284262 3.38888 0
M  V30 6587 C 633.512 1.01585 4.2544 0
M  V30 6588 C 632.571 0.364826 5.24934 0
M  V30 6589 O 631.597 1.01561 5.60066 0
M  V30 6590 N 632.799 -0.87674 5.73841 0
M  V30 6591 H 635.564 1.61826 2.52255 0
M  V30 6592 H 633.125 0.993132 1.27861 0
M  V30 6593 H 635.117 -0.418568 4.0253 0
M  V30 6594 H 633.687 -0.781294 3.02679 0
M  V30 6595 H 632.907 1.64111 3.58415 0
M  V30 6596 H 634.195 1.68425 4.80115 0
M  V30 6597 H 633.593 -1.42483 5.47462 0
M  V30 6598 H 632.15 -1.26688 6.39369 0
M  V30 6599 N 635.583 -1.29855 0.893053 0
M  V30 6600 C 636.86 -1.90694 0.435336 0
M  V30 6601 C 637.24 -1.8111 -1.08454 0
M  V30 6602 O 636.588 -1.23352 -1.92345 0
M  V30 6603 C 636.798 -3.36033 0.942472 0
M  V30 6604 C 638.146 -4.13083 0.982226 0
M  V30 6605 O 639.17 -3.4491 0.889686 0
M  V30 6606 O 638.029 -5.34896 1.12022 0
M  V30 6607 H 635.123 -0.815978 0.134567 0
M  V30 6608 H 637.669 -1.38367 0.982484 0
M  V30 6609 H 636.441 -3.37132 1.9864 0
M  V30 6610 H 636.064 -3.95828 0.374952 0
M  V30 6611 N 637.061 -0.65484 -1.43351 0
M  V30 6612 C 637.993 0.0744757 -2.29079 0
M  V30 6613 C 639.006 0.7855 -1.42596 0
M  V30 6614 O 640.195 0.642986 -1.66517 0
M  V30 6615 C 637.295 1.12859 -3.19556 0
M  V30 6616 C 636.468 0.495381 -4.34586 0
M  V30 6617 C 635.527 1.44659 -5.05925 0
M  V30 6618 O 634.553 0.954567 -5.61139 0
M  V30 6619 N 635.755 2.78051 -5.09576 0
M  V30 6620 H 638.52 -0.661346 -2.92312 0
M  V30 6621 H 636.081 -0.497744 -1.54059 0
M  V30 6622 H 638.073 1.76577 -3.64147 0
M  V30 6623 H 636.643 1.76636 -2.57912 0
M  V30 6624 H 635.863 -0.32092 -3.92892 0
M  V30 6625 H 637.151 0.0534203 -5.08772 0
M  V30 6626 H 636.549 3.20584 -4.66093 0
M  V30 6627 H 635.106 3.37068 -5.57878 0
M  V30 6628 N 638.539 1.52521 -0.396863 0
M  V30 6629 C 639.788 2.00857 0.184184 0
M  V30 6630 C 640.101 1.28733 1.47265 0
M  V30 6631 O 641.307 1.67821 2.13421 0
M  V30 6632 C 639.763 3.57901 0.378787 0
M  V30 6633 C 639.371 4.38931 -0.896873 0
M  V30 6634 C 641.115 4.14504 0.915789 0
M  V30 6635 C 639.022 5.87591 -0.670133 0
M  V30 6636 H 637.952 0.750496 0.0726055 0
M  V30 6637 H 640.603 1.75965 -0.520425 0
M  V30 6638 H 638.985 3.79072 1.14543 0
M  V30 6639 H 640.159 4.29524 -1.66872 0
M  V30 6640 H 638.474 3.93586 -1.35938 0
M  V30 6641 H 641.071 5.23236 1.10126 0
M  V30 6642 H 641.414 3.71076 1.88701 0
M  V30 6643 H 641.947 3.97253 0.208523 0
M  V30 6644 H 638.686 6.35355 -1.61257 0
M  V30 6645 H 638.206 5.99767 0.0626368 0
M  V30 6646 H 639.885 6.46268 -0.307577 0
M  V30 6647 N 640.017 0.126909 1.57088 0
M  V30 6648 C 641.263 -0.529952 1.95753 0
M  V30 6649 C 641.596 -1.65823 1.01077 0
M  V30 6650 O 640.871 -1.94437 0.0494162 0
M  V30 6651 C 641.154 -1.05517 3.44294 0
M  V30 6652 C 641.007 0.0702253 4.49745 0
M  V30 6653 C 642.326 -1.9435 3.94862 0
M  V30 6654 H 639.445 -0.191168 0.711775 0
M  V30 6655 H 642.087 0.204071 1.88901 0
M  V30 6656 H 640.237 -1.68069 3.50264 0
M  V30 6657 H 641.909 0.705834 4.55868 0
M  V30 6658 H 640.152 0.732259 4.27575 0
M  V30 6659 H 640.823 -0.338642 5.5096 0
M  V30 6660 H 643.299 -1.41658 3.91244 0
M  V30 6661 H 642.175 -2.28015 4.993 0
M  V30 6662 H 642.436 -2.87299 3.36024 0
M  V30 6663 N 641.495 -1.56914 -0.146875 0
M  V30 6664 C 642.442 -1.98275 -1.18134 0
M  V30 6665 C 643.412 -0.850367 -1.42681 0
M  V30 6666 O 644.597 -1.11244 -1.55014 0
M  V30 6667 C 641.737 -2.36861 -2.5098 0
M  V30 6668 C 640.85 -3.63391 -2.33605 0
M  V30 6669 C 639.985 -3.91079 -3.59486 0
M  V30 6670 C 639.024 -5.10879 -3.37149 0
M  V30 6671 N 638.161 -5.34577 -4.55161 0
M  V30 6672 H 643.001 -2.8645 -0.821622 0
M  V30 6673 H 640.538 -1.41718 -0.394248 0
M  V30 6674 H 642.496 -2.57262 -3.28439 0
M  V30 6675 H 641.126 -1.51766 -2.84898 0
M  V30 6676 H 640.178 -3.50766 -1.47199 0
M  V30 6677 H 641.49 -4.51007 -2.13059 0
M  V30 6678 H 640.644 -4.11979 -4.45374 0
M  V30 6679 H 639.383 -3.01885 -3.83036 0
M  V30 6680 H 638.388 -4.89853 -2.49649 0
M  V30 6681 H 639.613 -6.01626 -3.14997 0
M  V30 6682 H 637.559 -4.48337 -4.78884 0
M  V30 6683 H 637.476 -6.16463 -4.37618 0
M  V30 6684 H 638.744 -5.59975 -5.42263 0
M  V30 6685 N 642.974 0.416227 -1.52004 0
M  V30 6686 C 643.884 1.53147 -1.77717 0
M  V30 6687 C 644.9 1.609 -0.662368 0
M  V30 6688 O 646.076 1.77747 -0.946991 0
M  V30 6689 C 643.141 2.88948 -1.91598 0
M  V30 6690 C 642.202 2.9114 -3.15493 0
M  V30 6691 C 641.435 4.20464 -3.28703 0
M  V30 6692 O 641.658 5.13981 -2.47345 0
M  V30 6693 O 640.592 4.29368 -4.21813 0
M  V30 6694 H 644.418 1.34357 -2.72363 0
M  V30 6695 H 642.003 0.601373 -1.36762 0
M  V30 6696 H 643.885 3.69505 -2.02593 0
M  V30 6697 H 642.56 3.07821 -1.00141 0
M  V30 6698 H 641.467 2.09461 -3.09962 0
M  V30 6699 H 642.8 2.77216 -4.06709 0
M  V30 6700 N 644.452 1.42507 0.673017 0
M  V30 6701 C 645.729 1.33554 1.42908 0
M  V30 6702 C 646.109 -0.0262211 2.11084 0
M  V30 6703 O 645.457 -1.04181 2.03368 0
M  V30 6704 C 645.667 2.50498 2.43006 0
M  V30 6705 C 647.015 2.92694 3.07596 0
M  V30 6706 O 648.039 2.50401 2.53333 0
M  V30 6707 O 646.898 3.65899 4.05931 0
M  V30 6708 H 643.992 0.526785 0.637516 0
M  V30 6709 H 646.538 1.54518 0.701591 0
M  V30 6710 H 645.31 3.41272 1.9144 0
M  V30 6711 H 644.933 2.3153 3.23233 0
M  V30 6712 N 645.93 -0.909495 1.28709 0
M  V30 6713 C 647.155 -1.69801 1.1909 0
M  V30 6714 C 647.58 -1.86479 -0.246388 0
M  V30 6715 O 646.938 -1.37802 -1.17815 0
M  V30 6716 C 646.986 -3.06543 1.89904 0
M  V30 6717 O 646.09 -3.94268 1.2094 0
M  V30 6718 H 645.431 -0.519783 0.413185 0
M  V30 6719 H 647.961 -1.13689 1.70106 0
M  V30 6720 H 647.971 -3.56748 1.97977 0
M  V30 6721 H 646.646 -2.93722 2.94449 0
M  V30 6722 H 645.223 -3.52702 1.2106 0
M  V30 6723 N 647.408 -1.11026 -1.11852 0
M  V30 6724 C 648.654 -0.857729 -1.83768 0
M  V30 6725 C 648.987 0.615143 -1.842 0
M  V30 6726 O 648.262 1.45391 -1.29196 0
M  V30 6727 C 648.545 -1.41453 -3.31154 0
M  V30 6728 C 648.398 -2.95471 -3.39142 0
M  V30 6729 C 649.717 -1.0619 -4.27097 0
M  V30 6730 H 646.836 -0.313044 -0.667212 0
M  V30 6731 H 649.478 -1.37443 -1.31185 0
M  V30 6732 H 647.628 -0.975052 -3.76065 0
M  V30 6733 H 649.3 -3.4799 -3.02821 0
M  V30 6734 H 647.543 -3.31759 -2.79497 0
M  V30 6735 H 648.214 -3.29515 -4.42859 0
M  V30 6736 H 650.69 -1.44122 -3.90344 0
M  V30 6737 H 649.566 -1.47832 -5.28618 0
M  V30 6738 H 649.827 0.0278912 -4.42091 0
M  V30 6739 N 648.886 1.2938 -0.899927 0
M  V30 6740 C 649.796 2.31462 -0.382437 0
M  V30 6741 C 650.812 1.65956 0.522929 0
M  V30 6742 O 651.988 1.97131 0.412454 0
M  V30 6743 C 649.053 3.44595 0.381472 0
M  V30 6744 C 648.114 4.25692 -0.555444 0
M  V30 6745 C 647.347 5.33422 0.172102 0
M  V30 6746 O 647.57 5.53053 1.396 0
M  V30 6747 O 646.504 5.99939 -0.485491 0
M  V30 6748 H 650.33 2.77706 -1.22934 0
M  V30 6749 H 647.915 1.33821 -0.664259 0
M  V30 6750 H 649.797 4.13474 0.813442 0
M  V30 6751 H 648.472 3.00458 1.20443 0
M  V30 6752 H 647.379 3.59453 -1.03653 0
M  V30 6753 H 648.712 4.73471 -1.34483 0
M  V30 6754 N 650.364 0.662433 1.43002 0
M  V30 6755 C 651.327 -0.0142016 2.29196 0
M  V30 6756 C 652.327 -0.741394 1.42688 0
M  V30 6757 O 653.517 -0.581257 1.64216 0
M  V30 6758 C 650.649 -1.03084 3.24941 0
M  V30 6759 H 651.842 0.7443 2.90517 0
M  V30 6760 H 649.395 0.424133 1.50435 0
M  V30 6761 H 650.13 -1.81826 2.68533 0
M  V30 6762 H 649.915 -0.512946 3.8873 0
M  V30 6763 H 651.405 -1.50308 3.89612 0
M  V30 6764 N 651.842 -1.52309 0.404946 0
M  V30 6765 C 653.088 -2.02065 -0.172455 0
M  V30 6766 C 653.421 -1.29022 -1.45145 0
M  V30 6767 O 652.696 -0.395284 -1.90441 0
M  V30 6768 C 652.979 -3.5759 -0.424433 0
M  V30 6769 C 652.832 -4.41287 0.870945 0
M  V30 6770 C 654.151 -4.23186 -1.20837 0
M  V30 6771 H 651.27 -0.734454 -0.0612035 0
M  V30 6772 H 653.912 -1.82236 0.53759 0
M  V30 6773 H 652.062 -3.74617 -1.02929 0
M  V30 6774 H 653.734 -4.3598 1.50729 0
M  V30 6775 H 651.977 -4.07669 1.48284 0
M  V30 6776 H 652.648 -5.48171 0.649083 0
M  V30 6777 H 655.124 -4.10232 -0.696338 0
M  V30 6778 H 654 -5.31953 -1.35343 0
M  V30 6779 H 654.261 -3.81862 -2.22786 0
M  V30 6780 N 653.32 -0.135238 -1.57019 0
M  V30 6781 C 654.568 0.51777 -1.95355 0
M  V30 6782 C 654.889 1.6617 -1.02042 0
M  V30 6783 O 654.159 1.95738 -0.0797343 0
M  V30 6784 H 652.739 0.194264 -0.721298 0
M  V30 6785 H 655.401 -0.207983 -1.93787 0
M  V30 6786 H 654.497 0.901675 -2.98791 0
M  V30 6787 N 654.798 1.5699 0.138552 0
M  V30 6788 C 655.761 1.97984 1.15478 0
M  V30 6789 C 656.761 0.867416 1.35398 0
M  V30 6790 O 657.951 1.13387 1.32246 0
M  V30 6791 C 655.083 2.3031 2.51337 0
M  V30 6792 H 656.276 2.88953 0.802896 0
M  V30 6793 H 653.829 1.51555 0.382189 0
M  V30 6794 H 654.564 1.42159 2.91481 0
M  V30 6795 H 654.349 3.11425 2.38237 0
M  V30 6796 H 655.839 2.62834 3.24512 0
M  V30 6797 N 656.276 -0.40816 1.52223 0
M  V30 6798 C 657.208 -1.51642 1.71864 0
M  V30 6799 C 658.221 -1.51378 0.599056 0
M  V30 6800 O 659.41 -1.55626 0.874239 0
M  V30 6801 C 656.51 -2.90534 1.74481 0
M  V30 6802 C 655.683 -3.14979 3.03491 0
M  V30 6803 C 654.742 -4.33749 2.97907 0
M  V30 6804 O 653.768 -4.30982 3.71811 0
M  V30 6805 N 654.97 -5.38912 2.15764 0
M  V30 6806 H 657.735 -1.35188 2.67478 0
M  V30 6807 H 655.296 -0.597468 1.50472 0
M  V30 6808 H 657.288 -3.68056 1.68275 0
M  V30 6809 H 655.858 -3.00441 0.863363 0
M  V30 6810 H 655.078 -2.25492 3.23337 0
M  V30 6811 H 656.366 -3.28156 3.88833 0
M  V30 6812 H 655.764 -5.44008 1.55152 0
M  V30 6813 H 654.321 -6.15174 2.15415 0
M  V30 6814 N 657.755 -1.42862 -0.66545 0
M  V30 6815 C 658.685 -1.49867 -1.79059 0
M  V30 6816 C 659.666 -0.354394 -1.66367 0
M  V30 6817 O 660.851 -0.569969 -1.85647 0
M  V30 6818 C 657.981 -1.40943 -3.17415 0
M  V30 6819 C 656.935 -2.53495 -3.44854 0
M  V30 6820 C 656.261 -2.29626 -4.82883 0
M  V30 6821 C 657.561 -3.95781 -3.40815 0
M  V30 6822 H 659.255 -2.44037 -1.73453 0
M  V30 6823 H 656.801 -1.17456 -0.833071 0
M  V30 6824 H 658.754 -1.4445 -3.95869 0
M  V30 6825 H 657.478 -0.432716 -3.23721 0
M  V30 6826 H 656.137 -2.4932 -2.68766 0
M  V30 6827 H 655.785 -1.30226 -4.8585 0
M  V30 6828 H 655.485 -3.05065 -5.02204 0
M  V30 6829 H 657.009 -2.34897 -5.63609 0
M  V30 6830 H 658.423 -4.01508 -4.09224 0
M  V30 6831 H 656.82 -4.71148 -3.71672 0
M  V30 6832 H 657.89 -4.21786 -2.39216 0
M  V30 6833 N 659.233 0.902656 -1.29189 0
M  V30 6834 C 660.18 2.00643 -1.14066 0
M  V30 6835 C 661.15 1.66064 -0.0347756 0
M  V30 6836 O 662.335 1.8973 -0.201752 0
M  V30 6837 C 659.475 3.35214 -0.820104 0
M  V30 6838 C 658.588 3.82594 -2.00614 0
M  V30 6839 C 657.723 5.05727 -1.62522 0
M  V30 6840 C 656.762 5.45469 -2.77724 0
M  V30 6841 N 655.899 6.59789 -2.40048 0
M  V30 6842 H 660.739 2.1291 -2.08502 0
M  V30 6843 H 658.276 1.04271 -1.03759 0
M  V30 6844 H 660.234 4.12643 -0.614949 0
M  V30 6845 H 658.864 3.22682 0.0873452 0
M  V30 6846 H 657.916 3.01226 -2.32308 0
M  V30 6847 H 659.228 4.07999 -2.86946 0
M  V30 6848 H 658.382 5.90732 -1.38277 0
M  V30 6849 H 657.121 4.82155 -0.733333 0
M  V30 6850 H 656.126 4.59 -3.02653 0
M  V30 6851 H 657.351 5.71024 -3.67572 0
M  V30 6852 H 655.297 6.37826 -1.53343 0
M  V30 6853 H 655.214 6.84975 -3.19914 0
M  V30 6854 H 656.482 7.4807 -2.19116 0
M  V30 6855 N 660.711 1.11618 1.11262 0
M  V30 6856 C 661.957 0.867463 1.83311 0
M  V30 6857 C 662.29 -0.605366 1.84524 0
M  V30 6858 O 661.565 -1.44704 1.29965 0
M  V30 6859 C 661.848 1.43207 3.30399 0
M  V30 6860 C 661.701 2.97265 3.3757 0
M  V30 6861 C 663.02 1.08454 4.26528 0
M  V30 6862 H 660.139 0.316578 0.665543 0
M  V30 6863 H 662.781 1.38137 1.30454 0
M  V30 6864 H 660.931 0.994982 3.75543 0
M  V30 6865 H 662.603 3.49591 3.00971 0
M  V30 6866 H 660.846 3.33237 2.77733 0
M  V30 6867 H 661.517 3.31859 4.41105 0
M  V30 6868 H 663.993 1.4619 3.89574 0
M  V30 6869 H 662.869 1.50633 5.27826 0
M  V30 6870 H 663.13 -0.00444568 4.421 0
M  V30 6871 N 662.189 -1.289 0.906776 0
M  V30 6872 C 663.419 -1.99112 0.551168 0
M  V30 6873 C 663.827 -1.67998 -0.870243 0
M  V30 6874 O 663.17 -0.92525 -1.58697 0
M  V30 6875 C 663.232 -3.53162 0.672065 0
M  V30 6876 C 662.896 -4.07849 2.06174 0
M  V30 6877 C 663.893 -4.22212 3.0337 0
M  V30 6878 C 661.578 -4.4271 2.37304 0
M  V30 6879 C 663.572 -4.70678 4.29815 0
M  V30 6880 C 661.259 -4.90871 3.6399 0
M  V30 6881 C 662.257 -5.04811 4.6006 0
M  V30 6882 O 661.945 -5.51925 5.84495 0
M  V30 6883 H 661.677 -0.642728 0.209469 0
M  V30 6884 H 664.231 -1.65234 1.22012 0
M  V30 6885 H 662.461 -3.86662 -0.05394 0
M  V30 6886 H 664.15 -4.046 0.324579 0
M  V30 6887 H 664.916 -3.9556 2.80637 0
M  V30 6888 H 660.795 -4.31114 1.63283 0
M  V30 6889 H 664.339 -4.81474 5.04806 0
M  V30 6890 H 660.236 -5.16961 3.86551 0
M  V30 6891 H 661.004 -5.70225 5.87185 0
M  V30 6892 N 663.667 -0.670007 -1.42649 0
M  V30 6893 C 664.617 0.0339546 -2.27975 0
M  V30 6894 C 665.601 0.778295 -1.40824 0
M  V30 6895 O 666.793 0.657997 -1.64315 0
M  V30 6896 C 663.922 0.987899 -3.28779 0
M  V30 6897 C 663.008 0.241153 -4.23414 0
M  V30 6898 N 663.399 -0.751392 -5.00188 0
M  V30 6899 C 661.697 0.480269 -4.43407 0
M  V30 6900 C 662.398 -1.19615 -5.69269 0
M  V30 6901 N 661.374 -0.527045 -5.41039 0
M  V30 6902 H 665.176 -0.727425 -2.84756 0
M  V30 6903 H 662.69 -0.498673 -1.54554 0
M  V30 6904 H 664.687 1.50716 -3.88703 0
M  V30 6905 H 663.347 1.74916 -2.73559 0
M  V30 6906 H 664.358 -1.13075 -5.05405 0
M  V30 6907 H 661.035 1.2214 -3.99234 0
M  V30 6908 H 662.425 -2.01836 -6.40868 0
M  V30 6909 N 665.145 1.52092 -0.413018 0
M  V30 6910 C 666.077 2.24819 0.445994 0
M  V30 6911 C 667.09 1.27925 1.00692 0
M  V30 6912 O 668.279 1.53845 0.905204 0
M  V30 6913 C 665.379 2.96951 1.6332 0
M  V30 6914 C 664.552 4.20746 1.19548 0
M  V30 6915 C 663.611 4.75668 2.25003 0
M  V30 6916 O 662.637 5.38148 1.85434 0
M  V30 6917 N 663.839 4.57579 3.57214 0
M  V30 6918 H 666.604 2.99176 -0.177209 0
M  V30 6919 H 664.165 1.60102 -0.240601 0
M  V30 6920 H 666.157 3.30586 2.33441 0
M  V30 6921 H 664.727 2.25756 2.16225 0
M  V30 6922 H 663.947 3.92881 0.32224 0
M  V30 6923 H 665.235 5.01132 0.880033 0
M  V30 6924 H 664.633 4.07758 3.92109 0
M  V30 6925 H 663.19 4.95642 4.23299 0
M  V30 6926 N 666.623 0.143563 1.56945 0
M  V30 6927 C 667.555 -0.828353 2.13708 0
M  V30 6928 C 668.568 -1.21313 1.08568 0
M  V30 6929 O 669.757 -1.1578 1.35857 0
M  V30 6930 C 666.857 -2.12248 2.64204 0
M  V30 6931 C 666.03 -1.90561 3.93707 0
M  V30 6932 C 665.089 -3.03931 4.29549 0
M  V30 6933 O 664.115 -2.75772 4.97934 0
M  V30 6934 N 665.317 -4.31016 3.88852 0
M  V30 6935 H 668.082 -0.343242 2.97728 0
M  V30 6936 H 665.643 -0.0401152 1.6185 0
M  V30 6937 H 667.635 -2.87132 2.85197 0
M  V30 6938 H 666.205 -2.52033 1.84928 0
M  V30 6939 H 665.425 -0.997327 3.81375 0
M  V30 6940 H 666.713 -1.73405 4.78339 0
M  V30 6941 H 666.111 -4.56762 3.33743 0
M  V30 6942 H 664.668 -5.02691 4.14903 0
M  V30 6943 N 668.101 -1.57061 -0.130224 0
M  V30 6944 C 669.331 -1.88159 -0.853217 0
M  V30 6945 C 669.739 -0.731675 -1.7448 0
M  V30 6946 O 669.082 0.307035 -1.81116 0
M  V30 6947 C 669.144 -3.1415 -1.74785 0
M  V30 6948 C 668.808 -4.45202 -1.03173 0
M  V30 6949 C 669.805 -5.18526 -0.377759 0
M  V30 6950 C 667.49 -4.91912 -1.01624 0
M  V30 6951 C 669.484 -6.36775 0.282123 0
M  V30 6952 C 667.171 -6.10082 -0.352555 0
M  V30 6953 C 668.169 -6.82361 0.295483 0
M  V30 6954 O 667.857 -7.98284 0.948606 0
M  V30 6955 H 667.589 -0.627596 -0.251197 0
M  V30 6956 H 670.143 -2.05034 -0.1226 0
M  V30 6957 H 668.373 -2.93328 -2.51983 0
M  V30 6958 H 670.062 -3.31359 -2.34427 0
M  V30 6959 H 670.828 -4.83498 -0.381417 0
M  V30 6960 H 666.707 -4.35566 -1.51007 0
M  V30 6961 H 670.251 -6.93129 0.788525 0
M  V30 6962 H 666.148 -6.44569 -0.346621 0
M  V30 6963 H 666.916 -8.14054 0.851954 0
M  V30 6964 N 669.579 0.400081 -1.52437 0
M  V30 6965 C 670.511 1.50729 -1.72666 0
M  V30 6966 C 671.524 1.51058 -0.607075 0
M  V30 6967 O 672.713 1.5516 -0.88248 0
M  V30 6968 C 669.813 2.89604 -1.76019 0
M  V30 6969 C 668.986 3.13365 -3.05157 0
M  V30 6970 C 668.045 4.32163 -3.00203 0
M  V30 6971 O 667.071 4.29004 -3.74092 0
M  V30 6972 N 668.273 5.3776 -2.18619 0
M  V30 6973 H 671.038 1.33767 -2.68191 0
M  V30 6974 H 668.599 0.58948 -1.50787 0
M  V30 6975 H 670.591 3.67159 -1.70225 0
M  V30 6976 H 669.161 2.99979 -0.879284 0
M  V30 6977 H 668.381 2.23774 -3.24529 0
M  V30 6978 H 669.669 3.26089 -3.90568 0
M  V30 6979 H 669.067 5.43177 -1.58035 0
M  V30 6980 H 667.624 6.14023 -2.18674 0
M  V30 6981 N 671.057 1.43213 0.657864 0
M  V30 6982 C 672.334 1.35063 1.41483 0
M  V30 6983 C 672.714 -0.0038314 2.111 0
M  V30 6984 O 672.062 -1.02018 2.04462 0
M  V30 6985 C 672.272 2.53061 2.40335 0
M  V30 6986 C 673.62 2.9594 3.04474 0
M  V30 6987 O 674.644 2.53074 2.50663 0
M  V30 6988 O 673.503 3.70184 4.02027 0
M  V30 6989 H 670.597 0.533517 0.631893 0
M  V30 6990 H 673.143 1.55253 0.685162 0
M  V30 6991 H 671.915 3.43283 1.87809 0
M  V30 6992 H 671.538 2.34945 3.20759 0
M  V30 6993 N 672.536 -0.895792 1.29666 0
M  V30 6994 C 673.483 -2.00035 1.15129 0
M  V30 6995 C 674.453 -1.66043 0.0435819 0
M  V30 6996 O 675.638 -1.89621 0.211811 0
M  V30 6997 C 672.778 -3.34774 0.83787 0
M  V30 6998 C 671.891 -3.81525 2.0264 0
M  V30 6999 C 671.026 -5.04858 1.65201 0
M  V30 7000 C 670.065 -5.43988 2.80612 0
M  V30 7001 N 669.202 -6.58507 2.43544 0
M  V30 7002 H 674.042 -2.11802 2.09628 0
M  V30 7003 H 671.579 -1.03719 1.04311 0
M  V30 7004 H 673.537 -4.12311 0.636824 0
M  V30 7005 H 672.167 -3.22724 -0.0702314 0
M  V30 7006 H 671.219 -2.9999 2.33903 0
M  V30 7007 H 672.531 -4.06472 2.89106 0
M  V30 7008 H 671.685 -5.8999 1.41408 0
M  V30 7009 H 670.424 -4.81759 0.758893 0
M  V30 7010 H 669.429 -4.57388 3.05083 0
M  V30 7011 H 670.654 -5.69066 3.70595 0
M  V30 7012 H 668.6 -6.37004 1.56724 0
M  V30 7013 H 668.517 -6.83269 3.23542 0
M  V30 7014 H 669.785 -7.46897 2.2308 0
M  V30 7015 N 674.014 -1.12206 -1.10668 0
M  V30 7016 C 675.239 -0.898938 -1.86906 0
M  V30 7017 C 675.664 0.546346 -1.79991 0
M  V30 7018 O 675.022 1.38655 -1.1681 0
M  V30 7019 C 675.07 -1.37529 -3.33344 0
M  V30 7020 O 674.174 -0.55218 -4.08687 0
M  V30 7021 H 673.515 -0.323163 -0.580053 0
M  V30 7022 H 676.045 -1.49355 -1.39837 0
M  V30 7023 H 676.055 -1.3733 -3.84193 0
M  V30 7024 H 674.73 -2.42767 -3.37693 0
M  V30 7025 H 673.307 -0.620947 -3.67694 0
M  V30 7026 N 675.492 1.28418 -0.913599 0
M  V30 7027 C 676.908 1.47411 -0.611728 0
M  V30 7028 C 677.108 1.83018 0.843008 0
M  V30 7029 O 676.164 1.93505 1.6221 0
M  V30 7030 C 677.477 2.57703 -1.5495 0
M  V30 7031 C 679.025 2.71572 -1.5562 0
M  V30 7032 C 679.5 3.85008 -2.48058 0
M  V30 7033 N 680.991 3.92361 -2.46184 0
M  V30 7034 C 681.726 4.79516 -3.14407 0
M  V30 7035 N 681.222 5.71262 -3.91958 0
M  V30 7036 N 683.015 4.73125 -3.03495 0
M  V30 7037 H 675.166 1.03585 -1.85429 0
M  V30 7038 H 677.429 0.515907 -0.795326 0
M  V30 7039 H 677.135 2.38298 -2.58663 0
M  V30 7040 H 677.009 3.54801 -1.28048 0
M  V30 7041 H 679.396 2.90366 -0.526441 0
M  V30 7042 H 679.477 1.75006 -1.86565 0
M  V30 7043 H 679.121 3.66969 -3.51136 0
M  V30 7044 H 679.051 4.80971 -2.14416 0
M  V30 7045 H 681.542 3.26749 -1.89851 0
M  V30 7046 H 681.855 6.34593 -4.41034 0
M  V30 7047 H 680.2 5.71103 -3.96063 0
M  V30 7048 H 683.391 4.00442 -2.42413 0
M  V30 7049 H 683.564 5.40834 -3.56935 0
M  V30 7050 N 676.97 0.677563 1.42291 0
M  V30 7051 C 677.88 0.000962654 2.346 0
M  V30 7052 C 678.896 -0.785833 1.55244 0
M  V30 7053 O 680.072 -0.727523 1.87801 0
M  V30 7054 C 677.137 -0.936746 3.33805 0
M  V30 7055 C 676.198 -0.144173 4.29058 0
M  V30 7056 C 675.431 -1.03722 5.23524 0
M  V30 7057 O 675.654 -2.27675 5.22992 0
M  V30 7058 O 674.588 -0.496542 5.99848 0
M  V30 7059 H 678.414 0.761397 2.94001 0
M  V30 7060 H 675.999 0.43781 1.42841 0
M  V30 7061 H 677.881 -1.47497 3.94744 0
M  V30 7062 H 676.556 -1.67698 2.76874 0
M  V30 7063 H 675.463 0.438224 3.71524 0
M  V30 7064 H 676.796 0.55701 4.89038 0
M  V30 7065 N 678.448 -1.51871 0.421078 0
M  V30 7066 C 679.678 -2.06057 -0.149723 0
M  V30 7067 C 680.086 -1.29002 -1.38402 0
M  V30 7068 O 679.429 -0.338385 -1.80556 0
M  V30 7069 C 679.491 -3.55216 -0.553339 0
M  V30 7070 C 679.155 -4.53408 0.571879 0
M  V30 7071 C 680.152 -4.99586 1.4391 0
M  V30 7072 C 677.837 -4.967 0.747979 0
M  V30 7073 C 679.831 -5.87711 2.46727 0
M  V30 7074 C 677.518 -5.84619 1.77944 0
M  V30 7075 C 678.516 -6.30021 2.63748 0
M  V30 7076 O 678.204 -7.16197 3.65126 0
M  V30 7077 H 677.936 -0.675744 -0.0186102 0
M  V30 7078 H 680.49 -1.96618 0.594166 0
M  V30 7079 H 678.72 -3.62381 -1.34969 0
M  V30 7080 H 680.409 -3.91992 -1.05342 0
M  V30 7081 H 681.175 -4.66846 1.31451 0
M  V30 7082 H 677.054 -4.60913 0.0897357 0
M  V30 7083 H 680.598 -6.2307 3.13734 0
M  V30 7084 H 676.495 -6.16771 1.90429 0
M  V30 7085 H 677.263 -7.34337 3.61512 0
M  V30 7086 N 679.926 -0.151884 -1.56866 0
M  V30 7087 C 681.203 0.543328 -1.87902 0
M  V30 7088 C 681.583 1.82636 -1.05864 0
M  V30 7089 O 680.931 2.28028 -0.146868 0
M  V30 7090 C 681.141 0.804056 -3.39611 0
M  V30 7091 C 682.489 1.14267 -4.08935 0
M  V30 7092 O 683.513 0.893248 -3.44818 0
M  V30 7093 O 682.372 1.61229 -5.22176 0
M  V30 7094 H 679.466 0.277724 -0.778973 0
M  V30 7095 H 682.012 -0.188862 -1.68646 0
M  V30 7096 H 680.784 -0.103772 -3.91162 0
M  V30 7097 H 680.407 1.59025 -3.64413 0
M  V30 7098 N 681.404 1.57128 0.121893 0
M  V30 7099 C 682.336 1.96773 1.17529 0
M  V30 7100 C 683.349 0.866668 1.37814 0
M  V30 7101 O 684.538 1.14497 1.3694 0
M  V30 7102 C 681.638 2.24832 2.53582 0
M  V30 7103 C 680.811 3.56138 2.53939 0
M  V30 7104 C 679.87 3.72443 3.71716 0
M  V30 7105 O 678.896 4.44584 3.55434 0
M  V30 7106 N 680.098 3.10993 4.90167 0
M  V30 7107 H 682.863 2.87743 0.838086 0
M  V30 7108 H 680.424 1.58881 0.311199 0
M  V30 7109 H 682.416 2.32958 3.30927 0
M  V30 7110 H 680.986 1.40002 2.79496 0
M  V30 7111 H 680.206 3.59226 1.62329 0
M  V30 7112 H 681.494 4.42448 2.51231 0
M  V30 7113 H 680.892 2.52345 5.06299 0
M  V30 7114 H 679.449 3.24644 5.65198 0
M  V30 7115 N 682.882 -0.391992 1.52647 0
M  V30 7116 C 683.812 -1.48517 1.8018 0
M  V30 7117 C 684.793 -1.57039 0.653667 0
M  V30 7118 O 685.978 -1.72036 0.900962 0
M  V30 7119 C 683.108 -2.86161 1.96797 0
M  V30 7120 C 682.062 -2.92481 3.12472 0
M  V30 7121 C 681.388 -4.32546 3.14338 0
M  V30 7122 C 682.688 -2.624 4.51601 0
M  V30 7123 H 684.382 -1.25726 2.71723 0
M  V30 7124 H 681.928 -0.603387 1.30749 0
M  V30 7125 H 683.881 -3.62639 2.14641 0
M  V30 7126 H 682.605 -3.10283 1.01941 0
M  V30 7127 H 681.264 -2.18451 2.94406 0
M  V30 7128 H 680.912 -4.53703 2.1717 0
M  V30 7129 H 680.612 -4.37695 3.92042 0
M  V30 7130 H 682.136 -5.10934 3.34333 0
M  V30 7131 H 683.55 -3.28596 4.69785 0
M  V30 7132 H 681.947 -2.78903 5.3135 0
M  V30 7133 H 683.017 -1.57754 4.58521 0
M  V30 7134 N 684.36 -1.4356 -0.65026 0
M  V30 7135 C 685.59 -1.48563 -1.4357 0
M  V30 7136 C 685.998 -0.103041 -1.88919 0
M  V30 7137 O 685.341 0.897602 -1.60277 0
M  V30 7138 C 685.403 -2.37181 -2.70158 0
M  V30 7139 C 685.067 -3.84673 -2.4673 0
M  V30 7140 C 686.064 -4.75704 -2.09765 0
M  V30 7141 C 683.749 -4.29189 -2.60963 0
M  V30 7142 C 685.743 -6.09249 -1.87334 0
M  V30 7143 C 683.43 -5.62787 -2.38147 0
M  V30 7144 C 684.428 -6.52634 -2.01389 0
M  V30 7145 O 684.116 -7.83761 -1.78813 0
M  V30 7146 H 683.848 -0.506743 -0.447423 0
M  V30 7147 H 686.402 -1.89001 -0.80423 0
M  V30 7148 H 684.632 -1.91636 -3.35876 0
M  V30 7149 H 686.321 -2.33354 -3.32116 0
M  V30 7150 H 687.087 -4.42589 -1.98343 0
M  V30 7151 H 682.966 -3.59529 -2.88548 0
M  V30 7152 H 686.51 -6.7934 -1.58567 0
M  V30 7153 H 682.407 -5.95469 -2.49173 0
M  V30 7154 H 683.175 -7.95368 -1.93214 0
M  V30 7155 N 685.838 0.888903 -1.30139 0
M  V30 7156 C 686.748 2.02705 -1.18101 0
M  V30 7157 C 687.764 1.73702 -0.101809 0
M  V30 7158 O 688.94 1.98906 -0.315984 0
M  V30 7159 C 686.005 3.35616 -0.869651 0
M  V30 7160 C 685.066 3.78067 -2.03381 0
M  V30 7161 C 684.299 5.04635 -1.73721 0
M  V30 7162 O 684.522 5.66531 -0.663267 0
M  V30 7163 O 683.456 5.43399 -2.58845 0
M  V30 7164 H 687.282 2.15788 -2.13704 0
M  V30 7165 H 684.867 1.01426 -1.09695 0
M  V30 7166 H 686.749 4.15358 -0.711043 0
M  V30 7167 H 685.424 3.23651 0.0565002 0
M  V30 7168 H 684.331 2.99046 -2.24772 0
M  V30 7169 H 685.664 3.94631 -2.94155 0
M  V30 7170 N 687.317 1.12792 1.10072 0
M  V30 7171 C 688.227 0.812369 2.20086 0
M  V30 7172 C 689.243 -0.200349 1.72843 0
M  V30 7173 O 690.419 -0.0330262 2.01373 0
M  V30 7174 C 687.484 0.275685 3.45602 0
M  V30 7175 C 686.545 1.34881 4.07561 0
M  V30 7176 C 685.778 0.837639 5.27086 0
M  V30 7177 O 686.001 -0.327224 5.69461 0
M  V30 7178 O 684.935 1.60894 5.79997 0
M  V30 7179 H 688.761 1.73133 2.49517 0
M  V30 7180 H 686.346 0.904863 1.18881 0
M  V30 7181 H 688.228 -0.0185375 4.21396 0
M  V30 7182 H 686.903 -0.615783 3.17789 0
M  V30 7183 H 685.81 1.69625 3.33434 0
M  V30 7184 H 687.143 2.21418 4.39585 0
M  V30 7185 N 688.795 -1.27931 0.920396 0
M  V30 7186 C 690.025 -1.98516 0.572256 0
M  V30 7187 C 690.433 -1.68912 -0.852375 0
M  V30 7188 O 689.776 -0.94203 -1.57707 0
M  V30 7189 C 689.838 -3.5243 0.709485 0
M  V30 7190 C 689.502 -4.0564 2.10489 0
M  V30 7191 C 690.499 -4.1897 3.07831 0
M  V30 7192 C 688.184 -4.40168 2.41986 0
M  V30 7193 C 690.178 -4.66093 4.34783 0
M  V30 7194 C 687.865 -4.86983 3.69176 0
M  V30 7195 C 688.863 -4.99903 4.65388 0
M  V30 7196 O 688.551 -5.45694 5.90316 0
M  V30 7197 H 688.283 -0.64047 0.216274 0
M  V30 7198 H 690.837 -1.6393 1.23758 0
M  V30 7199 H 689.067 -3.86698 -0.0129263 0
M  V30 7200 H 690.756 -4.04233 0.367474 0
M  V30 7201 H 691.522 -3.92562 2.84816 0
M  V30 7202 H 687.401 -4.29358 1.67846 0
M  V30 7203 H 690.945 -4.76092 5.09884 0
M  V30 7204 H 686.842 -5.12832 3.92012 0
M  V30 7205 H 687.61 -5.63965 5.932 0
M  V30 7206 N 690.273 -0.685099 -1.4193 0
M  V30 7207 C 691.501 -0.220372 -2.05723 0
M  V30 7208 C 691.916 1.12642 -1.51516 0
M  V30 7209 O 691.273 1.70182 -0.659114 0
M  V30 7210 C 691.324 -0.157974 -3.61155 0
M  V30 7211 O 691.045 -1.45156 -4.13354 0
M  V30 7212 C 692.546 0.329009 -4.42077 0
M  V30 7213 H 689.766 -0.104725 -0.662777 0
M  V30 7214 H 692.31 -0.934736 -1.81887 0
M  V30 7215 H 690.465 0.507144 -3.84066 0
M  V30 7216 H 690.879 -1.33172 -5.07312 0
M  V30 7217 H 692.353 0.321559 -5.51063 0
M  V30 7218 H 692.83 1.36608 -4.17414 0
M  V30 7219 H 693.436 -0.304737 -4.24207 0
M  V30 7220 N 691.751 1.51645 -0.429126 0
M  V30 7221 C 693.167 1.59394 -0.080994 0
M  V30 7222 C 693.367 1.44064 1.40882 0
M  V30 7223 O 692.423 1.27771 2.17786 0
M  V30 7224 C 693.736 2.94779 -0.593773 0
M  V30 7225 C 695.284 3.08067 -0.553494 0
M  V30 7226 C 695.759 4.45963 -1.04311 0
M  V30 7227 N 697.25 4.5226 -1.00076 0
M  V30 7228 C 697.985 5.57268 -1.35056 0
M  V30 7229 N 697.481 6.69734 -1.77282 0
M  V30 7230 N 699.274 5.47582 -1.26925 0
M  V30 7231 H 691.425 1.59856 -1.39857 0
M  V30 7232 H 693.688 0.753095 -0.575805 0
M  V30 7233 H 693.394 3.11342 -1.63583 0
M  V30 7234 H 693.268 3.77197 -0.0142202 0
M  V30 7235 H 695.655 2.91177 0.479556 0
M  V30 7236 H 695.736 2.27508 -1.16935 0
M  V30 7237 H 695.38 4.63598 -2.07459 0
M  V30 7238 H 695.31 5.25049 -0.403873 0
M  V30 7239 H 697.801 3.71537 -0.690564 0
M  V30 7240 H 698.114 7.4587 -2.02232 0
M  V30 7241 H 696.459 6.70963 -1.81202 0
M  V30 7242 H 699.65 4.58604 -0.93809 0
M  V30 7243 H 699.823 6.29308 -1.54516 0
M  V30 7244 N 693.229 0.160201 1.56784 0
M  V30 7245 C 694.457 -0.494165 2.00912 0
M  V30 7246 C 694.872 -1.57548 1.04038 0
M  V30 7247 O 694.229 -1.82457 0.0394581 0
M  V30 7248 C 694.28 -1.08271 3.44905 0
M  V30 7249 O 694.001 -0.0445704 4.38077 0
M  V30 7250 C 695.502 -1.8164 4.04378 0
M  V30 7251 H 692.722 -0.127498 0.658776 0
M  V30 7252 H 695.266 0.258665 2.02858 0
M  V30 7253 H 693.421 -1.78609 3.4377 0
M  V30 7254 H 693.835 -0.477544 5.22322 0
M  V30 7255 H 695.309 -2.18094 5.07089 0
M  V30 7256 H 695.786 -2.70727 3.45838 0
M  V30 7257 H 696.392 -1.15969 4.09184 0
M  V30 7258 N 694.707 -1.5719 -0.113559 0
M  V30 7259 C 695.932 -1.89702 -0.838336 0
M  V30 7260 C 696.357 -0.752679 -1.72384 0
M  V30 7261 O 695.715 0.296575 -1.78858 0
M  V30 7262 C 695.763 -3.20989 -1.64312 0
M  V30 7263 O 694.867 -3.07278 -2.75053 0
M  V30 7264 H 694.208 -0.622339 -0.231496 0
M  V30 7265 H 696.738 -2.04382 -0.0943228 0
M  V30 7266 H 696.748 -3.53843 -2.03123 0
M  V30 7267 H 695.423 -4.03869 -0.993119 0
M  V30 7268 H 694 -2.85901 -2.39406 0
M  V30 7269 N 696.185 0.383891 -1.52853 0
M  V30 7270 C 697.117 1.48889 -1.74255 0
M  V30 7271 C 698.13 1.50405 -0.623063 0
M  V30 7272 O 699.319 1.54215 -0.898887 0
M  V30 7273 C 696.419 2.87721 -1.79081 0
M  V30 7274 C 695.592 3.10111 -3.08464 0
M  V30 7275 C 694.651 4.28954 -3.0477 0
M  V30 7276 O 693.677 4.25012 -3.78621 0
M  V30 7277 N 694.879 5.35411 -2.24311 0
M  V30 7278 H 697.644 1.30915 -2.69595 0
M  V30 7279 H 695.205 0.573454 -1.51404 0
M  V30 7280 H 697.197 3.65333 -1.7411 0
M  V30 7281 H 695.767 2.99029 -0.911052 0
M  V30 7282 H 694.987 2.20319 -3.26884 0
M  V30 7283 H 696.275 3.21928 -3.94005 0
M  V30 7284 H 695.673 5.41471 -1.63787 0
M  V30 7285 H 694.23 6.1167 -2.25175 0
M  V30 7286 N 697.663 1.43903 0.642637 0
M  V30 7287 C 698.573 1.52349 1.78401 0
M  V30 7288 C 699.589 0.409869 1.69104 0
M  V30 7289 O 700.765 0.665548 1.90085 0
M  V30 7290 C 697.83 1.45408 3.14734 0
M  V30 7291 C 696.891 2.67528 3.35749 0
M  V30 7292 C 696.124 2.60909 4.65577 0
M  V30 7293 O 696.347 1.6627 5.45628 0
M  V30 7294 O 695.281 3.5158 4.88544 0
M  V30 7295 H 699.107 2.48752 1.7423 0
M  V30 7296 H 696.692 1.26021 0.802439 0
M  V30 7297 H 698.574 1.44019 3.96026 0
M  V30 7298 H 697.249 0.521437 3.19473 0
M  V30 7299 H 696.156 2.74487 2.5418 0
M  V30 7300 H 697.489 3.598 3.35864 0
M  V30 7301 N 699.141 -0.881989 1.30609 0
M  V30 7302 C 700.071 -2.00413 1.1982 0
M  V30 7303 C 701.052 -1.69871 0.0881538 0
M  V30 7304 O 702.237 -1.92304 0.2707 0
M  V30 7305 C 699.367 -3.35641 0.89233 0
M  V30 7306 C 698.321 -3.80451 1.96064 0
M  V30 7307 C 697.647 -5.13003 1.5077 0
M  V30 7308 C 698.947 -3.98855 3.37213 0
M  V30 7309 H 700.641 -2.09698 2.13699 0
M  V30 7310 H 698.187 -1.00754 1.02882 0
M  V30 7311 H 700.14 -4.13669 0.803497 0
M  V30 7312 H 698.864 -3.26497 -0.0821381 0
M  V30 7313 H 697.523 -3.04654 2.03916 0
M  V30 7314 H 697.171 -5.0029 0.521417 0
M  V30 7315 H 696.871 -5.43956 2.22229 0
M  V30 7316 H 698.395 -5.93554 1.43271 0
M  V30 7317 H 699.809 -4.67312 3.32103 0
M  V30 7318 H 698.206 -4.41188 4.06784 0
M  V30 7319 H 699.276 -3.02614 3.78883 0
M  V30 7320 N 700.619 -1.13374 -1.09472 0
M  V30 7321 C 701.551 -0.768466 -2.15933 0
M  V30 7322 C 702.564 0.209585 -1.61445 0
M  V30 7323 O 703.753 -0.010539 -1.78497 0
M  V30 7324 C 700.853 -0.118266 -3.38694 0
M  V30 7325 C 700.026 -1.12829 -4.22597 0
M  V30 7326 C 699.085 -0.503875 -5.23782 0
M  V30 7327 O 698.111 -1.16374 -5.57177 0
M  V30 7328 N 699.313 0.724288 -5.75964 0
M  V30 7329 H 702.078 -1.68457 -2.47876 0
M  V30 7330 H 699.639 -1.02668 -1.25183 0
M  V30 7331 H 701.631 0.311698 -4.03498 0
M  V30 7332 H 700.201 0.700769 -3.04644 0
M  V30 7333 H 699.421 -1.73556 -3.53938 0
M  V30 7334 H 700.709 -1.81095 -4.75481 0
M  V30 7335 H 700.107 1.27918 -5.51048 0
M  V30 7336 H 698.664 1.09692 -6.42504 0
M  V30 7337 N 702.098 1.27442 -0.927168 0
M  V30 7338 C 703.031 2.25177 -0.370232 0
M  V30 7339 C 704.009 1.53612 0.533103 0
M  V30 7340 O 705.193 1.8245 0.47373 0
M  V30 7341 C 702.32 3.35431 0.469411 0
M  V30 7342 C 701.366 4.24888 -0.370419 0
M  V30 7343 S 702.199 5.04852 -1.78562 0
M  V30 7344 C 703.355 6.18592 -0.953651 0
M  V30 7345 H 703.588 2.72069 -1.19858 0
M  V30 7346 H 701.121 1.36089 -0.729316 0
M  V30 7347 H 703.079 3.99404 0.947992 0
M  V30 7348 H 701.74 2.87179 1.27228 0
M  V30 7349 H 700.933 5.03264 0.272226 0
M  V30 7350 H 700.535 3.65709 -0.783153 0
M  V30 7351 H 702.827 6.77235 -0.189408 0
M  V30 7352 H 703.77 6.87132 -1.7104 0
M  V30 7353 H 704.178 5.62318 -0.495897 0
M  V30 7354 N 703.576 0.692616 1.41565 0
M  V30 7355 C 704.523 0.0254264 2.30786 0
M  V30 7356 C 705.493 -0.774347 1.46946 0
M  V30 7357 O 706.678 -0.742981 1.7574 0
M  V30 7358 C 703.818 -0.907123 3.32964 0
M  V30 7359 C 702.931 -0.0992784 4.31886 0
M  V30 7360 C 702.066 -1.0292 5.21134 0
M  V30 7361 C 701.105 -0.214088 6.11725 0
M  V30 7362 N 700.242 -1.09766 6.93467 0
M  V30 7363 H 705.082 0.792036 2.87282 0
M  V30 7364 H 702.619 0.4023 1.41492 0
M  V30 7365 H 704.577 -1.46181 3.90752 0
M  V30 7366 H 703.207 -1.64016 2.78026 0
M  V30 7367 H 702.259 0.572287 3.76071 0
M  V30 7368 H 703.571 0.532782 4.95946 0
M  V30 7369 H 702.725 -1.65321 5.83741 0
M  V30 7370 H 701.464 -1.69512 4.57293 0
M  V30 7371 H 700.469 0.42302 5.4817 0
M  V30 7372 H 701.694 0.447995 6.77621 0
M  V30 7373 H 699.64 -1.74965 6.32237 0
M  V30 7374 H 699.557 -0.521099 7.54202 0
M  V30 7375 H 700.825 -1.70858 7.60544 0
M  V30 7376 N 705.054 -1.51416 0.437162 0
M  V30 7377 C 706.47 -1.59349 0.0894459 0
M  V30 7378 C 706.67 -1.44809 -1.40116 0
M  V30 7379 O 705.726 -1.28924 -2.17106 0
M  V30 7380 C 707.039 -2.9446 0.609398 0
M  V30 7381 C 708.587 -3.07769 0.569824 0
M  V30 7382 C 709.062 -4.45404 1.06675 0
M  V30 7383 N 710.553 -4.51723 1.02473 0
M  V30 7384 C 711.288 -5.56544 1.3801 0
M  V30 7385 N 710.784 -6.68784 1.80831 0
M  V30 7386 N 712.577 -5.46901 1.29828 0
M  V30 7387 H 704.728 -1.59112 1.40703 0
M  V30 7388 H 706.991 -0.750031 0.579791 0
M  V30 7389 H 706.697 -3.1047 1.65231 0
M  V30 7390 H 706.571 -3.77184 0.0342236 0
M  V30 7391 H 708.958 -2.91428 -0.464107 0
M  V30 7392 H 709.039 -2.26885 1.1814 0
M  V30 7393 H 708.683 -4.62492 2.09914 0
M  V30 7394 H 708.613 -5.24827 0.431712 0
M  V30 7395 H 711.104 -3.71165 0.710258 0
M  V30 7396 H 711.417 -7.44787 2.06185 0
M  V30 7397 H 709.762 -6.69992 1.84757 0
M  V30 7398 H 712.953 -4.581 0.962397 0
M  V30 7399 H 713.126 -6.2848 1.57851 0
M  V30 7400 N 706.532 -0.168513 -1.56696 0
M  V30 7401 C 707.76 0.483503 -2.01171 0
M  V30 7402 C 708.175 1.56994 -1.04872 0
M  V30 7403 O 707.532 1.82434 -0.0491337 0
M  V30 7404 C 707.583 1.0644 -3.45475 0
M  V30 7405 O 707.304 0.0213375 -4.38095 0
M  V30 7406 C 708.805 1.79493 -4.05336 0
M  V30 7407 H 706.025 0.124002 -0.659443 0
M  V30 7408 H 708.569 -0.269419 -2.02717 0
M  V30 7409 H 706.724 1.76784 -3.44712 0
M  V30 7410 H 707.138 0.449837 -5.22567 0
M  V30 7411 H 708.612 2.15401 -5.08238 0
M  V30 7412 H 709.089 2.68889 -3.47269 0
M  V30 7413 H 709.695 1.13798 -4.09793 0
M  V30 7414 N 708.01 1.57248 0.105221 0
M  V30 7415 C 708.973 2.00388 1.11252 0
M  V30 7416 C 709.973 0.89594 1.33527 0
M  V30 7417 O 711.163 1.16166 1.29811 0
M  V30 7418 C 708.295 2.35589 2.46395 0
M  V30 7419 H 709.488 2.90591 0.741424 0
M  V30 7420 H 707.041 1.52332 0.349956 0
M  V30 7421 H 707.776 1.4831 2.884 0
M  V30 7422 H 707.561 3.16408 2.31578 0
M  V30 7423 H 709.051 2.69658 3.18864 0
M  V30 7424 N 709.488 -0.375779 1.53054 0
M  V30 7425 C 710.737 -1.11674 1.67964 0
M  V30 7426 C 711.05 -1.90755 0.432655 0
M  V30 7427 O 712.256 -2.67538 0.462109 0
M  V30 7428 C 710.712 -2.0344 2.96884 0
M  V30 7429 C 710.32 -1.29719 4.28809 0
M  V30 7430 C 712.064 -2.7759 3.2116 0
M  V30 7431 C 709.971 -2.20327 5.48826 0
M  V30 7432 H 708.901 -0.420597 0.625791 0
M  V30 7433 H 711.552 -0.378499 1.79554 0
M  V30 7434 H 709.934 -2.80953 2.79072 0
M  V30 7435 H 711.108 -0.573394 4.57219 0
M  V30 7436 H 709.423 -0.674735 4.10897 0
M  V30 7437 H 712.02 -3.4559 4.0801 0
M  V30 7438 H 712.363 -3.42399 2.36789 0
M  V30 7439 H 712.896 -2.07164 3.396 0
M  V30 7440 H 709.635 -1.60113 6.35645 0
M  V30 7441 H 709.155 -2.90585 5.2471 0
M  V30 7442 H 710.834 -2.80116 5.83219 0
M  V30 7443 N 710.966 -1.44241 -0.634997 0
M  V30 7444 C 711.876 -1.53293 -1.77591 0
M  V30 7445 C 712.892 -0.418831 -1.68884 0
M  V30 7446 O 714.068 -0.675619 -1.8973 0
M  V30 7447 C 711.133 -1.47075 -3.13958 0
M  V30 7448 C 710.194 -2.69304 -3.34326 0
M  V30 7449 C 709.427 -2.63374 -4.64187 0
M  V30 7450 O 709.65 -1.69161 -5.44739 0
M  V30 7451 O 708.584 -3.54166 -4.86673 0
M  V30 7452 H 712.41 -2.49673 -1.72908 0
M  V30 7453 H 709.995 -1.26445 -0.795745 0
M  V30 7454 H 711.877 -1.46117 -3.95257 0
M  V30 7455 H 710.552 -0.538373 -3.19192 0
M  V30 7456 H 709.459 -2.75831 -2.52721 0
M  V30 7457 H 710.792 -3.61576 -3.33951 0
M  V30 7458 N 712.444 0.87505 -1.31075 0
M  V30 7459 C 713.407 1.96333 -1.18263 0
M  V30 7460 C 714.407 1.60416 -0.111106 0
M  V30 7461 O 715.597 1.7044 -0.359987 0
M  V30 7462 C 712.729 3.31036 -0.81414 0
M  V30 7463 H 713.922 2.09125 -2.14958 0
M  V30 7464 H 711.475 1.06271 -1.14614 0
M  V30 7465 H 712.21 3.23944 0.151875 0
M  V30 7466 H 711.995 3.58476 -1.58862 0
M  V30 7467 H 713.485 4.10842 -0.748249 0
M  V30 7468 N 713.922 1.13953 1.08869 0
M  V30 7469 C 715.169 0.90481 1.81161 0
M  V30 7470 C 715.497 -0.568824 1.85996 0
M  V30 7471 O 714.752 -1.43723 1.32823 0
M  V30 7472 C 715.051 1.44495 3.26888 0
M  V30 7473 C 714.717 2.93641 3.42178 0
M  V30 7474 C 713.379 3.34361 3.46059 0
M  V30 7475 C 715.731 3.89568 3.46246 0
M  V30 7476 C 713.059 4.69681 3.51592 0
M  V30 7477 C 715.411 5.2474 3.53314 0
M  V30 7478 C 714.075 5.64979 3.55465 0
M  V30 7479 H 713.345 0.331094 0.662916 0
M  V30 7480 H 715.992 1.42242 1.28217 0
M  V30 7481 H 714.297 0.848169 3.82509 0
M  V30 7482 H 715.994 1.23934 3.81368 0
M  V30 7483 H 712.584 2.61156 3.39846 0
M  V30 7484 H 716.768 3.59192 3.42483 0
M  V30 7485 H 712.024 5.00224 3.51547 0
M  V30 7486 H 716.198 5.98882 3.55406 0
M  V30 7487 H 713.825 6.69821 3.59505 0
M  V30 7488 N 715.4 -1.26948 0.933913 0
M  V30 7489 C 716.348 -2.2862 0.428463 0
M  V30 7490 C 717.342 -1.62144 -0.490464 0
M  V30 7491 O 718.548 -1.76167 -0.36948 0
M  V30 7492 H 714.923 -0.742363 0.120003 0
M  V30 7493 H 716.894 -2.68659 1.29865 0
M  V30 7494 C 715.643 -3.46423 -0.29774 0
M  V30 7495 H 714.966 -3.97792 0.400183 0
M  V30 7496 H 716.406 -4.19505 -0.615736 0
M  V30 7497 C 714.865 -3.01017 -1.51295 0
M  V30 7498 O 715.395 -3.05226 -2.61151 0
M  V30 7499 N 713.601 -2.56442 -1.36696 0
M  V30 7500 H 713.148 -2.53217 -0.473178 0
M  V30 7501 H 713.106 -2.26424 -2.18127 0
M  V30 7502 N 716.879 -0.700114 -1.41195 0
M  V30 7503 C 717.789 -0.0382854 -2.34569 0
M  V30 7504 C 718.805 0.761036 -1.56474 0
M  V30 7505 O 719.981 0.697553 -1.88934 0
M  V30 7506 C 717.046 0.883522 -3.35253 0
M  V30 7507 C 716.107 0.0758957 -4.29233 0
M  V30 7508 C 715.34 0.9538 -5.25108 0
M  V30 7509 O 715.563 2.19326 -5.26547 0
M  V30 7510 O 714.497 0.401049 -6.00562 0
M  V30 7511 H 718.323 -0.808073 -2.92752 0
M  V30 7512 H 715.908 -0.460479 -1.42127 0
M  V30 7513 H 717.79 1.41199 -3.9704 0
M  V30 7514 H 716.465 1.63272 -2.79506 0
M  V30 7515 H 715.372 -0.497274 -3.7078 0
M  V30 7516 H 716.705 -0.634741 -4.8809 0
M  V30 7517 N 718.357 1.51182 -0.445186 0
M  V30 7518 C 719.585 2.06568 0.117091 0
M  V30 7519 C 720 1.31182 1.35781 0
M  V30 7520 O 719.357 0.373605 1.78635 0
M  V30 7521 C 719.408 3.58917 0.431408 0
M  V30 7522 O 719.129 4.31456 -0.760078 0
M  V30 7523 C 720.63 4.30843 1.0435 0
M  V30 7524 H 717.85 0.670985 0.00444436 0
M  V30 7525 H 720.394 1.94666 -0.626525 0
M  V30 7526 H 718.549 3.70708 1.12493 0
M  V30 7527 H 718.963 5.22215 -0.489048 0
M  V30 7528 H 720.437 5.38499 1.21337 0
M  V30 7529 H 720.914 3.89644 2.02667 0
M  V30 7530 H 721.52 4.23516 0.38913 0
M  V30 7531 N 719.835 0.176821 1.56605 0
M  V30 7532 C 721.084 -0.466833 1.96223 0
M  V30 7533 C 721.397 -1.64015 1.06576 0
M  V30 7534 O 722.603 -2.3504 1.35898 0
M  V30 7535 C 721.059 -0.881921 3.48927 0
M  V30 7536 C 720.667 0.266102 4.47209 0
M  V30 7537 C 722.411 -1.49368 3.97353 0
M  V30 7538 C 720.318 -0.168923 5.91159 0
M  V30 7539 H 719.248 -0.178178 0.732645 0
M  V30 7540 H 721.899 0.265929 1.81563 0
M  V30 7541 H 720.281 -1.67082 3.59026 0
M  V30 7542 H 721.455 1.04349 4.4883 0
M  V30 7543 H 719.77 0.788178 4.08872 0
M  V30 7544 H 722.367 -1.8313 5.02362 0
M  V30 7545 H 722.71 -2.3936 3.40606 0
M  V30 7546 H 723.243 -0.769114 3.90294 0
M  V30 7547 H 719.982 0.696351 6.51791 0
M  V30 7548 H 719.502 -0.911552 5.92833 0
M  V30 7549 H 721.181 -0.610938 6.44109 0
M  V30 7550 N 721.313 -1.57302 -0.09688 0
M  V30 7551 C 722.26 -2.01933 -1.11766 0
M  V30 7552 C 723.23 -0.895329 -1.39904 0
M  V30 7553 O 724.415 -1.16119 -1.51397 0
M  V30 7554 C 721.555 -2.44726 -2.43317 0
M  V30 7555 C 720.668 -3.70639 -2.21925 0
M  V30 7556 C 719.803 -4.02318 -3.46862 0
M  V30 7557 C 718.842 -5.21346 -3.20725 0
M  V30 7558 N 717.979 -5.48787 -4.37924 0
M  V30 7559 H 722.819 -2.88919 -0.730075 0
M  V30 7560 H 720.356 -1.42901 -0.348962 0
M  V30 7561 H 722.314 -2.6758 -3.20088 0
M  V30 7562 H 720.944 -1.60753 -2.79926 0
M  V30 7563 H 719.996 -3.55271 -1.35965 0
M  V30 7564 H 721.308 -4.57557 -1.98603 0
M  V30 7565 H 720.462 -4.25939 -4.32042 0
M  V30 7566 H 719.201 -3.13918 -3.73238 0
M  V30 7567 H 718.206 -4.97547 -2.33938 0
M  V30 7568 H 719.431 -6.11343 -2.95697 0
M  V30 7569 H 717.377 -4.63346 -4.64378 0
M  V30 7570 H 717.294 -6.30073 -4.17785 0
M  V30 7571 H 718.562 -5.76943 -5.24173 0
M  V30 7572 N 722.791 0.367657 -1.53252 0
M  V30 7573 C 724.04 1.10782 -1.68554 0
M  V30 7574 C 724.353 1.90523 -0.442765 0
M  V30 7575 O 725.559 2.6729 -0.47629 0
M  V30 7576 C 724.015 2.01863 -2.97959 0
M  V30 7577 C 723.623 1.27443 -4.29491 0
M  V30 7578 C 725.367 2.75883 -3.22628 0
M  V30 7579 C 723.274 2.17414 -5.49987 0
M  V30 7580 H 722.204 0.417272 -0.628013 0
M  V30 7581 H 724.855 0.368971 -1.79752 0
M  V30 7582 H 723.237 2.7947 -2.80558 0
M  V30 7583 H 724.411 0.549138 -4.57516 0
M  V30 7584 H 722.726 0.652935 -4.11249 0
M  V30 7585 H 725.323 3.43421 -4.09837 0
M  V30 7586 H 725.666 3.41138 -2.38601 0
M  V30 7587 H 726.199 2.0536 -3.40693 0
M  V30 7588 H 722.938 1.5674 -6.36485 0
M  V30 7589 H 722.458 2.87799 -5.26243 0
M  V30 7590 H 724.137 2.77019 -5.84696 0
M  V30 7591 N 724.269 1.44576 0.627338 0
M  V30 7592 C 725.516 1.47558 1.38682 0
M  V30 7593 C 725.844 0.109636 1.94191 0
M  V30 7594 O 725.099 -0.889092 1.74338 0
M  V30 7595 C 725.398 2.48644 2.56731 0
M  V30 7596 C 725.064 3.93873 2.19489 0
M  V30 7597 C 723.726 4.33421 2.09045 0
M  V30 7598 C 726.078 4.85286 1.90124 0
M  V30 7599 C 723.406 5.62303 1.6743 0
M  V30 7600 C 725.758 6.14559 1.50001 0
M  V30 7601 C 724.422 6.53058 1.38101 0
M  V30 7602 H 723.692 0.539955 0.507474 0
M  V30 7603 H 726.339 1.77811 0.711021 0
M  V30 7604 H 724.644 2.11889 3.29561 0
M  V30 7605 H 726.341 2.48197 3.14959 0
M  V30 7606 H 722.931 3.62587 2.28537 0
M  V30 7607 H 727.115 4.55483 1.971 0
M  V30 7608 H 722.371 5.90945 1.56823 0
M  V30 7609 H 726.545 6.84848 1.26319 0
M  V30 7610 H 724.172 7.52826 1.05628 0
M  V30 7611 N 725.747 -0.868086 1.31537 0
M  V30 7612 C 726.657 -2.00801 1.21311 0
M  V30 7613 C 727.673 -1.73518 0.129431 0
M  V30 7614 O 728.849 -1.98378 0.347588 0
M  V30 7615 C 725.914 -3.3419 0.922935 0
M  V30 7616 C 724.975 -3.74783 2.0937 0
M  V30 7617 C 724.208 -5.01807 1.81728 0
M  V30 7618 O 724.431 -5.65404 0.753313 0
M  V30 7619 O 723.365 -5.39213 2.67457 0
M  V30 7620 H 727.191 -2.12361 2.17109 0
M  V30 7621 H 724.776 -0.996684 1.11295 0
M  V30 7622 H 726.658 -4.14174 0.777033 0
M  V30 7623 H 725.333 -3.237 -0.00500301 0
M  V30 7624 H 724.24 -2.95432 2.29501 0
M  V30 7625 H 725.573 -3.89902 3.00396 0
M  V30 7626 N 727.225 -1.14528 -1.08264 0
M  V30 7627 C 728.135 -0.84728 -2.18765 0
M  V30 7628 C 729.151 0.172826 -1.7314 0
M  V30 7629 O 730.327 0.000985336 -2.014 0
M  V30 7630 C 727.392 -0.330633 -3.4512 0
M  V30 7631 C 726.453 -1.41348 -4.05363 0
M  V30 7632 C 725.686 -0.921387 -5.25686 0
M  V30 7633 O 725.909 0.236587 -5.69909 0
M  V30 7634 O 724.843 -1.70101 -5.77364 0
M  V30 7635 H 728.669 -1.7708 -2.46731 0
M  V30 7636 H 726.254 -0.923661 -1.17426 0
M  V30 7637 H 728.136 -0.0485053 -4.21372 0
M  V30 7638 H 726.811 0.565147 -3.18728 0
M  V30 7639 H 725.718 -1.74908 -3.30693 0
M  V30 7640 H 727.051 -2.28383 -4.36007 0
M  V30 7641 N 728.703 1.26451 -0.940633 0
M  V30 7642 C 729.635 2.25556 -0.407104 0
M  V30 7643 C 730.648 1.55888 0.469324 0
M  V30 7644 O 731.837 1.76292 0.279858 0
M  V30 7645 C 728.937 3.36109 0.434064 0
M  V30 7646 C 728.11 4.3532 -0.426082 0
M  V30 7647 C 727.169 5.25004 0.354563 0
M  V30 7648 O 726.195 5.68684 -0.242219 0
M  V30 7649 N 727.397 5.5652 1.65123 0
M  V30 7650 H 730.162 2.7197 -1.25907 0
M  V30 7651 H 727.723 1.40212 -0.809456 0
M  V30 7652 H 729.715 3.93059 0.963684 0
M  V30 7653 H 728.285 2.89194 1.18683 0
M  V30 7654 H 727.505 3.77449 -1.13692 0
M  V30 7655 H 728.793 4.986 -1.01366 0
M  V30 7656 H 728.191 5.22912 2.15822 0
M  V30 7657 H 726.748 6.16115 2.12711 0
M  V30 7658 N 730.181 0.707592 1.40822 0
M  V30 7659 C 731.429 0.243189 2.00632 0
M  V30 7660 C 731.75 -1.16512 1.56365 0
M  V30 7661 O 731.02 -1.78841 0.799553 0
M  V30 7662 H 729.6 0.0869203 0.741926 0
M  V30 7663 H 732.262 0.911438 1.72275 0
M  V30 7664 H 731.358 0.270014 3.1093 0
M  V30 7665 N 731.66 -1.50943 0.453197 0
M  V30 7666 C 732.592 -2.25922 -0.38623 0
M  V30 7667 C 733.605 -1.3055 -0.972652 0
M  V30 7668 O 734.794 -1.56191 -0.864097 0
M  V30 7669 C 731.894 -3.01176 -1.5539 0
M  V30 7670 C 731.067 -4.23768 -1.0835 0
M  V30 7671 C 730.126 -4.81466 -2.12313 0
M  V30 7672 O 729.152 -5.42875 -1.71101 0
M  V30 7673 N 730.354 -4.66889 -3.44956 0
M  V30 7674 H 733.119 -2.98601 0.256468 0
M  V30 7675 H 730.68 -1.59408 0.282965 0
M  V30 7676 H 732.672 -3.36659 -2.24594 0
M  V30 7677 H 731.242 -2.31409 -2.10163 0
M  V30 7678 H 730.462 -3.93597 -0.217961 0
M  V30 7679 H 731.75 -5.03289 -0.746857 0
M  V30 7680 H 731.148 -4.18011 -3.81161 0
M  V30 7681 H 729.705 -5.06691 -4.1001 0
M  V30 7682 N 733.138 -0.185124 -1.56509 0
M  V30 7683 C 734.366 0.462139 -2.01673 0
M  V30 7684 C 734.781 1.55873 -1.06532 0
M  V30 7685 O 734.138 1.82371 -0.0684805 0
M  V30 7686 C 734.189 1.0277 -3.46584 0
M  V30 7687 O 733.91 -0.0251296 -4.38093 0
M  V30 7688 C 735.411 1.75183 -4.07217 0
M  V30 7689 H 732.631 0.117001 -0.660721 0
M  V30 7690 H 735.175 -0.290905 -2.0242 0
M  V30 7691 H 733.33 1.73118 -3.46568 0
M  V30 7692 H 733.744 0.394387 -5.23015 0
M  V30 7693 H 735.218 2.09999 -5.10494 0
M  V30 7694 H 735.695 2.6519 -3.50101 0
M  V30 7695 H 736.301 1.09445 -4.10977 0
M  V30 7696 N 734.616 1.57351 0.0885366 0
M  V30 7697 C 735.548 1.99221 1.13329 0
M  V30 7698 C 736.561 0.895705 1.35945 0
M  V30 7699 O 737.75 1.17376 1.34481 0
M  V30 7700 C 734.85 2.3016 2.48756 0
M  V30 7701 C 734.023 3.61444 2.46327 0
M  V30 7702 C 733.082 3.80244 3.63732 0
M  V30 7703 O 732.108 4.52024 3.45924 0
M  V30 7704 N 733.31 3.2132 4.8346 0
M  V30 7705 H 736.075 2.89456 0.776862 0
M  V30 7706 H 733.636 1.59505 0.277428 0
M  V30 7707 H 735.628 2.39925 3.25911 0
M  V30 7708 H 734.198 1.459 2.76464 0
M  V30 7709 H 733.418 3.62588 1.54673 0
M  V30 7710 H 734.706 4.47678 2.41789 0
M  V30 7711 H 734.104 2.63028 5.00832 0
M  V30 7712 H 732.661 3.3656 5.58185 0
M  V30 7713 N 736.094 -0.359525 1.53444 0
M  V30 7714 C 737.004 -1.46445 1.83278 0
M  V30 7715 C 738.02 -1.5833 0.721629 0
M  V30 7716 O 739.196 -1.7411 1.01231 0
M  V30 7717 C 736.261 -2.81638 2.02191 0
M  V30 7718 C 735.322 -2.7923 3.26082 0
M  V30 7719 C 734.555 -4.07974 3.44082 0
M  V30 7720 O 734.778 -5.04447 2.66251 0
M  V30 7721 O 733.712 -4.13417 4.37458 0
M  V30 7722 H 737.538 -1.24156 2.77162 0
M  V30 7723 H 735.123 -0.550201 1.389 0
M  V30 7724 H 737.005 -3.61732 2.16167 0
M  V30 7725 H 735.68 -3.03892 1.11496 0
M  V30 7726 H 734.587 -1.97813 3.17523 0
M  V30 7727 H 735.92 -2.6193 4.16718 0
M  V30 7728 N 737.572 -1.44907 -0.619662 0
M  V30 7729 C 738.519 -1.52654 -1.73105 0
M  V30 7730 C 739.489 -0.373334 -1.6185 0
M  V30 7731 O 740.674 -0.585143 -1.81606 0
M  V30 7732 C 737.814 -1.48769 -3.11387 0
M  V30 7733 C 736.927 -2.74551 -3.33535 0
M  V30 7734 C 736.062 -2.62421 -4.61854 0
M  V30 7735 C 735.101 -3.83312 -4.77219 0
M  V30 7736 N 734.238 -3.69789 -5.96826 0
M  V30 7737 H 739.078 -2.47605 -1.65819 0
M  V30 7738 H 736.615 -1.22875 -0.808719 0
M  V30 7739 H 738.573 -1.44507 -3.91374 0
M  V30 7740 H 737.203 -0.573783 -3.1766 0
M  V30 7741 H 736.255 -2.88953 -2.47408 0
M  V30 7742 H 737.567 -3.64253 -3.40765 0
M  V30 7743 H 736.721 -2.56056 -5.50019 0
M  V30 7744 H 735.46 -1.70298 -4.57001 0
M  V30 7745 H 734.465 -3.90049 -3.87481 0
M  V30 7746 H 735.69 -4.76486 -4.83878 0
M  V30 7747 H 733.636 -2.80426 -5.93041 0
M  V30 7748 H 733.553 -4.53116 -6.05163 0
M  V30 7749 H 734.821 -3.67335 -6.87521 0
M  V30 7750 N 739.05 0.861098 -1.31996 0
M  V30 7751 C 740.29 1.62873 -1.23498 0
M  V30 7752 C 740.654 1.90938 0.201692 0
M  V30 7753 O 741.855 2.6565 0.410305 0
M  V30 7754 C 740.126 2.91759 -2.06426 0
M  V30 7755 S 741.685 3.82583 -2.14885 0
M  V30 7756 H 738.503 0.558726 -0.439712 0
M  V30 7757 H 741.105 1.02025 -1.66767 0
M  V30 7758 H 739.809 2.69077 -3.0988 0
M  V30 7759 H 739.34 3.57627 -1.6391 0
M  V30 7760 H 741.355 4.7904 -1.29364 0
M  V30 7761 N 740.528 1.15101 1.07655 0
M  V30 7762 C 741.753 0.948177 1.84457 0
M  V30 7763 C 742.178 -0.498432 1.81376 0
M  V30 7764 O 741.536 -1.35509 1.20445 0
M  V30 7765 C 741.584 1.46318 3.29581 0
M  V30 7766 O 740.688 0.660342 4.07079 0
M  V30 7767 H 740.029 0.338428 0.571281 0
M  V30 7768 H 742.559 1.5301 1.35828 0
M  V30 7769 H 742.569 1.47468 3.80417 0
M  V30 7770 H 741.244 2.51635 3.31138 0
M  V30 7771 H 739.821 0.718216 3.65918 0
M  V30 7772 N 742.006 -1.2595 0.947325 0
M  V30 7773 C 742.953 -2.26159 0.460497 0
M  V30 7774 C 743.923 -1.58919 -0.483125 0
M  V30 7775 O 745.108 -1.86603 -0.397983 0
M  V30 7776 C 742.248 -3.441 -0.26247 0
M  V30 7777 C 741.361 -4.25999 0.717539 0
M  V30 7778 C 740.496 -5.31193 -0.0272486 0
M  V30 7779 C 739.535 -6.04774 0.944177 0
M  V30 7780 N 738.672 -7.01721 0.230741 0
M  V30 7781 H 743.512 -2.67173 1.31995 0
M  V30 7782 H 741.049 -1.31358 0.662088 0
M  V30 7783 H 743.007 -4.11317 -0.698137 0
M  V30 7784 H 741.637 -3.03983 -1.08602 0
M  V30 7785 H 740.689 -3.58513 1.27171 0
M  V30 7786 H 742.001 -4.76981 1.45913 0
M  V30 7787 H 741.155 -6.04451 -0.521903 0
M  V30 7788 H 739.894 -4.81066 -0.801682 0
M  V30 7789 H 738.899 -5.30338 1.4499 0
M  V30 7790 H 740.124 -6.56991 1.71872 0
M  V30 7791 H 738.07 -6.53895 -0.525088 0
M  V30 7792 H 737.987 -7.50484 0.911556 0
M  V30 7793 H 739.255 -7.79122 -0.242616 0
M  V30 7794 N 743.484 -0.715051 -1.40445 0
M  V30 7795 C 744.394 -0.0631624 -2.34515 0
M  V30 7796 C 745.41 0.744397 -1.57273 0
M  V30 7797 O 746.586 0.677475 -1.89663 0
M  V30 7798 C 743.651 0.847915 -3.36172 0
M  V30 7799 C 742.712 0.0303655 -4.29289 0
M  V30 7800 C 741.945 0.898051 -5.2609 0
M  V30 7801 O 742.168 2.13729 -5.28844 0
M  V30 7802 O 741.102 0.337328 -6.00954 0
M  V30 7803 H 744.928 -0.839078 -2.91879 0
M  V30 7804 H 742.513 -0.475527 -1.4163 0
M  V30 7805 H 744.395 1.3698 -3.98515 0
M  V30 7806 H 743.07 1.60299 -2.81222 0
M  V30 7807 H 741.977 -0.536573 -3.70232 0
M  V30 7808 H 743.31 -0.686474 -4.87389 0
M  V30 7809 N 744.962 1.50701 -0.461195 0
M  V30 7810 C 746.192 2.06381 0.0950376 0
M  V30 7811 C 746.6 1.32627 1.34933 0
M  V30 7812 O 745.943 0.386137 1.79596 0
M  V30 7813 C 746.005 3.56558 0.458965 0
M  V30 7814 C 745.669 4.51732 -0.691891 0
M  V30 7815 C 746.666 4.95594 -1.57105 0
M  V30 7816 C 744.351 4.94542 -0.879407 0
M  V30 7817 C 746.345 5.80963 -2.62223 0
M  V30 7818 C 744.032 5.79695 -1.93382 0
M  V30 7819 C 745.03 6.22806 -2.80359 0
M  V30 7820 O 744.718 7.06265 -3.83986 0
M  V30 7821 H 744.45 0.676 0.000687488 0
M  V30 7822 H 747.004 1.94974 -0.646087 0
M  V30 7823 H 745.234 3.65832 1.25314 0
M  V30 7824 H 746.923 3.94647 0.949124 0
M  V30 7825 H 747.689 4.63197 -1.43783 0
M  V30 7826 H 743.568 4.60513 -0.211907 0
M  V30 7827 H 747.112 6.14533 -3.30143 0
M  V30 7828 H 743.009 6.11506 -2.06715 0
M  V30 7829 H 743.777 7.24494 -3.80855 0
M  V30 7830 N 746.441 0.193421 1.56409 0
M  V30 7831 C 747.371 -0.723334 2.22014 0
M  V30 7832 C 748.352 -1.22254 1.1827 0
M  V30 7833 O 749.537 -1.27168 1.46771 0
M  V30 7834 C 746.667 -1.94366 2.87818 0
M  V30 7835 C 745.621 -1.57943 3.97791 0
M  V30 7836 C 744.947 -2.87623 4.50752 0
M  V30 7837 C 746.247 -0.790639 5.16281 0
M  V30 7838 H 747.941 -0.176426 2.9888 0
M  V30 7839 H 745.487 -0.0834166 1.43758 0
M  V30 7840 H 747.44 -2.5902 3.32396 0
M  V30 7841 H 746.164 -2.51507 2.08355 0
M  V30 7842 H 744.823 -0.956482 3.53903 0
M  V30 7843 H 744.471 -3.4285 3.68053 0
M  V30 7844 H 744.171 -2.63998 5.24956 0
M  V30 7845 H 745.695 -3.53268 4.9803 0
M  V30 7846 H 747.109 -1.34024 5.57414 0
M  V30 7847 H 745.506 -0.65258 5.96541 0
M  V30 7848 H 746.576 0.208633 4.84451 0
M  V30 7849 N 747.919 -1.57396 -0.0801906 0
M  V30 7850 C 748.829 -2.06451 -1.11423 0
M  V30 7851 C 749.845 -0.992352 -1.42928 0
M  V30 7852 O 751.021 -1.30651 -1.53272 0
M  V30 7853 C 748.086 -2.49164 -2.41077 0
M  V30 7854 C 747.147 -3.70641 -2.16619 0
M  V30 7855 C 746.38 -4.11307 -3.40092 0
M  V30 7856 O 746.603 -3.51922 -4.48895 0
M  V30 7857 O 745.537 -5.04157 -3.288 0
M  V30 7858 H 749.363 -2.94857 -0.727519 0
M  V30 7859 H 746.948 -1.46484 -0.293743 0
M  V30 7860 H 748.83 -2.77196 -3.17396 0
M  V30 7861 H 747.505 -1.6389 -2.79145 0
M  V30 7862 H 746.412 -3.47703 -1.38033 0
M  V30 7863 H 747.745 -4.5674 -1.83437 0
M  V30 7864 N 749.397 0.351382 -1.53633 0
M  V30 7865 C 750.813 0.693987 -1.43722 0
M  V30 7866 C 751.013 1.9274 -0.587669 0
M  V30 7867 O 750.069 2.52387 -0.0756082 0
M  V30 7868 C 751.382 0.893937 -2.87105 0
M  V30 7869 C 752.93 0.993051 -2.96829 0
M  V30 7870 C 753.405 1.22537 -4.41303 0
M  V30 7871 N 754.896 1.29275 -4.44795 0
M  V30 7872 C 755.631 1.48988 -5.53706 0
M  V30 7873 N 755.127 1.65924 -6.72637 0
M  V30 7874 N 756.92 1.51472 -5.41306 0
M  V30 7875 H 749.071 -0.459688 -2.07366 0
M  V30 7876 H 751.334 -0.143684 -0.937048 0
M  V30 7877 H 751.04 0.0592517 -3.5165 0
M  V30 7878 H 750.914 1.79795 -3.31592 0
M  V30 7879 H 753.301 1.81827 -2.32429 0
M  V30 7880 H 753.382 0.0661119 -2.55715 0
M  V30 7881 H 753.026 0.405117 -5.06282 0
M  V30 7882 H 752.956 2.16575 -4.80003 0
M  V30 7883 H 755.447 1.17743 -3.59089 0
M  V30 7884 H 755.76 1.80578 -7.51406 0
M  V30 7885 H 754.105 1.63075 -6.75597 0
M  V30 7886 H 757.296 1.37818 -4.47352 0
M  V30 7887 H 757.469 1.66493 -6.26246 0
M  V30 7888 N 750.875 1.45233 0.611969 0
M  V30 7889 C 752.122 1.49021 1.37109 0
M  V30 7890 C 752.45 0.130227 1.94064 0
M  V30 7891 O 751.705 -0.870551 1.75271 0
M  V30 7892 C 752.004 2.51353 2.54079 0
M  V30 7893 C 751.67 3.96178 2.15299 0
M  V30 7894 C 750.332 4.35614 2.04436 0
M  V30 7895 C 752.684 4.87275 1.84966 0
M  V30 7896 C 750.012 5.64047 1.61456 0
M  V30 7897 C 752.364 6.16115 1.43474 0
M  V30 7898 C 751.028 6.54486 1.31167 0
M  V30 7899 H 750.298 0.545307 0.501719 0
M  V30 7900 H 752.945 1.78555 0.692122 0
M  V30 7901 H 751.25 2.15372 3.27295 0
M  V30 7902 H 752.947 2.51523 3.12309 0
M  V30 7903 H 749.537 3.6499 2.24678 0
M  V30 7904 H 753.721 4.57548 1.92258 0
M  V30 7905 H 748.977 5.92575 1.50547 0
M  V30 7906 H 753.151 6.86149 1.19048 0
M  V30 7907 H 750.778 7.53904 0.97637 0
M  V30 7908 N 752.353 -0.854086 1.3245 0
M  V30 7909 C 753.769 -1.14238 1.11453 0
M  V30 7910 C 753.969 -2.01228 -0.10461 0
M  V30 7911 O 753.025 -2.39845 -0.789339 0
M  V30 7912 C 754.338 -1.81916 2.39431 0
M  V30 7913 C 755.886 -1.94549 2.45193 0
M  V30 7914 C 756.361 -2.65642 3.73093 0
M  V30 7915 N 757.852 -2.73167 3.74078 0
M  V30 7916 C 758.587 -3.28828 4.69744 0
M  V30 7917 N 758.083 -3.85295 5.75778 0
M  V30 7918 N 759.876 -3.26936 4.57241 0
M  V30 7919 H 752.027 -0.274786 2.10615 0
M  V30 7920 H 754.29 -0.184375 0.929898 0
M  V30 7921 H 753.996 -1.25452 3.28565 0
M  V30 7922 H 753.87 -2.82068 2.50434 0
M  V30 7923 H 756.257 -2.50172 1.56518 0
M  V30 7924 H 756.338 -0.933914 2.38142 0
M  V30 7925 H 755.982 -2.10683 4.62142 0
M  V30 7926 H 755.912 -3.6724 3.77415 0
M  V30 7927 H 758.403 -2.33108 2.97438 0
M  V30 7928 H 758.716 -4.25925 6.44832 0
M  V30 7929 H 757.061 -3.83625 5.79531 0
M  V30 7930 H 760.252 -2.8207 3.7357 0
M  V30 7931 H 760.425 -3.70014 5.31971 0
M  V30 7932 N 753.831 -1.1567 -1.07043 0
M  V30 7933 C 755.247 -0.900006 -1.31803 0
M  V30 7934 C 755.447 0.451293 -1.96381 0
M  V30 7935 O 754.503 1.19252 -2.22565 0
M  V30 7936 C 755.816 -2.04334 -2.20609 0
M  V30 7937 C 757.364 -2.07823 -2.34048 0
M  V30 7938 C 757.839 -3.21488 -3.26204 0
M  V30 7939 N 759.33 -3.21156 -3.33786 0
M  V30 7940 C 760.065 -4.05746 -4.05163 0
M  V30 7941 N 759.561 -5.00407 -4.79129 0
M  V30 7942 N 761.354 -3.93759 -4.01136 0
M  V30 7943 H 753.505 -2.02681 -0.635146 0
M  V30 7944 H 755.768 -0.883956 -0.342528 0
M  V30 7945 H 755.474 -3.01895 -1.80423 0
M  V30 7946 H 755.348 -1.97838 -3.21154 0
M  V30 7947 H 757.735 -1.1086 -2.73485 0
M  V30 7948 H 757.816 -2.18386 -1.33197 0
M  V30 7949 H 757.46 -4.18706 -2.87485 0
M  V30 7950 H 757.39 -3.08162 -4.27017 0
M  V30 7951 H 759.881 -2.52606 -2.81067 0
M  V30 7952 H 760.194 -5.61387 -5.31097 0
M  V30 7953 H 758.539 -5.04393 -4.78135 0
M  V30 7954 H 761.73 -3.19115 -3.42466 0
M  V30 7955 H 761.903 -4.59906 -4.56498 0
M  V30 7956 N 755.309 1.25446 -0.953992 0
M  V30 7957 C 756.219 2.29632 -0.480264 0
M  V30 7958 C 757.235 1.68025 0.452071 0
M  V30 7959 O 758.411 1.98703 0.328472 0
M  V30 7960 C 755.476 3.45903 0.234974 0
M  V30 7961 C 754.537 4.22953 -0.735495 0
M  V30 7962 C 753.77 5.33672 -0.0542957 0
M  V30 7963 O 753.993 5.58477 1.16018 0
M  V30 7964 O 752.927 5.9734 -0.739509 0
M  V30 7965 H 756.753 2.72242 -1.34602 0
M  V30 7966 H 754.338 1.30883 -0.720419 0
M  V30 7967 H 756.22 4.16552 0.637341 0
M  V30 7968 H 754.895 3.05296 1.07592 0
M  V30 7969 H 753.802 3.54734 -1.18806 0
M  V30 7970 H 755.135 4.67341 -1.54444 0
M  V30 7971 N 756.787 0.722489 1.40064 0
M  V30 7972 C 758.035 0.264455 2.00362 0
M  V30 7973 C 758.356 -1.14847 1.57592 0
M  V30 7974 O 757.626 -1.77982 0.818477 0
M  V30 7975 H 756.206 0.0947846 0.740962 0
M  V30 7976 H 758.868 0.929659 1.71299 0
M  V30 7977 H 757.964 0.302977 3.10626 0
M  V30 7978 N 758.265 -1.50454 0.469181 0
M  V30 7979 C 759.213 -2.30101 -0.340033 0
M  V30 7980 C 760.207 -1.37306 -0.992135 0
M  V30 7981 O 761.413 -1.54506 -0.923458 0
M  V30 7982 H 757.788 -0.740941 -0.128495 0
M  V30 7983 H 759.759 -2.96315 0.352144 0
M  V30 7984 C 758.508 -3.17804 -1.41052 0
M  V30 7985 H 757.831 -3.89115 -0.918124 0
M  V30 7986 H 759.271 -3.76533 -1.94934 0
M  V30 7987 C 757.73 -2.35272 -2.4114 0
M  V30 7988 O 758.26 -2.03448 -3.4637 0
M  V30 7989 N 756.466 -1.97889 -2.1281 0
M  V30 7990 H 756.013 -2.2397 -1.27261 0
M  V30 7991 H 755.971 -1.42971 -2.80012 0
M  V30 7992 N 759.743 -0.201713 -1.56304 0
M  V30 7993 C 760.653 0.728296 -2.23009 0
M  V30 7994 C 761.669 1.22945 -1.23128 0
M  V30 7995 O 762.845 1.27523 -1.55884 0
M  V30 7996 C 759.91 1.92792 -2.88153 0
M  V30 7997 C 758.971 1.47068 -4.03323 0
M  V30 7998 C 758.204 2.61312 -4.65351 0
M  V30 7999 O 758.427 3.7896 -4.26317 0
M  V30 8000 O 757.361 2.33646 -5.54701 0
M  V30 8001 H 761.187 0.190166 -3.03104 0
M  V30 8002 H 758.772 0.0278725 -1.49374 0
M  V30 8003 H 760.654 2.6289 -3.29343 0
M  V30 8004 H 759.329 2.45452 -2.11033 0
M  V30 8005 H 758.236 0.738299 -3.66742 0
M  V30 8006 H 759.569 0.990666 -4.82127 0
M  V30 8007 N 761.222 1.57436 0.0718424 0
M  V30 8008 C 762.169 2.03686 1.08539 0
M  V30 8009 C 763.139 0.917474 1.38462 0
M  V30 8010 O 764.324 1.18513 1.4953 0
M  V30 8011 C 761.464 2.48566 2.39393 0
M  V30 8012 C 760.577 3.74122 2.16001 0
M  V30 8013 C 759.712 4.07786 3.40418 0
M  V30 8014 C 758.751 5.26383 3.1239 0
M  V30 8015 N 757.888 5.55685 4.29138 0
M  V30 8016 H 762.728 2.90043 0.684018 0
M  V30 8017 H 760.265 1.43438 0.326183 0
M  V30 8018 H 762.223 2.72639 3.15791 0
M  V30 8019 H 760.853 1.65186 2.77333 0
M  V30 8020 H 759.905 3.57389 1.30296 0
M  V30 8021 H 761.217 4.60659 1.91298 0
M  V30 8022 H 760.371 4.32759 4.25211 0
M  V30 8023 H 759.11 3.19817 3.68197 0
M  V30 8024 H 758.115 5.01206 2.25993 0
M  V30 8025 H 759.34 6.1597 2.85934 0
M  V30 8026 H 757.286 4.70675 4.56948 0
M  V30 8027 H 757.203 6.3664 4.07708 0
M  V30 8028 H 758.471 5.85209 5.14928 0
M  V30 8029 N 762.7 -0.34323 1.53817 0
M  V30 8030 C 763.61 -1.44493 1.84821 0
M  V30 8031 C 764.626 -1.57556 0.738381 0
M  V30 8032 O 765.802 -1.73026 1.03072 0
M  V30 8033 C 762.867 -2.79478 2.05166 0
M  V30 8034 C 761.928 -2.75756 3.29025 0
M  V30 8035 C 761.161 -4.04302 3.4839 0
M  V30 8036 O 761.384 -5.01595 2.71586 0
M  V30 8037 O 760.318 -4.08754 4.41819 0
M  V30 8038 H 764.144 -1.21209 2.78464 0
M  V30 8039 H 761.729 -0.535437 1.39476 0
M  V30 8040 H 763.611 -3.59419 2.19991 0
M  V30 8041 H 762.286 -3.02692 1.14713 0
M  V30 8042 H 761.193 -1.94434 3.19603 0
M  V30 8043 H 762.526 -2.57495 4.19472 0
M  V30 8044 N 764.178 -1.45556 -0.604258 0
M  V30 8045 C 765.111 -1.48975 -1.72863 0
M  V30 8046 C 766.089 -0.345803 -1.5888 0
M  V30 8047 O 767.273 -0.546796 -1.80395 0
M  V30 8048 C 764.4 -1.34794 -3.10722 0
M  V30 8049 C 763.446 -2.53096 -3.43285 0
M  V30 8050 S 764.279 -4.15551 -3.37754 0
M  V30 8051 C 765.435 -4.03842 -4.78187 0
M  V30 8052 H 765.668 -2.44108 -1.69701 0
M  V30 8053 H 763.201 -1.33179 -0.781194 0
M  V30 8054 H 765.159 -1.273 -3.90263 0
M  V30 8055 H 763.82 -0.411254 -3.11396 0
M  V30 8056 H 763.013 -2.39109 -4.4367 0
M  V30 8057 H 762.615 -2.57469 -2.71267 0
M  V30 8058 H 764.907 -3.69191 -5.6807 0
M  V30 8059 H 765.85 -5.0415 -4.97231 0
M  V30 8060 H 766.258 -3.35443 -4.54025 0
M  V30 8061 N 765.656 0.84705 -1.32902 0
M  V30 8062 C 766.588 1.96308 -1.18304 0
M  V30 8063 C 767.601 1.62386 -0.116082 0
M  V30 8064 O 768.79 1.74713 -0.365751 0
M  V30 8065 C 765.89 3.29556 -0.790305 0
M  V30 8066 C 765.063 3.91668 -1.94717 0
M  V30 8067 C 764.122 5.0326 -1.53674 0
M  V30 8068 O 763.148 5.22847 -2.24989 0
M  V30 8069 N 764.35 5.78852 -0.437075 0
M  V30 8070 H 767.115 2.09369 -2.14441 0
M  V30 8071 H 764.676 1.02233 -1.25539 0
M  V30 8072 H 766.668 4.01624 -0.49799 0
M  V30 8073 H 765.238 3.12497 0.0801286 0
M  V30 8074 H 764.458 3.12292 -2.40557 0
M  V30 8075 H 765.746 4.299 -2.72146 0
M  V30 8076 H 765.144 5.65484 0.156316 0
M  V30 8077 H 763.701 6.51479 -0.204399 0
M  V30 8078 N 767.134 1.16236 1.06428 0
M  V30 8079 C 768.55 0.906983 1.31324 0
M  V30 8080 C 768.75 -0.440872 1.96618 0
M  V30 8081 O 767.806 -1.1807 2.23194 0
M  V30 8082 C 769.119 2.05501 2.19522 0
M  V30 8083 C 770.667 2.09061 2.32943 0
M  V30 8084 C 771.142 3.23214 3.24495 0
M  V30 8085 N 772.633 3.22922 3.32078 0
M  V30 8086 C 773.368 4.07889 4.03006 0
M  V30 8087 N 772.864 5.02941 4.76469 0
M  V30 8088 N 774.657 3.95881 3.99043 0
M  V30 8089 H 766.808 2.03015 0.624388 0
M  V30 8090 H 769.071 0.88576 0.337835 0
M  V30 8091 H 768.777 3.02847 1.78819 0
M  V30 8092 H 768.651 1.99538 3.201 0
M  V30 8093 H 771.038 1.12308 2.72893 0
M  V30 8094 H 771.119 2.19089 1.32037 0
M  V30 8095 H 770.763 4.20225 2.85261 0
M  V30 8096 H 770.693 3.10423 4.25377 0
M  V30 8097 H 773.184 2.54093 2.79724 0
M  V30 8098 H 773.497 5.64196 5.28112 0
M  V30 8099 H 771.842 5.06922 4.75453 0
M  V30 8100 H 775.033 3.20927 3.40769 0
M  V30 8101 H 775.206 4.62321 4.54052 0
M  V30 8102 N 768.612 -1.24939 0.960631 0
M  V30 8103 C 769.861 -1.92118 0.614298 0
M  V30 8104 C 770.174 -1.75998 -0.853474 0
M  V30 8105 O 771.38 -2.37804 -1.31003 0
M  V30 8106 C 769.836 -3.44303 1.04801 0
M  V30 8107 C 769.444 -3.69123 2.53875 0
M  V30 8108 C 771.188 -4.17375 0.774497 0
M  V30 8109 C 769.095 -5.14843 2.91016 0
M  V30 8110 H 768.025 -0.719319 0.226045 0
M  V30 8111 H 770.676 -1.41701 1.16589 0
M  V30 8112 H 769.058 -3.93715 0.42479 0
M  V30 8113 H 770.232 -3.30339 3.21267 0
M  V30 8114 H 768.547 -3.09323 2.78762 0
M  V30 8115 H 771.144 -5.24723 1.02808 0
M  V30 8116 H 771.487 -4.15294 -0.289192 0
M  V30 8117 H 772.02 -3.7389 1.35835 0
M  V30 8118 H 768.759 -5.2204 3.96427 0
M  V30 8119 H 768.279 -5.54652 2.28302 0
M  V30 8120 H 769.958 -5.83017 2.80535 0
M  V30 8121 N 770.09 -0.729906 -1.39679 0
M  V30 8122 C 771.02 -0.101618 -2.33279 0
M  V30 8123 C 772.001 0.729854 -1.53646 0
M  V30 8124 O 773.186 0.67587 -1.82059 0
M  V30 8125 C 770.316 0.81024 -3.37716 0
M  V30 8126 C 769.27 0.0833126 -4.27919 0
M  V30 8127 C 768.596 1.11185 -5.23012 0
M  V30 8128 C 769.896 -1.07107 -5.112 0
M  V30 8129 H 771.59 -0.883452 -2.86069 0
M  V30 8130 H 769.136 -0.426283 -1.37546 0
M  V30 8131 H 771.089 1.25927 -4.02145 0
M  V30 8132 H 769.813 1.62413 -2.83354 0
M  V30 8133 H 768.472 -0.346043 -3.64963 0
M  V30 8134 H 768.12 1.91917 -4.64948 0
M  V30 8135 H 767.82 0.63026 -5.8421 0
M  V30 8136 H 769.344 1.56068 -5.90318 0
M  V30 8137 H 770.758 -0.700726 -5.69002 0
M  V30 8138 H 769.155 -1.48196 -5.81514 0
M  V30 8139 H 770.225 -1.89513 -4.46332 0
M  V30 8140 N 771.568 1.50203 -0.477153 0
M  V30 8141 C 772.498 2.31517 0.303646 0
M  V30 8142 C 773.479 1.38696 0.984753 0
M  V30 8143 O 774.664 1.67615 0.980758 0
M  V30 8144 C 771.794 3.18598 1.38249 0
M  V30 8145 C 770.748 4.2002 0.822645 0
M  V30 8146 C 770.074 4.95878 2.00024 0
M  V30 8147 C 771.374 5.22023 -0.170185 0
M  V30 8148 H 773.068 2.97042 -0.375027 0
M  V30 8149 H 770.614 1.42848 -0.181802 0
M  V30 8150 H 772.567 3.74282 1.93625 0
M  V30 8151 H 771.291 2.5097 2.09002 0
M  V30 8152 H 769.95 3.65445 0.290813 0
M  V30 8153 H 769.598 4.24717 2.69489 0
M  V30 8154 H 769.298 5.64487 1.63183 0
M  V30 8155 H 770.822 5.54399 2.55878 0
M  V30 8156 H 772.236 5.72543 0.294606 0
M  V30 8157 H 770.633 5.98386 -0.453181 0
M  V30 8158 H 771.703 4.72396 -1.09408 0
M  V30 8159 N 773.046 0.209999 1.56195 0
M  V30 8160 C 773.994 -0.721416 2.2113 0
M  V30 8161 C 774.988 -1.20852 1.18706 0
M  V30 8162 O 776.194 -1.16968 1.36815 0
M  V30 8163 H 772.569 -0.251033 0.708863 0
M  V30 8164 H 774.54 -0.150193 2.98022 0
M  V30 8165 C 773.289 -1.92392 2.89621 0
M  V30 8166 H 772.612 -1.5582 3.68185 0
M  V30 8167 H 774.052 -2.55367 3.38473 0
M  V30 8168 C 772.511 -2.77208 1.91461 0
M  V30 8169 O 773.041 -3.75603 1.42426 0
M  V30 8170 N 771.247 -2.43006 1.59363 0
M  V30 8171 H 770.794 -1.63047 1.99433 0
M  V30 8172 H 770.752 -3.00036 0.939449 0
M  V30 8173 N 774.524 -1.57472 -0.0634922 0
M  V30 8174 C 775.749 -1.92273 -0.77756 0
M  V30 8175 C 776.174 -0.807141 -1.69902 0
M  V30 8176 O 775.532 0.239523 -1.79711 0
M  V30 8177 C 775.58 -3.26054 -1.54017 0
M  V30 8178 O 774.684 -3.15873 -2.65138 0
M  V30 8179 H 774.025 -0.629389 -0.211579 0
M  V30 8180 H 776.555 -2.04579 -0.0292523 0
M  V30 8181 H 776.565 -3.60127 -1.91763 0
M  V30 8182 H 775.24 -4.06824 -0.864128 0
M  V30 8183 H 773.817 -2.93373 -2.30189 0
M  V30 8184 N 776.003 0.335068 -1.53997 0
M  V30 8185 C 776.913 1.43511 -1.85585 0
M  V30 8186 C 777.929 1.57162 -0.746726 0
M  V30 8187 O 779.105 1.72477 -1.03988 0
M  V30 8188 C 776.17 2.78386 -2.06646 0
M  V30 8189 C 775.231 2.74007 -3.30483 0
M  V30 8190 C 774.464 4.02449 -3.50529 0
M  V30 8191 O 774.687 5.00147 -2.74242 0
M  V30 8192 O 773.621 4.06405 -4.4398 0
M  V30 8193 H 777.447 1.19731 -2.79102 0
M  V30 8194 H 775.032 0.528033 -1.39758 0
M  V30 8195 H 776.914 3.58247 -2.21894 0
M  V30 8196 H 775.589 3.0208 -1.16317 0
M  V30 8197 H 774.496 1.92736 -3.2063 0
M  V30 8198 H 775.829 2.55267 -4.20832 0
M  V30 8199 N 777.481 1.45874 0.596531 0
M  V30 8200 C 778.897 1.30524 0.918459 0
M  V30 8201 C 779.097 0.266429 1.99731 0
M  V30 8202 O 778.153 -0.335809 2.50257 0
M  V30 8203 C 779.466 2.68747 1.3489 0
M  V30 8204 C 781.014 2.7673 1.46251 0
M  V30 8205 C 781.489 4.15504 1.92667 0
M  V30 8206 N 782.98 4.17853 1.99883 0
M  V30 8207 C 783.715 5.22109 2.37044 0
M  V30 8208 N 783.211 6.36704 2.73094 0
M  V30 8209 N 785.004 5.09471 2.37479 0
M  V30 8210 H 777.155 2.12081 -0.116368 0
M  V30 8211 H 779.418 0.947941 0.0106033 0
M  V30 8212 H 779.124 3.46006 0.630288 0
M  V30 8213 H 778.998 2.97942 2.31323 0
M  V30 8214 H 781.385 1.99768 2.17202 0
M  V30 8215 H 781.466 2.51236 0.481054 0
M  V30 8216 H 781.11 4.92956 1.223 0
M  V30 8217 H 781.04 4.38396 2.91747 0
M  V30 8218 H 783.531 3.35163 1.74568 0
M  V30 8219 H 783.844 7.12041 3.00362 0
M  V30 8220 H 782.189 6.40087 2.70764 0
M  V30 8221 H 785.38 4.18987 2.08728 0
M  V30 8222 H 785.553 5.90837 2.66112 0
M  V30 8223 N 778.959 -0.83999 1.33349 0
M  V30 8224 C 779.889 -1.965 1.26135 0
M  V30 8225 C 780.87 -1.69505 0.142152 0
M  V30 8226 O 782.055 -1.91346 0.331743 0
M  V30 8227 C 779.185 -3.32632 0.99866 0
M  V30 8228 C 778.139 -3.74021 2.08068 0
M  V30 8229 C 777.465 -5.07947 1.67014 0
M  V30 8230 C 778.765 -3.87925 3.49731 0
M  V30 8231 H 780.459 -2.02793 2.20262 0
M  V30 8232 H 778.005 -0.974297 1.06035 0
M  V30 8233 H 779.958 -4.10903 0.934696 0
M  V30 8234 H 778.682 -3.26593 0.0217759 0
M  V30 8235 H 777.341 -2.98012 2.13505 0
M  V30 8236 H 776.989 -4.98378 0.680316 0
M  V30 8237 H 776.689 -5.36611 2.39422 0
M  V30 8238 H 778.213 -5.88695 1.62082 0
M  V30 8239 H 779.627 -4.5651 3.46802 0
M  V30 8240 H 778.024 -4.28023 4.20614 0
M  V30 8241 H 779.094 -2.90407 3.88319 0
M  V30 8242 N 780.437 -1.16799 -1.0581 0
M  V30 8243 C 781.384 -0.87902 -2.13405 0
M  V30 8244 C 782.354 0.174541 -1.6518 0
M  V30 8245 O 783.539 0.0386843 -1.90761 0
M  V30 8246 C 780.679 -0.391616 -3.42871 0
M  V30 8247 C 779.792 -1.50857 -4.04804 0
M  V30 8248 C 778.927 -0.975682 -5.22163 0
M  V30 8249 C 777.966 -2.06851 -5.76089 0
M  V30 8250 N 777.103 -1.55085 -6.84758 0
M  V30 8251 H 781.943 -1.80043 -2.37463 0
M  V30 8252 H 779.48 -0.898083 -1.16503 0
M  V30 8253 H 781.438 -0.0906247 -4.17102 0
M  V30 8254 H 780.068 0.49284 -3.19016 0
M  V30 8255 H 779.12 -1.92542 -3.28073 0
M  V30 8256 H 780.432 -2.33305 -4.40874 0
M  V30 8257 H 779.586 -0.628165 -6.03439 0
M  V30 8258 H 778.325 -0.120566 -4.87551 0
M  V30 8259 H 777.33 -2.42467 -4.93447 0
M  V30 8260 H 778.555 -2.92768 -6.12751 0
M  V30 8261 H 776.501 -0.718345 -6.52055 0
M  V30 8262 H 776.418 -2.31145 -7.19797 0
M  V30 8263 H 777.686 -1.23206 -7.69702 0
M  V30 8264 N 781.915 1.24427 -0.967243 0
M  V30 8265 C 783.14 1.9708 -0.646069 0
M  V30 8266 C 783.565 1.71272 0.777665 0
M  V30 8267 O 782.923 0.976179 1.52776 0
M  V30 8268 C 782.971 3.48501 -0.926266 0
M  V30 8269 O 782.075 4.12398 -0.0114653 0
M  V30 8270 H 781.416 0.617423 -0.244304 0
M  V30 8271 H 783.946 1.58215 -1.29727 0
M  V30 8272 H 783.956 3.98885 -0.857619 0
M  V30 8273 H 782.631 3.66613 -1.96386 0
M  V30 8274 H 781.208 3.72661 -0.133396 0
M  V30 8275 N 783.393 0.737304 1.3929 0
M  V30 8276 C 784.809 0.413132 1.5416 0
M  V30 8277 C 785.009 -1.07574 1.70382 0
M  V30 8278 O 784.065 -1.86185 1.70562 0
M  V30 8279 C 785.378 1.19817 2.75798 0
M  V30 8280 C 786.926 1.18662 2.89635 0
M  V30 8281 C 787.401 1.95427 4.14213 0
M  V30 8282 N 788.892 1.92605 4.21257 0
M  V30 8283 C 789.627 2.48808 5.16606 0
M  V30 8284 N 789.123 3.13659 6.1773 0
M  V30 8285 N 790.916 2.38829 5.08839 0
M  V30 8286 H 783.067 1.70243 1.27008 0
M  V30 8287 H 785.33 0.720802 0.61575 0
M  V30 8288 H 785.036 2.25179 2.70161 0
M  V30 8289 H 784.91 0.804144 3.68529 0
M  V30 8290 H 787.297 0.141112 2.94762 0
M  V30 8291 H 787.378 1.62003 1.97961 0
M  V30 8292 H 787.022 2.9998 4.09847 0
M  V30 8293 H 786.952 1.4949 5.04936 0
M  V30 8294 H 789.443 1.45362 3.48824 0
M  V30 8295 H 789.756 3.54006 6.8695 0
M  V30 8296 H 788.101 3.17749 6.1811 0
M  V30 8297 H 791.292 1.87806 4.28773 0
M  V30 8298 H 791.465 2.82929 5.82971 0
M  V30 8299 N 784.871 -1.49948 0.485112 0
M  V30 8300 C 786.12 -2.01589 -0.066765 0
M  V30 8301 C 786.433 -1.371 -1.39509 0
M  V30 8302 O 787.639 -1.79978 -2.03274 0
M  V30 8303 C 786.095 -3.59501 -0.169476 0
M  V30 8304 C 785.703 -4.32955 1.15126 0
M  V30 8305 C 787.447 -4.19138 -0.672564 0
M  V30 8306 C 785.354 -5.82684 1.01158 0
M  V30 8307 H 784.284 -0.753453 -0.0287259 0
M  V30 8308 H 786.935 -1.72632 0.622132 0
M  V30 8309 H 785.317 -3.85106 -0.922471 0
M  V30 8310 H 786.491 -4.19064 1.9163 0
M  V30 8311 H 784.806 -3.84991 1.58654 0
M  V30 8312 H 787.403 -5.28767 -0.794325 0
M  V30 8313 H 787.746 -3.81447 -1.66745 0
M  V30 8314 H 788.279 -3.97793 0.0234415 0
M  V30 8315 H 785.018 -6.24873 1.98025 0
M  V30 8316 H 784.538 -5.99112 0.287151 0
M  V30 8317 H 786.217 -6.43376 0.683847 0
M  V30 8318 N 786.349 -0.21828 -1.56081 0
M  V30 8319 C 787.312 0.679633 -2.18892 0
M  V30 8320 C 788.312 1.12405 -1.14986 0
M  V30 8321 O 789.502 1.03339 -1.40238 0
M  V30 8322 C 786.634 1.93063 -2.80962 0
M  V30 8323 H 787.827 0.132066 -2.99609 0
M  V30 8324 H 785.38 0.0313374 -1.56269 0
M  V30 8325 H 786.115 2.52015 -2.04106 0
M  V30 8326 H 785.9 1.62046 -3.57048 0
M  V30 8327 H 787.39 2.57043 -3.29118 0
M  V30 8328 N 787.827 1.57504 0.0551401 0
M  V30 8329 C 788.737 2.08198 1.08124 0
M  V30 8330 C 789.753 1.01496 1.41331 0
M  V30 8331 O 790.929 1.33073 1.51174 0
M  V30 8332 C 787.994 2.52968 2.37083 0
M  V30 8333 C 787.055 3.7404 2.10696 0
M  V30 8334 C 786.288 4.16665 3.33505 0
M  V30 8335 O 786.511 3.59019 4.4324 0
M  V30 8336 O 785.445 5.09324 3.20737 0
M  V30 8337 H 789.271 2.95977 0.680518 0
M  V30 8338 H 786.856 1.46933 0.270401 0
M  V30 8339 H 788.738 2.82211 3.12946 0
M  V30 8340 H 787.413 1.6831 2.76502 0
M  V30 8341 H 786.32 3.49855 1.32484 0
M  V30 8342 H 787.653 4.59601 1.76148 0
M  V30 8343 N 789.305 -0.326896 1.54172 0
M  V30 8344 C 790.554 -1.06274 1.71431 0
M  V30 8345 C 790.867 -1.89282 0.493123 0
M  V30 8346 O 792.073 -2.65933 0.54699 0
M  V30 8347 C 790.529 -1.93892 3.03206 0
M  V30 8348 C 790.137 -1.16011 4.32719 0
M  V30 8349 C 791.881 -2.67232 3.29829 0
M  V30 8350 C 789.788 -2.02755 5.55558 0
M  V30 8351 H 788.718 -0.400475 0.638855 0
M  V30 8352 H 791.369 -0.321184 1.80667 0
M  V30 8353 H 789.751 -2.71933 2.87869 0
M  V30 8354 H 790.925 -0.427643 4.58811 0
M  V30 8355 H 789.24 -0.54367 4.12836 0
M  V30 8356 H 791.837 -3.32434 4.18798 0
M  V30 8357 H 792.18 -3.34692 2.47562 0
M  V30 8358 H 792.713 -1.96255 3.46018 0
M  V30 8359 H 789.452 -1.3981 6.40417 0
M  V30 8360 H 788.972 -2.73745 5.33689 0
M  V30 8361 H 790.651 -2.61419 5.91835 0
M  V30 8362 N 790.784 -1.46188 -0.588786 0
M  V30 8363 C 791.734 -1.5271 -1.69303 0
M  V30 8364 C 792.718 -0.388578 -1.56137 0
M  V30 8365 O 793.91 -0.636616 -1.65155 0
M  V30 8366 C 791.039 -1.51457 -3.08084 0
M  V30 8367 C 790.125 -2.70581 -3.26568 0
M  V30 8368 N 790.516 -3.9555 -3.15236 0
M  V30 8369 C 788.814 -2.66676 -3.57491 0
M  V30 8370 C 789.515 -4.75157 -3.35561 0
M  V30 8371 N 788.491 -4.06927 -3.60432 0
M  V30 8372 H 792.293 -2.47136 -1.59063 0
M  V30 8373 H 789.807 -1.41743 -0.792632 0
M  V30 8374 H 791.804 -1.54216 -3.87328 0
M  V30 8375 H 790.464 -0.581036 -3.19459 0
M  V30 8376 H 791.475 -4.2689 -2.93232 0
M  V30 8377 H 788.152 -1.82317 -3.75588 0
M  V30 8378 H 789.542 -5.84126 -3.32034 0
M  V30 8379 N 792.262 0.832906 -1.33792 0
M  V30 8380 C 793.172 1.97514 -1.26592 0
M  V30 8381 C 794.188 1.73114 -0.175391 0
M  V30 8382 O 795.364 1.97387 -0.400062 0
M  V30 8383 C 792.429 3.31625 -1.01121 0
M  V30 8384 C 791.49 3.69101 -2.19233 0
M  V30 8385 C 790.723 4.96813 -1.94968 0
M  V30 8386 O 790.946 5.63208 -0.902955 0
M  V30 8387 O 789.88 5.31932 -2.8166 0
M  V30 8388 H 793.706 2.0653 -2.22664 0
M  V30 8389 H 791.291 0.966826 -1.13898 0
M  V30 8390 H 793.173 4.11968 -0.886571 0
M  V30 8391 H 791.848 3.23599 -0.080822 0
M  V30 8392 H 790.755 2.89243 -2.37253 0
M  V30 8393 H 792.088 3.818 -3.10628 0
M  V30 8394 N 793.74 1.17359 1.05189 0
M  V30 8395 C 794.965 0.98709 1.82404 0
M  V30 8396 C 795.39 -0.459848 1.82392 0
M  V30 8397 O 794.748 -1.32924 1.23292 0
M  V30 8398 C 794.796 1.53276 3.26403 0
M  V30 8399 O 793.9 0.746541 4.05587 0
M  V30 8400 H 793.241 0.35047 0.563974 0
M  V30 8401 H 795.771 1.55856 1.32552 0
M  V30 8402 H 795.781 1.55504 3.77203 0
M  V30 8403 H 794.456 2.58603 3.25726 0
M  V30 8404 H 793.033 0.795671 3.64312 0
M  V30 8405 N 795.218 -1.23913 0.973828 0
M  V30 8406 C 796.634 -1.44325 0.681363 0
M  V30 8407 C 796.834 -1.86832 -0.754728 0
M  V30 8408 O 795.89 -2.01024 -1.52793 0
M  V30 8409 C 797.203 -2.50017 1.67069 0
M  V30 8410 C 798.751 -2.63838 1.68399 0
M  V30 8411 C 799.226 -3.72734 2.66145 0
M  V30 8412 N 800.717 -3.80169 2.64624 0
M  V30 8413 C 801.452 -4.6397 3.36927 0
M  V30 8414 N 800.948 -5.51911 4.18767 0
M  V30 8415 N 802.741 -4.58106 3.25722 0
M  V30 8416 H 794.892 -0.946204 1.9016 0
M  V30 8417 H 797.155 -0.477374 0.819035 0
M  V30 8418 H 796.861 -2.25686 2.69738 0
M  V30 8419 H 796.735 -3.48287 1.4483 0
M  V30 8420 H 799.122 -2.87524 0.664379 0
M  V30 8421 H 799.203 -1.65906 1.94702 0
M  V30 8422 H 798.847 -3.49797 3.68245 0
M  V30 8423 H 798.777 -4.70193 2.3712 0
M  V30 8424 H 801.268 -3.17319 2.05224 0
M  V30 8425 H 801.581 -6.12828 4.70809 0
M  V30 8426 H 799.926 -5.51556 4.2286 0
M  V30 8427 H 803.117 -3.8842 2.61242 0
M  V30 8428 H 803.29 -5.23188 3.82333 0
M  V30 8429 N 796.696 -0.74468 -1.38897 0
M  V30 8430 C 797.924 -0.307428 -2.04603 0
M  V30 8431 C 798.339 1.06115 -1.56157 0
M  V30 8432 O 797.696 1.67233 -0.730701 0
M  V30 8433 C 797.747 -0.31101 -3.6016 0
M  V30 8434 O 797.468 -1.62557 -4.06825 0
M  V30 8435 C 798.969 0.141213 -4.43075 0
M  V30 8436 H 796.189 -0.132741 -0.657739 0
M  V30 8437 H 798.733 -1.01104 -1.77759 0
M  V30 8438 H 796.888 0.343792 -3.85872 0
M  V30 8439 H 797.302 -1.54569 -5.01207 0
M  V30 8440 H 798.776 0.0875449 -5.51931 0
M  V30 8441 H 799.253 1.18782 -4.22833 0
M  V30 8442 H 799.859 -0.484383 -4.22533 0
M  V30 8443 N 798.174 1.49689 -0.493057 0
M  V30 8444 C 799.121 2.28976 0.28959 0
M  V30 8445 C 800.091 1.35011 0.967536 0
M  V30 8446 O 801.276 1.63964 0.975736 0
M  V30 8447 C 798.416 3.1748 1.35279 0
M  V30 8448 C 797.529 4.26496 0.687418 0
M  V30 8449 C 796.664 5.02226 1.73038 0
M  V30 8450 C 795.703 6.03089 1.04645 0
M  V30 8451 N 794.84 6.72014 2.03325 0
M  V30 8452 H 799.68 2.954 -0.392798 0
M  V30 8453 H 797.217 1.45657 -0.205554 0
M  V30 8454 H 799.175 3.67162 1.98111 0
M  V30 8455 H 797.805 2.53057 2.00405 0
M  V30 8456 H 796.857 3.80362 -0.0540001 0
M  V30 8457 H 798.169 4.98578 0.14864 0
M  V30 8458 H 797.323 5.55737 2.43395 0
M  V30 8459 H 796.062 4.29899 2.303 0
M  V30 8460 H 795.067 5.48817 0.328606 0
M  V30 8461 H 796.292 6.77398 0.480428 0
M  V30 8462 H 794.238 6.02464 2.59564 0
M  V30 8463 H 794.155 7.40046 1.54492 0
M  V30 8464 H 795.423 7.30133 2.72995 0
M  V30 8465 N 799.652 0.226554 1.55963 0
M  V30 8466 C 800.582 -0.676079 2.23498 0
M  V30 8467 C 801.563 -1.19718 1.20837 0
M  V30 8468 O 802.748 -1.24027 1.49436 0
M  V30 8469 C 799.878 -1.88217 2.91876 0
M  V30 8470 C 798.832 -1.4947 4.01052 0
M  V30 8471 C 798.158 -2.77997 4.56751 0
M  V30 8472 C 799.458 -0.680951 5.17842 0
M  V30 8473 H 801.152 -0.112989 2.99187 0
M  V30 8474 H 798.698 -0.0529046 1.43903 0
M  V30 8475 H 800.651 -2.51911 3.37815 0
M  V30 8476 H 799.375 -2.47031 2.13643 0
M  V30 8477 H 798.034 -0.881199 3.55852 0
M  V30 8478 H 797.682 -3.34966 3.75243 0
M  V30 8479 H 797.382 -2.52803 5.30438 0
M  V30 8480 H 798.906 -3.42625 5.05411 0
M  V30 8481 H 800.32 -1.22171 5.60131 0
M  V30 8482 H 798.717 -0.525898 5.97791 0
M  V30 8483 H 799.787 0.311346 4.83899 0
M  V30 8484 N 801.13 -1.57531 -0.0467866 0
M  V30 8485 C 802.04 -2.08768 -1.07018 0
M  V30 8486 C 803.056 -1.02245 -1.40791 0
M  V30 8487 O 804.232 -1.33873 -1.50466 0
M  V30 8488 C 801.297 -2.54221 -2.35738 0
M  V30 8489 C 800.358 -3.75152 -2.08709 0
M  V30 8490 C 799.591 -4.18428 -3.31291 0
M  V30 8491 O 799.814 -3.61365 -4.4133 0
M  V30 8492 O 798.748 -5.11018 -3.18032 0
M  V30 8493 H 802.574 -2.96334 -0.664812 0
M  V30 8494 H 800.159 -1.47074 -0.262605 0
M  V30 8495 H 802.041 -2.83866 -3.11445 0
M  V30 8496 H 800.716 -1.69774 -2.75605 0
M  V30 8497 H 799.623 -3.50553 -1.30627 0
M  V30 8498 H 800.956 -4.60528 -1.73708 0
M  V30 8499 N 802.608 0.318715 -1.54344 0
M  V30 8500 C 803.54 1.41364 -1.80413 0
M  V30 8501 C 804.553 1.47627 -0.686294 0
M  V30 8502 O 805.742 1.50264 -0.963486 0
M  V30 8503 C 802.842 2.79867 -1.91123 0
M  V30 8504 C 802.015 2.96749 -3.21339 0
M  V30 8505 C 801.074 4.15642 -3.22689 0
M  V30 8506 O 800.1 4.08571 -3.96306 0
M  V30 8507 N 801.302 5.25416 -2.46817 0
M  V30 8508 H 804.067 1.19363 -2.74905 0
M  V30 8509 H 801.628 0.508722 -1.537 0
M  V30 8510 H 803.62 3.57619 -1.89448 0
M  V30 8511 H 802.19 2.94896 -1.03706 0
M  V30 8512 H 801.41 2.06257 -3.35934 0
M  V30 8513 H 802.698 3.04927 -4.07304 0
M  V30 8514 H 802.096 5.34037 -1.86605 0
M  V30 8515 H 800.653 6.01569 -2.50915 0
M  V30 8516 N 804.086 1.46499 0.581025 0
M  V30 8517 C 805.018 1.53225 1.70455 0
M  V30 8518 C 806.031 0.420443 1.57277 0
M  V30 8519 O 807.22 0.688888 1.64671 0
M  V30 8520 C 804.32 1.39803 3.08721 0
M  V30 8521 C 803.493 2.65132 3.47884 0
M  V30 8522 C 802.552 2.45886 4.65217 0
M  V30 8523 O 801.578 3.19615 4.70993 0
M  V30 8524 N 802.78 1.5216 5.60203 0
M  V30 8525 H 805.545 2.50098 1.65139 0
M  V30 8526 H 803.106 1.42576 0.76705 0
M  V30 8527 H 805.098 1.24697 3.8501 0
M  V30 8528 H 803.668 0.51104 3.08394 0
M  V30 8529 H 802.888 2.95169 2.61284 0
M  V30 8530 H 804.176 3.48385 3.70817 0
M  V30 8531 H 803.574 0.913646 5.58273 0
M  V30 8532 H 802.131 1.43017 6.35916 0
M  V30 8533 N 805.565 -0.825799 1.34232 0
M  V30 8534 C 806.495 -1.95151 1.28212 0
M  V30 8535 C 807.476 -1.69345 0.160123 0
M  V30 8536 O 808.661 -1.90983 0.352019 0
M  V30 8537 C 805.791 -3.31554 1.03388 0
M  V30 8538 C 804.745 -3.71793 2.12023 0
M  V30 8539 C 804.071 -5.06147 1.72392 0
M  V30 8540 C 805.371 -3.84193 3.53826 0
M  V30 8541 H 807.065 -2.00445 2.22401 0
M  V30 8542 H 804.611 -0.962996 1.07063 0
M  V30 8543 H 806.564 -4.09889 0.978225 0
M  V30 8544 H 805.288 -3.26551 0.0564142 0
M  V30 8545 H 803.947 -2.95731 2.16654 0
M  V30 8546 H 803.595 -4.97628 0.733137 0
M  V30 8547 H 803.295 -5.34041 2.451 0
M  V30 8548 H 804.819 -5.86943 1.68317 0
M  V30 8549 H 806.233 -4.52806 3.51624 0
M  V30 8550 H 804.63 -4.23538 4.2513 0
M  V30 8551 H 805.7 -2.86272 3.91377 0
M  V30 8552 N 807.043 -1.17915 -1.04565 0
M  V30 8553 C 808.459 -0.927761 -1.29864 0
M  V30 8554 C 808.659 0.409536 -1.97294 0
M  V30 8555 O 807.715 1.14505 -2.25044 0
M  V30 8556 C 809.028 -2.08967 -2.16225 0
M  V30 8557 C 810.576 -2.12741 -2.29587 0
M  V30 8558 C 811.051 -3.28335 -3.19312 0
M  V30 8559 N 812.542 -3.28164 -3.26898 0
M  V30 8560 C 813.277 -4.14249 -3.96466 0
M  V30 8561 N 812.773 -5.10457 -4.68407 0
M  V30 8562 N 814.566 -4.02179 -3.92694 0
M  V30 8563 H 806.717 -2.03983 -0.592011 0
M  V30 8564 H 808.98 -0.891023 -0.323701 0
M  V30 8565 H 808.686 -3.05654 -1.73979 0
M  V30 8566 H 808.56 -2.04606 -3.16885 0
M  V30 8567 H 810.947 -1.16636 -2.71072 0
M  V30 8568 H 811.028 -2.21162 -1.28535 0
M  V30 8569 H 810.672 -4.2471 -2.78539 0
M  V30 8570 H 810.602 -3.17151 -4.20384 0
M  V30 8571 H 813.093 -2.58511 -2.75646 0
M  V30 8572 H 813.406 -5.72526 -5.1907 0
M  V30 8573 H 811.751 -5.14422 -4.67328 0
M  V30 8574 H 814.942 -3.26308 -3.3562 0
M  V30 8575 H 815.115 -4.69486 -4.4664 0
M  V30 8576 N 808.521 1.23394 -0.980386 0
M  V30 8577 C 809.484 2.23092 -0.525619 0
M  V30 8578 C 810.484 1.56129 0.384745 0
M  V30 8579 O 811.674 1.73284 0.178439 0
M  V30 8580 C 808.806 3.40074 0.23712 0
M  V30 8581 H 809.999 2.64839 -1.40714 0
M  V30 8582 H 807.552 1.36227 -0.766275 0
M  V30 8583 H 808.287 3.03783 1.13518 0
M  V30 8584 H 808.072 3.89883 -0.416356 0
M  V30 8585 H 809.562 4.14043 0.543892 0
M  V30 8586 N 809.999 0.752036 1.385 0
M  V30 8587 C 810.931 0.0835089 2.29048 0
M  V30 8588 C 811.944 -0.685402 1.47669 0
M  V30 8589 O 813.133 -0.526748 1.70551 0
M  V30 8590 C 810.233 -0.905772 3.26572 0
M  V30 8591 C 809.406 -0.194828 4.36966 0
M  V30 8592 C 808.465 -1.09464 5.14688 0
M  V30 8593 O 807.491 -0.565743 5.66381 0
M  V30 8594 N 808.693 -2.42287 5.2752 0
M  V30 8595 H 811.458 0.861142 2.87062 0
M  V30 8596 H 809.019 0.602689 1.50264 0
M  V30 8597 H 811.011 -1.51072 3.75446 0
M  V30 8598 H 809.581 -1.58449 2.69467 0
M  V30 8599 H 808.801 0.590812 3.89747 0
M  V30 8600 H 810.089 0.297189 5.07931 0
M  V30 8601 H 809.487 -2.87715 4.8707 0
M  V30 8602 H 808.044 -2.97836 5.79773 0
M  V30 8603 N 811.477 -1.49425 0.500989 0
M  V30 8604 C 812.44 -2.27646 -0.266416 0
M  V30 8605 C 813.44 -1.3366 -0.893961 0
M  V30 8606 O 814.63 -1.5682 -0.758495 0
M  V30 8607 C 811.762 -3.11618 -1.38227 0
M  V30 8608 H 812.955 -2.96945 0.419973 0
M  V30 8609 H 810.508 -1.5419 0.255954 0
M  V30 8610 H 811.243 -2.46885 -2.10281 0
M  V30 8611 H 811.028 -3.80721 -0.937746 0
M  V30 8612 H 812.518 -3.70698 -1.92283 0
M  V30 8613 N 812.955 -0.234822 -1.55841 0
M  V30 8614 C 814.18 0.400741 -2.03492 0
M  V30 8615 C 814.605 1.51618 -1.11327 0
M  V30 8616 O 813.963 1.81002 -0.103922 0
M  V30 8617 C 814.011 0.897184 -3.49261 0
M  V30 8618 O 813.115 2.00764 -3.60233 0
M  V30 8619 H 812.456 0.0890023 -0.658008 0
M  V30 8620 H 814.986 -0.357345 -2.01455 0
M  V30 8621 H 814.996 1.20356 -3.89844 0
M  V30 8622 H 813.671 0.0808639 -4.15821 0
M  V30 8623 H 812.248 1.70689 -3.31541 0
M  V30 8624 N 814.433 1.57553 0.0384317 0
M  V30 8625 C 815.71 1.79977 0.766002 0
M  V30 8626 C 816.09 0.830625 1.94072 0
M  V30 8627 O 815.438 -0.129243 2.28134 0
M  V30 8628 C 815.648 3.27434 1.20781 0
M  V30 8629 C 816.996 3.92167 1.62758 0
M  V30 8630 O 818.02 3.31527 1.30263 0
M  V30 8631 O 816.879 4.98917 2.23035 0
M  V30 8632 H 813.973 0.739787 0.369654 0
M  V30 8633 H 816.519 1.69693 0.0159312 0
M  V30 8634 H 815.291 3.89558 0.368792 0
M  V30 8635 H 814.914 3.42571 2.01819 0
M  V30 8636 N 815.911 -0.310526 1.54511 0
M  V30 8637 C 816.859 -1.40272 1.85544 0
M  V30 8638 C 817.853 -1.52941 0.728377 0
M  V30 8639 O 819.059 -1.55172 0.912234 0
M  V30 8640 H 815.434 -0.468355 0.588343 0
M  V30 8641 H 817.405 -1.11329 2.76855 0
M  V30 8642 C 816.154 -2.76279 2.11105 0
M  V30 8643 H 815.477 -2.67308 2.97298 0
M  V30 8644 H 816.917 -3.51736 2.36765 0
M  V30 8645 C 815.376 -3.24472 0.906618 0
M  V30 8646 O 815.906 -4.01514 0.122358 0
M  V30 8647 N 814.112 -2.81676 0.714632 0
M  V30 8648 H 813.659 -2.19143 1.35404 0
M  V30 8649 H 813.617 -3.14272 -0.089703 0
M  V30 8650 N 817.389 -1.46805 -0.573248 0
M  V30 8651 C 818.805 -1.31969 -0.897577 0
M  V30 8652 C 819.005 -0.298171 -1.99282 0
M  V30 8653 O 818.061 0.295953 -2.5076 0
M  V30 8654 C 819.374 -2.70859 -1.30598 0
M  V30 8655 C 820.922 -2.79022 -1.4183 0
M  V30 8656 C 821.397 -4.18516 -1.86033 0
M  V30 8657 N 822.888 -4.2098 -1.9321 0
M  V30 8658 C 823.623 -5.25814 -2.28707 0
M  V30 8659 N 823.119 -6.40968 -2.6293 0
M  V30 8660 N 824.912 -5.13184 -2.29343 0
M  V30 8661 H 817.063 -2.11869 0.150094 0
M  V30 8662 H 819.326 -0.947989 0.00447895 0
M  V30 8663 H 819.032 -3.46965 -0.575161 0
M  V30 8664 H 818.906 -3.01585 -2.26554 0
M  V30 8665 H 821.293 -2.03198 -2.13996 0
M  V30 8666 H 821.374 -2.51969 -0.441024 0
M  V30 8667 H 821.018 -4.94839 -1.14442 0
M  V30 8668 H 820.948 -4.42982 -2.84735 0
M  V30 8669 H 823.439 -3.37898 -1.69214 0
M  V30 8670 H 823.752 -7.16729 -2.88996 0
M  V30 8671 H 822.097 -6.44314 -2.60547 0
M  V30 8672 H 825.288 -4.22255 -2.02036 0
M  V30 8673 H 825.461 -5.94996 -2.56679 0
M  V30 8674 N 818.867 0.818669 -1.34668 0
M  V30 8675 C 819.777 1.9616 -1.2868 0
M  V30 8676 C 820.793 1.72918 -0.193742 0
M  V30 8677 O 821.969 1.96951 -0.420975 0
M  V30 8678 C 819.034 3.30534 -1.04633 0
M  V30 8679 C 818.095 3.66755 -2.23136 0
M  V30 8680 C 817.328 4.94717 -2.00227 0
M  V30 8681 O 817.551 5.62218 -0.96264 0
M  V30 8682 O 816.485 5.28915 -2.87286 0
M  V30 8683 H 820.311 2.04157 -2.24842 0
M  V30 8684 H 817.896 0.954691 -1.14917 0
M  V30 8685 H 819.778 4.11005 -0.930216 0
M  V30 8686 H 818.453 3.23495 -0.115139 0
M  V30 8687 H 817.36 2.8671 -2.40308 0
M  V30 8688 H 818.693 3.78484 -3.1466 0
M  V30 8689 N 820.346 1.18468 1.03938 0
M  V30 8690 C 821.595 0.975193 1.76558 0
M  V30 8691 C 821.908 -0.495978 1.89207 0
M  V30 8692 O 823.114 -0.824009 2.58694 0
M  V30 8693 C 821.57 1.69579 3.17444 0
M  V30 8694 C 821.178 3.20636 3.12884 0
M  V30 8695 C 822.922 1.56917 3.94433 0
M  V30 8696 C 820.829 3.8533 4.48636 0
M  V30 8697 H 819.759 0.361244 0.66183 0
M  V30 8698 H 822.41 1.41854 1.16403 0
M  V30 8699 H 820.792 1.18022 3.78004 0
M  V30 8700 H 821.966 3.79228 2.61768 0
M  V30 8701 H 820.281 3.33454 2.49394 0
M  V30 8702 H 822.878 2.02611 4.94826 0
M  V30 8703 H 823.221 0.521638 4.13019 0
M  V30 8704 H 823.754 2.05762 3.40451 0
M  V30 8705 H 820.493 4.90136 4.35255 0
M  V30 8706 H 820.013 3.31526 4.99851 0
M  V30 8707 H 821.692 3.88269 5.17549 0
M  V30 8708 N 821.824 -1.22873 0.986916 0
M  V30 8709 C 823.101 -1.86939 0.575589 0
M  V30 8710 C 823.481 -1.88656 -0.947205 0
M  V30 8711 O 822.829 -1.3728 -1.82665 0
M  V30 8712 C 823.039 -3.28117 1.18914 0
M  V30 8713 C 824.387 -4.04659 1.28593 0
M  V30 8714 O 825.411 -3.3736 1.14308 0
M  V30 8715 O 824.27 -5.25112 1.51391 0
M  V30 8716 H 821.364 -0.803748 0.194724 0
M  V30 8717 H 823.91 -1.30698 1.08241 0
M  V30 8718 H 822.682 -3.21468 2.231 0
M  V30 8719 H 822.305 -3.91956 0.667535 0
M  V30 8720 N 823.302 -0.75937 -1.38099 0
M  V30 8721 C 824.249 -0.135508 -2.30402 0
M  V30 8722 C 825.219 0.703356 -1.50473 0
M  V30 8723 O 826.404 0.658287 -1.79084 0
M  V30 8724 C 823.544 0.747228 -3.36913 0
M  V30 8725 C 822.657 -0.106893 -4.31868 0
M  V30 8726 C 821.792 0.779388 -5.25451 0
M  V30 8727 C 820.831 -0.0780179 -6.1205 0
M  V30 8728 N 819.968 0.765545 -6.97914 0
M  V30 8729 H 824.808 -0.9282 -2.83176 0
M  V30 8730 H 822.345 -0.46935 -1.39411 0
M  V30 8731 H 824.303 1.27371 -3.97281 0
M  V30 8732 H 822.933 1.50565 -2.85535 0
M  V30 8733 H 821.985 -0.751063 -3.72912 0
M  V30 8734 H 823.297 -0.768798 -4.9284 0
M  V30 8735 H 822.451 1.37282 -5.90964 0
M  V30 8736 H 821.19 1.47501 -4.6486 0
M  V30 8737 H 820.195 -0.684078 -5.45528 0
M  V30 8738 H 821.42 -0.770786 -6.74712 0
M  V30 8739 H 819.366 1.44601 -6.39864 0
M  V30 8740 H 819.283 0.160666 -7.55829 0
M  V30 8741 H 820.551 1.34377 -7.6783 0
M  V30 8742 N 824.78 1.49157 -0.508906 0
M  V30 8743 C 826.196 1.58741 -0.165372 0
M  V30 8744 C 826.396 1.5133 1.33047 0
M  V30 8745 O 825.452 1.39135 2.10707 0
M  V30 8746 C 826.765 2.91217 -0.749194 0
M  V30 8747 C 828.313 3.047 -0.716015 0
M  V30 8748 C 828.788 4.39807 -1.27804 0
M  V30 8749 N 830.279 4.46319 -1.23908 0
M  V30 8750 C 831.014 5.49325 -1.64406 0
M  V30 8751 N 830.51 6.59395 -2.12534 0
M  V30 8752 N 832.303 5.40084 -1.55773 0
M  V30 8753 H 824.454 1.52217 -1.48134 0
M  V30 8754 H 826.717 0.721514 -0.614915 0
M  V30 8755 H 826.423 3.02233 -1.79856 0
M  V30 8756 H 826.297 3.76592 -0.214144 0
M  V30 8757 H 828.684 2.9331 0.324535 0
M  V30 8758 H 828.765 2.2099 -1.2883 0
M  V30 8759 H 828.409 4.5195 -2.31741 0
M  V30 8760 H 828.339 5.2217 -0.681623 0
M  V30 8761 H 830.83 3.67354 -0.886537 0
M  V30 8762 H 831.143 7.34102 -2.41485 0
M  V30 8763 H 829.488 6.60414 -2.16513 0
M  V30 8764 H 832.679 4.52986 -1.17987 0
M  V30 8765 H 832.852 6.20233 -1.87657 0
M  V30 8766 N 826.258 0.243083 1.55714 0
M  V30 8767 C 827.191 -0.698623 2.17243 0
M  V30 8768 C 828.169 -1.1756 1.12331 0
M  V30 8769 O 829.353 -1.25444 1.40699 0
M  V30 8770 C 826.48 -1.94901 2.77004 0
M  V30 8771 C 825.526 -1.61022 3.94936 0
M  V30 8772 S 826.359 -0.716173 5.30689 0
M  V30 8773 C 827.515 -1.97565 5.93901 0
M  V30 8774 H 827.748 -0.175724 2.9678 0
M  V30 8775 H 825.281 0.0275727 1.54375 0
M  V30 8776 H 827.239 -2.66687 3.12071 0
M  V30 8777 H 825.9 -2.44304 1.9742 0
M  V30 8778 H 825.093 -2.5398 4.35328 0
M  V30 8779 H 824.695 -0.972829 3.61126 0
M  V30 8780 H 826.987 -2.92333 6.11186 0
M  V30 8781 H 827.93 -1.61528 6.8943 0
M  V30 8782 H 828.338 -2.126 5.22935 0
M  V30 8783 N 827.736 -1.57571 -0.0300757 0
M  V30 8784 C 828.684 -2.0758 -1.04944 0
M  V30 8785 C 829.678 -0.989384 -1.37505 0
M  V30 8786 O 830.884 -1.17427 -1.36422 0
M  V30 8787 H 827.259 -0.662419 -0.355956 0
M  V30 8788 H 829.23 -2.92268 -0.601848 0
M  V30 8789 C 827.979 -2.5698 -2.34215 0
M  V30 8790 H 827.302 -3.40193 -2.10021 0
M  V30 8791 H 828.742 -2.95682 -3.03888 0
M  V30 8792 C 827.201 -1.47059 -3.03109 0
M  V30 8793 O 827.731 -0.83625 -3.92899 0
M  V30 8794 N 825.937 -1.20538 -2.64422 0
M  V30 8795 H 825.484 -1.72305 -1.9149 0
M  V30 8796 H 825.442 -0.472045 -3.10836 0
M  V30 8797 N 829.214 0.302327 -1.54673 0
M  V30 8798 C 830.439 1.06103 -1.78205 0
M  V30 8799 C 830.864 1.80204 -0.53926 0
M  V30 8800 O 830.222 1.73975 0.510142 0
M  V30 8801 C 830.27 2.01829 -2.98827 0
M  V30 8802 O 829.374 3.10108 -2.71858 0
M  V30 8803 H 828.715 0.30487 -0.589873 0
M  V30 8804 H 831.245 0.340153 -2.01753 0
M  V30 8805 H 831.255 2.44319 -3.2676 0
M  V30 8806 H 829.93 1.473 -3.88942 0
M  V30 8807 H 828.507 2.72142 -2.54937 0
M  V30 8808 N 830.692 1.47107 0.565454 0
M  V30 8809 C 831.622 1.61846 1.68309 0
M  V30 8810 C 832.603 0.468159 1.63531 0
M  V30 8811 O 833.788 0.696504 1.8128 0
M  V30 8812 C 830.918 1.62474 3.06952 0
M  V30 8813 C 829.872 2.76649 3.26572 0
M  V30 8814 C 829.198 2.62345 4.65917 0
M  V30 8815 C 830.498 4.18319 3.12741 0
M  V30 8816 H 832.192 2.55407 1.5623 0
M  V30 8817 H 829.738 1.22916 0.750179 0
M  V30 8818 H 831.691 1.71378 3.84977 0
M  V30 8819 H 830.415 0.654692 3.19971 0
M  V30 8820 H 829.074 2.67242 2.50952 0
M  V30 8821 H 828.722 1.63386 4.75725 0
M  V30 8822 H 828.422 3.38936 4.79996 0
M  V30 8823 H 829.946 2.73165 5.46089 0
M  V30 8824 H 831.36 4.28745 3.80593 0
M  V30 8825 H 829.757 4.95632 3.38333 0
M  V30 8826 H 830.827 4.37263 2.09592 0
M  V30 8827 N 832.17 -0.811516 1.35101 0
M  V30 8828 C 833.117 -1.92308 1.27617 0
M  V30 8829 C 834.087 -1.6543 0.149091 0
M  V30 8830 O 835.272 -1.8789 0.331974 0
M  V30 8831 C 832.412 -3.28768 1.04908 0
M  V30 8832 C 831.525 -3.67865 2.26493 0
M  V30 8833 C 830.66 -4.9333 1.96974 0
M  V30 8834 C 829.699 -5.25041 3.1464 0
M  V30 8835 N 828.836 -6.41685 2.84929 0
M  V30 8836 H 833.676 -1.98041 2.22674 0
M  V30 8837 H 831.213 -0.968755 1.10696 0
M  V30 8838 H 833.171 -4.07426 0.897749 0
M  V30 8839 H 831.801 -3.22517 0.135151 0
M  V30 8840 H 830.853 -2.84507 2.52507 0
M  V30 8841 H 832.165 -3.87263 3.14371 0
M  V30 8842 H 831.319 -5.79803 1.78643 0
M  V30 8843 H 830.058 -4.75958 1.06374 0
M  V30 8844 H 829.063 -4.3706 3.33554 0
M  V30 8845 H 830.288 -5.44346 4.06035 0
M  V30 8846 H 828.234 -6.25747 1.96918 0
M  V30 8847 H 828.151 -6.6131 3.66341 0
M  V30 8848 H 829.419 -7.31198 2.70128 0
M  V30 8849 N 833.648 -1.19017 -1.03309 0
M  V30 8850 C 835.059 -0.993206 -1.5809 0
M  V30 8851 C 835.41 0.45505 -1.9085 0
M  V30 8852 O 834.535 1.33372 -1.70414 0
M  V30 8853 C 835.13 -1.79661 -2.87241 0
M  V30 8854 C 833.689 -1.64377 -3.38611 0
M  V30 8855 C 832.836 -1.78628 -2.12102 0
M  V30 8856 H 835.787 -1.3345 -0.858879 0
M  V30 8857 H 835.808 -1.29019 -3.57958 0
M  V30 8858 H 835.32 -2.85061 -2.63366 0
M  V30 8859 H 833.421 -0.615447 -3.67482 0
M  V30 8860 H 833.534 -2.44651 -4.11926 0
M  V30 8861 H 831.898 -1.21648 -2.23772 0
M  V30 8862 H 832.681 -2.8548 -1.90673 0
M  V30 8863 N 835.127 1.22348 -0.993418 0
M  V30 8864 C 836.404 1.86632 -0.585495 0
M  V30 8865 C 836.784 1.89156 0.937187 0
M  V30 8866 O 836.132 1.38247 1.81934 0
M  V30 8867 C 836.342 3.27481 -1.20652 0
M  V30 8868 C 837.69 4.03971 -1.30738 0
M  V30 8869 O 838.714 3.3675 -1.16096 0
M  V30 8870 O 837.573 5.24302 -1.54173 0
M  V30 8871 H 834.667 0.802704 -0.198984 0
M  V30 8872 H 837.213 1.30122 -1.08933 0
M  V30 8873 H 835.985 3.20281 -2.24802 0
M  V30 8874 H 835.608 3.91597 -0.688312 0
M  V30 8875 N 836.605 0.766683 1.37694 0
M  V30 8876 C 837.535 0.163432 2.32927 0
M  V30 8877 C 838.516 -0.688861 1.55527 0
M  V30 8878 O 839.701 -0.627363 1.83787 0
M  V30 8879 C 836.831 -0.720416 3.39746 0
M  V30 8880 C 835.785 0.0301718 4.27989 0
M  V30 8881 C 835.111 -0.972788 5.25776 0
M  V30 8882 C 836.411 1.20623 5.0818 0
M  V30 8883 H 838.105 0.958988 2.83626 0
M  V30 8884 H 835.651 0.462601 1.36367 0
M  V30 8885 H 837.604 -1.15221 4.05342 0
M  V30 8886 H 836.328 -1.54844 2.8756 0
M  V30 8887 H 834.987 0.442685 3.63917 0
M  V30 8888 H 834.635 -1.79522 4.69873 0
M  V30 8889 H 834.335 -0.475145 5.85676 0
M  V30 8890 H 835.859 -1.40362 5.94248 0
M  V30 8891 H 837.273 0.851341 5.66944 0
M  V30 8892 H 835.67 1.63561 5.7738 0
M  V30 8893 H 836.74 2.01281 4.41151 0
M  V30 8894 N 838.083 -1.48885 0.516809 0
M  V30 8895 C 839.016 -2.26218 -0.30011 0
M  V30 8896 C 839.994 -1.31491 -0.956496 0
M  V30 8897 O 841.178 -1.6081 -0.983488 0
M  V30 8898 C 838.305 -3.07315 -1.42392 0
M  V30 8899 C 837.351 -4.17316 -0.880295 0
M  V30 8900 S 838.184 -5.34955 0.24146 0
M  V30 8901 C 839.34 -6.1961 -0.885138 0
M  V30 8902 H 839.573 -2.95158 0.356217 0
M  V30 8903 H 837.106 -1.5141 0.302365 0
M  V30 8904 H 839.064 -3.54619 -2.06775 0
M  V30 8905 H 837.725 -2.37813 -2.05192 0
M  V30 8906 H 836.918 -4.73635 -1.72297 0
M  V30 8907 H 836.52 -3.72685 -0.313396 0
M  V30 8908 H 838.812 -6.53513 -1.78682 0
M  V30 8909 H 839.755 -7.07183 -0.360226 0
M  V30 8910 H 840.163 -5.52461 -1.1596 0
M  V30 8911 N 839.561 -0.251338 -1.55583 0
M  V30 8912 C 840.493 0.679167 -2.18906 0
M  V30 8913 C 841.506 1.13545 -1.16667 0
M  V30 8914 O 842.695 1.06146 -1.4351 0
M  V30 8915 C 839.795 1.93544 -2.78198 0
M  V30 8916 C 838.968 1.62987 -4.05899 0
M  V30 8917 C 838.027 2.73618 -4.49466 0
M  V30 8918 O 837.053 2.40815 -5.15749 0
M  V30 8919 N 838.255 4.03204 -4.1762 0
M  V30 8920 H 841.02 0.137328 -2.99385 0
M  V30 8921 H 838.581 -0.0714754 -1.61742 0
M  V30 8922 H 840.573 2.66804 -3.04299 0
M  V30 8923 H 839.143 2.38695 -2.0185 0
M  V30 8924 H 838.363 0.732237 -3.8734 0
M  V30 8925 H 839.651 1.40041 -4.89148 0
M  V30 8926 H 839.049 4.32686 -3.64416 0
M  V30 8927 H 837.606 4.72916 -4.48547 0
M  V30 8928 N 841.039 1.57585 0.0217189 0
M  V30 8929 C 841.969 2.10073 1.01939 0
M  V30 8930 C 842.95 1.0049 1.37243 0
M  V30 8931 O 844.135 1.28055 1.45999 0
M  V30 8932 C 841.265 2.58618 2.31806 0
M  V30 8933 C 840.219 3.72531 2.10724 0
M  V30 8934 C 839.545 4.07309 3.46415 0
M  V30 8935 C 840.845 5.00672 1.48743 0
M  V30 8936 H 842.539 2.9368 0.582432 0
M  V30 8937 H 840.085 1.41277 0.278715 0
M  V30 8938 H 842.038 2.9396 3.01936 0
M  V30 8939 H 840.762 1.72104 2.77575 0
M  V30 8940 H 839.421 3.37549 1.43025 0
M  V30 8941 H 839.069 3.17851 3.89846 0
M  V30 8942 H 838.769 4.84042 3.33132 0
M  V30 8943 H 840.293 4.45192 4.17895 0
M  V30 8944 H 841.707 5.33925 2.088 0
M  V30 8945 H 840.104 5.82065 1.46013 0
M  V30 8946 H 841.174 4.82769 0.45408 0
M  V30 8947 N 842.517 -0.29412 1.54831 0
M  V30 8948 C 843.933 -0.640167 1.46199 0
M  V30 8949 C 844.133 -1.90426 0.658798 0
M  V30 8950 O 843.189 -2.51932 0.169228 0
M  V30 8951 C 844.502 -0.786763 2.90225 0
M  V30 8952 C 846.05 -0.882201 3.0031 0
M  V30 8953 C 846.525 -1.06074 4.45547 0
M  V30 8954 N 848.016 -1.12678 4.49286 0
M  V30 8955 C 848.751 -1.28334 5.58854 0
M  V30 8956 N 848.247 -1.40845 6.78332 0
M  V30 8957 N 850.04 -1.31277 5.46555 0
M  V30 8958 H 842.191 0.536334 2.05517 0
M  V30 8959 H 844.454 0.178363 0.93107 0
M  V30 8960 H 844.16 0.0713018 3.51628 0
M  V30 8961 H 844.034 -1.67364 3.38037 0
M  V30 8962 H 846.421 -1.73075 2.39017 0
M  V30 8963 H 846.502 0.0288405 2.55784 0
M  V30 8964 H 846.146 -0.216935 5.07437 0
M  V30 8965 H 846.076 -1.98611 4.8771 0
M  V30 8966 H 848.567 -1.04335 3.63212 0
M  V30 8967 H 848.88 -1.52566 7.57591 0
M  V30 8968 H 847.225 -1.37888 6.81184 0
M  V30 8969 H 850.416 -1.2112 4.52159 0
M  V30 8970 H 850.589 -1.43136 6.31994 0
M  V30 8971 N 843.995 -1.47404 -0.557645 0
M  V30 8972 C 844.942 -1.59859 -1.66475 0
M  V30 8973 C 845.912 -0.441644 -1.60121 0
M  V30 8974 O 847.097 -0.661641 -1.78961 0
M  V30 8975 C 844.237 -1.61843 -3.04797 0
M  V30 8976 C 843.35 -2.8845 -3.2159 0
M  V30 8977 C 842.485 -2.81773 -4.50308 0
M  V30 8978 C 841.524 -4.03208 -4.60532 0
M  V30 8979 N 840.661 -3.94769 -5.80604 0
M  V30 8980 H 845.501 -2.54415 -1.55168 0
M  V30 8981 H 843.038 -1.26194 -0.755876 0
M  V30 8982 H 844.996 -1.60976 -3.84893 0
M  V30 8983 H 843.626 -0.707997 -3.1494 0
M  V30 8984 H 842.678 -2.99186 -2.34929 0
M  V30 8985 H 843.99 -3.78379 -3.25009 0
M  V30 8986 H 843.144 -2.79153 -5.38663 0
M  V30 8987 H 841.883 -1.89527 -4.49367 0
M  V30 8988 H 840.888 -4.06133 -3.70589 0
M  V30 8989 H 842.113 -4.9658 -4.63233 0
M  V30 8990 H 840.059 -3.05326 -5.80613 0
M  V30 8991 H 839.976 -4.78375 -5.854 0
M  V30 8992 H 841.244 -3.96165 -6.71322 0
M  V30 8993 N 845.473 0.80434 -1.35529 0
M  V30 8994 C 846.722 1.55665 -1.28263 0
M  V30 8995 C 847.035 1.95096 0.140352 0
M  V30 8996 O 848.241 2.69422 0.335303 0
M  V30 8997 C 846.697 2.80935 -2.24952 0
M  V30 8998 C 846.305 2.48733 -3.72607 0
M  V30 8999 C 848.049 3.5894 -2.26632 0
M  V30 9000 C 845.956 3.70308 -4.61114 0
M  V30 9001 H 844.886 0.584301 -0.476559 0
M  V30 9002 H 847.537 0.88395 -1.60806 0
M  V30 9003 H 845.919 3.49927 -1.85383 0
M  V30 9004 H 847.093 1.87733 -4.20824 0
M  V30 9005 H 845.408 1.83969 -3.73557 0
M  V30 9006 H 848.005 4.49244 -2.89973 0
M  V30 9007 H 848.348 3.96433 -1.27069 0
M  V30 9008 H 848.881 2.96912 -2.64742 0
M  V30 9009 H 845.62 3.37922 -5.61684 0
M  V30 9010 H 845.14 4.30526 -4.17621 0
M  V30 9011 H 846.819 4.37511 -4.76648 0
M  V30 9012 N 846.951 1.19563 1.02676 0
M  V30 9013 C 848.367 0.948304 1.28372 0
M  V30 9014 C 848.567 -0.378096 1.97921 0
M  V30 9015 O 847.623 -1.1091 2.26838 0
M  V30 9016 C 848.936 2.12381 2.12873 0
M  V30 9017 C 850.484 2.16366 2.26174 0
M  V30 9018 C 850.959 3.33374 3.14048 0
M  V30 9019 N 852.45 3.33323 3.21636 0
M  V30 9020 C 853.185 4.20504 3.89825 0
M  V30 9021 N 852.681 5.17845 4.60227 0
M  V30 9022 N 854.474 4.08375 3.86246 0
M  V30 9023 H 846.625 2.04899 0.559485 0
M  V30 9024 H 848.888 0.89606 0.309484 0
M  V30 9025 H 848.594 3.08383 1.69094 0
M  V30 9026 H 848.468 2.09621 3.1359 0
M  V30 9027 H 850.855 1.20933 2.69182 0
M  V30 9028 H 850.936 2.23179 1.25 0
M  V30 9029 H 850.58 4.29087 2.71747 0
M  V30 9030 H 850.51 3.23798 4.15286 0
M  V30 9031 H 853.001 2.62863 2.71498 0
M  V30 9032 H 853.314 5.80712 5.09896 0
M  V30 9033 H 851.659 5.21791 4.59085 0
M  V30 9034 H 854.85 3.31606 3.30386 0
M  V30 9035 H 855.023 4.76532 4.39114 0
M  V30 9036 N 848.429 -1.21819 0.999893 0
M  V30 9037 C 849.706 -1.86318 0.595384 0
M  V30 9038 C 850.086 -1.8965 -0.927143 0
M  V30 9039 O 849.434 -1.3921 -1.81199 0
M  V30 9040 C 849.644 -3.26837 1.22387 0
M  V30 9041 C 850.992 -4.03272 1.32878 0
M  V30 9042 O 852.016 -3.36129 1.1788 0
M  V30 9043 O 850.875 -5.23477 1.56952 0
M  V30 9044 H 847.969 -0.801638 0.203238 0
M  V30 9045 H 850.515 -1.29542 1.09622 0
M  V30 9046 H 849.287 -3.19084 2.26497 0
M  V30 9047 H 848.91 -3.91226 0.709069 0
M  V30 9048 N 849.908 -0.773975 -1.37286 0
M  V30 9049 C 850.84 -0.119938 -2.28886 0
M  V30 9050 C 851.853 0.661822 -1.48741 0
M  V30 9051 O 853.042 0.499548 -1.71367 0
M  V30 9052 C 850.142 0.853703 -3.27971 0
M  V30 9053 C 849.315 0.125286 -4.37221 0
M  V30 9054 C 848.374 1.01261 -5.16365 0
M  V30 9055 O 847.4 0.475565 -5.6721 0
M  V30 9056 N 848.602 2.33864 -5.31308 0
M  V30 9057 H 851.367 -0.906702 -2.85655 0
M  V30 9058 H 848.928 -0.626519 -1.49286 0
M  V30 9059 H 850.92 1.4508 -3.77801 0
M  V30 9060 H 849.49 1.54142 -2.71954 0
M  V30 9061 H 848.71 -0.652742 -3.88758 0
M  V30 9062 H 849.998 -0.377959 -5.07394 0
M  V30 9063 H 849.396 2.79929 -4.91585 0
M  V30 9064 H 847.953 2.88575 -5.84438 0
M  V30 9065 N 851.386 1.48609 -0.524698 0
M  V30 9066 C 852.616 2.06599 0.00741868 0
M  V30 9067 C 853.024 1.3823 1.29186 0
M  V30 9068 O 852.367 0.461962 1.77797 0
M  V30 9069 C 852.429 3.58184 0.307324 0
M  V30 9070 C 852.093 4.48391 -0.882864 0
M  V30 9071 C 853.09 4.88485 -1.77984 0
M  V30 9072 C 850.775 4.90367 -1.08837 0
M  V30 9073 C 852.769 5.69319 -2.86627 0
M  V30 9074 C 850.456 5.70972 -2.17794 0
M  V30 9075 C 851.454 6.10355 -3.06523 0
M  V30 9076 O 851.142 6.89343 -4.13596 0
M  V30 9077 H 850.874 0.675421 -0.0279846 0
M  V30 9078 H 853.428 1.92058 -0.7282 0
M  V30 9079 H 851.658 3.70818 1.09685 0
M  V30 9080 H 853.347 3.98318 0.780886 0
M  V30 9081 H 854.113 4.56682 -1.63299 0
M  V30 9082 H 849.992 4.592 -0.407035 0
M  V30 9083 H 853.536 5.99978 -3.55911 0
M  V30 9084 H 849.433 6.02188 -2.32465 0
M  V30 9085 H 850.201 7.07689 -4.1124 0
M  V30 9086 N 852.864 0.259585 1.55447 0
M  V30 9087 C 853.794 -0.62852 2.24882 0
M  V30 9088 C 854.775 -1.17128 1.23349 0
M  V30 9089 O 855.96 -1.20829 1.52033 0
M  V30 9090 C 853.09 -1.81983 2.95803 0
M  V30 9091 C 852.044 -1.40929 4.04132 0
M  V30 9092 C 851.37 -2.68246 4.62545 0
M  V30 9093 C 852.67 -0.570956 5.1917 0
M  V30 9094 H 854.364 -0.0495021 2.99359 0
M  V30 9095 H 851.91 -0.0223688 1.43983 0
M  V30 9096 H 853.863 -2.44689 3.43082 0
M  V30 9097 H 852.587 -2.42444 2.18835 0
M  V30 9098 H 851.246 -0.805519 3.57641 0
M  V30 9099 H 850.894 -3.26931 3.82263 0
M  V30 9100 H 850.594 -2.41495 5.35681 0
M  V30 9101 H 852.118 -3.31827 5.12565 0
M  V30 9102 H 853.532 -1.10262 5.62597 0
M  V30 9103 H 851.929 -0.398979 5.98772 0
M  V30 9104 H 852.999 0.413918 4.8313 0
M  V30 9105 N 854.342 -1.57594 -0.0133615 0
M  V30 9106 C 855.588 -1.90262 -0.702019 0
M  V30 9107 C 855.921 -0.859219 -1.74158 0
M  V30 9108 O 855.196 0.123778 -1.94106 0
M  V30 9109 C 855.479 -3.3354 -1.35732 0
M  V30 9110 C 855.332 -4.48586 -0.330208 0
M  V30 9111 C 856.651 -3.76004 -2.28712 0
M  V30 9112 H 853.77 -0.691943 -0.253739 0
M  V30 9113 H 856.412 -1.89967 0.0351894 0
M  V30 9114 H 854.562 -3.33921 -1.98567 0
M  V30 9115 H 856.234 -4.6034 0.297433 0
M  V30 9116 H 854.477 -4.32394 0.348926 0
M  V30 9117 H 855.148 -5.45762 -0.827508 0
M  V30 9118 H 857.624 -3.77089 -1.75906 0
M  V30 9119 H 856.5 -4.77032 -2.71535 0
M  V30 9120 H 856.761 -3.09129 -3.16056 0
M  V30 9121 N 855.82 0.285905 -1.54985 0
M  V30 9122 C 857.066 1.01669 -1.76168 0
M  V30 9123 C 857.421 1.84401 -0.549019 0
M  V30 9124 O 856.714 1.86034 0.458463 0
M  V30 9125 C 856.908 1.94193 -3.0004 0
M  V30 9126 C 856.737 1.20565 -4.33237 0
M  V30 9127 C 855.507 0.92661 -4.96731 0
M  V30 9128 C 857.705 0.602514 -5.10759 0
M  V30 9129 N 855.687 0.162185 -6.13686 0
M  V30 9130 C 857.058 -0.0283843 -6.19994 0
M  V30 9131 C 859.113 0.509067 -4.95291 0
M  V30 9132 C 857.816 -0.743706 -7.15445 0
M  V30 9133 C 859.842 -0.192633 -5.91086 0
M  V30 9134 C 859.204 -0.812321 -6.997 0
M  V30 9135 H 855.303 0.354451 -0.697057 0
M  V30 9136 H 857.887 0.293693 -1.92472 0
M  V30 9137 H 856.058 2.6373 -2.85133 0
M  V30 9138 H 857.79 2.60536 -3.09682 0
M  V30 9139 H 854.545 1.22861 -4.57386 0
M  V30 9140 H 854.969 -0.206982 -6.76684 0
M  V30 9141 H 859.611 0.973856 -4.11432 0
M  V30 9142 H 857.329 -1.22022 -7.98834 0
M  V30 9143 H 860.915 -0.265082 -5.81196 0
M  V30 9144 H 859.795 -1.34665 -7.72551 0
M  V30 9145 N 857.298 1.47698 0.54982 0
M  V30 9146 C 858.228 1.63622 1.66583 0
M  V30 9147 C 859.209 0.485477 1.63025 0
M  V30 9148 O 860.394 0.715692 1.80531 0
M  V30 9149 C 857.524 1.65721 3.05211 0
M  V30 9150 C 856.478 2.80097 3.2362 0
M  V30 9151 C 855.804 2.67272 4.63109 0
M  V30 9152 C 857.104 4.21612 3.08286 0
M  V30 9153 H 858.798 2.57049 1.53512 0
M  V30 9154 H 856.344 1.23705 0.737099 0
M  V30 9155 H 858.297 1.75451 3.83138 0
M  V30 9156 H 857.021 0.688593 3.19258 0
M  V30 9157 H 855.68 2.69889 2.48104 0
M  V30 9158 H 855.328 1.68422 4.73965 0
M  V30 9159 H 855.028 3.44008 4.76374 0
M  V30 9160 H 856.552 2.78942 5.43161 0
M  V30 9161 H 857.966 4.32758 3.76024 0
M  V30 9162 H 856.363 4.99193 3.33057 0
M  V30 9163 H 857.433 4.39462 2.04942 0
M  V30 9164 N 858.776 -0.797141 1.35954 0
M  V30 9165 C 860.004 -1.5858 1.32891 0
M  V30 9166 C 860.419 -1.88578 -0.0915564 0
M  V30 9167 O 859.776 -1.49532 -1.04625 0
M  V30 9168 C 859.827 -2.91143 2.14284 0
M  V30 9169 O 859.548 -2.62442 3.50793 0
M  V30 9170 C 861.049 -3.85476 2.18914 0
M  V30 9171 H 858.269 -0.492111 0.456144 0
M  V30 9172 H 860.813 -0.98994 1.78943 0
M  V30 9173 H 858.968 -3.47219 1.71807 0
M  V30 9174 H 859.382 -3.4715 3.93175 0
M  V30 9175 H 860.856 -4.75574 2.80238 0
M  V30 9176 H 861.333 -4.22758 1.19047 0
M  V30 9177 H 861.939 -3.35334 2.61593 0
M  V30 9178 N 860.254 -1.20106 -1.0204 0
M  V30 9179 C 861.186 -0.904236 -2.10609 0
M  V30 9180 C 862.199 0.106487 -1.62451 0
M  V30 9181 O 863.388 -0.124035 -1.78069 0
M  V30 9182 C 860.488 -0.333423 -3.37256 0
M  V30 9183 C 859.661 -1.39476 -4.14566 0
M  V30 9184 C 858.72 -0.835961 -5.19517 0
M  V30 9185 O 857.746 -1.51573 -5.48648 0
M  V30 9186 N 858.948 0.356531 -5.79404 0
M  V30 9187 H 861.713 -1.8388 -2.36661 0
M  V30 9188 H 859.274 -1.10422 -1.184 0
M  V30 9189 H 861.266 0.0544571 -4.04663 0
M  V30 9190 H 859.836 0.505608 -3.08484 0
M  V30 9191 H 859.056 -1.95714 -3.42184 0
M  V30 9192 H 860.344 -2.10967 -4.63001 0
M  V30 9193 H 859.742 0.926143 -5.58067 0
M  V30 9194 H 858.299 0.686093 -6.48179 0
M  V30 9195 N 861.732 1.21287 -1.00634 0
M  V30 9196 C 862.679 2.23705 -0.567876 0
M  V30 9197 C 863.649 1.61043 0.406753 0
M  V30 9198 O 864.834 1.88289 0.308499 0
M  V30 9199 C 861.974 3.44961 0.097996 0
M  V30 9200 C 861.087 4.22091 -0.919972 0
M  V30 9201 C 860.222 5.30718 -0.226222 0
M  V30 9202 C 859.261 5.99581 -1.23165 0
M  V30 9203 N 858.398 6.99821 -0.565278 0
M  V30 9204 H 863.238 2.60571 -1.44592 0
M  V30 9205 H 860.775 1.28049 -0.724006 0
M  V30 9206 H 862.733 4.1418 0.501097 0
M  V30 9207 H 861.363 3.08818 0.939744 0
M  V30 9208 H 860.415 3.52038 -1.44131 0
M  V30 9209 H 861.727 4.69476 -1.68505 0
M  V30 9210 H 860.881 6.06253 0.232917 0
M  V30 9211 H 859.62 4.84343 0.571247 0
M  V30 9212 H 858.625 5.22816 -1.70128 0
M  V30 9213 H 859.85 6.48042 -2.03022 0
M  V30 9214 H 857.796 6.55656 0.212508 0
M  V30 9215 H 857.713 7.4528 -1.26858 0
M  V30 9216 H 858.981 7.79393 -0.129389 0
M  V30 9217 N 863.21 0.781244 1.36873 0
M  V30 9218 C 864.458 0.349198 1.9906 0
M  V30 9219 C 864.779 -1.0806 1.62321 0
M  V30 9220 O 864.049 -1.74351 0.893229 0
M  V30 9221 H 862.629 0.126126 0.736275 0
M  V30 9222 H 865.291 1.00148 1.67202 0
M  V30 9223 H 864.387 0.434451 3.09061 0
M  V30 9224 N 864.689 -1.48329 0.532571 0
M  V30 9225 C 865.652 -2.2816 -0.218069 0
M  V30 9226 C 866.652 -1.35526 -0.865409 0
M  V30 9227 O 867.842 -1.58394 -0.725061 0
M  V30 9228 C 864.974 -3.1448 -1.31586 0
M  V30 9229 H 866.167 -2.95987 0.482865 0
M  V30 9230 H 863.72 -1.53612 0.288603 0
M  V30 9231 H 864.455 -2.5129 -2.04997 0
M  V30 9232 H 864.24 -3.82625 -0.856779 0
M  V30 9233 H 865.73 -3.74693 -1.84377 0
M  V30 9234 N 866.167 -0.267825 -1.55308 0
M  V30 9235 C 867.583 0.0865107 -1.59365 0
M  V30 9236 C 867.783 1.55205 -1.28505 0
M  V30 9237 O 866.839 2.29978 -1.04241 0
M  V30 9238 C 868.152 -0.28155 -2.99379 0
M  V30 9239 C 869.7 -0.227565 -3.12172 0
M  V30 9240 C 870.175 -0.569959 -4.5444 0
M  V30 9241 N 871.666 -0.521238 -4.60258 0
M  V30 9242 C 872.401 -0.759061 -5.68354 0
M  V30 9243 N 871.897 -1.06112 -6.84626 0
M  V30 9244 N 873.69 -0.688351 -5.57869 0
M  V30 9245 H 865.841 -1.22332 -1.73633 0
M  V30 9246 H 868.104 -0.493703 -0.809297 0
M  V30 9247 H 867.81 -1.3005 -3.26772 0
M  V30 9248 H 867.684 0.381192 -3.75269 0
M  V30 9249 H 870.071 0.782093 -2.84548 0
M  V30 9250 H 870.152 -0.924461 -2.38511 0
M  V30 9251 H 869.796 -1.57727 -4.82788 0
M  V30 9252 H 869.726 0.148646 -5.2639 0
M  V30 9253 H 872.217 -0.297359 -3.76728 0
M  V30 9254 H 872.53 -1.22945 -7.62958 0
M  V30 9255 H 870.875 -1.09881 -6.86259 0
M  V30 9256 H 874.066 -0.452268 -4.6591 0
M  V30 9257 H 874.239 -0.877081 -6.42037 0
M  V30 9258 N 867.645 1.57599 0.00500368 0
M  V30 9259 C 868.577 2.04949 1.02609 0
M  V30 9260 C 869.59 0.966507 1.31006 0
M  V30 9261 O 870.779 1.2434 1.2807 0
M  V30 9262 C 867.879 2.43023 2.36206 0
M  V30 9263 C 867.052 3.73993 2.26821 0
M  V30 9264 C 866.111 3.9899 3.43065 0
M  V30 9265 O 865.137 4.69725 3.21477 0
M  V30 9266 N 866.339 3.46496 4.65748 0
M  V30 9267 H 869.104 2.93167 0.622336 0
M  V30 9268 H 866.665 1.60752 0.192488 0
M  V30 9269 H 868.657 2.56863 3.12735 0
M  V30 9270 H 867.227 1.60349 2.68341 0
M  V30 9271 H 866.447 3.70277 1.35235 0
M  V30 9272 H 867.735 4.59865 2.17719 0
M  V30 9273 H 867.133 2.89206 4.86186 0
M  V30 9274 H 865.69 3.65675 5.3956 0
M  V30 9275 N 869.123 -0.277682 1.55134 0
M  V30 9276 C 870.07 -1.34313 1.87693 0
M  V30 9277 C 871.04 -1.49298 0.727973 0
M  V30 9278 O 872.225 -1.6378 0.978807 0
M  V30 9279 C 869.365 -2.69922 2.15026 0
M  V30 9280 C 868.478 -2.63197 3.42565 0
M  V30 9281 C 867.613 -3.90955 3.59622 0
M  V30 9282 C 866.652 -3.78722 4.8087 0
M  V30 9283 N 865.789 -4.98303 4.94609 0
M  V30 9284 H 870.629 -1.05847 2.78569 0
M  V30 9285 H 868.166 -0.511469 1.37922 0
M  V30 9286 H 870.124 -3.48817 2.28872 0
M  V30 9287 H 868.754 -2.966 1.2739 0
M  V30 9288 H 867.806 -1.76038 3.37216 0
M  V30 9289 H 869.118 -2.50056 4.31594 0
M  V30 9290 H 868.272 -4.78291 3.7326 0
M  V30 9291 H 867.011 -4.06957 2.6877 0
M  V30 9292 H 866.016 -2.89769 4.67241 0
M  V30 9293 H 867.241 -3.64242 5.73153 0
M  V30 9294 H 865.187 -5.14725 4.06687 0
M  V30 9295 H 865.104 -4.87675 5.77676 0
M  V30 9296 H 866.372 -5.87225 5.12628 0
M  V30 9297 N 870.601 -1.47988 -0.541979 0
M  V30 9298 C 871.548 -1.61615 -1.6477 0
M  V30 9299 C 872.518 -0.458602 -1.59644 0
M  V30 9300 O 873.703 -0.680585 -1.78249 0
M  V30 9301 C 870.843 -1.65066 -3.03063 0
M  V30 9302 C 869.956 -2.91845 -3.18513 0
M  V30 9303 C 869.091 -2.86534 -4.47294 0
M  V30 9304 C 868.13 -4.0807 -4.5623 0
M  V30 9305 N 867.267 -4.00905 -5.76385 0
M  V30 9306 H 872.107 -2.56046 -1.52461 0
M  V30 9307 H 869.644 -1.26989 -0.742449 0
M  V30 9308 H 871.602 -1.65049 -3.83164 0
M  V30 9309 H 870.232 -0.74136 -3.14171 0
M  V30 9310 H 869.284 -3.01661 -2.31743 0
M  V30 9311 H 870.596 -3.81804 -3.20978 0
M  V30 9312 H 869.75 -2.84851 -5.35672 0
M  V30 9313 H 868.489 -1.94283 -4.47332 0
M  V30 9314 H 867.494 -4.10041 -3.66261 0
M  V30 9315 H 868.719 -5.01465 -4.5794 0
M  V30 9316 H 866.665 -3.11467 -5.77342 0
M  V30 9317 H 866.582 -4.84557 -5.80293 0
M  V30 9318 H 867.85 -4.03263 -6.67083 0
M  V30 9319 N 872.079 0.78992 -1.36375 0
M  V30 9320 C 873.328 1.54296 -1.29906 0
M  V30 9321 C 873.641 1.95234 0.119651 0
M  V30 9322 O 874.847 2.69762 0.306708 0
M  V30 9323 C 873.303 2.78533 -2.27919 0
M  V30 9324 C 872.911 2.44767 -3.75224 0
M  V30 9325 C 874.655 3.56516 -2.30427 0
M  V30 9326 C 872.562 3.65397 -4.65015 0
M  V30 9327 H 871.492 0.579214 -0.482729 0
M  V30 9328 H 874.143 0.866845 -1.61735 0
M  V30 9329 H 872.525 3.47941 -1.89084 0
M  V30 9330 H 873.699 1.83259 -4.22792 0
M  V30 9331 H 872.014 1.79996 -3.75487 0
M  V30 9332 H 874.611 4.46143 -2.94722 0
M  V30 9333 H 874.954 3.95063 -1.31266 0
M  V30 9334 H 875.487 2.94087 -2.67876 0
M  V30 9335 H 872.226 3.31946 -5.65236 0
M  V30 9336 H 871.746 4.26072 -4.22164 0
M  V30 9337 H 873.425 4.32431 -4.81261 0
M  V30 9338 N 873.557 1.20646 1.01402 0
M  V30 9339 C 874.505 0.954493 2.12114 0
M  V30 9340 C 875.499 -0.0950737 1.69133 0
M  V30 9341 O 876.705 0.0555153 1.79914 0
M  V30 9342 H 873.08 0.29135 0.693267 0
M  V30 9343 H 875.051 1.89447 2.30548 0
M  V30 9344 C 873.8 0.525944 3.43699 0
M  V30 9345 H 873.123 1.32516 3.772 0
M  V30 9346 H 874.563 0.388883 4.22213 0
M  V30 9347 C 873.022 -0.761997 3.28169 0
M  V30 9348 O 873.552 -1.81979 3.58115 0
M  V30 9349 N 871.758 -0.725017 2.8141 0
M  V30 9350 H 871.305 0.13607 2.5724 0
M  V30 9351 H 871.263 -1.5871 2.71401 0
M  V30 9352 N 875.035 -1.20752 1.01276 0
M  V30 9353 C 875.945 -2.27079 0.589277 0
M  V30 9354 C 876.961 -1.6999 -0.371389 0
M  V30 9355 O 878.137 -2.00044 -0.233294 0
M  V30 9356 C 875.202 -3.4663 -0.0696715 0
M  V30 9357 C 874.263 -4.18962 0.936454 0
M  V30 9358 C 873.496 -5.32806 0.308856 0
M  V30 9359 O 873.719 -5.63376 -0.8924 0
M  V30 9360 O 872.653 -5.93131 1.02367 0
M  V30 9361 H 876.479 -2.6551 1.47438 0
M  V30 9362 H 874.064 -1.27297 0.782045 0
M  V30 9363 H 875.946 -4.19119 -0.437873 0
M  V30 9364 H 874.621 -3.10082 -0.929029 0
M  V30 9365 H 873.528 -3.48661 1.35595 0
M  V30 9366 H 874.861 -4.59441 1.76565 0
M  V30 9367 N 876.513 -0.788492 -1.36457 0
M  V30 9368 C 877.759 -0.370067 -2.00005 0
M  V30 9369 C 878.114 1.0464 -1.61456 0
M  V30 9370 O 877.407 1.71277 -0.85876 0
M  V30 9371 C 877.601 -0.470255 -3.54293 0
M  V30 9372 C 877.43 -1.89492 -4.07827 0
M  V30 9373 C 876.2 -2.51932 -4.38016 0
M  V30 9374 C 878.398 -2.85692 -4.2765 0
M  V30 9375 N 876.38 -3.85997 -4.77368 0
M  V30 9376 C 877.751 -4.04588 -4.69796 0
M  V30 9377 C 879.806 -2.8276 -4.09818 0
M  V30 9378 C 878.509 -5.2096 -4.95977 0
M  V30 9379 C 880.535 -3.98319 -4.37145 0
M  V30 9380 C 879.897 -5.1596 -4.79547 0
M  V30 9381 H 875.996 -0.182813 -0.760331 0
M  V30 9382 H 878.58 -1.02589 -1.6548 0
M  V30 9383 H 876.751 0.155476 -3.88089 0
M  V30 9384 H 878.483 -0.0281643 -4.0469 0
M  V30 9385 H 875.238 -2.0342 -4.27688 0
M  V30 9386 H 875.662 -4.54971 -5.01329 0
M  V30 9387 H 880.304 -1.92971 -3.76194 0
M  V30 9388 H 878.022 -6.11335 -5.28483 0
M  V30 9389 H 881.608 -3.97411 -4.24919 0
M  V30 9390 H 880.488 -6.03893 -5.00283 0
M  V30 9391 N 877.991 1.48044 -0.54043 0
M  V30 9392 C 878.921 2.32597 0.205178 0
M  V30 9393 C 879.902 1.42748 0.925041 0
M  V30 9394 O 881.087 1.71624 0.908784 0
M  V30 9395 C 878.217 3.24175 1.24612 0
M  V30 9396 C 877.171 4.23131 0.64376 0
M  V30 9397 C 876.497 5.03915 1.78812 0
M  V30 9398 C 877.797 5.20831 -0.39144 0
M  V30 9399 H 879.491 2.95184 -0.500676 0
M  V30 9400 H 877.037 1.41948 -0.242225 0
M  V30 9401 H 878.99 3.82158 1.77576 0
M  V30 9402 H 877.714 2.59608 1.98169 0
M  V30 9403 H 876.373 3.66349 0.135554 0
M  V30 9404 H 876.021 4.35765 2.51232 0
M  V30 9405 H 875.721 5.709 1.39094 0
M  V30 9406 H 877.245 5.64753 2.32134 0
M  V30 9407 H 878.659 5.73277 0.0515064 0
M  V30 9408 H 877.056 5.95926 -0.706569 0
M  V30 9409 H 878.126 4.6733 -1.29345 0
M  V30 9410 N 879.47 0.276058 1.55163 0
M  V30 9411 C 880.718 -0.339782 1.99223 0
M  V30 9412 C 881.039 -1.56307 1.16589 0
M  V30 9413 O 880.309 -1.94225 0.25564 0
M  V30 9414 H 878.889 -0.128534 0.735859 0
M  V30 9415 H 881.551 0.381612 1.91128 0
M  V30 9416 H 880.647 -0.629 3.05696 0
M  V30 9417 N 880.948 -1.576 0.00335426 0
M  V30 9418 C 882.197 -1.89892 -0.680001 0
M  V30 9419 C 882.51 -0.878731 -1.7475 0
M  V30 9420 O 883.716 -1.09199 -2.48572 0
M  V30 9421 C 882.172 -3.37098 -1.26066 0
M  V30 9422 C 881.78 -4.4742 -0.227807 0
M  V30 9423 C 883.524 -3.78495 -1.92202 0
M  V30 9424 C 881.431 -5.85706 -0.81865 0
M  V30 9425 H 880.361 -0.708578 -0.257746 0
M  V30 9426 H 883.012 -1.83387 0.0644472 0
M  V30 9427 H 881.394 -3.38451 -2.05589 0
M  V30 9428 H 882.568 -4.57589 0.54307 0
M  V30 9429 H 880.883 -4.15064 0.333297 0
M  V30 9430 H 883.48 -4.7915 -2.37318 0
M  V30 9431 H 883.823 -3.12187 -2.75399 0
M  V30 9432 H 884.356 -3.79456 -1.19408 0
M  V30 9433 H 881.095 -6.55495 -0.0253787 0
M  V30 9434 H 880.615 -5.79196 -1.55861 0
M  V30 9435 H 882.294 -6.33469 -1.31627 0
M  V30 9436 N 882.426 0.269451 -1.5528 0
M  V30 9437 C 883.373 1.33316 -1.88403 0
M  V30 9438 C 884.343 1.48909 -0.735881 0
M  V30 9439 O 885.528 1.63259 -0.987479 0
M  V30 9440 C 882.668 2.68778 -2.16454 0
M  V30 9441 C 881.781 2.61377 -3.43956 0
M  V30 9442 C 880.916 3.89042 -3.6169 0
M  V30 9443 C 879.955 3.76166 -4.82872 0
M  V30 9444 N 879.092 4.95673 -4.97245 0
M  V30 9445 H 883.932 1.04368 -2.79126 0
M  V30 9446 H 881.469 0.504147 -1.38191 0
M  V30 9447 H 883.427 3.47599 -2.30719 0
M  V30 9448 H 882.057 2.9592 -1.28961 0
M  V30 9449 H 881.109 1.74247 -3.38145 0
M  V30 9450 H 882.421 2.47764 -4.32914 0
M  V30 9451 H 881.575 4.76304 -3.75791 0
M  V30 9452 H 880.314 4.05526 -2.70924 0
M  V30 9453 H 879.319 2.87287 -4.68771 0
M  V30 9454 H 880.544 3.61198 -5.75077 0
M  V30 9455 H 878.49 5.12561 -4.09411 0
M  V30 9456 H 878.407 4.84605 -5.80254 0
M  V30 9457 H 879.675 5.84498 -5.15735 0
M  V30 9458 N 883.904 1.48273 0.534124 0
M  V30 9459 C 884.852 1.62926 1.66005 0
M  V30 9460 C 885.846 0.495814 1.61982 0
M  V30 9461 O 887.052 0.6744 1.66889 0
M  V30 9462 H 883.427 0.513163 0.549698 0
M  V30 9463 H 885.398 2.57498 1.50789 0
M  V30 9464 C 884.147 1.68231 3.04292 0
M  V30 9465 H 883.47 2.54807 3.0808 0
M  V30 9466 H 884.91 1.82528 3.827 0
M  V30 9467 C 883.369 0.420154 3.3427 0
M  V30 9468 O 883.899 -0.468769 3.98955 0
M  V30 9469 N 882.105 0.293115 2.89118 0
M  V30 9470 H 881.652 1.01745 2.36655 0
M  V30 9471 H 881.61 -0.550376 3.09545 0
M  V30 9472 N 885.382 -0.782676 1.36792 0
M  V30 9473 C 886.292 -1.92679 1.33835 0
M  V30 9474 C 887.308 -1.72344 0.23952 0
M  V30 9475 O 888.484 -1.95766 0.473045 0
M  V30 9476 C 885.549 -3.27644 1.1336 0
M  V30 9477 C 884.61 -3.6071 2.32781 0
M  V30 9478 C 883.843 -4.89234 2.13273 0
M  V30 9479 O 884.066 -5.59468 1.11136 0
M  V30 9480 O 883 -5.21112 3.01208 0
M  V30 9481 H 886.826 -1.98124 2.30175 0
M  V30 9482 H 884.411 -0.923887 1.17408 0
M  V30 9483 H 886.293 -4.08394 1.03886 0
M  V30 9484 H 884.968 -3.23076 0.200868 0
M  V30 9485 H 883.875 -2.80238 2.47825 0
M  V30 9486 H 885.208 -3.70008 3.24584 0
M  V30 9487 N 886.86 -1.21182 -1.00761 0
M  V30 9488 C 888.088 -1.05335 -1.78079 0
M  V30 9489 C 888.503 0.396988 -1.84579 0
M  V30 9490 O 887.86 1.27548 -1.30529 0
M  V30 9491 C 887.911 -1.64089 -3.22113 0
M  V30 9492 O 887.632 -3.03448 -3.15992 0
M  V30 9493 C 889.133 -1.53318 -4.15943 0
M  V30 9494 H 886.353 -0.37005 -0.559736 0
M  V30 9495 H 888.897 -1.60463 -1.26775 0
M  V30 9496 H 887.052 -1.13059 -3.70535 0
M  V30 9497 H 887.466 -3.31492 -4.06465 0
M  V30 9498 H 888.94 -1.99174 -5.14814 0
M  V30 9499 H 889.417 -0.487166 -4.3649 0
M  V30 9500 H 890.023 -2.03582 -3.73409 0
M  V30 9501 N 888.338 1.20213 -1.01915 0
M  V30 9502 C 889.248 2.26763 -0.601311 0
M  V30 9503 C 890.264 1.70185 0.362369 0
M  V30 9504 O 891.44 2.00165 0.222682 0
M  V30 9505 C 888.505 3.46662 0.0512879 0
M  V30 9506 C 887.566 4.18459 -0.958659 0
M  V30 9507 C 886.799 5.32634 -0.337107 0
M  V30 9508 O 887.022 5.63841 0.86251 0
M  V30 9509 O 885.956 5.9258 -1.05511 0
M  V30 9510 H 889.782 2.64725 -1.48844 0
M  V30 9511 H 887.367 1.2688 -0.788784 0
M  V30 9512 H 889.249 4.19345 0.41564 0
M  V30 9513 H 887.924 3.1057 0.912572 0
M  V30 9514 H 886.831 3.47937 -1.37442 0
M  V30 9515 H 888.164 4.58498 -1.78999 0
M  V30 9516 N 889.816 0.795718 1.36037 0
M  V30 9517 C 891.093 0.294743 1.93367 0
M  V30 9518 C 891.473 -1.21406 1.72696 0
M  V30 9519 O 890.821 -2.00849 1.08959 0
M  V30 9520 C 891.031 0.694254 3.42025 0
M  V30 9521 C 892.379 0.677566 4.19159 0
M  V30 9522 O 893.403 0.635119 3.50492 0
M  V30 9523 O 892.262 0.726127 5.41655 0
M  V30 9524 H 889.356 0.0745459 0.823633 0
M  V30 9525 H 891.902 0.878685 1.4518 0
M  V30 9526 H 890.674 1.73458 3.50753 0
M  V30 9527 H 890.297 0.0845338 3.9751 0
M  V30 9528 N 891.294 -1.47756 0.548274 0
M  V30 9529 C 892.226 -2.27921 -0.24177 0
M  V30 9530 C 893.239 -1.36471 -0.887658 0
M  V30 9531 O 894.428 -1.6137 -0.763016 0
M  V30 9532 C 891.528 -3.10449 -1.35922 0
M  V30 9533 C 890.701 -4.298 -0.811808 0
M  V30 9534 C 889.76 -4.93994 -1.81264 0
M  V30 9535 O 888.786 -5.52657 -1.3623 0
M  V30 9536 N 889.988 -4.87882 -3.14566 0
M  V30 9537 H 892.753 -2.96365 0.445848 0
M  V30 9538 H 890.314 -1.57286 0.383769 0
M  V30 9539 H 892.306 -3.50261 -2.02729 0
M  V30 9540 H 890.876 -2.44306 -1.95021 0
M  V30 9541 H 890.096 -3.94186 0.0327929 0
M  V30 9542 H 891.384 -5.0702 -0.425272 0
M  V30 9543 H 890.782 -4.41405 -3.53805 0
M  V30 9544 H 889.339 -5.3174 -3.76956 0
M  V30 9545 N 892.772 -0.284283 -1.55015 0
M  V30 9546 C 894.002 0.332465 -2.03907 0
M  V30 9547 C 894.41 1.49331 -1.16177 0
M  V30 9548 O 893.753 1.82851 -0.176395 0
M  V30 9549 C 893.815 0.867193 -3.48884 0
M  V30 9550 C 893.479 -0.166198 -4.56698 0
M  V30 9551 C 894.476 -0.988898 -5.10408 0
M  V30 9552 C 892.161 -0.303081 -5.01385 0
M  V30 9553 C 894.155 -1.93458 -6.07333 0
M  V30 9554 C 891.842 -1.25223 -5.98133 0
M  V30 9555 C 892.84 -2.06647 -6.50988 0
M  V30 9556 O 892.528 -2.99955 -7.45843 0
M  V30 9557 H 892.26 0.0786597 -0.671408 0
M  V30 9558 H 894.814 -0.416871 -2.01125 0
M  V30 9559 H 893.044 1.66676 -3.48935 0
M  V30 9560 H 894.733 1.39802 -3.81065 0
M  V30 9561 H 895.499 -0.89393 -4.76691 0
M  V30 9562 H 891.378 0.320711 -4.59883 0
M  V30 9563 H 894.922 -2.57053 -6.48513 0
M  V30 9564 H 890.819 -1.34798 -6.31268 0
M  V30 9565 H 891.587 -2.94742 -7.6359 0
M  V30 9566 N 894.251 1.57596 -0.0117121 0
M  V30 9567 C 895.214 2.08089 0.960816 0
M  V30 9568 C 896.214 0.992519 1.26514 0
M  V30 9569 O 897.404 1.25475 1.20837 0
M  V30 9570 C 894.536 2.53217 2.28241 0
M  V30 9571 H 895.729 2.9529 0.523829 0
M  V30 9572 H 893.282 1.54508 0.235995 0
M  V30 9573 H 894.017 1.69294 2.76604 0
M  V30 9574 H 893.802 3.32714 2.0747 0
M  V30 9575 H 895.292 2.92568 2.97983 0
M  V30 9576 N 895.729 -0.261212 1.5542 0
M  V30 9577 C 896.659 -1.32712 1.92119 0
M  V30 9578 C 897.64 -1.50934 0.784406 0
M  V30 9579 O 898.825 -1.63781 1.04352 0
M  V30 9580 C 895.955 -2.68453 2.20341 0
M  V30 9581 C 894.909 -2.64947 3.36136 0
M  V30 9582 C 894.235 -4.04349 3.49865 0
M  V30 9583 C 895.535 -2.23182 4.72215 0
M  V30 9584 H 897.229 -1.02245 2.81401 0
M  V30 9585 H 894.775 -0.490406 1.35392 0
M  V30 9586 H 896.728 -3.43144 2.44603 0
M  V30 9587 H 895.452 -3.00527 1.27871 0
M  V30 9588 H 894.111 -1.92714 3.11861 0
M  V30 9589 H 893.759 -4.33665 2.5484 0
M  V30 9590 H 893.459 -4.02895 4.27726 0
M  V30 9591 H 894.983 -4.80761 3.76432 0
M  V30 9592 H 896.397 -2.87599 4.95943 0
M  V30 9593 H 894.794 -2.32867 5.53076 0
M  V30 9594 H 895.864 -1.18327 4.70241 0
M  V30 9595 N 897.207 -1.48554 -0.526253 0
M  V30 9596 C 898.14 -1.57928 -1.64724 0
M  V30 9597 C 899.118 -0.429536 -1.56824 0
M  V30 9598 O 900.302 -0.641651 -1.77243 0
M  V30 9599 C 897.429 -1.51075 -3.0314 0
M  V30 9600 C 896.475 -2.70937 -3.29386 0
M  V30 9601 S 897.308 -4.3287 -3.15251 0
M  V30 9602 C 898.464 -4.28622 -4.56108 0
M  V30 9603 H 898.697 -2.52761 -1.56523 0
M  V30 9604 H 896.23 -1.37133 -0.7095 0
M  V30 9605 H 898.188 -1.47808 -3.82966 0
M  V30 9606 H 896.849 -0.57574 -3.08778 0
M  V30 9607 H 896.042 -2.62291 -4.30371 0
M  V30 9608 H 895.644 -2.71486 -2.57238 0
M  V30 9609 H 897.936 -3.98784 -5.47702 0
M  V30 9610 H 898.879 -5.29798 -4.69808 0
M  V30 9611 H 899.287 -3.59038 -4.35605 0
M  V30 9612 N 898.685 0.775411 -1.37205 0
M  V30 9613 C 899.595 1.91967 -1.34855 0
M  V30 9614 C 900.611 1.72214 -0.248656 0
M  V30 9615 O 901.787 1.95512 -0.483421 0
M  V30 9616 C 898.852 3.27038 -1.15096 0
M  V30 9617 C 897.913 3.5947 -2.34691 0
M  V30 9618 C 897.146 4.88097 -2.15865 0
M  V30 9619 O 897.369 5.58871 -1.14102 0
M  V30 9620 O 896.303 5.19507 -3.03967 0
M  V30 9621 H 900.129 1.969 -2.31223 0
M  V30 9622 H 897.714 0.917647 -1.17897 0
M  V30 9623 H 899.596 4.07837 -1.0605 0
M  V30 9624 H 898.271 3.22965 -0.217999 0
M  V30 9625 H 897.178 2.7892 -2.49308 0
M  V30 9626 H 898.511 3.68282 -3.26541 0
M  V30 9627 N 900.163 1.21714 1.00117 0
M  V30 9628 C 901.44 0.945391 1.71236 0
M  V30 9629 C 901.82 -0.541772 2.0403 0
M  V30 9630 O 901.168 -1.50763 1.71705 0
M  V30 9631 C 901.378 1.83444 2.96899 0
M  V30 9632 C 902.726 2.08558 3.69849 0
M  V30 9633 O 903.75 1.80824 3.06889 0
M  V30 9634 O 902.609 2.55485 4.83104 0
M  V30 9635 H 899.703 0.354834 0.747009 0
M  V30 9636 H 902.249 1.32661 1.05825 0
M  V30 9637 H 901.021 2.84075 2.69105 0
M  V30 9638 H 900.644 1.45428 3.70049 0
M  V30 9639 N 901.641 -1.19671 1.02551 0
M  V30 9640 C 902.551 -2.26441 0.613329 0
M  V30 9641 C 903.567 -1.70375 -0.353339 0
M  V30 9642 O 904.743 -2.0028 -0.212064 0
M  V30 9643 C 901.808 -3.46684 -0.0329028 0
M  V30 9644 C 900.869 -4.17945 0.980837 0
M  V30 9645 C 900.102 -5.32448 0.36535 0
M  V30 9646 O 900.325 -5.64291 -0.832596 0
M  V30 9647 O 899.259 -5.92012 1.08652 0
M  V30 9648 H 903.085 -2.63932 1.50246 0
M  V30 9649 H 900.67 -1.2646 0.795502 0
M  V30 9650 H 902.552 -4.1956 -0.393395 0
M  V30 9651 H 901.227 -3.1105 -0.896089 0
M  V30 9652 H 900.134 -3.47204 1.39286 0
M  V30 9653 H 901.467 -4.57542 1.81428 0
M  V30 9654 N 903.119 -0.802921 -1.35613 0
M  V30 9655 C 904.396 -0.304993 -1.93208 0
M  V30 9656 C 904.776 1.20488 -1.73337 0
M  V30 9657 O 904.124 2.00268 -1.10022 0
M  V30 9658 C 904.334 -0.712383 -3.41652 0
M  V30 9659 C 905.682 -0.699785 -4.18794 0
M  V30 9660 O 906.706 -0.653698 -3.5015 0
M  V30 9661 O 905.565 -0.754842 -5.41262 0
M  V30 9662 H 902.659 -0.0789127 -0.823226 0
M  V30 9663 H 905.205 -0.886372 -1.44712 0
M  V30 9664 H 903.977 -1.75316 -3.49829 0
M  V30 9665 H 903.6 -0.105614 -3.9746 0
M  V30 9666 N 904.597 1.47463 -0.556102 0
M  V30 9667 C 905.874 1.9557 0.0339892 0
M  V30 9668 C 906.254 1.49869 1.48669 0
M  V30 9669 O 905.602 0.737019 2.16288 0
M  V30 9670 C 905.812 3.48826 -0.110343 0
M  V30 9671 C 907.16 4.24585 0.0355716 0
M  V30 9672 O 908.184 3.5618 -0.0378356 0
M  V30 9673 O 907.043 5.46158 0.193299 0
M  V30 9674 H 904.137 0.824461 0.0647521 0
M  V30 9675 H 906.683 1.57868 -0.622547 0
M  V30 9676 H 905.455 3.74891 -1.12126 0
M  V30 9677 H 905.078 3.9329 0.583855 0
M  V30 9678 N 906.075 0.2925 1.54862 0
M  V30 9679 C 907.005 -0.580677 2.26165 0
M  V30 9680 C 907.986 -1.14485 1.25806 0
M  V30 9681 O 909.171 -1.17577 1.54562 0
M  V30 9682 C 906.301 -1.75668 2.99596 0
M  V30 9683 C 905.255 -1.32325 4.07031 0
M  V30 9684 C 904.581 -2.58374 4.68131 0
M  V30 9685 C 905.881 -0.460703 5.20264 0
M  V30 9686 H 907.575 0.0140075 2.99397 0
M  V30 9687 H 905.121 0.00817706 1.43998 0
M  V30 9688 H 907.074 -2.37356 3.48195 0
M  V30 9689 H 905.798 -2.37747 2.23928 0
M  V30 9690 H 904.457 -0.729477 3.59269 0
M  V30 9691 H 904.105 -3.18749 3.89112 0
M  V30 9692 H 903.805 -2.30078 5.40683 0
M  V30 9693 H 905.329 -3.2088 5.19489 0
M  V30 9694 H 906.743 -0.983037 5.64809 0
M  V30 9695 H 905.14 -0.271881 5.99484 0
M  V30 9696 H 906.21 0.516304 4.82143 0
M  V30 9697 N 907.553 -1.57587 0.0200696 0
M  V30 9698 C 908.964 -1.79312 -0.520019 0
M  V30 9699 C 909.315 -0.929475 -1.72787 0
M  V30 9700 O 908.44 -0.137389 -2.15963 0
M  V30 9701 C 909.035 -3.25203 -0.950172 0
M  V30 9702 C 907.594 -3.47954 -1.43543 0
M  V30 9703 C 906.741 -2.74459 -0.395917 0
M  V30 9704 H 909.692 -1.56779 0.246153 0
M  V30 9705 H 909.713 -3.34418 -1.81508 0
M  V30 9706 H 909.225 -3.88035 -0.070883 0
M  V30 9707 H 907.326 -2.90363 -2.33495 0
M  V30 9708 H 907.439 -4.56661 -1.44905 0
M  V30 9709 H 905.803 -2.39669 -0.862022 0
M  V30 9710 H 906.586 -3.40001 0.47475 0
M  V30 9711 N 909.032 0.252966 -1.55557 0
M  V30 9712 C 909.982 1.31585 -1.86197 0
M  V30 9713 C 910.966 1.43773 -0.722357 0
M  V30 9714 O 912.158 1.47117 -0.984152 0
M  V30 9715 C 909.287 2.67245 -2.15487 0
M  V30 9716 C 908.373 2.59087 -3.3576 0
M  V30 9717 N 908.764 2.20556 -4.5518 0
M  V30 9718 C 907.062 2.90112 -3.3875 0
M  V30 9719 C 907.763 2.22881 -5.37307 0
M  V30 9720 N 906.739 2.62145 -4.76215 0
M  V30 9721 H 910.541 1.00835 -2.76061 0
M  V30 9722 H 908.055 0.461598 -1.55702 0
M  V30 9723 H 910.052 3.43944 -2.35602 0
M  V30 9724 H 908.712 2.98867 -1.26919 0
M  V30 9725 H 909.723 1.922 -4.80915 0
M  V30 9726 H 906.4 3.26313 -2.60434 0
M  V30 9727 H 907.79 1.95482 -6.42835 0
M  V30 9728 N 910.51 1.48831 0.518367 0
M  V30 9729 C 911.46 1.60614 1.61824 0
M  V30 9730 C 912.444 0.462631 1.54106 0
M  V30 9731 O 913.636 0.714689 1.6193 0
M  V30 9732 C 910.765 1.65984 3.00507 0
M  V30 9733 C 909.851 2.85854 3.13286 0
M  V30 9734 N 910.242 4.1014 2.96005 0
M  V30 9735 C 908.54 2.83429 3.4436 0
M  V30 9736 C 909.241 4.90626 3.12508 0
M  V30 9737 N 908.217 4.2366 3.40607 0
M  V30 9738 H 912.019 2.54443 1.47091 0
M  V30 9739 H 909.533 1.45363 0.724102 0
M  V30 9740 H 911.53 1.72521 3.79529 0
M  V30 9741 H 910.19 0.732792 3.16323 0
M  V30 9742 H 911.201 4.40395 2.72531 0
M  V30 9743 H 907.878 2.0003 3.66462 0
M  V30 9744 H 909.268 5.99302 3.03786 0
M  V30 9745 N 911.988 -0.768124 1.37614 0
M  V30 9746 C 912.898 -1.91249 1.35871 0
M  V30 9747 C 913.914 -1.7208 0.257786 0
M  V30 9748 O 915.09 -1.95253 0.493782 0
M  V30 9749 C 912.155 -3.26423 1.16829 0
M  V30 9750 C 911.216 -3.5822 2.36594 0
M  V30 9751 C 910.449 -4.86945 2.1845 0
M  V30 9752 O 910.672 -5.58258 1.17064 0
M  V30 9753 O 909.606 -5.17888 3.06718 0
M  V30 9754 H 913.432 -1.95671 2.32264 0
M  V30 9755 H 911.017 -0.911382 1.18382 0
M  V30 9756 H 912.899 -4.07269 1.08212 0
M  V30 9757 H 911.574 -3.22845 0.235123 0
M  V30 9758 H 910.481 -2.77594 2.50783 0
M  V30 9759 H 911.814 -3.66545 3.2849 0
M  V30 9760 N 913.466 -1.22244 -0.994698 0
M  V30 9761 C 914.376 -1.00722 -2.11878 0
M  V30 9762 C 915.392 0.043919 -1.73945 0
M  V30 9763 O 916.568 -0.148411 -2.00852 0
M  V30 9764 C 913.633 -0.585723 -3.41717 0
M  V30 9765 C 912.694 -1.71027 -3.93762 0
M  V30 9766 C 911.927 -1.30879 -5.17403 0
M  V30 9767 O 912.15 -0.18681 -5.70094 0
M  V30 9768 O 911.084 -2.1246 -5.63156 0
M  V30 9769 H 914.91 -1.94894 -2.32916 0
M  V30 9770 H 912.495 -1.00822 -1.10251 0
M  V30 9771 H 914.377 -0.360935 -4.19851 0
M  V30 9772 H 913.052 0.327166 -3.22042 0
M  V30 9773 H 911.959 -1.98956 -3.16808 0
M  V30 9774 H 913.292 -2.60096 -4.17865 0
M  V30 9775 N 914.944 1.19125 -1.03184 0
M  V30 9776 C 916.36 1.40909 -0.749447 0
M  V30 9777 C 916.56 1.9022 0.664729 0
M  V30 9778 O 915.616 2.08085 1.43028 0
M  V30 9779 C 916.929 2.41761 -1.78807 0
M  V30 9780 C 918.477 2.55503 -1.80796 0
M  V30 9781 C 918.952 3.59612 -2.83626 0
M  V30 9782 N 920.443 3.6711 -2.82461 0
M  V30 9783 C 921.178 4.47366 -3.5868 0
M  V30 9784 N 920.674 5.31302 -4.44623 0
M  V30 9785 N 922.467 4.42044 -3.47208 0
M  V30 9786 H 914.618 0.854399 -1.94458 0
M  V30 9787 H 916.881 0.437753 -0.840878 0
M  V30 9788 H 916.587 2.12559 -2.80199 0
M  V30 9789 H 916.461 3.40981 -1.61283 0
M  V30 9790 H 918.848 2.84027 -0.800803 0
M  V30 9791 H 918.929 1.56427 -2.02396 0
M  V30 9792 H 918.573 3.3183 -3.84515 0
M  V30 9793 H 918.503 4.58345 -2.59283 0
M  V30 9794 H 920.994 3.07166 -2.2013 0
M  V30 9795 H 921.307 5.89667 -4.99512 0
M  V30 9796 H 919.652 5.30753 -4.48694 0
M  V30 9797 H 922.843 3.75513 -2.79477 0
M  V30 9798 H 923.016 5.0435 -4.06859 0
M  V30 9799 N 916.422 0.810101 1.35185 0
M  V30 9800 C 917.65 0.404696 2.02903 0
M  V30 9801 C 918.065 -0.985434 1.61042 0
M  V30 9802 O 917.422 -1.63557 0.809658 0
M  V30 9803 C 917.473 0.482493 3.58266 0
M  V30 9804 O 917.194 1.81782 3.98606 0
M  V30 9805 C 918.695 0.070345 4.43244 0
M  V30 9806 H 915.915 0.163972 0.650657 0
M  V30 9807 H 918.459 1.0947 1.72733 0
M  V30 9808 H 916.614 -0.159296 3.87072 0
M  V30 9809 H 917.028 1.78306 4.93262 0
M  V30 9810 H 918.502 0.175888 5.5172 0
M  V30 9811 H 918.979 -0.984724 4.28018 0
M  V30 9812 H 919.585 0.685427 4.1974 0
M  V30 9813 N 917.9 -1.47166 0.563914 0
M  V30 9814 C 919.146 -2.03337 0.0506932 0
M  V30 9815 C 919.501 -1.42976 -1.28746 0
M  V30 9816 O 918.794 -0.578508 -1.82658 0
M  V30 9817 C 918.988 -3.57279 -0.0931797 0
M  V30 9818 C 918.817 -4.32567 1.22948 0
M  V30 9819 C 917.587 -4.72206 1.79859 0
M  V30 9820 C 919.785 -4.67282 2.14829 0
M  V30 9821 N 917.767 -5.32166 3.0606 0
M  V30 9822 C 919.138 -5.27615 3.25611 0
M  V30 9823 C 921.193 -4.49211 2.14741 0
M  V30 9824 C 919.896 -5.71784 4.36412 0
M  V30 9825 C 921.922 -4.94384 3.24559 0
M  V30 9826 C 921.284 -5.54771 4.34061 0
M  V30 9827 H 917.383 -0.779627 0.0608761 0
M  V30 9828 H 919.967 -1.79563 0.75268 0
M  V30 9829 H 918.138 -3.80806 -0.764301 0
M  V30 9830 H 919.87 -4.0009 -0.609075 0
M  V30 9831 H 916.625 -4.54372 1.33577 0
M  V30 9832 H 917.049 -5.66684 3.70404 0
M  V30 9833 H 921.691 -4.01875 1.31362 0
M  V30 9834 H 919.409 -6.18108 5.20546 0
M  V30 9835 H 922.995 -4.82167 3.25586 0
M  V30 9836 H 921.875 -5.89087 5.17635 0
M  V30 9837 N 919.378 -0.300708 -1.54705 0
M  V30 9838 C 920.608 0.310819 -2.04249 0
M  V30 9839 C 921.016 1.4809 -1.17754 0
M  V30 9840 O 920.359 1.82654 -0.195779 0
M  V30 9841 C 920.421 0.83014 -3.49784 0
M  V30 9842 C 920.085 -0.214628 -4.56496 0
M  V30 9843 C 921.082 -1.04298 -5.09331 0
M  V30 9844 C 918.767 -0.356242 -5.01035 0
M  V30 9845 C 920.761 -1.99889 -6.05246 0
M  V30 9846 C 918.448 -1.3156 -5.96771 0
M  V30 9847 C 919.446 -2.1354 -6.4876 0
M  V30 9848 O 919.134 -3.07849 -7.4262 0
M  V30 9849 H 918.866 0.0715341 -0.672204 0
M  V30 9850 H 921.42 -0.438179 -2.00672 0
M  V30 9851 H 919.65 1.62966 -3.50684 0
M  V30 9852 H 921.339 1.35752 -3.82526 0
M  V30 9853 H 922.105 -0.944439 -4.75716 0
M  V30 9854 H 917.984 0.271916 -4.60197 0
M  V30 9855 H 921.528 -2.63917 -6.45751 0
M  V30 9856 H 917.425 -1.41486 -6.29803 0
M  V30 9857 H 918.193 -3.02824 -7.60421 0
M  V30 9858 N 920.856 1.57574 -0.0284266 0
M  V30 9859 C 922.102 1.92056 0.651327 0
M  V30 9860 C 922.435 0.905092 1.71819 0
M  V30 9861 O 921.71 -0.0722703 1.94366 0
M  V30 9862 C 921.993 3.37021 1.26841 0
M  V30 9863 C 921.846 4.49304 0.211157 0
M  V30 9864 C 923.165 3.81936 2.18662 0
M  V30 9865 H 920.284 0.698428 0.235304 0
M  V30 9866 H 922.926 1.89807 -0.0855435 0
M  V30 9867 H 921.076 3.39068 1.89644 0
M  V30 9868 H 922.748 4.5939 -0.419379 0
M  V30 9869 H 920.991 4.31317 -0.463445 0
M  V30 9870 H 921.662 5.47764 0.682518 0
M  V30 9871 H 924.138 3.8162 1.65847 0
M  V30 9872 H 923.014 4.84064 2.58792 0
M  V30 9873 H 923.275 3.174 3.07749 0
M  V30 9874 N 922.334 -0.244713 1.55689 0
M  V30 9875 C 923.582 -0.970525 1.77272 0
M  V30 9876 C 923.903 -1.85771 0.592804 0
M  V30 9877 O 923.173 -1.91952 -0.391323 0
M  V30 9878 H 921.753 -0.361342 0.653789 0
M  V30 9879 H 924.415 -0.262134 1.93129 0
M  V30 9880 H 923.511 -1.59096 2.68505 0
M  V30 9881 N 923.813 -1.49104 -0.510467 0
M  V30 9882 C 924.76 -1.65074 -1.61305 0
M  V30 9883 C 925.73 -0.492362 -1.58635 0
M  V30 9884 O 926.915 -0.718241 -1.76765 0
M  V30 9885 C 924.055 -1.71457 -2.99493 0
M  V30 9886 C 923.168 -2.98536 -3.12251 0
M  V30 9887 C 922.303 -2.95957 -4.41116 0
M  V30 9888 C 921.342 -4.17655 -4.47471 0
M  V30 9889 N 920.479 -4.13041 -5.67751 0
M  V30 9890 H 925.319 -2.59222 -1.46996 0
M  V30 9891 H 922.856 -1.28535 -0.715346 0
M  V30 9892 H 924.814 -1.7314 -3.79577 0
M  V30 9893 H 923.444 -0.807834 -3.12528 0
M  V30 9894 H 922.496 -3.06509 -2.25292 0
M  V30 9895 H 923.808 -3.88527 -3.12807 0
M  V30 9896 H 922.962 -2.96149 -5.2951 0
M  V30 9897 H 921.701 -2.03728 -4.4311 0
M  V30 9898 H 920.706 -4.17717 -3.57481 0
M  V30 9899 H 921.931 -5.11066 -4.472 0
M  V30 9900 H 919.877 -3.23643 -5.70606 0
M  V30 9901 H 919.794 -4.96757 -5.69884 0
M  V30 9902 H 921.062 -4.17322 -6.58379 0
M  V30 9903 N 925.291 0.760815 -1.38019 0
M  V30 9904 C 926.54 1.51506 -1.3315 0
M  V30 9905 C 926.853 1.95444 0.0782124 0
M  V30 9906 O 928.059 2.70352 0.249418 0
M  V30 9907 C 926.515 2.73636 -2.33776 0
M  V30 9908 C 926.123 2.36753 -3.80332 0
M  V30 9909 C 927.867 3.51548 -2.37937 0
M  V30 9910 C 925.774 3.55451 -4.72661 0
M  V30 9911 H 924.704 0.568844 -0.494907 0
M  V30 9912 H 927.355 0.832343 -1.63537 0
M  V30 9913 H 925.737 3.43852 -1.96422 0
M  V30 9914 H 926.911 1.7425 -4.26584 0
M  V30 9915 H 925.226 1.71991 -3.7922 0
M  V30 9916 H 927.823 4.39791 -3.04119 0
M  V30 9917 H 928.166 3.9219 -1.39617 0
M  V30 9918 H 928.699 2.88339 -2.74054 0
M  V30 9919 H 925.438 3.19882 -5.7215 0
M  V30 9920 H 924.958 4.17022 -4.31107 0
M  V30 9921 H 926.637 4.22125 -4.90326 0
M  V30 9922 N 926.769 1.22769 0.988202 0
M  V30 9923 C 927.717 0.999271 2.10041 0
M  V30 9924 C 928.711 -0.0591767 1.69297 0
M  V30 9925 O 929.917 0.0936653 1.79756 0
M  V30 9926 H 926.292 0.30599 0.686931 0
M  V30 9927 H 928.263 1.94294 2.26478 0
M  V30 9928 C 927.012 0.59873 3.42506 0
M  V30 9929 H 926.335 1.40487 3.74304 0
M  V30 9930 H 927.775 0.478353 4.21293 0
M  V30 9931 C 926.234 -0.692216 3.29712 0
M  V30 9932 O 926.764 -1.74342 3.61895 0
M  V30 9933 N 924.97 -0.665163 2.82885 0
M  V30 9934 H 924.517 0.190604 2.56894 0
M  V30 9935 H 924.475 -1.52917 2.74706 0
M  V30 9936 N 928.247 -1.18576 1.03814 0
M  V30 9937 C 929.663 -1.4051 0.756909 0
M  V30 9938 C 929.863 -1.9057 -0.654631 0
M  V30 9939 O 928.919 -2.0884 -1.41922 0
M  V30 9940 C 930.232 -2.4081 1.80087 0
M  V30 9941 C 931.78 -2.54541 1.82148 0
M  V30 9942 C 932.255 -3.58102 2.85529 0
M  V30 9943 N 933.746 -3.65607 2.84404 0
M  V30 9944 C 934.481 -4.45458 3.61047 0
M  V30 9945 N 933.977 -5.28937 4.47434 0
M  V30 9946 N 935.77 -4.40196 3.49548 0
M  V30 9947 H 927.921 -0.844075 1.94908 0
M  V30 9948 H 930.184 -0.433287 0.843188 0
M  V30 9949 H 929.89 -2.1107 2.81322 0
M  V30 9950 H 929.764 -3.4012 1.63089 0
M  V30 9951 H 932.151 -2.83598 0.815855 0
M  V30 9952 H 932.232 -1.55352 2.03223 0
M  V30 9953 H 931.876 -3.29786 3.86269 0
M  V30 9954 H 931.806 -4.56963 2.6171 0
M  V30 9955 H 934.297 -3.05994 2.21756 0
M  V30 9956 H 934.61 -5.8701 5.02632 0
M  V30 9957 H 932.955 -5.28366 4.51503 0
M  V30 9958 H 936.146 -3.74026 2.81464 0
M  V30 9959 H 936.319 -5.02186 4.09528 0
M  V30 9960 N 929.725 -0.817259 -1.34754 0
M  V30 9961 C 930.953 -0.415451 -2.02686 0
M  V30 9962 C 931.368 0.97688 -1.61563 0
M  V30 9963 O 930.725 1.63125 -0.818321 0
M  V30 9964 C 930.776 -0.501486 -3.58005 0
M  V30 9965 O 930.497 -1.83893 -3.97637 0
M  V30 9966 C 931.998 -0.0938504 -4.43201 0
M  V30 9967 H 929.218 -0.16742 -0.649778 0
M  V30 9968 H 931.762 -1.10384 -1.7215 0
M  V30 9969 H 929.917 0.138766 -3.87151 0
M  V30 9970 H 930.331 -1.8092 -4.92309 0
M  V30 9971 H 931.805 -0.205145 -5.51619 0
M  V30 9972 H 932.282 0.962011 -4.28535 0
M  V30 9973 H 932.888 -0.707677 -4.19371 0
M  V30 9974 N 931.203 1.46865 -0.571711 0
M  V30 9975 C 932.135 2.28277 0.205479 0
M  V30 9976 C 933.148 1.37866 0.865835 0
M  V30 9977 O 934.337 1.62564 0.737247 0
M  V30 9978 C 931.437 3.12572 1.30965 0
M  V30 9979 C 930.61 4.31038 0.743328 0
M  V30 9980 C 929.669 4.96815 1.73382 0
M  V30 9981 O 928.695 5.54755 1.2742 0
M  V30 9982 N 929.897 4.92825 3.06764 0
M  V30 9983 H 932.662 2.95618 -0.49294 0
M  V30 9984 H 930.223 1.56655 -0.408744 0
M  V30 9985 H 932.215 3.53442 1.97131 0
M  V30 9986 H 930.785 2.47378 1.91109 0
M  V30 9987 H 930.005 3.94084 -0.0955004 0
M  V30 9988 H 931.293 5.07632 0.344556 0
M  V30 9989 H 930.691 4.46978 3.46738 0
M  V30 9990 H 929.248 5.3767 3.68449 0
M  V30 9991 N 932.681 0.308908 1.54543 0
M  V30 9992 C 933.644 -0.550857 2.22482 0
M  V30 9993 C 934.644 -1.0551 1.21344 0
M  V30 9994 O 935.834 -0.949866 1.46025 0
M  V30 9995 C 932.966 -1.76354 2.9174 0
M  V30 9996 H 934.159 0.0428395 2.99869 0
M  V30 9997 H 931.712 0.059825 1.56185 0
M  V30 9998 H 932.447 -2.39686 2.18451 0
M  V30 9999 H 932.232 -1.40954 3.65889 0
M  V30 10000 H 933.722 -2.37417 3.43545 0
M  V30 10001 N 934.159 -1.57557 0.0367827 0
M  V30 10002 C 935.069 -2.14148 -0.958017 0
M  V30 10003 C 936.085 -1.09564 -1.35173 0
M  V30 10004 O 937.261 -1.4166 -1.43158 0
M  V30 10005 C 934.326 -2.6636 -2.21931 0
M  V30 10006 C 933.387 -3.85688 -1.8853 0
M  V30 10007 C 932.62 -4.35401 -3.08645 0
M  V30 10008 O 932.843 -3.8425 -4.21554 0
M  V30 10009 O 931.777 -5.27158 -2.90497 0
M  V30 10010 H 935.603 -2.99442 -0.506797 0
M  V30 10011 H 933.188 -1.48259 -0.184275 0
M  V30 10012 H 935.07 -2.99976 -2.9596 0
M  V30 10013 H 933.745 -1.84145 -2.66219 0
M  V30 10014 H 932.652 -3.56985 -1.11861 0
M  V30 10015 H 933.985 -4.69089 -1.49052 0
M  V30 10016 N 935.637 0.236453 -1.55816 0
M  V30 10017 C 936.547 1.31418 -1.94336 0
M  V30 10018 C 937.563 1.52095 -0.845164 0
M  V30 10019 O 938.739 1.65515 -1.14746 0
M  V30 10020 C 935.804 2.6468 -2.23932 0
M  V30 10021 C 934.865 2.52435 -3.47239 0
M  V30 10022 C 934.098 3.79342 -3.75414 0
M  V30 10023 O 934.321 4.81694 -3.05495 0
M  V30 10024 O 933.255 3.77347 -4.68927 0
M  V30 10025 H 937.081 1.01739 -2.86152 0
M  V30 10026 H 934.666 0.438084 -1.42833 0
M  V30 10027 H 936.548 3.4341 -2.44228 0
M  V30 10028 H 935.223 2.94071 -1.35292 0
M  V30 10029 H 934.13 1.71955 -3.32238 0
M  V30 10030 H 935.463 2.27987 -4.36214 0
M  V30 10031 N 937.115 1.49373 0.502552 0
M  V30 10032 C 938.048 1.60529 1.6219 0
M  V30 10033 C 939.026 0.454431 1.56121 0
M  V30 10034 O 940.21 0.669768 1.762 0
M  V30 10035 C 937.337 1.55879 3.00698 0
M  V30 10036 C 936.383 2.76143 3.25034 0
M  V30 10037 S 937.216 4.37831 3.08325 0
M  V30 10038 C 938.372 4.35824 4.49231 0
M  V30 10039 H 938.605 2.55219 1.52482 0
M  V30 10040 H 936.138 1.38244 0.687594 0
M  V30 10041 H 938.096 1.53882 3.80566 0
M  V30 10042 H 936.757 0.624791 3.07823 0
M  V30 10043 H 935.95 2.69104 4.26144 0
M  V30 10044 H 935.552 2.75544 2.52886 0
M  V30 10045 H 937.844 4.07447 5.41288 0
M  V30 10046 H 938.787 5.37206 4.6132 0
M  V30 10047 H 939.195 3.65923 4.29838 0
M  V30 10048 N 938.594 -0.753485 1.38421 0
M  V30 10049 C 939.524 -1.8808 1.38377 0
M  V30 10050 C 940.505 -1.68258 0.249664 0
M  V30 10051 O 941.69 -1.88848 0.45276 0
M  V30 10052 C 938.82 -3.25608 1.20818 0
M  V30 10053 C 937.774 -3.60032 2.31433 0
M  V30 10054 C 937.1 -4.96297 1.9898 0
M  V30 10055 C 938.4 -3.64898 3.73694 0
M  V30 10056 H 940.094 -1.88375 2.32713 0
M  V30 10057 H 937.64 -0.90489 1.12017 0
M  V30 10058 H 939.593 -4.04127 1.19412 0
M  V30 10059 H 938.317 -3.25793 0.229433 0
M  V30 10060 H 936.976 -2.83831 2.32025 0
M  V30 10061 H 936.624 -4.93043 0.995889 0
M  V30 10062 H 936.324 -5.20298 2.73063 0
M  V30 10063 H 937.848 -5.77196 1.99193 0
M  V30 10064 H 939.262 -4.33531 3.75132 0
M  V30 10065 H 937.659 -4.00407 4.46983 0
M  V30 10066 H 938.729 -2.65124 4.06002 0
M  V30 10067 N 940.072 -1.23292 -0.981677 0
M  V30 10068 C 941.297 -1.09176 -1.76339 0
M  V30 10069 C 941.722 0.352726 -1.84763 0
M  V30 10070 O 941.08 1.25509 -1.30832 0
M  V30 10071 C 941.128 -1.72046 -3.16911 0
M  V30 10072 O 940.232 -0.98174 -4.00544 0
M  V30 10073 H 939.573 -0.382755 -0.542581 0
M  V30 10074 H 942.103 -1.63319 -1.23239 0
M  V30 10075 H 942.113 -1.77232 -3.67495 0
M  V30 10076 H 940.788 -2.77154 -3.10095 0
M  V30 10077 H 939.365 -1.00672 -3.59054 0
M  V30 10078 N 941.55 1.18024 -1.04442 0
M  V30 10079 C 942.798 1.87727 -0.74854 0
M  V30 10080 C 943.119 1.80975 0.726156 0
M  V30 10081 O 942.389 1.23061 1.52423 0
M  V30 10082 H 940.969 0.694974 -0.273897 0
M  V30 10083 H 943.631 1.43213 -1.32197 0
M  V30 10084 H 942.727 2.93665 -1.05674 0
M  V30 10085 N 943.028 0.824394 1.34319 0
M  V30 10086 C 943.975 0.245282 2.29493 0
M  V30 10087 C 944.945 -0.630762 1.53657 0
M  V30 10088 O 946.13 -0.572094 1.82021 0
M  V30 10089 C 943.27 -0.585631 3.40095 0
M  V30 10090 C 942.383 0.312821 4.30866 0
M  V30 10091 C 941.518 -0.527801 5.28571 0
M  V30 10092 C 940.557 0.369946 6.10981 0
M  V30 10093 N 939.694 -0.43169 7.00772 0
M  V30 10094 H 944.534 1.06225 2.78425 0
M  V30 10095 H 942.071 0.53533 1.37013 0
M  V30 10096 H 944.029 -1.08271 4.02906 0
M  V30 10097 H 942.659 -1.3677 2.92393 0
M  V30 10098 H 941.711 0.928129 3.68904 0
M  V30 10099 H 943.023 1.00306 4.8861 0
M  V30 10100 H 942.177 -1.0893 5.96841 0
M  V30 10101 H 940.916 -1.25154 4.71368 0
M  V30 10102 H 939.921 0.943577 5.41643 0
M  V30 10103 H 941.146 1.09182 6.70266 0
M  V30 10104 H 939.092 -1.13908 6.46035 0
M  V30 10105 H 939.009 0.200133 7.55735 0
M  V30 10106 H 940.277 -0.975894 7.73367 0
M  V30 10107 N 944.506 -1.46559 0.579492 0
M  V30 10108 C 945.922 -1.57771 0.240921 0
M  V30 10109 C 946.122 -1.57505 -1.25676 0
M  V30 10110 O 945.178 -1.4903 -2.03829 0
M  V30 10111 C 946.491 -2.87311 0.887285 0
M  V30 10112 C 948.039 -3.00937 0.860576 0
M  V30 10113 C 948.514 -4.33208 1.48642 0
M  V30 10114 N 950.005 -4.39899 1.45062 0
M  V30 10115 C 950.74 -5.40856 1.90428 0
M  V30 10116 N 950.236 -6.48503 2.43752 0
M  V30 10117 N 952.029 -5.32037 1.81364 0
M  V30 10118 H 944.18 -1.44976 1.55228 0
M  V30 10119 H 946.443 -0.691354 0.648639 0
M  V30 10120 H 946.149 -2.93307 1.94071 0
M  V30 10121 H 946.023 -3.75141 0.393577 0
M  V30 10122 H 948.41 -2.94524 -0.184223 0
M  V30 10123 H 948.491 -2.14591 1.39227 0
M  V30 10124 H 948.135 -4.40378 2.5304 0
M  V30 10125 H 948.065 -5.18323 0.92998 0
M  V30 10126 H 950.556 -3.62706 1.0608 0
M  V30 10127 H 950.869 -7.21744 2.76234 0
M  V30 10128 H 949.214 -6.49332 2.47776 0
M  V30 10129 H 952.405 -4.46841 1.39465 0
M  V30 10130 H 952.578 -6.10573 2.17035 0
M  V30 10131 N 945.984 -0.3171 -1.54377 0
M  V30 10132 C 947.261 0.341348 -1.92598 0
M  V30 10133 C 947.641 1.70402 -1.24605 0
M  V30 10134 O 946.989 2.25191 -0.387448 0
M  V30 10135 C 947.199 0.440003 -3.46215 0
M  V30 10136 C 948.547 0.703327 -4.18734 0
M  V30 10137 O 949.571 0.523181 -3.52337 0
M  V30 10138 O 948.43 1.05042 -5.3631 0
M  V30 10139 H 945.524 0.193696 -0.803997 0
M  V30 10140 H 948.07 -0.366341 -1.65699 0
M  V30 10141 H 946.842 -0.517299 -3.87866 0
M  V30 10142 H 946.465 1.19553 -3.792 0
M  V30 10143 N 947.462 1.57535 -0.0451378 0
M  V30 10144 C 948.71 1.92071 0.628743 0
M  V30 10145 C 949.031 0.923635 1.71738 0
M  V30 10146 O 948.301 -0.0324376 1.95873 0
M  V30 10147 H 946.881 0.708995 0.235233 0
M  V30 10148 H 949.543 1.9466 -0.0967177 0
M  V30 10149 H 948.639 2.9314 1.07123 0
M  V30 10150 N 948.94 -0.228186 1.55939 0
M  V30 10151 C 950.168 -0.970618 1.8272 0
M  V30 10152 C 950.583 -1.78212 0.623385 0
M  V30 10153 O 949.94 -1.77879 -0.408063 0
M  V30 10154 C 949.991 -1.89352 3.07942 0
M  V30 10155 O 949.712 -1.11483 4.23678 0
M  V30 10156 C 951.213 -2.75039 3.47661 0
M  V30 10157 H 948.433 -0.284772 0.607574 0
M  V30 10158 H 950.977 -0.245419 2.03022 0
M  V30 10159 H 949.132 -2.57275 2.89635 0
M  V30 10160 H 949.546 -1.74073 4.94772 0
M  V30 10161 H 951.02 -3.35511 4.38334 0
M  V30 10162 H 951.497 -3.471 2.69106 0
M  V30 10163 H 952.103 -2.1254 3.68384 0
M  V30 10164 N 950.418 -1.49637 -0.494624 0
M  V30 10165 C 951.665 -1.59445 -1.24834 0
M  V30 10166 C 951.993 -0.284028 -1.92415 0
M  V30 10167 O 951.248 0.728519 -1.81634 0
M  V30 10168 C 951.547 -2.70749 -2.33302 0
M  V30 10169 C 951.213 -4.12034 -1.83135 0
M  V30 10170 C 949.875 -4.50482 -1.69173 0
M  V30 10171 C 952.227 -5.00432 -1.4566 0
M  V30 10172 C 949.555 -5.75093 -1.16124 0
M  V30 10173 C 951.907 -6.25568 -0.940608 0
M  V30 10174 C 950.571 -6.62839 -0.787432 0
M  V30 10175 H 949.841 -0.583451 -0.456799 0
M  V30 10176 H 952.488 -1.8349 -0.548044 0
M  V30 10177 H 950.793 -2.407 -3.09145 0
M  V30 10178 H 952.49 -2.75546 -2.91334 0
M  V30 10179 H 949.08 -3.8169 -1.94964 0
M  V30 10180 H 953.264 -4.71379 -1.55291 0
M  V30 10181 H 948.52 -6.02665 -1.02982 0
M  V30 10182 H 952.694 -6.93439 -0.641467 0
M  V30 10183 H 950.321 -7.59279 -0.374191 0
M  V30 10184 N 951.896 0.746133 -1.38819 0
M  V30 10185 C 952.826 1.87344 -1.39372 0
M  V30 10186 C 953.807 1.68123 -0.258583 0
M  V30 10187 O 954.992 1.88606 -0.462769 0
M  V30 10188 C 952.122 3.24962 -1.22543 0
M  V30 10189 C 951.076 3.58799 -2.33339 0
M  V30 10190 C 950.402 4.95235 -2.01609 0
M  V30 10191 C 951.702 3.62911 -3.75624 0
M  V30 10192 H 953.396 1.87138 -2.33709 0
M  V30 10193 H 950.942 0.898937 -1.12495 0
M  V30 10194 H 952.895 4.03488 -1.21554 0
M  V30 10195 H 951.619 3.25667 -0.246707 0
M  V30 10196 H 950.278 2.82596 -2.33527 0
M  V30 10197 H 949.926 4.92508 -1.02202 0
M  V30 10198 H 949.626 5.18843 -2.75819 0
M  V30 10199 H 951.15 5.76131 -2.02251 0
M  V30 10200 H 952.564 4.31535 -3.77426 0
M  V30 10201 H 950.961 3.98031 -4.491 0
M  V30 10202 H 952.031 2.62967 -4.07402 0
M  V30 10203 N 953.375 1.23811 0.975125 0
M  V30 10204 C 954.624 1.06741 1.71141 0
M  V30 10205 C 954.937 -0.394986 1.9157 0
M  V30 10206 O 956.143 -0.685723 2.62698 0
M  V30 10207 C 954.599 1.86168 3.08009 0
M  V30 10208 C 954.207 3.36771 2.95448 0
M  V30 10209 C 955.951 1.77604 3.85561 0
M  V30 10210 C 953.858 4.0857 4.2758 0
M  V30 10211 H 952.788 0.395819 0.64175 0
M  V30 10212 H 955.439 1.47825 1.0872 0
M  V30 10213 H 953.821 1.37893 3.71216 0
M  V30 10214 H 954.995 3.92571 2.41298 0
M  V30 10215 H 953.31 3.46205 2.31368 0
M  V30 10216 H 955.907 2.28556 4.83391 0
M  V30 10217 H 956.25 0.739837 4.09673 0
M  V30 10218 H 956.783 2.23519 3.29065 0
M  V30 10219 H 953.522 5.12518 4.08663 0
M  V30 10220 H 953.042 3.57556 4.81574 0
M  V30 10221 H 954.721 4.15157 4.9624 0
M  V30 10222 N 954.853 -1.17469 1.05066 0
M  V30 10223 C 956.269 -1.39699 0.771769 0
M  V30 10224 C 956.469 -1.91253 -0.634382 0
M  V30 10225 O 955.525 -2.10334 -1.39699 0
M  V30 10226 C 956.838 -2.38886 1.82631 0
M  V30 10227 C 958.386 -2.52595 1.84838 0
M  V30 10228 C 958.861 -3.55054 2.89311 0
M  V30 10229 N 960.352 -3.6257 2.88266 0
M  V30 10230 C 961.087 -4.41603 3.65752 0
M  V30 10231 N 960.583 -5.24162 4.53019 0
M  V30 10232 N 962.376 -4.36464 3.54197 0
M  V30 10233 H 954.527 -0.823355 1.95792 0
M  V30 10234 H 956.79 -0.42432 0.847736 0
M  V30 10235 H 956.496 -2.08075 2.83545 0
M  V30 10236 H 956.37 -3.38371 1.66687 0
M  V30 10237 H 958.757 -2.82717 0.845888 0
M  V30 10238 H 958.838 -1.53188 2.04859 0
M  V30 10239 H 958.482 -3.2567 3.89745 0
M  V30 10240 H 958.412 -4.54162 2.66542 0
M  V30 10241 H 960.903 -3.03625 2.24989 0
M  V30 10242 H 961.216 -5.81646 5.0883 0
M  V30 10243 H 959.561 -5.23547 4.57081 0
M  V30 10244 H 962.752 -3.7102 2.85416 0
M  V30 10245 H 962.925 -4.97814 4.14832 0
M  V30 10246 N 956.331 -0.831506 -1.3388 0
M  V30 10247 C 957.241 -0.261688 -2.33136 0
M  V30 10248 C 958.257 0.608429 -1.63016 0
M  V30 10249 O 959.433 0.514297 -1.94723 0
M  V30 10250 C 956.498 0.559957 -3.42148 0
M  V30 10251 C 955.559 -0.333569 -4.28002 0
M  V30 10252 C 954.792 0.448956 -5.31808 0
M  V30 10253 O 955.015 1.6814 -5.45055 0
M  V30 10254 O 953.949 -0.173197 -6.01651 0
M  V30 10255 H 957.775 -1.08343 -2.83717 0
M  V30 10256 H 955.36 -0.593849 -1.3709 0
M  V30 10257 H 957.242 1.02712 -4.08691 0
M  V30 10258 H 955.917 1.35888 -2.93796 0
M  V30 10259 H 954.824 -0.848416 -3.64352 0
M  V30 10260 H 956.157 -1.09707 -4.79818 0
M  V30 10261 N 957.809 1.4625 -0.587256 0
M  V30 10262 C 959.034 2.07252 -0.0784517 0
M  V30 10263 C 959.459 1.43239 1.21919 0
M  V30 10264 O 958.817 0.517791 1.73749 0
M  V30 10265 C 958.865 3.60534 0.0691037 0
M  V30 10266 O 957.969 3.96773 1.12448 0
M  V30 10267 H 957.31 0.660825 -0.064859 0
M  V30 10268 H 959.84 1.87819 -0.811491 0
M  V30 10269 H 959.85 4.0708 0.273826 0
M  V30 10270 H 958.525 4.06516 -0.878514 0
M  V30 10271 H 957.102 3.6193 0.897852 0
M  V30 10272 N 959.287 0.325282 1.54207 0
M  V30 10273 C 960.512 -0.281418 2.05482 0
M  V30 10274 C 960.937 -1.44869 1.19977 0
M  V30 10275 O 960.295 -1.80088 0.209275 0
M  V30 10276 C 960.343 -0.692029 3.53897 0
M  V30 10277 O 959.447 -1.7942 3.71325 0
M  V30 10278 H 958.788 -0.0504872 0.662078 0
M  V30 10279 H 961.318 0.474191 1.99029 0
M  V30 10280 H 961.328 -0.974219 3.96198 0
M  V30 10281 H 960.003 0.161709 4.15586 0
M  V30 10282 H 958.58 -1.51069 3.40929 0
M  V30 10283 N 960.765 -1.57509 0.0534917 0
M  V30 10284 C 961.697 -2.08616 -0.949322 0
M  V30 10285 C 962.71 -1.01446 -1.27328 0
M  V30 10286 O 963.899 -1.29007 -1.23367 0
M  V30 10287 C 960.999 -2.51622 -2.27024 0
M  V30 10288 C 960.172 -3.82154 -2.12785 0
M  V30 10289 C 959.231 -4.11448 -3.2802 0
M  V30 10290 O 958.257 -4.81333 -3.03822 0
M  V30 10291 N 959.459 -3.63543 -4.52567 0
M  V30 10292 H 962.224 -2.95275 -0.5131 0
M  V30 10293 H 959.785 -1.61355 -0.132693 0
M  V30 10294 H 961.777 -2.68293 -3.02986 0
M  V30 10295 H 960.347 -1.70198 -2.62205 0
M  V30 10296 H 959.567 -3.75041 -1.21399 0
M  V30 10297 H 960.855 -4.67629 -2.00501 0
M  V30 10298 H 960.253 -3.07051 -4.75117 0
M  V30 10299 H 958.81 -3.85448 -5.25617 0
M  V30 10300 N 962.243 0.219913 -1.56058 0
M  V30 10301 C 963.659 0.569685 -1.49086 0
M  V30 10302 C 963.859 1.87066 -0.748903 0
M  V30 10303 O 962.915 2.50838 -0.289235 0
M  V30 10304 C 964.228 0.647397 -2.93648 0
M  V30 10305 C 965.776 0.737914 -3.04177 0
M  V30 10306 C 966.251 0.846957 -4.50101 0
M  V30 10307 N 967.742 0.911136 -4.5415 0
M  V30 10308 C 968.477 1.01525 -5.64341 0
M  V30 10309 N 967.973 1.0832 -6.8428 0
M  V30 10310 N 969.766 1.05051 -5.52196 0
M  V30 10311 H 961.917 -0.633778 -2.02724 0
M  V30 10312 H 964.18 -0.222583 -0.921499 0
M  V30 10313 H 963.886 -0.238987 -3.50887 0
M  V30 10314 H 963.76 1.51046 -3.45637 0
M  V30 10315 H 966.147 1.61474 -2.47002 0
M  V30 10316 H 966.228 -0.150845 -2.55355 0
M  V30 10317 H 965.872 -0.0254166 -5.07894 0
M  V30 10318 H 965.802 1.75116 -4.96631 0
M  V30 10319 H 968.293 0.868869 -3.67776 0
M  V30 10320 H 968.606 1.16247 -7.64007 0
M  V30 10321 H 966.951 1.05231 -6.86987 0
M  V30 10322 H 970.142 0.994086 -4.57423 0
M  V30 10323 H 970.315 1.12819 -6.38103 0
M  V30 10324 N 963.721 1.49897 0.486681 0
M  V30 10325 C 964.969 1.59789 1.23742 0
M  V30 10326 C 965.29 0.293056 1.92785 0
M  V30 10327 O 964.56 -0.688534 1.83401 0
M  V30 10328 H 963.14 0.588775 0.459731 0
M  V30 10329 H 965.802 1.86597 0.562808 0
M  V30 10330 H 964.898 2.40121 1.9937 0
M  V30 10331 N 965.199 -0.738761 1.39212 0
M  V30 10332 C 966.439 -1.51093 1.3766 0
M  V30 10333 C 966.803 -1.91978 -0.0289655 0
M  V30 10334 O 968.004 -2.68265 -0.169465 0
M  V30 10335 C 966.275 -2.71988 2.31856 0
M  V30 10336 S 967.834 -3.61683 2.48458 0
M  V30 10337 H 964.652 -0.516868 0.48823 0
M  V30 10338 H 967.254 -0.865961 1.75275 0
M  V30 10339 H 965.958 -2.40085 3.32847 0
M  V30 10340 H 965.489 -3.41417 1.95443 0
M  V30 10341 H 967.504 -4.65447 1.71969 0
M  V30 10342 N 966.677 -1.24326 -0.968545 0
M  V30 10343 C 967.907 -1.10786 -1.74385 0
M  V30 10344 C 968.315 0.342503 -1.86074 0
M  V30 10345 O 967.658 1.24817 -1.34782 0
M  V30 10346 C 967.72 -1.67274 -3.18213 0
M  V30 10347 C 967.384 -3.1615 -3.29998 0
M  V30 10348 C 968.381 -4.13309 -3.15392 0
M  V30 10349 C 966.066 -3.56092 -3.54265 0
M  V30 10350 C 968.06 -5.48392 -3.24878 0
M  V30 10351 C 965.747 -4.91316 -3.63389 0
M  V30 10352 C 966.745 -5.87275 -3.48707 0
M  V30 10353 O 966.433 -7.20041 -3.57485 0
M  V30 10354 H 966.165 -0.387795 -0.553706 0
M  V30 10355 H 968.719 -1.64894 -1.22471 0
M  V30 10356 H 966.949 -1.07598 -3.71429 0
M  V30 10357 H 968.638 -1.49036 -3.77549 0
M  V30 10358 H 969.404 -3.83792 -2.96528 0
M  V30 10359 H 965.283 -2.81907 -3.6476 0
M  V30 10360 H 968.827 -6.23271 -3.13335 0
M  V30 10361 H 964.724 -5.20505 -3.81766 0
M  V30 10362 H 965.492 -7.27951 -3.74205 0
M  V30 10363 N 968.156 1.1691 -1.05688 0
M  V30 10364 C 969.119 2.19297 -0.666433 0
M  V30 10365 C 970.119 1.5826 0.284674 0
M  V30 10366 O 971.309 1.74068 0.0678757 0
M  V30 10367 C 968.441 3.40894 0.0203656 0
M  V30 10368 H 969.634 2.55354 -1.57272 0
M  V30 10369 H 967.187 1.31078 -0.851359 0
M  V30 10370 H 967.922 3.10388 0.939686 0
M  V30 10371 H 967.707 3.86446 -0.663464 0
M  V30 10372 H 969.197 4.16664 0.279475 0
M  V30 10373 N 969.634 0.838594 1.33437 0
M  V30 10374 C 970.874 0.440239 1.99603 0
M  V30 10375 C 971.238 -0.982061 1.64984 0
M  V30 10376 O 972.439 -1.48413 2.24114 0
M  V30 10377 C 970.71 0.654201 3.51362 0
M  V30 10378 S 972.269 0.351025 4.37394 0
M  V30 10379 H 969.087 0.165608 0.691444 0
M  V30 10380 H 971.689 1.08782 1.6244 0
M  V30 10381 H 970.393 1.68873 3.74045 0
M  V30 10382 H 969.924 -0.00754449 3.93399 0
M  V30 10383 H 971.939 -0.829298 4.89221 0
M  V30 10384 N 971.112 -1.45937 0.595003 0
M  V30 10385 C 972.337 -2.07207 0.0894416 0
M  V30 10386 C 972.762 -1.43884 -1.21157 0
M  V30 10387 O 972.12 -0.526998 -1.73472 0
M  V30 10388 C 972.168 -3.60565 -0.0499828 0
M  V30 10389 O 971.272 -3.97364 -1.10342 0
M  V30 10390 H 970.613 -0.660471 0.0683627 0
M  V30 10391 H 973.143 -1.87386 0.82144 0
M  V30 10392 H 973.153 -4.0722 -0.252234 0
M  V30 10393 H 971.828 -4.06044 0.90006 0
M  V30 10394 H 970.405 -3.62401 -0.878645 0
M  V30 10395 N 972.59 -0.333456 -1.54032 0
M  V30 10396 C 973.836 0.266527 -2.01041 0
M  V30 10397 C 974.169 1.51006 -1.2211 0
M  V30 10398 O 973.444 1.92078 -0.306016 0
M  V30 10399 C 973.727 0.59078 -3.55221 0
M  V30 10400 C 973.58 -0.664143 -4.4487 0
M  V30 10401 C 974.899 1.40447 -4.17088 0
M  V30 10402 H 972.018 0.0953979 -0.7308 0
M  V30 10403 H 974.66 -0.451995 -1.84545 0
M  V30 10404 H 972.81 1.20292 -3.69408 0
M  V30 10405 H 974.482 -1.30227 -4.42537 0
M  V30 10406 H 972.725 -1.29106 -4.14143 0
M  V30 10407 H 973.396 -0.392664 -5.50602 0
M  V30 10408 H 975.872 0.886946 -4.06537 0
M  V30 10409 H 974.748 1.6001 -5.2506 0
M  V30 10410 H 975.009 2.40357 -3.71054 0
M  V30 10411 N 974.068 1.57479 -0.061844 0
M  V30 10412 C 975.314 1.93395 0.610443 0
M  V30 10413 C 975.647 0.941334 1.6986 0
M  V30 10414 O 974.922 -0.0310262 1.94475 0
M  V30 10415 C 975.205 3.39636 1.19664 0
M  V30 10416 C 975.058 4.49651 0.115805 0
M  V30 10417 C 976.377 3.86488 2.10512 0
M  V30 10418 H 973.496 0.703262 0.220436 0
M  V30 10419 H 976.138 1.89583 -0.125785 0
M  V30 10420 H 974.288 3.43015 1.82409 0
M  V30 10421 H 975.96 4.58397 -0.516728 0
M  V30 10422 H 974.203 4.30237 -0.55483 0
M  V30 10423 H 974.874 5.49089 0.566176 0
M  V30 10424 H 977.35 3.85052 1.57715 0
M  V30 10425 H 976.226 4.89444 2.48466 0
M  V30 10426 H 976.487 3.23856 3.00948 0
M  V30 10427 N 975.546 -0.211634 1.56173 0
M  V30 10428 C 976.792 -0.935935 1.79911 0
M  V30 10429 C 977.125 -1.83589 0.633155 0
M  V30 10430 O 976.4 -1.91004 -0.367132 0
M  V30 10431 C 976.683 -1.76638 3.13801 0
M  V30 10432 C 976.536 -0.892259 4.40861 0
M  V30 10433 C 977.855 -2.74224 3.44223 0
M  V30 10434 H 974.974 -0.338822 0.654499 0
M  V30 10435 H 977.616 -0.20422 1.88899 0
M  V30 10436 H 975.766 -2.39021 3.0627 0
M  V30 10437 H 977.438 -0.284407 4.60422 0
M  V30 10438 H 975.681 -0.198145 4.33347 0
M  V30 10439 H 976.352 -1.50793 5.31004 0
M  V30 10440 H 978.828 -2.21975 3.51946 0
M  V30 10441 H 977.704 -3.29424 4.39057 0
M  V30 10442 H 977.965 -3.52455 2.66885 0
M  V30 10443 N 977.024 -1.50153 -0.478725 0
M  V30 10444 C 978.301 -1.51274 -1.23999 0
M  V30 10445 C 978.681 -0.253048 -2.09578 0
M  V30 10446 O 978.029 0.763827 -2.15355 0
M  V30 10447 C 978.239 -2.80423 -2.07759 0
M  V30 10448 C 979.587 -3.30788 -2.66204 0
M  V30 10449 O 980.611 -2.81693 -2.18008 0
M  V30 10450 O 979.47 -4.1635 -3.53999 0
M  V30 10451 H 976.564 -0.606438 -0.562283 0
M  V30 10452 H 979.11 -1.62436 -0.491171 0
M  V30 10453 H 977.882 -3.63584 -1.44645 0
M  V30 10454 H 977.505 -2.72228 -2.89789 0
M  V30 10455 N 978.502 0.731368 -1.39602 0
M  V30 10456 C 979.75 1.48805 -1.36753 0
M  V30 10457 C 980.071 1.94969 0.034676 0
M  V30 10458 O 979.341 1.69243 0.986591 0
M  V30 10459 H 977.921 0.55203 -0.503261 0
M  V30 10460 H 980.583 0.868013 -1.74504 0
M  V30 10461 H 979.679 2.36844 -2.03252 0
M  V30 10462 N 979.98 1.24838 0.961938 0
M  V30 10463 C 981.257 0.99939 1.68141 0
M  V30 10464 C 981.637 -0.476588 2.0565 0
M  V30 10465 O 980.985 -1.45224 1.76415 0
M  V30 10466 C 981.195 1.92797 2.90913 0
M  V30 10467 C 982.543 2.20219 3.63027 0
M  V30 10468 O 983.567 1.90496 3.00981 0
M  V30 10469 O 982.426 2.70725 4.74731 0
M  V30 10470 H 979.52 0.37842 0.735342 0
M  V30 10471 H 982.066 1.35961 1.01551 0
M  V30 10472 H 980.838 2.92492 2.59931 0
M  V30 10473 H 980.461 1.57127 3.65235 0
M  V30 10474 N 981.458 -1.16348 1.06306 0
M  V30 10475 C 982.686 -1.90782 0.800614 0
M  V30 10476 C 983.101 -1.77439 -0.645033 0
M  V30 10477 O 982.458 -1.11912 -1.4416 0
M  V30 10478 C 982.509 -3.41484 1.18621 0
M  V30 10479 O 982.23 -3.54428 2.57512 0
M  V30 10480 C 983.731 -4.32968 0.951525 0
M  V30 10481 H 980.951 -0.604977 0.290247 0
M  V30 10482 H 983.495 -1.47476 1.41672 0
M  V30 10483 H 981.65 -3.82493 0.614633 0
M  V30 10484 H 982.064 -4.4788 2.72954 0
M  V30 10485 H 983.538 -5.37169 1.27095 0
M  V30 10486 H 984.015 -4.39055 -0.112734 0
M  V30 10487 H 984.621 -3.97687 1.50749 0
M  V30 10488 N 982.937 -0.845659 -1.3299 0
M  V30 10489 C 983.884 -0.281761 -2.29074 0
M  V30 10490 C 984.854 0.606237 -1.54641 0
M  V30 10491 O 986.039 0.543063 -1.82908 0
M  V30 10492 C 983.179 0.531451 -3.40983 0
M  V30 10493 C 982.292 -0.381328 -4.30314 0
M  V30 10494 C 981.427 0.443643 -5.29344 0
M  V30 10495 C 980.466 -0.467101 -6.10315 0
M  V30 10496 N 979.603 0.320148 -7.0137 0
M  V30 10497 H 984.443 -1.10641 -2.76699 0
M  V30 10498 H 981.98 -0.55706 -1.36144 0
M  V30 10499 H 983.938 1.01848 -4.04577 0
M  V30 10500 H 982.568 1.32101 -2.94532 0
M  V30 10501 H 981.62 -0.986701 -3.6738 0
M  V30 10502 H 982.932 -1.08067 -4.86953 0
M  V30 10503 H 982.086 0.994212 -5.98498 0
M  V30 10504 H 980.825 1.17639 -4.73299 0
M  V30 10505 H 979.83 -1.02963 -5.40073 0
M  V30 10506 H 981.055 -1.19832 -6.68444 0
M  V30 10507 H 979.001 1.03615 -6.47765 0
M  V30 10508 H 978.918 -0.320338 -7.55321 0
M  V30 10509 H 980.186 0.852735 -7.74822 0
M  V30 10510 N 984.415 1.45619 -0.602734 0
M  V30 10511 C 985.365 2.27568 0.140264 0
M  V30 10512 C 986.349 1.3704 0.84314 0
M  V30 10513 O 987.541 1.61067 0.733931 0
M  V30 10514 C 984.67 3.23812 1.14019 0
M  V30 10515 C 983.756 4.21828 0.438406 0
M  V30 10516 N 984.147 5.03148 -0.517245 0
M  V30 10517 C 982.445 4.40684 0.686588 0
M  V30 10518 C 983.146 5.74229 -0.929291 0
M  V30 10519 N 982.122 5.42909 -0.274086 0
M  V30 10520 H 985.924 2.87839 -0.5938 0
M  V30 10521 H 983.438 1.56712 -0.426033 0
M  V30 10522 H 985.435 3.8125 1.68684 0
M  V30 10523 H 984.095 2.65102 1.87486 0
M  V30 10524 H 985.106 5.1013 -0.893758 0
M  V30 10525 H 981.783 3.93102 1.4063 0
M  V30 10526 H 983.173 6.49586 -1.7172 0
M  V30 10527 N 985.893 0.34162 1.53853 0
M  V30 10528 C 987.133 -0.255853 2.02792 0
M  V30 10529 C 987.497 -1.47921 1.22407 0
M  V30 10530 O 988.698 -2.15073 1.61236 0
M  V30 10531 C 986.969 -0.564117 3.5292 0
M  V30 10532 S 988.528 -1.13868 4.23768 0
M  V30 10533 H 985.346 -0.0762867 0.706896 0
M  V30 10534 H 987.948 0.478934 1.89543 0
M  V30 10535 H 986.652 0.334098 4.09038 0
M  V30 10536 H 986.183 -1.32862 3.70285 0
M  V30 10537 H 988.198 -2.42451 4.32934 0
M  V30 10538 N 987.371 -1.57444 0.0701946 0
M  V30 10539 C 988.617 -1.93716 -0.600178 0
M  V30 10540 C 988.95 -0.950329 -1.69359 0
M  V30 10541 O 988.225 0.0207123 -1.94489 0
M  V30 10542 C 988.508 -3.40266 -1.17861 0
M  V30 10543 C 988.361 -4.49706 -0.0919575 0
M  V30 10544 C 989.68 -3.87599 -2.08459 0
M  V30 10545 H 986.799 -0.704421 -0.216704 0
M  V30 10546 H 989.441 -1.89514 0.135838 0
M  V30 10547 H 987.591 -3.43977 -1.80587 0
M  V30 10548 H 989.263 -4.58116 0.541031 0
M  V30 10549 H 987.506 -4.29937 0.577639 0
M  V30 10550 H 988.177 -5.49381 -0.537048 0
M  V30 10551 H 990.653 -3.85883 -1.5567 0
M  V30 10552 H 989.529 -4.90755 -2.45867 0
M  V30 10553 H 989.79 -3.25448 -2.99226 0
M  V30 10554 N 988.849 0.203349 -1.56283 0
M  V30 10555 C 990.098 0.92315 -1.79334 0
M  V30 10556 C 990.411 1.84765 -0.641977 0
M  V30 10557 O 991.617 2.60745 -0.756584 0
M  V30 10558 C 990.073 1.69184 -3.17655 0
M  V30 10559 C 989.681 0.812581 -4.40569 0
M  V30 10560 C 991.425 2.40177 -3.50022 0
M  V30 10561 C 989.332 1.57967 -5.69913 0
M  V30 10562 H 988.262 0.348442 -0.668659 0
M  V30 10563 H 990.913 0.1766 -1.82648 0
M  V30 10564 H 989.295 2.48197 -3.08568 0
M  V30 10565 H 990.469 0.0616956 -4.60759 0
M  V30 10566 H 988.784 0.21389 -4.1585 0
M  V30 10567 H 991.381 2.98103 -4.4389 0
M  V30 10568 H 991.724 3.13961 -2.73376 0
M  V30 10569 H 992.257 1.68138 -3.6052 0
M  V30 10570 H 988.996 0.884767 -6.49501 0
M  V30 10571 H 988.516 2.3047 -5.53754 0
M  V30 10572 H 990.195 2.13562 -6.10737 0
M  V30 10573 N 990.327 1.50405 0.470755 0
M  V30 10574 C 991.557 1.64928 1.24428 0
M  V30 10575 C 991.965 0.332139 1.86262 0
M  V30 10576 O 991.308 -0.695919 1.70008 0
M  V30 10577 C 991.37 2.6829 2.39293 0
M  V30 10578 C 991.034 4.11835 1.98093 0
M  V30 10579 C 992.031 4.97693 1.50326 0
M  V30 10580 C 989.716 4.57753 2.06803 0
M  V30 10581 C 991.71 6.27516 1.11813 0
M  V30 10582 C 989.397 5.87582 1.67902 0
M  V30 10583 C 990.395 6.72289 1.20485 0
M  V30 10584 O 990.083 7.99694 0.821219 0
M  V30 10585 H 989.815 0.557418 0.382442 0
M  V30 10586 H 992.369 1.97382 0.568292 0
M  V30 10587 H 990.599 2.31079 3.10063 0
M  V30 10588 H 992.288 2.7203 3.01255 0
M  V30 10589 H 993.054 4.63434 1.43018 0
M  V30 10590 H 988.933 3.91966 2.42659 0
M  V30 10591 H 992.477 6.93586 0.747317 0
M  V30 10592 H 988.374 6.21362 1.74869 0
M  V30 10593 H 989.142 8.12968 0.950038 0
M  V30 10594 N 991.805 -0.723954 1.39988 0
M  V30 10595 C 993.221 -1.03095 1.21834 0
M  V30 10596 C 993.421 -2.01309 0.0876647 0
M  V30 10597 O 992.477 -2.46277 -0.55714 0
M  V30 10598 C 993.79 -1.58267 2.5568 0
M  V30 10599 C 995.338 -1.70293 2.6262 0
M  V30 10600 C 995.813 -2.28872 3.96713 0
M  V30 10601 N 997.304 -2.36269 3.98411 0
M  V30 10602 C 998.039 -2.82557 4.98948 0
M  V30 10603 N 997.535 -3.28661 6.0988 0
M  V30 10604 N 999.328 -2.81866 4.86321 0
M  V30 10605 H 991.479 -0.0727891 2.12275 0
M  V30 10606 H 993.742 -0.0949029 0.943238 0
M  V30 10607 H 993.448 -0.935642 3.39026 0
M  V30 10608 H 993.322 -2.56914 2.76179 0
M  V30 10609 H 995.709 -2.34115 1.7965 0
M  V30 10610 H 995.79 -0.70268 2.45959 0
M  V30 10611 H 995.434 -1.65675 4.80119 0
M  V30 10612 H 995.364 -3.29595 4.107 0
M  V30 10613 H 997.855 -2.03697 3.18302 0
M  V30 10614 H 998.168 -3.62524 6.82493 0
M  V30 10615 H 996.513 -3.26641 6.13458 0
M  V30 10616 H 999.704 -2.45179 3.98754 0
M  V30 10617 H 999.877 -3.17626 5.64817 0
M  V30 10618 N 993.283 -1.25346 -0.955304 0
M  V30 10619 C 994.511 -1.12793 -1.73451 0
M  V30 10620 C 994.926 0.318344 -1.86097 0
M  V30 10621 O 994.283 1.21897 -1.35821 0
M  V30 10622 C 994.334 -1.77603 -3.14864 0
M  V30 10623 O 994.055 -3.16577 -3.02837 0
M  V30 10624 C 995.556 -1.70821 -4.09066 0
M  V30 10625 H 992.776 -0.393457 -0.543537 0
M  V30 10626 H 995.32 -1.65696 -1.19855 0
M  V30 10627 H 993.475 -1.28673 -3.65407 0
M  V30 10628 H 993.889 -3.48433 -3.92039 0
M  V30 10629 H 995.363 -2.2083 -5.05903 0
M  V30 10630 H 995.84 -0.671858 -4.34031 0
M  V30 10631 H 996.446 -2.19237 -3.64438 0
M  V30 10632 N 994.761 1.15782 -1.06922 0
M  V30 10633 C 995.724 2.18578 -0.689654 0
M  V30 10634 C 996.724 1.58553 0.267872 0
M  V30 10635 O 997.914 1.7413 0.0494097 0
M  V30 10636 C 995.046 3.40896 -0.0157919 0
M  V30 10637 H 996.239 2.53672 -1.59971 0
M  V30 10638 H 993.792 1.30168 -0.865214 0
M  V30 10639 H 994.527 3.11367 0.906712 0
M  V30 10640 H 994.312 3.85721 -0.704415 0
M  V30 10641 H 995.802 4.16937 0.235266 0
M  V30 10642 N 996.239 0.8527 1.3254 0
M  V30 10643 C 997.467 0.469044 2.01513 0
M  V30 10644 C 997.882 -0.933701 1.64096 0
M  V30 10645 O 997.239 -1.60898 0.861283 0
M  V30 10646 C 997.29 0.596228 3.56549 0
M  V30 10647 O 997.011 1.94371 3.92621 0
M  V30 10648 C 998.512 0.211324 4.42796 0
M  V30 10649 H 995.732 0.184589 0.645111 0
M  V30 10650 H 998.276 1.1491 1.69163 0
M  V30 10651 H 996.431 -0.0360712 3.87383 0
M  V30 10652 H 996.845 1.93909 4.87339 0
M  V30 10653 H 998.319 0.351324 5.50881 0
M  V30 10654 H 998.796 -0.848055 4.30935 0
M  V30 10655 H 999.402 0.818617 4.17347 0
M  V30 10656 N 997.718 -1.45297 0.610449 0
M  V30 10657 C 998.966 -2.01819 0.106548 0
M  V30 10658 C 999.287 -1.48102 -1.26849 0
M  V30 10659 O 998.557 -0.676411 -1.83852 0
M  V30 10660 H 997.137 -0.746113 0.0363982 0
M  V30 10661 H 999.799 -1.78061 0.792491 0
M  V30 10662 H 998.895 -3.12045 0.0585 0
M  V30 10663 N 999.196 -0.349774 -1.5367 0
M  V30 10664 C 1000.44 0.244827 -2.01015 0
M  V30 10665 C 1000.77 1.50057 -1.23746 0
M  V30 10666 O 1000.03 1.9315 -0.314872 0
M  V30 10667 C 1000.32 0.598311 -3.52356 0
M  V30 10668 C 999.991 -0.56127 -4.47393 0
M  V30 10669 C 998.653 -0.879481 -4.73095 0
M  V30 10670 C 1001 -1.3389 -5.03709 0
M  V30 10671 C 998.333 -1.97758 -5.52366 0
M  V30 10672 C 1000.68 -2.4273 -5.84179 0
M  V30 10673 C 999.349 -2.75103 -6.08173 0
M  V30 10674 H 998.619 0.0895884 -0.735564 0
M  V30 10675 H 1001.27 -0.478975 -1.85413 0
M  V30 10676 H 999.571 1.40291 -3.65822 0
M  V30 10677 H 1001.27 1.07036 -3.86451 0
M  V30 10678 H 997.858 -0.303201 -4.27526 0
M  V30 10679 H 1002.04 -1.10632 -4.83812 0
M  V30 10680 H 997.298 -2.23257 -5.6918 0
M  V30 10681 H 1001.47 -3.03412 -6.26828 0
M  V30 10682 H 999.099 -3.60317 -6.69385 0
M  V30 10683 N 1000.67 1.57404 -0.0785433 0
M  V30 10684 C 1001.92 1.93361 0.58786 0
M  V30 10685 C 1002.24 0.959856 1.6974 0
M  V30 10686 O 1001.51 0.0091173 1.95898 0
M  V30 10687 H 1000.09 0.713825 0.220141 0
M  V30 10688 H 1002.75 1.94411 -0.137986 0
M  V30 10689 H 1001.85 2.95346 1.00881 0
M  V30 10690 N 1002.15 -0.195058 1.56388 0
M  V30 10691 C 1003.4 -0.915444 1.80626 0
M  V30 10692 C 1003.73 -1.83255 0.651768 0
M  V30 10693 O 1002.98 -1.92314 -0.362464 0
M  V30 10694 C 1003.28 -1.7637 3.10851 0
M  V30 10695 C 1002.95 -0.997572 4.39726 0
M  V30 10696 C 1001.61 -0.786043 4.74737 0
M  V30 10697 C 1003.96 -0.45851 5.19179 0
M  V30 10698 C 1001.29 -0.023972 5.86695 0
M  V30 10699 C 1003.64 0.29035 6.31933 0
M  V30 10700 C 1002.3 0.512895 6.65527 0
M  V30 10701 H 1001.57 -0.334985 0.660959 0
M  V30 10702 H 1004.22 -0.181815 1.90635 0
M  V30 10703 H 1002.53 -2.566 2.9608 0
M  V30 10704 H 1004.22 -2.3237 3.26811 0
M  V30 10705 H 1000.81 -1.17245 4.12252 0
M  V30 10706 H 1005 -0.609334 4.92545 0
M  V30 10707 H 1000.25 0.158421 6.11195 0
M  V30 10708 H 1004.43 0.715429 6.92715 0
M  V30 10709 H 1002.05 1.10531 7.52122 0
M  V30 10710 N 1003.63 -1.50653 -0.462772 0
M  V30 10711 C 1004.59 -1.69561 -1.54213 0
M  V30 10712 C 1005.59 -0.566106 -1.50505 0
M  V30 10713 O 1006.78 -0.833273 -1.52978 0
M  V30 10714 C 1003.91 -1.72856 -2.93826 0
M  V30 10715 H 1005.11 -2.65867 -1.38761 0
M  V30 10716 H 1002.66 -1.40259 -0.689728 0
M  V30 10717 H 1003.4 -0.78273 -3.14712 0
M  V30 10718 H 1003.18 -2.54919 -2.97924 0
M  V30 10719 H 1004.67 -1.89411 -3.72174 0
M  V30 10720 N 1005.11 0.71652 -1.4037 0
M  V30 10721 C 1006.02 1.86074 -1.42876 0
M  V30 10722 C 1007.03 1.71005 -0.321475 0
M  V30 10723 O 1008.21 1.93286 -0.565909 0
M  V30 10724 C 1005.28 3.21862 -1.28863 0
M  V30 10725 C 1004.34 3.49193 -2.49726 0
M  V30 10726 C 1003.57 4.78502 -2.36372 0
M  V30 10727 O 1003.79 5.53529 -1.37703 0
M  V30 10728 O 1002.73 5.06147 -3.25728 0
M  V30 10729 H 1006.55 1.86916 -2.39366 0
M  V30 10730 H 1004.14 0.866818 -1.21683 0
M  V30 10731 H 1006.02 4.02972 -1.23253 0
M  V30 10732 H 1004.69 3.2175 -0.354783 0
M  V30 10733 H 1003.6 2.68095 -2.60913 0
M  V30 10734 H 1004.93 3.54101 -3.41868 0
M  V30 10735 N 1006.59 1.25851 0.948643 0
M  V30 10736 C 1008 1.09975 1.50872 0
M  V30 10737 C 1008.35 -0.322497 1.93531 0
M  V30 10738 O 1007.47 -1.21316 1.79197 0
M  V30 10739 C 1008.07 1.99021 2.74182 0
M  V30 10740 C 1006.63 1.87313 3.26483 0
M  V30 10741 C 1005.77 1.92815 1.99293 0
M  V30 10742 H 1008.73 1.3905 0.764908 0
M  V30 10743 H 1008.75 1.53372 3.4822 0
M  V30 10744 H 1008.26 3.02527 2.43103 0
M  V30 10745 H 1006.36 0.867136 3.62369 0
M  V30 10746 H 1006.47 2.72446 3.94094 0
M  V30 10747 H 1004.84 1.36774 2.1486 0
M  V30 10748 H 1005.62 2.97936 1.70554 0
M  V30 10749 N 1008.06 -1.15214 1.07534 0
M  V30 10750 C 1009.29 -1.89647 0.819614 0
M  V30 10751 C 1009.7 -1.78365 -0.631072 0
M  V30 10752 O 1009.05 -1.1346 -1.44474 0
M  V30 10753 C 1009.11 -3.40573 1.1511 0
M  V30 10754 C 1008.77 -3.7564 2.60276 0
M  V30 10755 C 1009.77 -3.76507 3.58523 0
M  V30 10756 C 1007.45 -4.05891 2.95901 0
M  V30 10757 C 1009.45 -4.07133 4.9043 0
M  V30 10758 C 1007.13 -4.36182 4.28005 0
M  V30 10759 C 1008.13 -4.36785 5.25079 0
M  V30 10760 O 1007.82 -4.66348 6.54809 0
M  V30 10761 H 1007.55 -0.607836 0.295822 0
M  V30 10762 H 1010.11 -1.46895 1.43565 0
M  V30 10763 H 1008.34 -3.83734 0.478033 0
M  V30 10764 H 1010.03 -3.96299 0.877615 0
M  V30 10765 H 1010.79 -3.53233 3.32342 0
M  V30 10766 H 1006.67 -4.0458 2.20989 0
M  V30 10767 H 1010.21 -4.07519 5.66193 0
M  V30 10768 H 1006.11 -4.58924 4.53937 0
M  V30 10769 H 1006.88 -4.84105 6.59988 0
M  V30 10770 N 1009.54 -0.859717 -1.32086 0
M  V30 10771 C 1010.49 -0.296897 -2.30697 0
M  V30 10772 C 1011.48 0.582473 -1.59071 0
M  V30 10773 O 1012.69 0.469713 -1.73763 0
M  V30 10774 H 1009.07 -0.0773132 -0.748015 0
M  V30 10775 H 1011.04 -1.14273 -2.75652 0
M  V30 10776 C 1009.79 0.495546 -3.44151 0
M  V30 10777 H 1009.11 -0.171829 -3.99431 0
M  V30 10778 H 1010.55 0.854854 -4.15293 0
M  V30 10779 C 1009.01 1.68278 -2.91863 0
M  V30 10780 O 1009.54 2.78194 -2.89777 0
M  V30 10781 N 1007.74 1.51151 -2.48197 0
M  V30 10782 H 1007.29 0.617345 -2.50093 0
M  V30 10783 H 1007.25 2.3073 -2.13567 0
M  V30 10784 N 1011.02 1.44971 -0.618145 0
M  V30 10785 C 1011.95 2.33357 0.0815955 0
M  V30 10786 C 1012.93 1.47451 0.848072 0
M  V30 10787 O 1014.12 1.762 0.816532 0
M  V30 10788 C 1011.25 3.30324 1.07253 0
M  V30 10789 C 1010.2 4.25948 0.418563 0
M  V30 10790 C 1009.53 5.12685 1.51849 0
M  V30 10791 C 1010.83 5.18024 -0.66697 0
M  V30 10792 H 1012.52 2.92115 -0.656442 0
M  V30 10793 H 1010.07 1.40465 -0.317129 0
M  V30 10794 H 1012.02 3.91033 1.57069 0
M  V30 10795 H 1010.74 2.69748 1.8413 0
M  V30 10796 H 1009.4 3.66553 -0.0588308 0
M  V30 10797 H 1009.05 4.4847 2.2778 0
M  V30 10798 H 1008.75 5.7747 1.08637 0
M  V30 10799 H 1010.27 5.76264 2.01871 0
M  V30 10800 H 1011.69 5.72744 -0.252448 0
M  V30 10801 H 1010.09 5.91343 -1.02146 0
M  V30 10802 H 1011.16 4.59817 -1.53936 0
M  V30 10803 N 1012.5 0.357919 1.53482 0
M  V30 10804 C 1013.73 -0.234799 2.05261 0
M  V30 10805 C 1014.14 -1.43618 1.23169 0
M  V30 10806 O 1013.48 -1.81801 0.263435 0
M  V30 10807 C 1013.54 -0.699748 3.52624 0
M  V30 10808 C 1013.21 0.383905 4.55385 0
M  V30 10809 C 1014.2 1.23129 5.05109 0
M  V30 10810 C 1011.89 0.541953 4.99368 0
M  V30 10811 C 1013.88 2.22214 5.97411 0
M  V30 10812 C 1011.57 1.53618 5.91477 0
M  V30 10813 C 1012.57 2.37471 6.40388 0
M  V30 10814 O 1012.25 3.35199 7.30682 0
M  V30 10815 H 1011.99 -0.0465364 0.674396 0
M  V30 10816 H 1014.54 0.512355 1.98907 0
M  V30 10817 H 1012.77 -1.49838 3.5649 0
M  V30 10818 H 1014.46 -1.21461 3.87301 0
M  V30 10819 H 1015.23 1.12035 4.71883 0
M  V30 10820 H 1011.1 -0.100929 4.6089 0
M  V30 10821 H 1014.65 2.87702 6.35511 0
M  V30 10822 H 1010.55 1.64763 6.24118 0
M  V30 10823 H 1011.31 3.30838 7.48658 0
M  V30 10824 N 1013.98 -1.5736 0.0868897 0
M  V30 10825 C 1015.22 -1.9367 -0.577598 0
M  V30 10826 C 1015.55 -0.968844 -1.69229 0
M  V30 10827 O 1014.82 -0.0195061 -1.9589 0
M  V30 10828 H 1013.4 -0.714983 -0.216353 0
M  V30 10829 H 1016.06 -1.94335 0.148294 0
M  V30 10830 H 1015.15 -2.95877 -0.993128 0
M  V30 10831 N 1015.45 0.186762 -1.56489 0
M  V30 10832 C 1016.68 0.925916 -1.85584 0
M  V30 10833 C 1017.1 1.75708 -0.671446 0
M  V30 10834 O 1016.46 1.7728 0.379687 0
M  V30 10835 C 1016.51 1.79107 -3.12975 0
M  V30 10836 O 1015.61 2.89088 -2.94112 0
M  V30 10837 H 1014.96 0.260275 -0.610863 0
M  V30 10838 H 1017.49 0.189561 -2.0372 0
M  V30 10839 H 1017.5 2.19408 -3.43983 0
M  V30 10840 H 1016.17 1.18044 -3.98796 0
M  V30 10841 H 1014.75 2.52482 -2.74422 0
M  V30 10842 N 1016.93 1.50896 0.454776 0
M  V30 10843 C 1017.86 1.73885 1.5584 0
M  V30 10844 C 1018.84 0.588172 1.59607 0
M  V30 10845 O 1020.03 0.829054 1.75614 0
M  V30 10846 C 1017.16 1.84796 2.94054 0
M  V30 10847 C 1016.11 3.00111 3.05152 0
M  V30 10848 C 1015.44 2.96183 4.45174 0
M  V30 10849 C 1016.74 4.40365 2.80849 0
M  V30 10850 H 1018.43 2.66292 1.36854 0
M  V30 10851 H 1015.98 1.28142 0.656936 0
M  V30 10852 H 1017.93 1.99462 3.71204 0
M  V30 10853 H 1016.66 0.890235 3.14233 0
M  V30 10854 H 1015.31 2.85121 2.30438 0
M  V30 10855 H 1014.96 1.98224 4.62295 0
M  V30 10856 H 1014.66 3.73608 4.53532 0
M  V30 10857 H 1016.19 3.1292 5.24322 0
M  V30 10858 H 1017.6 4.55795 3.47741 0
M  V30 10859 H 1016 5.19363 3.00636 0
M  V30 10860 H 1017.07 4.51606 1.76579 0
M  V30 10861 N 1018.41 -0.709066 1.40748 0
M  V30 10862 C 1019.36 -1.82312 1.4153 0
M  V30 10863 C 1020.33 -1.63868 0.271392 0
M  V30 10864 O 1021.51 -1.8491 0.470431 0
M  V30 10865 C 1018.65 -3.2008 1.29006 0
M  V30 10866 C 1017.77 -3.50051 2.53156 0
M  V30 10867 C 1016.9 -4.7736 2.33025 0
M  V30 10868 C 1015.94 -5.00255 3.52719 0
M  V30 10869 N 1015.08 -6.18782 3.31743 0
M  V30 10870 H 1019.92 -1.80978 2.36751 0
M  V30 10871 H 1017.45 -0.883975 1.17577 0
M  V30 10872 H 1019.41 -3.99645 1.19749 0
M  V30 10873 H 1018.04 -3.20626 0.374014 0
M  V30 10874 H 1017.09 -2.64993 2.72916 0
M  V30 10875 H 1018.41 -3.62877 3.42231 0
M  V30 10876 H 1017.56 -5.64954 2.21159 0
M  V30 10877 H 1016.3 -4.66756 1.41386 0
M  V30 10878 H 1015.3 -4.11114 3.65055 0
M  V30 10879 H 1016.53 -5.12728 4.45295 0
M  V30 10880 H 1014.47 -6.09416 2.42791 0
M  V30 10881 H 1014.39 -6.32313 4.14386 0
M  V30 10882 H 1015.66 -7.09146 3.23623 0
M  V30 10883 N 1019.89 -1.26353 -0.941956 0
M  V30 10884 C 1020.8 -1.09618 -2.07415 0
M  V30 10885 C 1021.82 -0.0298963 -1.73974 0
M  V30 10886 O 1022.99 -0.233466 -2.00042 0
M  V30 10887 C 1020.06 -0.73013 -3.38925 0
M  V30 10888 C 1019.12 -1.87574 -3.86153 0
M  V30 10889 C 1018.35 -1.52706 -5.11387 0
M  V30 10890 O 1018.57 -0.428438 -5.68789 0
M  V30 10891 O 1017.51 -2.36154 -5.53638 0
M  V30 10892 H 1021.33 -2.04598 -2.2444 0
M  V30 10893 H 1018.92 -1.05407 -1.05876 0
M  V30 10894 H 1020.8 -0.538684 -4.17943 0
M  V30 10895 H 1019.48 0.190282 -3.2314 0
M  V30 10896 H 1018.38 -2.12214 -3.08084 0
M  V30 10897 H 1019.72 -2.77585 -4.06457 0
M  V30 10898 N 1021.37 1.14642 -1.08144 0
M  V30 10899 C 1022.3 2.21775 -0.730609 0
M  V30 10900 C 1023.28 1.67683 0.285702 0
M  V30 10901 O 1024.46 1.93567 0.156667 0
M  V30 10902 C 1021.59 3.47033 -0.136242 0
M  V30 10903 C 1020.55 4.14134 -1.0806 0
M  V30 10904 C 1019.87 5.33563 -0.348585 0
M  V30 10905 C 1021.17 4.62978 -2.41761 0
M  V30 10906 H 1022.87 2.51378 -1.62633 0
M  V30 10907 H 1020.41 1.20825 -0.783411 0
M  V30 10908 H 1022.37 4.21226 0.121182 0
M  V30 10909 H 1021.09 3.16786 0.7946 0
M  V30 10910 H 1019.75 3.41892 -1.32308 0
M  V30 10911 H 1019.4 4.99575 0.585974 0
M  V30 10912 H 1019.1 5.79402 -0.978122 0
M  V30 10913 H 1020.62 6.10519 -0.0991508 0
M  V30 10914 H 1022.04 5.28659 -2.21795 0
M  V30 10915 H 1020.43 5.1951 -3.00383 0
M  V30 10916 H 1021.5 3.78189 -3.03482 0
M  V30 10917 N 1022.85 0.866709 1.31628 0
M  V30 10918 C 1024.09 0.476731 1.97117 0
M  V30 10919 C 1024.42 -0.967813 1.68366 0
M  V30 10920 O 1023.7 -1.68101 0.978377 0
M  V30 10921 C 1023.98 0.730561 3.52611 0
M  V30 10922 C 1023.84 2.2244 3.90948 0
M  V30 10923 C 1025.15 0.19488 4.39668 0
M  V30 10924 H 1022.27 0.174682 0.715999 0
M  V30 10925 H 1024.92 1.08735 1.5581 0
M  V30 10926 H 1023.07 0.210834 3.87927 0
M  V30 10927 H 1024.74 2.81113 3.6575 0
M  V30 10928 H 1022.98 2.69824 3.39673 0
M  V30 10929 H 1023.65 2.35266 4.99353 0
M  V30 10930 H 1026.13 0.639478 4.11157 0
M  V30 10931 H 1025 0.401958 5.47426 0
M  V30 10932 H 1025.26 -0.90302 4.32779 0
M  V30 10933 N 1024.32 -1.44642 0.625825 0
M  V30 10934 C 1025.25 -2.33397 -0.0692188 0
M  V30 10935 C 1026.23 -1.47898 -0.840241 0
M  V30 10936 O 1027.42 -1.7663 -0.807176 0
M  V30 10937 C 1024.55 -3.30888 -1.055 0
M  V30 10938 C 1023.5 -4.26164 -0.395968 0
M  V30 10939 C 1022.83 -5.13483 -1.49128 0
M  V30 10940 C 1024.13 -5.17663 0.694433 0
M  V30 10941 H 1025.82 -2.91763 0.671925 0
M  V30 10942 H 1023.37 -1.40294 0.324573 0
M  V30 10943 H 1025.32 -3.91861 -1.54993 0
M  V30 10944 H 1024.05 -2.7072 -1.82696 0
M  V30 10945 H 1022.71 -3.66516 0.0782691 0
M  V30 10946 H 1022.35 -4.49672 -2.25399 0
M  V30 10947 H 1022.05 -5.78038 -1.05573 0
M  V30 10948 H 1023.58 -5.77327 -1.98813 0
M  V30 10949 H 1024.99 -5.72602 0.282818 0
M  V30 10950 H 1023.39 -5.90793 1.05281 0
M  V30 10951 H 1024.46 -4.58994 1.56372 0
M  V30 10952 N 1025.8 -0.366053 -1.5329 0
M  V30 10953 C 1026.75 0.496656 -2.22525 0
M  V30 10954 C 1027.74 1.0483 -1.22063 0
M  V30 10955 O 1028.93 0.978266 -1.47509 0
M  V30 10956 C 1026.06 1.63559 -3.01833 0
M  V30 10957 C 1025.14 1.0968 -4.09672 0
M  V30 10958 N 1025.53 0.28104 -5.05019 0
M  V30 10959 C 1023.83 1.37157 -4.24387 0
M  V30 10960 C 1024.53 -0.0140071 -5.81698 0
M  V30 10961 N 1023.51 0.583743 -5.40457 0
M  V30 10962 H 1027.31 -0.133408 -2.93597 0
M  V30 10963 H 1024.82 -0.174095 -1.61464 0
M  V30 10964 H 1026.82 2.26582 -3.49952 0
M  V30 10965 H 1025.48 2.26871 -2.32292 0
M  V30 10966 H 1026.49 -0.0797947 -5.17839 0
M  V30 10967 H 1023.17 2.00743 -3.66072 0
M  V30 10968 H 1024.56 -0.673508 -6.68516 0
M  V30 10969 N 1027.28 1.57312 -0.0952337 0
M  V30 10970 C 1028.51 1.98409 0.575984 0
M  V30 10971 C 1028.92 0.973168 1.62253 0
M  V30 10972 O 1028.26 -0.0454416 1.83644 0
M  V30 10973 C 1028.32 3.35877 1.28167 0
M  V30 10974 C 1027.99 4.55368 0.385868 0
M  V30 10975 C 1028.98 5.1861 -0.366041 0
M  V30 10976 C 1026.67 5.0138 0.303885 0
M  V30 10977 C 1028.66 6.26233 -1.18791 0
M  V30 10978 C 1026.35 6.0887 -0.521637 0
M  V30 10979 C 1027.35 6.71161 -1.26618 0
M  V30 10980 O 1027.04 7.76577 -2.07804 0
M  V30 10981 H 1026.77 0.657018 0.159068 0
M  V30 10982 H 1029.32 2.04685 -0.171237 0
M  V30 10983 H 1027.55 3.26284 2.07547 0
M  V30 10984 H 1029.24 3.6142 1.84744 0
M  V30 10985 H 1030.01 4.83993 -0.312435 0
M  V30 10986 H 1025.89 4.52657 0.873065 0
M  V30 10987 H 1029.43 6.74784 -1.76955 0
M  V30 10988 H 1025.33 6.42918 -0.576722 0
M  V30 10989 H 1026.09 7.93566 -2.00489 0
M  V30 10990 N 1028.76 -0.17846 1.56586 0
M  V30 10991 C 1029.69 -1.24547 1.92408 0
M  V30 10992 C 1030.7 -1.40849 0.816421 0
M  V30 10993 O 1031.89 -1.40979 1.09486 0
M  V30 10994 C 1028.99 -2.61523 2.15544 0
M  V30 10995 C 1028.16 -2.66613 3.46751 0
M  V30 10996 C 1027.22 -3.84901 3.588 0
M  V30 10997 O 1026.25 -3.71231 4.31482 0
M  V30 10998 N 1027.45 -5.0106 2.9312 0
M  V30 10999 H 1030.22 -0.941275 2.84535 0
M  V30 11000 H 1027.78 -0.368275 1.57656 0
M  V30 11001 H 1029.77 -3.3911 2.20876 0
M  V30 11002 H 1028.34 -2.84362 1.29835 0
M  V30 11003 H 1027.56 -1.75174 3.5314 0
M  V30 11004 H 1028.85 -2.67018 4.33104 0
M  V30 11005 H 1028.25 -5.15067 2.33928 0
M  V30 11006 H 1026.8 -5.76535 3.04057 0
M  V30 11007 N 1030.24 -1.51135 -0.446768 0
M  V30 11008 C 1031.19 -1.68152 -1.53977 0
M  V30 11009 C 1032.17 -0.53563 -1.51723 0
M  V30 11010 O 1033.36 -0.791134 -1.58335 0
M  V30 11011 C 1030.49 -1.80133 -2.92245 0
M  V30 11012 C 1029.58 -3.00476 -2.99291 0
M  V30 11013 N 1029.97 -4.23796 -2.76099 0
M  V30 11014 C 1028.27 -2.99536 -3.30445 0
M  V30 11015 C 1028.97 -5.04977 -2.88744 0
M  V30 11016 N 1027.94 -4.39428 -3.20006 0
M  V30 11017 H 1031.74 -2.61172 -1.34784 0
M  V30 11018 H 1029.26 -1.48653 -0.653923 0
M  V30 11019 H 1031.26 -1.90432 -3.70866 0
M  V30 11020 H 1029.92 -0.882879 -3.12467 0
M  V30 11021 H 1030.93 -4.52896 -2.51209 0
M  V30 11022 H 1027.6 -2.17286 -3.56501 0
M  V30 11023 H 1028.99 -6.13114 -2.74847 0
M  V30 11024 N 1031.71 0.701592 -1.41122 0
M  V30 11025 C 1032.68 1.79733 -1.42227 0
M  V30 11026 C 1033.68 1.57708 -0.313831 0
M  V30 11027 O 1034.87 1.64492 -0.573423 0
M  V30 11028 C 1032 3.18024 -1.22775 0
M  V30 11029 H 1033.19 1.80148 -2.39764 0
M  V30 11030 H 1030.74 0.908624 -1.27176 0
M  V30 11031 H 1031.48 3.23252 -0.260552 0
M  V30 11032 H 1031.26 3.35411 -2.0308 0
M  V30 11033 H 1032.75 3.98021 -1.2637 0
M  V30 11034 N 1033.19 1.2685 0.935242 0
M  V30 11035 C 1034.42 1.15645 1.72165 0
M  V30 11036 C 1034.84 -0.283909 1.85945 0
M  V30 11037 O 1034.2 -1.20567 1.354 0
M  V30 11038 C 1034.25 1.83689 3.10307 0
M  V30 11039 O 1033.35 1.12972 3.96625 0
M  V30 11040 H 1032.69 0.402629 0.528002 0
M  V30 11041 H 1035.22 1.67781 1.17093 0
M  V30 11042 H 1035.23 1.90749 3.60664 0
M  V30 11043 H 1033.91 2.88472 2.99595 0
M  V30 11044 H 1032.48 1.13929 3.5507 0
M  V30 11045 N 1034.67 -1.14067 1.0875 0
M  V30 11046 C 1035.6 -2.21385 0.74236 0
M  V30 11047 C 1036.58 -1.67833 -0.276805 0
M  V30 11048 O 1037.77 -1.93647 -0.1464 0
M  V30 11049 C 1034.9 -3.46956 0.154644 0
M  V30 11050 C 1033.85 -4.13555 1.10255 0
M  V30 11051 C 1033.18 -5.3337 0.376877 0
M  V30 11052 C 1034.48 -4.6169 2.44213 0
M  V30 11053 H 1036.17 -2.50512 1.63964 0
M  V30 11054 H 1033.72 -1.20408 0.789807 0
M  V30 11055 H 1035.67 -4.21284 -0.0988419 0
M  V30 11056 H 1034.39 -3.17203 -0.777789 0
M  V30 11057 H 1033.05 -3.41186 1.34119 0
M  V30 11058 H 1032.7 -4.99879 -0.559472 0
M  V30 11059 H 1032.4 -5.78875 1.00884 0
M  V30 11060 H 1033.92 -6.10458 0.131527 0
M  V30 11061 H 1035.34 -5.27475 2.24595 0
M  V30 11062 H 1033.74 -5.17909 3.03134 0
M  V30 11063 H 1034.81 -3.76574 3.05483 0
M  V30 11064 N 1036.15 -0.873678 -1.31166 0
M  V30 11065 C 1037.39 -0.487178 -1.96861 0
M  V30 11066 C 1037.73 0.95887 -1.68877 0
M  V30 11067 O 1037 1.6758 -0.987279 0
M  V30 11068 C 1037.29 -0.74925 -3.52219 0
M  V30 11069 C 1037.14 -2.2451 -3.89763 0
M  V30 11070 C 1038.46 -0.218194 -4.39559 0
M  V30 11071 H 1035.58 -0.178477 -0.715063 0
M  V30 11072 H 1038.22 -1.0956 -1.55231 0
M  V30 11073 H 1036.37 -0.231403 -3.8781 0
M  V30 11074 H 1038.04 -2.83049 -3.64254 0
M  V30 11075 H 1036.28 -2.71621 -3.38237 0
M  V30 11076 H 1036.95 -2.37911 -4.98099 0
M  V30 11077 H 1039.43 -0.661274 -4.10812 0
M  V30 11078 H 1038.31 -0.430983 -5.47205 0
M  V30 11079 H 1038.57 0.880056 -4.33252 0
M  V30 11080 N 1037.63 1.44308 -0.633487 0
M  V30 11081 C 1038.56 2.28943 0.108474 0
M  V30 11082 C 1039.57 1.41415 0.806582 0
M  V30 11083 O 1040.76 1.65544 0.667634 0
M  V30 11084 C 1037.86 3.17845 1.1759 0
M  V30 11085 C 1037.03 4.33802 0.559842 0
M  V30 11086 C 1036.09 5.03722 1.52154 0
M  V30 11087 O 1035.12 5.5966 1.03776 0
M  V30 11088 N 1036.32 5.05392 2.85586 0
M  V30 11089 H 1039.09 2.93262 -0.617879 0
M  V30 11090 H 1036.65 1.54781 -0.474819 0
M  V30 11091 H 1038.64 3.61485 1.81963 0
M  V30 11092 H 1037.21 2.55261 1.80445 0
M  V30 11093 H 1036.43 3.93325 -0.262559 0
M  V30 11094 H 1037.72 5.08637 0.128942 0
M  V30 11095 H 1037.11 4.61282 3.27468 0
M  V30 11096 H 1035.67 5.52813 3.45313 0
M  V30 11097 N 1039.1 0.374177 1.53094 0
M  V30 11098 C 1040.05 -0.484848 2.22785 0
M  V30 11099 C 1041.04 -1.04181 1.22617 0
M  V30 11100 O 1042.23 -0.97043 1.48026 0
M  V30 11101 C 1039.36 -1.61956 3.02696 0
M  V30 11102 C 1038.45 -1.07506 4.10248 0
M  V30 11103 N 1038.84 -0.254253 5.05161 0
M  V30 11104 C 1037.13 -1.34904 4.25108 0
M  V30 11105 C 1037.84 0.0448558 5.81683 0
M  V30 11106 N 1036.81 -0.555073 5.40759 0
M  V30 11107 H 1040.61 0.148976 2.93522 0
M  V30 11108 H 1038.13 0.182656 1.6137 0
M  V30 11109 H 1040.12 -2.24723 3.51148 0
M  V30 11110 H 1038.78 -2.25636 2.33492 0
M  V30 11111 H 1039.8 0.107256 5.17789 0
M  V30 11112 H 1036.47 -1.98799 3.67131 0
M  V30 11113 H 1037.86 0.708952 6.68149 0
M  V30 11114 N 1040.58 -1.57259 0.103575 0
M  V30 11115 C 1041.53 -2.15727 -0.869739 0
M  V30 11116 C 1042.52 -1.10236 -1.28625 0
M  V30 11117 O 1043.73 -1.28567 -1.25979 0
M  V30 11118 H 1040.11 -0.690204 -0.298535 0
M  V30 11119 H 1042.08 -2.96317 -0.351984 0
M  V30 11120 C 1040.83 -2.75905 -2.11593 0
M  V30 11121 H 1040.15 -3.56768 -1.80434 0
M  V30 11122 H 1041.59 -3.20373 -2.77736 0
M  V30 11123 C 1040.05 -1.72218 -2.89556 0
M  V30 11124 O 1040.58 -1.16623 -3.84398 0
M  V30 11125 N 1038.78 -1.42514 -2.53255 0
M  V30 11126 H 1038.33 -1.87914 -1.76198 0
M  V30 11127 H 1038.29 -0.733782 -3.05717 0
M  V30 11128 N 1042.06 0.170153 -1.56679 0
M  V30 11129 C 1043.34 0.913938 -1.72935 0
M  V30 11130 C 1043.72 2.00342 -0.665293 0
M  V30 11131 O 1043.07 2.26252 0.319715 0
M  V30 11132 C 1043.28 1.47761 -3.16177 0
M  V30 11133 C 1044.62 1.95007 -3.7717 0
M  V30 11134 O 1045.65 1.57552 -3.19462 0
M  V30 11135 O 1044.51 2.64007 -4.78501 0
M  V30 11136 H 1041.6 0.43027 -0.706256 0
M  V30 11137 H 1044.15 0.157891 -1.68964 0
M  V30 11138 H 1042.92 0.69352 -3.85105 0
M  V30 11139 H 1042.54 2.2978 -3.24479 0
M  V30 11140 N 1043.54 1.5137 0.438746 0
M  V30 11141 C 1044.5 1.71993 1.51496 0
M  V30 11142 C 1045.5 0.589978 1.49586 0
M  V30 11143 O 1046.69 0.857505 1.51633 0
M  V30 11144 C 1043.82 1.77508 2.91039 0
M  V30 11145 H 1045.02 2.68041 1.34514 0
M  V30 11146 H 1042.57 1.41338 0.667326 0
M  V30 11147 H 1043.3 0.832698 3.13427 0
M  V30 11148 H 1043.09 2.59627 2.9383 0
M  V30 11149 H 1044.58 1.95308 3.69113 0
M  V30 11150 N 1045.02 -0.694098 1.41492 0
M  V30 11151 C 1045.95 -1.82042 1.46229 0
M  V30 11152 C 1046.93 -1.67047 0.320803 0
M  V30 11153 O 1048.11 -1.86758 0.53245 0
M  V30 11154 C 1045.24 -3.2019 1.34519 0
M  V30 11155 C 1044.2 -3.49892 2.46495 0
M  V30 11156 C 1043.52 -4.87411 2.1985 0
M  V30 11157 C 1044.82 -3.4872 3.88834 0
M  V30 11158 H 1046.52 -1.78335 2.40493 0
M  V30 11159 H 1044.06 -0.856566 1.15754 0
M  V30 11160 H 1046.02 -3.98699 1.36445 0
M  V30 11161 H 1044.74 -3.24527 0.367406 0
M  V30 11162 H 1043.4 -2.73734 2.43854 0
M  V30 11163 H 1043.05 -4.88375 1.20411 0
M  V30 11164 H 1042.75 -5.08248 2.94885 0
M  V30 11165 H 1044.27 -5.68228 2.23494 0
M  V30 11166 H 1045.68 -4.1723 3.93182 0
M  V30 11167 H 1044.08 -3.81089 4.63564 0
M  V30 11168 H 1045.15 -2.47665 4.16881 0
M  V30 11169 N 1046.49 -1.27344 -0.928501 0
M  V30 11170 C 1047.72 -1.16447 -1.7102 0
M  V30 11171 C 1048.14 0.278799 -1.8673 0
M  V30 11172 O 1047.49 1.18989 -1.38376 0
M  V30 11173 C 1047.55 -1.84242 -3.11026 0
M  V30 11174 O 1047.27 -3.2293 -2.96054 0
M  V30 11175 C 1048.77 -1.7946 -4.05351 0
M  V30 11176 H 1045.99 -0.404898 -0.535069 0
M  V30 11177 H 1048.53 -1.68201 -1.16313 0
M  V30 11178 H 1046.69 -1.36395 -3.62595 0
M  V30 11179 H 1047.1 -3.5667 -3.8456 0
M  V30 11180 H 1048.57 -2.31511 -5.01105 0
M  V30 11181 H 1049.05 -0.763771 -4.32508 0
M  V30 11182 H 1049.66 -2.26918 -3.59706 0
M  V30 11183 N 1047.97 1.13488 -1.09353 0
M  V30 11184 C 1049.22 1.85022 -0.830354 0
M  V30 11185 C 1049.55 1.83266 0.64242 0
M  V30 11186 O 1048.83 1.27024 1.47293 0
M  V30 11187 C 1049.11 3.33218 -1.36521 0
M  V30 11188 C 1048.96 3.43491 -2.90404 0
M  V30 11189 C 1050.28 4.28626 -0.998381 0
M  V30 11190 H 1047.4 0.671786 -0.303105 0
M  V30 11191 H 1050.04 1.33211 -1.3548 0
M  V30 11192 H 1048.19 3.77471 -0.919117 0
M  V30 11193 H 1049.86 3.07954 -3.43456 0
M  V30 11194 H 1048.11 2.84391 -3.27573 0
M  V30 11195 H 1048.78 4.47702 -3.22905 0
M  V30 11196 H 1051.25 3.9244 -1.38311 0
M  V30 11197 H 1050.13 5.30754 -1.39968 0
M  V30 11198 H 1050.39 4.42001 0.093517 0
M  V30 11199 N 1049.45 0.880621 1.30701 0
M  V30 11200 C 1050.68 0.511682 2.00473 0
M  V30 11201 C 1051.09 -0.898684 1.6604 0
M  V30 11202 O 1050.45 -1.59035 0.895218 0
M  V30 11203 C 1050.5 0.671723 3.55204 0
M  V30 11204 O 1050.22 2.02656 3.8841 0
M  V30 11205 C 1051.72 0.3052 4.42248 0
M  V30 11206 H 1048.94 0.198231 0.64105 0
M  V30 11207 H 1051.49 1.18472 1.66687 0
M  V30 11208 H 1049.64 0.0461066 3.87373 0
M  V30 11209 H 1050.06 2.04202 4.83117 0
M  V30 11210 H 1051.53 0.468095 5.50012 0
M  V30 11211 H 1052.01 -0.756456 4.32637 0
M  V30 11212 H 1052.61 0.906959 4.15517 0
M  V30 11213 N 1050.93 -1.4397 0.641131 0
M  V30 11214 C 1051.86 -2.33458 -0.04446 0
M  V30 11215 C 1052.84 -1.48781 -0.824507 0
M  V30 11216 O 1054.03 -1.77477 -0.788397 0
M  V30 11217 C 1051.16 -3.31989 -1.01984 0
M  V30 11218 C 1050.11 -4.2656 -0.350745 0
M  V30 11219 C 1049.44 -5.15036 -1.43673 0
M  V30 11220 C 1050.74 -5.16897 0.749299 0
M  V30 11221 H 1052.43 -2.91034 0.702832 0
M  V30 11222 H 1049.98 -1.39942 0.339435 0
M  V30 11223 H 1051.93 -3.93483 -1.50828 0
M  V30 11224 H 1050.65 -2.72643 -1.79815 0
M  V30 11225 H 1049.31 -3.66413 0.117139 0
M  V30 11226 H 1048.96 -4.52037 -2.20617 0
M  V30 11227 H 1048.66 -5.79125 -0.994358 0
M  V30 11228 H 1050.18 -5.79403 -1.92678 0
M  V30 11229 H 1051.6 -5.7227 0.343534 0
M  V30 11230 H 1049.99 -5.89643 1.11541 0
M  V30 11231 H 1051.06 -4.5731 1.61232 0
M  V30 11232 N 1052.41 -0.382291 -1.52893 0
M  V30 11233 C 1053.37 0.44408 -2.24857 0
M  V30 11234 C 1054.37 0.996004 -1.26239 0
M  V30 11235 O 1055.56 0.879114 -1.5039 0
M  V30 11236 C 1052.69 1.62234 -2.99822 0
M  V30 11237 H 1053.89 -0.185862 -2.99324 0
M  V30 11238 H 1051.44 -0.134275 -1.55722 0
M  V30 11239 H 1052.17 2.28991 -2.29638 0
M  V30 11240 H 1051.96 1.23336 -3.72197 0
M  V30 11241 H 1053.45 2.20756 -3.54481 0
M  V30 11242 N 1053.89 1.57202 -0.111913 0
M  V30 11243 C 1054.84 2.11487 0.851897 0
M  V30 11244 C 1055.82 1.03392 1.23284 0
M  V30 11245 O 1057.01 1.29638 1.20511 0
M  V30 11246 C 1054.14 2.71219 2.10464 0
M  V30 11247 C 1053.23 3.86384 1.74838 0
M  V30 11248 N 1053.62 4.93727 1.09852 0
M  V30 11249 C 1051.92 3.96435 2.04341 0
M  V30 11250 C 1052.62 5.74184 0.93209 0
M  V30 11251 N 1051.59 5.23771 1.45482 0
M  V30 11252 H 1055.39 2.91859 0.345791 0
M  V30 11253 H 1052.91 1.62146 0.0907816 0
M  V30 11254 H 1054.91 3.08449 2.80472 0
M  V30 11255 H 1053.57 1.92308 2.61625 0
M  V30 11256 H 1054.58 5.12244 0.763334 0
M  V30 11257 H 1051.25 3.28556 2.57599 0
M  V30 11258 H 1052.64 6.7057 0.422542 0
M  V30 11259 N 1055.36 -0.161842 1.56767 0
M  V30 11260 C 1056.77 -0.723385 1.72116 0
M  V30 11261 C 1057.13 -1.82355 0.723961 0
M  V30 11262 O 1056.25 -2.16107 -0.112643 0
M  V30 11263 C 1056.85 -1.31895 3.12072 0
M  V30 11264 C 1055.4 -1.82722 3.29074 0
M  V30 11265 C 1054.55 -0.709863 2.6806 0
M  V30 11266 H 1057.5 0.0636647 1.58572 0
M  V30 11267 H 1057.52 -2.18871 3.11249 0
M  V30 11268 H 1057.04 -0.51801 3.84627 0
M  V30 11269 H 1055.14 -2.6543 2.61491 0
M  V30 11270 H 1055.25 -1.96614 4.36898 0
M  V30 11271 H 1053.61 -1.13273 2.28126 0
M  V30 11272 H 1054.4 0.0793884 3.43208 0
M  V30 11273 N 1056.84 -1.516 -0.430713 0
M  V30 11274 C 1058.09 -1.6484 -1.18134 0
M  V30 11275 C 1058.42 -0.366725 -1.90706 0
M  V30 11276 O 1057.7 0.63398 -1.83878 0
M  V30 11277 C 1057.98 -2.85617 -2.19306 0
M  V30 11278 C 1057.83 -4.23778 -1.50773 0
M  V30 11279 C 1059.15 -3.01909 -3.20217 0
M  V30 11280 H 1056.27 -0.599907 -0.428113 0
M  V30 11281 H 1058.91 -1.84102 -0.46973 0
M  V30 11282 H 1057.06 -2.69325 -2.79993 0
M  V30 11283 H 1058.73 -4.51752 -0.93371 0
M  V30 11284 H 1056.98 -4.26171 -0.809966 0
M  V30 11285 H 1057.65 -5.04291 -2.24487 0
M  V30 11286 H 1060.12 -3.16956 -2.69589 0
M  V30 11287 H 1059 -3.87968 -3.88293 0
M  V30 11288 H 1059.26 -2.1427 -3.86705 0
M  V30 11289 N 1058.32 0.686584 -1.41858 0
M  V30 11290 C 1059.74 0.998283 -1.24525 0
M  V30 11291 C 1059.94 2.01006 -0.141007 0
M  V30 11292 O 1058.99 2.47667 0.491648 0
M  V30 11293 C 1060.3 1.51432 -2.59786 0
M  V30 11294 C 1061.85 1.6327 -2.67043 0
M  V30 11295 C 1062.33 2.18274 -4.02642 0
M  V30 11296 N 1063.82 2.25622 -4.04535 0
M  V30 11297 C 1064.55 2.69229 -5.06264 0
M  V30 11298 N 1064.05 3.12375 -6.1838 0
M  V30 11299 N 1065.84 2.68873 -4.93623 0
M  V30 11300 H 1057.99 0.0164825 -2.12394 0
M  V30 11301 H 1060.26 0.0698613 -0.945422 0
M  V30 11302 H 1059.96 0.845426 -3.41388 0
M  V30 11303 H 1059.84 2.49502 -2.82894 0
M  V30 11304 H 1062.22 2.29269 -1.85794 0
M  V30 11305 H 1062.3 0.637221 -2.47736 0
M  V30 11306 H 1061.95 1.52887 -4.84343 0
M  V30 11307 H 1061.88 3.18591 -4.19294 0
M  V30 11308 H 1064.37 1.95186 -3.23591 0
M  V30 11309 H 1064.68 3.44301 -6.91864 0
M  V30 11310 H 1063.03 3.10262 -6.21902 0
M  V30 11311 H 1066.22 2.34521 -4.05114 0
M  V30 11312 H 1066.39 3.02539 -5.7304 0
M  V30 11313 N 1059.8 1.27835 0.921735 0
M  V30 11314 C 1060.76 1.11108 2.00469 0
M  V30 11315 C 1061.76 0.053203 1.60712 0
M  V30 11316 O 1062.95 0.298308 1.71627 0
M  V30 11317 C 1060.08 0.694269 3.33755 0
M  V30 11318 H 1061.28 2.07279 2.16738 0
M  V30 11319 H 1058.83 1.10708 1.10333 0
M  V30 11320 H 1059.56 -0.268561 3.23186 0
M  V30 11321 H 1059.35 1.45836 3.6397 0
M  V30 11322 H 1060.84 0.59965 4.13272 0
M  V30 11323 N 1061.28 -1.12907 1.09954 0
M  V30 11324 C 1062.69 -1.65847 0.857417 0
M  V30 11325 C 1063.04 -1.86372 -0.613176 0
M  V30 11326 O 1062.16 -1.58654 -1.47166 0
M  V30 11327 C 1062.76 -3.01269 1.54991 0
M  V30 11328 C 1061.32 -3.51179 1.35462 0
M  V30 11329 C 1060.46 -2.26307 1.60251 0
M  V30 11330 H 1063.41 -0.96755 1.25794 0
M  V30 11331 H 1063.44 -3.675 0.986091 0
M  V30 11332 H 1062.95 -2.86299 2.6202 0
M  V30 11333 H 1061.05 -3.71343 0.305742 0
M  V30 11334 H 1061.16 -4.30955 2.09318 0
M  V30 11335 H 1059.53 -2.33167 1.02494 0
M  V30 11336 H 1060.31 -2.13896 2.68521 0
M  V30 11337 N 1062.75 -0.88754 -1.30232 0
M  V30 11338 C 1064 -0.506277 -1.95656 0
M  V30 11339 C 1064.32 0.948191 -1.70395 0
M  V30 11340 O 1063.59 1.66701 -1.02895 0
M  V30 11341 H 1062.17 -0.184235 -0.723924 0
M  V30 11342 H 1064.83 -1.13118 -1.58715 0
M  V30 11343 H 1063.93 -0.678673 -3.04632 0
M  V30 11344 N 1064.23 1.43628 -0.648757 0
M  V30 11345 C 1065.64 1.85142 -0.24066 0
M  V30 11346 C 1065.99 1.54304 1.21181 0
M  V30 11347 O 1065.12 0.989792 1.92437 0
M  V30 11348 C 1065.71 3.3606 -0.429999 0
M  V30 11349 C 1064.27 3.76323 -0.0762588 0
M  V30 11350 C 1063.42 2.67382 -0.734999 0
M  V30 11351 H 1066.37 1.33844 -0.852734 0
M  V30 11352 H 1066.39 3.79102 0.325836 0
M  V30 11353 H 1065.9 3.58474 -1.48721 0
M  V30 11354 H 1064.01 3.59521 0.978529 0
M  V30 11355 H 1064.12 4.76498 -0.498612 0
M  V30 11356 H 1062.48 2.54141 -0.168644 0
M  V30 11357 H 1063.27 2.92625 -1.79515 0
M  V30 11358 N 1065.71 0.390394 1.52688 0
M  V30 11359 C 1066.96 -0.191067 2.01195 0
M  V30 11360 C 1067.28 -1.47229 1.27862 0
M  V30 11361 O 1066.55 -1.91793 0.399007 0
M  V30 11362 H 1065.13 -0.073596 0.743366 0
M  V30 11363 H 1067.79 0.522334 1.8777 0
M  V30 11364 H 1066.89 -0.40051 3.0952 0
M  V30 11365 N 1067.19 -1.57141 0.120249 0
M  V30 11366 C 1068.6 -1.82256 -0.404931 0
M  V30 11367 C 1068.95 -1.03748 -1.66526 0
M  V30 11368 O 1068.08 -0.274456 -2.14653 0
M  V30 11369 C 1068.67 -3.30588 -0.741431 0
M  V30 11370 C 1067.23 -3.56379 -1.21124 0
M  V30 11371 C 1066.38 -2.76421 -0.220569 0
M  V30 11372 H 1069.33 -1.54897 0.345361 0
M  V30 11373 H 1069.35 -3.45284 -1.59872 0
M  V30 11374 H 1068.86 -3.87701 0.176036 0
M  V30 11375 H 1066.96 -3.04625 -2.14556 0
M  V30 11376 H 1067.07 -4.64952 -1.1557 0
M  V30 11377 H 1065.44 -2.44666 -0.707857 0
M  V30 11378 H 1066.22 -3.36294 0.690018 0
M  V30 11379 N 1068.67 0.153526 -1.5685 0
M  V30 11380 C 1070.08 0.714247 -1.72498 0
M  V30 11381 C 1070.43 1.81968 -0.733621 0
M  V30 11382 O 1069.55 2.16163 0.10118 0
M  V30 11383 C 1070.15 1.30238 -3.12767 0
M  V30 11384 C 1068.71 1.80974 -3.30038 0
M  V30 11385 C 1067.85 0.695638 -2.68433 0
M  V30 11386 H 1070.81 -0.0720733 -1.58536 0
M  V30 11387 H 1070.83 2.17217 -3.12405 0
M  V30 11388 H 1070.34 0.497605 -3.84897 0
M  V30 11389 H 1068.44 2.64039 -2.62895 0
M  V30 11390 H 1068.55 1.94294 -4.37934 0
M  V30 11391 H 1066.92 1.12061 -2.28723 0
M  V30 11392 H 1067.7 -0.0975885 -3.43161 0
M  V30 11393 N 1070.14 1.51827 0.422667 0
M  V30 11394 C 1071.56 1.57533 1.00201 0
M  V30 11395 C 1071.91 0.407623 1.91919 0
M  V30 11396 O 1071.03 -0.473763 2.1115 0
M  V30 11397 C 1071.63 2.85508 1.82403 0
M  V30 11398 C 1070.19 2.93737 2.35362 0
M  V30 11399 C 1069.33 2.52343 1.14971 0
M  V30 11400 H 1072.28 1.57391 0.20339 0
M  V30 11401 H 1072.3 2.70097 2.68007 0
M  V30 11402 H 1071.82 3.70477 1.15623 0
M  V30 11403 H 1069.92 2.13231 3.05554 0
M  V30 11404 H 1070.03 3.977 2.67155 0
M  V30 11405 H 1068.39 2.05878 1.49955 0
M  V30 11406 H 1069.18 3.39672 0.497786 0
M  V30 11407 N 1071.62 -0.679052 1.4222 0
M  V30 11408 C 1072.59 -1.77448 1.45069 0
M  V30 11409 C 1073.59 -1.57189 0.338882 0
M  V30 11410 O 1074.78 -1.63559 0.599519 0
M  V30 11411 C 1071.91 -3.1603 1.27819 0
M  V30 11412 H 1073.1 -1.7631 2.426 0
M  V30 11413 H 1070.65 -0.888277 1.28605 0
M  V30 11414 H 1071.39 -3.22796 0.311946 0
M  V30 11415 H 1071.17 -3.32138 2.08391 0
M  V30 11416 H 1072.66 -3.9596 1.32686 0
M  V30 11417 N 1073.1 -1.28322 -0.914942 0
M  V30 11418 C 1074.06 -1.12169 -1.99877 0
M  V30 11419 C 1075.06 -0.0617252 -1.60681 0
M  V30 11420 O 1076.25 -0.307405 -1.71466 0
M  V30 11421 C 1073.39 -0.711959 -3.33383 0
M  V30 11422 H 1074.58 -2.08425 -2.15636 0
M  V30 11423 H 1072.13 -1.11291 -1.09745 0
M  V30 11424 H 1072.87 0.251418 -3.23324 0
M  V30 11425 H 1072.65 -1.47764 -3.63192 0
M  V30 11426 H 1074.14 -0.621558 -4.12948 0
M  V30 11427 N 1074.58 1.12322 -1.10551 0
M  V30 11428 C 1075.99 1.35858 -0.837543 0
M  V30 11429 C 1076.19 1.94062 0.54241 0
M  V30 11430 O 1075.25 2.1676 1.29505 0
M  V30 11431 C 1076.56 2.299 -1.9382 0
M  V30 11432 C 1078.11 2.43488 -1.96679 0
M  V30 11433 C 1078.59 3.40846 -3.05922 0
M  V30 11434 N 1080.08 3.48404 -3.05236 0
M  V30 11435 C 1080.81 4.2365 -3.86405 0
M  V30 11436 N 1080.31 5.01951 -4.77512 0
M  V30 11437 N 1082.1 4.19068 -3.74618 0
M  V30 11438 H 1074.25 0.729002 -1.99498 0
M  V30 11439 H 1076.52 0.38339 -0.867016 0
M  V30 11440 H 1076.22 1.94309 -2.9315 0
M  V30 11441 H 1076.1 3.30033 -1.82641 0
M  V30 11442 H 1078.48 2.78359 -0.979813 0
M  V30 11443 H 1078.56 1.43239 -2.11934 0
M  V30 11444 H 1078.21 3.06704 -4.04839 0
M  V30 11445 H 1078.14 4.40927 -2.87907 0
M  V30 11446 H 1080.63 2.92545 -2.39219 0
M  V30 11447 H 1080.94 5.56707 -5.36002 0
M  V30 11448 H 1079.29 5.01143 -4.8154 0
M  V30 11449 H 1082.48 3.5698 -3.02792 0
M  V30 11450 H 1082.65 4.77455 -4.38111 0
M  V30 11451 O 1076.1 1.02707 1.24633 0
M  V30 11452 H 1076.79 0.69186 1.80923 0
M  V30 END ATOM
M  V30 BEGIN BOND
M  V30 END BOND
M  V30 END CTAB
M  END
$$$$
