drugbank_target|P60568 Interleukin-2 (DB00852; DB01327; DB02555; DB02581; DB03372; DB03453; DB03455; DB03957; DB04278; DB05299; DB05304; DB06083; DB06584)
 OpenBabel12092119453D

  0  0  0     0  0            999 V3000
M  V30 BEGIN CTAB
M  V30 COUNTS 2519 2538 0 0 0
M  V30 BEGIN ATOM
M  V30 1 H -0.908 1.98254 -0.117106 0
M  V30 2 N 0 1.576 0 0
M  V30 3 C 0.933 2.03868 1.02534 0
M  V30 4 C 1.911 0.928543 1.3348 0
M  V30 5 O 3.095 1.19667 1.45644 0
M  V30 6 C 0.222 2.43627 2.35294 0
M  V30 7 C -0.732 3.65373 2.2001 0
M  V30 8 S 0.101 5.13292 1.52614 0
M  V30 9 C 1.257 5.56322 2.86805 0
M  V30 10 H 1.49 2.90518 0.631377 0
M  V30 11 H -0.977 1.52953 0.210867 0
M  V30 12 H 0.981 2.67203 3.11629 0
M  V30 13 H -0.358 1.57376 2.7183 0
M  V30 14 H -1.165 3.90944 3.18086 0
M  V30 15 H -1.563 3.418 1.51819 0
M  V30 16 H 0.729 5.58782 3.83104 0
M  V30 17 H 1.672 6.56266 2.65933 0
M  V30 18 H 2.08 4.83886 2.90714 0
M  V30 19 N 1.4781 -0.272755 1.55222 0
M  V30 20 C 2.7081 -1.02107 1.79604 0
M  V30 21 C 3.1161 -1.80419 0.569693 0
M  V30 22 O 2.4591 -1.77566 -0.470743 0
M  V30 23 C 2.5211 -2.02675 2.96922 0
M  V30 24 C 2.1851 -1.43299 4.33952 0
M  V30 25 C 3.1821 -0.84853 5.12929 0
M  V30 26 C 0.8671 -1.46012 4.8061 0
M  V30 27 C 2.8611 -0.299109 6.36698 0
M  V30 28 C 0.5481 -0.906833 6.04334 0
M  V30 29 C 1.5461 -0.32733 6.82215 0
M  V30 30 O 1.2341 0.217479 8.03606 0
M  V30 31 H 0.9661 -0.307322 0.602104 0
M  V30 32 H 3.5201 -0.308862 2.03065 0
M  V30 33 H 1.7501 -2.77656 2.69155 0
M  V30 34 H 3.4391 -2.63637 3.08626 0
M  V30 35 H 4.2051 -0.820265 4.78013 0
M  V30 36 H 0.0841 -1.90056 4.2 0
M  V30 37 H 3.6281 0.153852 6.9743 0
M  V30 38 H -0.4749 -0.932339 6.38731 0
M  V30 39 H 0.2931 0.106863 8.1843 0
M  V30 40 N 2.9562 -1.48159 -0.537278 0
M  V30 41 C 4.3722 -1.34118 -0.865129 0
M  V30 42 C 4.5722 -0.346678 -1.98495 0
M  V30 43 O 3.6282 0.234715 -2.51407 0
M  V30 44 C 4.9412 -2.73963 -1.23954 0
M  V30 45 C 6.4892 -2.82397 -1.34984 0
M  V30 46 C 6.9642 -4.22928 -1.75772 0
M  V30 47 N 8.4552 -4.25566 -1.82887 0
M  V30 48 C 9.1902 -5.31235 -2.15817 0
M  V30 49 N 8.6862 -6.47189 -2.47222 0
M  V30 50 N 10.4792 -5.18624 -2.16761 0
M  V30 51 H 2.6302 -2.1144 0.201715 0
M  V30 52 H 4.8932 -0.947598 0.0275949 0
M  V30 53 H 4.5992 -3.48264 -0.490381 0
M  V30 54 H 4.4732 -3.0702 -2.19132 0
M  V30 55 H 6.8602 -2.08356 -2.08978 0
M  V30 56 H 6.9412 -2.5297 -0.379448 0
M  V30 57 H 6.5852 -4.97482 -1.02341 0
M  V30 58 H 6.5152 -4.49794 -2.73848 0
M  V30 59 H 9.0062 -3.41924 -1.60924 0
M  V30 60 H 9.3192 -7.23564 -2.71433 0
M  V30 61 H 7.6642 -6.50476 -2.44757 0
M  V30 62 H 10.8552 -4.27056 -1.91679 0
M  V30 63 H 11.0282 -6.01078 -2.42093 0
M  V30 64 N 4.4343 0.785586 -1.36625 0
M  V30 65 C 5.3673 1.90509 -1.25625 0
M  V30 66 C 6.3453 1.62 -0.139607 0
M  V30 67 O 7.5293 1.8591 -0.31141 0
M  V30 68 C 4.6563 3.25419 -0.939158 0
M  V30 69 C 3.7023 3.72856 -2.07077 0
M  V30 70 S 4.5353 3.88162 -3.68904 0
M  V30 71 C 5.6913 5.25942 -3.39317 0
M  V30 72 H 5.9243 1.99549 -2.20381 0
M  V30 73 H 3.4573 0.945226 -1.22085 0
M  V30 74 H 5.4153 4.03346 -0.763029 0
M  V30 75 H 4.0763 3.14099 -0.00931402 0
M  V30 76 H 3.2693 4.70624 -1.80357 0
M  V30 77 H 2.8713 3.01989 -2.20632 0
M  V30 78 H 5.1633 6.10651 -2.93447 0
M  V30 79 H 6.1063 5.57668 -4.36363 0
M  V30 80 H 6.5143 4.93224 -2.74573 0
M  V30 81 N 5.9124 1.20967 1.01018 0
M  V30 82 C 6.8444 0.922059 2.09835 0
M  V30 83 C 7.8574 -0.0927106 1.62536 0
M  V30 84 O 9.0464 0.139127 1.77957 0
M  V30 85 C 6.1464 0.362004 3.36961 0
M  V30 86 C 5.3194 1.42986 4.13369 0
M  V30 87 C 4.3784 0.879976 5.1879 0
M  V30 88 O 3.4044 1.56219 5.47343 0
M  V30 89 N 4.6064 -0.307396 5.79686 0
M  V30 90 H 7.3714 1.8588 2.35093 0
M  V30 91 H 4.9324 1.11422 1.1746 0
M  V30 92 H 6.9244 -0.0201474 4.04695 0
M  V30 93 H 5.4944 -0.479437 3.08902 0
M  V30 94 H 4.7144 1.98608 3.40512 0
M  V30 95 H 6.0024 2.14885 4.61196 0
M  V30 96 H 5.4004 -0.878796 5.58832 0
M  V30 97 H 3.9574 -0.631115 6.48737 0
M  V30 98 N 7.3905 -1.2043 1.01659 0
M  V30 99 C 8.3205 -2.25466 0.607226 0
M  V30 100 C 9.3015 -1.65853 -0.377716 0
M  V30 101 O 10.4865 -1.92409 -0.263149 0
M  V30 102 C 7.6165 -3.47256 -0.0552949 0
M  V30 103 C 6.5705 -4.19462 0.850632 0
M  V30 104 C 5.8965 -5.34673 0.0538859 0
M  V30 105 C 7.1965 -4.75603 2.15868 0
M  V30 106 H 8.8905 -2.59962 1.48526 0
M  V30 107 H 6.4365 -1.2496 0.715605 0
M  V30 108 H 8.3895 -4.19917 -0.353233 0
M  V30 109 H 7.1135 -3.11924 -0.968045 0
M  V30 110 H 5.7725 -3.48667 1.13257 0
M  V30 111 H 5.4205 -4.95585 -0.860514 0
M  V30 112 H 5.1205 -5.83913 0.657192 0
M  V30 113 H 6.6445 -6.10138 -0.237598 0
M  V30 114 H 8.0585 -5.40083 1.92311 0
M  V30 115 H 6.4555 -5.3528 2.71284 0
M  V30 116 H 7.5255 -3.94346 2.82169 0
M  V30 117 N 8.8686 -0.792821 -1.36206 0
M  V30 118 C 9.7986 -0.207853 -2.32573 0
M  V30 119 C 10.7796 0.659055 -1.56813 0
M  V30 120 O 11.9646 0.592176 -1.84951 0
M  V30 121 C 9.0946 0.655449 -3.41059 0
M  V30 122 C 8.0486 -0.111842 -4.27854 0
M  V30 123 C 7.3746 0.872274 -5.27537 0
M  V30 124 C 8.6746 -1.30299 -5.05786 0
M  V30 125 H 10.3686 -1.01294 -2.81744 0
M  V30 126 H 7.9146 -0.48854 -1.3546 0
M  V30 127 H 9.8676 1.07464 -4.07467 0
M  V30 128 H 8.5916 1.49328 -2.90463 0
M  V30 129 H 7.2506 -0.512053 -3.63006 0
M  V30 130 H 6.8986 1.70523 -4.73214 0
M  V30 131 H 6.5986 0.363291 -5.86476 0
M  V30 132 H 8.1226 1.28996 -5.96818 0
M  V30 133 H 9.5366 -0.959379 -5.65216 0
M  V30 134 H 7.9336 -1.7455 -5.74154 0
M  V30 135 H 9.0036 -2.09663 -4.37229 0
M  V30 136 N 10.3467 1.47872 -0.545128 0
M  V30 137 C 11.5717 2.07391 -0.0190611 0
M  V30 138 C 11.9967 1.39688 1.25971 0
M  V30 139 O 11.3547 0.467816 1.7516 0
M  V30 140 C 11.4027 3.60188 0.172335 0
M  V30 141 O 10.5067 3.9339 1.23766 0
M  V30 142 H 9.8477 0.662411 -0.0459059 0
M  V30 143 H 12.3777 1.90066 -0.757365 0
M  V30 144 H 12.3877 4.06129 0.390305 0
M  V30 145 H 11.0627 4.08865 -0.761725 0
M  V30 146 H 9.6397 3.5921 1.00114 0
M  V30 147 N 11.8248 0.280983 1.55075 0
M  V30 148 C 13.0648 -0.335234 2.01632 0
M  V30 149 C 13.4288 -1.5261 1.16508 0
M  V30 150 O 14.6298 -2.21235 1.52672 0
M  V30 151 C 12.9008 -0.702172 3.50434 0
M  V30 152 S 14.4598 -1.30409 4.18974 0
M  V30 153 H 11.2778 -0.103967 0.703358 0
M  V30 154 H 13.8798 0.404187 1.91276 0
M  V30 155 H 12.5838 0.17333 4.10034 0
M  V30 156 H 12.1148 -1.4729 3.64786 0
M  V30 157 H 14.1298 -2.59253 4.23087 0
M  V30 158 N 13.3029 -1.57598 0.00835791 0
M  V30 159 C 14.5519 -1.90107 -0.673968 0
M  V30 160 C 14.8649 -0.884275 -1.7447 0
M  V30 161 O 16.0709 -1.09987 -2.48224 0
M  V30 162 C 14.5269 -3.37497 -1.24995 0
M  V30 163 C 14.1349 -4.47491 -0.2136 0
M  V30 164 C 15.8789 -3.79104 -1.90999 0
M  V30 165 C 13.7859 -5.85963 -0.80005 0
M  V30 166 H 12.7159 -0.709393 -0.255495 0
M  V30 167 H 15.3669 -1.83365 0.0702693 0
M  V30 168 H 13.7489 -3.39102 -2.04513 0
M  V30 169 H 14.9229 -4.57414 0.557596 0
M  V30 170 H 13.2379 -4.14956 0.346474 0
M  V30 171 H 15.8349 -4.79901 -2.35795 0
M  V30 172 H 16.1779 -3.1306 -2.74407 0
M  V30 173 H 16.7109 -3.79833 -1.18203 0
M  V30 174 H 13.4499 -6.555 -0.00456708 0
M  V30 175 H 12.9699 -5.79687 -1.54021 0
M  V30 176 H 14.6489 -6.33884 -1.29615 0
M  V30 177 N 14.781 0.264519 -1.55364 0
M  V30 178 C 15.744 1.31046 -1.88042 0
M  V30 179 C 16.744 1.41943 -0.755569 0
M  V30 180 O 17.934 1.40947 -1.02369 0
M  V30 181 C 15.066 2.69067 -2.09323 0
M  V30 182 H 16.259 1.03297 -2.81549 0
M  V30 183 H 13.812 0.502989 -1.47986 0
M  V30 184 H 14.547 3.01982 -1.18226 0
M  V30 185 H 14.332 2.62542 -2.91229 0
M  V30 186 H 15.822 3.44623 -2.35848 0
M  V30 187 N 16.2591 1.48442 0.529413 0
M  V30 188 C 17.1891 1.65902 1.64313 0
M  V30 189 C 18.1701 0.507897 1.6234 0
M  V30 190 O 19.3551 0.740503 1.79528 0
M  V30 191 C 16.4851 1.69911 3.02898 0
M  V30 192 C 15.4391 2.8453 3.19729 0
M  V30 193 C 14.7651 2.73629 4.59381 0
M  V30 194 C 16.0651 4.25821 3.02447 0
M  V30 195 H 17.7591 2.5914 1.49955 0
M  V30 196 H 15.3051 1.24709 0.719982 0
M  V30 197 H 17.2581 1.80715 3.80684 0
M  V30 198 H 15.9821 0.732524 3.18279 0
M  V30 199 H 14.6411 2.73283 2.44361 0
M  V30 200 H 14.2891 1.74938 4.71599 0
M  V30 201 H 13.9891 3.50541 4.71588 0
M  V30 202 H 15.5131 2.86401 5.39265 0
M  V30 203 H 16.9271 4.37898 3.70024 0
M  V30 204 H 15.3241 5.03735 3.26146 0
M  V30 205 H 16.3941 4.42244 1.98867 0
M  V30 206 N 17.7372 -0.778329 1.37039 0
M  V30 207 C 18.9622 -1.57248 1.35233 0
M  V30 208 C 19.3872 -1.87999 -0.0615568 0
M  V30 209 O 18.7452 -1.48734 -1.03672 0
M  V30 210 C 18.7932 -2.86353 2.19167 0
M  V30 211 O 17.8972 -3.80442 1.59178 0
M  V30 212 H 17.2382 -0.476569 0.462362 0
M  V30 213 H 19.7682 -0.963853 1.80474 0
M  V30 214 H 19.7782 -3.35519 2.32145 0
M  V30 215 H 18.4532 -2.63299 3.21942 0
M  V30 216 H 17.0302 -3.39067 1.55203 0
M  V30 217 N 19.2153 -1.21501 -1.00376 0
M  V30 218 C 20.1453 -0.999478 -2.11028 0
M  V30 219 C 21.1263 0.0759671 -1.6993 0
M  V30 220 O 22.3113 -0.0841106 -1.94018 0
M  V30 221 C 19.4413 -0.564709 -3.42678 0
M  V30 222 C 18.3953 -1.58486 -3.97576 0
M  V30 223 C 17.7213 -1.00628 -5.25146 0
M  V30 224 C 19.0213 -2.97204 -4.29496 0
M  V30 225 H 20.7153 -1.92495 -2.29317 0
M  V30 226 H 18.2613 -0.92693 -1.102 0
M  V30 227 H 20.2143 -0.401091 -4.19487 0
M  V30 228 H 18.9383 0.396411 -3.24185 0
M  V30 229 H 17.5973 -1.73606 -3.22888 0
M  V30 230 H 17.2453 -0.0368439 -5.02987 0
M  V30 231 H 16.9453 -1.68771 -5.62841 0
M  V30 232 H 18.4693 -0.854015 -6.04598 0
M  V30 233 H 19.8833 -2.8552 -4.97143 0
M  V30 234 H 18.2803 -3.62372 -4.78338 0
M  V30 235 H 19.3503 -3.47956 -3.3772 0
M  V30 236 N 20.6934 1.19889 -1.02296 0
M  V30 237 C 21.6564 2.21116 -0.603351 0
M  V30 238 C 22.6564 1.5738 0.329884 0
M  V30 239 O 23.8464 1.73802 0.117702 0
M  V30 240 C 20.9784 3.40696 0.117992 0
M  V30 241 H 22.1714 2.59754 -1.49893 0
M  V30 242 H 19.7244 1.33463 -0.813468 0
M  V30 243 H 20.4594 3.07569 1.0282 0
M  V30 244 H 20.2444 3.88188 -0.552511 0
M  V30 245 H 21.7344 4.15692 0.398696 0
M  V30 246 N 22.1715 0.800033 1.35784 0
M  V30 247 C 23.1015 0.220184 2.3246 0
M  V30 248 C 24.0825 -0.65073 1.57161 0
M  V30 249 O 25.2675 -0.582359 1.85263 0
M  V30 250 C 22.3975 -0.637353 3.41402 0
M  V30 251 C 21.3515 0.134531 4.27789 0
M  V30 252 C 20.6775 -0.844285 5.27992 0
M  V30 253 C 21.9775 1.32979 5.05088 0
M  V30 254 H 23.6715 1.02787 2.81203 0
M  V30 255 H 21.2175 0.495717 1.35199 0
M  V30 256 H 23.1705 -1.05302 4.08031 0
M  V30 257 H 21.8945 -1.47785 2.91251 0
M  V30 258 H 20.5535 0.531296 3.6273 0
M  V30 259 H 20.2015 -1.68011 4.74111 0
M  V30 260 H 19.9015 -0.332184 5.8666 0
M  V30 261 H 21.4255 -1.2583 5.97494 0
M  V30 262 H 22.8395 0.98934 5.64699 0
M  V30 263 H 21.2365 1.77593 5.7322 0
M  V30 264 H 22.3065 2.11978 4.36111 0
M  V30 265 N 23.6496 -1.47581 0.552962 0
M  V30 266 C 24.8956 -2.02782 0.0273648 0
M  V30 267 C 25.2286 -1.42687 -1.31734 0
M  V30 268 O 24.5036 -0.580897 -1.85623 0
M  V30 269 C 24.7866 -3.60031 -0.0702371 0
M  V30 270 C 24.6396 -4.30566 1.30126 0
M  V30 271 C 25.9586 -4.33028 -0.785771 0
M  V30 272 H 23.0776 -0.736912 0.0114185 0
M  V30 273 H 25.7196 -1.76056 0.714432 0
M  V30 274 H 23.8696 -3.82932 -0.655382 0
M  V30 275 H 25.5416 -4.19018 1.92929 0
M  V30 276 H 23.7846 -3.91086 1.87709 0
M  V30 277 H 24.4556 -5.39114 1.18573 0
M  V30 278 H 26.9316 -4.15095 -0.288982 0
M  V30 279 H 25.8076 -5.42695 -0.823013 0
M  V30 280 H 26.0686 -4.01945 -1.841 0
M  V30 281 N 25.1277 -0.289203 -1.54924 0
M  V30 282 C 26.3557 0.326463 -2.04308 0
M  V30 283 C 26.7707 1.48413 -1.16701 0
M  V30 284 O 26.1277 1.81507 -0.190087 0
M  V30 285 C 26.1787 0.794014 -3.52672 0
M  V30 286 O 25.8997 -0.317564 -4.36948 0
M  V30 287 C 27.4007 1.47605 -4.18004 0
M  V30 288 H 24.6207 0.0726272 -0.667058 0
M  V30 289 H 27.1647 -0.425401 -2.00026 0
M  V30 290 H 25.3197 1.49593 -3.57352 0
M  V30 291 H 25.7337 0.0443186 -5.24481 0
M  V30 292 H 27.2077 1.75447 -5.23376 0
M  V30 293 H 27.6847 2.41224 -3.67025 0
M  V30 294 H 28.2907 0.81762 -4.17367 0
M  V30 295 N 26.6058 1.57591 -0.0167156 0
M  V30 296 C 27.5538 2.10604 0.987353 0
M  V30 297 C 28.5478 1.02977 1.34507 0
M  V30 298 O 29.7538 1.21425 1.32875 0
M  V30 299 H 26.1288 0.672695 0.336134 0
M  V30 300 H 28.0998 2.93925 0.514817 0
M  V30 301 C 26.8488 2.6382 2.26483 0
M  V30 302 H 26.1718 3.46278 1.99829 0
M  V30 303 H 27.6118 3.04573 2.94977 0
M  V30 304 C 26.0708 1.55992 2.9861 0
M  V30 305 O 26.6008 0.952521 3.90243 0
M  V30 306 N 24.8068 1.28335 2.60727 0
M  V30 307 H 24.3538 1.77914 1.86291 0
M  V30 308 H 24.3118 0.564115 3.09298 0
M  V30 309 N 28.0839 -0.256276 1.55502 0
M  V30 310 C 29.3089 -1.00766 1.81276 0
M  V30 311 C 29.7339 -1.78524 0.59252 0
M  V30 312 O 29.0919 -1.75413 -0.45827 0
M  V30 313 C 29.1399 -1.92869 3.04687 0
M  V30 314 O 28.2439 -3.019 2.80945 0
M  V30 315 H 27.5849 -0.287224 0.598664 0
M  V30 316 H 30.1149 -0.280109 2.02674 0
M  V30 317 H 30.1249 -2.34511 3.33869 0
M  V30 318 H 28.7999 -1.35689 3.93143 0
M  V30 319 H 27.3769 -2.64454 2.62904 0
M  V30 320 N 29.562 -1.4872 -0.521534 0
M  V30 321 C 30.525 -1.63379 -1.60748 0
M  V30 322 C 31.525 -0.50661 -1.52611 0
M  V30 323 O 32.715 -0.772601 -1.5613 0
M  V30 324 C 29.847 -1.61192 -3.00383 0
M  V30 325 H 31.04 -2.60217 -1.49087 0
M  V30 326 H 28.593 -1.37444 -0.744235 0
M  V30 327 H 29.328 -0.65863 -3.17541 0
M  V30 328 H 29.113 -2.43032 -3.07698 0
M  V30 329 H 30.603 -1.7466 -3.7932 0
M  V30 330 N 31.0401 0.771051 -1.3745 0
M  V30 331 C 32.4511 1.34737 -1.29239 0
M  V30 332 C 32.8021 1.96109 0.0596908 0
M  V30 333 O 31.9271 1.93865 0.961534 0
M  V30 334 C 32.5221 2.44973 -2.34037 0
M  V30 335 C 31.0811 2.98372 -2.29458 0
M  V30 336 C 30.2281 1.71595 -2.17831 0
M  V30 337 H 33.1791 0.571256 -1.48062 0
M  V30 338 H 33.2001 3.24471 -1.98744 0
M  V30 339 H 32.7121 2.00276 -3.32432 0
M  V30 340 H 30.8131 3.47443 -1.34589 0
M  V30 341 H 30.9261 3.53939 -3.229 0
M  V30 342 H 29.2901 1.94547 -1.64388 0
M  V30 343 H 30.0731 1.29001 -3.18141 0
M  V30 344 N 32.5182 1.22032 0.997298 0
M  V30 345 C 33.7462 1.06841 1.7718 0
M  V30 346 C 34.1612 -0.381325 1.84909 0
M  V30 347 O 33.5182 -1.26437 1.31605 0
M  V30 348 C 33.5692 1.66814 3.20711 0
M  V30 349 O 33.2902 3.06116 3.13408 0
M  V30 350 C 34.7912 1.56838 4.14628 0
M  V30 351 H 32.0112 0.374782 0.556578 0
M  V30 352 H 34.5552 1.61532 1.2541 0
M  V30 353 H 32.7102 1.16196 3.69564 0
M  V30 354 H 33.1242 3.34926 4.0364 0
M  V30 355 H 34.5982 2.03532 5.13107 0
M  V30 356 H 35.0752 0.524155 4.36061 0
M  V30 357 H 35.6812 2.06741 3.7167 0
M  V30 358 N 33.9963 -1.19345 1.0293 0
M  V30 359 C 35.2213 -1.93538 0.745511 0
M  V30 360 C 35.6463 -1.75007 -0.689511 0
M  V30 361 O 35.0043 -1.05265 -1.47611 0
M  V30 362 C 35.0523 -3.43336 1.10239 0
M  V30 363 O 34.1563 -4.11806 0.221289 0
M  V30 364 H 33.4973 -0.604193 0.275404 0
M  V30 365 H 36.0273 -1.5141 1.37609 0
M  V30 366 H 36.0373 -3.94004 1.05947 0
M  V30 367 H 34.7123 -3.56146 2.14786 0
M  V30 368 H 33.2893 -3.715 0.322842 0
M  V30 369 N 35.4744 -0.807222 -1.35358 0
M  V30 370 C 36.6994 -0.399309 -2.0352 0
M  V30 371 C 37.1244 0.981986 -1.60433 0
M  V30 372 O 36.4824 1.63601 -0.781299 0
M  V30 373 C 36.5304 -0.491552 -3.57234 0
M  V30 374 O 35.6344 0.494754 -4.09421 0
M  V30 375 H 34.9754 -0.166682 -0.642739 0
M  V30 376 H 37.5054 -1.09328 -1.72941 0
M  V30 377 H 37.5154 -0.361588 -4.06395 0
M  V30 378 H 36.1904 -1.49907 -3.87944 0
M  V30 379 H 34.7674 0.324977 -3.71481 0
M  V30 380 N 36.9525 1.47285 -0.560781 0
M  V30 381 C 38.1775 2.07359 -0.0410566 0
M  V30 382 C 38.6025 1.41017 1.24483 0
M  V30 383 O 37.9605 0.486368 1.74654 0
M  V30 384 C 38.0085 3.6035 0.134123 0
M  V30 385 O 37.1125 3.94681 1.19587 0
M  V30 386 H 36.4535 0.661887 -0.0529291 0
M  V30 387 H 38.9835 1.89252 -0.777482 0
M  V30 388 H 38.9935 4.0652 0.347207 0
M  V30 389 H 37.6685 4.08034 -0.805047 0
M  V30 390 H 36.2455 3.60251 0.962987 0
M  V30 391 N 38.4306 0.297415 1.54768 0
M  V30 392 C 39.6586 -0.315623 2.04478 0
M  V30 393 C 40.0736 -1.47792 1.17486 0
M  V30 394 O 39.4306 -1.81404 0.19971 0
M  V30 395 C 39.4816 -0.7753 3.53088 0
M  V30 396 O 39.2026 0.340732 4.36773 0
M  V30 397 C 40.7036 -1.45386 4.18781 0
M  V30 398 H 37.9236 -0.0690887 0.667434 0
M  V30 399 H 40.4676 0.436003 1.99798 0
M  V30 400 H 38.6226 -1.47696 3.58141 0
M  V30 401 H 39.0366 -0.0165035 5.24497 0
M  V30 402 H 40.5106 -1.72669 5.24299 0
M  V30 403 H 40.9876 -2.39275 3.68299 0
M  V30 404 H 41.5936 -0.795475 4.17795 0
M  V30 405 N 39.9087 -1.5758 0.0250728 0
M  V30 406 C 40.8557 -2.09973 -0.958129 0
M  V30 407 C 41.8257 -1.00085 -1.3256 0
M  V30 408 O 43.0107 -1.27481 -1.41962 0
M  V30 409 C 40.1507 -2.62812 -2.2366 0
M  V30 410 C 39.2637 -3.86693 -1.92594 0
M  V30 411 C 38.3987 -4.27941 -3.14707 0
M  V30 412 C 37.4377 -5.44591 -2.79442 0
M  V30 413 N 36.5747 -5.81014 -3.94167 0
M  V30 414 H 41.4147 -2.937 -0.504428 0
M  V30 415 H 38.9517 -1.45172 -0.237392 0
M  V30 416 H 40.9097 -2.91536 -2.98434 0
M  V30 417 H 39.5397 -1.81922 -2.66654 0
M  V30 418 H 38.5917 -3.64723 -1.0808 0
M  V30 419 H 39.9037 -4.71547 -1.62619 0
M  V30 420 H 39.0577 -4.58079 -3.97804 0
M  V30 421 H 37.7967 -3.41845 -3.4784 0
M  V30 422 H 36.8017 -5.1415 -1.94755 0
M  V30 423 H 38.0267 -6.32382 -2.47528 0
M  V30 424 H 35.9727 -4.97874 -4.2715 0
M  V30 425 H 35.8897 -6.60498 -3.67801 0
M  V30 426 H 37.1577 -6.15756 -4.7798 0
M  V30 427 N 41.3868 0.248026 -1.55636 0
M  V30 428 C 42.3338 1.30707 -1.90222 0
M  V30 429 C 43.3038 1.47881 -0.756332 0
M  V30 430 O 44.4888 1.61883 -1.00988 0
M  V30 431 C 41.6288 2.65769 -2.20138 0
M  V30 432 C 40.7418 2.56612 -3.47526 0
M  V30 433 C 39.8768 3.8402 -3.67017 0
M  V30 434 C 38.9158 3.69476 -4.8801 0
M  V30 435 N 38.0528 4.88774 -5.04029 0
M  V30 436 H 42.8928 1.00512 -2.80538 0
M  V30 437 H 40.4298 0.485055 -1.38873 0
M  V30 438 H 42.3878 3.44386 -2.35487 0
M  V30 439 H 41.0178 2.94115 -1.33027 0
M  V30 440 H 40.0698 1.69571 -3.40514 0
M  V30 441 H 41.3818 2.41774 -4.36287 0
M  V30 442 H 40.5358 4.7108 -3.8232 0
M  V30 443 H 39.2748 4.01754 -2.76487 0
M  V30 444 H 38.2798 2.80799 -4.72686 0
M  V30 445 H 39.5048 3.53238 -5.8 0
M  V30 446 H 37.4508 5.0687 -4.16435 0
M  V30 447 H 37.3678 4.76562 -5.86877 0
M  V30 448 H 38.6358 5.77335 -5.23741 0
M  V30 449 N 42.8649 1.48995 0.513639 0
M  V30 450 C 44.0929 1.61531 1.29288 0
M  V30 451 C 44.5079 0.281801 1.86685 0
M  V30 452 O 43.8649 -0.731111 1.67215 0
M  V30 453 C 43.9159 2.67449 2.43215 0
M  V30 454 O 43.6369 3.95626 1.88179 0
M  V30 455 C 45.1379 2.90575 3.34785 0
M  V30 456 H 42.3579 0.544165 0.392588 0
M  V30 457 H 44.9019 1.9494 0.617956 0
M  V30 458 H 43.0569 2.36853 3.0656 0
M  V30 459 H 43.4709 4.53868 2.62876 0
M  V30 460 H 44.9449 3.68449 4.11035 0
M  V30 461 H 45.4219 2.00011 3.91015 0
M  V30 462 H 46.0279 3.22538 2.77218 0
M  V30 463 N 44.343 -0.763751 1.37857 0
M  V30 464 C 45.275 -1.88664 1.30148 0
M  V30 465 C 46.288 -1.61365 0.215685 0
M  V30 466 O 47.477 -1.72134 0.472459 0
M  V30 467 C 44.577 -3.24075 0.991396 0
M  V30 468 C 43.75 -3.78958 2.18426 0
M  V30 469 C 42.809 -4.92862 1.8432 0
M  V30 470 O 41.835 -5.08027 2.56704 0
M  V30 471 N 43.037 -5.75071 0.792081 0
M  V30 472 H 45.802 -1.95791 2.26905 0
M  V30 473 H 43.363 -0.943226 1.31586 0
M  V30 474 H 45.355 -3.97804 0.743935 0
M  V30 475 H 43.925 -3.12399 0.112122 0
M  V30 476 H 43.145 -2.96913 2.59299 0
M  V30 477 H 44.433 -4.12357 2.98058 0
M  V30 478 H 43.831 -5.65375 0.191595 0
M  V30 479 H 42.388 -6.48991 0.60449 0
M  V30 480 N 45.8211 -1.22559 -0.990812 0
M  V30 481 C 46.7511 -1.0218 -2.09956 0
M  V30 482 C 47.7321 0.0579394 -1.70001 0
M  V30 483 O 48.9171 -0.104684 -1.93918 0
M  V30 484 C 46.0471 -0.601023 -3.4206 0
M  V30 485 C 45.0011 -1.62694 -3.95872 0
M  V30 486 C 44.3271 -1.06193 -5.24049 0
M  V30 487 C 45.6271 -3.01743 -4.2632 0
M  V30 488 H 47.3211 -1.94916 -2.27262 0
M  V30 489 H 44.8671 -0.938566 -1.09211 0
M  V30 490 H 46.8201 -0.445561 -4.19038 0
M  V30 491 H 45.5441 0.362005 -3.24588 0
M  V30 492 H 44.2031 -1.77021 -3.21028 0
M  V30 493 H 43.8511 -0.0901903 -5.02919 0
M  V30 494 H 43.5511 -1.74732 -5.61019 0
M  V30 495 H 45.0751 -0.918092 -6.03658 0
M  V30 496 H 46.4891 -2.90777 -4.94087 0
M  V30 497 H 44.8861 -3.67425 -4.74467 0
M  V30 498 H 45.9561 -3.51518 -3.34011 0
M  V30 499 N 47.2992 1.18797 -1.03562 0
M  V30 500 C 48.2312 2.21731 -0.580337 0
M  V30 501 C 49.2442 1.59051 0.347349 0
M  V30 502 O 50.4332 1.77929 0.142669 0
M  V30 503 C 47.5332 3.38459 0.172805 0
M  V30 504 C 46.7062 4.3072 -0.761496 0
M  V30 505 C 45.7652 5.26174 -0.0525547 0
M  V30 506 O 44.7912 5.65108 -0.681333 0
M  V30 507 N 45.9932 5.67624 1.21586 0
M  V30 508 H 48.7582 2.61417 -1.46565 0
M  V30 509 H 46.3192 1.33531 -0.915476 0
M  V30 510 H 48.3112 3.99335 0.656793 0
M  V30 511 H 46.8812 2.97507 0.959602 0
M  V30 512 H 46.1012 3.67525 -1.42544 0
M  V30 513 H 47.3892 4.89267 -1.39626 0
M  V30 514 H 46.7872 5.38038 1.74732 0
M  V30 515 H 45.3442 6.30721 1.64421 0
M  V30 516 N 48.7773 0.814389 1.34928 0
M  V30 517 C 49.7073 0.244827 2.32213 0
M  V30 518 C 50.6883 -0.634024 1.57842 0
M  V30 519 O 51.8733 -0.562676 1.8587 0
M  V30 520 C 49.0033 -0.601106 3.42058 0
M  V30 521 C 47.9573 0.179896 4.27622 0
M  V30 522 C 47.2833 -0.788237 5.28858 0
M  V30 523 C 48.5833 1.38329 5.03649 0
M  V30 524 H 50.2773 1.05763 2.80097 0
M  V30 525 H 47.8233 0.510029 1.34665 0
M  V30 526 H 49.7763 -1.00968 4.09125 0
M  V30 527 H 48.5003 -1.44688 2.92802 0
M  V30 528 H 47.1593 0.569739 3.62146 0
M  V30 529 H 46.8073 -1.62973 4.75866 0
M  V30 530 H 46.5073 -0.269942 5.8698 0
M  V30 531 H 48.0313 -1.19485 5.98795 0
M  V30 532 H 49.4453 1.04918 5.63618 0
M  V30 533 H 47.8423 1.83662 5.71304 0
M  V30 534 H 48.9123 2.16592 4.33839 0
M  V30 535 N 50.2554 -1.46986 0.568584 0
M  V30 536 C 51.1654 -2.33942 -0.17555 0
M  V30 537 C 52.1814 -1.48891 -0.90041 0
M  V30 538 O 53.3574 -1.81794 -0.86676 0
M  V30 539 C 50.4224 -3.25811 -1.18524 0
M  V30 540 C 49.4834 -4.26757 -0.466582 0
M  V30 541 C 48.7164 -5.14236 -1.42817 0
M  V30 542 O 48.9394 -5.04379 -2.66379 0
M  V30 543 O 47.8734 -5.94412 -0.946453 0
M  V30 544 H 51.6994 -2.98896 0.538036 0
M  V30 545 H 49.2844 -1.4573 0.329097 0
M  V30 546 H 51.1664 -3.82527 -1.76779 0
M  V30 547 H 49.8414 -2.63471 -1.88055 0
M  V30 548 H 48.7484 -3.73769 0.157451 0
M  V30 549 H 50.0814 -4.91843 0.187485 0
M  V30 550 N 51.7335 -0.305618 -1.54608 0
M  V30 551 C 52.6835 0.583595 -2.20405 0
M  V30 552 C 53.6675 1.09539 -1.17856 0
M  V30 553 O 54.8595 1.0354 -1.43557 0
M  V30 554 C 51.9885 1.75277 -2.95183 0
M  V30 555 C 51.0745 1.25672 -4.05052 0
M  V30 556 N 51.4655 0.478998 -5.03527 0
M  V30 557 C 49.7635 1.53704 -4.18678 0
M  V30 558 C 50.4645 0.214269 -5.81305 0
M  V30 559 N 49.4405 0.795374 -5.3775 0
M  V30 560 H 53.2425 -0.0180946 -2.93894 0
M  V30 561 H 50.7565 -0.110601 -1.62023 0
M  V30 562 H 52.7535 2.4014 -3.40791 0
M  V30 563 H 51.4135 2.35812 -2.23211 0
M  V30 564 H 52.4245 0.123473 -5.17753 0
M  V30 565 H 49.1015 2.14954 -3.57912 0
M  V30 566 H 50.4915 -0.410656 -6.70644 0
M  V30 567 N 53.2116 1.57565 -0.0334293 0
M  V30 568 C 54.1416 2.13511 0.945265 0
M  V30 569 C 55.1226 1.05231 1.33643 0
M  V30 570 O 56.3076 1.33084 1.41429 0
M  V30 571 C 53.4376 2.6657 2.22616 0
M  V30 572 C 52.3916 3.79676 1.97561 0
M  V30 573 C 51.7176 4.1918 3.31952 0
M  V30 574 C 53.0176 5.0557 1.31135 0
M  V30 575 H 54.7116 2.95538 0.479325 0
M  V30 576 H 52.2576 1.42166 0.229115 0
M  V30 577 H 54.2106 3.04344 2.91466 0
M  V30 578 H 52.9346 1.8171 2.71384 0
M  V30 579 H 51.5936 3.42347 1.31127 0
M  V30 580 H 51.2416 3.31296 3.78487 0
M  V30 581 H 50.9416 4.95402 3.15992 0
M  V30 582 H 52.4656 4.59541 4.02063 0
M  V30 583 H 53.8796 5.40903 1.89992 0
M  V30 584 H 52.2766 5.86818 1.25559 0
M  V30 585 H 53.3466 4.84062 0.284894 0
M  V30 586 N 54.6897 -0.239769 1.55765 0
M  V30 587 C 55.6197 -1.30052 1.9393 0
M  V30 588 C 56.6007 -1.49839 0.805132 0
M  V30 589 O 57.7857 -1.62328 1.06599 0
M  V30 590 C 54.9157 -2.65391 2.2402 0
M  V30 591 C 53.8697 -2.60289 3.39755 0
M  V30 592 C 53.1957 -3.99489 3.55405 0
M  V30 593 C 54.4957 -2.16654 4.75246 0
M  V30 594 H 56.1897 -0.983573 2.82783 0
M  V30 595 H 53.7357 -0.471701 1.36055 0
M  V30 596 H 55.6887 -3.3974 2.49308 0
M  V30 597 H 54.4127 -2.98736 1.32 0
M  V30 598 H 53.0717 -1.88398 3.14487 0
M  V30 599 H 52.7197 -4.30112 2.60793 0
M  V30 600 H 52.4197 -3.96962 4.33238 0
M  V30 601 H 53.9437 -4.75528 3.83022 0
M  V30 602 H 55.3577 -2.80737 4.99859 0
M  V30 603 H 53.7547 -2.25223 5.56232 0
M  V30 604 H 54.8247 -1.11835 4.71827 0
M  V30 605 N 56.1678 -1.49265 -0.50573 0
M  V30 606 C 57.0978 -1.68495 -1.61653 0
M  V30 607 C 58.0788 -0.53366 -1.61512 0
M  V30 608 O 59.2638 -0.76897 -1.78327 0
M  V30 609 C 56.3938 -1.74709 -3.00157 0
M  V30 610 C 55.3478 -2.89581 -3.15162 0
M  V30 611 C 54.6738 -2.80903 -4.5497 0
M  V30 612 C 55.9738 -4.30578 -2.95634 0
M  V30 613 H 57.6678 -2.61493 -1.45814 0
M  V30 614 H 55.2138 -1.25838 -0.70005 0
M  V30 615 H 57.1668 -1.86748 -3.77761 0
M  V30 616 H 55.8908 -0.783067 -3.17074 0
M  V30 617 H 54.5498 -2.77136 -2.39982 0
M  V30 618 H 54.1978 -1.82419 -4.68756 0
M  V30 619 H 53.8978 -3.57999 -4.65951 0
M  V30 620 H 55.4218 -2.94944 -5.34641 0
M  V30 621 H 56.8358 -4.4373 -3.63011 0
M  V30 622 H 55.2328 -5.0886 -3.18091 0
M  V30 623 H 56.3028 -4.45352 -1.91806 0
M  V30 624 N 57.6459 0.756429 -1.3826 0
M  V30 625 C 58.9229 1.50584 -1.24835 0
M  V30 626 C 59.3029 2.10556 0.151485 0
M  V30 627 O 58.6509 1.96825 1.1607 0
M  V30 628 C 58.8609 2.57448 -2.3563 0
M  V30 629 C 60.2089 3.24429 -2.73917 0
M  V30 630 O 61.2329 2.67751 -2.34921 0
M  V30 631 O 60.0919 4.26937 -3.41156 0
M  V30 632 H 57.1859 0.667664 -0.48801 0
M  V30 633 H 59.7319 0.792083 -1.5008 0
M  V30 634 H 58.5039 2.11362 -3.29305 0
M  V30 635 H 58.1269 3.36408 -2.11933 0
M  V30 636 N 59.124 1.23083 0.984299 0
M  V30 637 C 60.054 1.03292 2.09411 0
M  V30 638 C 61.035 -0.048923 1.7003 0
M  V30 639 O 62.22 0.114967 1.93859 0
M  V30 640 C 59.35 0.619155 3.41736 0
M  V30 641 C 58.304 1.64791 3.95004 0
M  V30 642 C 57.63 1.0897 5.23478 0
M  V30 643 C 58.93 3.03999 4.24714 0
M  V30 644 H 60.624 1.96119 2.26225 0
M  V30 645 H 58.17 0.944344 1.08711 0
M  V30 646 H 60.123 0.467777 4.18796 0
M  V30 647 H 58.847 -0.344786 3.24775 0
M  V30 648 H 57.506 1.78721 3.20085 0
M  V30 649 H 57.154 0.11686 5.02864 0
M  V30 650 H 56.854 1.77704 5.60085 0
M  V30 651 H 58.378 0.950093 6.03163 0
M  V30 652 H 59.792 2.93393 4.92538 0
M  V30 653 H 58.189 3.69936 4.72512 0
M  V30 654 H 59.259 3.53285 3.32142 0
M  V30 655 N 60.6021 -1.18246 1.0419 0
M  V30 656 C 61.5341 -2.2142 0.592088 0
M  V30 657 C 62.5471 -1.59233 -0.338909 0
M  V30 658 O 63.7361 -1.78002 -0.133231 0
M  V30 659 C 60.8361 -3.38546 -0.154854 0
M  V30 660 C 60.0091 -4.3031 0.784328 0
M  V30 661 C 59.0681 -5.26138 0.0804583 0
M  V30 662 O 58.0941 -5.64738 0.711292 0
M  V30 663 N 59.2961 -5.68261 -1.18574 0
M  V30 664 H 62.0611 -2.60636 1.47949 0
M  V30 665 H 59.6221 -1.33044 0.922544 0
M  V30 666 H 61.6141 -3.99678 -0.635606 0
M  V30 667 H 60.1841 -2.98012 -0.943811 0
M  V30 668 H 59.4041 -3.66764 1.44491 0
M  V30 669 H 60.6921 -4.8852 1.42218 0
M  V30 670 H 60.0901 -5.38957 -1.71876 0
M  V30 671 H 58.6471 -6.31584 -1.61074 0
M  V30 672 N 62.0802 -0.821533 -1.34494 0
M  V30 673 C 63.0132 -0.187704 -2.27427 0
M  V30 674 C 63.9912 0.65507 -1.48821 0
M  V30 675 O 65.1752 0.619111 -1.78043 0
M  V30 676 C 62.3022 0.737996 -3.30562 0
M  V30 677 C 61.3482 -0.0270713 -4.26491 0
M  V30 678 S 62.1812 -1.37329 -5.17592 0
M  V30 679 C 63.3372 -0.452427 -6.24263 0
M  V30 680 H 63.5702 -0.975598 -2.80837 0
M  V30 681 H 61.1032 -0.61736 -1.4152 0
M  V30 682 H 63.0612 1.26654 -3.90473 0
M  V30 683 H 61.7222 1.4994 -2.76001 0
M  V30 684 H 60.9152 0.6766 -4.99438 0
M  V30 685 H 60.5172 -0.48612 -3.70827 0
M  V30 686 H 62.8092 0.356557 -6.76561 0
M  V30 687 H 63.7522 -1.15153 -6.98674 0
M  V30 688 H 64.1602 -0.0414755 -5.64485 0
M  V30 689 N 63.5583 1.46682 -0.576371 0
M  V30 690 C 64.8073 2.01619 -0.0572825 0
M  V30 691 C 65.1203 1.45417 1.30818 0
M  V30 692 O 66.3263 1.92133 1.91825 0
M  V30 693 C 64.7823 3.59863 -0.0518371 0
M  V30 694 C 64.3903 4.25059 -1.41523 0
M  V30 695 C 66.1343 4.2248 0.413639 0
M  V30 696 C 64.0413 5.75364 -1.36785 0
M  V30 697 H 62.9713 0.753794 -0.0176448 0
M  V30 698 H 65.6223 1.68481 -0.727076 0
M  V30 699 H 64.0043 3.90048 0.683994 0
M  V30 700 H 65.1783 4.06491 -2.17029 0
M  V30 701 H 63.4933 3.7451 -1.8202 0
M  V30 702 H 66.0903 5.3265 0.467779 0
M  V30 703 H 66.4333 3.90976 1.42982 0
M  V30 704 H 66.9663 3.96897 -0.267929 0
M  V30 705 H 63.7053 6.11518 -2.36063 0
M  V30 706 H 63.2253 5.96214 -0.654895 0
M  V30 707 H 64.9043 6.37955 -1.07805 0
M  V30 708 N 65.0364 0.313813 1.54444 0
M  V30 709 C 65.9664 -0.549454 2.26943 0
M  V30 710 C 66.9474 -1.12741 1.27372 0
M  V30 711 O 68.1324 -1.15436 1.56167 0
M  V30 712 C 65.2624 -1.71523 3.01989 0
M  V30 713 C 64.2164 -1.26703 4.08816 0
M  V30 714 C 63.5424 -2.51898 4.71647 0
M  V30 715 C 64.8424 -0.388962 5.2085 0
M  V30 716 H 66.5364 0.0552661 2.99349 0
M  V30 717 H 64.0824 0.0280207 1.43973 0
M  V30 718 H 66.0354 -2.32535 3.51433 0
M  V30 719 H 64.7594 -2.34639 2.27183 0
M  V30 720 H 63.4184 -0.679896 3.6024 0
M  V30 721 H 63.0664 -3.13356 3.93468 0
M  V30 722 H 62.7664 -2.22605 5.43802 0
M  V30 723 H 64.2904 -3.1369 5.23861 0
M  V30 724 H 65.7044 -0.905107 5.6611 0
M  V30 725 H 64.1014 -0.18924 5.99802 0
M  V30 726 H 65.1714 0.582699 4.81386 0
M  V30 727 N 66.5145 -1.57545 0.0417849 0
M  V30 728 C 67.4625 -2.12148 -0.953723 0
M  V30 729 C 68.4565 -1.05104 -1.32852 0
M  V30 730 O 69.6625 -1.23524 -1.30927 0
M  V30 731 H 66.0375 -0.677957 -0.325389 0
M  V30 732 H 68.0085 -2.94707 -0.467991 0
M  V30 733 C 66.7575 -2.6739 -2.22257 0
M  V30 734 H 66.0805 -3.49413 -1.94295 0
M  V30 735 H 67.5205 -3.09227 -2.90094 0
M  V30 736 C 65.9795 -1.60723 -2.96091 0
M  V30 737 O 66.5095 -1.01449 -3.88679 0
M  V30 738 N 64.7155 -1.32466 -2.58652 0
M  V30 739 H 64.2625 -1.80856 -1.83437 0
M  V30 740 H 64.2205 -0.61325 -3.08361 0
M  V30 741 N 67.9926 0.231505 -1.5589 0
M  V30 742 C 69.2406 0.955461 -1.78088 0
M  V30 743 C 69.5616 1.85262 -0.608533 0
M  V30 744 O 68.8316 1.92277 0.375035 0
M  V30 745 H 67.4116 0.355787 -0.656829 0
M  V30 746 H 70.0736 0.245751 -1.93344 0
M  V30 747 H 69.1696 1.56814 -2.69844 0
M  V30 748 N 69.4707 1.49531 0.497807 0
M  V30 749 C 70.7197 1.58426 1.24837 0
M  V30 750 C 71.0327 0.277643 1.93619 0
M  V30 751 O 72.2387 0.24517 2.70391 0
M  V30 752 C 70.6947 2.79538 2.26686 0
M  V30 753 C 70.3027 4.16971 1.63828 0
M  V30 754 C 72.0467 2.97764 3.0255 0
M  V30 755 C 69.9537 5.29301 2.63807 0
M  V30 756 H 68.8837 0.58989 0.469623 0
M  V30 757 H 71.5347 1.75923 0.521857 0
M  V30 758 H 69.9167 2.55542 3.02514 0
M  V30 759 H 71.0907 4.51116 0.939711 0
M  V30 760 H 69.4057 4.04129 1.00342 0
M  V30 761 H 72.0027 3.78856 3.77323 0
M  V30 762 H 72.3457 2.08448 3.60354 0
M  V30 763 H 72.8787 3.21815 2.33838 0
M  V30 764 H 69.6177 6.20687 2.10779 0
M  V30 765 H 69.1377 4.99606 3.31894 0
M  V30 766 H 70.8167 5.58768 3.2617 0
M  V30 767 N 70.9488 -0.749086 1.3866 0
M  V30 768 C 71.8968 -1.88428 1.36373 0
M  V30 769 C 72.8908 -1.67561 0.248929 0
M  V30 770 O 74.0968 -1.75074 0.41821 0
M  V30 771 H 70.4718 -0.620023 0.42553 0
M  V30 772 H 72.4428 -1.87473 2.32156 0
M  V30 773 C 71.1918 -3.25961 1.21014 0
M  V30 774 H 70.5148 -3.42607 2.06059 0
M  V30 775 H 71.9548 -4.05625 1.23469 0
M  V30 776 C 70.4138 -3.36799 -0.0825941 0
M  V30 777 O 70.9438 -3.87517 -1.05797 0
M  V30 778 N 69.1498 -2.90258 -0.140939 0
M  V30 779 H 68.6968 -2.49174 0.653477 0
M  V30 780 H 68.6548 -2.97889 -1.00545 0
M  V30 781 N 72.4269 -1.23603 -0.977757 0
M  V30 782 C 73.3749 -1.01704 -2.09187 0
M  V30 783 C 74.3689 0.0448214 -1.69341 0
M  V30 784 O 75.5749 -0.108902 -1.7967 0
M  V30 785 H 71.9499 -0.311803 -0.684312 0
M  V30 786 H 73.9209 -1.96207 -2.24823 0
M  V30 787 C 72.6699 -0.627746 -3.41986 0
M  V30 788 H 71.9929 -1.43656 -3.73099 0
M  V30 789 H 73.4329 -0.514053 -4.20872 0
M  V30 790 C 71.8919 0.664238 -3.30287 0
M  V30 791 O 72.4219 1.71268 -3.6336 0
M  V30 792 N 70.6279 0.641156 -2.83439 0
M  V30 793 H 70.1749 -0.212376 -2.56723 0
M  V30 794 H 70.1329 1.50583 -2.75993 0
M  V30 795 N 73.905 1.17692 -1.04816 0
M  V30 796 C 75.135 1.91508 -0.775128 0
M  V30 797 C 75.543 1.76844 0.67253 0
M  V30 798 O 74.886 1.10057 1.47082 0
M  V30 799 C 74.948 3.43167 -1.0713 0
M  V30 800 C 74.612 3.81612 -2.51438 0
M  V30 801 C 75.609 3.84772 -3.49638 0
M  V30 802 C 73.294 4.12687 -2.86348 0
M  V30 803 C 75.288 4.18469 -4.80794 0
M  V30 804 C 72.975 4.46053 -4.17708 0
M  V30 805 C 73.973 4.48921 -5.14741 0
M  V30 806 O 73.661 4.81504 -6.43746 0
M  V30 807 H 73.393 0.614575 -0.281555 0
M  V30 808 H 75.947 1.50206 -1.40098 0
M  V30 809 H 74.177 3.84745 -0.388342 0
M  V30 810 H 75.866 3.98239 -0.784883 0
M  V30 811 H 76.632 3.60893 -3.24008 0
M  V30 812 H 72.511 4.09627 -2.11486 0
M  V30 813 H 76.055 4.20623 -5.56527 0
M  V30 814 H 71.952 4.69393 -4.43103 0
M  V30 815 H 72.72 4.99377 -6.4851 0
M  V30 816 N 75.3831 0.828654 1.34056 0
M  V30 817 C 76.3301 0.252567 2.29414 0
M  V30 818 C 77.3001 -0.62588 1.53857 0
M  V30 819 O 78.4851 -0.566312 1.82202 0
M  V30 820 C 75.6251 -0.574831 3.40279 0
M  V30 821 C 74.7381 0.326499 4.30764 0
M  V30 822 C 73.8731 -0.511016 5.28736 0
M  V30 823 C 72.9121 0.389342 6.1086 0
M  V30 824 N 72.0491 -0.409439 7.00905 0
M  V30 825 H 76.8891 1.07108 2.78086 0
M  V30 826 H 74.4261 0.539677 1.36843 0
M  V30 827 H 76.3841 -1.06992 4.03248 0
M  V30 828 H 75.0141 -1.35841 2.92826 0
M  V30 829 H 74.0661 0.939837 3.68607 0
M  V30 830 H 75.3781 1.01857 4.88289 0
M  V30 831 H 74.5321 -1.07035 5.97184 0
M  V30 832 H 73.2711 -1.23657 4.71763 0
M  V30 833 H 72.2761 0.960769 5.4134 0
M  V30 834 H 73.5011 1.1131 6.69916 0
M  V30 835 H 71.4471 -1.11856 6.46393 0
M  V30 836 H 71.3641 0.224126 7.55668 0
M  V30 837 H 72.6321 -0.951336 7.73673 0
M  V30 838 N 76.8612 -1.46375 0.584142 0
M  V30 839 C 77.8092 -2.32042 -0.161047 0
M  V30 840 C 78.8032 -1.44569 -0.882966 0
M  V30 841 O 80.0092 -1.61186 -0.801191 0
M  V30 842 H 76.3842 -0.748659 -0.0708033 0
M  V30 843 H 78.3552 -2.92704 0.580269 0
M  V30 844 C 77.1042 -3.27762 -1.1605 0
M  V30 845 H 76.4272 -3.95051 -0.614419 0
M  V30 846 H 77.8672 -3.90481 -1.65228 0
M  V30 847 C 76.3262 -2.53218 -2.22221 0
M  V30 848 O 76.8562 -2.29628 -3.29597 0
M  V30 849 N 75.0622 -2.13756 -1.96868 0
M  V30 850 H 74.6092 -2.33142 -1.09557 0
M  V30 851 H 74.5672 -1.642 -2.68115 0
M  V30 852 N 78.3393 -0.321999 -1.54275 0
M  V30 853 C 79.7503 0.166384 -1.85957 0
M  V30 854 C 80.1013 1.51747 -1.24367 0
M  V30 855 O 79.2263 2.09317 -0.549124 0
M  V30 856 C 79.8213 0.308681 -3.37391 0
M  V30 857 C 78.3803 0.741286 -3.69028 0
M  V30 858 C 77.5273 -0.137937 -2.76957 0
M  V30 859 H 80.4783 -0.542335 -1.49146 0
M  V30 860 H 80.4993 1.13984 -3.63026 0
M  V30 861 H 80.0113 -0.674809 -3.82188 0
M  V30 862 H 78.1123 1.73458 -3.29762 0
M  V30 863 H 78.2253 0.546118 -4.75977 0
M  V30 864 H 76.5893 0.386251 -2.51754 0
M  V30 865 H 77.3723 -1.11816 -3.2458 0
M  V30 866 N 79.8174 1.5752 -0.0501392 0
M  V30 867 C 80.7644 2.1147 0.924603 0
M  V30 868 C 81.7344 1.02182 1.30951 0
M  V30 869 O 82.9194 1.29723 1.39916 0
M  V30 870 C 80.0594 2.66337 2.19451 0
M  V30 871 C 79.1724 3.89708 1.86418 0
M  V30 872 C 78.3074 4.32893 3.07859 0
M  V30 873 C 77.3464 5.48967 2.70742 0
M  V30 874 N 76.4834 5.87211 3.84874 0
M  V30 875 H 81.3234 2.94465 0.457639 0
M  V30 876 H 78.8604 1.45531 0.214266 0
M  V30 877 H 80.8184 2.96247 2.93758 0
M  V30 878 H 79.4484 1.86141 2.63726 0
M  V30 879 H 78.5004 3.66396 1.02264 0
M  V30 880 H 79.8124 4.74074 1.55096 0
M  V30 881 H 78.9664 4.6435 3.90466 0
M  V30 882 H 77.7054 3.47336 3.42358 0
M  V30 883 H 76.7104 5.17183 1.86551 0
M  V30 884 H 77.9354 6.3624 2.37436 0
M  V30 885 H 75.8814 5.04607 4.19175 0
M  V30 886 H 75.7984 6.66266 3.57247 0
M  V30 887 H 77.0664 6.23282 4.68123 0
M  V30 888 N 81.2955 -0.223234 1.56011 0
M  V30 889 C 82.2255 -1.27988 1.95298 0
M  V30 890 C 83.2065 -1.48976 0.820979 0
M  V30 891 O 84.3915 -1.61188 1.08315 0
M  V30 892 C 81.5215 -2.63 2.26822 0
M  V30 893 C 80.4755 -2.56671 3.42497 0
M  V30 894 C 79.8015 -3.95697 3.59622 0
M  V30 895 C 81.1015 -2.11601 4.77517 0
M  V30 896 H 82.7955 -0.953525 2.8381 0
M  V30 897 H 80.3415 -0.457244 1.36548 0
M  V30 898 H 82.2945 -3.37077 2.52898 0
M  V30 899 H 81.0185 -2.9732 1.35161 0
M  V30 900 H 79.6775 -1.85051 3.16467 0
M  V30 901 H 79.3255 -4.27322 2.6534 0
M  V30 902 H 79.0255 -3.92345 4.37424 0
M  V30 903 H 80.5495 -4.71438 3.88044 0
M  V30 904 H 81.9635 -2.7542 5.02809 0
M  V30 905 H 80.3605 -2.19311 5.5859 0
M  V30 906 H 81.4305 -1.06824 4.72987 0
M  V30 907 N 82.7736 -1.49793 -0.48987 0
M  V30 908 C 84.0016 -1.63568 -1.26701 0
M  V30 909 C 84.4166 -0.311465 -1.86213 0
M  V30 910 O 83.7736 0.704416 -1.68357 0
M  V30 911 C 83.8246 -2.71284 -2.38929 0
M  V30 912 O 83.5456 -3.9857 -1.81861 0
M  V30 913 C 85.0466 -2.95864 -3.3012 0
M  V30 914 H 82.2666 -0.550342 -0.383881 0
M  V30 915 H 84.8106 -1.95898 -0.586864 0
M  V30 916 H 82.9656 -2.417 -3.02753 0
M  V30 917 H 83.3796 -4.57993 -2.55622 0
M  V30 918 H 84.8536 -3.74941 -4.05121 0
M  V30 919 H 85.3306 -2.06206 -3.87783 0
M  V30 920 H 85.9366 -3.26907 -2.72051 0
M  V30 921 N 84.2517 0.741722 -1.39055 0
M  V30 922 C 85.6677 1.04638 -1.20512 0
M  V30 923 C 85.8677 2.01405 -0.0620218 0
M  V30 924 O 84.9237 2.45547 0.588457 0
M  V30 925 C 86.2367 1.6151 -2.53643 0
M  V30 926 C 87.7847 1.73623 -2.6043 0
M  V30 927 C 88.2597 2.33906 -3.93767 0
M  V30 928 N 89.7507 2.41323 -3.9537 0
M  V30 929 C 90.4857 2.88888 -4.95309 0
M  V30 930 N 89.9817 3.36401 -6.05645 0
M  V30 931 N 91.7747 2.88037 -4.82692 0
M  V30 932 H 83.9257 0.0998155 -2.12165 0
M  V30 933 H 86.1887 0.106907 -0.941953 0
M  V30 934 H 85.8947 0.978739 -3.37807 0
M  V30 935 H 85.7687 2.60411 -2.72885 0
M  V30 936 H 88.1557 2.36384 -1.76655 0
M  V30 937 H 88.2367 0.733945 -2.45045 0
M  V30 938 H 87.8807 1.71776 -4.7797 0
M  V30 939 H 87.8107 3.34799 -4.06469 0
M  V30 940 H 90.3017 2.07734 -3.15682 0
M  V30 941 H 90.6147 3.71186 -6.77821 0
M  V30 942 H 88.9597 3.34427 -6.09248 0
M  V30 943 H 92.1507 2.50237 -3.95599 0
M  V30 944 H 92.3237 3.24792 -5.60726 0
M  V30 945 N 85.7298 1.2412 0.971189 0
M  V30 946 C 86.6628 0.97373 2.06382 0
M  V30 947 C 87.6408 -0.0912662 1.62344 0
M  V30 948 O 88.8248 0.0449365 1.88446 0
M  V30 949 C 85.9518 0.468746 3.35441 0
M  V30 950 C 84.9978 1.52176 3.98428 0
M  V30 951 S 85.8308 3.10203 4.36503 0
M  V30 952 C 86.9868 2.61398 5.68702 0
M  V30 953 H 87.2198 1.89893 2.28753 0
M  V30 954 H 84.7528 1.07466 1.10862 0
M  V30 955 H 86.7108 0.184012 4.10087 0
M  V30 956 H 85.3718 -0.435688 3.11064 0
M  V30 957 H 84.5648 1.11876 4.91426 0
M  V30 958 H 84.1668 1.75632 3.30196 0
M  V30 959 H 86.4588 2.03992 6.4606 0
M  V30 960 H 87.4018 3.52972 6.13854 0
M  V30 961 H 87.8098 2.01941 5.27143 0
M  V30 962 N 87.2079 -1.17134 1.05439 0
M  V30 963 C 88.1379 -2.2342 0.678649 0
M  V30 964 C 89.1189 -1.66971 -0.32476 0
M  V30 965 O 90.3039 -1.93149 -0.201802 0
M  V30 966 C 87.4339 -3.47256 0.0552099 0
M  V30 967 C 86.3879 -4.16543 0.98365 0
M  V30 968 C 85.7139 -5.34231 0.223961 0
M  V30 969 C 87.0139 -4.68495 2.3089 0
M  V30 970 H 88.7079 -2.55105 1.56722 0
M  V30 971 H 86.2539 -1.2262 0.754998 0
M  V30 972 H 88.2069 -4.20828 -0.21946 0
M  V30 973 H 86.9309 -3.14846 -0.868319 0
M  V30 974 H 85.5899 -3.44887 1.24293 0
M  V30 975 H 85.2379 -4.98071 -0.702412 0
M  V30 976 H 84.9379 -5.81527 0.842627 0
M  V30 977 H 86.4619 -6.10585 -0.0433671 0
M  V30 978 H 87.8759 -5.33691 2.09396 0
M  V30 979 H 86.2729 -5.26379 2.88176 0
M  V30 980 H 87.3429 -3.85169 2.94572 0
M  V30 981 N 88.686 -0.835752 -1.33615 0
M  V30 982 C 89.914 -0.443344 -2.02094 0
M  V30 983 C 90.329 0.954522 -1.62894 0
M  V30 984 O 89.686 1.61982 -0.840723 0
M  V30 985 C 89.737 -0.550775 -3.5728 0
M  V30 986 O 89.458 -1.89356 -3.95065 0
M  V30 987 C 90.959 -0.154919 -4.43029 0
M  V30 988 H 88.179 -0.176359 -0.647409 0
M  V30 989 H 90.723 -1.12746 -1.70612 0
M  V30 990 H 88.878 0.0853997 -3.87306 0
M  V30 991 H 89.292 -1.87687 -4.89769 0
M  V30 992 H 90.766 -0.281144 -5.51284 0
M  V30 993 H 91.243 0.902863 -4.2982 0
M  V30 994 H 91.849 -0.765404 -4.18356 0
M  V30 995 N 90.1641 1.46063 -0.591896 0
M  V30 996 C 91.4111 2.02338 -0.0809991 0
M  V30 997 C 91.7391 1.46228 1.28249 0
M  V30 998 O 90.9941 0.620818 1.85592 0
M  V30 999 C 91.2931 3.57391 0.0249813 0
M  V30 1000 C 90.9591 4.32583 -1.27211 0
M  V30 1001 C 89.6211 4.52844 -1.62745 0
M  V30 1002 C 91.9731 4.75687 -2.13005 0
M  V30 1003 C 89.3011 5.13462 -2.83855 0
M  V30 1004 C 91.6531 5.37644 -3.3335 0
M  V30 1005 C 90.3171 5.5613 -3.69155 0
M  V30 1006 H 89.5871 0.740407 -0.0296397 0
M  V30 1007 H 92.2341 1.75321 -0.770374 0
M  V30 1008 H 90.5391 3.83597 0.797537 0
M  V30 1009 H 92.2361 3.98621 0.436184 0
M  V30 1010 H 88.8261 4.17116 -0.985499 0
M  V30 1011 H 93.0101 4.59782 -1.86855 0
M  V30 1012 H 88.2661 5.25965 -3.11722 0
M  V30 1013 H 92.4401 5.7 -4.00092 0
M  V30 1014 H 90.0671 6.0287 -4.63089 0
M  V30 1015 N 91.6422 0.330177 1.54103 0
M  V30 1016 C 92.5892 -0.532762 2.24567 0
M  V30 1017 C 93.5592 -1.10635 1.23892 0
M  V30 1018 O 94.7442 -1.14546 1.5259 0
M  V30 1019 C 91.8842 -1.6845 3.01195 0
M  V30 1020 C 90.9972 -1.13951 4.167 0
M  V30 1021 C 90.1322 -2.25746 4.80845 0
M  V30 1022 C 89.1712 -1.6853 5.88442 0
M  V30 1023 N 88.3082 -2.74014 6.46421 0
M  V30 1024 H 93.1482 0.0746905 2.97906 0
M  V30 1025 H 90.6852 0.048632 1.4702 0
M  V30 1026 H 92.6432 -2.36234 3.43874 0
M  V30 1027 H 91.2732 -2.26314 2.30178 0
M  V30 1028 H 90.3252 -0.35301 3.78758 0
M  V30 1029 H 91.6372 -0.680892 4.94131 0
M  V30 1030 H 90.7912 -3.01422 5.26526 0
M  V30 1031 H 89.5302 -2.74947 4.0281 0
M  V30 1032 H 88.5352 -0.913543 5.42157 0
M  V30 1033 H 89.7602 -1.20198 6.68378 0
M  V30 1034 H 87.7062 -3.22494 5.71256 0
M  V30 1035 H 87.6232 -2.32735 7.19285 0
M  V30 1036 H 88.8912 -3.49499 6.96757 0
M  V30 1037 N 93.1203 -1.57491 0.0584922 0
M  V30 1038 C 94.3673 -1.92978 -0.613648 0
M  V30 1039 C 94.6953 -0.937461 -1.70417 0
M  V30 1040 O 93.9503 0.049078 -1.95638 0
M  V30 1041 C 94.2493 -3.3513 -1.24188 0
M  V30 1042 C 93.9153 -4.50037 -0.278826 0
M  V30 1043 C 92.5773 -4.81198 -0.0138447 0
M  V30 1044 C 94.9293 -5.19807 0.380777 0
M  V30 1045 C 92.2573 -5.79473 0.918052 0
M  V30 1046 C 94.6093 -6.19079 1.30091 0
M  V30 1047 C 93.2733 -6.48665 1.57449 0
M  V30 1048 H 92.5433 -0.706157 -0.22455 0
M  V30 1049 H 95.1903 -1.91082 0.126533 0
M  V30 1050 H 93.4953 -3.33429 -2.05749 0
M  V30 1051 H 95.1923 -3.59871 -1.769 0
M  V30 1052 H 91.7823 -4.25726 -0.495539 0
M  V30 1053 H 95.9663 -4.95939 0.189158 0
M  V30 1054 H 91.2223 -6.00727 1.1374 0
M  V30 1055 H 95.3963 -6.7225 1.81804 0
M  V30 1056 H 93.0233 -7.24628 2.29822 0
M  V30 1057 N 94.5984 0.214957 -1.56127 0
M  V30 1058 C 95.8284 0.953707 -1.8327 0
M  V30 1059 C 96.2364 1.78181 -0.636262 0
M  V30 1060 O 95.5794 1.79191 0.404516 0
M  V30 1061 C 95.6414 1.91516 -3.0424 0
M  V30 1062 C 95.3054 1.27094 -4.38972 0
M  V30 1063 C 96.3024 0.657575 -5.15725 0
M  V30 1064 C 93.9874 1.28073 -4.85698 0
M  V30 1065 C 95.9814 0.0625968 -6.37369 0
M  V30 1066 C 93.6684 0.681914 -6.07283 0
M  V30 1067 C 94.6664 0.0739046 -6.8296 0
M  V30 1068 O 94.3544 -0.515582 -8.02245 0
M  V30 1069 H 94.0864 0.284764 -0.613095 0
M  V30 1070 H 96.6404 0.233283 -2.04071 0
M  V30 1071 H 94.8704 2.67475 -2.79274 0
M  V30 1072 H 96.5594 2.52001 -3.18198 0
M  V30 1073 H 97.3254 0.642288 -4.80728 0
M  V30 1074 H 93.2044 1.74337 -4.26764 0
M  V30 1075 H 96.7484 -0.412593 -6.96379 0
M  V30 1076 H 92.6454 0.694636 -6.41752 0
M  V30 1077 H 93.4134 -0.410544 -8.1747 0
M  V30 1078 N 96.0765 1.50051 0.48192 0
M  V30 1079 C 97.0095 1.62749 1.59963 0
M  V30 1080 C 97.9875 0.475903 1.5548 0
M  V30 1081 O 99.1715 0.693986 1.7526 0
M  V30 1082 C 96.2985 1.60008 2.98522 0
M  V30 1083 C 95.3445 2.80596 3.21198 0
M  V30 1084 S 96.1775 4.42038 3.02262 0
M  V30 1085 C 97.3335 4.41973 4.43182 0
M  V30 1086 H 97.5665 2.57296 1.4895 0
M  V30 1087 H 95.0995 1.39179 0.668477 0
M  V30 1088 H 97.0575 1.59112 3.78409 0
M  V30 1089 H 95.7185 0.667153 3.06933 0
M  V30 1090 H 94.9115 2.74952 4.22395 0
M  V30 1091 H 94.5135 2.79003 2.49065 0
M  V30 1092 H 96.8055 4.14868 5.35622 0
M  V30 1093 H 97.7485 5.43512 4.53873 0
M  V30 1094 H 98.1565 3.71812 4.24755 0
M  V30 1095 N 97.5546 -0.734337 1.39446 0
M  V30 1096 C 98.9656 -1.31264 1.32766 0
M  V30 1097 C 99.3166 -1.96198 -0.00767497 0
M  V30 1098 O 98.4416 -1.96346 -0.909796 0
M  V30 1099 C 99.0366 -2.38682 2.4045 0
M  V30 1100 C 97.5956 -2.92184 2.37288 0
M  V30 1101 C 96.7426 -1.6576 2.22304 0
M  V30 1102 H 99.6936 -0.531799 1.49525 0
M  V30 1103 H 99.7146 -3.19087 2.07276 0
M  V30 1104 H 99.2266 -1.91392 3.37625 0
M  V30 1105 H 97.3276 -3.43752 1.43754 0
M  V30 1106 H 97.4406 -3.45253 3.3217 0
M  V30 1107 H 95.8046 -1.9012 1.69489 0
M  V30 1108 H 96.5876 -1.20521 3.21449 0
M  V30 1109 N 99.0327 -1.24633 -0.964593 0
M  V30 1110 C 99.9797 -1.04144 -2.05968 0
M  V30 1111 C 100.95 0.046262 -1.66036 0
M  V30 1112 O 102.135 -0.108972 -1.90489 0
M  V30 1113 C 99.2747 -0.65563 -3.38815 0
M  V30 1114 C 98.3877 -1.81714 -3.91923 0
M  V30 1115 C 97.5227 -1.37662 -5.13052 0
M  V30 1116 C 96.5617 -2.50788 -5.58365 0
M  V30 1117 N 95.6987 -2.07582 -6.70712 0
M  V30 1118 H 100.539 -1.9787 -2.22827 0
M  V30 1119 H 98.0757 -0.9855 -1.09208 0
M  V30 1120 H 100.034 -0.412954 -4.15151 0
M  V30 1121 H 98.6637 0.244627 -3.21872 0
M  V30 1122 H 97.7157 -2.1734 -3.12198 0
M  V30 1123 H 99.0277 -2.66705 -4.21509 0
M  V30 1124 H 98.1817 -1.093 -5.96773 0
M  V30 1125 H 96.9207 -0.497293 -4.85158 0
M  V30 1126 H 95.9257 -2.79906 -4.73215 0
M  V30 1127 H 97.1507 -3.39283 -5.88272 0
M  V30 1128 H 95.0967 -1.22051 -6.44546 0
M  V30 1129 H 95.0137 -2.86125 -6.99763 0
M  V30 1130 H 96.2817 -1.82369 -7.57867 0
M  V30 1131 N 100.511 1.16574 -1.06058 0
M  V30 1132 C 101.458 2.20883 -0.669263 0
M  V30 1133 C 102.428 1.62729 0.332918 0
M  V30 1134 O 103.613 1.895 0.222346 0
M  V30 1135 C 100.753 3.45049 -0.0593572 0
M  V30 1136 C 99.8658 4.17458 -1.11143 0
M  V30 1137 C 99.0008 5.29135 -0.467916 0
M  V30 1138 C 98.0398 5.93343 -1.50369 0
M  V30 1139 N 97.1768 6.96516 -0.883706 0
M  V30 1140 H 102.017 2.53709 -1.5632 0
M  V30 1141 H 99.5538 1.24616 -0.781625 0
M  V30 1142 H 101.512 4.16033 0.311771 0
M  V30 1143 H 100.142 3.12781 0.797992 0
M  V30 1144 H 99.1938 3.45101 -1.60029 0
M  V30 1145 H 100.506 4.61307 -1.89731 0
M  V30 1146 H 99.6598 6.06684 -0.0436871 0
M  V30 1147 H 98.3988 4.86443 0.349864 0
M  V30 1148 H 97.4038 5.14517 -1.93784 0
M  V30 1149 H 98.6288 6.38114 -2.32352 0
M  V30 1150 H 96.5748 6.55943 -0.086595 0
M  V30 1151 H 96.4918 7.38723 -1.607 0
M  V30 1152 H 97.7598 7.77993 -0.484543 0
M  V30 1153 N 101.989 0.842826 1.3317 0
M  V30 1154 C 102.952 0.284065 2.27433 0
M  V30 1155 C 103.952 -0.54948 1.5112 0
M  V30 1156 O 105.142 -0.362699 1.70382 0
M  V30 1157 C 102.274 -0.599384 3.35589 0
M  V30 1158 H 103.467 1.11589 2.78366 0
M  V30 1159 H 101.02 0.616221 1.4364 0
M  V30 1160 H 101.755 -1.45349 2.89904 0
M  V30 1161 H 101.54 -0.00291266 3.921 0
M  V30 1162 H 103.03 -0.983488 4.05854 0
M  V30 1163 N 103.467 -1.45747 0.599634 0
M  V30 1164 C 104.695 -2.06668 0.0978551 0
M  V30 1165 C 105.11 -1.44562 -1.21439 0
M  V30 1166 O 104.467 -0.556923 -1.73795 0
M  V30 1167 C 104.518 -3.61456 -0.0567044 0
M  V30 1168 O 104.239 -4.21242 1.20361 0
M  V30 1169 C 105.74 -4.39345 -0.590869 0
M  V30 1170 H 102.96 -0.667825 0.0651943 0
M  V30 1171 H 105.504 -1.87115 0.82511 0
M  V30 1172 H 103.659 -3.80378 -0.734251 0
M  V30 1173 H 104.073 -5.14323 1.02821 0
M  V30 1174 H 105.547 -5.48182 -0.648131 0
M  V30 1175 H 106.024 -4.08568 -1.61147 0
M  V30 1176 H 106.63 -4.25268 0.0523679 0
M  V30 1177 N 104.945 -0.338344 -1.53925 0
M  V30 1178 C 105.855 0.529421 -2.28548 0
M  V30 1179 C 106.871 1.11645 -1.3346 0
M  V30 1180 O 108.047 1.13325 -1.66492 0
M  V30 1181 C 105.112 1.66713 -3.03987 0
M  V30 1182 C 104.173 1.11041 -4.14691 0
M  V30 1183 C 103.406 2.19389 -4.86522 0
M  V30 1184 O 103.629 3.40013 -4.57982 0
M  V30 1185 O 102.563 1.83976 -5.73094 0
M  V30 1186 H 106.389 -0.0770399 -3.03602 0
M  V30 1187 H 103.974 -0.103555 -1.49041 0
M  V30 1188 H 105.856 2.32918 -3.5118 0
M  V30 1189 H 104.531 2.25949 -2.31794 0
M  V30 1190 H 103.438 0.413024 -3.71813 0
M  V30 1191 H 104.771 0.562975 -4.8897 0
M  V30 1192 N 106.423 1.57458 -0.0668435 0
M  V30 1193 C 107.353 2.15468 0.899764 0
M  V30 1194 C 108.334 1.08042 1.31381 0
M  V30 1195 O 109.519 1.36054 1.38574 0
M  V30 1196 C 106.649 2.71232 2.16911 0
M  V30 1197 C 105.603 3.83781 1.89463 0
M  V30 1198 C 104.929 4.26127 3.22986 0
M  V30 1199 C 106.229 5.08238 1.20381 0
M  V30 1200 H 107.923 2.96488 0.416529 0
M  V30 1201 H 105.469 1.4262 0.198908 0
M  V30 1202 H 107.422 3.10458 2.84945 0
M  V30 1203 H 106.146 1.87426 2.67468 0
M  V30 1204 H 104.805 3.45051 1.23836 0
M  V30 1205 H 104.453 3.39249 3.71374 0
M  V30 1206 H 104.153 5.01993 3.05413 0
M  V30 1207 H 105.677 4.67966 3.92225 0
M  V30 1208 H 107.091 5.44811 1.78475 0
M  V30 1209 H 105.488 5.89349 1.13083 0
M  V30 1210 H 106.558 4.84558 0.182153 0
M  V30 1211 N 107.901 -0.206675 1.56239 0
M  V30 1212 C 108.848 -1.25617 1.93621 0
M  V30 1213 C 109.818 -1.45824 0.795274 0
M  V30 1214 O 111.003 -1.59148 1.05245 0
M  V30 1215 C 108.143 -2.59839 2.27107 0
M  V30 1216 C 107.256 -2.47308 3.54207 0
M  V30 1217 C 106.391 -3.74155 3.7707 0
M  V30 1218 C 105.43 -3.56407 4.97635 0
M  V30 1219 N 104.567 -4.75238 5.1681 0
M  V30 1220 H 109.407 -0.930383 2.83104 0
M  V30 1221 H 106.944 -0.448065 1.4011 0
M  V30 1222 H 108.902 -3.38021 2.44535 0
M  V30 1223 H 107.532 -2.90485 1.40778 0
M  V30 1224 H 106.584 -1.60483 3.4489 0
M  V30 1225 H 107.896 -2.30122 4.42544 0
M  V30 1226 H 107.05 -4.60778 3.94675 0
M  V30 1227 H 105.789 -3.94282 2.87042 0
M  V30 1228 H 104.794 -2.68168 4.79964 0
M  V30 1229 H 106.019 -3.37736 5.89161 0
M  V30 1230 H 103.965 -4.95651 4.29728 0
M  V30 1231 H 103.882 -4.60835 5.99306 0
M  V30 1232 H 105.15 -5.63246 5.38864 0
M  V30 1233 N 109.379 -1.50304 -0.473955 0
M  V30 1234 C 110.329 -1.65347 -1.56985 0
M  V30 1235 C 111.313 -0.508176 -1.52664 0
M  V30 1236 O 112.505 -0.762446 -1.59737 0
M  V30 1237 C 109.634 -1.74832 -2.95447 0
M  V30 1238 C 108.72 -2.95028 -3.04662 0
M  V30 1239 N 109.111 -4.18747 -2.83698 0
M  V30 1240 C 107.409 -2.93527 -3.35795 0
M  V30 1241 C 108.11 -4.99687 -2.97805 0
M  V30 1242 N 107.086 -4.33585 -3.2788 0
M  V30 1243 H 110.888 -2.58698 -1.39472 0
M  V30 1244 H 108.402 -1.47449 -0.680629 0
M  V30 1245 H 110.399 -1.83712 -3.7424 0
M  V30 1246 H 109.059 -0.826376 -3.14008 0
M  V30 1247 H 110.07 -4.48291 -2.59337 0
M  V30 1248 H 106.747 -2.10821 -3.60362 0
M  V30 1249 H 108.137 -6.08057 -2.85861 0
M  V30 1250 N 110.857 0.726932 -1.39834 0
M  V30 1251 C 111.787 1.85405 -1.41941 0
M  V30 1252 C 112.768 1.67751 -0.281728 0
M  V30 1253 O 113.953 1.8795 -0.488717 0
M  V30 1254 C 111.083 3.23243 -1.2701 0
M  V30 1255 C 110.037 3.55549 -2.38262 0
M  V30 1256 C 109.363 4.9241 -2.08415 0
M  V30 1257 C 110.663 3.577 -3.80589 0
M  V30 1258 H 112.357 1.83899 -2.36266 0
M  V30 1259 H 109.903 0.883349 -1.13723 0
M  V30 1260 H 111.856 4.01775 -1.27103 0
M  V30 1261 H 110.58 3.25296 -0.291564 0
M  V30 1262 H 109.239 2.79351 -2.37399 0
M  V30 1263 H 108.887 4.91052 -1.0898 0
M  V30 1264 H 108.587 5.14992 -2.82943 0
M  V30 1265 H 110.111 5.73289 -2.10171 0
M  V30 1266 H 111.525 4.26293 -3.83337 0
M  V30 1267 H 109.922 3.91804 -4.54543 0
M  V30 1268 H 110.992 2.57328 -4.10987 0
M  V30 1269 N 112.336 1.25143 0.95797 0
M  V30 1270 C 113.268 1.01023 2.05735 0
M  V30 1271 C 114.281 -0.0236902 1.62783 0
M  V30 1272 O 115.47 0.21448 1.77207 0
M  V30 1273 C 112.57 0.504595 3.35122 0
M  V30 1274 C 111.743 1.6039 4.06932 0
M  V30 1275 C 110.802 1.09922 5.14591 0
M  V30 1276 O 109.828 1.79293 5.40225 0
M  V30 1277 N 111.03 -0.0612545 5.80468 0
M  V30 1278 H 113.795 1.95683 2.26998 0
M  V30 1279 H 111.356 1.16303 1.12629 0
M  V30 1280 H 113.348 0.151516 4.04416 0
M  V30 1281 H 111.918 -0.347989 3.10657 0
M  V30 1282 H 111.138 2.12872 3.31782 0
M  V30 1283 H 112.426 2.34252 4.51667 0
M  V30 1284 H 111.824 -0.640985 5.62057 0
M  V30 1285 H 110.381 -0.355395 6.5083 0
M  V30 1286 N 113.814 -1.1601 1.06675 0
M  V30 1287 C 115.054 -1.88304 0.795037 0
M  V30 1288 C 115.418 -1.80062 -0.666466 0
M  V30 1289 O 116.619 -2.47319 -1.05293 0
M  V30 1290 C 114.89 -3.33664 1.28076 0
M  V30 1291 S 116.449 -4.23768 1.13868 0
M  V30 1292 H 113.267 -0.649928 0.288296 0
M  V30 1293 H 115.869 -1.4001 1.36445 0
M  V30 1294 H 114.573 -3.37203 2.33927 0
M  V30 1295 H 114.104 -3.87009 0.706253 0
M  V30 1296 H 116.119 -4.96148 0.0719668 0
M  V30 1297 N 115.292 -0.849877 -1.32721 0
M  V30 1298 C 116.222 -0.306308 -2.31482 0
M  V30 1299 C 117.203 0.591952 -1.59468 0
M  V30 1300 O 118.388 0.513199 -1.87296 0
M  V30 1301 C 115.518 0.510204 -3.43532 0
M  V30 1302 C 114.472 -0.293209 -4.26994 0
M  V30 1303 C 113.798 0.647743 -5.30762 0
M  V30 1304 C 115.098 -1.51634 -4.99804 0
M  V30 1305 H 116.792 -1.13153 -2.77195 0
M  V30 1306 H 114.338 -0.545553 -1.33266 0
M  V30 1307 H 116.291 0.900856 -4.11658 0
M  V30 1308 H 115.015 1.36874 -2.96535 0
M  V30 1309 H 113.674 -0.665555 -3.60508 0
M  V30 1310 H 113.322 1.50299 -4.8002 0
M  V30 1311 H 113.022 0.11422 -5.87489 0
M  V30 1312 H 114.546 1.03567 -6.01753 0
M  V30 1313 H 115.96 -1.19824 -5.60638 0
M  V30 1314 H 114.357 -1.98745 -5.66234 0
M  V30 1315 H 115.427 -2.28018 -4.27943 0
M  V30 1316 N 116.77 1.45427 -0.607355 0
M  V30 1317 C 117.68 2.34325 0.113463 0
M  V30 1318 C 118.696 1.51226 0.860617 0
M  V30 1319 O 119.872 1.84029 0.818255 0
M  V30 1320 C 116.937 3.28839 1.09844 0
M  V30 1321 C 115.998 4.27844 0.353271 0
M  V30 1322 C 115.231 5.17842 1.29133 0
M  V30 1323 O 115.454 5.11264 2.52913 0
M  V30 1324 O 114.388 5.96713 0.788523 0
M  V30 1325 H 118.214 2.97364 -0.617094 0
M  V30 1326 H 115.799 1.44807 -0.367619 0
M  V30 1327 H 117.681 3.8708 1.66575 0
M  V30 1328 H 116.356 2.68365 1.81003 0
M  V30 1329 H 115.263 3.7322 -0.256494 0
M  V30 1330 H 116.596 4.91173 -0.317822 0
M  V30 1331 N 118.248 0.346503 1.53744 0
M  V30 1332 C 119.158 -0.517293 2.28826 0
M  V30 1333 C 120.174 -1.10935 1.3405 0
M  V30 1334 O 121.35 -1.1244 1.6709 0
M  V30 1335 C 118.415 -1.65098 3.04866 0
M  V30 1336 C 117.476 -1.0884 4.15274 0
M  V30 1337 C 116.709 -2.16806 4.87679 0
M  V30 1338 O 116.932 -3.3758 4.59778 0
M  V30 1339 O 115.866 -1.80934 5.74061 0
M  V30 1340 H 119.692 0.0931396 3.03557 0
M  V30 1341 H 117.277 0.111458 1.48984 0
M  V30 1342 H 119.159 -2.31053 3.5241 0
M  V30 1343 H 117.834 -2.24717 2.32989 0
M  V30 1344 H 116.741 -0.3933 3.72027 0
M  V30 1345 H 118.074 -0.537036 4.89261 0
M  V30 1346 N 119.726 -1.57421 0.075193 0
M  V30 1347 C 120.636 -2.1642 -0.905511 0
M  V30 1348 C 121.652 -1.12828 -1.32461 0
M  V30 1349 O 122.828 -1.45109 -1.39661 0
M  V30 1350 C 119.893 -2.71693 -2.15369 0
M  V30 1351 C 118.954 -3.90171 -1.79068 0
M  V30 1352 C 118.187 -4.42798 -2.97936 0
M  V30 1353 O 118.41 -3.94416 -4.12058 0
M  V30 1354 O 117.344 -5.34085 -2.77555 0
M  V30 1355 H 121.17 -3.00588 -0.433626 0
M  V30 1356 H 118.755 -1.48664 -0.148067 0
M  V30 1357 H 120.637 -3.07104 -2.88557 0
M  V30 1358 H 119.312 -1.90582 -2.61649 0
M  V30 1359 H 118.219 -3.59606 -1.03122 0
M  V30 1360 H 119.552 -4.72584 -1.37569 0
M  V30 1361 N 121.204 0.198386 -1.56346 0
M  V30 1362 C 122.134 1.24865 -1.9731 0
M  V30 1363 C 123.115 1.47651 -0.844576 0
M  V30 1364 O 124.3 1.59444 -1.10866 0
M  V30 1365 C 121.43 2.59358 -2.30977 0
M  V30 1366 C 120.384 2.5119 -3.46537 0
M  V30 1367 C 119.71 3.89926 -3.65871 0
M  V30 1368 C 121.01 2.03977 -4.80823 0
M  V30 1369 H 122.704 0.908252 -2.85291 0
M  V30 1370 H 120.25 0.435462 -1.37258 0
M  V30 1371 H 122.203 3.33011 -2.58228 0
M  V30 1372 H 120.927 2.95132 -1.39874 0
M  V30 1373 H 119.586 1.79993 -3.19371 0
M  V30 1374 H 119.234 4.23046 -2.72105 0
M  V30 1375 H 118.934 3.85336 -4.4361 0
M  V30 1376 H 120.458 4.65205 -3.95495 0
M  V30 1377 H 121.872 2.67386 -5.07127 0
M  V30 1378 H 120.269 2.10397 -5.62008 0
M  V30 1379 H 121.339 0.992861 -4.74626 0
M  V30 1380 N 122.682 1.50554 0.465978 0
M  V30 1381 C 123.629 1.6979 1.56333 0
M  V30 1382 C 124.599 0.539239 1.57103 0
M  V30 1383 O 125.784 0.770401 1.74555 0
M  V30 1384 C 122.924 1.80273 2.94271 0
M  V30 1385 C 122.037 3.07674 3.0325 0
M  V30 1386 C 121.172 3.08922 4.32135 0
M  V30 1387 C 120.211 4.30755 4.34875 0
M  V30 1388 N 119.348 4.29714 5.55239 0
M  V30 1389 H 124.188 2.63472 1.39235 0
M  V30 1390 H 121.725 1.30602 0.676873 0
M  V30 1391 H 123.683 1.84332 3.74269 0
M  V30 1392 H 122.313 0.900258 3.09992 0
M  V30 1393 H 121.365 3.13062 2.16094 0
M  V30 1394 H 122.677 3.97642 3.01135 0
M  V30 1395 H 121.831 3.11738 5.20485 0
M  V30 1396 H 120.57 2.16792 4.36866 0
M  V30 1397 H 119.575 4.28146 3.44922 0
M  V30 1398 H 120.8 5.24117 4.31831 0
M  V30 1399 H 118.746 3.4044 5.60746 0
M  V30 1400 H 118.663 5.13456 5.54886 0
M  V30 1401 H 119.931 4.36683 6.457 0
M  V30 1402 N 124.16 -0.719506 1.40217 0
M  V30 1403 C 125.571 -1.29848 1.34151 0
M  V30 1404 C 125.922 -1.96196 0.0131349 0
M  V30 1405 O 125.047 -1.973 -0.88892 0
M  V30 1406 C 125.642 -2.36118 2.42968 0
M  V30 1407 C 124.201 -2.8965 2.40374 0
M  V30 1408 C 123.348 -1.63393 2.24049 0
M  V30 1409 H 126.299 -0.51591 1.5008 0
M  V30 1410 H 126.32 -3.16871 2.10649 0
M  V30 1411 H 125.832 -1.878 3.39636 0
M  V30 1412 H 123.933 -3.42208 1.47392 0
M  V30 1413 H 124.046 -3.4171 3.35814 0
M  V30 1414 H 122.41 -1.88312 1.71495 0
M  V30 1415 H 123.193 -1.17104 3.2271 0
M  V30 1416 N 125.638 -1.25649 -0.95132 0
M  V30 1417 C 126.568 -1.08808 -2.06599 0
M  V30 1418 C 127.549 0.00382547 -1.701 0
M  V30 1419 O 128.734 -0.166325 -1.93486 0
M  V30 1420 C 125.864 -0.709542 -3.39975 0
M  V30 1421 C 124.818 -1.75206 -3.90496 0
M  V30 1422 C 124.144 -1.22811 -5.20405 0
M  V30 1423 C 125.444 -3.15153 -4.16504 0
M  V30 1424 H 127.138 -2.02048 -2.20946 0
M  V30 1425 H 124.684 -0.972835 -1.06169 0
M  V30 1426 H 126.637 -0.578649 -4.17408 0
M  V30 1427 H 125.361 0.258556 -3.25575 0
M  V30 1428 H 124.02 -1.87145 -3.15234 0
M  V30 1429 H 123.668 -0.250145 -5.02378 0
M  V30 1430 H 123.368 -1.92492 -5.55176 0
M  V30 1431 H 124.892 -1.10968 -6.00432 0
M  V30 1432 H 126.306 -3.06349 -4.84586 0
M  V30 1433 H 124.703 -3.82333 -4.62538 0
M  V30 1434 H 125.773 -3.61966 -3.22658 0
M  V30 1435 N 127.117 1.15442 -1.07289 0
M  V30 1436 C 128.027 2.23786 -0.704057 0
M  V30 1437 C 129.043 1.7166 0.284413 0
M  V30 1438 O 130.219 2.00972 0.131205 0
M  V30 1439 C 127.284 3.46535 -0.106792 0
M  V30 1440 C 126.345 4.13654 -1.14842 0
M  V30 1441 C 125.578 5.30544 -0.57956 0
M  V30 1442 O 125.801 5.67187 0.604585 0
M  V30 1443 O 124.735 5.87154 -1.32414 0
M  V30 1444 H 128.561 2.57664 -1.60757 0
M  V30 1445 H 126.146 1.23152 -0.845803 0
M  V30 1446 H 128.028 4.20804 0.224048 0
M  V30 1447 H 126.703 3.14407 0.770049 0
M  V30 1448 H 125.61 3.4131 -1.5316 0
M  V30 1449 H 126.943 4.49861 -1.99714 0
M  V30 1450 N 128.595 0.856903 1.32268 0
M  V30 1451 C 129.505 0.306131 2.32594 0
M  V30 1452 C 130.521 -0.577209 1.64147 0
M  V30 1453 O 131.697 -0.477043 1.95669 0
M  V30 1454 C 128.762 -0.494561 3.43154 0
M  V30 1455 C 127.823 0.415186 4.27288 0
M  V30 1456 C 127.056 -0.347387 5.32568 0
M  V30 1457 O 127.279 -1.57708 5.48165 0
M  V30 1458 O 126.213 0.287982 6.01211 0
M  V30 1459 H 130.039 1.13737 2.81598 0
M  V30 1460 H 127.624 0.619902 1.35932 0
M  V30 1461 H 129.506 -0.948944 4.10576 0
M  V30 1462 H 128.181 -1.30257 2.96336 0
M  V30 1463 H 127.088 0.917793 3.62667 0
M  V30 1464 H 128.421 1.18844 4.77637 0
M  V30 1465 N 130.073 -1.45103 0.615059 0
M  V30 1466 C 131.319 -2.02483 0.113347 0
M  V30 1467 C 131.652 -1.48146 -1.25564 0
M  V30 1468 O 130.927 -0.659104 -1.82992 0
M  V30 1469 C 131.21 -3.60005 0.0825278 0
M  V30 1470 C 131.063 -4.2466 1.48271 0
M  V30 1471 C 132.382 -4.35972 -0.601401 0
M  V30 1472 H 129.501 -0.735764 0.0426632 0
M  V30 1473 H 132.143 -1.72868 0.788461 0
M  V30 1474 H 130.293 -3.85367 -0.492378 0
M  V30 1475 H 131.965 -4.10458 2.10527 0
M  V30 1476 H 130.208 -3.82772 2.04127 0
M  V30 1477 H 130.879 -5.336 1.41332 0
M  V30 1478 H 133.355 -4.15947 -0.112666 0
M  V30 1479 H 132.231 -5.45697 -0.592097 0
M  V30 1480 H 132.492 -4.09391 -1.66887 0
M  V30 1481 N 131.551 -0.354651 -1.53558 0
M  V30 1482 C 132.481 0.489091 -2.2832 0
M  V30 1483 C 133.462 1.09324 -1.30316 0
M  V30 1484 O 134.647 1.11255 -1.59173 0
M  V30 1485 C 131.777 1.63456 -3.0643 0
M  V30 1486 C 130.731 1.1582 -4.12031 0
M  V30 1487 C 130.057 2.39305 -4.7816 0
M  V30 1488 C 131.357 0.250731 -5.21698 0
M  V30 1489 H 133.051 -0.134614 -2.99097 0
M  V30 1490 H 130.597 -0.0661826 -1.43848 0
M  V30 1491 H 132.55 2.23136 -3.57475 0
M  V30 1492 H 131.274 2.28533 -2.33325 0
M  V30 1493 H 129.933 0.584146 -3.61916 0
M  V30 1494 H 129.581 3.02814 -4.01637 0
M  V30 1495 H 129.281 2.08109 -5.49513 0
M  V30 1496 H 130.805 2.99691 -5.31994 0
M  V30 1497 H 132.219 0.754695 -5.68311 0
M  V30 1498 H 130.616 0.0301468 -6.00092 0
M  V30 1499 H 131.686 -0.710125 -4.79672 0
M  V30 1500 N 133.029 1.57378 -0.0835403 0
M  V30 1501 C 133.977 2.14602 0.89714 0
M  V30 1502 C 134.971 1.08589 1.30018 0
M  V30 1503 O 136.177 1.26952 1.27606 0
M  V30 1504 H 132.552 0.686346 0.3073 0
M  V30 1505 H 134.523 2.95845 0.38969 0
M  V30 1506 C 133.272 2.73188 2.15089 0
M  V30 1507 H 132.595 3.54442 1.84962 0
M  V30 1508 H 134.035 3.1681 2.81793 0
M  V30 1509 C 132.494 1.68517 2.91725 0
M  V30 1510 O 133.024 1.11718 3.85852 0
M  V30 1511 N 131.23 1.39277 2.55049 0
M  V30 1512 H 130.777 1.85655 1.78577 0
M  V30 1513 H 130.735 0.694791 3.06627 0
M  V30 1514 N 134.507 -0.190092 1.56449 0
M  V30 1515 C 135.437 -1.23816 1.97969 0
M  V30 1516 C 136.418 -1.47201 0.852395 0
M  V30 1517 O 137.603 -1.58854 1.1171 0
M  V30 1518 C 134.733 -2.5813 2.3235 0
M  V30 1519 C 133.687 -2.49348 3.47864 0
M  V30 1520 C 133.013 -3.8798 3.67934 0
M  V30 1521 C 134.313 -2.01424 4.81898 0
M  V30 1522 H 136.007 -0.89311 2.85769 0
M  V30 1523 H 133.553 -0.428177 1.37487 0
M  V30 1524 H 135.506 -3.31637 2.59991 0
M  V30 1525 H 134.23 -2.94386 1.41438 0
M  V30 1526 H 132.889 -1.78297 3.20321 0
M  V30 1527 H 132.537 -4.21597 2.74344 0
M  V30 1528 H 132.237 -3.82978 4.45648 0
M  V30 1529 H 133.761 -4.63101 3.97957 0
M  V30 1530 H 135.175 -2.64693 5.08538 0
M  V30 1531 H 133.572 -2.07413 5.63116 0
M  V30 1532 H 134.642 -0.967677 4.75146 0
M  V30 1533 N 135.985 -1.50799 -0.457987 0
M  V30 1534 C 136.948 -1.7005 -1.53674 0
M  V30 1535 C 137.948 -0.570881 -1.50325 0
M  V30 1536 O 139.138 -0.838126 -1.52712 0
M  V30 1537 C 136.27 -1.73788 -2.93276 0
M  V30 1538 H 137.463 -2.66306 -1.37917 0
M  V30 1539 H 135.016 -1.40477 -0.685271 0
M  V30 1540 H 135.751 -0.792717 -3.14462 0
M  V30 1541 H 135.536 -2.55864 -2.97113 0
M  V30 1542 H 137.026 -1.90591 -3.71571 0
M  V30 1543 N 137.463 0.71206 -1.40597 0
M  V30 1544 C 138.395 1.83704 -1.37061 0
M  V30 1545 C 139.408 1.60453 -0.275426 0
M  V30 1546 O 140.597 1.70262 -0.53602 0
M  V30 1547 C 137.697 3.20172 -1.11099 0
M  V30 1548 C 136.87 3.7059 -2.3234 0
M  V30 1549 C 135.929 4.85681 -2.02485 0
M  V30 1550 O 134.955 4.9815 -2.75382 0
M  V30 1551 N 136.157 5.71735 -1.00497 0
M  V30 1552 H 138.922 1.87235 -2.34016 0
M  V30 1553 H 136.483 0.893739 -1.34996 0
M  V30 1554 H 138.475 3.94768 -0.891064 0
M  V30 1555 H 137.045 3.11767 -0.227989 0
M  V30 1556 H 136.265 2.87085 -2.7014 0
M  V30 1557 H 137.553 4.01011 -3.13157 0
M  V30 1558 H 136.951 5.64275 -0.401298 0
M  V30 1559 H 135.508 6.463 -0.844942 0
M  V30 1560 N 138.941 1.26152 0.944643 0
M  V30 1561 C 140.166 1.14363 1.7302 0
M  V30 1562 C 140.591 -0.29772 1.85729 0
M  V30 1563 O 139.949 -1.2157 1.34501 0
M  V30 1564 C 139.997 1.81378 3.11664 0
M  V30 1565 O 139.101 1.10022 3.97453 0
M  V30 1566 H 138.442 0.398694 0.53098 0
M  V30 1567 H 140.972 1.66906 1.18337 0
M  V30 1568 H 140.982 1.88064 3.62072 0
M  V30 1569 H 139.657 2.86237 3.0173 0
M  V30 1570 H 138.234 1.11287 3.55907 0
M  V30 1571 N 140.419 -1.14872 1.07899 0
M  V30 1572 C 141.366 -2.19791 0.704319 0
M  V30 1573 C 142.336 -1.63238 -0.306987 0
M  V30 1574 O 143.521 -1.8983 -0.192171 0
M  V30 1575 C 140.661 -3.44911 0.114244 0
M  V30 1576 C 139.774 -4.15637 1.1777 0
M  V30 1577 C 138.909 -5.28324 0.552037 0
M  V30 1578 C 137.948 -5.90875 1.59789 0
M  V30 1579 N 137.085 -6.95022 0.994404 0
M  V30 1580 H 141.925 -2.5119 1.60336 0
M  V30 1581 H 139.462 -1.23356 0.801352 0
M  V30 1582 H 141.42 -4.16477 -0.245544 0
M  V30 1583 H 140.05 -3.14011 -0.74813 0
M  V30 1584 H 139.102 -3.42512 1.65499 0
M  V30 1585 H 140.414 -4.5823 1.97046 0
M  V30 1586 H 139.568 -6.06538 0.1402 0
M  V30 1587 H 138.307 -4.86939 -0.272431 0
M  V30 1588 H 137.312 -5.11369 2.01945 0
M  V30 1589 H 138.537 -6.34337 2.42474 0
M  V30 1590 H 136.483 -6.55722 0.190939 0
M  V30 1591 H 136.4 -7.36073 1.72432 0
M  V30 1592 H 137.668 -7.77123 0.608253 0
M  V30 1593 N 141.898 -0.863906 -1.31812 0
M  V30 1594 C 142.846 -0.30422 -2.30602 0
M  V30 1595 C 143.84 0.577419 -1.59255 0
M  V30 1596 O 145.046 0.464194 -1.73912 0
M  V30 1597 H 141.421 -0.0796877 -0.747766 0
M  V30 1598 H 143.392 -1.15148 -2.75288 0
M  V30 1599 C 142.141 0.484617 -3.44306 0
M  V30 1600 H 141.464 -0.18451 -3.99374 0
M  V30 1601 H 142.904 0.841664 -4.15562 0
M  V30 1602 C 141.363 1.6735 -2.92396 0
M  V30 1603 O 141.893 2.77273 -2.90659 0
M  V30 1604 N 140.099 1.50362 -2.48676 0
M  V30 1605 H 139.646 0.609402 -2.50288 0
M  V30 1606 H 139.604 2.30051 -2.14299 0
M  V30 1607 N 143.376 1.44774 -0.622745 0
M  V30 1608 C 144.623 2.02121 -0.1239 0
M  V30 1609 C 144.951 1.48915 1.25118 0
M  V30 1610 O 144.206 0.660045 1.84233 0
M  V30 1611 C 144.505 3.57364 -0.0508323 0
M  V30 1612 C 144.171 4.29787 -1.36358 0
M  V30 1613 C 142.833 4.4929 -1.72314 0
M  V30 1614 C 145.185 4.71062 -2.23048 0
M  V30 1615 C 142.513 5.07325 -2.94682 0
M  V30 1616 C 144.865 5.30452 -3.44679 0
M  V30 1617 C 143.529 5.48175 -3.80868 0
M  V30 1618 H 142.799 0.739612 -0.0453381 0
M  V30 1619 H 145.446 1.73648 -0.807389 0
M  V30 1620 H 143.751 3.85202 0.715991 0
M  V30 1621 H 145.448 3.99456 0.351533 0
M  V30 1622 H 142.038 4.14932 -1.07375 0
M  V30 1623 H 146.222 4.55715 -1.96565 0
M  V30 1624 H 141.478 5.19235 -3.22809 0
M  V30 1625 H 145.652 5.61385 -4.12092 0
M  V30 1626 H 143.279 5.92912 -4.75773 0
M  V30 1627 N 144.854 0.36279 1.53368 0
M  V30 1628 C 145.804 -0.501391 2.22419 0
M  V30 1629 C 146.788 -1.0509 1.2184 0
M  V30 1630 O 147.98 -0.981404 1.47301 0
M  V30 1631 C 145.109 -1.64201 3.01484 0
M  V30 1632 C 144.195 -1.10552 4.09438 0
M  V30 1633 N 144.586 -0.291788 5.04958 0
M  V30 1634 C 142.884 -1.3806 4.24094 0
M  V30 1635 C 143.585 0.00162655 5.817 0
M  V30 1636 N 142.561 -0.595244 5.40331 0
M  V30 1637 H 146.363 0.127159 2.93625 0
M  V30 1638 H 143.877 0.170658 1.61501 0
M  V30 1639 H 145.874 -2.27326 3.49469 0
M  V30 1640 H 144.534 -2.27365 2.31809 0
M  V30 1641 H 145.545 0.0687731 5.17854 0
M  V30 1642 H 142.222 -2.01522 3.65644 0
M  V30 1643 H 143.612 0.659278 6.68658 0
M  V30 1644 N 146.332 -1.57332 0.0918853 0
M  V30 1645 C 147.262 -2.16872 -0.865371 0
M  V30 1646 C 148.243 -1.10118 -1.29646 0
M  V30 1647 O 149.428 -1.38242 -1.36392 0
M  V30 1648 C 146.558 -2.74649 -2.12569 0
M  V30 1649 C 145.512 -3.86747 -1.83333 0
M  V30 1650 C 144.838 -4.31212 -3.16166 0
M  V30 1651 C 146.138 -5.10089 -1.1228 0
M  V30 1652 H 147.832 -2.97114 -0.369307 0
M  V30 1653 H 145.378 -1.42918 -0.176194 0
M  V30 1654 H 147.331 -3.14952 -2.7997 0
M  V30 1655 H 146.055 -1.91657 -2.64452 0
M  V30 1656 H 144.714 -3.46978 -1.18331 0
M  V30 1657 H 144.362 -3.45115 -3.6593 0
M  V30 1658 H 144.062 -5.06788 -2.97388 0
M  V30 1659 H 145.586 -4.74146 -3.84731 0
M  V30 1660 H 147 -5.47582 -1.69785 0
M  V30 1661 H 145.397 -5.91073 -1.03693 0
M  V30 1662 H 146.467 -4.84786 -0.105041 0
M  V30 1663 N 147.81 0.181792 -1.56548 0
M  V30 1664 C 149.226 0.53316 -1.50431 0
M  V30 1665 C 149.426 1.85184 -0.794297 0
M  V30 1666 O 148.482 2.50058 -0.350318 0
M  V30 1667 C 149.795 0.575597 -2.9514 0
M  V30 1668 C 151.343 0.663519 -3.05886 0
M  V30 1669 C 151.818 0.736946 -4.52032 0
M  V30 1670 N 153.309 0.800118 -4.56237 0
M  V30 1671 C 154.044 0.877327 -5.66649 0
M  V30 1672 N 153.54 0.916016 -6.86718 0
M  V30 1673 N 155.333 0.915542 -5.54594 0
M  V30 1674 H 147.484 -0.683025 -2.01118 0
M  V30 1675 H 149.747 -0.244988 -0.915797 0
M  V30 1676 H 149.453 -0.324482 -3.502 0
M  V30 1677 H 149.327 1.42572 -3.49218 0
M  V30 1678 H 151.714 1.55403 -2.50867 0
M  V30 1679 H 151.795 -0.21307 -2.54911 0
M  V30 1680 H 151.439 -0.149262 -5.07681 0
M  V30 1681 H 151.369 1.62953 -5.00753 0
M  V30 1682 H 153.86 0.778926 -3.69785 0
M  V30 1683 H 154.173 0.975813 -7.66614 0
M  V30 1684 H 152.518 0.884469 -6.89349 0
M  V30 1685 H 155.709 0.882245 -4.59711 0
M  V30 1686 H 155.882 0.972253 -6.40665 0
M  V30 1687 N 149.288 1.51039 0.449983 0
M  V30 1688 C 150.699 1.557 1.03026 0
M  V30 1689 C 151.05 0.372939 1.92623 0
M  V30 1690 O 150.175 -0.511771 2.10261 0
M  V30 1691 C 150.77 2.82171 1.87523 0
M  V30 1692 C 149.329 2.89444 2.40622 0
M  V30 1693 C 148.476 2.50228 1.19504 0
M  V30 1694 H 151.427 1.56999 0.231745 0
M  V30 1695 H 151.448 2.65219 2.72835 0
M  V30 1696 H 150.96 3.68331 1.22286 0
M  V30 1697 H 149.061 2.07685 3.0935 0
M  V30 1698 H 149.174 3.92816 2.74285 0
M  V30 1699 H 147.538 2.03139 1.53644 0
M  V30 1700 H 148.321 3.38719 0.558972 0
M  V30 1701 N 150.766 -0.704594 1.40972 0
M  V30 1702 C 152.182 -1.01406 1.23244 0
M  V30 1703 C 152.382 -2.01169 0.115399 0
M  V30 1704 O 151.438 -2.47021 -0.523147 0
M  V30 1705 C 152.751 -1.54728 2.57836 0
M  V30 1706 C 154.299 -1.66658 2.64942 0
M  V30 1707 C 154.774 -2.23383 3.9983 0
M  V30 1708 N 156.265 -2.30756 4.01629 0
M  V30 1709 C 157 -2.75655 5.02794 0
M  V30 1710 N 156.496 -3.20225 6.14352 0
M  V30 1711 N 158.289 -2.75138 4.90159 0
M  V30 1712 H 150.44 -0.0435285 2.12355 0
M  V30 1713 H 152.703 -0.0818951 0.944456 0
M  V30 1714 H 152.409 -0.888832 3.40283 0
M  V30 1715 H 152.283 -2.53084 2.79693 0
M  V30 1716 H 154.67 -2.31617 1.8286 0
M  V30 1717 H 154.751 -0.668717 2.46904 0
M  V30 1718 H 154.395 -1.59043 4.82357 0
M  V30 1719 H 154.325 -3.23904 4.15203 0
M  V30 1720 H 156.816 -1.99291 3.21079 0
M  V30 1721 H 157.129 -3.53084 6.87424 0
M  V30 1722 H 155.474 -3.18156 6.17901 0
M  V30 1723 H 158.665 -2.39661 4.02095 0
M  V30 1724 H 158.838 -3.09812 5.6914 0
M  V30 1725 N 152.244 -1.26651 -0.937939 0
M  V30 1726 C 153.521 -1.0313 -1.66204 0
M  V30 1727 C 153.901 0.437256 -2.06522 0
M  V30 1728 O 153.249 1.41831 -1.79154 0
M  V30 1729 C 153.459 -1.98314 -2.87181 0
M  V30 1730 C 154.807 -2.27107 -3.58758 0
M  V30 1731 O 155.831 -1.96205 -2.97291 0
M  V30 1732 O 154.69 -2.79736 -4.69479 0
M  V30 1733 H 151.784 -0.392384 -0.727986 0
M  V30 1734 H 154.33 -1.37874 -0.989382 0
M  V30 1735 H 153.102 -2.97399 -2.54302 0
M  V30 1736 H 152.725 -1.64068 -3.6217 0
M  V30 1737 N 153.722 1.14298 -1.08507 0
M  V30 1738 C 154.652 2.21542 -0.737646 0
M  V30 1739 C 155.633 1.67773 0.280377 0
M  V30 1740 O 156.818 1.93616 0.150521 0
M  V30 1741 C 153.948 3.46988 -0.147259 0
M  V30 1742 C 152.902 4.13789 -1.09374 0
M  V30 1743 C 152.228 5.33449 -0.365524 0
M  V30 1744 C 153.528 4.62208 -2.4323 0
M  V30 1745 H 155.222 2.5086 -1.6343 0
M  V30 1746 H 152.768 1.20576 -0.787243 0
M  V30 1747 H 154.721 4.21262 0.107808 0
M  V30 1748 H 153.445 3.17037 0.784538 0
M  V30 1749 H 152.104 3.4147 -1.33393 0
M  V30 1750 H 151.752 4.99759 0.57011 0
M  V30 1751 H 151.452 5.79088 -0.996512 0
M  V30 1752 H 152.976 6.10485 -0.118534 0
M  V30 1753 H 154.39 5.27952 -2.23472 0
M  V30 1754 H 152.787 5.18553 -3.02031 0
M  V30 1755 H 153.857 3.77224 -3.04681 0
M  V30 1756 N 155.201 0.870884 1.31352 0
M  V30 1757 C 156.45 0.478408 1.95944 0
M  V30 1758 C 156.763 -0.974493 1.69597 0
M  V30 1759 O 157.969 -1.47316 2.28058 0
M  V30 1760 C 156.425 0.804609 3.50791 0
M  V30 1761 C 156.033 2.27433 3.85977 0
M  V30 1762 C 157.777 0.480648 4.2177 0
M  V30 1763 C 155.684 2.5429 5.33939 0
M  V30 1764 H 154.614 0.175175 0.733369 0
M  V30 1765 H 157.265 1.06391 1.4951 0
M  V30 1766 H 155.647 0.148347 3.95722 0
M  V30 1767 H 156.821 2.97373 3.52002 0
M  V30 1768 H 155.136 2.56442 3.28065 0
M  V30 1769 H 157.733 0.658519 5.30629 0
M  V30 1770 H 158.076 -0.578979 4.12254 0
M  V30 1771 H 158.609 1.09349 3.82476 0
M  V30 1772 H 155.348 3.58939 5.48491 0
M  V30 1773 H 154.868 1.88945 5.69263 0
M  V30 1774 H 156.547 2.39066 6.01212 0
M  V30 1775 N 156.679 -1.44442 0.630414 0
M  V30 1776 C 157.904 -2.06927 0.139944 0
M  V30 1777 C 158.329 -1.46795 -1.17613 0
M  V30 1778 O 157.687 -0.569144 -1.72135 0
M  V30 1779 C 157.735 -3.6058 0.0379581 0
M  V30 1780 O 156.839 -3.99937 -1.0062 0
M  V30 1781 H 156.18 -0.658608 0.0844483 0
M  V30 1782 H 158.71 -1.85327 0.866891 0
M  V30 1783 H 158.72 -4.07714 -0.152856 0
M  V30 1784 H 157.395 -4.03728 0.998809 0
M  V30 1785 H 155.972 -3.64436 -0.79001 0
M  V30 1786 N 158.157 -0.370918 -1.53173 0
M  V30 1787 C 159.105 0.488101 -2.27421 0
M  V30 1788 C 160.099 1.07884 -1.30604 0
M  V30 1789 O 161.305 1.02143 -1.48212 0
M  V30 1790 H 157.68 0.176134 -0.731082 0
M  V30 1791 H 159.651 -0.159815 -2.97972 0
M  V30 1792 C 158.4 1.61306 -3.08019 0
M  V30 1793 H 157.723 1.1678 -3.82364 0
M  V30 1794 H 159.163 2.18872 -3.63141 0
M  V30 1795 C 157.622 2.55848 -2.19188 0
M  V30 1796 O 158.152 3.58799 -1.80626 0
M  V30 1797 N 156.358 2.2516 -1.83715 0
M  V30 1798 H 155.905 1.41476 -2.15273 0
M  V30 1799 H 155.863 2.8867 -1.24567 0
M  V30 1800 N 159.635 1.57281 -0.100228 0
M  V30 1801 C 160.884 1.93713 0.561984 0
M  V30 1802 C 161.197 0.984492 1.69018 0
M  V30 1803 O 162.403 1.24273 2.41389 0
M  V30 1804 C 160.859 3.4421 1.05106 0
M  V30 1805 C 160.467 4.47975 -0.0476628 0
M  V30 1806 C 162.211 3.89595 1.68571 0
M  V30 1807 C 160.118 5.89631 0.457055 0
M  V30 1808 H 159.048 0.723082 0.2137 0
M  V30 1809 H 161.699 1.82644 -0.177057 0
M  V30 1810 H 160.081 3.50449 1.84395 0
M  V30 1811 H 161.255 4.53385 -0.823333 0
M  V30 1812 H 159.57 4.1223 -0.587816 0
M  V30 1813 H 162.167 4.92832 2.07414 0
M  V30 1814 H 162.51 3.28526 2.55688 0
M  V30 1815 H 163.043 3.86078 0.958562 0
M  V30 1816 H 159.782 6.54411 -0.377616 0
M  V30 1817 H 159.302 5.87681 1.19962 0
M  V30 1818 H 160.981 6.40363 0.92437 0
M  V30 1819 N 161.113 -0.173488 1.56642 0
M  V30 1820 C 162.061 -1.23417 1.97157 0
M  V30 1821 C 163.055 -1.45946 0.860013 0
M  V30 1822 O 164.261 -1.46551 1.04512 0
M  V30 1823 H 160.636 -0.414818 0.62724 0
M  V30 1824 H 162.607 -0.865582 2.8557 0
M  V30 1825 C 161.356 -2.5665 2.34576 0
M  V30 1826 H 160.679 -2.40137 3.19647 0
M  V30 1827 H 162.119 -3.2956 2.6677 0
M  V30 1828 C 160.578 -3.15245 1.18836 0
M  V30 1829 O 161.108 -3.98883 0.474869 0
M  V30 1830 N 159.314 -2.74303 0.959497 0
M  V30 1831 H 158.861 -2.0639 1.54146 0
M  V30 1832 H 158.819 -3.13844 0.186932 0
M  V30 1833 N 162.591 -1.51276 -0.441967 0
M  V30 1834 C 163.837 -1.63958 -1.19355 0
M  V30 1835 C 164.17 -0.352543 -1.90973 0
M  V30 1836 O 163.445 0.647627 -1.83401 0
M  V30 1837 C 163.728 -2.83979 -2.21422 0
M  V30 1838 C 163.581 -4.22646 -1.53918 0
M  V30 1839 C 164.9 -2.99521 -3.22451 0
M  V30 1840 H 162.019 -0.596709 -0.432559 0
M  V30 1841 H 164.661 -1.83748 -0.483398 0
M  V30 1842 H 162.811 -2.67237 -2.81987 0
M  V30 1843 H 164.483 -4.51045 -0.967256 0
M  V30 1844 H 162.726 -4.25558 -0.841615 0
M  V30 1845 H 163.397 -5.02609 -2.28229 0
M  V30 1846 H 165.873 -3.14944 -2.71937 0
M  V30 1847 H 164.749 -3.85072 -3.91166 0
M  V30 1848 H 165.01 -2.11391 -3.88287 0
M  V30 1849 N 164.069 0.697108 -1.41344 0
M  V30 1850 C 165.318 1.45279 -1.39918 0
M  V30 1851 C 165.631 1.95597 -0.0109624 0
M  V30 1852 O 166.837 2.71208 0.125919 0
M  V30 1853 C 165.293 2.62695 -2.46007 0
M  V30 1854 C 164.901 2.19169 -3.90729 0
M  V30 1855 C 166.645 3.40336 -2.53715 0
M  V30 1856 C 164.552 3.33535 -4.88373 0
M  V30 1857 H 163.482 0.545692 -0.520323 0
M  V30 1858 H 166.133 0.756929 -1.67161 0
M  V30 1859 H 164.515 3.34541 -2.11892 0
M  V30 1860 H 165.689 1.54623 -4.34083 0
M  V30 1861 H 164.004 1.54525 -3.86666 0
M  V30 1862 H 166.601 4.2547 -3.2385 0
M  V30 1863 H 166.944 3.85418 -1.5735 0
M  V30 1864 H 167.477 2.75546 -2.86913 0
M  V30 1865 H 164.216 2.93468 -5.86137 0
M  V30 1866 H 163.736 3.96936 -4.49668 0
M  V30 1867 H 165.415 3.99335 -5.09059 0
M  V30 1868 N 165.547 1.27147 0.931209 0
M  V30 1869 C 166.793 1.13446 1.68101 0
M  V30 1870 C 167.126 -0.319628 1.91552 0
M  V30 1871 O 166.401 -1.23407 1.50336 0
M  V30 1872 C 166.684 1.91482 3.0497 0
M  V30 1873 C 166.537 3.44855 2.88782 0
M  V30 1874 C 167.856 1.71651 4.05246 0
M  V30 1875 H 164.975 0.413498 0.610072 0
M  V30 1876 H 167.617 1.56261 1.08086 0
M  V30 1877 H 165.767 1.55095 3.56199 0
M  V30 1878 H 167.439 3.9105 2.44698 0
M  V30 1879 H 165.682 3.71373 2.24198 0
M  V30 1880 H 166.353 3.94694 3.85902 0
M  V30 1881 H 168.829 2.0337 3.63015 0
M  V30 1882 H 167.705 2.28651 4.99009 0
M  V30 1883 H 167.966 0.663555 4.37092 0
M  V30 1884 N 167.025 -1.13721 1.09112 0
M  V30 1885 C 167.955 -2.21148 0.749385 0
M  V30 1886 C 168.936 -1.6792 -0.271475 0
M  V30 1887 O 170.121 -1.93693 -0.140251 0
M  V30 1888 C 167.251 -3.46905 0.165659 0
M  V30 1889 C 166.205 -4.13203 1.11567 0
M  V30 1890 C 165.531 -5.33248 0.393809 0
M  V30 1891 C 166.831 -4.60912 2.45678 0
M  V30 1892 H 168.525 -2.4999 1.64758 0
M  V30 1893 H 166.071 -1.20156 0.793626 0
M  V30 1894 H 168.024 -4.21313 -0.085466 0
M  V30 1895 H 166.748 -3.17449 -0.767714 0
M  V30 1896 H 165.407 -3.40758 1.35202 0
M  V30 1897 H 165.055 -5.00054 -0.543599 0
M  V30 1898 H 164.755 -5.78552 1.02721 0
M  V30 1899 H 166.279 -6.10413 0.150908 0
M  V30 1900 H 167.693 -5.26759 2.26269 0
M  V30 1901 H 166.09 -5.16944 3.04776 0
M  V30 1902 H 167.16 -3.75603 3.06677 0
M  V30 1903 N 168.503 -0.877838 -1.30888 0
M  V30 1904 C 169.413 -0.343096 -2.32078 0
M  V30 1905 C 170.429 0.551022 -1.65045 0
M  V30 1906 O 171.605 0.445854 -1.96403 0
M  V30 1907 C 168.67 0.439905 -3.43898 0
M  V30 1908 C 167.731 -0.483111 -4.26573 0
M  V30 1909 C 166.964 0.262616 -5.33053 0
M  V30 1910 O 167.187 1.48967 -5.50604 0
M  V30 1911 O 166.121 -0.383593 -6.00676 0
M  V30 1912 H 169.947 -1.18203 -2.79753 0
M  V30 1913 H 167.532 -0.64145 -1.34929 0
M  V30 1914 H 169.414 0.883504 -4.12034 0
M  V30 1915 H 168.089 1.25526 -2.98371 0
M  V30 1916 H 166.996 -0.975374 -3.61161 0
M  V30 1917 H 168.329 -1.26427 -4.75686 0
M  V30 1918 N 169.982 1.44106 -0.638065 0
M  V30 1919 C 170.912 2.33448 0.0494287 0
M  V30 1920 C 171.893 1.48606 0.827672 0
M  V30 1921 O 173.078 1.77308 0.792173 0
M  V30 1922 C 170.208 3.31771 1.02691 0
M  V30 1923 C 169.162 4.26485 0.359823 0
M  V30 1924 C 168.488 5.14729 1.44769 0
M  V30 1925 C 169.788 5.17056 -0.738296 0
M  V30 1926 H 171.482 2.91183 -0.696636 0
M  V30 1927 H 169.028 1.40014 -0.336456 0
M  V30 1928 H 170.981 3.93161 1.51666 0
M  V30 1929 H 169.705 2.7226 1.80395 0
M  V30 1930 H 168.364 3.66437 -0.10934 0
M  V30 1931 H 168.012 4.51566 2.21578 0
M  V30 1932 H 167.712 5.78913 1.00668 0
M  V30 1933 H 169.236 5.78991 1.93911 0
M  V30 1934 H 170.65 5.72342 -0.331354 0
M  V30 1935 H 169.047 5.89879 -1.10286 0
M  V30 1936 H 170.117 4.57652 -1.60258 0
M  V30 1937 N 171.46 0.379036 1.52974 0
M  V30 1938 C 172.407 -0.461048 2.26148 0
M  V30 1939 C 173.377 -1.06637 1.27349 0
M  V30 1940 O 174.562 -1.09633 1.56157 0
M  V30 1941 C 171.702 -1.58782 3.06402 0
M  V30 1942 C 170.815 -1.00636 4.20115 0
M  V30 1943 C 169.95 -2.10334 4.87784 0
M  V30 1944 C 168.989 -1.49724 5.93506 0
M  V30 1945 N 168.126 -2.5331 6.54812 0
M  V30 1946 H 172.966 0.169429 2.97518 0
M  V30 1947 H 170.503 0.0953806 1.4679 0
M  V30 1948 H 172.461 -2.25174 3.51215 0
M  V30 1949 H 171.091 -2.18876 2.37261 0
M  V30 1950 H 170.143 -0.232332 3.7969 0
M  V30 1951 H 171.455 -0.523343 4.96047 0
M  V30 1952 H 170.609 -2.84519 5.35849 0
M  V30 1953 H 169.348 -2.61992 4.11353 0
M  V30 1954 H 168.353 -0.740598 5.44789 0
M  V30 1955 H 169.578 -0.988732 6.71864 0
M  V30 1956 H 167.524 -3.04156 5.81227 0
M  V30 1957 H 167.441 -2.09734 7.26325 0
M  V30 1958 H 168.709 -3.27155 7.07524 0
M  V30 1959 N 172.938 -1.57226 0.108567 0
M  V30 1960 C 174.186 -1.94448 -0.550853 0
M  V30 1961 C 174.507 -0.992074 -1.67878 0
M  V30 1962 O 173.777 -0.0465 -1.95845 0
M  V30 1963 H 172.357 -0.717897 -0.206479 0
M  V30 1964 H 175.019 -1.94112 0.175062 0
M  V30 1965 H 174.115 -2.97218 -0.952259 0
M  V30 1966 N 174.416 0.165178 -1.56732 0
M  V30 1967 C 175.641 0.900253 -1.86843 0
M  V30 1968 C 176.066 1.74766 -0.695596 0
M  V30 1969 O 175.424 1.77786 0.35522 0
M  V30 1970 C 175.472 1.74777 -3.15413 0
M  V30 1971 O 174.576 2.85007 -2.98068 0
M  V30 1972 H 173.917 0.251832 -0.614391 0
M  V30 1973 H 176.447 0.161468 -2.03962 0
M  V30 1974 H 176.457 2.14646 -3.46974 0
M  V30 1975 H 175.132 1.12537 -4.00385 0
M  V30 1976 H 173.709 2.48676 -2.77875 0
M  V30 1977 N 175.894 1.51508 0.433938 0
M  V30 1978 C 176.804 1.75917 1.5521 0
M  V30 1979 C 177.82 0.643545 1.61662 0
M  V30 1980 O 178.996 0.926183 1.7884 0
M  V30 1981 C 176.061 1.88213 2.91164 0
M  V30 1982 C 175.122 3.12074 2.94802 0
M  V30 1983 C 174.355 3.23774 4.24271 0
M  V30 1984 O 174.578 2.4133 5.16833 0
M  V30 1985 O 173.512 4.16774 4.34262 0
M  V30 1986 H 177.338 2.70777 1.37527 0
M  V30 1987 H 174.923 1.36051 0.617293 0
M  V30 1988 H 176.805 1.98267 3.71845 0
M  V30 1989 H 175.48 0.965413 3.08968 0
M  V30 1990 H 174.387 3.07497 2.13065 0
M  V30 1991 H 175.72 4.03446 2.81943 0
M  V30 1992 N 177.372 -0.689602 1.41712 0
M  V30 1993 C 178.6 -1.47827 1.44758 0
M  V30 1994 C 179.015 -1.88721 0.0545703 0
M  V30 1995 O 178.372 -1.57176 -0.927463 0
M  V30 1996 C 178.423 -2.73698 2.3616 0
M  V30 1997 O 178.144 -2.34524 3.7004 0
M  V30 1998 C 179.645 -3.67389 2.48072 0
M  V30 1999 H 176.865 -0.455357 0.49284 0
M  V30 2000 H 179.409 -0.848574 1.86063 0
M  V30 2001 H 177.564 -3.32891 1.98148 0
M  V30 2002 H 177.978 -3.15701 4.18847 0
M  V30 2003 H 179.452 -4.52475 3.16181 0
M  V30 2004 H 179.929 -4.12284 1.51388 0
M  V30 2005 H 180.535 -3.14097 2.86746 0
M  V30 2006 N 178.85 -1.27639 -0.924453 0
M  V30 2007 C 180.078 -1.16989 -1.70649 0
M  V30 2008 C 180.493 0.272869 -1.86818 0
M  V30 2009 O 179.85 1.18549 -1.38753 0
M  V30 2010 C 179.901 -1.85229 -3.10439 0
M  V30 2011 O 179.622 -3.23868 -2.95028 0
M  V30 2012 C 181.123 -1.80746 -4.04779 0
M  V30 2013 H 178.343 -0.406595 -0.53378 0
M  V30 2014 H 180.887 -1.68569 -1.15778 0
M  V30 2015 H 179.042 -1.37545 -3.6216 0
M  V30 2016 H 179.456 -3.57889 -3.83426 0
M  V30 2017 H 180.93 -2.33101 -5.00368 0
M  V30 2018 H 181.407 -0.777499 -4.32263 0
M  V30 2019 H 182.013 -2.28059 -3.58984 0
M  V30 2020 N 180.328 1.1314 -1.09713 0
M  V30 2021 C 181.575 1.84484 -0.834987 0
M  V30 2022 C 181.903 1.83689 0.639418 0
M  V30 2023 O 181.158 1.2724 1.4869 0
M  V30 2024 C 181.457 3.32167 -1.3191 0
M  V30 2025 C 181.123 3.53139 -2.80363 0
M  V30 2026 C 179.785 3.58571 -3.20905 0
M  V30 2027 C 182.137 3.60866 -3.76065 0
M  V30 2028 C 179.465 3.69267 -4.55916 0
M  V30 2029 C 181.817 3.73089 -5.10869 0
M  V30 2030 C 180.481 3.76775 -5.50996 0
M  V30 2031 H 179.751 0.675073 -0.305544 0
M  V30 2032 H 182.398 1.33554 -1.37243 0
M  V30 2033 H 180.703 3.85469 -0.701517 0
M  V30 2034 H 182.4 3.85821 -1.09284 0
M  V30 2035 H 178.99 3.49569 -2.47991 0
M  V30 2036 H 183.174 3.55946 -3.45855 0
M  V30 2037 H 178.43 3.70388 -4.86438 0
M  V30 2038 H 182.604 3.78011 -5.84877 0
M  V30 2039 H 180.231 3.84815 -6.55608 0
M  V30 2040 N 181.806 0.884767 1.30421 0
M  V30 2041 C 182.739 0.295999 2.26272 0
M  V30 2042 C 183.717 -0.58332 1.51777 0
M  V30 2043 O 184.901 -0.53346 1.80794 0
M  V30 2044 C 182.028 -0.57944 3.33707 0
M  V30 2045 C 181.074 0.230525 4.25877 0
M  V30 2046 S 181.907 1.61867 5.1045 0
M  V30 2047 C 183.063 0.749756 6.21393 0
M  V30 2048 H 183.296 1.10848 2.75862 0
M  V30 2049 H 180.829 0.684178 1.38414 0
M  V30 2050 H 182.787 -1.07879 3.96071 0
M  V30 2051 H 181.448 -1.36601 2.82841 0
M  V30 2052 H 180.641 -0.437542 5.02097 0
M  V30 2053 H 180.243 0.662493 3.68086 0
M  V30 2054 H 182.535 -0.0333547 6.77492 0
M  V30 2055 H 183.478 1.48356 6.92384 0
M  V30 2056 H 183.886 0.310751 5.63644 0
M  V30 2057 N 183.284 -1.43765 0.645699 0
M  V30 2058 C 184.524 -2.03776 0.159542 0
M  V30 2059 C 184.888 -1.49792 -1.2011 0
M  V30 2060 O 186.089 -2.01398 -1.78023 0
M  V30 2061 C 184.36 -3.57036 0.161251 0
M  V30 2062 S 185.919 -4.3804 -0.258159 0
M  V30 2063 H 182.737 -0.707717 0.0682454 0
M  V30 2064 H 185.339 -1.75941 0.852352 0
M  V30 2065 H 184.043 -3.9383 1.15439 0
M  V30 2066 H 183.574 -3.89503 -0.552339 0
M  V30 2067 H 185.589 -4.7302 -1.49889 0
M  V30 2068 N 184.763 -0.387143 -1.52771 0
M  V30 2069 C 185.673 0.456442 -2.30117 0
M  V30 2070 C 186.689 1.07342 -1.36944 0
M  V30 2071 O 187.865 1.07971 -1.70013 0
M  V30 2072 C 184.93 1.56957 -3.09136 0
M  V30 2073 C 183.991 0.977916 -4.18014 0
M  V30 2074 C 183.224 2.038 -4.93256 0
M  V30 2075 O 183.447 3.25271 -4.68567 0
M  V30 2076 O 182.381 1.6565 -5.78657 0
M  V30 2077 H 186.207 -0.17359 -3.03203 0
M  V30 2078 H 183.792 -0.150919 -1.48636 0
M  V30 2079 H 185.674 2.21628 -3.58412 0
M  V30 2080 H 184.349 2.18461 -2.38865 0
M  V30 2081 H 183.256 0.294525 -3.72939 0
M  V30 2082 H 184.589 0.407128 -4.90513 0
M  V30 2083 N 186.241 1.57166 -0.116904 0
M  V30 2084 C 187.471 1.99184 0.548586 0
M  V30 2085 C 187.879 0.995436 1.60897 0
M  V30 2086 O 187.222 -0.0201293 1.83689 0
M  V30 2087 C 187.284 3.37611 1.23526 0
M  V30 2088 C 186.948 4.55857 0.323077 0
M  V30 2089 C 187.945 5.18056 -0.437476 0
M  V30 2090 C 185.63 5.01751 0.234761 0
M  V30 2091 C 187.624 6.24536 -1.2741 0
M  V30 2092 C 185.311 6.08093 -0.605496 0
M  V30 2093 C 186.309 6.69352 -1.35856 0
M  V30 2094 O 185.997 7.7364 -2.18487 0
M  V30 2095 H 185.729 0.659148 0.149999 0
M  V30 2096 H 188.283 2.0443 -0.199428 0
M  V30 2097 H 186.513 3.29113 2.0303 0
M  V30 2098 H 188.202 3.63932 1.79745 0
M  V30 2099 H 188.968 4.83516 -0.379105 0
M  V30 2100 H 184.847 4.53817 0.810601 0
M  V30 2101 H 188.391 6.72281 -1.86237 0
M  V30 2102 H 184.288 6.42063 -0.665268 0
M  V30 2103 H 185.056 7.90727 -2.11406 0
M  V30 2104 N 187.719 -0.156864 1.56817 0
M  V30 2105 C 188.682 -1.17781 1.96622 0
M  V30 2106 C 189.682 -1.36401 0.851555 0
M  V30 2107 O 190.872 -1.33561 1.11836 0
M  V30 2108 C 188.004 -2.54008 2.27361 0
M  V30 2109 H 189.197 -0.836564 2.87996 0
M  V30 2110 H 186.75 -0.39985 1.51099 0
M  V30 2111 H 187.485 -2.9312 1.38748 0
M  V30 2112 H 187.27 -2.41856 3.08623 0
M  V30 2113 H 188.76 -3.27558 2.59029 0
M  V30 2114 N 189.197 -1.51736 -0.425897 0
M  V30 2115 C 190.474 -1.55519 -1.1863 0
M  V30 2116 C 190.854 -0.326219 -2.08564 0
M  V30 2117 O 190.202 0.688012 -2.17896 0
M  V30 2118 C 190.412 -2.87521 -1.9782 0
M  V30 2119 C 191.76 -3.39899 -2.54468 0
M  V30 2120 O 192.784 -2.89148 -2.08019 0
M  V30 2121 O 191.643 -4.2848 -3.39215 0
M  V30 2122 H 188.737 -0.625739 -0.540721 0
M  V30 2123 H 191.283 -1.64055 -0.434038 0
M  V30 2124 H 190.055 -3.68422 -1.31836 0
M  V30 2125 H 189.678 -2.822 -2.80088 0
M  V30 2126 N 190.675 0.682077 -1.42076 0
M  V30 2127 C 191.585 1.82535 -1.47371 0
M  V30 2128 C 192.601 1.7017 -0.363079 0
M  V30 2129 O 193.777 1.91848 -0.612875 0
M  V30 2130 C 190.842 3.18624 -1.36674 0
M  V30 2131 C 189.903 3.42999 -2.58167 0
M  V30 2132 C 189.136 4.72595 -2.4797 0
M  V30 2133 O 189.359 5.50006 -1.5116 0
M  V30 2134 O 188.293 4.98054 -3.37974 0
M  V30 2135 H 192.119 1.81023 -2.43853 0
M  V30 2136 H 189.704 0.836887 -1.2376 0
M  V30 2137 H 191.586 3.99847 -1.33043 0
M  V30 2138 H 190.261 3.20789 -0.433138 0
M  V30 2139 H 189.168 2.61653 -2.67373 0
M  V30 2140 H 190.501 3.45659 -3.50401 0
M  V30 2141 N 192.153 1.28127 0.917671 0
M  V30 2142 C 193.381 1.17892 1.70026 0
M  V30 2143 C 193.796 -0.262958 1.8696 0
M  V30 2144 O 193.153 -1.17811 1.3938 0
M  V30 2145 C 193.204 1.86872 3.09453 0
M  V30 2146 O 192.925 3.25428 2.93306 0
M  V30 2147 C 194.426 1.8289 4.03815 0
M  V30 2148 H 191.646 0.40942 0.531617 0
M  V30 2149 H 194.19 1.69181 1.14883 0
M  V30 2150 H 192.345 1.39464 3.61426 0
M  V30 2151 H 192.759 3.59918 3.81523 0
M  V30 2152 H 194.233 2.35751 4.99125 0
M  V30 2153 H 194.71 0.800412 4.31845 0
M  V30 2154 H 195.316 2.29959 3.57769 0
M  V30 2155 N 193.631 -1.12557 1.10312 0
M  V30 2156 C 194.594 -2.16434 0.75424 0
M  V30 2157 C 195.594 -1.59278 -0.220685 0
M  V30 2158 O 196.784 -1.742 0.00230591 0
M  V30 2159 C 193.916 -3.40699 0.116987 0
M  V30 2160 H 195.109 -2.48811 1.67431 0
M  V30 2161 H 192.662 -1.27542 0.903475 0
M  V30 2162 H 193.397 -3.13921 -0.813877 0
M  V30 2163 H 193.182 -3.83459 0.818613 0
M  V30 2164 H 194.672 -4.17451 -0.111387 0
M  V30 2165 N 195.109 -0.891671 -1.2995 0
M  V30 2166 C 196.337 -0.52866 -2.00032 0
M  V30 2167 C 196.752 0.884574 -1.66795 0
M  V30 2168 O 196.109 1.5827 -0.908669 0
M  V30 2169 C 196.16 -0.701814 -3.54622 0
M  V30 2170 O 195.881 -2.05942 -3.86678 0
M  V30 2171 C 197.382 -0.342683 -4.41973 0
M  V30 2172 H 194.602 -0.203659 -0.639347 0
M  V30 2173 H 197.146 -1.19881 -1.65677 0
M  V30 2174 H 195.301 -0.0789468 -3.8732 0
M  V30 2175 H 195.715 -2.08291 -4.81368 0
M  V30 2176 H 197.189 -0.514709 -5.49595 0
M  V30 2177 H 197.666 0.71975 -4.33262 0
M  V30 2178 H 198.272 -0.942154 -4.14733 0
M  V30 2179 N 196.587 1.43421 -0.653314 0
M  V30 2180 C 197.836 2.01032 -0.164076 0
M  V30 2181 C 198.149 1.52147 1.22926 0
M  V30 2182 O 199.355 2.02031 1.81371 0
M  V30 2183 C 197.811 3.59082 -0.24252 0
M  V30 2184 C 197.419 4.1696 -1.63855 0
M  V30 2185 C 199.163 4.24079 0.18911 0
M  V30 2186 C 197.07 5.67304 -1.67092 0
M  V30 2187 H 196 0.751798 -0.0575769 0
M  V30 2188 H 198.651 1.6439 -0.815362 0
M  V30 2189 H 197.033 3.93125 0.476276 0
M  V30 2190 H 198.207 3.94416 -2.38271 0
M  V30 2191 H 196.522 3.64335 -2.01616 0
M  V30 2192 H 199.119 5.34381 0.184775 0
M  V30 2193 H 199.462 3.98005 1.22056 0
M  V30 2194 H 199.995 3.94918 -0.477938 0
M  V30 2195 H 196.734 5.98145 -2.68146 0
M  V30 2196 H 196.254 5.91904 -0.970014 0
M  V30 2197 H 197.933 6.31344 -1.4147 0
M  V30 2198 N 198.065 0.39524 1.52563 0
M  V30 2199 C 199.311 -0.185318 2.01952 0
M  V30 2200 C 199.644 -1.45964 1.28095 0
M  V30 2201 O 198.919 -1.90689 0.38315 0
M  V30 2202 C 199.202 -0.447193 3.57312 0
M  V30 2203 C 199.055 0.842828 4.41833 0
M  V30 2204 C 200.374 -1.23529 4.22408 0
M  V30 2205 H 197.493 -0.0658788 0.73405 0
M  V30 2206 H 200.135 0.525975 1.82575 0
M  V30 2207 H 198.285 -1.05312 3.73954 0
M  V30 2208 H 199.957 1.4795 4.36931 0
M  V30 2209 H 198.2 1.45686 4.08605 0
M  V30 2210 H 198.871 0.614165 5.48573 0
M  V30 2211 H 201.347 -0.722445 4.0978 0
M  V30 2212 H 200.223 -1.38727 5.3108 0
M  V30 2213 H 200.484 -2.25213 3.80436 0
M  V30 2214 N 199.544 -1.57102 0.125237 0
M  V30 2215 C 200.454 -2.19191 -0.8362 0
M  V30 2216 C 201.47 -1.16985 -1.28805 0
M  V30 2217 O 202.646 -1.49479 -1.34974 0
M  V30 2218 C 199.711 -2.78407 -2.06617 0
M  V30 2219 C 198.772 -3.9567 -1.66565 0
M  V30 2220 C 198.005 -4.52052 -2.83698 0
M  V30 2221 O 198.228 -4.07326 -3.99302 0
M  V30 2222 O 197.162 -5.42645 -2.60423 0
M  V30 2223 H 200.988 -3.01816 -0.337776 0
M  V30 2224 H 198.573 -1.4906 -0.100695 0
M  V30 2225 H 200.455 -3.16129 -2.7864 0
M  V30 2226 H 199.13 -1.9881 -2.55453 0
M  V30 2227 H 198.037 -3.62705 -0.916296 0
M  V30 2228 H 199.37 -4.76722 -1.22464 0
M  V30 2229 N 201.022 0.148545 -1.56898 0
M  V30 2230 C 202.269 0.861418 -1.83264 0
M  V30 2231 C 202.597 1.81239 -0.705883 0
M  V30 2232 O 201.852 1.93305 0.305212 0
M  V30 2233 C 202.151 1.67064 -3.1595 0
M  V30 2234 C 201.817 0.866591 -4.42494 0
M  V30 2235 C 200.479 0.644762 -4.76861 0
M  V30 2236 C 202.831 0.30418 -5.20312 0
M  V30 2237 C 200.159 -0.15021 -5.86508 0
M  V30 2238 C 202.511 -0.477824 -6.30793 0
M  V30 2239 C 201.175 -0.710244 -6.63711 0
M  V30 2240 H 200.445 0.315215 -0.670612 0
M  V30 2241 H 203.092 0.125142 -1.91091 0
M  V30 2242 H 201.397 2.47698 -3.03567 0
M  V30 2243 H 203.094 2.22566 -3.33565 0
M  V30 2244 H 199.684 1.04955 -4.15551 0
M  V30 2245 H 203.868 0.462844 -4.94137 0
M  V30 2246 H 199.124 -0.339796 -6.10455 0
M  V30 2247 H 203.298 -0.92076 -6.90286 0
M  V30 2248 H 200.925 -1.3281 -7.48509 0
M  V30 2249 N 202.5 1.5196 0.417844 0
M  V30 2250 C 203.43 1.77634 1.51554 0
M  V30 2251 C 204.411 0.626918 1.58126 0
M  V30 2252 O 205.596 0.871632 1.7354 0
M  V30 2253 C 202.726 1.91911 2.8946 0
M  V30 2254 C 201.68 3.07463 2.97743 0
M  V30 2255 C 201.006 3.06951 4.37819 0
M  V30 2256 C 202.306 4.47082 2.70027 0
M  V30 2257 H 204 2.6955 1.3032 0
M  V30 2258 H 201.546 1.29706 0.625492 0
M  V30 2259 H 203.499 2.08455 3.6623 0
M  V30 2260 H 202.223 0.966598 3.11969 0
M  V30 2261 H 200.882 2.90656 2.23416 0
M  V30 2262 H 200.53 2.09438 4.57323 0
M  V30 2263 H 200.23 3.84556 4.44286 0
M  V30 2264 H 201.754 3.25613 5.16535 0
M  V30 2265 H 203.168 4.6414 3.36522 0
M  V30 2266 H 201.565 5.2654 2.87881 0
M  V30 2267 H 202.635 4.55777 1.65514 0
M  V30 2268 N 203.978 -0.674533 1.42435 0
M  V30 2269 C 204.926 -1.80934 1.46169 0
M  V30 2270 C 205.92 -1.66006 0.3374 0
M  V30 2271 O 207.126 -1.72611 0.510425 0
M  V30 2272 H 203.501 -0.596594 0.457798 0
M  V30 2273 H 205.472 -1.74903 2.41767 0
M  V30 2274 C 204.221 -3.19088 1.38123 0
M  V30 2275 H 203.544 -3.31203 2.23931 0
M  V30 2276 H 204.984 -3.9851 1.44797 0
M  V30 2277 C 203.443 -3.36763 0.0960517 0
M  V30 2278 O 203.973 -3.92581 -0.851073 0
M  V30 2279 N 202.179 -2.90597 0.0131186 0
M  V30 2280 H 201.726 -2.45359 0.784639 0
M  V30 2281 H 201.684 -3.028 -0.846133 0
M  V30 2282 N 205.456 -1.28612 -0.910864 0
M  V30 2283 C 206.872 -1.06381 -1.18976 0
M  V30 2284 C 207.072 0.191998 -2.00583 0
M  V30 2285 O 206.128 0.892869 -2.36187 0
M  V30 2286 C 207.441 -2.31295 -1.92154 0
M  V30 2287 C 208.989 -2.36503 -2.05025 0
M  V30 2288 C 209.464 -3.61191 -2.81612 0
M  V30 2289 N 210.955 -3.61847 -2.89172 0
M  V30 2290 C 211.69 -4.55004 -3.4894 0
M  V30 2291 N 211.186 -5.58482 -4.09963 0
M  V30 2292 N 212.979 -4.42594 -3.46506 0
M  V30 2293 H 205.13 -2.09221 -0.366094 0
M  V30 2294 H 207.393 -0.921003 -0.224629 0
M  V30 2295 H 207.099 -3.228 -1.39618 0
M  V30 2296 H 206.973 -2.37934 -2.9269 0
M  V30 2297 H 209.36 -1.45494 -2.5674 0
M  V30 2298 H 209.441 -2.33857 -1.03657 0
M  V30 2299 H 209.085 -4.52545 -2.30576 0
M  V30 2300 H 209.015 -3.61092 -3.83302 0
M  V30 2301 H 211.506 -2.87022 -2.45819 0
M  V30 2302 H 211.819 -6.25704 -4.53557 0
M  V30 2303 H 210.164 -5.62305 -4.08459 0
M  V30 2304 H 213.355 -3.60953 -2.98045 0
M  V30 2305 H 213.528 -5.15381 -3.92793 0
M  V30 2306 N 206.934 1.1197 -1.10907 0
M  V30 2307 C 208.18 1.84059 -0.865674 0
M  V30 2308 C 208.535 1.82731 0.602254 0
M  V30 2309 O 207.828 1.26543 1.43866 0
M  V30 2310 C 208.022 3.30749 -1.35425 0
M  V30 2311 C 207.851 3.46363 -2.86815 0
M  V30 2312 C 206.621 3.59712 -3.54874 0
M  V30 2313 C 208.819 3.41116 -3.84895 0
M  V30 2314 N 206.801 3.63741 -4.94536 0
M  V30 2315 C 208.172 3.51698 -5.10596 0
M  V30 2316 C 210.227 3.24612 -3.77533 0
M  V30 2317 C 208.93 3.4748 -6.29802 0
M  V30 2318 C 210.956 3.21708 -4.96244 0
M  V30 2319 C 210.318 3.32856 -6.20795 0
M  V30 2320 H 206.417 0.689015 -0.369841 0
M  V30 2321 H 209.001 1.34016 -1.41237 0
M  V30 2322 H 207.172 3.79322 -0.834814 0
M  V30 2323 H 208.904 3.90718 -1.05458 0
M  V30 2324 H 205.659 3.62038 -3.05329 0
M  V30 2325 H 206.083 3.69408 -5.67333 0
M  V30 2326 H 210.725 3.14883 -2.8215 0
M  V30 2327 H 208.443 3.55978 -7.25469 0
M  V30 2328 H 212.029 3.10113 -4.92261 0
M  V30 2329 H 210.909 3.3059 -7.11112 0
M  V30 2330 N 208.412 0.89855 1.29475 0
M  V30 2331 C 209.661 0.519863 1.94885 0
M  V30 2332 C 209.974 -0.9383 1.71625 0
M  V30 2333 O 211.18 -1.42445 2.31131 0
M  V30 2334 C 209.636 0.878836 3.49005 0
M  V30 2335 C 209.244 2.35569 3.81066 0
M  V30 2336 C 210.988 0.570004 4.20656 0
M  V30 2337 C 208.895 2.65558 5.28425 0
M  V30 2338 H 207.825 0.190692 0.729488 0
M  V30 2339 H 210.476 1.09539 1.47219 0
M  V30 2340 H 208.858 0.232253 3.95318 0
M  V30 2341 H 210.032 3.04773 3.45616 0
M  V30 2342 H 208.347 2.63343 3.22552 0
M  V30 2343 H 210.944 0.770925 5.29113 0
M  V30 2344 H 211.287 -0.491404 4.1339 0
M  V30 2345 H 211.82 1.17438 3.8007 0
M  V30 2346 H 208.559 3.70493 5.40754 0
M  V30 2347 H 208.079 2.00977 5.65127 0
M  V30 2348 H 209.758 2.51765 5.96006 0
M  V30 2349 N 209.89 -1.43072 0.660911 0
M  V30 2350 C 211.118 -2.06067 0.185422 0
M  V30 2351 C 211.533 -1.49582 -1.15198 0
M  V30 2352 O 210.89 -0.630134 -1.71276 0
M  V30 2353 C 210.941 -3.61371 0.0966523 0
M  V30 2354 O 210.662 -4.15758 1.38119 0
M  V30 2355 C 212.163 -4.41455 -0.403996 0
M  V30 2356 H 209.383 -0.664459 0.0934604 0
M  V30 2357 H 211.927 -1.83447 0.90373 0
M  V30 2358 H 210.082 -3.8315 -0.572259 0
M  V30 2359 H 210.496 -5.09499 1.24542 0
M  V30 2360 H 211.97 -5.50437 -0.415045 0
M  V30 2361 H 212.447 -4.15036 -1.43674 0
M  V30 2362 H 213.053 -4.24663 0.232691 0
M  V30 2363 N 211.368 -0.403325 -1.52352 0
M  V30 2364 C 212.615 0.174347 -2.01748 0
M  V30 2365 C 212.943 1.45636 -1.2892 0
M  V30 2366 O 212.198 1.9193 -0.382258 0
M  V30 2367 C 212.497 0.474665 -3.54234 0
M  V30 2368 C 212.163 -0.717458 -4.45155 0
M  V30 2369 C 210.825 -1.04447 -4.69728 0
M  V30 2370 C 213.177 -1.51432 -4.98716 0
M  V30 2371 C 210.505 -2.16963 -5.45109 0
M  V30 2372 C 212.857 -2.6302 -5.75329 0
M  V30 2373 C 211.521 -2.96213 -5.98175 0
M  V30 2374 H 210.791 0.0637981 -0.738248 0
M  V30 2375 H 213.438 -0.543553 -1.83624 0
M  V30 2376 H 211.743 1.27406 -3.70506 0
M  V30 2377 H 213.44 0.934496 -3.89959 0
M  V30 2378 H 210.03 -0.452596 -4.26204 0
M  V30 2379 H 214.214 -1.27491 -4.79645 0
M  V30 2380 H 209.47 -2.43034 -5.61021 0
M  V30 2381 H 213.644 -3.25158 -6.15829 0
M  V30 2382 H 211.271 -3.83516 -6.56368 0
M  V30 2383 N 212.846 1.57033 -0.133567 0
M  V30 2384 C 214.086 1.97575 0.523789 0
M  V30 2385 C 214.45 1.01605 1.62912 0
M  V30 2386 O 215.651 1.3114 2.3464 0
M  V30 2387 C 213.922 3.42256 1.02935 0
M  V30 2388 S 215.481 4.04817 1.69319 0
M  V30 2389 H 212.299 0.690427 0.169799 0
M  V30 2390 H 214.901 1.94234 -0.222101 0
M  V30 2391 H 213.605 4.09842 0.213917 0
M  V30 2392 H 213.136 3.4928 1.81017 0
M  V30 2393 H 215.151 3.96767 2.97977 0
M  V30 2394 N 214.325 -0.140222 1.56975 0
M  V30 2395 C 215.257 -1.19818 1.95388 0
M  V30 2396 C 216.27 -1.38816 0.850525 0
M  V30 2397 O 217.459 -1.38267 1.12891 0
M  V30 2398 C 214.559 -2.56189 2.21857 0
M  V30 2399 C 213.732 -2.58077 3.5315 0
M  V30 2400 C 212.791 -3.76037 3.6808 0
M  V30 2401 O 211.817 -3.60598 4.40406 0
M  V30 2402 N 213.019 -4.93763 3.05251 0
M  V30 2403 H 215.784 -0.871609 2.86746 0
M  V30 2404 H 213.345 -0.32972 1.58507 0
M  V30 2405 H 215.337 -3.33623 2.2908 0
M  V30 2406 H 213.907 -2.81111 1.36731 0
M  V30 2407 H 213.127 -1.6651 3.57307 0
M  V30 2408 H 214.415 -2.56377 4.39486 0
M  V30 2409 H 213.813 -5.09209 2.46419 0
M  V30 2410 H 212.37 -5.68949 3.18026 0
M  V30 2411 N 215.803 -1.52179 -0.40978 0
M  V30 2412 C 217.028 -1.70347 -1.18308 0
M  V30 2413 C 217.453 -0.411887 -1.83535 0
M  V30 2414 O 216.811 0.630587 -1.6998 0
M  V30 2415 C 216.859 -2.83977 -2.22238 0
M  V30 2416 O 215.963 -2.495 -3.28365 0
M  V30 2417 H 215.304 -0.567103 -0.345384 0
M  V30 2418 H 217.834 -1.98879 -0.480445 0
M  V30 2419 H 217.844 -3.0887 -2.66577 0
M  V30 2420 H 216.519 -3.77685 -1.74146 0
M  V30 2421 H 215.096 -2.35277 -2.89308 0
M  V30 2422 N 217.281 0.66697 -1.42791 0
M  V30 2423 C 218.53 1.42278 -1.42968 0
M  V30 2424 C 218.843 1.9553 -0.0524489 0
M  V30 2425 O 220.049 2.71414 0.068363 0
M  V30 2426 C 218.505 2.57418 -2.51524 0
M  V30 2427 C 218.113 2.10832 -3.9529 0
M  V30 2428 C 219.857 3.34878 -2.60877 0
M  V30 2429 C 217.764 3.23101 -4.95338 0
M  V30 2430 H 216.694 0.534533 -0.531781 0
M  V30 2431 H 219.345 0.721302 -1.68729 0
M  V30 2432 H 217.727 3.29971 -2.18941 0
M  V30 2433 H 218.901 1.4538 -4.37266 0
M  V30 2434 H 217.216 1.46289 -3.89857 0
M  V30 2435 H 219.813 4.18505 -3.32802 0
M  V30 2436 H 220.156 3.81993 -1.6549 0
M  V30 2437 H 220.689 2.69398 -2.92693 0
M  V30 2438 H 217.428 2.80969 -5.9223 0
M  V30 2439 H 216.948 3.87309 -4.57987 0
M  V30 2440 H 218.627 3.88447 -5.17415 0
M  V30 2441 N 218.759 1.29093 0.90403 0
M  V30 2442 C 220.008 1.16187 1.64874 0
M  V30 2443 C 220.321 -0.286742 1.93487 0
M  V30 2444 O 221.527 -0.537062 2.66135 0
M  V30 2445 C 219.983 2.03177 2.97064 0
M  V30 2446 C 219.591 3.52836 2.76062 0
M  V30 2447 C 221.335 1.98984 3.74974 0
M  V30 2448 C 219.242 4.31945 4.03952 0
M  V30 2449 H 218.172 0.431246 0.618501 0
M  V30 2450 H 220.823 1.53699 1.00243 0
M  V30 2451 H 219.205 1.5853 3.62883 0
M  V30 2452 H 220.379 4.05507 2.18863 0
M  V30 2453 H 218.694 3.58656 2.11553 0
M  V30 2454 H 221.291 2.55351 4.69787 0
M  V30 2455 H 221.634 0.968815 4.0487 0
M  V30 2456 H 222.167 2.41652 3.15989 0
M  V30 2457 H 218.906 5.34667 3.79225 0
M  V30 2458 H 218.426 3.84045 4.60727 0
M  V30 2459 H 220.105 4.42379 4.72133 0
M  V30 2460 N 220.237 -1.11381 1.11499 0
M  V30 2461 C 221.462 -1.87475 0.887019 0
M  V30 2462 C 221.887 -1.79639 -0.557796 0
M  V30 2463 O 221.245 -1.15924 -1.39396 0
M  V30 2464 C 221.293 -3.34213 1.35403 0
M  V30 2465 O 220.397 -4.0903 0.526146 0
M  V30 2466 H 219.738 -0.582099 0.319463 0
M  V30 2467 H 222.268 -1.40785 1.48461 0
M  V30 2468 H 222.278 -3.8506 1.34881 0
M  V30 2469 H 220.953 -3.39232 2.40612 0
M  V30 2470 H 219.53 -3.68082 0.597522 0
M  V30 2471 N 221.715 -0.905404 -1.28997 0
M  V30 2472 C 222.943 -0.549846 -1.9946 0
M  V30 2473 C 223.358 0.866834 -1.67724 0
M  V30 2474 O 222.715 1.57298 -0.925404 0
M  V30 2475 C 222.766 -0.739387 -3.53858 0
M  V30 2476 O 222.487 -2.10031 -3.84472 0
M  V30 2477 C 223.988 -0.389541 -4.41585 0
M  V30 2478 H 221.208 -0.210429 -0.637151 0
M  V30 2479 H 223.752 -1.21632 -1.64396 0
M  V30 2480 H 221.907 -0.120023 -3.87214 0
M  V30 2481 H 222.321 -2.13385 -4.79132 0
M  V30 2482 H 223.795 -0.572972 -5.49018 0
M  V30 2483 H 224.272 0.673756 -4.34001 0
M  V30 2484 H 224.878 -0.986089 -4.1371 0
M  V30 2485 N 223.193 1.4272 -0.668489 0
M  V30 2486 C 224.123 2.335 -0.000100175 0
M  V30 2487 C 225.104 1.50328 0.795964 0
M  V30 2488 O 226.289 1.78949 0.754385 0
M  V30 2489 C 223.419 3.33874 0.956302 0
M  V30 2490 C 222.373 4.27152 0.269278 0
M  V30 2491 C 221.699 5.17684 1.33818 0
M  V30 2492 C 222.999 5.15373 -0.847805 0
M  V30 2493 H 224.693 2.89639 -0.758244 0
M  V30 2494 H 222.239 1.39269 -0.366079 0
M  V30 2495 H 224.192 3.9629 1.43292 0
M  V30 2496 H 222.916 2.76025 1.74579 0
M  V30 2497 H 221.575 3.66123 -0.187042 0
M  V30 2498 H 221.223 4.56165 2.1195 0
M  V30 2499 H 220.923 5.80918 0.883659 0
M  V30 2500 H 222.447 5.82974 1.81586 0
M  V30 2501 H 223.861 5.7151 -0.452681 0
M  V30 2502 H 222.258 5.87407 -1.22773 0
M  V30 2503 H 223.328 4.5415 -1.69929 0
M  V30 2504 N 224.671 0.411399 1.52136 0
M  V30 2505 C 225.899 -0.163076 2.06256 0
M  V30 2506 C 226.314 -1.3867 1.28125 0
M  V30 2507 O 225.671 -1.79423 0.333721 0
M  V30 2508 C 225.722 -0.511252 3.57867 0
M  V30 2509 O 225.443 0.66378 4.33042 0
M  V30 2510 C 226.944 -1.13921 4.28412 0
M  V30 2511 H 224.164 -0.0193897 0.67072 0
M  V30 2512 H 226.708 0.583007 1.96013 0
M  V30 2513 H 224.863 -1.20723 3.6811 0
M  V30 2514 H 225.277 0.372601 5.23175 0
M  V30 2515 H 226.751 -1.33302 5.35663 0
M  V30 2516 H 227.228 -2.11296 3.85033 0
M  V30 2517 H 227.834 -0.483373 4.22544 0
M  V30 2518 O 226.188 -1.59008 0.282609 0
M  V30 2519 H 226.879 -1.91579 -0.285831 0
M  V30 END ATOM
M  V30 BEGIN BOND
M  V30 END BOND
M  V30 END CTAB
M  END
$$$$
