drugbank_target|P01764 Ig heavy chain V-III region 23 (DB04147)
 OpenBabel12092120483D

  0  0  0     0  0            999 V3000
M  V30 BEGIN CTAB
M  V30 COUNTS 1754 1772 0 0 0
M  V30 BEGIN ATOM
M  V30 1 H -0.908 1.98254 -0.117106 0
M  V30 2 N 0 1.576 0 0
M  V30 3 C 0.933 2.03868 1.02534 0
M  V30 4 C 1.911 0.928543 1.3348 0
M  V30 5 O 3.095 1.19667 1.45644 0
M  V30 6 C 0.222 2.43627 2.35294 0
M  V30 7 C -0.732 3.65373 2.2001 0
M  V30 8 S 0.101 5.13292 1.52614 0
M  V30 9 C 1.257 5.56322 2.86805 0
M  V30 10 H 1.49 2.90518 0.631377 0
M  V30 11 H -0.977 1.52953 0.210867 0
M  V30 12 H 0.981 2.67203 3.11629 0
M  V30 13 H -0.358 1.57376 2.7183 0
M  V30 14 H -1.165 3.90944 3.18086 0
M  V30 15 H -1.563 3.418 1.51819 0
M  V30 16 H 0.729 5.58782 3.83104 0
M  V30 17 H 1.672 6.56266 2.65933 0
M  V30 18 H 2.08 4.83886 2.90714 0
M  V30 19 N 1.4781 -0.272755 1.55222 0
M  V30 20 C 2.3881 -1.35918 1.91216 0
M  V30 21 C 3.4041 -1.54026 0.809436 0
M  V30 22 O 4.5801 -1.68148 1.10852 0
M  V30 23 C 1.6451 -2.69834 2.17693 0
M  V30 24 C 0.7061 -2.6047 3.41253 0
M  V30 25 C -0.0609 -3.88 3.66458 0
M  V30 26 O 0.1621 -4.88693 2.94169 0
M  V30 27 O -0.9039 -3.88189 4.59992 0
M  V30 28 H 2.9221 -1.0839 2.83699 0
M  V30 29 H 0.5071 -0.471301 1.41771 0
M  V30 30 H 2.3891 -3.49017 2.36147 0
M  V30 31 H 1.0641 -2.97148 1.28392 0
M  V30 32 H -0.0289 -1.79663 3.28134 0
M  V30 33 H 1.3041 -2.38106 4.30774 0
M  V30 34 N 2.9562 -1.48159 -0.537278 0
M  V30 35 C 4.2032 -1.55804 -1.29349 0
M  V30 36 C 4.5312 -0.228802 -1.9315 0
M  V30 37 O 3.7862 0.780242 -1.79473 0
M  V30 38 C 4.0852 -2.63956 -2.40961 0
M  V30 39 C 3.7512 -4.0662 -1.94861 0
M  V30 40 C 2.4132 -4.45452 -1.82006 0
M  V30 41 C 4.7652 -4.96055 -1.59933 0
M  V30 42 C 2.0932 -5.71531 -1.32547 0
M  V30 43 C 4.4452 -6.22617 -1.11939 0
M  V30 44 C 3.1092 -6.60312 -0.976951 0
M  V30 45 H 2.3792 -0.570129 -0.473322 0
M  V30 46 H 5.0262 -1.81845 -0.600372 0
M  V30 47 H 3.3312 -2.31747 -3.15912 0
M  V30 48 H 5.0282 -2.67089 -2.99107 0
M  V30 49 H 1.6182 -3.75949 -2.05815 0
M  V30 50 H 5.8022 -4.66738 -1.68728 0
M  V30 51 H 1.0582 -5.99468 -1.202 0
M  V30 52 H 5.2322 -6.91318 -0.839811 0
M  V30 53 H 2.8592 -7.57895 -0.591501 0
M  V30 54 N 4.4343 0.785586 -1.36625 0
M  V30 55 C 5.6823 1.54057 -1.30808 0
M  V30 56 C 6.0033 1.94683 0.111157 0
M  V30 57 O 5.2733 1.65241 1.05224 0
M  V30 58 H 3.8533 0.571354 -0.481211 0
M  V30 59 H 6.5153 0.935821 -1.70963 0
M  V30 60 H 5.6113 2.44637 -1.93801 0
M  V30 61 N 5.9124 1.20967 1.01018 0
M  V30 62 C 6.8424 0.988272 2.11555 0
M  V30 63 C 7.8234 -0.0849778 1.69888 0
M  V30 64 O 9.0084 0.0738202 1.9406 0
M  V30 65 C 6.1384 0.546528 3.42973 0
M  V30 66 C 5.0924 1.56375 3.9841 0
M  V30 67 C 4.4184 0.97842 5.25672 0
M  V30 68 C 5.7184 2.94922 4.31066 0
M  V30 69 H 7.4124 1.91276 2.30334 0
M  V30 70 H 4.9584 0.921073 1.1069 0
M  V30 71 H 6.9114 0.378839 4.19694 0
M  V30 72 H 5.6354 -0.413598 3.23971 0
M  V30 73 H 4.2944 1.71891 3.23804 0
M  V30 74 H 3.9424 0.0101688 5.02999 0
M  V30 75 H 3.6424 1.65784 5.63728 0
M  V30 76 H 5.1664 0.821939 6.05043 0
M  V30 77 H 6.5804 2.8288 4.9865 0
M  V30 78 H 4.9774 3.5983 4.80253 0
M  V30 79 H 6.0474 3.4616 3.39561 0
M  V30 80 N 7.3905 -1.2043 1.01659 0
M  V30 81 C 8.6155 -1.94318 0.724942 0
M  V30 82 C 9.0405 -1.74266 -0.708034 0
M  V30 83 O 8.3985 -1.03694 -1.48719 0
M  V30 84 C 8.4465 -3.44486 1.06591 0
M  V30 85 O 7.5505 -4.12017 0.177599 0
M  V30 86 H 6.8915 -0.60708 0.26898 0
M  V30 87 H 9.4215 -1.52861 1.35995 0
M  V30 88 H 9.4315 -3.95106 1.01762 0
M  V30 89 H 8.1065 -3.58404 2.10997 0
M  V30 90 H 6.6835 -3.71821 0.283421 0
M  V30 91 N 8.8686 -0.792821 -1.36206 0
M  V30 92 C 10.1146 -0.376415 -1.99887 0
M  V30 93 C 10.4696 1.04127 -1.61788 0
M  V30 94 O 9.7626 1.71004 -0.864193 0
M  V30 95 C 9.9566 -0.481501 -3.54142 0
M  V30 96 C 9.7856 -1.90786 -4.07223 0
M  V30 97 C 8.5556 -2.53322 -4.37214 0
M  V30 98 C 10.7536 -2.87048 -4.26741 0
M  V30 99 N 8.7356 -3.8751 -4.7614 0
M  V30 100 C 10.1066 -4.06077 -4.6851 0
M  V30 101 C 12.1616 -2.8406 -4.08918 0
M  V30 102 C 10.8646 -5.22532 -4.94321 0
M  V30 103 C 12.8906 -3.99705 -4.35878 0
M  V30 104 C 12.2526 -5.1748 -4.77906 0
M  V30 105 H 8.3516 -0.185226 -0.759747 0
M  V30 106 H 10.9356 -1.03114 -1.65153 0
M  V30 107 H 9.1066 0.143154 -3.88136 0
M  V30 108 H 10.8386 -0.0410128 -4.04679 0
M  V30 109 H 7.5936 -2.04777 -4.2704 0
M  V30 110 H 8.0176 -4.5656 -4.99882 0
M  V30 111 H 12.6596 -1.94165 -3.75579 0
M  V30 112 H 10.3776 -6.1301 -5.2654 0
M  V30 113 H 13.9636 -3.98758 -4.23655 0
M  V30 114 H 12.8436 -6.05478 -4.98363 0
M  V30 115 N 10.3467 1.47872 -0.545128 0
M  V30 116 C 11.2767 2.32661 0.197793 0
M  V30 117 C 12.2577 1.43041 0.920504 0
M  V30 118 O 13.4427 1.71912 0.90333 0
M  V30 119 C 10.5727 3.24569 1.23582 0
M  V30 120 C 9.5267 4.23333 0.630323 0
M  V30 121 C 8.8527 5.0448 1.77211 0
M  V30 122 C 10.1527 5.20704 -0.407974 0
M  V30 123 H 11.8467 2.95024 -0.510045 0
M  V30 124 H 9.3927 1.4187 -0.246731 0
M  V30 125 H 11.3457 3.8272 1.76362 0
M  V30 126 H 10.0697 2.60236 1.97344 0
M  V30 127 H 8.7287 3.6639 0.123922 0
M  V30 128 H 8.3767 4.36561 2.49847 0
M  V30 129 H 8.0767 5.71339 1.37281 0
M  V30 130 H 9.6007 5.65487 2.3034 0
M  V30 131 H 11.0147 5.7329 0.033305 0
M  V30 132 H 9.4117 5.95699 -0.725486 0
M  V30 133 H 10.4817 4.66917 -1.30828 0
M  V30 134 N 11.8248 0.280983 1.55075 0
M  V30 135 C 13.0718 -0.334115 1.99725 0
M  V30 136 C 13.3998 -1.5542 1.1694 0
M  V30 137 O 12.6548 -1.94361 0.228531 0
M  V30 138 C 12.9538 -0.754656 3.49342 0
M  V30 139 C 12.6198 0.361445 4.49449 0
M  V30 140 C 11.2818 0.667893 4.76542 0
M  V30 141 C 13.6338 1.11322 5.09173 0
M  V30 142 C 10.9618 1.7296 5.60626 0
M  V30 143 C 13.3138 2.1647 5.9441 0
M  V30 144 C 11.9778 2.47742 6.19822 0
M  V30 145 H 11.2478 -0.122261 0.730844 0
M  V30 146 H 13.8948 0.395917 1.87363 0
M  V30 147 H 12.1998 -1.56446 3.5921 0
M  V30 148 H 13.8968 -1.24142 3.813 0
M  V30 149 H 10.4868 0.112481 4.28452 0
M  V30 150 H 14.6708 0.88973 4.8826 0
M  V30 151 H 9.9268 1.97684 5.78559 0
M  V30 152 H 14.1008 2.75193 6.3972 0
M  V30 153 H 11.7278 3.30145 6.84769 0
M  V30 154 N 13.3029 -1.57598 0.00835791 0
M  V30 155 C 14.2329 -2.1198 -0.979113 0
M  V30 156 C 15.2139 -1.03091 -1.35301 0
M  V30 157 O 16.3989 -1.30818 -1.43528 0
M  V30 158 C 13.5289 -2.62995 -2.26828 0
M  V30 159 C 12.4829 -3.76485 -2.03576 0
M  V30 160 C 11.8089 -4.13846 -3.38579 0
M  V30 161 C 13.1089 -5.0342 -1.39161 0
M  V30 162 H 14.8029 -2.94738 -0.526281 0
M  V30 163 H 12.3489 -1.41783 -0.251704 0
M  V30 164 H 14.3019 -2.99669 -2.96271 0
M  V30 165 H 13.0259 -1.7737 -2.7424 0
M  V30 166 H 11.6849 -3.40217 -1.36557 0
M  V30 167 H 11.3329 -3.25232 -3.83709 0
M  V30 168 H 11.0329 -4.90312 -3.23834 0
M  V30 169 H 12.5569 -4.53086 -4.09323 0
M  V30 170 H 13.9709 -5.37812 -1.98573 0
M  V30 171 H 12.3679 -5.84746 -1.34878 0
M  V30 172 H 13.4379 -4.83548 -0.361868 0
M  V30 173 N 14.781 0.264519 -1.55364 0
M  V30 174 C 16.027 0.99646 -1.76631 0
M  V30 175 C 16.36 1.85632 -0.570478 0
M  V30 176 O 15.635 1.89647 0.43175 0
M  V30 177 C 15.918 1.87187 -3.07625 0
M  V30 178 C 15.771 1.04138 -4.37579 0
M  V30 179 C 17.09 2.85749 -3.34717 0
M  V30 180 H 14.209 0.360841 -0.642622 0
M  V30 181 H 16.851 0.268218 -1.88097 0
M  V30 182 H 15.001 2.49279 -2.9798 0
M  V30 183 H 16.673 0.440517 -4.59192 0
M  V30 184 H 14.916 0.345115 -4.32425 0
M  V30 185 H 15.587 1.68729 -5.2558 0
M  V30 186 H 18.063 2.33793 -3.4421 0
M  V30 187 H 16.939 3.44136 -4.27623 0
M  V30 188 H 17.2 3.61311 -2.54768 0
M  V30 189 N 16.2591 1.48442 0.529413 0
M  V30 190 C 17.2221 1.62524 1.61612 0
M  V30 191 C 18.2221 0.498509 1.52877 0
M  V30 192 O 19.4121 0.76431 1.56537 0
M  V30 193 C 16.5441 1.59597 3.01233 0
M  V30 194 H 17.7371 2.59423 1.50465 0
M  V30 195 H 15.2901 1.37047 0.751514 0
M  V30 196 H 16.0251 0.641781 3.17886 0
M  V30 197 H 15.8101 2.41397 3.08982 0
M  V30 198 H 17.3001 1.72646 3.80241 0
M  V30 199 N 17.7372 -0.778329 1.37039 0
M  V30 200 C 18.9862 -1.53189 1.3121 0
M  V30 201 C 19.2992 -1.95328 -0.103095 0
M  V30 202 O 20.5052 -2.70012 -0.283826 0
M  V30 203 C 18.9612 -2.76591 2.30272 0
M  V30 204 C 18.5692 -2.41577 3.77286 0
M  V30 205 C 20.3132 -3.5455 2.33441 0
M  V30 206 C 18.2202 -3.61441 4.68096 0
M  V30 207 H 17.1502 -0.5751 0.487622 0
M  V30 208 H 19.8012 -0.853101 1.62464 0
M  V30 209 H 18.1832 -3.46326 1.92027 0
M  V30 210 H 19.3572 -1.79668 4.2433 0
M  V30 211 H 17.6722 -1.76806 3.76999 0
M  V30 212 H 20.2692 -4.43628 2.98493 0
M  V30 213 H 20.6122 -3.93936 1.34611 0
M  V30 214 H 21.1452 -2.91805 2.7036 0
M  V30 215 H 17.8842 -3.27142 5.6803 0
M  V30 216 H 17.4042 -4.22478 4.25761 0
M  V30 217 H 19.0832 -4.28335 4.8491 0
M  V30 218 N 19.2153 -1.21501 -1.00376 0
M  V30 219 C 20.1453 -0.999478 -2.11028 0
M  V30 220 C 21.1263 0.0759671 -1.6993 0
M  V30 221 O 22.3113 -0.0841106 -1.94018 0
M  V30 222 C 19.4413 -0.564709 -3.42678 0
M  V30 223 C 18.3953 -1.58486 -3.97576 0
M  V30 224 C 17.7213 -1.00628 -5.25146 0
M  V30 225 C 19.0213 -2.97204 -4.29496 0
M  V30 226 H 20.7153 -1.92495 -2.29317 0
M  V30 227 H 18.2613 -0.92693 -1.102 0
M  V30 228 H 20.2143 -0.401091 -4.19487 0
M  V30 229 H 18.9383 0.396411 -3.24185 0
M  V30 230 H 17.5973 -1.73606 -3.22888 0
M  V30 231 H 17.2453 -0.0368439 -5.02987 0
M  V30 232 H 16.9453 -1.68771 -5.62841 0
M  V30 233 H 18.4693 -0.854015 -6.04598 0
M  V30 234 H 19.8833 -2.8552 -4.97143 0
M  V30 235 H 18.2803 -3.62372 -4.78338 0
M  V30 236 H 19.3503 -3.47956 -3.3772 0
M  V30 237 N 20.6934 1.19889 -1.02296 0
M  V30 238 C 21.6404 2.22901 -0.598651 0
M  V30 239 C 22.6104 1.61588 0.384521 0
M  V30 240 O 23.7954 1.88697 0.282522 0
M  V30 241 C 20.9354 3.45063 0.0504476 0
M  V30 242 C 20.0484 4.20783 -0.978053 0
M  V30 243 C 19.1834 5.30356 -0.299338 0
M  V30 244 C 18.2224 5.97826 -1.31416 0
M  V30 245 N 17.3594 6.98975 -0.661667 0
M  V30 246 H 22.1994 2.58554 -1.48169 0
M  V30 247 H 19.7364 1.27039 -0.741584 0
M  V30 248 H 21.6944 4.14831 0.443971 0
M  V30 249 H 20.3244 3.10084 0.897097 0
M  V30 250 H 19.3764 3.50018 -1.48969 0
M  V30 251 H 20.6884 4.67109 -1.74958 0
M  V30 252 H 19.8424 6.06516 0.149347 0
M  V30 253 H 18.5814 4.85084 0.504445 0
M  V30 254 H 17.5864 5.20422 -1.77317 0
M  V30 255 H 18.8114 6.45183 -2.11933 0
M  V30 256 H 16.7574 6.55886 0.122132 0
M  V30 257 H 16.6744 7.43461 -1.37117 0
M  V30 258 H 17.9424 7.7914 -0.236785 0
M  V30 259 N 22.1715 0.800033 1.35784 0
M  V30 260 C 23.4195 0.376597 1.9856 0
M  V30 261 C 23.7405 -1.05812 1.63795 0
M  V30 262 O 23.0105 -1.73103 0.917171 0
M  V30 263 H 21.5905 0.136261 0.734467 0
M  V30 264 H 24.2525 1.02442 1.65806 0
M  V30 265 H 23.3485 0.477002 3.08433 0
M  V30 266 N 23.6496 -1.47581 0.552962 0
M  V30 267 C 24.8956 -2.02782 0.0273648 0
M  V30 268 C 25.2286 -1.42687 -1.31734 0
M  V30 269 O 24.5036 -0.580897 -1.85623 0
M  V30 270 C 24.7866 -3.60031 -0.0702371 0
M  V30 271 C 24.6396 -4.30566 1.30126 0
M  V30 272 C 25.9586 -4.33028 -0.785771 0
M  V30 273 H 23.0776 -0.736912 0.0114185 0
M  V30 274 H 25.7196 -1.76056 0.714432 0
M  V30 275 H 23.8696 -3.82932 -0.655382 0
M  V30 276 H 25.5416 -4.19018 1.92929 0
M  V30 277 H 23.7846 -3.91086 1.87709 0
M  V30 278 H 24.4556 -5.39114 1.18573 0
M  V30 279 H 26.9316 -4.15095 -0.288982 0
M  V30 280 H 25.8076 -5.42695 -0.823013 0
M  V30 281 H 26.0686 -4.01945 -1.841 0
M  V30 282 N 25.1277 -0.289203 -1.54924 0
M  V30 283 C 26.0597 0.625583 -2.20497 0
M  V30 284 C 27.0727 1.10667 -1.19402 0
M  V30 285 O 28.2617 1.02615 -1.46056 0
M  V30 286 C 25.3617 1.86702 -2.82835 0
M  V30 287 C 24.5347 1.5304 -4.09753 0
M  V30 288 C 23.5937 2.62576 -4.56005 0
M  V30 289 O 22.6197 2.28167 -5.21468 0
M  V30 290 N 23.8217 3.92901 -4.27328 0
M  V30 291 H 26.5867 0.0642801 -2.99631 0
M  V30 292 H 24.1477 -0.110896 -1.6152 0
M  V30 293 H 26.1397 2.59304 -3.10715 0
M  V30 294 H 24.7097 2.33702 -2.07611 0
M  V30 295 H 23.9297 0.637564 -3.8901 0
M  V30 296 H 25.2177 1.28072 -4.92418 0
M  V30 297 H 24.6157 4.23671 -3.74859 0
M  V30 298 H 23.1727 4.61837 -4.59946 0
M  V30 299 N 26.6058 1.57591 -0.0167156 0
M  V30 300 C 27.8458 1.93145 0.668902 0
M  V30 301 C 28.2098 0.892406 1.7 0
M  V30 302 O 29.4108 1.13373 2.43721 0
M  V30 303 C 27.6818 3.33678 1.28039 0
M  V30 304 S 29.2408 3.91142 1.9888 0
M  V30 305 H 26.0588 0.67593 0.220545 0
M  V30 306 H 28.6608 1.95347 -0.0774105 0
M  V30 307 H 27.3648 4.07126 0.517339 0
M  V30 308 H 26.8958 3.3489 2.06427 0
M  V30 309 H 28.9108 3.73571 3.26587 0
M  V30 310 N 28.0839 -0.256276 1.55502 0
M  V30 311 C 28.9939 -1.33882 1.92647 0
M  V30 312 C 30.0099 -1.53159 0.825727 0
M  V30 313 O 31.1859 -1.66963 1.12629 0
M  V30 314 C 28.2509 -2.6751 2.20543 0
M  V30 315 C 27.3119 -2.56836 3.43997 0
M  V30 316 C 26.5449 -3.84092 3.70553 0
M  V30 317 O 26.7679 -4.85545 2.99336 0
M  V30 318 O 25.7019 -3.83288 4.64084 0
M  V30 319 H 29.5279 -1.05374 2.84833 0
M  V30 320 H 27.1129 -0.456237 1.42263 0
M  V30 321 H 28.9949 -3.46492 2.39835 0
M  V30 322 H 27.6699 -2.9577 1.31536 0
M  V30 323 H 26.5769 -1.76172 3.30021 0
M  V30 324 H 27.9099 -2.33523 4.33275 0
M  V30 325 N 29.562 -1.4872 -0.521534 0
M  V30 326 C 30.808 -1.574 -1.27879 0
M  V30 327 C 31.141 -0.250817 -1.92573 0
M  V30 328 O 30.416 0.743934 -1.79711 0
M  V30 329 C 30.699 -2.71843 -2.36164 0
M  V30 330 C 30.552 -4.13893 -1.76105 0
M  V30 331 C 31.871 -2.82008 -3.37875 0
M  V30 332 H 28.99 -0.572941 -0.463581 0
M  V30 333 H 31.632 -1.80927 -0.580119 0
M  V30 334 H 29.782 -2.51914 -2.95756 0
M  V30 335 H 31.454 -4.45284 -1.20499 0
M  V30 336 H 29.697 -4.20498 -1.06601 0
M  V30 337 H 30.368 -4.89804 -2.5455 0
M  V30 338 H 32.844 -3.00086 -2.88249 0
M  V30 339 H 31.72 -3.63796 -4.11028 0
M  V30 340 H 31.981 -1.90511 -3.98946 0
M  V30 341 N 31.0401 0.771051 -1.3745 0
M  V30 342 C 31.9721 1.89352 -1.29146 0
M  V30 343 C 32.9851 1.61477 -0.207124 0
M  V30 344 O 34.1741 1.72382 -0.463324 0
M  V30 345 C 31.2741 3.24596 -0.974195 0
M  V30 346 C 30.4471 3.80111 -2.16413 0
M  V30 347 C 29.5061 4.93832 -1.81703 0
M  V30 348 O 28.5321 5.09382 -2.54006 0
M  V30 349 N 29.7341 5.75483 -0.761573 0
M  V30 350 H 32.4991 1.96991 -2.25864 0
M  V30 351 H 30.0601 0.950191 -1.31084 0
M  V30 352 H 32.0521 3.98193 -0.722828 0
M  V30 353 H 30.6221 3.12454 -0.0955527 0
M  V30 354 H 29.8421 2.98284 -2.57721 0
M  V30 355 H 31.1301 4.13932 -2.95867 0
M  V30 356 H 30.5281 5.65469 -0.161609 0
M  V30 357 H 29.0851 6.49302 -0.570064 0
M  V30 358 N 32.5182 1.22032 0.997298 0
M  V30 359 C 33.4482 1.01065 2.10495 0
M  V30 360 C 34.4292 -0.0669542 1.69968 0
M  V30 361 O 35.6142 0.0943987 1.9397 0
M  V30 362 C 32.7442 0.582874 3.42374 0
M  V30 363 C 31.6982 1.60592 3.96729 0
M  V30 364 C 31.0242 1.03412 5.24605 0
M  V30 365 C 32.3242 2.99478 4.27914 0
M  V30 366 H 34.0182 1.93708 2.28292 0
M  V30 367 H 31.5642 0.932761 1.09707 0
M  V30 368 H 33.5172 0.423332 4.19268 0
M  V30 369 H 32.2412 -0.379213 3.24391 0
M  V30 370 H 30.9002 1.75316 3.21963 0
M  V30 371 H 30.5482 0.063518 5.0296 0
M  V30 372 H 30.2482 1.71754 5.61938 0
M  V30 373 H 31.7722 0.886066 6.04137 0
M  V30 374 H 33.1862 2.88153 4.95622 0
M  V30 375 H 31.5832 3.64903 4.76409 0
M  V30 376 H 32.6532 3.49742 3.3587 0
M  V30 377 N 33.9963 -1.19345 1.0293 0
M  V30 378 C 35.2423 -1.89318 0.727083 0
M  V30 379 C 35.5753 -1.79446 -0.742483 0
M  V30 380 O 34.8503 -1.1871 -1.54072 0
M  V30 381 C 35.1333 -3.40238 1.17942 0
M  V30 382 C 34.9863 -3.58979 2.71024 0
M  V30 383 C 36.3053 -4.33479 0.760548 0
M  V30 384 H 33.4243 -0.687475 0.265606 0
M  V30 385 H 36.0663 -1.40477 1.2793 0
M  V30 386 H 34.2163 -3.81964 0.709608 0
M  V30 387 H 35.8883 -3.26421 3.25955 0
M  V30 388 H 34.1313 -3.02018 3.11396 0
M  V30 389 H 34.8023 -4.64823 2.9773 0
M  V30 390 H 37.2783 -3.99469 1.16464 0
M  V30 391 H 36.1543 -5.37664 1.10493 0
M  V30 392 H 36.4153 -4.40813 -0.337063 0
M  V30 393 N 35.4744 -0.807222 -1.35358 0
M  V30 394 C 36.3844 -0.219594 -2.3357 0
M  V30 395 C 37.4004 0.637734 -1.61892 0
M  V30 396 O 38.5764 0.549336 -1.93763 0
M  V30 397 C 35.6414 0.62158 -3.41083 0
M  V30 398 C 34.7024 -0.256315 -4.28534 0
M  V30 399 C 33.9354 0.544807 -5.30912 0
M  V30 400 O 34.1584 1.77944 -5.41934 0
M  V30 401 O 33.0924 -0.0646478 -6.01865 0
M  V30 402 H 36.9184 -1.03208 -2.85625 0
M  V30 403 H 34.5034 -0.569025 -1.38139 0
M  V30 404 H 36.3854 1.10067 -4.06772 0
M  V30 405 H 35.0604 1.41165 -2.91297 0
M  V30 406 H 33.9674 -0.782559 -3.65823 0
M  V30 407 H 35.3004 -1.01034 -4.81719 0
M  V30 408 N 36.9525 1.47285 -0.560781 0
M  V30 409 C 38.1775 2.07359 -0.0410566 0
M  V30 410 C 38.6025 1.41017 1.24483 0
M  V30 411 O 37.9605 0.486368 1.74654 0
M  V30 412 C 38.0085 3.6035 0.134123 0
M  V30 413 O 37.1125 3.94681 1.19587 0
M  V30 414 H 36.4535 0.661887 -0.0529291 0
M  V30 415 H 38.9835 1.89252 -0.777482 0
M  V30 416 H 38.9935 4.0652 0.347207 0
M  V30 417 H 37.6685 4.08034 -0.805047 0
M  V30 418 H 36.2455 3.60251 0.962987 0
M  V30 419 N 38.4306 0.297415 1.54768 0
M  V30 420 C 39.6786 -0.312295 1.99673 0
M  V30 421 C 39.9996 -1.54686 1.18732 0
M  V30 422 O 39.2696 -1.93854 0.282382 0
M  V30 423 H 37.8496 -0.118381 0.73756 0
M  V30 424 H 40.5116 0.407915 1.90583 0
M  V30 425 H 39.6076 -0.586813 3.06534 0
M  V30 426 N 39.9087 -1.5758 0.0250728 0
M  V30 427 C 41.1567 -1.91255 -0.653151 0
M  V30 428 C 41.4777 -0.901691 -1.729 0
M  V30 429 O 40.7477 0.0573785 -1.95816 0
M  V30 430 H 39.3277 -0.705942 -0.244243 0
M  V30 431 H 41.9897 -1.94767 0.0719209 0
M  V30 432 H 41.0857 -2.91752 -1.10847 0
M  V30 433 N 41.3868 0.248026 -1.55636 0
M  V30 434 C 42.6348 0.974295 -1.77065 0
M  V30 435 C 42.9558 1.85897 -0.588849 0
M  V30 436 O 42.2258 1.91868 0.395407 0
M  V30 437 H 40.8058 0.362733 -0.653019 0
M  V30 438 H 43.4678 0.266244 -1.93073 0
M  V30 439 H 42.5638 1.59667 -2.68166 0
M  V30 440 N 42.8649 1.48995 0.513639 0
M  V30 441 C 43.7949 1.67636 1.62544 0
M  V30 442 C 44.7759 0.525087 1.61793 0
M  V30 443 O 45.9609 0.759502 1.78732 0
M  V30 444 C 43.0909 1.73114 3.01079 0
M  V30 445 C 42.0449 2.87905 3.16693 0
M  V30 446 C 41.3709 2.78486 4.56453 0
M  V30 447 C 42.6709 4.29005 2.97913 0
M  V30 448 H 44.3649 2.60716 1.47198 0
M  V30 449 H 41.9109 1.25465 0.706714 0
M  V30 450 H 43.8639 1.84742 3.78746 0
M  V30 451 H 42.5879 0.766241 3.17484 0
M  V30 452 H 41.2469 2.75859 2.41448 0
M  V30 453 H 40.8949 1.7993 4.69717 0
M  V30 454 H 40.5949 3.55523 4.67843 0
M  V30 455 H 42.1189 2.92104 5.36197 0
M  V30 456 H 43.5329 4.41798 3.65359 0
M  V30 457 H 41.9299 5.07166 3.20785 0
M  V30 458 H 42.9999 4.44329 1.94165 0
M  V30 459 N 44.343 -0.763751 1.37857 0
M  V30 460 C 45.589 -1.52483 1.33704 0
M  V30 461 C 45.922 -1.94051 -0.0759612 0
M  V30 462 O 45.197 -1.64675 -1.03501 0
M  V30 463 C 45.48 -2.78441 2.28348 0
M  V30 464 C 45.333 -2.43075 3.78463 0
M  V30 465 C 46.652 -3.80415 2.21298 0
M  V30 466 H 43.771 -0.553169 0.487005 0
M  V30 467 H 46.413 -0.875562 1.68624 0
M  V30 468 H 44.563 -3.33842 1.987 0
M  V30 469 H 46.235 -1.93527 4.18742 0
M  V30 470 H 44.478 -1.75666 3.96641 0
M  V30 471 H 45.149 -3.33149 4.40132 0
M  V30 472 H 47.625 -3.34527 2.47449 0
M  V30 473 H 46.501 -4.66257 2.89647 0
M  V30 474 H 46.762 -4.25262 1.20849 0
M  V30 475 N 45.8211 -1.22559 -0.990812 0
M  V30 476 C 46.7531 -0.955325 -2.08342 0
M  V30 477 C 47.7661 0.0668408 -1.62663 0
M  V30 478 O 48.9551 -0.167421 -1.77713 0
M  V30 479 C 46.0551 -0.415566 -3.36342 0
M  V30 480 C 45.2281 -1.49544 -4.11042 0
M  V30 481 C 44.2871 -0.962399 -5.17324 0
M  V30 482 O 43.3131 -1.64907 -5.44788 0
M  V30 483 N 44.5151 0.215134 -5.80101 0
M  V30 484 H 47.2801 -1.89596 -2.32106 0
M  V30 485 H 44.8411 -1.13276 -1.15673 0
M  V30 486 H 46.8331 -0.0442386 -4.04676 0
M  V30 487 H 45.4031 0.430232 -3.09625 0
M  V30 488 H 44.6231 -2.04 -3.37309 0
M  V30 489 H 45.9111 -2.22195 -4.57719 0
M  V30 490 H 45.3091 0.789779 -5.6016 0
M  V30 491 H 43.8661 0.527826 -6.49659 0
M  V30 492 N 47.2992 1.18797 -1.03562 0
M  V30 493 C 48.7102 1.70322 -0.764676 0
M  V30 494 C 49.0612 1.82708 0.714996 0
M  V30 495 O 48.1862 1.50299 1.55689 0
M  V30 496 C 48.7812 3.09356 -1.38145 0
M  V30 497 C 47.3402 3.58114 -1.15895 0
M  V30 498 C 46.4872 2.34798 -1.4753 0
M  V30 499 H 49.4382 1.03543 -1.20268 0
M  V30 500 H 49.4592 3.72378 -0.781977 0
M  V30 501 H 48.9712 3.00309 -2.45837 0
M  V30 502 H 47.0722 3.72464 -0.100544 0
M  V30 503 H 47.1852 4.4184 -1.8524 0
M  V30 504 H 45.5492 2.38464 -0.894829 0
M  V30 505 H 46.3322 2.28375 -2.56319 0
M  V30 506 N 48.7773 0.814389 1.34928 0
M  V30 507 C 50.0253 0.397636 1.9815 0
M  V30 508 C 50.3463 -1.04069 1.64908 0
M  V30 509 O 49.6163 -1.72121 0.93548 0
M  V30 510 H 48.1963 0.144043 0.732981 0
M  V30 511 H 50.8583 1.04195 1.6471 0
M  V30 512 H 49.9543 0.509688 3.0791 0
M  V30 513 N 50.2554 -1.46986 0.568584 0
M  V30 514 C 51.5034 -2.02041 0.0487022 0
M  V30 515 C 51.8244 -1.44408 -1.31039 0
M  V30 516 O 51.0944 -0.623477 -1.85714 0
M  V30 517 H 49.6744 -0.746849 0.015014 0
M  V30 518 H 52.3364 -1.80257 0.741168 0
M  V30 519 H 51.4324 -3.12085 -0.0308961 0
M  V30 520 N 51.7335 -0.305618 -1.54608 0
M  V30 521 C 52.9585 0.307562 -2.05107 0
M  V30 522 C 53.3835 1.46385 -1.18123 0
M  V30 523 O 52.7415 1.8034 -0.186324 0
M  V30 524 C 52.7895 0.73704 -3.52987 0
M  V30 525 O 51.8935 1.84134 -3.6901 0
M  V30 526 H 51.2345 0.0589143 -0.661381 0
M  V30 527 H 53.7645 -0.448807 -1.99617 0
M  V30 528 H 53.7745 1.02459 -3.94925 0
M  V30 529 H 52.4495 -0.108773 -4.15758 0
M  V30 530 H 51.0265 1.55398 -3.38978 0
M  V30 531 N 53.2116 1.57565 -0.0334293 0
M  V30 532 C 54.1416 2.13511 0.945265 0
M  V30 533 C 55.1226 1.05231 1.33643 0
M  V30 534 O 56.3076 1.33084 1.41429 0
M  V30 535 C 53.4376 2.6657 2.22616 0
M  V30 536 C 52.3916 3.79676 1.97561 0
M  V30 537 C 51.7176 4.1918 3.31952 0
M  V30 538 C 53.0176 5.0557 1.31135 0
M  V30 539 H 54.7116 2.95538 0.479325 0
M  V30 540 H 52.2576 1.42166 0.229115 0
M  V30 541 H 54.2106 3.04344 2.91466 0
M  V30 542 H 52.9346 1.8171 2.71384 0
M  V30 543 H 51.5936 3.42347 1.31127 0
M  V30 544 H 51.2416 3.31296 3.78487 0
M  V30 545 H 50.9416 4.95402 3.15992 0
M  V30 546 H 52.4656 4.59541 4.02063 0
M  V30 547 H 53.8796 5.40903 1.89992 0
M  V30 548 H 52.2766 5.86818 1.25559 0
M  V30 549 H 53.3466 4.84062 0.284894 0
M  V30 550 N 54.6897 -0.239769 1.55765 0
M  V30 551 C 56.1057 -0.588624 1.48349 0
M  V30 552 C 56.3057 -1.88005 0.72502 0
M  V30 553 O 55.3617 -2.51186 0.257269 0
M  V30 554 C 56.6747 -0.68474 2.928 0
M  V30 555 C 58.2227 -0.77659 3.03213 0
M  V30 556 C 58.6977 -0.904207 4.48986 0
M  V30 557 N 60.1887 -0.968896 4.52953 0
M  V30 558 C 60.9237 -1.08703 5.63002 0
M  V30 559 N 60.4197 -1.17026 6.82845 0
M  V30 560 N 62.2127 -1.12074 5.50814 0
M  V30 561 H 54.3637 0.607911 2.03515 0
M  V30 562 H 56.6267 0.21083 0.924259 0
M  V30 563 H 56.3327 0.194284 3.51163 0
M  V30 564 H 56.2067 -1.55435 3.43686 0
M  V30 565 H 58.5937 -1.64606 2.44926 0
M  V30 566 H 58.6747 0.118315 2.55526 0
M  V30 567 H 58.3187 -0.0392633 5.07885 0
M  V30 568 H 58.2487 -1.81426 4.9436 0
M  V30 569 H 60.7397 -0.915633 3.6664 0
M  V30 570 H 61.0527 -1.25966 7.62465 0
M  V30 571 H 59.3977 -1.13971 6.85591 0
M  V30 572 H 62.5887 -1.05226 4.5612 0
M  V30 573 H 62.7617 -1.20936 6.36615 0
M  V30 574 N 56.1678 -1.49265 -0.50573 0
M  V30 575 C 57.0978 -1.68495 -1.61653 0
M  V30 576 C 58.0788 -0.53366 -1.61512 0
M  V30 577 O 59.2638 -0.76897 -1.78327 0
M  V30 578 C 56.3938 -1.74709 -3.00157 0
M  V30 579 C 55.3478 -2.89581 -3.15162 0
M  V30 580 C 54.6738 -2.80903 -4.5497 0
M  V30 581 C 55.9738 -4.30578 -2.95634 0
M  V30 582 H 57.6678 -2.61493 -1.45814 0
M  V30 583 H 55.2138 -1.25838 -0.70005 0
M  V30 584 H 57.1668 -1.86748 -3.77761 0
M  V30 585 H 55.8908 -0.783067 -3.17074 0
M  V30 586 H 54.5498 -2.77136 -2.39982 0
M  V30 587 H 54.1978 -1.82419 -4.68756 0
M  V30 588 H 53.8978 -3.57999 -4.65951 0
M  V30 589 H 55.4218 -2.94944 -5.34641 0
M  V30 590 H 56.8358 -4.4373 -3.63011 0
M  V30 591 H 55.2328 -5.0886 -3.18091 0
M  V30 592 H 56.3028 -4.45352 -1.91806 0
M  V30 593 N 57.6459 0.756429 -1.3826 0
M  V30 594 C 58.8709 1.55077 -1.37717 0
M  V30 595 C 59.2959 1.88073 0.03164 0
M  V30 596 O 58.6539 1.50364 1.01293 0
M  V30 597 C 58.7019 2.8283 -2.23695 0
M  V30 598 O 57.8059 3.77862 -1.6521 0
M  V30 599 H 57.1469 0.469152 -0.469885 0
M  V30 600 H 59.6769 0.935019 -1.81985 0
M  V30 601 H 59.6869 3.31783 -2.37453 0
M  V30 602 H 58.3619 2.58144 -3.2609 0
M  V30 603 H 56.9389 3.36555 -1.60578 0
M  V30 604 N 59.124 1.23083 0.984299 0
M  V30 605 C 60.364 1.07226 1.74017 0
M  V30 606 C 60.728 -0.384766 1.88105 0
M  V30 607 O 61.929 -0.664411 2.60459 0
M  V30 608 C 60.2 1.77348 3.10294 0
M  V30 609 S 61.759 1.77014 4.01512 0
M  V30 610 H 58.577 0.383819 0.598502 0
M  V30 611 H 61.179 1.56158 1.17622 0
M  V30 612 H 59.883 2.82506 2.97689 0
M  V30 613 H 59.414 1.28682 3.71759 0
M  V30 614 H 61.429 0.825956 4.89277 0
M  V30 615 N 60.6021 -1.18246 1.0419 0
M  V30 616 C 61.5651 -2.20128 0.638452 0
M  V30 617 C 62.5651 -1.57885 -0.304805 0
M  V30 618 O 63.7551 -1.73967 -0.0900369 0
M  V30 619 C 60.8871 -3.4084 -0.0637751 0
M  V30 620 H 62.0801 -2.57336 1.54007 0
M  V30 621 H 59.6331 -1.32152 0.834598 0
M  V30 622 H 60.3681 -3.09166 -0.979136 0
M  V30 623 H 60.1531 -3.8726 0.614198 0
M  V30 624 H 61.6431 -4.16274 -0.332512 0
M  V30 625 N 62.0802 -0.821533 -1.34494 0
M  V30 626 C 63.0432 -0.247847 -2.27856 0
M  V30 627 C 64.0432 0.573453 -1.50227 0
M  V30 628 O 65.2332 0.389759 -1.69784 0
M  V30 629 C 62.3652 0.652698 -3.34593 0
M  V30 630 H 63.5582 -1.07146 -2.80107 0
M  V30 631 H 61.1112 -0.593291 -1.44602 0
M  V30 632 H 61.8462 1.49943 -2.87555 0
M  V30 633 H 61.6312 0.065292 -3.92046 0
M  V30 634 H 63.1212 1.04793 -4.04238 0
M  V30 635 N 63.5583 1.46682 -0.576371 0
M  V30 636 C 64.7833 2.07304 -0.0630475 0
M  V30 637 C 65.2083 1.42329 1.2298 0
M  V30 638 O 64.5663 0.504865 1.74129 0
M  V30 639 C 64.6143 3.60472 0.095895 0
M  V30 640 O 63.7183 3.95927 1.15394 0
M  V30 641 H 63.0593 0.661288 -0.0599463 0
M  V30 642 H 65.5893 1.88417 -0.797511 0
M  V30 643 H 65.5993 4.06865 0.304071 0
M  V30 644 H 64.2743 4.07157 -0.84828 0
M  V30 645 H 62.8513 3.61252 0.924724 0
M  V30 646 N 65.0364 0.313813 1.54444 0
M  V30 647 C 66.2844 -0.291099 1.99993 0
M  V30 648 C 66.6054 -1.53418 1.20366 0
M  V30 649 O 65.8754 -1.93544 0.302927 0
M  V30 650 H 64.4554 -0.110552 0.738774 0
M  V30 651 H 67.1174 0.428106 1.9014 0
M  V30 652 H 66.2134 -0.554268 3.07139 0
M  V30 653 N 66.5145 -1.57545 0.0417849 0
M  V30 654 C 67.7615 -1.92317 -0.634082 0
M  V30 655 C 68.0895 -0.919334 -1.71402 0
M  V30 656 O 67.3445 0.0698253 -1.95575 0
M  V30 657 C 67.6435 -3.33794 -1.27735 0
M  V30 658 C 67.3095 -4.49716 -0.326543 0
M  V30 659 C 65.9715 -4.81156 -0.0648814 0
M  V30 660 C 68.3235 -5.20182 0.325623 0
M  V30 661 C 65.6515 -5.80414 0.856539 0
M  V30 662 C 68.0035 -6.20424 1.23518 0
M  V30 663 C 66.6675 -6.50298 1.5056 0
M  V30 664 H 65.9375 -0.703736 -0.232027 0
M  V30 665 H 68.5845 -1.91205 0.106259 0
M  V30 666 H 66.8895 -3.31228 -2.09274 0
M  V30 667 H 68.5865 -3.57975 -1.80707 0
M  V30 668 H 65.1765 -4.25176 -0.540665 0
M  V30 669 H 69.3605 -4.96112 0.136546 0
M  V30 670 H 64.6165 -6.019 1.07363 0
M  V30 671 H 68.7905 -6.74141 1.74664 0
M  V30 672 H 66.4175 -7.27025 2.22123 0
M  V30 673 N 67.9926 0.231505 -1.5589 0
M  V30 674 C 69.2206 0.974505 -1.82513 0
M  V30 675 C 69.6356 1.78344 -0.619591 0
M  V30 676 O 68.9926 1.77792 0.411848 0
M  V30 677 C 69.0436 1.90007 -3.07538 0
M  V30 678 O 68.7646 1.12385 -4.2344 0
M  V30 679 C 70.2656 2.75779 -3.47075 0
M  V30 680 H 67.4856 0.286065 -0.606966 0
M  V30 681 H 70.0296 0.249739 -2.02969 0
M  V30 682 H 68.1846 2.57891 -2.89086 0
M  V30 683 H 68.5986 1.75125 -4.944 0
M  V30 684 H 70.0726 3.36443 -4.37619 0
M  V30 685 H 70.5496 3.47672 -2.68367 0
M  V30 686 H 71.1556 2.13323 -3.67931 0
M  V30 687 N 69.4707 1.49531 0.497807 0
M  V30 688 C 70.7177 1.59179 1.25173 0
M  V30 689 C 71.0457 0.279932 1.92475 0
M  V30 690 O 70.3007 -0.732383 1.81479 0
M  V30 691 C 70.5997 2.70252 2.33878 0
M  V30 692 C 70.2657 4.11644 1.84012 0
M  V30 693 C 68.9277 4.50121 1.70132 0
M  V30 694 C 71.2797 5.00121 1.46725 0
M  V30 695 C 68.6077 5.74845 1.17348 0
M  V30 696 C 70.9597 6.25366 0.95392 0
M  V30 697 C 69.6237 6.6267 0.801538 0
M  V30 698 H 68.8937 0.582478 0.45804 0
M  V30 699 H 71.5407 1.83373 0.551948 0
M  V30 700 H 69.8457 2.40041 3.09657 0
M  V30 701 H 71.5427 2.74925 2.9192 0
M  V30 702 H 68.1327 3.81274 1.95775 0
M  V30 703 H 72.3167 4.71048 1.56294 0
M  V30 704 H 67.5727 6.02444 1.04264 0
M  V30 705 H 71.7467 6.93301 0.656225 0
M  V30 706 H 69.3737 7.59197 0.390351 0
M  V30 707 N 70.9488 -0.749086 1.3866 0
M  V30 708 C 72.1738 -1.54344 1.38538 0
M  V30 709 C 72.5988 -1.88088 -0.0216655 0
M  V30 710 O 71.9568 -1.50899 -1.00494 0
M  V30 711 C 72.0048 -2.8164 2.25192 0
M  V30 712 O 71.1088 -3.7698 1.67212 0
M  V30 713 H 70.4498 -0.466654 0.472367 0
M  V30 714 H 72.9798 -0.925355 1.82478 0
M  V30 715 H 72.9898 -3.30519 2.3921 0
M  V30 716 H 71.6648 -2.56411 3.27454 0
M  V30 717 H 70.2418 -3.35699 1.6236 0
M  V30 718 N 72.4269 -1.23603 -0.977757 0
M  V30 719 C 73.6519 -1.09735 -1.75991 0
M  V30 720 C 74.0769 0.346858 -1.84874 0
M  V30 721 O 73.4349 1.25093 -1.3123 0
M  V30 722 C 73.4829 -1.73051 -3.16363 0
M  V30 723 O 72.5869 -0.994452 -4.0023 0
M  V30 724 H 71.9279 -0.384476 -0.541364 0
M  V30 725 H 74.4579 -1.6371 -1.2272 0
M  V30 726 H 74.4679 -1.78398 -3.66931 0
M  V30 727 H 73.1429 -2.78137 -3.09213 0
M  V30 728 H 71.7199 -1.01812 -3.58732 0
M  V30 729 N 73.905 1.17692 -1.04816 0
M  V30 730 C 75.135 1.91508 -0.775128 0
M  V30 731 C 75.543 1.76844 0.67253 0
M  V30 732 O 74.886 1.10057 1.47082 0
M  V30 733 C 74.948 3.43167 -1.0713 0
M  V30 734 C 74.612 3.81612 -2.51438 0
M  V30 735 C 75.609 3.84772 -3.49638 0
M  V30 736 C 73.294 4.12687 -2.86348 0
M  V30 737 C 75.288 4.18469 -4.80794 0
M  V30 738 C 72.975 4.46053 -4.17708 0
M  V30 739 C 73.973 4.48921 -5.14741 0
M  V30 740 O 73.661 4.81504 -6.43746 0
M  V30 741 H 73.393 0.614575 -0.281555 0
M  V30 742 H 75.947 1.50206 -1.40098 0
M  V30 743 H 74.177 3.84745 -0.388342 0
M  V30 744 H 75.866 3.98239 -0.784883 0
M  V30 745 H 76.632 3.60893 -3.24008 0
M  V30 746 H 72.511 4.09627 -2.11486 0
M  V30 747 H 76.055 4.20623 -5.56527 0
M  V30 748 H 71.952 4.69393 -4.43103 0
M  V30 749 H 72.72 4.99377 -6.4851 0
M  V30 750 N 75.3831 0.828654 1.34056 0
M  V30 751 C 76.3461 0.259927 2.27721 0
M  V30 752 C 77.3461 -0.565478 1.50529 0
M  V30 753 O 78.5361 -0.38075 1.69988 0
M  V30 754 C 75.6681 -0.634944 3.34935 0
M  V30 755 H 76.8611 1.0863 2.79534 0
M  V30 756 H 74.4141 0.600951 1.44285 0
M  V30 757 H 75.1491 -1.48416 2.88346 0
M  V30 758 H 74.9341 -0.0444999 3.92075 0
M  V30 759 H 76.4241 -1.02648 4.04788 0
M  V30 760 N 76.8612 -1.46375 0.584142 0
M  V30 761 C 77.7942 -2.27351 -0.196676 0
M  V30 762 C 78.7722 -1.35715 -0.895561 0
M  V30 763 O 79.9562 -1.65126 -0.90916 0
M  V30 764 C 77.0832 -3.13486 -1.28235 0
M  V30 765 C 76.1292 -4.20896 -0.689145 0
M  V30 766 S 76.9622 -5.33299 0.48507 0
M  V30 767 C 78.1182 -6.23 -0.601767 0
M  V30 768 H 78.3512 -2.93228 0.490395 0
M  V30 769 H 75.8842 -1.49875 0.371071 0
M  V30 770 H 77.8422 -3.63676 -1.90395 0
M  V30 771 H 76.5032 -2.4692 -1.94138 0
M  V30 772 H 75.6962 -4.80997 -1.50527 0
M  V30 773 H 75.2982 -3.73726 -0.143181 0
M  V30 774 H 77.5902 -6.60979 -1.48705 0
M  V30 775 H 78.5332 -7.0809 -0.0374799 0
M  V30 776 H 78.9412 -5.57173 -0.906557 0
M  V30 777 N 78.3393 -0.321999 -1.54275 0
M  V30 778 C 79.5643 0.285791 -2.05422 0
M  V30 779 C 79.9893 1.45124 -1.19669 0
M  V30 780 O 79.3473 1.80132 -0.205441 0
M  V30 781 C 79.3953 0.69956 -3.53749 0
M  V30 782 O 78.4993 1.8021 -3.70942 0
M  V30 783 H 77.8403 0.0518962 -0.661969 0
M  V30 784 H 80.3703 -0.469954 -1.9913 0
M  V30 785 H 80.3803 0.982649 -3.9599 0
M  V30 786 H 79.0553 -0.152864 -4.15619 0
M  V30 787 H 77.6323 1.51794 -3.40607 0
M  V30 788 N 79.8174 1.5752 -0.0501392 0
M  V30 789 C 81.0634 1.93755 0.618901 0
M  V30 790 C 81.4184 0.928514 1.68512 0
M  V30 791 O 80.7114 -0.0524613 1.91528 0
M  V30 792 C 80.9054 3.34467 1.25963 0
M  V30 793 C 80.7344 4.48965 0.257 0
M  V30 794 C 79.5044 5.05075 -0.150656 0
M  V30 795 C 81.7024 5.11891 -0.497166 0
M  V30 796 N 79.6844 6.03104 -1.14626 0
M  V30 797 C 81.0554 6.05216 -1.34588 0
M  V30 798 C 83.1104 4.9479 -0.55559 0
M  V30 799 C 81.8134 6.83277 -2.24778 0
M  V30 800 C 83.8394 5.73477 -1.44492 0
M  V30 801 C 83.2014 6.66433 -2.28136 0
M  V30 802 H 79.3004 0.756479 0.198149 0
M  V30 803 H 81.8844 1.94316 -0.122229 0
M  V30 804 H 80.0554 3.34685 1.97079 0
M  V30 805 H 81.7874 3.57994 1.88739 0
M  V30 806 H 78.5424 4.7305 0.228094 0
M  V30 807 H 78.9664 6.56813 -1.64092 0
M  V30 808 H 83.6084 4.2273 0.0768625 0
M  V30 809 H 81.3264 7.54629 -2.89069 0
M  V30 810 H 84.9124 5.62273 -1.49468 0
M  V30 811 H 83.7924 7.26258 -2.95835 0
M  V30 812 N 81.2955 -0.223234 1.56011 0
M  V30 813 C 82.5415 -0.949279 1.79211 0
M  V30 814 C 82.8745 -1.84054 0.619494 0
M  V30 815 O 82.1495 -1.90726 -0.381317 0
M  V30 816 C 82.4325 -1.78965 3.12479 0
M  V30 817 C 82.2855 -0.924997 4.40186 0
M  V30 818 C 83.6045 -2.76774 3.42175 0
M  V30 819 H 80.7235 -0.343676 0.651963 0
M  V30 820 H 83.3655 -0.218253 1.88742 0
M  V30 821 H 81.5155 -2.41291 3.04485 0
M  V30 822 H 83.1875 -0.318615 4.60198 0
M  V30 823 H 81.4305 -0.230344 4.33188 0
M  V30 824 H 82.1015 -1.54735 5.29869 0
M  V30 825 H 84.5775 -2.24584 3.50287 0
M  V30 826 H 83.4535 -3.32678 4.36597 0
M  V30 827 H 83.7145 -3.54429 2.64258 0
M  V30 828 N 82.7736 -1.49793 -0.48987 0
M  V30 829 C 84.1896 -1.36803 -0.822022 0
M  V30 830 C 84.3896 -0.409652 -1.97292 0
M  V30 831 O 83.4456 0.154614 -2.52026 0
M  V30 832 C 84.7586 -2.77768 -1.15175 0
M  V30 833 C 86.3066 -2.86549 -1.25931 0
M  V30 834 C 86.7816 -4.28306 -1.62228 0
M  V30 835 N 88.2726 -4.31169 -1.69256 0
M  V30 836 C 89.0076 -5.37832 -1.98807 0
M  V30 837 N 88.5036 -6.54726 -2.26507 0
M  V30 838 N 90.2966 -5.25258 -2.00152 0
M  V30 839 H 82.4476 -2.10691 0.268881 0
M  V30 840 H 84.7106 -0.946241 0.057728 0
M  V30 841 H 84.4166 -3.49648 -0.379335 0
M  V30 842 H 84.2906 -3.13836 -2.09253 0
M  V30 843 H 86.6776 -2.14899 -2.02243 0
M  V30 844 H 86.7586 -2.54049 -0.298776 0
M  V30 845 H 86.4026 -5.00486 -0.864622 0
M  V30 846 H 86.3326 -4.58279 -2.594 0
M  V30 847 H 88.8236 -3.4687 -1.49965 0
M  V30 848 H 89.1366 -7.31833 -2.48276 0
M  V30 849 H 87.4816 -6.57933 -2.23939 0
M  V30 850 H 90.6726 -4.32938 -1.77996 0
M  V30 851 H 90.8456 -6.08476 -2.22848 0
M  V30 852 N 84.2517 0.741722 -1.39055 0
M  V30 853 C 85.1837 1.8657 -1.33133 0
M  V30 854 C 86.1967 1.61001 -0.241329 0
M  V30 855 O 87.3857 1.7136 -0.499784 0
M  V30 856 C 84.4857 3.22457 -1.04283 0
M  V30 857 C 83.6587 3.75435 -2.24427 0
M  V30 858 C 82.7177 4.89867 -1.92138 0
M  V30 859 O 81.7437 5.03879 -2.64754 0
M  V30 860 N 82.9457 5.73738 -0.88347 0
M  V30 861 H 85.7107 1.92156 -2.29991 0
M  V30 862 H 83.2717 0.922172 -1.3307 0
M  V30 863 H 85.2637 3.9657 -0.807128 0
M  V30 864 H 83.8337 3.12181 -0.161807 0
M  V30 865 H 83.0537 2.92751 -2.6399 0
M  V30 866 H 84.3417 4.07563 -3.04581 0
M  V30 867 H 83.7397 5.64999 -0.281517 0
M  V30 868 H 82.2967 6.47947 -0.707662 0
M  V30 869 N 85.7298 1.2412 0.971189 0
M  V30 870 C 86.6928 1.03156 2.04674 0
M  V30 871 C 87.6928 -0.00990322 1.60797 0
M  V30 872 O 88.8828 0.230729 1.72665 0
M  V30 873 C 86.0148 0.562765 3.36223 0
M  V30 874 H 87.2078 1.98614 2.24705 0
M  V30 875 H 84.7608 1.06293 1.14593 0
M  V30 876 H 85.4958 -0.395176 3.21883 0
M  V30 877 H 85.2808 1.31441 3.69413 0
M  V30 878 H 86.7708 0.437015 4.15307 0
M  V30 879 N 87.2079 -1.17134 1.05439 0
M  V30 880 C 88.6189 -1.69084 0.791676 0
M  V30 881 C 88.9699 -1.83822 -0.685839 0
M  V30 882 O 88.0949 -1.52757 -1.53278 0
M  V30 883 C 88.6899 -3.07119 1.4305 0
M  V30 884 C 87.2489 -3.56225 1.21577 0
M  V30 885 C 86.3959 -2.32421 1.51247 0
M  V30 886 H 89.3469 -1.01617 1.219 0
M  V30 887 H 89.3679 -3.71087 0.84112 0
M  V30 888 H 88.8799 -2.9636 2.50584 0
M  V30 889 H 86.9809 -3.72257 0.159787 0
M  V30 890 H 87.0939 -4.38837 1.92246 0
M  V30 891 H 85.4579 -2.3701 0.932653 0
M  V30 892 H 86.2409 -2.24268 2.5992 0
M  V30 893 N 88.686 -0.835752 -1.33615 0
M  V30 894 C 89.934 -0.429109 -1.97492 0
M  V30 895 C 90.255 1.01433 -1.66543 0
M  V30 896 O 89.525 1.70611 -0.962744 0
M  V30 897 H 88.105 -0.155686 -0.730596 0
M  V30 898 H 90.767 -1.06802 -1.63031 0
M  V30 899 H 89.863 -0.55861 -3.0706 0
M  V30 900 N 90.1641 1.46063 -0.591896 0
M  V30 901 C 91.1111 2.30399 0.136069 0
M  V30 902 C 92.0811 1.41169 0.875238 0
M  V30 903 O 93.2661 1.70112 0.86409 0
M  V30 904 C 90.4061 3.25804 1.13781 0
M  V30 905 C 89.5191 4.30134 0.401137 0
M  V30 906 C 88.6541 5.12659 1.39121 0
M  V30 907 C 87.6931 6.0873 0.641462 0
M  V30 908 N 86.8301 6.8409 1.58004 0
M  V30 909 H 91.6701 2.92118 -0.589144 0
M  V30 910 H 89.2071 1.43959 -0.302342 0
M  V30 911 H 91.1651 3.79569 1.73156 0
M  V30 912 H 89.7951 2.65872 1.83062 0
M  V30 913 H 88.8471 3.79152 -0.307826 0
M  V30 914 H 90.1591 4.98458 -0.184565 0
M  V30 915 H 89.3131 5.70747 2.05749 0
M  V30 916 H 88.0521 4.44316 2.01084 0
M  V30 917 H 87.0571 5.49786 -0.0385419 0
M  V30 918 H 88.2821 6.79095 0.0270945 0
M  V30 919 H 86.2281 6.18449 2.18761 0
M  V30 920 H 86.1451 7.48709 1.04738 0
M  V30 921 H 87.4131 7.4673 2.23639 0
M  V30 922 N 91.6422 0.330177 1.54103 0
M  V30 923 C 92.8902 -0.269871 2.0029 0
M  V30 924 C 93.2112 -1.52133 1.21986 0
M  V30 925 O 92.4812 -1.93212 0.323438 0
M  V30 926 H 91.0612 -0.10271 0.739905 0
M  V30 927 H 93.7232 0.448249 1.89675 0
M  V30 928 H 92.8192 -0.52166 3.07709 0
M  V30 929 N 93.1203 -1.57491 0.0584922 0
M  V30 930 C 94.0503 -2.14988 -0.911178 0
M  V30 931 C 95.0313 -1.07343 -1.31952 0
M  V30 932 O 96.2163 -1.35318 -1.39294 0
M  V30 933 C 93.3463 -2.70078 -2.18347 0
M  V30 934 C 92.3003 -3.82771 -1.91495 0
M  V30 935 C 91.6263 -4.24408 -3.25241 0
M  V30 936 C 92.9263 -5.07592 -1.23075 0
M  V30 937 H 94.6203 -2.96263 -0.432246 0
M  V30 938 H 92.1663 -1.42512 -0.206469 0
M  V30 939 H 94.1193 -3.08943 -2.86587 0
M  V30 940 H 92.8433 -1.86005 -2.68458 0
M  V30 941 H 91.5023 -3.44389 -1.25664 0
M  V30 942 H 91.1503 -3.37275 -3.73168 0
M  V30 943 H 90.8503 -5.00366 -3.08071 0
M  V30 944 H 92.3743 -4.65879 -3.94701 0
M  V30 945 H 93.7883 -5.43857 -1.81362 0
M  V30 946 H 92.1853 -5.88741 -1.16207 0
M  V30 947 H 93.2553 -4.84454 -0.207847 0
M  V30 948 N 94.5984 0.214957 -1.56127 0
M  V30 949 C 95.5084 1.28727 -1.96129 0
M  V30 950 C 96.5244 1.50916 -0.866044 0
M  V30 951 O 97.7004 1.63918 -1.17016 0
M  V30 952 C 94.7654 2.61569 -2.27558 0
M  V30 953 C 93.8264 2.47625 -3.50685 0
M  V30 954 C 93.0594 3.74132 -3.80606 0
M  V30 955 O 93.2824 4.77438 -3.12104 0
M  V30 956 O 92.2164 3.70849 -4.74083 0
M  V30 957 H 96.0424 0.977855 -2.87527 0
M  V30 958 H 93.6274 0.418358 -1.43423 0
M  V30 959 H 95.5094 3.40012 -2.48938 0
M  V30 960 H 94.1844 2.92178 -1.39332 0
M  V30 961 H 93.0914 1.67361 -3.34576 0
M  V30 962 H 94.4244 2.21954 -4.39315 0
M  V30 963 N 96.0765 1.50051 0.48192 0
M  V30 964 C 97.3225 1.61706 1.2338 0
M  V30 965 C 97.6775 0.308488 1.89911 0
M  V30 966 O 96.9705 -0.692798 1.78636 0
M  V30 967 C 97.1645 2.72717 2.30998 0
M  V30 968 C 96.9935 4.14242 1.75024 0
M  V30 969 C 95.7635 4.80786 1.55476 0
M  V30 970 C 97.9615 4.98846 1.25128 0
M  V30 971 N 95.9435 6.06563 0.946311 0
M  V30 972 C 97.3145 6.15258 0.765382 0
M  V30 973 C 99.3695 4.84702 1.13881 0
M  V30 974 C 98.0725 7.19079 0.178113 0
M  V30 975 C 100.098 5.8869 0.565486 0
M  V30 976 C 99.4605 7.04343 0.0899105 0
M  V30 977 H 95.5595 0.645958 0.440753 0
M  V30 978 H 98.1435 1.8713 0.537624 0
M  V30 979 H 96.3145 2.49033 2.98055 0
M  V30 980 H 98.0465 2.73789 2.9803 0
M  V30 981 H 94.8015 4.37899 1.80392 0
M  V30 982 H 95.2255 6.73767 0.660812 0
M  V30 983 H 99.8675 3.95583 1.49244 0
M  V30 984 H 97.5855 8.07882 -0.187749 0
M  V30 985 H 101.171 5.79808 0.480974 0
M  V30 986 H 100.051 7.83433 -0.346782 0
M  V30 987 N 97.5546 -0.734337 1.39446 0
M  V30 988 C 98.8006 -1.49613 1.36908 0
M  V30 989 C 99.1336 -1.94169 -0.0347829 0
M  V30 990 O 98.4086 -1.66833 -0.999847 0
M  V30 991 C 98.6916 -2.73534 2.34203 0
M  V30 992 C 98.5446 -2.34993 3.83534 0
M  V30 993 C 99.8636 -3.75635 2.29317 0
M  V30 994 H 96.9826 -0.542714 0.498629 0
M  V30 995 H 99.6246 -0.839597 1.70443 0
M  V30 996 H 97.7746 -3.29553 2.05736 0
M  V30 997 H 99.4466 -1.84601 4.22753 0
M  V30 998 H 97.6896 -1.67213 4.00278 0
M  V30 999 H 98.3606 -3.23738 4.47099 0
M  V30 1000 H 100.837 -3.29203 2.54489 0
M  V30 1001 H 99.7126 -4.60008 2.99472 0
M  V30 1002 H 99.9736 -4.22603 1.29842 0
M  V30 1003 N 99.0327 -1.24633 -0.964593 0
M  V30 1004 C 100.258 -1.11596 -1.74818 0
M  V30 1005 C 100.683 0.32723 -1.85232 0
M  V30 1006 O 100.041 1.23695 -1.32549 0
M  V30 1007 C 100.089 -1.76397 -3.1451 0
M  V30 1008 O 99.1927 -1.03685 -3.99153 0
M  V30 1009 H 98.5337 -0.390196 -0.537255 0
M  V30 1010 H 101.064 -1.65002 -1.20977 0
M  V30 1011 H 101.074 -1.8228 -3.65018 0
M  V30 1012 H 99.7487 -2.81401 -3.06246 0
M  V30 1013 H 98.3257 -1.05611 -3.57632 0
M  V30 1014 N 100.511 1.16574 -1.06058 0
M  V30 1015 C 101.474 2.19085 -0.673392 0
M  V30 1016 C 102.474 1.5835 0.279648 0
M  V30 1017 O 103.664 1.74088 0.0623488 0
M  V30 1018 C 100.796 3.40899 0.00954234 0
M  V30 1019 H 101.989 2.54853 -1.58081 0
M  V30 1020 H 99.5418 1.30808 -0.855516 0
M  V30 1021 H 100.277 3.10684 0.929826 0
M  V30 1022 H 100.062 3.86233 -0.67573 0
M  V30 1023 H 101.552 4.1675 0.266245 0
M  V30 1024 N 101.989 0.842826 1.3317 0
M  V30 1025 C 103.238 0.436738 1.96915 0
M  V30 1026 C 103.551 -1.01025 1.67491 0
M  V30 1027 O 104.757 -1.5212 2.24881 0
M  V30 1028 C 103.213 0.730021 3.52418 0
M  V30 1029 C 102.821 2.19195 3.90714 0
M  V30 1030 C 104.565 0.391076 4.22695 0
M  V30 1031 C 102.472 2.42907 5.39212 0
M  V30 1032 H 101.402 0.15958 0.736919 0
M  V30 1033 H 104.053 1.03196 1.51733 0
M  V30 1034 H 102.435 0.0643755 3.95948 0
M  V30 1035 H 103.609 2.8984 3.58231 0
M  V30 1036 H 101.924 2.49425 3.33431 0
M  V30 1037 H 104.521 0.545817 5.31907 0
M  V30 1038 H 104.864 -0.666294 4.10933 0
M  V30 1039 H 105.397 1.01212 3.84709 0
M  V30 1040 H 102.136 3.47224 5.55982 0
M  V30 1041 H 101.656 1.76827 5.73142 0
M  V30 1042 H 103.335 2.2626 6.06148 0
M  V30 1043 N 103.467 -1.45747 0.599634 0
M  V30 1044 C 104.692 -2.07178 0.0960198 0
M  V30 1045 C 105.117 -1.44268 -1.207 0
M  V30 1046 O 104.475 -0.532503 -1.73303 0
M  V30 1047 C 104.523 -3.60579 -0.0385348 0
M  V30 1048 O 103.627 -3.97713 -1.0908 0
M  V30 1049 H 102.968 -0.660251 0.0704593 0
M  V30 1050 H 105.498 -1.87124 0.827385 0
M  V30 1051 H 105.508 -4.07298 -0.239304 0
M  V30 1052 H 104.183 -4.05756 0.912947 0
M  V30 1053 H 102.76 -3.62678 -0.867135 0
M  V30 1054 N 104.945 -0.338344 -1.53925 0
M  V30 1055 C 106.193 0.259245 -2.0043 0
M  V30 1056 C 106.514 1.51484 -1.22791 0
M  V30 1057 O 105.784 1.93037 -0.33368 0
M  V30 1058 H 104.364 0.0987845 -0.740439 0
M  V30 1059 H 107.026 -0.458302 -1.89435 0
M  V30 1060 H 106.122 0.505334 -3.07982 0
M  V30 1061 N 106.423 1.57458 -0.0668435 0
M  V30 1062 C 107.648 1.9804 0.616027 0
M  V30 1063 C 108.073 0.944771 1.62652 0
M  V30 1064 O 107.431 -0.0902094 1.81075 0
M  V30 1065 C 107.479 3.37665 1.26549 0
M  V30 1066 O 106.583 3.36701 2.38131 0
M  V30 1067 H 105.924 0.644719 0.158849 0
M  V30 1068 H 108.454 2.04121 -0.139891 0
M  V30 1069 H 108.464 3.7474 1.6135 0
M  V30 1070 H 107.139 4.12573 0.525016 0
M  V30 1071 H 105.716 3.1139 2.0516 0
M  V30 1072 N 107.901 -0.206675 1.56239 0
M  V30 1073 C 109.149 -0.927007 1.79586 0
M  V30 1074 C 109.47 -1.8427 0.637929 0
M  V30 1075 O 108.74 -1.92849 -0.344398 0
M  V30 1076 H 107.32 -0.345292 0.662407 0
M  V30 1077 H 109.982 -0.21496 1.93711 0
M  V30 1078 H 109.078 -1.52501 2.72305 0
M  V30 1079 N 109.379 -1.50304 -0.473955 0
M  V30 1080 C 110.627 -1.60832 -1.22382 0
M  V30 1081 C 110.948 -0.30939 -1.9253 0
M  V30 1082 O 110.218 0.67296 -1.83978 0
M  V30 1083 H 108.798 -0.592652 -0.454723 0
M  V30 1084 H 111.46 -1.87068 -0.546968 0
M  V30 1085 H 110.556 -2.41803 -1.97327 0
M  V30 1086 N 110.857 0.726932 -1.39834 0
M  V30 1087 C 112.082 1.52121 -1.40976 0
M  V30 1088 C 112.507 1.88098 -0.00826029 0
M  V30 1089 O 111.865 1.52479 0.980807 0
M  V30 1090 C 111.913 2.78021 -2.29644 0
M  V30 1091 O 111.017 3.74272 -1.73188 0
M  V30 1092 H 110.358 0.45908 -0.479731 0
M  V30 1093 H 112.888 0.896207 -1.83927 0
M  V30 1094 H 112.898 3.26671 -2.44438 0
M  V30 1095 H 111.573 2.51169 -3.31492 0
M  V30 1096 H 110.15 3.33073 -1.6768 0
M  V30 1097 N 112.336 1.25143 0.95797 0
M  V30 1098 C 113.564 1.12424 1.73691 0
M  V30 1099 C 113.979 -0.322304 1.86029 0
M  V30 1100 O 113.336 -1.22186 1.35561 0
M  V30 1101 C 113.387 1.76933 3.15241 0
M  V30 1102 O 113.108 3.15932 3.03511 0
M  V30 1103 C 114.609 1.6995 4.09429 0
M  V30 1104 H 111.829 0.3923 0.544373 0
M  V30 1105 H 114.373 1.6544 1.20207 0
M  V30 1106 H 112.528 1.27895 3.6568 0
M  V30 1107 H 112.942 3.47598 3.9278 0
M  V30 1108 H 114.416 2.19753 5.06372 0
M  V30 1109 H 114.893 0.662619 4.34173 0
M  V30 1110 H 115.499 2.18461 3.64904 0
M  V30 1111 N 113.814 -1.1601 1.06675 0
M  V30 1112 C 115.044 -1.90251 0.805497 0
M  V30 1113 C 115.452 -1.77891 -0.64431 0
M  V30 1114 O 114.795 -1.12383 -1.45313 0
M  V30 1115 C 114.857 -3.41419 1.12576 0
M  V30 1116 C 114.521 -3.77564 2.57477 0
M  V30 1117 C 115.518 -3.79161 3.55715 0
M  V30 1118 C 113.203 -4.08079 2.92877 0
M  V30 1119 C 115.197 -4.10767 4.8739 0
M  V30 1120 C 112.884 -4.39351 4.24751 0
M  V30 1121 C 113.882 -4.40675 5.21818 0
M  V30 1122 O 113.57 -4.71202 6.51325 0
M  V30 1123 H 113.302 -0.610018 0.291297 0
M  V30 1124 H 115.856 -1.47958 1.4247 0
M  V30 1125 H 114.086 -3.84079 0.449503 0
M  V30 1126 H 115.775 -3.9694 0.84814 0
M  V30 1127 H 116.541 -3.55693 3.29708 0
M  V30 1128 H 112.42 -4.06211 2.17976 0
M  V30 1129 H 115.964 -4.11715 5.63148 0
M  V30 1130 H 111.861 -4.62285 4.50514 0
M  V30 1131 H 112.629 -4.88996 6.56373 0
M  V30 1132 N 115.292 -0.849877 -1.32721 0
M  V30 1133 C 116.522 -0.46408 -2.0132 0
M  V30 1134 C 116.93 0.94246 -1.64056 0
M  V30 1135 O 116.273 1.6257 -0.855379 0
M  V30 1136 C 116.335 -0.517887 -3.5575 0
M  V30 1137 C 115.999 -1.88248 -4.16427 0
M  V30 1138 C 116.996 -2.84726 -4.35002 0
M  V30 1139 C 114.681 -2.17832 -4.52609 0
M  V30 1140 C 116.675 -4.08945 -4.8892 0
M  V30 1141 C 114.362 -3.42304 -5.06232 0
M  V30 1142 C 115.36 -4.37677 -5.24335 0
M  V30 1143 O 115.048 -5.59946 -5.76815 0
M  V30 1144 H 114.78 -0.181327 -0.651227 0
M  V30 1145 H 117.334 -1.14713 -1.70382 0
M  V30 1146 H 115.564 0.221997 -3.86062 0
M  V30 1147 H 117.253 -0.148366 -4.05629 0
M  V30 1148 H 118.019 -2.63174 -4.07388 0
M  V30 1149 H 113.898 -1.44385 -4.37806 0
M  V30 1150 H 117.442 -4.83396 -5.02966 0
M  V30 1151 H 113.339 -3.63709 -5.33278 0
M  V30 1152 H 114.107 -5.61838 -5.95214 0
M  V30 1153 N 116.77 1.45427 -0.607355 0
M  V30 1154 C 117.733 2.28974 0.101693 0
M  V30 1155 C 118.733 1.39754 0.795329 0
M  V30 1156 O 119.923 1.61878 0.643527 0
M  V30 1157 C 117.055 3.20768 1.15414 0
M  V30 1158 H 118.248 2.93147 -0.632844 0
M  V30 1159 H 115.801 1.51945 -0.366391 0
M  V30 1160 H 116.536 2.61395 1.91945 0
M  V30 1161 H 116.321 3.86489 0.66098 0
M  V30 1162 H 117.811 3.83589 1.65073 0
M  V30 1163 N 118.248 0.346503 1.53744 0
M  V30 1164 C 119.525 -0.304532 1.93215 0
M  V30 1165 C 119.905 -1.67993 1.27834 0
M  V30 1166 O 119.253 -2.24411 0.430352 0
M  V30 1167 C 119.463 -0.373852 3.46992 0
M  V30 1168 C 120.811 -0.62329 4.2 0
M  V30 1169 O 121.835 -0.455847 3.53271 0
M  V30 1170 O 120.694 -0.947879 5.38217 0
M  V30 1171 H 117.788 -0.178318 0.807547 0
M  V30 1172 H 120.334 0.397895 1.64969 0
M  V30 1173 H 119.106 0.591224 3.86808 0
M  V30 1174 H 118.729 -1.12294 3.81413 0
M  V30 1175 N 119.726 -1.57421 0.075193 0
M  V30 1176 C 120.951 -1.98364 -0.605515 0
M  V30 1177 C 121.376 -0.953383 -1.62149 0
M  V30 1178 O 120.734 0.0806053 -1.81121 0
M  V30 1179 C 120.782 -3.38332 -1.24756 0
M  V30 1180 O 119.886 -3.37959 -2.36342 0
M  V30 1181 H 119.227 -0.645553 -0.155428 0
M  V30 1182 H 121.757 -2.04044 0.150714 0
M  V30 1183 H 121.767 -3.75591 -1.5936 0
M  V30 1184 H 120.442 -4.12846 -0.503129 0
M  V30 1185 H 119.019 -3.12474 -2.03506 0
M  V30 1186 N 121.204 0.198386 -1.56346 0
M  V30 1187 C 122.45 0.920648 -1.80698 0
M  V30 1188 C 122.783 1.83045 -0.648697 0
M  V30 1189 O 122.058 1.91308 0.350925 0
M  V30 1190 C 122.341 1.73971 -3.15287 0
M  V30 1191 C 122.194 0.85485 -4.41602 0
M  V30 1192 C 123.513 2.71296 -3.46535 0
M  V30 1193 H 120.632 0.333261 -0.657348 0
M  V30 1194 H 123.274 0.188198 -1.89066 0
M  V30 1195 H 121.424 2.36416 -3.08285 0
M  V30 1196 H 123.096 0.245362 -4.60647 0
M  V30 1197 H 121.339 0.161398 -4.335 0
M  V30 1198 H 122.01 1.46286 -5.32264 0
M  V30 1199 H 124.486 2.18983 -3.53816 0
M  V30 1200 H 123.362 3.2569 -4.41834 0
M  V30 1201 H 123.623 3.5018 -2.69864 0
M  V30 1202 N 122.682 1.50554 0.465978 0
M  V30 1203 C 123.629 1.6979 1.56333 0
M  V30 1204 C 124.599 0.539239 1.57103 0
M  V30 1205 O 125.784 0.770401 1.74555 0
M  V30 1206 C 122.924 1.80273 2.94271 0
M  V30 1207 C 122.037 3.07674 3.0325 0
M  V30 1208 C 121.172 3.08922 4.32135 0
M  V30 1209 C 120.211 4.30755 4.34875 0
M  V30 1210 N 119.348 4.29714 5.55239 0
M  V30 1211 H 124.188 2.63472 1.39235 0
M  V30 1212 H 121.725 1.30602 0.676873 0
M  V30 1213 H 123.683 1.84332 3.74269 0
M  V30 1214 H 122.313 0.900258 3.09992 0
M  V30 1215 H 121.365 3.13062 2.16094 0
M  V30 1216 H 122.677 3.97642 3.01135 0
M  V30 1217 H 121.831 3.11738 5.20485 0
M  V30 1218 H 120.57 2.16792 4.36866 0
M  V30 1219 H 119.575 4.28146 3.44922 0
M  V30 1220 H 120.8 5.24117 4.31831 0
M  V30 1221 H 118.746 3.4044 5.60746 0
M  V30 1222 H 118.663 5.13456 5.54886 0
M  V30 1223 H 119.931 4.36683 6.457 0
M  V30 1224 N 124.16 -0.719506 1.40217 0
M  V30 1225 C 125.408 -1.47641 1.3801 0
M  V30 1226 C 125.729 -1.94992 -0.018145 0
M  V30 1227 O 124.999 -1.70073 -0.972207 0
M  V30 1228 H 123.579 -0.547744 0.507923 0
M  V30 1229 H 126.241 -0.853187 1.75233 0
M  V30 1230 H 125.337 -2.35112 2.05253 0
M  V30 1231 N 125.638 -1.25649 -0.95132 0
M  V30 1232 C 127.054 -1.02542 -1.223 0
M  V30 1233 C 127.254 0.255715 -1.99871 0
M  V30 1234 O 126.31 0.967558 -2.33226 0
M  V30 1235 C 127.623 -2.25065 -1.99415 0
M  V30 1236 C 129.171 -2.29861 -2.12446 0
M  V30 1237 C 129.646 -3.52048 -2.92961 0
M  V30 1238 N 131.137 -3.52465 -3.00538 0
M  V30 1239 C 131.872 -4.43672 -3.63239 0
M  V30 1240 N 131.368 -5.45157 -4.27523 0
M  V30 1241 N 133.161 -4.31346 -3.60412 0
M  V30 1242 H 125.312 -2.07951 -0.432471 0
M  V30 1243 H 127.575 -0.91339 -0.253816 0
M  V30 1244 H 127.281 -3.18194 -1.49817 0
M  V30 1245 H 127.155 -2.28502 -3.00111 0
M  V30 1246 H 129.542 -1.37252 -2.61239 0
M  V30 1247 H 129.623 -2.3044 -1.11044 0
M  V30 1248 H 129.267 -4.44981 -2.44856 0
M  V30 1249 H 129.197 -3.48715 -3.94596 0
M  V30 1250 H 131.688 -2.79056 -2.54826 0
M  V30 1251 H 132.001 -6.10958 -4.73234 0
M  V30 1252 H 130.346 -5.49025 -4.26141 0
M  V30 1253 H 133.537 -3.51288 -3.09377 0
M  V30 1254 H 133.71 -5.02624 -4.0899 0
M  V30 1255 N 127.117 1.15442 -1.07289 0
M  V30 1256 C 128.364 1.86213 -0.795668 0
M  V30 1257 C 128.692 1.82291 0.678238 0
M  V30 1258 O 127.947 1.24057 1.51355 0
M  V30 1259 C 128.246 3.3489 -1.24834 0
M  V30 1260 C 127.912 3.59007 -2.72809 0
M  V30 1261 C 126.574 3.65298 -3.13227 0
M  V30 1262 C 128.926 3.68762 -3.68326 0
M  V30 1263 C 126.254 3.78854 -4.4798 0
M  V30 1264 C 128.606 3.83842 -5.0284 0
M  V30 1265 C 127.27 3.88378 -5.4288 0
M  V30 1266 H 126.54 0.681403 -0.291155 0
M  V30 1267 H 129.187 1.36435 -1.34379 0
M  V30 1268 H 127.492 3.8687 -0.619595 0
M  V30 1269 H 129.189 3.88052 -1.01076 0
M  V30 1270 H 125.779 3.5475 -2.40521 0
M  V30 1271 H 129.963 3.63202 -3.38227 0
M  V30 1272 H 125.219 3.80623 -4.78472 0
M  V30 1273 H 129.393 3.90332 -5.76727 0
M  V30 1274 H 127.02 3.98635 -6.47298 0
M  V30 1275 N 128.595 0.856903 1.32268 0
M  V30 1276 C 129.823 0.475439 2.01363 0
M  V30 1277 C 130.238 -0.928486 1.64392 0
M  V30 1278 O 129.595 -1.60624 0.866387 0
M  V30 1279 C 129.646 0.607545 3.56358 0
M  V30 1280 O 129.367 1.95617 3.92002 0
M  V30 1281 C 130.868 0.225382 4.42727 0
M  V30 1282 H 128.088 0.186636 0.644521 0
M  V30 1283 H 130.632 1.15446 1.68797 0
M  V30 1284 H 128.787 -0.0237719 3.87393 0
M  V30 1285 H 129.201 1.95455 4.86721 0
M  V30 1286 H 130.675 0.368813 5.50767 0
M  V30 1287 H 131.152 -0.834369 4.31202 0
M  V30 1288 H 131.758 0.831864 4.17085 0
M  V30 1289 N 130.073 -1.45103 0.615059 0
M  V30 1290 C 131.322 -2.01396 0.110718 0
M  V30 1291 C 131.635 -1.48834 -1.26916 0
M  V30 1292 O 132.841 -1.97152 -1.86664 0
M  V30 1293 C 131.297 -3.59599 0.14723 0
M  V30 1294 C 130.905 -4.21158 1.52743 0
M  V30 1295 C 132.649 -4.23428 -0.30148 0
M  V30 1296 C 130.556 -5.71535 1.51992 0
M  V30 1297 H 129.486 -0.753061 0.0376241 0
M  V30 1298 H 132.137 -1.66494 0.77149 0
M  V30 1299 H 130.519 -3.91724 -0.580339 0
M  V30 1300 H 131.693 -4.00594 2.2773 0
M  V30 1301 H 130.008 -3.69552 1.91886 0
M  V30 1302 H 132.605 -5.33703 -0.326392 0
M  V30 1303 H 132.948 -3.94629 -1.32565 0
M  V30 1304 H 133.481 -3.96047 0.373065 0
M  V30 1305 H 130.22 -6.05044 2.52193 0
M  V30 1306 H 129.74 -5.94268 0.81274 0
M  V30 1307 H 131.419 -6.34873 1.24681 0
M  V30 1308 N 131.551 -0.354651 -1.53558 0
M  V30 1309 C 132.776 0.242153 -2.05981 0
M  V30 1310 C 133.201 1.42553 -1.2272 0
M  V30 1311 O 132.559 1.79656 -0.243604 0
M  V30 1312 C 132.607 0.624367 -3.55154 0
M  V30 1313 O 131.711 1.72301 -3.74681 0
M  V30 1314 H 131.052 0.0378432 -0.662921 0
M  V30 1315 H 133.582 -0.512087 -1.98088 0
M  V30 1316 H 133.592 0.898433 -3.97985 0
M  V30 1317 H 132.267 -0.240989 -4.15201 0
M  V30 1318 H 130.844 1.44535 -3.4375 0
M  V30 1319 N 133.029 1.57378 -0.0835403 0
M  V30 1320 C 134.445 1.57246 0.273109 0
M  V30 1321 C 134.645 1.09385 1.69225 0
M  V30 1322 O 133.701 0.765051 2.40631 0
M  V30 1323 C 135.014 3.00614 0.0720628 0
M  V30 1324 C 136.562 3.12684 0.1407 0
M  V30 1325 C 137.037 4.57989 -0.0322094 0
M  V30 1326 N 138.528 4.63194 0.0230085 0
M  V30 1327 C 139.263 5.73335 -0.0861941 0
M  V30 1328 N 138.759 6.9235 -0.24958 0
M  V30 1329 N 140.552 5.62093 -0.0282886 0
M  V30 1330 H 132.703 1.86801 -1.0109 0
M  V30 1331 H 134.966 0.861687 -0.395222 0
M  V30 1332 H 134.672 3.39786 -0.907662 0
M  V30 1333 H 134.546 3.68193 0.81936 0
M  V30 1334 H 136.933 2.73391 1.11092 0
M  V30 1335 H 137.014 2.47719 -0.637896 0
M  V30 1336 H 136.658 4.97973 -0.999247 0
M  V30 1337 H 136.588 5.21 0.765937 0
M  V30 1338 H 139.079 3.77613 0.14722 0
M  V30 1339 H 139.392 7.72117 -0.324733 0
M  V30 1340 H 137.737 6.94415 -0.285097 0
M  V30 1341 H 140.928 4.67997 0.0981408 0
M  V30 1342 H 141.101 6.47895 -0.116845 0
M  V30 1343 N 134.507 -0.190092 1.56449 0
M  V30 1344 C 135.784 -0.935886 1.71757 0
M  V30 1345 C 136.164 -2.01173 0.639726 0
M  V30 1346 O 135.512 -2.25827 -0.348502 0
M  V30 1347 C 135.722 -1.51775 3.1427 0
M  V30 1348 C 137.07 -1.99794 3.74656 0
M  V30 1349 O 138.094 -1.61607 3.1743 0
M  V30 1350 O 136.953 -2.70079 4.751 0
M  V30 1351 H 134.047 -0.439229 0.700719 0
M  V30 1352 H 136.593 -0.179395 1.68749 0
M  V30 1353 H 135.365 -0.742505 3.84191 0
M  V30 1354 H 134.988 -2.33894 3.21527 0
M  V30 1355 N 135.985 -1.50799 -0.457987 0
M  V30 1356 C 136.933 -1.71162 -1.575 0
M  V30 1357 C 137.927 -0.577592 -1.59249 0
M  V30 1358 O 139.133 -0.758443 -1.63241 0
M  V30 1359 H 135.508 -0.540468 -0.522875 0
M  V30 1360 H 137.479 -2.64837 -1.37492 0
M  V30 1361 C 136.228 -1.83496 -2.95338 0
M  V30 1362 H 135.551 -2.70153 -2.94716 0
M  V30 1363 H 136.991 -2.01765 -3.72917 0
M  V30 1364 C 135.45 -0.589694 -3.31699 0
M  V30 1365 O 135.98 0.265163 -4.00824 0
M  V30 1366 N 134.186 -0.439845 -2.87252 0
M  V30 1367 H 133.733 -1.13655 -2.31172 0
M  V30 1368 H 133.691 0.392159 -3.11945 0
M  V30 1369 N 137.463 0.71206 -1.40597 0
M  V30 1370 C 138.688 1.50617 -1.42581 0
M  V30 1371 C 139.113 1.88079 -0.0282102 0
M  V30 1372 O 138.471 1.53511 0.964579 0
M  V30 1373 C 138.519 2.7557 -2.3258 0
M  V30 1374 O 137.623 3.72414 -1.77148 0
M  V30 1375 H 136.964 0.453966 -0.484573 0
M  V30 1376 H 139.494 0.876649 -1.84868 0
M  V30 1377 H 139.504 3.2406 -2.47889 0
M  V30 1378 H 138.179 2.47639 -3.34138 0
M  V30 1379 H 136.756 3.31276 -1.71204 0
M  V30 1380 N 138.941 1.26152 0.944643 0
M  V30 1381 C 139.888 1.07408 2.04285 0
M  V30 1382 C 140.858 -0.0198413 1.66088 0
M  V30 1383 O 142.043 0.139264 1.90291 0
M  V30 1384 C 139.183 0.70945 3.37729 0
M  V30 1385 C 138.296 1.87926 3.88983 0
M  V30 1386 C 137.431 1.45807 5.10797 0
M  V30 1387 C 136.47 2.5964 5.54305 0
M  V30 1388 N 135.607 2.18226 6.67324 0
M  V30 1389 H 140.447 2.01389 2.1965 0
M  V30 1390 H 137.984 1.00275 1.07626 0
M  V30 1391 H 139.942 0.478948 4.14442 0
M  V30 1392 H 138.572 -0.193389 3.2222 0
M  V30 1393 H 137.624 2.22279 3.08701 0
M  V30 1394 H 138.936 2.73377 4.17213 0
M  V30 1395 H 138.09 1.18781 5.94959 0
M  V30 1396 H 136.829 0.574414 4.84305 0
M  V30 1397 H 135.834 2.87399 4.68702 0
M  V30 1398 H 137.059 3.48599 5.828 0
M  V30 1399 H 135.005 1.3229 6.42523 0
M  V30 1400 H 134.922 2.97221 6.95123 0
M  V30 1401 H 136.19 1.94403 7.54869 0
M  V30 1402 N 140.419 -1.14872 1.07899 0
M  V30 1403 C 141.367 -2.21857 0.698727 0
M  V30 1404 C 142.361 -1.66845 -0.293086 0
M  V30 1405 O 143.567 -1.79321 -0.156204 0
M  V30 1406 H 139.942 -0.722691 0.207899 0
M  V30 1407 H 141.913 -2.51205 1.61054 0
M  V30 1408 C 140.662 -3.47498 0.11858 0
M  V30 1409 H 139.985 -3.90154 0.872914 0
M  V30 1410 H 141.425 -4.23858 -0.109759 0
M  V30 1411 C 139.884 -3.16947 -1.1422 0
M  V30 1412 O 140.414 -3.3426 -2.22785 0
M  V30 1413 N 138.62 -2.70946 -1.05055 0
M  V30 1414 H 138.167 -2.57058 -0.167038 0
M  V30 1415 H 138.125 -2.50879 -1.89491 0
M  V30 1416 N 141.898 -0.863906 -1.31812 0
M  V30 1417 C 143.126 -0.486111 -2.01108 0
M  V30 1418 C 143.541 0.919755 -1.64882 0
M  V30 1419 O 142.898 1.60162 -0.874893 0
M  V30 1420 C 142.949 -0.626435 -3.56031 0
M  V30 1421 O 142.67 -1.97693 -3.90959 0
M  V30 1422 C 144.171 -0.248857 -4.42601 0
M  V30 1423 H 141.391 -0.190052 -0.643523 0
M  V30 1424 H 143.935 -1.1634 -1.68182 0
M  V30 1425 H 142.09 0.00322717 -3.874 0
M  V30 1426 H 142.504 -1.98034 -4.85678 0
M  V30 1427 H 143.978 -0.398016 -5.50563 0
M  V30 1428 H 144.455 0.811489 -4.31638 0
M  V30 1429 H 145.061 -0.853971 -4.16638 0
M  V30 1430 N 143.376 1.44774 -0.622745 0
M  V30 1431 C 144.306 2.33382 0.0741861 0
M  V30 1432 C 145.287 1.47719 0.843387 0
M  V30 1433 O 146.472 1.76458 0.810934 0
M  V30 1434 C 143.602 3.30663 1.06204 0
M  V30 1435 C 142.556 4.26079 0.405037 0
M  V30 1436 C 141.882 5.13165 1.5022 0
M  V30 1437 C 143.182 5.1781 -0.683414 0
M  V30 1438 H 144.876 2.91905 -0.665713 0
M  V30 1439 H 142.422 1.40363 -0.321587 0
M  V30 1440 H 144.375 3.9153 1.55827 0
M  V30 1441 H 143.099 2.70331 1.83272 0
M  V30 1442 H 141.758 3.66532 -0.0704683 0
M  V30 1443 H 141.406 4.49191 2.26355 0
M  V30 1444 H 141.106 5.77812 1.06803 0
M  V30 1445 H 142.63 5.76902 2.00041 0
M  V30 1446 H 144.044 5.72661 -0.270631 0
M  V30 1447 H 142.441 5.91015 -1.04023 0
M  V30 1448 H 143.511 4.59326 -1.55395 0
M  V30 1449 N 144.854 0.36279 1.53368 0
M  V30 1450 C 146.084 -0.228281 2.05335 0
M  V30 1451 C 146.492 -1.43226 1.23625 0
M  V30 1452 O 145.835 -1.81717 0.269206 0
M  V30 1453 C 145.897 -0.688549 3.52845 0
M  V30 1454 C 145.561 0.398362 4.5526 0
M  V30 1455 C 146.558 1.24732 5.04716 0
M  V30 1456 C 144.243 0.557805 4.99193 0
M  V30 1457 C 146.237 2.2411 5.96702 0
M  V30 1458 C 143.924 1.55495 5.90986 0
M  V30 1459 C 144.922 2.39503 6.39631 0
M  V30 1460 O 144.61 3.37517 7.29615 0
M  V30 1461 H 144.342 -0.044395 0.674541 0
M  V30 1462 H 146.896 0.518668 1.98744 0
M  V30 1463 H 145.126 -1.48706 3.56964 0
M  V30 1464 H 146.815 -1.20231 3.87685 0
M  V30 1465 H 147.581 1.13532 4.71525 0
M  V30 1466 H 143.46 -0.0862959 4.60919 0
M  V30 1467 H 147.004 2.89718 6.34594 0
M  V30 1468 H 142.901 1.66744 6.23592 0
M  V30 1469 H 143.669 3.33213 7.47604 0
M  V30 1470 N 146.332 -1.57332 0.0918853 0
M  V30 1471 C 147.262 -2.16872 -0.865371 0
M  V30 1472 C 148.243 -1.10118 -1.29646 0
M  V30 1473 O 149.428 -1.38242 -1.36392 0
M  V30 1474 C 146.558 -2.74649 -2.12569 0
M  V30 1475 C 145.512 -3.86747 -1.83333 0
M  V30 1476 C 144.838 -4.31212 -3.16166 0
M  V30 1477 C 146.138 -5.10089 -1.1228 0
M  V30 1478 H 147.832 -2.97114 -0.369307 0
M  V30 1479 H 145.378 -1.42918 -0.176194 0
M  V30 1480 H 147.331 -3.14952 -2.7997 0
M  V30 1481 H 146.055 -1.91657 -2.64452 0
M  V30 1482 H 144.714 -3.46978 -1.18331 0
M  V30 1483 H 144.362 -3.45115 -3.6593 0
M  V30 1484 H 144.062 -5.06788 -2.97388 0
M  V30 1485 H 145.586 -4.74146 -3.84731 0
M  V30 1486 H 147 -5.47582 -1.69785 0
M  V30 1487 H 145.397 -5.91073 -1.03693 0
M  V30 1488 H 146.467 -4.84786 -0.105041 0
M  V30 1489 N 147.81 0.181792 -1.56548 0
M  V30 1490 C 148.742 1.24956 -1.92142 0
M  V30 1491 C 149.755 1.41022 -0.813422 0
M  V30 1492 O 150.944 1.41212 -1.09186 0
M  V30 1493 C 148.044 2.61981 -2.14987 0
M  V30 1494 C 147.217 2.6735 -3.46183 0
M  V30 1495 C 146.276 3.85664 -3.5798 0
M  V30 1496 O 145.302 3.72148 -4.30691 0
M  V30 1497 N 146.504 5.01683 -2.92053 0
M  V30 1498 H 149.269 0.947329 -2.84334 0
M  V30 1499 H 146.83 0.371629 -1.57577 0
M  V30 1500 H 148.822 3.3958 -2.20154 0
M  V30 1501 H 147.392 2.84637 -1.2923 0
M  V30 1502 H 146.612 1.75925 -3.52766 0
M  V30 1503 H 147.9 2.67939 -4.32534 0
M  V30 1504 H 147.298 5.15564 -2.32832 0
M  V30 1505 H 145.855 5.77181 -3.0283 0
M  V30 1506 N 149.288 1.51039 0.449983 0
M  V30 1507 C 150.221 1.66105 1.56474 0
M  V30 1508 C 151.199 0.508776 1.54435 0
M  V30 1509 O 152.383 0.731005 1.73749 0
M  V30 1510 C 149.51 1.66304 2.9506 0
M  V30 1511 C 148.556 2.87346 3.15174 0
M  V30 1512 S 149.389 4.4835 2.92818 0
M  V30 1513 C 150.545 4.51274 4.33708 0
M  V30 1514 H 150.778 2.60397 1.43459 0
M  V30 1515 H 148.311 1.40565 0.638805 0
M  V30 1516 H 150.269 1.67103 3.74949 0
M  V30 1517 H 148.93 0.732108 3.05449 0
M  V30 1518 H 148.123 2.83849 4.16468 0
M  V30 1519 H 147.725 2.84223 2.43091 0
M  V30 1520 H 150.017 4.26136 5.26701 0
M  V30 1521 H 150.96 5.53017 4.42242 0
M  V30 1522 H 151.368 3.80738 4.16772 0
M  V30 1523 N 150.766 -0.704594 1.40972 0
M  V30 1524 C 151.714 -1.83994 1.42299 0
M  V30 1525 C 152.708 -1.66684 0.302111 0
M  V30 1526 O 153.914 -1.73655 0.473697 0
M  V30 1527 H 150.289 -0.606171 0.44504 0
M  V30 1528 H 152.26 -1.79992 2.38003 0
M  V30 1529 C 151.009 -3.21946 1.31323 0
M  V30 1530 H 150.332 -3.35878 2.16855 0
M  V30 1531 H 151.772 -4.01491 1.36311 0
M  V30 1532 C 150.231 -3.36891 0.0245977 0
M  V30 1533 O 150.761 -3.90687 -0.934153 0
M  V30 1534 N 148.967 -2.90559 -0.0485243 0
M  V30 1535 H 148.514 -2.46968 0.732419 0
M  V30 1536 H 148.472 -3.00937 -0.910171 0
M  V30 1537 N 152.244 -1.26651 -0.937939 0
M  V30 1538 C 153.469 -1.15279 -1.72411 0
M  V30 1539 C 153.894 0.287866 -1.85884 0
M  V30 1540 O 153.252 1.20855 -1.35143 0
M  V30 1541 C 153.3 -1.83028 -3.10698 0
M  V30 1542 O 152.404 -1.12128 -3.96864 0
M  V30 1543 H 151.745 -0.401504 -0.528858 0
M  V30 1544 H 154.275 -1.67531 -1.1745 0
M  V30 1545 H 154.285 -1.89981 -3.6107 0
M  V30 1546 H 152.96 -2.87833 -3.00208 0
M  V30 1547 H 151.537 -1.13173 -3.55312 0
M  V30 1548 N 153.722 1.14298 -1.08507 0
M  V30 1549 C 154.652 2.21542 -0.737646 0
M  V30 1550 C 155.633 1.67773 0.280377 0
M  V30 1551 O 156.818 1.93616 0.150521 0
M  V30 1552 C 153.948 3.46988 -0.147259 0
M  V30 1553 C 152.902 4.13789 -1.09374 0
M  V30 1554 C 152.228 5.33449 -0.365524 0
M  V30 1555 C 153.528 4.62208 -2.4323 0
M  V30 1556 H 155.222 2.5086 -1.6343 0
M  V30 1557 H 152.768 1.20576 -0.787243 0
M  V30 1558 H 154.721 4.21262 0.107808 0
M  V30 1559 H 153.445 3.17037 0.784538 0
M  V30 1560 H 152.104 3.4147 -1.33393 0
M  V30 1561 H 151.752 4.99759 0.57011 0
M  V30 1562 H 151.452 5.79088 -0.996512 0
M  V30 1563 H 152.976 6.10485 -0.118534 0
M  V30 1564 H 154.39 5.27952 -2.23472 0
M  V30 1565 H 152.787 5.18553 -3.02031 0
M  V30 1566 H 153.857 3.77224 -3.04681 0
M  V30 1567 N 155.201 0.870884 1.31352 0
M  V30 1568 C 156.617 0.562932 1.49343 0
M  V30 1569 C 156.817 -0.902725 1.80148 0
M  V30 1570 O 155.873 -1.68484 1.88067 0
M  V30 1571 C 157.186 1.46393 2.62659 0
M  V30 1572 C 158.734 1.46607 2.76542 0
M  V30 1573 C 159.209 2.35266 3.92955 0
M  V30 1574 N 160.7 2.33151 4.00243 0
M  V30 1575 C 161.435 2.98471 4.89594 0
M  V30 1576 N 160.931 3.72964 5.8384 0
M  V30 1577 N 162.724 2.87775 4.82848 0
M  V30 1578 H 154.875 1.81923 1.09626 0
M  V30 1579 H 157.138 0.777934 0.541777 0
M  V30 1580 H 156.844 2.50689 2.46674 0
M  V30 1581 H 156.718 1.16314 3.58819 0
M  V30 1582 H 159.105 0.43069 2.9194 0
M  V30 1583 H 159.186 1.8071 1.81046 0
M  V30 1584 H 158.83 3.38881 3.78315 0
M  V30 1585 H 158.76 1.98487 4.87761 0
M  V30 1586 H 161.251 1.79006 3.32814 0
M  V30 1587 H 161.564 4.19932 6.4875 0
M  V30 1588 H 159.909 3.77073 5.83816 0
M  V30 1589 H 163.1 2.29116 4.08195 0
M  V30 1590 H 163.273 3.38961 5.52277 0
M  V30 1591 N 156.679 -1.44442 0.630414 0
M  V30 1592 C 157.642 -2.29107 -0.0652523 0
M  V30 1593 C 158.642 -1.41002 -0.772995 0
M  V30 1594 O 159.832 -1.62881 -0.617692 0
M  V30 1595 C 156.964 -3.22564 -1.10296 0
M  V30 1596 H 158.157 -2.92103 0.679401 0
M  V30 1597 H 155.71 -1.51343 0.390517 0
M  V30 1598 H 156.445 -2.64416 -1.87762 0
M  V30 1599 H 156.23 -3.87491 -0.59941 0
M  V30 1600 H 157.72 -3.86167 -1.5895 0
M  V30 1601 N 158.157 -0.370918 -1.53173 0
M  V30 1602 C 159.067 0.480823 -2.2962 0
M  V30 1603 C 160.083 1.08789 -1.35798 0
M  V30 1604 O 161.259 1.09768 -1.68858 0
M  V30 1605 C 158.324 1.60227 -3.07454 0
M  V30 1606 C 157.385 1.0222 -4.16953 0
M  V30 1607 C 156.618 2.0902 -4.91066 0
M  V30 1608 O 156.841 3.30222 -4.65091 0
M  V30 1609 O 155.775 1.71778 -5.76867 0
M  V30 1610 H 159.601 -0.141421 -3.03371 0
M  V30 1611 H 157.186 -0.135146 -1.48787 0
M  V30 1612 H 159.068 2.25417 -3.56041 0
M  V30 1613 H 157.743 2.20982 -2.36535 0
M  V30 1614 H 156.65 0.334064 -3.72605 0
M  V30 1615 H 157.983 0.459131 -4.90054 0
M  V30 1616 N 159.635 1.57281 -0.100228 0
M  V30 1617 C 160.912 1.86014 0.604812 0
M  V30 1618 C 161.292 0.998025 1.86018 0
M  V30 1619 O 160.64 0.0718184 2.28387 0
M  V30 1620 C 160.85 3.36784 0.915278 0
M  V30 1621 C 162.198 4.04957 1.27651 0
M  V30 1622 O 163.222 3.41695 1.00613 0
M  V30 1623 O 162.081 5.16593 1.7831 0
M  V30 1624 H 159.175 0.76942 0.303185 0
M  V30 1625 H 161.721 1.69176 -0.133313 0
M  V30 1626 H 160.493 3.91292 0.0248896 0
M  V30 1627 H 160.116 3.58987 1.70921 0
M  V30 1628 N 161.113 -0.173488 1.56642 0
M  V30 1629 C 162.341 -0.906095 1.86004 0
M  V30 1630 C 162.756 -1.75921 0.685355 0
M  V30 1631 O 162.113 -1.79198 -0.345578 0
M  V30 1632 C 162.164 -1.78462 3.14378 0
M  V30 1633 O 161.885 -0.965914 4.27319 0
M  V30 1634 C 163.386 -2.62707 3.57071 0
M  V30 1635 H 160.606 -0.263341 0.617165 0
M  V30 1636 H 163.15 -0.174236 2.03756 0
M  V30 1637 H 161.305 -2.46984 2.98459 0
M  V30 1638 H 161.719 -1.56655 5.00559 0
M  V30 1639 H 163.193 -3.19969 4.49804 0
M  V30 1640 H 163.67 -3.37472 2.81086 0
M  V30 1641 H 164.276 -1.99521 3.75595 0
M  V30 1642 N 162.591 -1.51276 -0.441967 0
M  V30 1643 C 163.554 -1.7167 -1.51862 0
M  V30 1644 C 164.554 -0.586793 -1.49711 0
M  V30 1645 O 165.744 -0.854276 -1.51815 0
M  V30 1646 C 162.876 -1.76889 -2.91416 0
M  V30 1647 H 164.069 -2.67754 -1.35084 0
M  V30 1648 H 161.622 -1.41196 -0.670333 0
M  V30 1649 H 162.357 -0.826026 -3.13604 0
M  V30 1650 H 162.142 -2.59001 -2.94382 0
M  V30 1651 H 163.632 -1.94522 -3.69528 0
M  V30 1652 N 164.069 0.697108 -1.41344 0
M  V30 1653 C 165.315 1.4593 -1.40827 0
M  V30 1654 C 165.648 1.94193 -0.0167098 0
M  V30 1655 O 164.923 1.69425 0.955263 0
M  V30 1656 C 165.206 2.67229 -2.41373 0
M  V30 1657 C 165.059 2.24741 -3.8963 0
M  V30 1658 C 166.378 3.69423 -2.39196 0
M  V30 1659 H 163.497 0.529303 -0.512842 0
M  V30 1660 H 166.139 0.794112 -1.72609 0
M  V30 1661 H 164.289 3.23982 -2.14401 0
M  V30 1662 H 165.961 1.73327 -4.27499 0
M  V30 1663 H 164.204 1.56542 -4.0457 0
M  V30 1664 H 164.875 3.1177 -4.55525 0
M  V30 1665 H 167.351 3.2234 -2.63128 0
M  V30 1666 H 166.227 4.51907 -3.11563 0
M  V30 1667 H 166.488 4.19012 -1.41001 0
M  V30 1668 N 165.547 1.27147 0.931209 0
M  V30 1669 C 166.777 1.15914 1.71019 0
M  V30 1670 C 167.185 -0.287112 1.87009 0
M  V30 1671 O 166.528 -1.20761 1.38429 0
M  V30 1672 C 166.59 1.76647 3.13107 0
M  V30 1673 C 166.254 3.25807 3.20467 0
M  V30 1674 C 167.251 4.22489 3.02983 0
M  V30 1675 C 164.936 3.66452 3.43538 0
M  V30 1676 C 166.93 5.57794 3.08454 0
M  V30 1677 C 164.617 5.01888 3.48643 0
M  V30 1678 C 165.615 5.97369 3.31119 0
M  V30 1679 O 165.303 7.30337 3.35952 0
M  V30 1680 H 165.035 0.404062 0.54195 0
M  V30 1681 H 167.589 1.68457 1.17521 0
M  V30 1682 H 165.819 1.18578 3.68071 0
M  V30 1683 H 167.508 1.60179 3.72958 0
M  V30 1684 H 168.274 3.92425 2.85004 0
M  V30 1685 H 164.153 2.92611 3.5623 0
M  V30 1686 H 167.697 6.32298 2.94694 0
M  V30 1687 H 163.594 5.31609 3.66145 0
M  V30 1688 H 164.362 7.38739 3.5243 0
M  V30 1689 N 167.025 -1.13721 1.09112 0
M  V30 1690 C 168.255 -1.88499 0.845671 0
M  V30 1691 C 168.663 -1.79218 -0.606432 0
M  V30 1692 O 168.006 -1.1544 -1.42896 0
M  V30 1693 C 168.068 -3.38954 1.19793 0
M  V30 1694 C 167.732 -3.72018 2.65428 0
M  V30 1695 C 168.729 -3.7153 3.63677 0
M  V30 1696 C 166.414 -4.01775 3.01467 0
M  V30 1697 C 168.408 -4.00336 4.95994 0
M  V30 1698 C 166.095 -4.30243 4.33975 0
M  V30 1699 C 167.093 -4.29508 5.31048 0
M  V30 1700 O 166.781 -4.5728 6.61173 0
M  V30 1701 H 166.513 -0.603702 0.304171 0
M  V30 1702 H 169.067 -1.44903 1.45576 0
M  V30 1703 H 167.297 -3.83039 0.530871 0
M  V30 1704 H 168.986 -3.95052 0.932146 0
M  V30 1705 H 169.752 -3.4862 3.37179 0
M  V30 1706 H 165.631 -4.01496 2.26544 0
M  V30 1707 H 169.175 -3.99678 5.71755 0
M  V30 1708 H 165.072 -4.52625 4.60219 0
M  V30 1709 H 165.84 -4.74964 6.66597 0
M  V30 1710 N 168.503 -0.877838 -1.30888 0
M  V30 1711 C 169.743 -0.499301 -1.98208 0
M  V30 1712 C 170.107 0.932649 -1.67826 0
M  V30 1713 O 171.308 1.41694 -2.28421 0
M  V30 1714 C 169.579 -0.758221 -3.49265 0
M  V30 1715 S 171.138 -0.480719 -4.36159 0
M  V30 1716 H 167.956 -0.186062 -0.686223 0
M  V30 1717 H 170.558 -1.13556 -1.59139 0
M  V30 1718 H 169.262 -1.79903 -3.68867 0
M  V30 1719 H 168.793 -0.109247 -3.93248 0
M  V30 1720 H 170.808 0.683698 -4.91467 0
M  V30 1721 N 169.982 1.44106 -0.638065 0
M  V30 1722 C 170.945 2.29138 0.0531013 0
M  V30 1723 C 171.945 1.41409 0.765506 0
M  V30 1724 O 173.135 1.63206 0.609046 0
M  V30 1725 C 170.267 3.23144 1.08584 0
M  V30 1726 H 171.46 2.91739 -0.694883 0
M  V30 1727 H 169.013 1.51134 -0.398538 0
M  V30 1728 H 169.748 2.65408 1.86357 0
M  V30 1729 H 169.533 3.87804 0.578852 0
M  V30 1730 H 171.023 3.87004 1.56899 0
M  V30 1731 N 171.46 0.379036 1.52974 0
M  V30 1732 C 172.407 -0.461048 2.26148 0
M  V30 1733 C 173.377 -1.06637 1.27349 0
M  V30 1734 O 174.562 -1.09633 1.56157 0
M  V30 1735 C 171.702 -1.58782 3.06402 0
M  V30 1736 C 170.815 -1.00636 4.20115 0
M  V30 1737 C 169.95 -2.10334 4.87784 0
M  V30 1738 C 168.989 -1.49724 5.93506 0
M  V30 1739 N 168.126 -2.5331 6.54812 0
M  V30 1740 H 172.966 0.169429 2.97518 0
M  V30 1741 H 170.503 0.0953806 1.4679 0
M  V30 1742 H 172.461 -2.25174 3.51215 0
M  V30 1743 H 171.091 -2.18876 2.37261 0
M  V30 1744 H 170.143 -0.232332 3.7969 0
M  V30 1745 H 171.455 -0.523343 4.96047 0
M  V30 1746 H 170.609 -2.84519 5.35849 0
M  V30 1747 H 169.348 -2.61992 4.11353 0
M  V30 1748 H 168.353 -0.740598 5.44789 0
M  V30 1749 H 169.578 -0.988732 6.71864 0
M  V30 1750 H 167.524 -3.04156 5.81227 0
M  V30 1751 H 167.441 -2.09734 7.26325 0
M  V30 1752 H 168.709 -3.27155 7.07524 0
M  V30 1753 O 172.977 -1.59572 0.248817 0
M  V30 1754 H 173.668 -1.9093 -0.326403 0
M  V30 END ATOM
M  V30 BEGIN BOND
M  V30 END BOND
M  V30 END CTAB
M  END
$$$$
