drugbank_target|P02788 Lactotransferrin (DB01811; DB03017; DB03040; DB03485; DB04743; DB06987; DB08439)
 OpenBabel12092119453D

  0  0  0     0  0            999 V3000
M  V30 BEGIN CTAB
M  V30 COUNTS 10896 11012 0 0 0
M  V30 BEGIN ATOM
M  V30 1 H -0.908 1.98254 -0.117106 0
M  V30 2 N 0 1.576 0 0
M  V30 3 C 0.933 2.03868 1.02534 0
M  V30 4 C 1.911 0.928543 1.3348 0
M  V30 5 O 3.095 1.19667 1.45644 0
M  V30 6 C 0.222 2.43627 2.35294 0
M  V30 7 C -0.732 3.65373 2.2001 0
M  V30 8 S 0.101 5.13292 1.52614 0
M  V30 9 C 1.257 5.56322 2.86805 0
M  V30 10 H 1.49 2.90518 0.631377 0
M  V30 11 H -0.977 1.52953 0.210867 0
M  V30 12 H 0.981 2.67203 3.11629 0
M  V30 13 H -0.358 1.57376 2.7183 0
M  V30 14 H -1.165 3.90944 3.18086 0
M  V30 15 H -1.563 3.418 1.51819 0
M  V30 16 H 0.729 5.58782 3.83104 0
M  V30 17 H 1.672 6.56266 2.65933 0
M  V30 18 H 2.08 4.83886 2.90714 0
M  V30 19 N 1.4781 -0.272755 1.55222 0
M  V30 20 C 2.4251 -1.33716 1.88119 0
M  V30 21 C 3.3951 -1.49066 0.73271 0
M  V30 22 O 4.5801 -1.63469 0.984002 0
M  V30 23 C 1.7201 -2.69238 2.15882 0
M  V30 24 C 0.8331 -2.62108 3.43399 0
M  V30 25 C -0.0319 -3.89811 3.60861 0
M  V30 26 C -0.9929 -3.77193 4.8207 0
M  V30 27 N -1.8559 -4.9673 4.96189 0
M  V30 28 H 2.9841 -1.04962 2.78903 0
M  V30 29 H 0.5211 -0.507088 1.38083 0
M  V30 30 H 2.4791 -3.48089 2.29978 0
M  V30 31 H 1.1091 -2.96194 1.28331 0
M  V30 32 H 0.1611 -1.74967 3.37773 0
M  V30 33 H 1.4731 -2.48685 4.32386 0
M  V30 34 H 0.6271 -4.77103 3.74777 0
M  V30 35 H -0.6339 -4.06102 2.7006 0
M  V30 36 H -1.6289 -2.88284 4.68159 0
M  V30 37 H -0.4039 -3.62421 5.74307 0
M  V30 38 H -2.4579 -5.13431 4.08319 0
M  V30 39 H -2.5409 -4.85839 5.79221 0
M  V30 40 H -1.2729 -5.85594 5.1449 0
M  V30 41 N 2.9562 -1.48159 -0.537278 0
M  V30 42 C 3.8862 -1.65029 -1.6519 0
M  V30 43 C 4.8672 -0.499281 -1.62607 0
M  V30 44 O 6.0522 -0.730972 -1.79918 0
M  V30 45 C 3.1822 -1.68303 -3.03795 0
M  V30 46 C 2.1362 -2.8283 -3.21234 0
M  V30 47 C 1.4622 -2.71189 -4.60826 0
M  V30 48 C 2.7622 -4.24211 -3.04701 0
M  V30 49 H 4.4562 -2.58341 -1.51328 0
M  V30 50 H 2.0022 -1.24325 -0.726585 0
M  V30 51 H 3.9552 -1.78693 -3.81637 0
M  V30 52 H 2.6792 -0.715635 -3.18663 0
M  V30 53 H 1.3382 -2.71983 -2.45807 0
M  V30 54 H 0.9862 -1.72435 -4.7252 0
M  V30 55 H 0.6862 -3.48035 -4.7344 0
M  V30 56 H 2.2102 -2.83537 -5.40777 0
M  V30 57 H 3.6242 -4.3593 -3.72341 0
M  V30 58 H 2.0212 -5.01998 -3.28813 0
M  V30 59 H 3.0912 -4.41184 -2.01209 0
M  V30 60 N 4.4343 0.785586 -1.36625 0
M  V30 61 C 5.6803 1.54591 -1.31261 0
M  V30 62 C 6.0133 1.93906 0.106823 0
M  V30 63 O 5.2883 1.63007 1.06108 0
M  V30 64 C 5.5713 2.82038 -2.23889 0
M  V30 65 C 5.4243 2.49066 -3.74548 0
M  V30 66 C 6.7433 3.83887 -2.15217 0
M  V30 67 H 3.8623 0.560846 -0.478143 0
M  V30 68 H 6.5043 0.902278 -1.67209 0
M  V30 69 H 4.6543 3.36961 -1.93363 0
M  V30 70 H 6.3263 2.00164 -4.15611 0
M  V30 71 H 4.5693 1.81954 -3.93796 0
M  V30 72 H 5.2403 3.40109 -4.34776 0
M  V30 73 H 7.7163 3.38421 -2.42096 0
M  V30 74 H 6.5923 4.70806 -2.82193 0
M  V30 75 H 6.8533 4.27131 -1.14068 0
M  V30 76 N 5.9124 1.20967 1.01018 0
M  V30 77 C 7.1594 1.02374 1.74716 0
M  V30 78 C 7.4874 -0.443375 1.89379 0
M  V30 79 O 6.7424 -1.34535 1.42123 0
M  V30 80 C 7.0414 1.65997 3.16512 0
M  V30 81 C 6.7074 3.15831 3.2181 0
M  V30 82 C 5.3694 3.56719 3.22963 0
M  V30 83 C 7.7214 4.11816 3.19464 0
M  V30 84 C 5.0494 4.92107 3.19449 0
M  V30 85 C 7.4014 5.47158 3.17491 0
M  V30 86 C 6.0654 5.87451 3.16951 0
M  V30 87 H 5.3354 0.374614 0.639332 0
M  V30 88 H 7.9824 1.50485 1.18434 0
M  V30 89 H 6.2874 1.10166 3.75993 0
M  V30 90 H 7.9844 1.49119 3.72242 0
M  V30 91 H 4.5744 2.83263 3.21652 0
M  V30 92 H 8.7584 3.81257 3.17737 0
M  V30 93 H 4.0144 5.22579 3.17366 0
M  V30 94 H 8.1884 6.21274 3.14629 0
M  V30 95 H 5.8154 6.92329 3.13983 0
M  V30 96 N 7.3905 -1.2043 1.01659 0
M  V30 97 C 8.3205 -2.25466 0.607226 0
M  V30 98 C 9.3015 -1.65853 -0.377716 0
M  V30 99 O 10.4865 -1.92409 -0.263149 0
M  V30 100 C 7.6165 -3.47256 -0.0552949 0
M  V30 101 C 6.5705 -4.19462 0.850632 0
M  V30 102 C 5.8965 -5.34673 0.0538859 0
M  V30 103 C 7.1965 -4.75603 2.15868 0
M  V30 104 H 8.8905 -2.59962 1.48526 0
M  V30 105 H 6.4365 -1.2496 0.715605 0
M  V30 106 H 8.3895 -4.19917 -0.353233 0
M  V30 107 H 7.1135 -3.11924 -0.968045 0
M  V30 108 H 5.7725 -3.48667 1.13257 0
M  V30 109 H 5.4205 -4.95585 -0.860514 0
M  V30 110 H 5.1205 -5.83913 0.657192 0
M  V30 111 H 6.6445 -6.10138 -0.237598 0
M  V30 112 H 8.0585 -5.40083 1.92311 0
M  V30 113 H 6.4555 -5.3528 2.71284 0
M  V30 114 H 7.5255 -3.94346 2.82169 0
M  V30 115 N 8.8686 -0.792821 -1.36206 0
M  V30 116 C 10.1146 -0.36733 -1.99446 0
M  V30 117 C 10.4476 1.05917 -1.62774 0
M  V30 118 O 9.7226 1.7324 -0.88421 0
M  V30 119 C 10.0056 -0.535044 -3.56103 0
M  V30 120 C 9.8586 -2.00548 -4.02617 0
M  V30 121 C 11.1776 0.0478191 -4.40074 0
M  V30 122 H 8.2966 -0.134941 -0.724541 0
M  V30 123 H 10.9386 -0.999794 -1.61568 0
M  V30 124 H 9.0886 0.00336329 -3.885 0
M  V30 125 H 10.7606 -2.60521 -3.80692 0
M  V30 126 H 9.0036 -2.50686 -3.54032 0
M  V30 127 H 9.6746 -2.07377 -5.11565 0
M  V30 128 H 12.1506 -0.411822 -4.14057 0
M  V30 129 H 11.0266 -0.0995336 -5.4881 0
M  V30 130 H 11.2876 1.14025 -4.27142 0
M  V30 131 N 10.3467 1.47872 -0.545128 0
M  V30 132 C 11.2767 2.32661 0.197793 0
M  V30 133 C 12.2577 1.43041 0.920504 0
M  V30 134 O 13.4427 1.71912 0.90333 0
M  V30 135 C 10.5727 3.24569 1.23582 0
M  V30 136 C 9.5267 4.23333 0.630323 0
M  V30 137 C 8.8527 5.0448 1.77211 0
M  V30 138 C 10.1527 5.20704 -0.407974 0
M  V30 139 H 11.8467 2.95024 -0.510045 0
M  V30 140 H 9.3927 1.4187 -0.246731 0
M  V30 141 H 11.3457 3.8272 1.76362 0
M  V30 142 H 10.0697 2.60236 1.97344 0
M  V30 143 H 8.7287 3.6639 0.123922 0
M  V30 144 H 8.3767 4.36561 2.49847 0
M  V30 145 H 8.0767 5.71339 1.37281 0
M  V30 146 H 9.6007 5.65487 2.3034 0
M  V30 147 H 11.0147 5.7329 0.033305 0
M  V30 148 H 9.4117 5.95699 -0.725486 0
M  V30 149 H 10.4817 4.66917 -1.30828 0
M  V30 150 N 11.8248 0.280983 1.55075 0
M  V30 151 C 12.7548 -0.597469 2.25727 0
M  V30 152 C 13.7358 -1.15417 1.24952 0
M  V30 153 O 14.9208 -1.18722 1.53684 0
M  V30 154 C 12.0508 -1.7789 2.98283 0
M  V30 155 C 11.0048 -1.35347 4.06036 0
M  V30 156 C 10.3308 -2.61846 4.66198 0
M  V30 157 C 11.6308 -0.499354 5.19907 0
M  V30 158 H 13.3248 -0.00824265 2.99399 0
M  V30 159 H 10.8708 -0.0025244 1.44 0
M  V30 160 H 12.8238 -2.39937 3.46422 0
M  V30 161 H 11.5478 -2.39405 2.22155 0
M  V30 162 H 10.2068 -0.756156 3.58717 0
M  V30 163 H 9.8548 -3.21632 3.86732 0
M  V30 164 H 9.5548 -2.3409 5.38958 0
M  V30 165 H 11.0788 -3.24732 5.1709 0
M  V30 166 H 12.4928 -1.02498 5.64063 0
M  V30 167 H 10.8898 -0.316424 5.99265 0
M  V30 168 H 11.9598 0.480459 4.82514 0
M  V30 169 N 13.3029 -1.57598 0.00835791 0
M  V30 170 C 14.5499 -1.90928 -0.674732 0
M  V30 171 C 14.8779 -0.88277 -1.73313 0
M  V30 172 O 14.1329 0.111294 -1.95383 0
M  V30 173 C 14.4319 -3.3101 -1.34787 0
M  V30 174 C 14.0979 -4.48922 -0.421861 0
M  V30 175 C 12.7599 -4.8091 -0.166927 0
M  V30 176 C 15.1119 -5.20755 0.215211 0
M  V30 177 C 12.4399 -5.821 0.733232 0
M  V30 178 C 14.7919 -6.22905 1.1033 0
M  V30 179 C 13.4559 -6.53346 1.36733 0
M  V30 180 H 12.7259 -0.698656 -0.246902 0
M  V30 181 H 15.3729 -1.91387 0.0656779 0
M  V30 182 H 13.6779 -3.26714 -2.16253 0
M  V30 183 H 15.3749 -3.54061 -1.8826 0
M  V30 184 H 11.9649 -4.23934 -0.630729 0
M  V30 185 H 16.1489 -4.9629 0.0312829 0
M  V30 186 H 11.4049 -6.04042 0.945712 0
M  V30 187 H 15.5789 -6.77694 1.60325 0
M  V30 188 H 13.2059 -7.31573 2.06652 0
M  V30 189 N 14.781 0.264519 -1.55364 0
M  V30 190 C 15.711 1.33121 -1.91836 0
M  V30 191 C 16.692 1.51101 -0.781192 0
M  V30 192 O 17.877 1.64003 -1.04003 0
M  V30 193 C 15.007 2.68921 -2.19769 0
M  V30 194 C 13.961 2.65661 -3.35571 0
M  V30 195 C 13.287 4.05093 -3.49004 0
M  V30 196 C 14.587 2.24187 -4.71739 0
M  V30 197 H 16.281 1.02844 -2.81182 0
M  V30 198 H 13.827 0.493286 -1.35287 0
M  V30 199 H 15.78 3.43663 -2.43872 0
M  V30 200 H 14.504 3.00799 -1.27231 0
M  V30 201 H 13.163 1.93377 -3.1145 0
M  V30 202 H 12.811 4.34206 -2.53917 0
M  V30 203 H 12.511 4.03804 -4.26868 0
M  V30 204 H 14.035 4.81561 -3.75408 0
M  V30 205 H 15.449 2.88654 -4.9533 0
M  V30 206 H 13.846 2.34044 -5.52579 0
M  V30 207 H 14.916 1.19327 -4.69988 0
M  V30 208 N 16.2591 1.48442 0.529413 0
M  V30 209 C 17.5071 1.56179 1.28267 0
M  V30 210 C 17.8281 0.237721 1.93546 0
M  V30 211 O 17.0981 -0.740779 1.81354 0
M  V30 212 H 15.6781 0.575367 0.476405 0
M  V30 213 H 18.3401 1.84909 0.61602 0
M  V30 214 H 17.4361 2.34312 2.06165 0
M  V30 215 N 17.7372 -0.778329 1.37039 0
M  V30 216 C 18.7002 -1.87301 1.32102 0
M  V30 217 C 19.7002 -1.59198 0.226405 0
M  V30 218 O 20.8902 -1.67403 0.481861 0
M  V30 219 C 18.0222 -3.24309 1.05055 0
M  V30 220 H 19.2152 -1.93093 2.29467 0
M  V30 221 H 16.7682 -0.977358 1.21973 0
M  V30 222 H 17.5032 -3.24196 0.0819373 0
M  V30 223 H 17.2882 -3.46098 1.84279 0
M  V30 224 H 18.7782 -4.04382 1.04234 0
M  V30 225 N 19.2153 -1.21501 -1.00376 0
M  V30 226 C 20.1453 -0.999478 -2.11028 0
M  V30 227 C 21.1263 0.0759671 -1.6993 0
M  V30 228 O 22.3113 -0.0841106 -1.94018 0
M  V30 229 C 19.4413 -0.564709 -3.42678 0
M  V30 230 C 18.3953 -1.58486 -3.97576 0
M  V30 231 C 17.7213 -1.00628 -5.25146 0
M  V30 232 C 19.0213 -2.97204 -4.29496 0
M  V30 233 H 20.7153 -1.92495 -2.29317 0
M  V30 234 H 18.2613 -0.92693 -1.102 0
M  V30 235 H 20.2143 -0.401091 -4.19487 0
M  V30 236 H 18.9383 0.396411 -3.24185 0
M  V30 237 H 17.5973 -1.73606 -3.22888 0
M  V30 238 H 17.2453 -0.0368439 -5.02987 0
M  V30 239 H 16.9453 -1.68771 -5.62841 0
M  V30 240 H 18.4693 -0.854015 -6.04598 0
M  V30 241 H 19.8833 -2.8552 -4.97143 0
M  V30 242 H 18.2803 -3.62372 -4.78338 0
M  V30 243 H 19.3503 -3.47956 -3.3772 0
M  V30 244 N 20.6934 1.19889 -1.02296 0
M  V30 245 C 21.9414 1.89046 -0.714558 0
M  V30 246 C 22.2624 1.79636 0.758681 0
M  V30 247 O 21.5324 1.20292 1.54618 0
M  V30 248 H 20.1124 0.699802 -0.261317 0
M  V30 249 H 22.7744 1.45574 -1.29592 0
M  V30 250 H 21.8704 2.95524 -1.0036 0
M  V30 251 N 22.1715 0.800033 1.35784 0
M  V30 252 C 23.1015 0.220184 2.3246 0
M  V30 253 C 24.0825 -0.65073 1.57161 0
M  V30 254 O 25.2675 -0.582359 1.85263 0
M  V30 255 C 22.3975 -0.637353 3.41402 0
M  V30 256 C 21.3515 0.134531 4.27789 0
M  V30 257 C 20.6775 -0.844285 5.27992 0
M  V30 258 C 21.9775 1.32979 5.05088 0
M  V30 259 H 23.6715 1.02787 2.81203 0
M  V30 260 H 21.2175 0.495717 1.35199 0
M  V30 261 H 23.1705 -1.05302 4.08031 0
M  V30 262 H 21.8945 -1.47785 2.91251 0
M  V30 263 H 20.5535 0.531296 3.6273 0
M  V30 264 H 20.2015 -1.68011 4.74111 0
M  V30 265 H 19.9015 -0.332184 5.8666 0
M  V30 266 H 21.4255 -1.2583 5.97494 0
M  V30 267 H 22.8395 0.98934 5.64699 0
M  V30 268 H 21.2365 1.77593 5.7322 0
M  V30 269 H 22.3065 2.11978 4.36111 0
M  V30 270 N 23.6496 -1.47581 0.552962 0
M  V30 271 C 24.8896 -2.04379 0.0296245 0
M  V30 272 C 25.2536 -1.4185 -1.29393 0
M  V30 273 O 26.4546 -1.89669 -1.90471 0
M  V30 274 C 24.7256 -3.57339 -0.0661371 0
M  V30 275 S 26.2846 -4.35511 -0.536213 0
M  V30 276 H 23.1026 -0.710625 0.0230991 0
M  V30 277 H 25.7046 -1.81005 0.738734 0
M  V30 278 H 24.4086 -4.00374 0.901596 0
M  V30 279 H 23.9396 -3.85202 -0.798931 0
M  V30 280 H 25.9546 -4.6253 -1.79668 0
M  V30 281 N 25.1277 -0.289203 -1.54924 0
M  V30 282 C 26.0577 0.58549 -2.2604 0
M  V30 283 C 27.0387 1.14753 -1.25562 0
M  V30 284 O 28.2237 1.17906 -1.54311 0
M  V30 285 C 25.3537 1.76305 -2.99222 0
M  V30 286 C 24.3077 1.33191 -4.06748 0
M  V30 287 C 23.6337 2.5937 -4.6758 0
M  V30 288 C 24.9337 0.471775 -5.20165 0
M  V30 289 H 26.6277 -0.00763532 -2.99399 0
M  V30 290 H 24.1737 -0.00511229 -1.43999 0
M  V30 291 H 26.1267 2.38097 -3.47689 0
M  V30 292 H 24.8507 2.38223 -2.23422 0
M  V30 293 H 23.5097 0.737121 -3.59113 0
M  V30 294 H 23.1577 3.19576 -3.88433 0
M  V30 295 H 22.8577 2.31228 -5.40192 0
M  V30 296 H 24.3817 3.21985 -5.18804 0
M  V30 297 H 25.7957 0.995056 -5.64599 0
M  V30 298 H 24.1927 0.284639 -5.99425 0
M  V30 299 H 25.2627 -0.506041 -4.82252 0
M  V30 300 N 26.6058 1.57591 -0.0167156 0
M  V30 301 C 27.5688 2.08393 0.954204 0
M  V30 302 C 28.5688 0.996531 1.26198 0
M  V30 303 O 29.7588 1.25858 1.20438 0
M  V30 304 C 26.8908 2.5394 2.27436 0
M  V30 305 H 28.0838 2.95455 0.514451 0
M  V30 306 H 25.6368 1.54582 0.231089 0
M  V30 307 H 26.3718 1.70171 2.76066 0
M  V30 308 H 26.1568 3.33371 2.06412 0
M  V30 309 H 27.6468 2.93512 2.97053 0
M  V30 310 N 28.0839 -0.256276 1.55502 0
M  V30 311 C 29.3319 -0.983672 1.76545 0
M  V30 312 C 29.6529 -1.86206 0.578982 0
M  V30 313 O 28.9229 -1.91656 -0.405577 0
M  V30 314 H 27.5029 -0.366191 0.651086 0
M  V30 315 H 30.1649 -0.276479 1.92929 0
M  V30 316 H 29.2609 -1.61087 2.67315 0
M  V30 317 N 29.562 -1.4872 -0.521534 0
M  V30 318 C 30.978 -1.35028 -0.850855 0
M  V30 319 C 31.178 -0.367712 -1.98116 0
M  V30 320 O 30.234 0.208037 -2.51642 0
M  V30 321 C 31.547 -2.75263 -1.21041 0
M  V30 322 C 33.095 -2.83813 -1.31981 0
M  V30 323 C 33.57 -4.24769 -1.71276 0
M  V30 324 N 35.061 -4.27482 -1.78363 0
M  V30 325 C 35.796 -5.33494 -2.1017 0
M  V30 326 N 35.292 -6.49775 -2.40343 0
M  V30 327 N 37.085 -5.20894 -2.11248 0
M  V30 328 H 29.236 -2.11214 0.22413 0
M  V30 329 H 31.499 -0.947252 0.0376439 0
M  V30 330 H 31.205 -3.48765 -0.453415 0
M  V30 331 H 31.079 -3.09327 -2.15863 0
M  V30 332 H 33.466 -2.10561 -2.06756 0
M  V30 333 H 33.547 -2.53358 -0.352596 0
M  V30 334 H 33.191 -4.9854 -0.970588 0
M  V30 335 H 33.121 -4.52673 -2.69062 0
M  V30 336 H 35.612 -3.43611 -1.57288 0
M  V30 337 H 35.925 -7.26402 -2.63743 0
M  V30 338 H 34.27 -6.53035 -2.37844 0
M  V30 339 H 37.461 -4.29065 -1.87139 0
M  V30 340 H 37.634 -6.03612 -2.35704 0
M  V30 341 N 31.0401 0.771051 -1.3745 0
M  V30 342 C 32.4561 1.07171 -1.18265 0
M  V30 343 C 32.6561 2.01491 -0.019287 0
M  V30 344 O 31.7121 2.44244 0.640408 0
M  V30 345 C 33.0251 1.66854 -2.50161 0
M  V30 346 C 34.5731 1.79109 -2.56689 0
M  V30 347 C 35.0481 2.42205 -3.88717 0
M  V30 348 N 36.5391 2.49655 -3.90162 0
M  V30 349 C 37.2741 2.9933 -4.8907 0
M  V30 350 N 36.7701 3.49172 -5.98374 0
M  V30 351 N 38.5631 2.9821 -4.76474 0
M  V30 352 H 30.7141 0.144796 -2.11906 0
M  V30 353 H 32.9771 0.126863 -0.939473 0
M  V30 354 H 32.6831 1.05017 -3.35655 0
M  V30 355 H 32.5571 2.6614 -2.673 0
M  V30 356 H 34.9441 2.40077 -1.71601 0
M  V30 357 H 35.0251 0.785757 -2.43433 0
M  V30 358 H 34.6691 1.81875 -4.74219 0
M  V30 359 H 34.5991 3.43345 -3.99276 0
M  V30 360 H 37.0901 2.14383 -3.11205 0
M  V30 361 H 37.4031 3.8548 -6.69795 0
M  V30 362 H 35.7481 3.47275 -6.02018 0
M  V30 363 H 38.9391 2.58572 -3.90203 0
M  V30 364 H 39.1121 3.36613 -5.53711 0
M  V30 365 N 32.5182 1.22032 0.997298 0
M  V30 366 C 33.9342 0.979326 1.26021 0
M  V30 367 C 34.1342 -0.32972 1.98784 0
M  V30 368 O 33.1902 -1.05345 2.29475 0
M  V30 369 C 34.5032 2.17509 2.07631 0
M  V30 370 C 36.0512 2.21817 2.2083 0
M  V30 371 C 36.5262 3.40933 3.05825 0
M  V30 372 N 38.0172 3.41067 3.13412 0
M  V30 373 C 38.7522 4.29885 3.79455 0
M  V30 374 N 38.2482 5.28914 4.47462 0
M  V30 375 N 40.0412 4.17673 3.76173 0
M  V30 376 H 32.1922 2.06202 0.509352 0
M  V30 377 H 34.4552 0.90334 0.287541 0
M  V30 378 H 34.1612 3.12415 1.61524 0
M  V30 379 H 34.0352 2.17206 3.08385 0
M  V30 380 H 36.4222 1.27462 2.66153 0
M  V30 381 H 36.5032 2.2616 1.1952 0
M  V30 382 H 36.1472 4.35586 2.61203 0
M  V30 383 H 36.0772 3.33829 4.07266 0
M  V30 384 H 38.5682 2.69406 2.65007 0
M  V30 385 H 38.8812 5.92973 4.95583 0
M  V30 386 H 37.2262 5.32831 4.46224 0
M  V30 387 H 40.4172 3.39564 3.22202 0
M  V30 388 H 40.5902 4.87098 4.27363 0
M  V30 389 N 33.9963 -1.19345 1.0293 0
M  V30 390 C 35.2213 -1.93538 0.745511 0
M  V30 391 C 35.6463 -1.75007 -0.689511 0
M  V30 392 O 35.0043 -1.05265 -1.47611 0
M  V30 393 C 35.0523 -3.43336 1.10239 0
M  V30 394 O 34.1563 -4.11806 0.221289 0
M  V30 395 H 33.4973 -0.604193 0.275404 0
M  V30 396 H 36.0273 -1.5141 1.37609 0
M  V30 397 H 36.0373 -3.94004 1.05947 0
M  V30 398 H 34.7123 -3.56146 2.14786 0
M  V30 399 H 33.2893 -3.715 0.322842 0
M  V30 400 N 35.4744 -0.807222 -1.35358 0
M  V30 401 C 36.7204 -0.388463 -1.99045 0
M  V30 402 C 37.0534 1.04184 -1.63888 0
M  V30 403 O 36.3284 1.72292 -0.902535 0
M  V30 404 C 36.6114 -0.572783 -3.55515 0
M  V30 405 C 36.4644 -2.04807 -4.00468 0
M  V30 406 C 37.7834 0.00114064 -4.401 0
M  V30 407 H 34.9024 -0.142619 -0.723069 0
M  V30 408 H 37.5444 -1.01687 -1.60498 0
M  V30 409 H 35.6944 -0.0378425 -3.88482 0
M  V30 410 H 37.3664 -2.64544 -3.77908 0
M  V30 411 H 35.6094 -2.54427 -3.51353 0
M  V30 412 H 36.2804 -2.12792 -5.09337 0
M  V30 413 H 38.7564 -0.455716 -4.13597 0
M  V30 414 H 37.6324 -0.157737 -5.48673 0
M  V30 415 H 37.8934 1.09488 -4.28328 0
M  V30 416 N 36.9525 1.47285 -0.560781 0
M  V30 417 C 37.8845 2.28118 0.222438 0
M  V30 418 C 38.8975 1.37219 0.876056 0
M  V30 419 O 40.0865 1.62011 0.749307 0
M  V30 420 C 37.1865 3.1159 1.33285 0
M  V30 421 C 36.3595 4.30473 0.77534 0
M  V30 422 C 35.4185 4.95513 1.77069 0
M  V30 423 O 34.4445 5.53792 1.31539 0
M  V30 424 N 35.6465 4.90531 3.10418 0
M  V30 425 H 38.4115 2.95976 -0.470958 0
M  V30 426 H 35.9725 1.56955 -0.39709 0
M  V30 427 H 37.9645 3.51967 1.99752 0
M  V30 428 H 36.5345 2.45951 1.92943 0
M  V30 429 H 35.7545 3.94144 -0.0662113 0
M  V30 430 H 37.0425 5.07362 0.382272 0
M  V30 431 H 36.4405 4.44389 3.5005 0
M  V30 432 H 34.9975 5.34917 3.72434 0
M  V30 433 N 38.4306 0.297415 1.54768 0
M  V30 434 C 39.6766 -0.306263 2.01081 0
M  V30 435 C 40.0316 -1.518 1.18214 0
M  V30 436 O 39.3246 -1.89967 0.249613 0
M  V30 437 C 39.5186 -0.717561 3.50123 0
M  V30 438 C 39.3476 0.45277 4.47415 0
M  V30 439 C 38.1176 0.943651 4.9641 0
M  V30 440 C 40.3156 1.29657 4.97688 0
M  V30 441 N 38.2976 2.08112 5.77549 0
M  V30 442 C 39.6686 2.28158 5.76493 0
M  V30 443 C 41.7236 1.32735 4.79881 0
M  V30 444 C 40.4266 3.29509 6.39387 0
M  V30 445 C 42.4526 2.32943 5.43591 0
M  V30 446 C 41.8146 3.30174 6.22225 0
M  V30 447 H 37.9136 -0.0766274 0.778237 0
M  V30 448 H 40.4976 0.426515 1.89971 0
M  V30 449 H 38.6686 -1.41952 3.6153 0
M  V30 450 H 40.4006 -1.30047 3.83236 0
M  V30 451 H 37.1556 0.51922 4.70745 0
M  V30 452 H 37.5796 2.65414 6.22803 0
M  V30 453 H 42.2216 0.589375 4.18672 0
M  V30 454 H 39.9396 4.04228 6.99732 0
M  V30 455 H 43.5256 2.36094 5.31743 0
M  V30 456 H 42.4056 4.06445 6.7065 0
M  V30 457 N 39.9087 -1.5758 0.0250728 0
M  V30 458 C 41.1487 -1.93497 -0.65865 0
M  V30 459 C 41.5127 -0.901409 -1.69525 0
M  V30 460 O 42.7137 -1.14664 -2.43116 0
M  V30 461 C 40.9847 -3.34352 -1.26267 0
M  V30 462 S 42.5437 -3.92191 -1.96803 0
M  V30 463 H 39.3617 -0.67709 -0.216958 0
M  V30 464 H 41.9637 -1.95303 0.0877692 0
M  V30 465 H 40.6677 -4.07395 -0.495741 0
M  V30 466 H 40.1987 -3.3598 -2.04648 0
M  V30 467 H 42.2137 -3.75298 -3.24601 0
M  V30 468 N 41.3868 0.248026 -1.55636 0
M  V30 469 C 42.3498 1.29044 -1.89421 0
M  V30 470 C 43.3498 1.41134 -0.770581 0
M  V30 471 O 44.5398 1.39854 -1.03858 0
M  V30 472 C 41.6718 2.66831 -2.12165 0
M  V30 473 H 42.8648 1.00305 -2.82629 0
M  V30 474 H 40.4178 0.487265 -1.48511 0
M  V30 475 H 41.1528 3.00711 -1.21422 0
M  V30 476 H 40.9378 2.59438 -2.93997 0
M  V30 477 H 42.4278 3.42103 -2.3949 0
M  V30 478 N 42.8649 1.48995 0.513639 0
M  V30 479 C 44.1109 1.58076 1.27042 0
M  V30 480 C 44.4439 0.261026 1.92438 0
M  V30 481 O 43.7189 -0.734393 1.80103 0
M  V30 482 C 44.0019 2.73091 2.34719 0
M  V30 483 C 43.8549 4.14821 1.73907 0
M  V30 484 C 45.1739 2.83796 3.36375 0
M  V30 485 H 42.2929 0.575391 0.460536 0
M  V30 486 H 44.9349 1.81232 0.570516 0
M  V30 487 H 43.0849 2.53479 2.94416 0
M  V30 488 H 44.7569 4.45917 1.18135 0
M  V30 489 H 42.9999 4.21058 1.0437 0
M  V30 490 H 43.6709 4.91147 2.51949 0
M  V30 491 H 46.1469 3.01611 2.86653 0
M  V30 492 H 45.0229 3.65971 4.09093 0
M  V30 493 H 45.2839 1.92624 3.9793 0
M  V30 494 N 44.343 -0.763751 1.37857 0
M  V30 495 C 45.568 -1.55805 1.36893 0
M  V30 496 C 45.993 -1.88054 -0.0416135 0
M  V30 497 O 45.351 -1.49825 -1.02089 0
M  V30 498 C 45.399 -2.84012 2.22192 0
M  V30 499 O 44.503 -3.78732 1.63204 0
M  V30 500 H 43.844 -0.471638 0.46739 0
M  V30 501 H 46.374 -0.944657 1.81487 0
M  V30 502 H 46.384 -3.33037 2.35691 0
M  V30 503 H 45.059 -2.59869 3.24716 0
M  V30 504 H 43.636 -3.37402 1.58791 0
M  V30 505 N 45.8211 -1.22559 -0.990812 0
M  V30 506 C 46.7531 -0.955325 -2.08342 0
M  V30 507 C 47.7661 0.0668408 -1.62663 0
M  V30 508 O 48.9551 -0.167421 -1.77713 0
M  V30 509 C 46.0551 -0.415566 -3.36342 0
M  V30 510 C 45.2281 -1.49544 -4.11042 0
M  V30 511 C 44.2871 -0.962399 -5.17324 0
M  V30 512 O 43.3131 -1.64907 -5.44788 0
M  V30 513 N 44.5151 0.215134 -5.80101 0
M  V30 514 H 47.2801 -1.89596 -2.32106 0
M  V30 515 H 44.8411 -1.13276 -1.15673 0
M  V30 516 H 46.8331 -0.0442386 -4.04676 0
M  V30 517 H 45.4031 0.430232 -3.09625 0
M  V30 518 H 44.6231 -2.04 -3.37309 0
M  V30 519 H 45.9111 -2.22195 -4.57719 0
M  V30 520 H 45.3091 0.789779 -5.6016 0
M  V30 521 H 43.8661 0.527826 -6.49659 0
M  V30 522 N 47.2992 1.18797 -1.03562 0
M  V30 523 C 48.7102 1.70322 -0.764676 0
M  V30 524 C 49.0612 1.82708 0.714996 0
M  V30 525 O 48.1862 1.50299 1.55689 0
M  V30 526 C 48.7812 3.09356 -1.38145 0
M  V30 527 C 47.3402 3.58114 -1.15895 0
M  V30 528 C 46.4872 2.34798 -1.4753 0
M  V30 529 H 49.4382 1.03543 -1.20268 0
M  V30 530 H 49.4592 3.72378 -0.781977 0
M  V30 531 H 48.9712 3.00309 -2.45837 0
M  V30 532 H 47.0722 3.72464 -0.100544 0
M  V30 533 H 47.1852 4.4184 -1.8524 0
M  V30 534 H 45.5492 2.38464 -0.894829 0
M  V30 535 H 46.3322 2.28375 -2.56319 0
M  V30 536 N 48.7773 0.814389 1.34928 0
M  V30 537 C 49.6873 0.231978 2.3345 0
M  V30 538 C 50.7033 -0.629139 1.62228 0
M  V30 539 O 51.8793 -0.539052 1.94052 0
M  V30 540 C 48.9443 -0.603482 3.41407 0
M  V30 541 C 48.0053 0.279037 4.28392 0
M  V30 542 C 47.2383 -0.516643 5.31193 0
M  V30 543 O 47.4613 -1.75068 5.4287 0
M  V30 544 O 46.3953 0.0965652 6.01823 0
M  V30 545 H 50.2213 1.04721 2.85074 0
M  V30 546 H 47.8063 0.576343 1.37836 0
M  V30 547 H 49.6883 -1.07908 4.0735 0
M  V30 548 H 48.3633 -1.39618 2.92042 0
M  V30 549 H 47.2703 0.801948 3.65403 0
M  V30 550 H 48.6033 1.03588 4.81176 0
M  V30 551 N 50.2554 -1.46986 0.568584 0
M  V30 552 C 51.2184 -2.28624 -0.162366 0
M  V30 553 C 52.2184 -1.37596 -0.832103 0
M  V30 554 O 53.4084 -1.60115 -0.68622 0
M  V30 555 C 50.5404 -3.17596 -1.23878 0
M  V30 556 H 51.7334 -2.94722 0.554899 0
M  V30 557 H 49.2864 -1.52863 0.325976 0
M  V30 558 H 50.0214 -2.56214 -1.98808 0
M  V30 559 H 49.8064 -3.846 -0.763219 0
M  V30 560 H 51.2964 -3.79078 -1.75185 0
M  V30 561 N 51.7335 -0.305618 -1.54608 0
M  V30 562 C 52.9615 0.304775 -2.04643 0
M  V30 563 C 53.3765 1.47167 -1.18268 0
M  V30 564 O 52.7335 1.81296 -0.209328 0
M  V30 565 C 52.7845 0.756564 -3.53495 0
M  V30 566 O 52.5055 -0.36389 -4.36586 0
M  V30 567 C 54.0065 1.43163 -4.19546 0
M  V30 568 H 51.2265 0.0655481 -0.667791 0
M  V30 569 H 53.7705 -0.446592 -1.99564 0
M  V30 570 H 51.9255 1.45794 -3.58919 0
M  V30 571 H 52.3395 -0.0113121 -5.24499 0
M  V30 572 H 53.8135 1.69886 -5.25207 0
M  V30 573 H 54.2905 2.37318 -3.69563 0
M  V30 574 H 54.8965 0.773307 -4.18211 0
M  V30 575 N 53.2116 1.57565 -0.0334293 0
M  V30 576 C 54.1586 2.10478 0.946981 0
M  V30 577 C 55.1286 1.00787 1.32027 0
M  V30 578 O 56.3136 1.28232 1.41284 0
M  V30 579 C 53.4536 2.63994 2.22263 0
M  V30 580 C 52.5666 3.87709 1.90541 0
M  V30 581 C 51.7016 4.29604 3.12433 0
M  V30 582 C 50.7406 5.46065 2.76549 0
M  V30 583 N 49.8776 5.83096 3.9108 0
M  V30 584 H 54.7176 2.93963 0.488846 0
M  V30 585 H 52.2546 1.45296 0.22969 0
M  V30 586 H 54.2126 2.93114 2.96884 0
M  V30 587 H 52.8426 1.83333 2.65685 0
M  V30 588 H 51.8946 3.65291 1.06144 0
M  V30 589 H 53.2066 4.72403 1.60116 0
M  V30 590 H 52.3606 4.60182 3.9537 0
M  V30 591 H 51.0996 3.43685 3.46023 0
M  V30 592 H 50.1046 5.15176 1.92026 0
M  V30 593 H 51.3296 6.33685 2.44171 0
M  V30 594 H 49.2756 5.00132 4.24504 0
M  V30 595 H 49.1926 6.6244 3.64293 0
M  V30 596 H 50.4606 6.18282 4.74708 0
M  V30 597 N 54.6897 -0.239769 1.55765 0
M  V30 598 C 55.9297 -0.974076 1.79697 0
M  V30 599 C 56.2937 -1.82249 0.604088 0
M  V30 600 O 57.4947 -2.58913 0.722324 0
M  V30 601 C 55.7657 -1.80595 3.08416 0
M  V30 602 S 57.3247 -2.59838 3.53596 0
M  V30 603 H 54.1427 -0.327524 0.63107 0
M  V30 604 H 56.7447 -0.241277 1.94005 0
M  V30 605 H 55.4487 -1.17249 3.93295 0
M  V30 606 H 54.9797 -2.58137 2.96865 0
M  V30 607 H 56.9947 -3.82987 3.15492 0
M  V30 608 N 56.1678 -1.49265 -0.50573 0
M  V30 609 C 57.4148 -1.58513 -1.26015 0
M  V30 610 C 57.7428 -0.26972 -1.92621 0
M  V30 611 O 56.9978 0.741997 -1.81088 0
M  V30 612 C 57.2968 -2.69008 -2.35308 0
M  V30 613 C 56.9628 -4.10662 -1.86192 0
M  V30 614 C 55.6248 -4.49212 -1.72516 0
M  V30 615 C 57.9768 -4.99336 -1.49375 0
M  V30 616 C 55.3048 -5.74214 -1.20394 0
M  V30 617 C 57.6568 -6.24852 -0.987072 0
M  V30 618 C 56.3208 -6.62236 -0.836669 0
M  V30 619 H 55.5908 -0.580041 -0.461122 0
M  V30 620 H 58.2378 -1.83078 -0.561665 0
M  V30 621 H 56.5428 -2.38396 -3.10926 0
M  V30 622 H 58.2398 -2.73373 -2.93374 0
M  V30 623 H 54.8298 -3.8023 -1.97795 0
M  V30 624 H 59.0138 -4.70212 -1.5879 0
M  V30 625 H 54.2698 -6.01883 -1.07458 0
M  V30 626 H 58.4438 -6.92944 -0.692983 0
M  V30 627 H 56.0708 -7.58979 -0.430607 0
M  V30 628 N 57.6459 0.756429 -1.3826 0
M  V30 629 C 58.5779 1.87971 -1.31147 0
M  V30 630 C 59.5909 1.61248 -0.224239 0
M  V30 631 O 60.7799 1.71881 -0.481581 0
M  V30 632 C 57.8799 3.23545 -1.00857 0
M  V30 633 C 57.0529 3.77794 -2.20432 0
M  V30 634 C 56.1119 4.91877 -1.86931 0
M  V30 635 O 55.1379 5.06659 -2.59395 0
M  V30 636 N 56.3399 5.74643 -0.822568 0
M  V30 637 H 59.1049 1.94585 -2.2794 0
M  V30 638 H 56.6659 0.936234 -1.32084 0
M  V30 639 H 58.6579 3.97403 -0.765021 0
M  V30 640 H 57.2279 3.12335 -0.128687 0
M  V30 641 H 56.4479 2.95534 -2.6087 0
M  V30 642 H 57.7359 4.10771 -3.00241 0
M  V30 643 H 57.1339 5.65266 -0.221575 0
M  V30 644 H 55.6909 6.48661 -0.638899 0
M  V30 645 N 59.124 1.23083 0.984299 0
M  V30 646 C 60.37 1.07221 1.72845 0
M  V30 647 C 60.725 -0.387453 1.88458 0
M  V30 648 O 60.018 -1.28309 1.42293 0
M  V30 649 C 60.212 1.72673 3.1292 0
M  V30 650 C 60.041 3.24853 3.10967 0
M  V30 651 C 58.811 3.93998 3.16376 0
M  V30 652 C 61.009 4.21674 2.94441 0
M  V30 653 N 58.991 5.33192 3.04268 0
M  V30 654 C 60.362 5.47756 2.90453 0
M  V30 655 C 62.417 4.12457 2.78897 0
M  V30 656 C 61.12 6.6568 2.72512 0
M  V30 657 C 63.146 5.3004 2.62319 0
M  V30 658 C 62.508 6.55046 2.59026 0
M  V30 659 H 58.607 0.44685 0.641755 0
M  V30 660 H 61.191 1.55753 1.16829 0
M  V30 661 H 59.362 1.26679 3.67161 0
M  V30 662 H 61.094 1.49824 3.75945 0
M  V30 663 H 57.849 3.45052 3.24401 0
M  V30 664 H 58.273 6.06157 3.015 0
M  V30 665 H 62.915 3.16588 2.80235 0
M  V30 666 H 60.633 7.61689 2.69919 0
M  V30 667 H 64.219 5.24747 2.5126 0
M  V30 668 H 63.099 7.44498 2.46357 0
M  V30 669 N 60.6021 -1.18246 1.0419 0
M  V30 670 C 61.5341 -2.2142 0.592088 0
M  V30 671 C 62.5471 -1.59233 -0.338909 0
M  V30 672 O 63.7361 -1.78002 -0.133231 0
M  V30 673 C 60.8361 -3.38546 -0.154854 0
M  V30 674 C 60.0091 -4.3031 0.784328 0
M  V30 675 C 59.0681 -5.26138 0.0804583 0
M  V30 676 O 58.0941 -5.64738 0.711292 0
M  V30 677 N 59.2961 -5.68261 -1.18574 0
M  V30 678 H 62.0611 -2.60636 1.47949 0
M  V30 679 H 59.6221 -1.33044 0.922544 0
M  V30 680 H 61.6141 -3.99678 -0.635606 0
M  V30 681 H 60.1841 -2.98012 -0.943811 0
M  V30 682 H 59.4041 -3.66764 1.44491 0
M  V30 683 H 60.6921 -4.8852 1.42218 0
M  V30 684 H 60.0901 -5.38957 -1.71876 0
M  V30 685 H 58.6471 -6.31584 -1.61074 0
M  V30 686 N 62.0802 -0.821533 -1.34494 0
M  V30 687 C 63.4962 -0.507117 -1.51329 0
M  V30 688 C 63.6962 0.968964 -1.76673 0
M  V30 689 O 62.7522 1.75348 -1.81685 0
M  V30 690 C 64.0652 -1.36544 -2.67911 0
M  V30 691 C 65.6132 -1.36242 -2.81793 0
M  V30 692 C 66.0882 -2.2052 -4.01416 0
M  V30 693 N 67.5792 -2.18136 -4.08621 0
M  V30 694 C 68.3142 -2.80095 -5.00334 0
M  V30 695 N 67.8102 -3.51039 -5.9728 0
M  V30 696 N 69.6032 -2.69656 -4.93196 0
M  V30 697 H 61.7542 -1.77729 -1.16302 0
M  V30 698 H 64.0172 -0.757291 -0.570276 0
M  V30 699 H 63.7232 -2.41361 -2.55808 0
M  V30 700 H 63.5972 -1.02917 -3.62888 0
M  V30 701 H 65.9842 -0.322041 -2.93338 0
M  V30 702 H 66.0652 -1.73866 -1.87628 0
M  V30 703 H 65.7092 -3.24607 -3.90631 0
M  V30 704 H 65.6392 -1.80247 -4.94791 0
M  V30 705 H 68.1302 -1.6653 -3.39229 0
M  V30 706 H 68.4432 -3.95565 -6.63889 0
M  V30 707 H 66.7882 -3.55145 -5.97409 0
M  V30 708 H 69.9792 -2.13808 -4.16418 0
M  V30 709 H 70.1522 -3.1823 -5.64476 0
M  V30 710 N 63.5583 1.46682 -0.576371 0
M  V30 711 C 64.5063 2.31953 0.17335 0
M  V30 712 C 65.5003 1.44098 0.89062 0
M  V30 713 O 66.7063 1.60759 0.809728 0
M  V30 714 H 63.0813 0.748273 0.0747727 0
M  V30 715 H 65.0523 2.93007 -0.564738 0
M  V30 716 C 63.8013 3.27142 1.17786 0
M  V30 717 H 63.1243 3.94719 0.635361 0
M  V30 718 H 64.5643 3.896 1.67296 0
M  V30 719 C 63.0233 2.52036 2.23561 0
M  V30 720 O 63.5533 2.27877 3.3081 0
M  V30 721 N 61.7593 2.12709 1.97998 0
M  V30 722 H 61.3063 2.32557 1.10792 0
M  V30 723 H 61.2643 1.62776 2.68982 0
M  V30 724 N 65.0364 0.313813 1.54444 0
M  V30 725 C 65.9694 -0.598866 2.20202 0
M  V30 726 C 66.9474 -1.12318 1.17573 0
M  V30 727 O 68.1314 -1.18899 1.46271 0
M  V30 728 C 65.2584 -1.82071 2.85601 0
M  V30 729 C 64.3044 -1.42851 4.01865 0
M  V30 730 S 65.1374 -0.473512 5.33402 0
M  V30 731 C 66.2934 -1.70286 6.0229 0
M  V30 732 H 66.5264 -0.0402532 2.97273 0
M  V30 733 H 64.0594 0.0979165 1.54089 0
M  V30 734 H 66.0174 -2.52184 3.23904 0
M  V30 735 H 64.6784 -2.3505 2.08351 0
M  V30 736 H 63.8714 -2.33871 4.46453 0
M  V30 737 H 63.4734 -0.807198 3.65185 0
M  V30 738 H 65.7654 -2.64168 6.23876 0
M  V30 739 H 66.7084 -1.29932 6.96077 0
M  V30 740 H 67.1164 -1.88541 5.32083 0
M  V30 741 N 66.5145 -1.57545 0.0417849 0
M  V30 742 C 67.9305 -1.56467 -0.314704 0
M  V30 743 C 68.1305 -1.04859 -1.72066 0
M  V30 744 O 67.1865 -0.700983 -2.42575 0
M  V30 745 C 68.4995 -3.00317 -0.15174 0
M  V30 746 C 70.0475 -3.12201 -0.223553 0
M  V30 747 C 70.5225 -4.57913 -0.0892295 0
M  V30 748 N 72.0135 -4.6297 -0.145808 0
M  V30 749 C 72.7485 -5.73362 -0.0658459 0
M  V30 750 N 72.2445 -6.92769 0.0659282 0
M  V30 751 N 74.0375 -5.6197 -0.12075 0
M  V30 752 H 66.1885 -1.89416 0.961014 0
M  V30 753 H 68.4515 -0.871862 0.372237 0
M  V30 754 H 68.1575 -3.42073 0.817254 0
M  V30 755 H 68.0315 -3.65892 -0.916692 0
M  V30 756 H 70.4185 -2.70349 -1.18301 0
M  V30 757 H 70.4995 -2.49323 0.571994 0
M  V30 758 H 70.1435 -5.00448 0.866867 0
M  V30 759 H 70.0735 -5.18786 -0.903802 0
M  V30 760 H 72.5645 -3.7709 -0.247286 0
M  V30 761 H 72.8775 -7.72707 0.119905 0
M  V30 762 H 71.2225 -6.94927 0.100885 0
M  V30 763 H 74.4135 -4.67572 -0.222187 0
M  V30 764 H 74.5865 -6.47977 -0.0549735 0
M  V30 765 N 67.9926 0.231505 -1.5589 0
M  V30 766 C 68.9396 1.28682 -1.91598 0
M  V30 767 C 69.9096 1.47071 -0.771974 0
M  V30 768 O 71.0946 1.60802 -1.027 0
M  V30 769 C 68.2346 2.6342 -2.22944 0
M  V30 770 C 67.3476 2.52912 -3.50228 0
M  V30 771 C 66.4826 3.80106 -3.7107 0
M  V30 772 C 65.5216 3.64279 -4.91902 0
M  V30 773 N 64.6586 4.834 -5.09184 0
M  V30 774 H 69.4986 0.975305 -2.81588 0
M  V30 775 H 67.0356 0.470299 -1.39379 0
M  V30 776 H 68.9936 3.41869 -2.39126 0
M  V30 777 H 67.6236 2.92687 -1.36139 0
M  V30 778 H 66.6756 1.6595 -3.42294 0
M  V30 779 H 67.9876 2.37133 -4.38827 0
M  V30 780 H 67.1416 4.66999 -3.87295 0
M  V30 781 H 65.8806 3.98799 -2.80733 0
M  V30 782 H 64.8856 2.7577 -4.75637 0
M  V30 783 H 66.1106 3.47067 -5.83714 0
M  V30 784 H 64.0566 5.02425 -4.21788 0
M  V30 785 H 63.9736 4.70311 -5.91898 0
M  V30 786 H 65.2416 5.71747 -5.29835 0
M  V30 787 N 69.4707 1.49531 0.497807 0
M  V30 788 C 70.7167 1.59415 1.25358 0
M  V30 789 C 71.0497 0.281422 1.9215 0
M  V30 790 O 70.3247 -0.715249 1.80871 0
M  V30 791 C 70.6077 2.75566 2.3181 0
M  V30 792 C 70.4607 4.16642 1.69498 0
M  V30 793 C 71.7797 2.87347 3.33346 0
M  V30 794 H 68.8987 0.580244 0.454408 0
M  V30 795 H 71.5407 1.81827 0.551262 0
M  V30 796 H 69.6907 2.56587 2.91711 0
M  V30 797 H 71.3627 4.47145 1.13399 0
M  V30 798 H 69.6057 4.22141 0.998978 0
M  V30 799 H 70.2767 4.93792 2.46725 0
M  V30 800 H 72.7527 3.04634 2.83438 0
M  V30 801 H 71.6287 3.70289 4.05188 0
M  V30 802 H 71.8897 1.96834 3.95865 0
M  V30 803 N 70.9488 -0.749086 1.3866 0
M  V30 804 C 72.3648 -1.05276 1.19955 0
M  V30 805 C 72.5648 -2.01435 0.05134 0
M  V30 806 O 71.6208 -2.45232 -0.60147 0
M  V30 807 C 72.9338 -1.62853 2.52783 0
M  V30 808 C 74.4818 -1.75002 2.59506 0
M  V30 809 C 74.9568 -2.35991 3.92521 0
M  V30 810 N 76.4478 -2.43416 3.94085 0
M  V30 811 C 77.1828 -2.91511 4.9377 0
M  V30 812 N 76.6788 -3.39608 6.03853 0
M  V30 813 N 78.4718 -2.90592 4.81157 0
M  V30 814 H 70.6228 -0.111066 2.12109 0
M  V30 815 H 72.8858 -0.111901 0.941373 0
M  V30 816 H 72.5918 -0.99664 3.37283 0
M  V30 817 H 72.4658 -2.61854 2.715 0
M  V30 818 H 74.8528 -2.37317 1.75398 0
M  V30 819 H 74.9338 -0.74693 2.44652 0
M  V30 820 H 74.5778 -1.74308 4.77053 0
M  V30 821 H 74.5078 -3.3695 4.04688 0
M  V30 822 H 76.9988 -2.09405 3.14576 0
M  V30 823 H 77.3118 -3.74775 6.75843 0
M  V30 824 H 75.6568 -3.37653 6.07466 0
M  V30 825 H 78.8478 -2.52332 3.94267 0
M  V30 826 H 79.0208 -3.27762 5.58996 0
M  V30 827 N 72.4269 -1.23603 -0.977757 0
M  V30 828 C 73.6749 -1.06759 -1.71601 0
M  V30 829 C 73.9959 0.395929 -1.90938 0
M  V30 830 O 73.2659 1.28356 -1.47992 0
M  V30 831 H 71.8459 -0.392062 -0.635843 0
M  V30 832 H 74.5079 -1.55362 -1.1768 0
M  V30 833 H 73.6039 -1.55763 -2.70452 0
M  V30 834 N 73.905 1.17692 -1.04816 0
M  V30 835 C 75.316 1.69501 -0.782698 0
M  V30 836 C 75.667 1.83456 0.695577 0
M  V30 837 O 74.792 1.51942 1.54086 0
M  V30 838 C 75.387 3.07874 -1.41419 0
M  V30 839 C 73.946 3.56864 -1.19686 0
M  V30 840 C 73.093 2.3322 -1.50012 0
M  V30 841 H 76.044 1.02262 -1.2136 0
M  V30 842 H 76.065 3.71528 -0.821428 0
M  V30 843 H 75.577 2.97685 -2.49009 0
M  V30 844 H 73.678 3.72337 -0.140043 0
M  V30 845 H 73.791 4.39851 -1.89916 0
M  V30 846 H 72.155 2.37501 -0.920071 0
M  V30 847 H 72.938 2.25644 -2.58727 0
M  V30 848 N 75.3831 0.828654 1.34056 0
M  V30 849 C 76.7941 0.477534 1.8049 0
M  V30 850 C 77.1451 -1.00258 1.6865 0
M  V30 851 O 76.2701 -1.78057 1.22982 0
M  V30 852 C 76.8651 0.860018 3.27703 0
M  V30 853 C 75.4241 0.561185 3.72193 0
M  V30 854 C 74.5711 1.07385 2.55663 0
M  V30 855 H 77.5221 1.0183 1.21722 0
M  V30 856 H 77.5431 0.166038 3.80138 0
M  V30 857 H 77.0551 1.93731 3.36288 0
M  V30 858 H 75.1561 -0.506465 3.69142 0
M  V30 859 H 75.2691 1.10926 4.66082 0
M  V30 860 H 73.6331 0.495149 2.49841 0
M  V30 861 H 74.4161 2.15771 2.67016 0
M  V30 862 N 76.8612 -1.46375 0.584142 0
M  V30 863 C 78.1072 -2.02678 0.0703716 0
M  V30 864 C 78.4402 -1.4545 -1.28678 0
M  V30 865 O 77.7152 -0.62014 -1.84349 0
M  V30 866 C 77.9982 -3.60099 0.00614674 0
M  V30 867 C 77.8512 -4.27709 1.3923 0
M  V30 868 C 79.1702 -4.34598 -0.693742 0
M  V30 869 H 76.2892 -0.736504 0.027047 0
M  V30 870 H 78.9312 -1.74501 0.751615 0
M  V30 871 H 77.0812 -3.84236 -0.574009 0
M  V30 872 H 78.7532 -4.14832 2.01773 0
M  V30 873 H 76.9962 -3.87016 1.95962 0
M  V30 874 H 77.6672 -5.36478 1.29982 0
M  V30 875 H 80.1432 -4.15615 -0.200869 0
M  V30 876 H 79.0192 -5.44318 -0.707714 0
M  V30 877 H 79.2802 -4.05759 -1.75533 0
M  V30 878 N 78.3393 -0.321999 -1.54275 0
M  V30 879 C 79.5643 0.285791 -2.05422 0
M  V30 880 C 79.9893 1.45124 -1.19669 0
M  V30 881 O 79.3473 1.80132 -0.205441 0
M  V30 882 C 79.3953 0.69956 -3.53749 0
M  V30 883 O 78.4993 1.8021 -3.70942 0
M  V30 884 H 77.8403 0.0518962 -0.661969 0
M  V30 885 H 80.3703 -0.469954 -1.9913 0
M  V30 886 H 80.3803 0.982649 -3.9599 0
M  V30 887 H 79.0553 -0.152864 -4.15619 0
M  V30 888 H 77.6323 1.51794 -3.40607 0
M  V30 889 N 79.8174 1.5752 -0.0501392 0
M  V30 890 C 81.0574 1.94521 0.627783 0
M  V30 891 C 81.4214 0.928265 1.68069 0
M  V30 892 O 82.6224 1.18517 2.41261 0
M  V30 893 C 80.8934 3.36319 1.20932 0
M  V30 894 S 82.4524 3.95272 1.90539 0
M  V30 895 H 79.2704 0.680456 0.206158 0
M  V30 896 H 81.8724 1.95139 -0.118829 0
M  V30 897 H 80.5764 4.08132 0.430865 0
M  V30 898 H 80.1074 3.39193 1.99277 0
M  V30 899 H 82.1224 3.80415 3.18589 0
M  V30 900 N 81.2955 -0.223234 1.56011 0
M  V30 901 C 82.5445 -0.945912 1.78144 0
M  V30 902 C 82.8575 -1.85567 0.618396 0
M  V30 903 O 84.0635 -2.61688 0.723318 0
M  V30 904 C 82.5195 -1.73216 3.15475 0
M  V30 905 C 82.1275 -0.868619 4.39499 0
M  V30 906 C 83.8715 -2.44615 3.46935 0
M  V30 907 C 81.7785 -1.65212 5.67855 0
M  V30 908 H 80.7085 -0.356929 0.664167 0
M  V30 909 H 83.3595 -0.199845 1.82409 0
M  V30 910 H 81.7415 -2.52107 3.05382 0
M  V30 911 H 82.9155 -0.120366 4.60643 0
M  V30 912 H 81.2305 -0.26683 4.15544 0
M  V30 913 H 83.8275 -3.03732 4.40058 0
M  V30 914 H 84.1705 -3.17417 2.69355 0
M  V30 915 H 84.7035 -1.72715 3.58349 0
M  V30 916 H 81.4425 -0.967407 6.48322 0
M  V30 917 H 80.9625 -2.37503 5.50774 0
M  V30 918 H 82.6415 -2.21322 6.07968 0
M  V30 919 N 82.7736 -1.49793 -0.48987 0
M  V30 920 C 83.7206 -1.67281 -1.59014 0
M  V30 921 C 84.6906 -0.514177 -1.57941 0
M  V30 922 O 85.8756 -0.742533 -1.75759 0
M  V30 923 C 83.0156 -1.75569 -2.97102 0
M  V30 924 C 82.1286 -3.0281 -3.08107 0
M  V30 925 C 81.2636 -3.02008 -4.36995 0
M  V30 926 C 80.3026 -4.23782 -4.41673 0
M  V30 927 N 79.4396 -4.20826 -5.62005 0
M  V30 928 H 84.2796 -2.61224 -1.43409 0
M  V30 929 H 81.8166 -1.29508 -0.697565 0
M  V30 930 H 83.7746 -1.78354 -3.77155 0
M  V30 931 H 82.4046 -0.850827 -3.11385 0
M  V30 932 H 81.4566 -3.09584 -2.21047 0
M  V30 933 H 82.7686 -3.92801 -3.07423 0
M  V30 934 H 81.9226 -3.03418 -5.25378 0
M  V30 935 H 80.6616 -2.09815 -4.4026 0
M  V30 936 H 79.6666 -4.22604 -3.5169 0
M  V30 937 H 80.8916 -5.17181 -4.40115 0
M  V30 938 H 78.8376 -3.31476 -5.66091 0
M  V30 939 H 78.7546 -5.04564 -5.62984 0
M  V30 940 H 80.0226 -4.26355 -6.52565 0
M  V30 941 N 84.2517 0.741722 -1.39055 0
M  V30 942 C 85.6677 1.04638 -1.20512 0
M  V30 943 C 85.8677 2.01405 -0.0620218 0
M  V30 944 O 84.9237 2.45547 0.588457 0
M  V30 945 C 86.2367 1.6151 -2.53643 0
M  V30 946 C 87.7847 1.73623 -2.6043 0
M  V30 947 C 88.2597 2.33906 -3.93767 0
M  V30 948 N 89.7507 2.41323 -3.9537 0
M  V30 949 C 90.4857 2.88888 -4.95309 0
M  V30 950 N 89.9817 3.36401 -6.05645 0
M  V30 951 N 91.7747 2.88037 -4.82692 0
M  V30 952 H 83.9257 0.0998155 -2.12165 0
M  V30 953 H 86.1887 0.106907 -0.941953 0
M  V30 954 H 85.8947 0.978739 -3.37807 0
M  V30 955 H 85.7687 2.60411 -2.72885 0
M  V30 956 H 88.1557 2.36384 -1.76655 0
M  V30 957 H 88.2367 0.733945 -2.45045 0
M  V30 958 H 87.8807 1.71776 -4.7797 0
M  V30 959 H 87.8107 3.34799 -4.06469 0
M  V30 960 H 90.3017 2.07734 -3.15682 0
M  V30 961 H 90.6147 3.71186 -6.77821 0
M  V30 962 H 88.9597 3.34427 -6.09248 0
M  V30 963 H 92.1507 2.50237 -3.95599 0
M  V30 964 H 92.3237 3.24792 -5.60726 0
M  V30 965 N 85.7298 1.2412 0.971189 0
M  V30 966 C 87.0068 0.986867 1.6888 0
M  V30 967 C 87.3868 -0.491857 2.0529 0
M  V30 968 O 86.7348 -1.46531 1.75331 0
M  V30 969 C 86.9448 1.9063 2.92338 0
M  V30 970 C 88.2928 2.17515 3.64654 0
M  V30 971 O 89.3168 1.88254 3.02388 0
M  V30 972 O 88.1758 2.6719 4.7673 0
M  V30 973 H 85.2698 0.372944 0.738134 0
M  V30 974 H 87.8158 1.35203 1.02559 0
M  V30 975 H 86.5878 2.90552 2.62097 0
M  V30 976 H 86.2108 1.54408 3.66393 0
M  V30 977 N 87.2079 -1.17134 1.05439 0
M  V30 978 C 88.4329 -1.91913 0.786396 0
M  V30 979 C 88.8579 -1.7643 -0.652234 0
M  V30 980 O 88.2159 -1.08372 -1.45345 0
M  V30 981 C 88.2639 -3.40921 1.17497 0
M  V30 982 O 87.3679 -4.11244 0.308589 0
M  V30 983 H 86.7089 -0.598215 0.288158 0
M  V30 984 H 89.2389 -1.48457 1.4079 0
M  V30 985 H 89.2489 -3.91668 1.14281 0
M  V30 986 H 87.9239 -3.5151 2.22292 0
M  V30 987 H 86.5009 -3.70731 0.40157 0
M  V30 988 N 88.686 -0.835752 -1.33615 0
M  V30 989 C 90.097 -0.487099 -1.80234 0
M  V30 990 C 90.448 0.993627 -1.69179 0
M  V30 991 O 89.573 1.77403 -1.23924 0
M  V30 992 C 90.168 -0.877385 -3.27242 0
M  V30 993 C 88.727 -0.580915 -3.7189 0
M  V30 994 C 87.874 -1.0874 -2.5509 0
M  V30 995 H 90.825 -1.02474 -1.2118 0
M  V30 996 H 90.846 -0.186195 -3.80044 0
M  V30 997 H 90.358 -1.95512 -3.35256 0
M  V30 998 H 88.459 0.486881 -3.69405 0
M  V30 999 H 88.572 -1.13396 -4.65487 0
M  V30 1000 H 86.936 -0.508392 -2.49575 0
M  V30 1001 H 87.719 -2.17184 -2.65868 0
M  V30 1002 N 90.1641 1.46063 -0.591896 0
M  V30 1003 C 91.4131 2.01547 -0.0786637 0
M  V30 1004 C 91.7261 1.46796 1.29268 0
M  V30 1005 O 92.9321 1.94157 1.89777 0
M  V30 1006 C 91.3881 3.59787 -0.0900024 0
M  V30 1007 C 90.9961 4.23534 -1.46023 0
M  V30 1008 C 92.7401 4.22895 0.368806 0
M  V30 1009 C 90.6471 5.73881 -1.4288 0
M  V30 1010 H 89.5771 0.753564 -0.0256388 0
M  V30 1011 H 92.2281 1.677 -0.744905 0
M  V30 1012 H 90.6101 3.90752 0.642586 0
M  V30 1013 H 91.7841 4.04167 -2.21328 0
M  V30 1014 H 90.0991 3.72558 -1.85982 0
M  V30 1015 H 92.6961 5.33116 0.411258 0
M  V30 1016 H 93.0391 3.9247 1.38827 0
M  V30 1017 H 93.5721 3.9659 -0.31001 0
M  V30 1018 H 90.3111 6.0898 -2.42536 0
M  V30 1019 H 89.8311 5.95486 -0.718095 0
M  V30 1020 H 91.5101 6.36776 -1.14565 0
M  V30 1021 N 91.6422 0.330177 1.54103 0
M  V30 1022 C 92.5742 -0.566902 2.22079 0
M  V30 1023 C 93.5872 -1.07462 1.22294 0
M  V30 1024 O 94.7762 -0.987065 1.48726 0
M  V30 1025 C 91.8762 -1.79138 2.87685 0
M  V30 1026 C 91.0492 -1.42123 4.13666 0
M  V30 1027 C 90.1082 -2.50394 4.62806 0
M  V30 1028 O 89.1342 -2.14261 5.27334 0
M  V30 1029 N 90.3362 -3.81433 4.37595 0
M  V30 1030 H 93.1012 0.0151844 2.99696 0
M  V30 1031 H 90.6622 0.153681 1.61169 0
M  V30 1032 H 92.6542 -2.50975 3.1748 0
M  V30 1033 H 91.2242 -2.28115 2.13734 0
M  V30 1034 H 90.4442 -0.534201 3.90564 0
M  V30 1035 H 91.7322 -1.14971 4.9564 0
M  V30 1036 H 91.1302 -4.13584 3.8596 0
M  V30 1037 H 89.6872 -4.4948 4.72029 0
M  V30 1038 N 93.1203 -1.57491 0.0584922 0
M  V30 1039 C 94.3603 -1.94851 -0.617458 0
M  V30 1040 C 94.7243 -0.937165 -1.67575 0
M  V30 1041 O 95.9253 -1.19795 -2.40629 0
M  V30 1042 C 94.1963 -3.36955 -1.19147 0
M  V30 1043 S 95.7553 -3.96277 -1.8844 0
M  V30 1044 H 92.5733 -0.681539 -0.202547 0
M  V30 1045 H 95.1753 -1.95073 0.129176 0
M  V30 1046 H 93.8793 -4.08355 -0.409215 0
M  V30 1047 H 93.4103 -3.40245 -1.97476 0
M  V30 1048 H 95.4253 -3.82099 -3.16568 0
M  V30 1049 N 94.5984 0.214957 -1.56127 0
M  V30 1050 C 95.8474 0.936451 -1.78643 0
M  V30 1051 C 96.1604 1.85237 -0.628229 0
M  V30 1052 O 97.3664 2.613 -0.737186 0
M  V30 1053 C 95.8224 1.7154 -3.16389 0
M  V30 1054 C 95.4304 0.845299 -4.39953 0
M  V30 1055 C 97.1744 2.42772 -3.48227 0
M  V30 1056 C 95.0814 1.62198 -5.68723 0
M  V30 1057 H 94.0114 0.353401 -0.666051 0
M  V30 1058 H 96.6624 0.190169 -1.82512 0
M  V30 1059 H 95.0444 2.50484 -3.06715 0
M  V30 1060 H 96.2184 0.0959353 -4.607 0
M  V30 1061 H 94.5334 0.244789 -4.1568 0
M  V30 1062 H 97.1304 3.01394 -4.41663 0
M  V30 1063 H 97.4734 3.15984 -2.71035 0
M  V30 1064 H 98.0064 1.70813 -3.5926 0
M  V30 1065 H 94.7454 0.933011 -6.48826 0
M  V30 1066 H 94.2654 2.34579 -5.52026 0
M  V30 1067 H 95.9444 2.18095 -6.09133 0
M  V30 1068 N 96.0765 1.50051 0.48192 0
M  V30 1069 C 97.0085 1.64263 1.59844 0
M  V30 1070 C 98.0215 0.52451 1.54119 0
M  V30 1071 O 99.2105 0.797293 1.59704 0
M  V30 1072 C 96.3105 1.60102 2.98698 0
M  V30 1073 C 95.4835 2.87767 3.29407 0
M  V30 1074 C 94.5425 2.76397 4.47762 0
M  V30 1075 O 93.5685 3.50348 4.48603 0
M  V30 1076 N 94.7705 1.89222 5.48794 0
M  V30 1077 H 97.5355 2.60566 1.48073 0
M  V30 1078 H 95.0965 1.47379 0.670149 0
M  V30 1079 H 97.0885 1.50123 3.75826 0
M  V30 1080 H 95.6585 0.715798 3.04294 0
M  V30 1081 H 94.8785 3.11954 2.40994 0
M  V30 1082 H 96.1665 3.72365 3.4673 0
M  V30 1083 H 95.5645 1.28434 5.50928 0
M  V30 1084 H 94.1215 1.85154 6.24949 0
M  V30 1085 N 97.5546 -0.734337 1.39446 0
M  V30 1086 C 98.5176 -1.83004 1.37994 0
M  V30 1087 C 99.5176 -1.58397 0.276938 0
M  V30 1088 O 100.708 -1.65785 0.534875 0
M  V30 1089 C 97.8396 -3.20802 1.1532 0
M  V30 1090 H 99.0326 -1.85694 2.35494 0
M  V30 1091 H 96.5856 -0.938059 1.25021 0
M  V30 1092 H 97.3206 -3.23772 0.185036 0
M  V30 1093 H 97.1056 -3.4006 1.95197 0
M  V30 1094 H 98.5956 -4.00862 1.17046 0
M  V30 1095 N 99.0327 -1.24633 -0.964593 0
M  V30 1096 C 100.282 -1.08188 -1.7023 0
M  V30 1097 C 100.595 0.37873 -1.91898 0
M  V30 1098 O 101.801 0.663427 -2.6327 0
M  V30 1099 C 100.257 -1.88773 -3.06419 0
M  V30 1100 C 99.8647 -3.39263 -2.92582 0
M  V30 1101 C 101.609 -1.80867 -3.84041 0
M  V30 1102 C 99.5157 -4.1218 -4.24101 0
M  V30 1103 H 98.4457 -0.401245 -0.638372 0
M  V30 1104 H 101.097 -1.48742 -1.07462 0
M  V30 1105 H 99.4787 -1.41035 -3.70034 0
M  V30 1106 H 100.653 -3.94603 -2.37961 0
M  V30 1107 H 98.9677 -3.48154 -2.28424 0
M  V30 1108 H 101.565 -2.32646 -4.81435 0
M  V30 1109 H 101.908 -0.774543 -4.09031 0
M  V30 1110 H 102.441 -2.26301 -3.27159 0
M  V30 1111 H 99.1797 -5.15965 -4.04303 0
M  V30 1112 H 98.6997 -3.61626 -4.78526 0
M  V30 1113 H 100.379 -4.19349 -4.92702 0
M  V30 1114 N 100.511 1.16574 -1.06058 0
M  V30 1115 C 101.474 2.19085 -0.673392 0
M  V30 1116 C 102.474 1.5835 0.279648 0
M  V30 1117 O 103.664 1.74088 0.0623488 0
M  V30 1118 C 100.796 3.40899 0.00954234 0
M  V30 1119 H 101.989 2.54853 -1.58081 0
M  V30 1120 H 99.5418 1.30808 -0.855516 0
M  V30 1121 H 100.277 3.10684 0.929826 0
M  V30 1122 H 100.062 3.86233 -0.67573 0
M  V30 1123 H 101.552 4.1675 0.266245 0
M  V30 1124 N 101.989 0.842826 1.3317 0
M  V30 1125 C 102.899 0.281444 2.32906 0
M  V30 1126 C 103.915 -0.594587 1.63526 0
M  V30 1127 O 105.091 -0.49777 1.95152 0
M  V30 1128 C 102.156 -0.530929 3.42611 0
M  V30 1129 C 101.217 0.369843 4.27704 0
M  V30 1130 C 100.45 -0.403853 5.3217 0
M  V30 1131 O 100.673 -1.63513 5.46461 0
M  V30 1132 O 99.6069 0.224199 6.01482 0
M  V30 1133 H 103.433 1.10744 2.82789 0
M  V30 1134 H 101.018 0.60545 1.36582 0
M  V30 1135 H 102.9 -0.992437 4.09547 0
M  V30 1136 H 101.575 -1.33392 2.94938 0
M  V30 1137 H 100.482 0.879275 3.6362 0
M  V30 1138 H 101.815 1.13771 4.78871 0
M  V30 1139 N 103.467 -1.45747 0.599634 0
M  V30 1140 C 104.415 -2.322 -0.136426 0
M  V30 1141 C 105.409 -1.45497 -0.867583 0
M  V30 1142 O 106.615 -1.62027 -0.78405 0
M  V30 1143 H 102.99 -0.749368 -0.0628588 0
M  V30 1144 H 104.961 -2.92072 0.611281 0
M  V30 1145 C 103.71 -3.28974 -1.12567 0
M  V30 1146 H 103.033 -3.9568 -0.572484 0
M  V30 1147 H 104.473 -3.92212 -1.61077 0
M  V30 1148 C 102.932 -2.55561 -2.19523 0
M  V30 1149 O 103.462 -2.33111 -3.27143 0
M  V30 1150 N 101.668 -2.15832 -1.94589 0
M  V30 1151 H 101.215 -2.3429 -1.07078 0
M  V30 1152 H 101.173 -1.67034 -2.66359 0
M  V30 1153 N 104.945 -0.338344 -1.53925 0
M  V30 1154 C 106.361 0.0137736 -1.59594 0
M  V30 1155 C 106.561 1.49186 -1.35447 0
M  V30 1156 O 105.617 2.24987 -1.14616 0
M  V30 1157 C 106.93 -0.41773 -2.97784 0
M  V30 1158 C 108.478 -0.369633 -3.1081 0
M  V30 1159 C 108.953 -0.776524 -4.51369 0
M  V30 1160 N 110.444 -0.730506 -4.57403 0
M  V30 1161 C 111.179 -1.01736 -5.64303 0
M  V30 1162 N 110.675 -1.3721 -6.79077 0
M  V30 1163 N 112.468 -0.941942 -5.54151 0
M  V30 1164 H 104.619 -1.3012 -1.67876 0
M  V30 1165 H 106.882 -0.530082 -0.78595 0
M  V30 1166 H 106.588 -1.44811 -3.20504 0
M  V30 1167 H 106.462 0.209729 -3.76616 0
M  V30 1168 H 108.849 0.651568 -2.87817 0
M  V30 1169 H 108.93 -1.03223 -2.34049 0
M  V30 1170 H 108.574 -1.79571 -4.75096 0
M  V30 1171 H 108.504 -0.0914649 -5.26521 0
M  V30 1172 H 110.995 -0.468783 -3.74981 0
M  V30 1173 H 111.308 -1.57597 -7.5656 0
M  V30 1174 H 109.653 -1.4105 -6.80536 0
M  V30 1175 H 112.844 -0.664184 -4.63364 0
M  V30 1176 H 113.017 -1.16884 -6.37371 0
M  V30 1177 N 106.423 1.57458 -0.0668435 0
M  V30 1178 C 107.386 2.11323 0.887422 0
M  V30 1179 C 108.386 1.03618 1.22964 0
M  V30 1180 O 109.576 1.29626 1.16373 0
M  V30 1181 C 106.708 2.61048 2.19242 0
M  V30 1182 H 107.901 2.96942 0.420194 0
M  V30 1183 H 105.454 1.55239 0.181793 0
M  V30 1184 H 106.189 1.78868 2.70512 0
M  V30 1185 H 105.974 3.39769 1.95702 0
M  V30 1186 H 107.464 3.02814 2.87565 0
M  V30 1187 N 107.901 -0.206675 1.56239 0
M  V30 1188 C 109.178 -0.954051 1.70755 0
M  V30 1189 C 109.558 -2.01841 0.618353 0
M  V30 1190 O 108.906 -2.25444 -0.372434 0
M  V30 1191 C 109.116 -1.551 3.12642 0
M  V30 1192 C 110.464 -2.03757 3.72516 0
M  V30 1193 O 111.488 -1.64965 3.15698 0
M  V30 1194 O 110.347 -2.75103 4.72208 0
M  V30 1195 H 107.441 -0.446636 0.696021 0
M  V30 1196 H 109.987 -0.197283 1.68549 0
M  V30 1197 H 108.759 -0.783212 3.83382 0
M  V30 1198 H 108.382 -2.37291 3.19028 0
M  V30 1199 N 109.379 -1.50304 -0.473955 0
M  V30 1200 C 110.342 -1.6841 -1.55469 0
M  V30 1201 C 111.342 -0.554905 -1.50922 0
M  V30 1202 O 112.532 -0.821882 -1.53593 0
M  V30 1203 C 109.664 -1.70667 -2.95102 0
M  V30 1204 H 110.857 -2.64828 -1.40733 0
M  V30 1205 H 108.41 -1.39742 -0.700132 0
M  V30 1206 H 109.145 -0.75932 -3.15285 0
M  V30 1207 H 108.93 -2.52698 -2.9981 0
M  V30 1208 H 110.42 -1.8664 -3.73571 0
M  V30 1209 N 110.857 0.726932 -1.39834 0
M  V30 1210 C 112.103 1.48884 -1.377 0
M  V30 1211 C 112.436 1.94185 0.0244852 0
M  V30 1212 O 111.711 1.67361 0.990986 0
M  V30 1213 C 111.994 2.72288 -2.3565 0
M  V30 1214 C 111.847 2.32956 -3.84775 0
M  V30 1215 C 113.166 3.74414 -2.31306 0
M  V30 1216 H 110.285 0.540062 -0.5015 0
M  V30 1217 H 112.927 0.830547 -1.70886 0
M  V30 1218 H 111.077 3.28457 -2.07481 0
M  V30 1219 H 112.749 1.82356 -4.23726 0
M  V30 1220 H 110.992 1.65088 -4.01159 0
M  V30 1221 H 111.663 3.21362 -4.4881 0
M  V30 1222 H 114.139 3.27849 -2.56231 0
M  V30 1223 H 113.015 4.58414 -3.01907 0
M  V30 1224 H 113.276 4.21909 -1.32081 0
M  V30 1225 N 112.336 1.25143 0.95797 0
M  V30 1226 C 113.564 1.12424 1.73691 0
M  V30 1227 C 113.979 -0.322304 1.86029 0
M  V30 1228 O 113.336 -1.22186 1.35561 0
M  V30 1229 C 113.387 1.76933 3.15241 0
M  V30 1230 O 113.108 3.15932 3.03511 0
M  V30 1231 C 114.609 1.6995 4.09429 0
M  V30 1232 H 111.829 0.3923 0.544373 0
M  V30 1233 H 114.373 1.6544 1.20207 0
M  V30 1234 H 112.528 1.27895 3.6568 0
M  V30 1235 H 112.942 3.47598 3.9278 0
M  V30 1236 H 114.416 2.19753 5.06372 0
M  V30 1237 H 114.893 0.662619 4.34173 0
M  V30 1238 H 115.499 2.18461 3.64904 0
M  V30 1239 N 113.814 -1.1601 1.06675 0
M  V30 1240 C 114.744 -2.22688 0.702307 0
M  V30 1241 C 115.725 -1.67306 -0.307032 0
M  V30 1242 O 116.91 -1.93352 -0.181305 0
M  V30 1243 C 114.04 -3.47178 0.092038 0
M  V30 1244 C 112.994 -4.15477 1.02777 0
M  V30 1245 C 112.32 -5.33963 0.28061 0
M  V30 1246 C 113.62 -4.66019 2.35846 0
M  V30 1247 H 115.314 -2.53429 1.59419 0
M  V30 1248 H 112.86 -1.21813 0.767961 0
M  V30 1249 H 114.813 -4.21037 -0.174814 0
M  V30 1250 H 113.537 -3.15749 -0.834877 0
M  V30 1251 H 112.196 -3.43549 1.27944 0
M  V30 1252 H 111.844 -4.98788 -0.649545 0
M  V30 1253 H 111.544 -5.806 0.904258 0
M  V30 1254 H 113.068 -6.10596 0.021396 0
M  V30 1255 H 114.482 -5.3144 2.15045 0
M  V30 1256 H 112.879 -5.23293 2.93743 0
M  V30 1257 H 113.949 -3.82023 2.98641 0
M  V30 1258 N 115.292 -0.849877 -1.32721 0
M  V30 1259 C 116.569 -0.372405 -1.92022 0
M  V30 1260 C 116.949 1.1435 -1.77447 0
M  V30 1261 O 116.297 1.96296 -1.16962 0
M  V30 1262 C 116.507 -0.831482 -3.3895 0
M  V30 1263 C 117.855 -0.845882 -4.16089 0
M  V30 1264 O 118.879 -0.775806 -3.47649 0
M  V30 1265 O 117.738 -0.943753 -5.38289 0
M  V30 1266 H 114.832 -0.107667 -0.819961 0
M  V30 1267 H 117.378 -0.93646 -1.41522 0
M  V30 1268 H 116.15 -1.87448 -3.4348 0
M  V30 1269 H 115.773 -0.24461 -3.96847 0
M  V30 1270 N 116.77 1.45427 -0.607355 0
M  V30 1271 C 118.018 2.01841 -0.102253 0
M  V30 1272 C 118.339 1.47832 1.27164 0
M  V30 1273 O 117.609 0.672497 1.83995 0
M  V30 1274 H 116.189 0.746188 -0.0348101 0
M  V30 1275 H 118.851 1.78229 -0.7887 0
M  V30 1276 H 117.947 3.12057 -0.0518585 0
M  V30 1277 N 118.248 0.346503 1.53744 0
M  V30 1278 C 119.496 -0.248612 2.00565 0
M  V30 1279 C 119.817 -1.5083 1.23593 0
M  V30 1280 O 119.087 -1.92858 0.343912 0
M  V30 1281 H 117.667 -0.0948564 0.740953 0
M  V30 1282 H 120.329 0.468341 1.89189 0
M  V30 1283 H 119.425 -0.488994 3.08245 0
M  V30 1284 N 119.726 -1.57421 0.075193 0
M  V30 1285 C 120.973 -1.93618 -0.593146 0
M  V30 1286 C 121.301 -0.955484 -1.69413 0
M  V30 1287 O 120.556 0.0283251 -1.9568 0
M  V30 1288 C 120.855 -3.36428 -1.20626 0
M  V30 1289 C 120.521 -4.50307 -0.231078 0
M  V30 1290 C 119.183 -4.81186 0.0371936 0
M  V30 1291 C 121.535 -5.19374 0.435888 0
M  V30 1292 C 118.863 -5.78466 0.979461 0
M  V30 1293 C 121.215 -6.17665 1.3665 0
M  V30 1294 C 119.879 -6.46958 1.6432 0
M  V30 1295 H 119.149 -0.708499 -0.217047 0
M  V30 1296 H 121.796 -1.90937 0.146793 0
M  V30 1297 H 120.101 -3.35592 -2.02201 0
M  V30 1298 H 121.798 -3.61727 -1.73073 0
M  V30 1299 H 118.388 -4.26227 -0.450357 0
M  V30 1300 H 122.572 -4.95711 0.241748 0
M  V30 1301 H 117.828 -5.99487 1.20106 0
M  V30 1302 H 122.002 -6.70284 1.88924 0
M  V30 1303 H 119.629 -7.2215 2.37494 0
M  V30 1304 N 121.204 0.198386 -1.56346 0
M  V30 1305 C 122.453 0.917451 -1.79627 0
M  V30 1306 C 122.766 1.8456 -0.64784 0
M  V30 1307 O 123.972 2.60504 -0.764859 0
M  V30 1308 C 122.428 1.68175 -3.18191 0
M  V30 1309 C 122.036 0.798589 -4.40825 0
M  V30 1310 C 123.78 2.39065 -3.50782 0
M  V30 1311 C 121.687 1.56157 -5.70411 0
M  V30 1312 H 120.617 0.346317 -0.669762 0
M  V30 1313 H 123.268 0.170801 -1.82703 0
M  V30 1314 H 121.65 2.47216 -3.09354 0
M  V30 1315 H 122.824 0.0470665 -4.60776 0
M  V30 1316 H 121.139 0.200686 -4.15916 0
M  V30 1317 H 123.736 2.96692 -4.44835 0
M  V30 1318 H 124.079 3.13091 -2.74371 0
M  V30 1319 H 124.612 1.66993 -3.61052 0
M  V30 1320 H 121.351 0.864142 -6.49779 0
M  V30 1321 H 120.871 2.2871 -5.54483 0
M  V30 1322 H 122.55 2.11622 -6.11412 0
M  V30 1323 N 122.682 1.50554 0.465978 0
M  V30 1324 C 123.912 1.65323 1.23903 0
M  V30 1325 C 124.32 0.338051 1.86155 0
M  V30 1326 O 123.663 -0.690518 1.70228 0
M  V30 1327 C 123.725 2.69048 2.3844 0
M  V30 1328 C 123.389 4.12462 1.96784 0
M  V30 1329 C 124.386 4.98168 1.48745 0
M  V30 1330 C 122.071 4.58407 2.05349 0
M  V30 1331 C 124.065 6.27868 1.0982 0
M  V30 1332 C 121.752 5.88112 1.66035 0
M  V30 1333 C 122.75 6.72668 1.18349 0
M  V30 1334 O 122.438 7.99951 0.795825 0
M  V30 1335 H 122.17 0.558629 0.38067 0
M  V30 1336 H 124.724 1.97561 0.562022 0
M  V30 1337 H 122.954 2.32062 3.09328 0
M  V30 1338 H 124.643 2.72985 3.0039 0
M  V30 1339 H 125.409 4.63885 1.41546 0
M  V30 1340 H 121.288 3.92735 2.41414 0
M  V30 1341 H 124.832 6.93819 0.725293 0
M  V30 1342 H 120.729 6.21914 1.72895 0
M  V30 1343 H 121.497 8.13265 0.924222 0
M  V30 1344 N 124.16 -0.719506 1.40217 0
M  V30 1345 C 125.07 -1.86378 1.42479 0
M  V30 1346 C 126.086 -1.71073 0.317834 0
M  V30 1347 O 127.262 -1.93406 0.561794 0
M  V30 1348 C 124.327 -3.22136 1.28178 0
M  V30 1349 C 123.388 -3.49723 2.48982 0
M  V30 1350 C 122.621 -4.79004 2.35353 0
M  V30 1351 O 122.844 -5.53821 1.36524 0
M  V30 1352 O 121.778 -5.06839 3.2465 0
M  V30 1353 H 125.604 -1.87425 2.38968 0
M  V30 1354 H 123.189 -0.869405 1.21498 0
M  V30 1355 H 125.071 -4.03234 1.22395 0
M  V30 1356 H 123.746 -3.21825 0.347934 0
M  V30 1357 H 122.653 -2.6865 2.60342 0
M  V30 1358 H 123.986 -3.54828 3.41113 0
M  V30 1359 N 125.638 -1.25649 -0.95132 0
M  V30 1360 C 126.601 -1.06399 -2.03007 0
M  V30 1361 C 127.601 -0.0156794 -1.60792 0
M  V30 1362 O 128.791 -0.25817 -1.72276 0
M  V30 1363 C 125.923 -0.616184 -3.35285 0
M  V30 1364 H 127.116 -2.02164 -2.21517 0
M  V30 1365 H 124.669 -1.08103 -1.12887 0
M  V30 1366 H 125.404 0.343917 -3.22471 0
M  V30 1367 H 125.189 -1.37301 -3.67275 0
M  V30 1368 H 126.679 -0.503032 -4.14559 0
M  V30 1369 N 127.117 1.15442 -1.07289 0
M  V30 1370 C 128.365 1.85845 -0.794096 0
M  V30 1371 C 128.686 1.82692 0.681809 0
M  V30 1372 O 127.956 1.26741 1.49377 0
M  V30 1373 H 126.536 0.688089 -0.290763 0
M  V30 1374 H 129.198 1.39947 -1.3565 0
M  V30 1375 H 128.294 2.91001 -1.12804 0
M  V30 1376 N 128.595 0.856903 1.32268 0
M  V30 1377 C 129.525 0.31858 2.31316 0
M  V30 1378 C 130.506 -0.583487 1.59779 0
M  V30 1379 O 131.691 -0.503259 1.87566 0
M  V30 1380 C 128.821 -0.491979 3.43798 0
M  V30 1381 C 127.775 0.315849 4.26833 0
M  V30 1382 C 127.101 -0.619586 5.31098 0
M  V30 1383 C 128.401 1.54282 4.98993 0
M  V30 1384 H 130.095 1.14621 2.76591 0
M  V30 1385 H 127.641 0.552613 1.32974 0
M  V30 1386 H 129.594 -0.879012 4.1213 0
M  V30 1387 H 128.318 -1.35299 2.97257 0
M  V30 1388 H 126.977 0.684664 3.6015 0
M  V30 1389 H 126.625 -1.47751 4.8081 0
M  V30 1390 H 126.325 -0.0830621 5.87541 0
M  V30 1391 H 127.849 -1.00375 6.02293 0
M  V30 1392 H 129.263 1.22796 5.59995 0
M  V30 1393 H 127.66 2.01745 5.65172 0
M  V30 1394 H 128.73 2.30285 4.26728 0
M  V30 1395 N 130.073 -1.45103 0.615059 0
M  V30 1396 C 131.036 -2.29025 -0.0895485 0
M  V30 1397 C 132.036 -1.40174 -0.787906 0
M  V30 1398 O 133.226 -1.62217 -0.634933 0
M  V30 1399 C 130.358 -3.21376 -1.13711 0
M  V30 1400 H 131.551 -2.92807 0.648382 0
M  V30 1401 H 129.104 -1.51749 0.374444 0
M  V30 1402 H 129.839 -2.6241 -1.90556 0
M  V30 1403 H 129.624 -3.86834 -0.640475 0
M  V30 1404 H 131.114 -3.84459 -1.63036 0
M  V30 1405 N 131.551 -0.354651 -1.53558 0
M  V30 1406 C 132.962 0.126902 -1.86268 0
M  V30 1407 C 133.313 1.49075 -1.27558 0
M  V30 1408 O 132.438 2.08105 -0.5934 0
M  V30 1409 C 133.033 0.237046 -3.3797 0
M  V30 1410 C 131.592 0.662842 -3.70518 0
M  V30 1411 C 130.739 -0.196652 -2.76602 0
M  V30 1412 H 133.69 -0.573849 -1.47962 0
M  V30 1413 H 133.711 1.06259 -3.65362 0
M  V30 1414 H 133.223 -0.755725 -3.80671 0
M  V30 1415 H 131.324 1.66424 -3.33367 0
M  V30 1416 H 131.437 0.445034 -4.77029 0
M  V30 1417 H 129.801 0.332763 -2.52517 0
M  V30 1418 H 130.584 -1.18676 -3.22135 0
M  V30 1419 N 133.029 1.57378 -0.0835403 0
M  V30 1420 C 134.259 1.97975 0.590713 0
M  V30 1421 C 134.667 0.961083 1.62972 0
M  V30 1422 O 134.01 -0.0590879 1.83605 0
M  V30 1423 C 134.072 3.34915 1.3066 0
M  V30 1424 C 133.736 4.55069 0.419698 0
M  V30 1425 C 134.733 5.18868 -0.32749 0
M  V30 1426 C 132.418 5.0114 0.341137 0
M  V30 1427 C 134.412 6.27098 -1.14134 0
M  V30 1428 C 132.099 6.0924 -0.476374 0
M  V30 1429 C 133.097 6.72083 -1.21627 0
M  V30 1430 O 132.785 7.781 -2.02028 0
M  V30 1431 H 132.517 0.655818 0.163947 0
M  V30 1432 H 135.071 2.04807 -0.156021 0
M  V30 1433 H 133.301 3.24733 2.09966 0
M  V30 1434 H 134.99 3.60037 1.87424 0
M  V30 1435 H 135.756 4.84211 -0.276459 0
M  V30 1436 H 131.635 4.51996 0.90668 0
M  V30 1437 H 135.179 6.7608 -1.71935 0
M  V30 1438 H 131.076 6.43329 -0.528927 0
M  V30 1439 H 131.844 7.95034 -1.94586 0
M  V30 1440 N 134.507 -0.190092 1.56449 0
M  V30 1441 C 135.454 -1.23557 1.94942 0
M  V30 1442 C 136.424 -1.44972 0.810696 0
M  V30 1443 O 137.609 -1.58023 1.06927 0
M  V30 1444 C 134.749 -2.57416 2.2985 0
M  V30 1445 C 133.862 -2.43537 3.5681 0
M  V30 1446 C 132.997 -3.70134 3.81017 0
M  V30 1447 C 132.036 -3.51109 5.01387 0
M  V30 1448 N 131.173 -4.6973 5.21822 0
M  V30 1449 H 136.013 -0.900304 2.84075 0
M  V30 1450 H 133.55 -0.43318 1.40577 0
M  V30 1451 H 135.508 -3.35409 2.48106 0
M  V30 1452 H 134.138 -2.88975 1.43852 0
M  V30 1453 H 133.19 -1.56816 3.46573 0
M  V30 1454 H 134.502 -2.25415 4.4496 0
M  V30 1455 H 133.656 -4.56566 3.9954 0
M  V30 1456 H 132.395 -3.91215 2.91207 0
M  V30 1457 H 131.4 -2.63063 4.82782 0
M  V30 1458 H 132.625 -3.31468 5.9271 0
M  V30 1459 H 130.571 -4.91065 4.34961 0
M  V30 1460 H 130.488 -4.54452 6.0416 0
M  V30 1461 H 131.756 -5.57499 5.44808 0
M  V30 1462 N 135.985 -1.50799 -0.457987 0
M  V30 1463 C 136.915 -1.73553 -1.5621 0
M  V30 1464 C 137.896 -0.584774 -1.59732 0
M  V30 1465 O 139.081 -0.825314 -1.7579 0
M  V30 1466 C 136.211 -1.84169 -2.94447 0
M  V30 1467 C 135.165 -2.99461 -3.0579 0
M  V30 1468 C 134.491 -2.95235 -4.45803 0
M  V30 1469 C 135.791 -4.39766 -2.81786 0
M  V30 1470 H 137.485 -2.66 -1.37421 0
M  V30 1471 H 135.031 -1.28002 -0.659662 0
M  V30 1472 H 136.984 -1.98672 -3.71628 0
M  V30 1473 H 135.708 -0.883545 -3.14422 0
M  V30 1474 H 134.367 -2.8463 -2.31044 0
M  V30 1475 H 134.015 -1.97239 -4.62715 0
M  V30 1476 H 133.715 -3.72642 -4.54326 0
M  V30 1477 H 135.239 -3.11803 -5.24987 0
M  V30 1478 H 136.653 -4.55054 -3.4871 0
M  V30 1479 H 135.05 -5.18722 -3.0174 0
M  V30 1480 H 136.12 -4.51229 -1.7754 0
M  V30 1481 N 137.463 0.71206 -1.40597 0
M  V30 1482 C 138.879 1.02058 -1.22704 0
M  V30 1483 C 139.079 2.01228 -0.104729 0
M  V30 1484 O 138.135 2.4674 0.53624 0
M  V30 1485 C 139.448 1.56094 -2.57012 0
M  V30 1486 C 140.996 1.6806 -2.64054 0
M  V30 1487 C 141.471 2.25501 -3.9864 0
M  V30 1488 N 142.962 2.32882 -4.004 0
M  V30 1489 C 143.697 2.78317 -5.01325 0
M  V30 1490 N 143.193 3.23478 -6.12645 0
M  V30 1491 N 144.986 2.77733 -4.88693 0
M  V30 1492 H 137.137 0.0547896 -2.12329 0
M  V30 1493 H 139.4 0.0869027 -0.944008 0
M  V30 1494 H 139.106 0.906865 -3.39807 0
M  V30 1495 H 138.98 2.54564 -2.78347 0
M  V30 1496 H 141.367 2.32583 -1.81629 0
M  V30 1497 H 141.448 0.681802 -2.46546 0
M  V30 1498 H 141.092 1.61598 -4.81506 0
M  V30 1499 H 141.022 3.26102 -4.13479 0
M  V30 1500 H 143.513 2.00991 -3.20017 0
M  V30 1501 H 143.826 3.56725 -6.85542 0
M  V30 1502 H 142.171 3.21429 -6.16205 0
M  V30 1503 H 145.362 2.4179 -4.00818 0
M  V30 1504 H 145.535 3.12826 -5.67489 0
M  V30 1505 N 138.941 1.26152 0.944643 0
M  V30 1506 C 140.352 1.10454 1.50522 0
M  V30 1507 C 140.703 -0.31635 1.93633 0
M  V30 1508 O 139.828 -1.20746 1.79581 0
M  V30 1509 C 140.423 1.99891 2.73549 0
M  V30 1510 C 138.982 1.88348 3.25886 0
M  V30 1511 C 138.129 1.93447 1.9868 0
M  V30 1512 H 141.08 1.39292 0.760489 0
M  V30 1513 H 141.101 1.54477 3.47732 0
M  V30 1514 H 140.613 3.03297 2.42141 0
M  V30 1515 H 138.714 0.878636 3.62092 0
M  V30 1516 H 138.827 2.73696 3.93227 0
M  V30 1517 H 137.191 1.37456 2.14425 0
M  V30 1518 H 137.974 2.98476 1.69607 0
M  V30 1519 N 140.419 -1.14872 1.07899 0
M  V30 1520 C 141.665 -1.86064 0.806725 0
M  V30 1521 C 141.998 -1.82434 -0.665706 0
M  V30 1522 O 141.273 -1.25138 -1.48899 0
M  V30 1523 C 141.556 -3.34929 1.32267 0
M  V30 1524 C 141.409 -3.47161 2.86006 0
M  V30 1525 C 142.728 -4.29863 0.943717 0
M  V30 1526 H 139.847 -0.675591 0.294526 0
M  V30 1527 H 142.489 -1.34925 1.33773 0
M  V30 1528 H 140.639 -3.78611 0.870974 0
M  V30 1529 H 142.311 -3.12302 3.39507 0
M  V30 1530 H 140.554 -2.88539 3.23925 0
M  V30 1531 H 141.225 -4.51777 3.17177 0
M  V30 1532 H 143.701 -3.9417 1.33302 0
M  V30 1533 H 142.577 -5.32494 1.33198 0
M  V30 1534 H 142.838 -4.41846 -0.149796 0
M  V30 1535 N 141.898 -0.863906 -1.31812 0
M  V30 1536 C 142.861 -0.320212 -2.26952 0
M  V30 1537 C 143.861 0.525369 -1.51975 0
M  V30 1538 O 145.051 0.335547 -1.70938 0
M  V30 1539 C 142.183 0.545919 -3.365 0
M  V30 1540 H 143.376 -1.16004 -2.76556 0
M  V30 1541 H 140.929 -0.638995 -1.42641 0
M  V30 1542 H 141.664 1.40718 -2.92179 0
M  V30 1543 H 141.449 -0.0594674 -3.92055 0
M  V30 1544 H 142.939 0.918796 -4.07367 0
M  V30 1545 N 143.376 1.44774 -0.622745 0
M  V30 1546 C 144.339 2.29069 0.0774015 0
M  V30 1547 C 145.339 1.4059 0.780461 0
M  V30 1548 O 146.529 1.62551 0.626322 0
M  V30 1549 C 143.661 3.21974 1.12006 0
M  V30 1550 H 144.854 2.92459 -0.663901 0
M  V30 1551 H 142.407 1.51548 -0.382486 0
M  V30 1552 H 143.142 2.63417 1.89162 0
M  V30 1553 H 142.927 3.87168 0.619951 0
M  V30 1554 H 144.417 3.85318 1.60995 0
M  V30 1555 N 144.854 0.36279 1.53368 0
M  V30 1556 C 145.764 -0.492994 2.29362 0
M  V30 1557 C 146.78 -1.09507 1.35219 0
M  V30 1558 O 147.956 -1.10662 1.68273 0
M  V30 1559 C 145.021 -1.61855 3.066 0
M  V30 1560 C 144.082 -1.04429 4.16405 0
M  V30 1561 C 143.315 -2.11621 4.89951 0
M  V30 1562 O 143.538 -3.32684 4.63333 0
M  V30 1563 O 142.472 -1.74835 5.75948 0
M  V30 1564 H 146.298 0.125331 3.03441 0
M  V30 1565 H 143.883 0.127253 1.48857 0
M  V30 1566 H 145.765 -2.27302 3.54841 0
M  V30 1567 H 144.44 -2.22233 2.3536 0
M  V30 1568 H 143.347 -0.353819 3.72423 0
M  V30 1569 H 144.68 -0.485113 4.89804 0
M  V30 1570 N 146.332 -1.57332 0.0918853 0
M  V30 1571 C 147.578 -1.94524 -0.573425 0
M  V30 1572 C 147.911 -0.973578 -1.68033 0
M  V30 1573 O 147.186 -0.00609226 -1.94499 0
M  V30 1574 C 147.469 -3.41858 -1.13161 0
M  V30 1575 C 147.322 -4.4979 -0.0299747 0
M  V30 1576 C 148.641 -3.90435 -2.03098 0
M  V30 1577 H 145.76 -0.70734 -0.206975 0
M  V30 1578 H 148.402 -1.89309 0.161942 0
M  V30 1579 H 146.552 -3.46433 -1.7583 0
M  V30 1580 H 148.224 -4.57327 0.604112 0
M  V30 1581 H 146.467 -4.291 0.636833 0
M  V30 1582 H 147.138 -5.50069 -0.461287 0
M  V30 1583 H 149.614 -3.87992 -1.50338 0
M  V30 1584 H 148.49 -4.94097 -2.39081 0
M  V30 1585 H 148.751 -3.29541 -2.94712 0
M  V30 1586 N 147.81 0.181792 -1.56548 0
M  V30 1587 C 149.04 0.914618 -1.85252 0
M  V30 1588 C 149.448 1.76791 -0.673914 0
M  V30 1589 O 148.791 1.80009 0.366416 0
M  V30 1590 C 148.853 1.85019 -3.08234 0
M  V30 1591 C 148.517 1.17754 -4.41569 0
M  V30 1592 C 149.514 0.548035 -5.17003 0
M  V30 1593 C 147.199 1.17742 -4.88305 0
M  V30 1594 C 149.193 -0.0726128 -6.37359 0
M  V30 1595 C 146.88 0.552946 -6.08593 0
M  V30 1596 C 147.878 -0.070978 -6.82963 0
M  V30 1597 O 147.566 -0.685635 -8.00971 0
M  V30 1598 H 147.298 0.271695 -0.618998 0
M  V30 1599 H 149.852 0.189944 -2.0452 0
M  V30 1600 H 148.082 2.61491 -2.84885 0
M  V30 1601 H 149.771 2.45195 -3.23472 0
M  V30 1602 H 150.537 0.540174 -4.81982 0
M  V30 1603 H 146.416 1.65246 -4.30366 0
M  V30 1604 H 149.96 -0.560213 -6.95347 0
M  V30 1605 H 145.857 0.558354 -6.43081 0
M  V30 1606 H 146.625 -0.58385 -8.16415 0
M  V30 1607 N 149.288 1.51039 0.449983 0
M  V30 1608 C 150.536 1.62759 1.19808 0
M  V30 1609 C 150.857 0.339981 1.92013 0
M  V30 1610 O 150.127 -0.643606 1.85026 0
M  V30 1611 H 148.707 0.599811 0.445237 0
M  V30 1612 H 151.369 1.87914 0.517138 0
M  V30 1613 H 150.465 2.44911 1.93455 0
M  V30 1614 N 150.766 -0.704594 1.40972 0
M  V30 1615 C 151.994 -1.49354 1.43182 0
M  V30 1616 C 152.409 -1.88768 0.0345508 0
M  V30 1617 O 151.766 -1.56184 -0.944081 0
M  V30 1618 C 151.817 -2.76187 2.33244 0
M  V30 1619 O 151.538 -2.38436 3.67532 0
M  V30 1620 C 153.039 -3.7 2.44162 0
M  V30 1621 H 150.259 -0.460559 0.487982 0
M  V30 1622 H 152.803 -0.868261 1.85153 0
M  V30 1623 H 150.958 -3.34974 1.94606 0
M  V30 1624 H 151.372 -3.20126 4.15475 0
M  V30 1625 H 152.846 -4.55803 3.11364 0
M  V30 1626 H 153.323 -4.13867 1.47006 0
M  V30 1627 H 153.929 -3.17121 2.83398 0
M  V30 1628 N 152.244 -1.26651 -0.937939 0
M  V30 1629 C 153.154 -1.10276 -2.07066 0
M  V30 1630 C 154.17 -0.0354197 -1.73964 0
M  V30 1631 O 155.346 -0.239816 -1.99967 0
M  V30 1632 C 152.411 -0.740887 -3.38691 0
M  V30 1633 C 151.472 -1.88799 -3.85556 0
M  V30 1634 C 150.705 -1.54329 -5.10899 0
M  V30 1635 O 150.928 -0.446494 -5.6865 0
M  V30 1636 O 149.862 -2.37911 -5.52885 0
M  V30 1637 H 153.688 -2.05309 -2.23789 0
M  V30 1638 H 151.273 -1.05743 -1.0554 0
M  V30 1639 H 153.155 -0.55195 -4.1777 0
M  V30 1640 H 151.83 0.180022 -3.23199 0
M  V30 1641 H 150.737 -2.13191 -3.07409 0
M  V30 1642 H 152.07 -2.78874 -4.05574 0
M  V30 1643 N 153.722 1.14298 -1.08507 0
M  V30 1644 C 155.138 1.37347 -0.812901 0
M  V30 1645 C 155.338 1.93052 0.577325 0
M  V30 1646 O 154.394 2.14389 1.33393 0
M  V30 1647 C 155.707 2.33359 -1.89642 0
M  V30 1648 C 157.255 2.46996 -1.92255 0
M  V30 1649 C 157.73 3.46309 -2.99724 0
M  V30 1650 N 159.221 3.53853 -2.98902 0
M  V30 1651 C 159.956 4.3055 -3.787 0
M  V30 1652 N 159.452 5.10482 -4.6838 0
M  V30 1653 N 161.245 4.25757 -3.66998 0
M  V30 1654 H 153.396 0.764867 -1.9815 0
M  V30 1655 H 155.659 0.398966 -0.859959 0
M  V30 1656 H 155.365 1.99565 -2.89597 0
M  V30 1657 H 155.239 3.33274 -1.76659 0
M  V30 1658 H 157.626 2.80081 -0.929445 0
M  V30 1659 H 157.707 1.47039 -2.09316 0
M  V30 1660 H 157.351 3.13957 -3.99241 0
M  V30 1661 H 157.281 4.46049 -2.79907 0
M  V30 1662 H 159.772 2.96812 -2.33904 0
M  V30 1663 H 160.085 5.66284 -5.25873 0
M  V30 1664 H 158.43 5.09747 -4.72422 0
M  V30 1665 H 161.621 3.62383 -2.96304 0
M  V30 1666 H 161.794 4.85279 -4.29427 0
M  V30 1667 N 155.201 0.870884 1.31352 0
M  V30 1668 C 156.133 0.28455 2.27427 0
M  V30 1669 C 157.146 -0.552927 1.53123 0
M  V30 1670 O 158.335 -0.374771 1.74521 0
M  V30 1671 C 155.435 -0.615164 3.3327 0
M  V30 1672 C 154.608 0.190079 4.36987 0
M  V30 1673 C 153.667 -0.637917 5.22319 0
M  V30 1674 O 152.693 -0.065626 5.69162 0
M  V30 1675 N 153.895 -1.94973 5.46778 0
M  V30 1676 H 156.66 1.11017 2.7838 0
M  V30 1677 H 154.221 0.732458 1.44384 0
M  V30 1678 H 156.213 -1.1748 3.87273 0
M  V30 1679 H 154.783 -1.34146 2.82354 0
M  V30 1680 H 154.003 0.931165 3.83044 0
M  V30 1681 H 155.291 0.742579 5.03352 0
M  V30 1682 H 154.689 -2.4378 5.10478 0
M  V30 1683 H 153.246 -2.45713 6.03712 0
M  V30 1684 N 156.679 -1.44442 0.630414 0
M  V30 1685 C 158.09 -1.85434 0.217063 0
M  V30 1686 C 158.441 -1.52748 -1.23136 0
M  V30 1687 O 157.566 -0.965205 -1.93682 0
M  V30 1688 C 158.161 -3.36581 0.387168 0
M  V30 1689 C 156.72 -3.76389 0.0283297 0
M  V30 1690 C 155.867 -2.68296 0.700889 0
M  V30 1691 H 158.818 -1.34919 0.83562 0
M  V30 1692 H 158.839 -3.78657 -0.374086 0
M  V30 1693 H 158.351 -3.60339 1.44144 0
M  V30 1694 H 156.452 -3.58246 -1.02423 0
M  V30 1695 H 156.565 -4.77095 0.437892 0
M  V30 1696 H 154.929 -2.54335 0.136267 0
M  V30 1697 H 155.712 -2.94887 1.75774 0
M  V30 1698 N 158.157 -0.370918 -1.53173 0
M  V30 1699 C 159.573 -0.0200818 -1.59587 0
M  V30 1700 C 159.773 1.46279 -1.38581 0
M  V30 1701 O 158.829 2.22506 -1.19363 0
M  V30 1702 C 160.142 -0.4808 -2.96831 0
M  V30 1703 C 161.69 -0.435477 -3.09956 0
M  V30 1704 C 162.165 -0.872092 -4.4962 0
M  V30 1705 N 163.656 -0.827364 -4.55751 0
M  V30 1706 C 164.391 -1.13683 -5.62018 0
M  V30 1707 N 163.887 -1.51584 -6.76014 0
M  V30 1708 N 165.68 -1.05927 -5.52029 0
M  V30 1709 H 157.831 -1.33652 -1.65079 0
M  V30 1710 H 160.094 -0.546634 -0.774529 0
M  V30 1711 H 159.8 -1.51577 -3.1736 0
M  V30 1712 H 159.674 0.129796 -3.76977 0
M  V30 1713 H 162.061 0.590371 -2.89134 0
M  V30 1714 H 162.142 -1.08164 -2.31806 0
M  V30 1715 H 161.786 -1.89608 -4.71181 0
M  V30 1716 H 161.716 -0.203127 -5.26208 0
M  V30 1717 H 164.207 -0.548216 -3.73902 0
M  V30 1718 H 164.52 -1.73609 -7.53047 0
M  V30 1719 H 162.865 -1.55454 -6.77391 0
M  V30 1720 H 166.056 -0.762321 -4.61851 0
M  V30 1721 H 166.229 -1.30378 -6.34749 0
M  V30 1722 N 159.635 1.57281 -0.100228 0
M  V30 1723 C 160.863 1.98879 0.570509 0
M  V30 1724 C 161.278 0.979476 1.61405 0
M  V30 1725 O 160.635 -0.0302288 1.82475 0
M  V30 1726 C 160.686 3.4052 1.2136 0
M  V30 1727 O 160.407 4.37588 0.211786 0
M  V30 1728 C 161.908 3.97149 1.96945 0
M  V30 1729 H 159.128 0.653428 0.152555 0
M  V30 1730 H 161.672 2.03697 -0.18103 0
M  V30 1731 H 159.827 3.367 1.91603 0
M  V30 1732 H 160.241 5.20118 0.676607 0
M  V30 1733 H 161.715 4.98393 2.37294 0
M  V30 1734 H 162.192 3.3525 2.83733 0
M  V30 1735 H 162.798 4.04458 1.31506 0
M  V30 1736 N 161.113 -0.173488 1.56642 0
M  V30 1737 C 162.063 -1.21941 1.92651 0
M  V30 1738 C 163.047 -1.39912 0.794577 0
M  V30 1739 O 164.239 -1.41919 1.05773 0
M  V30 1740 C 161.368 -2.55935 2.28806 0
M  V30 1741 C 160.454 -2.41667 3.48508 0
M  V30 1742 N 160.845 -1.9711 4.65813 0
M  V30 1743 C 159.143 -2.72499 3.53072 0
M  V30 1744 C 159.844 -1.95253 5.47952 0
M  V30 1745 N 158.82 -2.37575 4.88937 0
M  V30 1746 H 162.622 -0.866581 2.80834 0
M  V30 1747 H 160.136 -0.381776 1.57849 0
M  V30 1748 H 162.133 -3.31511 2.52797 0
M  V30 1749 H 160.793 -2.92022 1.41961 0
M  V30 1750 H 161.804 -1.67481 4.90072 0
M  V30 1751 H 158.481 -3.12639 2.767 0
M  V30 1752 H 159.871 -1.6252 6.51948 0
M  V30 1753 N 162.591 -1.51276 -0.441967 0
M  V30 1754 C 163.821 -1.67273 -1.21257 0
M  V30 1755 C 164.229 -0.367624 -1.85594 0
M  V30 1756 O 163.572 0.663349 -1.71305 0
M  V30 1757 C 163.634 -2.72807 -2.34129 0
M  V30 1758 C 163.298 -4.1554 -1.90198 0
M  V30 1759 C 164.295 -5.00471 -1.40801 0
M  V30 1760 C 161.98 -4.61616 -1.9803 0
M  V30 1761 C 163.974 -6.29536 -0.998174 0
M  V30 1762 C 161.661 -5.90679 -1.56658 0
M  V30 1763 C 162.659 -6.74466 -1.07633 0
M  V30 1764 O 162.347 -8.01116 -0.668459 0
M  V30 1765 H 162.079 -0.564614 -0.371734 0
M  V30 1766 H 164.633 -1.9843 -0.530521 0
M  V30 1767 H 162.863 -2.36954 -3.05597 0
M  V30 1768 H 164.552 -2.77729 -2.96009 0
M  V30 1769 H 165.318 -4.66079 -1.34148 0
M  V30 1770 H 161.197 -3.96526 -2.35135 0
M  V30 1771 H 164.741 -6.94885 -0.61482 0
M  V30 1772 H 160.638 -6.24586 -1.62979 0
M  V30 1773 H 161.406 -8.14633 -0.794722 0
M  V30 1774 N 164.069 0.697108 -1.41344 0
M  V30 1775 C 165.299 1.48377 -1.43763 0
M  V30 1776 C 165.707 1.89156 -0.0408726 0
M  V30 1777 O 165.05 1.57239 0.949812 0
M  V30 1778 C 165.112 2.7781 -2.2817 0
M  V30 1779 C 164.776 2.59244 -3.76353 0
M  V30 1780 C 165.773 2.25292 -4.68551 0
M  V30 1781 C 163.458 2.74933 -4.20378 0
M  V30 1782 C 165.452 2.07264 -6.02761 0
M  V30 1783 C 163.139 2.56521 -5.54653 0
M  V30 1784 C 164.137 2.22737 -6.4566 0
M  V30 1785 O 163.825 2.04485 -7.77458 0
M  V30 1786 H 163.557 0.463842 -0.491759 0
M  V30 1787 H 166.111 0.865934 -1.86255 0
M  V30 1788 H 164.341 3.41995 -1.8049 0
M  V30 1789 H 166.03 3.39608 -2.22309 0
M  V30 1790 H 166.796 2.12787 -4.35829 0
M  V30 1791 H 162.675 3.00213 -3.49848 0
M  V30 1792 H 166.219 1.80817 -6.73759 0
M  V30 1793 H 162.116 2.68616 -5.86955 0
M  V30 1794 H 162.884 2.1926 -7.88586 0
M  V30 1795 N 165.547 1.27147 0.931209 0
M  V30 1796 C 166.51 1.09615 2.01289 0
M  V30 1797 C 167.51 0.0412581 1.60747 0
M  V30 1798 O 168.7 0.285545 1.71844 0
M  V30 1799 C 165.832 0.669447 3.34262 0
M  V30 1800 H 167.025 2.05662 2.18273 0
M  V30 1801 H 164.578 1.09885 1.11153 0
M  V30 1802 H 165.313 -0.292572 3.22978 0
M  V30 1803 H 165.098 1.43127 3.65044 0
M  V30 1804 H 166.588 0.568921 4.13706 0
M  V30 1805 N 167.025 -1.13721 1.09112 0
M  V30 1806 C 168.271 -1.85198 0.826414 0
M  V30 1807 C 168.604 -1.83129 -0.646319 0
M  V30 1808 O 167.879 -1.2671 -1.47563 0
M  V30 1809 C 168.162 -3.33507 1.35812 0
M  V30 1810 C 168.015 -3.44108 2.89672 0
M  V30 1811 C 169.334 -4.28838 0.989256 0
M  V30 1812 H 166.453 -0.67243 0.301675 0
M  V30 1813 H 169.095 -1.33499 1.35197 0
M  V30 1814 H 167.245 -3.77666 0.911082 0
M  V30 1815 H 168.917 -3.08684 3.428 0
M  V30 1816 H 167.16 -2.85087 3.26967 0
M  V30 1817 H 167.831 -4.48388 3.21951 0
M  V30 1818 H 170.307 -3.92734 1.37475 0
M  V30 1819 H 169.183 -5.31051 1.38838 0
M  V30 1820 H 169.444 -4.4198 -0.102924 0
M  V30 1821 N 168.503 -0.877838 -1.30888 0
M  V30 1822 C 169.466 -0.344265 -2.266 0
M  V30 1823 C 170.466 0.50922 -1.52524 0
M  V30 1824 O 171.656 0.317398 -1.71284 0
M  V30 1825 C 168.788 0.510198 -3.37061 0
M  V30 1826 H 169.981 -1.1893 -2.7531 0
M  V30 1827 H 167.534 -0.654088 -1.41956 0
M  V30 1828 H 168.269 1.37612 -2.93655 0
M  V30 1829 H 168.054 -0.101047 -3.9197 0
M  V30 1830 H 169.544 0.875537 -4.08319 0
M  V30 1831 N 169.982 1.44106 -0.638065 0
M  V30 1832 C 171.228 2.02277 -0.145546 0
M  V30 1833 C 171.561 1.50125 1.23191 0
M  V30 1834 O 170.836 0.688133 1.8192 0
M  V30 1835 C 171.119 3.59829 -0.139791 0
M  V30 1836 C 170.972 4.22247 -1.55008 0
M  V30 1837 C 172.291 4.36873 0.531966 0
M  V30 1838 H 169.41 0.734992 -0.0543632 0
M  V30 1839 H 172.052 1.71592 -0.815863 0
M  V30 1840 H 170.202 3.86102 0.431007 0
M  V30 1841 H 171.874 4.07057 -2.1703 0
M  V30 1842 H 170.117 3.79476 -2.10191 0
M  V30 1843 H 170.788 5.31284 -1.49804 0
M  V30 1844 H 173.264 4.16074 0.0464781 0
M  V30 1845 H 172.14 5.4657 0.505206 0
M  V30 1846 H 172.401 4.11995 1.60352 0
M  V30 1847 N 171.46 0.379036 1.52974 0
M  V30 1848 C 172.706 -0.206727 2.01744 0
M  V30 1849 C 173.039 -1.47314 1.26539 0
M  V30 1850 O 172.314 -1.91084 0.362903 0
M  V30 1851 C 172.597 -0.485066 3.56818 0
M  V30 1852 C 172.45 0.795919 4.42702 0
M  V30 1853 C 173.769 -1.28003 4.21074 0
M  V30 1854 H 170.888 -0.0736607 0.73331 0
M  V30 1855 H 173.53 0.506581 1.83122 0
M  V30 1856 H 171.68 -1.09272 3.72816 0
M  V30 1857 H 173.352 1.43307 4.38476 0
M  V30 1858 H 171.595 1.41344 4.10127 0
M  V30 1859 H 172.266 0.555947 5.49193 0
M  V30 1860 H 174.742 -0.765867 4.08991 0
M  V30 1861 H 173.618 -1.44352 5.29579 0
M  V30 1862 H 173.879 -2.29236 3.78026 0
M  V30 1863 N 172.938 -1.57226 0.108567 0
M  V30 1864 C 173.885 -2.14756 -0.845481 0
M  V30 1865 C 174.855 -1.06971 -1.27068 0
M  V30 1866 O 176.04 -1.34827 -1.35005 0
M  V30 1867 C 173.18 -2.74298 -2.09415 0
M  V30 1868 C 172.293 -3.96358 -1.71826 0
M  V30 1869 C 171.428 -4.44021 -2.9158 0
M  V30 1870 C 170.467 -5.58637 -2.50181 0
M  V30 1871 N 169.604 -6.01091 -3.62814 0
M  V30 1872 H 174.444 -2.95961 -0.348035 0
M  V30 1873 H 171.981 -1.46226 -0.160106 0
M  V30 1874 H 173.939 -3.06945 -2.82561 0
M  V30 1875 H 172.569 -1.95801 -2.56636 0
M  V30 1876 H 171.621 -3.69939 -0.885947 0
M  V30 1877 H 172.933 -4.79504 -1.37394 0
M  V30 1878 H 172.087 -4.78522 -3.72963 0
M  V30 1879 H 170.826 -3.59803 -3.29231 0
M  V30 1880 H 169.831 -5.23751 -1.67228 0
M  V30 1881 H 171.056 -6.44613 -2.13659 0
M  V30 1882 H 169.002 -5.19817 -4.00158 0
M  V30 1883 H 168.919 -6.79066 -3.32273 0
M  V30 1884 H 170.187 -6.40227 -4.44668 0
M  V30 1885 N 174.416 0.165178 -1.56732 0
M  V30 1886 C 175.363 1.2044 -1.96883 0
M  V30 1887 C 176.333 1.43664 -0.833657 0
M  V30 1888 O 177.518 1.56302 -1.09427 0
M  V30 1889 C 174.658 2.53727 -2.33916 0
M  V30 1890 C 173.771 2.3783 -3.6064 0
M  V30 1891 C 172.906 3.64026 -3.86857 0
M  V30 1892 C 171.945 3.43088 -5.06909 0
M  V30 1893 N 171.082 4.61369 -5.29229 0
M  V30 1894 H 175.922 0.854996 -2.85471 0
M  V30 1895 H 173.459 0.41076 -1.41249 0
M  V30 1896 H 175.417 3.31419 -2.53411 0
M  V30 1897 H 174.047 2.8665 -1.48431 0
M  V30 1898 H 173.099 1.51282 -3.49024 0
M  V30 1899 H 174.411 2.18308 -4.4849 0
M  V30 1900 H 173.565 4.50152 -4.06753 0
M  V30 1901 H 172.304 3.86533 -2.97394 0
M  V30 1902 H 171.309 2.55349 -4.86906 0
M  V30 1903 H 172.534 3.21997 -5.97909 0
M  V30 1904 H 170.48 4.84084 -4.42718 0
M  V30 1905 H 170.397 4.44783 -6.11313 0
M  V30 1906 H 171.665 5.48761 -5.53608 0
M  V30 1907 N 175.894 1.51508 0.433938 0
M  V30 1908 C 177.142 1.6402 1.18075 0
M  V30 1909 C 177.463 0.360328 1.91642 0
M  V30 1910 O 176.733 -0.623945 1.85698 0
M  V30 1911 H 175.313 0.6045 0.43885 0
M  V30 1912 H 177.975 1.88452 0.497178 0
M  V30 1913 H 177.071 2.46949 1.90847 0
M  V30 1914 N 177.372 -0.689602 1.41712 0
M  V30 1915 C 178.62 -1.4468 1.4111 0
M  V30 1916 C 178.941 -1.94986 0.0232196 0
M  V30 1917 O 178.211 -1.72097 -0.935913 0
M  V30 1918 H 176.791 -0.536847 0.519427 0
M  V30 1919 H 179.453 -0.815825 1.77004 0
M  V30 1920 H 178.549 -2.30706 2.10193 0
M  V30 1921 N 178.85 -1.27639 -0.924453 0
M  V30 1922 C 180.075 -1.17101 -1.71179 0
M  V30 1923 C 180.5 0.268134 -1.86179 0
M  V30 1924 O 179.858 1.19415 -1.36418 0
M  V30 1925 C 179.906 -1.86313 -3.08739 0
M  V30 1926 O 179.01 -1.16331 -3.95652 0
M  V30 1927 H 178.351 -0.407091 -0.524569 0
M  V30 1928 H 180.881 -1.68767 -1.15666 0
M  V30 1929 H 180.891 -1.938 -3.59034 0
M  V30 1930 H 179.566 -2.91001 -2.97138 0
M  V30 1931 H 178.143 -1.16935 -3.54091 0
M  V30 1932 N 180.328 1.1314 -1.09713 0
M  V30 1933 C 181.575 1.84484 -0.834987 0
M  V30 1934 C 181.903 1.83689 0.639418 0
M  V30 1935 O 181.158 1.2724 1.4869 0
M  V30 1936 C 181.457 3.32167 -1.3191 0
M  V30 1937 C 181.123 3.53139 -2.80363 0
M  V30 1938 C 179.785 3.58571 -3.20905 0
M  V30 1939 C 182.137 3.60866 -3.76065 0
M  V30 1940 C 179.465 3.69267 -4.55916 0
M  V30 1941 C 181.817 3.73089 -5.10869 0
M  V30 1942 C 180.481 3.76775 -5.50996 0
M  V30 1943 H 179.751 0.675073 -0.305544 0
M  V30 1944 H 182.398 1.33554 -1.37243 0
M  V30 1945 H 180.703 3.85469 -0.701517 0
M  V30 1946 H 182.4 3.85821 -1.09284 0
M  V30 1947 H 178.99 3.49569 -2.47991 0
M  V30 1948 H 183.174 3.55946 -3.45855 0
M  V30 1949 H 178.43 3.70388 -4.86438 0
M  V30 1950 H 182.604 3.78011 -5.84877 0
M  V30 1951 H 180.231 3.84815 -6.55608 0
M  V30 1952 N 181.806 0.884767 1.30421 0
M  V30 1953 C 182.738 0.308655 2.27112 0
M  V30 1954 C 183.751 -0.536655 1.53701 0
M  V30 1955 O 184.94 -0.35624 1.74909 0
M  V30 1956 C 182.04 -0.579782 3.33904 0
M  V30 1957 C 181.213 0.236417 4.36761 0
M  V30 1958 C 180.272 -0.582482 5.22966 0
M  V30 1959 O 179.298 -0.00525502 5.692 0
M  V30 1960 N 180.5 -1.89163 5.48815 0
M  V30 1961 H 183.265 1.13964 2.77186 0
M  V30 1962 H 180.826 0.747731 1.43599 0
M  V30 1963 H 182.818 -1.13366 3.88497 0
M  V30 1964 H 181.388 -1.31144 2.83761 0
M  V30 1965 H 180.608 0.97174 3.82035 0
M  V30 1966 H 181.896 0.795924 5.02536 0
M  V30 1967 H 181.294 -2.38352 5.13035 0
M  V30 1968 H 179.851 -2.39296 6.06284 0
M  V30 1969 N 183.284 -1.43765 0.645699 0
M  V30 1970 C 184.214 -2.33471 -0.0370477 0
M  V30 1971 C 185.195 -1.49042 -0.819779 0
M  V30 1972 O 186.38 -1.77726 -0.782758 0
M  V30 1973 C 183.51 -3.32311 -1.0093 0
M  V30 1974 C 182.464 -4.2667 -0.337201 0
M  V30 1975 C 181.79 -5.1549 -1.42037 0
M  V30 1976 C 183.09 -5.16657 0.765706 0
M  V30 1977 H 184.784 -2.90809 0.712069 0
M  V30 1978 H 182.33 -1.39834 0.343876 0
M  V30 1979 H 184.283 -3.9396 -1.49578 0
M  V30 1980 H 183.007 -2.73213 -1.78948 0
M  V30 1981 H 181.666 -3.66374 0.128771 0
M  V30 1982 H 181.314 -4.52735 -2.1918 0
M  V30 1983 H 181.014 -5.79438 -0.975966 0
M  V30 1984 H 182.538 -5.80012 -1.90838 0
M  V30 1985 H 183.952 -5.72158 0.361702 0
M  V30 1986 H 182.349 -5.89286 1.13413 0
M  V30 1987 H 183.419 -4.56796 1.62683 0
M  V30 1988 N 184.763 -0.387143 -1.52771 0
M  V30 1989 C 185.711 0.463953 -2.27926 0
M  V30 1990 C 186.705 1.06493 -1.31741 0
M  V30 1991 O 187.911 1.00565 -1.49287 0
M  V30 1992 H 184.286 0.16837 -0.732909 0
M  V30 1993 H 186.257 -0.19141 -2.97785 0
M  V30 1994 C 185.006 1.5803 -3.09713 0
M  V30 1995 H 184.329 1.12718 -3.83581 0
M  V30 1996 H 185.769 2.15008 -3.65442 0
M  V30 1997 C 184.228 2.53509 -2.2189 0
M  V30 1998 O 184.758 3.56863 -1.84422 0
M  V30 1999 N 182.964 2.23199 -1.86093 0
M  V30 2000 H 182.511 1.39185 -2.16761 0
M  V30 2001 H 182.469 2.87333 -1.27621 0
M  V30 2002 N 186.241 1.57166 -0.116904 0
M  V30 2003 C 187.151 2.18745 0.847812 0
M  V30 2004 C 188.167 1.163 1.29423 0
M  V30 2005 O 189.343 1.48761 1.35765 0
M  V30 2006 C 186.408 2.77307 2.0809 0
M  V30 2007 C 185.469 3.94781 1.68661 0
M  V30 2008 C 184.702 4.50541 2.86091 0
M  V30 2009 O 184.925 4.05202 4.01456 0
M  V30 2010 O 183.859 5.41256 2.63298 0
M  V30 2011 H 187.685 3.01632 0.353778 0
M  V30 2012 H 185.27 1.49005 0.108599 0
M  V30 2013 H 187.152 3.14647 2.80313 0
M  V30 2014 H 185.827 1.97452 2.56504 0
M  V30 2015 H 184.734 3.62214 0.935518 0
M  V30 2016 H 186.067 4.76065 1.24991 0
M  V30 2017 N 187.719 -0.156864 1.56817 0
M  V30 2018 C 188.649 -1.19589 2.00551 0
M  V30 2019 C 189.63 -1.4536 0.883426 0
M  V30 2020 O 190.815 -1.56449 1.15054 0
M  V30 2021 C 187.945 -2.53143 2.37773 0
M  V30 2022 C 186.899 -2.41913 3.53075 0
M  V30 2023 C 186.225 -3.80088 3.76081 0
M  V30 2024 C 187.525 -1.91157 4.86062 0
M  V30 2025 H 189.219 -0.832293 2.87599 0
M  V30 2026 H 186.765 -0.398918 1.38364 0
M  V30 2027 H 188.718 -3.26047 2.66967 0
M  V30 2028 H 187.442 -2.91319 1.4765 0
M  V30 2029 H 186.101 -1.71462 3.24031 0
M  V30 2030 H 185.749 -4.15683 2.83225 0
M  V30 2031 H 185.449 -3.73439 4.53671 0
M  V30 2032 H 186.973 -4.54556 4.0769 0
M  V30 2033 H 188.387 -2.53846 5.14038 0
M  V30 2034 H 186.784 -1.95422 5.67389 0
M  V30 2035 H 187.854 -0.866673 4.77092 0
M  V30 2036 N 189.197 -1.51736 -0.425897 0
M  V30 2037 C 190.129 -1.70083 -1.53638 0
M  V30 2038 C 191.142 -0.581349 -1.52066 0
M  V30 2039 O 192.331 -0.856017 -1.56635 0
M  V30 2040 C 189.431 -1.71078 -2.9255 0
M  V30 2041 C 188.604 -2.99795 -3.185 0
M  V30 2042 C 187.663 -2.92825 -4.37196 0
M  V30 2043 O 186.689 -3.66756 -4.35291 0
M  V30 2044 N 187.891 -2.0946 -5.41393 0
M  V30 2045 H 190.656 -2.65882 -1.383 0
M  V30 2046 H 188.217 -1.49765 -0.614988 0
M  V30 2047 H 190.209 -1.63969 -3.69995 0
M  V30 2048 H 188.779 -0.828242 -3.01428 0
M  V30 2049 H 187.999 -3.20684 -2.2925 0
M  V30 2050 H 189.287 -3.84977 -3.32671 0
M  V30 2051 H 188.685 -1.48792 -5.45781 0
M  V30 2052 H 187.242 -2.08221 -6.17647 0
M  V30 2053 N 190.675 0.682077 -1.42076 0
M  V30 2054 C 191.923 1.4393 -1.41876 0
M  V30 2055 C 192.244 1.94971 -0.0335599 0
M  V30 2056 O 191.514 1.72591 0.926773 0
M  V30 2057 H 190.094 0.534085 -0.522267 0
M  V30 2058 H 192.756 0.806427 -1.77434 0
M  V30 2059 H 191.852 2.29588 -2.11414 0
M  V30 2060 N 192.153 1.28127 0.917671 0
M  V30 2061 C 193.083 1.14248 2.03641 0
M  V30 2062 C 194.064 0.0412748 1.7005 0
M  V30 2063 O 195.249 0.217566 1.92977 0
M  V30 2064 C 192.379 0.799431 3.37974 0
M  V30 2065 C 191.333 1.85497 3.85713 0
M  V30 2066 C 190.659 1.36565 5.16966 0
M  V30 2067 C 191.959 3.26085 4.08002 0
M  V30 2068 H 193.653 2.07835 2.15511 0
M  V30 2069 H 191.199 1.00064 1.03553 0
M  V30 2070 H 193.152 0.689114 4.15727 0
M  V30 2071 H 191.876 -0.172145 3.26146 0
M  V30 2072 H 190.535 1.95437 3.10161 0
M  V30 2073 H 190.183 0.383253 5.01538 0
M  V30 2074 H 189.883 2.07143 5.49878 0
M  V30 2075 H 191.407 1.26848 5.97279 0
M  V30 2076 H 192.821 3.19089 4.76293 0
M  V30 2077 H 191.218 3.94462 4.52238 0
M  V30 2078 H 192.288 3.70394 3.12948 0
M  V30 2079 N 193.631 -1.12557 1.10312 0
M  V30 2080 C 194.578 -2.18247 0.750781 0
M  V30 2081 C 195.548 -1.63853 -0.272293 0
M  V30 2082 O 196.733 -1.90195 -0.151862 0
M  V30 2083 C 193.873 -3.44591 0.187379 0
M  V30 2084 C 192.986 -4.13046 1.2656 0
M  V30 2085 C 192.121 -5.27034 0.663978 0
M  V30 2086 C 191.16 -5.87353 1.72287 0
M  V30 2087 N 190.297 -6.92757 1.1416 0
M  V30 2088 H 195.137 -2.47732 1.65628 0
M  V30 2089 H 192.674 -1.21629 0.827337 0
M  V30 2090 H 194.632 -4.16904 -0.157148 0
M  V30 2091 H 193.262 -3.15527 -0.681355 0
M  V30 2092 H 192.314 -3.38924 1.72727 0
M  V30 2093 H 193.626 -4.53947 2.06721 0
M  V30 2094 H 192.78 -6.06104 0.268824 0
M  V30 2095 H 191.519 -4.87407 -0.169082 0
M  V30 2096 H 190.524 -5.06971 2.12746 0
M  V30 2097 H 191.749 -6.29051 2.55875 0
M  V30 2098 H 189.695 -6.5517 0.329984 0
M  V30 2099 H 189.612 -7.3225 1.88007 0
M  V30 2100 H 190.88 -7.75658 0.772956 0
M  V30 2101 N 195.109 -0.891671 -1.2995 0
M  V30 2102 C 196.334 -0.527932 -2.00568 0
M  V30 2103 C 196.759 0.877969 -1.66353 0
M  V30 2104 O 196.117 1.58301 -0.883762 0
M  V30 2105 C 196.165 -0.717745 -3.53385 0
M  V30 2106 O 195.269 0.233376 -4.11739 0
M  V30 2107 H 194.61 -0.20722 -0.630837 0
M  V30 2108 H 197.14 -1.20105 -1.65638 0
M  V30 2109 H 197.15 -0.619307 -4.03272 0
M  V30 2110 H 195.825 -1.74276 -3.77625 0
M  V30 2111 H 194.402 0.0880706 -3.72796 0
M  V30 2112 N 196.587 1.43421 -0.653314 0
M  V30 2113 C 197.827 2.03689 -0.170346 0
M  V30 2114 C 198.191 1.50427 1.19314 0
M  V30 2115 O 199.392 2.0234 1.76952 0
M  V30 2116 C 197.663 3.56946 -0.180183 0
M  V30 2117 S 199.222 4.38171 0.234925 0
M  V30 2118 H 196.04 0.707345 -0.0719976 0
M  V30 2119 H 198.642 1.75486 -0.86167 0
M  V30 2120 H 197.346 3.93212 -1.17526 0
M  V30 2121 H 196.877 3.89791 0.531675 0
M  V30 2122 H 198.892 4.73808 1.47378 0
M  V30 2123 N 198.065 0.39524 1.52563 0
M  V30 2124 C 199.015 -0.4541 2.23432 0
M  V30 2125 C 199.999 -1.02482 1.24042 0
M  V30 2126 O 201.191 -0.949938 1.49349 0
M  V30 2127 C 198.32 -1.57769 3.049 0
M  V30 2128 C 197.406 -1.01842 4.1169 0
M  V30 2129 N 197.797 -0.184613 5.05463 0
M  V30 2130 C 196.095 -1.29033 4.26927 0
M  V30 2131 C 196.796 0.125013 5.81566 0
M  V30 2132 N 195.772 -0.480498 5.41472 0
M  V30 2133 H 199.574 0.189413 2.93289 0
M  V30 2134 H 197.088 0.204877 1.61102 0
M  V30 2135 H 199.085 -2.19862 3.54212 0
M  V30 2136 H 197.745 -2.22397 2.36579 0
M  V30 2137 H 198.756 0.178602 5.17592 0
M  V30 2138 H 195.433 -1.93721 3.69836 0
M  V30 2139 H 196.823 0.800962 6.67109 0
M  V30 2140 N 199.544 -1.57102 0.125237 0
M  V30 2141 C 200.772 -1.99761 -0.538797 0
M  V30 2142 C 201.187 -1.00503 -1.59827 0
M  V30 2143 O 200.544 0.00119474 -1.825 0
M  V30 2144 C 200.595 -3.42408 -1.15927 0
M  V30 2145 O 200.316 -4.37869 -0.142143 0
M  V30 2146 C 201.817 -4.00232 -1.90602 0
M  V30 2147 H 199.037 -0.655772 -0.14214 0
M  V30 2148 H 201.581 -2.03383 0.213413 0
M  V30 2149 H 199.736 -3.39706 -1.86223 0
M  V30 2150 H 200.15 -5.21128 -0.593775 0
M  V30 2151 H 201.624 -5.02105 -2.29335 0
M  V30 2152 H 202.101 -3.39721 -2.78363 0
M  V30 2153 H 202.707 -4.06499 -1.25055 0
M  V30 2154 N 201.022 0.148545 -1.56898 0
M  V30 2155 C 202.27 0.859717 -1.82902 0
M  V30 2156 C 202.591 1.81775 -0.70588 0
M  V30 2157 O 201.861 1.93994 0.272586 0
M  V30 2158 H 200.441 0.320469 -0.674766 0
M  V30 2159 H 203.103 0.142918 -1.94375 0
M  V30 2160 H 202.199 1.4229 -2.77777 0
M  V30 2161 N 202.5 1.5196 0.417844 0
M  V30 2162 C 203.43 1.77634 1.51554 0
M  V30 2163 C 204.411 0.626918 1.58126 0
M  V30 2164 O 205.596 0.871632 1.7354 0
M  V30 2165 C 202.726 1.91911 2.8946 0
M  V30 2166 C 201.68 3.07463 2.97743 0
M  V30 2167 C 201.006 3.06951 4.37819 0
M  V30 2168 C 202.306 4.47082 2.70027 0
M  V30 2169 H 204 2.6955 1.3032 0
M  V30 2170 H 201.546 1.29706 0.625492 0
M  V30 2171 H 203.499 2.08455 3.6623 0
M  V30 2172 H 202.223 0.966598 3.11969 0
M  V30 2173 H 200.882 2.90656 2.23416 0
M  V30 2174 H 200.53 2.09438 4.57323 0
M  V30 2175 H 200.23 3.84556 4.44286 0
M  V30 2176 H 201.754 3.25613 5.16535 0
M  V30 2177 H 203.168 4.6414 3.36522 0
M  V30 2178 H 201.565 5.2654 2.87881 0
M  V30 2179 H 202.635 4.55777 1.65514 0
M  V30 2180 N 203.978 -0.674533 1.42435 0
M  V30 2181 C 205.394 -0.98769 1.25367 0
M  V30 2182 C 205.594 -2.00879 0.158044 0
M  V30 2183 O 204.65 -2.48075 -0.470633 0
M  V30 2184 C 205.963 -1.49224 2.6106 0
M  V30 2185 C 207.511 -1.61 2.68417 0
M  V30 2186 C 207.986 -2.14852 4.04478 0
M  V30 2187 N 209.477 -2.22185 4.06434 0
M  V30 2188 C 210.212 -2.64928 5.08528 0
M  V30 2189 N 209.708 -3.07121 6.21006 0
M  V30 2190 N 211.501 -2.64679 4.95885 0
M  V30 2191 H 203.652 0.00152503 2.124 0
M  V30 2192 H 205.915 -0.0618434 0.945981 0
M  V30 2193 H 205.621 -0.816453 3.42092 0
M  V30 2194 H 205.495 -2.47094 2.84999 0
M  V30 2195 H 207.882 -2.27686 1.87732 0
M  V30 2196 H 207.963 -0.616195 2.48267 0
M  V30 2197 H 207.607 -1.48775 4.85622 0
M  V30 2198 H 207.537 -3.15024 4.2198 0
M  V30 2199 H 210.028 -1.92435 3.25234 0
M  V30 2200 H 210.341 -3.38423 6.94759 0
M  V30 2201 H 208.686 -3.04978 6.24511 0
M  V30 2202 H 211.877 -2.31078 4.07088 0
M  V30 2203 H 212.05 -2.9767 5.75584 0
M  V30 2204 N 205.456 -1.28612 -0.910864 0
M  V30 2205 C 206.872 -1.06381 -1.18976 0
M  V30 2206 C 207.072 0.191998 -2.00583 0
M  V30 2207 O 206.128 0.892869 -2.36187 0
M  V30 2208 C 207.441 -2.31295 -1.92154 0
M  V30 2209 C 208.989 -2.36503 -2.05025 0
M  V30 2210 C 209.464 -3.61191 -2.81612 0
M  V30 2211 N 210.955 -3.61847 -2.89172 0
M  V30 2212 C 211.69 -4.55004 -3.4894 0
M  V30 2213 N 211.186 -5.58482 -4.09963 0
M  V30 2214 N 212.979 -4.42594 -3.46506 0
M  V30 2215 H 205.13 -2.09221 -0.366094 0
M  V30 2216 H 207.393 -0.921003 -0.224629 0
M  V30 2217 H 207.099 -3.228 -1.39618 0
M  V30 2218 H 206.973 -2.37934 -2.9269 0
M  V30 2219 H 209.36 -1.45494 -2.5674 0
M  V30 2220 H 209.441 -2.33857 -1.03657 0
M  V30 2221 H 209.085 -4.52545 -2.30576 0
M  V30 2222 H 209.015 -3.61092 -3.83302 0
M  V30 2223 H 211.506 -2.87022 -2.45819 0
M  V30 2224 H 211.819 -6.25704 -4.53557 0
M  V30 2225 H 210.164 -5.62305 -4.08459 0
M  V30 2226 H 213.355 -3.60953 -2.98045 0
M  V30 2227 H 213.528 -5.15381 -3.92793 0
M  V30 2228 N 206.934 1.1197 -1.10907 0
M  V30 2229 C 208.162 1.87402 -0.876824 0
M  V30 2230 C 208.577 1.79894 0.573025 0
M  V30 2231 O 207.934 1.17629 1.39534 0
M  V30 2232 C 207.985 3.36428 -1.32282 0
M  V30 2233 O 207.706 3.43765 -2.71582 0
M  V30 2234 C 209.207 4.28783 -1.12518 0
M  V30 2235 H 206.427 0.592793 -0.314384 0
M  V30 2236 H 208.971 1.41649 -1.47499 0
M  V30 2237 H 207.126 3.79706 -0.768229 0
M  V30 2238 H 207.54 4.3652 -2.90776 0
M  V30 2239 H 209.014 5.31613 -1.48633 0
M  V30 2240 H 209.491 4.39153 -0.0642394 0
M  V30 2241 H 210.097 3.91291 -1.66648 0
M  V30 2242 N 208.412 0.89855 1.29475 0
M  V30 2243 C 209.375 0.380272 2.26023 0
M  V30 2244 C 210.375 -0.484891 1.53315 0
M  V30 2245 O 211.565 -0.290108 1.71767 0
M  V30 2246 C 208.697 -0.45651 3.3783 0
M  V30 2247 H 209.89 1.23295 2.73383 0
M  V30 2248 H 207.443 0.676589 1.40897 0
M  V30 2249 H 208.178 -1.32922 2.95808 0
M  V30 2250 H 207.963 0.163393 3.91759 0
M  V30 2251 H 209.453 -0.810466 4.0966 0
M  V30 2252 N 209.89 -1.43072 0.660911 0
M  V30 2253 C 211.138 -2.01323 0.177094 0
M  V30 2254 C 211.459 -1.5245 -1.2159 0
M  V30 2255 O 210.729 -0.740322 -1.81373 0
M  V30 2256 H 209.309 -0.744382 0.0624804 0
M  V30 2257 H 211.971 -1.75179 0.854305 0
M  V30 2258 H 211.067 -3.11649 0.167641 0
M  V30 2259 N 211.368 -0.403325 -1.52352 0
M  V30 2260 C 212.614 0.167015 -2.02713 0
M  V30 2261 C 212.969 1.43296 -1.28391 0
M  V30 2262 O 212.262 1.87796 -0.379885 0
M  V30 2263 C 212.456 0.474665 -3.54234 0
M  V30 2264 C 212.285 -0.759909 -4.43233 0
M  V30 2265 C 211.055 -1.28338 -4.88731 0
M  V30 2266 C 213.253 -1.63634 -4.87574 0
M  V30 2267 N 211.235 -2.47404 -5.6184 0
M  V30 2268 C 212.606 -2.67329 -5.59406 0
M  V30 2269 C 214.661 -1.65478 -4.69597 0
M  V30 2270 C 213.364 -3.72773 -6.15169 0
M  V30 2271 C 215.39 -2.69837 -5.26253 0
M  V30 2272 C 214.752 -3.72253 -5.98002 0
M  V30 2273 H 210.851 0.0228343 -0.781667 0
M  V30 2274 H 213.435 -0.556368 -1.86581 0
M  V30 2275 H 211.606 1.16709 -3.7045 0
M  V30 2276 H 213.338 1.03338 -3.91284 0
M  V30 2277 H 210.093 -0.842273 -4.6605 0
M  V30 2278 H 210.517 -3.07688 -6.0304 0
M  V30 2279 H 215.159 -0.876389 -4.13617 0
M  V30 2280 H 212.877 -4.51471 -6.70223 0
M  V30 2281 H 216.463 -2.72164 -5.14216 0
M  V30 2282 H 215.343 -4.51679 -6.41058 0
M  V30 2283 N 212.846 1.57033 -0.133567 0
M  V30 2284 C 213.794 2.17348 0.828412 0
M  V30 2285 C 214.788 1.12671 1.26498 0
M  V30 2286 O 215.994 1.30947 1.23502 0
M  V30 2287 H 212.369 0.695775 0.285309 0
M  V30 2288 H 214.34 2.96935 0.295372 0
M  V30 2289 C 213.089 2.79893 2.06289 0
M  V30 2290 H 212.412 3.60147 1.73592 0
M  V30 2291 H 213.852 3.25615 2.71572 0
M  V30 2292 C 212.311 1.77713 2.86216 0
M  V30 2293 O 212.841 1.23937 3.82103 0
M  V30 2294 N 211.047 1.47321 2.50489 0
M  V30 2295 H 210.594 1.91243 1.7258 0
M  V30 2296 H 210.552 0.79199 3.04261 0
M  V30 2297 N 214.325 -0.140222 1.56975 0
M  V30 2298 C 215.571 -0.852949 1.83991 0
M  V30 2299 C 215.904 -1.80512 0.716187 0
M  V30 2300 O 215.179 -1.92479 -0.279681 0
M  V30 2301 C 215.462 -1.6215 3.21527 0
M  V30 2302 C 215.315 -0.690363 4.4447 0
M  V30 2303 C 216.634 -2.58247 3.56366 0
M  V30 2304 H 213.753 -0.308634 0.669264 0
M  V30 2305 H 216.395 -0.117898 1.89634 0
M  V30 2306 H 214.545 -2.24812 3.16847 0
M  V30 2307 H 216.217 -0.0742264 4.6124 0
M  V30 2308 H 214.46 -0.000396433 4.338 0
M  V30 2309 H 215.131 -1.2643 5.37326 0
M  V30 2310 H 217.607 -2.05701 3.61699 0
M  V30 2311 H 216.483 -3.09067 4.53617 0
M  V30 2312 H 216.744 -3.39923 2.82674 0
M  V30 2313 N 215.803 -1.52179 -0.40978 0
M  V30 2314 C 217.214 -1.58377 -0.988615 0
M  V30 2315 C 217.565 -0.423879 -1.91566 0
M  V30 2316 O 216.69 0.455844 -2.11544 0
M  V30 2317 C 217.285 -2.87044 -1.79976 0
M  V30 2318 C 215.844 -2.95722 -2.32863 0
M  V30 2319 C 214.991 -2.53309 -1.12828 0
M  V30 2320 H 217.942 -1.57558 -0.190039 0
M  V30 2321 H 217.963 -2.7236 -2.65707 0
M  V30 2322 H 217.475 -3.71444 -1.12478 0
M  V30 2323 H 215.576 -2.15814 -3.03735 0
M  V30 2324 H 215.689 -3.99951 -2.63773 0
M  V30 2325 H 214.053 -2.07142 -1.48204 0
M  V30 2326 H 214.836 -3.40082 -0.46897 0
M  V30 2327 N 217.281 0.66697 -1.42791 0
M  V30 2328 C 218.53 1.42278 -1.42968 0
M  V30 2329 C 218.843 1.9553 -0.0524489 0
M  V30 2330 O 220.049 2.71414 0.068363 0
M  V30 2331 C 218.505 2.57418 -2.51524 0
M  V30 2332 C 218.113 2.10832 -3.9529 0
M  V30 2333 C 219.857 3.34878 -2.60877 0
M  V30 2334 C 217.764 3.23101 -4.95338 0
M  V30 2335 H 216.694 0.534533 -0.531781 0
M  V30 2336 H 219.345 0.721302 -1.68729 0
M  V30 2337 H 217.727 3.29971 -2.18941 0
M  V30 2338 H 218.901 1.4538 -4.37266 0
M  V30 2339 H 217.216 1.46289 -3.89857 0
M  V30 2340 H 219.813 4.18505 -3.32802 0
M  V30 2341 H 220.156 3.81993 -1.6549 0
M  V30 2342 H 220.689 2.69398 -2.92693 0
M  V30 2343 H 217.428 2.80969 -5.9223 0
M  V30 2344 H 216.948 3.87309 -4.57987 0
M  V30 2345 H 218.627 3.88447 -5.17415 0
M  V30 2346 N 218.759 1.29093 0.90403 0
M  V30 2347 C 220.007 1.16583 1.65085 0
M  V30 2348 C 220.328 -0.283933 1.92922 0
M  V30 2349 O 219.598 -1.19509 1.55224 0
M  V30 2350 H 218.178 0.428467 0.611903 0
M  V30 2351 H 220.84 1.61959 1.08422 0
M  V30 2352 H 219.936 1.71266 2.6091 0
M  V30 2353 N 220.237 -1.11381 1.11499 0
M  V30 2354 C 221.465 -1.86934 0.88675 0
M  V30 2355 C 221.88 -1.80195 -0.563476 0
M  V30 2356 O 221.237 -1.18367 -1.38908 0
M  V30 2357 C 221.288 -3.35722 1.34064 0
M  V30 2358 O 221.009 -3.4232 2.73401 0
M  V30 2359 C 222.51 -4.2818 1.14791 0
M  V30 2360 H 219.73 -0.591117 0.317523 0
M  V30 2361 H 222.274 -1.40865 1.48248 0
M  V30 2362 H 220.429 -3.79294 0.788355 0
M  V30 2363 H 220.843 -4.34971 2.93087 0
M  V30 2364 H 222.317 -5.30817 1.5145 0
M  V30 2365 H 222.794 -4.39113 0.0875279 0
M  V30 2366 H 223.4 -3.90402 1.68721 0
M  V30 2367 N 221.715 -0.905404 -1.28997 0
M  V30 2368 C 222.645 -0.404212 -2.29975 0
M  V30 2369 C 223.626 0.523784 -1.61835 0
M  V30 2370 O 224.811 0.433298 -1.89304 0
M  V30 2371 C 221.941 0.364042 -3.45387 0
M  V30 2372 C 220.895 -0.474048 -4.25367 0
M  V30 2373 C 220.221 0.422045 -5.33032 0
M  V30 2374 C 221.521 -1.72696 -4.92923 0
M  V30 2375 H 223.215 -1.24807 -2.72146 0
M  V30 2376 H 220.761 -0.601585 -1.30832 0
M  V30 2377 H 222.714 0.725447 -4.15109 0
M  V30 2378 H 221.438 1.24174 -3.02074 0
M  V30 2379 H 220.097 -0.81786 -3.57361 0
M  V30 2380 H 219.745 1.29804 -4.85963 0
M  V30 2381 H 219.445 -0.135057 -5.87445 0
M  V30 2382 H 220.969 0.779517 -6.05604 0
M  V30 2383 H 222.383 -1.43495 -5.55051 0
M  V30 2384 H 220.78 -2.22582 -5.57295 0
M  V30 2385 H 221.85 -2.45964 -4.17887 0
M  V30 2386 N 223.193 1.4272 -0.668489 0
M  V30 2387 C 224.609 1.55992 -0.33745 0
M  V30 2388 C 224.809 1.64933 1.15756 0
M  V30 2389 O 223.865 1.61278 1.94282 0
M  V30 2390 C 225.178 2.81314 -1.06222 0
M  V30 2391 C 226.726 2.95078 -1.04394 0
M  V30 2392 C 227.201 4.23252 -1.74991 0
M  V30 2393 N 228.692 4.3015 -1.71829 0
M  V30 2394 C 229.427 5.28127 -2.23315 0
M  V30 2395 N 228.923 6.32293 -2.83156 0
M  V30 2396 N 230.716 5.19882 -2.13726 0
M  V30 2397 H 222.867 1.3516 -1.63846 0
M  V30 2398 H 225.13 0.650174 -0.689912 0
M  V30 2399 H 224.836 2.80823 -2.11734 0
M  V30 2400 H 224.71 3.72012 -0.62344 0
M  V30 2401 H 227.097 2.951 0.0028244 0
M  V30 2402 H 227.178 2.05627 -1.52155 0
M  V30 2403 H 226.822 4.2399 -2.79633 0
M  V30 2404 H 226.752 5.11626 -1.24685 0
M  V30 2405 H 229.243 3.55499 -1.28175 0
M  V30 2406 H 229.556 7.03398 -3.20079 0
M  V30 2407 H 227.901 6.32873 -2.87223 0
M  V30 2408 H 231.092 4.37423 -1.66669 0
M  V30 2409 H 231.265 5.96077 -2.54158 0
M  V30 2410 N 224.671 0.411399 1.52136 0
M  V30 2411 C 226.082 -0.0576826 1.86611 0
M  V30 2412 C 226.433 -1.44238 1.33003 0
M  V30 2413 O 225.558 -2.05759 0.670228 0
M  V30 2414 C 226.153 -0.111448 3.38617 0
M  V30 2415 C 224.712 -0.52487 3.72723 0
M  V30 2416 C 223.859 0.299176 2.75681 0
M  V30 2417 H 226.81 0.628368 1.4573 0
M  V30 2418 H 226.831 -0.926252 3.69054 0
M  V30 2419 H 226.343 0.896488 3.77604 0
M  V30 2420 H 224.444 -1.53936 3.39315 0
M  V30 2421 H 224.557 -0.267681 4.78352 0
M  V30 2422 H 222.921 -0.238814 2.53578 0
M  V30 2423 H 223.704 1.3055 3.17508 0
M  V30 2424 N 226.149 -1.5696 0.141893 0
M  V30 2425 C 227.396 -1.9596 -0.510492 0
M  V30 2426 C 227.724 -1.02648 -1.65208 0
M  V30 2427 O 226.979 -0.0546947 -1.95624 0
M  V30 2428 C 227.278 -3.41242 -1.06249 0
M  V30 2429 C 226.944 -4.50882 -0.0398791 0
M  V30 2430 C 225.606 -4.80595 0.241247 0
M  V30 2431 C 227.958 -5.17058 0.65578 0
M  V30 2432 C 225.286 -5.73792 1.22393 0
M  V30 2433 C 227.638 -6.11313 1.62724 0
M  V30 2434 C 226.302 -6.39407 1.91612 0
M  V30 2435 H 225.572 -0.717068 -0.186802 0
M  V30 2436 H 228.219 -1.90142 0.227643 0
M  V30 2437 H 226.524 -3.43866 -1.87785 0
M  V30 2438 H 228.221 -3.68742 -1.57576 0
M  V30 2439 H 224.811 -4.27754 -0.269174 0
M  V30 2440 H 228.995 -4.94239 0.451779 0
M  V30 2441 H 224.251 -5.93853 1.45424 0
M  V30 2442 H 228.425 -6.61668 2.17183 0
M  V30 2443 H 226.052 -7.11427 2.6791 0
M  V30 2444 N 227.627 0.131896 -1.57047 0
M  V30 2445 C 228.557 1.16384 -2.02428 0
M  V30 2446 C 229.538 1.43936 -0.90644 0
M  V30 2447 O 230.723 1.54599 -1.17528 0
M  V30 2448 C 227.853 2.49328 -2.4177 0
M  V30 2449 C 226.807 2.36266 -3.56879 0
M  V30 2450 C 226.133 3.74057 -3.8208 0
M  V30 2451 C 227.433 1.834 -4.89042 0
M  V30 2452 H 229.127 0.786433 -2.88887 0
M  V30 2453 H 226.673 0.376855 -1.38981 0
M  V30 2454 H 228.626 3.21759 -2.7212 0
M  V30 2455 H 227.35 2.88934 -1.52266 0
M  V30 2456 H 226.009 1.66286 -3.26718 0
M  V30 2457 H 225.657 4.11125 -2.89803 0
M  V30 2458 H 225.357 3.66174 -4.59554 0
M  V30 2459 H 226.881 4.48012 -4.1487 0
M  V30 2460 H 228.295 2.45636 -5.18011 0
M  V30 2461 H 226.692 1.8637 -5.70426 0
M  V30 2462 H 227.762 0.790662 -4.7841 0
M  V30 2463 N 229.106 1.52395 0.401703 0
M  V30 2464 C 230.054 1.7689 1.51039 0
M  V30 2465 C 231.048 0.636298 1.56996 0
M  V30 2466 O 232.254 0.818507 1.60314 0
M  V30 2467 H 228.629 0.559502 0.502456 0
M  V30 2468 H 230.6 2.69757 1.27568 0
M  V30 2469 C 229.349 1.94331 2.88324 0
M  V30 2470 H 228.672 2.80905 2.84486 0
M  V30 2471 H 230.112 2.15466 3.65172 0
M  V30 2472 C 228.571 0.712396 3.29282 0
M  V30 2473 O 229.101 -0.116218 4.01532 0
M  V30 2474 N 227.307 0.546154 2.85422 0
M  V30 2475 H 226.854 1.22156 2.26794 0
M  V30 2476 H 226.812 -0.276113 3.13185 0
M  V30 2477 N 230.584 -0.659388 1.43143 0
M  V30 2478 C 231.83 -1.41984 1.45644 0
M  V30 2479 C 232.185 -1.92245 0.0771718 0
M  V30 2480 O 231.478 -1.68976 -0.903205 0
M  V30 2481 C 231.672 -2.62206 2.42864 0
M  V30 2482 C 231.501 -2.23711 3.90107 0
M  V30 2483 C 230.271 -2.12332 4.58523 0
M  V30 2484 C 232.469 -1.84384 4.80112 0
M  V30 2485 N 230.451 -1.67102 5.9072 0
M  V30 2486 C 231.822 -1.5019 6.01534 0
M  V30 2487 C 233.877 -1.71512 4.67427 0
M  V30 2488 C 232.58 -1.04414 7.11681 0
M  V30 2489 C 234.606 -1.27142 5.77572 0
M  V30 2490 C 233.968 -0.938808 6.98116 0
M  V30 2491 H 230.067 -0.515448 0.588079 0
M  V30 2492 H 232.651 -0.759409 1.79279 0
M  V30 2493 H 230.822 -3.25917 2.11265 0
M  V30 2494 H 232.554 -3.28877 2.35843 0
M  V30 2495 H 229.309 -2.31893 4.12944 0
M  V30 2496 H 229.733 -1.46866 6.60878 0
M  V30 2497 H 234.375 -1.95868 3.74694 0
M  V30 2498 H 232.093 -0.788061 8.04248 0
M  V30 2499 H 235.679 -1.17681 5.69774 0
M  V30 2500 H 234.559 -0.6007 7.81896 0
M  V30 2501 N 232.062 -1.29571 -0.897171 0
M  V30 2502 C 233.29 -1.20583 -1.68129 0
M  V30 2503 C 233.705 0.233181 -1.87354 0
M  V30 2504 O 233.062 1.15579 -1.41236 0
M  V30 2505 C 233.113 -1.91772 -3.06441 0
M  V30 2506 O 232.834 -3.30053 -2.88091 0
M  V30 2507 C 234.335 -1.89291 -4.00854 0
M  V30 2508 H 231.555 -0.417826 -0.525036 0
M  V30 2509 H 234.099 -1.70987 -1.12177 0
M  V30 2510 H 232.254 -1.45196 -3.59161 0
M  V30 2511 H 232.668 -3.65942 -3.75748 0
M  V30 2512 H 234.142 -2.43662 -4.95311 0
M  V30 2513 H 234.619 -0.869014 -4.30517 0
M  V30 2514 H 235.225 -2.35622 -3.54066 0
M  V30 2515 N 233.54 1.10788 -1.12088 0
M  V30 2516 C 234.788 1.8231 -0.872205 0
M  V30 2517 C 235.109 1.85419 0.603709 0
M  V30 2518 O 234.379 1.32963 1.43867 0
M  V30 2519 H 232.959 0.675137 -0.319686 0
M  V30 2520 H 235.621 1.34068 -1.41463 0
M  V30 2521 H 234.717 2.85955 -1.25045 0
M  V30 2522 N 235.018 0.912232 1.28515 0
M  V30 2523 C 236.429 0.591352 1.77087 0
M  V30 2524 C 236.78 -0.8933 1.74684 0
M  V30 2525 O 235.905 -1.69876 1.34056 0
M  V30 2526 C 236.5 1.06668 3.2157 0
M  V30 2527 C 235.059 0.79675 3.67871 0
M  V30 2528 C 234.206 1.23427 2.48316 0
M  V30 2529 H 237.157 1.09365 1.15 0
M  V30 2530 H 237.178 0.407455 3.78312 0
M  V30 2531 H 236.69 2.14726 3.23287 0
M  V30 2532 H 234.791 -0.270679 3.71616 0
M  V30 2533 H 234.904 1.40343 4.58084 0
M  V30 2534 H 233.268 0.653036 2.46186 0
M  V30 2535 H 234.051 2.32316 2.52753 0
M  V30 2536 N 236.496 -1.42363 0.676048 0
M  V30 2537 C 237.907 -1.84649 0.275948 0
M  V30 2538 C 238.258 -1.56588 -1.18214 0
M  V30 2539 O 237.383 -1.02634 -1.90513 0
M  V30 2540 C 237.978 -3.35178 0.494053 0
M  V30 2541 C 236.537 -3.76109 0.148061 0
M  V30 2542 C 235.684 -2.65931 0.785891 0
M  V30 2543 H 238.635 -1.32192 0.878121 0
M  V30 2544 H 238.656 -3.79655 -0.25343 0
M  V30 2545 H 238.168 -3.55571 1.55535 0
M  V30 2546 H 236.269 -3.61323 -0.909742 0
M  V30 2547 H 236.382 -4.7546 0.589454 0
M  V30 2548 H 234.746 -2.53773 0.217113 0
M  V30 2549 H 235.529 -2.89146 1.85067 0
M  V30 2550 N 237.974 -0.419461 -1.51915 0
M  V30 2551 C 238.884 0.407528 -2.31033 0
M  V30 2552 C 239.9 1.04413 -1.3919 0
M  V30 2553 O 241.076 1.0434 -1.72265 0
M  V30 2554 C 238.141 1.50365 -3.12396 0
M  V30 2555 C 237.202 0.889029 -4.19994 0
M  V30 2556 C 236.435 1.93291 -4.97468 0
M  V30 2557 O 236.658 3.15259 -4.75361 0
M  V30 2558 O 235.592 1.53339 -5.8204 0
M  V30 2559 H 239.418 -0.237865 -3.02767 0
M  V30 2560 H 237.003 -0.182413 -1.48282 0
M  V30 2561 H 238.885 2.13975 -3.63032 0
M  V30 2562 H 237.56 2.13345 -2.43445 0
M  V30 2563 H 236.467 0.215353 -3.7348 0
M  V30 2564 H 237.8 0.302991 -4.91267 0
M  V30 2565 N 239.452 1.56882 -0.150215 0
M  V30 2566 C 240.863 1.82995 0.370076 0
M  V30 2567 C 241.214 1.06907 1.64515 0
M  V30 2568 O 240.339 0.315369 2.1409 0
M  V30 2569 C 240.934 3.31942 0.678208 0
M  V30 2570 C 239.493 3.58625 1.14301 0
M  V30 2571 C 238.64 2.76792 0.167778 0
M  V30 2572 H 241.591 1.54209 -0.374858 0
M  V30 2573 H 241.612 3.48272 1.53254 0
M  V30 2574 H 241.124 3.87294 -0.249991 0
M  V30 2575 H 239.225 3.08664 2.08704 0
M  V30 2576 H 239.338 4.67073 1.06676 0
M  V30 2577 H 237.702 2.45972 0.661037 0
M  V30 2578 H 238.485 3.34916 -0.754069 0
M  V30 2579 N 240.93 -0.123565 1.57115 0
M  V30 2580 C 242.179 -0.830704 1.83799 0
M  V30 2581 C 242.492 -1.81259 0.735158 0
M  V30 2582 O 243.698 -2.56558 0.888278 0
M  V30 2583 C 242.154 -1.52802 3.25852 0
M  V30 2584 C 241.762 -0.587356 4.44133 0
M  V30 2585 C 243.506 -2.22056 3.61789 0
M  V30 2586 C 241.413 -1.28764 5.77212 0
M  V30 2587 H 240.343 -0.313967 0.685522 0
M  V30 2588 H 242.994 -0.0834359 1.8331 0
M  V30 2589 H 241.376 -2.32175 3.20797 0
M  V30 2590 H 242.55 0.172829 4.60476 0
M  V30 2591 H 240.865 -0.00201892 4.164 0
M  V30 2592 H 243.462 -2.75131 4.58483 0
M  V30 2593 H 243.805 -2.99644 2.88997 0
M  V30 2594 H 244.338 -1.49576 3.68608 0
M  V30 2595 H 241.077 -0.55314 6.53162 0
M  V30 2596 H 240.597 -2.01995 5.64764 0
M  V30 2597 H 242.276 -1.8221 6.20813 0
M  V30 2598 N 242.408 -1.52605 -0.393616 0
M  V30 2599 C 243.318 -1.79971 -1.50492 0
M  V30 2600 C 244.334 -0.686181 -1.59899 0
M  V30 2601 O 245.51 -0.973274 -1.76322 0
M  V30 2602 C 242.575 -1.95867 -2.86072 0
M  V30 2603 C 241.636 -3.19781 -2.86424 0
M  V30 2604 C 240.869 -3.34909 -4.15538 0
M  V30 2605 O 241.092 -2.54948 -5.10253 0
M  V30 2606 O 240.026 -4.28141 -4.23059 0
M  V30 2607 H 243.852 -2.74328 -1.30299 0
M  V30 2608 H 241.437 -1.3764 -0.581005 0
M  V30 2609 H 243.319 -2.08056 -3.66457 0
M  V30 2610 H 241.994 -1.04699 -3.063 0
M  V30 2611 H 240.901 -3.13038 -2.04837 0
M  V30 2612 H 242.234 -4.1078 -2.71147 0
M  V30 2613 N 243.887 0.651787 -1.4349 0
M  V30 2614 C 244.85 1.74647 -1.48429 0
M  V30 2615 C 245.85 1.56513 -0.368817 0
M  V30 2616 O 247.04 1.62385 -0.630623 0
M  V30 2617 C 244.172 3.13533 -1.33827 0
M  V30 2618 H 245.365 1.71649 -2.4592 0
M  V30 2619 H 242.918 0.863573 -1.30277 0
M  V30 2620 H 243.653 3.22142 -0.37349 0
M  V30 2621 H 243.438 3.28101 -2.14691 0
M  V30 2622 H 244.928 3.93356 -1.40218 0
M  V30 2623 N 245.365 1.30045 0.890287 0
M  V30 2624 C 246.328 1.15963 1.977 0
M  V30 2625 C 247.328 0.0923777 1.60534 0
M  V30 2626 O 248.518 0.340071 1.70848 0
M  V30 2627 C 245.65 0.775451 3.31963 0
M  V30 2628 H 246.843 2.12502 2.11619 0
M  V30 2629 H 244.396 1.13366 1.07601 0
M  V30 2630 H 245.131 -0.189671 3.23745 0
M  V30 2631 H 244.916 1.54668 3.60306 0
M  V30 2632 H 246.406 0.700251 4.11687 0
M  V30 2633 N 246.843 -1.10192 1.12674 0
M  V30 2634 C 248.089 -1.82475 0.884915 0
M  V30 2635 C 248.422 -1.85093 -0.58773 0
M  V30 2636 O 247.697 -1.3134 -1.43457 0
M  V30 2637 C 247.98 -3.29018 1.46353 0
M  V30 2638 C 247.833 -3.34718 3.00473 0
M  V30 2639 C 249.152 -4.25473 1.12519 0
M  V30 2640 H 246.271 -0.662492 0.322915 0
M  V30 2641 H 248.913 -1.2913 1.39375 0
M  V30 2642 H 247.063 -3.74576 1.03077 0
M  V30 2643 H 248.735 -2.97622 3.52447 0
M  V30 2644 H 246.978 -2.74541 3.35872 0
M  V30 2645 H 247.649 -4.37918 3.36053 0
M  V30 2646 H 250.125 -3.88161 1.499 0
M  V30 2647 H 249.001 -5.26365 1.55663 0
M  V30 2648 H 249.262 -4.42084 0.0377407 0
M  V30 2649 N 248.321 -0.919034 -1.28029 0
M  V30 2650 C 249.284 -0.416182 -2.2539 0
M  V30 2651 C 250.284 0.460438 -1.54067 0
M  V30 2652 O 251.474 0.262744 -1.72207 0
M  V30 2653 C 248.606 0.402707 -3.38513 0
M  V30 2654 H 249.799 -1.27629 -2.71387 0
M  V30 2655 H 247.352 -0.698919 -1.39803 0
M  V30 2656 H 248.087 1.282 -2.97885 0
M  V30 2657 H 247.872 -0.225698 -3.9145 0
M  V30 2658 H 249.362 0.745191 -4.10897 0
M  V30 2659 N 249.799 1.42003 -0.683588 0
M  V30 2660 C 251.215 1.55625 -0.353976 0
M  V30 2661 C 251.415 1.66151 1.14 0
M  V30 2662 O 250.471 1.63329 1.92561 0
M  V30 2663 C 251.784 2.80171 -1.092 0
M  V30 2664 C 253.332 2.93954 -1.07518 0
M  V30 2665 C 253.807 4.21372 -1.79471 0
M  V30 2666 N 255.298 4.28303 -1.76381 0
M  V30 2667 C 256.033 5.25729 -2.28904 0
M  V30 2668 N 255.529 6.29254 -2.89846 0
M  V30 2669 N 257.322 5.17586 -2.19228 0
M  V30 2670 H 249.473 1.33415 -1.6527 0
M  V30 2671 H 251.736 0.64282 -0.696769 0
M  V30 2672 H 251.442 2.78561 -2.14701 0
M  V30 2673 H 251.316 3.7133 -0.662862 0
M  V30 2674 H 253.703 2.95086 -0.028475 0
M  V30 2675 H 253.784 2.04002 -1.54328 0
M  V30 2676 H 253.428 4.21001 -2.84114 0
M  V30 2677 H 253.358 5.10275 -1.30104 0
M  V30 2678 H 255.849 3.54119 -1.31939 0
M  V30 2679 H 256.162 6.99964 -3.27522 0
M  V30 2680 H 254.507 6.29791 -2.93919 0
M  V30 2681 H 257.698 4.35631 -1.71299 0
M  V30 2682 H 257.871 5.93348 -2.60466 0
M  V30 2683 N 251.277 0.427512 1.51691 0
M  V30 2684 C 252.524 -0.142229 2.02 0
M  V30 2685 C 252.852 -1.43566 1.31221 0
M  V30 2686 O 252.107 -1.91298 0.412744 0
M  V30 2687 C 252.406 -0.418249 3.54944 0
M  V30 2688 C 252.072 0.788187 4.43958 0
M  V30 2689 C 250.734 1.11906 4.68007 0
M  V30 2690 C 253.086 1.59347 4.96244 0
M  V30 2691 C 250.414 2.25608 5.41588 0
M  V30 2692 C 252.766 2.7214 5.71072 0
M  V30 2693 C 251.43 3.05692 5.93387 0
M  V30 2694 H 250.7 -0.0520451 0.73917 0
M  V30 2695 H 253.347 0.572697 1.82736 0
M  V30 2696 H 251.652 -1.21496 3.72486 0
M  V30 2697 H 253.349 -0.872339 3.91397 0
M  V30 2698 H 249.939 0.520344 4.2543 0
M  V30 2699 H 254.123 1.35106 4.77556 0
M  V30 2700 H 249.379 2.51929 5.57083 0
M  V30 2701 H 253.553 3.34914 6.10578 0
M  V30 2702 H 251.18 3.9391 6.50184 0
M  V30 2703 N 252.755 -1.56801 0.158532 0
M  V30 2704 C 254.002 -1.9649 -0.489679 0
M  V30 2705 C 254.33 -1.04394 -1.6411 0
M  V30 2706 O 253.585 -0.0754401 -1.95555 0
M  V30 2707 C 253.884 -3.4235 -1.02623 0
M  V30 2708 C 253.55 -4.50899 0.00794526 0
M  V30 2709 C 252.212 -4.80312 0.292207 0
M  V30 2710 C 254.564 -5.16333 0.710584 0
M  V30 2711 C 251.892 -5.72461 1.28472 0
M  V30 2712 C 254.244 -6.09553 1.69199 0
M  V30 2713 C 252.908 -6.37339 1.98383 0
M  V30 2714 H 252.178 -0.719009 -0.179186 0
M  V30 2715 H 254.825 -1.8989 0.247798 0
M  V30 2716 H 253.13 -3.45838 -1.84128 0
M  V30 2717 H 254.827 -3.70393 -1.53656 0
M  V30 2718 H 251.417 -4.28015 -0.22379 0
M  V30 2719 H 255.601 -4.93732 0.504174 0
M  V30 2720 H 250.857 -5.92278 1.51714 0
M  V30 2721 H 255.031 -6.59327 2.24189 0
M  V30 2722 H 252.658 -7.08546 2.7544 0
M  V30 2723 N 254.233 0.115231 -1.57178 0
M  V30 2724 C 255.458 0.840354 -1.89612 0
M  V30 2725 C 255.883 1.72464 -0.750845 0
M  V30 2726 O 255.241 1.78826 0.298478 0
M  V30 2727 C 255.289 1.64654 -3.20814 0
M  V30 2728 O 254.393 2.7538 -3.06985 0
M  V30 2729 H 253.734 0.232158 -0.622092 0
M  V30 2730 H 256.264 0.0964977 -2.04372 0
M  V30 2731 H 256.274 2.03499 -3.53627 0
M  V30 2732 H 254.949 0.997416 -4.03763 0
M  V30 2733 H 253.526 2.3971 -2.85646 0
M  V30 2734 N 255.711 1.52812 0.385517 0
M  V30 2735 C 256.674 1.77188 1.45386 0
M  V30 2736 C 257.674 0.641953 1.4743 0
M  V30 2737 O 258.864 0.910033 1.4854 0
M  V30 2738 C 255.996 1.87582 2.8465 0
M  V30 2739 H 257.189 2.72583 1.25054 0
M  V30 2740 H 254.742 1.43586 0.617467 0
M  V30 2741 H 255.477 0.941849 3.10322 0
M  V30 2742 H 255.262 2.69748 2.84567 0
M  V30 2743 H 256.752 2.08102 3.62054 0
M  V30 2744 N 257.189 -0.644168 1.43834 0
M  V30 2745 C 258.414 -1.43642 1.49605 0
M  V30 2746 C 258.839 -1.8773 0.117913 0
M  V30 2747 O 258.197 -1.57938 -0.890239 0
M  V30 2748 C 258.245 -2.6416 2.45463 0
M  V30 2749 O 257.349 -3.63538 1.94714 0
M  V30 2750 H 256.69 -0.430329 0.50568 0
M  V30 2751 H 259.22 -0.787448 1.8884 0
M  V30 2752 H 259.23 -3.11864 2.63068 0
M  V30 2753 H 257.905 -2.31414 3.45572 0
M  V30 2754 H 256.482 -3.2273 1.86814 0
M  V30 2755 N 258.668 -1.30515 -0.883378 0
M  V30 2756 C 259.908 -1.20716 -1.64946 0
M  V30 2757 C 260.272 0.234072 -1.90568 0
M  V30 2758 O 261.473 0.455335 -2.64915 0
M  V30 2759 C 259.744 -2.01444 -2.9522 0
M  V30 2760 S 261.303 -2.0836 -3.86175 0
M  V30 2761 H 258.121 -0.430165 -0.566109 0
M  V30 2762 H 260.723 -1.65011 -1.04841 0
M  V30 2763 H 259.427 -3.05268 -2.74298 0
M  V30 2764 H 258.958 -1.57817 -3.60357 0
M  V30 2765 H 260.973 -1.21215 -4.81167 0
M  V30 2766 N 260.146 1.09593 -1.13257 0
M  V30 2767 C 261.392 1.82003 -0.89458 0
M  V30 2768 C 261.725 1.85402 0.577906 0
M  V30 2769 O 261 1.32099 1.42759 0
M  V30 2770 C 261.283 3.28237 -1.48096 0
M  V30 2771 C 261.136 3.3312 -3.02244 0
M  V30 2772 C 262.455 4.24871 -1.14774 0
M  V30 2773 H 259.574 0.66077 -0.326424 0
M  V30 2774 H 262.216 1.28389 -1.40058 0
M  V30 2775 H 260.366 3.74024 -1.05062 0
M  V30 2776 H 262.038 2.95748 -3.54021 0
M  V30 2777 H 260.281 2.72756 -3.37323 0
M  V30 2778 H 260.952 4.3613 -3.38371 0
M  V30 2779 H 263.428 3.87361 -1.51957 0
M  V30 2780 H 262.304 5.25532 -1.58452 0
M  V30 2781 H 262.565 4.42058 -0.0611849 0
M  V30 2782 N 261.624 0.925811 1.2754 0
M  V30 2783 C 263.035 0.610102 1.7645 0
M  V30 2784 C 263.386 -0.874723 1.75622 0
M  V30 2785 O 262.511 -1.68444 1.35851 0
M  V30 2786 C 263.106 1.10073 3.20421 0
M  V30 2787 C 261.665 0.835723 3.67005 0
M  V30 2788 C 260.812 1.26054 2.46993 0
M  V30 2789 H 263.763 1.10579 1.13833 0
M  V30 2790 H 263.784 0.447557 3.77859 0
M  V30 2791 H 263.296 2.18143 3.20991 0
M  V30 2792 H 261.397 -0.231249 3.71882 0
M  V30 2793 H 261.51 1.45193 4.56569 0
M  V30 2794 H 259.874 0.679111 2.45479 0
M  V30 2795 H 260.657 2.34984 2.50275 0
M  V30 2796 N 263.102 -1.41638 0.69111 0
M  V30 2797 C 264.35 -2.00902 0.219758 0
M  V30 2798 C 264.671 -1.54994 -1.18329 0
M  V30 2799 O 263.941 -0.778628 -1.79762 0
M  V30 2800 H 262.521 -0.74289 0.0782558 0
M  V30 2801 H 265.183 -1.73327 0.891271 0
M  V30 2802 H 264.279 -3.11224 0.233708 0
M  V30 2803 N 264.58 -0.43555 -1.51462 0
M  V30 2804 C 265.543 0.365137 -2.26273 0
M  V30 2805 C 266.543 0.951227 -1.29647 0
M  V30 2806 O 267.733 0.825958 -1.53374 0
M  V30 2807 C 264.865 1.51645 -3.05314 0
M  V30 2808 H 266.058 -0.290474 -2.9849 0
M  V30 2809 H 263.611 -0.188676 -1.55157 0
M  V30 2810 H 264.346 2.20816 -2.3751 0
M  V30 2811 H 264.131 1.10238 -3.76284 0
M  V30 2812 H 265.621 2.08218 -3.61987 0
M  V30 2813 N 266.058 1.56714 -0.166846 0
M  V30 2814 C 267.335 1.88412 0.525373 0
M  V30 2815 C 267.715 1.07602 1.81618 0
M  V30 2816 O 267.063 0.168621 2.27877 0
M  V30 2817 C 267.273 3.40363 0.771613 0
M  V30 2818 C 268.621 4.10007 1.1036 0
M  V30 2819 O 269.645 3.45655 0.860304 0
M  V30 2820 O 268.504 5.2369 1.56239 0
M  V30 2821 H 265.598 0.781587 0.270278 0
M  V30 2822 H 268.144 1.68458 -0.204946 0
M  V30 2823 H 266.916 3.91046 -0.141093 0
M  V30 2824 H 266.539 3.65914 1.55541 0
M  V30 2825 N 267.536 -0.106894 1.57237 0
M  V30 2826 C 268.483 -1.13049 2.01217 0
M  V30 2827 C 269.453 -1.40471 0.886403 0
M  V30 2828 O 270.638 -1.52133 1.15153 0
M  V30 2829 C 267.778 -2.4487 2.43172 0
M  V30 2830 C 266.891 -2.24281 3.69218 0
M  V30 2831 C 266.026 -3.49417 4.00101 0
M  V30 2832 C 265.065 -3.24038 5.19294 0
M  V30 2833 N 264.202 -4.41409 5.45988 0
M  V30 2834 H 269.042 -0.748456 2.88448 0
M  V30 2835 H 266.579 -0.358054 1.42676 0
M  V30 2836 H 268.537 -3.21786 2.65537 0
M  V30 2837 H 267.167 -2.80944 1.58967 0
M  V30 2838 H 266.219 -1.38224 3.54398 0
M  V30 2839 H 267.531 -2.01512 4.56283 0
M  V30 2840 H 266.685 -4.34746 4.2318 0
M  V30 2841 H 265.424 -3.75229 3.11535 0
M  V30 2842 H 264.429 -2.37102 4.96047 0
M  V30 2843 H 265.654 -2.99584 6.09447 0
M  V30 2844 H 263.6 -4.67319 4.60379 0
M  V30 2845 H 263.517 -4.21788 6.274 0
M  V30 2846 H 264.785 -5.27836 5.73593 0
M  V30 2847 N 269.014 -1.53014 -0.377408 0
M  V30 2848 C 270.262 -1.6829 -1.11906 0
M  V30 2849 C 270.583 -0.431206 -1.90173 0
M  V30 2850 O 269.853 0.554595 -1.87886 0
M  V30 2851 H 268.433 -0.620371 -0.416112 0
M  V30 2852 H 271.095 -1.90167 -0.426893 0
M  V30 2853 H 270.191 -2.53862 -1.8155 0
M  V30 2854 N 270.492 0.636531 -1.44174 0
M  V30 2855 C 271.424 1.7618 -1.46606 0
M  V30 2856 C 272.437 1.58768 -0.360091 0
M  V30 2857 O 273.626 1.67181 -0.625518 0
M  V30 2858 C 270.726 3.13833 -1.27915 0
M  V30 2859 C 269.899 3.57753 -2.51658 0
M  V30 2860 C 268.958 4.74265 -2.27945 0
M  V30 2861 O 267.984 4.82852 -3.01401 0
M  V30 2862 N 269.186 5.65604 -1.30662 0
M  V30 2863 H 271.951 1.74567 -2.43612 0
M  V30 2864 H 269.512 0.820924 -1.39544 0
M  V30 2865 H 271.504 3.8949 -1.09907 0
M  V30 2866 H 270.074 3.10121 -0.39293 0
M  V30 2867 H 269.294 2.72362 -2.84978 0
M  V30 2868 H 270.582 3.83847 -3.33974 0
M  V30 2869 H 269.98 5.61354 -0.699844 0
M  V30 2870 H 268.537 6.40913 -1.18634 0
M  V30 2871 N 271.97 1.30982 0.876444 0
M  V30 2872 C 273.217 1.20296 1.62896 0
M  V30 2873 C 273.545 -0.240395 1.93009 0
M  V30 2874 O 272.8 -1.18733 1.55567 0
M  V30 2875 C 273.099 1.98572 2.9716 0
M  V30 2876 C 272.765 3.48125 2.86566 0
M  V30 2877 C 271.427 3.88905 2.83383 0
M  V30 2878 C 273.779 4.43322 2.74071 0
M  V30 2879 C 271.107 5.2316 2.65556 0
M  V30 2880 C 273.459 5.77695 2.57781 0
M  V30 2881 C 272.123 6.17704 2.52979 0
M  V30 2882 H 271.393 0.440193 0.59608 0
M  V30 2883 H 274.04 1.62177 1.01837 0
M  V30 2884 H 272.345 1.49352 3.62217 0
M  V30 2885 H 274.042 1.8769 3.54364 0
M  V30 2886 H 270.632 3.15723 2.89856 0
M  V30 2887 H 274.816 4.12752 2.75589 0
M  V30 2888 H 270.072 5.53241 2.60259 0
M  V30 2889 H 274.246 6.51091 2.47089 0
M  V30 2890 H 271.873 7.21678 2.38924 0
M  V30 2891 N 273.449 -1.08991 1.13837 0
M  V30 2892 C 274.86 -1.62746 0.914917 0
M  V30 2893 C 275.211 -1.88403 -0.547594 0
M  V30 2894 O 274.336 -1.63706 -1.41525 0
M  V30 2895 C 274.931 -2.95662 1.65437 0
M  V30 2896 C 273.49 -3.46225 1.47666 0
M  V30 2897 C 272.637 -2.20562 1.6807 0
M  V30 2898 H 275.588 -0.922946 1.29102 0
M  V30 2899 H 275.609 -3.63825 1.11407 0
M  V30 2900 H 275.121 -2.76956 2.71877 0
M  V30 2901 H 273.222 -3.70046 0.435478 0
M  V30 2902 H 273.335 -4.23368 2.24268 0
M  V30 2903 H 271.699 -2.29439 1.10589 0
M  V30 2904 H 272.482 -2.0437 2.7584 0
M  V30 2905 N 274.927 -0.932562 -1.27047 0
M  V30 2906 C 275.875 -0.42603 -2.28665 0
M  V30 2907 C 276.869 0.49219 -1.62092 0
M  V30 2908 O 278.075 0.371355 -1.76128 0
M  V30 2909 H 274.45 -0.119213 -0.742491 0
M  V30 2910 H 276.421 -1.29579 -2.68797 0
M  V30 2911 C 275.17 0.301426 -3.46391 0
M  V30 2912 H 274.493 -0.39595 -3.97834 0
M  V30 2913 H 275.933 0.6202 -4.1944 0
M  V30 2914 C 274.392 1.51616 -3.00856 0
M  V30 2915 O 274.922 2.61476 -3.04948 0
M  V30 2916 N 273.128 1.36969 -2.56296 0
M  V30 2917 H 272.675 0.475873 -2.53166 0
M  V30 2918 H 272.633 2.18368 -2.26192 0
M  V30 2919 N 276.405 1.4127 -0.698611 0
M  V30 2920 C 277.335 2.33447 -0.049629 0
M  V30 2921 C 278.316 1.51982 0.763898 0
M  V30 2922 O 279.501 1.80509 0.716257 0
M  V30 2923 C 276.631 3.35828 0.885267 0
M  V30 2924 C 275.585 4.27627 0.178613 0
M  V30 2925 C 274.911 5.20406 1.22807 0
M  V30 2926 C 276.211 5.13459 -0.956933 0
M  V30 2927 H 277.905 2.87966 -0.81951 0
M  V30 2928 H 275.451 1.38461 -0.395538 0
M  V30 2929 H 277.404 3.9924 1.34854 0
M  V30 2930 H 276.128 2.79666 1.68685 0
M  V30 2931 H 274.787 3.65643 -0.26466 0
M  V30 2932 H 274.435 4.60558 2.02226 0
M  V30 2933 H 274.135 5.82661 0.760239 0
M  V30 2934 H 275.659 5.86695 1.69179 0
M  V30 2935 H 277.073 5.70421 -0.573805 0
M  V30 2936 H 275.47 5.8467 -1.35205 0
M  V30 2937 H 276.54 4.50443 -1.79524 0
M  V30 2938 N 277.883 0.443576 1.51229 0
M  V30 2939 C 279.123 -0.119889 2.04048 0
M  V30 2940 C 279.487 -1.39418 1.32009 0
M  V30 2941 O 280.688 -2.03829 1.75235 0
M  V30 2942 C 278.959 -0.327233 3.55899 0
M  V30 2943 S 280.518 -0.853208 4.30425 0
M  V30 2944 H 277.336 -0.028921 0.710412 0
M  V30 2945 H 279.938 0.604413 1.85922 0
M  V30 2946 H 278.642 0.606445 4.05895 0
M  V30 2947 H 278.173 -1.07844 3.7833 0
M  V30 2948 H 280.188 -2.13005 4.48155 0
M  V30 2949 N 279.361 -1.56624 0.175154 0
M  V30 2950 C 280.777 -1.58571 -0.180966 0
M  V30 2951 C 280.977 -1.19065 -1.6256 0
M  V30 2952 O 280.033 -0.904044 -2.35761 0
M  V30 2953 C 281.346 -3.00522 0.103326 0
M  V30 2954 C 282.894 -3.12972 0.0418426 0
M  V30 2955 C 283.369 -4.57022 0.299175 0
M  V30 2956 N 284.86 -4.62541 0.247086 0
M  V30 2957 C 285.595 -5.71857 0.420318 0
M  V30 2958 N 285.091 -6.89717 0.652816 0
M  V30 2959 N 286.884 -5.60972 0.355957 0
M  V30 2960 H 279.035 -1.80589 1.11809 0
M  V30 2961 H 281.298 -0.837178 0.444788 0
M  V30 2962 H 281.004 -3.33916 1.10422 0
M  V30 2963 H 280.878 -3.72344 -0.603299 0
M  V30 2964 H 283.265 -2.79403 -0.949636 0
M  V30 2965 H 283.346 -2.43578 0.781238 0
M  V30 2966 H 282.99 -4.913 1.28788 0
M  V30 2967 H 282.92 -5.24579 -0.460876 0
M  V30 2968 H 285.411 -3.77829 0.0731895 0
M  V30 2969 H 285.724 -7.68911 0.774347 0
M  V30 2970 H 284.069 -6.91572 0.689476 0
M  V30 2971 H 287.26 -4.67773 0.174882 0
M  V30 2972 H 287.433 -6.46111 0.494388 0
M  V30 2973 N 280.839 0.0985539 -1.57292 0
M  V30 2974 C 281.769 1.12064 -2.04851 0
M  V30 2975 C 282.75 1.41981 -0.936767 0
M  V30 2976 O 283.935 1.52071 -1.20781 0
M  V30 2977 C 281.065 2.44144 -2.47004 0
M  V30 2978 C 280.019 2.28643 -3.6181 0
M  V30 2979 C 279.345 3.65869 -3.89929 0
M  V30 2980 C 280.645 1.72986 -4.92822 0
M  V30 2981 H 282.339 0.724979 -2.9049 0
M  V30 2982 H 279.885 0.34729 -1.39749 0
M  V30 2983 H 281.838 3.15914 -2.78884 0
M  V30 2984 H 280.562 2.85639 -1.5836 0
M  V30 2985 H 279.221 1.59318 -3.30172 0
M  V30 2986 H 278.869 4.04885 -2.98458 0
M  V30 2987 H 278.569 3.56344 -4.67218 0
M  V30 2988 H 280.093 4.39112 -4.2428 0
M  V30 2989 H 281.507 2.34593 -5.23105 0
M  V30 2990 H 279.904 1.74229 -5.74251 0
M  V30 2991 H 280.974 0.689007 -4.7998 0
M  V30 2992 N 282.317 1.53212 0.369288 0
M  V30 2993 C 283.557 1.70915 1.12105 0
M  V30 2994 C 283.921 0.449444 1.86665 0
M  V30 2995 O 285.122 0.503105 2.6405 0
M  V30 2996 C 283.393 2.9222 2.05772 0
M  V30 2997 S 284.952 3.30609 2.88519 0
M  V30 2998 H 281.77 0.601445 0.379189 0
M  V30 2999 H 284.372 1.91306 0.402794 0
M  V30 3000 H 283.076 3.82103 1.49752 0
M  V30 3001 H 282.607 2.7422 2.82076 0
M  V30 3002 H 284.622 2.82333 4.08047 0
M  V30 3003 N 283.795 -0.628877 1.44509 0
M  V30 3004 C 284.758 -1.72263 1.51188 0
M  V30 3005 C 285.758 -1.55907 0.39367 0
M  V30 3006 O 286.948 -1.61361 0.656377 0
M  V30 3007 C 284.08 -3.11365 1.38798 0
M  V30 3008 H 285.273 -1.67714 2.4862 0
M  V30 3009 H 282.826 -0.842737 1.31634 0
M  V30 3010 H 283.561 -3.21507 0.424693 0
M  V30 3011 H 283.346 -3.24644 2.19884 0
M  V30 3012 H 284.836 -3.91075 1.46458 0
M  V30 3013 N 285.273 -1.31445 -0.869486 0
M  V30 3014 C 286.521 -1.20918 -1.61936 0
M  V30 3015 C 286.842 0.232683 -1.93607 0
M  V30 3016 O 286.112 1.15352 -1.58338 0
M  V30 3017 H 284.692 -0.44454 -0.600328 0
M  V30 3018 H 287.354 -1.64776 -1.0409 0
M  V30 3019 H 286.45 -1.78124 -2.56278 0
M  V30 3020 N 286.751 1.08385 -1.14413 0
M  V30 3021 C 287.979 1.84517 -0.936001 0
M  V30 3022 C 288.394 1.81626 0.515503 0
M  V30 3023 O 287.751 1.22008 1.35721 0
M  V30 3024 C 287.802 3.32049 -1.42918 0
M  V30 3025 O 287.523 3.34951 -2.82381 0
M  V30 3026 C 289.024 4.24986 -1.26103 0
M  V30 3027 H 286.244 0.582491 -0.333084 0
M  V30 3028 H 288.788 1.36885 -1.5193 0
M  V30 3029 H 286.943 3.7707 -0.888641 0
M  V30 3030 H 287.357 4.27048 -3.04517 0
M  V30 3031 H 288.831 5.26615 -1.6547 0
M  V30 3032 H 289.308 4.38726 -0.20392 0
M  V30 3033 H 289.914 3.85791 -1.79012 0
M  V30 3034 N 288.23 0.939286 1.26551 0
M  V30 3035 C 289.478 0.58469 1.93457 0
M  V30 3036 C 289.799 -0.878774 1.74076 0
M  V30 3037 O 289.069 -1.62421 1.09528 0
M  V30 3038 H 287.649 0.21325 0.715914 0
M  V30 3039 H 290.311 1.1942 1.54029 0
M  V30 3040 H 289.407 0.800849 3.0165 0
M  V30 3041 N 289.708 -1.40897 0.706093 0
M  V30 3042 C 290.618 -2.3455 0.0482286 0
M  V30 3043 C 291.634 -1.56796 -0.754396 0
M  V30 3044 O 292.81 -1.89228 -0.689538 0
M  V30 3045 C 289.875 -3.35625 -0.869303 0
M  V30 3046 C 288.936 -4.29261 -0.0576994 0
M  V30 3047 C 288.169 -5.25508 -0.931531 0
M  V30 3048 O 288.392 -5.27472 -2.17092 0
M  V30 3049 O 287.326 -6.00727 -0.375587 0
M  V30 3050 H 291.152 -2.92407 0.820476 0
M  V30 3051 H 288.737 -1.4193 0.4665 0
M  V30 3052 H 290.619 -3.97635 -1.39514 0
M  V30 3053 H 289.294 -2.80196 -1.62086 0
M  V30 3054 H 288.201 -3.70566 0.512988 0
M  V30 3055 H 289.534 -4.87817 0.655426 0
M  V30 3056 N 291.186 -0.45159 -1.50991 0
M  V30 3057 C 292.134 0.366864 -2.29689 0
M  V30 3058 C 293.128 1.00809 -1.36139 0
M  V30 3059 O 294.334 0.941427 -1.53418 0
M  V30 3060 H 290.709 0.137133 -0.739391 0
M  V30 3061 H 292.68 -0.317538 -2.96706 0
M  V30 3062 C 291.429 1.44751 -3.16137 0
M  V30 3063 H 290.752 0.963473 -3.88017 0
M  V30 3064 H 292.192 1.99315 -3.74232 0
M  V30 3065 C 290.651 2.43869 -2.32442 0
M  V30 3066 O 291.181 3.4872 -1.99392 0
M  V30 3067 N 289.387 2.15105 -1.95392 0
M  V30 3068 H 288.934 1.29866 -2.22469 0
M  V30 3069 H 288.892 2.81661 -1.39693 0
M  V30 3070 N 292.664 1.56529 -0.183458 0
M  V30 3071 C 293.611 2.18546 0.742055 0
M  V30 3072 C 294.581 1.12912 1.2182 0
M  V30 3073 O 295.766 1.41115 1.28418 0
M  V30 3074 C 292.906 2.83977 1.96089 0
M  V30 3075 C 292.019 4.04105 1.52719 0
M  V30 3076 C 291.154 4.57427 2.70063 0
M  V30 3077 C 290.193 5.69938 2.23243 0
M  V30 3078 N 289.33 6.17717 3.33722 0
M  V30 3079 H 294.17 2.97284 0.206432 0
M  V30 3080 H 291.707 1.46823 0.0901571 0
M  V30 3081 H 293.665 3.20077 2.67594 0
M  V30 3082 H 292.295 2.07822 2.47002 0
M  V30 3083 H 291.347 3.73745 0.708436 0
M  V30 3084 H 292.659 4.85513 1.1436 0
M  V30 3085 H 291.813 4.95772 3.49708 0
M  V30 3086 H 290.552 3.75101 3.11689 0
M  V30 3087 H 289.557 5.31133 1.42048 0
M  V30 3088 H 290.782 6.54073 1.82661 0
M  V30 3089 H 288.728 5.38317 3.74902 0
M  V30 3090 H 288.645 6.94146 2.99495 0
M  V30 3091 H 289.913 6.60713 4.13616 0
M  V30 3092 N 294.142 -0.090211 1.57342 0
M  V30 3093 C 295.382 -0.798365 1.88163 0
M  V30 3094 C 295.746 -1.75662 0.775046 0
M  V30 3095 O 296.947 -2.50849 0.965816 0
M  V30 3096 C 295.218 -1.50376 3.24225 0
M  V30 3097 S 296.777 -2.24952 3.76752 0
M  V30 3098 H 293.595 -0.265883 0.659414 0
M  V30 3099 H 296.197 -0.055264 1.95422 0
M  V30 3100 H 294.901 -0.792286 4.0268 0
M  V30 3101 H 294.432 -2.28666 3.20118 0
M  V30 3102 H 296.447 -3.51173 3.5056 0
M  V30 3103 N 295.62 -1.53406 -0.361157 0
M  V30 3104 C 296.583 -1.79479 -1.42548 0
M  V30 3105 C 297.583 -0.665327 -1.4639 0
M  V30 3106 O 298.773 -0.933549 -1.47073 0
M  V30 3107 C 295.905 -1.92087 -2.8163 0
M  V30 3108 H 297.098 -2.74538 -1.20701 0
M  V30 3109 H 294.651 -1.4455 -0.594546 0
M  V30 3110 H 295.386 -0.991099 -3.08784 0
M  V30 3111 H 295.171 -2.74241 -2.80239 0
M  V30 3112 H 296.661 -2.13836 -3.58697 0
M  V30 3113 N 297.098 0.621204 -1.44841 0
M  V30 3114 C 298.345 1.38055 -1.48145 0
M  V30 3115 C 298.673 1.94143 -0.117867 0
M  V30 3116 O 297.928 1.74713 0.881694 0
M  V30 3117 C 298.227 2.55675 -2.4973 0
M  V30 3118 C 297.893 2.17817 -3.94799 0
M  V30 3119 C 296.555 2.07205 -4.34303 0
M  V30 3120 C 298.907 1.88065 -4.86087 0
M  V30 3121 C 296.235 1.65045 -5.63007 0
M  V30 3122 C 298.587 1.47394 -6.15189 0
M  V30 3123 C 297.251 1.35331 -6.53637 0
M  V30 3124 H 296.521 0.505181 -0.542101 0
M  V30 3125 H 299.168 0.703477 -1.78111 0
M  V30 3126 H 297.473 3.2866 -2.13284 0
M  V30 3127 H 299.17 3.13904 -2.4953 0
M  V30 3128 H 295.76 2.26998 -3.63552 0
M  V30 3129 H 299.944 1.95168 -4.56315 0
M  V30 3130 H 295.2 1.54317 -5.91605 0
M  V30 3131 H 299.374 1.23415 -6.85377 0
M  V30 3132 H 297.001 1.02435 -7.53267 0
M  V30 3133 N 298.576 1.31904 0.862503 0
M  V30 3134 C 299.801 1.25135 1.65397 0
M  V30 3135 C 300.226 -0.179 1.87246 0
M  V30 3136 O 299.584 -1.1277 1.4196 0
M  V30 3137 C 299.632 2.00832 2.99498 0
M  V30 3138 O 298.736 1.35075 3.89652 0
M  V30 3139 H 298.077 0.431655 0.504549 0
M  V30 3140 H 300.607 1.74094 1.07483 0
M  V30 3141 H 300.617 2.10709 3.49379 0
M  V30 3142 H 299.292 3.04847 2.82916 0
M  V30 3143 H 297.869 1.33696 3.48109 0
M  V30 3144 N 300.054 -1.07777 1.14986 0
M  V30 3145 C 301.279 -1.84558 0.946213 0
M  V30 3146 C 301.704 -1.81323 -0.500362 0
M  V30 3147 O 301.062 -1.20301 -1.35637 0
M  V30 3148 C 301.11 -3.29736 1.45968 0
M  V30 3149 O 300.214 -4.07149 0.65601 0
M  V30 3150 H 299.555 -0.571641 0.33782 0
M  V30 3151 H 302.085 -1.35991 1.52865 0
M  V30 3152 H 302.095 -3.80574 1.47063 0
M  V30 3153 H 300.77 -3.31406 2.51283 0
M  V30 3154 H 299.347 -3.65994 0.714322 0
M  V30 3155 N 301.532 -0.945985 -1.26051 0
M  V30 3156 C 302.464 -0.416662 -2.25381 0
M  V30 3157 C 303.477 0.462712 -1.56086 0
M  V30 3158 O 304.666 0.272383 -1.7641 0
M  V30 3159 C 301.766 0.419812 -3.3629 0
M  V30 3160 C 300.939 -0.444531 -4.35135 0
M  V30 3161 C 299.998 0.332305 -5.2515 0
M  V30 3162 O 299.024 -0.266324 -5.68577 0
M  V30 3163 N 300.226 1.62763 -5.57215 0
M  V30 3164 H 302.991 -1.27059 -2.71433 0
M  V30 3165 H 300.552 -0.815392 -1.39868 0
M  V30 3166 H 302.544 0.947013 -3.93464 0
M  V30 3167 H 301.114 1.17456 -2.89694 0
M  V30 3168 H 300.334 -1.15291 -3.76964 0
M  V30 3169 H 301.622 -1.03478 -4.98166 0
M  V30 3170 H 301.02 2.13603 -5.23823 0
M  V30 3171 H 299.577 2.10097 -6.17011 0
M  V30 3172 N 303.011 1.40521 -0.713556 0
M  V30 3173 C 303.921 2.34522 -0.0606667 0
M  V30 3174 C 304.937 1.57193 0.74607 0
M  V30 3175 O 306.113 1.89591 0.679493 0
M  V30 3176 C 303.178 3.36081 0.851491 0
M  V30 3177 C 302.239 4.29286 0.0349339 0
M  V30 3178 C 301.472 5.25994 0.903649 0
M  V30 3179 O 301.695 5.28616 2.14292 0
M  V30 3180 O 300.629 6.00918 0.343723 0
M  V30 3181 H 304.455 2.91968 -0.835972 0
M  V30 3182 H 302.04 1.41681 -0.47402 0
M  V30 3183 H 303.922 3.98369 1.37404 0
M  V30 3184 H 302.597 2.81052 1.60598 0
M  V30 3185 H 301.504 3.70289 -0.532633 0
M  V30 3186 H 302.837 4.87462 -0.681287 0
M  V30 3187 N 304.489 0.459591 1.5075 0
M  V30 3188 C 305.9 0.00171547 1.867 0
M  V30 3189 C 306.251 -1.39934 1.37525 0
M  V30 3190 O 305.376 -2.03523 0.735349 0
M  V30 3191 C 305.971 -0.00366298 3.388 0
M  V30 3192 C 304.53 -0.406026 3.74204 0
M  V30 3193 C 303.677 0.38673 2.7459 0
M  V30 3194 H 306.628 0.674413 1.43657 0
M  V30 3195 H 306.649 -0.808371 3.71814 0
M  V30 3196 H 306.161 1.01617 3.74561 0
M  V30 3197 H 304.262 -1.43063 3.4404 0
M  V30 3198 H 304.375 -0.115362 4.78961 0
M  V30 3199 H 302.739 -0.158019 2.54209 0
M  V30 3200 H 303.522 1.40585 3.13194 0
M  V30 3201 N 305.967 -1.56429 0.191757 0
M  V30 3202 C 307.197 -2.01574 -0.452928 0
M  V30 3203 C 307.605 -1.07107 -1.55964 0
M  V30 3204 O 306.948 -0.067534 -1.83576 0
M  V30 3205 C 307.01 -3.43121 -1.07278 0
M  V30 3206 C 306.674 -4.56879 -0.105214 0
M  V30 3207 C 307.671 -5.15379 0.684149 0
M  V30 3208 C 305.356 -5.023 0.00489824 0
M  V30 3209 C 307.35 -6.17746 1.57062 0
M  V30 3210 C 305.037 -6.04511 0.894935 0
M  V30 3211 C 306.035 -6.62108 1.67637 0
M  V30 3212 O 305.723 -7.62335 2.55149 0
M  V30 3213 H 305.455 -0.665554 -0.118379 0
M  V30 3214 H 308.009 -2.03245 0.296737 0
M  V30 3215 H 306.239 -3.38425 -1.87097 0
M  V30 3216 H 307.928 -3.72093 -1.62177 0
M  V30 3217 H 308.694 -4.81157 0.609365 0
M  V30 3218 H 304.573 -4.57168 -0.593156 0
M  V30 3219 H 308.117 -6.6263 2.181 0
M  V30 3220 H 304.014 -6.38157 0.970847 0
M  V30 3221 H 304.782 -7.79741 2.48892 0
M  V30 3222 N 307.445 0.0818655 -1.57387 0
M  V30 3223 C 308.692 0.782914 -1.86753 0
M  V30 3224 C 309.02 1.78082 -0.782118 0
M  V30 3225 O 308.275 1.94426 0.22295 0
M  V30 3226 C 308.574 1.53513 -3.22752 0
M  V30 3227 C 308.24 0.678134 -4.45771 0
M  V30 3228 C 306.902 0.441929 -4.79166 0
M  V30 3229 C 309.254 0.0832243 -5.21134 0
M  V30 3230 C 306.582 -0.398833 -5.85343 0
M  V30 3231 C 308.934 -0.744935 -6.28199 0
M  V30 3232 C 307.598 -0.991107 -6.60101 0
M  V30 3233 H 306.868 0.286489 -0.683378 0
M  V30 3234 H 309.515 0.0439808 -1.91449 0
M  V30 3235 H 307.82 2.34599 -3.138 0
M  V30 3236 H 309.517 2.08218 -3.42705 0
M  V30 3237 H 306.107 0.872357 -4.19628 0
M  V30 3238 H 310.291 0.252847 -4.95655 0
M  V30 3239 H 305.547 -0.598405 -6.08465 0
M  V30 3240 H 309.721 -1.21271 -6.8576 0
M  V30 3241 H 307.348 -1.64437 -7.42202 0
M  V30 3242 N 308.923 1.53595 0.353017 0
M  V30 3243 C 310.148 1.7462 1.11904 0
M  V30 3244 C 310.573 0.479721 1.8188 0
M  V30 3245 O 309.931 -0.567066 1.72204 0
M  V30 3246 C 309.979 2.92029 2.11545 0
M  V30 3247 O 309.083 2.61516 3.18878 0
M  V30 3248 H 308.424 0.579531 0.324099 0
M  V30 3249 H 310.954 2.00525 0.406301 0
M  V30 3250 H 310.964 3.18551 2.5493 0
M  V30 3251 H 309.639 3.83888 1.60008 0
M  V30 3252 H 308.216 2.45852 2.80377 0
M  V30 3253 N 310.401 -0.613514 1.45168 0
M  V30 3254 C 311.631 -1.39743 1.52169 0
M  V30 3255 C 312.039 -1.88596 0.151086 0
M  V30 3256 O 311.382 -1.6251 -0.856521 0
M  V30 3257 C 311.444 -2.64035 2.43979 0
M  V30 3258 C 311.108 -2.36861 3.90827 0
M  V30 3259 C 312.105 -1.97591 4.80889 0
M  V30 3260 C 309.79 -2.49956 4.35692 0
M  V30 3261 C 311.784 -1.71768 6.1382 0
M  V30 3262 C 309.471 -2.23747 5.68665 0
M  V30 3263 C 310.469 -1.84714 6.57548 0
M  V30 3264 O 310.157 -1.58809 7.88058 0
M  V30 3265 H 309.889 -0.434382 0.517966 0
M  V30 3266 H 312.443 -0.75587 1.90986 0
M  V30 3267 H 310.673 -3.3089 2.00122 0
M  V30 3268 H 312.362 -3.26069 2.41731 0
M  V30 3269 H 313.128 -1.87015 4.47493 0
M  V30 3270 H 309.007 -2.79305 3.66756 0
M  V30 3271 H 312.551 -1.41227 6.83155 0
M  V30 3272 H 308.448 -2.33938 6.01617 0
M  V30 3273 H 309.216 -1.7291 8.00028 0
M  V30 3274 N 311.879 -1.3236 -0.855495 0
M  V30 3275 C 313.104 -1.2601 -1.64731 0
M  V30 3276 C 313.529 0.169068 -1.87339 0
M  V30 3277 O 312.887 1.12016 -1.42556 0
M  V30 3278 C 312.935 -2.02417 -2.98429 0
M  V30 3279 O 312.039 -1.3714 -3.8893 0
M  V30 3280 H 311.38 -0.434325 -0.502253 0
M  V30 3281 H 313.91 -1.74661 -1.06558 0
M  V30 3282 H 313.92 -2.12559 -3.48257 0
M  V30 3283 H 312.595 -3.06343 -2.81295 0
M  V30 3284 H 311.172 -1.3554 -3.47395 0
M  V30 3285 N 313.357 1.07166 -1.15556 0
M  V30 3286 C 314.605 1.79443 -0.929764 0
M  V30 3287 C 314.926 1.87246 0.544414 0
M  V30 3288 O 314.196 1.37473 1.39564 0
M  V30 3289 H 312.776 0.664625 -0.341003 0
M  V30 3290 H 315.438 1.29499 -1.45657 0
M  V30 3291 H 314.534 2.81832 -1.34079 0
M  V30 3292 N 314.835 0.952656 1.25548 0
M  V30 3293 C 315.798 0.475794 2.24207 0
M  V30 3294 C 316.798 -0.419428 1.55234 0
M  V30 3295 O 317.988 -0.216994 1.72843 0
M  V30 3296 C 315.12 -0.312814 3.39462 0
M  V30 3297 H 316.313 1.34779 2.67908 0
M  V30 3298 H 313.866 0.735739 1.37901 0
M  V30 3299 H 314.601 -1.20257 3.01179 0
M  V30 3300 H 314.386 0.329404 3.90714 0
M  V30 3301 H 315.876 -0.635986 4.12729 0
M  V30 3302 N 316.313 -1.40141 0.720998 0
M  V30 3303 C 317.56 -2.00787 0.262842 0
M  V30 3304 C 317.888 -1.5718 -1.14563 0
M  V30 3305 O 317.143 -0.785391 -1.79249 0
M  V30 3306 C 317.442 -3.56165 0.296892 0
M  V30 3307 C 317.108 -4.19373 1.65641 0
M  V30 3308 C 315.77 -4.36352 2.02855 0
M  V30 3309 C 318.122 -4.54578 2.54968 0
M  V30 3310 C 315.45 -4.8582 3.28931 0
M  V30 3311 C 317.802 -5.05447 3.80402 0
M  V30 3312 C 316.466 -5.20635 4.17726 0
M  V30 3313 H 315.736 -0.734731 0.0961807 0
M  V30 3314 H 318.383 -1.67673 0.925093 0
M  V30 3315 H 316.688 -3.8922 -0.448932 0
M  V30 3316 H 318.385 -4.00929 -0.0755208 0
M  V30 3317 H 314.975 -4.06549 1.35704 0
M  V30 3318 H 319.159 -4.41091 2.27491 0
M  V30 3319 H 314.415 -4.95764 3.57811 0
M  V30 3320 H 318.589 -5.31663 4.49786 0
M  V30 3321 H 316.216 -5.58728 5.15487 0
M  V30 3322 N 317.792 -0.46758 -1.50504 0
M  V30 3323 C 318.739 0.328413 -2.28452 0
M  V30 3324 C 319.709 0.990313 -1.33349 0
M  V30 3325 O 320.894 1.00343 -1.62284 0
M  V30 3326 C 318.034 1.40648 -3.15138 0
M  V30 3327 C 317.147 0.759709 -4.25267 0
M  V30 3328 C 316.282 1.81537 -4.99217 0
M  V30 3329 C 315.321 1.14866 -6.01226 0
M  V30 3330 N 314.458 2.14702 -6.68467 0
M  V30 3331 H 319.298 -0.342603 -2.96024 0
M  V30 3332 H 316.835 -0.180801 -1.45985 0
M  V30 3333 H 318.793 2.04315 -3.63746 0
M  V30 3334 H 317.423 2.04671 -2.49619 0
M  V30 3335 H 316.475 0.0105671 -3.80399 0
M  V30 3336 H 317.787 0.233243 -4.98254 0
M  V30 3337 H 316.941 2.52793 -5.51526 0
M  V30 3338 H 315.68 2.37564 -4.25928 0
M  V30 3339 H 314.685 0.42171 -5.4818 0
M  V30 3340 H 315.91 0.595334 -6.76485 0
M  V30 3341 H 313.856 2.69752 -5.97972 0
M  V30 3342 H 313.773 1.6703 -7.37317 0
M  V30 3343 H 315.041 2.85348 -7.25394 0
M  V30 3344 N 319.27 1.56325 -0.20005 0
M  V30 3345 C 320.51 1.99619 0.439519 0
M  V30 3346 C 320.874 1.08423 1.58456 0
M  V30 3347 O 322.075 1.40973 2.28867 0
M  V30 3348 C 320.346 3.46314 0.883258 0
M  V30 3349 S 321.905 4.11634 1.51997 0
M  V30 3350 H 318.723 0.697007 0.140363 0
M  V30 3351 H 321.325 1.93118 -0.304282 0
M  V30 3352 H 320.029 4.10381 0.0398967 0
M  V30 3353 H 319.56 3.56643 1.6604 0
M  V30 3354 H 321.575 4.09049 2.8088 0
M  V30 3355 N 320.748 -0.0735177 1.57428 0
M  V30 3356 C 321.678 -1.0879 2.06608 0
M  V30 3357 C 322.659 -1.40473 0.959237 0
M  V30 3358 O 323.844 -1.5013 1.23185 0
M  V30 3359 C 320.974 -2.40183 2.50857 0
M  V30 3360 C 319.928 -2.22858 3.65402 0
M  V30 3361 C 319.254 -3.59619 3.957 0
M  V30 3362 C 320.554 -1.65123 4.95511 0
M  V30 3363 H 322.248 -0.678673 2.91607 0
M  V30 3364 H 319.794 -0.325013 1.40284 0
M  V30 3365 H 321.747 -3.11437 2.83874 0
M  V30 3366 H 320.471 -2.83083 1.62885 0
M  V30 3367 H 319.13 -1.54045 3.32664 0
M  V30 3368 H 318.778 -4.00086 3.04861 0
M  V30 3369 H 318.478 -3.48866 4.72828 0
M  V30 3370 H 320.002 -4.32306 4.31212 0
M  V30 3371 H 321.416 -2.26241 5.26771 0
M  V30 3372 H 319.813 -1.65071 5.7695 0
M  V30 3373 H 320.883 -0.612559 4.81015 0
M  V30 3374 N 322.226 -1.5378 -0.344866 0
M  V30 3375 C 323.642 -1.44015 -0.687888 0
M  V30 3376 C 323.842 -0.595834 -1.92489 0
M  V30 3377 O 322.898 -0.0863064 -2.52352 0
M  V30 3378 C 324.211 -2.87481 -0.881758 0
M  V30 3379 C 325.759 -2.97247 -0.980459 0
M  V30 3380 C 326.234 -4.41819 -1.20665 0
M  V30 3381 N 327.725 -4.45339 -1.27389 0
M  V30 3382 C 328.46 -5.54333 -1.46639 0
M  V30 3383 N 327.956 -6.73335 -1.63071 0
M  V30 3384 N 329.749 -5.41944 -1.49176 0
M  V30 3385 H 321.9 -2.07169 0.468475 0
M  V30 3386 H 324.163 -0.93643 0.147655 0
M  V30 3387 H 323.869 -3.51672 -0.0443444 0
M  V30 3388 H 323.743 -3.32352 -1.78388 0
M  V30 3389 H 326.13 -2.33197 -1.8084 0
M  V30 3390 H 326.211 -2.5574 -0.0552713 0
M  V30 3391 H 325.855 -5.06449 -0.383652 0
M  V30 3392 H 325.785 -4.80917 -2.14539 0
M  V30 3393 H 328.276 -3.59585 -1.1622 0
M  V30 3394 H 328.589 -7.52165 -1.77391 0
M  V30 3395 H 326.934 -6.76282 -1.60209 0
M  V30 3396 H 330.125 -4.47932 -1.3592 0
M  V30 3397 H 330.298 -6.26946 -1.63837 0
M  V30 3398 N 323.704 0.605807 -1.45491 0
M  V30 3399 C 324.981 1.36522 -1.40075 0
M  V30 3400 C 325.361 2.10976 -0.0722744 0
M  V30 3401 O 324.709 2.08007 0.945808 0
M  V30 3402 C 324.919 2.31056 -2.61561 0
M  V30 3403 C 326.267 2.93608 -3.06724 0
M  V30 3404 O 327.291 2.41376 -2.61946 0
M  V30 3405 O 326.15 3.88421 -3.84437 0
M  V30 3406 H 323.244 0.612248 -0.555951 0
M  V30 3407 H 325.79 0.628747 -1.57623 0
M  V30 3408 H 324.562 1.75311 -3.49831 0
M  V30 3409 H 324.185 3.12081 -2.46356 0
M  V30 3410 N 325.182 1.32811 0.848464 0
M  V30 3411 C 326.43 1.23479 1.59991 0
M  V30 3412 C 326.751 -0.201853 1.93952 0
M  V30 3413 O 326.021 -1.12818 1.60153 0
M  V30 3414 H 324.601 0.454034 0.593179 0
M  V30 3415 H 327.263 1.66412 1.01455 0
M  V30 3416 H 326.359 1.82178 2.53412 0
M  V30 3417 N 326.66 -1.06551 1.16123 0
M  V30 3418 C 327.623 -2.12132 0.867906 0
M  V30 3419 C 328.623 -1.60224 -0.135944 0
M  V30 3420 O 329.813 -1.73943 0.0946422 0
M  V30 3421 C 326.945 -3.396 0.297419 0
M  V30 3422 H 328.138 -2.39586 1.80385 0
M  V30 3423 H 325.691 -1.22574 0.969812 0
M  V30 3424 H 326.426 -3.17794 -0.64633 0
M  V30 3425 H 326.211 -3.78581 1.02073 0
M  V30 3426 H 327.701 -4.17455 0.110052 0
M  V30 3427 N 328.138 -0.959301 -1.25041 0
M  V30 3428 C 329.386 -0.615393 -1.92503 0
M  V30 3429 C 329.707 0.850969 -1.75452 0
M  V30 3430 O 328.977 1.60658 -1.12098 0
M  V30 3431 H 327.557 -0.224613 -0.712431 0
M  V30 3432 H 330.219 -1.21855 -1.5211 0
M  V30 3433 H 329.315 -0.848738 -3.00338 0
M  V30 3434 N 329.616 1.39756 -0.72842 0
M  V30 3435 C 330.893 1.94574 -0.200079 0
M  V30 3436 C 331.273 1.66569 1.29684 0
M  V30 3437 O 330.621 0.990326 2.05924 0
M  V30 3438 C 330.831 3.45004 -0.526608 0
M  V30 3439 C 332.179 4.21965 -0.472318 0
M  V30 3440 O 333.203 3.53173 -0.463413 0
M  V30 3441 O 332.062 5.44552 -0.461075 0
M  V30 3442 H 329.156 0.826289 -0.0342851 0
M  V30 3443 H 331.702 1.49293 -0.806829 0
M  V30 3444 H 330.474 3.58796 -1.56144 0
M  V30 3445 H 330.097 3.97449 0.109449 0
M  V30 3446 N 331.094 0.475555 1.50254 0
M  V30 3447 C 332.34 -0.0780073 2.0265 0
M  V30 3448 C 332.673 -1.38968 1.35652 0
M  V30 3449 O 331.948 -1.8839 0.483691 0
M  V30 3450 C 332.231 -0.257161 3.59181 0
M  V30 3451 C 332.084 1.07585 4.36744 0
M  V30 3452 C 333.403 -1.00965 4.28362 0
M  V30 3453 H 330.522 -0.0268758 0.73651 0
M  V30 3454 H 333.164 0.622015 1.7953 0
M  V30 3455 H 331.314 -0.853412 3.79011 0
M  V30 3456 H 332.986 1.70902 4.28474 0
M  V30 3457 H 331.229 1.6714 4.00308 0
M  V30 3458 H 331.9 0.904088 5.44546 0
M  V30 3459 H 334.376 -0.504214 4.13034 0
M  V30 3460 H 333.252 -1.10381 5.37687 0
M  V30 3461 H 333.513 -2.04731 3.91839 0
M  V30 3462 N 332.573 -1.56217 0.208337 0
M  V30 3463 C 333.536 -2.18455 -0.693557 0
M  V30 3464 C 334.536 -1.14268 -1.13135 0
M  V30 3465 O 335.726 -1.39577 -1.0423 0
M  V30 3466 C 332.858 -2.79727 -1.94848 0
M  V30 3467 H 334.051 -2.99519 -0.15114 0
M  V30 3468 H 331.604 -1.56245 -0.041287 0
M  V30 3469 H 332.339 -2.02497 -2.53309 0
M  V30 3470 H 332.124 -3.56009 -1.64316 0
M  V30 3471 H 333.614 -3.27475 -2.59133 0
M  V30 3472 N 334.051 0.0651679 -1.57465 0
M  V30 3473 C 335.298 0.763063 -1.87573 0
M  V30 3474 C 335.626 1.77242 -0.800961 0
M  V30 3475 O 334.881 1.94651 0.202316 0
M  V30 3476 C 335.18 1.50081 -3.24362 0
M  V30 3477 C 334.846 0.630816 -4.46466 0
M  V30 3478 C 333.508 0.391082 -4.79608 0
M  V30 3479 C 335.86 0.0279465 -5.21193 0
M  V30 3480 C 333.188 -0.460894 -5.84887 0
M  V30 3481 C 335.54 -0.811522 -6.27373 0
M  V30 3482 C 334.204 -1.06106 -6.59013 0
M  V30 3483 H 333.474 0.279224 -0.686378 0
M  V30 3484 H 336.121 0.0236726 -1.91485 0
M  V30 3485 H 334.426 2.31258 -3.16271 0
M  V30 3486 H 336.123 2.04571 -3.44894 0
M  V30 3487 H 332.713 0.8278 -4.2053 0
M  V30 3488 H 336.897 0.200262 -4.95896 0
M  V30 3489 H 332.153 -0.662907 -6.07796 0
M  V30 3490 H 336.327 -1.28537 -6.84435 0
M  V30 3491 H 333.954 -1.723 -7.40417 0
M  V30 3492 N 335.529 1.53961 0.336706 0
M  V30 3493 C 336.778 1.70751 1.07363 0
M  V30 3494 C 337.091 0.481061 1.89592 0
M  V30 3495 O 338.297 0.530046 2.66276 0
M  V30 3496 C 336.753 3.01965 1.95818 0
M  V30 3497 C 336.361 4.31971 1.18764 0
M  V30 3498 C 338.105 3.28121 2.69327 0
M  V30 3499 C 336.012 5.54255 2.06289 0
M  V30 3500 H 334.942 0.636292 0.404535 0
M  V30 3501 H 337.593 1.80459 0.332681 0
M  V30 3502 H 335.975 2.86132 2.7376 0
M  V30 3503 H 337.149 4.5853 0.456849 0
M  V30 3504 H 335.464 4.12481 0.569946 0
M  V30 3505 H 338.061 4.16673 3.35094 0
M  V30 3506 H 338.404 2.45426 3.36261 0
M  V30 3507 H 338.937 3.44762 1.98454 0
M  V30 3508 H 335.676 6.39513 1.43885 0
M  V30 3509 H 335.196 5.31935 2.77138 0
M  V30 3510 H 336.875 5.90159 2.65182 0
M  V30 3511 N 337.007 -0.598083 1.45811 0
M  V30 3512 C 338.423 -0.919847 1.30426 0
M  V30 3513 C 338.623 -1.99759 0.264303 0
M  V30 3514 O 337.679 -2.50221 -0.338472 0
M  V30 3515 C 338.992 -1.35176 2.68603 0
M  V30 3516 C 340.54 -1.46546 2.76574 0
M  V30 3517 C 341.015 -1.9311 4.15298 0
M  V30 3518 N 342.506 -2.00328 4.1764 0
M  V30 3519 C 343.241 -2.37599 5.21856 0
M  V30 3520 N 342.737 -2.73771 6.36413 0
M  V30 3521 N 344.53 -2.38021 5.09218 0
M  V30 3522 H 336.681 0.114111 2.12093 0
M  V30 3523 H 338.944 -0.0116121 0.947929 0
M  V30 3524 H 338.65 -0.633969 3.45939 0
M  V30 3525 H 338.524 -2.3164 2.97696 0
M  V30 3526 H 340.911 -2.17415 1.99537 0
M  V30 3527 H 340.992 -0.483727 2.51185 0
M  V30 3528 H 340.636 -1.22824 4.92825 0
M  V30 3529 H 340.566 -2.92213 4.38086 0
M  V30 3530 H 343.057 -1.74925 3.34977 0
M  V30 3531 H 343.37 -3.0112 7.11721 0
M  V30 3532 H 341.715 -2.71445 6.39799 0
M  V30 3533 H 344.906 -2.09174 4.18765 0
M  V30 3534 H 345.079 -2.66741 5.90554 0
M  V30 3535 N 338.485 -1.33259 -0.841409 0
M  V30 3536 C 339.395 -1.25332 -1.98316 0
M  V30 3537 C 340.411 -0.164364 -1.73222 0
M  V30 3538 O 341.587 -0.387486 -1.97637 0
M  V30 3539 C 338.652 -0.990078 -3.32262 0
M  V30 3540 C 337.713 -2.16879 -3.70489 0
M  V30 3541 C 336.946 -1.91801 -4.98044 0
M  V30 3542 O 337.169 -0.867075 -5.63771 0
M  V30 3543 O 336.103 -2.78267 -5.33714 0
M  V30 3544 H 339.929 -2.21344 -2.07944 0
M  V30 3545 H 337.514 -1.1328 -0.974058 0
M  V30 3546 H 339.396 -0.860321 -4.12524 0
M  V30 3547 H 338.071 -0.0602155 -3.23644 0
M  V30 3548 H 336.978 -2.35407 -2.90748 0
M  V30 3549 H 338.311 -3.0819 -3.8377 0
M  V30 3550 N 339.963 1.05934 -1.16686 0
M  V30 3551 C 341.188 1.83029 -0.975455 0
M  V30 3552 C 341.613 1.82096 0.471452 0
M  V30 3553 O 340.971 1.22443 1.33706 0
M  V30 3554 C 341.019 3.27372 -1.51195 0
M  V30 3555 O 340.123 4.06054 -0.720701 0
M  V30 3556 H 339.464 0.566194 -0.346872 0
M  V30 3557 H 341.994 1.33541 -1.55009 0
M  V30 3558 H 342.004 3.78186 -1.53099 0
M  V30 3559 H 340.679 3.27366 -2.56523 0
M  V30 3560 H 339.256 3.64812 -0.772458 0
M  V30 3561 N 341.441 0.965919 1.2453 0
M  V30 3562 C 342.669 0.644385 1.96609 0
M  V30 3563 C 343.084 -0.785823 1.71669 0
M  V30 3564 O 342.441 -1.52703 0.999399 0
M  V30 3565 C 342.492 0.907375 3.49927 0
M  V30 3566 O 342.213 2.28136 3.74013 0
M  V30 3567 C 343.714 0.599784 4.39224 0
M  V30 3568 H 340.934 0.240588 0.626385 0
M  V30 3569 H 343.478 1.29337 1.58405 0
M  V30 3570 H 341.633 0.304631 3.862 0
M  V30 3571 H 342.047 2.36002 4.68405 0
M  V30 3572 H 343.521 0.834263 5.45659 0
M  V30 3573 H 343.998 -0.465921 4.36722 0
M  V30 3574 H 344.604 1.18235 4.08535 0
M  V30 3575 N 342.919 -1.39368 0.735821 0
M  V30 3576 C 344.165 -2.00794 0.284544 0
M  V30 3577 C 344.498 -1.58255 -1.12557 0
M  V30 3578 O 343.773 -0.811819 -1.76748 0
M  V30 3579 C 344.056 -3.58011 0.387337 0
M  V30 3580 C 343.909 -4.10566 1.83728 0
M  V30 3581 C 345.228 -4.395 -0.22975 0
M  V30 3582 H 342.347 -0.729501 0.104866 0
M  V30 3583 H 344.989 -1.65564 0.93213 0
M  V30 3584 H 343.139 -3.88154 -0.164006 0
M  V30 3585 H 344.811 -3.91139 2.44556 0
M  V30 3586 H 343.054 -3.64095 2.35833 0
M  V30 3587 H 343.725 -5.19702 1.86047 0
M  V30 3588 H 346.201 -4.15406 0.240257 0
M  V30 3589 H 345.077 -5.48752 -0.127485 0
M  V30 3590 H 345.338 -4.22062 -1.3159 0
M  V30 3591 N 344.397 -0.483516 -1.5 0
M  V30 3592 C 345.644 0.0671597 -2.02389 0
M  V30 3593 C 345.972 1.38597 -1.36459 0
M  V30 3594 O 345.227 1.89634 -0.483458 0
M  V30 3595 C 345.526 0.286226 -3.56252 0
M  V30 3596 C 345.192 -0.952416 -4.40726 0
M  V30 3597 C 343.854 -1.29199 -4.63531 0
M  V30 3598 C 346.206 -1.77655 -4.89988 0
M  V30 3599 C 343.534 -2.45553 -5.32842 0
M  V30 3600 C 345.886 -2.93147 -5.60578 0
M  V30 3601 C 344.55 -3.27505 -5.81633 0
M  V30 3602 H 343.82 0.0245755 -0.740592 0
M  V30 3603 H 346.467 -0.640124 -1.80485 0
M  V30 3604 H 344.772 1.07587 -3.76739 0
M  V30 3605 H 346.469 0.726473 -3.94365 0
M  V30 3606 H 343.059 -0.677881 -4.23205 0
M  V30 3607 H 347.243 -1.52737 -4.72213 0
M  V30 3608 H 342.499 -2.72431 -5.47349 0
M  V30 3609 H 346.673 -3.57344 -5.97727 0
M  V30 3610 H 344.3 -4.1777 -6.35116 0
M  V30 3611 N 345.875 1.56104 -0.216619 0
M  V30 3612 C 346.785 2.23694 0.706982 0
M  V30 3613 C 347.801 1.24295 1.21765 0
M  V30 3614 O 348.977 1.57094 1.2603 0
M  V30 3615 C 346.042 2.8998 1.90033 0
M  V30 3616 C 345.103 4.04708 1.43213 0
M  V30 3617 C 344.336 4.67824 2.56859 0
M  V30 3618 O 344.559 4.29913 3.74874 0
M  V30 3619 O 343.493 5.56905 2.28343 0
M  V30 3620 H 347.319 3.03272 0.161235 0
M  V30 3621 H 344.904 1.49394 0.0136177 0
M  V30 3622 H 346.786 3.31837 2.59735 0
M  V30 3623 H 345.461 2.13365 2.43428 0
M  V30 3624 H 344.368 3.6743 0.70327 0
M  V30 3625 H 345.701 4.83051 0.944615 0
M  V30 3626 N 347.353 -0.0568162 1.57498 0
M  V30 3627 C 348.63 -0.786954 1.79071 0
M  V30 3628 C 349.01 -1.95028 0.80792 0
M  V30 3629 O 348.358 -2.27968 -0.155858 0
M  V30 3630 C 348.568 -1.24594 3.26002 0
M  V30 3631 C 349.916 -1.67323 3.90241 0
M  V30 3632 O 350.94 -1.34124 3.29984 0
M  V30 3633 O 349.799 -2.28842 4.9628 0
M  V30 3634 H 346.893 -0.378262 0.735423 0
M  V30 3635 H 349.439 -0.035734 1.69662 0
M  V30 3636 H 348.211 -0.41423 3.89101 0
M  V30 3637 H 347.834 -2.05803 3.40192 0
M  V30 3638 N 348.832 -1.54138 -0.328536 0
M  V30 3639 C 349.762 -1.86167 -1.40939 0
M  V30 3640 C 350.743 -0.718044 -1.54202 0
M  V30 3641 O 351.928 -0.971328 -1.68163 0
M  V30 3642 C 349.058 -2.08461 -2.77779 0
M  V30 3643 C 348.012 -3.24299 -2.7931 0
M  V30 3644 C 347.338 -3.31955 -4.19178 0
M  V30 3645 C 348.638 -4.62065 -2.43502 0
M  V30 3646 H 350.332 -2.76689 -1.14383 0
M  V30 3647 H 347.878 -1.33132 -0.548806 0
M  V30 3648 H 349.831 -2.29453 -3.53454 0
M  V30 3649 H 348.555 -1.14684 -3.05802 0
M  V30 3650 H 347.214 -3.03187 -2.0609 0
M  V30 3651 H 346.862 -2.35745 -4.44335 0
M  V30 3652 H 346.562 -4.09805 -4.2111 0
M  V30 3653 H 348.086 -3.55175 -4.96672 0
M  V30 3654 H 349.5 -4.8297 -3.08889 0
M  V30 3655 H 347.897 -5.42429 -2.56693 0
M  V30 3656 H 348.967 -4.64652 -1.38659 0
M  V30 3657 N 350.31 0.590341 -1.46126 0
M  V30 3658 C 351.535 1.37991 -1.54833 0
M  V30 3659 C 351.96 1.87163 -0.187506 0
M  V30 3660 O 351.318 1.61133 0.831008 0
M  V30 3661 C 351.366 2.54867 -2.55098 0
M  V30 3662 O 350.47 3.56061 -2.08073 0
M  V30 3663 H 349.811 0.411265 -0.521303 0
M  V30 3664 H 352.341 0.716819 -1.91632 0
M  V30 3665 H 352.351 3.01886 -2.74461 0
M  V30 3666 H 351.026 2.18429 -3.53923 0
M  V30 3667 H 349.603 3.15574 -1.98664 0
M  V30 3668 N 351.788 1.33704 0.83433 0
M  V30 3669 C 353.065 1.16011 1.57483 0
M  V30 3670 C 353.445 -0.27176 2.09343 0
M  V30 3671 O 352.793 -1.27146 1.89858 0
M  V30 3672 C 353.003 2.20507 2.70514 0
M  V30 3673 C 354.351 2.54898 3.39577 0
M  V30 3674 O 355.375 2.19209 2.80759 0
M  V30 3675 O 354.234 3.16158 4.45765 0
M  V30 3676 H 351.328 0.448992 0.694503 0
M  V30 3677 H 353.874 1.453 0.876691 0
M  V30 3678 H 352.646 3.16667 2.29865 0
M  V30 3679 H 352.269 1.92329 3.47987 0
M  V30 3680 N 353.266 -1.05314 1.17247 0
M  V30 3681 C 354.176 -2.16538 0.90268 0
M  V30 3682 C 355.192 -1.73523 -0.128707 0
M  V30 3683 O 356.368 -2.01337 0.0502701 0
M  V30 3684 C 353.433 -3.44167 0.418356 0
M  V30 3685 C 352.494 -4.01635 1.51618 0
M  V30 3686 C 351.727 -5.23171 1.05487 0
M  V30 3687 O 351.95 -5.70327 -0.0914715 0
M  V30 3688 O 350.884 -5.72848 1.8474 0
M  V30 3689 H 354.71 -2.42145 1.83302 0
M  V30 3690 H 352.295 -1.15037 0.953246 0
M  V30 3691 H 354.177 -4.21112 0.155726 0
M  V30 3692 H 352.852 -3.20063 -0.48385 0
M  V30 3693 H 351.759 -3.26135 1.83268 0
M  V30 3694 H 353.092 -4.30053 2.39405 0
M  V30 3695 N 354.744 -0.972509 -1.24016 0
M  V30 3696 C 355.707 -0.511403 -2.23422 0
M  V30 3697 C 356.707 0.394679 -1.55881 0
M  V30 3698 O 357.897 0.189469 -1.73167 0
M  V30 3699 C 355.029 0.258769 -3.39916 0
M  V30 3700 H 356.222 -1.39024 -2.6573 0
M  V30 3701 H 353.775 -0.757585 -1.36713 0
M  V30 3702 H 354.51 1.1545 -3.03054 0
M  V30 3703 H 354.295 -0.391522 -3.9014 0
M  V30 3704 H 355.785 0.570244 -4.13688 0
M  V30 3705 N 356.222 1.38976 -0.743202 0
M  V30 3706 C 357.132 2.3434 -0.110399 0
M  V30 3707 C 358.148 1.58741 0.712559 0
M  V30 3708 O 359.324 1.9099 0.639125 0
M  V30 3709 C 356.389 3.37812 0.780012 0
M  V30 3710 C 355.45 4.29263 -0.0561319 0
M  V30 3711 C 354.683 5.27793 0.791875 0
M  V30 3712 O 354.906 5.33043 2.03031 0
M  V30 3713 O 353.84 6.01512 0.216183 0
M  V30 3714 H 357.666 2.90129 -0.897714 0
M  V30 3715 H 355.251 1.40643 -0.503966 0
M  V30 3716 H 357.133 4.01194 1.28923 0
M  V30 3717 H 355.808 2.84395 1.546 0
M  V30 3718 H 354.715 3.69076 -0.611056 0
M  V30 3719 H 356.048 4.85907 -0.784531 0
M  V30 3720 N 357.7 0.491464 1.49741 0
M  V30 3721 C 359.116 0.146835 1.58923 0
M  V30 3722 C 359.316 -1.34804 1.49767 0
M  V30 3723 O 358.372 -2.12317 1.36667 0
M  V30 3724 C 359.685 0.715157 2.92072 0
M  V30 3725 C 361.233 0.680407 3.05515 0
M  V30 3726 C 361.708 1.22663 4.41269 0
M  V30 3727 N 363.199 1.18691 4.47735 0
M  V30 3728 C 363.934 1.57984 5.51207 0
M  V30 3729 N 363.43 2.04824 6.6183 0
M  V30 3730 N 365.223 1.49459 5.41866 0
M  V30 3731 H 357.374 1.46347 1.53936 0
M  V30 3732 H 359.637 0.606453 0.728642 0
M  V30 3733 H 359.343 1.76317 3.04311 0
M  V30 3734 H 359.217 0.17018 3.76816 0
M  V30 3735 H 361.604 -0.358743 2.92911 0
M  V30 3736 H 361.685 1.26242 2.22478 0
M  V30 3737 H 361.329 2.26451 4.54623 0
M  V30 3738 H 361.259 0.620637 5.2293 0
M  V30 3739 H 363.75 0.843605 3.68364 0
M  V30 3740 H 364.063 2.32901 7.3687 0
M  V30 3741 H 362.408 2.08791 6.62896 0
M  V30 3742 H 365.599 1.12692 4.54333 0
M  V30 3743 H 365.772 1.80406 6.22381 0
M  V30 3744 N 359.178 -1.55987 0.224894 0
M  V30 3745 C 360.455 -1.90232 -0.455083 0
M  V30 3746 C 360.835 -1.14269 -1.77499 0
M  V30 3747 O 360.183 -0.253079 -2.27094 0
M  V30 3748 C 360.393 -3.42993 -0.644758 0
M  V30 3749 C 361.741 -4.13821 -0.950669 0
M  V30 3750 O 362.765 -3.4861 -0.731423 0
M  V30 3751 O 361.624 -5.29128 -1.36695 0
M  V30 3752 H 358.718 -0.79108 -0.241084 0
M  V30 3753 H 361.264 -1.67581 0.267327 0
M  V30 3754 H 360.036 -3.90252 0.28613 0
M  V30 3755 H 359.659 -3.71434 -1.41853 0
M  V30 3756 N 360.656 0.0484629 -1.57525 0
M  V30 3757 C 361.566 1.07241 -2.08654 0
M  V30 3758 C 362.582 1.409 -1.02095 0
M  V30 3759 O 363.758 1.50609 -1.33712 0
M  V30 3760 C 360.823 2.36008 -2.5397 0
M  V30 3761 C 359.884 2.09108 -3.7493 0
M  V30 3762 C 359.117 3.31736 -4.18075 0
M  V30 3763 O 359.34 4.41714 -3.60895 0
M  V30 3764 O 358.274 3.18576 -5.10679 0
M  V30 3765 H 362.1 0.667965 -2.96263 0
M  V30 3766 H 359.685 0.26417 -1.47046 0
M  V30 3767 H 361.567 3.11747 -2.83535 0
M  V30 3768 H 360.242 2.75786 -1.69481 0
M  V30 3769 H 359.149 1.31 -3.50414 0
M  V30 3770 H 360.482 1.74198 -4.60343 0
M  V30 3771 N 362.134 1.5431 0.320358 0
M  V30 3772 C 363.364 1.7638 1.07582 0
M  V30 3773 C 363.772 0.513944 1.82086 0
M  V30 3774 O 363.115 -0.525123 1.76035 0
M  V30 3775 C 363.177 2.9055 2.1171 0
M  V30 3776 C 362.841 4.2934 1.56575 0
M  V30 3777 C 363.838 5.10077 1.00586 0
M  V30 3778 C 361.523 4.75893 1.60722 0
M  V30 3779 C 363.517 6.35477 0.494756 0
M  V30 3780 C 361.204 6.0126 1.09224 0
M  V30 3781 C 362.202 6.80886 0.53696 0
M  V30 3782 O 361.89 8.03894 0.0297371 0
M  V30 3783 H 361.622 0.592369 0.325692 0
M  V30 3784 H 364.176 2.02019 0.37116 0
M  V30 3785 H 362.406 2.60489 2.85801 0
M  V30 3786 H 364.095 3.00373 2.73003 0
M  V30 3787 H 364.861 4.75265 0.966869 0
M  V30 3788 H 360.74 4.13957 2.02882 0
M  V30 3789 H 364.284 6.97574 0.0606842 0
M  V30 3790 H 360.181 6.35562 1.12831 0
M  V30 3791 H 360.949 8.18372 0.14486 0
M  V30 3792 N 363.613 -0.582584 1.46437 0
M  V30 3793 C 364.523 -1.71949 1.59595 0
M  V30 3794 C 365.539 -1.67264 0.479443 0
M  V30 3795 O 366.715 -1.87171 0.743579 0
M  V30 3796 C 363.78 -3.08452 1.58298 0
M  V30 3797 C 362.841 -3.244 2.81182 0
M  V30 3798 C 362.074 -4.54391 2.79937 0
M  V30 3799 O 362.297 -5.38287 1.8869 0
M  V30 3800 O 361.231 -4.73588 3.71481 0
M  V30 3801 H 365.057 -1.63795 2.55744 0
M  V30 3802 H 362.642 -0.749643 1.29231 0
M  V30 3803 H 364.524 -3.89732 1.60271 0
M  V30 3804 H 363.199 -3.17043 0.653094 0
M  V30 3805 H 362.106 -2.42613 2.84763 0
M  V30 3806 H 363.439 -3.20699 3.7338 0
M  V30 3807 N 365.091 -1.34144 -0.827227 0
M  V30 3808 C 366.021 -1.28005 -1.95287 0
M  V30 3809 C 367.002 -0.158321 -1.69362 0
M  V30 3810 O 368.187 -0.349987 -1.9102 0
M  V30 3811 C 365.317 -1.03036 -3.31664 0
M  V30 3812 C 364.271 -2.11628 -3.72019 0
M  V30 3813 C 363.597 -1.71854 -5.0633 0
M  V30 3814 C 364.897 -3.53417 -3.8457 0
M  V30 3815 H 366.591 -2.22187 -2.00682 0
M  V30 3816 H 364.137 -1.0696 -0.964135 0
M  V30 3817 H 366.09 -0.973863 -4.09993 0
M  V30 3818 H 364.814 -0.0529391 -3.26557 0
M  V30 3819 H 363.473 -2.16339 -2.95961 0
M  V30 3820 H 363.121 -0.727841 -4.97706 0
M  V30 3821 H 362.821 -2.44531 -5.34302 0
M  V30 3822 H 364.345 -1.67692 -5.87122 0
M  V30 3823 H 365.759 -3.51142 -4.5318 0
M  V30 3824 H 364.156 -4.24679 -4.2399 0
M  V30 3825 H 365.226 -3.91072 -2.86689 0
M  V30 3826 N 366.569 1.04691 -1.17803 0
M  V30 3827 C 367.499 2.14494 -0.92275 0
M  V30 3828 C 368.48 1.69546 0.137179 0
M  V30 3829 O 369.665 1.94195 -0.0141108 0
M  V30 3830 C 366.795 3.44491 -0.440803 0
M  V30 3831 C 365.749 4.03031 -1.4405 0
M  V30 3832 C 365.075 5.28432 -0.81631 0
M  V30 3833 C 366.375 4.39932 -2.81527 0
M  V30 3834 H 368.069 2.36107 -1.84103 0
M  V30 3835 H 365.615 1.1347 -0.886599 0
M  V30 3836 H 367.568 4.2066 -0.249602 0
M  V30 3837 H 366.292 3.22546 0.513025 0
M  V30 3838 H 364.951 3.28937 -1.61853 0
M  V30 3839 H 364.599 5.02792 0.144511 0
M  V30 3840 H 364.299 5.68559 -1.48371 0
M  V30 3841 H 365.823 6.07284 -0.635496 0
M  V30 3842 H 367.237 5.07113 -2.67412 0
M  V30 3843 H 365.634 4.9109 -3.44892 0
M  V30 3844 H 366.704 3.50045 -3.35554 0
M  V30 3845 N 368.047 0.979072 1.23499 0
M  V30 3846 C 369.287 0.655228 1.93613 0
M  V30 3847 C 369.651 -0.796336 1.74707 0
M  V30 3848 O 370.852 -1.23094 2.38959 0
M  V30 3849 C 369.123 1.03337 3.42135 0
M  V30 3850 S 370.682 0.825793 4.3096 0
M  V30 3851 H 367.5 0.240004 0.669267 0
M  V30 3852 H 370.102 1.25843 1.49612 0
M  V30 3853 H 368.806 2.08646 3.53405 0
M  V30 3854 H 368.337 0.421397 3.91137 0
M  V30 3855 H 370.352 -0.290991 4.95346 0
M  V30 3856 N 369.525 -1.3858 0.750561 0
M  V30 3857 C 370.936 -1.82927 0.373438 0
M  V30 3858 C 371.287 -1.62634 -1.09748 0
M  V30 3859 O 370.412 -1.12588 -1.84805 0
M  V30 3860 C 371.007 -3.32088 0.671029 0
M  V30 3861 C 369.566 -3.74795 0.34722 0
M  V30 3862 C 368.713 -2.61391 0.92575 0
M  V30 3863 H 371.664 -1.27351 0.946958 0
M  V30 3864 H 371.685 -3.80465 -0.0518269 0
M  V30 3865 H 371.197 -3.46826 1.74164 0
M  V30 3866 H 369.298 -3.65638 -0.716933 0
M  V30 3867 H 369.411 -4.71667 0.840656 0
M  V30 3868 H 367.775 -2.52265 0.351327 0
M  V30 3869 H 368.558 -2.78929 2.00133 0
M  V30 3870 N 371.003 -0.499398 -1.49478 0
M  V30 3871 C 372.28 0.108629 -1.95298 0
M  V30 3872 C 372.66 1.54282 -1.44084 0
M  V30 3873 O 372.008 2.18944 -0.653908 0
M  V30 3874 C 372.218 0.0229111 -3.48992 0
M  V30 3875 C 373.566 0.197643 -4.2414 0
M  V30 3876 O 374.59 0.0981735 -3.56065 0
M  V30 3877 O 373.449 0.401669 -5.45022 0
M  V30 3878 H 370.543 0.096181 -0.821388 0
M  V30 3879 H 373.089 -0.561822 -1.6013 0
M  V30 3880 H 371.861 -0.977321 -3.78899 0
M  V30 3881 H 371.484 0.733579 -3.90774 0
M  V30 3882 N 372.481 1.55866 -0.233164 0
M  V30 3883 C 373.429 2.22176 0.68851 0
M  V30 3884 C 374.423 1.20487 1.19076 0
M  V30 3885 O 375.629 1.38536 1.14925 0
M  V30 3886 H 372.004 0.712511 0.240483 0
M  V30 3887 H 373.975 2.98212 0.105935 0
M  V30 3888 C 372.724 2.92446 1.88071 0
M  V30 3889 H 372.047 3.70458 1.50337 0
M  V30 3890 H 373.487 3.42226 2.50314 0
M  V30 3891 C 371.946 1.95555 2.74335 0
M  V30 3892 O 372.476 1.47986 3.73447 0
M  V30 3893 N 370.682 1.62953 2.40613 0
M  V30 3894 H 370.229 2.01831 1.60069 0
M  V30 3895 H 370.187 0.983886 2.98609 0
M  V30 3896 N 373.959 -0.0401083 1.57549 0
M  V30 3897 C 375.187 -0.745196 1.93014 0
M  V30 3898 C 375.602 -1.6948 0.831984 0
M  V30 3899 O 374.959 -1.81482 -0.192463 0
M  V30 3900 C 375.01 -1.51176 3.28372 0
M  V30 3901 O 374.731 -0.600284 4.33968 0
M  V30 3902 C 376.232 -2.315 3.78051 0
M  V30 3903 H 373.452 -0.210088 0.637263 0
M  V30 3904 H 375.996 -0.000924689 2.045 0
M  V30 3905 H 374.151 -2.20801 3.18317 0
M  V30 3906 H 374.565 -1.13669 5.12035 0
M  V30 3907 H 376.039 -2.80697 4.75303 0
M  V30 3908 H 376.516 -3.12436 3.08675 0
M  V30 3909 H 377.122 -1.66971 3.91153 0
M  V30 3910 N 375.437 -1.54477 -0.31217 0
M  V30 3911 C 376.853 -1.45442 -0.657185 0
M  V30 3912 C 377.053 -0.63653 -1.91182 0
M  V30 3913 O 376.109 -0.139815 -2.52113 0
M  V30 3914 C 377.422 -2.89287 -0.82058 0
M  V30 3915 C 378.97 -2.9926 -0.917188 0
M  V30 3916 C 379.445 -4.44279 -1.11267 0
M  V30 3917 N 380.936 -4.4794 -1.17914 0
M  V30 3918 C 381.671 -5.57318 -1.34848 0
M  V30 3919 N 381.167 -6.76642 -1.48752 0
M  V30 3920 N 382.96 -5.44986 -1.37647 0
M  V30 3921 H 375.111 -2.06129 0.512313 0
M  V30 3922 H 377.374 -0.933088 0.167485 0
M  V30 3923 H 377.08 -3.51687 0.0302604 0
M  V30 3924 H 376.954 -3.36061 -1.71298 0
M  V30 3925 H 379.341 -2.36981 -1.75852 0
M  V30 3926 H 379.422 -2.558 -0.00101257 0
M  V30 3927 H 379.066 -5.07149 -0.27614 0
M  V30 3928 H 378.996 -4.85359 -2.04289 0
M  V30 3929 H 381.487 -3.61969 -1.08567 0
M  V30 3930 H 381.8 -7.55758 -1.61397 0
M  V30 3931 H 380.145 -6.79529 -1.45828 0
M  V30 3932 H 383.336 -4.50715 -1.26388 0
M  V30 3933 H 383.509 -6.3028 -1.50501 0
M  V30 3934 N 376.915 0.57481 -1.46744 0
M  V30 3935 C 377.862 1.68329 -1.57905 0
M  V30 3936 C 378.832 1.60625 -0.422927 0
M  V30 3937 O 380.017 1.79721 -0.640711 0
M  V30 3938 C 377.157 3.06665 -1.58274 0
M  V30 3939 C 376.27 3.24935 -2.84678 0
M  V30 3940 C 375.405 4.53566 -2.76499 0
M  V30 3941 C 374.444 4.65207 -3.97806 0
M  V30 3942 N 373.581 5.85172 -3.87967 0
M  V30 3943 H 378.421 1.58127 -2.52587 0
M  V30 3944 H 375.958 0.770552 -1.25303 0
M  V30 3945 H 377.916 3.86745 -1.56473 0
M  V30 3946 H 376.546 3.15745 -0.671194 0
M  V30 3947 H 375.598 2.38405 -2.96424 0
M  V30 3948 H 376.91 3.29403 -3.7456 0
M  V30 3949 H 376.064 5.41885 -2.72848 0
M  V30 3950 H 374.803 4.51548 -1.8427 0
M  V30 3951 H 373.808 3.75304 -4.0178 0
M  V30 3952 H 375.033 4.68997 -4.9114 0
M  V30 3953 H 372.979 5.84137 -2.98529 0
M  V30 3954 H 372.896 5.90943 -4.71511 0
M  V30 3955 H 374.164 6.759 -3.88303 0
M  V30 3956 N 378.394 1.34581 0.820102 0
M  V30 3957 C 379.805 1.24298 1.39309 0
M  V30 3958 C 380.156 -0.130351 1.95767 0
M  V30 3959 O 379.281 -1.0308 1.90272 0
M  V30 3960 C 379.876 2.25054 2.53251 0
M  V30 3961 C 378.435 2.18552 3.0645 0
M  V30 3962 C 377.582 2.11503 1.79337 0
M  V30 3963 H 380.533 1.45906 0.624262 0
M  V30 3964 H 380.554 1.86917 3.31425 0
M  V30 3965 H 380.066 3.24996 2.1213 0
M  V30 3966 H 378.167 1.21976 3.52069 0
M  V30 3967 H 378.28 3.0993 3.65349 0
M  V30 3968 H 376.644 1.57268 2.00347 0
M  V30 3969 H 377.427 3.13284 1.40386 0
M  V30 3970 N 379.872 -1.04064 1.18357 0
M  V30 3971 C 381.118 -1.77528 0.980397 0
M  V30 3972 C 381.451 -1.87948 -0.48879 0
M  V30 3973 O 380.726 -1.3876 -1.36293 0
M  V30 3974 C 381.009 -3.20797 1.63588 0
M  V30 3975 C 380.862 -3.1832 3.17793 0
M  V30 3976 C 382.181 -4.18911 1.34914 0
M  V30 3977 H 379.3 -0.644443 0.357578 0
M  V30 3978 H 381.942 -1.2156 1.46024 0
M  V30 3979 H 380.092 -3.68586 1.22788 0
M  V30 3980 H 381.764 -2.78521 3.67728 0
M  V30 3981 H 380.007 -2.56351 3.49952 0
M  V30 3982 H 380.678 -4.19489 3.58794 0
M  V30 3983 H 383.154 -3.7967 1.70265 0
M  V30 3984 H 382.03 -5.17374 1.83346 0
M  V30 3985 H 382.291 -4.41262 0.272027 0
M  V30 3986 N 381.35 -0.985608 -1.22978 0
M  V30 3987 C 382.627 -0.573599 -1.87001 0
M  V30 3988 C 383.007 0.949213 -1.88555 0
M  V30 3989 O 382.355 1.82811 -1.37086 0
M  V30 3990 C 382.565 -1.18564 -3.28243 0
M  V30 3991 C 383.913 -1.28163 -4.04796 0
M  V30 3992 O 384.937 -1.13949 -3.37482 0
M  V30 3993 O 383.796 -1.50832 -5.25273 0
M  V30 3994 H 380.89 -0.193868 -0.803955 0
M  V30 3995 H 383.436 -1.08102 -1.30813 0
M  V30 3996 H 382.208 -2.22758 -3.21706 0
M  V30 3997 H 381.831 -0.663363 -3.92027 0
M  V30 3998 N 382.828 1.3818 -0.7579 0
M  V30 3999 C 383.775 2.30416 -0.133057 0
M  V30 4000 C 384.745 1.50398 0.704957 0
M  V30 4001 O 385.93 1.79014 0.660192 0
M  V30 4002 C 383.07 3.36834 0.750813 0
M  V30 4003 C 382.183 4.31879 -0.102297 0
M  V30 4004 C 381.318 5.25368 0.784979 0
M  V30 4005 C 380.357 6.12058 -0.0715046 0
M  V30 4006 N 379.494 6.97832 0.772972 0
M  V30 4007 H 384.334 2.83274 -0.925186 0
M  V30 4008 H 381.871 1.39461 -0.467866 0
M  V30 4009 H 383.829 3.97145 1.27794 0
M  V30 4010 H 382.459 2.85374 1.50868 0
M  V30 4011 H 381.511 3.72991 -0.747095 0
M  V30 4012 H 382.823 4.92921 -0.763552 0
M  V30 4013 H 381.977 5.90818 1.37911 0
M  V30 4014 H 380.716 4.64703 1.47996 0
M  V30 4015 H 379.721 5.456 -0.678272 0
M  V30 4016 H 380.946 6.74793 -0.763606 0
M  V30 4017 H 378.892 6.3971 1.45282 0
M  V30 4018 H 378.809 7.55812 0.168709 0
M  V30 4019 H 380.077 7.67687 1.35194 0
M  V30 4020 N 384.306 0.507319 1.49211 0
M  V30 4021 C 385.553 -0.0349529 2.0247 0
M  V30 4022 C 385.881 -1.36409 1.38647 0
M  V30 4023 O 385.136 -1.88841 0.513566 0
M  V30 4024 C 385.435 -0.229513 3.56662 0
M  V30 4025 C 385.101 1.02241 4.39156 0
M  V30 4026 C 383.763 1.36557 4.61417 0
M  V30 4027 C 386.115 1.85428 4.871 0
M  V30 4028 C 383.443 2.53999 5.28868 0
M  V30 4029 C 385.795 3.02028 5.55843 0
M  V30 4030 C 384.459 3.36717 5.76349 0
M  V30 4031 H 383.729 -0.0127902 0.74089 0
M  V30 4032 H 386.376 0.668756 1.79443 0
M  V30 4033 H 384.681 -1.0158 3.78403 0
M  V30 4034 H 386.378 -0.663641 3.9547 0
M  V30 4035 H 382.968 0.745124 4.22073 0
M  V30 4036 H 387.152 1.6023 4.69723 0
M  V30 4037 H 382.408 2.81105 5.42946 0
M  V30 4038 H 386.582 3.66808 5.91967 0
M  V30 4039 H 384.209 4.27821 6.28389 0
M  V30 4040 N 385.784 -1.5574 0.241426 0
M  V30 4041 C 386.731 -2.21149 -0.660432 0
M  V30 4042 C 387.701 -1.17356 -1.17545 0
M  V30 4043 O 388.886 -1.45784 -1.23093 0
M  V30 4044 C 386.026 -2.91059 -1.85414 0
M  V30 4045 C 385.139 -4.09495 -1.37616 0
M  V30 4046 C 384.274 -4.67135 -2.529 0
M  V30 4047 C 383.313 -5.77831 -2.01936 0
M  V30 4048 N 382.45 -6.29677 -3.10566 0
M  V30 4049 H 387.29 -2.97845 -0.095955 0
M  V30 4050 H 384.827 -1.47057 -0.0356024 0
M  V30 4051 H 386.785 -3.29788 -2.5553 0
M  V30 4052 H 385.415 -2.16846 -2.39118 0
M  V30 4053 H 384.467 -3.76117 -0.569235 0
M  V30 4054 H 385.779 -4.89423 -0.962618 0
M  V30 4055 H 384.933 -5.08409 -3.31067 0
M  V30 4056 H 383.672 -3.86411 -2.97553 0
M  V30 4057 H 382.677 -5.36039 -1.22238 0
M  V30 4058 H 383.902 -6.60402 -1.58259 0
M  V30 4059 H 381.848 -5.5186 -3.54664 0
M  V30 4060 H 381.765 -7.04783 -2.73526 0
M  V30 4061 H 383.033 -6.75609 -3.88809 0
M  V30 4062 N 387.262 0.0317525 -1.57568 0
M  V30 4063 C 388.539 0.758366 -1.803 0
M  V30 4064 C 388.919 1.93718 -0.838845 0
M  V30 4065 O 388.267 2.28187 0.119571 0
M  V30 4066 C 388.477 1.19392 -3.27943 0
M  V30 4067 C 389.825 1.61094 -3.92854 0
M  V30 4068 O 390.849 1.28857 -3.32076 0
M  V30 4069 O 389.708 2.20918 -4.99858 0
M  V30 4070 H 386.802 0.366514 -0.741348 0
M  V30 4071 H 389.348 0.00873765 -1.69698 0
M  V30 4072 H 388.12 0.352275 -3.89711 0
M  V30 4073 H 387.743 2.00365 -3.43424 0
M  V30 4074 N 388.74 1.54641 0.303973 0
M  V30 4075 C 389.98 1.75516 1.04755 0
M  V30 4076 C 390.344 0.528211 1.84591 0
M  V30 4077 O 391.545 0.614645 2.61678 0
M  V30 4078 C 389.816 3.00685 1.93193 0
M  V30 4079 S 391.375 3.42549 2.74237 0
M  V30 4080 H 388.193 0.616987 0.353339 0
M  V30 4081 H 390.795 1.92842 0.321292 0
M  V30 4082 H 389.499 3.8811 1.33411 0
M  V30 4083 H 389.03 2.85937 2.70191 0
M  V30 4084 H 391.045 2.99386 3.95705 0
M  V30 4085 N 390.218 -0.567019 1.47046 0
M  V30 4086 C 391.168 -1.67018 1.55207 0
M  V30 4087 C 392.152 -1.55543 0.411714 0
M  V30 4088 O 393.344 -1.64192 0.661064 0
M  V30 4089 C 390.473 -3.05801 1.56014 0
M  V30 4090 C 389.559 -3.22515 2.75399 0
M  V30 4091 N 389.95 -3.09329 4.00186 0
M  V30 4092 C 388.248 -3.53493 2.71954 0
M  V30 4093 C 388.949 -3.2847 4.80086 0
M  V30 4094 N 387.925 -3.54352 4.12233 0
M  V30 4095 H 391.727 -1.55377 2.4947 0
M  V30 4096 H 389.241 -0.771503 1.42904 0
M  V30 4097 H 391.238 -3.84996 1.59949 0
M  V30 4098 H 389.898 -3.18561 0.628396 0
M  V30 4099 H 390.909 -2.86863 4.31196 0
M  V30 4100 H 387.586 -3.7284 1.87873 0
M  V30 4101 H 388.976 -3.23326 5.88991 0
M  V30 4102 N 391.696 -1.35014 -0.812953 0
M  V30 4103 C 392.626 -1.30069 -1.93919 0
M  V30 4104 C 393.607 -0.176275 -1.69184 0
M  V30 4105 O 394.792 -0.370227 -1.90638 0
M  V30 4106 C 391.922 -1.06547 -3.30552 0
M  V30 4107 C 390.876 -2.15561 -3.69753 0
M  V30 4108 C 390.202 -1.77214 -5.04479 0
M  V30 4109 C 391.502 -3.57476 -3.808 0
M  V30 4110 H 393.196 -2.24303 -1.98314 0
M  V30 4111 H 390.742 -1.07977 -0.952736 0
M  V30 4112 H 392.695 -1.01729 -4.08937 0
M  V30 4113 H 391.419 -0.0875719 -3.26483 0
M  V30 4114 H 390.078 -2.19466 -2.9365 0
M  V30 4115 H 389.726 -0.780589 -4.96906 0
M  V30 4116 H 389.426 -2.50184 -5.31678 0
M  V30 4117 H 390.95 -1.7391 -5.8531 0
M  V30 4118 H 392.364 -3.55929 -4.4943 0
M  V30 4119 H 390.761 -4.29152 -4.19462 0
M  V30 4120 H 391.831 -3.94091 -2.82525 0
M  V30 4121 N 393.175 1.03435 -1.18907 0
M  V30 4122 C 394.138 2.09756 -0.923844 0
M  V30 4123 C 395.138 1.60528 0.093416 0
M  V30 4124 O 396.328 1.73631 -0.140727 0
M  V30 4125 C 393.46 3.38692 -0.387354 0
M  V30 4126 H 394.653 2.34719 -1.86674 0
M  V30 4127 H 392.206 1.19959 -1.00197 0
M  V30 4128 H 392.941 3.19396 0.561845 0
M  V30 4129 H 392.726 3.75742 -1.12074 0
M  V30 4130 H 394.216 4.17016 -0.220694 0
M  V30 4131 N 394.653 0.992116 1.22453 0
M  V30 4132 C 396.069 0.702713 1.43297 0
M  V30 4133 C 396.269 -0.726909 1.87932 0
M  V30 4134 O 395.325 -1.49792 2.0327 0
M  V30 4135 C 396.638 1.70762 2.47509 0
M  V30 4136 C 398.186 1.72298 2.61309 0
M  V30 4137 C 398.661 2.71649 3.68742 0
M  V30 4138 N 400.152 2.70239 3.76199 0
M  V30 4139 C 400.887 3.43778 4.58917 0
M  V30 4140 N 400.383 4.26914 5.45633 0
M  V30 4141 N 402.176 3.32487 4.5322 0
M  V30 4142 H 394.327 1.91543 0.917871 0
M  V30 4143 H 396.59 0.826031 0.465162 0
M  V30 4144 H 396.296 2.73059 2.21657 0
M  V30 4145 H 396.17 1.49985 3.46099 0
M  V30 4146 H 398.557 0.706989 2.86506 0
M  V30 4147 H 398.638 1.97143 1.62997 0
M  V30 4148 H 398.282 3.73397 3.44292 0
M  V30 4149 H 398.212 2.44074 4.66622 0
M  V30 4150 H 400.703 2.09912 3.14237 0
M  V30 4151 H 401.016 4.79855 6.05771 0
M  V30 4152 H 399.361 4.31002 5.45218 0
M  V30 4153 H 402.552 2.6698 3.84499 0
M  V30 4154 H 402.725 3.90058 5.17454 0
M  V30 4155 N 396.131 -1.37776 0.765217 0
M  V30 4156 C 397.377 -2.00145 0.327072 0
M  V30 4157 C 397.71 -1.60607 -1.09175 0
M  V30 4158 O 396.985 -0.849127 -1.74986 0
M  V30 4159 C 397.268 -3.57109 0.46319 0
M  V30 4160 C 397.121 -4.06576 1.92395 0
M  V30 4161 C 398.44 -4.39888 -0.136473 0
M  V30 4162 H 395.559 -0.727113 0.120316 0
M  V30 4163 H 398.201 -1.63549 0.967039 0
M  V30 4164 H 396.351 -3.88414 -0.0816358 0
M  V30 4165 H 398.023 -3.85864 2.52798 0
M  V30 4166 H 396.266 -3.59011 2.43503 0
M  V30 4167 H 396.937 -5.15639 1.97028 0
M  V30 4168 H 399.413 -4.14803 0.328317 0
M  V30 4169 H 398.289 -5.48899 -0.0110582 0
M  V30 4170 H 398.55 -4.24758 -1.22608 0
M  V30 4171 N 397.609 -0.515225 -1.4894 0
M  V30 4172 C 399.02 -0.0710067 -1.86565 0
M  V30 4173 C 399.371 1.34733 -1.42623 0
M  V30 4174 O 398.496 2.00653 -0.810379 0
M  V30 4175 C 399.091 -0.122083 -3.3858 0
M  V30 4176 C 397.65 0.266863 -3.75453 0
M  V30 4177 C 396.797 -0.488376 -2.72966 0
M  V30 4178 H 399.748 -0.727266 -1.41055 0
M  V30 4179 H 399.769 0.669818 -3.74558 0
M  V30 4180 H 399.281 -1.15448 -3.70531 0
M  V30 4181 H 397.382 1.30196 -3.49113 0
M  V30 4182 H 397.495 -0.0624811 -4.79059 0
M  V30 4183 H 395.859 0.0635622 -2.54621 0
M  V30 4184 H 396.642 -1.52113 -3.07761 0
M  V30 4185 N 399.087 1.5561 -0.249682 0
M  V30 4186 C 400.312 2.03865 0.381305 0
M  V30 4187 C 400.737 1.12769 1.50548 0
M  V30 4188 O 400.095 0.121189 1.80895 0
M  V30 4189 C 400.143 3.50101 0.863816 0
M  V30 4190 O 399.247 3.62132 1.97318 0
M  V30 4191 H 398.588 0.658827 0.0827194 0
M  V30 4192 H 401.118 2.01105 -0.376552 0
M  V30 4193 H 401.128 3.90975 1.1663 0
M  V30 4194 H 399.803 4.1588 0.0411816 0
M  V30 4195 H 398.38 3.33155 1.67517 0
M  V30 4196 N 400.565 -0.0233959 1.57583 0
M  V30 4197 C 401.515 -1.03023 2.03397 0
M  V30 4198 C 402.499 -1.31701 0.924315 0
M  V30 4199 O 403.691 -1.31191 1.18819 0
M  V30 4200 C 400.82 -2.32961 2.52159 0
M  V30 4201 C 399.906 -2.07349 3.69956 0
M  V30 4202 N 400.297 -1.51814 4.82479 0
M  V30 4203 C 398.595 -2.37606 3.77438 0
M  V30 4204 C 399.296 -1.42136 5.64068 0
M  V30 4205 N 398.272 -1.89891 5.09355 0
M  V30 4206 H 402.074 -0.594962 2.87815 0
M  V30 4207 H 399.588 -0.229586 1.60769 0
M  V30 4208 H 401.585 -3.05906 2.83244 0
M  V30 4209 H 400.245 -2.77162 1.69149 0
M  V30 4210 H 401.256 -1.20008 5.03804 0
M  V30 4211 H 397.933 -2.84842 3.05239 0
M  V30 4212 H 399.323 -0.996405 6.64471 0
M  V30 4213 N 402.043 -1.548 -0.295768 0
M  V30 4214 C 403.006 -1.85363 -1.34808 0
M  V30 4215 C 404.006 -0.726817 -1.43436 0
M  V30 4216 O 405.196 -0.995088 -1.42981 0
M  V30 4217 C 402.328 -2.03859 -2.73229 0
M  V30 4218 H 403.521 -2.7941 -1.08949 0
M  V30 4219 H 401.074 -1.46942 -0.532702 0
M  V30 4220 H 401.809 -1.12117 -3.04303 0
M  V30 4221 H 401.594 -2.8588 -2.68356 0
M  V30 4222 H 403.084 -2.28857 -3.49305 0
M  V30 4223 N 403.521 0.559213 -1.47345 0
M  V30 4224 C 404.767 1.31843 -1.54095 0
M  V30 4225 C 405.1 1.93149 -0.201726 0
M  V30 4226 O 404.375 1.77759 0.789428 0
M  V30 4227 C 404.658 2.43006 -2.65744 0
M  V30 4228 C 404.511 1.86581 -4.09277 0
M  V30 4229 C 405.83 3.44943 -2.73318 0
M  V30 4230 H 402.949 0.478012 -0.560957 0
M  V30 4231 H 405.591 0.625977 -1.79392 0
M  V30 4232 H 403.741 3.02072 -2.44305 0
M  V30 4233 H 405.413 1.31792 -4.42073 0
M  V30 4234 H 403.656 1.17268 -4.17649 0
M  V30 4235 H 404.327 2.66933 -4.83168 0
M  V30 4236 H 406.803 2.95793 -2.92653 0
M  V30 4237 H 405.679 4.20153 -3.53218 0
M  V30 4238 H 405.94 4.03665 -1.80296 0
M  V30 4239 N 404.999 1.35443 0.805782 0
M  V30 4240 C 406.245 1.28952 1.56522 0
M  V30 4241 C 406.578 -0.135597 1.93726 0
M  V30 4242 O 405.853 -1.08516 1.61414 0
M  V30 4243 C 406.136 2.19678 2.85331 0
M  V30 4244 C 405.989 3.7081 2.54598 0
M  V30 4245 C 407.308 2.09495 3.8704 0
M  V30 4246 H 404.427 0.469764 0.567883 0
M  V30 4247 H 407.069 1.65851 0.927001 0
M  V30 4248 H 405.219 1.8834 3.39795 0
M  V30 4249 H 406.891 4.12593 2.06312 0
M  V30 4250 H 405.134 3.91051 1.8778 0
M  V30 4251 H 405.805 4.29679 3.46525 0
M  V30 4252 H 408.281 2.37045 3.41978 0
M  V30 4253 H 407.157 2.75173 4.74943 0
M  V30 4254 H 407.418 1.07714 4.28777 0
M  V30 4255 N 406.477 -1.02803 1.19454 0
M  V30 4256 C 407.44 -2.09264 0.934955 0
M  V30 4257 C 408.44 -1.60576 -0.0849015 0
M  V30 4258 O 409.63 -1.73554 0.149933 0
M  V30 4259 C 406.762 -3.38482 0.40531 0
M  V30 4260 H 407.955 -2.33726 1.87916 0
M  V30 4261 H 405.508 -1.19426 1.00832 0
M  V30 4262 H 406.243 -3.19689 -0.544899 0
M  V30 4263 H 406.028 -3.75142 1.14065 0
M  V30 4264 H 407.518 -4.16894 0.242806 0
M  V30 4265 N 407.956 -0.998596 -1.21925 0
M  V30 4266 C 409.372 -0.710303 -1.42923 0
M  V30 4267 C 409.572 0.716933 -1.88314 0
M  V30 4268 O 408.628 1.48712 -2.04062 0
M  V30 4269 C 409.941 -1.72072 -2.466 0
M  V30 4270 C 411.489 -1.73681 -2.60392 0
M  V30 4271 C 411.964 -2.73601 -3.67296 0
M  V30 4272 N 413.455 -2.7223 -3.7476 0
M  V30 4273 C 414.19 -3.46206 -4.57087 0
M  V30 4274 N 413.686 -4.29802 -5.43362 0
M  V30 4275 N 415.479 -3.34886 -4.51451 0
M  V30 4276 H 407.63 -1.92028 -0.9077 0
M  V30 4277 H 409.893 -0.828487 -0.460775 0
M  V30 4278 H 409.599 -2.74231 -2.20206 0
M  V30 4279 H 409.473 -1.51818 -3.45299 0
M  V30 4280 H 411.86 -0.722173 -2.86127 0
M  V30 4281 H 411.941 -1.98005 -1.61949 0
M  V30 4282 H 411.585 -3.75217 -3.42307 0
M  V30 4283 H 411.515 -2.46545 -4.65321 0
M  V30 4284 H 414.006 -2.11576 -3.1312 0
M  V30 4285 H 414.319 -4.83061 -6.03218 0
M  V30 4286 H 412.664 -4.33887 -5.42925 0
M  V30 4287 H 415.855 -2.69015 -3.83078 0
M  V30 4288 H 416.028 -3.92796 -5.15379 0
M  V30 4289 N 409.434 1.37368 -0.772513 0
M  V30 4290 C 410.659 2.0447 -0.347386 0
M  V30 4291 C 411.084 1.57882 1.0225 0
M  V30 4292 O 410.442 0.73941 1.65537 0
M  V30 4293 C 410.49 3.58369 -0.400479 0
M  V30 4294 O 409.594 4.0803 0.598789 0
M  V30 4295 H 408.935 0.646773 -0.15027 0
M  V30 4296 H 411.465 1.75667 -1.04892 0
M  V30 4297 H 411.475 4.07183 -0.258045 0
M  V30 4298 H 410.15 3.91633 -1.39986 0
M  V30 4299 H 408.727 3.70534 0.419411 0
M  V30 4300 N 410.912 0.523116 1.48665 0
M  V30 4301 C 412.158 -0.0134963 2.02796 0
M  V30 4302 C 412.491 -1.34582 1.40004 0
M  V30 4303 O 411.766 -1.86756 0.543381 0
M  V30 4304 C 412.049 -0.14276 3.59817 0
M  V30 4305 C 411.902 1.21425 4.331 0
M  V30 4306 C 413.221 -0.872856 4.31357 0
M  V30 4307 H 410.34 -0.00343074 0.736992 0
M  V30 4308 H 412.982 0.678816 1.7746 0
M  V30 4309 H 411.132 -0.732401 3.81534 0
M  V30 4310 H 412.804 1.84447 4.2282 0
M  V30 4311 H 411.047 1.79791 3.94788 0
M  V30 4312 H 411.718 1.07687 5.41394 0
M  V30 4313 H 414.194 -0.372555 4.14429 0
M  V30 4314 H 413.07 -0.932185 5.40927 0
M  V30 4315 H 413.331 -1.92161 3.98154 0
M  V30 4316 N 412.39 -1.55475 0.257931 0
M  V30 4317 C 413.338 -2.23244 -0.653076 0
M  V30 4318 C 414.332 -1.22366 -1.17144 0
M  V30 4319 O 415.538 -1.40347 -1.12706 0
M  V30 4320 H 411.913 -0.716247 -0.229117 0
M  V30 4321 H 413.884 -2.98343 -0.0584788 0
M  V30 4322 C 412.633 -2.95401 -1.83395 0
M  V30 4323 H 411.956 -3.72802 -1.44424 0
M  V30 4324 H 413.396 -3.46165 -2.44838 0
M  V30 4325 C 411.855 -1.99895 -2.71189 0
M  V30 4326 O 412.385 -1.53909 -3.71046 0
M  V30 4327 N 410.591 -1.6676 -2.3799 0
M  V30 4328 H 410.138 -2.04352 -1.56837 0
M  V30 4329 H 410.096 -1.03127 -2.97005 0
M  V30 4330 N 413.868 0.0150385 -1.57593 0
M  V30 4331 C 415.116 0.701613 -1.8953 0
M  V30 4332 C 415.437 1.75139 -0.857396 0
M  V30 4333 O 414.707 1.95607 0.107194 0
M  V30 4334 H 413.287 0.26213 -0.699498 0
M  V30 4335 H 415.949 -0.0223304 -1.94887 0
M  V30 4336 H 415.045 1.18236 -2.88837 0
M  V30 4337 N 415.346 1.54954 0.287554 0
M  V30 4338 C 416.293 1.86834 1.35505 0
M  V30 4339 C 417.263 0.718452 1.49758 0
M  V30 4340 O 418.448 0.968358 1.644 0
M  V30 4341 C 415.588 2.13303 2.71286 0
M  V30 4342 C 414.701 3.40883 2.65373 0
M  V30 4343 C 413.836 3.57125 3.93236 0
M  V30 4344 C 412.875 4.78449 3.81776 0
M  V30 4345 N 412.012 4.91426 5.01443 0
M  V30 4346 H 416.852 2.77889 1.07619 0
M  V30 4347 H 414.389 1.37593 0.520241 0
M  V30 4348 H 416.347 2.26646 3.50267 0
M  V30 4349 H 414.977 1.25499 2.97405 0
M  V30 4350 H 414.029 3.36088 1.78182 0
M  V30 4351 H 415.341 4.29993 2.52799 0
M  V30 4352 H 414.495 3.70207 4.80658 0
M  V30 4353 H 413.234 2.66173 4.0866 0
M  V30 4354 H 412.239 4.65386 2.92738 0
M  V30 4355 H 413.464 5.70822 3.67884 0
M  V30 4356 H 411.41 4.03401 5.17304 0
M  V30 4357 H 411.327 5.74559 4.91343 0
M  V30 4358 H 412.595 5.08879 5.90477 0
M  V30 4359 N 416.824 -0.551391 1.4764 0
M  V30 4360 C 417.734 -1.68525 1.63207 0
M  V30 4361 C 418.75 -1.6621 0.514815 0
M  V30 4362 O 419.926 -1.85551 0.783113 0
M  V30 4363 C 416.991 -3.05025 1.64805 0
M  V30 4364 C 416.052 -3.18362 2.88 0
M  V30 4365 C 415.285 -4.4835 2.89513 0
M  V30 4366 O 415.508 -5.34163 2.00065 0
M  V30 4367 O 414.442 -4.65602 3.81443 0
M  V30 4368 H 418.268 -1.58333 2.59161 0
M  V30 4369 H 415.853 -0.722063 1.30792 0
M  V30 4370 H 417.735 -3.86245 1.68502 0
M  V30 4371 H 416.41 -3.15587 0.720197 0
M  V30 4372 H 415.317 -2.36518 2.89845 0
M  V30 4373 H 416.65 -3.12707 3.80099 0
M  V30 4374 N 418.302 -1.35869 -0.798587 0
M  V30 4375 C 419.579 -1.20145 -1.54352 0
M  V30 4376 C 419.959 0.216161 -2.0999 0
M  V30 4377 O 419.307 1.22068 -1.93162 0
M  V30 4378 C 419.517 -2.27602 -2.64572 0
M  V30 4379 C 420.865 -2.63811 -3.32699 0
M  V30 4380 O 421.889 -2.26576 -2.74849 0
M  V30 4381 O 420.748 -3.27866 -4.37226 0
M  V30 4382 H 417.842 -0.467248 -0.682355 0
M  V30 4383 H 420.388 -1.47574 -0.837859 0
M  V30 4384 H 419.16 -3.2265 -2.21388 0
M  V30 4385 H 418.783 -2.01488 -3.42766 0
M  V30 4386 N 419.78 1.02168 -1.19998 0
M  V30 4387 C 420.743 2.08765 -0.94604 0
M  V30 4388 C 421.743 1.60618 0.0763846 0
M  V30 4389 O 422.933 1.73472 -0.159135 0
M  V30 4390 C 420.065 3.38262 -0.423255 0
M  V30 4391 H 421.258 2.32726 -1.89153 0
M  V30 4392 H 418.811 1.1889 -1.01464 0
M  V30 4393 H 419.546 3.19974 0.527938 0
M  V30 4394 H 419.331 3.74532 -1.16053 0
M  V30 4395 H 420.821 4.16759 -0.264911 0
M  V30 4396 N 421.258 1.00505 1.21394 0
M  V30 4397 C 422.507 0.683159 1.89778 0
M  V30 4398 C 422.82 -0.789471 1.7896 0
M  V30 4399 O 424.026 -1.22344 2.42372 0
M  V30 4400 C 422.482 1.17146 3.40301 0
M  V30 4401 C 422.09 2.67017 3.5973 0
M  V30 4402 C 423.834 0.924461 4.14311 0
M  V30 4403 C 421.741 3.09387 5.04017 0
M  V30 4404 H 420.671 0.25183 0.710702 0
M  V30 4405 H 423.322 1.21622 1.37406 0
M  V30 4406 H 421.704 0.566451 3.91928 0
M  V30 4407 H 422.878 3.32968 3.18542 0
M  V30 4408 H 421.193 2.89732 2.99073 0
M  V30 4409 H 423.79 1.21658 5.20676 0
M  V30 4410 H 424.133 -0.139286 4.16067 0
M  V30 4411 H 424.666 1.49226 3.6875 0
M  V30 4412 H 421.405 4.14989 5.07409 0
M  V30 4413 H 420.925 2.48149 5.46061 0
M  V30 4414 H 422.604 3.01371 5.72525 0
M  V30 4415 N 422.737 -1.36956 0.779787 0
M  V30 4416 C 423.983 -2.00237 0.357324 0
M  V30 4417 C 424.338 -1.60787 -1.05666 0
M  V30 4418 O 423.631 -0.847836 -1.71821 0
M  V30 4419 C 423.825 -3.54585 0.447686 0
M  V30 4420 C 423.654 -4.09025 1.86891 0
M  V30 4421 C 422.424 -4.39612 2.49138 0
M  V30 4422 C 424.622 -4.29461 2.82963 0
M  V30 4423 N 422.604 -4.79816 3.82949 0
M  V30 4424 C 423.975 -4.72363 4.01588 0
M  V30 4425 C 426.03 -4.1161 2.80145 0
M  V30 4426 C 424.733 -4.99284 5.17791 0
M  V30 4427 C 426.759 -4.39672 3.95528 0
M  V30 4428 C 426.121 -4.82822 5.12896 0
M  V30 4429 H 422.22 -0.76148 0.177968 0
M  V30 4430 H 424.804 -1.6613 1.01533 0
M  V30 4431 H 422.975 -3.87982 -0.180184 0
M  V30 4432 H 424.707 -4.047 0.0023955 0
M  V30 4433 H 421.462 -4.28975 2.00693 0
M  V30 4434 H 421.886 -5.04216 4.51769 0
M  V30 4435 H 426.528 -3.77415 1.90572 0
M  V30 4436 H 424.246 -5.32365 6.07958 0
M  V30 4437 H 427.832 -4.27441 3.94697 0
M  V30 4438 H 426.712 -5.04118 6.00695 0
M  V30 4439 N 424.215 -0.530993 -1.48385 0
M  V30 4440 C 425.163 0.244595 -2.3131 0
M  V30 4441 C 426.157 0.93451 -1.41291 0
M  V30 4442 O 427.363 0.85878 -1.58193 0
M  V30 4443 H 423.738 0.0977472 -0.74562 0
M  V30 4444 H 425.709 -0.474369 -2.94605 0
M  V30 4445 C 424.458 1.2779 -3.23365 0
M  V30 4446 H 423.781 0.756439 -3.92579 0
M  V30 4447 H 425.221 1.79198 -3.84271 0
M  V30 4448 C 423.68 2.31205 -2.45042 0
M  V30 4449 O 424.21 3.37661 -2.17596 0
M  V30 4450 N 422.416 2.04446 -2.0652 0
M  V30 4451 H 421.963 1.17891 -2.2904 0
M  V30 4452 H 421.921 2.73861 -1.54427 0
M  V30 4453 N 425.693 1.55336 -0.266172 0
M  V30 4454 C 426.623 2.25146 0.618981 0
M  V30 4455 C 427.604 1.23845 1.16604 0
M  V30 4456 O 428.789 1.52544 1.20183 0
M  V30 4457 C 425.919 2.96572 1.80728 0
M  V30 4458 C 424.873 4.04726 1.39215 0
M  V30 4459 C 424.199 4.63678 2.66283 0
M  V30 4460 C 425.499 5.19407 0.548942 0
M  V30 4461 H 427.193 2.99377 0.0368116 0
M  V30 4462 H 424.739 1.43991 0.0162651 0
M  V30 4463 H 426.692 3.44116 2.43232 0
M  V30 4464 H 425.416 2.19861 2.41514 0
M  V30 4465 H 424.075 3.57979 0.790351 0
M  V30 4466 H 423.723 3.83646 3.25308 0
M  V30 4467 H 423.423 5.367 2.39222 0
M  V30 4468 H 424.947 5.13967 3.29651 0
M  V30 4469 H 426.361 5.63059 1.07876 0
M  V30 4470 H 424.758 5.98936 0.373593 0
M  V30 4471 H 425.828 4.8295 -0.434394 0
M  V30 4472 N 427.171 -0.0066808 1.57599 0
M  V30 4473 C 428.101 -0.999296 2.11036 0
M  V30 4474 C 429.082 -1.36278 1.01795 0
M  V30 4475 O 430.267 -1.4477 1.29442 0
M  V30 4476 C 427.397 -2.29328 2.60818 0
M  V30 4477 C 426.351 -2.07159 3.74525 0
M  V30 4478 C 425.677 -3.42512 4.10596 0
M  V30 4479 C 426.977 -1.43959 5.02069 0
M  V30 4480 H 428.671 -0.554382 2.94223 0
M  V30 4481 H 426.217 -0.265221 1.41536 0
M  V30 4482 H 428.17 -2.99117 2.96828 0
M  V30 4483 H 426.894 -2.7592 1.74745 0
M  V30 4484 H 425.553 -1.39797 3.38899 0
M  V30 4485 H 425.201 -3.86795 3.21556 0
M  V30 4486 H 424.901 -3.28498 4.87199 0
M  V30 4487 H 426.425 -4.13628 4.4916 0
M  V30 4488 H 427.839 -2.03696 5.35893 0
M  V30 4489 H 426.236 -1.40452 5.83432 0
M  V30 4490 H 427.306 -0.407992 4.83181 0
M  V30 4491 N 428.649 -1.55105 -0.279332 0
M  V30 4492 C 430.065 -1.46803 -0.626187 0
M  V30 4493 C 430.265 -0.676939 -1.89789 0
M  V30 4494 O 429.321 -0.19326 -2.51759 0
M  V30 4495 C 430.634 -2.90962 -0.759034 0
M  V30 4496 C 432.182 -3.01138 -0.853504 0
M  V30 4497 C 432.657 -4.46539 -1.01818 0
M  V30 4498 N 434.148 -4.50341 -1.08386 0
M  V30 4499 C 434.883 -5.60053 -1.22996 0
M  V30 4500 N 434.379 -6.79645 -1.34366 0
M  V30 4501 N 436.172 -5.47783 -1.26056 0
M  V30 4502 H 428.323 -2.04996 0.555921 0
M  V30 4503 H 430.586 -0.929325 0.187239 0
M  V30 4504 H 430.292 -3.51544 0.104852 0
M  V30 4505 H 430.166 -3.39619 -1.64131 0
M  V30 4506 H 432.553 -2.40658 -1.70786 0
M  V30 4507 H 432.634 -2.55745 0.0532466 0
M  V30 4508 H 432.278 -5.0762 -0.168504 0
M  V30 4509 H 432.208 -4.89583 -1.93948 0
M  V30 4510 H 434.699 -3.64191 -1.00864 0
M  V30 4511 H 435.012 -7.59012 -1.4533 0
M  V30 4512 H 433.357 -6.82469 -1.31382 0
M  V30 4513 H 436.548 -4.53294 -1.168 0
M  V30 4514 H 436.721 -6.33331 -1.37098 0
M  V30 4515 N 430.127 0.543554 -1.4793 0
M  V30 4516 C 431.059 1.665 -1.57513 0
M  V30 4517 C 432.072 1.56156 -0.460333 0
M  V30 4518 O 433.261 1.62865 -0.730573 0
M  V30 4519 C 430.361 3.05063 -1.47614 0
M  V30 4520 C 429.534 3.41024 -2.739 0
M  V30 4521 C 428.593 4.58809 -2.57645 0
M  V30 4522 O 427.619 4.62707 -3.31498 0
M  V30 4523 N 428.821 5.56149 -1.66368 0
M  V30 4524 H 431.586 1.5872 -2.5422 0
M  V30 4525 H 429.147 0.730517 -1.44482 0
M  V30 4526 H 431.139 3.81712 -1.34455 0
M  V30 4527 H 429.709 3.06994 -0.589359 0
M  V30 4528 H 428.929 2.53687 -3.01723 0
M  V30 4529 H 430.217 3.61831 -3.57709 0
M  V30 4530 H 429.615 5.55767 -1.05543 0
M  V30 4531 H 428.172 6.32071 -1.59154 0
M  V30 4532 N 431.605 1.3629 0.791371 0
M  V30 4533 C 432.568 1.30309 1.88553 0
M  V30 4534 C 433.568 0.211204 1.59407 0
M  V30 4535 O 434.758 0.465865 1.67855 0
M  V30 4536 C 431.89 1.01956 3.25297 0
M  V30 4537 H 433.083 2.27614 1.95273 0
M  V30 4538 H 430.636 1.21035 0.988953 0
M  V30 4539 H 431.371 0.050998 3.2426 0
M  V30 4540 H 431.156 1.80968 3.4784 0
M  V30 4541 H 432.646 1.0037 4.05359 0
M  V30 4542 N 433.083 -1.0153 1.20538 0
M  V30 4543 C 434.015 -2.10224 0.913155 0
M  V30 4544 C 435.028 -1.62495 -0.0995998 0
M  V30 4545 O 436.217 -1.78014 0.131582 0
M  V30 4546 C 433.317 -3.37111 0.347717 0
M  V30 4547 C 432.49 -4.13971 1.41233 0
M  V30 4548 C 431.549 -5.19158 0.857976 0
M  V30 4549 O 430.575 -5.48 1.53897 0
M  V30 4550 N 431.777 -5.7955 -0.331966 0
M  V30 4551 H 434.542 -2.35879 1.84881 0
M  V30 4552 H 432.103 -1.17931 1.10923 0
M  V30 4553 H 434.095 -4.04683 -0.0373026 0
M  V30 4554 H 432.665 -3.08696 -0.492527 0
M  V30 4555 H 431.885 -3.41351 1.97163 0
M  V30 4556 H 433.173 -4.62103 2.12928 0
M  V30 4557 H 432.571 -5.58455 -0.902478 0
M  V30 4558 H 431.128 -6.48464 -0.65861 0
M  V30 4559 N 434.561 -1.01147 -1.20859 0
M  V30 4560 C 435.471 -0.58686 -2.27141 0
M  V30 4561 C 436.487 0.373198 -1.69951 0
M  V30 4562 O 437.663 0.235423 -2.00019 0
M  V30 4563 C 434.728 0.0733602 -3.46622 0
M  V30 4564 C 433.789 -0.931995 -4.19061 0
M  V30 4565 C 433.022 -0.303186 -5.32838 0
M  V30 4566 O 433.245 0.898395 -5.63281 0
M  V30 4567 O 432.179 -1.01735 -5.9324 0
M  V30 4568 H 436.005 -1.47155 -2.65667 0
M  V30 4569 H 433.59 -0.780689 -1.2738 0
M  V30 4570 H 435.472 0.442333 -4.19072 0
M  V30 4571 H 434.147 0.932329 -3.09983 0
M  V30 4572 H 433.054 -1.35224 -3.48805 0
M  V30 4573 H 434.387 -1.76076 -4.59628 0
M  V30 4574 N 436.039 1.36541 -0.78704 0
M  V30 4575 C 436.986 2.30082 -0.181901 0
M  V30 4576 C 437.956 1.5186 0.672896 0
M  V30 4577 O 439.141 1.80374 0.622072 0
M  V30 4578 C 436.281 3.3835 0.679197 0
M  V30 4579 C 435.394 4.31565 -0.193882 0
M  V30 4580 C 434.529 5.26915 0.673364 0
M  V30 4581 C 433.568 6.11769 -0.201315 0
M  V30 4582 N 432.705 6.99315 0.624777 0
M  V30 4583 H 437.545 2.81248 -0.985064 0
M  V30 4584 H 435.082 1.38437 -0.497342 0
M  V30 4585 H 437.04 3.99767 1.19341 0
M  V30 4586 H 435.67 2.8851 1.44781 0
M  V30 4587 H 434.722 3.71323 -0.826044 0
M  V30 4588 H 436.034 4.91191 -0.867937 0
M  V30 4589 H 435.188 5.9361 1.25348 0
M  V30 4590 H 433.927 4.67737 1.38105 0
M  V30 4591 H 432.932 5.44039 -0.793849 0
M  V30 4592 H 434.157 6.73022 -0.906568 0
M  V30 4593 H 432.103 6.42648 1.3168 0
M  V30 4594 H 432.02 7.56 0.00835237 0
M  V30 4595 H 433.288 7.70382 1.18879 0
M  V30 4596 N 437.518 0.538854 1.48102 0
M  V30 4597 C 438.765 0.0080018 2.02498 0
M  V30 4598 C 439.093 -1.33437 1.41509 0
M  V30 4599 O 438.348 -1.87709 0.553507 0
M  V30 4600 C 438.647 -0.153808 3.57069 0
M  V30 4601 C 438.313 1.11533 4.36888 0
M  V30 4602 C 436.975 1.46314 4.58417 0
M  V30 4603 C 439.327 1.95718 4.83057 0
M  V30 4604 C 436.655 2.6516 5.23361 0
M  V30 4605 C 439.007 3.13751 5.49312 0
M  V30 4606 C 437.671 3.48866 5.69077 0
M  V30 4607 H 436.941 0.00292807 0.740994 0
M  V30 4608 H 439.588 0.706668 1.77984 0
M  V30 4609 H 437.893 -0.935309 3.80472 0
M  V30 4610 H 439.59 -0.579607 3.96789 0
M  V30 4611 H 436.18 0.834484 4.20398 0
M  V30 4612 H 440.364 1.70158 4.66219 0
M  V30 4613 H 435.62 2.92558 5.36861 0
M  V30 4614 H 439.794 3.79282 5.84053 0
M  V30 4615 H 437.421 4.41054 6.19173 0
M  V30 4616 N 438.996 -1.55193 0.274407 0
M  V30 4617 C 440.244 -1.99187 -0.341902 0
M  V30 4618 C 440.565 -1.16422 -1.56431 0
M  V30 4619 O 439.835 -0.253573 -1.94252 0
M  V30 4620 H 438.415 -0.735721 -0.129317 0
M  V30 4621 H 441.077 -1.91168 0.379578 0
M  V30 4622 H 440.173 -3.05629 -0.632253 0
M  V30 4623 N 440.474 -0.00167713 -1.576 0
M  V30 4624 C 441.421 0.989195 -2.08527 0
M  V30 4625 C 442.391 1.34031 -0.981065 0
M  V30 4626 O 443.576 1.43839 -1.2536 0
M  V30 4627 C 440.716 2.27537 -2.59463 0
M  V30 4628 C 439.829 1.98314 -3.83791 0
M  V30 4629 C 438.964 3.21025 -4.23222 0
M  V30 4630 C 438.003 2.87495 -5.40382 0
M  V30 4631 N 437.14 4.02749 -5.75098 0
M  V30 4632 H 441.98 0.547973 -2.92919 0
M  V30 4633 H 439.517 0.258917 -1.44803 0
M  V30 4634 H 441.475 3.02729 -2.87073 0
M  V30 4635 H 440.105 2.69325 -1.77943 0
M  V30 4636 H 439.157 1.13482 -3.63078 0
M  V30 4637 H 440.469 1.69601 -4.69081 0
M  V30 4638 H 439.623 4.04561 -4.52123 0
M  V30 4639 H 438.362 3.52877 -3.36644 0
M  V30 4640 H 437.367 2.02367 -5.11202 0
M  V30 4641 H 438.592 2.56889 -6.28637 0
M  V30 4642 H 436.538 4.34494 -4.91478 0
M  V30 4643 H 436.455 3.77566 -6.54966 0
M  V30 4644 H 437.723 4.87068 -6.08592 0
M  V30 4645 N 441.952 1.55251 0.271103 0
M  V30 4646 C 443.229 1.66664 1.02384 0
M  V30 4647 C 443.609 0.534363 2.04225 0
M  V30 4648 O 442.957 -0.465337 2.23712 0
M  V30 4649 C 443.167 3.05961 1.67895 0
M  V30 4650 C 444.515 3.63772 2.18986 0
M  V30 4651 O 445.539 3.08606 1.77878 0
M  V30 4652 O 444.398 4.60429 2.94393 0
M  V30 4653 H 441.492 0.676957 0.475035 0
M  V30 4654 H 444.038 1.67589 0.26681 0
M  V30 4655 H 442.81 3.79815 0.941071 0
M  V30 4656 H 442.433 3.08943 2.5028 0
M  V30 4657 N 443.43 -0.535701 1.48216 0
M  V30 4658 C 444.377 -1.64083 1.62312 0
M  V30 4659 C 445.347 -1.59448 0.465365 0
M  V30 4660 O 446.532 -1.77959 0.688135 0
M  V30 4661 C 443.672 -3.0236 1.66349 0
M  V30 4662 C 442.785 -3.17273 2.93193 0
M  V30 4663 C 441.92 -4.46075 2.88427 0
M  V30 4664 C 440.959 -4.54496 4.1 0
M  V30 4665 N 440.096 -5.7468 4.03345 0
M  V30 4666 H 444.936 -1.51374 2.5669 0
M  V30 4667 H 442.473 -0.737059 1.27302 0
M  V30 4668 H 444.431 -3.82461 1.66672 0
M  V30 4669 H 443.061 -3.13854 0.754672 0
M  V30 4670 H 442.113 -2.30462 3.02641 0
M  V30 4671 H 443.425 -3.19357 3.83162 0
M  V30 4672 H 442.579 -5.3446 2.87119 0
M  V30 4673 H 441.318 -4.46504 1.96177 0
M  V30 4674 H 440.323 -3.64519 4.11589 0
M  V30 4675 H 441.548 -4.5581 5.03402 0
M  V30 4676 H 439.494 -5.76017 3.13912 0
M  V30 4677 H 439.411 -5.78234 4.87013 0
M  V30 4678 H 440.679 -6.65367 4.06087 0
M  V30 4679 N 444.908 -1.36708 -0.784132 0
M  V30 4680 C 446.133 -1.34565 -1.5782 0
M  V30 4681 C 446.558 0.0695257 -1.87971 0
M  V30 4682 O 445.916 1.04302 -1.48293 0
M  V30 4683 C 445.964 -2.17952 -2.87279 0
M  V30 4684 O 445.068 -1.57563 -3.81114 0
M  V30 4685 H 444.409 -0.460337 -0.478524 0
M  V30 4686 H 446.939 -1.80064 -0.971495 0
M  V30 4687 H 446.949 -2.30721 -3.365 0
M  V30 4688 H 445.624 -3.20823 -2.64661 0
M  V30 4689 H 444.201 -1.53764 -3.39722 0
M  V30 4690 N 446.386 1.0089 -1.21074 0
M  V30 4691 C 447.797 1.56056 -1.02486 0
M  V30 4692 C 448.148 1.91728 0.416506 0
M  V30 4693 O 447.273 1.73066 1.29912 0
M  V30 4694 C 447.868 2.83563 -1.85411 0
M  V30 4695 C 446.427 3.3523 -1.71166 0
M  V30 4696 C 445.574 2.0846 -1.82865 0
M  V30 4697 H 448.525 0.831818 -1.35154 0
M  V30 4698 H 448.546 3.55286 -1.36205 0
M  V30 4699 H 448.058 2.57569 -2.9031 0
M  V30 4700 H 446.159 3.66167 -0.689361 0
M  V30 4701 H 446.272 4.06913 -2.52901 0
M  V30 4702 H 444.636 2.21275 -1.26132 0
M  V30 4703 H 445.419 1.84883 -2.89263 0
M  V30 4704 N 447.864 1.01787 1.20321 0
M  V30 4705 C 448.811 0.589197 2.23153 0
M  V30 4706 C 449.781 -0.391367 1.61423 0
M  V30 4707 O 450.966 -0.290518 1.88575 0
M  V30 4708 C 448.106 -0.0650747 3.45039 0
M  V30 4709 C 447.219 0.960207 4.21194 0
M  V30 4710 C 446.354 0.276854 5.30478 0
M  V30 4711 C 445.393 1.2888 5.98378 0
M  V30 4712 N 444.53 0.632031 6.99249 0
M  V30 4713 H 449.37 1.47071 2.59179 0
M  V30 4714 H 446.907 0.736192 1.27352 0
M  V30 4715 H 448.865 -0.461552 4.14639 0
M  V30 4716 H 447.495 -0.910233 3.09701 0
M  V30 4717 H 446.547 1.47484 3.50646 0
M  V30 4718 H 447.859 1.72977 4.67847 0
M  V30 4719 H 447.013 -0.175056 6.06447 0
M  V30 4720 H 445.752 -0.525004 4.84866 0
M  V30 4721 H 444.757 1.75109 5.21169 0
M  V30 4722 H 445.982 2.09196 6.46076 0
M  V30 4723 H 443.928 -0.149935 6.55829 0
M  V30 4724 H 443.845 1.33964 7.44036 0
M  V30 4725 H 445.113 0.203755 7.79234 0
M  V30 4726 N 449.342 -1.36122 0.79427 0
M  V30 4727 C 450.589 -1.99111 0.368905 0
M  V30 4728 C 450.917 -1.63032 -1.0607 0
M  V30 4729 O 450.172 -0.879303 -1.74833 0
M  V30 4730 C 450.471 -3.5409 0.48527 0
M  V30 4731 C 450.137 -4.10003 1.87638 0
M  V30 4732 C 448.799 -4.24986 2.257 0
M  V30 4733 C 451.151 -4.40423 2.78706 0
M  V30 4734 C 448.479 -4.67701 3.54221 0
M  V30 4735 C 450.831 -4.84573 4.0666 0
M  V30 4736 C 449.495 -4.97761 4.44737 0
M  V30 4737 H 448.765 -0.7286 0.134992 0
M  V30 4738 H 451.412 -1.62534 1.01267 0
M  V30 4739 H 449.717 -3.91052 -0.241984 0
M  V30 4740 H 451.414 -4.00766 0.137109 0
M  V30 4741 H 448.004 -3.98784 1.57064 0
M  V30 4742 H 452.188 -4.28412 2.50553 0
M  V30 4743 H 447.444 -4.761 3.83587 0
M  V30 4744 H 451.618 -5.07074 4.77336 0
M  V30 4745 H 449.245 -5.30618 5.44379 0
M  V30 4746 N 450.82 -0.546701 -1.47814 0
M  V30 4747 C 451.752 0.244196 -2.27895 0
M  V30 4748 C 452.765 0.88911 -1.36377 0
M  V30 4749 O 453.954 0.764733 -1.61289 0
M  V30 4750 C 451.054 1.36252 -3.10304 0
M  V30 4751 C 450.227 0.816382 -4.29714 0
M  V30 4752 C 449.286 1.81789 -4.93801 0
M  V30 4753 O 448.312 1.36818 -5.52512 0
M  V30 4754 N 449.514 3.15085 -4.87547 0
M  V30 4755 H 452.279 -0.442694 -2.96412 0
M  V30 4756 H 449.84 -0.382095 -1.57327 0
M  V30 4757 H 451.832 2.03102 -3.50045 0
M  V30 4758 H 450.402 1.95281 -2.44099 0
M  V30 4759 H 449.622 -0.0285981 -3.9419 0
M  V30 4760 H 450.91 0.430668 -5.06974 0
M  V30 4761 H 450.308 3.54275 -4.41028 0
M  V30 4762 H 448.865 3.77522 -5.31339 0
M  V30 4763 N 452.299 1.55045 -0.282633 0
M  V30 4764 C 453.229 2.2579 0.595066 0
M  V30 4765 C 454.21 1.25074 1.15284 0
M  V30 4766 O 455.395 1.5381 1.18559 0
M  V30 4767 C 452.525 2.98472 1.77572 0
M  V30 4768 C 451.479 4.0618 1.34914 0
M  V30 4769 C 450.805 4.66477 2.6135 0
M  V30 4770 C 452.105 5.1996 0.493821 0
M  V30 4771 H 453.799 2.994 0.00505653 0
M  V30 4772 H 451.345 1.44 0.000992001 0
M  V30 4773 H 453.298 3.46677 2.39568 0
M  V30 4774 H 452.022 2.2241 2.39168 0
M  V30 4775 H 450.681 3.58797 0.752338 0
M  V30 4776 H 450.329 3.87074 3.2122 0
M  V30 4777 H 450.029 5.39207 2.33516 0
M  V30 4778 H 451.553 5.17435 3.24181 0
M  V30 4779 H 452.967 5.64172 1.01898 0
M  V30 4780 H 451.364 5.99299 0.310047 0
M  V30 4781 H 452.434 4.82462 -0.485593 0
M  V30 4782 N 453.777 0.010035 1.57597 0
M  V30 4783 C 455.024 -0.6727 1.91 0
M  V30 4784 C 455.352 -1.73219 0.884614 0
M  V30 4785 O 454.607 -1.95395 -0.109215 0
M  V30 4786 C 454.906 -1.34434 3.31153 0
M  V30 4787 C 454.572 -0.417083 4.48967 0
M  V30 4788 C 453.234 -0.161809 4.80928 0
M  V30 4789 C 455.586 0.220753 5.20732 0
M  V30 4790 C 452.914 0.739426 5.82022 0
M  V30 4791 C 455.266 1.10993 6.22787 0
M  V30 4792 C 453.93 1.37428 6.532 0
M  V30 4793 H 453.2 -0.246158 0.698918 0
M  V30 4794 H 455.847 0.0677145 1.9138 0
M  V30 4795 H 454.152 -2.15905 3.26944 0
M  V30 4796 H 455.849 -1.87883 3.54261 0
M  V30 4797 H 452.439 -0.626217 4.24001 0
M  V30 4798 H 456.623 0.0365643 4.96287 0
M  V30 4799 H 451.879 0.952139 6.03941 0
M  V30 4800 H 456.053 1.61046 6.77523 0
M  V30 4801 H 453.68 2.0743 7.31353 0
M  V30 4802 N 455.255 -1.55392 -0.262866 0
M  V30 4803 C 456.503 -1.76127 -0.991147 0
M  V30 4804 C 456.824 -0.571083 -1.8645 0
M  V30 4805 O 456.094 0.413698 -1.91482 0
M  V30 4806 H 454.674 -0.649528 -0.368948 0
M  V30 4807 H 457.336 -1.9281 -0.284655 0
M  V30 4808 H 456.432 -2.6663 -1.62219 0
M  V30 4809 N 456.733 0.527833 -1.48498 0
M  V30 4810 C 457.958 1.313 -1.60546 0
M  V30 4811 C 458.383 1.86199 -0.26672 0
M  V30 4812 O 457.741 1.64513 0.761918 0
M  V30 4813 C 457.789 2.43818 -2.65678 0
M  V30 4814 O 456.893 3.46916 -2.22987 0
M  V30 4815 H 456.234 0.388784 -0.538277 0
M  V30 4816 H 458.764 0.634896 -1.945 0
M  V30 4817 H 458.774 2.89973 -2.87018 0
M  V30 4818 H 457.449 2.03222 -3.62869 0
M  V30 4819 H 456.026 3.06864 -2.11869 0
M  V30 4820 N 458.211 1.37122 0.776871 0
M  V30 4821 C 459.622 1.28667 1.35284 0
M  V30 4822 C 459.973 -0.0680035 1.96082 0
M  V30 4823 O 459.098 -0.969743 1.93455 0
M  V30 4824 C 459.693 2.32997 2.45963 0
M  V30 4825 C 458.252 2.28191 2.99342 0
M  V30 4826 C 457.399 2.17101 1.72517 0
M  V30 4827 H 460.35 1.47819 0.577527 0
M  V30 4828 H 460.371 1.97366 3.2531 0
M  V30 4829 H 459.883 3.3158 2.01684 0
M  V30 4830 H 457.984 1.33115 3.4801 0
M  V30 4831 H 458.097 3.21397 3.55304 0
M  V30 4832 H 456.461 1.63562 1.95242 0
M  V30 4833 H 457.244 3.17591 1.30348 0
M  V30 4834 N 459.689 -1.00246 1.21608 0
M  V30 4835 C 460.914 -1.78167 1.06167 0
M  V30 4836 C 461.339 -1.84138 -0.384035 0
M  V30 4837 O 460.697 -1.28683 -1.27712 0
M  V30 4838 C 460.745 -3.19786 1.66642 0
M  V30 4839 O 459.849 -4.02153 0.913613 0
M  V30 4840 H 459.19 -0.549 0.37349 0
M  V30 4841 H 461.72 -1.25994 1.61204 0
M  V30 4842 H 461.73 -3.70451 1.70969 0
M  V30 4843 H 460.405 -3.14754 2.7185 0
M  V30 4844 H 458.982 -3.60711 0.945635 0
M  V30 4845 N 461.167 -1.02423 -1.1978 0
M  V30 4846 C 462.415 -0.716569 -1.8897 0
M  V30 4847 C 462.736 0.756769 -1.79716 0
M  V30 4848 O 462.006 1.5449 -1.20456 0
M  V30 4849 H 460.586 -0.262062 -0.699523 0
M  V30 4850 H 463.248 -1.29747 -1.45436 0
M  V30 4851 H 462.344 -1.00675 -2.95417 0
M  V30 4852 N 462.645 1.35699 -0.801477 0
M  V30 4853 C 463.577 2.28598 -0.166028 0
M  V30 4854 C 464.59 1.50044 0.631721 0
M  V30 4855 O 465.779 1.72339 0.464921 0
M  V30 4856 C 462.879 3.29625 0.787451 0
M  V30 4857 C 462.052 4.37384 0.037171 0
M  V30 4858 C 461.111 5.183 0.908375 0
M  V30 4859 O 460.137 5.68053 0.361189 0
M  V30 4860 N 461.339 5.35912 2.23112 0
M  V30 4861 H 464.104 2.83771 -0.964071 0
M  V30 4862 H 461.665 1.47994 -0.656469 0
M  V30 4863 H 463.657 3.80648 1.37439 0
M  V30 4864 H 462.227 2.75004 1.48632 0
M  V30 4865 H 461.447 3.87364 -0.730935 0
M  V30 4866 H 462.735 5.0653 -0.480109 0
M  V30 4867 H 462.133 4.97125 2.69968 0
M  V30 4868 H 460.69 5.90133 2.76741 0
M  V30 4869 N 464.123 0.554532 1.47522 0
M  V30 4870 C 465.07 -0.19466 2.29978 0
M  V30 4871 C 466.04 -0.910882 1.38896 0
M  V30 4872 O 467.225 -0.907102 1.67858 0
M  V30 4873 C 464.365 -1.22035 3.22802 0
M  V30 4874 C 463.478 -0.510474 4.28973 0
M  V30 4875 C 462.613 -1.52123 5.08952 0
M  V30 4876 C 461.652 -0.796173 6.069 0
M  V30 4877 N 460.789 -1.75363 6.79847 0
M  V30 4878 H 465.629 0.51461 2.93523 0
M  V30 4879 H 463.166 0.265607 1.44682 0
M  V30 4880 H 465.124 -1.8276 3.7504 0
M  V30 4881 H 463.754 -1.89769 2.61127 0
M  V30 4882 H 462.806 0.211234 3.79813 0
M  V30 4883 H 464.118 0.0576503 4.98767 0
M  V30 4884 H 463.272 -2.20207 5.65326 0
M  V30 4885 H 462.011 -2.12327 4.39054 0
M  V30 4886 H 461.016 -0.101388 5.49707 0
M  V30 4887 H 462.241 -0.199911 6.78806 0
M  V30 4888 H 460.187 -2.3443 6.12682 0
M  V30 4889 H 460.104 -1.23759 7.45801 0
M  V30 4890 H 461.372 -2.4257 7.40797 0
M  V30 4891 N 465.601 -1.54893 0.290851 0
M  V30 4892 C 466.878 -1.91991 -0.373989 0
M  V30 4893 C 467.258 -1.21694 -1.72493 0
M  V30 4894 O 466.606 -0.34917 -2.25816 0
M  V30 4895 C 466.816 -3.45419 -0.498703 0
M  V30 4896 C 468.164 -4.1748 -0.774298 0
M  V30 4897 O 469.188 -3.51398 -0.582908 0
M  V30 4898 O 468.047 -5.3445 -1.14129 0
M  V30 4899 H 465.141 -0.800593 -0.207315 0
M  V30 4900 H 467.687 -1.66297 0.338164 0
M  V30 4901 H 466.459 -3.88688 0.451392 0
M  V30 4902 H 466.082 -3.77117 -1.25972 0
M  V30 4903 N 467.08 -0.0183926 -1.57589 0
M  V30 4904 C 468.01 0.965596 -2.12599 0
M  V30 4905 C 468.991 1.34641 -1.0395 0
M  V30 4906 O 470.176 1.42693 -1.31729 0
M  V30 4907 C 467.306 2.25149 -2.64434 0
M  V30 4908 C 466.26 2.01175 -3.77773 0
M  V30 4909 C 465.586 3.35937 -4.15994 0
M  V30 4910 C 466.886 1.35953 -5.04296 0
M  V30 4911 H 468.58 0.507504 -2.95067 0
M  V30 4912 H 466.126 0.242671 -1.41941 0
M  V30 4913 H 468.079 2.94357 -3.01549 0
M  V30 4914 H 466.803 2.73105 -1.79112 0
M  V30 4915 H 465.462 1.34388 -3.4108 0
M  V30 4916 H 465.11 3.81631 -3.27669 0
M  V30 4917 H 464.81 3.20705 -4.92364 0
M  V30 4918 H 466.334 4.0643 -4.55683 0
M  V30 4919 H 467.748 1.95144 -5.39065 0
M  V30 4920 H 466.145 1.31152 -5.85593 0
M  V30 4921 H 467.215 0.331071 -4.83768 0
M  V30 4922 N 468.558 1.5553 0.254621 0
M  V30 4923 C 469.488 1.9268 1.31897 0
M  V30 4924 C 470.469 0.790797 1.506 0
M  V30 4925 O 471.654 1.05045 1.63337 0
M  V30 4926 C 468.784 2.21477 2.67517 0
M  V30 4927 C 467.738 3.37256 2.63519 0
M  V30 4928 C 467.064 3.51576 4.02862 0
M  V30 4929 C 468.364 4.73157 2.21179 0
M  V30 4930 H 470.058 2.81832 1.01051 0
M  V30 4931 H 467.604 1.35599 0.484662 0
M  V30 4932 H 469.557 2.46055 3.42104 0
M  V30 4933 H 468.281 1.29144 2.99982 0
M  V30 4934 H 466.94 3.12675 1.9139 0
M  V30 4935 H 466.588 2.56676 4.32581 0
M  V30 4936 H 466.288 4.2943 4.01078 0
M  V30 4937 H 467.812 3.78467 4.79161 0
M  V30 4938 H 469.226 4.97158 2.85494 0
M  V30 4939 H 467.623 5.54058 2.30521 0
M  V30 4940 H 468.693 4.70739 1.16332 0
M  V30 4941 N 470.036 -0.519951 1.48776 0
M  V30 4942 C 471.283 -1.27522 1.57303 0
M  V30 4943 C 471.611 -1.92869 0.251328 0
M  V30 4944 O 470.866 -1.80372 -0.759243 0
M  V30 4945 C 471.165 -2.37864 2.6675 0
M  V30 4946 C 470.831 -1.90103 4.08867 0
M  V30 4947 C 469.493 -1.76795 4.47546 0
M  V30 4948 C 471.845 -1.54133 4.97888 0
M  V30 4949 C 469.173 -1.25868 5.73039 0
M  V30 4950 C 471.525 -1.04665 6.23881 0
M  V30 4951 C 470.189 -0.899823 6.61407 0
M  V30 4952 H 469.459 -0.466636 0.575614 0
M  V30 4953 H 472.106 -0.579109 1.82534 0
M  V30 4954 H 470.411 -3.13186 2.35418 0
M  V30 4955 H 472.108 -2.95969 2.70561 0
M  V30 4956 H 468.698 -2.01414 3.78326 0
M  V30 4957 H 472.882 -1.6327 4.68675 0
M  V30 4958 H 468.138 -1.13196 6.0083 0
M  V30 4959 H 472.312 -0.759074 6.92251 0
M  V30 4960 H 469.939 -0.503011 7.58534 0
M  V30 4961 N 471.514 -1.37532 -0.769588 0
M  V30 4962 C 472.461 -1.3347 -1.88293 0
M  V30 4963 C 473.431 -0.199891 -1.64893 0
M  V30 4964 O 474.616 -0.389594 -1.8678 0
M  V30 4965 C 471.756 -1.14968 -3.25387 0
M  V30 4966 C 470.869 -2.37698 -3.60727 0
M  V30 4967 C 470.004 -2.12051 -4.8704 0
M  V30 4968 C 469.043 -3.30636 -5.15117 0
M  V30 4969 N 468.18 -3.04527 -6.3262 0
M  V30 4970 H 473.02 -2.28658 -1.911 0
M  V30 4971 H 470.557 -1.13622 -0.934257 0
M  V30 4972 H 472.515 -1.02261 -4.04473 0
M  V30 4973 H 471.145 -0.234263 -3.21949 0
M  V30 4974 H 470.197 -2.61137 -2.76608 0
M  V30 4975 H 471.509 -3.26131 -3.77413 0
M  V30 4976 H 470.663 -1.96388 -5.74035 0
M  V30 4977 H 469.402 -1.20959 -4.72462 0
M  V30 4978 H 468.407 -3.46836 -4.26597 0
M  V30 4979 H 469.632 -4.22582 -5.31603 0
M  V30 4980 H 467.578 -2.16067 -6.19396 0
M  V30 4981 H 467.495 -3.86503 -6.49732 0
M  V30 4982 H 468.763 -2.92485 -7.22546 0
M  V30 4983 N 472.992 0.995999 -1.22138 0
M  V30 4984 C 474.269 1.70834 -0.952642 0
M  V30 4985 C 474.649 2.04257 0.533119 0
M  V30 4986 O 473.997 1.72343 1.50034 0
M  V30 4987 C 474.207 2.96119 -1.84701 0
M  V30 4988 C 475.555 3.68962 -2.10124 0
M  V30 4989 O 476.579 3.0612 -1.82124 0
M  V30 4990 O 475.438 4.82017 -2.57531 0
M  V30 4991 H 472.532 0.745498 -0.357997 0
M  V30 4992 H 475.078 1.05262 -1.33109 0
M  V30 4993 H 473.85 2.67898 -2.85213 0
M  V30 4994 H 473.473 3.6943 -1.46995 0
M  V30 4995 N 474.47 1.03057 1.19235 0
M  V30 4996 C 475.695 0.74757 1.93458 0
M  V30 4997 C 476.12 -0.687648 1.7508 0
M  V30 4998 O 475.478 -1.47499 1.05422 0
M  V30 4999 C 475.526 1.10604 3.43219 0
M  V30 5000 O 474.63 0.225671 4.11782 0
M  V30 5001 H 473.971 0.276047 0.603899 0
M  V30 5002 H 476.501 1.3777 1.51263 0
M  V30 5003 H 476.511 1.06366 3.93891 0
M  V30 5004 H 475.186 2.15165 3.55917 0
M  V30 5005 H 473.763 0.326795 3.71465 0
M  V30 5006 N 475.948 -1.35272 0.808662 0
M  V30 5007 C 476.911 -2.28082 0.226093 0
M  V30 5008 C 477.911 -1.49673 -0.587762 0
M  V30 5009 O 479.101 -1.69404 -0.405943 0
M  V30 5010 C 476.233 -3.33955 -0.684596 0
M  V30 5011 H 477.426 -2.81116 1.04469 0
M  V30 5012 H 474.979 -1.45162 0.579466 0
M  V30 5013 H 475.714 -2.86111 -1.5268 0
M  V30 5014 H 475.499 -3.91965 -0.102699 0
M  V30 5015 H 476.989 -4.03219 -1.08646 0
M  V30 5016 N 477.426 -0.562348 -1.47226 0
M  V30 5017 C 478.675 -0.038041 -2.01664 0
M  V30 5018 C 478.988 1.32199 -1.44162 0
M  V30 5019 O 480.194 1.9365 -1.90294 0
M  V30 5020 C 478.65 -0.0174958 -3.59896 0
M  V30 5021 C 478.258 -1.3746 -4.2639 0
M  V30 5022 C 480.002 0.453934 -4.22066 0
M  V30 5023 C 477.909 -1.31289 -5.76643 0
M  V30 5024 H 476.839 -0.0104511 -0.753928 0
M  V30 5025 H 479.49 -0.710966 -1.69167 0
M  V30 5026 H 477.872 0.721182 -3.89378 0
M  V30 5027 H 479.046 -2.1314 -4.08544 0
M  V30 5028 H 477.361 -1.78438 -3.7623 0
M  V30 5029 H 479.958 0.518584 -5.32179 0
M  V30 5030 H 480.301 1.46706 -3.89594 0
M  V30 5031 H 480.834 -0.230044 -3.97134 0
M  V30 5032 H 477.573 -2.30217 -6.13743 0
M  V30 5033 H 477.093 -0.597973 -5.96812 0
M  V30 5034 H 478.772 -1.01713 -6.38955 0
M  V30 5035 N 478.904 1.54736 -0.299062 0
M  V30 5036 C 480.152 1.99706 0.31017 0
M  V30 5037 C 480.473 1.18896 1.54559 0
M  V30 5038 O 479.743 0.284445 1.93824 0
M  V30 5039 H 478.323 0.737686 0.117596 0
M  V30 5040 H 480.985 1.9054 -0.409943 0
M  V30 5041 H 480.081 3.06596 0.58355 0
M  V30 5042 N 480.382 0.0267497 1.57577 0
M  V30 5043 C 481.629 -0.652404 1.91703 0
M  V30 5044 C 481.957 -1.72271 0.902936 0
M  V30 5045 O 481.212 -1.955 -0.0884843 0
M  V30 5046 C 481.511 -1.30914 3.3256 0
M  V30 5047 C 481.177 -0.369441 4.49384 0
M  V30 5048 C 479.839 -0.110791 4.81072 0
M  V30 5049 C 482.191 0.275971 5.20469 0
M  V30 5050 C 479.519 0.801116 5.81205 0
M  V30 5051 C 481.871 1.17592 6.21575 0
M  V30 5052 C 480.535 1.44348 6.51705 0
M  V30 5053 H 479.805 -0.238732 0.70149 0
M  V30 5054 H 482.452 0.0880091 1.91298 0
M  V30 5055 H 480.757 -2.12425 3.29216 0
M  V30 5056 H 482.454 -1.84115 3.56234 0
M  V30 5057 H 479.044 -0.581211 4.24641 0
M  V30 5058 H 483.228 0.0892 4.9622 0
M  V30 5059 H 478.484 1.01614 6.02897 0
M  V30 5060 H 482.658 1.68223 6.75777 0
M  V30 5061 H 480.285 2.15176 7.29111 0
M  V30 5062 N 481.861 -1.55662 -0.24637 0
M  V30 5063 C 483.086 -1.81914 -0.996093 0
M  V30 5064 C 483.511 -0.603875 -1.78143 0
M  V30 5065 O 482.869 0.447091 -1.75701 0
M  V30 5066 C 482.917 -3.05908 -1.90925 0
M  V30 5067 O 482.021 -2.82861 -3.00105 0
M  V30 5068 H 481.362 -0.600481 -0.283406 0
M  V30 5069 H 483.892 -2.02848 -0.267199 0
M  V30 5070 H 483.902 -3.35356 -2.3238 0
M  V30 5071 H 482.577 -3.93999 -1.33183 0
M  V30 5072 H 481.154 -2.64583 -2.62775 0
M  V30 5073 N 483.339 0.512053 -1.4905 0
M  V30 5074 C 484.755 0.84224 -1.35567 0
M  V30 5075 C 484.955 1.97878 -0.380319 0
M  V30 5076 O 484.011 2.51769 0.19201 0
M  V30 5077 C 485.324 1.19286 -2.76028 0
M  V30 5078 C 486.872 1.30171 -2.84648 0
M  V30 5079 C 487.347 1.68568 -4.25851 0
M  V30 5080 N 488.838 1.75638 -4.28609 0
M  V30 5081 C 489.573 2.06769 -5.34821 0
M  V30 5082 N 489.069 2.36201 -6.51292 0
M  V30 5083 N 490.862 2.07927 -5.22229 0
M  V30 5084 H 483.013 -0.237574 -2.11067 0
M  V30 5085 H 485.276 -0.0436747 -0.946993 0
M  V30 5086 H 484.982 0.431199 -3.49047 0
M  V30 5087 H 484.856 2.13889 -3.10695 0
M  V30 5088 H 487.243 2.05411 -2.11873 0
M  V30 5089 H 487.324 0.336457 -2.53578 0
M  V30 5090 H 486.968 0.938824 -4.99148 0
M  V30 5091 H 486.898 2.66174 -4.54377 0
M  V30 5092 H 489.389 1.55097 -3.44606 0
M  V30 5093 H 489.702 2.59112 -7.28066 0
M  V30 5094 H 488.047 2.33681 -6.54536 0
M  V30 5095 H 491.238 1.84403 -4.30248 0
M  V30 5096 H 491.411 2.31856 -6.05101 0
M  V30 5097 N 484.817 1.37938 0.762283 0
M  V30 5098 C 486.063 1.33866 1.52341 0
M  V30 5099 C 486.396 -0.0738961 1.94059 0
M  V30 5100 O 485.671 -1.03326 1.64785 0
M  V30 5101 C 485.954 2.28644 2.78197 0
M  V30 5102 C 485.807 3.78722 2.42672 0
M  V30 5103 C 487.126 2.21702 3.80179 0
M  V30 5104 H 484.245 0.487593 0.55265 0
M  V30 5105 H 486.887 1.68717 0.873767 0
M  V30 5106 H 485.037 1.99055 3.33631 0
M  V30 5107 H 486.709 4.18948 1.93081 0
M  V30 5108 H 484.952 3.96827 1.75244 0
M  V30 5109 H 485.623 4.40486 3.3268 0
M  V30 5110 H 488.099 2.47805 3.34263 0
M  V30 5111 H 486.975 2.90143 4.65949 0
M  V30 5112 H 487.236 1.21301 4.25133 0
M  V30 5113 N 486.295 -0.989507 1.22664 0
M  V30 5114 C 487.706 -1.54406 1.04955 0
M  V30 5115 C 488.057 -1.92366 -0.385951 0
M  V30 5116 O 487.182 -1.75111 -1.27142 0
M  V30 5117 C 487.777 -2.80578 1.89899 0
M  V30 5118 C 486.336 -3.32464 1.76478 0
M  V30 5119 C 485.483 -2.05524 1.86159 0
M  V30 5120 H 488.434 -0.810211 1.3646 0
M  V30 5121 H 488.455 -3.53075 1.4184 0
M  V30 5122 H 487.967 -2.52918 2.94371 0
M  V30 5123 H 486.068 -3.65024 0.747528 0
M  V30 5124 H 486.181 -4.02838 2.59342 0
M  V30 5125 H 484.545 -2.19241 1.29636 0
M  V30 5126 H 485.328 -1.80258 2.92168 0
M  V30 5127 N 487.773 -1.03688 -1.18687 0
M  V30 5128 C 489.184 -0.766488 -1.70241 0
M  V30 5129 C 489.535 0.713052 -1.82784 0
M  V30 5130 O 488.66 1.55529 -1.50465 0
M  V30 5131 C 489.255 -1.38475 -3.09209 0
M  V30 5132 C 487.814 -1.16276 -3.5799 0
M  V30 5133 C 486.961 -1.4778 -2.34641 0
M  V30 5134 H 489.912 -1.20378 -1.03415 0
M  V30 5135 H 489.933 -0.785939 -3.72295 0
M  V30 5136 H 489.445 -2.46157 -3.00048 0
M  V30 5137 H 487.546 -0.104508 -3.72453 0
M  V30 5138 H 487.659 -1.8571 -4.41643 0
M  V30 5139 H 486.023 -0.897366 -2.38368 0
M  V30 5140 H 486.806 -2.56562 -2.28102 0
M  V30 5141 N 489.251 1.34841 -0.815825 0
M  V30 5142 C 490.667 1.51543 -0.500697 0
M  V30 5143 C 490.867 1.76261 0.976444 0
M  V30 5144 O 489.923 1.8094 1.76117 0
M  V30 5145 C 491.236 2.68487 -1.35407 0
M  V30 5146 C 492.784 2.82368 -1.35046 0
M  V30 5147 C 493.259 4.02347 -2.18816 0
M  V30 5148 N 494.75 4.09542 -2.16402 0
M  V30 5149 C 495.485 5.01517 -2.77971 0
M  V30 5150 N 494.981 5.98763 -3.48503 0
M  V30 5151 N 496.774 4.94334 -2.67563 0
M  V30 5152 H 488.925 1.17055 -1.77234 0
M  V30 5153 H 491.188 0.573481 -0.754866 0
M  V30 5154 H 490.894 2.56829 -2.40274 0
M  V30 5155 H 490.768 3.63321 -1.01377 0
M  V30 5156 H 493.155 2.93471 -0.309604 0
M  V30 5157 H 493.236 1.88363 -1.73069 0
M  V30 5158 H 492.88 3.92004 -3.22948 0
M  V30 5159 H 492.81 4.95551 -1.78148 0
M  V30 5160 H 495.301 3.39932 -1.65091 0
M  V30 5161 H 495.614 6.6556 -3.92747 0
M  V30 5162 H 493.959 5.98909 -3.52609 0
M  V30 5163 H 497.15 4.1732 -2.12041 0
M  V30 5164 H 497.323 5.6582 -3.15834 0
M  V30 5165 N 490.729 0.570148 1.46925 0
M  V30 5166 C 491.978 0.0487352 2.01641 0
M  V30 5167 C 492.291 -1.31433 1.44861 0
M  V30 5168 O 493.497 -1.92638 1.91318 0
M  V30 5169 C 491.953 0.0365817 3.59881 0
M  V30 5170 C 491.561 1.39719 4.25655 0
M  V30 5171 C 493.305 -0.431545 4.22301 0
M  V30 5172 C 491.212 1.34345 5.75939 0
M  V30 5173 H 490.142 0.0144492 0.753862 0
M  V30 5174 H 492.793 0.719928 1.68788 0
M  V30 5175 H 491.175 -0.700522 3.89755 0
M  V30 5176 H 492.349 2.15303 4.07408 0
M  V30 5177 H 490.664 1.80431 3.75278 0
M  V30 5178 H 493.261 -0.490354 5.32447 0
M  V30 5179 H 493.604 -1.44638 3.90366 0
M  V30 5180 H 494.137 0.251102 3.97007 0
M  V30 5181 H 490.876 2.33469 6.12513 0
M  V30 5182 H 490.396 0.629615 5.96486 0
M  V30 5183 H 492.075 1.051 6.38407 0
M  V30 5184 N 492.207 -1.54576 0.307264 0
M  V30 5185 C 493.484 -1.92377 -0.353605 0
M  V30 5186 C 493.864 -1.23517 -1.71192 0
M  V30 5187 O 493.212 -0.373101 -2.25433 0
M  V30 5188 C 493.422 -3.45928 -0.462039 0
M  V30 5189 C 494.77 -4.18278 -0.729975 0
M  V30 5190 O 495.794 -3.51997 -0.545605 0
M  V30 5191 O 494.653 -5.3563 -1.08454 0
M  V30 5192 H 491.747 -0.802747 -0.198812 0
M  V30 5193 H 494.293 -1.65929 0.355783 0
M  V30 5194 H 493.065 -3.88187 0.492592 0
M  V30 5195 H 492.688 -3.78431 -1.21965 0
M  V30 5196 N 493.685 -0.035106 -1.57561 0
M  V30 5197 C 494.91 0.655802 -1.96759 0
M  V30 5198 C 495.335 1.64523 -0.911809 0
M  V30 5199 O 494.693 1.80857 0.126673 0
M  V30 5200 C 494.741 1.33326 -3.35047 0
M  V30 5201 O 493.845 2.44866 -3.31835 0
M  V30 5202 H 493.186 0.171807 -0.641388 0
M  V30 5203 H 495.716 -0.0987369 -2.04362 0
M  V30 5204 H 495.726 1.68867 -3.71413 0
M  V30 5205 H 494.401 0.608033 -4.11431 0
M  V30 5206 H 492.978 2.11392 -3.07193 0
M  V30 5207 N 495.163 1.55791 0.238111 0
M  V30 5208 C 496.411 1.77681 0.963001 0
M  V30 5209 C 496.732 0.600674 1.85518 0
M  V30 5210 O 496.002 -0.383182 1.92116 0
M  V30 5211 H 494.582 0.655315 0.358568 0
M  V30 5212 H 497.244 1.93239 0.253945 0
M  V30 5213 H 496.34 2.69177 1.57956 0
M  V30 5214 N 496.642 -0.504142 1.49319 0
M  V30 5215 C 497.572 -1.61473 1.68667 0
M  V30 5216 C 498.553 -1.61455 0.535378 0
M  V30 5217 O 499.738 -1.78245 0.770868 0
M  V30 5218 C 496.868 -2.99971 1.75028 0
M  V30 5219 C 495.822 -3.14854 2.89916 0
M  V30 5220 C 495.148 -4.54671 2.81387 0
M  V30 5221 C 496.448 -2.95176 4.30893 0
M  V30 5222 H 498.142 -1.45535 2.61648 0
M  V30 5223 H 495.688 -0.698711 1.25913 0
M  V30 5224 H 497.641 -3.77562 1.8715 0
M  V30 5225 H 496.365 -3.1699 0.786441 0
M  V30 5226 H 495.024 -2.39687 2.77391 0
M  V30 5227 H 494.672 -4.68562 1.82917 0
M  V30 5228 H 494.372 -4.6557 3.58494 0
M  V30 5229 H 495.896 -5.34327 2.95512 0
M  V30 5230 H 497.31 -3.62538 4.44116 0
M  V30 5231 H 495.707 -3.17549 5.09198 0
M  V30 5232 H 496.777 -1.91332 4.45556 0
M  V30 5233 N 498.12 -1.38341 -0.754957 0
M  V30 5234 C 499.35 -1.37504 -1.54195 0
M  V30 5235 C 499.758 0.0373787 -1.89163 0
M  V30 5236 O 499.101 1.01402 -1.53178 0
M  V30 5237 C 499.163 -2.16488 -2.87008 0
M  V30 5238 C 498.827 -3.65311 -2.74585 0
M  V30 5239 C 499.824 -4.58834 -2.44474 0
M  V30 5240 C 497.509 -4.08649 -2.9208 0
M  V30 5241 C 499.503 -5.93675 -2.32011 0
M  V30 5242 C 497.19 -5.43571 -2.79237 0
M  V30 5243 C 498.188 -6.35898 -2.49245 0
M  V30 5244 O 497.876 -7.68338 -2.36458 0
M  V30 5245 H 497.608 -0.472159 -0.483779 0
M  V30 5246 H 500.162 -1.82515 -0.94221 0
M  V30 5247 H 498.392 -1.66194 -3.49166 0
M  V30 5248 H 500.081 -2.08076 -3.4851 0
M  V30 5249 H 500.847 -4.26657 -2.30627 0
M  V30 5250 H 496.726 -3.37134 -3.14422 0
M  V30 5251 H 500.27 -6.65706 -2.08522 0
M  V30 5252 H 496.167 -5.75345 -2.92657 0
M  V30 5253 H 496.935 -7.78845 -2.5168 0
M  V30 5254 N 499.598 0.982988 -1.23187 0
M  V30 5255 C 500.528 2.09301 -1.03515 0
M  V30 5256 C 501.509 1.70035 0.0471136 0
M  V30 5257 O 502.694 1.93847 -0.117029 0
M  V30 5258 C 499.824 3.4167 -0.622791 0
M  V30 5259 C 498.778 3.94828 -1.65211 0
M  V30 5260 C 498.104 5.23362 -1.09527 0
M  V30 5261 C 499.404 4.2439 -3.04451 0
M  V30 5262 H 501.098 2.26016 -1.96359 0
M  V30 5263 H 498.644 1.08611 -0.945501 0
M  V30 5264 H 500.597 4.18746 -0.472233 0
M  V30 5265 H 499.321 3.24811 0.341329 0
M  V30 5266 H 497.98 3.19895 -1.79061 0
M  V30 5267 H 497.628 5.02852 -0.122211 0
M  V30 5268 H 497.328 5.59895 -1.783 0
M  V30 5269 H 498.852 6.03062 -0.956511 0
M  V30 5270 H 500.266 4.92225 -2.93917 0
M  V30 5271 H 498.663 4.72118 -3.70438 0
M  V30 5272 H 499.733 3.31765 -3.53638 0
M  V30 5273 N 501.076 1.04316 1.18135 0
M  V30 5274 C 502.324 0.746542 1.87806 0
M  V30 5275 C 502.645 -0.728082 1.80898 0
M  V30 5276 O 501.915 -1.52554 1.22899 0
M  V30 5277 H 500.495 0.273157 0.695265 0
M  V30 5278 H 503.157 1.32044 1.43354 0
M  V30 5279 H 502.253 1.05362 2.93778 0
M  V30 5280 N 502.554 -1.34406 0.822964 0
M  V30 5281 C 503.779 -2.0304 0.423034 0
M  V30 5282 C 504.204 -1.61568 -0.963196 0
M  V30 5283 O 503.562 -0.800339 -1.62678 0
M  V30 5284 C 503.61 -3.56636 0.53321 0
M  V30 5285 O 502.714 -4.09971 -0.446939 0
M  V30 5286 H 502.055 -0.64075 0.174171 0
M  V30 5287 H 504.585 -1.71653 1.11339 0
M  V30 5288 H 504.595 -4.05945 0.408991 0
M  V30 5289 H 503.27 -3.86168 1.54425 0
M  V30 5290 H 501.847 -3.71835 -0.281601 0
M  V30 5291 N 504.032 -0.577932 -1.46621 0
M  V30 5292 C 505.28 -0.061566 -2.02006 0
M  V30 5293 C 505.601 1.30117 -1.4524 0
M  V30 5294 O 504.871 1.85313 -0.63529 0
M  V30 5295 H 503.451 -0.0197692 -0.746738 0
M  V30 5296 H 506.113 -0.752631 -1.79782 0
M  V30 5297 H 505.209 0.0110238 -3.12098 0
M  V30 5298 N 505.51 1.54411 -0.315457 0
M  V30 5299 C 506.74 2.04536 0.291315 0
M  V30 5300 C 507.148 1.19162 1.4696 0
M  V30 5301 O 506.491 0.213199 1.82459 0
M  V30 5302 C 506.553 3.5056 0.796725 0
M  V30 5303 C 506.217 4.5627 -0.258178 0
M  V30 5304 C 507.214 5.08312 -1.09153 0
M  V30 5305 C 504.899 5.00672 -0.404036 0
M  V30 5306 C 506.893 6.03312 -2.05655 0
M  V30 5307 C 504.58 5.95488 -1.37248 0
M  V30 5308 C 505.578 6.46693 -2.19721 0
M  V30 5309 O 505.266 7.39648 -3.14921 0
M  V30 5310 H 504.998 0.672856 0.0651165 0
M  V30 5311 H 507.552 2.00244 -0.457308 0
M  V30 5312 H 505.782 3.52223 1.59612 0
M  V30 5313 H 507.471 3.83804 1.32096 0
M  V30 5314 H 508.237 4.74793 -0.98979 0
M  V30 5315 H 504.116 4.60436 0.22799 0
M  V30 5316 H 507.66 6.43203 -2.70067 0
M  V30 5317 H 503.557 6.28424 -1.47489 0
M  V30 5318 H 504.325 7.57496 -3.10067 0
M  V30 5319 N 506.988 0.0434614 1.5754 0
M  V30 5320 C 508.235 -0.632035 1.92384 0
M  V30 5321 C 508.563 -1.71304 0.921157 0
M  V30 5322 O 507.818 -1.95583 -0.067744 0
M  V30 5323 C 508.117 -1.2738 3.3393 0
M  V30 5324 C 507.783 -0.321757 4.49751 0
M  V30 5325 C 506.445 -0.0597611 4.81163 0
M  V30 5326 C 508.797 0.331158 5.20147 0
M  V30 5327 C 506.125 0.862715 5.80322 0
M  V30 5328 C 508.477 1.24178 6.20292 0
M  V30 5329 C 507.141 1.51252 6.50138 0
M  V30 5330 H 506.411 -0.231278 0.703983 0
M  V30 5331 H 509.058 0.108294 1.91194 0
M  V30 5332 H 507.363 -2.08921 3.3145 0
M  V30 5333 H 509.06 -1.80326 3.58167 0
M  V30 5334 H 505.65 -0.53614 4.25233 0
M  V30 5335 H 509.834 0.141826 4.96097 0
M  V30 5336 H 505.09 1.08003 6.01785 0
M  V30 5337 H 509.264 1.75381 6.73954 0
M  V30 5338 H 506.891 2.22897 7.26788 0
M  V30 5339 N 508.466 -1.55915 -0.229846 0
M  V30 5340 C 509.694 -1.82617 -0.972562 0
M  V30 5341 C 510.109 -0.621488 -1.78278 0
M  V30 5342 O 509.466 0.409956 -1.77836 0
M  V30 5343 C 509.517 -3.0774 -1.89679 0
M  V30 5344 O 509.238 -4.23559 -1.11934 0
M  V30 5345 C 510.739 -3.47368 -2.75409 0
M  V30 5346 H 507.959 -0.60727 -0.285419 0
M  V30 5347 H 510.503 -2.02996 -0.247579 0
M  V30 5348 H 508.658 -2.89361 -2.57583 0
M  V30 5349 H 509.072 -4.94586 -1.74599 0
M  V30 5350 H 510.546 -4.37977 -3.35977 0
M  V30 5351 H 511.023 -2.68737 -3.47386 0
M  V30 5352 H 511.629 -3.68158 -2.12931 0
M  V30 5353 N 509.944 0.496216 -1.49584 0
M  V30 5354 C 510.907 1.57952 -1.66084 0
M  V30 5355 C 511.907 1.51729 -0.53244 0
M  V30 5356 O 513.097 1.54796 -0.79899 0
M  V30 5357 C 510.229 2.97604 -1.66268 0
M  V30 5358 H 511.422 1.44649 -2.6271 0
M  V30 5359 H 508.975 0.7208 -1.38687 0
M  V30 5360 H 509.71 3.16378 -0.712432 0
M  V30 5361 H 509.495 3.03528 -2.4822 0
M  V30 5362 H 510.985 3.76301 -1.81073 0
M  V30 5363 N 511.423 1.38739 0.74761 0
M  V30 5364 C 512.672 1.3459 1.50228 0
M  V30 5365 C 512.985 -0.0595592 1.95509 0
M  V30 5366 O 514.191 -0.22361 2.70578 0
M  V30 5367 C 512.647 2.36377 2.71393 0
M  V30 5368 C 512.255 3.82573 2.33113 0
M  V30 5369 C 513.999 2.41281 3.49262 0
M  V30 5370 C 511.906 4.76032 3.50924 0
M  V30 5371 H 510.836 0.500312 0.564096 0
M  V30 5372 H 513.487 1.64324 0.8167 0
M  V30 5373 H 511.869 1.99694 3.41962 0
M  V30 5374 H 513.043 4.28227 1.70171 0
M  V30 5375 H 511.358 3.80844 1.68365 0
M  V30 5376 H 513.955 3.08301 4.36869 0
M  V30 5377 H 514.298 1.43353 3.9084 0
M  V30 5378 H 514.831 2.76793 2.85711 0
M  V30 5379 H 511.57 5.75177 3.14408 0
M  V30 5380 H 511.09 4.35066 4.12889 0
M  V30 5381 H 512.769 4.94331 4.17427 0
M  V30 5382 N 512.901 -0.976442 1.23707 0
M  V30 5383 C 513.833 -2.07212 0.979574 0
M  V30 5384 C 514.846 -1.6273 -0.0478528 0
M  V30 5385 O 516.035 -1.77506 0.18815 0
M  V30 5386 C 513.135 -3.35835 0.45479 0
M  V30 5387 C 512.308 -4.09268 1.54331 0
M  V30 5388 C 511.367 -5.16166 1.02271 0
M  V30 5389 O 510.393 -5.42827 1.71254 0
M  V30 5390 N 511.595 -5.80313 -0.147419 0
M  V30 5391 H 514.36 -2.29878 1.92292 0
M  V30 5392 H 511.921 -1.14343 1.14618 0
M  V30 5393 H 513.913 -4.04597 0.0914631 0
M  V30 5394 H 512.483 -3.10106 -0.394068 0
M  V30 5395 H 511.703 -3.34906 2.07923 0
M  V30 5396 H 512.991 -4.55095 2.27522 0
M  V30 5397 H 512.389 -5.61043 -0.724353 0
M  V30 5398 H 510.946 -6.50231 -0.451972 0
M  V30 5399 N 514.379 -1.04941 -1.1758 0
M  V30 5400 C 515.327 -0.64204 -2.23563 0
M  V30 5401 C 516.321 0.335453 -1.66045 0
M  V30 5402 O 517.527 0.20179 -1.78865 0
M  V30 5403 H 513.902 -0.18944 -0.727748 0
M  V30 5404 H 515.873 -1.54609 -2.55223 0
M  V30 5405 C 514.622 -0.0301051 -3.47687 0
M  V30 5406 H 513.945 -0.773339 -3.92249 0
M  V30 5407 H 515.385 0.217592 -4.23441 0
M  V30 5408 C 513.844 1.2225 -3.13937 0
M  V30 5409 O 514.374 2.3122 -3.28482 0
M  V30 5410 N 512.58 1.11917 -2.68185 0
M  V30 5411 H 512.127 0.232403 -2.5655 0
M  V30 5412 H 512.085 1.95814 -2.45976 0
M  V30 5413 N 515.857 1.33968 -0.830081 0
M  V30 5414 C 516.787 2.31911 -0.271911 0
M  V30 5415 C 517.768 1.58571 0.61556 0
M  V30 5416 O 518.953 1.86514 0.540946 0
M  V30 5417 C 516.083 3.42737 0.561146 0
M  V30 5418 C 515.037 4.27383 -0.229789 0
M  V30 5419 C 514.363 5.29742 0.726463 0
M  V30 5420 C 515.663 5.02 -1.44197 0
M  V30 5421 H 517.357 2.78844 -1.09025 0
M  V30 5422 H 514.903 1.34061 -0.52571 0
M  V30 5423 H 516.856 4.10276 0.961867 0
M  V30 5424 H 515.58 2.94471 1.41261 0
M  V30 5425 H 514.239 3.61456 -0.611964 0
M  V30 5426 H 513.887 4.77736 1.57408 0
M  V30 5427 H 513.587 5.87255 0.20142 0
M  V30 5428 H 515.111 6.00149 1.12489 0
M  V30 5429 H 516.525 5.62355 -1.11488 0
M  V30 5430 H 514.922 5.69122 -1.90317 0
M  V30 5431 H 515.992 4.31281 -2.2164 0
M  V30 5432 N 517.335 0.585699 1.46312 0
M  V30 5433 C 518.751 0.247607 1.57668 0
M  V30 5434 C 518.951 -1.25007 1.58037 0
M  V30 5435 O 518.007 -2.03196 1.49893 0
M  V30 5436 C 519.32 0.899456 2.86933 0
M  V30 5437 C 520.868 0.873326 3.00569 0
M  V30 5438 C 521.343 1.50477 4.32574 0
M  V30 5439 N 522.834 1.46925 4.3928 0
M  V30 5440 C 523.569 1.92719 5.40044 0
M  V30 5441 N 523.065 2.46499 6.47464 0
M  V30 5442 N 524.858 1.83617 5.31264 0
M  V30 5443 H 517.009 1.55841 1.44317 0
M  V30 5444 H 519.272 0.651564 0.688599 0
M  V30 5445 H 518.978 1.95313 2.92482 0
M  V30 5446 H 518.852 0.409476 3.74971 0
M  V30 5447 H 521.239 -0.171736 2.946 0
M  V30 5448 H 521.32 1.40136 2.13999 0
M  V30 5449 H 520.964 2.54905 4.39302 0
M  V30 5450 H 520.894 0.951944 5.17924 0
M  V30 5451 H 523.385 1.07616 3.62253 0
M  V30 5452 H 523.698 2.79291 7.20567 0
M  V30 5453 H 522.043 2.50526 6.48276 0
M  V30 5454 H 525.234 1.41358 4.46246 0
M  V30 5455 H 525.407 2.19622 6.09648 0
M  V30 5456 N 518.813 -1.54241 0.323641 0
M  V30 5457 C 519.76 -2.24339 -0.542277 0
M  V30 5458 C 520.73 -1.23421 -1.11159 0
M  V30 5459 O 521.915 -1.52104 -1.15192 0
M  V30 5460 C 519.055 -3.00479 -1.69725 0
M  V30 5461 C 518.168 -4.16214 -1.15716 0
M  V30 5462 C 517.303 -4.79884 -2.27783 0
M  V30 5463 C 516.342 -5.87722 -1.71023 0
M  V30 5464 N 515.479 -6.45254 -2.76752 0
M  V30 5465 H 520.319 -2.97935 0.0620613 0
M  V30 5466 H 517.856 -1.47039 0.0423993 0
M  V30 5467 H 519.814 -3.42869 -2.3769 0
M  V30 5468 H 518.444 -2.29217 -2.27288 0
M  V30 5469 H 517.496 -3.78605 -0.369063 0
M  V30 5470 H 518.808 -4.93838 -0.701832 0
M  V30 5471 H 517.962 -5.25243 -3.03651 0
M  V30 5472 H 516.701 -4.01641 -2.76652 0
M  V30 5473 H 515.706 -5.41765 -0.936518 0
M  V30 5474 H 516.931 -6.67863 -1.2303 0
M  V30 5475 H 514.877 -5.69884 -3.24912 0
M  V30 5476 H 514.794 -7.18292 -2.35782 0
M  V30 5477 H 516.062 -6.95269 -3.5245 0
M  V30 5478 N 520.291 -0.0518155 -1.57515 0
M  V30 5479 C 521.516 0.634896 -1.97443 0
M  V30 5480 C 521.941 1.63546 -0.929207 0
M  V30 5481 O 521.299 1.80981 0.107484 0
M  V30 5482 C 521.347 1.29765 -3.36442 0
M  V30 5483 O 520.451 2.41333 -3.34413 0
M  V30 5484 H 519.792 0.164994 -0.643174 0
M  V30 5485 H 522.322 -0.120407 -2.04245 0
M  V30 5486 H 522.332 1.64918 -3.73184 0
M  V30 5487 H 521.007 0.564361 -4.12053 0
M  V30 5488 H 519.584 2.08122 -3.09418 0
M  V30 5489 N 521.769 1.56035 0.221574 0
M  V30 5490 C 522.679 1.95581 1.29558 0
M  V30 5491 C 523.695 0.859639 1.51282 0
M  V30 5492 O 524.871 1.16321 1.64413 0
M  V30 5493 C 521.936 2.26447 2.62531 0
M  V30 5494 C 520.997 3.49632 2.4911 0
M  V30 5495 C 520.23 3.79017 3.75742 0
M  V30 5496 O 520.453 3.10077 4.78757 0
M  V30 5497 O 519.387 4.72507 3.72855 0
M  V30 5498 H 523.213 2.8711 0.990035 0
M  V30 5499 H 520.798 1.43244 0.424434 0
M  V30 5500 H 522.68 2.47494 3.41064 0
M  V30 5501 H 521.355 1.38092 2.92766 0
M  V30 5502 H 520.262 3.33864 1.68777 0
M  V30 5503 H 521.595 4.3837 2.23814 0
M  V30 5504 N 523.247 -0.488276 1.49845 0
M  V30 5505 C 524.157 -1.61451 1.70207 0
M  V30 5506 C 525.173 -1.63877 0.584846 0
M  V30 5507 O 526.349 -1.82063 0.861107 0
M  V30 5508 C 523.414 -2.9776 1.77594 0
M  V30 5509 C 522.475 -3.05861 3.01243 0
M  V30 5510 C 521.708 -4.35668 3.08268 0
M  V30 5511 O 521.931 -5.25197 2.22541 0
M  V30 5512 O 520.865 -4.49005 4.00847 0
M  V30 5513 H 524.691 -1.47199 2.65643 0
M  V30 5514 H 522.276 -0.665939 1.33737 0
M  V30 5515 H 524.158 -3.7875 1.84732 0
M  V30 5516 H 522.833 -3.12248 0.8534 0
M  V30 5517 H 521.74 -2.24012 2.99616 0
M  V30 5518 H 523.073 -2.96304 3.9302 0
M  V30 5519 N 524.725 -1.39134 -0.740242 0
M  V30 5520 C 525.635 -1.39697 -1.88473 0
M  V30 5521 C 526.651 -0.292403 -1.71526 0
M  V30 5522 O 527.827 -0.533021 -1.94219 0
M  V30 5523 C 524.892 -1.23382 -3.24003 0
M  V30 5524 C 523.953 -2.43763 -3.53381 0
M  V30 5525 C 523.186 -2.28216 -4.82445 0
M  V30 5526 O 523.409 -1.28288 -5.55786 0
M  V30 5527 O 522.343 -3.1709 -5.11603 0
M  V30 5528 H 526.169 -2.36159 -1.90952 0
M  V30 5529 H 523.754 -1.20194 -0.887346 0
M  V30 5530 H 525.636 -1.16395 -4.05006 0
M  V30 5531 H 524.311 -0.300121 -3.22306 0
M  V30 5532 H 523.218 -2.56325 -2.72485 0
M  V30 5533 H 524.551 -3.35808 -3.59852 0
M  V30 5534 N 526.204 0.969867 -1.24223 0
M  V30 5535 C 527.45 1.7151 -1.08223 0
M  V30 5536 C 527.783 1.90478 0.37838 0
M  V30 5537 O 527.058 1.4647 1.27971 0
M  V30 5538 C 527.341 3.10714 -1.82013 0
M  V30 5539 C 527.194 2.9925 -3.35811 0
M  V30 5540 C 528.513 4.10332 -1.59108 0
M  V30 5541 H 525.632 0.622499 -0.394543 0
M  V30 5542 H 528.274 1.1284 -1.52863 0
M  V30 5543 H 526.424 3.608 -1.44068 0
M  V30 5544 H 528.096 2.56608 -3.83341 0
M  V30 5545 H 526.339 2.35512 -3.64303 0
M  V30 5546 H 527.01 3.97857 -3.82641 0
M  V30 5547 H 529.486 3.69097 -1.92111 0
M  V30 5548 H 528.362 5.05804 -2.13198 0
M  V30 5549 H 528.623 4.38926 -0.528832 0
M  V30 5550 N 527.682 1.05563 1.17022 0
M  V30 5551 C 528.645 0.664098 2.19368 0
M  V30 5552 C 529.645 -0.286358 1.5823 0
M  V30 5553 O 530.835 -0.069728 1.7406 0
M  V30 5554 C 527.967 -0.0239932 3.40892 0
M  V30 5555 H 529.16 1.57 2.55521 0
M  V30 5556 H 526.713 0.849964 1.31169 0
M  V30 5557 H 527.448 -0.942988 3.10287 0
M  V30 5558 H 527.233 0.659351 3.86516 0
M  V30 5559 H 528.723 -0.283909 4.16634 0
M  V30 5560 N 529.16 -1.33526 0.837174 0
M  V30 5561 C 530.123 -2.27551 0.274421 0
M  V30 5562 C 531.123 -1.50886 -0.555881 0
M  V30 5563 O 532.313 -1.70227 -0.369918 0
M  V30 5564 C 529.445 -3.35332 -0.613605 0
M  V30 5565 H 530.638 -2.78837 1.10408 0
M  V30 5566 H 528.191 -1.439 0.610126 0
M  V30 5567 H 528.926 -2.89285 -1.46577 0
M  V30 5568 H 528.711 -3.92095 -0.0195341 0
M  V30 5569 H 530.201 -4.05433 -1.00068 0
M  V30 5570 N 530.638 -0.59345 -1.46 0
M  V30 5571 C 532.054 -0.255965 -1.57534 0
M  V30 5572 C 532.254 1.24167 -1.58697 0
M  V30 5573 O 531.31 2.02398 -1.50968 0
M  V30 5574 C 532.623 -0.91466 -2.86451 0
M  V30 5575 C 534.171 -0.889253 -3.00102 0
M  V30 5576 C 534.646 -1.52769 -4.3177 0
M  V30 5577 N 536.137 -1.49253 -4.38495 0
M  V30 5578 C 536.872 -1.9558 -5.39014 0
M  V30 5579 N 536.368 -2.49929 -6.46148 0
M  V30 5580 N 538.161 -1.86432 -5.30282 0
M  V30 5581 H 530.312 -1.56604 -1.43489 0
M  V30 5582 H 532.575 -0.655207 -0.685133 0
M  V30 5583 H 532.281 -1.96861 -2.91442 0
M  V30 5584 H 532.155 -0.429356 -3.74748 0
M  V30 5585 H 534.542 0.156111 -2.94687 0
M  V30 5586 H 534.623 -1.41268 -2.13253 0
M  V30 5587 H 534.267 -2.57231 -4.37944 0
M  V30 5588 H 534.197 -0.979398 -5.17412 0
M  V30 5589 H 536.688 -1.09536 -3.61677 0
M  V30 5590 H 537.001 -2.83109 -7.19075 0
M  V30 5591 H 535.346 -2.53961 -6.46938 0
M  V30 5592 H 538.537 -1.43722 -4.4549 0
M  V30 5593 H 538.71 -2.22852 -6.08474 0
M  V30 5594 N 532.116 1.54067 -0.331816 0
M  V30 5595 C 533.532 1.59587 0.0205388 0
M  V30 5596 C 533.732 1.34813 1.49759 0
M  V30 5597 O 532.788 1.13661 2.25471 0
M  V30 5598 C 534.101 2.97959 -0.405103 0
M  V30 5599 C 535.649 3.10964 -0.356454 0
M  V30 5600 C 536.124 4.51694 -0.757384 0
M  V30 5601 N 537.615 4.57709 -0.71111 0
M  V30 5602 C 538.35 5.64729 -0.993427 0
M  V30 5603 N 537.846 6.79652 -1.3433 0
M  V30 5604 N 539.639 5.54546 -0.918442 0
M  V30 5605 H 531.79 1.68426 -1.29407 0
M  V30 5606 H 534.053 0.78819 -0.526745 0
M  V30 5607 H 533.759 3.21115 -1.43451 0
M  V30 5608 H 533.633 3.76524 0.225692 0
M  V30 5609 H 536.02 2.87538 0.663763 0
M  V30 5610 H 536.101 2.34484 -1.02229 0
M  V30 5611 H 535.745 4.75853 -1.77555 0
M  V30 5612 H 535.675 5.26555 -0.0691444 0
M  V30 5613 H 538.166 3.75176 -0.452883 0
M  V30 5614 H 538.479 7.57221 -1.54388 0
M  V30 5615 H 536.824 6.81128 -1.38164 0
M  V30 5616 H 540.015 4.63641 -0.644536 0
M  V30 5617 H 540.188 6.37861 -1.14181 0
M  V30 5618 N 533.594 0.0601682 1.57485 0
M  V30 5619 C 534.557 -0.896373 2.10945 0
M  V30 5620 C 535.557 -1.23402 1.03095 0
M  V30 5621 O 536.747 -1.16921 1.29132 0
M  V30 5622 C 533.879 -2.20346 2.60116 0
M  V30 5623 H 535.072 -0.432778 2.96761 0
M  V30 5624 H 532.625 -0.188372 1.55161 0
M  V30 5625 H 533.36 -2.71268 1.7772 0
M  V30 5626 H 533.145 -1.9714 3.38937 0
M  V30 5627 H 534.635 -2.88846 3.01592 0
M  V30 5628 N 535.072 -1.5615 -0.213296 0
M  V30 5629 C 536.488 -1.49327 -0.56336 0
M  V30 5630 C 536.688 -0.756826 -1.86747 0
M  V30 5631 O 535.744 -0.299866 -2.50713 0
M  V30 5632 C 537.057 -2.9392 -0.634944 0
M  V30 5633 C 538.605 -3.04487 -0.725013 0
M  V30 5634 C 539.08 -4.50456 -0.82787 0
M  V30 5635 N 540.571 -4.54533 -0.891876 0
M  V30 5636 C 541.306 -5.64766 -0.991315 0
M  V30 5637 N 540.802 -6.84733 -1.05419 0
M  V30 5638 N 542.595 -5.52637 -1.02709 0
M  V30 5639 H 534.746 -2.02453 0.642366 0
M  V30 5640 H 537.009 -0.920548 0.226487 0
M  V30 5641 H 536.715 -3.50783 0.253859 0
M  V30 5642 H 536.589 -3.46274 -1.49579 0
M  V30 5643 H 538.976 -2.47685 -1.60425 0
M  V30 5644 H 539.057 -2.55289 0.161669 0
M  V30 5645 H 538.701 -5.07878 0.0469464 0
M  V30 5646 H 538.631 -4.97369 -1.73009 0
M  V30 5647 H 541.122 -3.68141 -0.85327 0
M  V30 5648 H 541.435 -7.64493 -1.13007 0
M  V30 5649 H 539.78 -6.87427 -1.02318 0
M  V30 5650 H 542.971 -4.5784 -0.974687 0
M  V30 5651 H 543.144 -6.38576 -1.10113 0
M  V30 5652 N 536.55 0.480323 -1.50102 0
M  V30 5653 C 537.796 1.23489 -1.60867 0
M  V30 5654 C 538.129 1.91809 -0.303827 0
M  V30 5655 O 537.404 1.81694 0.694092 0
M  V30 5656 C 537.687 2.28578 -2.78252 0
M  V30 5657 C 537.54 1.64624 -4.18592 0
M  V30 5658 C 538.859 3.2997 -2.91218 0
M  V30 5659 H 535.978 0.447605 -0.585507 0
M  V30 5660 H 538.62 0.530005 -1.82458 0
M  V30 5661 H 536.77 2.88697 -2.59974 0
M  V30 5662 H 538.442 1.08173 -4.48438 0
M  V30 5663 H 536.685 0.949645 -4.23278 0
M  V30 5664 H 537.356 2.40946 -4.96638 0
M  V30 5665 H 539.832 2.79864 -3.07921 0
M  V30 5666 H 538.708 4.00839 -3.74993 0
M  V30 5667 H 538.969 3.93541 -2.0144 0
M  V30 5668 N 538.028 1.39524 0.732853 0
M  V30 5669 C 539.274 1.37068 1.49467 0
M  V30 5670 C 539.607 -0.0327166 1.94172 0
M  V30 5671 O 538.882 -0.998071 1.66939 0
M  V30 5672 C 539.165 2.34494 2.73285 0
M  V30 5673 C 539.018 3.83784 2.34585 0
M  V30 5674 C 540.337 2.29717 3.75391 0
M  V30 5675 H 537.456 0.499206 0.542183 0
M  V30 5676 H 540.098 1.70532 0.837783 0
M  V30 5677 H 538.248 2.06087 3.29333 0
M  V30 5678 H 539.92 4.22949 1.84151 0
M  V30 5679 H 538.163 4.00455 1.66787 0
M  V30 5680 H 538.834 4.47444 3.23262 0
M  V30 5681 H 541.31 2.54839 3.28932 0
M  V30 5682 H 540.186 2.99962 4.59689 0
M  V30 5683 H 540.447 1.30291 4.22465 0
M  V30 5684 N 539.506 -0.963266 1.24736 0
M  V30 5685 C 540.752 -1.71 1.10139 0
M  V30 5686 C 541.107 -1.89089 -0.35541 0
M  V30 5687 O 540.4 -1.44451 -1.25875 0
M  V30 5688 C 540.594 -3.09944 1.7796 0
M  V30 5689 C 540.423 -3.05408 3.30085 0
M  V30 5690 C 539.193 -3.09643 3.99311 0
M  V30 5691 C 541.391 -2.87241 4.26611 0
M  V30 5692 N 539.373 -2.95174 5.3828 0
M  V30 5693 C 540.744 -2.81114 5.52607 0
M  V30 5694 C 542.799 -2.71856 4.17132 0
M  V30 5695 C 541.502 -2.61174 6.70209 0
M  V30 5696 C 543.528 -2.53284 5.34417 0
M  V30 5697 C 542.89 -2.4787 6.59348 0
M  V30 5698 H 538.989 -0.634078 0.457678 0
M  V30 5699 H 541.573 -1.14169 1.57713 0
M  V30 5700 H 539.744 -3.64958 1.32893 0
M  V30 5701 H 541.476 -3.73348 1.56183 0
M  V30 5702 H 538.231 -3.18498 3.50508 0
M  V30 5703 H 538.655 -2.91168 6.11188 0
M  V30 5704 H 543.297 -2.74821 3.21299 0
M  V30 5705 H 541.015 -2.56952 7.6616 0
M  V30 5706 H 544.601 -2.42317 5.28936 0
M  V30 5707 H 543.481 -2.33685 7.48573 0
M  V30 5708 N 540.985 -1.06182 -1.16461 0
M  V30 5709 C 542.225 -0.787048 -1.8864 0
M  V30 5710 C 542.589 0.674093 -1.79778 0
M  V30 5711 O 543.79 1.06341 -2.46871 0
M  V30 5712 C 542.061 -1.2666 -3.34203 0
M  V30 5713 S 543.62 -1.12071 -4.24247 0
M  V30 5714 H 540.438 -0.285539 -0.651144 0
M  V30 5715 H 543.04 -1.35851 -1.40587 0
M  V30 5716 H 541.744 -2.32496 -3.38192 0
M  V30 5717 H 541.275 -0.689841 -3.87304 0
M  V30 5718 H 543.29 -0.0509341 -4.96174 0
M  V30 5719 N 542.463 1.3308 -0.844243 0
M  V30 5720 C 543.426 2.27403 -0.286485 0
M  V30 5721 C 544.426 1.51179 0.547872 0
M  V30 5722 O 545.616 1.70421 0.360886 0
M  V30 5723 C 542.748 3.35653 0.595813 0
M  V30 5724 H 543.941 2.78248 -1.11885 0
M  V30 5725 H 541.494 1.43574 -0.617749 0
M  V30 5726 H 542.229 2.90058 1.4504 0
M  V30 5727 H 542.014 3.921 -0.00125994 0
M  V30 5728 H 543.504 4.05958 0.979168 0
M  V30 5729 N 543.941 0.601185 1.45683 0
M  V30 5730 C 545.187 0.0940202 2.02582 0
M  V30 5731 C 545.52 -1.26972 1.46941 0
M  V30 5732 O 544.795 -1.83613 0.641612 0
M  V30 5733 C 545.078 0.0481715 3.60068 0
M  V30 5734 C 544.931 1.44212 4.26055 0
M  V30 5735 C 546.25 -0.642975 4.35378 0
M  V30 5736 H 543.369 0.0356404 0.736138 0
M  V30 5737 H 546.011 0.771929 1.73612 0
M  V30 5738 H 544.161 -0.529128 3.8488 0
M  V30 5739 H 545.833 2.06601 4.12449 0
M  V30 5740 H 544.076 2.00465 3.84703 0
M  V30 5741 H 544.747 1.36234 5.34925 0
M  V30 5742 H 547.223 -0.152351 4.15821 0
M  V30 5743 H 546.099 -0.644141 5.45107 0
M  V30 5744 H 546.36 -1.70785 4.0778 0
M  V30 5745 N 545.419 -1.53889 0.339982 0
M  V30 5746 C 546.667 -2.00458 -0.257112 0
M  V30 5747 C 546.988 -1.22953 -1.51353 0
M  V30 5748 O 546.258 -0.335734 -1.93002 0
M  V30 5749 H 544.838 -0.740544 -0.0979965 0
M  V30 5750 H 547.5 -1.89386 0.460317 0
M  V30 5751 H 546.596 -3.08035 -0.502057 0
M  V30 5752 N 546.897 -0.0685191 -1.57451 0
M  V30 5753 C 547.807 0.914677 -2.16034 0
M  V30 5754 C 548.823 1.32938 -1.12265 0
M  V30 5755 O 549.999 1.40275 -1.44516 0
M  V30 5756 C 547.064 2.16519 -2.70777 0
M  V30 5757 C 546.125 1.80721 -3.89408 0
M  V30 5758 C 545.358 2.9981 -4.41531 0
M  V30 5759 O 545.581 4.13727 -3.92666 0
M  V30 5760 O 544.515 2.79817 -5.32903 0
M  V30 5761 H 548.341 0.446364 -3.00402 0
M  V30 5762 H 545.926 0.154367 -1.486 0
M  V30 5763 H 547.808 2.89856 -3.05878 0
M  V30 5764 H 546.483 2.62454 -1.89471 0
M  V30 5765 H 545.39 1.04646 -3.59166 0
M  V30 5766 H 546.723 1.39571 -4.71997 0
M  V30 5767 N 548.375 1.56261 0.205012 0
M  V30 5768 C 549.307 1.90266 1.27795 0
M  V30 5769 C 550.32 0.792397 1.42214 0
M  V30 5770 O 551.509 1.07077 1.42817 0
M  V30 5771 C 548.609 2.11074 2.65143 0
M  V30 5772 C 547.782 3.42176 2.7246 0
M  V30 5773 C 546.841 3.52216 3.90936 0
M  V30 5774 O 545.867 4.25119 3.78501 0
M  V30 5775 N 547.069 2.84573 5.05963 0
M  V30 5776 H 549.834 2.82896 0.989434 0
M  V30 5777 H 547.395 1.57008 0.394981 0
M  V30 5778 H 549.387 2.15089 3.4281 0
M  V30 5779 H 547.957 1.2499 2.86524 0
M  V30 5780 H 547.177 3.50116 1.81142 0
M  V30 5781 H 548.465 4.28509 2.74331 0
M  V30 5782 H 547.863 2.25152 5.18963 0
M  V30 5783 H 546.42 2.94228 5.81613 0
M  V30 5784 N 549.853 -0.472356 1.50355 0
M  V30 5785 C 550.763 -1.59637 1.7191 0
M  V30 5786 C 551.779 -1.63247 0.602195 0
M  V30 5787 O 552.955 -1.81139 0.880369 0
M  V30 5788 C 550.02 -2.9586 1.80742 0
M  V30 5789 C 549.081 -3.02649 3.04471 0
M  V30 5790 C 548.314 -4.32374 3.12872 0
M  V30 5791 O 548.537 -5.22807 2.28099 0
M  V30 5792 O 547.471 -4.44728 4.05587 0
M  V30 5793 H 551.297 -1.44373 2.67189 0
M  V30 5794 H 548.882 -0.651717 1.34436 0
M  V30 5795 H 550.764 -3.7677 1.88739 0
M  V30 5796 H 549.439 -3.11325 0.88647 0
M  V30 5797 H 548.346 -2.20821 3.01975 0
M  V30 5798 H 549.679 -2.92119 3.9614 0
M  V30 5799 N 551.331 -1.39911 -0.725443 0
M  V30 5800 C 552.261 -1.42138 -1.85254 0
M  V30 5801 C 553.242 -0.283513 -1.67721 0
M  V30 5802 O 554.427 -0.490717 -1.87898 0
M  V30 5803 C 551.557 -1.27354 -3.23107 0
M  V30 5804 C 550.511 -2.3864 -3.55296 0
M  V30 5805 C 549.837 -2.08939 -4.92188 0
M  V30 5806 C 551.137 -3.8097 -3.57295 0
M  V30 5807 H 552.831 -2.36461 -1.83648 0
M  V30 5808 H 550.377 -1.13817 -0.882138 0
M  V30 5809 H 552.33 -1.2753 -4.01639 0
M  V30 5810 H 551.054 -0.295025 -3.25265 0
M  V30 5811 H 549.713 -2.37696 -2.79099 0
M  V30 5812 H 549.361 -1.09502 -4.90936 0
M  V30 5813 H 549.061 -2.83491 -5.14691 0
M  V30 5814 H 550.585 -2.10781 -5.73065 0
M  V30 5815 H 551.999 -3.8379 -4.25885 0
M  V30 5816 H 550.396 -4.5496 -3.9132 0
M  V30 5817 H 551.466 -4.11261 -2.5689 0
M  V30 5818 N 552.809 0.956637 -1.25245 0
M  V30 5819 C 554.225 1.22733 -1.02023 0
M  V30 5820 C 554.425 1.99761 0.264186 0
M  V30 5821 O 553.481 2.32814 0.977436 0
M  V30 5822 C 554.794 2.00367 -2.24217 0
M  V30 5823 C 556.342 2.13418 -2.28958 0
M  V30 5824 C 556.817 2.9445 -3.50803 0
M  V30 5825 N 558.308 3.02029 -3.51187 0
M  V30 5826 C 559.043 3.65116 -4.42129 0
M  V30 5827 N 558.539 4.2983 -5.43339 0
M  V30 5828 N 560.332 3.62237 -4.29815 0
M  V30 5829 H 552.483 0.441282 -2.07765 0
M  V30 5830 H 554.746 0.257686 -0.912306 0
M  V30 5831 H 554.452 1.51165 -3.17556 0
M  V30 5832 H 554.326 3.01077 -2.27228 0
M  V30 5833 H 556.713 2.61819 -1.36143 0
M  V30 5834 H 556.794 1.1202 -2.29968 0
M  V30 5835 H 556.438 2.46741 -4.43939 0
M  V30 5836 H 556.368 3.9607 -3.47039 0
M  V30 5837 H 558.859 2.56007 -2.77973 0
M  V30 5838 H 559.172 4.75819 -6.08947 0
M  V30 5839 H 557.517 4.28465 -5.47214 0
M  V30 5840 H 560.708 3.10863 -3.49974 0
M  V30 5841 H 560.881 4.11117 -5.00886 0
M  V30 5842 N 554.287 1.06798 1.15896 0
M  V30 5843 C 555.234 0.683314 2.20453 0
M  V30 5844 C 556.204 -0.32255 1.62938 0
M  V30 5845 O 557.389 -0.210276 1.89638 0
M  V30 5846 C 554.529 0.0813266 3.45004 0
M  V30 5847 C 553.642 1.13799 4.16742 0
M  V30 5848 C 552.777 0.501598 5.28826 0
M  V30 5849 C 551.816 1.54144 5.92373 0
M  V30 5850 N 550.953 0.928038 6.9594 0
M  V30 5851 H 555.793 1.57932 2.52708 0
M  V30 5852 H 553.33 0.789544 1.24115 0
M  V30 5853 H 555.288 -0.285274 4.16224 0
M  V30 5854 H 553.918 -0.77806 3.13283 0
M  V30 5855 H 552.97 1.62223 3.44075 0
M  V30 5856 H 554.282 1.92664 4.60089 0
M  V30 5857 H 553.436 0.0823162 6.06644 0
M  V30 5858 H 552.175 -0.318883 4.86656 0
M  V30 5859 H 551.18 1.97056 5.13273 0
M  V30 5860 H 552.405 2.3641 6.36621 0
M  V30 5861 H 550.351 0.12836 6.55874 0
M  V30 5862 H 550.268 1.65401 7.37685 0
M  V30 5863 H 551.536 0.534071 7.77668 0
M  V30 5864 N 555.766 -1.3263 0.851289 0
M  V30 5865 C 557.006 -1.99174 0.459266 0
M  V30 5866 C 557.37 -1.65913 -0.966273 0
M  V30 5867 O 558.571 -2.2552 -1.46267 0
M  V30 5868 C 556.842 -3.50721 0.687698 0
M  V30 5869 S 558.401 -4.37039 0.392746 0
M  V30 5870 H 555.219 -0.689832 0.172199 0
M  V30 5871 H 557.821 -1.61395 1.10327 0
M  V30 5872 H 556.525 -3.72417 1.72435 0
M  V30 5873 H 556.056 -3.93389 0.0299949 0
M  V30 5874 H 558.071 -4.8999 -0.782578 0
M  V30 5875 N 557.244 -0.608902 -1.45362 0
M  V30 5876 C 558.192 0.121639 -2.32282 0
M  V30 5877 C 559.186 0.858301 -1.46046 0
M  V30 5878 O 560.392 0.773718 -1.62523 0
M  V30 5879 H 556.767 0.058086 -0.749753 0
M  V30 5880 H 558.738 -0.629866 -2.91677 0
M  V30 5881 C 557.487 1.1047 -3.29684 0
M  V30 5882 H 556.81 0.547278 -3.96036 0
M  V30 5883 H 558.25 1.58576 -3.9323 0
M  V30 5884 C 556.709 2.17891 -2.56954 0
M  V30 5885 O 557.239 3.25652 -2.35189 0
M  V30 5886 N 555.445 1.93211 -2.17066 0
M  V30 5887 H 554.992 1.05584 -2.34967 0
M  V30 5888 H 554.95 2.6529 -1.68727 0
M  V30 5889 N 558.722 1.53707 -0.348139 0
M  V30 5890 C 559.654 2.22725 0.540946 0
M  V30 5891 C 560.667 1.2354 1.06027 0
M  V30 5892 O 561.856 1.49867 0.96964 0
M  V30 5893 C 558.956 2.89756 1.75768 0
M  V30 5894 C 558.129 4.15297 1.37285 0
M  V30 5895 C 557.188 4.65697 2.44976 0
M  V30 5896 O 556.214 5.29798 2.08092 0
M  V30 5897 N 557.416 4.42017 3.763 0
M  V30 5898 H 560.181 2.99658 -0.0501592 0
M  V30 5899 H 557.742 1.60979 -0.17248 0
M  V30 5900 H 559.734 3.20388 2.47252 0
M  V30 5901 H 558.304 2.16382 2.25605 0
M  V30 5902 H 557.524 3.9116 0.488584 0
M  V30 5903 H 558.812 4.96948 1.09179 0
M  V30 5904 H 558.21 3.9076 4.09051 0
M  V30 5905 H 556.767 4.77242 4.4394 0
M  V30 5906 N 560.2 0.0768682 1.57412 0
M  V30 5907 C 561.446 -0.585926 1.94778 0
M  V30 5908 C 561.801 -1.66912 0.956982 0
M  V30 5909 O 561.094 -1.9159 -0.0199454 0
M  V30 5910 C 561.288 -1.20268 3.36557 0
M  V30 5911 C 561.117 -0.18076 4.49337 0
M  V30 5912 C 559.887 0.236362 5.04747 0
M  V30 5913 C 562.085 0.583978 5.10974 0
M  V30 5914 N 560.067 1.24846 6.01071 0
M  V30 5915 C 561.438 1.44841 6.02844 0
M  V30 5916 C 563.493 0.639492 4.93776 0
M  V30 5917 C 562.196 2.36343 6.79363 0
M  V30 5918 C 564.222 1.54204 5.70942 0
M  V30 5919 C 563.584 2.39414 6.62465 0
M  V30 5920 H 559.683 -0.185281 0.759734 0
M  V30 5921 H 562.267 0.155193 1.9408 0
M  V30 5922 H 560.438 -1.9137 3.37982 0
M  V30 5923 H 562.17 -1.82636 3.61146 0
M  V30 5924 H 558.925 -0.14777 4.73369 0
M  V30 5925 H 559.349 1.75217 6.53933 0
M  V30 5926 H 563.991 -0.00510074 4.228 0
M  V30 5927 H 561.709 3.01836 7.49614 0
M  V30 5928 H 565.295 1.5899 5.59655 0
M  V30 5929 H 564.175 3.0812 7.21132 0
M  V30 5930 N 561.678 -1.56367 -0.196722 0
M  V30 5931 C 562.903 -1.84991 -0.937714 0
M  V30 5932 C 563.328 -0.660244 -1.76132 0
M  V30 5933 O 562.686 0.390967 -1.77034 0
M  V30 5934 C 562.734 -3.11828 -1.81096 0
M  V30 5935 O 561.838 -2.92266 -2.90955 0
M  V30 5936 H 561.179 -0.609193 -0.264159 0
M  V30 5937 H 563.709 -2.03595 -0.202529 0
M  V30 5938 H 563.719 -3.42579 -2.21594 0
M  V30 5939 H 562.394 -3.98037 -1.2058 0
M  V30 5940 H 560.971 -2.72809 -2.54224 0
M  V30 5941 N 563.156 0.464375 -1.50603 0
M  V30 5942 C 564.404 1.21356 -1.61608 0
M  V30 5943 C 564.725 1.92329 -0.321643 0
M  V30 5944 O 563.995 1.84403 0.661232 0
M  V30 5945 H 562.575 0.45094 -0.595535 0
M  V30 5946 H 565.237 0.535046 -1.87412 0
M  V30 5947 H 564.333 1.95783 -2.43054 0
M  V30 5948 N 564.634 1.40294 0.718013 0
M  V30 5949 C 565.564 1.43118 1.84498 0
M  V30 5950 C 566.545 0.292403 1.67568 0
M  V30 5951 O 567.73 0.500675 1.87635 0
M  V30 5952 C 564.86 1.29065 3.22427 0
M  V30 5953 C 563.814 2.40521 3.54025 0
M  V30 5954 C 563.14 2.11546 4.91073 0
M  V30 5955 C 564.44 3.82859 3.55269 0
M  V30 5956 H 566.134 2.37432 1.82391 0
M  V30 5957 H 563.68 1.14283 0.87609 0
M  V30 5958 H 565.633 1.29658 4.00957 0
M  V30 5959 H 564.357 0.312271 3.25104 0
M  V30 5960 H 563.016 2.39173 2.77834 0
M  V30 5961 H 562.664 1.12104 4.90348 0
M  V30 5962 H 562.364 2.86216 5.1318 0
M  V30 5963 H 563.888 2.13817 5.71939 0
M  V30 5964 H 565.302 3.86044 4.23843 0
M  V30 5965 H 563.699 4.57029 3.88902 0
M  V30 5966 H 564.769 4.12617 2.54706 0
M  V30 5967 N 566.112 -0.949982 1.2575 0
M  V30 5968 C 567.337 -1.73503 1.13628 0
M  V30 5969 C 567.762 -1.85601 -0.30559 0
M  V30 5970 O 567.12 -1.33984 -1.22139 0
M  V30 5971 C 567.168 -3.1243 1.80055 0
M  V30 5972 O 566.272 -3.97916 1.08336 0
M  V30 5973 H 565.613 -0.532665 0.396439 0
M  V30 5974 H 568.143 -1.19043 1.66403 0
M  V30 5975 H 568.153 -3.62866 1.86527 0
M  V30 5976 H 566.828 -3.02941 2.84956 0
M  V30 5977 H 565.405 -3.56375 1.09777 0
M  V30 5978 N 567.59 -1.07411 -1.15328 0
M  V30 5979 C 568.5 -0.706438 -2.23711 0
M  V30 5980 C 569.516 0.282586 -1.7169 0
M  V30 5981 O 570.692 0.129066 -2.00986 0
M  V30 5982 C 567.757 -0.11048 -3.46524 0
M  V30 5983 C 566.818 -1.15282 -4.13532 0
M  V30 5984 C 566.051 -0.585205 -5.30482 0
M  V30 5985 O 566.274 0.598549 -5.67251 0
M  V30 5986 O 565.208 -1.33039 -5.87013 0
M  V30 5987 H 569.034 -1.61031 -2.57493 0
M  V30 5988 H 566.619 -0.847113 -1.23062 0
M  V30 5989 H 568.501 0.21957 -4.20828 0
M  V30 5990 H 567.176 0.766703 -3.14489 0
M  V30 5991 H 566.083 -1.53523 -3.41147 0
M  V30 5992 H 567.416 -2.00192 -4.49649 0
M  V30 5993 N 569.068 1.32177 -0.85831 0
M  V30 5994 C 570.316 1.96735 -0.462568 0
M  V30 5995 C 570.637 1.6824 0.985911 0
M  V30 5996 O 569.907 0.991564 1.68952 0
M  V30 5997 H 568.487 0.727849 -0.168064 0
M  V30 5998 H 571.149 1.61195 -1.09554 0
M  V30 5999 H 570.245 3.06068 -0.610647 0
M  V30 6000 N 570.547 0.616602 1.45037 0
M  V30 6001 C 571.772 0.120192 2.07051 0
M  V30 6002 C 572.197 -1.19008 1.45666 0
M  V30 6003 O 571.555 -1.7267 0.552692 0
M  V30 6004 C 571.603 0.00354901 3.606 0
M  V30 6005 O 570.707 -1.04431 3.98958 0
M  V30 6006 H 570.048 0.0781599 0.659384 0
M  V30 6007 H 572.578 0.849167 1.86146 0
M  V30 6008 H 572.588 -0.191754 4.07549 0
M  V30 6009 H 571.263 0.960239 4.04663 0
M  V30 6010 H 569.84 -0.824749 3.63665 0
M  V30 6011 N 572.025 -1.5352 0.356285 0
M  V30 6012 C 573.271 -2.01414 -0.236653 0
M  V30 6013 C 573.604 -1.24339 -1.49176 0
M  V30 6014 O 572.879 -0.334496 -1.91602 0
M  V30 6015 C 573.162 -3.56059 -0.537982 0
M  V30 6016 C 573.015 -4.43835 0.730112 0
M  V30 6017 C 574.334 -4.19127 -1.34239 0
M  V30 6018 H 571.453 -0.732135 -0.0845386 0
M  V30 6019 H 574.095 -1.83854 0.479341 0
M  V30 6020 H 572.245 -3.71153 -1.14795 0
M  V30 6021 H 573.917 -4.40555 1.36782 0
M  V30 6022 H 572.16 -4.1218 1.3524 0
M  V30 6023 H 572.831 -5.49958 0.474358 0
M  V30 6024 H 575.307 -4.07809 -0.826498 0
M  V30 6025 H 574.183 -5.27378 -1.52198 0
M  V30 6026 H 574.444 -3.74581 -2.34822 0
M  V30 6027 N 573.503 -0.0852151 -1.57369 0
M  V30 6028 C 574.731 0.58946 -1.98325 0
M  V30 6029 C 575.146 1.62333 -0.96403 0
M  V30 6030 O 574.503 1.82438 0.0476395 0
M  V30 6031 C 574.554 1.24604 -3.39347 0
M  V30 6032 O 574.275 0.253532 -4.37366 0
M  V30 6033 C 575.776 2.00726 -3.95252 0
M  V30 6034 H 572.996 0.158783 -0.651942 0
M  V30 6035 H 575.54 -0.161584 -2.03861 0
M  V30 6036 H 573.695 1.94808 -3.34856 0
M  V30 6037 H 574.109 0.726207 -5.19448 0
M  V30 6038 H 575.583 2.42039 -4.96106 0
M  V30 6039 H 576.06 2.86919 -3.32527 0
M  V30 6040 H 576.666 1.3536 -4.03185 0
M  V30 6041 N 574.981 1.5647 0.188427 0
M  V30 6042 C 576.221 1.82803 0.914469 0
M  V30 6043 C 576.585 0.663681 1.80165 0
M  V30 6044 O 577.786 0.807059 2.56398 0
M  V30 6045 C 576.057 3.14187 1.70357 0
M  V30 6046 S 577.616 3.61947 2.48072 0
M  V30 6047 H 574.434 0.641497 0.306599 0
M  V30 6048 H 577.036 1.94694 0.177361 0
M  V30 6049 H 575.74 3.96937 1.04255 0
M  V30 6050 H 575.271 3.05192 2.48237 0
M  V30 6051 H 577.286 3.27913 3.72407 0
M  V30 6052 N 576.459 -0.456382 1.50847 0
M  V30 6053 C 577.684 -1.2349 1.66628 0
M  V30 6054 C 578.109 -1.84715 0.355254 0
M  V30 6055 O 577.467 -1.67961 -0.682559 0
M  V30 6056 C 577.515 -2.30865 2.77009 0
M  V30 6057 O 576.619 -3.35882 2.39285 0
M  V30 6058 H 575.96 -0.36266 0.556214 0
M  V30 6059 H 578.49 -0.541374 1.97308 0
M  V30 6060 H 578.5 -2.75949 3.00526 0
M  V30 6061 H 577.175 -1.85677 3.72152 0
M  V30 6062 H 575.752 -2.96406 2.26269 0
M  V30 6063 N 577.937 -1.40673 -0.710563 0
M  V30 6064 C 579.162 -1.42741 -1.50465 0
M  V30 6065 C 579.587 -0.0302116 -1.88076 0
M  V30 6066 O 578.945 0.962945 -1.53613 0
M  V30 6067 C 578.993 -2.32873 -2.75322 0
M  V30 6068 O 578.097 -1.77544 -3.72226 0
M  V30 6069 H 577.438 -0.485056 -0.45345 0
M  V30 6070 H 579.968 -1.84961 -0.874681 0
M  V30 6071 H 579.978 -2.48233 -3.23797 0
M  V30 6072 H 578.653 -3.34401 -2.47283 0
M  V30 6073 H 577.23 -1.71556 -3.31093 0
M  V30 6074 N 579.415 0.9433 -1.26252 0
M  V30 6075 C 580.378 2.02326 -1.07689 0
M  V30 6076 C 581.378 1.60779 -0.0259174 0
M  V30 6077 O 582.568 1.72108 -0.269134 0
M  V30 6078 C 579.7 3.34886 -0.63752 0
M  V30 6079 H 580.893 2.20225 -2.0357 0
M  V30 6080 H 578.446 1.12197 -1.08819 0
M  V30 6081 H 579.181 3.22684 0.323377 0
M  V30 6082 H 578.966 3.66393 -1.39637 0
M  V30 6083 H 580.456 4.14231 -0.529418 0
M  V30 6084 N 580.893 1.08022 1.14757 0
M  V30 6085 C 582.118 0.82895 1.90114 0
M  V30 6086 C 582.543 -0.612772 1.77839 0
M  V30 6087 O 581.901 -1.42895 1.11583 0
M  V30 6088 C 581.949 1.25062 3.38219 0
M  V30 6089 O 581.053 0.400119 4.10454 0
M  V30 6090 H 580.394 0.301412 0.591648 0
M  V30 6091 H 582.924 1.44062 1.45284 0
M  V30 6092 H 582.934 1.22977 3.89025 0
M  V30 6093 H 581.609 2.30067 3.46471 0
M  V30 6094 H 580.186 0.484052 3.69745 0
M  V30 6095 N 582.371 -1.3172 0.865308 0
M  V30 6096 C 583.599 -2.01057 0.488251 0
M  V30 6097 C 584.014 -1.64979 -0.918 0
M  V30 6098 O 583.371 -0.876597 -1.60069 0
M  V30 6099 C 583.422 -3.55964 0.630224 0
M  V30 6100 O 583.143 -3.90749 1.98109 0
M  V30 6101 C 584.644 -4.42574 0.253567 0
M  V30 6102 H 581.864 -0.64332 0.190736 0
M  V30 6103 H 584.408 -1.68058 1.16519 0
M  V30 6104 H 582.563 -3.874 0.000895422 0
M  V30 6105 H 582.977 -4.85467 1.9855 0
M  V30 6106 H 584.451 -5.50521 0.403875 0
M  V30 6107 H 584.928 -4.31724 -0.806895 0
M  V30 6108 H 585.534 -4.16547 0.858404 0
M  V30 6109 N 583.85 -0.624285 -1.44708 0
M  V30 6110 C 585.077 -0.132919 -2.06473 0
M  V30 6111 C 585.493 1.18967 -1.46602 0
M  V30 6112 O 584.85 1.72824 -0.586341 0
M  V30 6113 C 584.901 -0.00465418 -3.615 0
M  V30 6114 O 584.622 -1.27494 -4.19138 0
M  V30 6115 C 586.123 0.516213 -4.40284 0
M  V30 6116 H 583.343 -0.0765201 -0.666623 0
M  V30 6117 H 585.887 -0.856751 -1.85688 0
M  V30 6118 H 584.042 0.669583 -3.8157 0
M  V30 6119 H 584.456 -1.11536 -5.12504 0
M  V30 6120 H 585.93 0.554994 -5.49203 0
M  V30 6121 H 586.407 1.5419 -4.11245 0
M  V30 6122 H 587.013 -0.124542 -4.25118 0
M  V30 6123 N 585.328 1.53329 -0.364422 0
M  V30 6124 C 586.238 2.29414 0.490552 0
M  V30 6125 C 587.254 1.35335 1.09363 0
M  V30 6126 O 588.43 1.68391 1.10483 0
M  V30 6127 C 585.495 3.06772 1.61529 0
M  V30 6128 C 584.556 4.16516 1.03986 0
M  V30 6129 C 583.789 4.90176 2.111 0
M  V30 6130 O 584.012 4.63687 3.32191 0
M  V30 6131 O 582.946 5.76134 1.74222 0
M  V30 6132 H 586.772 3.03428 -0.12856 0
M  V30 6133 H 584.357 1.48843 -0.128837 0
M  V30 6134 H 586.239 3.55082 2.26924 0
M  V30 6135 H 584.914 2.35596 2.21983 0
M  V30 6136 H 583.821 3.7246 0.349856 0
M  V30 6137 H 585.154 4.89855 0.4799 0
M  V30 6138 N 586.806 0.0935595 1.57322 0
M  V30 6139 C 588.083 -0.612692 1.85756 0
M  V30 6140 C 588.463 -1.86439 0.99013 0
M  V30 6141 O 587.811 -2.28416 0.0621362 0
M  V30 6142 C 588.021 -0.929547 3.36393 0
M  V30 6143 C 589.369 -1.29366 4.04413 0
M  V30 6144 O 590.393 -1.02061 3.41265 0
M  V30 6145 O 589.252 -1.80498 5.15832 0
M  V30 6146 H 586.346 -0.306444 0.768128 0
M  V30 6147 H 588.892 0.126141 1.69231 0
M  V30 6148 H 587.664 -0.0414766 3.91278 0
M  V30 6149 H 587.287 -1.72441 3.5826 0
M  V30 6150 N 588.284 -1.56567 -0.180126 0
M  V30 6151 C 589.524 -1.83285 -0.904761 0
M  V30 6152 C 589.888 -0.673226 -1.7981 0
M  V30 6153 O 591.089 -0.820645 -2.55967 0
M  V30 6154 C 589.36 -3.15086 -1.68688 0
M  V30 6155 S 590.919 -3.63258 -2.46149 0
M  V30 6156 H 587.737 -0.643114 -0.303193 0
M  V30 6157 H 590.339 -1.94785 -0.167034 0
M  V30 6158 H 589.043 -3.97484 -1.02148 0
M  V30 6159 H 588.574 -3.06504 -2.46615 0
M  V30 6160 H 590.589 -3.29884 -3.70663 0
M  V30 6161 N 589.762 0.448376 -1.51087 0
M  V30 6162 C 591.011 1.19561 -1.62444 0
M  V30 6163 C 591.324 1.92602 -0.341151 0
M  V30 6164 O 592.53 2.69439 -0.333936 0
M  V30 6165 C 590.986 2.17373 -2.8684 0
M  V30 6166 C 590.594 1.5003 -4.22131 0
M  V30 6167 C 592.338 2.92597 -3.0755 0
M  V30 6168 C 590.245 2.46262 -5.37689 0
M  V30 6169 H 589.175 0.449975 -0.605011 0
M  V30 6170 H 591.826 0.463735 -1.77544 0
M  V30 6171 H 590.208 2.93948 -2.65349 0
M  V30 6172 H 591.382 0.790886 -4.53962 0
M  V30 6173 H 589.697 0.870011 -4.0721 0
M  V30 6174 H 592.294 3.64663 -3.91056 0
M  V30 6175 H 592.637 3.53306 -2.20183 0
M  V30 6176 H 593.17 2.23131 -3.29329 0
M  V30 6177 H 589.909 1.90258 -6.27281 0
M  V30 6178 H 589.429 3.15289 -5.10248 0
M  V30 6179 H 591.108 3.07623 -5.6919 0
M  V30 6180 N 591.24 1.41047 0.703093 0
M  V30 6181 C 592.203 1.42036 1.79884 0
M  V30 6182 C 593.203 0.312153 1.57741 0
M  V30 6183 O 594.393 0.571672 1.64553 0
M  V30 6184 C 591.525 1.22437 3.18154 0
M  V30 6185 H 592.718 2.39572 1.80403 0
M  V30 6186 H 590.271 1.27079 0.909977 0
M  V30 6187 H 591.006 0.257112 3.23279 0
M  V30 6188 H 590.791 2.02723 3.35627 0
M  V30 6189 H 592.281 1.25946 3.98155 0
M  V30 6190 N 592.718 -0.936591 1.26751 0
M  V30 6191 C 593.648 -2.05315 1.11212 0
M  V30 6192 C 594.629 -1.70092 0.0160262 0
M  V30 6193 O 595.814 -1.93279 0.188894 0
M  V30 6194 C 592.944 -3.39123 0.749171 0
M  V30 6195 C 591.898 -3.88425 1.79751 0
M  V30 6196 C 591.224 -5.18936 1.28876 0
M  V30 6197 C 592.524 -4.12798 3.19992 0
M  V30 6198 H 594.218 -2.18573 2.04613 0
M  V30 6199 H 591.764 -1.05027 0.985159 0
M  V30 6200 H 593.717 -4.16704 0.627323 0
M  V30 6201 H 592.441 -3.25855 -0.220543 0
M  V30 6202 H 591.1 -3.13028 1.90811 0
M  V30 6203 H 590.748 -5.02051 0.308757 0
M  V30 6204 H 590.448 -5.52892 1.98958 0
M  V30 6205 H 591.972 -5.99096 1.17967 0
M  V30 6206 H 593.386 -4.80977 3.11983 0
M  V30 6207 H 591.783 -4.58044 3.87705 0
M  V30 6208 H 592.853 -3.18412 3.65707 0
M  V30 6209 N 594.196 -1.08629 -1.14182 0
M  V30 6210 C 595.442 -0.818556 -1.85546 0
M  V30 6211 C 595.775 0.654076 -1.82854 0
M  V30 6212 O 595.05 1.48099 -1.26083 0
M  V30 6213 C 595.333 -1.34397 -3.3408 0
M  V30 6214 C 595.186 -2.8821 -3.45333 0
M  V30 6215 C 596.505 -0.971069 -4.29253 0
M  V30 6216 H 593.624 -0.298821 -0.673702 0
M  V30 6217 H 596.266 -1.34629 -1.34071 0
M  V30 6218 H 594.416 -0.895064 -3.78049 0
M  V30 6219 H 596.088 -3.41488 -3.10134 0
M  V30 6220 H 594.331 -3.25756 -2.86471 0
M  V30 6221 H 595.002 -3.20047 -4.49749 0
M  V30 6222 H 597.478 -1.35809 -3.93313 0
M  V30 6223 H 596.354 -1.36586 -5.31635 0
M  V30 6224 H 596.615 0.121659 -4.41933 0
M  V30 6225 N 595.674 1.31259 -0.872281 0
M  V30 6226 C 596.604 2.30929 -0.345554 0
M  V30 6227 C 597.585 1.60449 0.5648 0
M  V30 6228 O 598.77 1.8814 0.481335 0
M  V30 6229 C 595.9 3.44348 0.451823 0
M  V30 6230 C 594.854 4.26435 -0.365641 0
M  V30 6231 C 594.18 5.31785 0.557562 0
M  V30 6232 C 595.48 4.97159 -1.60095 0
M  V30 6233 H 597.174 2.75234 -1.17841 0
M  V30 6234 H 594.72 1.3232 -0.568094 0
M  V30 6235 H 596.673 4.13128 0.830854 0
M  V30 6236 H 595.397 2.98816 1.31821 0
M  V30 6237 H 594.056 3.59326 -0.726649 0
M  V30 6238 H 593.704 4.82502 1.4213 0
M  V30 6239 H 593.404 5.87598 0.0144878 0
M  V30 6240 H 594.928 6.03424 0.933387 0
M  V30 6241 H 596.342 5.58523 -1.29323 0
M  V30 6242 H 594.739 5.62779 -2.08327 0
M  V30 6243 H 595.809 4.24012 -2.35249 0
M  V30 6244 N 597.152 0.631951 1.44375 0
M  V30 6245 C 598.099 -0.0724807 2.30686 0
M  V30 6246 C 599.069 -0.835975 1.43529 0
M  V30 6247 O 600.254 -0.816849 1.7243 0
M  V30 6248 C 597.394 -1.04753 3.28817 0
M  V30 6249 C 596.507 -0.282367 4.31076 0
M  V30 6250 C 595.642 -1.2493 5.163 0
M  V30 6251 C 594.681 -0.473349 6.10267 0
M  V30 6252 N 593.818 -1.39079 6.88187 0
M  V30 6253 H 598.658 0.669477 2.90383 0
M  V30 6254 H 596.195 0.341927 1.43071 0
M  V30 6255 H 598.153 -1.62623 3.842 0
M  V30 6256 H 596.783 -1.75661 2.70819 0
M  V30 6257 H 595.835 0.412268 3.78159 0
M  V30 6258 H 597.147 0.321955 4.9776 0
M  V30 6259 H 596.301 -1.89931 5.76204 0
M  V30 6260 H 595.04 -1.88755 4.49692 0
M  V30 6261 H 594.045 0.190142 5.49471 0
M  V30 6262 H 595.27 0.16019 6.78911 0
M  V30 6263 H 593.216 -2.01623 6.24247 0
M  V30 6264 H 593.133 -0.840513 7.51313 0
M  V30 6265 H 594.401 -2.02961 7.52613 0
M  V30 6266 N 598.631 -1.53133 0.372548 0
M  V30 6267 C 599.879 -2.00958 -0.214534 0
M  V30 6268 C 600.2 -1.26135 -1.48711 0
M  V30 6269 O 599.47 -0.376597 -1.92246 0
M  V30 6270 H 598.05 -0.742456 -0.0822664 0
M  V30 6271 H 600.712 -1.88367 0.500385 0
M  V30 6272 H 599.808 -3.09031 -0.436605 0
M  V30 6273 N 600.109 -0.101901 -1.5727 0
M  V30 6274 C 601.019 0.868647 -2.17926 0
M  V30 6275 C 602.035 1.30527 -1.1506 0
M  V30 6276 O 603.211 1.37178 -1.47459 0
M  V30 6277 C 600.276 2.10727 -2.75309 0
M  V30 6278 C 599.337 1.7242 -3.93154 0
M  V30 6279 C 598.57 2.90377 -4.47791 0
M  V30 6280 O 598.793 4.05305 -4.01353 0
M  V30 6281 O 597.727 2.6845 -5.38719 0
M  V30 6282 H 601.553 0.382544 -3.01281 0
M  V30 6283 H 599.138 0.122812 -1.48894 0
M  V30 6284 H 601.02 2.83303 -3.11958 0
M  V30 6285 H 599.695 2.58376 -1.94996 0
M  V30 6286 H 598.602 0.970039 -3.61305 0
M  V30 6287 H 599.935 1.29528 -4.74851 0
M  V30 6288 N 601.587 1.56661 0.17182 0
M  V30 6289 C 602.55 1.9549 1.19651 0
M  V30 6290 C 603.55 0.838501 1.37207 0
M  V30 6291 O 604.74 1.10556 1.34622 0
M  V30 6292 C 601.872 2.24927 2.56166 0
M  V30 6293 H 603.065 2.87184 0.864007 0
M  V30 6294 H 600.618 1.50711 0.41425 0
M  V30 6295 H 601.353 1.35944 2.94431 0
M  V30 6296 H 601.138 3.06301 2.4479 0
M  V30 6297 H 602.628 2.55891 3.30014 0
M  V30 6298 N 603.065 -0.440357 1.51323 0
M  V30 6299 C 604.342 -1.20109 1.5438 0
M  V30 6300 C 604.722 -2.08866 0.306303 0
M  V30 6301 O 604.07 -2.1723 -0.708773 0
M  V30 6302 C 604.28 -2.00555 2.8562 0
M  V30 6303 C 605.628 -2.577 3.37455 0
M  V30 6304 O 606.652 -2.10769 2.8715 0
M  V30 6305 O 605.511 -3.43289 4.25224 0
M  V30 6306 H 602.605 -0.546668 0.620551 0
M  V30 6307 H 605.151 -0.449672 1.63634 0
M  V30 6308 H 603.923 -1.35346 3.67147 0
M  V30 6309 H 603.546 -2.82768 2.79514 0
M  V30 6310 N 604.543 -1.41418 -0.695603 0
M  V30 6311 C 605.506 -1.42988 -1.79129 0
M  V30 6312 C 606.506 -0.320514 -1.57573 0
M  V30 6313 O 607.696 -0.58039 -1.64247 0
M  V30 6314 C 604.828 -1.24122 -3.175 0
M  V30 6315 H 606.021 -2.40526 -1.7913 0
M  V30 6316 H 603.574 -1.2756 -0.903225 0
M  V30 6317 H 604.309 -0.274253 -3.23138 0
M  V30 6318 H 604.094 -2.045 -3.34547 0
M  V30 6319 H 605.584 -1.28056 -3.97481 0
M  V30 6320 N 606.021 0.929856 -1.27246 0
M  V30 6321 C 606.954 2.03069 -1.04106 0
M  V30 6322 C 607.932 1.62556 0.0378417 0
M  V30 6323 O 609.116 1.88197 -0.106869 0
M  V30 6324 C 606.243 3.33718 -0.578778 0
M  V30 6325 C 605.289 3.93209 -1.65193 0
M  V30 6326 S 606.122 4.26068 -3.24386 0
M  V30 6327 C 607.278 5.598 -2.79954 0
M  V30 6328 H 607.511 2.22386 -1.97311 0
M  V30 6329 H 605.044 1.07269 -1.11053 0
M  V30 6330 H 607.002 4.09261 -0.31874 0
M  V30 6331 H 605.663 3.12328 0.333182 0
M  V30 6332 H 604.856 4.87482 -1.27973 0
M  V30 6333 H 604.458 3.24243 -1.86393 0
M  V30 6334 H 606.75 6.39004 -2.25123 0
M  V30 6335 H 607.693 6.01917 -3.72963 0
M  V30 6336 H 608.101 5.20219 -2.19164 0
M  V30 6337 N 607.499 1.09233 1.13605 0
M  V30 6338 C 608.724 0.849067 1.89224 0
M  V30 6339 C 609.149 -0.593875 1.78479 0
M  V30 6340 O 608.507 -1.41703 1.13092 0
M  V30 6341 C 608.555 1.28642 3.36873 0
M  V30 6342 O 607.659 0.44363 4.10007 0
M  V30 6343 H 607 0.30767 0.588417 0
M  V30 6344 H 609.53 1.45595 1.43748 0
M  V30 6345 H 609.54 1.27096 3.87699 0
M  V30 6346 H 608.215 2.33729 3.44011 0
M  V30 6347 H 606.792 0.523241 3.69211 0
M  V30 6348 N 608.977 -1.30795 0.87923 0
M  V30 6349 C 609.907 -2.30742 0.357796 0
M  V30 6350 C 610.888 -1.60747 -0.556283 0
M  V30 6351 O 612.073 -1.88393 -0.47135 0
M  V30 6352 C 609.203 -3.44583 -0.433555 0
M  V30 6353 C 608.157 -4.26235 0.388251 0
M  V30 6354 C 607.483 -5.32073 -0.529352 0
M  V30 6355 C 608.783 -4.96303 1.62729 0
M  V30 6356 H 610.477 -2.74605 1.19299 0
M  V30 6357 H 608.023 -1.32017 0.575104 0
M  V30 6358 H 609.976 -4.13563 -0.808934 0
M  V30 6359 H 608.7 -2.99511 -1.30234 0
M  V30 6360 H 607.359 -3.58936 0.745695 0
M  V30 6361 H 607.007 -4.83249 -1.39569 0
M  V30 6362 H 606.707 -5.87598 0.0166741 0
M  V30 6363 H 608.231 -6.0391 -0.901373 0
M  V30 6364 H 609.645 -5.5783 1.32283 0
M  V30 6365 H 608.042 -5.61666 2.11309 0
M  V30 6366 H 609.112 -4.22758 2.37494 0
M  V30 6367 N 610.455 -0.639598 -1.44038 0
M  V30 6368 C 611.732 -0.078012 -1.95444 0
M  V30 6369 C 612.112 1.39847 -1.58133 0
M  V30 6370 O 611.46 2.11714 -0.859614 0
M  V30 6371 C 611.67 -0.309832 -3.47622 0
M  V30 6372 C 613.018 -0.207521 -4.24093 0
M  V30 6373 O 614.042 -0.241653 -3.55379 0
M  V30 6374 O 612.901 -0.119641 -5.46369 0
M  V30 6375 H 609.995 0.0174534 -0.826816 0
M  V30 6376 H 612.541 -0.711891 -1.54046 0
M  V30 6377 H 611.313 -1.33401 -3.67858 0
M  V30 6378 H 610.936 0.357777 -3.95987 0
M  V30 6379 N 611.933 1.52934 -0.380664 0
M  V30 6380 C 613.181 2.01069 0.203874 0
M  V30 6381 C 613.502 1.26922 1.4804 0
M  V30 6382 O 612.772 0.386787 1.92044 0
M  V30 6383 H 611.352 0.742882 0.0783279 0
M  V30 6384 H 614.014 1.88099 -0.510368 0
M  V30 6385 H 613.11 3.09258 0.42021 0
M  V30 6386 N 613.412 0.11024 1.57214 0
M  V30 6387 C 614.66 -0.548783 1.94506 0
M  V30 6388 C 614.981 -1.67772 0.99386 0
M  V30 6389 O 614.251 -1.9584 0.0485841 0
M  V30 6390 H 612.831 -0.205715 0.718116 0
M  V30 6391 H 615.493 0.177127 1.94093 0
M  V30 6392 H 614.589 -0.949096 2.97319 0
M  V30 6393 N 614.89 -1.56749 -0.16351 0
M  V30 6394 C 616.12 -1.86307 -0.892936 0
M  V30 6395 C 616.528 -0.6945 -1.75992 0
M  V30 6396 O 615.871 0.345384 -1.80424 0
M  V30 6397 C 615.933 -3.10372 -1.81409 0
M  V30 6398 C 615.597 -4.42913 -1.12593 0
M  V30 6399 C 616.594 -5.17608 -0.487661 0
M  V30 6400 C 614.279 -4.89646 -1.12035 0
M  V30 6401 C 616.273 -6.3723 0.14699 0
M  V30 6402 C 613.96 -6.09197 -0.481883 0
M  V30 6403 C 614.958 -6.82834 0.150678 0
M  V30 6404 O 614.646 -8.00116 0.779065 0
M  V30 6405 H 614.378 -0.622126 -0.264452 0
M  V30 6406 H 616.932 -2.04728 -0.166063 0
M  V30 6407 H 615.162 -2.87917 -2.58148 0
M  V30 6408 H 616.851 -3.26312 -2.41403 0
M  V30 6409 H 617.617 -4.8258 -0.483888 0
M  V30 6410 H 613.496 -4.32265 -1.60212 0
M  V30 6411 H 617.04 -6.94646 0.641325 0
M  V30 6412 H 612.937 -6.43688 -0.483266 0
M  V30 6413 H 613.705 -8.15678 0.679089 0
M  V30 6414 N 616.368 0.432326 -1.51554 0
M  V30 6415 C 617.614 1.18309 -1.64714 0
M  V30 6416 C 617.947 1.90745 -0.364696 0
M  V30 6417 O 617.222 1.8381 0.635936 0
M  V30 6418 C 617.505 2.1961 -2.85383 0
M  V30 6419 C 617.358 1.51223 -4.23617 0
M  V30 6420 C 618.677 3.20538 -3.01569 0
M  V30 6421 H 615.796 0.428751 -0.599451 0
M  V30 6422 H 618.438 0.471689 -1.84052 0
M  V30 6423 H 616.588 2.8028 -2.69027 0
M  V30 6424 H 618.26 0.938516 -4.51652 0
M  V30 6425 H 616.503 0.814501 -4.26085 0
M  V30 6426 H 617.174 2.25024 -5.04052 0
M  V30 6427 H 619.65 2.69926 -3.16669 0
M  V30 6428 H 618.526 3.88706 -3.87555 0
M  V30 6429 H 618.787 3.86933 -2.13859 0
M  V30 6430 N 617.846 1.41785 0.688094 0
M  V30 6431 C 619.076 1.44705 1.47459 0
M  V30 6432 C 619.484 0.052916 1.89126 0
M  V30 6433 O 618.827 -0.939781 1.57841 0
M  V30 6434 C 618.889 2.29935 2.76352 0
M  V30 6435 C 618.553 3.77996 2.56843 0
M  V30 6436 C 619.55 4.69976 2.22304 0
M  V30 6437 C 617.235 4.2212 2.7225 0
M  V30 6438 C 619.229 6.04068 2.03421 0
M  V30 6439 C 616.916 5.56275 2.52985 0
M  V30 6440 C 617.914 6.47065 2.18621 0
M  V30 6441 O 617.602 7.78744 1.9953 0
M  V30 6442 H 617.334 0.494703 0.460701 0
M  V30 6443 H 619.888 1.86802 0.854057 0
M  V30 6444 H 618.118 1.82664 3.40839 0
M  V30 6445 H 619.807 2.24467 3.38186 0
M  V30 6446 H 620.573 4.37175 2.10008 0
M  V30 6447 H 616.452 3.51752 2.97979 0
M  V30 6448 H 619.996 6.74897 1.76523 0
M  V30 6449 H 615.893 5.88653 2.64873 0
M  V30 6450 H 616.661 7.89966 2.14234 0
M  V30 6451 N 619.324 -0.923095 1.27737 0
M  V30 6452 C 620.552 -1.70525 1.17171 0
M  V30 6453 C 620.967 -1.86847 -0.270881 0
M  V30 6454 O 620.324 -1.38879 -1.18401 0
M  V30 6455 C 620.375 -3.10242 1.85559 0
M  V30 6456 O 620.096 -2.94683 3.24182 0
M  V30 6457 C 621.597 -4.04586 1.81176 0
M  V30 6458 H 618.817 -0.533347 0.407163 0
M  V30 6459 H 621.361 -1.15599 1.68692 0
M  V30 6460 H 619.516 -3.62014 1.3793 0
M  V30 6461 H 619.93 -3.83045 3.58297 0
M  V30 6462 H 621.404 -5.00119 2.33633 0
M  V30 6463 H 621.881 -4.3218 0.782099 0
M  V30 6464 H 622.487 -3.58741 2.2844 0
M  V30 6465 N 620.802 -1.09834 -1.13024 0
M  V30 6466 C 621.765 -0.745058 -2.16752 0
M  V30 6467 C 622.765 0.227435 -1.59183 0
M  V30 6468 O 623.955 0.0050786 -1.74199 0
M  V30 6469 C 621.087 -0.102543 -3.40746 0
M  V30 6470 H 622.28 -1.66375 -2.49518 0
M  V30 6471 H 619.833 -0.898061 -1.27924 0
M  V30 6472 H 620.568 0.827177 -3.13573 0
M  V30 6473 H 620.353 -0.80235 -3.83803 0
M  V30 6474 H 621.843 0.129082 -4.174 0
M  V30 6475 N 622.28 1.30327 -0.886154 0
M  V30 6476 C 623.528 1.9571 -0.504195 0
M  V30 6477 C 623.849 1.70294 0.950003 0
M  V30 6478 O 623.119 1.02718 1.66811 0
M  V30 6479 H 621.699 0.72412 -0.183465 0
M  V30 6480 H 624.361 1.58835 -1.12949 0
M  V30 6481 H 623.457 3.04704 -0.675431 0
M  V30 6482 N 623.758 0.647228 1.43697 0
M  V30 6483 C 624.705 -0.0480092 2.3075 0
M  V30 6484 C 625.675 -0.820705 1.44408 0
M  V30 6485 O 626.86 -0.798515 1.73287 0
M  V30 6486 C 624 -1.01259 3.2991 0
M  V30 6487 C 623.113 -0.236629 4.31351 0
M  V30 6488 C 622.248 -1.19447 5.17596 0
M  V30 6489 C 621.287 -0.408595 6.10735 0
M  V30 6490 N 620.424 -1.31772 6.89623 0
M  V30 6491 H 625.264 0.700238 2.89656 0
M  V30 6492 H 622.801 0.357082 1.427 0
M  V30 6493 H 624.759 -1.58538 3.85903 0
M  V30 6494 H 623.389 -1.72778 2.72667 0
M  V30 6495 H 622.441 0.452353 3.77701 0
M  V30 6496 H 623.753 0.374731 4.9739 0
M  V30 6497 H 622.907 -1.83809 5.78186 0
M  V30 6498 H 621.646 -1.83975 4.51669 0
M  V30 6499 H 620.651 0.24841 5.49239 0
M  V30 6500 H 621.876 0.232188 6.78703 0
M  V30 6501 H 619.822 -1.94991 6.2635 0
M  V30 6502 H 619.739 -0.760779 7.52162 0
M  V30 6503 H 621.007 -1.94967 7.54724 0
M  V30 6504 N 625.236 -1.5273 0.388769 0
M  V30 6505 C 626.476 -2.03483 -0.193372 0
M  V30 6506 C 626.84 -1.26897 -1.44087 0
M  V30 6507 O 628.041 -1.67773 -2.10014 0
M  V30 6508 C 626.312 -3.54488 -0.455325 0
M  V30 6509 S 627.871 -4.27069 -1.00783 0
M  V30 6510 H 624.689 -0.708907 -0.0545131 0
M  V30 6511 H 627.291 -1.8798 0.536993 0
M  V30 6512 H 625.995 -4.07817 0.459722 0
M  V30 6513 H 625.526 -3.74196 -1.21413 0
M  V30 6514 H 627.541 -4.40185 -2.29023 0
M  V30 6515 N 626.714 -0.118576 -1.57153 0
M  V30 6516 C 627.962 0.538461 -1.94795 0
M  V30 6517 C 628.283 1.67243 -1.00274 0
M  V30 6518 O 627.553 1.95811 -0.0589692 0
M  V30 6519 H 626.133 0.201904 -0.719197 0
M  V30 6520 H 628.795 -0.187418 -1.93997 0
M  V30 6521 H 627.891 0.933315 -2.97818 0
M  V30 6522 N 628.193 1.56834 0.155195 0
M  V30 6523 C 629.123 2.00678 1.19376 0
M  V30 6524 C 630.104 0.884973 1.45266 0
M  V30 6525 O 631.289 1.1522 1.56326 0
M  V30 6526 C 628.419 2.38042 2.5289 0
M  V30 6527 C 627.373 3.53332 2.41538 0
M  V30 6528 C 626.699 3.76485 3.79688 0
M  V30 6529 C 627.999 4.86265 1.9064 0
M  V30 6530 H 629.693 2.87688 0.829232 0
M  V30 6531 H 627.239 1.38407 0.397445 0
M  V30 6532 H 629.192 2.67314 3.25763 0
M  V30 6533 H 627.916 1.4796 2.91162 0
M  V30 6534 H 626.575 3.24213 1.71117 0
M  V30 6535 H 626.223 2.83667 4.15382 0
M  V30 6536 H 625.923 4.54068 3.72956 0
M  V30 6537 H 627.447 4.08174 4.54122 0
M  V30 6538 H 628.861 5.14308 2.53299 0
M  V30 6539 H 627.258 5.67597 1.94818 0
M  V30 6540 H 628.328 4.77184 0.861596 0
M  V30 6541 N 629.671 -0.424282 1.51781 0
M  V30 6542 C 630.917 -1.17434 1.6534 0
M  V30 6543 C 631.25 -1.90549 0.374806 0
M  V30 6544 O 630.525 -1.84145 -0.626179 0
M  V30 6545 C 630.808 -2.18093 2.86544 0
M  V30 6546 C 630.661 -1.48975 4.24413 0
M  V30 6547 C 631.98 -3.18934 3.03264 0
M  V30 6548 H 629.099 -0.425566 0.601716 0
M  V30 6549 H 631.741 -0.461921 1.84299 0
M  V30 6550 H 629.891 -2.78849 2.7051 0
M  V30 6551 H 631.563 -0.914551 4.52143 0
M  V30 6552 H 629.806 -0.791893 4.26511 0
M  V30 6553 H 630.477 -2.22347 5.05238 0
M  V30 6554 H 632.953 -2.68243 3.18096 0
M  V30 6555 H 631.829 -3.86645 3.89611 0
M  V30 6556 H 632.09 -3.85793 2.15908 0
M  V30 6557 N 631.149 -1.42148 -0.680565 0
M  V30 6558 C 632.56 -1.3768 -1.26099 0
M  V30 6559 C 632.911 -0.0672348 -1.96085 0
M  V30 6560 O 632.036 0.834172 -1.99676 0
M  V30 6561 C 632.631 -2.49387 -2.29328 0
M  V30 6562 C 631.19 -2.4827 -2.82911 0
M  V30 6563 C 630.337 -2.2847 -1.57152 0
M  V30 6564 H 633.288 -1.51446 -0.474326 0
M  V30 6565 H 633.309 -2.19307 -3.10941 0
M  V30 6566 H 632.821 -3.44686 -1.78363 0
M  V30 6567 H 630.922 -1.56773 -3.38013 0
M  V30 6568 H 631.035 -3.45109 -3.3232 0
M  V30 6569 H 629.399 -1.76623 -1.83511 0
M  V30 6570 H 630.182 -3.25816 -1.0816 0
M  V30 6571 N 632.627 0.916307 -1.28225 0
M  V30 6572 C 633.873 1.66765 -1.154 0
M  V30 6573 C 634.206 1.91912 0.297251 0
M  V30 6574 O 633.481 1.51766 1.21644 0
M  V30 6575 C 633.764 3.02715 -1.95028 0
M  V30 6576 C 633.617 2.84738 -3.48201 0
M  V30 6577 C 634.936 4.03215 -1.76369 0
M  V30 6578 H 632.055 0.605205 -0.42059 0
M  V30 6579 H 634.697 1.06255 -1.57512 0
M  V30 6580 H 632.847 3.54365 -1.59242 0
M  V30 6581 H 634.519 2.40118 -3.9388 0
M  V30 6582 H 632.762 2.19848 -3.73964 0
M  V30 6583 H 633.433 3.8127 -3.99171 0
M  V30 6584 H 635.909 3.60617 -2.07593 0
M  V30 6585 H 634.785 4.96306 -2.34459 0
M  V30 6586 H 635.046 4.36288 -0.71452 0
M  V30 6587 N 634.105 1.10431 1.1244 0
M  V30 6588 C 635.035 0.775143 2.20258 0
M  V30 6589 C 636.016 -0.25186 1.68225 0
M  V30 6590 O 637.201 -0.117637 1.93843 0
M  V30 6591 C 634.331 0.206133 3.46688 0
M  V30 6592 C 633.285 1.16382 4.11873 0
M  V30 6593 C 632.611 0.456014 5.32752 0
M  V30 6594 C 633.911 2.5104 4.58013 0
M  V30 6595 H 635.605 1.67665 2.4805 0
M  V30 6596 H 633.151 0.807595 1.19222 0
M  V30 6597 H 635.104 -0.036291 4.21384 0
M  V30 6598 H 633.828 -0.730614 3.18323 0
M  V30 6599 H 632.487 1.39169 3.39157 0
M  V30 6600 H 632.135 -0.485203 5.00654 0
M  V30 6601 H 631.835 1.09466 5.77314 0
M  V30 6602 H 633.359 0.222135 6.10196 0
M  V30 6603 H 634.773 2.32401 5.24083 0
M  V30 6604 H 633.17 3.10789 5.13352 0
M  V30 6605 H 634.24 3.11039 3.71998 0
M  V30 6606 N 635.583 -1.29855 0.893053 0
M  V30 6607 C 636.546 -2.26183 0.370687 0
M  V30 6608 C 637.546 -1.53108 -0.491385 0
M  V30 6609 O 638.736 -1.71643 -0.297386 0
M  V30 6610 C 635.868 -3.37633 -0.470827 0
M  V30 6611 H 637.061 -2.73903 1.22135 0
M  V30 6612 H 634.614 -1.41183 0.67061 0
M  V30 6613 H 635.349 -2.95241 -1.34175 0
M  V30 6614 H 635.134 -3.91825 0.146784 0
M  V30 6615 H 636.624 -4.09313 -0.827825 0
M  V30 6616 N 637.061 -0.65484 -1.43351 0
M  V30 6617 C 637.971 0.0363603 -2.34572 0
M  V30 6618 C 638.987 0.810432 -1.53974 0
M  V30 6619 O 640.163 0.757308 -1.86619 0
M  V30 6620 C 637.228 0.989733 -3.32273 0
M  V30 6621 C 636.289 0.212414 -4.28774 0
M  V30 6622 C 635.522 1.12038 -5.21808 0
M  V30 6623 O 635.745 2.35967 -5.19303 0
M  V30 6624 O 634.679 0.59191 -5.98982 0
M  V30 6625 H 638.505 -0.714527 -2.95175 0
M  V30 6626 H 636.09 -0.415029 -1.4352 0
M  V30 6627 H 637.972 1.53759 -3.92347 0
M  V30 6628 H 636.647 1.72082 -2.74171 0
M  V30 6629 H 635.554 -0.379062 -3.72175 0
M  V30 6630 H 636.887 -0.479138 -4.89862 0
M  V30 6631 N 638.539 1.52521 -0.396863 0
M  V30 6632 C 639.487 2.28217 0.44943 0
M  V30 6633 C 640.481 1.32416 1.05652 0
M  V30 6634 O 641.687 1.49925 0.996124 0
M  V30 6635 H 638.062 0.733966 0.1637 0
M  V30 6636 H 640.033 2.97658 -0.210367 0
M  V30 6637 C 638.782 3.10713 1.56054 0
M  V30 6638 H 638.105 3.84291 1.10273 0
M  V30 6639 H 639.545 3.66803 2.12677 0
M  V30 6640 C 638.004 2.23499 2.52091 0
M  V30 6641 O 638.534 1.8669 3.55682 0
M  V30 6642 N 636.74 1.8751 2.2201 0
M  V30 6643 H 636.287 2.17643 1.37802 0
M  V30 6644 H 636.245 1.29448 2.86514 0
M  V30 6645 N 640.017 0.126909 1.57088 0
M  V30 6646 C 641.247 -0.535892 1.99529 0
M  V30 6647 C 641.655 -1.60259 1.00566 0
M  V30 6648 O 640.998 -1.83698 -0.00843269 0
M  V30 6649 C 641.06 -1.21374 3.38391 0
M  V30 6650 C 640.724 -0.294044 4.56053 0
M  V30 6651 C 641.721 0.470454 5.17767 0
M  V30 6652 C 639.406 -0.202808 5.0189 0
M  V30 6653 C 641.4 1.31384 6.23712 0
M  V30 6654 C 639.087 0.644203 6.07695 0
M  V30 6655 C 640.085 1.40115 6.68473 0
M  V30 6656 O 639.773 2.23408 7.72233 0
M  V30 6657 H 639.505 -0.145799 0.66009 0
M  V30 6658 H 642.059 0.212441 2.04298 0
M  V30 6659 H 640.289 -2.00931 3.30399 0
M  V30 6660 H 641.978 -1.77424 3.65069 0
M  V30 6661 H 642.744 0.409884 4.83265 0
M  V30 6662 H 638.623 -0.781688 4.54324 0
M  V30 6663 H 642.167 1.90514 6.71081 0
M  V30 6664 H 638.064 0.706137 6.41626 0
M  V30 6665 H 638.832 2.16436 7.89365 0
M  V30 6666 N 641.495 -1.56914 -0.146875 0
M  V30 6667 C 642.442 -1.98275 -1.18134 0
M  V30 6668 C 643.412 -0.850367 -1.42681 0
M  V30 6669 O 644.597 -1.11244 -1.55014 0
M  V30 6670 C 641.737 -2.36861 -2.5098 0
M  V30 6671 C 640.85 -3.63391 -2.33605 0
M  V30 6672 C 639.985 -3.91079 -3.59486 0
M  V30 6673 C 639.024 -5.10879 -3.37149 0
M  V30 6674 N 638.161 -5.34577 -4.55161 0
M  V30 6675 H 643.001 -2.8645 -0.821622 0
M  V30 6676 H 640.538 -1.41718 -0.394248 0
M  V30 6677 H 642.496 -2.57262 -3.28439 0
M  V30 6678 H 641.126 -1.51766 -2.84898 0
M  V30 6679 H 640.178 -3.50766 -1.47199 0
M  V30 6680 H 641.49 -4.51007 -2.13059 0
M  V30 6681 H 640.644 -4.11979 -4.45374 0
M  V30 6682 H 639.383 -3.01885 -3.83036 0
M  V30 6683 H 638.388 -4.89853 -2.49649 0
M  V30 6684 H 639.613 -6.01626 -3.14997 0
M  V30 6685 H 637.559 -4.48337 -4.78884 0
M  V30 6686 H 637.476 -6.16463 -4.37618 0
M  V30 6687 H 638.744 -5.59975 -5.42263 0
M  V30 6688 N 642.974 0.416227 -1.52004 0
M  V30 6689 C 644.199 1.19029 -1.69843 0
M  V30 6690 C 644.624 1.83708 -0.404103 0
M  V30 6691 O 643.982 1.69711 0.637787 0
M  V30 6692 C 644.03 2.23439 -2.83032 0
M  V30 6693 O 643.134 3.29419 -2.48106 0
M  V30 6694 H 642.475 0.347785 -0.565634 0
M  V30 6695 H 645.005 0.488871 -1.98674 0
M  V30 6696 H 645.015 2.67884 -3.07737 0
M  V30 6697 H 643.69 1.75745 -3.76944 0
M  V30 6698 H 642.267 2.90303 -2.34048 0
M  V30 6699 N 644.452 1.42507 0.673017 0
M  V30 6700 C 645.384 1.42074 1.79854 0
M  V30 6701 C 646.397 0.319569 1.59633 0
M  V30 6702 O 647.586 0.582769 1.68719 0
M  V30 6703 C 644.686 1.19886 3.16987 0
M  V30 6704 C 643.859 2.42471 3.64042 0
M  V30 6705 C 642.918 2.15802 4.79913 0
M  V30 6706 O 641.944 2.89015 4.90366 0
M  V30 6707 N 643.146 1.16225 5.68746 0
M  V30 6708 H 645.911 2.3909 1.8071 0
M  V30 6709 H 643.472 1.37409 0.856171 0
M  V30 6710 H 645.464 0.999591 3.92161 0
M  V30 6711 H 644.034 0.313879 3.1102 0
M  V30 6712 H 643.254 2.77954 2.79526 0
M  V30 6713 H 644.542 3.24097 3.92223 0
M  V30 6714 H 643.94 0.556756 5.62954 0
M  V30 6715 H 642.497 1.02285 6.43724 0
M  V30 6716 N 645.93 -0.909495 1.28709 0
M  V30 6717 C 646.862 -2.01729 1.08804 0
M  V30 6718 C 647.875 -1.62755 0.0384739 0
M  V30 6719 O 649.064 -1.76259 0.281977 0
M  V30 6720 C 646.164 -3.32952 0.63217 0
M  V30 6721 C 645.337 -4.00512 1.75809 0
M  V30 6722 C 644.396 -5.10019 1.29488 0
M  V30 6723 O 643.422 -5.32986 1.99787 0
M  V30 6724 N 644.624 -5.80278 0.1604 0
M  V30 6725 H 647.389 -2.19362 2.04207 0
M  V30 6726 H 644.95 -1.08106 1.20518 0
M  V30 6727 H 646.942 -4.03543 0.305802 0
M  V30 6728 H 645.512 -3.11759 -0.229134 0
M  V30 6729 H 644.732 -3.23413 2.25383 0
M  V30 6730 H 646.02 -4.42395 2.51325 0
M  V30 6731 H 645.418 -5.64094 -0.425937 0
M  V30 6732 H 643.975 -6.51713 -0.106663 0
M  V30 6733 N 647.408 -1.11026 -1.11852 0
M  V30 6734 C 648.633 -0.879064 -1.87849 0
M  V30 6735 C 649.058 0.565406 -1.79401 0
M  V30 6736 O 648.416 1.39886 -1.15333 0
M  V30 6737 C 648.464 -1.33985 -3.34784 0
M  V30 6738 O 647.568 -0.508803 -4.09249 0
M  V30 6739 H 646.909 -0.316992 -0.583448 0
M  V30 6740 H 649.439 -1.47863 -1.41413 0
M  V30 6741 H 649.449 -1.33248 -3.85628 0
M  V30 6742 H 648.124 -2.39172 -3.40249 0
M  V30 6743 H 646.701 -0.581913 -3.68332 0
M  V30 6744 N 648.886 1.2938 -0.899927 0
M  V30 6745 C 650.111 2.00228 -0.540692 0
M  V30 6746 C 650.536 1.66909 0.867359 0
M  V30 6747 O 649.894 0.893824 1.57735 0
M  V30 6748 C 649.942 3.52921 -0.740232 0
M  V30 6749 O 649.046 4.11879 0.207154 0
M  V30 6750 H 648.387 0.629505 -0.211233 0
M  V30 6751 H 650.917 1.6487 -1.21158 0
M  V30 6752 H 650.927 4.0287 -0.644973 0
M  V30 6753 H 649.602 3.76508 -1.76677 0
M  V30 6754 H 648.179 3.72845 0.0643315 0
M  V30 6755 N 650.364 0.662433 1.43002 0
M  V30 6756 C 651.641 0.109096 1.95296 0
M  V30 6757 C 652.021 -1.37313 1.60338 0
M  V30 6758 O 651.369 -2.1032 0.893187 0
M  V30 6759 C 651.579 0.365096 3.47085 0
M  V30 6760 C 652.927 0.274964 4.23709 0
M  V30 6761 O 653.951 0.29816 3.5495 0
M  V30 6762 O 652.81 0.206549 5.4611 0
M  V30 6763 H 649.904 -0.00429724 0.826989 0
M  V30 6764 H 652.45 0.736308 1.52894 0
M  V30 6765 H 651.222 1.39237 3.65689 0
M  V30 6766 H 650.845 -0.294733 3.96506 0
M  V30 6767 N 651.842 -1.52309 0.404946 0
M  V30 6768 C 653.253 -1.86585 -0.0655926 0
M  V30 6769 C 653.604 -1.3239 -1.44801 0
M  V30 6770 O 652.729 -0.6615 -2.06042 0
M  V30 6771 C 653.324 -3.38566 -0.125801 0
M  V30 6772 C 651.883 -3.72497 -0.540666 0
M  V30 6773 C 651.03 -2.75806 0.287487 0
M  V30 6774 H 653.981 -1.45995 0.622185 0
M  V30 6775 H 654.002 -3.68658 -0.941888 0
M  V30 6776 H 653.514 -3.77981 0.880473 0
M  V30 6777 H 651.615 -3.38659 -1.55373 0
M  V30 6778 H 651.728 -4.78234 -0.287956 0
M  V30 6779 H 650.092 -2.53474 -0.249561 0
M  V30 6780 H 650.875 -3.18059 1.29203 0
M  V30 6781 N 653.32 -0.135238 -1.57019 0
M  V30 6782 C 654.597 0.563227 -1.87316 0
M  V30 6783 C 654.977 1.83749 -1.03921 0
M  V30 6784 O 654.325 2.2817 -0.122675 0
M  V30 6785 C 654.535 0.840031 -3.3874 0
M  V30 6786 C 655.883 1.18598 -4.077 0
M  V30 6787 O 656.907 0.92977 -3.43851 0
M  V30 6788 O 655.766 1.66758 -5.20436 0
M  V30 6789 H 652.86 0.285971 -0.775983 0
M  V30 6790 H 655.406 -0.170965 -1.68837 0
M  V30 6791 H 654.178 -0.0622785 -3.9125 0
M  V30 6792 H 653.801 1.62882 -3.62706 0
M  V30 6793 N 654.798 1.5699 0.138552 0
M  V30 6794 C 656.209 1.73171 0.697754 0
M  V30 6795 C 656.56 0.750952 1.8126 0
M  V30 6796 O 655.685 -0.080549 2.1625 0
M  V30 6797 C 656.28 3.13996 1.27248 0
M  V30 6798 C 654.839 3.3175 1.77816 0
M  V30 6799 C 653.986 2.69084 0.669991 0
M  V30 6800 H 656.937 1.5846 -0.0871979 0
M  V30 6801 H 656.958 3.14463 2.14227 0
M  V30 6802 H 656.47 3.85354 0.460855 0
M  V30 6803 H 654.571 2.65403 2.61519 0
M  V30 6804 H 654.684 4.39768 1.90107 0
M  V30 6805 H 653.048 2.29782 1.09874 0
M  V30 6806 H 653.831 3.43053 -0.130329 0
M  V30 6807 N 656.276 -0.40816 1.52223 0
M  V30 6808 C 657.224 -1.51788 1.76248 0
M  V30 6809 C 658.218 -1.57264 0.629638 0
M  V30 6810 O 659.424 -1.60659 0.811704 0
M  V30 6811 H 655.799 -0.504823 0.557367 0
M  V30 6812 H 657.77 -1.2871 2.69214 0
M  V30 6813 C 656.519 -2.89145 1.93107 0
M  V30 6814 H 655.842 -2.85674 2.79697 0
M  V30 6815 H 657.282 -3.66082 2.13916 0
M  V30 6816 C 655.741 -3.29581 0.698431 0
M  V30 6817 O 656.271 -4.01479 -0.133238 0
M  V30 6818 N 654.477 -2.85651 0.53405 0
M  V30 6819 H 654.024 -2.2731 1.21194 0
M  V30 6820 H 653.982 -3.13065 -0.289387 0
M  V30 6821 N 657.755 -1.42862 -0.66545 0
M  V30 6822 C 658.995 -1.45323 -1.43738 0
M  V30 6823 C 659.359 -0.0707969 -1.91869 0
M  V30 6824 O 660.56 0.0298852 -2.68783 0
M  V30 6825 C 658.831 -2.45671 -2.59577 0
M  V30 6826 S 660.39 -2.6691 -3.48288 0
M  V30 6827 H 657.208 -0.51442 -0.490809 0
M  V30 6828 H 659.81 -1.79537 -0.773745 0
M  V30 6829 H 658.514 -3.44869 -2.22471 0
M  V30 6830 H 658.045 -2.12914 -3.30804 0
M  V30 6831 H 660.06 -1.95914 -4.55886 0
M  V30 6832 N 659.233 0.902656 -1.29189 0
M  V30 6833 C 660.479 1.65532 -1.17163 0
M  V30 6834 C 660.812 1.92216 0.276879 0
M  V30 6835 O 660.087 1.53048 1.20027 0
M  V30 6836 C 660.37 3.00629 -1.98228 0
M  V30 6837 C 660.223 2.81029 -3.51202 0
M  V30 6838 C 661.542 4.01321 -1.80635 0
M  V30 6839 H 658.661 0.60071 -0.426985 0
M  V30 6840 H 661.303 1.04578 -1.5863 0
M  V30 6841 H 659.453 3.52656 -1.62991 0
M  V30 6842 H 661.125 2.35927 -3.96404 0
M  V30 6843 H 659.368 2.1587 -3.76275 0
M  V30 6844 H 660.039 3.77014 -4.03192 0
M  V30 6845 H 662.515 3.58394 -2.11406 0
M  V30 6846 H 661.391 4.93792 -2.3971 0
M  V30 6847 H 661.652 4.35505 -0.760754 0
M  V30 6848 N 660.711 1.11618 1.11262 0
M  V30 6849 C 661.988 0.777876 1.79467 0
M  V30 6850 C 662.368 -0.733774 1.97937 0
M  V30 6851 O 661.716 -1.66443 1.56554 0
M  V30 6852 C 661.926 1.5431 3.13032 0
M  V30 6853 C 663.274 1.72357 3.88044 0
M  V30 6854 O 664.298 1.5075 3.22727 0
M  V30 6855 O 663.157 2.08276 5.05256 0
M  V30 6856 H 660.251 0.282018 0.777428 0
M  V30 6857 H 662.797 1.21971 1.17988 0
M  V30 6858 H 661.569 2.57132 2.94956 0
M  V30 6859 H 661.192 1.09495 3.82226 0
M  V30 6860 N 662.189 -1.289 0.906776 0
M  V30 6861 C 663.605 -1.47733 0.603902 0
M  V30 6862 C 663.805 -1.82568 -0.852702 0
M  V30 6863 O 662.861 -1.92642 -1.63234 0
M  V30 6864 C 664.174 -2.58522 1.53581 0
M  V30 6865 C 665.722 -2.72394 1.54177 0
M  V30 6866 C 666.197 -3.86318 2.46013 0
M  V30 6867 N 667.688 -3.93661 2.441 0
M  V30 6868 C 668.423 -4.81177 3.11859 0
M  V30 6869 N 667.919 -5.73333 3.88923 0
M  V30 6870 N 669.712 -4.74728 3.00981 0
M  V30 6871 H 661.863 -1.04567 1.84877 0
M  V30 6872 H 664.126 -0.520118 0.792579 0
M  V30 6873 H 663.832 -2.39667 2.57396 0
M  V30 6874 H 663.706 -3.55475 1.26165 0
M  V30 6875 H 666.093 -2.90641 0.511034 0
M  V30 6876 H 666.174 -1.75993 1.85634 0
M  V30 6877 H 665.818 -3.68826 3.49185 0
M  V30 6878 H 665.748 -4.82102 2.11862 0
M  V30 6879 H 668.239 -3.27751 1.88115 0
M  V30 6880 H 668.552 -6.36923 4.37663 0
M  V30 6881 H 666.897 -5.73196 3.93029 0
M  V30 6882 H 670.088 -4.01722 2.40286 0
M  V30 6883 H 670.261 -5.42719 3.54062 0
M  V30 6884 N 663.667 -0.670007 -1.42649 0
M  V30 6885 C 665.078 -0.268118 -1.84765 0
M  V30 6886 C 665.429 1.18877 -1.56086 0
M  V30 6887 O 664.554 1.90947 -1.01825 0
M  V30 6888 C 665.149 -0.47984 -3.35385 0
M  V30 6889 C 663.708 -0.132116 -3.76168 0
M  V30 6890 C 662.855 -0.774611 -2.66261 0
M  V30 6891 H 665.806 -0.872509 -1.32563 0
M  V30 6892 H 665.827 0.269522 -3.79544 0
M  V30 6893 H 665.339 -1.54026 -3.56227 0
M  V30 6894 H 663.44 0.92505 -3.60934 0
M  V30 6895 H 663.553 -0.569294 -4.75706 0
M  V30 6896 H 661.917 -0.206353 -2.53863 0
M  V30 6897 H 662.7 -1.83839 -2.89928 0
M  V30 6898 N 665.145 1.52092 -0.413018 0
M  V30 6899 C 666.391 2.02154 0.161737 0
M  V30 6900 C 666.724 1.29789 1.44459 0
M  V30 6901 O 665.999 0.405378 1.90229 0
M  V30 6902 C 666.282 3.5781 0.405463 0
M  V30 6903 C 666.135 4.40819 -0.894335 0
M  V30 6904 C 667.454 4.23821 1.18591 0
M  V30 6905 H 664.573 0.734769 0.0573077 0
M  V30 6906 H 667.215 1.81948 -0.547247 0
M  V30 6907 H 665.365 3.75158 1.0094 0
M  V30 6908 H 667.037 4.35175 -1.53039 0
M  V30 6909 H 665.28 4.06877 -1.50444 0
M  V30 6910 H 665.951 5.47819 -0.678144 0
M  V30 6911 H 668.427 4.10596 0.674573 0
M  V30 6912 H 667.303 5.32663 1.3252 0
M  V30 6913 H 667.564 3.83038 2.20758 0
M  V30 6914 N 666.623 0.143563 1.56945 0
M  V30 6915 C 667.533 -0.810562 2.20152 0
M  V30 6916 C 668.549 -1.27431 1.1848 0
M  V30 6917 O 669.725 -1.33221 1.51044 0
M  V30 6918 C 666.79 -2.03353 2.80799 0
M  V30 6919 C 665.851 -1.61936 3.97587 0
M  V30 6920 C 665.084 -2.78403 4.55332 0
M  V30 6921 O 665.307 -3.94521 4.11958 0
M  V30 6922 O 664.241 -2.54073 5.45647 0
M  V30 6923 H 668.067 -0.30253 3.02189 0
M  V30 6924 H 665.652 -0.0832925 1.49168 0
M  V30 6925 H 667.534 -2.74932 3.19359 0
M  V30 6926 H 666.209 -2.53116 2.01777 0
M  V30 6927 H 665.116 -0.873904 3.6375 0
M  V30 6928 H 666.449 -1.16892 4.78118 0
M  V30 6929 N 668.101 -1.57061 -0.130224 0
M  V30 6930 C 669.349 -1.83893 -0.838313 0
M  V30 6931 C 669.67 -0.727046 -1.80939 0
M  V30 6932 O 668.94 0.249927 -1.94299 0
M  V30 6933 H 667.52 -0.67846 -0.312573 0
M  V30 6934 H 670.182 -1.94529 -0.120224 0
M  V30 6935 H 669.278 -2.79419 -1.39038 0
M  V30 6936 N 669.579 0.400081 -1.52437 0
M  V30 6937 C 670.809 1.16598 -1.70553 0
M  V30 6938 C 671.217 1.8451 -0.418665 0
M  V30 6939 O 670.56 1.73069 0.615855 0
M  V30 6940 C 670.622 2.26517 -2.7916 0
M  V30 6941 C 670.286 1.78666 -4.20628 0
M  V30 6942 C 671.283 1.26946 -5.04163 0
M  V30 6943 C 668.968 1.85225 -4.66902 0
M  V30 6944 C 670.962 0.824187 -6.32049 0
M  V30 6945 C 668.649 1.40309 -5.94774 0
M  V30 6946 C 669.647 0.889922 -6.77178 0
M  V30 6947 O 669.335 0.447281 -8.02655 0
M  V30 6948 H 669.067 0.356023 -0.574651 0
M  V30 6949 H 671.621 0.475598 -1.99818 0
M  V30 6950 H 669.851 2.98946 -2.45292 0
M  V30 6951 H 671.54 2.88237 -2.85787 0
M  V30 6952 H 672.306 1.21244 -4.69601 0
M  V30 6953 H 668.185 2.24111 -4.02859 0
M  V30 6954 H 671.729 0.422958 -6.96317 0
M  V30 6955 H 667.626 1.45693 -6.28843 0
M  V30 6956 H 668.394 0.569768 -8.16514 0
M  V30 6957 N 671.057 1.43213 0.657864 0
M  V30 6958 C 671.987 1.50815 1.78262 0
M  V30 6959 C 672.968 0.363211 1.66177 0
M  V30 6960 O 674.153 0.579806 1.85343 0
M  V30 6961 C 671.283 1.42625 3.16663 0
M  V30 6962 C 670.237 2.5532 3.43505 0
M  V30 6963 C 669.563 2.32184 4.81658 0
M  V30 6964 C 670.863 3.97583 3.38711 0
M  V30 6965 H 672.557 2.44954 1.72157 0
M  V30 6966 H 670.103 1.17896 0.82683 0
M  V30 6967 H 672.056 1.46548 3.95097 0
M  V30 6968 H 670.78 0.449877 3.23487 0
M  V30 6969 H 669.439 2.50742 2.6744 0
M  V30 6970 H 669.087 1.32801 4.85153 0
M  V30 6971 H 668.787 3.07724 5.00579 0
M  V30 6972 H 670.311 2.37883 5.62356 0
M  V30 6973 H 671.725 4.03673 4.07089 0
M  V30 6974 H 670.122 4.73112 3.69168 0
M  V30 6975 H 671.192 4.23049 2.36976 0
M  V30 6976 N 672.536 -0.895792 1.29666 0
M  V30 6977 C 673.499 -1.98189 1.15124 0
M  V30 6978 C 674.499 -1.60572 0.0855717 0
M  V30 6979 O 675.689 -1.70991 0.332826 0
M  V30 6980 C 672.821 -3.32289 0.761372 0
M  V30 6981 H 674.014 -2.12518 2.11603 0
M  V30 6982 H 671.567 -1.0808 1.12908 0
M  V30 6983 H 672.302 -3.23662 -0.203393 0
M  V30 6984 H 672.087 -3.60958 1.53139 0
M  V30 6985 H 673.577 -4.1198 0.682792 0
M  V30 6986 N 674.014 -1.12206 -1.10668 0
M  V30 6987 C 675.26 -0.877172 -1.82848 0
M  V30 6988 C 675.593 0.595571 -1.84842 0
M  V30 6989 O 674.868 1.44013 -1.30731 0
M  V30 6990 C 675.151 -1.44957 -3.29635 0
M  V30 6991 C 675.004 -2.99051 -3.35989 0
M  V30 6992 C 676.323 -1.10714 -4.25946 0
M  V30 6993 H 673.442 -0.320103 -0.663854 0
M  V30 6994 H 676.084 -1.38827 -1.2972 0
M  V30 6995 H 674.234 -1.01488 -3.7501 0
M  V30 6996 H 675.906 -3.51182 -2.99113 0
M  V30 6997 H 674.149 -3.34705 -2.75962 0
M  V30 6998 H 674.82 -3.34194 -4.39339 0
M  V30 6999 H 677.296 -1.48254 -3.88793 0
M  V30 7000 H 676.172 -1.5343 -5.2702 0
M  V30 7001 H 676.433 -0.019 -4.42096 0
M  V30 7002 N 675.492 1.28418 -0.913599 0
M  V30 7003 C 676.455 2.25564 -0.406624 0
M  V30 7004 C 677.455 1.5387 0.466965 0
M  V30 7005 O 678.645 1.72094 0.270042 0
M  V30 7006 C 675.777 3.38339 0.417053 0
M  V30 7007 H 676.97 2.71926 -1.26477 0
M  V30 7008 H 674.523 1.40098 -0.692986 0
M  V30 7009 H 675.258 2.97339 1.29461 0
M  V30 7010 H 675.043 3.91542 -0.209102 0
M  V30 7011 H 676.533 4.10578 0.762602 0
M  V30 7012 N 676.97 0.677563 1.42291 0
M  V30 7013 C 678.216 0.201272 2.01799 0
M  V30 7014 C 678.549 -1.19004 1.53465 0
M  V30 7015 O 677.824 -1.79953 0.738039 0
M  V30 7016 C 678.107 0.238968 3.59306 0
M  V30 7017 C 677.96 1.66594 4.17812 0
M  V30 7018 C 679.279 -0.411287 4.38174 0
M  V30 7019 H 676.398 0.0746114 0.733214 0
M  V30 7020 H 679.04 0.862872 1.69276 0
M  V30 7021 H 677.19 -0.324368 3.87144 0
M  V30 7022 H 678.862 2.28173 4.00917 0
M  V30 7023 H 677.105 2.20576 3.73536 0
M  V30 7024 H 677.776 1.64398 5.26951 0
M  V30 7025 H 680.252 0.0682804 4.16044 0
M  V30 7026 H 679.128 -0.354286 5.47755 0
M  V30 7027 H 679.389 -1.4893 4.1626 0
M  V30 7028 N 678.448 -1.51871 0.421078 0
M  V30 7029 C 679.694 -2.02237 -0.151014 0
M  V30 7030 C 680.027 -1.30554 -1.43768 0
M  V30 7031 O 679.302 -0.41546 -1.90011 0
M  V30 7032 C 679.585 -3.5802 -0.386482 0
M  V30 7033 C 679.438 -4.40339 0.9177 0
M  V30 7034 C 680.757 -4.24444 -1.16342 0
M  V30 7035 H 677.876 -0.735062 -0.0534102 0
M  V30 7036 H 680.518 -1.81656 0.556888 0
M  V30 7037 H 678.668 -3.75688 -0.989494 0
M  V30 7038 H 680.34 -4.34357 1.55344 0
M  V30 7039 H 678.583 -4.06073 1.526 0
M  V30 7040 H 679.254 -5.47451 0.707187 0
M  V30 7041 H 681.73 -4.10948 -0.652788 0
M  V30 7042 H 680.606 -5.33358 -1.29693 0
M  V30 7043 H 680.867 -3.84204 -2.18724 0
M  V30 7044 N 679.926 -0.151884 -1.56866 0
M  V30 7045 C 681.342 0.204486 -1.58285 0
M  V30 7046 C 681.542 1.6431 -1.16639 0
M  V30 7047 O 680.598 2.37077 -0.868946 0
M  V30 7048 C 681.911 -0.0587019 -3.00643 0
M  V30 7049 C 683.459 0.00462303 -3.13 0
M  V30 7050 C 683.934 -0.231297 -4.57416 0
M  V30 7051 N 685.425 -0.178394 -4.62856 0
M  V30 7052 C 686.16 -0.335379 -5.72418 0
M  V30 7053 N 685.656 -0.550355 -6.90611 0
M  V30 7054 N 687.449 -0.272641 -5.61438 0
M  V30 7055 H 679.6 -1.09116 -1.82229 0
M  V30 7056 H 681.863 -0.432311 -0.843689 0
M  V30 7057 H 681.569 -1.05453 -3.35518 0
M  V30 7058 H 681.443 0.658508 -3.71407 0
M  V30 7059 H 683.83 0.991009 -2.77962 0
M  V30 7060 H 683.911 -0.744992 -2.44711 0
M  V30 7061 H 683.555 -1.2148 -4.93158 0
M  V30 7062 H 683.485 0.5387 -5.23837 0
M  V30 7063 H 685.976 -0.0170923 -3.77896 0
M  V30 7064 H 686.289 -0.660116 -7.69976 0
M  V30 7065 H 684.634 -0.586736 -6.92519 0
M  V30 7066 H 687.825 -0.105421 -4.67981 0
M  V30 7067 H 687.998 -0.398418 -6.46774 0
M  V30 7068 N 681.404 1.57128 0.121893 0
M  V30 7069 C 682.82 1.52357 0.47534 0
M  V30 7070 C 683.02 0.864417 1.82017 0
M  V30 7071 O 682.076 0.445529 2.48538 0
M  V30 7072 C 683.389 2.97122 0.4625 0
M  V30 7073 C 684.937 3.08196 0.546255 0
M  V30 7074 C 685.412 4.54516 0.563833 0
M  V30 7075 N 686.903 4.58959 0.625353 0
M  V30 7076 C 687.638 5.69585 0.660354 0
M  V30 7077 N 687.134 6.89714 0.653175 0
M  V30 7078 N 688.927 5.57685 0.703143 0
M  V30 7079 H 681.078 1.98364 -0.75931 0
M  V30 7080 H 683.341 0.905777 -0.279772 0
M  V30 7081 H 683.047 3.48706 -0.457943 0
M  V30 7082 H 682.921 3.54406 1.29136 0
M  V30 7083 H 685.308 2.56617 1.45712 0
M  V30 7084 H 685.389 2.53912 -0.310234 0
M  V30 7085 H 685.033 5.06741 -0.342974 0
M  V30 7086 H 684.963 5.06609 1.43716 0
M  V30 7087 H 687.454 3.72489 0.637182 0
M  V30 7088 H 687.767 7.69781 0.682425 0
M  V30 7089 H 686.112 6.92223 0.620646 0
M  V30 7090 H 689.303 4.62744 0.706095 0
M  V30 7091 H 689.476 6.43909 0.726952 0
M  V30 7092 N 682.882 -0.391992 1.52647 0
M  V30 7093 C 684.107 -1.16312 1.71716 0
M  V30 7094 C 684.532 -1.83042 0.433279 0
M  V30 7095 O 683.89 -1.70705 -0.610707 0
M  V30 7096 C 683.938 -2.18908 2.86551 0
M  V30 7097 O 683.042 -3.2543 2.53316 0
M  V30 7098 H 682.383 -0.338743 0.571095 0
M  V30 7099 H 684.913 -0.457202 1.99426 0
M  V30 7100 H 684.923 -2.62954 3.1196 0
M  V30 7101 H 683.598 -1.69726 3.79692 0
M  V30 7102 H 682.175 -2.86543 2.38637 0
M  V30 7103 N 684.36 -1.4356 -0.65026 0
M  V30 7104 C 685.637 -1.35811 -1.40765 0
M  V30 7105 C 686.017 -0.00736379 -2.11099 0
M  V30 7106 O 685.365 1.00932 -2.05 0
M  V30 7107 C 685.575 -2.54332 -2.3899 0
M  V30 7108 C 686.923 -2.97551 -3.02901 0
M  V30 7109 O 687.947 -2.544 -2.49317 0
M  V30 7110 O 686.806 -3.72311 -4.00059 0
M  V30 7111 H 683.9 -0.536861 -0.629054 0
M  V30 7112 H 686.446 -1.55615 -0.676919 0
M  V30 7113 H 685.218 -3.44274 -1.85986 0
M  V30 7114 H 684.841 -2.36643 -3.19509 0
M  V30 7115 N 685.838 0.888903 -1.30139 0
M  V30 7116 C 687.066 1.67358 -1.21651 0
M  V30 7117 C 687.481 1.87499 0.221246 0
M  V30 7118 O 686.838 1.41969 1.14677 0
M  V30 7119 C 686.889 3.05213 -1.93719 0
M  V30 7120 O 686.61 2.85984 -3.31881 0
M  V30 7121 C 688.111 3.9964 -1.9184 0
M  V30 7122 H 685.331 0.522365 -0.42116 0
M  V30 7123 H 687.875 1.11086 -1.71698 0
M  V30 7124 H 686.03 3.5823 -1.4748 0
M  V30 7125 H 686.444 3.73411 -3.68327 0
M  V30 7126 H 687.918 4.93749 -2.46811 0
M  V30 7127 H 688.395 4.29955 -0.896409 0
M  V30 7128 H 689.001 3.52558 -2.37872 0
M  V30 7129 N 687.317 1.12792 1.10072 0
M  V30 7130 C 688.542 0.908838 1.86427 0
M  V30 7131 C 688.967 -0.536793 1.80278 0
M  V30 7132 O 688.325 -1.38033 1.17543 0
M  V30 7133 C 688.373 1.39295 3.3261 0
M  V30 7134 O 687.477 0.573846 4.08388 0
M  V30 7135 H 686.818 0.326234 0.578331 0
M  V30 7136 H 689.348 1.50094 1.39043 0
M  V30 7137 H 689.358 1.39366 3.83459 0
M  V30 7138 H 688.033 2.44555 3.36401 0
M  V30 7139 H 686.61 0.640438 3.67359 0
M  V30 7140 N 688.795 -1.27931 0.920396 0
M  V30 7141 C 689.725 -2.29487 0.431024 0
M  V30 7142 C 690.706 -1.62435 -0.504861 0
M  V30 7143 O 691.891 -1.89797 -0.411176 0
M  V30 7144 C 689.021 -3.45788 -0.323709 0
M  V30 7145 C 687.975 -4.24784 0.523658 0
M  V30 7146 C 687.301 -5.33488 -0.359809 0
M  V30 7147 C 688.601 -4.90874 1.78437 0
M  V30 7148 H 690.295 -2.70671 1.27975 0
M  V30 7149 H 687.841 -1.30121 0.616813 0
M  V30 7150 H 689.794 -4.15927 -0.676952 0
M  V30 7151 H 688.518 -3.03502 -1.2064 0
M  V30 7152 H 687.177 -3.56382 0.85951 0
M  V30 7153 H 686.825 -4.87445 -1.24124 0
M  V30 7154 H 686.525 -5.87247 0.203605 0
M  V30 7155 H 688.049 -6.06472 -0.708787 0
M  V30 7156 H 689.463 -5.53339 1.49963 0
M  V30 7157 H 687.86 -5.54659 2.29071 0
M  V30 7158 H 688.93 -4.14988 2.50824 0
M  V30 7159 N 690.273 -0.685099 -1.4193 0
M  V30 7160 C 691.501 -0.220372 -2.05723 0
M  V30 7161 C 691.916 1.12642 -1.51516 0
M  V30 7162 O 691.273 1.70182 -0.659114 0
M  V30 7163 C 691.324 -0.157974 -3.61155 0
M  V30 7164 O 691.045 -1.45156 -4.13354 0
M  V30 7165 C 692.546 0.329009 -4.42077 0
M  V30 7166 H 689.766 -0.104725 -0.662777 0
M  V30 7167 H 692.31 -0.934736 -1.81887 0
M  V30 7168 H 690.465 0.507144 -3.84066 0
M  V30 7169 H 690.879 -1.33172 -5.07312 0
M  V30 7170 H 692.353 0.321559 -5.51063 0
M  V30 7171 H 692.83 1.36608 -4.17414 0
M  V30 7172 H 693.436 -0.304737 -4.24207 0
M  V30 7173 N 691.751 1.51645 -0.429126 0
M  V30 7174 C 692.997 2.02967 0.132584 0
M  V30 7175 C 693.352 1.30804 1.41096 0
M  V30 7176 O 692.645 0.411705 1.87124 0
M  V30 7177 C 692.839 3.54989 0.414472 0
M  V30 7178 C 692.668 4.41879 -0.83503 0
M  V30 7179 C 691.438 4.86482 -1.36614 0
M  V30 7180 C 693.636 4.84727 -1.71886 0
M  V30 7181 N 691.618 5.5756 -2.56904 0
M  V30 7182 C 692.989 5.54788 -2.76786 0
M  V30 7183 C 695.044 4.66721 -1.73425 0
M  V30 7184 C 693.747 6.08753 -3.8316 0
M  V30 7185 C 695.773 5.21597 -2.7873 0
M  V30 7186 C 695.135 5.91598 -3.8235 0
M  V30 7187 H 691.234 0.781942 0.00956367 0
M  V30 7188 H 693.818 1.8561 -0.587957 0
M  V30 7189 H 691.989 3.72378 1.10405 0
M  V30 7190 H 693.721 3.92982 0.966817 0
M  V30 7191 H 690.476 4.64553 -0.921255 0
M  V30 7192 H 690.9 5.97731 -3.17879 0
M  V30 7193 H 695.542 4.1207 -0.946467 0
M  V30 7194 H 693.26 6.62464 -4.62782 0
M  V30 7195 H 696.846 5.09522 -2.80853 0
M  V30 7196 H 695.726 6.33299 -4.62495 0
M  V30 7197 N 693.229 0.160201 1.56784 0
M  V30 7198 C 694.177 -0.791402 2.18723 0
M  V30 7199 C 695.171 -1.24567 1.14801 0
M  V30 7200 O 696.377 -1.21262 1.33025 0
M  V30 7201 H 692.752 -0.273458 0.700517 0
M  V30 7202 H 694.723 -0.244931 2.97393 0
M  V30 7203 C 693.472 -2.01509 2.83354 0
M  V30 7204 H 692.795 -1.67454 3.63041 0
M  V30 7205 H 694.235 -2.66006 3.30177 0
M  V30 7206 C 692.694 -2.83159 1.82545 0
M  V30 7207 O 693.224 -3.79944 1.30405 0
M  V30 7208 N 691.43 -2.47953 1.51552 0
M  V30 7209 H 690.977 -1.69309 1.94144 0
M  V30 7210 H 690.935 -3.02873 0.843519 0
M  V30 7211 N 694.707 -1.5719 -0.113559 0
M  V30 7212 C 695.932 -1.89702 -0.838336 0
M  V30 7213 C 696.357 -0.752679 -1.72384 0
M  V30 7214 O 695.715 0.296575 -1.78858 0
M  V30 7215 C 695.763 -3.20989 -1.64312 0
M  V30 7216 O 694.867 -3.07278 -2.75053 0
M  V30 7217 H 694.208 -0.622339 -0.231496 0
M  V30 7218 H 696.738 -2.04382 -0.0943228 0
M  V30 7219 H 696.748 -3.53843 -2.03123 0
M  V30 7220 H 695.423 -4.03869 -0.993119 0
M  V30 7221 H 694 -2.85901 -2.39406 0
M  V30 7222 N 696.185 0.383891 -1.52853 0
M  V30 7223 C 697.431 1.13009 -1.68395 0
M  V30 7224 C 697.764 1.89488 -0.425195 0
M  V30 7225 O 697.039 1.8574 0.577136 0
M  V30 7226 C 697.322 2.10419 -2.92226 0
M  V30 7227 C 697.175 1.3767 -4.28214 0
M  V30 7228 C 698.494 3.10781 -3.11614 0
M  V30 7229 H 695.613 0.409463 -0.612788 0
M  V30 7230 H 698.255 0.412895 -1.85459 0
M  V30 7231 H 696.405 2.71579 -2.77808 0
M  V30 7232 H 698.077 0.794352 -4.54409 0
M  V30 7233 H 696.32 0.678533 -4.2846 0
M  V30 7234 H 696.991 2.08874 -5.10956 0
M  V30 7235 H 699.467 2.59715 -3.25096 0
M  V30 7236 H 698.343 3.76179 -3.99725 0
M  V30 7237 H 698.604 3.79933 -2.2606 0
M  V30 7238 N 697.663 1.43903 0.642637 0
M  V30 7239 C 698.61 1.49881 1.75512 0
M  V30 7240 C 699.58 0.347538 1.62423 0
M  V30 7241 O 700.765 0.556177 1.82514 0
M  V30 7242 C 697.905 1.43797 3.13714 0
M  V30 7243 C 697.018 2.6921 3.37861 0
M  V30 7244 C 696.153 2.5504 4.6597 0
M  V30 7245 C 695.192 3.75671 4.83257 0
M  V30 7246 N 694.329 3.60247 6.02633 0
M  V30 7247 H 699.169 2.44935 1.69737 0
M  V30 7248 H 696.706 1.21572 0.828165 0
M  V30 7249 H 698.664 1.38262 3.93624 0
M  V30 7250 H 697.294 0.523173 3.18532 0
M  V30 7251 H 696.346 2.8498 2.51973 0
M  V30 7252 H 697.658 3.58786 3.46517 0
M  V30 7253 H 696.812 2.47273 5.54023 0
M  V30 7254 H 695.551 1.63006 4.59653 0
M  V30 7255 H 694.556 3.83836 3.93637 0
M  V30 7256 H 695.781 4.68728 4.91397 0
M  V30 7257 H 693.727 2.70955 5.97427 0
M  V30 7258 H 693.644 4.43431 6.12295 0
M  V30 7259 H 694.912 3.56351 6.93278 0
M  V30 7260 N 699.141 -0.881989 1.30609 0
M  V30 7261 C 700.389 -1.63082 1.19368 0
M  V30 7262 C 700.71 -1.93376 -0.251147 0
M  V30 7263 O 699.98 -1.5723 -1.16857 0
M  V30 7264 H 698.56 -0.604542 0.438791 0
M  V30 7265 H 701.222 -1.05658 1.63776 0
M  V30 7266 H 700.318 -2.57966 1.7567 0
M  V30 7267 N 700.619 -1.13374 -1.09472 0
M  V30 7268 C 701.566 -0.810682 -2.16094 0
M  V30 7269 C 702.536 0.227003 -1.64541 0
M  V30 7270 O 703.721 0.0993538 -1.90541 0
M  V30 7271 C 700.861 -0.282336 -3.43943 0
M  V30 7272 C 699.974 -1.37902 -4.09398 0
M  V30 7273 C 699.109 -0.809066 -5.25002 0
M  V30 7274 C 698.148 -1.88419 -5.82379 0
M  V30 7275 N 697.285 -1.33221 -6.89345 0
M  V30 7276 H 702.125 -1.72397 -2.43071 0
M  V30 7277 H 699.662 -0.860564 -1.19301 0
M  V30 7278 H 701.62 0.0421189 -4.17179 0
M  V30 7279 H 700.25 0.594083 -3.17286 0
M  V30 7280 H 699.302 -1.82008 -3.34032 0
M  V30 7281 H 700.614 -2.19161 -4.48074 0
M  V30 7282 H 699.768 -0.435867 -6.05132 0
M  V30 7283 H 698.507 0.0346058 -4.87688 0
M  V30 7284 H 697.512 -2.26646 -5.00911 0
M  V30 7285 H 698.737 -2.73125 -6.21755 0
M  V30 7286 H 696.683 -0.510535 -6.5401 0
M  V30 7287 H 696.6 -2.08129 -7.26786 0
M  V30 7288 H 697.868 -0.986565 -7.73232 0
M  V30 7289 N 702.098 1.27442 -0.927168 0
M  V30 7290 C 703.045 2.26863 -0.424459 0
M  V30 7291 C 704.015 1.5813 0.508346 0
M  V30 7292 O 705.2 1.85946 0.42762 0
M  V30 7293 C 702.34 3.43639 0.31718 0
M  V30 7294 C 701.453 4.27087 -0.649675 0
M  V30 7295 C 700.588 5.31082 0.111753 0
M  V30 7296 C 699.627 6.062 -0.847843 0
M  V30 7297 N 698.764 7.01999 -0.119074 0
M  V30 7298 H 703.604 2.69239 -1.27728 0
M  V30 7299 H 701.141 1.32394 -0.641106 0
M  V30 7300 H 703.099 4.10155 0.763486 0
M  V30 7301 H 701.729 3.02217 1.13424 0
M  V30 7302 H 700.781 3.60491 -1.21451 0
M  V30 7303 H 702.093 4.79242 -1.38307 0
M  V30 7304 H 701.247 6.03544 0.618 0
M  V30 7305 H 699.986 4.7973 0.878114 0
M  V30 7306 H 698.991 5.32577 -1.36534 0
M  V30 7307 H 700.216 6.59642 -1.61398 0
M  V30 7308 H 698.162 6.52977 0.629051 0
M  V30 7309 H 698.079 7.5184 -0.792046 0
M  V30 7310 H 699.347 7.78638 0.366537 0
M  V30 7311 N 703.576 0.692616 1.41565 0
M  V30 7312 C 704.801 0.229776 2.06123 0
M  V30 7313 C 705.226 -1.11119 1.5177 0
M  V30 7314 O 704.584 -1.69498 0.643444 0
M  V30 7315 C 704.632 0.19469 3.60074 0
M  V30 7316 O 703.736 -0.831366 4.03933 0
M  V30 7317 H 703.077 0.113002 0.654314 0
M  V30 7318 H 705.607 0.946645 1.81383 0
M  V30 7319 H 705.617 0.0245487 4.07993 0
M  V30 7320 H 704.292 1.17339 3.99004 0
M  V30 7321 H 702.869 -0.630819 3.67526 0
M  V30 7322 N 705.054 -1.51416 0.437162 0
M  V30 7323 C 706.294 -2.03995 -0.128538 0
M  V30 7324 C 706.658 -1.31417 -1.39977 0
M  V30 7325 O 707.859 -1.74369 -2.0457 0
M  V30 7326 C 706.13 -3.55757 -0.342317 0
M  V30 7327 S 707.689 -4.3006 -0.871446 0
M  V30 7328 H 704.507 -0.710283 -0.0319322 0
M  V30 7329 H 707.109 -1.86177 0.596526 0
M  V30 7330 H 705.813 -4.06148 0.589233 0
M  V30 7331 H 705.344 -3.77869 -1.09447 0
M  V30 7332 H 707.359 -4.47248 -2.14903 0
M  V30 7333 N 706.532 -0.168513 -1.56696 0
M  V30 7334 C 707.482 0.7751 -2.14421 0
M  V30 7335 C 708.466 1.19476 -1.07769 0
M  V30 7336 O 709.658 1.15759 -1.33898 0
M  V30 7337 C 706.787 2.00549 -2.7863 0
M  V30 7338 C 705.873 1.60795 -3.92436 0
M  V30 7339 N 706.264 0.919812 -4.97366 0
M  V30 7340 C 704.562 1.89917 -4.03544 0
M  V30 7341 C 705.263 0.724485 -5.77171 0
M  V30 7342 N 704.239 1.26505 -5.28675 0
M  V30 7343 H 708.041 0.240349 -2.92916 0
M  V30 7344 H 705.555 0.0322675 -1.62368 0
M  V30 7345 H 707.552 2.6917 -3.1836 0
M  V30 7346 H 706.212 2.54522 -2.01615 0
M  V30 7347 H 707.223 0.578169 -5.14663 0
M  V30 7348 H 703.9 2.45587 -3.37629 0
M  V30 7349 H 705.29 0.180521 -6.71657 0
M  V30 7350 N 708.01 1.57248 0.105221 0
M  V30 7351 C 709.238 1.89768 0.82437 0
M  V30 7352 C 709.653 0.761192 1.72775 0
M  V30 7353 O 709.01 -0.267342 1.80531 0
M  V30 7354 C 709.061 3.2184 1.64625 0
M  V30 7355 O 708.782 4.31115 0.779217 0
M  V30 7356 C 710.283 3.68155 2.46935 0
M  V30 7357 H 707.503 0.628031 0.236259 0
M  V30 7358 H 710.047 2.04321 0.085485 0
M  V30 7359 H 708.202 3.08915 2.33775 0
M  V30 7360 H 708.616 5.06897 1.34745 0
M  V30 7361 H 710.09 4.6329 3.00111 0
M  V30 7362 H 710.567 2.95492 3.24932 0
M  V30 7363 H 711.173 3.83914 1.83002 0
M  V30 7364 N 709.488 -0.375779 1.53054 0
M  V30 7365 C 710.451 -1.44254 1.7811 0
M  V30 7366 C 711.451 -1.47018 0.651328 0
M  V30 7367 O 712.641 -1.47957 0.919472 0
M  V30 7368 C 709.773 -2.8345 1.89391 0
M  V30 7369 H 710.966 -1.23316 2.73374 0
M  V30 7370 H 708.519 -0.608312 1.43977 0
M  V30 7371 H 709.254 -3.09716 0.961589 0
M  V30 7372 H 709.039 -2.82844 2.71555 0
M  V30 7373 H 710.529 -3.60722 2.10404 0
M  V30 7374 N 710.966 -1.44241 -0.634997 0
M  V30 7375 C 712.212 -1.47038 -1.39669 0
M  V30 7376 C 712.545 -0.101122 -1.93937 0
M  V30 7377 O 711.82 0.880699 -1.73418 0
M  V30 7378 C 712.103 -2.52763 -2.56482 0
M  V30 7379 C 711.956 -3.99032 -2.07589 0
M  V30 7380 C 713.275 -2.55031 -3.58674 0
M  V30 7381 H 710.394 -0.53537 -0.506506 0
M  V30 7382 H 713.036 -1.75898 -0.718317 0
M  V30 7383 H 711.186 -2.28284 -3.14354 0
M  V30 7384 H 712.858 -4.3463 -1.54577 0
M  V30 7385 H 711.101 -4.10994 -1.38804 0
M  V30 7386 H 711.772 -4.68649 -2.91671 0
M  V30 7387 H 714.248 -2.76893 -3.10595 0
M  V30 7388 H 713.124 -3.30916 -4.37934 0
M  V30 7389 H 713.385 -1.59085 -4.12486 0
M  V30 7390 N 712.444 0.87505 -1.31075 0
M  V30 7391 C 713.721 1.60976 -1.11113 0
M  V30 7392 C 714.101 2.08409 0.336006 0
M  V30 7393 O 713.449 1.85858 1.32924 0
M  V30 7394 C 713.659 2.77166 -2.12085 0
M  V30 7395 C 715.007 3.47254 -2.44335 0
M  V30 7396 O 716.031 2.87367 -2.10472 0
M  V30 7397 O 714.89 4.55276 -3.02301 0
M  V30 7398 H 711.984 0.707982 -0.427424 0
M  V30 7399 H 714.53 0.920957 -1.42536 0
M  V30 7400 H 713.302 2.39494 -3.09449 0
M  V30 7401 H 712.925 3.53737 -1.81538 0
M  V30 7402 N 713.922 1.13953 1.08869 0
M  V30 7403 C 715.338 0.878924 1.33218 0
M  V30 7404 C 715.538 -0.482478 1.95638 0
M  V30 7405 O 714.594 -1.22778 2.2064 0
M  V30 7406 C 715.907 2.00798 2.23832 0
M  V30 7407 C 717.455 2.04073 2.37325 0
M  V30 7408 C 717.93 3.16258 3.31278 0
M  V30 7409 N 719.421 3.15805 3.38853 0
M  V30 7410 C 720.156 3.99249 4.11567 0
M  V30 7411 N 719.652 4.92721 4.87029 0
M  V30 7412 N 721.445 3.87327 4.0735 0
M  V30 7413 H 713.596 2.01645 0.66731 0
M  V30 7414 H 715.859 0.878395 0.356547 0
M  V30 7415 H 715.565 2.98986 1.85203 0
M  V30 7416 H 715.439 1.92704 3.24261 0
M  V30 7417 H 717.826 1.06495 2.75214 0
M  V30 7418 H 717.907 2.16239 1.36654 0
M  V30 7419 H 717.551 4.14079 2.9411 0
M  V30 7420 H 717.481 3.0133 4.31866 0
M  V30 7421 H 719.972 2.48102 2.8505 0
M  V30 7422 H 720.285 5.52867 5.39961 0
M  V30 7423 H 718.63 4.96723 4.86098 0
M  V30 7424 H 721.821 3.13627 3.475 0
M  V30 7425 H 721.994 4.52585 4.63757 0
M  V30 7426 N 715.4 -1.26948 0.933913 0
M  V30 7427 C 716.628 -1.98186 0.59414 0
M  V30 7428 C 717.043 -1.69614 -0.829257 0
M  V30 7429 O 716.4 -0.960213 -1.55197 0
M  V30 7430 C 716.451 -3.52123 0.818026 0
M  V30 7431 O 716.172 -3.79698 2.18543 0
M  V30 7432 C 717.673 -4.40608 0.48781 0
M  V30 7433 H 714.893 -0.632305 0.224569 0
M  V30 7434 H 717.437 -1.61646 1.25263 0
M  V30 7435 H 715.592 -3.86851 0.206246 0
M  V30 7436 H 716.006 -4.7426 2.24005 0
M  V30 7437 H 717.48 -5.47606 0.695126 0
M  V30 7438 H 717.957 -4.35394 -0.576913 0
M  V30 7439 H 718.563 -4.11411 1.078 0
M  V30 7440 N 716.879 -0.700114 -1.41195 0
M  V30 7441 C 717.842 -0.0465706 -2.29153 0
M  V30 7442 C 718.842 0.703302 -1.44604 0
M  V30 7443 O 720.032 0.537513 -1.657 0
M  V30 7444 C 717.164 0.944324 -3.2756 0
M  V30 7445 H 718.357 -0.821064 -2.88442 0
M  V30 7446 H 715.91 -0.463869 -1.49258 0
M  V30 7447 H 716.645 1.74642 -2.73259 0
M  V30 7448 H 716.43 0.409701 -3.89954 0
M  V30 7449 H 717.92 1.39925 -3.9346 0
M  V30 7450 N 718.357 1.51182 -0.445186 0
M  V30 7451 C 719.605 2.01753 0.11841 0
M  V30 7452 C 719.926 1.33087 1.42523 0
M  V30 7453 O 719.196 0.467891 1.9023 0
M  V30 7454 H 717.776 0.745536 0.0467492 0
M  V30 7455 H 720.438 1.85765 -0.589688 0
M  V30 7456 H 719.534 3.10762 0.288665 0
M  V30 7457 N 719.835 0.176821 1.56605 0
M  V30 7458 C 721.081 -0.460868 1.9811 0
M  V30 7459 C 721.436 -1.60488 1.06119 0
M  V30 7460 O 720.729 -1.91329 0.101939 0
M  V30 7461 C 720.923 -0.986208 3.43524 0
M  V30 7462 C 720.752 0.105368 4.49577 0
M  V30 7463 C 719.522 0.556883 5.02222 0
M  V30 7464 C 721.72 0.907756 5.06226 0
M  V30 7465 N 719.702 1.62819 5.91915 0
M  V30 7466 C 721.073 1.82887 5.92412 0
M  V30 7467 C 723.128 0.952221 4.8871 0
M  V30 7468 C 721.831 2.7907 6.62957 0
M  V30 7469 C 723.857 1.90202 5.5998 0
M  V30 7470 C 723.219 2.8106 6.45898 0
M  V30 7471 H 719.318 -0.136589 0.769979 0
M  V30 7472 H 721.902 0.278307 1.92701 0
M  V30 7473 H 720.073 -1.69489 3.49468 0
M  V30 7474 H 721.805 -1.59298 3.7203 0
M  V30 7475 H 718.56 0.153575 4.73351 0
M  V30 7476 H 718.984 2.1645 6.41466 0
M  V30 7477 H 723.626 0.263794 4.21976 0
M  V30 7478 H 721.344 3.48898 7.28901 0
M  V30 7479 H 724.93 1.9426 5.48411 0
M  V30 7480 H 723.81 3.53357 7.00077 0
M  V30 7481 N 721.313 -1.57302 -0.09688 0
M  V30 7482 C 722.261 -2.02942 -1.13654 0
M  V30 7483 C 723.255 -0.930173 -1.41577 0
M  V30 7484 O 724.461 -1.11535 -1.41279 0
M  V30 7485 H 720.836 -0.646726 -0.383731 0
M  V30 7486 H 722.807 -2.89452 -0.725267 0
M  V30 7487 C 721.556 -2.46815 -2.44903 0
M  V30 7488 H 720.879 -3.30979 -2.24261 0
M  V30 7489 H 722.319 -2.82527 -3.16156 0
M  V30 7490 C 720.778 -1.34071 -3.09074 0
M  V30 7491 O 721.308 -0.668856 -3.96092 0
M  V30 7492 N 719.514 -1.09214 -2.69296 0
M  V30 7493 H 719.061 -1.64029 -1.98626 0
M  V30 7494 H 719.019 -0.339785 -3.12559 0
M  V30 7495 N 722.791 0.367657 -1.53252 0
M  V30 7496 C 724.04 1.10782 -1.68554 0
M  V30 7497 C 724.353 1.90523 -0.442765 0
M  V30 7498 O 725.559 2.6729 -0.47629 0
M  V30 7499 C 724.015 2.01863 -2.97959 0
M  V30 7500 C 723.623 1.27443 -4.29491 0
M  V30 7501 C 725.367 2.75883 -3.22628 0
M  V30 7502 C 723.274 2.17414 -5.49987 0
M  V30 7503 H 722.204 0.417272 -0.628013 0
M  V30 7504 H 724.855 0.368971 -1.79752 0
M  V30 7505 H 723.237 2.7947 -2.80558 0
M  V30 7506 H 724.411 0.549138 -4.57516 0
M  V30 7507 H 722.726 0.652935 -4.11249 0
M  V30 7508 H 725.323 3.43421 -4.09837 0
M  V30 7509 H 725.666 3.41138 -2.38601 0
M  V30 7510 H 726.199 2.0536 -3.40693 0
M  V30 7511 H 722.938 1.5674 -6.36485 0
M  V30 7512 H 722.458 2.87799 -5.26243 0
M  V30 7513 H 724.137 2.77019 -5.84696 0
M  V30 7514 N 724.269 1.44576 0.627338 0
M  V30 7515 C 725.68 1.42266 1.20902 0
M  V30 7516 C 726.031 0.139964 1.957 0
M  V30 7517 O 725.156 -0.759489 2.02634 0
M  V30 7518 C 725.751 2.57727 2.19914 0
M  V30 7519 C 724.31 2.58599 2.73502 0
M  V30 7520 C 723.457 2.34145 1.48564 0
M  V30 7521 H 726.408 1.53102 0.417791 0
M  V30 7522 H 726.429 2.30697 3.02588 0
M  V30 7523 H 725.941 3.51068 1.65447 0
M  V30 7524 H 724.042 1.6921 3.31962 0
M  V30 7525 H 724.155 3.57205 3.19282 0
M  V30 7526 H 722.519 1.83313 1.76829 0
M  V30 7527 H 723.302 3.29606 0.959935 0
M  V30 7528 N 725.747 -0.868086 1.31537 0
M  V30 7529 C 726.68 -1.97871 1.13676 0
M  V30 7530 C 727.658 -1.62551 0.0397589 0
M  V30 7531 O 728.842 -1.87473 0.196539 0
M  V30 7532 C 725.969 -3.30577 0.73734 0
M  V30 7533 C 725.015 -3.8488 1.83765 0
M  V30 7534 S 725.848 -4.10106 3.44345 0
M  V30 7535 C 727.004 -5.45806 3.06344 0
M  V30 7536 H 727.237 -2.12719 2.07697 0
M  V30 7537 H 724.77 -1.01849 1.16044 0
M  V30 7538 H 726.728 -4.07274 0.513641 0
M  V30 7539 H 725.389 -3.13562 -0.183787 0
M  V30 7540 H 724.582 -4.80821 1.51085 0
M  V30 7541 H 724.184 -3.14981 2.01651 0
M  V30 7542 H 726.476 -6.27535 2.55354 0
M  V30 7543 H 727.419 -5.83437 4.01257 0
M  V30 7544 H 727.827 -5.0917 2.43734 0
M  V30 7545 N 727.225 -1.14528 -1.08264 0
M  V30 7546 C 728.473 -0.912599 -1.80322 0
M  V30 7547 C 728.794 0.562256 -1.86718 0
M  V30 7548 O 728.064 1.40869 -1.36135 0
M  V30 7549 H 726.644 -0.334645 -0.667849 0
M  V30 7550 H 729.306 -1.44415 -1.30883 0
M  V30 7551 H 728.402 -1.31384 -2.83098 0
M  V30 7552 N 728.703 1.26451 -0.940633 0
M  V30 7553 C 729.633 2.28773 -0.467479 0
M  V30 7554 C 730.614 1.63218 0.478955 0
M  V30 7555 O 731.799 1.90427 0.380929 0
M  V30 7556 C 728.929 3.46259 0.268656 0
M  V30 7557 C 727.883 4.23898 -0.591171 0
M  V30 7558 C 727.209 5.33993 0.274891 0
M  V30 7559 C 728.509 4.87974 -1.86223 0
M  V30 7560 H 730.203 2.68601 -1.32265 0
M  V30 7561 H 727.749 1.29123 -0.637436 0
M  V30 7562 H 729.702 4.16951 0.610696 0
M  V30 7563 H 728.426 3.05383 1.15796 0
M  V30 7564 H 727.085 3.54969 -0.916098 0
M  V30 7565 H 726.733 4.89358 1.16353 0
M  V30 7566 H 726.433 5.86849 -0.297006 0
M  V30 7567 H 727.957 6.07523 0.612213 0
M  V30 7568 H 729.371 5.50883 -1.58747 0
M  V30 7569 H 727.768 5.50945 -2.37866 0
M  V30 7570 H 728.838 4.10945 -2.57394 0
M  V30 7571 N 730.181 0.707592 1.40822 0
M  V30 7572 C 731.111 0.0644925 2.33411 0
M  V30 7573 C 732.092 -0.754205 1.52466 0
M  V30 7574 O 733.277 -0.704749 1.80961 0
M  V30 7575 C 730.407 -0.863865 3.36385 0
M  V30 7576 C 729.361 -0.15138 4.27732 0
M  V30 7577 C 728.687 -1.19491 5.21177 0
M  V30 7578 C 729.987 0.989607 5.12839 0
M  V30 7579 H 731.681 0.837829 2.87438 0
M  V30 7580 H 729.227 0.404346 1.38207 0
M  V30 7581 H 731.18 -1.32309 4.0009 0
M  V30 7582 H 729.904 -1.66901 2.80734 0
M  V30 7583 H 728.563 0.287937 3.65467 0
M  V30 7584 H 728.211 -1.9929 4.61836 0
M  V30 7585 H 727.911 -0.723123 5.83134 0
M  V30 7586 H 729.435 -1.6544 5.8776 0
M  V30 7587 H 730.849 0.610114 5.70044 0
M  V30 7588 H 729.246 1.38926 5.83798 0
M  V30 7589 H 730.316 1.82389 4.49291 0
M  V30 7590 N 731.66 -1.50943 0.453197 0
M  V30 7591 C 732.907 -2.02212 -0.107922 0
M  V30 7592 C 733.235 -1.33639 -1.41318 0
M  V30 7593 O 732.49 -0.445154 -1.9057 0
M  V30 7594 C 732.789 -3.55603 -0.357944 0
M  V30 7595 C 732.455 -4.42556 0.863427 0
M  V30 7596 C 731.117 -4.6604 1.19834 0
M  V30 7597 C 733.469 -4.93468 1.67747 0
M  V30 7598 C 730.797 -5.37681 2.34768 0
M  V30 7599 C 733.149 -5.6637 2.81793 0
M  V30 7600 C 731.813 -5.88113 3.1572 0
M  V30 7601 H 731.083 -0.739947 -0.0394916 0
M  V30 7602 H 733.73 -1.81738 0.60363 0
M  V30 7603 H 732.035 -3.74495 -1.15156 0
M  V30 7604 H 733.732 -3.92821 -0.805781 0
M  V30 7605 H 730.322 -4.24485 0.592478 0
M  V30 7606 H 734.506 -4.75194 1.43192 0
M  V30 7607 H 729.762 -5.52727 2.61348 0
M  V30 7608 H 733.936 -6.04806 3.45229 0
M  V30 7609 H 731.563 -6.43404 4.04889 0
M  V30 7610 N 733.138 -0.185124 -1.56509 0
M  V30 7611 C 734.086 0.756505 -2.19954 0
M  V30 7612 C 735.08 1.22725 -1.16769 0
M  V30 7613 O 736.286 1.1913 -1.34937 0
M  V30 7614 H 732.661 0.262279 -0.704779 0
M  V30 7615 H 734.632 0.197587 -2.97745 0
M  V30 7616 C 733.381 1.96975 -2.86524 0
M  V30 7617 H 732.704 1.61658 -3.65659 0
M  V30 7618 H 734.144 2.60719 -3.34367 0
M  V30 7619 C 732.603 2.80219 -1.87027 0
M  V30 7620 O 733.133 3.77821 -1.36433 0
M  V30 7621 N 731.339 2.4551 -1.55477 0
M  V30 7622 H 730.886 1.66199 -1.96813 0
M  V30 7623 H 730.844 3.01493 -0.891597 0
M  V30 7624 N 734.616 1.57351 0.0885366 0
M  V30 7625 C 735.548 1.99221 1.13329 0
M  V30 7626 C 736.561 0.895705 1.35945 0
M  V30 7627 O 737.75 1.17376 1.34481 0
M  V30 7628 C 734.85 2.3016 2.48756 0
M  V30 7629 C 734.023 3.61444 2.46327 0
M  V30 7630 C 733.082 3.80244 3.63732 0
M  V30 7631 O 732.108 4.52024 3.45924 0
M  V30 7632 N 733.31 3.2132 4.8346 0
M  V30 7633 H 736.075 2.89456 0.776862 0
M  V30 7634 H 733.636 1.59505 0.277428 0
M  V30 7635 H 735.628 2.39925 3.25911 0
M  V30 7636 H 734.198 1.459 2.76464 0
M  V30 7637 H 733.418 3.62588 1.54673 0
M  V30 7638 H 734.706 4.47678 2.41789 0
M  V30 7639 H 734.104 2.63028 5.00832 0
M  V30 7640 H 732.661 3.3656 5.58185 0
M  V30 7641 N 736.094 -0.359525 1.53444 0
M  V30 7642 C 737.322 -1.12198 1.73837 0
M  V30 7643 C 737.737 -1.82854 0.470107 0
M  V30 7644 O 737.094 -1.73781 -0.557349 0
M  V30 7645 C 737.145 -2.14769 2.90786 0
M  V30 7646 O 736.866 -1.46989 4.12706 0
M  V30 7647 C 738.367 -3.03514 3.231 0
M  V30 7648 H 735.587 -0.33524 0.581253 0
M  V30 7649 H 738.131 -0.416598 2.00212 0
M  V30 7650 H 736.286 -2.80896 2.66788 0
M  V30 7651 H 736.7 -2.15378 4.78239 0
M  V30 7652 H 738.174 -3.71453 4.08322 0
M  V30 7653 H 738.651 -3.68658 2.38721 0
M  V30 7654 H 739.257 -2.42996 3.49046 0
M  V30 7655 N 737.572 -1.44907 -0.619662 0
M  V30 7656 C 738.82 -1.47999 -1.37625 0
M  V30 7657 C 739.141 -0.118295 -1.94641 0
M  V30 7658 O 738.411 0.85086 -1.76457 0
M  V30 7659 H 736.991 -0.544993 -0.510873 0
M  V30 7660 H 739.653 -1.80772 -0.728522 0
M  V30 7661 H 738.749 -2.21196 -2.20179 0
M  V30 7662 N 739.05 0.861098 -1.31996 0
M  V30 7663 C 740.275 1.65264 -1.2531 0
M  V30 7664 C 740.7 1.87265 0.177007 0
M  V30 7665 O 740.058 1.4208 1.12619 0
M  V30 7666 C 740.106 2.99284 -2.0115 0
M  V30 7667 O 739.21 3.89508 -1.3549 0
M  V30 7668 H 738.551 0.50409 -0.432192 0
M  V30 7669 H 741.081 1.07297 -1.74208 0
M  V30 7670 H 741.091 3.49154 -2.11081 0
M  V30 7671 H 739.766 2.82591 -3.05148 0
M  V30 7672 H 738.343 3.47966 -1.34066 0
M  V30 7673 N 740.528 1.15101 1.07655 0
M  V30 7674 C 741.768 0.934462 1.81789 0
M  V30 7675 C 742.132 -0.529101 1.84566 0
M  V30 7676 O 743.333 -0.863868 2.5454 0
M  V30 7677 C 741.604 1.52817 3.23082 0
M  V30 7678 S 743.163 1.45429 4.14 0
M  V30 7679 H 739.981 0.336379 0.626395 0
M  V30 7680 H 742.583 1.46593 1.29347 0
M  V30 7681 H 741.287 2.58635 3.18647 0
M  V30 7682 H 740.818 0.995432 3.80598 0
M  V30 7683 H 742.833 0.445058 4.942 0
M  V30 7684 N 742.006 -1.2595 0.947325 0
M  V30 7685 C 742.953 -2.26159 0.460497 0
M  V30 7686 C 743.923 -1.58919 -0.483125 0
M  V30 7687 O 745.108 -1.86603 -0.397983 0
M  V30 7688 C 742.248 -3.441 -0.26247 0
M  V30 7689 C 741.361 -4.25999 0.717539 0
M  V30 7690 C 740.496 -5.31193 -0.0272486 0
M  V30 7691 C 739.535 -6.04774 0.944177 0
M  V30 7692 N 738.672 -7.01721 0.230741 0
M  V30 7693 H 743.512 -2.67173 1.31995 0
M  V30 7694 H 741.049 -1.31358 0.662088 0
M  V30 7695 H 743.007 -4.11317 -0.698137 0
M  V30 7696 H 741.637 -3.03983 -1.08602 0
M  V30 7697 H 740.689 -3.58513 1.27171 0
M  V30 7698 H 742.001 -4.76981 1.45913 0
M  V30 7699 H 741.155 -6.04451 -0.521903 0
M  V30 7700 H 739.894 -4.81066 -0.801682 0
M  V30 7701 H 738.899 -5.30338 1.4499 0
M  V30 7702 H 740.124 -6.56991 1.71872 0
M  V30 7703 H 738.07 -6.53895 -0.525088 0
M  V30 7704 H 737.987 -7.50484 0.911556 0
M  V30 7705 H 739.255 -7.79122 -0.242616 0
M  V30 7706 N 743.484 -0.715051 -1.40445 0
M  V30 7707 C 744.731 -0.254328 -2.00897 0
M  V30 7708 C 745.059 1.15228 -1.56693 0
M  V30 7709 O 744.314 1.7958 -0.777786 0
M  V30 7710 C 744.613 -0.281791 -3.56287 0
M  V30 7711 C 744.279 -1.63862 -4.20071 0
M  V30 7712 C 742.941 -2.01003 -4.37208 0
M  V30 7713 C 745.293 -2.53039 -4.55654 0
M  V30 7714 C 742.621 -3.26869 -4.8721 0
M  V30 7715 C 744.973 -3.78256 -5.07055 0
M  V30 7716 C 743.637 -4.15515 -5.22401 0
M  V30 7717 H 742.907 -0.0930652 -0.735133 0
M  V30 7718 H 745.554 -0.917977 -1.68064 0
M  V30 7719 H 743.859 0.465428 -3.89026 0
M  V30 7720 H 745.556 0.0925158 -4.00893 0
M  V30 7721 H 742.146 -1.33979 -4.07121 0
M  V30 7722 H 746.33 -2.2562 -4.42051 0
M  V30 7723 H 741.586 -3.55706 -4.97276 0
M  V30 7724 H 745.76 -4.47528 -5.33565 0
M  V30 7725 H 743.387 -5.13114 -5.60909 0
M  V30 7726 N 744.962 1.50701 -0.461195 0
M  V30 7727 C 746.239 1.94958 0.158296 0
M  V30 7728 C 746.619 1.40111 1.57899 0
M  V30 7729 O 745.967 0.597976 2.20537 0
M  V30 7730 C 746.177 3.48821 0.11172 0
M  V30 7731 C 747.525 4.23499 0.30552 0
M  V30 7732 O 748.549 3.557 0.188758 0
M  V30 7733 O 747.408 5.43823 0.540244 0
M  V30 7734 H 744.502 0.818674 0.117054 0
M  V30 7735 H 747.048 1.61508 -0.520888 0
M  V30 7736 H 745.82 3.81263 -0.880577 0
M  V30 7737 H 745.443 3.88781 0.832791 0
M  V30 7738 N 746.441 0.193421 1.56409 0
M  V30 7739 C 747.351 -0.740112 2.2262 0
M  V30 7740 C 748.367 -1.23597 1.22474 0
M  V30 7741 O 749.543 -1.28348 1.55206 0
M  V30 7742 C 746.608 -1.94317 2.87127 0
M  V30 7743 C 745.669 -1.49205 4.02538 0
M  V30 7744 C 744.902 -2.63776 4.63959 0
M  V30 7745 O 745.125 -3.81215 4.24301 0
M  V30 7746 O 744.059 -2.36585 5.53454 0
M  V30 7747 H 747.885 -0.206238 3.02999 0
M  V30 7748 H 745.47 -0.0357938 1.49357 0
M  V30 7749 H 747.352 -2.64633 3.27944 0
M  V30 7750 H 746.027 -2.46568 2.09728 0
M  V30 7751 H 744.934 -0.757738 3.66346 0
M  V30 7752 H 746.267 -1.01622 4.81595 0
M  V30 7753 N 747.919 -1.57396 -0.0801906 0
M  V30 7754 C 749.149 -1.90778 -0.792924 0
M  V30 7755 C 749.557 -0.786814 -1.72064 0
M  V30 7756 O 748.9 0.249259 -1.82001 0
M  V30 7757 C 748.962 -3.19552 -1.64702 0
M  V30 7758 C 748.626 -4.48259 -0.889567 0
M  V30 7759 C 749.623 -5.19465 -0.212602 0
M  V30 7760 C 747.308 -4.94896 -0.859229 0
M  V30 7761 C 749.302 -6.35555 0.484566 0
M  V30 7762 C 746.989 -6.10895 -0.158284 0
M  V30 7763 C 747.987 -6.81075 0.512421 0
M  V30 7764 O 747.675 -7.94862 1.20209 0
M  V30 7765 H 747.407 -0.63527 -0.231103 0
M  V30 7766 H 749.961 -2.0532 -0.0573081 0
M  V30 7767 H 748.191 -3.01196 -2.42524 0
M  V30 7768 H 749.88 -3.38649 -2.23767 0
M  V30 7769 H 750.646 -4.84467 -0.227403 0
M  V30 7770 H 746.525 -4.4015 -1.37073 0
M  V30 7771 H 750.069 -6.9027 1.00864 0
M  V30 7772 H 745.966 -6.45345 -0.141381 0
M  V30 7773 H 746.734 -8.10932 1.11051 0
M  V30 7774 N 749.397 0.351382 -1.53633 0
M  V30 7775 C 750.644 1.0925 -1.70502 0
M  V30 7776 C 750.972 1.88881 -0.464123 0
M  V30 7777 O 750.227 1.87693 0.554077 0
M  V30 7778 C 750.526 2.06744 -2.91533 0
M  V30 7779 C 750.192 1.43484 -4.27461 0
M  V30 7780 C 748.854 1.2596 -4.64422 0
M  V30 7781 C 751.206 0.978436 -5.11934 0
M  V30 7782 C 748.534 0.614017 -5.83478 0
M  V30 7783 C 750.886 0.346795 -6.31649 0
M  V30 7784 C 749.55 0.15917 -6.6731 0
M  V30 7785 H 748.82 0.399773 -0.623909 0
M  V30 7786 H 751.467 0.372656 -1.87839 0
M  V30 7787 H 749.772 2.85082 -2.68767 0
M  V30 7788 H 751.469 2.64066 -3.01778 0
M  V30 7789 H 748.059 1.5812 -3.98367 0
M  V30 7790 H 752.243 1.1017 -4.83918 0
M  V30 7791 H 747.499 0.457194 -6.09688 0
M  V30 7792 H 751.673 -0.0149864 -6.96398 0
M  V30 7793 H 749.3 -0.343129 -7.59425 0
M  V30 7794 N 750.875 1.45233 0.611969 0
M  V30 7795 C 752.1 1.52767 1.40274 0
M  V30 7796 C 752.525 0.159701 1.87421 0
M  V30 7797 O 751.883 -0.854837 1.59882 0
M  V30 7798 C 751.931 2.51286 2.58626 0
M  V30 7799 O 751.035 2.02764 3.59111 0
M  V30 7800 H 750.376 0.515141 0.418958 0
M  V30 7801 H 752.906 1.90547 0.745188 0
M  V30 7802 H 752.916 2.69949 3.05927 0
M  V30 7803 H 751.591 3.50641 2.23659 0
M  V30 7804 H 750.168 1.93957 3.18489 0
M  V30 7805 N 752.353 -0.854086 1.3245 0
M  V30 7806 C 753.285 -1.96932 1.17262 0
M  V30 7807 C 754.298 -1.62445 0.107469 0
M  V30 7808 O 755.487 -1.74904 0.356481 0
M  V30 7809 C 752.587 -3.29971 0.772817 0
M  V30 7810 C 751.76 -3.92695 1.92638 0
M  V30 7811 C 750.819 -5.04068 1.51003 0
M  V30 7812 O 749.845 -5.24032 2.22213 0
M  V30 7813 N 751.047 -5.79076 0.406371 0
M  V30 7814 H 753.812 -2.10503 2.13327 0
M  V30 7815 H 751.373 -1.02897 1.24995 0
M  V30 7816 H 753.365 -4.01883 0.476684 0
M  V30 7817 H 751.935 -3.1245 -0.0967 0
M  V30 7818 H 751.155 -3.13563 2.38897 0
M  V30 7819 H 752.443 -4.31337 2.69863 0
M  V30 7820 H 751.841 -5.65393 -0.186302 0
M  V30 7821 H 750.398 -6.51579 0.169846 0
M  V30 7822 N 753.831 -1.1567 -1.07043 0
M  V30 7823 C 755.056 -0.957946 -1.83952 0
M  V30 7824 C 755.481 0.488807 -1.81638 0
M  V30 7825 O 754.839 1.34869 -1.21162 0
M  V30 7826 C 754.887 -1.48064 -3.288 0
M  V30 7827 O 753.991 -0.681921 -4.06723 0
M  V30 7828 H 753.332 -0.341453 -0.569479 0
M  V30 7829 H 755.862 -1.53728 -1.35015 0
M  V30 7830 H 755.872 -1.49484 -3.7963 0
M  V30 7831 H 754.547 -2.53388 -3.29799 0
M  V30 7832 H 753.124 -0.737612 -3.65532 0
M  V30 7833 N 755.309 1.25446 -0.953992 0
M  V30 7834 C 756.549 1.94894 -0.616087 0
M  V30 7835 C 756.913 1.73067 0.831374 0
M  V30 7836 O 758.114 2.3643 1.27884 0
M  V30 7837 C 756.385 3.44147 -0.964225 0
M  V30 7838 S 757.944 4.32536 -0.738798 0
M  V30 7839 H 754.762 0.673967 -0.226472 0
M  V30 7840 H 757.364 1.52117 -1.22803 0
M  V30 7841 H 756.068 3.57537 -2.01484 0
M  V30 7842 H 755.599 3.91906 -0.342507 0
M  V30 7843 H 757.614 4.94659 0.390732 0
M  V30 7844 N 756.787 0.722489 1.40064 0
M  V30 7845 C 757.75 0.0830209 2.2905 0
M  V30 7846 C 758.75 -0.680208 1.45705 0
M  V30 7847 O 759.94 -0.511084 1.66534 0
M  V30 7848 C 757.072 -0.892092 3.29021 0
M  V30 7849 H 758.265 0.866848 2.87099 0
M  V30 7850 H 755.818 0.487556 1.48501 0
M  V30 7851 H 756.553 -1.70273 2.76003 0
M  V30 7852 H 756.338 -0.34761 3.90556 0
M  V30 7853 H 757.828 -1.33648 3.95636 0
M  V30 7854 N 758.265 -1.50454 0.469181 0
M  V30 7855 C 759.676 -1.86695 0.0136034 0
M  V30 7856 C 760.027 -1.38413 -1.39055 0
M  V30 7857 O 759.152 -0.748294 -2.03051 0
M  V30 7858 C 759.747 -3.38795 0.0179098 0
M  V30 7859 C 758.306 -3.74455 -0.382191 0
M  V30 7860 C 757.453 -2.74338 0.404207 0
M  V30 7861 H 760.404 -1.43225 0.683547 0
M  V30 7862 H 760.425 -3.72321 -0.78468 0
M  V30 7863 H 759.937 -3.73906 1.04 0
M  V30 7864 H 758.038 -3.44944 -1.4087 0
M  V30 7865 H 758.151 -4.79025 -0.084862 0
M  V30 7866 H 756.515 -2.54305 -0.141829 0
M  V30 7867 H 757.298 -3.12293 1.42577 0
M  V30 7868 N 759.743 -0.201713 -1.56304 0
M  V30 7869 C 760.991 0.434447 -1.97375 0
M  V30 7870 C 761.312 1.61692 -1.08998 0
M  V30 7871 O 760.582 1.95223 -0.162682 0
M  V30 7872 H 759.162 0.163497 -0.728888 0
M  V30 7873 H 761.824 -0.289988 -1.92731 0
M  V30 7874 H 760.92 0.774136 -3.02347 0
M  V30 7875 N 761.222 1.57436 0.0718424 0
M  V30 7876 C 762.447 1.91858 0.787745 0
M  V30 7877 C 762.872 0.798119 1.70328 0
M  V30 7878 O 762.23 -0.24905 1.79581 0
M  V30 7879 C 762.278 3.25232 1.55744 0
M  V30 7880 O 761.382 3.14462 2.6681 0
M  V30 7881 H 760.723 0.628258 0.214914 0
M  V30 7882 H 763.253 2.04561 0.0401012 0
M  V30 7883 H 763.263 3.59105 1.9367 0
M  V30 7884 H 761.938 4.0636 0.885691 0
M  V30 7885 H 760.515 2.92148 2.31741 0
M  V30 7886 N 762.7 -0.34323 1.53817 0
M  V30 7887 C 763.977 -1.10047 1.61706 0
M  V30 7888 C 764.357 -2.06495 0.438514 0
M  V30 7889 O 763.705 -2.21297 -0.569188 0
M  V30 7890 C 763.915 -1.81985 2.97796 0
M  V30 7891 C 765.263 -2.35717 3.53161 0
M  V30 7892 O 766.287 -1.9208 2.99973 0
M  V30 7893 O 765.146 -3.15551 4.46195 0
M  V30 7894 H 762.24 -0.506096 0.654061 0
M  V30 7895 H 764.786 -0.344697 1.66162 0
M  V30 7896 H 763.558 -1.11722 3.75012 0
M  V30 7897 H 763.181 -2.64419 2.96931 0
M  V30 7898 N 764.178 -1.45556 -0.604258 0
M  V30 7899 C 765.589 -1.44171 -1.18624 0
M  V30 7900 C 765.94 -0.171081 -1.95453 0
M  V30 7901 O 765.065 0.727156 -2.03817 0
M  V30 7902 C 765.66 -2.61193 -2.15786 0
M  V30 7903 C 764.219 -2.62918 -2.69353 0
M  V30 7904 C 763.366 -2.36479 -1.4482 0
M  V30 7905 H 766.317 -1.53747 -0.393381 0
M  V30 7906 H 766.338 -2.35481 -2.98879 0
M  V30 7907 H 765.85 -3.53656 -1.59841 0
M  V30 7908 H 763.951 -1.7447 -3.29228 0
M  V30 7909 H 764.064 -3.6224 -3.13559 0
M  V30 7910 H 762.428 -1.86103 -1.73891 0
M  V30 7911 H 763.211 -3.31091 -0.907376 0
M  V30 7912 N 765.656 0.84705 -1.32902 0
M  V30 7913 C 767.072 1.13645 -1.12058 0
M  V30 7914 C 767.272 2.01281 0.093937 0
M  V30 7915 O 766.328 2.4026 0.776608 0
M  V30 7916 C 767.641 1.80644 -2.40392 0
M  V30 7917 C 769.189 1.93246 -2.46221 0
M  V30 7918 C 769.664 2.6366 -3.74496 0
M  V30 7919 N 771.155 2.71179 -3.75521 0
M  V30 7920 C 771.89 3.26332 -4.71482 0
M  V30 7921 N 771.386 3.82236 -5.77813 0
M  V30 7922 N 773.179 3.24507 -4.58968 0
M  V30 7923 H 765.33 0.263612 -2.10758 0
M  V30 7924 H 767.593 0.17944 -0.930863 0
M  V30 7925 H 767.299 1.23708 -3.29225 0
M  V30 7926 H 767.173 2.80736 -2.51926 0
M  V30 7927 H 769.56 2.49338 -1.57843 0
M  V30 7928 H 769.641 0.921272 -2.38634 0
M  V30 7929 H 769.285 2.08229 -4.63253 0
M  V30 7930 H 769.215 3.65234 -3.79357 0
M  V30 7931 H 771.706 2.31527 -2.9867 0
M  V30 7932 H 772.019 4.22499 -6.47082 0
M  V30 7933 H 770.364 3.80546 -5.81558 0
M  V30 7934 H 773.555 2.80085 -3.7506 0
M  V30 7935 H 773.728 3.67188 -5.33926 0
M  V30 7936 N 767.134 1.16236 1.06428 0
M  V30 7937 C 768.359 0.967688 1.83441 0
M  V30 7938 C 768.784 -0.479167 1.81894 0
M  V30 7939 O 768.142 -1.34224 1.21875 0
M  V30 7940 C 768.19 1.49806 3.2801 0
M  V30 7941 O 767.294 0.703481 4.06356 0
M  V30 7942 H 766.635 0.344468 0.56766 0
M  V30 7943 H 769.165 1.54442 1.34197 0
M  V30 7944 H 769.175 1.51495 3.78831 0
M  V30 7945 H 767.85 2.55133 3.2845 0
M  V30 7946 H 766.427 0.756986 3.65136 0
M  V30 7947 N 768.612 -1.24939 0.960631 0
M  V30 7948 C 769.56 -2.27659 0.47686 0
M  V30 7949 C 770.554 -1.63148 -0.455961 0
M  V30 7950 O 771.76 -1.76911 -0.332029 0
M  V30 7951 H 768.135 -0.739651 0.135723 0
M  V30 7952 H 770.106 -2.65844 1.35534 0
M  V30 7953 C 768.855 -3.46976 -0.224191 0
M  V30 7954 H 768.178 -3.96854 0.484471 0
M  V30 7955 H 769.618 -4.20717 -0.526615 0
M  V30 7956 C 768.077 -3.04159 -1.44876 0
M  V30 7957 O 768.607 -3.10697 -2.54618 0
M  V30 7958 N 766.813 -2.59284 -1.31226 0
M  V30 7959 H 766.36 -2.54164 -0.419361 0
M  V30 7960 H 766.318 -2.31 -2.13275 0
M  V30 7961 N 770.09 -0.729906 -1.39679 0
M  V30 7962 C 771.02 -0.101618 -2.33279 0
M  V30 7963 C 772.001 0.729854 -1.53646 0
M  V30 7964 O 773.186 0.67587 -1.82059 0
M  V30 7965 C 770.316 0.81024 -3.37716 0
M  V30 7966 C 769.27 0.0833126 -4.27919 0
M  V30 7967 C 768.596 1.11185 -5.23012 0
M  V30 7968 C 769.896 -1.07107 -5.112 0
M  V30 7969 H 771.59 -0.883452 -2.86069 0
M  V30 7970 H 769.136 -0.426283 -1.37546 0
M  V30 7971 H 771.089 1.25927 -4.02145 0
M  V30 7972 H 769.813 1.62413 -2.83354 0
M  V30 7973 H 768.472 -0.346043 -3.64963 0
M  V30 7974 H 768.12 1.91917 -4.64948 0
M  V30 7975 H 767.82 0.63026 -5.8421 0
M  V30 7976 H 769.344 1.56068 -5.90318 0
M  V30 7977 H 770.758 -0.700726 -5.69002 0
M  V30 7978 H 769.155 -1.48196 -5.81514 0
M  V30 7979 H 770.225 -1.89513 -4.46332 0
M  V30 7980 N 771.568 1.50203 -0.477153 0
M  V30 7981 C 772.808 2.04265 0.0744065 0
M  V30 7982 C 773.172 1.35082 1.36443 0
M  V30 7983 O 774.373 1.79732 1.99875 0
M  V30 7984 C 772.644 3.56539 0.247874 0
M  V30 7985 S 774.203 4.32219 0.757117 0
M  V30 7986 H 771.021 0.71088 0.0130891 0
M  V30 7987 H 773.623 1.8453 -0.645678 0
M  V30 7988 H 772.327 4.04443 -0.696709 0
M  V30 7989 H 771.858 3.80638 0.993896 0
M  V30 7990 H 773.873 4.52789 2.0297 0
M  V30 7991 N 773.046 0.209999 1.56195 0
M  V30 7992 C 774.009 -0.691232 2.18528 0
M  V30 7993 C 775.009 -1.13013 1.14388 0
M  V30 7994 O 776.199 -1.04081 1.39688 0
M  V30 7995 C 773.331 -1.94551 2.79934 0
M  V30 7996 H 774.524 -0.147953 2.99535 0
M  V30 7997 H 772.077 -0.0396243 1.5625 0
M  V30 7998 H 772.812 -2.53094 2.02766 0
M  V30 7999 H 772.597 -1.63938 3.56184 0
M  V30 8000 H 774.087 -2.58785 3.2775 0
M  V30 8001 N 774.524 -1.57472 -0.0634922 0
M  V30 8002 C 775.454 -2.07297 -1.07473 0
M  V30 8003 C 776.435 -0.968162 -1.39859 0
M  V30 8004 O 777.62 -1.24139 -1.49343 0
M  V30 8005 C 774.75 -2.52381 -2.38581 0
M  V30 8006 C 773.704 -3.66813 -2.20526 0
M  V30 8007 C 773.03 -3.97982 -3.57092 0
M  V30 8008 C 774.33 -4.96553 -1.61965 0
M  V30 8009 H 776.024 -2.92033 -0.660092 0
M  V30 8010 H 773.57 -1.40488 -0.316074 0
M  V30 8011 H 775.523 -2.85852 -3.09624 0
M  V30 8012 H 774.247 -1.64684 -2.8204 0
M  V30 8013 H 772.906 -3.33639 -1.51924 0
M  V30 8014 H 772.554 -3.07403 -3.98136 0
M  V30 8015 H 772.254 -4.7504 -3.45848 0
M  V30 8016 H 773.778 -4.33956 -4.29552 0
M  V30 8017 H 775.192 -5.28201 -2.22883 0
M  V30 8018 H 773.589 -5.7799 -1.61394 0
M  V30 8019 H 774.659 -4.81396 -0.581918 0
M  V30 8020 N 776.003 0.335068 -1.53997 0
M  V30 8021 C 777.243 1.0827 -1.7337 0
M  V30 8022 C 777.607 1.85618 -0.490913 0
M  V30 8023 O 778.808 2.62864 -0.561799 0
M  V30 8024 C 777.079 1.99212 -2.96731 0
M  V30 8025 S 778.638 2.81083 -3.36954 0
M  V30 8026 H 775.456 0.365698 -0.609743 0
M  V30 8027 H 778.058 0.360079 -1.92155 0
M  V30 8028 H 776.762 1.41204 -3.85344 0
M  V30 8029 H 776.293 2.75898 -2.80436 0
M  V30 8030 H 778.308 4.01657 -2.91352 0
M  V30 8031 N 777.481 1.45874 0.596531 0
M  V30 8032 C 778.73 1.49737 1.35135 0
M  V30 8033 C 779.043 0.147755 1.95041 0
M  V30 8034 O 780.249 0.0640984 2.71424 0
M  V30 8035 C 778.705 2.6378 2.44843 0
M  V30 8036 C 778.313 4.05102 1.91301 0
M  V30 8037 C 780.057 2.769 3.21755 0
M  V30 8038 C 777.964 5.10508 2.98557 0
M  V30 8039 H 776.894 0.557219 0.507959 0
M  V30 8040 H 779.545 1.72046 0.638147 0
M  V30 8041 H 777.927 2.34774 3.189 0
M  V30 8042 H 779.101 4.43836 1.2388 0
M  V30 8043 H 777.416 3.96528 1.271 0
M  V30 8044 H 780.013 3.52819 4.01775 0
M  V30 8045 H 780.356 1.83924 3.73467 0
M  V30 8046 H 780.889 3.05485 2.54802 0
M  V30 8047 H 777.628 6.0523 2.51749 0
M  V30 8048 H 777.148 4.76332 3.6451 0
M  V30 8049 H 778.827 5.35745 3.62748 0
M  V30 8050 N 778.959 -0.83999 1.33349 0
M  V30 8051 C 780.207 -1.59202 1.24496 0
M  V30 8052 C 780.528 -1.94077 -0.189499 0
M  V30 8053 O 779.798 -1.60868 -1.11796 0
M  V30 8054 H 778.378 -0.590276 0.457802 0
M  V30 8055 H 781.04 -1.00394 1.67054 0
M  V30 8056 H 780.136 -2.52247 1.83788 0
M  V30 8057 N 780.437 -1.16799 -1.0581 0
M  V30 8058 C 781.714 -0.862616 -1.75551 0
M  V30 8059 C 782.094 0.6385 -2.01212 0
M  V30 8060 O 781.442 1.58784 -1.64317 0
M  V30 8061 C 781.652 -1.6907 -3.05314 0
M  V30 8062 C 783 -1.90675 -3.79379 0
M  V30 8063 O 784.024 -1.65976 -3.15167 0
M  V30 8064 O 782.883 -2.32145 -4.94743 0
M  V30 8065 H 779.977 -0.318789 -0.763088 0
M  V30 8066 H 782.523 -1.27461 -1.12034 0
M  V30 8067 H 781.295 -2.70912 -2.82352 0
M  V30 8068 H 780.918 -1.27606 -3.76567 0
M  V30 8069 N 781.915 1.24427 -0.967243 0
M  V30 8070 C 782.825 2.29109 -0.504592 0
M  V30 8071 C 783.841 1.68495 0.434224 0
M  V30 8072 O 785.017 1.99041 0.307379 0
M  V30 8073 C 782.082 3.46133 0.198273 0
M  V30 8074 C 781.143 4.22149 -0.780313 0
M  V30 8075 C 780.376 5.33585 -0.110896 0
M  V30 8076 O 780.599 5.59676 1.10088 0
M  V30 8077 O 779.533 5.96522 -0.802823 0
M  V30 8078 H 783.359 2.708 -1.37482 0
M  V30 8079 H 780.944 1.30111 -0.73426 0
M  V30 8080 H 782.826 4.17205 0.593124 0
M  V30 8081 H 781.501 3.0642 1.04347 0
M  V30 8082 H 780.408 3.53454 -1.22561 0
M  V30 8083 H 781.741 4.65677 -1.59392 0
M  V30 8084 N 783.393 0.737304 1.3929 0
M  V30 8085 C 784.325 0.0592106 2.29124 0
M  V30 8086 C 785.338 -0.701026 1.46934 0
M  V30 8087 O 786.527 -0.544808 1.69983 0
M  V30 8088 C 783.627 -0.940358 3.25592 0
M  V30 8089 C 782.8 -0.241163 4.36735 0
M  V30 8090 C 781.859 -1.14916 5.13498 0
M  V30 8091 O 780.885 -0.625783 5.6575 0
M  V30 8092 N 782.087 -2.47869 5.2492 0
M  V30 8093 H 784.852 0.830647 2.87959 0
M  V30 8094 H 782.413 0.586718 1.50895 0
M  V30 8095 H 784.405 -1.55046 3.73822 0
M  V30 8096 H 782.975 -1.61299 2.67771 0
M  V30 8097 H 782.195 0.549441 3.90352 0
M  V30 8098 H 783.483 0.243299 5.08218 0
M  V30 8099 H 782.881 -2.92864 4.83991 0
M  V30 8100 H 781.438 -3.03969 5.76581 0
M  V30 8101 N 784.871 -1.49948 0.485112 0
M  V30 8102 C 786.119 -2.01996 -0.0648775 0
M  V30 8103 C 786.44 -1.36819 -1.38945 0
M  V30 8104 O 785.71 -0.518163 -1.88923 0
M  V30 8105 H 784.29 -0.746513 -0.0269662 0
M  V30 8106 H 786.952 -1.84136 0.638733 0
M  V30 8107 H 786.048 -3.11418 -0.20617 0
M  V30 8108 N 786.349 -0.21828 -1.56081 0
M  V30 8109 C 787.259 0.704602 -2.23769 0
M  V30 8110 C 788.275 1.21633 -1.24425 0
M  V30 8111 O 789.451 1.25862 -1.57228 0
M  V30 8112 C 786.516 1.89725 -2.90182 0
M  V30 8113 C 785.577 1.42782 -4.0486 0
M  V30 8114 C 784.81 2.56361 -4.68097 0
M  V30 8115 O 785.033 3.74417 -4.30312 0
M  V30 8116 O 783.967 2.2775 -5.57148 0
M  V30 8117 H 787.793 0.158007 -3.03289 0
M  V30 8118 H 785.378 0.0120279 -1.49395 0
M  V30 8119 H 787.26 2.59382 -3.32113 0
M  V30 8120 H 785.935 2.432 -2.13624 0
M  V30 8121 H 784.842 0.699359 -3.67505 0
M  V30 8122 H 786.175 0.939474 -4.83151 0
M  V30 8123 N 787.827 1.57504 0.0551401 0
M  V30 8124 C 788.775 2.05884 1.08233 0
M  V30 8125 C 789.769 0.967383 1.39061 0
M  V30 8126 O 790.975 1.15242 1.38273 0
M  V30 8127 H 787.35 0.656673 0.366449 0
M  V30 8128 H 789.321 2.91273 0.648269 0
M  V30 8129 C 788.07 2.53221 2.38273 0
M  V30 8130 H 787.393 3.36809 2.15406 0
M  V30 8131 H 788.833 2.9081 3.08554 0
M  V30 8132 C 787.292 1.42218 3.05411 0
M  V30 8133 O 787.822 0.773638 3.9418 0
M  V30 8134 N 786.028 1.16316 2.66306 0
M  V30 8135 H 785.575 1.69237 1.94207 0
M  V30 8136 H 785.533 0.422534 3.11548 0
M  V30 8137 N 789.305 -0.326896 1.54172 0
M  V30 8138 C 790.252 -1.40216 1.83325 0
M  V30 8139 C 791.222 -1.51538 0.680107 0
M  V30 8140 O 792.407 -1.66811 0.926206 0
M  V30 8141 C 789.547 -2.76626 2.0633 0
M  V30 8142 C 788.66 -2.73963 3.34019 0
M  V30 8143 C 787.795 -4.02198 3.47002 0
M  V30 8144 C 786.834 -3.93828 4.68578 0
M  V30 8145 N 785.971 -5.13787 4.78506 0
M  V30 8146 H 790.811 -1.14656 2.7506 0
M  V30 8147 H 788.348 -0.555089 1.36225 0
M  V30 8148 H 790.306 -3.55922 2.17659 0
M  V30 8149 H 788.936 -3.00503 1.1789 0
M  V30 8150 H 787.988 -1.86677 3.31445 0
M  V30 8151 H 789.3 -2.6366 4.2342 0
M  V30 8152 H 788.454 -4.89923 3.57855 0
M  V30 8153 H 787.193 -4.15302 2.55687 0
M  V30 8154 H 786.198 -3.04487 4.57786 0
M  V30 8155 H 787.423 -3.82292 5.61275 0
M  V30 8156 H 785.369 -5.27403 3.90105 0
M  V30 8157 H 785.286 -5.05807 5.61868 0
M  V30 8158 H 786.554 -6.03236 4.93686 0
M  V30 8159 N 790.784 -1.46188 -0.588786 0
M  V30 8160 C 792.024 -1.52738 -1.35833 0
M  V30 8161 C 792.388 -0.172403 -1.91224 0
M  V30 8162 O 793.589 -0.112633 -2.68564 0
M  V30 8163 C 791.86 -2.59085 -2.4619 0
M  V30 8164 S 793.419 -2.84997 -3.3365 0
M  V30 8165 H 790.237 -0.539713 -0.462851 0
M  V30 8166 H 792.839 -1.83386 -0.677489 0
M  V30 8167 H 791.543 -3.56177 -2.03878 0
M  V30 8168 H 791.074 -2.3015 -3.19053 0
M  V30 8169 H 793.089 -2.19804 -4.4486 0
M  V30 8170 N 792.262 0.832906 -1.33792 0
M  V30 8171 C 793.508 1.59089 -1.25772 0
M  V30 8172 C 793.841 1.93414 0.174601 0
M  V30 8173 O 793.116 1.59195 1.11746 0
M  V30 8174 C 793.399 2.89699 -2.13885 0
M  V30 8175 C 793.252 2.62017 -3.65605 0
M  V30 8176 C 794.571 3.91182 -2.01654 0
M  V30 8177 H 791.69 0.577232 -0.458227 0
M  V30 8178 H 794.332 0.960227 -1.6395 0
M  V30 8179 H 792.482 3.4352 -1.81456 0
M  V30 8180 H 794.154 2.14582 -4.08353 0
M  V30 8181 H 792.397 1.95621 -3.87189 0
M  V30 8182 H 793.068 3.55112 -4.2261 0
M  V30 8183 H 795.544 3.46684 -2.30107 0
M  V30 8184 H 794.42 4.80391 -2.65548 0
M  V30 8185 H 794.681 4.30861 -0.990536 0
M  V30 8186 N 793.74 1.17359 1.05189 0
M  V30 8187 C 795.151 0.96793 1.5965 0
M  V30 8188 C 795.502 -0.485355 1.90102 0
M  V30 8189 O 794.627 -1.36066 1.6827 0
M  V30 8190 C 795.222 1.75068 2.90063 0
M  V30 8191 C 793.781 1.58969 3.41183 0
M  V30 8192 C 792.928 1.75231 2.14917 0
M  V30 8193 H 795.879 1.32067 0.880001 0
M  V30 8194 H 795.9 1.23308 3.59966 0
M  V30 8195 H 795.412 2.80835 2.67868 0
M  V30 8196 H 793.513 0.556906 3.68415 0
M  V30 8197 H 793.626 2.38067 4.15766 0
M  V30 8198 H 791.99 1.18073 2.25679 0
M  V30 8199 H 792.773 2.8241 1.95191 0
M  V30 8200 N 795.218 -1.23913 0.973828 0
M  V30 8201 C 796.166 -2.27141 0.50098 0
M  V30 8202 C 797.16 -1.63623 -0.438631 0
M  V30 8203 O 798.366 -1.77253 -0.313247 0
M  V30 8204 H 794.741 -0.73817 0.14356 0
M  V30 8205 H 796.712 -2.64392 1.38346 0
M  V30 8206 C 795.461 -3.47195 -0.187377 0
M  V30 8207 H 794.784 -3.96318 0.526535 0
M  V30 8208 H 796.224 -4.21252 -0.481962 0
M  V30 8209 C 794.683 -3.05678 -1.41642 0
M  V30 8210 O 795.213 -3.1338 -2.51309 0
M  V30 8211 N 793.419 -2.60661 -1.28469 0
M  V30 8212 H 792.966 -2.54594 -0.39238 0
M  V30 8213 H 792.924 -2.33249 -2.10813 0
M  V30 8214 N 796.696 -0.74468 -1.38897 0
M  V30 8215 C 797.921 -0.306119 -2.05128 0
M  V30 8216 C 798.346 1.0541 -1.55789 0
M  V30 8217 O 797.704 1.66993 -0.705909 0
M  V30 8218 C 797.752 -0.328195 -3.59103 0
M  V30 8219 O 796.856 0.680876 -4.06741 0
M  V30 8220 H 796.197 -0.137209 -0.649669 0
M  V30 8221 H 798.727 -1.01331 -1.77745 0
M  V30 8222 H 798.737 -0.175956 -4.0762 0
M  V30 8223 H 797.412 -1.32067 -3.94374 0
M  V30 8224 H 795.989 0.49398 -3.69614 0
M  V30 8225 N 798.174 1.49689 -0.493057 0
M  V30 8226 C 799.122 2.30613 0.303383 0
M  V30 8227 C 800.116 1.38867 0.970165 0
M  V30 8228 O 801.322 1.55956 0.898761 0
M  V30 8229 H 797.697 0.742891 0.116691 0
M  V30 8230 H 799.668 2.95717 -0.39924 0
M  V30 8231 C 798.417 3.20008 1.35978 0
M  V30 8232 H 797.74 3.90526 0.856103 0
M  V30 8233 H 799.18 3.79586 1.88919 0
M  V30 8234 C 797.639 2.39079 2.37367 0
M  V30 8235 O 798.169 2.08933 3.43089 0
M  V30 8236 N 796.375 2.0125 2.09635 0
M  V30 8237 H 795.922 2.25966 1.23682 0
M  V30 8238 H 795.88 1.47408 2.77702 0
M  V30 8239 N 799.652 0.226554 1.55963 0
M  V30 8240 C 800.562 -0.692725 2.24139 0
M  V30 8241 C 801.578 -1.20971 1.25068 0
M  V30 8242 O 802.754 -1.25027 1.57893 0
M  V30 8243 C 799.819 -1.88183 2.91184 0
M  V30 8244 C 798.88 -1.40633 4.05612 0
M  V30 8245 C 798.113 -2.53875 4.6945 0
M  V30 8246 O 798.336 -3.72129 4.32292 0
M  V30 8247 O 797.27 -2.24792 5.58348 0
M  V30 8248 H 801.096 -0.141921 3.03368 0
M  V30 8249 H 798.681 -0.0041049 1.49399 0
M  V30 8250 H 800.563 -2.57617 3.33484 0
M  V30 8251 H 799.238 -2.42064 2.14911 0
M  V30 8252 H 798.145 -0.67986 3.67871 0
M  V30 8253 H 799.478 -0.913838 4.83642 0
M  V30 8254 N 801.13 -1.57531 -0.0467866 0
M  V30 8255 C 802.546 -1.54451 -0.402107 0
M  V30 8256 C 802.746 -0.950275 -1.77685 0
M  V30 8257 O 801.802 -0.563602 -2.4613 0
M  V30 8258 C 803.115 -2.9899 -0.320212 0
M  V30 8259 C 804.663 -3.10452 -0.398588 0
M  V30 8260 C 805.138 -4.56689 -0.346335 0
M  V30 8261 N 806.629 -4.6142 -0.405666 0
M  V30 8262 C 807.364 -5.72087 -0.387845 0
M  V30 8263 N 806.86 -6.92045 -0.32336 0
M  V30 8264 N 808.653 -5.60404 -0.436263 0
M  V30 8265 H 800.804 -1.94515 0.853087 0
M  V30 8266 H 803.067 -0.891397 0.322669 0
M  V30 8267 H 802.773 -3.46124 0.623794 0
M  V30 8268 H 802.647 -3.60164 -1.1208 0
M  V30 8269 H 805.034 -2.63276 -1.33302 0
M  V30 8270 H 805.115 -2.52142 0.431026 0
M  V30 8271 H 804.759 -5.04527 0.584356 0
M  V30 8272 H 804.689 -5.12889 -1.19382 0
M  V30 8273 H 807.18 -3.75105 -0.458737 0
M  V30 8274 H 807.493 -7.7216 -0.314375 0
M  V30 8275 H 805.838 -6.94396 -0.28967 0
M  V30 8276 H 809.029 -4.65586 -0.48451 0
M  V30 8277 H 809.202 -6.46645 -0.418907 0
M  V30 8278 N 802.608 0.318715 -1.54344 0
M  V30 8279 C 803.838 1.07394 -1.76494 0
M  V30 8280 C 804.246 1.82031 -0.515881 0
M  V30 8281 O 803.589 1.7609 0.52325 0
M  V30 8282 C 803.651 2.11401 -2.90775 0
M  V30 8283 C 803.315 1.56118 -4.29507 0
M  V30 8284 C 804.312 1.00043 -5.10184 0
M  V30 8285 C 801.997 1.60215 -4.76063 0
M  V30 8286 C 803.991 0.487993 -6.35529 0
M  V30 8287 C 801.678 1.08584 -6.01376 0
M  V30 8288 C 802.676 0.529714 -6.80943 0
M  V30 8289 O 802.364 0.0211823 -8.03897 0
M  V30 8290 H 802.096 0.325061 -0.592715 0
M  V30 8291 H 804.65 0.36901 -2.02058 0
M  V30 8292 H 802.88 2.85524 -2.60793 0
M  V30 8293 H 804.569 2.72683 -3.00664 0
M  V30 8294 H 805.335 0.961811 -4.75367 0
M  V30 8295 H 801.214 2.02441 -4.14172 0
M  V30 8296 H 804.758 0.0532608 -6.9758 0
M  V30 8297 H 800.655 1.12155 -6.35682 0
M  V30 8298 H 801.423 0.136151 -8.18387 0
M  V30 8299 N 804.086 1.46499 0.581025 0
M  V30 8300 C 805.316 1.55244 1.36319 0
M  V30 8301 C 805.724 0.193059 1.88212 0
M  V30 8302 O 805.067 -0.820109 1.64377 0
M  V30 8303 C 805.129 2.498 2.58535 0
M  V30 8304 C 804.793 3.96007 2.28096 0
M  V30 8305 C 805.79 4.85171 1.8683 0
M  V30 8306 C 803.475 4.41152 2.40189 0
M  V30 8307 C 805.469 6.17493 1.58053 0
M  V30 8308 C 803.156 5.73508 2.11024 0
M  V30 8309 C 804.154 6.615 1.70021 0
M  V30 8310 O 803.842 7.914 1.41215 0
M  V30 8311 H 803.574 0.527513 0.422736 0
M  V30 8312 H 806.128 1.92623 0.713139 0
M  V30 8313 H 804.358 2.07443 3.2635 0
M  V30 8314 H 806.047 2.48934 3.20604 0
M  V30 8315 H 806.813 4.51548 1.77001 0
M  V30 8316 H 802.692 3.72886 2.71066 0
M  V30 8317 H 806.236 6.86131 1.25974 0
M  V30 8318 H 802.133 6.06679 2.20478 0
M  V30 8319 H 802.901 8.03681 1.55046 0
M  V30 8320 N 805.565 -0.825799 1.34232 0
M  V30 8321 C 806.813 -1.57873 1.26177 0
M  V30 8322 C 807.134 -1.94267 -0.168904 0
M  V30 8323 O 806.404 -1.62045 -1.10084 0
M  V30 8324 H 804.984 -0.585388 0.464037 0
M  V30 8325 H 807.646 -0.986163 1.6811 0
M  V30 8326 H 806.742 -2.50283 1.86453 0
M  V30 8327 N 807.043 -1.17915 -1.04565 0
M  V30 8328 C 808.273 -0.994716 -1.81077 0
M  V30 8329 C 808.681 0.460146 -1.83519 0
M  V30 8330 O 808.024 1.33136 -1.26572 0
M  V30 8331 C 808.086 -1.46698 -3.28207 0
M  V30 8332 C 807.75 -2.94523 -3.49436 0
M  V30 8333 C 808.747 -3.92414 -3.41038 0
M  V30 8334 C 806.432 -3.32841 -3.76194 0
M  V30 8335 C 808.426 -5.2662 -3.59096 0
M  V30 8336 C 806.113 -4.67212 -3.93899 0
M  V30 8337 C 807.111 -5.6391 -3.8535 0
M  V30 8338 O 806.799 -6.95849 -4.02554 0
M  V30 8339 H 806.531 -0.351797 -0.577248 0
M  V30 8340 H 809.085 -1.56772 -1.32709 0
M  V30 8341 H 807.315 -0.837592 -3.7752 0
M  V30 8342 H 809.004 -1.24724 -3.86263 0
M  V30 8343 H 809.77 -3.64157 -3.20336 0
M  V30 8344 H 805.649 -2.58139 -3.81949 0
M  V30 8345 H 809.193 -6.02082 -3.52339 0
M  V30 8346 H 805.09 -4.95172 -4.14095 0
M  V30 8347 H 805.858 -7.02679 -4.19743 0
M  V30 8348 N 808.521 1.23394 -0.980386 0
M  V30 8349 C 809.749 1.95844 -0.667286 0
M  V30 8350 C 810.164 1.72574 0.765735 0
M  V30 8351 O 809.521 1.01715 1.51526 0
M  V30 8352 C 809.572 3.48844 -0.948151 0
M  V30 8353 O 809.293 3.71325 -2.32485 0
M  V30 8354 C 810.794 4.38494 -0.651002 0
M  V30 8355 H 808.014 0.623535 -0.247882 0
M  V30 8356 H 810.558 1.56885 -1.31176 0
M  V30 8357 H 808.713 3.85819 -0.349681 0
M  V30 8358 H 809.127 4.65619 -2.41452 0
M  V30 8359 H 810.601 5.44648 -0.897887 0
M  V30 8360 H 811.078 4.37236 0.414922 0
M  V30 8361 H 811.684 4.07127 -1.22995 0
M  V30 8362 N 809.999 0.752036 1.385 0
M  V30 8363 C 811.247 0.306895 1.99756 0
M  V30 8364 C 811.568 -1.11478 1.59992 0
M  V30 8365 O 810.838 -1.76206 0.856045 0
M  V30 8366 H 809.418 0.11048 0.738785 0
M  V30 8367 H 812.08 0.965785 1.69289 0
M  V30 8368 H 811.176 0.368797 3.09913 0
M  V30 8369 N 811.477 -1.49425 0.500989 0
M  V30 8370 C 812.44 -2.27646 -0.266416 0
M  V30 8371 C 813.44 -1.3366 -0.893961 0
M  V30 8372 O 814.63 -1.5682 -0.758495 0
M  V30 8373 C 811.762 -3.11618 -1.38227 0
M  V30 8374 H 812.955 -2.96945 0.419973 0
M  V30 8375 H 810.508 -1.5419 0.255954 0
M  V30 8376 H 811.243 -2.46885 -2.10281 0
M  V30 8377 H 811.028 -3.80721 -0.937746 0
M  V30 8378 H 812.518 -3.70698 -1.92283 0
M  V30 8379 N 812.955 -0.234822 -1.55841 0
M  V30 8380 C 814.202 0.39326 -1.98645 0
M  V30 8381 C 814.53 1.58823 -1.12274 0
M  V30 8382 O 813.785 1.94954 -0.170731 0
M  V30 8383 C 814.084 0.858032 -3.46947 0
M  V30 8384 C 813.75 -0.227858 -4.50324 0
M  V30 8385 C 812.412 -0.526128 -4.78315 0
M  V30 8386 C 814.764 -0.961576 -5.12253 0
M  V30 8387 C 812.092 -1.5624 -5.65514 0
M  V30 8388 C 814.444 -1.98728 -6.00575 0
M  V30 8389 C 813.108 -2.29233 -6.26904 0
M  V30 8390 H 812.378 0.143904 -0.726892 0
M  V30 8391 H 815.025 -0.34012 -1.88455 0
M  V30 8392 H 813.33 1.67041 -3.54408 0
M  V30 8393 H 815.027 1.35407 -3.77447 0
M  V30 8394 H 811.617 0.0147624 -4.28597 0
M  V30 8395 H 815.801 -0.744388 -4.90686 0
M  V30 8396 H 811.057 -1.80422 -5.84173 0
M  V30 8397 H 815.231 -2.5608 -6.47608 0
M  V30 8398 H 812.858 -3.09671 -6.94268 0
M  V30 8399 N 814.433 1.57553 0.0384317 0
M  V30 8400 C 815.849 1.54663 0.39391 0
M  V30 8401 C 816.049 0.959685 1.77179 0
M  V30 8402 O 815.105 0.576647 2.45827 0
M  V30 8403 C 816.418 2.99156 0.304352 0
M  V30 8404 C 817.966 3.10659 0.382119 0
M  V30 8405 C 818.441 4.56866 0.322111 0
M  V30 8406 N 819.932 4.61629 0.38119 0
M  V30 8407 C 820.667 5.72284 0.357501 0
M  V30 8408 N 820.163 6.92207 0.286654 0
M  V30 8409 N 821.956 5.60628 0.406538 0
M  V30 8410 H 814.107 1.9406 -0.86339 0
M  V30 8411 H 816.37 0.889673 -0.327392 0
M  V30 8412 H 816.076 3.45788 -0.642141 0
M  V30 8413 H 815.95 3.60753 1.10168 0
M  V30 8414 H 818.337 2.6398 1.31904 0
M  V30 8415 H 818.418 2.5191 -0.444391 0
M  V30 8416 H 818.062 5.0421 -0.611104 0
M  V30 8417 H 817.992 5.13515 1.1666 0
M  V30 8418 H 820.483 3.75343 0.438838 0
M  V30 8419 H 820.796 7.72316 0.273421 0
M  V30 8420 H 819.141 6.9454 0.252841 0
M  V30 8421 H 822.332 4.65836 0.459812 0
M  V30 8422 H 822.505 6.46858 0.384608 0
M  V30 8423 N 815.911 -0.310526 1.54511 0
M  V30 8424 C 817.151 -1.05498 1.7507 0
M  V30 8425 C 817.515 -1.84814 0.520381 0
M  V30 8426 O 818.716 -2.61937 0.603547 0
M  V30 8427 C 816.987 -1.94466 2.99863 0
M  V30 8428 S 818.546 -2.75686 3.41383 0
M  V30 8429 H 815.364 -0.355951 0.615483 0
M  V30 8430 H 817.966 -0.329464 1.92704 0
M  V30 8431 H 816.67 -1.35055 3.87541 0
M  V30 8432 H 816.201 -2.71401 2.84789 0
M  V30 8433 H 818.216 -3.96971 2.97706 0
M  V30 8434 N 817.389 -1.46805 -0.573248 0
M  V30 8435 C 818.319 -1.60951 -1.69165 0
M  V30 8436 C 819.3 -0.45948 -1.63777 0
M  V30 8437 O 820.485 -0.68688 -1.81647 0
M  V30 8438 C 817.615 -1.60844 -3.07809 0
M  V30 8439 C 816.569 -2.74913 -3.28035 0
M  V30 8440 C 815.895 -2.59871 -4.67302 0
M  V30 8441 C 817.195 -4.16654 -3.14955 0
M  V30 8442 H 818.889 -2.54574 -1.57582 0
M  V30 8443 H 816.435 -1.22516 -0.756686 0
M  V30 8444 H 818.388 -1.69334 -3.85881 0
M  V30 8445 H 817.112 -0.637714 -3.20314 0
M  V30 8446 H 815.771 -2.65908 -2.52366 0
M  V30 8447 H 815.419 -1.60861 -4.76585 0
M  V30 8448 H 815.119 -3.36386 -4.81786 0
M  V30 8449 H 816.643 -2.70265 -5.4753 0
M  V30 8450 H 818.057 -4.26721 -3.82861 0
M  V30 8451 H 816.454 -4.93831 -3.40956 0
M  V30 8452 H 817.524 -4.36146 -2.11908 0
M  V30 8453 N 818.867 0.818669 -1.34668 0
M  V30 8454 C 819.83 1.9114 -1.26483 0
M  V30 8455 C 820.83 1.598 -0.179044 0
M  V30 8456 O 822.02 1.6876 -0.431952 0
M  V30 8457 C 819.152 3.27285 -0.95381 0
M  V30 8458 H 820.345 1.9982 -2.23634 0
M  V30 8459 H 817.898 1.01314 -1.19018 0
M  V30 8460 H 818.633 3.24297 0.0143428 0
M  V30 8461 H 818.418 3.51416 -1.73924 0
M  V30 8462 H 819.908 4.07299 -0.921827 0
M  V30 8463 N 820.346 1.18468 1.03938 0
M  V30 8464 C 821.256 0.927889 2.1547 0
M  V30 8465 C 822.272 -0.108447 1.73662 0
M  V30 8466 O 823.448 0.0737636 2.01265 0
M  V30 8467 C 820.513 0.458494 3.43655 0
M  V30 8468 C 819.574 1.56295 3.99838 0
M  V30 8469 C 818.807 1.11586 5.21904 0
M  V30 8470 O 819.03 -0.0249057 5.70395 0
M  V30 8471 O 817.964 1.91412 5.70653 0
M  V30 8472 H 821.79 1.86116 2.39989 0
M  V30 8473 H 819.375 0.966607 1.13917 0
M  V30 8474 H 821.257 0.204861 4.20902 0
M  V30 8475 H 819.932 -0.446464 3.20606 0
M  V30 8476 H 818.839 1.87061 3.23974 0
M  V30 8477 H 820.172 2.44408 4.2723 0
M  V30 8478 N 821.824 -1.22873 0.986916 0
M  V30 8479 C 822.772 -2.26597 0.525043 0
M  V30 8480 C 823.766 -1.64079 -0.421252 0
M  V30 8481 O 824.972 -1.77576 -0.294429 0
M  V30 8482 H 821.347 -0.736606 0.151381 0
M  V30 8483 H 823.318 -2.62909 1.41142 0
M  V30 8484 C 822.067 -3.47374 -0.150542 0
M  V30 8485 H 821.39 -3.95737 0.568541 0
M  V30 8486 H 822.83 -4.21739 -0.437256 0
M  V30 8487 C 821.289 -3.07163 -1.38392 0
M  V30 8488 O 821.819 -3.16028 -2.47971 0
M  V30 8489 N 820.025 -2.62009 -1.25697 0
M  V30 8490 H 819.572 -2.54996 -0.365355 0
M  V30 8491 H 819.53 -2.35472 -2.08327 0
M  V30 8492 N 823.302 -0.75937 -1.38099 0
M  V30 8493 C 824.265 -0.14372 -2.28749 0
M  V30 8494 C 825.265 0.641338 -1.47457 0
M  V30 8495 O 826.455 0.466751 -1.67831 0
M  V30 8496 C 823.587 0.804545 -3.3127 0
M  V30 8497 H 824.78 -0.942663 -2.847 0
M  V30 8498 H 822.333 -0.526757 -1.47156 0
M  V30 8499 H 823.068 1.62895 -2.80421 0
M  V30 8500 H 822.853 0.243939 -3.9134 0
M  V30 8501 H 824.343 1.23111 -3.99041 0
M  V30 8502 N 824.78 1.49157 -0.508906 0
M  V30 8503 C 826.028 2.02073 0.0327335 0
M  V30 8504 C 826.349 1.39012 1.3675 0
M  V30 8505 O 825.619 0.548153 1.88075 0
M  V30 8506 H 824.199 0.746848 0.0150864 0
M  V30 8507 H 826.861 1.83097 -0.667946 0
M  V30 8508 H 825.957 3.11707 0.1566 0
M  V30 8509 N 826.258 0.243083 1.55714 0
M  V30 8510 C 827.535 -0.432851 1.90751 0
M  V30 8511 C 827.915 -1.76153 1.16333 0
M  V30 8512 O 827.263 -2.26783 0.279565 0
M  V30 8513 C 827.473 -0.604685 3.43722 0
M  V30 8514 C 828.821 -0.90231 4.14902 0
M  V30 8515 O 829.845 -0.690689 3.49439 0
M  V30 8516 O 828.704 -1.3051 5.30688 0
M  V30 8517 H 825.798 -0.231835 0.79384 0
M  V30 8518 H 828.344 0.286867 1.67258 0
M  V30 8519 H 827.116 0.331655 3.89892 0
M  V30 8520 H 826.739 -1.37509 3.73065 0
M  V30 8521 N 827.736 -1.57571 -0.0300757 0
M  V30 8522 C 828.982 -1.89506 -0.722159 0
M  V30 8523 C 829.315 -0.840699 -1.7506 0
M  V30 8524 O 828.59 0.144358 -1.93964 0
M  V30 8525 C 828.873 -3.32081 -1.39262 0
M  V30 8526 C 828.726 -4.48211 -0.377768 0
M  V30 8527 C 830.045 -3.73557 -2.32687 0
M  V30 8528 H 827.164 -0.689213 -0.261064 0
M  V30 8529 H 829.806 -1.89994 0.0150388 0
M  V30 8530 H 827.956 -3.31796 -2.02098 0
M  V30 8531 H 829.628 -4.6063 0.248591 0
M  V30 8532 H 827.871 -4.3274 0.303045 0
M  V30 8533 H 828.542 -5.44854 -0.885347 0
M  V30 8534 H 831.018 -3.75202 -1.79896 0
M  V30 8535 H 829.894 -4.74125 -2.7658 0
M  V30 8536 H 830.155 -3.05759 -3.19317 0
M  V30 8537 N 829.214 0.302327 -1.54673 0
M  V30 8538 C 830.177 1.35592 -1.8479 0
M  V30 8539 C 831.177 1.43743 -0.72073 0
M  V30 8540 O 832.367 1.43402 -0.989017 0
M  V30 8541 C 829.499 2.74091 -2.02699 0
M  V30 8542 H 830.692 1.10132 -2.78946 0
M  V30 8543 H 828.245 0.538926 -1.46715 0
M  V30 8544 H 828.98 3.04775 -1.10826 0
M  V30 8545 H 828.765 2.69565 -2.8474 0
M  V30 8546 H 830.255 3.50272 -2.27374 0
M  V30 8547 N 830.692 1.47107 0.565454 0
M  V30 8548 C 831.939 1.53308 1.32299 0
M  V30 8549 C 832.267 0.1919 1.93551 0
M  V30 8550 O 831.522 -0.81435 1.77952 0
M  V30 8551 C 831.821 2.59309 2.45954 0
M  V30 8552 C 831.487 4.02827 2.02586 0
M  V30 8553 C 830.149 4.41897 1.90474 0
M  V30 8554 C 832.501 4.92913 1.6937 0
M  V30 8555 C 829.829 5.68898 1.4343 0
M  V30 8556 C 832.181 6.20368 1.238 0
M  V30 8557 C 830.845 6.58327 1.10278 0
M  V30 8558 H 830.115 0.560993 0.484116 0
M  V30 8559 H 832.762 1.80667 0.634965 0
M  V30 8560 H 831.067 2.25676 3.20277 0
M  V30 8561 H 832.764 2.61332 3.04149 0
M  V30 8562 H 829.354 3.71953 2.12952 0
M  V30 8563 H 833.538 4.63433 1.77605 0
M  V30 8564 H 828.794 5.97065 1.31618 0
M  V30 8565 H 832.968 6.89589 0.971586 0
M  V30 8566 H 830.595 7.56628 0.736027 0
M  V30 8567 N 832.17 -0.811516 1.35101 0
M  V30 8568 C 833.416 -1.57068 1.28287 0
M  V30 8569 C 833.749 -1.93667 -0.143808 0
M  V30 8570 O 833.024 -1.60953 -1.09199 0
M  V30 8571 C 833.307 -2.86259 2.18466 0
M  V30 8572 C 833.16 -2.56168 3.69727 0
M  V30 8573 C 834.479 -3.87924 2.07852 0
M  V30 8574 H 831.598 -0.569869 0.467353 0
M  V30 8575 H 834.24 -0.934023 1.65457 0
M  V30 8576 H 832.39 -3.4059 1.86898 0
M  V30 8577 H 834.062 -2.08059 4.11715 0
M  V30 8578 H 832.305 -1.89436 3.90252 0
M  V30 8579 H 832.976 -3.48344 4.28206 0
M  V30 8580 H 835.452 -3.4298 2.35593 0
M  V30 8581 H 834.328 -4.76106 2.73157 0
M  V30 8582 H 834.589 -4.2923 1.05896 0
M  V30 8583 N 833.648 -1.19017 -1.03309 0
M  V30 8584 C 834.595 -0.924088 -2.11493 0
M  V30 8585 C 835.565 0.139464 -1.65513 0
M  V30 8586 O 836.75 -0.00178761 -1.908 0
M  V30 8587 C 833.89 -0.464255 -3.41963 0
M  V30 8588 C 833.003 -1.5941 -4.01513 0
M  V30 8589 C 832.138 -1.08622 -5.19976 0
M  V30 8590 C 831.177 -2.19024 -5.71572 0
M  V30 8591 N 830.314 -1.69575 -6.81314 0
M  V30 8592 H 835.154 -1.85039 -2.33591 0
M  V30 8593 H 832.691 -0.922593 -1.14572 0
M  V30 8594 H 834.649 -0.179078 -4.16815 0
M  V30 8595 H 833.279 0.425062 -3.19989 0
M  V30 8596 H 832.331 -1.99458 -3.23915 0
M  V30 8597 H 833.643 -2.42604 -4.35826 0
M  V30 8598 H 832.797 -0.756022 -6.01971 0
M  V30 8599 H 831.536 -0.223955 -4.87186 0
M  V30 8600 H 830.541 -2.5288 -4.88193 0
M  V30 8601 H 831.766 -3.05699 -6.06403 0
M  V30 8602 H 829.712 -0.856494 -6.50385 0
M  V30 8603 H 829.629 -2.46361 -7.14732 0
M  V30 8604 H 830.897 -1.39505 -7.66915 0
M  V30 8605 N 835.127 1.22348 -0.993418 0
M  V30 8606 C 836.404 1.86632 -0.585495 0
M  V30 8607 C 836.784 1.89156 0.937187 0
M  V30 8608 O 836.132 1.38247 1.81934 0
M  V30 8609 C 836.342 3.27481 -1.20652 0
M  V30 8610 C 837.69 4.03971 -1.30738 0
M  V30 8611 O 838.714 3.3675 -1.16096 0
M  V30 8612 O 837.573 5.24302 -1.54173 0
M  V30 8613 H 834.667 0.802704 -0.198984 0
M  V30 8614 H 837.213 1.30122 -1.08933 0
M  V30 8615 H 835.985 3.20281 -2.24802 0
M  V30 8616 H 835.608 3.91597 -0.688312 0
M  V30 8617 N 836.605 0.766683 1.37694 0
M  V30 8618 C 837.851 0.329201 2.0011 0
M  V30 8619 C 838.184 -1.09004 1.60723 0
M  V30 8620 O 837.459 -1.74895 0.850989 0
M  V30 8621 C 837.742 0.466989 3.57059 0
M  V30 8622 C 837.595 1.92828 4.06371 0
M  V30 8623 C 838.914 -0.131792 4.39903 0
M  V30 8624 H 836.033 0.12109 0.726984 0
M  V30 8625 H 838.675 0.968779 1.63446 0
M  V30 8626 H 836.825 -0.0775023 3.88423 0
M  V30 8627 H 838.497 2.53208 3.85595 0
M  V30 8628 H 836.74 2.43884 3.58752 0
M  V30 8629 H 837.411 1.97577 5.15429 0
M  V30 8630 H 839.887 0.332731 4.14768 0
M  V30 8631 H 838.763 -0.005217 5.489 0
M  V30 8632 H 839.024 -1.22156 4.24889 0
M  V30 8633 N 838.083 -1.48885 0.516809 0
M  V30 8634 C 839.311 -2.06892 -0.0184017 0
M  V30 8635 C 839.726 -1.37511 -1.29368 0
M  V30 8636 O 839.083 -0.458409 -1.76649 0
M  V30 8637 C 839.134 -3.60566 -0.259673 0
M  V30 8638 O 838.855 -4.27338 0.965065 0
M  V30 8639 C 840.356 -4.35331 -0.836751 0
M  V30 8640 H 837.576 -0.670433 0.0275743 0
M  V30 8641 H 840.12 -1.91455 0.718689 0
M  V30 8642 H 838.275 -3.75653 -0.94678 0
M  V30 8643 H 838.689 -5.19287 0.737647 0
M  V30 8644 H 840.163 -5.43675 -0.955065 0
M  V30 8645 H 840.64 -3.9887 -1.83845 0
M  V30 8646 H 841.246 -4.2489 -0.186622 0
M  V30 8647 N 839.561 -0.251338 -1.55583 0
M  V30 8648 C 840.807 0.37272 -1.99346 0
M  V30 8649 C 841.14 1.57266 -1.13934 0
M  V30 8650 O 840.415 1.9343 -0.20377 0
M  V30 8651 C 840.698 0.778245 -3.5159 0
M  V30 8652 C 840.551 -0.427394 -4.47765 0
M  V30 8653 C 841.87 1.62358 -4.09057 0
M  V30 8654 H 838.989 0.134002 -0.724715 0
M  V30 8655 H 841.631 -0.353536 -1.86682 0
M  V30 8656 H 839.781 1.39704 -3.62512 0
M  V30 8657 H 841.453 -1.06586 -4.48818 0
M  V30 8658 H 839.696 -1.06972 -4.20404 0
M  V30 8659 H 840.367 -0.10025 -5.51909 0
M  V30 8660 H 842.843 1.1012 -4.01264 0
M  V30 8661 H 841.719 1.87617 -5.1584 0
M  V30 8662 H 841.98 2.59688 -3.57791 0
M  V30 8663 N 841.039 1.57585 0.0217189 0
M  V30 8664 C 841.969 2.10073 1.01939 0
M  V30 8665 C 842.95 1.0049 1.37243 0
M  V30 8666 O 844.135 1.28055 1.45999 0
M  V30 8667 C 841.265 2.58618 2.31806 0
M  V30 8668 C 840.219 3.72531 2.10724 0
M  V30 8669 C 839.545 4.07309 3.46415 0
M  V30 8670 C 840.845 5.00672 1.48743 0
M  V30 8671 H 842.539 2.9368 0.582432 0
M  V30 8672 H 840.085 1.41277 0.278715 0
M  V30 8673 H 842.038 2.9396 3.01936 0
M  V30 8674 H 840.762 1.72104 2.77575 0
M  V30 8675 H 839.421 3.37549 1.43025 0
M  V30 8676 H 839.069 3.17851 3.89846 0
M  V30 8677 H 838.769 4.84042 3.33132 0
M  V30 8678 H 840.293 4.45192 4.17895 0
M  V30 8679 H 841.707 5.33925 2.088 0
M  V30 8680 H 840.104 5.82065 1.46013 0
M  V30 8681 H 841.174 4.82769 0.45408 0
M  V30 8682 N 842.517 -0.29412 1.54831 0
M  V30 8683 C 843.449 -1.38476 1.82639 0
M  V30 8684 C 844.462 -1.46517 0.709694 0
M  V30 8685 O 845.651 -1.48712 0.987269 0
M  V30 8686 C 842.751 -2.76791 1.95551 0
M  V30 8687 C 841.924 -2.91599 3.26019 0
M  V30 8688 C 840.983 -4.10456 3.29261 0
M  V30 8689 O 840.009 -4.02214 4.02756 0
M  V30 8690 N 841.211 -5.21422 2.55145 0
M  V30 8691 H 843.976 -1.14974 2.76769 0
M  V30 8692 H 841.537 -0.484206 1.5449 0
M  V30 8693 H 843.529 -3.5456 1.95113 0
M  V30 8694 H 842.099 -2.93209 1.08384 0
M  V30 8695 H 841.319 -2.00886 3.39173 0
M  V30 8696 H 842.607 -2.98409 4.12104 0
M  V30 8697 H 842.005 -5.31 1.95078 0
M  V30 8698 H 840.562 -5.97501 2.60454 0
M  V30 8699 N 843.995 -1.47404 -0.557645 0
M  V30 8700 C 844.943 -1.60265 -1.68576 0
M  V30 8701 C 845.937 -0.469982 -1.6275 0
M  V30 8702 O 847.143 -0.647764 -1.67941 0
M  V30 8703 H 843.518 -0.504353 -0.557792 0
M  V30 8704 H 845.489 -2.55066 -1.54867 0
M  V30 8705 C 844.238 -1.63369 -3.0693 0
M  V30 8706 H 843.561 -2.49874 -3.12095 0
M  V30 8707 H 845.001 -1.76417 -3.85556 0
M  V30 8708 C 843.46 -0.366921 -3.34896 0
M  V30 8709 O 843.99 0.53218 -3.98159 0
M  V30 8710 N 842.196 -0.247082 -2.89548 0
M  V30 8711 H 841.743 -0.979669 -2.38244 0
M  V30 8712 H 841.701 0.599552 -3.0863 0
M  V30 8713 N 845.473 0.80434 -1.35529 0
M  V30 8714 C 846.701 1.59283 -1.32048 0
M  V30 8715 C 847.116 1.88527 0.101556 0
M  V30 8716 O 846.473 1.48975 1.05417 0
M  V30 8717 C 846.524 2.92276 -2.12737 0
M  V30 8718 O 846.245 2.64299 -3.49396 0
M  V30 8719 C 847.746 3.86631 -2.16867 0
M  V30 8720 H 844.966 0.494523 -0.453528 0
M  V30 8721 H 847.51 0.999415 -1.78415 0
M  V30 8722 H 845.665 3.48125 -1.69964 0
M  V30 8723 H 846.079 3.4923 -3.91329 0
M  V30 8724 H 847.553 4.77053 -2.77712 0
M  V30 8725 H 848.03 4.23384 -1.16803 0
M  V30 8726 H 848.636 3.36717 -2.59811 0
M  V30 8727 N 846.951 1.19563 1.02676 0
M  V30 8728 C 848.228 0.908857 1.73203 0
M  V30 8729 C 848.608 -0.584928 2.02834 0
M  V30 8730 O 847.956 -1.54372 1.68469 0
M  V30 8731 C 848.166 1.77105 3.00724 0
M  V30 8732 C 849.514 2.00667 3.7419 0
M  V30 8733 O 850.538 1.74274 3.10656 0
M  V30 8734 O 849.397 2.4518 4.88415 0
M  V30 8735 H 846.491 0.338909 0.754367 0
M  V30 8736 H 849.037 1.30387 1.08616 0
M  V30 8737 H 847.809 2.78303 2.7507 0
M  V30 8738 H 847.432 1.37546 3.73051 0
M  V30 8739 N 848.429 -1.21819 0.999893 0
M  V30 8740 C 849.677 -1.90375 0.678351 0
M  V30 8741 C 849.998 -1.78155 -0.792824 0
M  V30 8742 O 849.268 -1.17319 -1.56885 0
M  V30 8743 H 847.848 -0.704661 0.247915 0
M  V30 8744 H 850.51 -1.48021 1.2679 0
M  V30 8745 H 849.606 -2.97385 0.947023 0
M  V30 8746 N 849.908 -0.773975 -1.37286 0
M  V30 8747 C 850.856 -0.149581 -2.32119 0
M  V30 8748 C 851.85 0.682457 -1.55045 0
M  V30 8749 O 853.056 0.579269 -1.70424 0
M  V30 8750 H 849.431 -0.0295857 -0.751418 0
M  V30 8751 H 851.402 -0.965117 -2.82362 0
M  V30 8752 C 850.151 0.713409 -3.40302 0
M  V30 8753 H 849.474 0.0825416 -3.99715 0
M  V30 8754 H 850.914 1.11723 -4.09016 0
M  V30 8755 C 849.373 1.86498 -2.80571 0
M  V30 8756 O 849.903 2.9606 -2.71498 0
M  V30 8757 N 848.109 1.66629 -2.38082 0
M  V30 8758 H 847.656 0.775145 -2.45661 0
M  V30 8759 H 847.614 2.43845 -1.98461 0
M  V30 8760 N 851.386 1.48609 -0.524698 0
M  V30 8761 C 852.334 2.31205 0.254398 0
M  V30 8762 C 853.328 1.40894 0.940491 0
M  V30 8763 O 854.534 1.57827 0.865478 0
M  V30 8764 H 850.909 0.745199 0.100907 0
M  V30 8765 H 852.88 2.94804 -0.461876 0
M  V30 8766 C 851.629 3.2282 1.2916 0
M  V30 8767 H 850.952 3.92255 0.773074 0
M  V30 8768 H 852.392 3.83508 1.80825 0
M  V30 8769 C 850.851 2.4406 2.32242 0
M  V30 8770 O 851.381 2.16163 3.3858 0
M  V30 8771 N 849.587 2.05651 2.05319 0
M  V30 8772 H 849.134 2.28539 1.18861 0
M  V30 8773 H 849.092 1.53265 2.74513 0
M  V30 8774 N 852.864 0.259585 1.55447 0
M  V30 8775 C 853.812 -0.6507 2.23313 0
M  V30 8776 C 854.806 -1.17014 1.22491 0
M  V30 8777 O 856.012 -1.12557 1.40467 0
M  V30 8778 H 852.387 -0.228354 0.71649 0
M  V30 8779 H 854.358 -0.0553039 2.98349 0
M  V30 8780 C 853.107 -1.83081 2.95596 0
M  V30 8781 H 852.43 -1.44027 3.72956 0
M  V30 8782 H 853.87 -2.44469 3.46426 0
M  V30 8783 C 852.329 -2.70976 2.00184 0
M  V30 8784 O 852.859 -3.70882 1.54304 0
M  V30 8785 N 851.065 -2.37813 1.67014 0
M  V30 8786 H 850.612 -1.5662 2.04519 0
M  V30 8787 H 850.57 -2.96896 1.03443 0
M  V30 8788 N 854.342 -1.57594 -0.0133615 0
M  V30 8789 C 855.252 -2.10991 -1.02566 0
M  V30 8790 C 856.268 -1.05208 -1.3859 0
M  V30 8791 O 857.444 -1.37034 -1.47593 0
M  V30 8792 C 854.509 -2.59165 -2.30292 0
M  V30 8793 C 853.57 -3.79495 -2.00704 0
M  V30 8794 C 852.803 -4.25361 -3.22341 0
M  V30 8795 O 853.026 -3.70645 -4.33565 0
M  V30 8796 O 851.96 -5.17649 -3.07121 0
M  V30 8797 H 855.786 -2.97678 -0.601806 0
M  V30 8798 H 853.371 -1.47598 -0.23135 0
M  V30 8799 H 855.253 -2.90409 -3.05354 0
M  V30 8800 H 853.928 -1.75582 -2.71942 0
M  V30 8801 H 852.835 -3.53245 -1.23161 0
M  V30 8802 H 854.168 -4.64109 -1.639 0
M  V30 8803 N 855.82 0.285905 -1.54985 0
M  V30 8804 C 856.783 1.33625 -1.86218 0
M  V30 8805 C 857.783 1.42971 -0.735936 0
M  V30 8806 O 858.973 1.42345 -1.00417 0
M  V30 8807 C 856.105 2.71926 -2.05595 0
M  V30 8808 H 857.298 1.07167 -2.80099 0
M  V30 8809 H 854.851 0.523335 -1.47278 0
M  V30 8810 H 855.586 3.03583 -1.14053 0
M  V30 8811 H 855.371 2.6653 -2.87583 0
M  V30 8812 H 856.861 3.47841 -2.31077 0
M  V30 8813 N 857.298 1.47698 0.54982 0
M  V30 8814 C 858.544 1.55914 1.30624 0
M  V30 8815 C 858.899 0.221596 1.9112 0
M  V30 8816 O 858.192 -0.77351 1.75292 0
M  V30 8817 C 858.386 2.61903 2.4319 0
M  V30 8818 C 858.215 4.05833 1.93725 0
M  V30 8819 C 856.985 4.73199 1.77231 0
M  V30 8820 C 859.183 4.92624 1.47738 0
M  V30 8821 N 857.165 6.01618 1.22183 0
M  V30 8822 C 858.536 6.11129 1.04505 0
M  V30 8823 C 860.591 4.79006 1.35857 0
M  V30 8824 C 859.294 7.1752 0.505722 0
M  V30 8825 C 861.32 5.85501 0.833254 0
M  V30 8826 C 860.682 7.03201 0.410894 0
M  V30 8827 H 856.781 0.625194 0.469741 0
M  V30 8828 H 859.365 1.84485 0.622369 0
M  V30 8829 H 857.536 2.35188 3.09098 0
M  V30 8830 H 859.268 2.59919 3.102 0
M  V30 8831 H 856.023 4.29221 2.00166 0
M  V30 8832 H 856.447 6.70054 0.967263 0
M  V30 8833 H 861.089 3.88369 1.67122 0
M  V30 8834 H 858.807 8.07898 0.180721 0
M  V30 8835 H 862.393 5.77013 0.744781 0
M  V30 8836 H 861.273 7.84199 0.0107086 0
M  V30 8837 N 858.776 -0.797141 1.35954 0
M  V30 8838 C 859.739 -1.89104 1.29508 0
M  V30 8839 C 860.739 -1.59495 0.204444 0
M  V30 8840 O 861.929 -1.68051 0.458746 0
M  V30 8841 C 859.061 -3.25726 1.00576 0
M  V30 8842 H 860.254 -1.96237 2.26785 0
M  V30 8843 H 857.807 -0.994075 1.20614 0
M  V30 8844 H 858.542 -3.24279 0.0372519 0
M  V30 8845 H 858.327 -3.48604 1.79492 0
M  V30 8846 H 859.817 -4.0578 0.986508 0
M  V30 8847 N 860.254 -1.20106 -1.0204 0
M  V30 8848 C 861.201 -0.946468 -2.10501 0
M  V30 8849 C 862.171 0.121902 -1.65652 0
M  V30 8850 O 863.356 -0.0220244 -1.90787 0
M  V30 8851 C 860.496 -0.500499 -3.41451 0
M  V30 8852 C 859.609 -1.63659 -3.998 0
M  V30 8853 C 858.744 -1.14131 -5.18794 0
M  V30 8854 C 857.783 -2.25074 -5.69217 0
M  V30 8855 N 856.92 -1.76791 -6.79477 0
M  V30 8856 H 861.76 -1.87506 -2.31615 0
M  V30 8857 H 859.297 -0.934693 -1.13587 0
M  V30 8858 H 861.255 -0.223276 -4.16602 0
M  V30 8859 H 859.885 0.391099 -3.20422 0
M  V30 8860 H 858.937 -2.02882 -3.21781 0
M  V30 8861 H 860.249 -2.47213 -4.33229 0
M  V30 8862 H 859.403 -0.819826 -6.01135 0
M  V30 8863 H 858.142 -0.275615 -4.86921 0
M  V30 8864 H 857.147 -2.58043 -4.85483 0
M  V30 8865 H 858.372 -3.12114 -6.03127 0
M  V30 8866 H 856.318 -0.925428 -6.4944 0
M  V30 8867 H 856.235 -2.53928 -7.12079 0
M  V30 8868 H 857.503 -1.47631 -7.65392 0
M  V30 8869 N 861.732 1.21287 -1.00634 0
M  V30 8870 C 863.009 1.86 -0.605257 0
M  V30 8871 C 863.389 1.90139 0.917072 0
M  V30 8872 O 862.737 1.40169 1.80458 0
M  V30 8873 C 862.947 3.26183 -1.24119 0
M  V30 8874 C 864.295 4.02562 -1.35015 0
M  V30 8875 O 865.319 3.35499 -1.19661 0
M  V30 8876 O 864.178 5.22638 -1.59726 0
M  V30 8877 H 861.272 0.800549 -0.207486 0
M  V30 8878 H 863.818 1.28959 -1.10307 0
M  V30 8879 H 862.59 3.17878 -2.28186 0
M  V30 8880 H 862.213 3.90845 -0.729807 0
M  V30 8881 N 863.21 0.781244 1.36873 0
M  V30 8882 C 864.14 0.188128 2.32741 0
M  V30 8883 C 865.121 -0.672326 1.56249 0
M  V30 8884 O 866.306 -0.607835 1.84442 0
M  V30 8885 C 863.436 -0.684341 3.40491 0
M  V30 8886 C 862.39 0.0755641 4.27933 0
M  V30 8887 C 861.716 -0.916968 5.26779 0
M  V30 8888 C 863.016 1.26006 5.06873 0
M  V30 8889 H 864.71 0.989016 2.82593 0
M  V30 8890 H 862.256 0.477038 1.35869 0
M  V30 8891 H 864.209 -1.10915 4.06541 0
M  V30 8892 H 862.933 -1.51785 2.89187 0
M  V30 8893 H 861.592 0.481258 3.63427 0
M  V30 8894 H 861.24 -1.74528 4.71751 0
M  V30 8895 H 860.94 -0.413 5.86147 0
M  V30 8896 H 862.464 -1.34052 5.95703 0
M  V30 8897 H 863.878 0.911425 5.66009 0
M  V30 8898 H 862.275 1.69676 5.75613 0
M  V30 8899 H 863.345 2.05948 4.38991 0
M  V30 8900 N 864.689 -1.48329 0.532571 0
M  V30 8901 C 865.636 -2.29663 -0.228779 0
M  V30 8902 C 866.606 -1.37529 -0.931401 0
M  V30 8903 O 867.791 -1.66493 -0.931921 0
M  V30 8904 C 864.931 -3.20955 -1.26814 0
M  V30 8905 C 864.044 -4.28168 -0.574099 0
M  V30 8906 C 863.179 -5.06638 -1.59661 0
M  V30 8907 C 862.218 -6.05651 -0.88618 0
M  V30 8908 N 861.355 -6.77169 -1.85436 0
M  V30 8909 H 866.195 -2.94255 0.47098 0
M  V30 8910 H 863.732 -1.45061 0.2441 0
M  V30 8911 H 865.69 -3.72285 -1.88307 0
M  V30 8912 H 864.32 -2.58281 -1.93625 0
M  V30 8913 H 863.372 -3.80085 0.154827 0
M  V30 8914 H 864.684 -4.98797 -0.0163984 0
M  V30 8915 H 863.838 -5.61995 -2.28576 0
M  V30 8916 H 862.577 -4.35854 -2.18821 0
M  V30 8917 H 861.582 -5.49495 -0.182981 0
M  V30 8918 H 862.807 -6.78434 -0.300659 0
M  V30 8919 H 860.753 -6.09134 -2.43499 0
M  V30 8920 H 860.67 -7.43882 -1.34816 0
M  V30 8921 H 861.938 -7.37114 -2.53541 0
M  V30 8922 N 866.167 -0.267825 -1.55308 0
M  V30 8923 C 867.097 0.616585 -2.25212 0
M  V30 8924 C 868.078 1.16472 -1.23969 0
M  V30 8925 O 869.263 1.20021 -1.52672 0
M  V30 8926 C 866.393 1.80412 -2.96764 0
M  V30 8927 C 865.347 1.38784 -4.04874 0
M  V30 8928 C 864.673 2.65789 -4.63961 0
M  V30 8929 C 865.973 0.543415 -5.19465 0
M  V30 8930 H 867.667 0.0336257 -2.99381 0
M  V30 8931 H 865.213 0.0147328 -1.43992 0
M  V30 8932 H 867.166 2.42866 -3.44375 0
M  V30 8933 H 865.89 2.4128 -2.20118 0
M  V30 8934 H 864.549 0.786541 -3.58063 0
M  V30 8935 H 864.197 3.24899 -3.83992 0
M  V30 8936 H 863.897 2.38651 -5.36954 0
M  V30 8937 H 865.421 3.29104 -5.14318 0
M  V30 8938 H 866.835 1.07277 -5.63174 0
M  V30 8939 H 865.232 0.367219 -5.98975 0
M  V30 8940 H 866.302 -0.439534 -4.82904 0
M  V30 8941 N 867.645 1.57599 0.00500368 0
M  V30 8942 C 868.608 2.07058 0.982832 0
M  V30 8943 C 869.608 0.979045 1.27559 0
M  V30 8944 O 870.798 1.24187 1.22161 0
M  V30 8945 C 867.93 2.50782 2.30914 0
M  V30 8946 H 869.123 2.94718 0.555119 0
M  V30 8947 H 866.676 1.54249 0.25237 0
M  V30 8948 H 867.411 1.66351 2.78385 0
M  V30 8949 H 867.196 3.30495 2.10987 0
M  V30 8950 H 868.686 2.89391 3.0107 0
M  V30 8951 N 869.123 -0.277682 1.55134 0
M  V30 8952 C 870.4 -1.0309 1.66228 0
M  V30 8953 C 870.78 -2.0445 0.525701 0
M  V30 8954 O 870.128 -2.23512 -0.474816 0
M  V30 8955 C 870.338 -1.6919 3.05247 0
M  V30 8956 C 871.686 -2.20526 3.62841 0
M  V30 8957 O 872.71 -1.79185 3.07849 0
M  V30 8958 O 871.569 -2.96342 4.59177 0
M  V30 8959 H 868.663 -0.4779 0.674937 0
M  V30 8960 H 871.209 -0.273912 1.67475 0
M  V30 8961 H 869.981 -0.957163 3.79413 0
M  V30 8962 H 869.604 -2.51587 3.07879 0
M  V30 8963 N 870.601 -1.47988 -0.541979 0
M  V30 8964 C 871.848 -1.55393 -1.29843 0
M  V30 8965 C 872.176 -0.222668 -1.93221 0
M  V30 8966 O 871.431 0.785936 -1.79225 0
M  V30 8967 C 871.73 -2.63189 -2.41798 0
M  V30 8968 C 871.396 -4.05999 -1.96151 0
M  V30 8969 C 870.058 -4.44872 -1.83419 0
M  V30 8970 C 872.41 -4.95545 -1.61507 0
M  V30 8971 C 869.738 -5.71108 -1.34361 0
M  V30 8972 C 872.09 -6.22259 -1.13915 0
M  V30 8973 C 870.754 -6.59998 -0.997911 0
M  V30 8974 H 870.024 -0.568623 -0.47513 0
M  V30 8975 H 872.671 -1.81654 -0.606142 0
M  V30 8976 H 870.976 -2.30743 -3.16647 0
M  V30 8977 H 872.673 -2.66138 -2.99953 0
M  V30 8978 H 869.263 -3.75294 -2.07008 0
M  V30 8979 H 873.447 -4.662 -1.70209 0
M  V30 8980 H 868.703 -5.99083 -1.22103 0
M  V30 8981 H 872.877 -6.91048 -0.861755 0
M  V30 8982 H 870.504 -7.57704 -0.615561 0
M  V30 8983 N 872.079 0.78992 -1.36375 0
M  V30 8984 C 873.042 1.88414 -1.30509 0
M  V30 8985 C 874.042 1.59384 -0.2129 0
M  V30 8986 O 875.232 1.67805 -0.467651 0
M  V30 8987 C 872.364 3.25188 -1.02302 0
M  V30 8988 H 873.557 1.95031 -2.27822 0
M  V30 8989 H 871.11 0.987664 -1.2114 0
M  V30 8990 H 871.845 3.24254 -0.0544486 0
M  V30 8991 H 871.63 3.47647 -1.81338 0
M  V30 8992 H 873.12 4.05252 -1.00801 0
M  V30 8993 N 873.557 1.20646 1.01402 0
M  V30 8994 C 874.487 0.98155 2.11867 0
M  V30 8995 C 875.468 -0.0903712 1.6986 0
M  V30 8996 O 876.653 0.0676586 1.94082 0
M  V30 8997 C 873.783 0.535636 3.43145 0
M  V30 8998 C 872.737 1.55109 3.98905 0
M  V30 8999 C 872.063 0.961725 5.2598 0
M  V30 9000 C 873.363 2.93552 4.32001 0
M  V30 9001 H 875.057 1.90544 2.3094 0
M  V30 9002 H 872.603 0.917554 1.10982 0
M  V30 9003 H 874.556 0.365512 4.19812 0
M  V30 9004 H 873.28 -0.423882 3.23838 0
M  V30 9005 H 871.939 1.70862 3.24348 0
M  V30 9006 H 871.587 -0.00580108 5.03 0
M  V30 9007 H 871.287 1.63993 5.64252 0
M  V30 9008 H 872.811 0.802726 6.053 0
M  V30 9009 H 874.225 2.81295 4.99546 0
M  V30 9010 H 872.622 3.58303 4.81393 0
M  V30 9011 H 873.692 3.4508 3.40658 0
M  V30 9012 N 875.035 -1.20752 1.01276 0
M  V30 9013 C 875.965 -2.25658 0.600064 0
M  V30 9014 C 876.946 -1.65733 -0.38298 0
M  V30 9015 O 878.131 -1.92324 -0.269256 0
M  V30 9016 C 875.261 -3.47237 -0.0663197 0
M  V30 9017 C 874.215 -4.1973 0.83731 0
M  V30 9018 C 873.541 -5.34687 0.0369102 0
M  V30 9019 C 874.841 -4.76286 2.14357 0
M  V30 9020 H 876.535 -2.60432 1.477 0
M  V30 9021 H 874.081 -1.25187 0.711634 0
M  V30 9022 H 876.034 -4.19803 -0.366563 0
M  V30 9023 H 874.758 -3.11615 -0.977944 0
M  V30 9024 H 873.417 -3.49024 1.1215 0
M  V30 9025 H 873.065 -4.95309 -0.876244 0
M  V30 9026 H 872.765 -5.84119 0.63865 0
M  V30 9027 H 874.289 -6.10059 -0.256968 0
M  V30 9028 H 875.703 -5.40691 1.90595 0
M  V30 9029 H 874.1 -5.36139 2.69583 0
M  V30 9030 H 875.17 -3.9524 2.80916 0
M  V30 9031 N 876.513 -0.788492 -1.36457 0
M  V30 9032 C 877.753 -0.365855 -2.01099 0
M  V30 9033 C 878.117 1.04262 -1.61225 0
M  V30 9034 O 879.318 1.56628 -2.18451 0
M  V30 9035 C 877.589 -0.523344 -3.53548 0
M  V30 9036 S 879.148 -0.188448 -4.38395 0
M  V30 9037 H 875.966 -0.139832 -0.697114 0
M  V30 9038 H 878.568 -1.02678 -1.66365 0
M  V30 9039 H 877.272 -1.54874 -3.80055 0
M  V30 9040 H 876.803 0.153547 -3.931 0
M  V30 9041 H 878.818 1.0103 -4.85806 0
M  V30 9042 N 877.991 1.48044 -0.54043 0
M  V30 9043 C 878.921 2.32597 0.205178 0
M  V30 9044 C 879.902 1.42748 0.925041 0
M  V30 9045 O 881.087 1.71624 0.908784 0
M  V30 9046 C 878.217 3.24175 1.24612 0
M  V30 9047 C 877.171 4.23131 0.64376 0
M  V30 9048 C 876.497 5.03915 1.78812 0
M  V30 9049 C 877.797 5.20831 -0.39144 0
M  V30 9050 H 879.491 2.95184 -0.500676 0
M  V30 9051 H 877.037 1.41948 -0.242225 0
M  V30 9052 H 878.99 3.82158 1.77576 0
M  V30 9053 H 877.714 2.59608 1.98169 0
M  V30 9054 H 876.373 3.66349 0.135554 0
M  V30 9055 H 876.021 4.35765 2.51232 0
M  V30 9056 H 875.721 5.709 1.39094 0
M  V30 9057 H 877.245 5.64753 2.32134 0
M  V30 9058 H 878.659 5.73277 0.0515064 0
M  V30 9059 H 877.056 5.95926 -0.706569 0
M  V30 9060 H 878.126 4.6733 -1.29345 0
M  V30 9061 N 879.47 0.276058 1.55163 0
M  V30 9062 C 880.747 -0.392292 1.91626 0
M  V30 9063 C 881.127 -1.73646 1.20043 0
M  V30 9064 O 880.475 -2.26139 0.327606 0
M  V30 9065 C 880.685 -0.531641 3.44927 0
M  V30 9066 C 882.033 -0.8141 4.16722 0
M  V30 9067 O 883.057 -0.616413 3.50826 0
M  V30 9068 O 881.916 -1.19224 5.33337 0
M  V30 9069 H 879.01 -0.214945 0.798579 0
M  V30 9070 H 881.556 0.32228 1.66612 0
M  V30 9071 H 880.328 0.414282 3.89101 0
M  V30 9072 H 879.951 -1.29564 3.75897 0
M  V30 9073 N 880.948 -1.576 0.00335426 0
M  V30 9074 C 882.196 -1.90336 -0.679446 0
M  V30 9075 C 882.517 -0.877777 -1.74127 0
M  V30 9076 O 881.787 0.0843585 -1.95718 0
M  V30 9077 H 880.367 -0.702509 -0.253948 0
M  V30 9078 H 883.029 -1.94848 0.0450731 0
M  V30 9079 H 882.125 -2.90197 -1.14857 0
M  V30 9080 N 882.426 0.269451 -1.5528 0
M  V30 9081 C 883.373 1.33316 -1.88403 0
M  V30 9082 C 884.343 1.48909 -0.735881 0
M  V30 9083 O 885.528 1.63259 -0.987479 0
M  V30 9084 C 882.668 2.68778 -2.16454 0
M  V30 9085 C 881.781 2.61377 -3.43956 0
M  V30 9086 C 880.916 3.89042 -3.6169 0
M  V30 9087 C 879.955 3.76166 -4.82872 0
M  V30 9088 N 879.092 4.95673 -4.97245 0
M  V30 9089 H 883.932 1.04368 -2.79126 0
M  V30 9090 H 881.469 0.504147 -1.38191 0
M  V30 9091 H 883.427 3.47599 -2.30719 0
M  V30 9092 H 882.057 2.9592 -1.28961 0
M  V30 9093 H 881.109 1.74247 -3.38145 0
M  V30 9094 H 882.421 2.47764 -4.32914 0
M  V30 9095 H 881.575 4.76304 -3.75791 0
M  V30 9096 H 880.314 4.05526 -2.70924 0
M  V30 9097 H 879.319 2.87287 -4.68771 0
M  V30 9098 H 880.544 3.61198 -5.75077 0
M  V30 9099 H 878.49 5.12561 -4.09411 0
M  V30 9100 H 878.407 4.84605 -5.80254 0
M  V30 9101 H 879.675 5.84498 -5.15735 0
M  V30 9102 N 883.904 1.48273 0.534124 0
M  V30 9103 C 885.32 1.34302 0.862272 0
M  V30 9104 C 885.52 0.350902 1.98421 0
M  V30 9105 O 884.576 -0.229364 2.51456 0
M  V30 9106 C 885.889 2.74227 1.23371 0
M  V30 9107 C 887.437 2.82684 1.34383 0
M  V30 9108 C 887.912 4.23301 1.74871 0
M  V30 9109 N 889.403 4.25954 1.81981 0
M  V30 9110 C 890.138 5.31693 2.14686 0
M  V30 9111 N 889.634 6.47714 2.45844 0
M  V30 9112 N 891.427 5.19084 2.15657 0
M  V30 9113 H 883.578 2.11397 -0.206215 0
M  V30 9114 H 885.841 0.947537 -0.0296116 0
M  V30 9115 H 885.547 3.48368 0.482967 0
M  V30 9116 H 885.421 3.07485 2.18478 0
M  V30 9117 H 887.808 2.08801 2.08534 0
M  V30 9118 H 887.889 2.5305 0.374063 0
M  V30 9119 H 887.533 4.97699 1.01282 0
M  V30 9120 H 887.463 4.50376 2.7289 0
M  V30 9121 H 889.954 3.42266 1.60196 0
M  V30 9122 H 890.267 7.2414 2.69892 0
M  V30 9123 H 888.612 6.50995 2.43372 0
M  V30 9124 H 891.803 4.27463 1.9077 0
M  V30 9125 H 891.976 6.01592 2.40813 0
M  V30 9126 N 885.382 -0.782676 1.36792 0
M  V30 9127 C 886.329 -1.89558 1.31667 0
M  V30 9128 C 887.299 -1.65076 0.184147 0
M  V30 9129 O 888.484 -1.87143 0.371753 0
M  V30 9130 C 885.624 -3.26469 1.11858 0
M  V30 9131 C 884.737 -3.62978 2.34245 0
M  V30 9132 C 883.872 -4.89041 2.07394 0
M  V30 9133 C 882.911 -5.18249 3.25706 0
M  V30 9134 N 882.048 -6.35497 2.98476 0
M  V30 9135 H 886.888 -1.93274 2.26824 0
M  V30 9136 H 884.425 -0.945057 1.12726 0
M  V30 9137 H 886.383 -4.05431 0.983968 0
M  V30 9138 H 885.013 -3.22158 0.203531 0
M  V30 9139 H 884.065 -2.79087 2.58485 0
M  V30 9140 H 885.377 -3.80507 3.22514 0
M  V30 9141 H 884.531 -5.75883 1.90901 0
M  V30 9142 H 883.27 -4.73594 1.16446 0
M  V30 9143 H 882.275 -4.29887 3.4275 0
M  V30 9144 H 883.5 -5.35611 4.1749 0
M  V30 9145 H 881.446 -6.21429 2.10146 0
M  V30 9146 H 881.363 -6.5339 3.80286 0
M  V30 9147 H 882.631 -7.25304 2.85577 0
M  V30 9148 N 886.86 -1.21182 -1.00761 0
M  V30 9149 C 888.271 -1.02652 -1.55947 0
M  V30 9150 C 888.622 0.414466 -1.91772 0
M  V30 9151 O 887.747 1.29727 -1.73204 0
M  V30 9152 C 888.342 -1.85713 -2.83366 0
M  V30 9153 C 886.901 -1.71523 -3.35048 0
M  V30 9154 C 886.048 -1.83087 -2.08265 0
M  V30 9155 H 888.999 -1.35242 -0.830379 0
M  V30 9156 H 889.02 -1.36583 -3.55141 0
M  V30 9157 H 888.532 -2.90584 -2.5726 0
M  V30 9158 H 886.633 -0.693257 -3.66094 0
M  V30 9159 H 886.746 -2.53333 -4.06644 0
M  V30 9160 H 885.11 -1.26367 -2.21141 0
M  V30 9161 H 885.893 -2.8946 -1.84575 0
M  V30 9162 N 888.338 1.20213 -1.01915 0
M  V30 9163 C 889.584 1.89928 -0.711007 0
M  V30 9164 C 889.917 1.7881 0.75767 0
M  V30 9165 O 889.192 1.17399 1.55073 0
M  V30 9166 C 889.475 3.41225 -1.15053 0
M  V30 9167 C 889.328 3.61264 -2.67971 0
M  V30 9168 C 890.647 4.34108 -0.72377 0
M  V30 9169 H 887.766 0.689702 -0.259768 0
M  V30 9170 H 890.408 1.41557 -1.26734 0
M  V30 9171 H 888.558 3.82552 -0.677199 0
M  V30 9172 H 890.23 3.29173 -3.23176 0
M  V30 9173 H 888.473 3.04647 -3.08824 0
M  V30 9174 H 889.144 4.67331 -2.93779 0
M  V30 9175 H 891.62 4.00442 -1.13073 0
M  V30 9176 H 890.496 5.38581 -1.05931 0
M  V30 9177 H 890.757 4.40512 0.374424 0
M  V30 9178 N 889.816 0.795718 1.36037 0
M  V30 9179 C 891.044 0.383153 2.03321 0
M  V30 9180 C 891.459 -1.00246 1.59988 0
M  V30 9181 O 890.816 -1.64406 0.792265 0
M  V30 9182 C 890.867 0.444467 3.58757 0
M  V30 9183 O 890.588 1.77544 4.00512 0
M  V30 9184 C 892.089 0.0233291 4.43294 0
M  V30 9185 H 889.309 0.157061 0.652359 0
M  V30 9186 H 891.853 1.07632 1.73884 0
M  V30 9187 H 890.008 -0.200341 3.86882 0
M  V30 9188 H 890.422 1.73065 4.95125 0
M  V30 9189 H 891.896 0.117361 5.51875 0
M  V30 9190 H 892.373 -1.03007 4.2695 0
M  V30 9191 H 892.979 0.64087 4.20444 0
M  V30 9192 N 891.294 -1.47756 0.548274 0
M  V30 9193 C 892.204 -2.33678 -0.207773 0
M  V30 9194 C 893.22 -1.47636 -0.920843 0
M  V30 9195 O 894.396 -1.80583 -0.89173 0
M  V30 9196 C 891.461 -3.24147 -1.23003 0
M  V30 9197 C 890.522 -4.26073 -0.52535 0
M  V30 9198 C 889.755 -5.12219 -1.4989 0
M  V30 9199 O 889.978 -5.0066 -2.73305 0
M  V30 9200 O 888.912 -5.93051 -1.02828 0
M  V30 9201 H 892.738 -2.99609 0.496794 0
M  V30 9202 H 890.323 -1.4617 0.308982 0
M  V30 9203 H 892.205 -3.80055 -1.82034 0
M  V30 9204 H 890.88 -2.60855 -1.91668 0
M  V30 9205 H 889.787 -3.7395 0.105927 0
M  V30 9206 H 891.12 -4.92054 0.119686 0
M  V30 9207 N 892.772 -0.284283 -1.55015 0
M  V30 9208 C 893.735 0.586182 -2.21577 0
M  V30 9209 C 894.735 1.07427 -1.1965 0
M  V30 9210 O 895.925 0.972977 -1.44495 0
M  V30 9211 C 893.057 1.80973 -2.88897 0
M  V30 9212 H 894.25 0.00487253 -2.999 0
M  V30 9213 H 891.803 -0.0349696 -1.56261 0
M  V30 9214 H 892.538 2.43131 -2.14611 0
M  V30 9215 H 892.323 1.46757 -3.636 0
M  V30 9216 H 893.813 2.42853 -3.39724 0
M  V30 9217 N 894.251 1.57596 -0.0117121 0
M  V30 9218 C 895.667 1.55837 0.344506 0
M  V30 9219 C 895.867 1.01557 1.74036 0
M  V30 9220 O 894.923 0.654563 2.43868 0
M  V30 9221 C 896.236 2.99973 0.209023 0
M  V30 9222 C 897.784 3.11717 0.283092 0
M  V30 9223 C 898.259 4.57659 0.176599 0
M  V30 9224 N 899.75 4.62608 0.234133 0
M  V30 9225 C 900.485 5.73132 0.175252 0
M  V30 9226 N 899.981 6.92768 0.0662888 0
M  V30 9227 N 901.774 5.61638 0.227972 0
M  V30 9228 H 893.925 1.91215 -0.924692 0
M  V30 9229 H 896.188 0.878807 -0.355531 0
M  V30 9230 H 895.894 3.4357 -0.751826 0
M  V30 9231 H 895.768 3.64075 0.98635 0
M  V30 9232 H 898.155 2.68043 1.23439 0
M  V30 9233 H 898.236 2.50369 -0.52431 0
M  V30 9234 H 897.88 5.02011 -0.771205 0
M  V30 9235 H 897.81 5.16967 1.00264 0
M  V30 9236 H 900.301 3.76549 0.319203 0
M  V30 9237 H 900.614 7.72795 0.0275765 0
M  V30 9238 H 898.959 6.94993 0.0317502 0
M  V30 9239 H 902.15 4.67063 0.311377 0
M  V30 9240 H 902.323 6.47754 0.178621 0
M  V30 9241 N 895.729 -0.261212 1.5542 0
M  V30 9242 C 896.954 -1.01341 1.80955 0
M  V30 9243 C 897.379 -1.78711 0.586849 0
M  V30 9244 O 896.737 -1.75266 -0.463837 0
M  V30 9245 C 896.785 -1.93835 3.04073 0
M  V30 9246 O 895.889 -3.02791 2.79985 0
M  V30 9247 H 895.23 -0.289123 0.597749 0
M  V30 9248 H 897.76 -0.286543 2.02584 0
M  V30 9249 H 897.77 -2.3557 3.33123 0
M  V30 9250 H 896.445 -1.36936 3.9271 0
M  V30 9251 H 895.022 -2.65287 2.62063 0
M  V30 9252 N 897.207 -1.48554 -0.526253 0
M  V30 9253 C 898.447 -1.58362 -1.29232 0
M  V30 9254 C 898.811 -0.253353 -1.90321 0
M  V30 9255 O 900.012 -0.226439 -2.67845 0
M  V30 9256 C 898.283 -2.69294 -2.3498 0
M  V30 9257 S 899.842 -2.98891 -3.21262 0
M  V30 9258 H 896.66 -0.558859 -0.439543 0
M  V30 9259 H 899.262 -1.86094 -0.599099 0
M  V30 9260 H 897.966 -3.64504 -1.88587 0
M  V30 9261 H 897.497 -2.43475 -3.09004 0
M  V30 9262 H 899.512 -2.38475 -4.35137 0
M  V30 9263 N 898.685 0.775411 -1.37205 0
M  V30 9264 C 899.635 1.87867 -1.29189 0
M  V30 9265 C 900.619 1.59885 -0.180466 0
M  V30 9266 O 901.811 1.72077 -0.414536 0
M  V30 9267 C 898.94 3.25285 -1.09748 0
M  V30 9268 C 898.026 3.59231 -2.25419 0
M  V30 9269 N 898.417 3.64386 -3.50795 0
M  V30 9270 C 896.715 3.89375 -2.17492 0
M  V30 9271 C 897.416 3.94974 -4.27048 0
M  V30 9272 N 896.392 4.10684 -3.56146 0
M  V30 9273 H 900.194 1.90099 -2.24142 0
M  V30 9274 H 897.708 0.971667 -1.30125 0
M  V30 9275 H 899.705 4.04207 -1.02091 0
M  V30 9276 H 898.365 3.2432 -0.157083 0
M  V30 9277 H 899.376 3.46682 -3.8475 0
M  V30 9278 H 896.053 3.96254 -1.31489 0
M  V30 9279 H 897.443 4.05768 -5.35539 0
M  V30 9280 N 900.163 1.21714 1.00117 0
M  V30 9281 C 901.093 1.00397 2.10815 0
M  V30 9282 C 902.074 -0.0723502 1.69946 0
M  V30 9283 O 903.259 0.0882398 1.93999 0
M  V30 9284 C 900.389 0.572001 3.42557 0
M  V30 9285 C 899.343 1.59331 3.97237 0
M  V30 9286 C 898.669 1.01746 5.2493 0
M  V30 9287 C 899.969 2.98117 4.28863 0
M  V30 9288 H 901.663 1.92983 2.28906 0
M  V30 9289 H 899.209 0.929273 1.10002 0
M  V30 9290 H 901.162 0.410018 4.19401 0
M  V30 9291 H 899.886 -0.38951 3.24269 0
M  V30 9292 H 898.545 1.74293 3.22518 0
M  V30 9293 H 898.193 0.0475491 5.02978 0
M  V30 9294 H 897.893 1.69969 5.62481 0
M  V30 9295 H 899.417 0.866881 6.04415 0
M  V30 9296 H 900.831 2.86578 4.96534 0
M  V30 9297 H 899.228 3.63389 4.77565 0
M  V30 9298 H 900.298 3.48674 3.36979 0
M  V30 9299 N 901.641 -1.19671 1.02551 0
M  V30 9300 C 902.604 -2.20987 0.608055 0
M  V30 9301 C 903.604 -1.5745 -0.326534 0
M  V30 9302 O 904.794 -1.73827 -0.114003 0
M  V30 9303 C 901.926 -3.4072 -0.11074 0
M  V30 9304 H 903.119 -2.59434 1.50446 0
M  V30 9305 H 900.672 -1.3329 0.816307 0
M  V30 9306 H 901.407 -3.07787 -1.02165 0
M  V30 9307 H 901.192 -3.88069 0.560772 0
M  V30 9308 H 902.682 -4.15776 -0.389848 0
M  V30 9309 N 903.119 -0.802921 -1.35613 0
M  V30 9310 C 904.052 -0.156345 -2.27664 0
M  V30 9311 C 905.03 0.675517 -1.47904 0
M  V30 9312 O 906.214 0.643589 -1.77173 0
M  V30 9313 C 903.341 0.78348 -3.29514 0
M  V30 9314 C 902.387 0.0317062 -4.26488 0
M  V30 9315 S 903.22 -1.30183 -5.19435 0
M  V30 9316 C 904.376 -0.366354 -6.24827 0
M  V30 9317 H 904.609 -0.936803 -2.82155 0
M  V30 9318 H 902.142 -0.597799 -1.42358 0
M  V30 9319 H 904.1 1.32023 -3.8869 0
M  V30 9320 H 902.761 1.53729 -2.73909 0
M  V30 9321 H 901.954 0.745364 -4.98458 0
M  V30 9322 H 901.556 -0.43497 -3.71462 0
M  V30 9323 H 903.848 0.44976 -6.76005 0
M  V30 9324 H 904.791 -1.05513 -7.00195 0
M  V30 9325 H 905.199 0.0363203 -5.64488 0
M  V30 9326 N 904.597 1.47463 -0.556102 0
M  V30 9327 C 905.56 2.28478 0.181743 0
M  V30 9328 C 906.56 1.36886 0.843738 0
M  V30 9329 O 907.75 1.59527 0.69977 0
M  V30 9330 C 904.882 3.16534 1.26566 0
M  V30 9331 H 906.075 2.95182 -0.529892 0
M  V30 9332 H 903.628 1.53134 -0.313005 0
M  V30 9333 H 904.363 2.5452 2.00973 0
M  V30 9334 H 904.148 3.83939 0.795798 0
M  V30 9335 H 905.638 3.77579 1.78393 0
M  V30 9336 N 906.075 0.2925 1.54862 0
M  V30 9337 C 907.486 -0.201841 1.85606 0
M  V30 9338 C 907.837 -1.54093 1.21449 0
M  V30 9339 O 906.962 -2.10327 0.509079 0
M  V30 9340 C 907.557 -0.373011 3.3674 0
M  V30 9341 C 906.116 -0.811574 3.67547 0
M  V30 9342 C 905.263 0.0850583 2.7717 0
M  V30 9343 H 908.214 0.513774 1.50153 0
M  V30 9344 H 908.235 -1.20892 3.60785 0
M  V30 9345 H 907.747 0.601751 3.83407 0
M  V30 9346 H 905.848 -1.79719 3.26392 0
M  V30 9347 H 905.961 -0.636853 4.74848 0
M  V30 9348 H 904.325 -0.434224 2.50971 0
M  V30 9349 H 905.108 1.05602 3.26654 0
M  V30 9350 N 907.553 -1.57587 0.0200696 0
M  V30 9351 C 908.501 -2.10814 -0.982868 0
M  V30 9352 C 909.495 -1.03263 -1.34287 0
M  V30 9353 O 910.701 -1.21708 -1.32617 0
M  V30 9354 H 907.076 -0.673409 -0.334701 0
M  V30 9355 H 909.047 -2.94034 -0.50856 0
M  V30 9356 C 907.796 -2.64301 -2.25921 0
M  V30 9357 H 907.119 -3.46703 -1.99091 0
M  V30 9358 H 908.559 -3.052 -2.94328 0
M  V30 9359 C 907.018 -1.56628 -2.98277 0
M  V30 9360 O 907.548 -0.960825 -3.9004 0
M  V30 9361 N 905.754 -1.28889 -2.60453 0
M  V30 9362 H 905.301 -1.7831 -1.85912 0
M  V30 9363 H 905.259 -0.570697 -3.09177 0
M  V30 9364 N 909.032 0.252966 -1.55557 0
M  V30 9365 C 909.982 1.31585 -1.86197 0
M  V30 9366 C 910.966 1.43773 -0.722357 0
M  V30 9367 O 912.158 1.47117 -0.984152 0
M  V30 9368 C 909.287 2.67245 -2.15487 0
M  V30 9369 C 908.373 2.59087 -3.3576 0
M  V30 9370 N 908.764 2.20556 -4.5518 0
M  V30 9371 C 907.062 2.90112 -3.3875 0
M  V30 9372 C 907.763 2.22881 -5.37307 0
M  V30 9373 N 906.739 2.62145 -4.76215 0
M  V30 9374 H 910.541 1.00835 -2.76061 0
M  V30 9375 H 908.055 0.461598 -1.55702 0
M  V30 9376 H 910.052 3.43944 -2.35602 0
M  V30 9377 H 908.712 2.98867 -1.26919 0
M  V30 9378 H 909.723 1.922 -4.80915 0
M  V30 9379 H 906.4 3.26313 -2.60434 0
M  V30 9380 H 907.79 1.95482 -6.42835 0
M  V30 9381 N 910.51 1.48831 0.518367 0
M  V30 9382 C 911.473 1.63721 1.604 0
M  V30 9383 C 912.473 0.509857 1.52503 0
M  V30 9384 O 913.663 0.775922 1.55965 0
M  V30 9385 C 910.795 1.61831 3.00039 0
M  V30 9386 H 911.988 2.60534 1.48533 0
M  V30 9387 H 909.541 1.37602 0.741309 0
M  V30 9388 H 910.276 0.665387 3.17401 0
M  V30 9389 H 910.061 2.43686 3.0718 0
M  V30 9390 H 911.551 1.75467 3.78947 0
M  V30 9391 N 911.988 -0.768124 1.37614 0
M  V30 9392 C 913.234 -1.52907 1.33219 0
M  V30 9393 C 913.567 -1.94026 -0.0821218 0
M  V30 9394 O 912.842 -1.64345 -1.04023 0
M  V30 9395 C 913.125 -2.79164 2.27463 0
M  V30 9396 C 912.978 -2.44276 3.7769 0
M  V30 9397 C 914.297 -3.81115 2.20089 0
M  V30 9398 H 911.416 -0.554712 0.485246 0
M  V30 9399 H 914.058 -0.880911 1.68345 0
M  V30 9400 H 912.208 -3.34472 1.97639 0
M  V30 9401 H 913.88 -1.94855 4.18126 0
M  V30 9402 H 912.123 -1.76925 3.96081 0
M  V30 9403 H 912.794 -3.34544 4.39072 0
M  V30 9404 H 915.27 -3.35311 2.46386 0
M  V30 9405 H 914.146 -4.67174 2.88166 0
M  V30 9406 H 914.407 -4.25644 1.19498 0
M  V30 9407 N 913.466 -1.22244 -0.994698 0
M  V30 9408 C 914.712 -1.04746 -1.73655 0
M  V30 9409 C 915.045 0.41668 -1.89677 0
M  V30 9410 O 914.32 1.30897 -1.43862 0
M  V30 9411 C 914.603 -1.75716 -3.14318 0
M  V30 9412 C 914.456 -3.29714 -3.05955 0
M  V30 9413 C 915.775 -1.50809 -4.13455 0
M  V30 9414 H 912.894 -0.381921 -0.630322 0
M  V30 9415 H 915.536 -1.50559 -1.15897 0
M  V30 9416 H 913.686 -1.3677 -3.63629 0
M  V30 9417 H 915.358 -3.78093 -2.64279 0
M  V30 9418 H 913.601 -3.59484 -2.42804 0
M  V30 9419 H 914.272 -3.74547 -4.05485 0
M  V30 9420 H 916.748 -1.84636 -3.72892 0
M  V30 9421 H 915.624 -2.02964 -5.09997 0
M  V30 9422 H 915.885 -0.440292 -4.39902 0
M  V30 9423 N 914.944 1.19125 -1.03184 0
M  V30 9424 C 916.169 1.93379 -0.749628 0
M  V30 9425 C 916.594 1.75153 0.685785 0
M  V30 9426 O 915.952 1.05579 1.47386 0
M  V30 9427 C 916 3.43101 -1.1097 0
M  V30 9428 O 915.104 4.11758 -0.230053 0
M  V30 9429 H 914.445 0.603605 -0.276689 0
M  V30 9430 H 916.975 1.51116 -1.37931 0
M  V30 9431 H 916.985 3.93778 -1.06785 0
M  V30 9432 H 915.66 3.55688 -2.15544 0
M  V30 9433 H 914.237 3.7143 -0.330748 0
M  V30 9434 N 916.422 0.810101 1.35185 0
M  V30 9435 C 917.838 0.494269 1.51754 0
M  V30 9436 C 918.038 -0.983907 1.75845 0
M  V30 9437 O 917.094 -1.76882 1.80191 0
M  V30 9438 C 918.407 1.34268 2.69059 0
M  V30 9439 C 919.955 1.33848 2.82938 0
M  V30 9440 C 920.43 2.17109 4.03271 0
M  V30 9441 N 921.921 2.14664 4.10456 0
M  V30 9442 C 922.656 2.75843 5.02691 0
M  V30 9443 N 922.152 3.45962 6.00235 0
M  V30 9444 N 923.945 2.65465 4.95464 0
M  V30 9445 H 916.096 1.76736 1.17805 0
M  V30 9446 H 918.359 0.752429 0.576676 0
M  V30 9447 H 918.065 2.39183 2.57845 0
M  V30 9448 H 917.939 0.998362 3.63748 0
M  V30 9449 H 920.326 0.29716 2.936 0
M  V30 9450 H 920.407 1.72269 1.89095 0
M  V30 9451 H 920.051 3.21283 3.93369 0
M  V30 9452 H 919.981 1.76046 4.96302 0
M  V30 9453 H 922.472 1.63648 3.40628 0
M  V30 9454 H 922.785 3.89922 6.67219 0
M  V30 9455 H 921.13 3.50067 6.00398 0
M  V30 9456 H 924.321 2.1027 4.18215 0
M  V30 9457 H 924.494 3.13433 5.67154 0
M  V30 9458 N 917.9 -1.47166 0.563914 0
M  V30 9459 C 918.833 -2.27058 -0.227989 0
M  V30 9460 C 919.811 -1.34468 -0.914179 0
M  V30 9461 O 920.995 -1.63857 -0.931829 0
M  V30 9462 C 918.122 -3.11689 -1.32543 0
M  V30 9463 C 917.168 -4.19906 -0.747084 0
M  V30 9464 S 918.001 -5.33916 0.41153 0
M  V30 9465 C 919.157 -6.22112 -0.687566 0
M  V30 9466 H 919.39 -2.93876 0.449939 0
M  V30 9467 H 916.923 -1.50372 0.350382 0
M  V30 9468 H 918.881 -3.61017 -1.95389 0
M  V30 9469 H 917.542 -2.44221 -1.97522 0
M  V30 9470 H 916.735 -4.78876 -1.57141 0
M  V30 9471 H 916.337 -3.73493 -0.194671 0
M  V30 9472 H 918.629 -6.58867 -1.578 0
M  V30 9473 H 919.572 -7.07971 -0.135058 0
M  V30 9474 H 919.98 -5.55871 -0.983255 0
M  V30 9475 N 919.378 -0.300708 -1.54705 0
M  V30 9476 C 920.655 0.361757 -1.92226 0
M  V30 9477 C 921.035 1.71714 -1.2279 0
M  V30 9478 O 920.383 2.2559 -0.363542 0
M  V30 9479 C 920.593 0.476699 -3.45729 0
M  V30 9480 C 921.941 0.7477 -4.17965 0
M  V30 9481 O 922.965 0.560521 -3.51762 0
M  V30 9482 O 921.824 1.10724 -5.35166 0
M  V30 9483 H 918.918 0.202213 -0.801897 0
M  V30 9484 H 921.464 -0.348746 -1.66078 0
M  V30 9485 H 920.236 -0.476132 -3.88392 0
M  V30 9486 H 919.859 1.23568 -3.77911 0
M  V30 9487 N 920.856 1.57574 -0.0284266 0
M  V30 9488 C 921.803 2.10176 0.953658 0
M  V30 9489 C 922.773 1.00367 1.32347 0
M  V30 9490 O 923.958 1.27783 1.4169 0
M  V30 9491 C 921.098 2.63287 2.231 0
M  V30 9492 C 920.211 3.87102 1.91771 0
M  V30 9493 C 919.346 4.28609 3.13795 0
M  V30 9494 C 918.385 5.45184 2.78282 0
M  V30 9495 N 917.522 5.81851 3.92929 0
M  V30 9496 H 922.362 2.93806 0.498176 0
M  V30 9497 H 919.899 1.45222 0.234302 0
M  V30 9498 H 921.857 2.9217 2.97813 0
M  V30 9499 H 920.487 1.82489 2.66266 0
M  V30 9500 H 919.539 3.64952 1.07303 0
M  V30 9501 H 920.851 4.71892 1.61615 0
M  V30 9502 H 920.005 4.58925 3.96829 0
M  V30 9503 H 918.744 3.42585 3.47112 0
M  V30 9504 H 917.749 5.14563 1.93661 0
M  V30 9505 H 918.974 6.32907 2.46182 0
M  V30 9506 H 916.92 4.98782 4.2609 0
M  V30 9507 H 916.837 6.6128 3.66395 0
M  V30 9508 H 918.105 6.16772 4.76669 0
M  V30 9509 N 922.334 -0.244713 1.55689 0
M  V30 9510 C 923.58 -0.973886 1.77886 0
M  V30 9511 C 923.913 -1.8489 0.594071 0
M  V30 9512 O 923.188 -1.90182 -0.407564 0
M  V30 9513 C 923.471 -1.83255 3.09983 0
M  V30 9514 C 923.324 -0.985571 4.3887 0
M  V30 9515 C 924.643 -2.81464 3.38329 0
M  V30 9516 H 921.762 -0.352629 0.647165 0
M  V30 9517 H 924.404 -0.244243 1.88424 0
M  V30 9518 H 922.554 -2.45464 3.01131 0
M  V30 9519 H 924.226 -0.382005 4.59716 0
M  V30 9520 H 922.469 -0.29002 4.32829 0
M  V30 9521 H 923.14 -1.62022 5.27686 0
M  V30 9522 H 925.616 -2.2939 3.47159 0
M  V30 9523 H 924.492 -3.38663 4.31971 0
M  V30 9524 H 924.753 -3.58037 2.59349 0
M  V30 9525 N 923.813 -1.49104 -0.510467 0
M  V30 9526 C 924.723 -1.67792 -1.6396 0
M  V30 9527 C 925.739 -0.560454 -1.64727 0
M  V30 9528 O 926.915 -0.833985 -1.83321 0
M  V30 9529 C 923.98 -1.73154 -3.00364 0
M  V30 9530 C 923.041 -2.9667 -3.10299 0
M  V30 9531 C 922.274 -3.01767 -4.40196 0
M  V30 9532 O 922.497 -2.1472 -5.28443 0
M  V30 9533 O 921.431 -3.94137 -4.54906 0
M  V30 9534 H 925.257 -2.63428 -1.51126 0
M  V30 9535 H 922.842 -1.32734 -0.685719 0
M  V30 9536 H 924.724 -1.79089 -3.81451 0
M  V30 9537 H 923.399 -0.806952 -3.1348 0
M  V30 9538 H 922.306 -2.96257 -2.28435 0
M  V30 9539 H 923.639 -3.88578 -3.02106 0
M  V30 9540 N 925.291 0.760815 -1.38019 0
M  V30 9541 C 926.707 1.06289 -1.19058 0
M  V30 9542 C 926.907 2.01471 -0.0342603 0
M  V30 9543 O 925.963 2.44713 0.62224 0
M  V30 9544 C 927.276 1.6499 -2.51394 0
M  V30 9545 C 928.824 1.77196 -2.58013 0
M  V30 9546 C 929.299 2.3931 -3.90506 0
M  V30 9547 N 930.79 2.46749 -3.92007 0
M  V30 9548 C 931.525 2.95687 -4.91281 0
M  V30 9549 N 931.021 3.44715 -6.00952 0
M  V30 9550 N 932.814 2.94661 -4.78677 0
M  V30 9551 H 924.965 0.129045 -2.12008 0
M  V30 9552 H 927.228 0.119878 -0.94039 0
M  V30 9553 H 926.934 1.0252 -3.36426 0
M  V30 9554 H 926.808 2.64146 -2.6927 0
M  V30 9555 H 929.195 2.38796 -1.7338 0
M  V30 9556 H 929.276 0.767645 -2.4401 0
M  V30 9557 H 928.92 1.78346 -4.75558 0
M  V30 9558 H 928.85 3.40369 -4.01817 0
M  V30 9559 H 931.341 2.12064 -3.12789 0
M  V30 9560 H 931.654 3.80492 -6.72641 0
M  V30 9561 H 929.999 3.42791 -6.04582 0
M  V30 9562 H 933.19 2.55665 -3.92113 0
M  V30 9563 H 933.363 3.32489 -5.56197 0
M  V30 9564 N 926.769 1.22769 0.988202 0
M  V30 9565 C 927.699 1.02627 2.09738 0
M  V30 9566 C 928.68 -0.0543211 1.70013 0
M  V30 9567 O 929.865 0.108811 1.93895 0
M  V30 9568 C 926.995 0.608302 3.41931 0
M  V30 9569 C 925.949 1.63536 3.95525 0
M  V30 9570 C 925.275 1.07308 5.23822 0
M  V30 9571 C 926.575 3.02649 4.25677 0
M  V30 9572 H 928.269 1.954 2.26847 0
M  V30 9573 H 925.815 0.940888 1.09011 0
M  V30 9574 H 927.768 0.454478 4.18942 0
M  V30 9575 H 926.492 -0.355095 3.24664 0
M  V30 9576 H 925.151 1.77704 3.20651 0
M  V30 9577 H 924.799 0.100894 5.02899 0
M  V30 9578 H 924.499 1.75925 5.60646 0
M  V30 9579 H 926.023 0.930938 6.03462 0
M  V30 9580 H 927.437 2.91828 4.93467 0
M  V30 9581 H 925.834 3.68434 4.73684 0
M  V30 9582 H 926.904 3.52228 3.33262 0
M  V30 9583 N 928.247 -1.18576 1.03814 0
M  V30 9584 C 929.194 -2.2212 0.626988 0
M  V30 9585 C 930.164 -1.62064 -0.363912 0
M  V30 9586 O 931.349 -1.89041 -0.258469 0
M  V30 9587 C 928.489 -3.45099 -0.00650133 0
M  V30 9588 C 927.602 -4.19503 1.03156 0
M  V30 9589 C 926.737 -5.29932 0.366852 0
M  V30 9590 C 925.776 -5.96104 1.39018 0
M  V30 9591 N 924.913 -6.98076 0.750625 0
M  V30 9592 H 929.753 -2.56646 1.51449 0
M  V30 9593 H 927.29 -1.26084 0.757702 0
M  V30 9594 H 929.248 -4.15363 -0.391108 0
M  V30 9595 H 927.878 -3.11201 -0.857536 0
M  V30 9596 H 926.93 -3.48092 1.53414 0
M  V30 9597 H 928.242 -4.64843 1.80893 0
M  V30 9598 H 927.396 -6.06657 -0.0720979 0
M  V30 9599 H 926.135 -4.85687 -0.442631 0
M  V30 9600 H 925.14 -5.18122 1.8393 0
M  V30 9601 H 926.365 -6.42432 2.20132 0
M  V30 9602 H 924.311 -6.55989 -0.0385981 0
M  V30 9603 H 924.228 -7.41655 1.46574 0
M  V30 9604 H 925.496 -7.78776 0.335986 0
M  V30 9605 N 929.725 -0.817259 -1.34754 0
M  V30 9606 C 930.657 -0.192695 -2.28389 0
M  V30 9607 C 931.67 0.614167 -1.50771 0
M  V30 9608 O 932.859 0.444776 -1.7287 0
M  V30 9609 C 929.959 0.748929 -3.30521 0
M  V30 9610 C 929.132 -0.0138762 -4.37398 0
M  V30 9611 C 928.191 0.847825 -5.19325 0
M  V30 9612 O 927.217 0.29487 -5.68436 0
M  V30 9613 N 928.419 2.16843 -5.38479 0
M  V30 9614 H 931.184 -0.997122 -2.82626 0
M  V30 9615 H 928.745 -0.673696 -1.47217 0
M  V30 9616 H 930.737 1.32987 -3.82226 0
M  V30 9617 H 929.307 1.45412 -2.7672 0
M  V30 9618 H 928.527 -0.776093 -3.86485 0
M  V30 9619 H 929.815 -0.539191 -5.05935 0
M  V30 9620 H 929.213 2.64148 -5.00242 0
M  V30 9621 H 927.77 2.69835 -5.93323 0
M  V30 9622 N 931.203 1.46865 -0.571711 0
M  V30 9623 C 932.449 2.0273 -0.0531858 0
M  V30 9624 C 932.782 1.44353 1.29907 0
M  V30 9625 O 932.057 0.604488 1.84868 0
M  V30 9626 C 932.34 3.60092 0.0243831 0
M  V30 9627 C 932.193 4.28874 -1.35599 0
M  V30 9628 C 933.512 4.33994 0.730563 0
M  V30 9629 H 930.631 0.736706 -0.0208018 0
M  V30 9630 H 933.273 1.75132 -0.736794 0
M  V30 9631 H 931.423 3.83736 0.606565 0
M  V30 9632 H 933.095 4.16527 -1.98249 0
M  V30 9633 H 931.338 3.88664 -1.92674 0
M  V30 9634 H 932.009 5.37561 -1.25429 0
M  V30 9635 H 934.485 4.1543 0.236098 0
M  V30 9636 H 933.361 5.43699 0.753836 0
M  V30 9637 H 933.622 4.04257 1.78967 0
M  V30 9638 N 932.681 0.308908 1.54543 0
M  V30 9639 C 933.611 -0.556657 2.26768 0
M  V30 9640 C 934.592 -1.13145 1.27013 0
M  V30 9641 O 935.777 -1.15931 1.558 0
M  V30 9642 C 932.907 -1.72481 3.01443 0
M  V30 9643 C 931.861 -1.28001 4.08411 0
M  V30 9644 C 931.187 -2.53395 4.70845 0
M  V30 9645 C 932.487 -0.405497 5.20724 0
M  V30 9646 H 934.181 0.0457618 2.99365 0
M  V30 9647 H 931.727 0.0234495 1.43981 0
M  V30 9648 H 933.68 -2.3365 3.50693 0
M  V30 9649 H 932.404 -2.35359 2.26437 0
M  V30 9650 H 931.063 -0.69133 3.60022 0
M  V30 9651 H 930.711 -3.14604 3.92471 0
M  V30 9652 H 930.411 -2.2433 5.43093 0
M  V30 9653 H 931.935 -3.15352 5.22863 0
M  V30 9654 H 933.349 -0.923076 5.6582 0
M  V30 9655 H 931.746 -0.208282 5.99738 0
M  V30 9656 H 932.816 0.567412 4.81569 0
M  V30 9657 N 934.159 -1.57557 0.0367827 0
M  V30 9658 C 935.089 -2.13712 -0.940719 0
M  V30 9659 C 936.07 -1.05515 -1.33419 0
M  V30 9660 O 937.255 -1.33385 -1.41146 0
M  V30 9661 C 934.385 -2.67043 -2.22048 0
M  V30 9662 C 933.339 -3.80096 -1.96752 0
M  V30 9663 C 932.665 -4.19886 -3.31059 0
M  V30 9664 C 933.965 -5.05848 -1.30058 0
M  V30 9665 H 935.659 -2.9564 -0.473033 0
M  V30 9666 H 933.205 -1.42214 -0.226089 0
M  V30 9667 H 935.158 -3.04964 -2.90818 0
M  V30 9668 H 933.882 -1.82287 -2.70996 0
M  V30 9669 H 932.541 -3.42625 -1.30398 0
M  V30 9670 H 932.189 -3.32101 -3.77781 0
M  V30 9671 H 931.889 -4.96073 -3.14937 0
M  V30 9672 H 933.413 -4.60395 -4.01084 0
M  V30 9673 H 934.827 -5.41306 -1.8884 0
M  V30 9674 H 933.224 -5.87084 -1.24309 0
M  V30 9675 H 934.294 -4.84122 -0.274591 0
M  V30 9676 N 935.637 0.236453 -1.55816 0
M  V30 9677 C 936.587 1.29603 -1.87582 0
M  V30 9678 C 937.571 1.42999 -0.737566 0
M  V30 9679 O 938.763 1.46065 -0.999701 0
M  V30 9680 C 935.892 2.64945 -2.1831 0
M  V30 9681 C 934.978 2.55511 -3.38489 0
M  V30 9682 N 935.369 2.15716 -4.57494 0
M  V30 9683 C 933.667 2.86502 -3.41808 0
M  V30 9684 C 934.368 2.17169 -5.39641 0
M  V30 9685 N 933.344 2.5708 -4.78969 0
M  V30 9686 H 937.146 0.979016 -2.77115 0
M  V30 9687 H 934.66 0.445058 -1.56183 0
M  V30 9688 H 936.657 3.41426 -2.39236 0
M  V30 9689 H 935.317 2.97504 -1.30082 0
M  V30 9690 H 936.328 1.87089 -4.82927 0
M  V30 9691 H 933.005 3.23533 -2.6388 0
M  V30 9692 H 934.395 1.88653 -6.44872 0
M  V30 9693 N 937.115 1.49373 0.502552 0
M  V30 9694 C 938.047 1.62045 1.62093 0
M  V30 9695 C 939.06 0.503221 1.54827 0
M  V30 9696 O 940.249 0.775208 1.60788 0
M  V30 9697 C 937.349 1.55971 3.00876 0
M  V30 9698 C 936.522 2.832 3.33341 0
M  V30 9699 C 935.581 2.702 4.51529 0
M  V30 9700 O 934.607 3.44132 4.53389 0
M  V30 9701 N 935.809 1.81642 5.5135 0
M  V30 9702 H 938.574 2.58501 1.51649 0
M  V30 9703 H 936.135 1.46442 0.690396 0
M  V30 9704 H 938.127 1.4493 3.77859 0
M  V30 9705 H 936.697 0.673795 3.05252 0
M  V30 9706 H 935.917 3.08604 2.4527 0
M  V30 9707 H 937.205 3.67551 3.51829 0
M  V30 9708 H 936.603 1.20829 5.52645 0
M  V30 9709 H 935.16 1.76524 6.27441 0
M  V30 9710 N 938.594 -0.753485 1.38421 0
M  V30 9711 C 939.526 -1.87692 1.31547 0
M  V30 9712 C 940.539 -1.612 0.227671 0
M  V30 9713 O 941.728 -1.71778 0.485238 0
M  V30 9714 C 938.828 -3.23329 1.01545 0
M  V30 9715 C 938.001 -3.77324 2.21236 0
M  V30 9716 C 937.06 -4.91478 1.87977 0
M  V30 9717 O 936.086 -5.06106 2.60472 0
M  V30 9718 N 937.288 -5.74466 0.834796 0
M  V30 9719 H 940.053 -1.94099 2.28354 0
M  V30 9720 H 937.614 -0.933421 1.32283 0
M  V30 9721 H 939.606 -3.9724 0.773477 0
M  V30 9722 H 938.176 -3.12307 0.135334 0
M  V30 9723 H 937.396 -2.94978 2.61498 0
M  V30 9724 H 938.684 -4.10131 3.01115 0
M  V30 9725 H 938.082 -5.65217 0.233606 0
M  V30 9726 H 936.639 -6.48524 0.652703 0
M  V30 9727 N 940.072 -1.23292 -0.981677 0
M  V30 9728 C 941.035 -1.01417 -2.05542 0
M  V30 9729 C 942.035 0.0235354 -1.60783 0
M  V30 9730 O 943.225 -0.216082 -1.72855 0
M  V30 9731 C 940.357 -0.534239 -3.36688 0
M  V30 9732 H 941.55 -1.96702 -2.26381 0
M  V30 9733 H 939.103 -1.05318 -1.1549 0
M  V30 9734 H 939.838 0.422452 -3.21537 0
M  V30 9735 H 939.623 -1.28304 -3.70514 0
M  V30 9736 H 941.113 -0.40179 -4.15663 0
M  V30 9737 N 941.55 1.18024 -1.04442 0
M  V30 9738 C 942.497 2.21785 -0.638759 0
M  V30 9739 C 943.467 1.62255 0.355312 0
M  V30 9740 O 944.652 1.89176 0.24844 0
M  V30 9741 C 941.792 3.45098 -0.0118002 0
M  V30 9742 C 940.905 4.1895 -1.05379 0
M  V30 9743 C 940.04 5.2973 -0.394951 0
M  V30 9744 C 939.079 5.95359 -1.42178 0
M  V30 9745 N 938.216 6.97668 -0.787635 0
M  V30 9746 H 943.056 2.55839 -1.52808 0
M  V30 9747 H 940.593 1.25681 -0.764378 0
M  V30 9748 H 942.551 4.15564 0.369075 0
M  V30 9749 H 941.181 3.11652 0.84102 0
M  V30 9750 H 940.233 3.47274 -1.55258 0
M  V30 9751 H 941.545 4.63877 -1.83355 0
M  V30 9752 H 940.699 6.06687 0.0399244 0
M  V30 9753 H 939.438 4.85915 0.416867 0
M  V30 9754 H 938.443 5.17139 -1.86675 0
M  V30 9755 H 939.668 6.41255 -2.23536 0
M  V30 9756 H 937.614 6.56 0.00380893 0
M  V30 9757 H 937.531 7.40867 -1.50505 0
M  V30 9758 H 938.799 7.78586 -0.377282 0
M  V30 9759 N 943.028 0.824394 1.34319 0
M  V30 9760 C 944.275 0.413167 1.9824 0
M  V30 9761 C 944.603 -1.02412 1.65354 0
M  V30 9762 O 943.858 -1.72831 0.91803 0
M  V30 9763 C 944.157 0.564024 3.52921 0
M  V30 9764 C 943.823 1.96725 4.05722 0
M  V30 9765 C 942.485 2.35111 4.19853 0
M  V30 9766 C 944.837 2.88447 4.34106 0
M  V30 9767 C 942.165 3.64551 4.59695 0
M  V30 9768 C 944.517 4.17353 4.75394 0
M  V30 9769 C 943.181 4.55714 4.8773 0
M  V30 9770 H 942.451 0.151188 0.725412 0
M  V30 9771 H 945.098 1.04863 1.60238 0
M  V30 9772 H 943.403 -0.154816 3.91494 0
M  V30 9773 H 945.1 0.226347 4.00361 0
M  V30 9774 H 941.69 1.65908 3.95187 0
M  V30 9775 H 945.874 2.60034 4.22725 0
M  V30 9776 H 941.13 3.94097 4.67437 0
M  V30 9777 H 945.304 4.88512 4.96315 0
M  V30 9778 H 942.931 5.56064 5.1836 0
M  V30 9779 N 944.506 -1.46559 0.579492 0
M  V30 9780 C 945.754 -2.02 0.0637157 0
M  V30 9781 C 946.075 -1.45378 -1.29962 0
M  V30 9782 O 945.345 -0.637262 -1.85245 0
M  V30 9783 H 943.925 -0.746717 0.0205638 0
M  V30 9784 H 946.587 -1.79702 0.754544 0
M  V30 9785 H 945.683 -3.12099 -0.00770254 0
M  V30 9786 N 945.984 -0.3171 -1.54377 0
M  V30 9787 C 947.4 0.035766 -1.5956 0
M  V30 9788 C 947.6 1.51038 -1.33378 0
M  V30 9789 O 946.656 2.26546 -1.11505 0
M  V30 9790 C 947.969 -0.376652 -2.98332 0
M  V30 9791 C 949.517 -0.326765 -3.1129 0
M  V30 9792 C 949.992 -0.714247 -4.52396 0
M  V30 9793 N 951.483 -0.667402 -4.58367 0
M  V30 9794 C 952.218 -0.939494 -5.65651 0
M  V30 9795 N 951.714 -1.27839 -6.80903 0
M  V30 9796 N 953.507 -0.865484 -5.55397 0
M  V30 9797 H 945.658 -1.27794 -1.69654 0
M  V30 9798 H 947.921 -0.5192 -0.79318 0
M  V30 9799 H 947.627 -1.40381 -3.22469 0
M  V30 9800 H 947.501 0.261611 -3.76292 0
M  V30 9801 H 949.888 0.69117 -2.86892 0
M  V30 9802 H 949.969 -0.999873 -2.35449 0
M  V30 9803 H 949.613 -1.73007 -4.77526 0
M  V30 9804 H 949.543 -0.0188962 -5.26597 0
M  V30 9805 H 952.034 -0.417062 -3.75592 0
M  V30 9806 H 952.347 -1.47155 -7.5866 0
M  V30 9807 H 950.692 -1.31658 -6.82416 0
M  V30 9808 H 953.883 -0.600265 -4.64235 0
M  V30 9809 H 954.056 -1.0809 -6.38921 0
M  V30 9810 N 947.462 1.57535 -0.0451378 0
M  V30 9811 C 948.41 2.12351 0.949205 0
M  V30 9812 C 949.404 1.05386 1.32628 0
M  V30 9813 O 950.61 1.23802 1.30664 0
M  V30 9814 H 946.985 0.678648 0.323945 0
M  V30 9815 H 948.956 2.94806 0.461718 0
M  V30 9816 C 947.705 2.67862 2.21687 0
M  V30 9817 H 947.028 3.49826 1.93551 0
M  V30 9818 H 948.468 3.09844 2.89435 0
M  V30 9819 C 946.927 1.61353 2.95748 0
M  V30 9820 O 947.457 1.02276 3.88462 0
M  V30 9821 N 945.663 1.33017 2.5837 0
M  V30 9822 H 945.21 1.81246 1.83051 0
M  V30 9823 H 945.168 0.619812 3.0823 0
M  V30 9824 N 948.94 -0.228186 1.55939 0
M  V30 9825 C 950.188 -0.951668 1.78291 0
M  V30 9826 C 950.509 -1.85132 0.612474 0
M  V30 9827 O 949.779 -1.92356 -0.370942 0
M  V30 9828 H 948.359 -0.354388 0.657585 0
M  V30 9829 H 951.021 -0.241635 1.93396 0
M  V30 9830 H 950.117 -1.56239 2.70177 0
M  V30 9831 N 950.418 -1.49637 -0.494624 0
M  V30 9832 C 951.643 -1.63431 -1.27691 0
M  V30 9833 C 952.068 -0.30813 -1.85559 0
M  V30 9834 O 951.426 0.725083 -1.66169 0
M  V30 9835 C 951.474 -2.71043 -2.3784 0
M  V30 9836 O 950.578 -2.3066 -3.41862 0
M  V30 9837 H 949.919 -0.546804 -0.376698 0
M  V30 9838 H 952.449 -1.95866 -0.591413 0
M  V30 9839 H 952.459 -2.93406 -2.83508 0
M  V30 9840 H 951.134 -3.67306 -1.95088 0
M  V30 9841 H 949.711 -2.18652 -3.02069 0
M  V30 9842 N 951.896 0.746133 -1.38819 0
M  V30 9843 C 953.173 1.49652 -1.25951 0
M  V30 9844 C 953.553 2.10663 0.135833 0
M  V30 9845 O 952.901 1.97682 1.14604 0
M  V30 9846 C 953.111 2.5569 -2.37537 0
M  V30 9847 C 954.459 3.22385 -2.76321 0
M  V30 9848 O 955.483 2.65998 -2.36904 0
M  V30 9849 O 954.342 4.2439 -3.44319 0
M  V30 9850 H 951.436 0.664019 -0.492958 0
M  V30 9851 H 953.982 0.780908 -1.50665 0
M  V30 9852 H 952.754 2.08908 -3.30867 0
M  V30 9853 H 952.377 3.34823 -2.14427 0
M  V30 9854 N 953.375 1.23811 0.975125 0
M  V30 9855 C 954.615 1.08517 1.73215 0
M  V30 9856 C 954.979 -0.370777 1.88386 0
M  V30 9857 O 956.18 -0.645036 2.60946 0
M  V30 9858 C 954.451 1.79649 3.08968 0
M  V30 9859 S 956.01 1.79993 4.00185 0
M  V30 9860 H 952.828 0.388256 0.595633 0
M  V30 9861 H 955.43 1.57028 1.16458 0
M  V30 9862 H 954.134 2.8471 2.95581 0
M  V30 9863 H 953.665 1.31441 3.70792 0
M  V30 9864 H 955.68 0.862294 4.8865 0
M  V30 9865 N 954.853 -1.17469 1.05066 0
M  V30 9866 C 956.264 -1.69334 0.786304 0
M  V30 9867 C 956.615 -1.83604 -0.691671 0
M  V30 9868 O 955.74 -1.52269 -1.53763 0
M  V30 9869 C 956.335 -3.07572 1.42074 0
M  V30 9870 C 954.894 -3.56609 1.20446 0
M  V30 9871 C 954.041 -2.329 1.50508 0
M  V30 9872 H 956.992 -1.02003 1.21577 0
M  V30 9873 H 957.013 -3.71352 0.829334 0
M  V30 9874 H 956.525 -2.97154 2.49642 0
M  V30 9875 H 954.626 -3.72306 0.147968 0
M  V30 9876 H 954.739 -4.39446 1.90852 0
M  V30 9877 H 953.103 -2.37305 0.925124 0
M  V30 9878 H 953.886 -2.25093 2.59207 0
M  V30 9879 N 956.331 -0.831506 -1.3388 0
M  V30 9880 C 957.608 -0.345907 -1.92517 0
M  V30 9881 C 957.988 1.16784 -1.75854 0
M  V30 9882 O 957.336 1.97889 -1.14245 0
M  V30 9883 C 957.546 -0.784692 -3.40064 0
M  V30 9884 C 958.894 -0.78846 -4.17215 0
M  V30 9885 O 959.918 -0.727823 -3.48685 0
M  V30 9886 O 958.777 -0.869481 -5.39539 0
M  V30 9887 H 955.871 -0.0963568 -0.821367 0
M  V30 9888 H 958.417 -0.916868 -1.42799 0
M  V30 9889 H 957.189 -1.82697 -3.46031 0
M  V30 9890 H 956.812 -0.189897 -3.97146 0
M  V30 9891 N 957.809 1.4625 -0.587256 0
M  V30 9892 C 958.756 2.30354 0.143384 0
M  V30 9893 C 959.726 1.40891 0.879716 0
M  V30 9894 O 960.911 1.69837 0.869486 0
M  V30 9895 C 958.051 3.25441 1.14815 0
M  V30 9896 C 957.164 4.30004 0.414792 0
M  V30 9897 C 956.299 5.12214 1.40748 0
M  V30 9898 C 955.338 6.08523 0.660786 0
M  V30 9899 N 954.475 6.83585 1.60176 0
M  V30 9900 H 959.315 2.92304 -0.579866 0
M  V30 9901 H 956.852 1.44055 -0.29777 0
M  V30 9902 H 958.81 3.79018 1.7436 0
M  V30 9903 H 957.44 2.6529 1.83906 0
M  V30 9904 H 956.492 3.79248 -0.295787 0
M  V30 9905 H 957.804 4.98515 -0.168738 0
M  V30 9906 H 956.958 5.70091 2.0756 0
M  V30 9907 H 955.697 4.43675 2.02494 0
M  V30 9908 H 954.702 5.49796 -0.0210864 0
M  V30 9909 H 955.927 6.79083 0.0486551 0
M  V30 9910 H 953.873 6.17752 2.20724 0
M  V30 9911 H 953.79 7.48373 1.07115 0
M  V30 9912 H 955.058 7.46016 2.26009 0
M  V30 9913 N 959.287 0.325282 1.54207 0
M  V30 9914 C 960.534 -0.276775 2.006 0
M  V30 9915 C 960.862 -1.52007 1.21343 0
M  V30 9916 O 960.117 -1.93627 0.284104 0
M  V30 9917 C 960.416 -0.654292 3.5136 0
M  V30 9918 C 960.082 0.490023 4.48229 0
M  V30 9919 C 958.744 0.804104 4.74434 0
M  V30 9920 C 961.096 1.2586 5.05775 0
M  V30 9921 C 958.424 1.88945 5.55443 0
M  V30 9922 C 960.776 2.33405 5.87967 0
M  V30 9923 C 959.44 2.65393 6.12473 0
M  V30 9924 H 958.71 -0.101279 0.734046 0
M  V30 9925 H 961.357 0.449416 1.86152 0
M  V30 9926 H 959.662 -1.46093 3.63544 0
M  V30 9927 H 961.359 -1.13171 3.84699 0
M  V30 9928 H 957.949 0.235147 4.27954 0
M  V30 9929 H 962.133 1.02921 4.85511 0
M  V30 9930 H 957.389 2.14174 5.7266 0
M  V30 9931 H 961.563 2.93402 6.31576 0
M  V30 9932 H 959.19 3.49622 6.75032 0
M  V30 9933 N 960.765 -1.57509 0.0534917 0
M  V30 9934 C 962.005 -1.94654 -0.623641 0
M  V30 9935 C 962.369 -0.93184 -1.67871 0
M  V30 9936 O 963.57 -1.19031 -2.41009 0
M  V30 9937 C 961.841 -3.36575 -1.20216 0
M  V30 9938 S 963.4 -3.95677 -1.89697 0
M  V30 9939 H 960.218 -0.680893 -0.20471 0
M  V30 9940 H 962.82 -1.95113 0.122982 0
M  V30 9941 H 961.524 -4.08223 -0.422177 0
M  V30 9942 H 961.055 -3.39617 -1.98555 0
M  V30 9943 H 963.07 -3.81092 -3.17779 0
M  V30 9944 N 962.243 0.219913 -1.56058 0
M  V30 9945 C 963.173 1.27572 -1.9557 0
M  V30 9946 C 964.154 1.48801 -0.824148 0
M  V30 9947 O 965.339 1.60957 -1.08658 0
M  V30 9948 C 962.469 2.62517 -2.27381 0
M  V30 9949 C 961.423 2.55941 -3.43042 0
M  V30 9950 C 960.749 3.94931 -3.60463 0
M  V30 9951 C 962.049 2.10584 -4.77966 0
M  V30 9952 H 963.743 0.947482 -2.84013 0
M  V30 9953 H 961.289 0.454337 -1.36645 0
M  V30 9954 H 963.242 3.36538 -2.53615 0
M  V30 9955 H 961.966 2.97031 -1.35794 0
M  V30 9956 H 960.625 1.84377 -3.1686 0
M  V30 9957 H 960.273 4.26756 -2.66249 0
M  V30 9958 H 959.973 3.91413 -4.38258 0
M  V30 9959 H 961.497 4.70611 -3.89046 0
M  V30 9960 H 962.911 2.74349 -5.03394 0
M  V30 9961 H 961.308 2.18122 -5.59055 0
M  V30 9962 H 962.378 1.05818 -4.73213 0
M  V30 9963 N 963.721 1.49897 0.486681 0
M  V30 9964 C 964.968 1.60105 1.23986 0
M  V30 9965 C 965.296 0.294228 1.92262 0
M  V30 9966 O 964.551 -0.718876 1.82018 0
M  V30 9967 C 964.85 2.71982 2.31863 0
M  V30 9968 C 964.516 4.13 1.80948 0
M  V30 9969 C 963.178 4.51373 1.66782 0
M  V30 9970 C 965.53 5.01198 1.43004 0
M  V30 9971 C 962.858 5.75701 1.13072 0
M  V30 9972 C 965.21 6.26058 0.90742 0
M  V30 9973 C 963.874 6.63247 0.752269 0
M  V30 9974 H 963.144 0.585866 0.453698 0
M  V30 9975 H 965.791 1.83778 0.538305 0
M  V30 9976 H 964.096 2.42336 3.07865 0
M  V30 9977 H 965.793 2.77087 2.89869 0
M  V30 9978 H 962.383 3.82718 1.92937 0
M  V30 9979 H 966.567 4.72196 1.52789 0
M  V30 9980 H 961.823 6.03202 0.997842 0
M  V30 9981 H 965.997 6.9377 0.604684 0
M  V30 9982 H 963.624 7.59466 0.33392 0
M  V30 9983 N 965.199 -0.738761 1.39212 0
M  V30 9984 C 966.131 -1.86286 1.3353 0
M  V30 9985 C 967.144 -1.6095 0.244755 0
M  V30 9986 O 968.333 -1.71254 0.50343 0
M  V30 9987 C 965.433 -3.22234 1.04969 0
M  V30 9988 C 964.606 -3.74956 2.25226 0
M  V30 9989 C 963.665 -4.89457 1.9318 0
M  V30 9990 O 962.691 -5.03314 2.65826 0
M  V30 9991 N 963.893 -5.73548 0.895679 0
M  V30 9992 H 966.658 -1.91666 2.304 0
M  V30 9993 H 964.219 -0.919338 1.33266 0
M  V30 9994 H 966.211 -3.96397 0.815566 0
M  V30 9995 H 964.781 -3.12146 0.168451 0
M  V30 9996 H 964.001 -2.92188 2.64612 0
M  V30 9997 H 965.289 -4.06914 3.05448 0
M  V30 9998 H 964.687 -5.64938 0.293541 0
M  V30 9999 H 963.244 -6.47795 0.721451 0
M  V30 10000 N 966.677 -1.24326 -0.968545 0
M  V30 10001 C 967.902 -1.1104 -1.75171 0
M  V30 10002 C 968.327 0.333109 -1.85127 0
M  V30 10003 O 967.685 1.24115 -1.32156 0
M  V30 10004 C 967.733 -1.75397 -3.15068 0
M  V30 10005 O 966.837 -1.02417 -3.9948 0
M  V30 10006 H 966.178 -0.388488 -0.538491 0
M  V30 10007 H 968.708 -1.64617 -1.215 0
M  V30 10008 H 968.718 -1.8112 -3.65595 0
M  V30 10009 H 967.393 -2.80427 -3.07138 0
M  V30 10010 H 965.97 -1.04475 -3.57966 0
M  V30 10011 N 968.156 1.1691 -1.05688 0
M  V30 10012 C 969.066 2.24735 -0.67315 0
M  V30 10013 C 970.082 1.71252 0.308043 0
M  V30 10014 O 971.258 2.00772 0.158889 0
M  V30 10015 C 968.323 3.4665 -0.059026 0
M  V30 10016 C 967.384 4.15198 -1.0913 0
M  V30 10017 C 966.617 5.31292 -0.50639 0
M  V30 10018 O 966.84 5.663 0.682692 0
M  V30 10019 O 965.774 5.88923 -1.2431 0
M  V30 10020 H 969.6 2.59855 -1.57191 0
M  V30 10021 H 967.185 1.24306 -0.828751 0
M  V30 10022 H 969.067 4.20455 0.282018 0
M  V30 10023 H 967.742 3.13316 0.813304 0
M  V30 10024 H 966.649 3.43389 -1.48442 0
M  V30 10025 H 967.982 4.52571 -1.93495 0
M  V30 10026 N 969.634 0.838594 1.33437 0
M  V30 10027 C 970.862 0.447644 2.01999 0
M  V30 10028 C 971.277 -0.951053 1.63096 0
M  V30 10029 O 970.634 -1.61802 0.844169 0
M  V30 10030 C 970.685 0.558378 3.57162 0
M  V30 10031 O 970.406 1.90196 3.94661 0
M  V30 10032 C 971.907 0.164348 4.42995 0
M  V30 10033 H 969.127 0.177736 0.647032 0
M  V30 10034 H 971.671 1.13109 1.70372 0
M  V30 10035 H 969.826 -0.0771563 3.87323 0
M  V30 10036 H 970.24 1.88729 4.89369 0
M  V30 10037 H 971.714 0.292876 5.51222 0
M  V30 10038 H 972.191 -0.893713 4.30011 0
M  V30 10039 H 972.797 0.774306 4.18192 0
M  V30 10040 N 971.112 -1.45937 0.595003 0
M  V30 10041 C 972.059 -2.30427 -0.131165 0
M  V30 10042 C 973.029 -1.41355 -0.872232 0
M  V30 10043 O 974.214 -1.70296 -0.860467 0
M  V30 10044 C 971.354 -3.26045 -1.13087 0
M  V30 10045 C 970.467 -4.30218 -0.391982 0
M  V30 10046 C 969.602 -5.12953 -1.3803 0
M  V30 10047 C 968.641 -6.08865 -0.628505 0
M  V30 10048 N 967.778 -6.84425 -1.56548 0
M  V30 10049 H 972.618 -2.91992 0.595359 0
M  V30 10050 H 970.155 -1.43895 0.305405 0
M  V30 10051 H 972.113 -3.79937 -1.72348 0
M  V30 10052 H 970.743 -2.66261 -1.82496 0
M  V30 10053 H 969.795 -3.79086 0.315895 0
M  V30 10054 H 971.107 -4.98418 0.195173 0
M  V30 10055 H 970.261 -5.71184 -2.04534 0
M  V30 10056 H 969 -4.44743 -2.00138 0
M  V30 10057 H 968.005 -5.49777 0.0502431 0
M  V30 10058 H 969.23 -6.79099 -0.012641 0
M  V30 10059 H 967.176 -6.18913 -2.17444 0
M  V30 10060 H 967.093 -7.48931 -1.03145 0
M  V30 10061 H 968.361 -7.47204 -2.22049 0
M  V30 10062 N 972.59 -0.333456 -1.54032 0
M  V30 10063 C 973.538 0.543414 -2.26163 0
M  V30 10064 C 974.532 1.11037 -1.27934 0
M  V30 10065 O 975.738 1.05727 -1.45677 0
M  V30 10066 H 972.113 0.19391 -0.726569 0
M  V30 10067 H 974.084 -0.0871052 -2.98273 0
M  V30 10068 C 972.833 1.68769 -3.03994 0
M  V30 10069 H 972.156 1.26069 -3.79403 0
M  V30 10070 H 973.596 2.27662 -3.57695 0
M  V30 10071 C 972.055 2.61117 -2.12884 0
M  V30 10072 O 972.585 3.63097 -1.71823 0
M  V30 10073 N 970.791 2.29573 -1.7817 0
M  V30 10074 H 970.338 1.46684 -2.11759 0
M  V30 10075 H 970.296 2.91622 -1.1749 0
M  V30 10076 N 974.068 1.57479 -0.061844 0
M  V30 10077 C 974.998 2.15181 0.9066 0
M  V30 10078 C 975.979 1.07624 1.31724 0
M  V30 10079 O 977.164 1.35614 1.39006 0
M  V30 10080 C 974.294 2.70542 2.17771 0
M  V30 10081 C 973.248 3.83178 1.9068 0
M  V30 10082 C 972.574 4.25099 3.24337 0
M  V30 10083 C 973.874 5.07853 1.21994 0
M  V30 10084 H 975.568 2.96355 0.42594 0
M  V30 10085 H 973.114 1.42556 0.203435 0
M  V30 10086 H 975.067 3.09552 2.85929 0
M  V30 10087 H 973.791 1.86575 2.68062 0
M  V30 10088 H 972.45 3.44656 1.24931 0
M  V30 10089 H 972.098 3.38069 3.72449 0
M  V30 10090 H 971.798 5.01021 3.07005 0
M  V30 10091 H 973.322 4.66718 3.93709 0
M  V30 10092 H 974.736 5.44242 1.80204 0
M  V30 10093 H 973.133 5.88987 1.14954 0
M  V30 10094 H 974.203 4.84497 0.197536 0
M  V30 10095 N 975.546 -0.211634 1.56173 0
M  V30 10096 C 976.476 -1.26533 1.96244 0
M  V30 10097 C 977.457 -1.48362 0.832028 0
M  V30 10098 O 978.642 -1.60378 1.0951 0
M  V30 10099 C 975.772 -2.61307 2.2877 0
M  V30 10100 C 974.726 -2.54119 3.44395 0
M  V30 10101 C 974.052 -3.93014 3.62552 0
M  V30 10102 C 975.352 -2.08046 4.79076 0
M  V30 10103 H 977.046 -0.932407 2.84511 0
M  V30 10104 H 974.592 -0.447084 1.36884 0
M  V30 10105 H 976.545 -3.35188 2.55396 0
M  V30 10106 H 975.269 -2.96307 1.37367 0
M  V30 10107 H 973.928 -1.82694 3.17834 0
M  V30 10108 H 973.576 -4.25338 2.68508 0
M  V30 10109 H 973.276 -3.89083 4.40327 0
M  V30 10110 H 974.8 -4.68542 3.91537 0
M  V30 10111 H 976.214 -2.71676 5.04842 0
M  V30 10112 H 974.611 -2.15154 5.60204 0
M  V30 10113 H 975.681 -1.03306 4.73768 0
M  V30 10114 N 977.024 -1.50153 -0.478725 0
M  V30 10115 C 978.271 -1.6076 -1.23136 0
M  V30 10116 C 978.599 -0.30442 -1.92103 0
M  V30 10117 O 977.854 0.709213 -1.82397 0
M  V30 10118 C 978.153 -2.73208 -2.30417 0
M  V30 10119 C 977.819 -4.13953 -1.78755 0
M  V30 10120 C 976.481 -4.52251 -1.64386 0
M  V30 10121 C 978.833 -5.01949 -1.40344 0
M  V30 10122 C 976.161 -5.76292 -1.10018 0
M  V30 10123 C 978.513 -6.2653 -0.874206 0
M  V30 10124 C 977.177 -6.63637 -0.717085 0
M  V30 10125 H 976.447 -0.588264 -0.450585 0
M  V30 10126 H 979.094 -1.84061 -0.528551 0
M  V30 10127 H 977.399 -2.43965 -3.06575 0
M  V30 10128 H 979.096 -2.7862 -2.88395 0
M  V30 10129 H 975.686 -3.83736 -1.90904 0
M  V30 10130 H 979.87 -4.73 -1.50283 0
M  V30 10131 H 975.126 -6.03723 -0.965838 0
M  V30 10132 H 979.3 -6.94081 -0.567883 0
M  V30 10133 H 976.927 -7.59633 -0.293639 0
M  V30 10134 N 978.502 0.731368 -1.39602 0
M  V30 10135 C 979.45 1.86676 -1.38761 0
M  V30 10136 C 980.444 1.6723 -0.270247 0
M  V30 10137 O 981.65 1.74528 -0.440471 0
M  V30 10138 H 978.025 0.614553 -0.433391 0
M  V30 10139 H 979.996 1.84501 -2.34525 0
M  V30 10140 C 978.745 3.24394 -1.25155 0
M  V30 10141 H 978.068 3.39955 -2.10406 0
M  V30 10142 H 979.508 4.04019 -1.28625 0
M  V30 10143 C 977.967 3.36877 0.0396976 0
M  V30 10144 O 978.497 3.88833 1.00854 0
M  V30 10145 N 976.703 2.90414 0.103965 0
M  V30 10146 H 976.25 2.48321 -0.685155 0
M  V30 10147 H 976.208 2.99146 0.967435 0
M  V30 10148 N 979.98 1.24838 0.961938 0
M  V30 10149 C 981.257 0.99939 1.68141 0
M  V30 10150 C 981.637 -0.476588 2.0565 0
M  V30 10151 O 980.985 -1.45224 1.76415 0
M  V30 10152 C 981.195 1.92797 2.90913 0
M  V30 10153 C 982.543 2.20219 3.63027 0
M  V30 10154 O 983.567 1.90496 3.00981 0
M  V30 10155 O 982.426 2.70725 4.74731 0
M  V30 10156 H 979.52 0.37842 0.735342 0
M  V30 10157 H 982.066 1.35961 1.01551 0
M  V30 10158 H 980.838 2.92492 2.59931 0
M  V30 10159 H 980.461 1.57127 3.65235 0
M  V30 10160 N 981.458 -1.16348 1.06306 0
M  V30 10161 C 982.406 -2.22799 0.668087 0
M  V30 10162 C 983.4 -1.66426 -0.316051 0
M  V30 10163 O 984.606 -1.79089 -0.180902 0
M  V30 10164 H 980.981 -0.725487 0.19792 0
M  V30 10165 H 982.952 -2.53401 1.57577 0
M  V30 10166 C 981.701 -3.47628 0.0706797 0
M  V30 10167 H 981.024 -3.9132 0.819064 0
M  V30 10168 H 982.464 -4.23666 -0.16816 0
M  V30 10169 C 980.923 -3.15343 -1.18577 0
M  V30 10170 O 981.453 -3.31158 -2.27371 0
M  V30 10171 N 979.659 -2.69472 -1.08779 0
M  V30 10172 H 979.206 -2.56803 -0.202447 0
M  V30 10173 H 979.164 -2.48244 -1.92931 0
M  V30 10174 N 982.937 -0.845659 -1.3299 0
M  V30 10175 C 984.165 -0.45835 -2.01759 0
M  V30 10176 C 984.58 0.94239 -1.63598 0
M  V30 10177 O 983.937 1.61353 -0.852738 0
M  V30 10178 C 983.988 -0.577311 -3.5686 0
M  V30 10179 O 983.709 -1.92287 -3.93646 0
M  V30 10180 C 985.21 -0.187839 -4.42902 0
M  V30 10181 H 982.43 -0.181165 -0.646081 0
M  V30 10182 H 984.974 -1.14011 -1.6977 0
M  V30 10183 H 983.129 0.0566146 -3.87359 0
M  V30 10184 H 983.543 -1.91322 -4.88361 0
M  V30 10185 H 985.017 -0.322105 -5.51059 0
M  V30 10186 H 985.494 0.870896 -4.30479 0
M  V30 10187 H 986.1 -0.796473 -4.17776 0
M  V30 10188 N 984.415 1.45619 -0.602734 0
M  V30 10189 C 985.325 2.34288 0.120902 0
M  V30 10190 C 986.341 1.50952 0.865414 0
M  V30 10191 O 987.517 1.83768 0.824094 0
M  V30 10192 C 984.582 3.28489 1.10888 0
M  V30 10193 C 983.643 4.2773 0.366853 0
M  V30 10194 C 982.876 5.17429 1.30776 0
M  V30 10195 O 983.099 5.10459 2.54535 0
M  V30 10196 O 982.033 5.96459 0.807464 0
M  V30 10197 H 985.859 2.97559 -0.60765 0
M  V30 10198 H 983.444 1.44922 -0.363019 0
M  V30 10199 H 985.326 3.86549 1.67803 0
M  V30 10200 H 984.001 2.67789 1.81854 0
M  V30 10201 H 982.908 3.73299 -0.244643 0
M  V30 10202 H 984.241 4.91271 -0.302226 0
M  V30 10203 N 985.893 0.34162 1.53853 0
M  V30 10204 C 987.133 -0.255853 2.02792 0
M  V30 10205 C 987.497 -1.47921 1.22407 0
M  V30 10206 O 988.698 -2.15073 1.61236 0
M  V30 10207 C 986.969 -0.564117 3.5292 0
M  V30 10208 S 988.528 -1.13868 4.23768 0
M  V30 10209 H 985.346 -0.0762867 0.706896 0
M  V30 10210 H 987.948 0.478934 1.89543 0
M  V30 10211 H 986.652 0.334098 4.09038 0
M  V30 10212 H 986.183 -1.32862 3.70285 0
M  V30 10213 H 988.198 -2.42451 4.32934 0
M  V30 10214 N 987.371 -1.57444 0.0701946 0
M  V30 10215 C 988.301 -2.15659 -0.895176 0
M  V30 10216 C 989.282 -1.08321 -1.31151 0
M  V30 10217 O 990.467 -1.36349 -1.38284 0
M  V30 10218 C 987.597 -2.71693 -2.16334 0
M  V30 10219 C 986.551 -3.84183 -1.88645 0
M  V30 10220 C 985.877 -4.26814 -3.22078 0
M  V30 10221 C 987.177 -5.08493 -1.19299 0
M  V30 10222 H 988.871 -2.96576 -0.410217 0
M  V30 10223 H 986.417 -1.42662 -0.195872 0
M  V30 10224 H 988.37 -3.11064 -2.84284 0
M  V30 10225 H 987.094 -1.87994 -2.67069 0
M  V30 10226 H 985.753 -3.45314 -1.23101 0
M  V30 10227 H 985.401 -3.40039 -3.70651 0
M  V30 10228 H 985.101 -5.02642 -3.04344 0
M  V30 10229 H 986.625 -4.68799 -3.91228 0
M  V30 10230 H 988.039 -5.4519 -1.77316 0
M  V30 10231 H 986.436 -5.89588 -1.11828 0
M  V30 10232 H 987.506 -4.84595 -0.171839 0
M  V30 10233 N 988.849 0.203349 -1.56283 0
M  V30 10234 C 989.812 1.23566 -1.93039 0
M  V30 10235 C 990.812 1.38869 -0.810687 0
M  V30 10236 O 992.002 1.36822 -1.07821 0
M  V30 10237 C 989.134 2.60645 -2.1972 0
M  V30 10238 H 990.327 0.921692 -2.85385 0
M  V30 10239 H 987.88 0.44453 -1.49845 0
M  V30 10240 H 988.615 2.9711 -1.29985 0
M  V30 10241 H 988.4 2.50911 -3.01307 0
M  V30 10242 H 989.89 3.35103 -2.4919 0
M  V30 10243 N 990.327 1.50405 0.470755 0
M  V30 10244 C 991.743 1.37838 0.804534 0
M  V30 10245 C 991.943 0.434743 1.96754 0
M  V30 10246 O 990.999 -0.122507 2.52203 0
M  V30 10247 C 992.312 2.79212 1.11629 0
M  V30 10248 C 993.86 2.88129 1.22272 0
M  V30 10249 C 994.335 4.30337 1.5676 0
M  V30 10250 N 995.826 4.3329 1.63751 0
M  V30 10251 C 996.561 5.4032 1.91942 0
M  V30 10252 N 996.057 6.57558 2.18151 0
M  V30 10253 N 997.85 5.27764 1.93446 0
M  V30 10254 H 990.001 2.10332 -0.295689 0
M  V30 10255 H 992.264 0.945429 -0.0697733 0
M  V30 10256 H 991.97 3.50103 0.334778 0
M  V30 10257 H 991.844 3.16475 2.0524 0
M  V30 10258 H 994.231 2.17457 1.9949 0
M  V30 10259 H 994.312 2.54409 0.2664 0
M  V30 10260 H 993.956 5.01547 0.800817 0
M  V30 10261 H 993.886 4.61545 2.53543 0
M  V30 10262 H 996.377 3.48752 1.45535 0
M  V30 10263 H 996.69 7.34935 2.38936 0
M  V30 10264 H 995.035 6.60732 2.15542 0
M  V30 10265 H 998.226 4.35169 1.72468 0
M  V30 10266 H 998.399 6.11264 2.15081 0
M  V30 10267 N 991.805 -0.723954 1.39988 0
M  V30 10268 C 992.735 -1.85103 1.42335 0
M  V30 10269 C 993.716 -1.6769 0.285297 0
M  V30 10270 O 994.901 -1.87846 0.492716 0
M  V30 10271 C 992.031 -3.22972 1.27697 0
M  V30 10272 C 990.985 -3.55041 2.39018 0
M  V30 10273 C 990.311 -4.91965 2.09462 0
M  V30 10274 C 991.611 -3.56889 3.8135 0
M  V30 10275 H 993.305 -1.83396 2.36656 0
M  V30 10276 H 990.851 -0.880926 1.13911 0
M  V30 10277 H 992.804 -4.01503 1.27958 0
M  V30 10278 H 991.528 -3.25233 0.298487 0
M  V30 10279 H 990.187 -2.78845 2.37993 0
M  V30 10280 H 989.835 -4.90819 1.10025 0
M  V30 10281 H 989.535 -5.14389 2.84038 0
M  V30 10282 H 991.059 -5.7284 2.11391 0
M  V30 10283 H 992.473 -4.25476 3.84243 0
M  V30 10284 H 990.87 -3.90836 4.55376 0
M  V30 10285 H 991.94 -2.56452 4.11534 0
M  V30 10286 N 993.283 -1.25346 -0.955304 0
M  V30 10287 C 994.233 -1.02358 -2.03732 0
M  V30 10288 C 995.217 0.0392941 -1.60852 0
M  V30 10289 O 996.409 -0.175959 -1.76123 0
M  V30 10290 C 993.538 -0.643552 -3.37214 0
M  V30 10291 C 992.624 -1.74315 -3.8662 0
M  V30 10292 N 993.015 -2.97816 -4.08827 0
M  V30 10293 C 991.313 -1.62351 -4.15401 0
M  V30 10294 C 992.014 -3.69185 -4.4953 0
M  V30 10295 N 990.99 -2.96803 -4.55422 0
M  V30 10296 H 994.792 -1.96119 -2.18894 0
M  V30 10297 H 992.306 -1.15655 -1.14007 0
M  V30 10298 H 994.303 -0.460053 -4.14354 0
M  V30 10299 H 992.963 0.286738 -3.23431 0
M  V30 10300 H 993.974 -3.33868 -3.95919 0
M  V30 10301 H 990.651 -0.762133 -4.10485 0
M  V30 10302 H 992.041 -4.7519 -4.7502 0
M  V30 10303 N 994.761 1.15782 -1.06922 0
M  V30 10304 C 996.009 1.86097 -0.788192 0
M  V30 10305 C 996.33 1.82475 0.687606 0
M  V30 10306 O 995.6 1.26266 1.49778 0
M  V30 10307 H 994.18 0.689008 -0.288577 0
M  V30 10308 H 996.842 1.40377 -1.35205 0
M  V30 10309 H 995.938 2.91358 -1.1188 0
M  V30 10310 N 996.239 0.8527 1.3254 0
M  V30 10311 C 997.186 0.293905 2.28921 0
M  V30 10312 C 998.156 -0.598027 1.54961 0
M  V30 10313 O 999.341 -0.533355 1.83194 0
M  V30 10314 C 996.481 -0.513361 3.4126 0
M  V30 10315 C 995.594 0.404144 4.30105 0
M  V30 10316 C 994.729 -0.415564 5.29572 0
M  V30 10317 C 993.768 0.499461 6.10059 0
M  V30 10318 N 992.905 -0.282949 7.0153 0
M  V30 10319 H 997.745 1.12107 2.76109 0
M  V30 10320 H 995.282 0.564272 1.35847 0
M  V30 10321 H 997.24 -0.997008 4.05112 0
M  V30 10322 H 995.87 -1.30537 2.95229 0
M  V30 10323 H 994.922 1.00617 3.66852 0
M  V30 10324 H 996.234 1.10648 4.86373 0
M  V30 10325 H 995.388 -0.962458 5.99017 0
M  V30 10326 H 994.127 -1.15127 4.73917 0
M  V30 10327 H 993.132 1.05825 5.39519 0
M  V30 10328 H 994.357 1.23375 6.67799 0
M  V30 10329 H 992.303 -1.00179 6.48306 0
M  V30 10330 H 992.22 0.36039 7.55141 0
M  V30 10331 H 993.488 -0.811632 7.75263 0
M  V30 10332 N 997.718 -1.45297 0.610449 0
M  V30 10333 C 998.946 -2.0659 0.113211 0
M  V30 10334 C 999.361 -1.4546 -1.20361 0
M  V30 10335 O 998.718 -0.569823 -1.73376 0
M  V30 10336 C 998.769 -3.61488 -0.0298411 0
M  V30 10337 O 998.49 -4.20336 1.23488 0
M  V30 10338 C 999.991 -4.39772 -0.558202 0
M  V30 10339 H 997.211 -0.667322 0.0701555 0
M  V30 10340 H 999.755 -1.86497 0.838993 0
M  V30 10341 H 997.91 -3.80913 -0.705963 0
M  V30 10342 H 998.324 -5.13545 1.0664 0
M  V30 10343 H 999.798 -5.48648 -0.607375 0
M  V30 10344 H 1000.27 -4.09755 -1.58107 0
M  V30 10345 H 1000.88 -4.25217 0.0839704 0
M  V30 10346 N 999.196 -0.349774 -1.5367 0
M  V30 10347 C 1000.42 0.246038 -2.05432 0
M  V30 10348 C 1000.84 1.43719 -1.22435 0
M  V30 10349 O 1000.2 1.80622 -0.261166 0
M  V30 10350 C 1000.25 0.65501 -3.55516 0
M  V30 10351 O 999.968 -0.488782 -4.35365 0
M  V30 10352 C 1001.47 1.31088 -4.23475 0
M  V30 10353 H 998.689 0.0463952 -0.669394 0
M  V30 10354 H 1001.23 -0.503566 -1.98203 0
M  V30 10355 H 999.388 1.35455 -3.62947 0
M  V30 10356 H 999.802 -0.161528 -5.24251 0
M  V30 10357 H 1001.28 1.54774 -5.29857 0
M  V30 10358 H 1001.75 2.26636 -3.76208 0
M  V30 10359 H 1002.36 0.653211 -4.20254 0
M  V30 10360 N 1000.67 1.57404 -0.0785433 0
M  V30 10361 C 1001.9 1.97787 0.596995 0
M  V30 10362 C 1002.31 0.955904 1.63276 0
M  V30 10363 O 1001.65 -0.0649169 1.83585 0
M  V30 10364 C 1001.72 3.34499 1.31723 0
M  V30 10365 C 1001.38 4.54933 0.434144 0
M  V30 10366 C 1002.38 5.18969 -0.311015 0
M  V30 10367 C 1000.06 5.01029 0.357046 0
M  V30 10368 C 1002.06 6.27457 -1.12142 0
M  V30 10369 C 999.744 6.09389 -0.457029 0
M  V30 10370 C 1000.74 6.72466 -1.19493 0
M  V30 10371 O 1000.43 7.78738 -1.99556 0
M  V30 10372 H 1000.16 0.655294 0.166028 0
M  V30 10373 H 1002.72 2.04855 -0.149517 0
M  V30 10374 H 1000.95 3.24064 2.10996 0
M  V30 10375 H 1002.63 3.5944 1.88567 0
M  V30 10376 H 1003.4 4.84297 -0.261084 0
M  V30 10377 H 999.28 4.51706 0.921026 0
M  V30 10378 H 1002.82 6.76622 -1.69788 0
M  V30 10379 H 998.721 6.43494 -0.508499 0
M  V30 10380 H 999.489 7.95648 -1.9206 0
M  V30 10381 N 1002.15 -0.195058 1.56388 0
M  V30 10382 C 1003.06 -1.26219 1.97752 0
M  V30 10383 C 1004.08 -1.49801 0.885192 0
M  V30 10384 O 1005.25 -1.62415 1.19094 0
M  V30 10385 C 1002.32 -2.5865 2.3087 0
M  V30 10386 C 1001.38 -2.4314 3.5381 0
M  V30 10387 C 1000.61 -3.69255 3.85339 0
M  V30 10388 O 1000.84 -4.73425 3.18159 0
M  V30 10389 O 999.77 -3.64782 4.78767 0
M  V30 10390 H 1003.6 -0.941161 2.88749 0
M  V30 10391 H 1001.18 -0.40006 1.43944 0
M  V30 10392 H 1003.06 -3.36814 2.53247 0
M  V30 10393 H 1001.74 -2.9038 1.43042 0
M  V30 10394 H 1000.64 -1.63086 3.3668 0
M  V30 10395 H 1001.98 -2.16341 4.42105 0
M  V30 10396 N 1003.63 -1.50653 -0.462772 0
M  V30 10397 C 1004.58 -1.70122 -1.55971 0
M  V30 10398 C 1005.55 -0.542581 -1.56988 0
M  V30 10399 O 1006.73 -0.774114 -1.74391 0
M  V30 10400 C 1003.87 -1.80899 -2.93887 0
M  V30 10401 C 1002.98 -3.08318 -3.02595 0
M  V30 10402 C 1002.12 -3.09841 -4.31477 0
M  V30 10403 C 1001.16 -4.3168 -4.33957 0
M  V30 10404 N 1000.3 -4.30894 -5.54323 0
M  V30 10405 H 1005.14 -2.63768 -1.38674 0
M  V30 10406 H 1002.67 -1.30746 -0.674091 0
M  V30 10407 H 1004.63 -1.85128 -3.73876 0
M  V30 10408 H 1003.26 -0.906854 -3.098 0
M  V30 10409 H 1002.31 -3.13521 -2.15427 0
M  V30 10410 H 1003.62 -3.98282 -3.00288 0
M  V30 10411 H 1002.78 -3.12845 -5.1982 0
M  V30 10412 H 1001.52 -2.17722 -4.36404 0
M  V30 10413 H 1000.52 -4.28879 -3.4401 0
M  V30 10414 H 1001.75 -5.25035 -4.30715 0
M  V30 10415 H 999.694 -3.41633 -5.6002 0
M  V30 10416 H 999.611 -5.14636 -5.53792 0
M  V30 10417 H 1000.88 -4.38056 -6.44769 0
M  V30 10418 N 1005.11 0.71652 -1.4037 0
M  V30 10419 C 1006.34 1.50344 -1.41704 0
M  V30 10420 C 1006.75 1.89194 -0.0148011 0
M  V30 10421 O 1006.09 1.55916 0.971391 0
M  V30 10422 C 1006.15 2.80928 -2.2432 0
M  V30 10423 C 1005.82 2.64406 -3.72744 0
M  V30 10424 C 1006.81 2.31727 -4.65401 0
M  V30 10425 C 1004.5 2.807 -4.16549 0
M  V30 10426 C 1006.49 2.15551 -5.99847 0
M  V30 10427 C 1004.18 2.64141 -5.51065 0
M  V30 10428 C 1005.18 2.31614 -6.42529 0
M  V30 10429 O 1004.86 2.15179 -7.74566 0
M  V30 10430 H 1004.6 0.470574 -0.48532 0
M  V30 10431 H 1007.15 0.89152 -1.85043 0
M  V30 10432 H 1005.38 3.4445 -1.75759 0
M  V30 10433 H 1007.07 3.4264 -2.17607 0
M  V30 10434 H 1007.84 2.18773 -4.32855 0
M  V30 10435 H 1003.71 3.05005 -3.45677 0
M  V30 10436 H 1007.26 1.90084 -6.71203 0
M  V30 10437 H 1003.16 2.76679 -5.83197 0
M  V30 10438 H 1003.92 2.30106 -7.85489 0
M  V30 10439 N 1006.59 1.25851 0.948643 0
M  V30 10440 C 1007.52 1.09248 2.06367 0
M  V30 10441 C 1008.5 -0.000205168 1.701 0
M  V30 10442 O 1009.68 0.170442 1.93451 0
M  V30 10443 C 1006.81 0.716777 3.39823 0
M  V30 10444 C 1005.77 1.76036 3.90122 0
M  V30 10445 C 1005.09 1.23918 5.20143 0
M  V30 10446 C 1006.39 3.16039 4.15833 0
M  V30 10447 H 1008.09 2.02518 2.20515 0
M  V30 10448 H 1005.63 0.975093 1.05962 0
M  V30 10449 H 1007.59 0.587531 4.17284 0
M  V30 10450 H 1006.31 -0.251626 3.25629 0
M  V30 10451 H 1004.97 1.87815 3.14835 0
M  V30 10452 H 1004.62 0.260836 5.02323 0
M  V30 10453 H 1004.32 1.93673 5.54765 0
M  V30 10454 H 1005.84 1.12245 6.00194 0
M  V30 10455 H 1007.25 3.0738 4.83933 0
M  V30 10456 H 1005.65 3.83317 4.61723 0
M  V30 10457 H 1006.72 3.62652 3.21887 0
M  V30 10458 N 1008.06 -1.15214 1.07534 0
M  V30 10459 C 1009.31 -1.85676 0.79805 0
M  V30 10460 C 1009.63 -1.82837 -0.677919 0
M  V30 10461 O 1008.9 -1.27059 -1.49107 0
M  V30 10462 H 1007.48 -0.687468 0.292227 0
M  V30 10463 H 1010.15 -1.39658 1.35947 0
M  V30 10464 H 1009.24 -2.9076 1.13423 0
M  V30 10465 N 1009.54 -0.859717 -1.32086 0
M  V30 10466 C 1010.95 -0.519529 -1.79326 0
M  V30 10467 C 1011.3 0.96295 -1.70944 0
M  V30 10468 O 1010.43 1.75139 -1.27104 0
M  V30 10469 C 1011.02 -0.936267 -3.25606 0
M  V30 10470 C 1009.58 -0.647899 -3.70782 0
M  V30 10471 C 1008.73 -1.13323 -2.53087 0
M  V30 10472 H 1011.68 -1.04643 -1.19312 0
M  V30 10473 H 1011.7 -0.254714 -3.79646 0
M  V30 10474 H 1011.21 -2.01527 -3.31675 0
M  V30 10475 H 1009.32 0.420172 -3.70223 0
M  V30 10476 H 1009.43 -1.21774 -4.63366 0
M  V30 10477 H 1007.79 -0.553325 -2.48617 0
M  V30 10478 H 1008.58 -2.21945 -2.61907 0
M  V30 10479 N 1011.02 1.44971 -0.618145 0
M  V30 10480 C 1011.95 2.28815 0.132751 0
M  V30 10481 C 1012.97 1.40551 0.821535 0
M  V30 10482 O 1014.15 1.64827 0.685155 0
M  V30 10483 C 1011.25 3.1658 1.20955 0
M  V30 10484 C 1010.43 4.33184 0.605821 0
M  V30 10485 C 1009.49 5.0208 1.57488 0
M  V30 10486 O 1008.51 5.58528 1.09706 0
M  V30 10487 N 1009.71 5.02335 2.9093 0
M  V30 10488 H 1012.48 2.939 -0.58674 0
M  V30 10489 H 1010.04 1.55276 -0.458375 0
M  V30 10490 H 1012.03 3.59535 1.85787 0
M  V30 10491 H 1010.6 2.53333 1.83143 0
M  V30 10492 H 1009.82 3.93581 -0.220827 0
M  V30 10493 H 1011.11 5.08471 0.182883 0
M  V30 10494 H 1010.51 4.57783 3.32342 0
M  V30 10495 H 1009.07 5.49119 3.51157 0
M  V30 10496 N 1012.5 0.357919 1.53482 0
M  V30 10497 C 1013.73 -0.234799 2.05261 0
M  V30 10498 C 1014.14 -1.43618 1.23169 0
M  V30 10499 O 1013.48 -1.81801 0.263435 0
M  V30 10500 C 1013.54 -0.699748 3.52624 0
M  V30 10501 C 1013.21 0.383905 4.55385 0
M  V30 10502 C 1014.2 1.23129 5.05109 0
M  V30 10503 C 1011.89 0.541953 4.99368 0
M  V30 10504 C 1013.88 2.22214 5.97411 0
M  V30 10505 C 1011.57 1.53618 5.91477 0
M  V30 10506 C 1012.57 2.37471 6.40388 0
M  V30 10507 O 1012.25 3.35199 7.30682 0
M  V30 10508 H 1011.99 -0.0465364 0.674396 0
M  V30 10509 H 1014.54 0.512355 1.98907 0
M  V30 10510 H 1012.77 -1.49838 3.5649 0
M  V30 10511 H 1014.46 -1.21461 3.87301 0
M  V30 10512 H 1015.23 1.12035 4.71883 0
M  V30 10513 H 1011.1 -0.100929 4.6089 0
M  V30 10514 H 1014.65 2.87702 6.35511 0
M  V30 10515 H 1010.55 1.64763 6.24118 0
M  V30 10516 H 1011.31 3.30838 7.48658 0
M  V30 10517 N 1013.98 -1.5736 0.0868897 0
M  V30 10518 C 1015.22 -1.94341 -0.579598 0
M  V30 10519 C 1015.56 -0.968238 -1.68341 0
M  V30 10520 O 1014.83 8.29649e-05 -1.945 0
M  V30 10521 C 1015.11 -3.41497 -1.14245 0
M  V30 10522 C 1014.97 -4.49778 -0.044255 0
M  V30 10523 C 1016.29 -3.89788 -2.04336 0
M  V30 10524 H 1013.4 -0.70668 -0.20922 0
M  V30 10525 H 1016.05 -1.89359 0.15593 0
M  V30 10526 H 1014.2 -3.45873 -1.76929 0
M  V30 10527 H 1015.87 -4.57517 0.58959 0
M  V30 10528 H 1014.11 -4.293 0.623207 0
M  V30 10529 H 1014.78 -5.4992 -0.478749 0
M  V30 10530 H 1017.26 -3.87513 -1.51569 0
M  V30 10531 H 1016.13 -4.93335 -2.40648 0
M  V30 10532 H 1016.4 -3.28603 -2.95757 0
M  V30 10533 N 1015.45 0.186762 -1.56489 0
M  V30 10534 C 1016.42 1.21511 -1.94339 0
M  V30 10535 C 1017.42 1.38001 -0.82537 0
M  V30 10536 O 1018.61 1.3567 -1.09266 0
M  V30 10537 C 1015.74 2.583 -2.22472 0
M  V30 10538 H 1016.93 0.891371 -2.86347 0
M  V30 10539 H 1014.49 0.428612 -1.50308 0
M  V30 10540 H 1015.22 2.95715 -1.33129 0
M  V30 10541 H 1015.01 2.47701 -3.03951 0
M  V30 10542 H 1016.5 3.32441 -2.5273 0
M  V30 10543 N 1016.93 1.50896 0.454776 0
M  V30 10544 C 1018.18 1.62378 1.20324 0
M  V30 10545 C 1018.5 0.333883 1.9212 0
M  V30 10546 O 1017.77 -0.649477 1.8482 0
M  V30 10547 H 1016.35 0.598395 0.447139 0
M  V30 10548 H 1019.01 1.87749 0.523102 0
M  V30 10549 H 1018.11 2.44296 1.94232 0
M  V30 10550 N 1018.41 -0.709066 1.40748 0
M  V30 10551 C 1019.66 -1.4646 1.38681 0
M  V30 10552 C 1019.97 -1.95599 -0.0056209 0
M  V30 10553 O 1021.18 -2.71091 -0.148907 0
M  V30 10554 C 1019.63 -2.64771 2.43771 0
M  V30 10555 C 1019.24 -2.22474 3.88856 0
M  V30 10556 C 1020.99 -3.42475 2.50821 0
M  V30 10557 C 1018.89 -3.37663 4.85528 0
M  V30 10558 H 1017.82 -0.550084 0.515678 0
M  V30 10559 H 1020.47 -0.771074 1.66513 0
M  V30 10560 H 1018.86 -3.36325 2.09048 0
M  V30 10561 H 1020.03 -1.58297 4.32757 0
M  V30 10562 H 1018.35 -1.57798 3.85342 0
M  V30 10563 H 1020.94 -4.28201 3.20232 0
M  V30 10564 H 1021.29 -3.86738 1.54076 0
M  V30 10565 H 1021.82 -2.77969 2.84567 0
M  V30 10566 H 1018.56 -2.98426 5.83628 0
M  V30 10567 H 1018.08 -4.00734 4.46287 0
M  V30 10568 H 1019.76 -4.03636 5.05655 0
M  V30 10569 N 1019.89 -1.26353 -0.941956 0
M  V30 10570 C 1021.12 -1.14626 -1.72245 0
M  V30 10571 C 1021.53 0.298588 -1.86424 0
M  V30 10572 O 1020.89 1.2045 -1.37106 0
M  V30 10573 C 1020.94 -1.80933 -3.12963 0
M  V30 10574 O 1020.66 -3.19771 -2.99463 0
M  V30 10575 C 1022.16 -1.7515 -4.07231 0
M  V30 10576 H 1019.38 -0.3992 -0.539333 0
M  V30 10577 H 1021.93 -1.66958 -1.1809 0
M  V30 10578 H 1020.08 -1.32541 -3.64021 0
M  V30 10579 H 1020.5 -3.52571 -3.88322 0
M  V30 10580 H 1021.97 -2.26183 -5.03533 0
M  V30 10581 H 1022.45 -0.717855 -4.33294 0
M  V30 10582 H 1023.05 -2.2309 -3.62093 0
M  V30 10583 N 1021.37 1.14642 -1.08144 0
M  V30 10584 C 1022.32 2.21708 -0.703448 0
M  V30 10585 C 1023.31 1.66907 0.289535 0
M  V30 10586 O 1024.52 1.79354 0.152387 0
M  V30 10587 H 1020.89 0.722247 -0.209437 0
M  V30 10588 H 1022.86 2.50862 -1.61588 0
M  V30 10589 C 1021.61 3.47472 -0.125975 0
M  V30 10590 H 1020.93 3.89967 -0.881216 0
M  V30 10591 H 1022.37 4.2388 0.100737 0
M  V30 10592 C 1020.83 3.17189 1.13546 0
M  V30 10593 O 1021.36 3.34733 2.22073 0
M  V30 10594 N 1019.57 2.71169 1.04479 0
M  V30 10595 H 1019.12 2.57093 0.161566 0
M  V30 10596 H 1019.07 2.51282 1.88957 0
M  V30 10597 N 1022.85 0.866709 1.31628 0
M  V30 10598 C 1023.78 0.335762 2.31073 0
M  V30 10599 C 1024.76 -0.571597 1.60209 0
M  V30 10600 O 1025.94 -0.489306 1.87935 0
M  V30 10601 C 1023.07 -0.466416 3.44154 0
M  V30 10602 C 1022.03 0.347561 4.26586 0
M  V30 10603 C 1021.35 -0.5801 5.31544 0
M  V30 10604 C 1022.65 1.57986 4.97833 0
M  V30 10605 H 1024.35 1.16673 2.75731 0
M  V30 10606 H 1021.89 0.56248 1.3256 0
M  V30 10607 H 1023.84 -0.84836 4.12772 0
M  V30 10608 H 1022.57 -1.33086 2.98254 0
M  V30 10609 H 1021.23 0.71141 3.59631 0
M  V30 10610 H 1020.88 -1.44174 4.81895 0
M  V30 10611 H 1020.58 -0.0393965 5.87587 0
M  V30 10612 H 1022.1 -0.958958 6.03023 0
M  V30 10613 H 1023.51 1.26954 5.59067 0
M  V30 10614 H 1021.91 2.05939 5.63657 0
M  V30 10615 H 1022.98 2.3345 4.25005 0
M  V30 10616 N 1024.32 -1.44642 0.625825 0
M  V30 10617 C 1025.27 -2.30653 -0.082259 0
M  V30 10618 C 1026.24 -1.43174 -0.842052 0
M  V30 10619 O 1027.43 -1.72082 -0.824151 0
M  V30 10620 C 1024.57 -3.2837 -1.06146 0
M  V30 10621 C 1023.68 -4.30953 -0.300638 0
M  V30 10622 C 1022.81 -5.15766 -1.27118 0
M  V30 10623 C 1021.85 -6.10061 -0.499215 0
M  V30 10624 N 1020.99 -6.87591 -1.41995 0
M  V30 10625 H 1025.83 -2.90664 0.657161 0
M  V30 10626 H 1023.37 -1.43215 0.335859 0
M  V30 10627 H 1025.32 -3.83507 -1.6425 0
M  V30 10628 H 1023.95 -2.70072 -1.76807 0
M  V30 10629 H 1023.01 -3.78331 0.396234 0
M  V30 10630 H 1024.32 -4.97892 0.300851 0
M  V30 10631 H 1023.47 -5.75394 -1.92372 0
M  V30 10632 H 1022.21 -4.48888 -1.9066 0
M  V30 10633 H 1021.22 -5.49547 0.166848 0
M  V30 10634 H 1022.44 -6.78973 0.131409 0
M  V30 10635 H 1020.39 -6.23387 -2.04267 0
M  V30 10636 H 1020.3 -7.5095 -0.872354 0
M  V30 10637 H 1021.57 -7.51746 -2.0615 0
M  V30 10638 N 1025.8 -0.366053 -1.5329 0
M  V30 10639 C 1026.75 0.480205 -2.25749 0
M  V30 10640 C 1027.72 1.07713 -1.2644 0
M  V30 10641 O 1028.9 1.10953 -1.55222 0
M  V30 10642 C 1026.04 1.61374 -3.05045 0
M  V30 10643 C 1025.16 1.04194 -4.19246 0
M  V30 10644 C 1024.29 2.14462 -4.85983 0
M  V30 10645 C 1023.33 1.5475 -5.92215 0
M  V30 10646 N 1022.47 2.58852 -6.52641 0
M  V30 10647 H 1027.31 -0.144199 -2.97651 0
M  V30 10648 H 1024.84 -0.0829321 -1.46866 0
M  V30 10649 H 1026.8 2.28144 -3.49294 0
M  V30 10650 H 1025.43 2.2088 -2.35397 0
M  V30 10651 H 1024.48 0.264514 -3.79479 0
M  V30 10652 H 1025.8 0.565379 -4.95585 0
M  V30 10653 H 1024.95 2.89051 -5.33418 0
M  V30 10654 H 1023.69 2.6547 -4.09117 0
M  V30 10655 H 1022.69 0.786759 -5.44142 0
M  V30 10656 H 1023.92 1.04566 -6.71001 0
M  V30 10657 H 1021.87 3.09073 -5.78627 0
M  V30 10658 H 1021.78 2.15884 -7.24521 0
M  V30 10659 H 1023.05 3.33142 -7.04724 0
M  V30 10660 N 1027.28 1.57312 -0.0952337 0
M  V30 10661 C 1028.52 1.96239 0.571813 0
M  V30 10662 C 1028.88 0.97602 1.65342 0
M  V30 10663 O 1030.08 1.25379 2.37768 0
M  V30 10664 C 1028.36 3.39644 1.1125 0
M  V30 10665 S 1029.91 4.00568 1.7914 0
M  V30 10666 H 1026.73 0.686081 0.186585 0
M  V30 10667 H 1029.33 1.94718 -0.174669 0
M  V30 10668 H 1028.04 4.09199 0.313796 0
M  V30 10669 H 1027.57 3.44762 1.89481 0
M  V30 10670 H 1029.58 3.89383 3.07563 0
M  V30 10671 N 1028.76 -0.17846 1.56586 0
M  V30 10672 C 1029.98 -0.916061 1.86073 0
M  V30 10673 C 1030.41 -1.75349 0.680754 0
M  V30 10674 O 1029.77 -1.77479 -0.37028 0
M  V30 10675 C 1029.81 -1.77445 3.1392 0
M  V30 10676 O 1028.92 -2.87524 2.95641 0
M  V30 10677 H 1028.26 -0.257031 0.612234 0
M  V30 10678 H 1030.79 -0.178755 2.03818 0
M  V30 10679 H 1030.8 -2.1758 3.45142 0
M  V30 10680 H 1029.47 -1.15927 3.99417 0
M  V30 10681 H 1028.05 -2.51023 2.75757 0
M  V30 10682 N 1030.24 -1.51135 -0.446768 0
M  V30 10683 C 1031.46 -1.67129 -1.21965 0
M  V30 10684 C 1031.88 -0.36467 -1.85245 0
M  V30 10685 O 1031.24 0.655908 -1.70306 0
M  V30 10686 C 1031.29 -2.78016 -2.31061 0
M  V30 10687 O 1031.01 -4.03615 -1.70371 0
M  V30 10688 C 1032.51 -3.05197 -3.21511 0
M  V30 10689 H 1029.73 -0.561111 -0.367961 0
M  V30 10690 H 1032.27 -1.97499 -0.530517 0
M  V30 10691 H 1030.43 -2.50272 -2.95707 0
M  V30 10692 H 1030.84 -4.65126 -2.424 0
M  V30 10693 H 1032.32 -3.8639 -3.94216 0
M  V30 10694 H 1032.79 -2.17228 -3.81718 0
M  V30 10695 H 1033.4 -3.34565 -2.62577 0
M  V30 10696 N 1031.71 0.701592 -1.41122 0
M  V30 10697 C 1032.94 1.49553 -1.43696 0
M  V30 10698 C 1033.36 1.88053 -0.0421865 0
M  V30 10699 O 1032.72 1.54223 0.953144 0
M  V30 10700 C 1032.77 2.73834 -2.34622 0
M  V30 10701 O 1031.87 3.71088 -1.7991 0
M  V30 10702 H 1031.21 0.450352 -0.487933 0
M  V30 10703 H 1033.74 0.862886 -1.85514 0
M  V30 10704 H 1033.75 3.22209 -2.5029 0
M  V30 10705 H 1032.43 2.45149 -3.35969 0
M  V30 10706 H 1031.01 3.29994 -1.73661 0
M  V30 10707 N 1033.19 1.2685 0.935242 0
M  V30 10708 C 1034.6 1.11569 1.49697 0
M  V30 10709 C 1034.95 -0.301952 1.93863 0
M  V30 10710 O 1034.08 -1.19408 1.80473 0
M  V30 10711 C 1034.67 2.01918 2.72056 0
M  V30 10712 C 1033.23 1.90765 3.24477 0
M  V30 10713 C 1032.38 1.94918 1.97237 0
M  V30 10714 H 1035.33 1.39853 0.750116 0
M  V30 10715 H 1035.35 1.57056 3.46574 0
M  V30 10716 H 1034.86 3.05088 2.39881 0
M  V30 10717 H 1032.96 0.905521 3.61429 0
M  V30 10718 H 1033.08 2.76611 3.91182 0
M  V30 10719 H 1031.44 1.39046 2.13397 0
M  V30 10720 H 1032.22 2.99729 1.67385 0
M  V30 10721 N 1034.67 -1.14067 1.0875 0
M  V30 10722 C 1035.6 -2.21385 0.74236 0
M  V30 10723 C 1036.58 -1.67833 -0.276805 0
M  V30 10724 O 1037.77 -1.93647 -0.1464 0
M  V30 10725 C 1034.9 -3.46956 0.154644 0
M  V30 10726 C 1033.85 -4.13555 1.10255 0
M  V30 10727 C 1033.18 -5.3337 0.376877 0
M  V30 10728 C 1034.48 -4.6169 2.44213 0
M  V30 10729 H 1036.17 -2.50512 1.63964 0
M  V30 10730 H 1033.72 -1.20408 0.789807 0
M  V30 10731 H 1035.67 -4.21284 -0.0988419 0
M  V30 10732 H 1034.39 -3.17203 -0.777789 0
M  V30 10733 H 1033.05 -3.41186 1.34119 0
M  V30 10734 H 1032.7 -4.99879 -0.559472 0
M  V30 10735 H 1032.4 -5.78875 1.00884 0
M  V30 10736 H 1033.92 -6.10458 0.131527 0
M  V30 10737 H 1035.34 -5.27475 2.24595 0
M  V30 10738 H 1033.74 -5.17909 3.03134 0
M  V30 10739 H 1034.81 -3.76574 3.05483 0
M  V30 10740 N 1036.15 -0.873678 -1.31166 0
M  V30 10741 C 1037.08 -0.348011 -2.30892 0
M  V30 10742 C 1038.06 0.563092 -1.60509 0
M  V30 10743 O 1039.24 0.479332 -1.88192 0
M  V30 10744 C 1036.37 0.448158 -3.44396 0
M  V30 10745 C 1035.33 -0.370179 -4.26396 0
M  V30 10746 C 1034.65 0.551903 -5.31844 0
M  V30 10747 C 1035.95 -1.60624 -4.96988 0
M  V30 10748 H 1037.65 -1.18134 -2.75109 0
M  V30 10749 H 1035.19 -0.569502 -1.3226 0
M  V30 10750 H 1037.15 0.826458 -4.13216 0
M  V30 10751 H 1035.87 1.31503 -2.98956 0
M  V30 10752 H 1034.53 -0.730472 -3.59249 0
M  V30 10753 H 1034.18 1.41616 -4.82653 0
M  V30 10754 H 1033.88 0.00823478 -5.87599 0
M  V30 10755 H 1035.4 0.926965 -6.03523 0
M  V30 10756 H 1036.82 -1.29917 -5.58386 0
M  V30 10757 H 1035.21 -2.08926 -5.62557 0
M  V30 10758 H 1036.28 -2.357 -4.23761 0
M  V30 10759 N 1037.63 1.44308 -0.633487 0
M  V30 10760 C 1038.54 2.34492 0.0711787 0
M  V30 10761 C 1039.55 1.52754 0.8332 0
M  V30 10762 O 1040.73 1.85475 0.784929 0
M  V30 10763 C 1037.79 3.30767 1.03895 0
M  V30 10764 C 1036.85 4.28412 0.276043 0
M  V30 10765 C 1036.09 5.20087 1.19772 0
M  V30 10766 O 1036.31 5.15743 2.4365 0
M  V30 10767 O 1035.24 5.98038 0.680764 0
M  V30 10768 H 1039.07 2.96203 -0.67063 0
M  V30 10769 H 1036.66 1.4412 -0.393678 0
M  V30 10770 H 1038.54 3.90021 1.59566 0
M  V30 10771 H 1037.21 2.71586 1.76133 0
M  V30 10772 H 1036.12 3.72696 -0.32377 0
M  V30 10773 H 1037.45 4.9052 -0.406364 0
M  V30 10774 N 1039.1 0.374177 1.53094 0
M  V30 10775 C 1040.07 -0.455999 2.24618 0
M  V30 10776 C 1041.07 -1.00269 1.25709 0
M  V30 10777 O 1042.26 -0.887077 1.49922 0
M  V30 10778 C 1039.39 -1.63822 2.98957 0
M  V30 10779 H 1040.58 0.169986 2.99418 0
M  V30 10780 H 1038.14 0.126015 1.55791 0
M  V30 10781 H 1038.87 -2.30205 2.28421 0
M  V30 10782 H 1038.66 -1.25308 3.71538 0
M  V30 10783 H 1040.15 -2.22633 3.53305 0
M  V30 10784 N 1040.58 -1.57259 0.103575 0
M  V30 10785 C 1041.82 -1.96539 -0.561398 0
M  V30 10786 C 1042.19 -0.984775 -1.64822 0
M  V30 10787 O 1043.39 -1.26638 -2.371 0
M  V30 10788 C 1041.66 -3.40229 -1.09447 0
M  V30 10789 S 1043.22 -4.01512 -1.77013 0
M  V30 10790 H 1040.04 -0.687061 -0.182944 0
M  V30 10791 H 1042.64 -1.94623 0.184993 0
M  V30 10792 H 1041.34 -4.09359 -0.292091 0
M  V30 10793 H 1040.87 -3.45762 -1.8765 0
M  V30 10794 H 1042.89 -3.91009 -3.05494 0
M  V30 10795 N 1042.06 0.170153 -1.56679 0
M  V30 10796 C 1042.97 1.23057 -1.99735 0
M  V30 10797 C 1043.99 1.48374 -0.908912 0
M  V30 10798 O 1045.16 1.60499 -1.21663 0
M  V30 10799 C 1042.23 2.54944 -2.34956 0
M  V30 10800 C 1041.29 2.3748 -3.57634 0
M  V30 10801 C 1040.52 3.63078 -3.91165 0
M  V30 10802 O 1040.74 4.68304 -3.2565 0
M  V30 10803 O 1039.68 3.57119 -4.8451 0
M  V30 10804 H 1043.5 0.895104 -2.9021 0
M  V30 10805 H 1041.09 0.377109 -1.44562 0
M  V30 10806 H 1042.97 3.32742 -2.58574 0
M  V30 10807 H 1041.65 2.88068 -1.47643 0
M  V30 10808 H 1040.55 1.57709 -3.39232 0
M  V30 10809 H 1041.89 2.0928 -4.45491 0
M  V30 10810 N 1043.54 1.5137 0.438746 0
M  V30 10811 C 1044.79 1.63969 1.1883 0
M  V30 10812 C 1045.11 0.355245 1.91228 0
M  V30 10813 O 1044.37 -0.660605 1.84213 0
M  V30 10814 C 1044.67 2.79221 2.23093 0
M  V30 10815 C 1044.33 4.18547 1.67717 0
M  V30 10816 C 1043 4.5645 1.52337 0
M  V30 10817 C 1045.35 5.05494 1.26986 0
M  V30 10818 C 1042.68 5.79007 0.946996 0
M  V30 10819 C 1045.03 6.28628 0.707785 0
M  V30 10820 C 1043.69 6.65305 0.540881 0
M  V30 10821 H 1042.96 0.600003 0.43483 0
M  V30 10822 H 1045.61 1.85398 0.479565 0
M  V30 10823 H 1043.91 2.52008 2.99999 0
M  V30 10824 H 1045.61 2.86168 2.80907 0
M  V30 10825 H 1042.2 3.88663 1.80663 0
M  V30 10826 H 1046.38 4.76818 1.37689 0
M  V30 10827 H 1041.64 6.06072 0.805432 0
M  V30 10828 H 1045.81 6.95342 0.38366 0
M  V30 10829 H 1043.44 7.60144 0.0921324 0
M  V30 10830 N 1045.02 -0.694098 1.41492 0
M  V30 10831 C 1045.95 -1.82042 1.46229 0
M  V30 10832 C 1046.93 -1.67047 0.320803 0
M  V30 10833 O 1048.11 -1.86758 0.53245 0
M  V30 10834 C 1045.24 -3.2019 1.34519 0
M  V30 10835 C 1044.2 -3.49892 2.46495 0
M  V30 10836 C 1043.52 -4.87411 2.1985 0
M  V30 10837 C 1044.82 -3.4872 3.88834 0
M  V30 10838 H 1046.52 -1.78335 2.40493 0
M  V30 10839 H 1044.06 -0.856566 1.15754 0
M  V30 10840 H 1046.02 -3.98699 1.36445 0
M  V30 10841 H 1044.74 -3.24527 0.367406 0
M  V30 10842 H 1043.4 -2.73734 2.43854 0
M  V30 10843 H 1043.05 -4.88375 1.20411 0
M  V30 10844 H 1042.75 -5.08248 2.94885 0
M  V30 10845 H 1044.27 -5.68228 2.23494 0
M  V30 10846 H 1045.68 -4.1723 3.93182 0
M  V30 10847 H 1044.08 -3.81089 4.63564 0
M  V30 10848 H 1045.15 -2.47665 4.16881 0
M  V30 10849 N 1046.49 -1.27344 -0.928501 0
M  V30 10850 C 1047.91 -1.04732 -1.2043 0
M  V30 10851 C 1048.11 0.219623 -2.003 0
M  V30 10852 O 1047.17 0.925333 -2.34934 0
M  V30 10853 C 1048.48 -2.28625 -1.95323 0
M  V30 10854 C 1050.03 -2.33655 -2.08265 0
M  V30 10855 C 1050.5 -3.57275 -2.86563 0
M  V30 10856 N 1051.99 -3.57828 -2.94132 0
M  V30 10857 C 1052.73 -4.50152 -3.55177 0
M  V30 10858 N 1052.22 -5.52779 -4.17621 0
M  V30 10859 N 1054.02 -4.37777 -3.52573 0
M  V30 10860 H 1046.17 -2.08697 -0.394892 0
M  V30 10861 H 1048.43 -0.91782 -0.2373 0
M  V30 10862 H 1048.14 -3.20845 -1.44054 0
M  V30 10863 H 1048.01 -2.33878 -2.95941 0
M  V30 10864 H 1050.4 -1.41942 -2.58721 0
M  V30 10865 H 1050.48 -2.32406 -1.0687 0
M  V30 10866 H 1050.12 -4.49325 -2.3679 0
M  V30 10867 H 1050.05 -3.55775 -3.88242 0
M  V30 10868 H 1052.54 -2.83607 -2.49751 0
M  V30 10869 H 1052.86 -6.19394 -4.62137 0
M  V30 10870 H 1051.2 -5.56622 -4.16169 0
M  V30 10871 H 1054.39 -3.56811 -3.02991 0
M  V30 10872 H 1054.57 -5.09919 -3.99858 0
M  V30 10873 N 1047.97 1.13488 -1.09353 0
M  V30 10874 C 1048.92 2.18876 -0.732251 0
M  V30 10875 C 1049.89 1.63616 0.286175 0
M  V30 10876 O 1051.07 1.90059 0.167981 0
M  V30 10877 C 1048.21 3.44737 -0.158157 0
M  V30 10878 C 1047.33 4.14104 -1.23053 0
M  V30 10879 C 1046.46 5.27578 -0.619272 0
M  V30 10880 C 1045.5 5.88793 -1.67301 0
M  V30 10881 N 1044.64 6.937 -1.08283 0
M  V30 10882 H 1049.48 2.49128 -1.63522 0
M  V30 10883 H 1047.02 1.22326 -0.816995 0
M  V30 10884 H 1048.97 4.16756 0.192488 0
M  V30 10885 H 1047.6 3.14938 0.708082 0
M  V30 10886 H 1046.66 3.40376 -1.69847 0
M  V30 10887 H 1047.97 4.55683 -2.02865 0
M  V30 10888 H 1047.12 6.0631 -0.217428 0
M  V30 10889 H 1045.86 4.87246 0.210399 0
M  V30 10890 H 1044.87 5.08756 -2.0844 0
M  V30 10891 H 1046.09 6.31197 -2.50533 0
M  V30 10892 H 1044.04 6.55426 -0.274426 0
M  V30 10893 H 1043.95 7.33817 -1.81792 0
M  V30 10894 H 1045.22 7.76286 -0.707167 0
M  V30 10895 O 1049.49 1.01379 1.25716 0
M  V30 10896 H 1050.18 0.672632 1.81646 0
M  V30 END ATOM
M  V30 BEGIN BOND
M  V30 END BOND
M  V30 END CTAB
M  END
$$$$
