drugbank_target|P0AD68 Peptidoglycan synthase FtsI (DB00267; DB00274; DB00303; DB00430; DB00438; DB01327; DB01328; DB01329; DB01331; DB01413; DB01415; DB01416; DB04918)
 OpenBabel12092120143D

  0  0  0     0  0            999 V3000
M  V30 BEGIN CTAB
M  V30 COUNTS 9083 9169 0 0 0
M  V30 BEGIN ATOM
M  V30 1 H -0.908 1.98254 -0.117106 0
M  V30 2 N 0 1.576 0 0
M  V30 3 C 0.933 2.03868 1.02534 0
M  V30 4 C 1.911 0.928543 1.3348 0
M  V30 5 O 3.095 1.19667 1.45644 0
M  V30 6 C 0.222 2.43627 2.35294 0
M  V30 7 C -0.732 3.65373 2.2001 0
M  V30 8 S 0.101 5.13292 1.52614 0
M  V30 9 C 1.257 5.56322 2.86805 0
M  V30 10 H 1.49 2.90518 0.631377 0
M  V30 11 H -0.977 1.52953 0.210867 0
M  V30 12 H 0.981 2.67203 3.11629 0
M  V30 13 H -0.358 1.57376 2.7183 0
M  V30 14 H -1.165 3.90944 3.18086 0
M  V30 15 H -1.563 3.418 1.51819 0
M  V30 16 H 0.729 5.58782 3.83104 0
M  V30 17 H 1.672 6.56266 2.65933 0
M  V30 18 H 2.08 4.83886 2.90714 0
M  V30 19 N 1.4781 -0.272755 1.55222 0
M  V30 20 C 2.4251 -1.33716 1.88119 0
M  V30 21 C 3.3951 -1.49066 0.73271 0
M  V30 22 O 4.5801 -1.63469 0.984002 0
M  V30 23 C 1.7201 -2.69238 2.15882 0
M  V30 24 C 0.8331 -2.62108 3.43399 0
M  V30 25 C -0.0319 -3.89811 3.60861 0
M  V30 26 C -0.9929 -3.77193 4.8207 0
M  V30 27 N -1.8559 -4.9673 4.96189 0
M  V30 28 H 2.9841 -1.04962 2.78903 0
M  V30 29 H 0.5211 -0.507088 1.38083 0
M  V30 30 H 2.4791 -3.48089 2.29978 0
M  V30 31 H 1.1091 -2.96194 1.28331 0
M  V30 32 H 0.1611 -1.74967 3.37773 0
M  V30 33 H 1.4731 -2.48685 4.32386 0
M  V30 34 H 0.6271 -4.77103 3.74777 0
M  V30 35 H -0.6339 -4.06102 2.7006 0
M  V30 36 H -1.6289 -2.88284 4.68159 0
M  V30 37 H -0.4039 -3.62421 5.74307 0
M  V30 38 H -2.4579 -5.13431 4.08319 0
M  V30 39 H -2.5409 -4.85839 5.79221 0
M  V30 40 H -1.2729 -5.85594 5.1449 0
M  V30 41 N 2.9562 -1.48159 -0.537278 0
M  V30 42 C 3.9192 -1.61665 -1.62472 0
M  V30 43 C 4.9192 -0.490395 -1.5314 0
M  V30 44 O 6.1092 -0.755998 -1.5694 0
M  V30 45 C 3.2412 -1.57997 -3.02076 0
M  V30 46 H 4.4342 -2.58621 -1.51839 0
M  V30 47 H 1.9872 -1.36647 -0.758771 0
M  V30 48 H 2.7222 -0.624913 -3.18222 0
M  V30 49 H 2.5072 -2.39755 -3.10258 0
M  V30 50 H 3.9972 -1.70627 -3.81151 0
M  V30 51 N 4.4343 0.785586 -1.36625 0
M  V30 52 C 5.3973 1.87999 -1.31107 0
M  V30 53 C 6.3973 1.59316 -0.217959 0
M  V30 54 O 7.5873 1.67656 -0.472977 0
M  V30 55 C 4.7193 3.24861 -1.03334 0
M  V30 56 H 5.9123 1.94307 -2.2844 0
M  V30 57 H 3.4653 0.983813 -1.21453 0
M  V30 58 H 4.2003 3.24235 -0.0647432 0
M  V30 59 H 3.9853 3.4707 -1.82441 0
M  V30 60 H 5.4753 4.04929 -1.02088 0
M  V30 61 N 5.9124 1.20967 1.01018 0
M  V30 62 C 6.8754 0.965918 2.07853 0
M  V30 63 C 7.8754 -0.0610545 1.60684 0
M  V30 64 O 9.0654 0.175681 1.73312 0
M  V30 65 C 6.1974 0.455513 3.37843 0
M  V30 66 H 7.3904 1.91365 2.3091 0
M  V30 67 H 4.9434 1.02594 1.17916 0
M  V30 68 H 5.6784 -0.497381 3.20463 0
M  V30 69 H 5.4634 1.19622 3.73407 0
M  V30 70 H 6.9534 0.304667 4.16487 0
M  V30 71 N 7.3905 -1.2043 1.01659 0
M  V30 72 C 8.3375 -2.23215 0.586822 0
M  V30 73 C 9.3075 -1.61382 -0.393085 0
M  V30 74 O 10.4925 -1.88544 -0.292525 0
M  V30 75 C 7.6325 -3.45032 -0.0687464 0
M  V30 76 C 6.7455 -4.21296 0.955724 0
M  V30 77 C 5.8805 -5.30507 0.271208 0
M  V30 78 C 4.9195 -5.98515 1.28244 0
M  V30 79 N 4.0565 -6.99316 0.62459 0
M  V30 80 H 8.8965 -2.59336 1.46796 0
M  V30 81 H 6.4335 -1.27431 0.734836 0
M  V30 82 H 8.3915 -4.1459 -0.465965 0
M  V30 83 H 7.0215 -3.09604 -0.913529 0
M  V30 84 H 6.0735 -3.50803 1.4711 0
M  V30 85 H 7.3855 -4.6803 1.72479 0
M  V30 86 H 6.5395 -6.06428 -0.18151 0
M  V30 87 H 5.2785 -4.8481 -0.530163 0
M  V30 88 H 4.2835 -5.21355 1.74554 0
M  V30 89 H 5.5085 -6.46298 2.08509 0
M  V30 90 H 3.4545 -6.55812 -0.156914 0
M  V30 91 H 3.3715 -7.44178 1.33172 0
M  V30 92 H 4.6395 -7.79255 0.195462 0
M  V30 93 N 8.8686 -0.792821 -1.36206 0
M  V30 94 C 10.0966 -0.378825 -2.03402 0
M  V30 95 C 10.5116 1.00586 -1.59774 0
M  V30 96 O 9.8686 1.64574 -0.788764 0
M  V30 97 C 9.9196 -0.43683 -3.58851 0
M  V30 98 O 9.6406 -1.76691 -4.00889 0
M  V30 99 C 11.1416 -0.0138943 -4.43298 0
M  V30 100 H 8.3616 -0.155673 -0.652692 0
M  V30 101 H 10.9056 -1.07261 -1.74113 0
M  V30 102 H 9.0606 0.208575 -3.86838 0
M  V30 103 H 9.4746 -1.72011 -4.95492 0
M  V30 104 H 10.9486 -0.105615 -5.51899 0
M  V30 105 H 11.4256 1.03915 -4.2673 0
M  V30 106 H 12.0316 -0.63192 -4.20579 0
M  V30 107 N 10.3467 1.47872 -0.545128 0
M  V30 108 C 11.2787 2.27869 0.246621 0
M  V30 109 C 12.2917 1.36282 0.890561 0
M  V30 110 O 13.4807 1.61207 0.766449 0
M  V30 111 C 10.5807 3.10159 1.36582 0
M  V30 112 C 9.7537 4.29627 0.820954 0
M  V30 113 C 8.8127 4.93607 1.82314 0
M  V30 114 O 7.8387 5.52366 1.37406 0
M  V30 115 N 9.0407 4.87211 3.15603 0
M  V30 116 H 11.8057 2.96459 -0.439539 0
M  V30 117 H 9.3667 1.57367 -0.380421 0
M  V30 118 H 11.3587 3.49829 2.03474 0
M  V30 119 H 9.9287 2.43891 1.9554 0
M  V30 120 H 9.1487 3.94192 -0.0244032 0
M  V30 121 H 10.4367 5.06928 0.436063 0
M  V30 122 H 9.8347 4.40651 3.54744 0
M  V30 123 H 8.3917 5.30937 3.78087 0
M  V30 124 N 11.8248 0.280983 1.55075 0
M  V30 125 C 12.7718 -0.603937 2.22758 0
M  V30 126 C 13.7418 -1.1452 1.20309 0
M  V30 127 O 14.9268 -1.19343 1.48869 0
M  V30 128 C 12.0668 -1.77947 2.95684 0
M  V30 129 C 11.1798 -1.2715 4.12864 0
M  V30 130 C 10.3148 -2.4093 4.7342 0
M  V30 131 C 9.3538 -1.87165 5.82783 0
M  V30 132 N 8.4908 -2.94441 6.37377 0
M  V30 133 H 13.3308 -0.020124 2.97993 0
M  V30 134 H 10.8678 0.00183425 1.471 0
M  V30 135 H 12.8258 -2.47055 3.36184 0
M  V30 136 H 11.4558 -2.33522 2.22861 0
M  V30 137 H 10.5078 -0.473331 3.77444 0
M  V30 138 H 11.8198 -0.837751 4.91715 0
M  V30 139 H 10.9738 -3.18021 5.1667 0
M  V30 140 H 9.7128 -2.87623 3.93859 0
M  V30 141 H 8.7178 -1.08556 5.38976 0
M  V30 142 H 9.9428 -1.41401 6.64216 0
M  V30 143 H 7.8888 -3.40505 5.60707 0
M  V30 144 H 7.8058 -2.55501 7.11516 0
M  V30 145 H 9.0738 -3.71489 6.85285 0
M  V30 146 N 13.3029 -1.57598 0.00835791 0
M  V30 147 C 14.7139 -1.7892 -0.53333 0
M  V30 148 C 15.0649 -0.916609 -1.73473 0
M  V30 149 O 14.1899 -0.121336 -2.1606 0
M  V30 150 C 14.7849 -3.24488 -0.974313 0
M  V30 151 C 13.3439 -3.46878 -1.46125 0
M  V30 152 C 12.4909 -2.74157 -0.416302 0
M  V30 153 H 15.4419 -1.56958 0.234495 0
M  V30 154 H 15.4629 -3.3306 -1.83988 0
M  V30 155 H 14.9749 -3.87972 -0.099718 0
M  V30 156 H 13.0759 -2.8862 -2.35646 0
M  V30 157 H 13.1889 -4.55572 -1.48295 0
M  V30 158 H 11.5529 -2.39022 -0.87981 0
M  V30 159 H 12.3359 -3.40345 0.44947 0
M  V30 160 N 14.781 0.264519 -1.55364 0
M  V30 161 C 15.728 1.32717 -1.88825 0
M  V30 162 C 16.698 1.48675 -0.740605 0
M  V30 163 O 17.883 1.62945 -0.992657 0
M  V30 164 C 15.023 2.68089 -2.17307 0
M  V30 165 C 14.136 2.60284 -3.44785 0
M  V30 166 C 13.271 3.87892 -3.62924 0
M  V30 167 C 12.31 3.74631 -4.84064 0
M  V30 168 N 11.447 4.94092 -4.98816 0
M  V30 169 H 16.287 1.03481 -2.79456 0
M  V30 170 H 13.824 0.499757 -1.3835 0
M  V30 171 H 15.782 3.46864 -2.31821 0
M  V30 172 H 14.412 2.95509 -1.299 0
M  V30 173 H 13.464 1.73173 -3.38697 0
M  V30 174 H 14.776 2.46388 -4.33698 0
M  V30 175 H 13.93 4.75109 -3.77302 0
M  V30 176 H 12.669 4.04664 -2.7221 0
M  V30 177 H 11.674 2.85797 -4.69681 0
M  V30 178 H 12.899 3.5937 -5.76221 0
M  V30 179 H 10.845 5.11259 -4.11036 0
M  V30 180 H 10.762 4.8276 -5.81789 0
M  V30 181 H 12.03 5.82857 -5.17588 0
M  V30 182 N 16.2591 1.48442 0.529413 0
M  V30 183 C 17.6751 1.34575 0.858004 0
M  V30 184 C 17.8751 0.3572 1.98309 0
M  V30 185 O 16.9311 -0.221379 2.51528 0
M  V30 186 C 18.2441 2.74617 1.22499 0
M  V30 187 C 19.7921 2.83109 1.33484 0
M  V30 188 C 20.2671 4.23854 1.73526 0
M  V30 189 N 21.7581 4.2653 1.80628 0
M  V30 190 C 22.4931 5.32372 2.12997 0
M  V30 191 N 21.9891 6.48491 2.43786 0
M  V30 192 N 23.7821 5.19766 2.14008 0
M  V30 193 H 15.9331 2.1133 -0.212925 0
M  V30 194 H 18.1961 0.947439 -0.0326199 0
M  V30 195 H 17.9021 3.4852 0.471905 0
M  V30 196 H 17.7761 3.08177 2.17501 0
M  V30 197 H 20.1631 2.09462 2.0787 0
M  V30 198 H 20.2441 2.53168 0.366027 0
M  V30 199 H 19.8881 4.98018 0.997013 0
M  V30 200 H 19.8181 4.5124 2.71459 0
M  V30 201 H 22.3091 3.42772 1.59108 0
M  V30 202 H 22.6221 7.24993 2.67592 0
M  V30 203 H 20.9671 6.51765 2.41304 0
M  V30 204 H 24.1581 4.28066 1.89412 0
M  V30 205 H 24.3311 6.02354 2.38902 0
M  V30 206 N 17.7372 -0.778329 1.37039 0
M  V30 207 C 18.6692 -1.90034 1.2814 0
M  V30 208 C 19.6822 -1.61585 0.198558 0
M  V30 209 O 20.8712 -1.72625 0.454175 0
M  V30 210 C 17.9712 -3.25108 0.956968 0
M  V30 211 C 17.1442 -3.81253 2.14394 0
M  V30 212 C 16.2032 -4.94789 1.79082 0
M  V30 213 O 15.2292 -5.10721 2.51301 0
M  V30 214 N 16.4312 -5.75878 0.731043 0
M  V30 215 H 19.1962 -1.98186 2.24816 0
M  V30 216 H 16.7572 -0.957129 1.30578 0
M  V30 217 H 18.7492 -3.9857 0.701701 0
M  V30 218 H 17.3192 -3.125 0.0789812 0
M  V30 219 H 16.5392 -2.99647 2.56135 0
M  V30 220 H 17.8272 -4.15495 2.93668 0
M  V30 221 H 17.2252 -5.65547 0.131618 0
M  V30 222 H 15.7822 -6.49596 0.535622 0
M  V30 223 N 19.2153 -1.21501 -1.00376 0
M  V30 224 C 20.1253 -0.991447 -2.12621 0
M  V30 225 C 21.1413 0.0568446 -1.73907 0
M  V30 226 O 22.3173 -0.13348 -2.00957 0
M  V30 227 C 19.3823 -0.560312 -3.42142 0
M  V30 228 C 18.4433 -1.68096 -3.95022 0
M  V30 229 C 17.6763 -1.2703 -5.18362 0
M  V30 230 O 17.8993 -0.144438 -5.70217 0
M  V30 231 O 16.8333 -2.08269 -5.64719 0
M  V30 232 H 20.6593 -1.93158 -2.34358 0
M  V30 233 H 18.2443 -0.999999 -1.10997 0
M  V30 234 H 20.1263 -0.329724 -4.20108 0
M  V30 235 H 18.8013 0.351089 -3.2179 0
M  V30 236 H 17.7083 -1.96597 -3.18278 0
M  V30 237 H 19.0413 -2.56983 -4.19786 0
M  V30 238 N 20.6934 1.19889 -1.02296 0
M  V30 239 C 21.6034 2.26571 -0.608508 0
M  V30 240 C 22.6194 1.70299 0.356964 0
M  V30 241 O 23.7954 2.00235 0.216326 0
M  V30 242 C 20.8604 3.46677 0.0402814 0
M  V30 243 C 19.9214 4.18153 -0.97194 0
M  V30 244 C 19.1544 5.32525 -0.354016 0
M  V30 245 O 19.3774 5.64112 0.844604 0
M  V30 246 O 18.3114 5.92242 -1.07391 0
M  V30 247 H 22.1374 2.64251 -1.49684 0
M  V30 248 H 19.7224 1.26629 -0.792809 0
M  V30 249 H 21.6044 4.19475 0.402324 0
M  V30 250 H 20.2794 3.10858 0.902707 0
M  V30 251 H 19.1864 3.47499 -1.38546 0
M  V30 252 H 20.5194 4.57927 -1.80454 0
M  V30 253 N 22.1715 0.800033 1.35784 0
M  V30 254 C 23.1215 0.178654 2.27299 0
M  V30 255 C 24.1055 -0.643667 1.47464 0
M  V30 256 O 25.2975 -0.502 1.69732 0
M  V30 257 C 22.4265 -0.677194 3.36555 0
M  V30 258 C 21.5125 0.154497 4.23818 0
M  V30 259 N 21.9035 1.21427 4.91008 0
M  V30 260 C 20.2015 -0.0649462 4.45953 0
M  V30 261 C 20.9025 1.72147 5.55644 0
M  V30 262 N 19.8785 1.02897 5.33773 0
M  V30 263 H 23.6805 0.989637 2.76737 0
M  V30 264 H 21.1945 0.64054 1.49234 0
M  V30 265 H 23.1915 -1.13835 4.01058 0
M  V30 266 H 21.8515 -1.4866 2.8867 0
M  V30 267 H 22.8625 1.59684 4.92668 0
M  V30 268 H 19.5395 -0.844016 4.0888 0
M  V30 269 H 20.9295 2.60683 6.19269 0
M  V30 270 N 23.6496 -1.47581 0.552962 0
M  V30 271 C 24.6126 -2.28439 -0.186605 0
M  V30 272 C 25.6126 -1.36706 -0.84665 0
M  V30 273 O 26.8026 -1.59378 -0.703164 0
M  V30 274 C 23.9346 -3.16264 -1.2724 0
M  V30 275 H 25.1276 -2.95294 0.523609 0
M  V30 276 H 22.6806 -1.532 0.309745 0
M  V30 277 H 23.4156 -2.54091 -2.01514 0
M  V30 278 H 23.2006 -3.83769 -0.803968 0
M  V30 279 H 24.6906 -3.77198 -1.79196 0
M  V30 280 N 25.1277 -0.289203 -1.54924 0
M  V30 281 C 26.0757 0.607966 -2.24514 0
M  V30 282 C 27.0697 1.14655 -1.24702 0
M  V30 283 O 28.2757 1.09856 -1.4259 0
M  V30 284 H 24.6507 0.21464 -0.720718 0
M  V30 285 H 26.6217 -0.00164182 -2.984 0
M  V30 286 C 25.3707 1.77406 -2.99036 0
M  V30 287 H 24.6937 1.36884 -3.75637 0
M  V30 288 H 26.1337 2.37814 -3.51028 0
M  V30 289 C 24.5927 2.67107 -2.05318 0
M  V30 290 O 25.1227 3.6787 -1.61353 0
M  V30 291 N 23.3287 2.34582 -1.71521 0
M  V30 292 H 22.8757 1.52688 -2.07471 0
M  V30 293 H 22.8337 2.94867 -1.0909 0
M  V30 294 N 26.6058 1.57591 -0.0167156 0
M  V30 295 C 27.8528 1.91283 0.664597 0
M  V30 296 C 28.1808 0.891949 1.72842 0
M  V30 297 O 27.4358 -0.100931 1.9544 0
M  V30 298 C 27.7348 3.3172 1.33029 0
M  V30 299 C 27.4008 4.4914 0.398047 0
M  V30 300 C 26.0628 4.80992 0.141421 0
M  V30 301 C 28.4148 5.20634 -0.242825 0
M  V30 302 C 25.7428 5.81703 -0.764092 0
M  V30 303 C 28.0948 6.22311 -1.13632 0
M  V30 304 C 26.7588 6.52611 -1.40196 0
M  V30 305 H 26.0288 0.699956 0.243193 0
M  V30 306 H 28.6758 1.9135 -0.0758267 0
M  V30 307 H 26.9808 3.27856 2.14517 0
M  V30 308 H 28.6778 3.55055 1.86379 0
M  V30 309 H 25.2678 4.24262 0.608238 0
M  V30 310 H 29.4518 4.96267 -0.0576019 0
M  V30 311 H 24.7078 6.03532 -0.977732 0
M  V30 312 H 28.8818 6.76834 -1.63917 0
M  V30 313 H 26.5088 7.30467 -2.10529 0
M  V30 314 N 28.0839 -0.256276 1.55502 0
M  V30 315 C 29.3329 -0.983486 1.76098 0
M  V30 316 C 29.6459 -1.86837 0.578896 0
M  V30 317 O 30.8519 -2.63163 0.667648 0
M  V30 318 C 29.3079 -1.79868 3.1173 0
M  V30 319 C 28.9159 -0.961648 4.37557 0
M  V30 320 C 30.6599 -2.51919 3.41668 0
M  V30 321 C 28.5669 -1.77219 5.64223 0
M  V30 322 H 27.4969 -0.370936 0.656447 0
M  V30 323 H 30.1479 -0.238492 1.81944 0
M  V30 324 H 28.5299 -2.58527 2.99966 0
M  V30 325 H 29.7039 -0.218048 4.60284 0
M  V30 326 H 28.0189 -0.354913 4.14885 0
M  V30 327 H 30.6159 -3.12998 4.33516 0
M  V30 328 H 30.9589 -3.23059 2.62562 0
M  V30 329 H 31.4919 -1.80278 3.54605 0
M  V30 330 H 28.2309 -1.10471 6.46124 0
M  V30 331 H 27.7509 -2.49132 5.45613 0
M  V30 332 H 29.4299 -2.34169 6.03137 0
M  V30 333 N 29.562 -1.4872 -0.521534 0
M  V30 334 C 30.787 -1.61101 -1.30618 0
M  V30 335 C 31.212 -0.274611 -1.86085 0
M  V30 336 O 30.57 0.754937 -1.64834 0
M  V30 337 C 30.618 -2.66709 -2.4269 0
M  V30 338 O 29.722 -2.24456 -3.45967 0
M  V30 339 H 29.063 -0.539921 -0.386499 0
M  V30 340 H 31.593 -1.94767 -0.626645 0
M  V30 341 H 31.603 -2.88245 -2.88754 0
M  V30 342 H 30.278 -3.63727 -2.01682 0
M  V30 343 H 28.855 -2.13168 -3.05964 0
M  V30 344 N 31.0401 0.771051 -1.3745 0
M  V30 345 C 32.2861 1.53109 -1.339 0
M  V30 346 C 32.6411 1.9225 0.0758401 0
M  V30 347 O 31.9341 1.61264 1.03463 0
M  V30 348 C 32.1281 2.80676 -2.2126 0
M  V30 349 C 31.9571 2.54003 -3.71096 0
M  V30 350 C 30.7271 2.48097 -4.402 0
M  V30 351 C 32.9251 2.21953 -4.63941 0
M  V30 352 N 30.9071 2.13515 -5.75573 0
M  V30 353 C 32.2781 1.97516 -5.87697 0
M  V30 354 C 34.3331 2.08114 -4.5232 0
M  V30 355 C 33.0361 1.60638 -7.01133 0
M  V30 356 C 35.0621 1.72636 -5.65642 0
M  V30 357 C 34.4241 1.4906 -6.88448 0
M  V30 358 H 30.5231 0.56055 -0.54526 0
M  V30 359 H 33.1071 0.899472 -1.72678 0
M  V30 360 H 31.2781 3.41674 -1.84698 0
M  V30 361 H 33.0101 3.46578 -2.08963 0
M  V30 362 H 29.7651 2.63974 -3.93211 0
M  V30 363 H 30.1891 1.98919 -6.47117 0
M  V30 364 H 34.8311 2.25024 -3.57944 0
M  V30 365 H 32.5491 1.42467 -7.95443 0
M  V30 366 H 36.1351 1.62586 -5.58621 0
M  V30 367 H 35.0151 1.22014 -7.7465 0
M  V30 368 N 32.5182 1.22032 0.997298 0
M  V30 369 C 33.9342 0.979326 1.26021 0
M  V30 370 C 34.1342 -0.32972 1.98784 0
M  V30 371 O 33.1902 -1.05345 2.29475 0
M  V30 372 C 34.5032 2.17509 2.07631 0
M  V30 373 C 36.0512 2.21817 2.2083 0
M  V30 374 C 36.5262 3.40933 3.05825 0
M  V30 375 N 38.0172 3.41067 3.13412 0
M  V30 376 C 38.7522 4.29885 3.79455 0
M  V30 377 N 38.2482 5.28914 4.47462 0
M  V30 378 N 40.0412 4.17673 3.76173 0
M  V30 379 H 32.1922 2.06202 0.509352 0
M  V30 380 H 34.4552 0.90334 0.287541 0
M  V30 381 H 34.1612 3.12415 1.61524 0
M  V30 382 H 34.0352 2.17206 3.08385 0
M  V30 383 H 36.4222 1.27462 2.66153 0
M  V30 384 H 36.5032 2.2616 1.1952 0
M  V30 385 H 36.1472 4.35586 2.61203 0
M  V30 386 H 36.0772 3.33829 4.07266 0
M  V30 387 H 38.5682 2.69406 2.65007 0
M  V30 388 H 38.8812 5.92973 4.95583 0
M  V30 389 H 37.2262 5.32831 4.46224 0
M  V30 390 H 40.4172 3.39564 3.22202 0
M  V30 391 H 40.5902 4.87098 4.27363 0
M  V30 392 N 33.9963 -1.19345 1.0293 0
M  V30 393 C 35.2433 -1.89038 0.726008 0
M  V30 394 C 35.5713 -1.79649 -0.745427 0
M  V30 395 O 34.8263 -1.18354 -1.55855 0
M  V30 396 C 35.1253 -3.39292 1.12319 0
M  V30 397 C 34.7913 -3.68885 2.59297 0
M  V30 398 C 33.4533 -3.76671 2.99453 0
M  V30 399 C 35.8053 -3.82178 3.54386 0
M  V30 400 C 33.1333 -3.9522 4.33611 0
M  V30 401 C 35.4853 -4.0224 4.88248 0
M  V30 402 C 34.1493 -4.08259 5.28092 0
M  V30 403 H 33.4193 -0.691739 0.265665 0
M  V30 404 H 36.0663 -1.41328 1.29223 0
M  V30 405 H 34.3713 -3.88903 0.475584 0
M  V30 406 H 36.0683 -3.91536 0.866037 0
M  V30 407 H 32.6583 -3.63433 2.27189 0
M  V30 408 H 36.8423 -3.75505 3.24514 0
M  V30 409 H 32.0983 -3.98119 4.64016 0
M  V30 410 H 36.2723 -4.11468 5.61843 0
M  V30 411 H 33.8993 -4.22384 6.32057 0
M  V30 412 N 35.4744 -0.807222 -1.35358 0
M  V30 413 C 36.4374 -0.223665 -2.28106 0
M  V30 414 C 37.4374 0.589354 -1.4961 0
M  V30 415 O 38.6274 0.407745 -1.69361 0
M  V30 416 C 35.7594 0.688149 -3.33882 0
M  V30 417 H 36.9524 -1.04169 -2.81227 0
M  V30 418 H 34.5054 -0.577921 -1.45223 0
M  V30 419 H 35.2404 1.52984 -2.85948 0
M  V30 420 H 35.0254 0.10687 -3.91954 0
M  V30 421 H 36.5154 1.09075 -4.03104 0
M  V30 422 N 36.9525 1.47285 -0.560781 0
M  V30 423 C 37.8825 2.32857 0.173105 0
M  V30 424 C 38.8635 1.44009 0.905281 0
M  V30 425 O 40.0485 1.7286 0.885046 0
M  V30 426 C 37.1785 3.25861 1.20133 0
M  V30 427 C 36.1325 4.23978 0.585388 0
M  V30 428 C 35.4585 5.06332 1.7185 0
M  V30 429 C 36.7585 5.20242 -0.463178 0
M  V30 430 H 38.4525 2.94466 -0.541307 0
M  V30 431 H 35.9985 1.41601 -0.261764 0
M  V30 432 H 37.9515 3.84569 1.72293 0
M  V30 433 H 36.6755 2.62315 1.94573 0
M  V30 434 H 35.3345 3.66501 0.085054 0
M  V30 435 H 34.9825 4.39186 2.45203 0
M  V30 436 H 34.6825 5.72762 1.31213 0
M  V30 437 H 36.2065 5.67899 2.24329 0
M  V30 438 H 37.6205 5.73293 -0.027502 0
M  V30 439 H 36.0175 5.94896 -0.788627 0
M  V30 440 H 37.0875 4.65504 -1.35773 0
M  V30 441 N 38.4306 0.297415 1.54768 0
M  V30 442 C 39.3606 -0.573494 2.26348 0
M  V30 443 C 40.3416 -1.14085 1.26169 0
M  V30 444 O 41.5266 -1.17086 1.54934 0
M  V30 445 C 38.6566 -1.74716 3.00153 0
M  V30 446 C 37.6106 -1.31032 4.07449 0
M  V30 447 C 36.9366 -2.56887 4.68949 0
M  V30 448 C 38.2366 -0.444183 5.20408 0
M  V30 449 H 39.9306 0.0235131 2.99391 0
M  V30 450 H 37.4766 0.0127488 1.43994 0
M  V30 451 H 39.4296 -2.3625 3.48947 0
M  V30 452 H 38.1536 -2.37035 2.24682 0
M  V30 453 H 36.8126 -0.718066 3.59499 0
M  V30 454 H 36.4606 -3.17512 3.90122 0
M  V30 455 H 36.1606 -2.2836 5.41411 0
M  V30 456 H 37.6846 -3.19229 5.20505 0
M  V30 457 H 39.0986 -0.9651 5.65118 0
M  V30 458 H 37.4956 -0.252846 5.99567 0
M  V30 459 H 38.5656 0.531609 4.81977 0
M  V30 460 N 39.9087 -1.5758 0.0250728 0
M  V30 461 C 41.1487 -1.93497 -0.65865 0
M  V30 462 C 41.5127 -0.901409 -1.69525 0
M  V30 463 O 42.7137 -1.14664 -2.43116 0
M  V30 464 C 40.9847 -3.34352 -1.26267 0
M  V30 465 S 42.5437 -3.92191 -1.96803 0
M  V30 466 H 39.3617 -0.67709 -0.216958 0
M  V30 467 H 41.9637 -1.95303 0.0877692 0
M  V30 468 H 40.6677 -4.07395 -0.495741 0
M  V30 469 H 40.1987 -3.3598 -2.04648 0
M  V30 470 H 42.2137 -3.75298 -3.24601 0
M  V30 471 N 41.3868 0.248026 -1.55636 0
M  V30 472 C 42.6348 0.974295 -1.77065 0
M  V30 473 C 42.9558 1.85897 -0.588849 0
M  V30 474 O 42.2258 1.91868 0.395407 0
M  V30 475 H 40.8058 0.362733 -0.653019 0
M  V30 476 H 43.4678 0.266244 -1.93073 0
M  V30 477 H 42.5638 1.59667 -2.68166 0
M  V30 478 N 42.8649 1.48995 0.513639 0
M  V30 479 C 44.1049 1.59452 1.27885 0
M  V30 480 C 44.4689 0.269479 1.90099 0
M  V30 481 O 45.6699 0.249139 2.67643 0
M  V30 482 C 43.9409 2.71277 2.32688 0
M  V30 483 S 45.4999 3.01604 3.18717 0
M  V30 484 H 42.3179 0.562565 0.434789 0
M  V30 485 H 44.9199 1.86595 0.583301 0
M  V30 486 H 43.6239 3.66089 1.8549 0
M  V30 487 H 43.1549 2.46086 3.06929 0
M  V30 488 H 45.1699 2.42155 4.331 0
M  V30 489 N 44.343 -0.763751 1.37857 0
M  V30 490 C 45.592 -1.51789 1.32827 0
M  V30 491 C 45.905 -1.95426 -0.0823719 0
M  V30 492 O 47.111 -2.70298 -0.255172 0
M  V30 493 C 45.567 -2.74133 2.33193 0
M  V30 494 C 45.175 -2.37562 3.79827 0
M  V30 495 C 46.919 -3.52054 2.37188 0
M  V30 496 C 44.826 -3.56456 4.71904 0
M  V30 497 H 43.756 -0.569896 0.493695 0
M  V30 498 H 46.407 -0.835822 1.63359 0
M  V30 499 H 44.789 -3.4427 1.9569 0
M  V30 500 H 45.963 -1.75157 4.26212 0
M  V30 501 H 44.278 -1.72798 3.78853 0
M  V30 502 H 46.875 -4.40437 3.03182 0
M  V30 503 H 47.218 -3.92486 1.38782 0
M  V30 504 H 47.751 -2.88921 2.7344 0
M  V30 505 H 44.49 -3.21099 5.71468 0
M  V30 506 H 44.01 -4.17938 4.30218 0
M  V30 507 H 45.689 -4.23168 4.89426 0
M  V30 508 N 45.8211 -1.22559 -0.990812 0
M  V30 509 C 46.7511 -1.0218 -2.09956 0
M  V30 510 C 47.7321 0.0579394 -1.70001 0
M  V30 511 O 48.9171 -0.104684 -1.93918 0
M  V30 512 C 46.0471 -0.601023 -3.4206 0
M  V30 513 C 45.0011 -1.62694 -3.95872 0
M  V30 514 C 44.3271 -1.06193 -5.24049 0
M  V30 515 C 45.6271 -3.01743 -4.2632 0
M  V30 516 H 47.3211 -1.94916 -2.27262 0
M  V30 517 H 44.8671 -0.938566 -1.09211 0
M  V30 518 H 46.8201 -0.445561 -4.19038 0
M  V30 519 H 45.5441 0.362005 -3.24588 0
M  V30 520 H 44.2031 -1.77021 -3.21028 0
M  V30 521 H 43.8511 -0.0901903 -5.02919 0
M  V30 522 H 43.5511 -1.74732 -5.61019 0
M  V30 523 H 45.0751 -0.918092 -6.03658 0
M  V30 524 H 46.4891 -2.90777 -4.94087 0
M  V30 525 H 44.8861 -3.67425 -4.74467 0
M  V30 526 H 45.9561 -3.51518 -3.34011 0
M  V30 527 N 47.2992 1.18797 -1.03562 0
M  V30 528 C 48.2292 2.24472 -0.643019 0
M  V30 529 C 49.2102 1.66433 0.351283 0
M  V30 530 O 50.3952 1.92803 0.232505 0
M  V30 531 C 47.5252 3.473 4.24935e-05 0
M  V30 532 C 46.4792 4.18055 -0.917257 0
M  V30 533 C 45.8052 5.34519 -0.138941 0
M  V30 534 C 47.1052 4.72109 -2.23407 0
M  V30 535 H 48.7992 2.57566 -1.52643 0
M  V30 536 H 46.3452 1.23806 -0.735394 0
M  V30 537 H 48.2982 4.20426 0.286383 0
M  V30 538 H 47.0222 3.13424 0.918299 0
M  V30 539 H 45.6812 3.46821 -1.1879 0
M  V30 540 H 45.3292 4.96891 0.781562 0
M  V30 541 H 45.0292 5.82794 -0.750005 0
M  V30 542 H 46.5532 6.10438 0.1405 0
M  V30 543 H 47.9672 5.36955 -2.00879 0
M  V30 544 H 46.3642 5.30897 -2.79765 0
M  V30 545 H 47.4342 3.89807 -2.88407 0
M  V30 546 N 48.7773 0.814389 1.34928 0
M  V30 547 C 49.7403 0.235759 2.27984 0
M  V30 548 C 50.7403 -0.581412 1.49921 0
M  V30 549 O 51.9303 -0.398758 1.69575 0
M  V30 550 C 49.0623 -0.670433 3.34242 0
M  V30 551 H 50.2553 1.05659 2.80671 0
M  V30 552 H 47.8083 0.585614 1.44915 0
M  V30 553 H 48.5433 -1.51466 2.86755 0
M  V30 554 H 48.3283 -0.0860822 3.92005 0
M  V30 555 H 49.8183 -1.06935 4.03676 0
M  V30 556 N 50.2554 -1.46986 0.568584 0
M  V30 557 C 51.1854 -2.32946 -0.160753 0
M  V30 558 C 52.1664 -1.44487 -0.897631 0
M  V30 559 O 53.3514 -1.73327 -0.875867 0
M  V30 560 C 50.4814 -3.26494 -1.18403 0
M  V30 561 C 49.4354 -4.24282 -0.562895 0
M  V30 562 C 48.7614 -5.07236 -1.69163 0
M  V30 563 C 50.0614 -5.19989 0.490761 0
M  V30 564 H 51.7554 -2.94175 0.556916 0
M  V30 565 H 49.3014 -1.4146 0.26927 0
M  V30 566 H 51.2544 -3.85477 -1.70251 0
M  V30 567 H 49.9784 -2.63343 -1.93179 0
M  V30 568 H 48.6374 -3.66541 -0.0656164 0
M  V30 569 H 48.2854 -4.4048 -2.42871 0
M  V30 570 H 47.9854 -5.7345 -1.28174 0
M  V30 571 H 49.5094 -5.6908 -2.21314 0
M  V30 572 H 50.9234 -5.73271 0.0579047 0
M  V30 573 H 49.3204 -5.94469 0.820165 0
M  V30 574 H 50.3904 -4.64777 1.3824 0
M  V30 575 N 51.7335 -0.305618 -1.54608 0
M  V30 576 C 52.6965 0.555591 -2.22364 0
M  V30 577 C 53.6965 1.05768 -1.21119 0
M  V30 578 O 54.8865 0.952972 -1.45822 0
M  V30 579 C 52.0185 1.76974 -2.91364 0
M  V30 580 H 53.2115 -0.0364572 -2.99878 0
M  V30 581 H 50.7645 -0.0565007 -1.56198 0
M  V30 582 H 51.4995 2.40151 -2.17941 0
M  V30 583 H 51.2845 1.41732 -3.65588 0
M  V30 584 H 52.7745 2.38148 -3.43038 0
M  V30 585 N 53.2116 1.57565 -0.0334293 0
M  V30 586 C 54.4586 1.91978 0.644272 0
M  V30 587 C 54.7866 0.910231 1.71887 0
M  V30 588 O 54.0416 -0.0801961 1.95536 0
M  V30 589 C 54.3406 3.33112 1.29504 0
M  V30 590 C 54.0066 4.49537 0.350388 0
M  V30 591 C 52.6686 4.81115 0.0903974 0
M  V30 592 C 55.0206 5.20347 -0.298032 0
M  V30 593 C 52.3486 5.8086 -0.825746 0
M  V30 594 C 54.7006 6.2107 -1.20226 0
M  V30 595 C 53.3646 6.51088 -1.4711 0
M  V30 596 H 52.6346 0.702496 0.235756 0
M  V30 597 H 55.2816 1.91259 -0.0961176 0
M  V30 598 H 53.5866 3.30113 2.11028 0
M  V30 599 H 55.2836 3.57011 1.82603 0
M  V30 600 H 51.8736 4.24883 0.563205 0
M  V30 601 H 56.0576 4.96178 -0.110234 0
M  V30 602 H 51.3136 6.02461 -1.04169 0
M  V30 603 H 55.4876 6.75057 -1.71086 0
M  V30 604 H 53.1146 7.28193 -2.18264 0
M  V30 605 N 54.6897 -0.239769 1.55765 0
M  V30 606 C 55.6197 -1.30052 1.9393 0
M  V30 607 C 56.6007 -1.49839 0.805132 0
M  V30 608 O 57.7857 -1.62328 1.06599 0
M  V30 609 C 54.9157 -2.65391 2.2402 0
M  V30 610 C 53.8697 -2.60289 3.39755 0
M  V30 611 C 53.1957 -3.99489 3.55405 0
M  V30 612 C 54.4957 -2.16654 4.75246 0
M  V30 613 H 56.1897 -0.983573 2.82783 0
M  V30 614 H 53.7357 -0.471701 1.36055 0
M  V30 615 H 55.6887 -3.3974 2.49308 0
M  V30 616 H 54.4127 -2.98736 1.32 0
M  V30 617 H 53.0717 -1.88398 3.14487 0
M  V30 618 H 52.7197 -4.30112 2.60793 0
M  V30 619 H 52.4197 -3.96962 4.33238 0
M  V30 620 H 53.9437 -4.75528 3.83022 0
M  V30 621 H 55.3577 -2.80737 4.99859 0
M  V30 622 H 53.7547 -2.25223 5.56232 0
M  V30 623 H 54.8247 -1.11835 4.71827 0
M  V30 624 N 56.1678 -1.49265 -0.50573 0
M  V30 625 C 57.0978 -1.68495 -1.61653 0
M  V30 626 C 58.0788 -0.53366 -1.61512 0
M  V30 627 O 59.2638 -0.76897 -1.78327 0
M  V30 628 C 56.3938 -1.74709 -3.00157 0
M  V30 629 C 55.3478 -2.89581 -3.15162 0
M  V30 630 C 54.6738 -2.80903 -4.5497 0
M  V30 631 C 55.9738 -4.30578 -2.95634 0
M  V30 632 H 57.6678 -2.61493 -1.45814 0
M  V30 633 H 55.2138 -1.25838 -0.70005 0
M  V30 634 H 57.1668 -1.86748 -3.77761 0
M  V30 635 H 55.8908 -0.783067 -3.17074 0
M  V30 636 H 54.5498 -2.77136 -2.39982 0
M  V30 637 H 54.1978 -1.82419 -4.68756 0
M  V30 638 H 53.8978 -3.57999 -4.65951 0
M  V30 639 H 55.4218 -2.94944 -5.34641 0
M  V30 640 H 56.8358 -4.4373 -3.63011 0
M  V30 641 H 55.2328 -5.0886 -3.18091 0
M  V30 642 H 56.3028 -4.45352 -1.91806 0
M  V30 643 N 57.6459 0.756429 -1.3826 0
M  V30 644 C 58.8939 1.51248 -1.34047 0
M  V30 645 C 59.2149 1.94875 0.0698372 0
M  V30 646 O 58.4849 1.67436 1.01696 0
M  V30 647 H 57.0649 0.561018 -0.493222 0
M  V30 648 H 59.7269 0.899347 -1.7291 0
M  V30 649 H 58.8229 2.40472 -1.98947 0
M  V30 650 N 59.124 1.23083 0.984299 0
M  V30 651 C 60.54 0.992637 1.24975 0
M  V30 652 C 60.74 -0.308618 1.99123 0
M  V30 653 O 59.796 -1.02905 2.30579 0
M  V30 654 C 61.109 2.19698 2.05312 0
M  V30 655 C 62.657 2.24147 2.18465 0
M  V30 656 C 63.132 3.44157 3.02192 0
M  V30 657 N 64.623 3.44372 3.09777 0
M  V30 658 C 65.358 4.33886 3.74874 0
M  V30 659 N 64.854 5.3363 4.41827 0
M  V30 660 N 66.647 4.21639 3.71721 0
M  V30 661 H 58.798 2.06731 0.487453 0
M  V30 662 H 61.061 0.906339 0.277944 0
M  V30 663 H 60.767 3.1411 1.58201 0
M  V30 664 H 60.641 2.20465 3.06064 0
M  V30 665 H 63.028 1.30277 2.64786 0
M  V30 666 H 63.109 2.27415 1.17115 0
M  V30 667 H 62.753 4.38332 2.56568 0
M  V30 668 H 62.683 3.3813 4.03702 0
M  V30 669 H 65.174 2.72201 2.62135 0
M  V30 670 H 65.487 5.98196 4.89266 0
M  V30 671 H 63.832 5.37534 4.40548 0
M  V30 672 H 67.023 3.42962 3.18582 0
M  V30 673 H 67.196 4.91604 4.22173 0
M  V30 674 N 60.6021 -1.18246 1.0419 0
M  V30 675 C 61.8481 -1.88536 0.747122 0
M  V30 676 C 62.1811 -1.80223 -0.723409 0
M  V30 677 O 61.4561 -1.20337 -1.52804 0
M  V30 678 C 61.7391 -3.38968 1.21544 0
M  V30 679 C 61.5921 -3.56084 2.74816 0
M  V30 680 C 62.9111 -4.32648 0.806482 0
M  V30 681 H 60.0301 -0.684619 0.272883 0
M  V30 682 H 62.6721 -1.39113 1.29413 0
M  V30 683 H 60.8221 -3.8119 0.750081 0
M  V30 684 H 62.4941 -3.22946 3.29399 0
M  V30 685 H 60.7371 -2.98699 3.14582 0
M  V30 686 H 61.4081 -4.61639 3.02644 0
M  V30 687 H 63.8841 -3.98211 1.20695 0
M  V30 688 H 62.7601 -5.36462 1.1619 0
M  V30 689 H 63.0211 -4.41146 -0.29029 0
M  V30 690 N 62.0802 -0.821533 -1.34494 0
M  V30 691 C 63.0432 -0.247847 -2.27856 0
M  V30 692 C 64.0432 0.573453 -1.50227 0
M  V30 693 O 65.2332 0.389759 -1.69784 0
M  V30 694 C 62.3652 0.652698 -3.34593 0
M  V30 695 H 63.5582 -1.07146 -2.80107 0
M  V30 696 H 61.1112 -0.593291 -1.44602 0
M  V30 697 H 61.8462 1.49943 -2.87555 0
M  V30 698 H 61.6312 0.065292 -3.92046 0
M  V30 699 H 63.1212 1.04793 -4.04238 0
M  V30 700 N 63.5583 1.46682 -0.576371 0
M  V30 701 C 64.8043 2.03287 -0.0679305 0
M  V30 702 C 65.1593 1.44063 1.27529 0
M  V30 703 O 64.4523 0.593973 1.82161 0
M  V30 704 C 64.6463 3.57345 0.062886 0
M  V30 705 C 64.4753 4.31509 -1.26611 0
M  V30 706 C 63.2453 4.70664 -1.83856 0
M  V30 707 C 65.4433 4.65444 -2.18783 0
M  V30 708 N 63.4253 5.29552 -3.10561 0
M  V30 709 C 64.7963 5.24835 -3.30072 0
M  V30 710 C 66.8513 4.47375 -2.18542 0
M  V30 711 C 65.5543 5.68063 -4.41244 0
M  V30 712 C 67.5803 4.91614 -3.28739 0
M  V30 713 C 66.9423 5.51071 -4.38748 0
M  V30 714 H 63.0413 0.779083 -0.0674836 0
M  V30 715 H 65.6253 1.78918 -0.767877 0
M  V30 716 H 63.7963 3.8144 0.731988 0
M  V30 717 H 65.5283 4.00592 0.575134 0
M  V30 718 H 62.2833 4.53224 -1.37424 0
M  V30 719 H 62.7073 5.63523 -3.75195 0
M  V30 720 H 67.3493 4.00747 -1.34765 0
M  V30 721 H 65.0673 6.13672 -5.25768 0
M  V30 722 H 68.6533 4.79389 -3.29662 0
M  V30 723 H 67.5333 5.84678 -5.22611 0
M  V30 724 N 65.0364 0.313813 1.54444 0
M  V30 725 C 65.9664 -0.549454 2.26943 0
M  V30 726 C 66.9474 -1.12741 1.27372 0
M  V30 727 O 68.1324 -1.15436 1.56167 0
M  V30 728 C 65.2624 -1.71523 3.01989 0
M  V30 729 C 64.2164 -1.26703 4.08816 0
M  V30 730 C 63.5424 -2.51898 4.71647 0
M  V30 731 C 64.8424 -0.388962 5.2085 0
M  V30 732 H 66.5364 0.0552661 2.99349 0
M  V30 733 H 64.0824 0.0280207 1.43973 0
M  V30 734 H 66.0354 -2.32535 3.51433 0
M  V30 735 H 64.7594 -2.34639 2.27183 0
M  V30 736 H 63.4184 -0.679896 3.6024 0
M  V30 737 H 63.0664 -3.13356 3.93468 0
M  V30 738 H 62.7664 -2.22605 5.43802 0
M  V30 739 H 64.2904 -3.1369 5.23861 0
M  V30 740 H 65.7044 -0.905107 5.6611 0
M  V30 741 H 64.1014 -0.18924 5.99802 0
M  V30 742 H 65.1714 0.582699 4.81386 0
M  V30 743 N 66.5145 -1.57545 0.0417849 0
M  V30 744 C 67.4465 -2.07904 -0.964799 0
M  V30 745 C 68.4595 -1.00497 -1.28079 0
M  V30 746 O 69.6485 -1.28087 -1.24322 0
M  V30 747 C 66.7485 -2.49928 -2.28887 0
M  V30 748 C 65.9215 -3.80562 -2.15619 0
M  V30 749 C 64.9805 -4.08999 -3.31069 0
M  V30 750 O 64.0065 -4.79061 -3.0739 0
M  V30 751 N 65.2085 -3.6017 -4.55256 0
M  V30 752 H 67.9735 -2.94886 -0.535029 0
M  V30 753 H 65.5345 -1.61252 -0.144681 0
M  V30 754 H 67.5265 -2.66034 -3.04972 0
M  V30 755 H 66.0965 -1.68245 -2.63463 0
M  V30 756 H 65.3165 -3.74129 -1.24183 0
M  V30 757 H 66.6045 -4.66126 -2.03971 0
M  V30 758 H 66.0025 -3.03512 -4.77386 0
M  V30 759 H 64.5595 -3.81532 -5.28466 0
M  V30 760 N 67.9926 0.231505 -1.5589 0
M  V30 761 C 69.2386 0.95877 -1.78705 0
M  V30 762 C 69.5716 1.8438 -0.609725 0
M  V30 763 O 68.8466 1.90521 0.391426 0
M  V30 764 C 69.1296 1.8062 -3.11526 0
M  V30 765 C 68.9826 0.948328 -4.39689 0
M  V30 766 C 70.3016 2.78585 -3.40703 0
M  V30 767 H 67.4206 0.347129 -0.650131 0
M  V30 768 H 70.0626 0.228259 -1.88624 0
M  V30 769 H 68.2126 2.42902 -3.03201 0
M  V30 770 H 69.8846 0.343016 -4.60023 0
M  V30 771 H 68.1276 0.253314 -4.3306 0
M  V30 772 H 68.7986 1.57543 -5.29041 0
M  V30 773 H 71.2746 2.26439 -3.49091 0
M  V30 774 H 70.1506 3.34988 -4.34826 0
M  V30 775 H 70.4116 3.55825 -2.62375 0
M  V30 776 N 69.4707 1.49531 0.497807 0
M  V30 777 C 70.7197 1.58426 1.24837 0
M  V30 778 C 71.0327 0.277643 1.93619 0
M  V30 779 O 72.2387 0.24517 2.70391 0
M  V30 780 C 70.6947 2.79538 2.26686 0
M  V30 781 C 70.3027 4.16971 1.63828 0
M  V30 782 C 72.0467 2.97764 3.0255 0
M  V30 783 C 69.9537 5.29301 2.63807 0
M  V30 784 H 68.8837 0.58989 0.469623 0
M  V30 785 H 71.5347 1.75923 0.521857 0
M  V30 786 H 69.9167 2.55542 3.02514 0
M  V30 787 H 71.0907 4.51116 0.939711 0
M  V30 788 H 69.4057 4.04129 1.00342 0
M  V30 789 H 72.0027 3.78856 3.77323 0
M  V30 790 H 72.3457 2.08448 3.60354 0
M  V30 791 H 72.8787 3.21815 2.33838 0
M  V30 792 H 69.6177 6.20687 2.10779 0
M  V30 793 H 69.1377 4.99606 3.31894 0
M  V30 794 H 70.8167 5.58768 3.2617 0
M  V30 795 N 70.9488 -0.749086 1.3866 0
M  V30 796 C 72.1738 -1.54344 1.38538 0
M  V30 797 C 72.5988 -1.88088 -0.0216655 0
M  V30 798 O 71.9568 -1.50899 -1.00494 0
M  V30 799 C 72.0048 -2.8164 2.25192 0
M  V30 800 O 71.1088 -3.7698 1.67212 0
M  V30 801 H 70.4498 -0.466654 0.472367 0
M  V30 802 H 72.9798 -0.925355 1.82478 0
M  V30 803 H 72.9898 -3.30519 2.3921 0
M  V30 804 H 71.6648 -2.56411 3.27454 0
M  V30 805 H 70.2418 -3.35699 1.6236 0
M  V30 806 N 72.4269 -1.23603 -0.977757 0
M  V30 807 C 73.8379 -1.06424 -1.53398 0
M  V30 808 C 74.1889 0.367578 -1.92726 0
M  V30 809 O 73.3139 1.25465 -1.76316 0
M  V30 810 C 73.9089 -1.92568 -2.78753 0
M  V30 811 C 72.4679 -1.79642 -3.30765 0
M  V30 812 C 71.6149 -1.88111 -2.03739 0
M  V30 813 H 74.5659 -1.37227 -0.797152 0
M  V30 814 H 74.5869 -1.45203 -3.51705 0
M  V30 815 H 74.0989 -2.96771 -2.50098 0
M  V30 816 H 72.1999 -0.782325 -3.64294 0
M  V30 817 H 72.3129 -2.63174 -4.00345 0
M  V30 818 H 70.6769 -1.31723 -2.17994 0
M  V30 819 H 71.4599 -2.93875 -1.77461 0
M  V30 820 N 73.905 1.17692 -1.04816 0
M  V30 821 C 75.182 1.83768 -0.669963 0
M  V30 822 C 75.562 1.93232 0.849986 0
M  V30 823 O 74.91 1.46397 1.75443 0
M  V30 824 C 75.12 3.21641 -1.35455 0
M  V30 825 C 76.468 3.97592 -1.49017 0
M  V30 826 O 77.492 3.31107 -1.31326 0
M  V30 827 O 76.351 5.16729 -1.77914 0
M  V30 828 H 73.445 0.792799 -0.235368 0
M  V30 829 H 75.991 1.25021 -1.14751 0
M  V30 830 H 74.763 3.097 -2.39168 0
M  V30 831 H 74.386 3.88052 -0.866107 0
M  V30 832 N 75.3831 0.828654 1.34056 0
M  V30 833 C 76.3161 0.199763 2.27324 0
M  V30 834 C 77.2941 -0.647168 1.49166 0
M  V30 835 O 78.4781 -0.609661 1.78369 0
M  V30 836 C 75.6051 -0.720455 3.30949 0
M  V30 837 C 74.6511 0.0496888 4.26471 0
M  V30 838 S 75.4841 1.40072 5.16856 0
M  V30 839 C 76.6401 0.485527 6.24014 0
M  V30 840 H 76.8731 0.990478 2.80316 0
M  V30 841 H 74.4061 0.624857 1.41191 0
M  V30 842 H 76.3641 -1.24581 3.91139 0
M  V30 843 H 75.0251 -1.48474 2.76793 0
M  V30 844 H 74.2181 -0.650104 4.9979 0
M  V30 845 H 73.8201 0.505779 3.70564 0
M  V30 846 H 76.1121 -0.320672 6.76741 0
M  V30 847 H 77.0551 1.18856 6.98054 0
M  V30 848 H 77.4631 0.0714109 5.64455 0
M  V30 849 N 76.8612 -1.46375 0.584142 0
M  V30 850 C 77.7912 -2.33103 -0.136037 0
M  V30 851 C 78.7722 -1.45431 -0.882255 0
M  V30 852 O 79.9572 -1.74246 -0.857434 0
M  V30 853 C 77.0872 -3.27731 -1.14933 0
M  V30 854 C 76.0412 -4.24855 -0.517862 0
M  V30 855 C 75.3672 -5.09001 -1.63773 0
M  V30 856 C 76.6672 -5.19439 0.545886 0
M  V30 857 H 78.3612 -2.93568 0.588086 0
M  V30 858 H 75.9072 -1.41166 0.284259 0
M  V30 859 H 77.8602 -3.87261 -1.66153 0
M  V30 860 H 76.5842 -2.65377 -1.90375 0
M  V30 861 H 75.2432 -3.6659 -0.0267361 0
M  V30 862 H 74.8912 -4.43031 -2.38185 0
M  V30 863 H 74.5912 -5.74777 -1.22085 0
M  V30 864 H 76.1152 -5.71396 -2.15266 0
M  V30 865 H 77.5292 -5.73177 0.118704 0
M  V30 866 H 75.9262 -5.93566 0.88317 0
M  V30 867 H 76.9962 -4.63285 1.43162 0
M  V30 868 N 78.3393 -0.321999 -1.54275 0
M  V30 869 C 79.5853 0.281461 -2.00837 0
M  V30 870 C 79.9183 1.51909 -1.20985 0
M  V30 871 O 79.1933 1.923 -0.291733 0
M  V30 872 C 79.4763 0.617162 -3.54772 0
M  V30 873 C 79.3293 -0.631064 -4.45351 0
M  V30 874 C 80.6483 1.43542 -4.16033 0
M  V30 875 H 77.7673 0.100826 -0.730071 0
M  V30 876 H 80.4093 -0.438268 -1.84876 0
M  V30 877 H 78.5593 1.23034 -3.68504 0
M  V30 878 H 80.2313 -1.26934 -4.43492 0
M  V30 879 H 78.4743 -1.26025 -4.15091 0
M  V30 880 H 79.1453 -0.351735 -5.50878 0
M  V30 881 H 81.6213 0.917134 -4.05867 0
M  V30 882 H 80.4973 1.63907 -5.23856 0
M  V30 883 H 80.7583 2.43108 -3.69257 0
M  V30 884 N 79.8174 1.5752 -0.0501392 0
M  V30 885 C 80.7644 2.1147 0.924603 0
M  V30 886 C 81.7344 1.02182 1.30951 0
M  V30 887 O 82.9194 1.29723 1.39916 0
M  V30 888 C 80.0594 2.66337 2.19451 0
M  V30 889 C 79.1724 3.89708 1.86418 0
M  V30 890 C 78.3074 4.32893 3.07859 0
M  V30 891 C 77.3464 5.48967 2.70742 0
M  V30 892 N 76.4834 5.87211 3.84874 0
M  V30 893 H 81.3234 2.94465 0.457639 0
M  V30 894 H 78.8604 1.45531 0.214266 0
M  V30 895 H 80.8184 2.96247 2.93758 0
M  V30 896 H 79.4484 1.86141 2.63726 0
M  V30 897 H 78.5004 3.66396 1.02264 0
M  V30 898 H 79.8124 4.74074 1.55096 0
M  V30 899 H 78.9664 4.6435 3.90466 0
M  V30 900 H 77.7054 3.47336 3.42358 0
M  V30 901 H 76.7104 5.17183 1.86551 0
M  V30 902 H 77.9354 6.3624 2.37436 0
M  V30 903 H 75.8814 5.04607 4.19175 0
M  V30 904 H 75.7984 6.66266 3.57247 0
M  V30 905 H 77.0664 6.23282 4.68123 0
M  V30 906 N 81.2955 -0.223234 1.56011 0
M  V30 907 C 82.2055 -1.29766 1.95443 0
M  V30 908 C 83.2215 -1.51373 0.858028 0
M  V30 909 O 84.3975 -1.64536 1.16146 0
M  V30 910 C 81.4625 -2.62772 2.26167 0
M  V30 911 C 80.5235 -2.49482 3.49367 0
M  V30 912 C 79.7565 -3.76145 3.78616 0
M  V30 913 O 79.9795 -4.79087 3.09568 0
M  V30 914 O 78.9135 -3.73358 4.72109 0
M  V30 915 H 82.7395 -0.99309 2.87004 0
M  V30 916 H 80.3245 -0.425958 1.43199 0
M  V30 917 H 82.2065 -3.41327 2.47131 0
M  V30 918 H 80.8815 -2.92913 1.37781 0
M  V30 919 H 79.7885 -1.69133 3.33684 0
M  V30 920 H 81.1215 -2.2428 4.38131 0
M  V30 921 N 82.7736 -1.49793 -0.48987 0
M  V30 922 C 84.0216 -1.59525 -1.24081 0
M  V30 923 C 84.3426 -0.288953 -1.92847 0
M  V30 924 O 83.6126 0.692436 -1.83254 0
M  V30 925 H 82.1926 -0.587796 -0.460983 0
M  V30 926 H 84.8546 -1.86477 -0.566778 0
M  V30 927 H 83.9506 -2.39696 -1.99881 0
M  V30 928 N 84.2517 0.741722 -1.39055 0
M  V30 929 C 85.5287 1.49252 -1.26425 0
M  V30 930 C 85.9087 2.10705 0.129144 0
M  V30 931 O 85.2567 1.98045 1.13976 0
M  V30 932 C 85.4667 2.54934 -2.38347 0
M  V30 933 C 86.8147 3.21506 -2.77343 0
M  V30 934 O 87.8387 2.65245 -2.37747 0
M  V30 935 O 86.6977 4.23294 -3.45665 0
M  V30 936 H 83.7917 0.662451 -0.495064 0
M  V30 937 H 86.3377 0.776121 -1.50912 0
M  V30 938 H 85.1097 2.07857 -3.31529 0
M  V30 939 H 84.7327 3.34141 -2.15489 0
M  V30 940 N 85.7298 1.2412 0.971189 0
M  V30 941 C 86.6628 0.97373 2.06382 0
M  V30 942 C 87.6408 -0.0912662 1.62344 0
M  V30 943 O 88.8248 0.0449365 1.88446 0
M  V30 944 C 85.9518 0.468746 3.35441 0
M  V30 945 C 84.9978 1.52176 3.98428 0
M  V30 946 S 85.8308 3.10203 4.36503 0
M  V30 947 C 86.9868 2.61398 5.68702 0
M  V30 948 H 87.2198 1.89893 2.28753 0
M  V30 949 H 84.7528 1.07466 1.10862 0
M  V30 950 H 86.7108 0.184012 4.10087 0
M  V30 951 H 85.3718 -0.435688 3.11064 0
M  V30 952 H 84.5648 1.11876 4.91426 0
M  V30 953 H 84.1668 1.75632 3.30196 0
M  V30 954 H 86.4588 2.03992 6.4606 0
M  V30 955 H 87.4018 3.52972 6.13854 0
M  V30 956 H 87.8098 2.01941 5.27143 0
M  V30 957 N 87.2079 -1.17134 1.05439 0
M  V30 958 C 88.6239 -1.39454 0.776201 0
M  V30 959 C 88.8239 -1.91454 -0.628307 0
M  V30 960 O 87.8799 -2.10777 -1.39031 0
M  V30 961 C 89.1929 -2.38305 1.83388 0
M  V30 962 C 90.7409 -2.52006 1.85639 0
M  V30 963 C 91.2159 -3.54133 2.90437 0
M  V30 964 N 92.7069 -3.61653 2.89415 0
M  V30 965 C 93.4419 -4.4044 3.67152 0
M  V30 966 N 92.9379 -5.22721 4.54681 0
M  V30 967 N 94.7309 -4.35337 3.55581 0
M  V30 968 H 86.8819 -0.817134 1.96053 0
M  V30 969 H 89.1449 -0.421626 0.849079 0
M  V30 970 H 88.8509 -2.07173 2.84204 0
M  V30 971 H 88.7249 -3.37841 1.67761 0
M  V30 972 H 91.1119 -2.82447 0.85486 0
M  V30 973 H 91.1929 -1.52537 2.05344 0
M  V30 974 H 90.8369 -3.24431 3.90777 0
M  V30 975 H 90.7669 -4.53313 2.67983 0
M  V30 976 H 93.2579 -3.02909 2.25952 0
M  V30 977 H 93.5709 -5.80027 5.10674 0
M  V30 978 H 91.9159 -5.22093 4.58741 0
M  V30 979 H 95.1069 -3.70112 2.86592 0
M  V30 980 H 95.2799 -4.96494 4.1641 0
M  V30 981 N 88.686 -0.835752 -1.33615 0
M  V30 982 C 89.911 -0.442389 -2.02627 0
M  V30 983 C 90.336 0.947735 -1.62479 0
M  V30 984 O 89.694 1.61907 -0.815826 0
M  V30 985 C 89.742 -0.567216 -3.56111 0
M  V30 986 O 88.846 0.407799 -4.10379 0
M  V30 987 H 88.187 -0.180278 -0.639059 0
M  V30 988 H 90.717 -1.12972 -1.70583 0
M  V30 989 H 90.727 -0.447708 -4.05536 0
M  V30 990 H 89.402 -1.58103 -3.84677 0
M  V30 991 H 87.979 0.246107 -3.72087 0
M  V30 992 N 90.1641 1.46063 -0.591896 0
M  V30 993 C 91.0941 2.33172 0.123673 0
M  V30 994 C 92.0751 1.45897 0.87453 0
M  V30 995 O 93.2601 1.74698 0.848181 0
M  V30 996 C 90.3901 3.28336 1.13194 0
M  V30 997 C 89.3441 4.25124 0.495324 0
M  V30 998 C 88.6701 5.09863 1.61071 0
M  V30 999 C 89.9701 5.19143 -0.573425 0
M  V30 1000 H 91.6641 2.93252 -0.603646 0
M  V30 1001 H 89.2101 1.41014 -0.291741 0
M  V30 1002 H 91.1631 3.88137 1.64097 0
M  V30 1003 H 89.8871 2.66383 1.88965 0
M  V30 1004 H 88.5461 3.66599 0.00729452 0
M  V30 1005 H 88.1941 4.44288 2.35832 0
M  V30 1006 H 87.8941 5.75417 1.19035 0
M  V30 1007 H 89.4181 5.72529 2.12233 0
M  V30 1008 H 90.8321 5.73106 -0.1491 0
M  V30 1009 H 89.2291 5.93089 -0.914636 0
M  V30 1010 H 90.2991 4.62519 -1.45617 0
M  V30 1011 N 91.6422 0.330177 1.54103 0
M  V30 1012 C 93.0582 -0.0222371 1.59585 0
M  V30 1013 C 93.2582 -1.49902 1.34654 0
M  V30 1014 O 92.3142 -2.25592 1.13421 0
M  V30 1015 C 93.6272 0.401932 2.98002 0
M  V30 1016 C 95.1752 0.353145 3.11001 0
M  V30 1017 C 95.6502 0.752576 4.51775 0
M  V30 1018 N 97.1412 0.706239 4.57784 0
M  V30 1019 C 97.8762 0.987417 5.64834 0
M  V30 1020 N 97.3722 1.33607 6.79795 0
M  V30 1021 N 99.1652 0.91254 5.54643 0
M  V30 1022 H 91.3162 1.29228 1.68564 0
M  V30 1023 H 93.5792 0.525906 0.78875 0
M  V30 1024 H 93.2852 1.4311 3.21267 0
M  V30 1025 H 93.1592 -0.229699 3.765 0
M  V30 1026 H 95.5462 -0.666822 2.87467 0
M  V30 1027 H 95.6272 1.0198 2.34593 0
M  V30 1028 H 95.2712 1.77049 4.76042 0
M  V30 1029 H 95.2012 0.0635409 5.26562 0
M  V30 1030 H 97.6922 0.44889 3.75224 0
M  V30 1031 H 98.0052 1.53582 7.57385 0
M  V30 1032 H 96.3502 1.37439 6.81275 0
M  V30 1033 H 99.5412 0.639601 4.6371 0
M  V30 1034 H 99.7142 1.13503 6.37982 0
M  V30 1035 N 93.1203 -1.57491 0.0584922 0
M  V30 1036 C 94.3663 -1.93264 -0.614558 0
M  V30 1037 C 94.6993 -0.937717 -1.7006 0
M  V30 1038 O 93.9743 0.0351652 -1.94468 0
M  V30 1039 C 94.2573 -3.3938 -1.20386 0
M  V30 1040 C 94.1103 -4.49625 -0.125375 0
M  V30 1041 C 95.4293 -3.86039 -2.11334 0
M  V30 1042 H 92.5483 -0.702791 -0.221933 0
M  V30 1043 H 95.1903 -1.8961 0.12175 0
M  V30 1044 H 93.3403 -3.42626 -1.83139 0
M  V30 1045 H 95.0123 -4.58506 0.506971 0
M  V30 1046 H 93.2553 -4.30354 0.545672 0
M  V30 1047 H 93.9263 -5.48967 -0.577861 0
M  V30 1048 H 96.4023 -3.84716 -1.58534 0
M  V30 1049 H 95.2783 -4.88914 -2.49507 0
M  V30 1050 H 95.5393 -3.23215 -3.01636 0
M  V30 1051 N 94.5984 0.214957 -1.56127 0
M  V30 1052 C 95.5304 1.29004 -1.89448 0
M  V30 1053 C 96.5434 1.42716 -0.783326 0
M  V30 1054 O 97.7324 1.43496 -1.06166 0
M  V30 1055 C 94.8324 2.66482 -2.09381 0
M  V30 1056 C 94.0054 2.74633 -3.40434 0
M  V30 1057 C 93.0644 3.9317 -3.49719 0
M  V30 1058 O 92.0904 3.812 -4.227 0
M  V30 1059 N 93.2924 5.07765 -2.81346 0
M  V30 1060 H 96.0574 1.00743 -2.82261 0
M  V30 1061 H 93.6184 0.40497 -1.56753 0
M  V30 1062 H 95.6104 3.44173 -2.12901 0
M  V30 1063 H 94.1804 2.87314 -1.23163 0
M  V30 1064 H 93.4004 1.83368 -3.48955 0
M  V30 1065 H 94.6884 2.77054 -4.26754 0
M  V30 1066 H 94.0864 5.20386 -2.21843 0
M  V30 1067 H 92.6434 5.83474 -2.90519 0
M  V30 1068 N 96.0765 1.50051 0.48192 0
M  V30 1069 C 97.0085 1.64263 1.59844 0
M  V30 1070 C 98.0215 0.52451 1.54119 0
M  V30 1071 O 99.2105 0.797293 1.59704 0
M  V30 1072 C 96.3105 1.60102 2.98698 0
M  V30 1073 C 95.4835 2.87767 3.29407 0
M  V30 1074 C 94.5425 2.76397 4.47762 0
M  V30 1075 O 93.5685 3.50348 4.48603 0
M  V30 1076 N 94.7705 1.89222 5.48794 0
M  V30 1077 H 97.5355 2.60566 1.48073 0
M  V30 1078 H 95.0965 1.47379 0.670149 0
M  V30 1079 H 97.0885 1.50123 3.75826 0
M  V30 1080 H 95.6585 0.715798 3.04294 0
M  V30 1081 H 94.8785 3.11954 2.40994 0
M  V30 1082 H 96.1665 3.72365 3.4673 0
M  V30 1083 H 95.5645 1.28434 5.50928 0
M  V30 1084 H 94.1215 1.85154 6.24949 0
M  V30 1085 N 97.5546 -0.734337 1.39446 0
M  V30 1086 C 98.8006 -1.49613 1.36908 0
M  V30 1087 C 99.1336 -1.94169 -0.0347829 0
M  V30 1088 O 98.4086 -1.66833 -0.999847 0
M  V30 1089 C 98.6916 -2.73534 2.34203 0
M  V30 1090 C 98.5446 -2.34993 3.83534 0
M  V30 1091 C 99.8636 -3.75635 2.29317 0
M  V30 1092 H 96.9826 -0.542714 0.498629 0
M  V30 1093 H 99.6246 -0.839597 1.70443 0
M  V30 1094 H 97.7746 -3.29553 2.05736 0
M  V30 1095 H 99.4466 -1.84601 4.22753 0
M  V30 1096 H 97.6896 -1.67213 4.00278 0
M  V30 1097 H 98.3606 -3.23738 4.47099 0
M  V30 1098 H 100.837 -3.29203 2.54489 0
M  V30 1099 H 99.7126 -4.60008 2.99472 0
M  V30 1100 H 99.9736 -4.22603 1.29842 0
M  V30 1101 N 99.0327 -1.24633 -0.964593 0
M  V30 1102 C 100.258 -1.11596 -1.74818 0
M  V30 1103 C 100.683 0.32723 -1.85232 0
M  V30 1104 O 100.041 1.23695 -1.32549 0
M  V30 1105 C 100.089 -1.76397 -3.1451 0
M  V30 1106 O 99.1927 -1.03685 -3.99153 0
M  V30 1107 H 98.5337 -0.390196 -0.537255 0
M  V30 1108 H 101.064 -1.65002 -1.20977 0
M  V30 1109 H 101.074 -1.8228 -3.65018 0
M  V30 1110 H 99.7487 -2.81401 -3.06246 0
M  V30 1111 H 98.3257 -1.05611 -3.57632 0
M  V30 1112 N 100.511 1.16574 -1.06058 0
M  V30 1113 C 101.739 1.90952 -0.796552 0
M  V30 1114 C 102.154 1.77302 0.648808 0
M  V30 1115 O 101.511 1.11605 1.44397 0
M  V30 1116 C 101.562 3.41736 -1.17894 0
M  V30 1117 O 101.283 3.54975 -2.56758 0
M  V30 1118 C 102.784 4.33169 -0.942308 0
M  V30 1119 H 100.004 0.605594 -0.288959 0
M  V30 1120 H 102.548 1.47777 -1.41358 0
M  V30 1121 H 100.703 3.82623 -0.606491 0
M  V30 1122 H 101.117 4.4846 -2.72 0
M  V30 1123 H 102.591 5.37439 -1.25952 0
M  V30 1124 H 103.068 4.3903 0.122078 0
M  V30 1125 H 103.674 3.98007 -1.49902 0
M  V30 1126 N 101.989 0.842826 1.3317 0
M  V30 1127 C 103.214 0.453129 2.02389 0
M  V30 1128 C 103.639 -0.939105 1.6298 0
M  V30 1129 O 102.997 -1.61472 0.8244 0
M  V30 1130 C 103.045 0.586094 3.55805 0
M  V30 1131 O 102.149 -0.386029 4.10589 0
M  V30 1132 H 101.49 0.183664 0.638094 0
M  V30 1133 H 104.02 1.13875 1.69981 0
M  V30 1134 H 104.03 0.469209 4.05293 0
M  V30 1135 H 102.705 1.6014 3.83833 0
M  V30 1136 H 101.282 -0.226371 3.72212 0
M  V30 1137 N 103.467 -1.45747 0.599634 0
M  V30 1138 C 104.883 -1.57424 0.26264 0
M  V30 1139 C 105.083 -1.59222 -1.23493 0
M  V30 1140 O 104.139 -1.51825 -2.01756 0
M  V30 1141 C 105.452 -2.86061 0.926795 0
M  V30 1142 C 107 -2.99722 0.901967 0
M  V30 1143 C 107.475 -4.31119 1.54598 0
M  V30 1144 N 108.966 -4.37858 1.5111 0
M  V30 1145 C 109.701 -5.3818 1.97863 0
M  V30 1146 N 109.197 -6.45083 2.52666 0
M  V30 1147 N 110.99 -5.29487 1.88679 0
M  V30 1148 H 103.141 -1.42823 1.57211 0
M  V30 1149 H 105.404 -0.68235 0.658105 0
M  V30 1150 H 105.11 -2.90605 1.98095 0
M  V30 1151 H 104.984 -3.74563 0.445238 0
M  V30 1152 H 107.371 -2.9475 -0.143617 0
M  V30 1153 H 107.452 -2.12652 1.42171 0
M  V30 1154 H 107.096 -4.36849 2.59085 0
M  V30 1155 H 107.026 -5.16992 1.00132 0
M  V30 1156 H 109.517 -3.61209 1.11068 0
M  V30 1157 H 109.83 -7.17869 2.86155 0
M  V30 1158 H 108.175 -6.45856 2.56701 0
M  V30 1159 H 111.366 -4.44877 1.4561 0
M  V30 1160 H 111.539 -6.07524 2.25429 0
M  V30 1161 N 104.945 -0.338344 -1.53925 0
M  V30 1162 C 106.193 0.259245 -2.0043 0
M  V30 1163 C 106.514 1.51484 -1.22791 0
M  V30 1164 O 105.784 1.93037 -0.33368 0
M  V30 1165 H 104.364 0.0987845 -0.740439 0
M  V30 1166 H 107.026 -0.458302 -1.89435 0
M  V30 1167 H 106.122 0.505334 -3.07982 0
M  V30 1168 N 106.423 1.57458 -0.0668435 0
M  V30 1169 C 107.356 2.08033 0.93795 0
M  V30 1170 C 108.334 0.984321 1.29421 0
M  V30 1171 O 109.518 1.25736 1.40437 0
M  V30 1172 C 106.645 2.53388 2.24749 0
M  V30 1173 C 105.691 3.74376 2.04315 0
M  V30 1174 S 106.524 5.19303 1.30706 0
M  V30 1175 C 107.68 5.67986 2.62951 0
M  V30 1176 H 107.913 2.92935 0.50759 0
M  V30 1177 H 105.446 1.5371 0.145804 0
M  V30 1178 H 107.404 2.8018 3.00016 0
M  V30 1179 H 106.065 1.68763 2.64911 0
M  V30 1180 H 105.258 4.04083 3.01218 0
M  V30 1181 H 104.86 3.47931 1.37186 0
M  V30 1182 H 107.152 5.74528 3.5906 0
M  V30 1183 H 108.095 6.66955 2.3786 0
M  V30 1184 H 108.503 4.95781 2.69929 0
M  V30 1185 N 107.901 -0.206675 1.56239 0
M  V30 1186 C 109.15 -0.926964 1.79138 0
M  V30 1187 C 109.463 -1.84901 0.638043 0
M  V30 1188 O 110.669 -2.60906 0.751033 0
M  V30 1189 C 109.125 -1.6986 3.17294 0
M  V30 1190 C 108.733 -0.821956 4.40395 0
M  V30 1191 C 110.477 -2.40922 3.4951 0
M  V30 1192 C 108.384 -1.59179 5.69575 0
M  V30 1193 H 107.314 -0.349864 0.667915 0
M  V30 1194 H 109.965 -0.180487 1.8261 0
M  V30 1195 H 108.347 -2.48853 3.08039 0
M  V30 1196 H 109.521 -0.0715019 4.60745 0
M  V30 1197 H 107.836 -0.222741 4.15804 0
M  V30 1198 H 110.433 -2.99047 4.43255 0
M  V30 1199 H 110.776 -3.14542 2.72707 0
M  V30 1200 H 111.309 -1.68905 3.60161 0
M  V30 1201 H 108.048 -0.898589 6.49312 0
M  V30 1202 H 107.568 -2.31648 5.53262 0
M  V30 1203 H 109.247 -2.14862 6.10281 0
M  V30 1204 N 109.379 -1.50304 -0.473955 0
M  V30 1205 C 110.607 -1.64902 -1.24959 0
M  V30 1206 C 111.022 -0.331198 -1.85872 0
M  V30 1207 O 110.379 0.68652 -1.69095 0
M  V30 1208 C 110.43 -2.73803 -2.36038 0
M  V30 1209 O 110.151 -4.00477 -1.77624 0
M  V30 1210 C 111.652 -2.99349 -3.26964 0
M  V30 1211 H 108.872 -0.554383 -0.378022 0
M  V30 1212 H 111.416 -1.9651 -0.566054 0
M  V30 1213 H 109.571 -2.44898 -3.00173 0
M  V30 1214 H 109.985 -4.60678 -2.5075 0
M  V30 1215 H 111.459 -3.79217 -4.01121 0
M  V30 1216 H 111.936 -2.10307 -3.85574 0
M  V30 1217 H 112.542 -3.29774 -2.68569 0
M  V30 1218 N 110.857 0.726932 -1.39834 0
M  V30 1219 C 112.134 1.47902 -1.28001 0
M  V30 1220 C 112.514 2.1083 0.106789 0
M  V30 1221 O 111.862 1.99242 1.11869 0
M  V30 1222 C 112.072 2.52392 -2.41038 0
M  V30 1223 C 113.42 3.18546 -2.80737 0
M  V30 1224 O 114.444 2.62708 -2.40547 0
M  V30 1225 O 113.303 4.19604 -3.50135 0
M  V30 1226 H 110.397 0.657163 -0.502062 0
M  V30 1227 H 112.943 0.760071 -1.51727 0
M  V30 1228 H 111.715 2.04329 -3.33715 0
M  V30 1229 H 111.338 3.31837 -2.19021 0
M  V30 1230 N 112.336 1.25143 0.95797 0
M  V30 1231 C 113.752 1.01892 1.22842 0
M  V30 1232 C 113.952 -0.266311 1.99732 0
M  V30 1233 O 113.008 -0.979913 2.3271 0
M  V30 1234 C 114.321 2.24004 2.00606 0
M  V30 1235 C 115.869 2.28731 2.13662 0
M  V30 1236 C 116.344 3.5049 2.94823 0
M  V30 1237 N 117.835 3.50866 3.02403 0
M  V30 1238 C 118.57 4.4174 3.65586 0
M  V30 1239 N 118.066 5.42882 4.30408 0
M  V30 1240 N 119.859 4.29429 3.62694 0
M  V30 1241 H 112.01 2.07718 0.443493 0
M  V30 1242 H 114.273 0.912031 0.258657 0
M  V30 1243 H 113.979 3.17395 1.51503 0
M  V30 1244 H 113.853 2.26907 3.01319 0
M  V30 1245 H 116.24 1.35865 2.61963 0
M  V30 1246 H 116.321 2.29848 1.12265 0
M  V30 1247 H 115.965 4.43676 2.47213 0
M  V30 1248 H 115.895 3.46617 3.96439 0
M  V30 1249 H 118.386 2.777 2.56302 0
M  V30 1250 H 118.699 6.0844 4.76467 0
M  V30 1251 H 117.044 5.46758 4.29047 0
M  V30 1252 H 120.235 3.49643 3.11236 0
M  V30 1253 H 120.408 5.00448 4.1165 0
M  V30 1254 N 113.814 -1.1601 1.06675 0
M  V30 1255 C 115.039 -1.91068 0.806706 0
M  V30 1256 C 115.464 -1.77112 -0.633485 0
M  V30 1257 O 114.822 -1.09908 -1.44187 0
M  V30 1258 C 114.87 -3.39655 1.21106 0
M  V30 1259 O 113.974 -4.10893 0.352189 0
M  V30 1260 H 113.315 -0.595125 0.294486 0
M  V30 1261 H 115.845 -1.46955 1.42356 0
M  V30 1262 H 115.855 -3.90434 1.18428 0
M  V30 1263 H 114.53 -3.49132 2.26008 0
M  V30 1264 H 113.107 -3.70285 0.440868 0
M  V30 1265 N 115.292 -0.849877 -1.32721 0
M  V30 1266 C 116.54 -0.450032 -1.97026 0
M  V30 1267 C 116.861 0.996604 -1.67609 0
M  V30 1268 O 116.131 1.6958 -0.980786 0
M  V30 1269 H 114.711 -0.163426 -0.728904 0
M  V30 1270 H 117.373 -1.08526 -1.6189 0
M  V30 1271 H 116.469 -0.591146 -3.0645 0
M  V30 1272 N 116.77 1.45427 -0.607355 0
M  V30 1273 C 118.186 1.57283 -0.270985 0
M  V30 1274 C 118.386 1.59875 1.22647 0
M  V30 1275 O 117.442 1.52893 2.00948 0
M  V30 1276 C 118.755 2.85566 -0.941952 0
M  V30 1277 C 120.303 2.9924 -0.917849 0
M  V30 1278 C 120.778 4.30293 -1.56882 0
M  V30 1279 N 122.269 4.37051 -1.5343 0
M  V30 1280 C 123.004 5.37123 -2.00715 0
M  V30 1281 N 122.5 6.43734 -2.56084 0
M  V30 1282 N 124.293 5.28479 -1.91484 0
M  V30 1283 H 116.444 1.41988 -1.57966 0
M  V30 1284 H 118.707 0.67885 -0.661715 0
M  V30 1285 H 118.413 2.8955 -1.99633 0
M  V30 1286 H 118.287 3.74322 -0.465096 0
M  V30 1287 H 120.674 2.94822 0.127984 0
M  V30 1288 H 120.755 2.11895 -1.43297 0
M  V30 1289 H 120.399 4.35469 -2.61398 0
M  V30 1290 H 120.329 5.16454 -1.02873 0
M  V30 1291 H 122.82 3.60615 -1.12982 0
M  V30 1292 H 123.133 7.16341 -2.89958 0
M  V30 1293 H 121.478 6.44485 -2.60122 0
M  V30 1294 H 124.669 4.44098 -1.47967 0
M  V30 1295 H 124.842 6.0632 -2.28648 0
M  V30 1296 N 118.248 0.346503 1.53744 0
M  V30 1297 C 119.659 -0.136779 1.86198 0
M  V30 1298 C 120.01 -1.49749 1.26766 0
M  V30 1299 O 119.135 -2.08417 0.582355 0
M  V30 1300 C 119.73 -0.254966 3.37839 0
M  V30 1301 C 118.289 -0.682482 3.70161 0
M  V30 1302 C 117.436 0.181981 2.76702 0
M  V30 1303 H 120.387 0.565994 1.48264 0
M  V30 1304 H 120.408 -1.08195 3.64793 0
M  V30 1305 H 119.92 0.735526 3.81066 0
M  V30 1306 H 118.021 -1.68189 3.3248 0
M  V30 1307 H 118.134 -0.470326 4.76786 0
M  V30 1308 H 116.498 -0.34615 2.52337 0
M  V30 1309 H 117.281 1.16966 3.2276 0
M  V30 1310 N 119.726 -1.57421 0.075193 0
M  V30 1311 C 120.656 -2.15942 -0.888324 0
M  V30 1312 C 121.637 -1.08737 -1.30806 0
M  V30 1313 O 122.822 -1.36787 -1.37851 0
M  V30 1314 C 119.952 -2.72379 -2.1547 0
M  V30 1315 C 118.906 -3.8478 -1.87425 0
M  V30 1316 C 118.232 -4.27834 -3.20721 0
M  V30 1317 C 119.532 -5.08869 -1.17684 0
M  V30 1318 H 121.226 -2.96705 -0.400799 0
M  V30 1319 H 118.772 -1.42723 -0.191342 0
M  V30 1320 H 120.725 -3.11965 -2.83295 0
M  V30 1321 H 119.449 -1.88841 -2.6647 0
M  V30 1322 H 118.108 -3.45703 -1.22004 0
M  V30 1323 H 117.756 -3.41214 -3.6957 0
M  V30 1324 H 117.456 -5.03605 -3.02746 0
M  V30 1325 H 118.98 -4.70039 -3.89738 0
M  V30 1326 H 120.394 -5.4575 -1.75584 0
M  V30 1327 H 118.791 -5.8994 -1.09956 0
M  V30 1328 H 119.861 -4.84648 -0.156453 0
M  V30 1329 N 121.204 0.198386 -1.56346 0
M  V30 1330 C 122.167 1.22952 -1.93431 0
M  V30 1331 C 123.167 1.38611 -0.815092 0
M  V30 1332 O 124.357 1.36479 -1.08255 0
M  V30 1333 C 121.489 2.59946 -2.20546 0
M  V30 1334 H 122.682 0.912626 -2.85677 0
M  V30 1335 H 120.235 0.43977 -1.49986 0
M  V30 1336 H 120.97 2.96696 -1.30927 0
M  V30 1337 H 120.755 2.49953 -3.02102 0
M  V30 1338 H 122.245 3.3431 -2.50253 0
M  V30 1339 N 122.682 1.50554 0.465978 0
M  V30 1340 C 123.928 1.62038 1.21949 0
M  V30 1341 C 124.261 0.322116 1.9151 0
M  V30 1342 O 123.536 -0.676723 1.82348 0
M  V30 1343 C 123.819 2.80421 2.25912 0
M  V30 1344 C 123.672 4.20144 1.60622 0
M  V30 1345 C 124.991 2.94354 3.27176 0
M  V30 1346 H 122.11 0.589752 0.441998 0
M  V30 1347 H 124.752 1.82956 0.51257 0
M  V30 1348 H 122.902 2.62717 2.86203 0
M  V30 1349 H 124.574 4.49449 1.03889 0
M  V30 1350 H 122.817 4.24165 0.909211 0
M  V30 1351 H 123.488 4.98914 2.36196 0
M  V30 1352 H 125.964 3.10578 2.76913 0
M  V30 1353 H 124.84 3.788 3.97242 0
M  V30 1354 H 125.101 2.05186 3.916 0
M  V30 1355 N 124.16 -0.719506 1.40217 0
M  V30 1356 C 125.385 -1.51371 1.4178 0
M  V30 1357 C 125.81 -1.88091 0.0182355 0
M  V30 1358 O 125.168 -1.52997 -0.972707 0
M  V30 1359 C 125.216 -2.768 2.31115 0
M  V30 1360 O 124.32 -3.73349 1.7517 0
M  V30 1361 H 123.661 -0.456529 0.482159 0
M  V30 1362 H 126.191 -0.88644 1.844 0
M  V30 1363 H 126.201 -3.25371 2.46167 0
M  V30 1364 H 124.876 -2.49407 3.3282 0
M  V30 1365 H 123.453 -3.32179 1.69444 0
M  V30 1366 N 125.638 -1.25649 -0.95132 0
M  V30 1367 C 126.884 -1.10757 -1.69884 0
M  V30 1368 C 127.217 0.350061 -1.91019 0
M  V30 1369 O 126.492 1.25783 -1.48354 0
M  V30 1370 C 126.775 -1.86606 -3.07978 0
M  V30 1371 C 126.628 -3.40217 -2.94232 0
M  V30 1372 C 127.947 -1.65182 -4.07925 0
M  V30 1373 H 125.066 -0.40374 -0.616574 0
M  V30 1374 H 127.708 -1.54521 -1.10558 0
M  V30 1375 H 125.858 -1.49409 -3.58621 0
M  V30 1376 H 127.53 -3.87108 -2.50889 0
M  V30 1377 H 125.773 -3.67759 -2.30078 0
M  V30 1378 H 126.444 -3.88505 -3.92133 0
M  V30 1379 H 128.92 -1.9757 -3.66204 0
M  V30 1380 H 127.796 -2.20683 -5.02583 0
M  V30 1381 H 128.057 -0.593933 -4.38092 0
M  V30 1382 N 127.117 1.15442 -1.07289 0
M  V30 1383 C 128.528 1.67803 -0.818475 0
M  V30 1384 C 128.879 1.8489 0.656507 0
M  V30 1385 O 128.004 1.55176 1.50829 0
M  V30 1386 C 128.599 3.04805 -1.47917 0
M  V30 1387 C 127.158 3.54245 -1.27229 0
M  V30 1388 C 126.305 2.29986 -1.54925 0
M  V30 1389 H 129.256 0.996646 -1.23502 0
M  V30 1390 H 129.277 3.69702 -0.90005 0
M  V30 1391 H 128.789 2.92336 -2.55267 0
M  V30 1392 H 126.89 3.71956 -0.21899 0
M  V30 1393 H 127.003 4.35723 -1.99203 0
M  V30 1394 H 125.367 2.35496 -0.970242 0
M  V30 1395 H 126.15 2.20105 -2.63455 0
M  V30 1396 N 128.595 0.856903 1.32268 0
M  V30 1397 C 129.841 0.462069 1.97466 0
M  V30 1398 C 130.174 -0.980298 1.67642 0
M  V30 1399 O 129.449 -1.68824 0.965858 0
M  V30 1400 C 129.732 0.704336 3.53145 0
M  V30 1401 C 129.585 2.19529 3.9259 0
M  V30 1402 C 130.904 0.1622 4.39801 0
M  V30 1403 H 128.023 0.169357 0.717278 0
M  V30 1404 H 130.665 1.07574 1.56614 0
M  V30 1405 H 128.815 0.181999 3.88073 0
M  V30 1406 H 130.487 2.78387 3.67829 0
M  V30 1407 H 128.73 2.67292 3.41668 0
M  V30 1408 H 129.401 2.31549 5.01088 0
M  V30 1409 H 131.877 0.608905 4.11621 0
M  V30 1410 H 130.753 0.361265 5.4771 0
M  V30 1411 H 131.014 -0.935158 4.32096 0
M  V30 1412 N 130.073 -1.45103 0.615059 0
M  V30 1413 C 131.02 -2.30586 -0.0993978 0
M  V30 1414 C 131.99 -1.42544 -0.852669 0
M  V30 1415 O 133.175 -1.71465 -0.836917 0
M  V30 1416 C 130.315 -3.27572 -1.08583 0
M  V30 1417 C 129.428 -4.30717 -0.332656 0
M  V30 1418 C 128.563 -5.14807 -1.30947 0
M  V30 1419 C 127.602 -6.09673 -0.544538 0
M  V30 1420 N 126.739 -6.86517 -1.47101 0
M  V30 1421 H 131.579 -2.91144 0.635542 0
M  V30 1422 H 129.116 -1.4346 0.325206 0
M  V30 1423 H 131.074 -3.82276 -1.67095 0
M  V30 1424 H 129.704 -2.68751 -1.78809 0
M  V30 1425 H 128.756 -3.78615 0.368107 0
M  V30 1426 H 130.068 -4.98102 0.263842 0
M  V30 1427 H 129.222 -5.73948 -1.96643 0
M  V30 1428 H 127.961 -4.47458 -1.9399 0
M  V30 1429 H 126.966 -5.49656 0.126003 0
M  V30 1430 H 128.191 -6.79052 0.080947 0
M  V30 1431 H 126.137 -6.21851 -2.08895 0
M  V30 1432 H 126.054 -7.50281 -0.928137 0
M  V30 1433 H 127.322 -7.50194 -2.11731 0
M  V30 1434 N 131.551 -0.354651 -1.53558 0
M  V30 1435 C 132.514 0.484566 -2.24019 0
M  V30 1436 C 133.514 1.01861 -1.24422 0
M  V30 1437 O 134.704 0.906097 -1.4878 0
M  V30 1438 C 131.836 1.67615 -2.96847 0
M  V30 1439 H 133.029 -0.131843 -2.9961 0
M  V30 1440 H 130.582 -0.106165 -1.55939 0
M  V30 1441 H 131.317 2.33095 -2.25471 0
M  V30 1442 H 131.102 1.30029 -3.69912 0
M  V30 1443 H 132.592 2.27114 -3.50441 0
M  V30 1444 N 133.029 1.57378 -0.0835403 0
M  V30 1445 C 134.278 1.93106 0.582498 0
M  V30 1446 C 134.591 0.96651 1.70053 0
M  V30 1447 O 135.797 1.21705 2.42693 0
M  V30 1448 C 134.253 3.43076 1.08751 0
M  V30 1449 C 133.861 4.48 -0.000146404 0
M  V30 1450 C 135.605 3.87785 1.72694 0
M  V30 1451 C 133.512 5.89113 0.519568 0
M  V30 1452 H 132.442 0.720775 0.221358 0
M  V30 1453 H 135.093 1.82821 -0.157675 0
M  V30 1454 H 133.475 3.48474 1.88101 0
M  V30 1455 H 134.649 4.54233 -0.775199 0
M  V30 1456 H 132.964 4.1283 -0.54406 0
M  V30 1457 H 135.561 4.90604 2.1263 0
M  V30 1458 H 135.904 3.25796 2.59158 0
M  V30 1459 H 136.437 3.8504 0.999457 0
M  V30 1460 H 133.176 6.54775 -0.308186 0
M  V30 1461 H 132.696 5.86376 1.26188 0
M  V30 1462 H 134.375 6.39346 0.992237 0
M  V30 1463 N 134.507 -0.190092 1.56449 0
M  V30 1464 C 135.753 -0.906472 1.82084 0
M  V30 1465 C 136.108 -1.80677 0.661335 0
M  V30 1466 O 135.401 -1.88501 -0.343237 0
M  V30 1467 C 135.595 -1.75382 3.1141 0
M  V30 1468 C 135.424 -0.937053 4.39829 0
M  V30 1469 C 134.194 -0.619507 5.01488 0
M  V30 1470 C 136.392 -0.2874 5.13496 0
M  V30 1471 N 134.374 0.215367 6.13522 0
M  V30 1472 C 135.745 0.409454 6.18646 0
M  V30 1473 C 137.8 -0.203639 4.97483 0
M  V30 1474 C 136.503 1.1821 7.0952 0
M  V30 1475 C 138.529 0.555622 5.88784 0
M  V30 1476 C 137.891 1.24091 6.93384 0
M  V30 1477 H 133.99 -0.310931 0.717528 0
M  V30 1478 H 136.574 -0.174821 1.93914 0
M  V30 1479 H 134.745 -2.45703 3.00806 0
M  V30 1480 H 136.477 -2.41006 3.25112 0
M  V30 1481 H 133.232 -0.945126 4.64074 0
M  V30 1482 H 133.656 0.622562 6.74131 0
M  V30 1483 H 138.298 -0.719099 4.1664 0
M  V30 1484 H 136.016 1.70897 7.89823 0
M  V30 1485 H 139.602 0.621854 5.78467 0
M  V30 1486 H 138.482 1.81901 7.62812 0
M  V30 1487 N 135.985 -1.50799 -0.457987 0
M  V30 1488 C 136.948 -1.7005 -1.53674 0
M  V30 1489 C 137.948 -0.570881 -1.50325 0
M  V30 1490 O 139.138 -0.838126 -1.52712 0
M  V30 1491 C 136.27 -1.73788 -2.93276 0
M  V30 1492 H 137.463 -2.66306 -1.37917 0
M  V30 1493 H 135.016 -1.40477 -0.685271 0
M  V30 1494 H 135.751 -0.792717 -3.14462 0
M  V30 1495 H 135.536 -2.55864 -2.97113 0
M  V30 1496 H 137.026 -1.90591 -3.71571 0
M  V30 1497 N 137.463 0.71206 -1.40597 0
M  V30 1498 C 138.74 1.46536 -1.29563 0
M  V30 1499 C 139.12 2.10931 0.0844217 0
M  V30 1500 O 138.468 2.00418 1.0975 0
M  V30 1501 C 138.678 2.49821 -2.43701 0
M  V30 1502 C 140.026 3.15551 -2.841 0
M  V30 1503 O 141.05 2.60142 -2.4332 0
M  V30 1504 O 139.909 4.15867 -3.54566 0
M  V30 1505 H 137.003 0.651801 -0.509004 0
M  V30 1506 H 139.549 0.743935 -1.52524 0
M  V30 1507 H 138.321 2.00778 -3.35863 0
M  V30 1508 H 137.944 3.29495 -2.22528 0
M  V30 1509 N 138.941 1.26152 0.944643 0
M  V30 1510 C 140.352 1.10454 1.50522 0
M  V30 1511 C 140.703 -0.31635 1.93633 0
M  V30 1512 O 139.828 -1.20746 1.79581 0
M  V30 1513 C 140.423 1.99891 2.73549 0
M  V30 1514 C 138.982 1.88348 3.25886 0
M  V30 1515 C 138.129 1.93447 1.9868 0
M  V30 1516 H 141.08 1.39292 0.760489 0
M  V30 1517 H 141.101 1.54477 3.47732 0
M  V30 1518 H 140.613 3.03297 2.42141 0
M  V30 1519 H 138.714 0.878636 3.62092 0
M  V30 1520 H 138.827 2.73696 3.93227 0
M  V30 1521 H 137.191 1.37456 2.14425 0
M  V30 1522 H 137.974 2.98476 1.69607 0
M  V30 1523 N 140.419 -1.14872 1.07899 0
M  V30 1524 C 141.366 -2.19791 0.704319 0
M  V30 1525 C 142.336 -1.63238 -0.306987 0
M  V30 1526 O 143.521 -1.8983 -0.192171 0
M  V30 1527 C 140.661 -3.44911 0.114244 0
M  V30 1528 C 139.774 -4.15637 1.1777 0
M  V30 1529 C 138.909 -5.28324 0.552037 0
M  V30 1530 C 137.948 -5.90875 1.59789 0
M  V30 1531 N 137.085 -6.95022 0.994404 0
M  V30 1532 H 141.925 -2.5119 1.60336 0
M  V30 1533 H 139.462 -1.23356 0.801352 0
M  V30 1534 H 141.42 -4.16477 -0.245544 0
M  V30 1535 H 140.05 -3.14011 -0.74813 0
M  V30 1536 H 139.102 -3.42512 1.65499 0
M  V30 1537 H 140.414 -4.5823 1.97046 0
M  V30 1538 H 139.568 -6.06538 0.1402 0
M  V30 1539 H 138.307 -4.86939 -0.272431 0
M  V30 1540 H 137.312 -5.11369 2.01945 0
M  V30 1541 H 138.537 -6.34337 2.42474 0
M  V30 1542 H 136.483 -6.55722 0.190939 0
M  V30 1543 H 136.4 -7.36073 1.72432 0
M  V30 1544 H 137.668 -7.77123 0.608253 0
M  V30 1545 N 141.898 -0.863906 -1.31812 0
M  V30 1546 C 142.808 -0.318461 -2.32428 0
M  V30 1547 C 143.824 0.568496 -1.64451 0
M  V30 1548 O 145 0.46666 -1.95919 0
M  V30 1549 C 142.065 0.476355 -3.43412 0
M  V30 1550 C 141.126 -0.43784 -4.27061 0
M  V30 1551 C 140.359 0.319138 -5.32745 0
M  V30 1552 O 140.582 1.54799 -5.48993 0
M  V30 1553 O 139.516 -0.319861 -6.01049 0
M  V30 1554 H 143.342 -1.15229 -2.80991 0
M  V30 1555 H 140.927 -0.627103 -1.35602 0
M  V30 1556 H 142.809 0.927156 -4.11074 0
M  V30 1557 H 141.484 1.28683 -2.97022 0
M  V30 1558 H 140.391 -0.937013 -3.62175 0
M  V30 1559 H 141.724 -1.21375 -4.77 0
M  V30 1560 N 143.376 1.44774 -0.622745 0
M  V30 1561 C 144.622 2.0242 -0.124083 0
M  V30 1562 C 144.955 1.4881 1.24777 0
M  V30 1563 O 144.23 0.668799 1.8264 0
M  V30 1564 C 144.513 3.59957 -0.101619 0
M  V30 1565 C 144.366 4.23867 -1.50521 0
M  V30 1566 C 145.685 4.36284 0.578272 0
M  V30 1567 H 142.804 0.735528 -0.0465645 0
M  V30 1568 H 145.446 1.72447 -0.797617 0
M  V30 1569 H 143.596 3.85623 0.471934 0
M  V30 1570 H 145.268 4.09336 -2.12701 0
M  V30 1571 H 143.511 3.81684 -2.06154 0
M  V30 1572 H 144.182 5.32843 -1.4416 0
M  V30 1573 H 146.658 4.16001 0.0906057 0
M  V30 1574 H 145.534 5.46004 0.563149 0
M  V30 1575 H 145.795 4.10271 1.64713 0
M  V30 1576 N 144.854 0.36279 1.53368 0
M  V30 1577 C 145.804 -0.501391 2.22419 0
M  V30 1578 C 146.788 -1.0509 1.2184 0
M  V30 1579 O 147.98 -0.981404 1.47301 0
M  V30 1580 C 145.109 -1.64201 3.01484 0
M  V30 1581 C 144.195 -1.10552 4.09438 0
M  V30 1582 N 144.586 -0.291788 5.04958 0
M  V30 1583 C 142.884 -1.3806 4.24094 0
M  V30 1584 C 143.585 0.00162655 5.817 0
M  V30 1585 N 142.561 -0.595244 5.40331 0
M  V30 1586 H 146.363 0.127159 2.93625 0
M  V30 1587 H 143.877 0.170658 1.61501 0
M  V30 1588 H 145.874 -2.27326 3.49469 0
M  V30 1589 H 144.534 -2.27365 2.31809 0
M  V30 1590 H 145.545 0.0687731 5.17854 0
M  V30 1591 H 142.222 -2.01522 3.65644 0
M  V30 1592 H 143.612 0.659278 6.68658 0
M  V30 1593 N 146.332 -1.57332 0.0918853 0
M  V30 1594 C 147.609 -1.85691 -0.614668 0
M  V30 1595 C 147.989 -0.988146 -1.86545 0
M  V30 1596 O 147.337 -0.0597055 -2.28422 0
M  V30 1597 C 147.547 -3.36294 -0.933126 0
M  V30 1598 C 148.895 -4.04275 -1.29796 0
M  V30 1599 O 149.919 -3.41157 -1.02424 0
M  V30 1600 O 148.778 -5.1564 -1.81047 0
M  V30 1601 H 145.872 -0.767802 -0.307261 0
M  V30 1602 H 148.418 -1.69244 0.12434 0
M  V30 1603 H 147.19 -3.91273 -0.0456404 0
M  V30 1604 H 146.813 -3.58076 -1.72822 0
M  V30 1605 N 147.81 0.181792 -1.56548 0
M  V30 1606 C 148.773 1.20894 -1.94724 0
M  V30 1607 C 149.773 1.37738 -0.829747 0
M  V30 1608 O 150.963 1.35323 -1.09697 0
M  V30 1609 C 148.095 2.57593 -2.23291 0
M  V30 1610 H 149.288 0.882275 -2.86629 0
M  V30 1611 H 146.841 0.423838 -1.50444 0
M  V30 1612 H 147.576 2.95291 -1.34067 0
M  V30 1613 H 147.361 2.46735 -3.04736 0
M  V30 1614 H 148.851 3.31637 -2.53785 0
M  V30 1615 N 149.288 1.51039 0.449983 0
M  V30 1616 C 150.536 1.62759 1.19808 0
M  V30 1617 C 150.857 0.339981 1.92013 0
M  V30 1618 O 150.127 -0.643606 1.85026 0
M  V30 1619 H 148.707 0.599811 0.445237 0
M  V30 1620 H 151.369 1.87914 0.517138 0
M  V30 1621 H 150.465 2.44911 1.93455 0
M  V30 1622 N 150.766 -0.704594 1.40972 0
M  V30 1623 C 152.014 -1.46169 1.39568 0
M  V30 1624 C 152.335 -1.95 0.00253745 0
M  V30 1625 O 151.605 -1.71095 -0.954114 0
M  V30 1626 H 150.185 -0.542326 0.513704 0
M  V30 1627 H 152.847 -0.834553 1.76128 0
M  V30 1628 H 151.943 -2.32922 2.07735 0
M  V30 1629 N 152.244 -1.26651 -0.937939 0
M  V30 1630 C 153.493 -1.11775 -1.67897 0
M  V30 1631 C 153.806 0.33794 -1.92659 0
M  V30 1632 O 155.012 0.607434 -2.64618 0
M  V30 1633 C 153.468 -1.9523 -3.02346 0
M  V30 1634 C 153.076 -3.45393 -2.8532 0
M  V30 1635 C 154.82 -1.88972 -3.80118 0
M  V30 1636 C 152.727 -4.21083 -4.15263 0
M  V30 1637 H 151.657 -0.414696 -0.629717 0
M  V30 1638 H 154.308 -1.50988 -1.04283 0
M  V30 1639 H 152.69 -1.48853 -3.66959 0
M  V30 1640 H 153.864 -3.99561 -2.29537 0
M  V30 1641 H 152.179 -3.52921 -2.20988 0
M  V30 1642 H 154.776 -2.42805 -4.76392 0
M  V30 1643 H 155.119 -0.86113 -4.07296 0
M  V30 1644 H 155.652 -2.33189 -3.22285 0
M  V30 1645 H 152.391 -5.24425 -3.93267 0
M  V30 1646 H 151.911 -3.71695 -4.70747 0
M  V30 1647 H 153.59 -4.29706 -4.83696 0
M  V30 1648 N 153.722 1.14298 -1.08507 0
M  V30 1649 C 154.947 1.8976 -0.837001 0
M  V30 1650 C 155.372 1.78097 0.605228 0
M  V30 1651 O 154.73 1.12188 1.4242 0
M  V30 1652 C 154.778 3.37685 -1.26495 0
M  V30 1653 O 153.882 4.10281 -0.417514 0
M  V30 1654 H 153.223 0.590365 -0.303917 0
M  V30 1655 H 155.753 1.44672 -1.44676 0
M  V30 1656 H 155.763 3.88501 -1.24625 0
M  V30 1657 H 154.438 3.45492 -2.31534 0
M  V30 1658 H 153.015 3.69536 -0.499722 0
M  V30 1659 N 155.201 0.870884 1.31352 0
M  V30 1660 C 156.447 0.482987 1.96965 0
M  V30 1661 C 156.78 -0.962462 1.68672 0
M  V30 1662 O 156.055 -1.6779 0.98371 0
M  V30 1663 C 156.338 0.741752 3.52378 0
M  V30 1664 C 156.191 2.2368 3.9024 0
M  V30 1665 C 157.51 0.208838 4.39604 0
M  V30 1666 H 154.629 0.176955 0.715441 0
M  V30 1667 H 157.271 1.09229 1.55464 0
M  V30 1668 H 155.421 0.223149 3.87859 0
M  V30 1669 H 157.093 2.82273 3.64856 0
M  V30 1670 H 155.336 2.70901 3.38814 0
M  V30 1671 H 156.007 2.3685 4.98604 0
M  V30 1672 H 158.483 0.652529 4.10952 0
M  V30 1673 H 157.359 0.419336 5.47296 0
M  V30 1674 H 157.62 -0.889275 4.33064 0
M  V30 1675 N 156.679 -1.44442 0.630414 0
M  V30 1676 C 157.927 -2.01653 0.134351 0
M  V30 1677 C 158.248 -1.49836 -1.24796 0
M  V30 1678 O 157.518 -0.701684 -1.82902 0
M  V30 1679 H 156.098 -0.74554 0.0466769 0
M  V30 1680 H 158.76 -1.76952 0.816955 0
M  V30 1681 H 157.856 -3.11935 0.101498 0
M  V30 1682 N 158.157 -0.370918 -1.53173 0
M  V30 1683 C 159.434 0.273754 -1.93675 0
M  V30 1684 C 159.814 1.65938 -1.3049 0
M  V30 1685 O 159.162 2.23698 -0.465999 0
M  V30 1686 C 159.372 0.318602 -3.47543 0
M  V30 1687 C 160.72 0.556392 -4.20939 0
M  V30 1688 O 161.744 0.399587 -3.53952 0
M  V30 1689 O 160.603 0.862133 -5.39657 0
M  V30 1690 H 157.697 0.165448 -0.810281 0
M  V30 1691 H 160.243 -0.42409 -1.64315 0
M  V30 1692 H 159.015 -0.652687 -3.85818 0
M  V30 1693 H 158.638 1.06212 -3.83151 0
M  V30 1694 N 159.635 1.57281 -0.100228 0
M  V30 1695 C 161.051 1.57527 0.256416 0
M  V30 1696 C 161.251 1.11173 1.68056 0
M  V30 1697 O 160.307 0.79053 2.39806 0
M  V30 1698 C 161.62 3.00673 0.0401747 0
M  V30 1699 C 163.168 3.12815 0.107528 0
M  V30 1700 C 163.643 4.57929 -0.0807834 0
M  V30 1701 N 165.134 4.63193 -0.0261207 0
M  V30 1702 C 165.869 5.73212 -0.146999 0
M  V30 1703 N 165.365 6.92047 -0.322999 0
M  V30 1704 N 167.158 5.62031 -0.0879044 0
M  V30 1705 H 159.309 1.85718 -1.03065 0
M  V30 1706 H 161.572 0.857446 -0.404339 0
M  V30 1707 H 161.278 3.38804 -0.943649 0
M  V30 1708 H 161.152 3.69042 0.780262 0
M  V30 1709 H 163.539 2.74554 1.08186 0
M  V30 1710 H 163.62 2.47028 -0.664134 0
M  V30 1711 H 163.264 4.96886 -1.05201 0
M  V30 1712 H 163.194 5.21783 0.710635 0
M  V30 1713 H 165.685 3.77748 0.107161 0
M  V30 1714 H 165.998 7.7173 -0.406608 0
M  V30 1715 H 164.343 6.94074 -0.358733 0
M  V30 1716 H 167.534 4.68075 0.048498 0
M  V30 1717 H 167.707 6.47734 -0.185557 0
M  V30 1718 N 161.113 -0.173488 1.56642 0
M  V30 1719 C 162.359 -0.887108 1.83035 0
M  V30 1720 C 162.714 -1.79965 0.680461 0
M  V30 1721 O 162.007 -1.88854 -0.323225 0
M  V30 1722 C 162.201 -1.72069 3.13252 0
M  V30 1723 C 162.03 -0.89035 4.40798 0
M  V30 1724 C 160.8 -0.566282 5.02117 0
M  V30 1725 C 162.998 -0.232921 5.13772 0
M  V30 1726 N 160.98 0.280427 6.13259 0
M  V30 1727 C 162.351 0.475046 6.18177 0
M  V30 1728 C 164.406 -0.150863 4.97671 0
M  V30 1729 C 163.109 1.25729 7.08227 0
M  V30 1730 C 165.135 0.618039 5.88162 0
M  V30 1731 C 164.497 1.31438 6.92029 0
M  V30 1732 H 160.596 -0.303303 0.720785 0
M  V30 1733 H 163.18 -0.154244 1.94088 0
M  V30 1734 H 161.351 -2.42499 3.03395 0
M  V30 1735 H 163.083 -2.37545 3.2765 0
M  V30 1736 H 159.838 -0.895852 4.6505 0
M  V30 1737 H 160.262 0.694027 6.73433 0
M  V30 1738 H 164.904 -0.674868 4.17379 0
M  V30 1739 H 162.622 1.79265 7.87966 0
M  V30 1740 H 166.208 0.683173 5.77775 0
M  V30 1741 H 165.088 1.89981 7.6084 0
M  V30 1742 N 162.591 -1.51276 -0.441967 0
M  V30 1743 C 163.538 -1.72256 -1.53612 0
M  V30 1744 C 164.508 -0.564164 -1.56225 0
M  V30 1745 O 165.693 -0.798074 -1.73307 0
M  V30 1746 C 162.833 -1.84932 -2.91366 0
M  V30 1747 C 161.946 -3.12459 -2.98317 0
M  V30 1748 C 161.081 -3.15758 -4.27166 0
M  V30 1749 C 160.12 -4.37619 -4.27967 0
M  V30 1750 N 159.257 -4.38493 -5.48333 0
M  V30 1751 H 164.097 -2.65654 -1.35026 0
M  V30 1752 H 161.634 -1.31662 -0.656009 0
M  V30 1753 H 163.592 -1.90263 -3.7129 0
M  V30 1754 H 162.222 -0.949461 -3.08521 0
M  V30 1755 H 161.274 -3.1646 -2.11086 0
M  V30 1756 H 162.586 -4.02382 -2.94771 0
M  V30 1757 H 161.74 -3.19979 -5.15459 0
M  V30 1758 H 160.479 -2.23715 -4.33362 0
M  V30 1759 H 159.484 -4.33579 -3.38067 0
M  V30 1760 H 160.709 -5.30921 -4.23438 0
M  V30 1761 H 158.655 -3.49318 -5.55259 0
M  V30 1762 H 158.572 -5.22219 -5.46647 0
M  V30 1763 H 159.84 -4.469 -6.38671 0
M  V30 1764 N 164.069 0.697108 -1.41344 0
M  V30 1765 C 165.032 1.79281 -1.42797 0
M  V30 1766 C 166.032 1.57607 -0.318837 0
M  V30 1767 O 167.222 1.64309 -0.578642 0
M  V30 1768 C 164.354 3.17632 -1.23785 0
M  V30 1769 H 165.547 1.79385 -2.40335 0
M  V30 1770 H 163.1 0.904582 -1.27464 0
M  V30 1771 H 163.835 3.23167 -0.270814 0
M  V30 1772 H 163.62 3.34765 -2.04144 0
M  V30 1773 H 165.11 3.97617 -1.27633 0
M  V30 1774 N 165.547 1.27147 0.931209 0
M  V30 1775 C 166.477 1.12081 2.04842 0
M  V30 1776 C 167.458 0.0232364 1.70084 0
M  V30 1777 O 168.643 0.197085 1.93197 0
M  V30 1778 C 165.773 0.76354 3.38803 0
M  V30 1779 C 164.727 1.81396 3.87659 0
M  V30 1780 C 164.053 1.31075 5.18385 0
M  V30 1781 C 165.353 3.21739 4.11438 0
M  V30 1782 H 167.047 2.05537 2.17703 0
M  V30 1783 H 164.593 0.989603 1.04608 0
M  V30 1784 H 166.546 0.644982 4.16435 0
M  V30 1785 H 165.27 -0.206727 3.25945 0
M  V30 1786 H 163.929 1.92136 3.12217 0
M  V30 1787 H 163.577 0.330037 5.01916 0
M  V30 1788 H 163.277 2.013 5.52044 0
M  V30 1789 H 164.801 1.20506 5.98591 0
M  V30 1790 H 166.215 3.14019 4.79651 0
M  V30 1791 H 164.612 3.89644 4.56397 0
M  V30 1792 H 165.682 3.67054 3.16859 0
M  V30 1793 N 167.025 -1.13721 1.09112 0
M  V30 1794 C 167.988 -2.17222 0.731241 0
M  V30 1795 C 168.988 -1.59035 -0.237566 0
M  V30 1796 O 170.178 -1.74192 -0.0161704 0
M  V30 1797 C 167.31 -3.40804 0.0808443 0
M  V30 1798 H 168.503 -2.50573 1.64783 0
M  V30 1799 H 166.056 -1.28493 0.889897 0
M  V30 1800 H 166.791 -3.1304 -0.847127 0
M  V30 1801 H 166.576 -3.84306 0.777896 0
M  V30 1802 H 168.066 -4.1731 -0.155657 0
M  V30 1803 N 168.503 -0.877838 -1.30888 0
M  V30 1804 C 169.451 -0.328662 -2.30266 0
M  V30 1805 C 170.445 0.560496 -1.59859 0
M  V30 1806 O 171.651 0.445722 -1.74394 0
M  V30 1807 H 168.026 -0.0876142 -0.746879 0
M  V30 1808 H 169.997 -1.18061 -2.74051 0
M  V30 1809 C 168.746 0.448071 -3.44801 0
M  V30 1810 H 168.069 -0.226859 -3.99156 0
M  V30 1811 H 169.509 0.797541 -4.16432 0
M  V30 1812 C 167.968 1.64239 -2.94155 0
M  V30 1813 O 168.498 2.74175 -2.93583 0
M  V30 1814 N 166.704 1.47716 -2.50256 0
M  V30 1815 H 166.251 0.582821 -2.5092 0
M  V30 1816 H 166.209 2.27765 -2.16727 0
M  V30 1817 N 169.982 1.44106 -0.638065 0
M  V30 1818 C 170.945 2.29138 0.0531013 0
M  V30 1819 C 171.945 1.41409 0.765506 0
M  V30 1820 O 173.135 1.63206 0.609046 0
M  V30 1821 C 170.267 3.23144 1.08584 0
M  V30 1822 H 171.46 2.91739 -0.694883 0
M  V30 1823 H 169.013 1.51134 -0.398538 0
M  V30 1824 H 169.748 2.65408 1.86357 0
M  V30 1825 H 169.533 3.87804 0.578852 0
M  V30 1826 H 171.023 3.87004 1.56899 0
M  V30 1827 N 171.46 0.379036 1.52974 0
M  V30 1828 C 172.39 -0.452706 2.29069 0
M  V30 1829 C 173.371 -1.07237 1.32039 0
M  V30 1830 O 174.556 -1.08708 1.60923 0
M  V30 1831 C 171.686 -1.5856 3.08992 0
M  V30 1832 C 170.64 -1.0925 4.13822 0
M  V30 1833 C 169.966 -2.31668 4.81907 0
M  V30 1834 C 171.266 -0.167702 5.22031 0
M  V30 1835 H 172.96 0.182181 2.98845 0
M  V30 1836 H 170.506 0.0890592 1.43724 0
M  V30 1837 H 172.459 -2.1742 3.6098 0
M  V30 1838 H 171.183 -2.24792 2.36931 0
M  V30 1839 H 169.842 -0.526494 3.628 0
M  V30 1840 H 169.49 -2.96386 4.06404 0
M  V30 1841 H 169.19 -1.9934 5.52754 0
M  V30 1842 H 170.714 -2.91189 5.36695 0
M  V30 1843 H 172.128 -0.664186 5.6944 0
M  V30 1844 H 170.525 0.0653265 6.00064 0
M  V30 1845 H 171.595 0.786347 4.78482 0
M  V30 1846 N 172.938 -1.57226 0.108567 0
M  V30 1847 C 173.886 -2.16002 -0.862885 0
M  V30 1848 C 174.88 -1.10644 -1.28274 0
M  V30 1849 O 176.086 -1.28966 -1.2557 0
M  V30 1850 H 172.461 -0.691148 -0.296342 0
M  V30 1851 H 174.432 -2.96427 -0.342575 0
M  V30 1852 C 173.181 -2.76576 -2.10716 0
M  V30 1853 H 172.504 -3.5734 -1.793 0
M  V30 1854 H 173.944 -3.21253 -2.76717 0
M  V30 1855 C 172.403 -1.73137 -2.89007 0
M  V30 1856 O 172.933 -1.17842 -3.84026 0
M  V30 1857 N 171.139 -1.43317 -2.52801 0
M  V30 1858 H 170.686 -1.88473 -1.75601 0
M  V30 1859 H 170.644 -0.743485 -3.05483 0
M  V30 1860 N 174.416 0.165178 -1.56732 0
M  V30 1861 C 175.665 0.879143 -1.81532 0
M  V30 1862 C 175.978 1.83144 -0.686842 0
M  V30 1863 O 177.184 2.58823 -0.819944 0
M  V30 1864 C 175.64 1.61388 -3.21686 0
M  V30 1865 C 175.248 0.704904 -4.4242 0
M  V30 1866 C 176.992 2.3157 -3.55774 0
M  V30 1867 C 174.899 1.44022 -5.73595 0
M  V30 1868 H 173.829 0.332033 -0.676957 0
M  V30 1869 H 176.48 0.132008 -1.83025 0
M  V30 1870 H 174.862 2.40599 -3.14529 0
M  V30 1871 H 176.036 -0.0506815 -4.60772 0
M  V30 1872 H 174.351 0.112419 -4.16248 0
M  V30 1873 H 176.948 2.8719 -4.51028 0
M  V30 1874 H 177.291 3.07201 -2.8095 0
M  V30 1875 H 177.824 1.59297 -3.64513 0
M  V30 1876 H 174.563 0.72612 -6.51466 0
M  V30 1877 H 174.083 2.16898 -5.5921 0
M  V30 1878 H 175.762 1.98606 -6.15764 0
M  V30 1879 N 175.894 1.51508 0.433938 0
M  V30 1880 C 177.305 1.56784 1.01369 0
M  V30 1881 C 177.656 0.393349 1.92217 0
M  V30 1882 O 176.781 -0.489441 2.10792 0
M  V30 1883 C 177.376 2.84144 1.8452 0
M  V30 1884 C 175.935 2.9198 2.37539 0
M  V30 1885 C 175.082 2.51482 1.16843 0
M  V30 1886 H 178.033 1.57236 0.215081 0
M  V30 1887 H 178.054 2.68098 2.70007 0
M  V30 1888 H 177.566 3.69607 1.18373 0
M  V30 1889 H 175.667 2.10955 3.0713 0
M  V30 1890 H 175.78 3.95704 2.70103 0
M  V30 1891 H 174.144 2.04758 1.51481 0
M  V30 1892 H 174.927 3.39293 0.523015 0
M  V30 1893 N 177.372 -0.689602 1.41712 0
M  V30 1894 C 178.302 -1.81577 1.46806 0
M  V30 1895 C 179.283 -1.66945 0.326105 0
M  V30 1896 O 180.468 -1.86588 0.538377 0
M  V30 1897 C 177.598 -3.19762 1.35535 0
M  V30 1898 C 176.552 -3.49107 2.47605 0
M  V30 1899 C 175.878 -4.86711 2.21397 0
M  V30 1900 C 177.178 -3.47483 3.89939 0
M  V30 1901 H 178.872 -1.7757 2.41058 0
M  V30 1902 H 176.418 -0.852887 1.16025 0
M  V30 1903 H 178.371 -3.98263 1.3771 0
M  V30 1904 H 177.095 -3.24409 0.377708 0
M  V30 1905 H 175.754 -2.72959 2.44722 0
M  V30 1906 H 175.402 -4.8799 1.21961 0
M  V30 1907 H 175.102 -5.0731 2.96497 0
M  V30 1908 H 176.626 -5.67515 2.25297 0
M  V30 1909 H 178.04 -4.1598 3.94505 0
M  V30 1910 H 176.437 -3.79615 4.64771 0
M  V30 1911 H 177.507 -2.46341 4.17665 0
M  V30 1912 N 178.85 -1.27639 -0.924453 0
M  V30 1913 C 180.127 -1.04887 -1.651 0
M  V30 1914 C 180.507 0.415327 -2.06974 0
M  V30 1915 O 179.855 1.39923 -1.80648 0
M  V30 1916 C 180.065 -2.01348 -2.85061 0
M  V30 1917 C 181.413 -2.30899 -3.56329 0
M  V30 1918 O 182.437 -1.99348 -2.95193 0
M  V30 1919 O 181.296 -2.84699 -4.66485 0
M  V30 1920 H 178.39 -0.400083 -0.723784 0
M  V30 1921 H 180.936 -1.38916 -0.974703 0
M  V30 1922 H 179.708 -3.0008 -2.51133 0
M  V30 1923 H 179.331 -1.679 -3.6041 0
M  V30 1924 N 180.328 1.1314 -1.09713 0
M  V30 1925 C 181.26 2.18343 -0.697056 0
M  V30 1926 C 182.273 1.60669 0.262551 0
M  V30 1927 O 183.462 1.78435 0.0481527 0
M  V30 1928 C 180.562 3.38899 -0.00684728 0
M  V30 1929 C 179.735 4.26078 -0.988741 0
M  V30 1930 C 178.794 5.25155 -0.331394 0
M  V30 1931 O 177.82 5.60701 -0.979926 0
M  V30 1932 N 179.022 5.73271 0.913261 0
M  V30 1933 H 181.787 2.5328 -1.60216 0
M  V30 1934 H 179.348 1.28491 -0.984971 0
M  V30 1935 H 181.34 4.02255 0.444191 0
M  V30 1936 H 179.91 3.02175 0.800551 0
M  V30 1937 H 179.13 3.59453 -1.61826 0
M  V30 1938 H 180.418 4.81178 -1.65364 0
M  V30 1939 H 179.816 5.46544 1.45966 0
M  V30 1940 H 178.373 6.3855 1.30757 0
M  V30 1941 N 181.806 0.884767 1.30421 0
M  V30 1942 C 182.736 0.367574 2.30589 0
M  V30 1943 C 183.717 -0.549464 1.60981 0
M  V30 1944 O 184.902 -0.46336 1.88591 0
M  V30 1945 C 182.032 -0.418944 3.44764 0
M  V30 1946 C 180.986 0.406316 4.26067 0
M  V30 1947 C 180.312 -0.506793 5.32293 0
M  V30 1948 C 181.612 1.64832 4.95608 0
M  V30 1949 H 183.306 1.20462 2.74097 0
M  V30 1950 H 180.852 0.580695 1.31772 0
M  V30 1951 H 182.805 -0.791395 4.13902 0
M  V30 1952 H 181.529 -1.28964 3.0006 0
M  V30 1953 H 180.188 0.760903 3.58617 0
M  V30 1954 H 179.836 -1.37519 4.83836 0
M  V30 1955 H 179.536 0.0415828 5.87585 0
M  V30 1956 H 181.06 -0.875764 6.04287 0
M  V30 1957 H 182.474 1.34646 5.57264 0
M  V30 1958 H 180.871 2.13688 5.60765 0
M  V30 1959 H 181.941 2.39284 4.21748 0
M  V30 1960 N 183.284 -1.43765 0.645699 0
M  V30 1961 C 184.509 -2.06767 0.161883 0
M  V30 1962 C 184.934 -1.48034 -1.16049 0
M  V30 1963 O 184.292 -0.587369 -1.71522 0
M  V30 1964 C 184.34 -3.60519 0.0762003 0
M  V30 1965 O 183.444 -4.00982 -0.963721 0
M  V30 1966 H 182.785 -0.657675 0.091429 0
M  V30 1967 H 185.315 -1.84397 0.886499 0
M  V30 1968 H 185.325 -4.07853 -0.109604 0
M  V30 1969 H 184 -4.02646 1.04157 0
M  V30 1970 H 182.577 -3.65253 -0.751312 0
M  V30 1971 N 184.763 -0.387143 -1.52771 0
M  V30 1972 C 185.726 0.436939 -2.24997 0
M  V30 1973 C 186.726 0.991991 -1.26555 0
M  V30 1974 O 187.916 0.874335 -1.50669 0
M  V30 1975 C 185.048 1.61281 -3.00335 0
M  V30 1976 H 186.241 -0.195365 -2.99263 0
M  V30 1977 H 183.794 -0.139218 -1.55679 0
M  V30 1978 H 184.529 2.2826 -2.30364 0
M  V30 1979 H 184.314 1.22154 -3.72587 0
M  V30 1980 H 185.804 2.19629 -3.5518 0
M  V30 1981 N 186.241 1.57166 -0.116904 0
M  V30 1982 C 187.657 1.5779 0.239693 0
M  V30 1983 C 187.857 1.1295 1.66867 0
M  V30 1984 O 186.913 0.81592 2.38954 0
M  V30 1985 C 188.226 3.00699 0.00828202 0
M  V30 1986 C 189.774 3.12912 0.0743438 0
M  V30 1987 C 190.249 4.57817 -0.129348 0
M  V30 1988 N 191.74 4.63139 -0.075247 0
M  V30 1989 C 192.475 5.73023 -0.207788 0
M  V30 1990 N 191.971 6.91665 -0.396382 0
M  V30 1991 N 193.764 5.61906 -0.14751 0
M  V30 1992 H 185.915 1.84615 -1.05029 0
M  V30 1993 H 188.178 0.85311 -0.41341 0
M  V30 1994 H 187.884 3.37784 -0.979531 0
M  V30 1995 H 187.758 3.69848 0.741077 0
M  V30 1996 H 190.145 2.75686 1.05268 0
M  V30 1997 H 190.226 2.4631 -0.690297 0
M  V30 1998 H 189.87 4.95742 -1.10465 0
M  V30 1999 H 189.8 5.22507 0.655253 0
M  V30 2000 H 192.291 3.7784 0.0670898 0
M  V30 2001 H 192.604 7.71255 -0.488437 0
M  V30 2002 H 190.949 6.93654 -0.432329 0
M  V30 2003 H 194.14 4.681 -0.00115036 0
M  V30 2004 H 194.313 6.47501 -0.254247 0
M  V30 2005 N 187.719 -0.156864 1.56817 0
M  V30 2006 C 188.968 -0.869504 1.81996 0
M  V30 2007 C 189.281 -1.82777 0.696545 0
M  V30 2008 O 190.487 -2.58384 0.833658 0
M  V30 2009 C 188.943 -1.59679 3.22538 0
M  V30 2010 C 188.551 -0.681431 4.42787 0
M  V30 2011 C 190.295 -2.2968 3.56997 0
M  V30 2012 C 188.202 -1.40978 5.74351 0
M  V30 2013 H 187.132 -0.328438 0.678708 0
M  V30 2014 H 189.783 -0.1223 1.83092 0
M  V30 2015 H 188.165 -2.38927 3.158 0
M  V30 2016 H 189.339 0.0751166 4.60739 0
M  V30 2017 H 187.654 -0.0903431 4.16302 0
M  V30 2018 H 190.251 -2.84794 4.52544 0
M  V30 2019 H 190.594 -3.05707 2.82576 0
M  V30 2020 H 191.127 -1.57361 3.65352 0
M  V30 2021 H 187.866 -0.691561 6.51842 0
M  V30 2022 H 187.386 -2.13929 5.60352 0
M  V30 2023 H 189.065 -1.95337 6.16808 0
M  V30 2024 N 189.197 -1.51736 -0.425897 0
M  V30 2025 C 190.145 -1.74464 -1.53834 0
M  V30 2026 C 191.139 -0.611241 -1.57988 0
M  V30 2027 O 192.345 -0.792899 -1.61596 0
M  V30 2028 H 188.72 -0.551437 -0.511293 0
M  V30 2029 H 190.691 -2.67694 -1.31843 0
M  V30 2030 C 189.44 -1.8972 -2.91379 0
M  V30 2031 H 188.763 -2.76344 -2.88919 0
M  V30 2032 H 190.203 -2.09629 -3.68553 0
M  V30 2033 C 188.662 -0.65992 -3.30374 0
M  V30 2034 O 189.192 0.180083 -4.01296 0
M  V30 2035 N 187.398 -0.500677 -2.86254 0
M  V30 2036 H 186.945 -1.18532 -2.28709 0
M  V30 2037 H 186.903 0.325903 -3.12706 0
M  V30 2038 N 190.675 0.682077 -1.42076 0
M  V30 2039 C 191.638 1.77756 -1.44691 0
M  V30 2040 C 192.638 1.5726 -0.335535 0
M  V30 2041 O 193.828 1.63686 -0.596037 0
M  V30 2042 C 190.96 3.16301 -1.27146 0
M  V30 2043 H 192.153 1.76826 -2.42224 0
M  V30 2044 H 189.706 0.891012 -1.28416 0
M  V30 2045 H 190.441 3.22862 -0.305075 0
M  V30 2046 H 190.226 3.32581 -2.07683 0
M  V30 2047 H 191.716 3.96241 -1.31843 0
M  V30 2048 N 192.153 1.28127 0.917671 0
M  V30 2049 C 193.101 1.11569 2.04096 0
M  V30 2050 C 194.095 0.0360242 1.69362 0
M  V30 2051 O 195.301 0.194501 1.78946 0
M  V30 2052 H 191.676 0.344097 0.668656 0
M  V30 2053 H 193.647 2.06711 2.15205 0
M  V30 2054 C 192.396 0.790197 3.38602 0
M  V30 2055 H 191.719 1.61293 3.6582 0
M  V30 2056 H 193.159 0.714271 4.1794 0
M  V30 2057 C 191.618 -0.505897 3.3308 0
M  V30 2058 O 192.148 -1.53736 3.71117 0
M  V30 2059 N 190.354 -0.505193 2.86175 0
M  V30 2060 H 189.901 0.334621 2.55417 0
M  V30 2061 H 189.859 -1.37243 2.82863 0
M  V30 2062 N 193.631 -1.12557 1.10312 0
M  V30 2063 C 195.042 -1.65574 0.862678 0
M  V30 2064 C 195.393 -1.86566 -0.607256 0
M  V30 2065 O 194.518 -1.59121 -1.46662 0
M  V30 2066 C 195.113 -3.00776 1.55947 0
M  V30 2067 C 193.672 -3.50748 1.36576 0
M  V30 2068 C 192.819 -2.25797 1.60968 0
M  V30 2069 H 195.77 -0.963552 1.26101 0
M  V30 2070 H 195.791 -3.67185 0.997753 0
M  V30 2071 H 195.303 -2.85465 2.62928 0
M  V30 2072 H 193.404 -3.71245 0.317531 0
M  V30 2073 H 193.517 -4.30289 2.10686 0
M  V30 2074 H 191.881 -2.32841 1.03234 0
M  V30 2075 H 192.664 -2.13043 2.69198 0
M  V30 2076 N 195.109 -0.891671 -1.2995 0
M  V30 2077 C 196.056 -0.361736 -2.27948 0
M  V30 2078 C 197.026 0.551761 -1.56668 0
M  V30 2079 O 198.211 0.478736 -1.84696 0
M  V30 2080 C 195.351 0.411825 -3.42634 0
M  V30 2081 C 194.464 -0.531651 -4.28716 0
M  V30 2082 C 193.599 0.258167 -5.30572 0
M  V30 2083 C 192.638 -0.680349 -6.08307 0
M  V30 2084 N 191.775 0.0745613 -7.0206 0
M  V30 2085 H 196.615 -1.20254 -2.72659 0
M  V30 2086 H 194.152 -0.604352 -1.34112 0
M  V30 2087 H 196.11 0.876304 -4.07893 0
M  V30 2088 H 194.74 1.21715 -2.98974 0
M  V30 2089 H 193.792 -1.11463 -3.63703 0
M  V30 2090 H 195.104 -1.25038 -4.82874 0
M  V30 2091 H 194.258 0.784204 -6.0161 0
M  V30 2092 H 192.997 1.01008 -4.77126 0
M  V30 2093 H 192.002 -1.21796 -5.3614 0
M  V30 2094 H 193.227 -1.43145 -6.63842 0
M  V30 2095 H 191.173 0.808883 -6.50994 0
M  V30 2096 H 191.09 -0.584409 -7.53738 0
M  V30 2097 H 192.358 0.581123 -7.77331 0
M  V30 2098 N 196.587 1.43421 -0.653314 0
M  V30 2099 C 197.835 2.01414 -0.166415 0
M  V30 2100 C 198.156 1.51803 1.22397 0
M  V30 2101 O 197.426 0.730693 1.81763 0
M  V30 2102 H 196.006 0.744703 -0.0585319 0
M  V30 2103 H 198.668 1.75629 -0.845003 0
M  V30 2104 H 197.764 3.11734 -0.151111 0
M  V30 2105 N 198.065 0.39524 1.52563 0
M  V30 2106 C 199.481 0.0454682 1.59535 0
M  V30 2107 C 199.681 -1.44056 1.4089 0
M  V30 2108 O 198.737 -2.20579 1.22888 0
M  V30 2109 C 200.05 0.527963 2.96029 0
M  V30 2110 C 201.598 0.484733 3.09224 0
M  V30 2111 C 202.073 0.943512 4.48176 0
M  V30 2112 N 203.564 0.899765 4.54377 0
M  V30 2113 C 204.299 1.22609 5.60138 0
M  V30 2114 N 203.795 1.62319 6.73516 0
M  V30 2115 N 205.588 1.14696 5.50274 0
M  V30 2116 H 197.739 1.36261 1.62931 0
M  V30 2117 H 200.002 0.558887 0.765735 0
M  V30 2118 H 199.708 1.56607 3.14908 0
M  V30 2119 H 199.582 -0.0698056 3.77135 0
M  V30 2120 H 201.969 -0.544298 2.90037 0
M  V30 2121 H 202.05 1.11838 2.30056 0
M  V30 2122 H 201.694 1.9708 4.68104 0
M  V30 2123 H 201.624 0.286817 5.25818 0
M  V30 2124 H 204.115 0.607632 3.72983 0
M  V30 2125 H 204.428 1.85567 7.5019 0
M  V30 2126 H 202.773 1.66211 6.74833 0
M  V30 2127 H 205.964 0.835701 4.6058 0
M  V30 2128 H 206.137 1.40459 6.32594 0
M  V30 2129 N 199.544 -1.57102 0.125237 0
M  V30 2130 C 200.791 -1.95407 -0.531248 0
M  V30 2131 C 201.119 -1.0089 -1.66287 0
M  V30 2132 O 200.374 -0.0339431 -1.95671 0
M  V30 2133 C 200.673 -3.40096 -1.09862 0
M  V30 2134 C 200.339 -4.50815 -0.0876989 0
M  V30 2135 C 199.001 -4.80824 0.19026 0
M  V30 2136 C 201.353 -5.17724 0.600902 0
M  V30 2137 C 198.681 -5.75058 1.163 0
M  V30 2138 C 201.033 -6.13005 1.56231 0
M  V30 2139 C 199.697 -6.41403 1.8482 0
M  V30 2140 H 198.967 -0.715046 -0.194397 0
M  V30 2141 H 201.614 -1.90373 0.207463 0
M  V30 2142 H 199.919 -3.41855 -1.91422 0
M  V30 2143 H 201.616 -3.6705 -1.61478 0
M  V30 2144 H 198.206 -4.27444 -0.314528 0
M  V30 2145 H 202.39 -4.94691 0.399333 0
M  V30 2146 H 197.646 -5.95362 1.39117 0
M  V30 2147 H 201.82 -6.63934 2.10153 0
M  V30 2148 H 199.447 -7.14229 2.60349 0
M  V30 2149 N 201.022 0.148545 -1.56898 0
M  V30 2150 C 202.271 0.85984 -1.82454 0
M  V30 2151 C 202.584 1.82406 -0.706229 0
M  V30 2152 O 203.79 2.57938 -0.847349 0
M  V30 2153 C 202.246 1.57967 -3.2338 0
M  V30 2154 C 201.854 0.65794 -4.43142 0
M  V30 2155 C 203.598 2.27784 -3.58211 0
M  V30 2156 C 201.505 1.3793 -5.75091 0
M  V30 2157 H 200.435 0.324834 -0.68044 0
M  V30 2158 H 203.086 0.112588 -1.83154 0
M  V30 2159 H 201.468 2.37249 -3.17063 0
M  V30 2160 H 202.642 -0.0995497 -4.60692 0
M  V30 2161 H 200.957 0.0682643 -4.16344 0
M  V30 2162 H 203.554 2.8239 -4.54048 0
M  V30 2163 H 203.897 3.04204 -2.84193 0
M  V30 2164 H 204.43 1.55421 -3.66182 0
M  V30 2165 H 201.169 0.656982 -6.52199 0
M  V30 2166 H 200.689 2.10954 -5.61479 0
M  V30 2167 H 202.368 1.92063 -6.17835 0
M  V30 2168 N 202.5 1.5196 0.417844 0
M  V30 2169 C 203.73 1.69181 1.18581 0
M  V30 2170 C 204.138 0.397104 1.84986 0
M  V30 2171 O 203.481 -0.636011 1.72339 0
M  V30 2172 C 203.543 2.76497 2.29759 0
M  V30 2173 C 203.207 4.18514 1.83563 0
M  V30 2174 C 204.204 5.02648 1.32821 0
M  V30 2175 C 201.889 4.64708 1.90661 0
M  V30 2176 C 203.883 6.31044 0.897894 0
M  V30 2177 C 201.57 5.93096 1.47241 0
M  V30 2178 C 202.568 6.76093 0.968891 0
M  V30 2179 O 202.256 8.02078 0.540924 0
M  V30 2180 H 201.988 0.570457 0.362705 0
M  V30 2181 H 204.542 1.99249 0.498885 0
M  V30 2182 H 202.772 2.41786 3.01789 0
M  V30 2183 H 204.461 2.82403 2.91553 0
M  V30 2184 H 205.227 4.68154 1.26716 0
M  V30 2185 H 201.106 4.00216 2.28797 0
M  V30 2186 H 204.65 6.95776 0.504192 0
M  V30 2187 H 200.547 6.271 1.53022 0
M  V30 2188 H 201.315 8.15794 0.66502 0
M  V30 2189 N 203.978 -0.674533 1.42435 0
M  V30 2190 C 204.908 -1.80009 1.48724 0
M  V30 2191 C 205.889 -1.6659 0.343793 0
M  V30 2192 O 207.074 -1.86007 0.558137 0
M  V30 2193 C 204.204 -3.18306 1.38919 0
M  V30 2194 C 203.158 -3.46461 2.51294 0
M  V30 2195 C 202.484 -4.84335 2.26547 0
M  V30 2196 C 203.784 -3.43328 3.93603 0
M  V30 2197 H 205.478 -1.75004 2.42928 0
M  V30 2198 H 203.024 -0.840533 1.16923 0
M  V30 2199 H 204.977 -3.9678 1.41927 0
M  V30 2200 H 203.701 -3.2399 0.412094 0
M  V30 2201 H 202.36 -2.70348 2.47604 0
M  V30 2202 H 202.008 -4.86669 1.2713 0
M  V30 2203 H 201.708 -5.04136 3.01861 0
M  V30 2204 H 203.232 -5.65094 2.31304 0
M  V30 2205 H 204.646 -4.11772 3.98894 0
M  V30 2206 H 203.043 -3.74664 4.68771 0
M  V30 2207 H 204.113 -2.41897 4.20255 0
M  V30 2208 N 205.456 -1.28612 -0.910864 0
M  V30 2209 C 206.419 -1.12803 -1.9952 0
M  V30 2210 C 207.419 -0.0668264 -1.60661 0
M  V30 2211 O 208.609 -0.312847 -1.71368 0
M  V30 2212 C 205.741 -0.72254 -3.33155 0
M  V30 2213 H 206.934 -2.09109 -2.14973 0
M  V30 2214 H 204.487 -1.11639 -1.09391 0
M  V30 2215 H 205.222 0.241152 -3.23402 0
M  V30 2216 H 205.007 -1.48916 -3.62721 0
M  V30 2217 H 206.497 -0.634666 -4.12749 0
M  V30 2218 N 206.934 1.1197 -1.10907 0
M  V30 2219 C 208.35 1.35591 -0.841852 0
M  V30 2220 C 208.55 1.94233 0.536246 0
M  V30 2221 O 207.606 2.1717 1.28816 0
M  V30 2222 C 208.919 2.29284 -1.94549 0
M  V30 2223 C 210.467 2.42862 -1.97451 0
M  V30 2224 C 210.942 3.39873 -3.07002 0
M  V30 2225 N 212.433 3.47433 -3.06341 0
M  V30 2226 C 213.168 4.22421 -3.87748 0
M  V30 2227 N 212.664 5.00432 -4.79103 0
M  V30 2228 N 214.457 4.17876 -3.75946 0
M  V30 2229 H 206.608 0.722664 -1.99728 0
M  V30 2230 H 208.871 0.380635 -0.868229 0
M  V30 2231 H 208.577 1.93378 -2.93765 0
M  V30 2232 H 208.451 3.29452 -1.83688 0
M  V30 2233 H 210.838 2.78046 -0.988645 0
M  V30 2234 H 210.919 1.42566 -2.12388 0
M  V30 2235 H 210.563 3.05417 -4.05811 0
M  V30 2236 H 210.493 4.40011 -2.89306 0
M  V30 2237 H 212.984 2.91784 -2.40147 0
M  V30 2238 H 213.297 5.55002 -5.37766 0
M  V30 2239 H 211.642 4.99612 -4.83128 0
M  V30 2240 H 214.833 3.56016 -3.03924 0
M  V30 2241 H 215.006 4.76061 -4.39624 0
M  V30 2242 N 208.412 0.89855 1.29475 0
M  V30 2243 C 209.344 0.332726 2.26772 0
M  V30 2244 C 210.357 -0.520323 1.54261 0
M  V30 2245 O 211.546 -0.337668 1.75277 0
M  V30 2246 C 208.646 -0.544334 3.345 0
M  V30 2247 C 207.819 0.282728 4.36485 0
M  V30 2248 C 206.878 -0.526982 5.23555 0
M  V30 2249 O 205.904 0.0551165 5.69173 0
M  V30 2250 N 207.106 -1.83331 5.5079 0
M  V30 2251 H 209.871 1.16897 2.75962 0
M  V30 2252 H 207.432 0.762919 1.42798 0
M  V30 2253 H 209.424 -1.09239 3.89678 0
M  V30 2254 H 207.994 -1.28127 2.85136 0
M  V30 2255 H 207.214 1.01221 3.80983 0
M  V30 2256 H 208.502 0.84918 5.01664 0
M  V30 2257 H 207.9 -2.32898 5.15534 0
M  V30 2258 H 206.457 -2.32852 6.08788 0
M  V30 2259 N 209.89 -1.43072 0.660911 0
M  V30 2260 C 211.136 -2.0202 0.177708 0
M  V30 2261 C 211.469 -1.52066 -1.20787 0
M  V30 2262 O 210.744 -0.716987 -1.80802 0
M  V30 2263 C 211.027 -3.59561 0.197019 0
M  V30 2264 C 210.88 -4.19727 1.61706 0
M  V30 2265 C 212.199 -4.37664 -0.462396 0
M  V30 2266 H 209.318 -0.734034 0.0660494 0
M  V30 2267 H 211.96 -1.70272 0.843058 0
M  V30 2268 H 210.11 -3.86739 -0.369527 0
M  V30 2269 H 211.782 -4.03553 2.23479 0
M  V30 2270 H 210.025 -3.76084 2.16201 0
M  V30 2271 H 210.696 -5.28834 1.58237 0
M  V30 2272 H 213.172 -4.16095 0.0197215 0
M  V30 2273 H 212.048 -5.47305 -0.418188 0
M  V30 2274 H 212.309 -4.14493 -1.53778 0
M  V30 2275 N 211.368 -0.403325 -1.52352 0
M  V30 2276 C 212.316 0.439752 -2.28405 0
M  V30 2277 C 213.31 1.05089 -1.32863 0
M  V30 2278 O 214.516 0.989759 -1.50345 0
M  V30 2279 H 210.891 0.160587 -0.734653 0
M  V30 2280 H 212.862 -0.222983 -2.97566 0
M  V30 2281 C 211.611 1.54736 -3.11371 0
M  V30 2282 H 210.934 1.08643 -3.84755 0
M  V30 2283 H 212.374 2.1112 -3.67701 0
M  V30 2284 C 210.833 2.51141 -2.24566 0
M  V30 2285 O 211.363 3.54887 -1.88196 0
M  V30 2286 N 209.569 2.21213 -1.8845 0
M  V30 2287 H 209.116 1.36878 -2.18225 0
M  V30 2288 H 209.074 2.85963 -1.30662 0
M  V30 2289 N 212.846 1.57033 -0.133567 0
M  V30 2290 C 214.257 1.82593 0.389464 0
M  V30 2291 C 214.608 1.05156 1.6564 0
M  V30 2292 O 213.733 0.292644 2.14412 0
M  V30 2293 C 214.328 3.31204 0.713377 0
M  V30 2294 C 212.887 3.57393 1.18098 0
M  V30 2295 C 212.034 2.76598 0.197126 0
M  V30 2296 H 214.985 1.54598 -0.358481 0
M  V30 2297 H 215.006 3.46627 1.56939 0
M  V30 2298 H 214.518 3.87537 -0.2089 0
M  V30 2299 H 212.619 3.06433 2.11966 0
M  V30 2300 H 212.732 4.65915 1.11624 0
M  V30 2301 H 211.096 2.45257 0.687088 0
M  V30 2302 H 211.879 3.35697 -0.718504 0
M  V30 2303 N 214.325 -0.140222 1.56975 0
M  V30 2304 C 215.602 -0.880769 1.74648 0
M  V30 2305 C 215.982 -1.99036 0.703404 0
M  V30 2306 O 215.33 -2.26821 -0.27648 0
M  V30 2307 C 215.54 -1.417 3.18939 0
M  V30 2308 C 216.888 -1.87774 3.80823 0
M  V30 2309 O 217.912 -1.51427 3.2241 0
M  V30 2310 O 216.771 -2.54827 4.83452 0
M  V30 2311 H 213.865 -0.416713 0.714338 0
M  V30 2312 H 216.411 -0.125618 1.69234 0
M  V30 2313 H 215.183 -0.619902 3.86359 0
M  V30 2314 H 214.806 -2.23546 3.28805 0
M  V30 2315 N 215.803 -1.52179 -0.40978 0
M  V30 2316 C 216.736 -1.70196 -1.52015 0
M  V30 2317 C 217.714 -0.549542 -1.53032 0
M  V30 2318 O 218.898 -0.776815 -1.71749 0
M  V30 2319 C 216.025 -1.74069 -2.90547 0
M  V30 2320 C 215.071 -2.95601 -3.07445 0
M  V30 2321 S 215.904 -4.55956 -2.80827 0
M  V30 2322 C 217.06 -4.62614 -4.21591 0
M  V30 2323 H 217.293 -2.64109 -1.36504 0
M  V30 2324 H 214.826 -1.4221 -0.601312 0
M  V30 2325 H 216.784 -1.76985 -3.70387 0
M  V30 2326 H 215.445 -0.812835 -3.034 0
M  V30 2327 H 214.638 -2.94791 -4.08796 0
M  V30 2328 H 214.24 -2.90569 -2.35469 0
M  V30 2329 H 216.532 -4.39951 -5.15218 0
M  V30 2330 H 217.475 -5.64548 -4.27424 0
M  V30 2331 H 217.883 -3.91654 -4.06531 0
M  V30 2332 N 217.281 0.66697 -1.42791 0
M  V30 2333 C 218.244 1.76211 -1.46568 0
M  V30 2334 C 219.244 1.56896 -0.352196 0
M  V30 2335 O 220.434 1.63044 -0.613364 0
M  V30 2336 C 217.566 3.14935 -1.30494 0
M  V30 2337 H 218.759 1.74247 -2.44086 0
M  V30 2338 H 216.312 0.877342 -1.29354 0
M  V30 2339 H 217.047 3.2252 -0.339301 0
M  V30 2340 H 216.832 3.30359 -2.11199 0
M  V30 2341 H 218.322 3.94821 -1.36038 0
M  V30 2342 N 218.759 1.29093 0.90403 0
M  V30 2343 C 220.036 1.075 1.63411 0
M  V30 2344 C 220.416 -0.382346 2.07609 0
M  V30 2345 O 219.764 -1.37031 1.82851 0
M  V30 2346 C 219.974 2.05858 2.81822 0
M  V30 2347 C 221.322 2.36539 3.52611 0
M  V30 2348 O 222.346 2.04019 2.91984 0
M  V30 2349 O 221.205 2.92085 4.61897 0
M  V30 2350 H 218.299 0.411547 0.717327 0
M  V30 2351 H 220.845 1.40449 0.952479 0
M  V30 2352 H 219.617 3.04037 2.46327 0
M  V30 2353 H 219.24 1.73613 3.57693 0
M  V30 2354 N 220.237 -1.11381 1.11499 0
M  V30 2355 C 221.467 -1.86663 0.885464 0
M  V30 2356 C 221.875 -1.80464 -0.568281 0
M  V30 2357 O 221.218 -1.18445 -1.40415 0
M  V30 2358 C 221.28 -3.36337 1.26956 0
M  V30 2359 C 220.944 -3.66304 2.73259 0
M  V30 2360 C 221.941 -3.63733 3.71476 0
M  V30 2361 C 219.626 -3.9529 3.09921 0
M  V30 2362 C 221.62 -3.89725 5.04374 0
M  V30 2363 C 219.307 -4.20941 4.43004 0
M  V30 2364 C 220.305 -4.18147 5.40039 0
M  V30 2365 O 219.993 -4.43153 6.70724 0
M  V30 2366 H 219.725 -0.597114 0.316908 0
M  V30 2367 H 222.279 -1.41782 1.48617 0
M  V30 2368 H 220.509 -3.81826 0.611999 0
M  V30 2369 H 222.198 -3.92986 1.01573 0
M  V30 2370 H 222.964 -3.41389 3.44498 0
M  V30 2371 H 218.843 -3.966 2.35009 0
M  V30 2372 H 222.387 -3.8746 5.80104 0
M  V30 2373 H 218.284 -4.42761 4.69716 0
M  V30 2374 H 219.052 -4.60717 6.76522 0
M  V30 2375 N 221.715 -0.905404 -1.28997 0
M  V30 2376 C 222.964 -0.530191 -1.94607 0
M  V30 2377 C 223.277 0.929185 -1.72121 0
M  V30 2378 O 224.483 1.41218 -2.31883 0
M  V30 2379 C 222.939 -0.897333 -3.48534 0
M  V30 2380 C 222.547 -2.37587 -3.79811 0
M  V30 2381 C 224.291 -0.592304 -4.20347 0
M  V30 2382 C 222.198 -2.68357 -5.27009 0
M  V30 2383 H 221.128 -0.194558 -0.728466 0
M  V30 2384 H 223.779 -1.10318 -1.46636 0
M  V30 2385 H 222.161 -0.253214 -3.9519 0
M  V30 2386 H 223.335 -3.06602 -3.43994 0
M  V30 2387 H 221.65 -2.6505 -3.2115 0
M  V30 2388 H 224.247 -0.798975 -5.28697 0
M  V30 2389 H 224.59 0.469474 -4.13644 0
M  V30 2390 H 225.123 -1.19452 -3.79442 0
M  V30 2391 H 221.862 -3.73355 -5.38782 0
M  V30 2392 H 221.382 -2.03971 -5.64053 0
M  V30 2393 H 223.061 -2.54922 -5.94663 0
M  V30 2394 N 223.193 1.4272 -0.668489 0
M  V30 2395 C 224.14 2.30796 0.0137489 0
M  V30 2396 C 225.11 1.4561 0.799177 0
M  V30 2397 O 226.295 1.74453 0.772702 0
M  V30 2398 C 223.435 3.31377 0.963507 0
M  V30 2399 C 222.548 4.31655 0.172569 0
M  V30 2400 C 221.683 5.19312 1.1175 0
M  V30 2401 C 220.722 6.11274 0.317886 0
M  V30 2402 N 219.859 6.91504 1.2152 0
M  V30 2403 H 224.699 2.88585 -0.743161 0
M  V30 2404 H 222.236 1.42154 -0.378226 0
M  V30 2405 H 224.194 3.88214 1.52792 0
M  V30 2406 H 222.824 2.75202 1.68712 0
M  V30 2407 H 221.876 3.76988 -0.508374 0
M  V30 2408 H 223.188 4.96779 -0.448527 0
M  V30 2409 H 222.342 5.80851 1.75206 0
M  V30 2410 H 221.081 4.5435 1.77249 0
M  V30 2411 H 220.086 5.48809 -0.329918 0
M  V30 2412 H 221.311 6.78283 -0.332917 0
M  V30 2413 H 219.257 6.29176 1.85671 0
M  V30 2414 H 219.174 7.53209 0.649036 0
M  V30 2415 H 220.442 7.57535 1.83742 0
M  V30 2416 N 224.671 0.411399 1.52136 0
M  V30 2417 C 225.618 -0.412975 2.27075 0
M  V30 2418 C 226.588 -1.03912 1.29582 0
M  V30 2419 O 227.773 -1.06296 1.58448 0
M  V30 2420 C 224.913 -1.52247 3.09701 0
M  V30 2421 C 224.026 -0.917021 4.22155 0
M  V30 2422 C 223.161 -1.9994 4.92135 0
M  V30 2423 C 222.2 -1.37101 5.96548 0
M  V30 2424 N 221.337 -2.39364 6.60038 0
M  V30 2425 H 226.177 0.232499 2.97092 0
M  V30 2426 H 223.714 0.126496 1.46555 0
M  V30 2427 H 225.672 -2.17674 3.55913 0
M  V30 2428 H 224.302 -2.13794 2.41851 0
M  V30 2429 H 223.354 -0.151742 3.80097 0
M  V30 2430 H 224.666 -0.418006 4.97045 0
M  V30 2431 H 223.82 -2.73088 5.41763 0
M  V30 2432 H 222.559 -2.53208 4.16818 0
M  V30 2433 H 221.564 -0.624873 5.46237 0
M  V30 2434 H 222.789 -0.845998 6.7381 0
M  V30 2435 H 220.735 -2.91759 5.87548 0
M  V30 2436 H 220.652 -1.9428 7.3061 0
M  V30 2437 H 221.92 -3.12074 7.14304 0
M  V30 2438 N 226.149 -1.5696 0.141893 0
M  V30 2439 C 227.079 -2.19516 -0.795936 0
M  V30 2440 C 228.06 -1.14187 -1.26077 0
M  V30 2441 O 229.245 -1.42511 -1.31925 0
M  V30 2442 C 226.375 -2.81272 -2.03723 0
M  V30 2443 C 225.329 -3.92384 -1.70936 0
M  V30 2444 C 224.655 -4.41052 -3.02287 0
M  V30 2445 C 225.955 -5.13403 -0.959954 0
M  V30 2446 H 227.649 -2.98138 -0.274596 0
M  V30 2447 H 225.195 -1.43406 -0.130636 0
M  V30 2448 H 227.148 -3.237 -2.69808 0
M  V30 2449 H 225.872 -1.99973 -2.58221 0
M  V30 2450 H 224.531 -3.50566 -1.07232 0
M  V30 2451 H 224.179 -3.56582 -3.54765 0
M  V30 2452 H 223.879 -5.15993 -2.81114 0
M  V30 2453 H 225.403 -4.86146 -3.69451 0
M  V30 2454 H 226.817 -5.52706 -1.52279 0
M  V30 2455 H 225.214 -5.94073 -0.848357 0
M  V30 2456 H 226.284 -4.84875 0.0492434 0
M  V30 2457 N 227.627 0.131896 -1.57047 0
M  V30 2458 C 228.574 1.16236 -1.99393 0
M  V30 2459 C 229.544 1.41863 -0.863943 0
M  V30 2460 O 230.729 1.53946 -1.12718 0
M  V30 2461 C 227.869 2.48708 -2.39245 0
M  V30 2462 C 226.982 2.30127 -3.65603 0
M  V30 2463 C 226.117 3.55738 -3.94492 0
M  V30 2464 C 225.156 3.32259 -5.14073 0
M  V30 2465 N 224.293 4.50039 -5.38896 0
M  V30 2466 H 229.133 0.794251 -2.87221 0
M  V30 2467 H 226.67 0.380707 -1.42088 0
M  V30 2468 H 228.628 3.25969 -2.60384 0
M  V30 2469 H 227.258 2.83437 -1.54478 0
M  V30 2470 H 226.31 1.43845 -3.52154 0
M  V30 2471 H 227.622 2.08746 -4.5302 0
M  V30 2472 H 226.776 4.41423 -4.1621 0
M  V30 2473 H 225.515 3.80138 -3.05526 0
M  V30 2474 H 224.52 2.44963 -4.92212 0
M  V30 2475 H 225.745 3.09242 -6.04604 0
M  V30 2476 H 223.691 4.74584 -4.52886 0
M  V30 2477 H 223.608 4.31716 -6.2061 0
M  V30 2478 H 224.876 5.36895 -5.65123 0
M  V30 2479 N 229.106 1.52395 0.401703 0
M  V30 2480 C 230.036 1.79231 1.49661 0
M  V30 2481 C 231.017 0.643654 1.57452 0
M  V30 2482 O 232.202 0.889989 1.72606 0
M  V30 2483 C 229.332 1.94971 2.87409 0
M  V30 2484 C 228.286 3.10604 2.94465 0
M  V30 2485 C 227.612 3.11577 4.34538 0
M  V30 2486 C 228.912 4.49921 2.6527 0
M  V30 2487 H 230.606 2.70917 1.27454 0
M  V30 2488 H 228.152 1.30362 0.6117 0
M  V30 2489 H 230.105 2.12328 3.63999 0
M  V30 2490 H 228.829 0.999632 3.10926 0
M  V30 2491 H 227.488 2.93009 2.20321 0
M  V30 2492 H 227.136 2.14277 4.55076 0
M  V30 2493 H 226.836 3.89247 4.40183 0
M  V30 2494 H 228.36 3.31073 5.13053 0
M  V30 2495 H 229.774 4.67683 3.31581 0
M  V30 2496 H 228.171 5.29564 2.82281 0
M  V30 2497 H 229.241 4.57507 1.60671 0
M  V30 2498 N 230.584 -0.659388 1.43143 0
M  V30 2499 C 231.995 -1.24041 1.39537 0
M  V30 2500 C 232.346 -1.95963 0.0963364 0
M  V30 2501 O 231.471 -2.00892 -0.804438 0
M  V30 2502 C 232.066 -2.25601 2.52764 0
M  V30 2503 C 230.625 -2.79195 2.52443 0
M  V30 2504 C 229.772 -1.53743 2.30778 0
M  V30 2505 H 232.723 -0.451792 1.52133 0
M  V30 2506 H 232.744 -3.07651 2.23899 0
M  V30 2507 H 232.256 -1.73226 3.47296 0
M  V30 2508 H 230.357 -3.35649 1.61773 0
M  V30 2509 H 230.47 -3.2716 3.50004 0
M  V30 2510 H 228.834 -1.80869 1.79328 0
M  V30 2511 H 229.617 -1.03312 3.27386 0
M  V30 2512 N 232.062 -1.29571 -0.897171 0
M  V30 2513 C 233.31 -1.17456 -1.64464 0
M  V30 2514 C 233.631 0.273698 -1.9307 0
M  V30 2515 O 232.901 1.18684 -1.55855 0
M  V30 2516 H 231.481 -0.431706 -0.609622 0
M  V30 2517 H 234.143 -1.62531 -1.07562 0
M  V30 2518 H 233.239 -1.72648 -2.59998 0
M  V30 2519 N 233.54 1.10788 -1.12088 0
M  V30 2520 C 234.789 1.82036 -0.868659 0
M  V30 2521 C 235.102 1.85929 0.607426 0
M  V30 2522 O 236.308 2.53346 0.97613 0
M  V30 2523 C 234.764 3.26951 -1.50435 0
M  V30 2524 C 234.372 3.31367 -3.01496 0
M  V30 2525 C 236.116 4.03053 -1.33225 0
M  V30 2526 C 234.023 4.7072 -3.58017 0
M  V30 2527 H 232.953 0.682108 -0.321318 0
M  V30 2528 H 235.604 1.24618 -1.34694 0
M  V30 2529 H 233.986 3.84343 -0.953735 0
M  V30 2530 H 235.16 2.83819 -3.6302 0
M  V30 2531 H 233.475 2.6875 -3.18061 0
M  V30 2532 H 236.072 5.05981 -1.72878 0
M  V30 2533 H 236.415 4.15387 -0.275529 0
M  V30 2534 H 236.948 3.52066 -1.85188 0
M  V30 2535 H 233.687 4.63585 -4.63432 0
M  V30 2536 H 233.207 5.1865 -3.01268 0
M  V30 2537 H 234.886 5.39685 -3.56859 0
M  V30 2538 N 235.018 0.912232 1.28515 0
M  V30 2539 C 235.968 0.370649 2.24967 0
M  V30 2540 C 236.952 -0.516375 1.52389 0
M  V30 2541 O 238.144 -0.356345 1.73376 0
M  V30 2542 C 235.273 -0.389526 3.41083 0
M  V30 2543 C 234.359 0.51313 4.20984 0
M  V30 2544 N 234.75 1.62604 4.78951 0
M  V30 2545 C 233.048 0.313235 4.44899 0
M  V30 2546 C 233.749 2.18619 5.39055 0
M  V30 2547 N 232.725 1.47765 5.23132 0
M  V30 2548 H 236.527 1.22061 2.67354 0
M  V30 2549 H 234.041 0.764712 1.43269 0
M  V30 2550 H 236.038 -0.794353 4.09262 0
M  V30 2551 H 234.698 -1.2366 3.0023 0
M  V30 2552 H 235.709 2.00864 4.77362 0
M  V30 2553 H 232.386 -0.494452 4.14562 0
M  V30 2554 H 233.776 3.12228 5.94948 0
M  V30 2555 N 236.496 -1.42363 0.676048 0
M  V30 2556 C 237.426 -2.33497 0.0124832 0
M  V30 2557 C 238.407 -1.50748 -0.787981 0
M  V30 2558 O 239.592 -1.79346 -0.744884 0
M  V30 2559 C 236.722 -3.34377 -0.938582 0
M  V30 2560 C 235.676 -4.27289 -0.246622 0
M  V30 2561 C 235.002 -5.18386 -1.31071 0
M  V30 2562 C 236.302 -5.14916 0.875125 0
M  V30 2563 H 237.996 -2.89233 0.773593 0
M  V30 2564 H 235.542 -1.39073 0.37346 0
M  V30 2565 H 237.495 -3.97044 -1.41188 0
M  V30 2566 H 236.219 -2.76947 -1.73113 0
M  V30 2567 H 234.878 -3.66018 0.206456 0
M  V30 2568 H 234.526 -4.57282 -2.09528 0
M  V30 2569 H 234.226 -5.81378 -0.852839 0
M  V30 2570 H 235.75 -5.83929 -1.78492 0
M  V30 2571 H 237.164 -5.71262 0.482983 0
M  V30 2572 H 235.561 -5.86747 1.25887 0
M  V30 2573 H 236.631 -4.53242 1.72335 0
M  V30 2574 N 237.974 -0.419461 -1.51915 0
M  V30 2575 C 239.39 -0.0708431 -1.59443 0
M  V30 2576 C 239.59 1.41796 -1.43164 0
M  V30 2577 O 238.646 2.18596 -1.26381 0
M  V30 2578 C 239.959 -0.574991 -2.95151 0
M  V30 2579 C 241.507 -0.533867 -3.08413 0
M  V30 2580 C 241.982 -1.01469 -4.46618 0
M  V30 2581 N 243.473 -0.971939 -4.52888 0
M  V30 2582 C 244.208 -1.31505 -5.58116 0
M  V30 2583 N 243.704 -1.73014 -6.70849 0
M  V30 2584 N 245.497 -1.23436 -5.48379 0
M  V30 2585 H 237.648 -1.38836 -1.60743 0
M  V30 2586 H 239.911 -0.570998 -0.756747 0
M  V30 2587 H 239.617 -1.61597 -3.12377 0
M  V30 2588 H 239.491 0.00979777 -3.77199 0
M  V30 2589 H 241.878 0.498086 -2.90866 0
M  V30 2590 H 241.959 -1.15484 -2.28248 0
M  V30 2591 H 241.603 -2.04502 -4.6491 0
M  V30 2592 H 241.533 -0.370433 -5.25295 0
M  V30 2593 H 244.024 -0.666893 -3.71969 0
M  V30 2594 H 244.337 -1.97479 -7.47143 0
M  V30 2595 H 242.682 -1.76926 -6.72103 0
M  V30 2596 H 245.873 -0.908869 -4.59192 0
M  V30 2597 H 246.046 -1.50506 -6.30279 0
M  V30 2598 N 239.452 1.56882 -0.150215 0
M  V30 2599 C 240.362 2.20494 0.801222 0
M  V30 2600 C 241.378 1.19019 1.26927 0
M  V30 2601 O 242.554 1.51607 1.32579 0
M  V30 2602 C 239.619 2.81659 2.02161 0
M  V30 2603 C 238.68 3.9827 1.60249 0
M  V30 2604 C 237.913 4.56508 2.7647 0
M  V30 2605 O 238.136 4.13627 3.92771 0
M  V30 2606 O 237.07 5.46719 2.51757 0
M  V30 2607 H 240.896 3.02315 0.289717 0
M  V30 2608 H 238.481 1.49202 0.0769684 0
M  V30 2609 H 240.363 3.20522 2.73576 0
M  V30 2610 H 239.038 2.02849 2.52258 0
M  V30 2611 H 237.945 3.64117 0.858477 0
M  V30 2612 H 239.278 4.78609 1.14864 0
M  V30 2613 N 240.93 -0.123565 1.57115 0
M  V30 2614 C 241.84 -1.17074 2.033 0
M  V30 2615 C 242.856 -1.4561 0.952559 0
M  V30 2616 O 244.032 -1.56817 1.26374 0
M  V30 2617 C 241.097 -2.47857 2.42421 0
M  V30 2618 C 240.158 -2.26758 3.64526 0
M  V30 2619 C 239.391 -3.51305 4.01771 0
M  V30 2620 O 239.614 -4.5843 3.39409 0
M  V30 2621 O 238.548 -3.42578 4.94898 0
M  V30 2622 H 242.374 -0.808555 2.92739 0
M  V30 2623 H 239.959 -0.334027 1.45618 0
M  V30 2624 H 241.841 -3.2492 2.68338 0
M  V30 2625 H 240.516 -2.83558 1.5613 0
M  V30 2626 H 239.423 -1.47569 3.43765 0
M  V30 2627 H 240.756 -1.95963 4.51508 0
M  V30 2628 N 242.408 -1.52605 -0.393616 0
M  V30 2629 C 243.633 -1.71592 -1.16495 0
M  V30 2630 C 244.058 -0.43133 -1.83088 0
M  V30 2631 O 243.416 0.612523 -1.7064 0
M  V30 2632 C 243.464 -2.86318 -2.19213 0
M  V30 2633 O 242.568 -2.52969 -3.257 0
M  V30 2634 H 241.909 -0.570734 -0.33935 0
M  V30 2635 H 244.439 -1.99377 -0.459324 0
M  V30 2636 H 244.449 -3.1168 -2.63286 0
M  V30 2637 H 243.124 -3.79511 -1.7013 0
M  V30 2638 H 241.701 -2.38332 -2.86797 0
M  V30 2639 N 243.887 0.651787 -1.4349 0
M  V30 2640 C 245.303 0.96762 -1.26922 0
M  V30 2641 C 245.503 2.00602 -0.189982 0
M  V30 2642 O 244.559 2.48793 0.431107 0
M  V30 2643 C 245.872 1.45052 -2.63401 0
M  V30 2644 C 247.42 1.5671 -2.70945 0
M  V30 2645 C 247.895 2.0839 -4.07845 0
M  V30 2646 N 249.386 2.1569 -4.09917 0
M  V30 2647 C 250.121 2.56804 -5.12679 0
M  V30 2648 N 249.617 2.97203 -6.25813 0
M  V30 2649 N 251.41 2.56756 -5.00033 0
M  V30 2650 H 243.561 -0.0353158 -2.12371 0
M  V30 2651 H 245.824 0.0467858 -0.946845 0
M  V30 2652 H 245.53 0.761926 -3.43348 0
M  V30 2653 H 245.404 2.42529 -2.88894 0
M  V30 2654 H 247.791 2.2467 -1.9133 0
M  V30 2655 H 247.872 0.57662 -2.49216 0
M  V30 2656 H 247.516 1.41031 -4.87927 0
M  V30 2657 H 247.446 3.08271 -4.26938 0
M  V30 2658 H 249.937 1.87237 -3.28254 0
M  V30 2659 H 250.25 3.27328 -7.00055 0
M  V30 2660 H 248.595 2.95004 -6.29283 0
M  V30 2661 H 251.786 2.24572 -4.10713 0
M  V30 2662 H 251.959 2.88475 -5.80247 0
M  V30 2663 N 245.365 1.30045 0.890287 0
M  V30 2664 C 246.781 1.08261 1.17268 0
M  V30 2665 C 246.981 -0.160063 2.00863 0
M  V30 2666 O 246.037 -0.855181 2.37577 0
M  V30 2667 C 247.35 2.34323 1.8845 0
M  V30 2668 C 248.898 2.39735 2.01237 0
M  V30 2669 C 249.373 3.65625 2.7583 0
M  V30 2670 N 250.864 3.66402 2.83379 0
M  V30 2671 C 251.599 4.60498 3.41657 0
M  V30 2672 N 251.095 5.64933 4.01026 0
M  V30 2673 N 252.888 4.48051 3.39421 0
M  V30 2674 H 245.039 2.09777 0.332762 0
M  V30 2675 H 247.302 0.92446 0.209948 0
M  V30 2676 H 247.008 3.2498 1.34465 0
M  V30 2677 H 246.882 2.4256 2.88867 0
M  V30 2678 H 249.269 1.4956 2.54393 0
M  V30 2679 H 249.35 2.35476 0.999232 0
M  V30 2680 H 248.994 4.56156 2.23347 0
M  V30 2681 H 248.924 3.67144 3.77509 0
M  V30 2682 H 251.415 2.90896 2.41222 0
M  V30 2683 H 251.728 6.32841 4.43545 0
M  V30 2684 H 250.073 5.68732 3.99461 0
M  V30 2685 H 253.264 3.65649 2.92264 0
M  V30 2686 H 253.437 5.21565 3.84544 0
M  V30 2687 N 246.843 -1.10192 1.12674 0
M  V30 2688 C 248.073 -1.85713 0.905213 0
M  V30 2689 C 248.481 -1.81056 -0.549108 0
M  V30 2690 O 247.824 -1.19927 -1.39151 0
M  V30 2691 C 247.886 -3.34972 1.30516 0
M  V30 2692 C 247.55 -3.63385 2.77129 0
M  V30 2693 C 248.547 -3.59772 3.75313 0
M  V30 2694 C 246.232 -3.91981 3.14096 0
M  V30 2695 C 248.226 -3.84354 5.08479 0
M  V30 2696 C 245.913 -4.16218 4.47443 0
M  V30 2697 C 246.911 -4.12395 5.44444 0
M  V30 2698 O 246.599 -4.36014 6.75387 0
M  V30 2699 H 246.331 -0.593719 0.323223 0
M  V30 2700 H 248.885 -1.40198 1.50112 0
M  V30 2701 H 247.115 -3.81156 0.652463 0
M  V30 2702 H 248.804 -3.91886 1.05736 0
M  V30 2703 H 249.57 -3.37716 3.48099 0
M  V30 2704 H 245.449 -3.94085 2.39202 0
M  V30 2705 H 248.993 -3.81285 5.84181 0
M  V30 2706 H 244.89 -4.37754 4.74386 0
M  V30 2707 H 245.658 -4.53516 6.8137 0
M  V30 2708 N 248.321 -0.919034 -1.28029 0
M  V30 2709 C 249.551 -0.570143 -1.98577 0
M  V30 2710 C 249.959 0.854172 -1.68821 0
M  V30 2711 O 249.302 1.57807 -0.940351 0
M  V30 2712 C 249.364 -0.705734 -3.52505 0
M  V30 2713 C 249.028 -2.10057 -4.05863 0
M  V30 2714 C 250.025 -3.07385 -4.19298 0
M  V30 2715 C 247.71 -2.41517 -4.40426 0
M  V30 2716 C 249.704 -4.34287 -4.66555 0
M  V30 2717 C 247.391 -3.68657 -4.87376 0
M  V30 2718 C 248.389 -4.64856 -5.00398 0
M  V30 2719 O 248.077 -5.89735 -5.46322 0
M  V30 2720 H 247.809 -0.215592 -0.6407 0
M  V30 2721 H 250.363 -1.23583 -1.64062 0
M  V30 2722 H 248.593 0.0170414 -3.86696 0
M  V30 2723 H 250.282 -0.363172 -4.04272 0
M  V30 2724 H 251.048 -2.84398 -3.92865 0
M  V30 2725 H 246.927 -1.67389 -4.29537 0
M  V30 2726 H 250.471 -5.09377 -4.76635 0
M  V30 2727 H 246.368 -3.91466 -5.13249 0
M  V30 2728 H 247.136 -5.92599 -5.64596 0
M  V30 2729 N 249.799 1.42003 -0.683588 0
M  V30 2730 C 251.21 1.84501 -0.285736 0
M  V30 2731 C 251.561 1.57213 1.17382 0
M  V30 2732 O 250.686 1.03642 1.89966 0
M  V30 2733 C 251.281 3.34912 -0.511821 0
M  V30 2734 C 249.84 3.76025 -0.168005 0
M  V30 2735 C 248.987 2.6551 -0.799983 0
M  V30 2736 H 251.938 1.31724 -0.885119 0
M  V30 2737 H 251.959 3.79784 0.233292 0
M  V30 2738 H 251.471 3.54741 -1.57418 0
M  V30 2739 H 249.572 3.61801 0.890567 0
M  V30 2740 H 249.685 4.75141 -0.614661 0
M  V30 2741 H 248.049 2.53654 -0.230568 0
M  V30 2742 H 248.832 2.8816 -1.86597 0
M  V30 2743 N 251.277 0.427512 1.51691 0
M  V30 2744 C 252.502 -0.143601 2.06902 0
M  V30 2745 C 252.927 -1.36536 1.29382 0
M  V30 2746 O 252.285 -1.78289 0.329043 0
M  V30 2747 C 252.333 -0.454207 3.57728 0
M  V30 2748 O 251.437 -1.54228 3.82475 0
M  V30 2749 H 250.778 -0.00617128 0.663971 0
M  V30 2750 H 253.308 0.606014 1.95419 0
M  V30 2751 H 253.318 -0.707525 4.01818 0
M  V30 2752 H 251.993 0.438812 4.13579 0
M  V30 2753 H 250.57 -1.2797 3.50254 0
M  V30 2754 N 252.755 -1.56801 0.158532 0
M  V30 2755 C 254.003 -1.96102 -0.488712 0
M  V30 2756 C 254.324 -1.04498 -1.64636 0
M  V30 2757 O 253.594 -0.108783 -1.95598 0
M  V30 2758 H 252.174 -0.724102 -0.183535 0
M  V30 2759 H 254.836 -1.93457 0.236728 0
M  V30 2760 H 253.932 -3.00097 -0.857219 0
M  V30 2761 N 254.233 0.115231 -1.57178 0
M  V30 2762 C 255.143 1.15994 -2.03918 0
M  V30 2763 C 256.159 1.45103 -0.960268 0
M  V30 2764 O 257.335 1.56144 -1.27204 0
M  V30 2765 C 254.4 2.46568 -2.43732 0
M  V30 2766 C 253.461 2.24822 -3.65723 0
M  V30 2767 C 252.694 3.4917 -4.03629 0
M  V30 2768 O 252.917 4.56623 -3.41835 0
M  V30 2769 O 251.851 3.39949 -4.96708 0
M  V30 2770 H 255.677 0.793019 -2.93164 0
M  V30 2771 H 253.262 0.3263 -1.45793 0
M  V30 2772 H 255.144 3.23492 -2.70057 0
M  V30 2773 H 253.819 2.82726 -1.57631 0
M  V30 2774 H 252.726 1.45744 -3.44542 0
M  V30 2775 H 254.059 1.93566 -4.52541 0
M  V30 2776 N 255.711 1.52812 0.385517 0
M  V30 2777 C 256.957 1.68275 1.13188 0
M  V30 2778 C 257.29 0.423179 1.89533 0
M  V30 2779 O 256.565 -0.579113 1.85679 0
M  V30 2780 C 256.848 2.92001 2.1073 0
M  V30 2781 C 256.701 4.28067 1.38125 0
M  V30 2782 C 258.02 3.11283 3.11113 0
M  V30 2783 H 255.139 0.612352 0.410115 0
M  V30 2784 H 257.781 1.85415 0.414869 0
M  V30 2785 H 255.931 2.77519 2.71874 0
M  V30 2786 H 257.603 4.54324 0.799187 0
M  V30 2787 H 255.846 4.28388 0.683092 0
M  V30 2788 H 256.517 5.10733 2.09417 0
M  V30 2789 H 258.993 3.2482 2.6006 0
M  V30 2790 H 257.869 3.99325 3.76605 0
M  V30 2791 H 258.13 2.25656 3.80173 0
M  V30 2792 N 257.189 -0.644168 1.43834 0
M  V30 2793 C 258.417 -1.43147 1.49387 0
M  V30 2794 C 258.832 -1.88452 0.114583 0
M  V30 2795 O 258.189 -1.60047 -0.876989 0
M  V30 2796 C 258.24 -2.66046 2.44748 0
M  V30 2797 O 257.961 -2.22633 3.77314 0
M  V30 2798 C 259.462 -3.59311 2.59635 0
M  V30 2799 H 256.682 -0.439447 0.507077 0
M  V30 2800 H 259.226 -0.78895 1.88669 0
M  V30 2801 H 257.381 -3.26418 2.08638 0
M  V30 2802 H 257.795 -3.02216 4.28679 0
M  V30 2803 H 259.269 -4.42187 3.30416 0
M  V30 2804 H 259.746 -4.07259 1.64427 0
M  V30 2805 H 260.352 -3.04816 2.96593 0
M  V30 2806 N 258.668 -1.30515 -0.883378 0
M  V30 2807 C 259.631 -1.1701 -1.97082 0
M  V30 2808 C 260.631 -0.10089 -1.60483 0
M  V30 2809 O 261.821 -0.349127 -1.70666 0
M  V30 2810 C 258.953 -0.793045 -3.31547 0
M  V30 2811 H 260.146 -2.13622 -2.10489 0
M  V30 2812 H 257.699 -1.13935 -1.06998 0
M  V30 2813 H 258.434 0.172499 -3.23841 0
M  V30 2814 H 258.219 -1.56576 -3.5948 0
M  V30 2815 H 259.709 -0.722073 -4.1131 0
M  V30 2816 N 260.146 1.09593 -1.13257 0
M  V30 2817 C 261.096 2.14345 -0.777179 0
M  V30 2818 C 262.08 1.59277 0.227966 0
M  V30 2819 O 263.272 1.76971 0.0321413 0
M  V30 2820 C 260.401 3.42439 -0.242991 0
M  V30 2821 C 259.487 4.04419 -1.27694 0
M  V30 2822 N 259.878 4.40979 -2.47732 0
M  V30 2823 C 258.176 4.31596 -1.12432 0
M  V30 2824 C 258.877 4.89784 -3.13826 0
M  V30 2825 N 257.853 4.87133 -2.41252 0
M  V30 2826 H 261.655 2.40415 -1.69049 0
M  V30 2827 H 259.169 1.26803 -1.01463 0
M  V30 2828 H 261.166 4.16889 0.0298496 0
M  V30 2829 H 259.826 3.17824 0.66467 0
M  V30 2830 H 260.837 4.32396 -2.85051 0
M  V30 2831 H 257.514 4.16595 -0.274684 0
M  V30 2832 H 258.904 5.2755 -4.16102 0
M  V30 2833 N 261.624 0.925811 1.2754 0
M  V30 2834 C 262.554 0.440748 2.29303 0
M  V30 2835 C 263.535 -0.497971 1.62648 0
M  V30 2836 O 264.72 -0.403126 1.8997 0
M  V30 2837 C 261.85 -0.309048 3.45922 0
M  V30 2838 C 260.804 0.54166 4.24559 0
M  V30 2839 C 260.13 -0.337191 5.33636 0
M  V30 2840 C 261.43 1.80516 4.90114 0
M  V30 2841 H 263.124 1.29121 2.70126 0
M  V30 2842 H 260.67 0.622323 1.29858 0
M  V30 2843 H 262.623 -0.659315 4.1621 0
M  V30 2844 H 261.347 -1.19352 3.04011 0
M  V30 2845 H 260.006 0.874609 3.56014 0
M  V30 2846 H 259.654 -1.22056 4.87966 0
M  V30 2847 H 259.354 0.228497 5.87156 0
M  V30 2848 H 260.878 -0.683072 6.06767 0
M  V30 2849 H 262.292 1.52307 5.52698 0
M  V30 2850 H 260.689 2.3142 5.53683 0
M  V30 2851 H 261.759 2.52581 4.13921 0
M  V30 2852 N 263.102 -1.41638 0.69111 0
M  V30 2853 C 264.351 -2.00526 0.217318 0
M  V30 2854 C 264.664 -1.55353 -1.18848 0
M  V30 2855 O 265.87 -2.06769 -1.75951 0
M  V30 2856 C 264.326 -3.58313 0.337639 0
M  V30 2857 C 263.934 -4.12469 1.74852 0
M  V30 2858 C 265.678 -4.24431 -0.0766066 0
M  V30 2859 C 263.585 -5.62675 1.82074 0
M  V30 2860 H 262.515 -0.750008 0.0774893 0
M  V30 2861 H 265.166 -1.6217 0.858661 0
M  V30 2862 H 263.548 -3.9425 -0.371879 0
M  V30 2863 H 264.722 -3.8796 2.48644 0
M  V30 2864 H 263.037 -3.58861 2.11205 0
M  V30 2865 H 265.634 -5.34683 -0.0430284 0
M  V30 2866 H 265.977 -4.01101 -1.1146 0
M  V30 2867 H 266.51 -3.93512 0.582476 0
M  V30 2868 H 263.249 -5.90826 2.83911 0
M  V30 2869 H 262.769 -5.89124 1.12661 0
M  V30 2870 H 264.448 -6.27371 1.58159 0
M  V30 2871 N 264.58 -0.43555 -1.51462 0
M  V30 2872 C 265.828 0.131254 -2.01673 0
M  V30 2873 C 266.149 1.43368 -1.32177 0
M  V30 2874 O 265.419 1.90524 -0.455769 0
M  V30 2875 H 263.999 0.0514954 -0.745223 0
M  V30 2876 H 266.661 -0.577847 -1.86137 0
M  V30 2877 H 265.757 0.308446 -3.10572 0
M  V30 2878 N 266.058 1.56714 -0.166846 0
M  V30 2879 C 267.305 1.96747 0.479252 0
M  V30 2880 C 267.633 1.05263 1.63554 0
M  V30 2881 O 266.888 0.0858098 1.95512 0
M  V30 2882 C 267.187 3.42889 1.00806 0
M  V30 2883 C 266.853 4.50889 -0.0318574 0
M  V30 2884 C 265.515 4.8015 -0.317675 0
M  V30 2885 C 267.867 5.15949 -0.737956 0
M  V30 2886 C 265.195 5.71772 -1.31506 0
M  V30 2887 C 267.547 6.08647 -1.72429 0
M  V30 2888 C 266.211 6.36277 -2.0176 0
M  V30 2889 H 265.481 0.719949 0.175371 0
M  V30 2890 H 268.128 1.89756 -0.257864 0
M  V30 2891 H 266.433 3.4681 1.82291 0
M  V30 2892 H 268.13 3.71203 1.51689 0
M  V30 2893 H 264.72 4.28128 0.201088 0
M  V30 2894 H 268.904 4.93458 -0.530351 0
M  V30 2895 H 264.16 5.91465 -1.54853 0
M  V30 2896 H 268.334 6.58129 -2.27682 0
M  V30 2897 H 265.961 7.07075 -2.79194 0
M  V30 2898 N 267.536 -0.106894 1.57237 0
M  V30 2899 C 268.764 -0.826389 1.8968 0
M  V30 2900 C 269.179 -1.72856 0.759353 0
M  V30 2901 O 268.536 -1.80503 -0.269263 0
M  V30 2902 C 268.587 -1.64967 3.21665 0
M  V30 2903 O 268.308 -0.783804 4.31031 0
M  V30 2904 C 269.809 -2.47326 3.67892 0
M  V30 2905 H 267.029 -0.236927 0.627779 0
M  V30 2906 H 269.573 -0.0876593 2.04312 0
M  V30 2907 H 267.728 -2.34103 3.08666 0
M  V30 2908 H 268.142 -1.35284 5.06753 0
M  V30 2909 H 269.616 -3.00604 4.6297 0
M  V30 2910 H 270.093 -3.25247 2.95146 0
M  V30 2911 H 270.699 -1.83411 3.83719 0
M  V30 2912 N 269.014 -1.53014 -0.377408 0
M  V30 2913 C 269.962 -1.7927 -1.48206 0
M  V30 2914 C 270.956 -0.661195 -1.55963 0
M  V30 2915 O 272.162 -0.843908 -1.58991 0
M  V30 2916 H 268.537 -0.567425 -0.493491 0
M  V30 2917 H 270.508 -2.71753 -1.2326 0
M  V30 2918 C 269.257 -1.98894 -2.85196 0
M  V30 2919 H 268.58 -2.85395 -2.79981 0
M  V30 2920 H 270.02 -2.21249 -3.61698 0
M  V30 2921 C 268.479 -0.764691 -3.28107 0
M  V30 2922 O 269.009 0.0523226 -4.01666 0
M  V30 2923 N 267.215 -0.591493 -2.84517 0
M  V30 2924 H 266.762 -1.25749 -2.24822 0
M  V30 2925 H 266.72 0.226253 -3.13585 0
M  V30 2926 N 270.492 0.636531 -1.44174 0
M  V30 2927 C 271.738 1.39826 -1.4689 0
M  V30 2928 C 272.071 1.93947 -0.0990585 0
M  V30 2929 O 271.346 1.73325 0.882544 0
M  V30 2930 C 271.629 2.56751 -2.5249 0
M  V30 2931 C 271.482 2.08014 -3.98811 0
M  V30 2932 C 272.801 3.58946 -2.54649 0
M  V30 2933 H 269.92 0.507075 -0.53483 0
M  V30 2934 H 272.562 0.720188 -1.75822 0
M  V30 2935 H 270.712 3.14597 -2.2795 0
M  V30 2936 H 272.384 1.5504 -4.34466 0
M  V30 2937 H 270.627 1.39242 -4.10846 0
M  V30 2938 H 271.298 2.92169 -4.68339 0
M  V30 2939 H 273.774 3.1089 -2.76563 0
M  V30 2940 H 272.65 4.38286 -3.3045 0
M  V30 2941 H 272.911 4.12655 -1.58646 0
M  V30 2942 N 271.97 1.30982 0.876444 0
M  V30 2943 C 273.247 1.10942 1.61094 0
M  V30 2944 C 273.627 -0.338223 2.08373 0
M  V30 2945 O 272.975 -1.33122 1.85717 0
M  V30 2946 C 273.185 2.11789 2.77392 0
M  V30 2947 C 274.533 2.43965 3.47514 0
M  V30 2948 O 275.557 2.10166 2.87591 0
M  V30 2949 O 274.416 3.01817 4.55597 0
M  V30 2950 H 271.51 0.42667 0.708436 0
M  V30 2951 H 274.056 1.42438 0.922474 0
M  V30 2952 H 272.828 3.09194 2.39823 0
M  V30 2953 H 272.451 1.81161 3.5393 0
M  V30 2954 N 273.449 -1.08991 1.13837 0
M  V30 2955 C 274.674 -1.85551 0.926585 0
M  V30 2956 C 275.099 -1.80782 -0.519566 0
M  V30 2957 O 274.457 -1.18855 -1.36906 0
M  V30 2958 C 274.505 -3.31266 1.42462 0
M  V30 2959 O 273.609 -4.07822 0.612789 0
M  V30 2960 H 272.95 -0.575192 0.331738 0
M  V30 2961 H 275.48 -1.37604 1.51414 0
M  V30 2962 H 275.49 -3.82112 1.43019 0
M  V30 2963 H 274.165 -3.34052 2.47754 0
M  V30 2964 H 272.742 -3.66731 0.675463 0
M  V30 2965 N 274.927 -0.932562 -1.27047 0
M  V30 2966 C 275.859 -0.392734 -2.2581 0
M  V30 2967 C 276.872 0.479241 -1.55586 0
M  V30 2968 O 278.061 0.291078 -1.76111 0
M  V30 2969 C 275.161 0.455456 -3.35826 0
M  V30 2970 C 274.334 -0.398355 -4.35582 0
M  V30 2971 C 273.393 0.387985 -5.24768 0
M  V30 2972 O 272.419 -0.206003 -5.68827 0
M  V30 2973 N 273.621 1.68664 -5.55457 0
M  V30 2974 H 276.386 -1.24173 -2.72766 0
M  V30 2975 H 273.947 -0.800511 -1.40725 0
M  V30 2976 H 275.939 0.988692 -3.92437 0
M  V30 2977 H 274.509 1.20522 -2.88432 0
M  V30 2978 H 273.729 -1.11286 -3.78165 0
M  V30 2979 H 275.017 -0.981889 -4.99236 0
M  V30 2980 H 274.415 2.19147 -5.21528 0
M  V30 2981 H 272.972 2.1663 -6.14748 0
M  V30 2982 N 276.405 1.4127 -0.698611 0
M  V30 2983 C 277.653 2.00782 -0.230409 0
M  V30 2984 C 277.974 1.5562 1.17505 0
M  V30 2985 O 277.244 0.78815 1.79346 0
M  V30 2986 H 275.824 0.742464 -0.0821944 0
M  V30 2987 H 278.486 1.72852 -0.90045 0
M  V30 2988 H 277.582 3.11095 -0.25021 0
M  V30 2989 N 277.883 0.443576 1.51229 0
M  V30 2990 C 279.132 -0.122332 2.01329 0
M  V30 2991 C 279.445 -1.43237 1.33201 0
M  V30 2992 O 280.651 -2.0816 1.74304 0
M  V30 2993 C 279.107 -0.268551 3.58897 0
M  V30 2994 C 278.715 1.03142 4.35965 0
M  V30 2995 C 280.459 -0.787894 4.17124 0
M  V30 2996 C 278.366 0.850504 5.85252 0
M  V30 2997 H 277.296 -0.0494929 0.752374 0
M  V30 2998 H 279.947 0.574289 1.74282 0
M  V30 2999 H 278.329 -1.02832 3.82415 0
M  V30 3000 H 279.503 1.80001 4.24189 0
M  V30 3001 H 277.818 1.47977 3.89219 0
M  V30 3002 H 280.415 -0.939841 5.26375 0
M  V30 3003 H 280.758 -1.77201 3.76703 0
M  V30 3004 H 281.291 -0.0862669 3.97706 0
M  V30 3005 H 278.03 1.80718 6.30096 0
M  V30 3006 H 277.55 0.121825 5.99676 0
M  V30 3007 H 279.229 0.506163 6.45017 0
M  V30 3008 N 279.361 -1.56624 0.175154 0
M  V30 3009 C 280.271 -2.21741 -0.766042 0
M  V30 3010 C 281.287 -1.21023 -1.25018 0
M  V30 3011 O 282.463 -1.53697 -1.3015 0
M  V30 3012 C 279.528 -2.84839 -1.97655 0
M  V30 3013 C 278.589 -4.00769 -1.53892 0
M  V30 3014 C 277.822 -4.60849 -2.69173 0
M  V30 3015 O 278.045 -4.19823 -3.86141 0
M  V30 3016 O 276.979 -5.50655 -2.43028 0
M  V30 3017 H 280.805 -3.02738 -0.241585 0
M  V30 3018 H 278.39 -1.49305 -0.053222 0
M  V30 3019 H 280.272 -3.24834 -2.68442 0
M  V30 3020 H 278.947 -2.06836 -2.48999 0
M  V30 3021 H 277.854 -3.65436 -0.80044 0
M  V30 3022 H 279.187 -4.80376 -1.07236 0
M  V30 3023 N 280.839 0.0985539 -1.57292 0
M  V30 3024 C 282.087 0.801092 -1.85545 0
M  V30 3025 C 282.408 1.79438 -0.763353 0
M  V30 3026 O 281.678 1.94763 0.21073 0
M  V30 3027 H 280.258 0.29884 -0.684619 0
M  V30 3028 H 282.92 0.0810064 -1.94732 0
M  V30 3029 H 282.016 1.3338 -2.82163 0
M  V30 3030 N 282.317 1.53212 0.369288 0
M  V30 3031 C 283.563 1.69466 1.11397 0
M  V30 3032 C 283.896 0.443257 1.89074 0
M  V30 3033 O 283.171 -0.559386 1.86282 0
M  V30 3034 C 283.454 2.9422 2.07621 0
M  V30 3035 C 283.307 4.29508 1.33577 0
M  V30 3036 C 284.626 3.14565 3.07794 0
M  V30 3037 H 281.745 0.616667 0.403597 0
M  V30 3038 H 284.387 1.85845 0.395179 0
M  V30 3039 H 282.537 2.80387 2.68916 0
M  V30 3040 H 284.209 4.55147 0.750955 0
M  V30 3041 H 282.452 4.29088 0.637618 0
M  V30 3042 H 283.123 5.12926 2.03989 0
M  V30 3043 H 285.599 3.2756 2.56601 0
M  V30 3044 H 284.475 4.03297 3.72348 0
M  V30 3045 H 284.736 2.29675 3.77759 0
M  V30 3046 N 283.795 -0.628877 1.44509 0
M  V30 3047 C 284.705 -1.7694 1.54044 0
M  V30 3048 C 285.721 -1.68705 0.425987 0
M  V30 3049 O 286.897 -1.89442 0.683656 0
M  V30 3050 C 283.962 -3.13332 1.48405 0
M  V30 3051 C 283.023 -3.33181 2.70719 0
M  V30 3052 C 282.256 -4.63067 2.6534 0
M  V30 3053 O 282.479 -5.44017 1.71469 0
M  V30 3054 O 281.413 -4.85167 3.56226 0
M  V30 3055 H 285.239 -1.71848 2.50403 0
M  V30 3056 H 282.824 -0.790378 1.26781 0
M  V30 3057 H 284.706 -3.94634 1.47791 0
M  V30 3058 H 283.381 -3.1896 0.551898 0
M  V30 3059 H 282.288 -2.51549 2.769 0
M  V30 3060 H 283.621 -3.32416 3.62988 0
M  V30 3061 N 285.273 -1.31445 -0.869486 0
M  V30 3062 C 286.22 -1.19135 -1.97675 0
M  V30 3063 C 287.19 -0.0770266 -1.65921 0
M  V30 3064 O 288.375 -0.249972 -1.89155 0
M  V30 3065 C 285.515 -0.905149 -3.33018 0
M  V30 3066 C 284.628 -2.10285 -3.77365 0
M  V30 3067 C 283.763 -1.75339 -5.01427 0
M  V30 3068 C 282.802 -2.91515 -5.38224 0
M  V30 3069 N 281.939 -2.56762 -6.53466 0
M  V30 3070 H 286.779 -2.13853 -2.07535 0
M  V30 3071 H 284.316 -1.06379 -1.01597 0
M  V30 3072 H 286.274 -0.719765 -4.10944 0
M  V30 3073 H 284.904 0.00519624 -3.228 0
M  V30 3074 H 283.956 -2.39899 -2.95216 0
M  V30 3075 H 285.268 -2.97237 -4.00564 0
M  V30 3076 H 284.422 -1.53266 -5.87022 0
M  V30 3077 H 283.161 -0.855801 -4.80133 0
M  V30 3078 H 282.166 -3.14237 -4.51149 0
M  V30 3079 H 283.391 -3.81985 -5.61484 0
M  V30 3080 H 281.337 -1.69526 -6.33717 0
M  V30 3081 H 281.254 -3.37243 -6.76612 0
M  V30 3082 H 282.522 -2.38083 -7.42251 0
M  V30 3083 N 286.751 1.08385 -1.14413 0
M  V30 3084 C 287.976 1.85057 -0.936413 0
M  V30 3085 C 288.401 1.81055 0.509971 0
M  V30 3086 O 287.759 1.1958 1.36273 0
M  V30 3087 C 287.807 3.30505 -1.44217 0
M  V30 3088 O 286.911 4.07491 -0.634409 0
M  V30 3089 H 286.252 0.573425 -0.334784 0
M  V30 3090 H 288.782 1.36799 -1.52142 0
M  V30 3091 H 288.792 3.81348 -1.45043 0
M  V30 3092 H 287.467 3.32734 -2.49522 0
M  V30 3093 H 286.044 3.66368 -0.694902 0
M  V30 3094 N 288.23 0.939286 1.26551 0
M  V30 3095 C 289.477 0.585847 1.9384 0
M  V30 3096 C 289.805 -0.874784 1.73718 0
M  V30 3097 O 289.06 -1.64092 1.06642 0
M  V30 3098 C 289.359 0.872106 3.46596 0
M  V30 3099 C 289.025 2.31632 3.86856 0
M  V30 3100 C 287.687 2.71111 3.97558 0
M  V30 3101 C 290.039 3.25494 4.07066 0
M  V30 3102 C 287.367 4.03553 4.25866 0
M  V30 3103 C 289.719 4.57531 4.36862 0
M  V30 3104 C 288.383 4.96828 4.45778 0
M  V30 3105 H 287.653 0.214377 0.709312 0
M  V30 3106 H 290.3 1.18544 1.50398 0
M  V30 3107 H 288.605 0.18996 3.91339 0
M  V30 3108 H 290.302 0.577442 3.96821 0
M  V30 3109 H 286.892 2.00008 3.79071 0
M  V30 3110 H 291.076 2.9619 3.98227 0
M  V30 3111 H 286.332 4.33665 4.30981 0
M  V30 3112 H 290.506 5.30254 4.51446 0
M  V30 3113 H 288.133 5.99482 4.67468 0
M  V30 3114 N 289.708 -1.40897 0.706093 0
M  V30 3115 C 290.985 -1.94868 0.169099 0
M  V30 3116 C 291.365 -1.64485 -1.32318 0
M  V30 3117 O 290.713 -0.95744 -2.07474 0
M  V30 3118 C 290.923 -3.45798 0.471654 0
M  V30 3119 C 292.271 -4.22663 0.405127 0
M  V30 3120 O 293.295 -3.53865 0.407168 0
M  V30 3121 O 292.154 -5.45216 0.374383 0
M  V30 3122 H 289.248 -0.82673 0.0211352 0
M  V30 3123 H 291.794 -1.50558 0.782976 0
M  V30 3124 H 290.566 -3.61235 1.50416 0
M  V30 3125 H 290.189 -3.97225 -0.172666 0
M  V30 3126 N 291.186 -0.45159 -1.50991 0
M  V30 3127 C 292.133 0.352625 -2.2809 0
M  V30 3128 C 293.103 1.0044 -1.32291 0
M  V30 3129 O 294.288 1.02058 -1.6121 0
M  V30 3130 C 291.428 1.43983 -3.13629 0
M  V30 3131 C 290.541 0.804772 -4.24438 0
M  V30 3132 C 289.676 1.86822 -4.97263 0
M  V30 3133 C 288.715 1.21236 -5.99973 0
M  V30 3134 N 287.852 2.2178 -6.66152 0
M  V30 3135 H 292.692 -0.311186 -2.96371 0
M  V30 3136 H 290.229 -0.165308 -1.46168 0
M  V30 3137 H 292.187 2.08161 -3.61559 0
M  V30 3138 H 290.817 2.07307 -2.47434 0
M  V30 3139 H 289.869 0.0509129 -3.80366 0
M  V30 3140 H 291.181 0.286076 -4.97979 0
M  V30 3141 H 290.335 2.58628 -5.48813 0
M  V30 3142 H 289.074 2.42068 -4.23385 0
M  V30 3143 H 288.079 0.479828 -5.47702 0
M  V30 3144 H 289.304 0.667051 -6.75816 0
M  V30 3145 H 287.25 2.76079 -5.95077 0
M  V30 3146 H 287.167 1.74841 -7.35504 0
M  V30 3147 H 288.435 2.93026 -7.22327 0
M  V30 3148 N 292.664 1.56529 -0.183458 0
M  V30 3149 C 293.91 1.98304 0.452466 0
M  V30 3150 C 294.265 1.06799 1.60037 0
M  V30 3151 O 293.558 0.110049 1.91284 0
M  V30 3152 C 293.752 3.43939 0.971637 0
M  V30 3153 C 293.581 4.49528 -0.124425 0
M  V30 3154 C 292.351 5.01981 -0.578168 0
M  V30 3155 C 294.549 5.05836 -0.929207 0
M  V30 3156 N 292.531 5.91219 -1.65327 0
M  V30 3157 C 293.902 5.91632 -1.85396 0
M  V30 3158 C 295.957 4.88302 -0.972929 0
M  V30 3159 C 294.66 6.61768 -2.81878 0
M  V30 3160 C 296.686 5.59168 -1.92574 0
M  V30 3161 C 296.048 6.44701 -2.83795 0
M  V30 3162 H 292.147 0.770551 0.133324 0
M  V30 3163 H 294.731 1.92581 -0.286473 0
M  V30 3164 H 292.902 3.50184 1.68006 0
M  V30 3165 H 294.634 3.72702 1.5772 0
M  V30 3166 H 291.389 4.73282 -0.173639 0
M  V30 3167 H 291.813 6.40543 -2.19167 0
M  V30 3168 H 296.455 4.21861 -0.28168 0
M  V30 3169 H 294.173 7.27415 -3.51984 0
M  V30 3170 H 297.759 5.47582 -1.96583 0
M  V30 3171 H 296.639 6.98573 -3.56322 0
M  V30 3172 N 294.142 -0.090211 1.57342 0
M  V30 3173 C 295.072 -1.10976 2.05443 0
M  V30 3174 C 296.053 -1.41482 0.944284 0
M  V30 3175 O 297.238 -1.51428 1.21586 0
M  V30 3176 C 294.368 -2.42831 2.48295 0
M  V30 3177 C 293.322 -2.26721 3.63018 0
M  V30 3178 C 292.648 -3.63796 3.91863 0
M  V30 3179 C 293.948 -1.7037 4.93732 0
M  V30 3180 H 295.642 -0.709564 2.9087 0
M  V30 3181 H 293.188 -0.339874 1.39932 0
M  V30 3182 H 295.141 -3.14431 2.80555 0
M  V30 3183 H 293.865 -2.84795 1.59873 0
M  V30 3184 H 292.524 -1.57565 3.31012 0
M  V30 3185 H 292.172 -4.03297 3.00601 0
M  V30 3186 H 291.872 -3.53861 4.69101 0
M  V30 3187 H 293.396 -4.36855 4.26603 0
M  V30 3188 H 294.81 -2.31816 5.24342 0
M  V30 3189 H 293.207 -1.71181 5.75167 0
M  V30 3190 H 294.277 -0.663542 4.80339 0
M  V30 3191 N 295.62 -1.53406 -0.361157 0
M  V30 3192 C 296.848 -1.73717 -1.12383 0
M  V30 3193 C 297.263 -0.468161 -1.82904 0
M  V30 3194 O 296.62 0.559198 -1.73722 0
M  V30 3195 C 296.671 -2.90558 -2.15078 0
M  V30 3196 O 296.392 -4.12549 -1.47428 0
M  V30 3197 C 297.893 -3.22777 -3.03858 0
M  V30 3198 H 295.113 -0.580896 -0.335858 0
M  V30 3199 H 297.657 -2.00167 -0.418728 0
M  V30 3200 H 295.812 -2.66489 -2.8118 0
M  V30 3201 H 296.226 -4.78009 -2.15887 0
M  V30 3202 H 297.7 -4.07927 -3.71887 0
M  V30 3203 H 298.177 -2.38329 -3.68912 0
M  V30 3204 H 298.783 -3.48787 -2.43367 0
M  V30 3205 N 297.098 0.621204 -1.44841 0
M  V30 3206 C 298.346 1.37783 -1.47852 0
M  V30 3207 C 298.667 1.94653 -0.116224 0
M  V30 3208 O 297.937 1.76367 0.852737 0
M  V30 3209 H 296.517 0.511453 -0.544449 0
M  V30 3210 H 299.179 0.730446 -1.80694 0
M  V30 3211 H 298.275 2.20414 -2.20961 0
M  V30 3212 N 298.576 1.31904 0.862503 0
M  V30 3213 C 299.508 1.16005 1.97675 0
M  V30 3214 C 300.521 0.0971234 1.6251 0
M  V30 3215 O 301.71 0.345337 1.75128 0
M  V30 3216 C 298.81 0.751791 3.30456 0
M  V30 3217 C 297.983 1.90133 3.93914 0
M  V30 3218 C 297.042 1.4779 5.05019 0
M  V30 3219 O 296.068 2.18872 5.25437 0
M  V30 3220 N 297.27 0.369491 5.79323 0
M  V30 3221 H 300.035 2.11982 2.11857 0
M  V30 3222 H 297.596 1.24337 1.03691 0
M  V30 3223 H 299.588 0.451084 4.02178 0
M  V30 3224 H 298.158 -0.116593 3.12382 0
M  V30 3225 H 297.378 2.36896 3.15078 0
M  V30 3226 H 298.666 2.67111 4.33047 0
M  V30 3227 H 298.064 -0.222299 5.65263 0
M  V30 3228 H 296.621 0.128354 6.51674 0
M  V30 3229 N 300.054 -1.07777 1.14986 0
M  V30 3230 C 301.465 -1.61766 0.932127 0
M  V30 3231 C 301.816 -1.88974 -0.527581 0
M  V30 3232 O 300.941 -1.65198 -1.39781 0
M  V30 3233 C 301.536 -2.93891 1.68563 0
M  V30 3234 C 300.095 -3.44639 1.5133 0
M  V30 3235 C 299.242 -2.18767 1.704 0
M  V30 3236 H 302.193 -0.909201 1.30074 0
M  V30 3237 H 302.214 -3.62623 1.15259 0
M  V30 3238 H 301.726 -2.74057 2.74799 0
M  V30 3239 H 299.827 -3.69564 0.474702 0
M  V30 3240 H 299.94 -4.20966 2.28746 0
M  V30 3241 H 298.304 -2.28253 1.13016 0
M  V30 3242 H 299.087 -2.01433 2.77992 0
M  V30 3243 N 301.532 -0.945985 -1.26051 0
M  V30 3244 C 302.78 -0.594941 -1.93145 0
M  V30 3245 C 303.101 0.86953 -1.7454 0
M  V30 3246 O 302.371 1.61838 -1.10387 0
M  V30 3247 H 300.951 -0.217044 -0.714773 0
M  V30 3248 H 303.613 -1.20235 -1.53393 0
M  V30 3249 H 302.709 -0.816835 -3.01221 0
M  V30 3250 N 303.011 1.40521 -0.713556 0
M  V30 3251 C 303.921 2.34522 -0.0606667 0
M  V30 3252 C 304.937 1.57193 0.74607 0
M  V30 3253 O 306.113 1.89591 0.679493 0
M  V30 3254 C 303.178 3.36081 0.851491 0
M  V30 3255 C 302.239 4.29286 0.0349339 0
M  V30 3256 C 301.472 5.25994 0.903649 0
M  V30 3257 O 301.695 5.28616 2.14292 0
M  V30 3258 O 300.629 6.00918 0.343723 0
M  V30 3259 H 304.455 2.91968 -0.835972 0
M  V30 3260 H 302.04 1.41681 -0.47402 0
M  V30 3261 H 303.922 3.98369 1.37404 0
M  V30 3262 H 302.597 2.81052 1.60598 0
M  V30 3263 H 301.504 3.70289 -0.532633 0
M  V30 3264 H 302.837 4.87462 -0.681287 0
M  V30 3265 N 304.489 0.459591 1.5075 0
M  V30 3266 C 305.905 0.113092 1.59199 0
M  V30 3267 C 306.105 -1.37951 1.46874 0
M  V30 3268 O 305.161 -2.15168 1.32132 0
M  V30 3269 C 306.474 0.653043 2.93523 0
M  V30 3270 C 308.022 0.615449 3.0689 0
M  V30 3271 C 308.497 1.13275 4.43771 0
M  V30 3272 N 309.988 1.09167 4.50152 0
M  V30 3273 C 310.723 1.46256 5.54434 0
M  V30 3274 N 310.219 1.90739 6.66026 0
M  V30 3275 N 312.012 1.37932 5.44914 0
M  V30 3276 H 304.163 1.43049 1.57005 0
M  V30 3277 H 306.426 0.590861 0.741341 0
M  V30 3278 H 306.132 1.69822 3.07983 0
M  V30 3279 H 306.006 0.0902132 3.77092 0
M  V30 3280 H 308.393 -0.420793 2.92084 0
M  V30 3281 H 308.474 1.21495 2.25106 0
M  V30 3282 H 308.118 2.16757 4.59324 0
M  V30 3283 H 308.048 0.509576 5.24129 0
M  V30 3284 H 310.539 0.76528 3.7007 0
M  V30 3285 H 310.852 2.17218 7.41644 0
M  V30 3286 H 309.197 1.94683 6.67176 0
M  V30 3287 H 312.388 1.0303 4.56621 0
M  V30 3288 H 312.561 1.67164 6.26067 0
M  V30 3289 N 305.967 -1.56429 0.191757 0
M  V30 3290 C 307.216 -1.9666 -0.448088 0
M  V30 3291 C 307.529 -1.08136 -1.62991 0
M  V30 3292 O 308.735 -1.38135 -2.33733 0
M  V30 3293 C 307.191 -3.49753 -0.848585 0
M  V30 3294 C 306.799 -4.46935 0.308764 0
M  V30 3295 C 308.543 -3.9876 -1.4557 0
M  V30 3296 C 306.45 -5.91293 -0.112506 0
M  V30 3297 H 305.38 -0.734312 -0.171179 0
M  V30 3298 H 308.031 -1.81301 0.283242 0
M  V30 3299 H 306.413 -3.60604 -1.63649 0
M  V30 3300 H 307.587 -4.47813 1.08627 0
M  V30 3301 H 305.902 -4.08102 0.827158 0
M  V30 3302 H 308.499 -5.04086 -1.78328 0
M  V30 3303 H 308.842 -3.42875 -2.36099 0
M  V30 3304 H 309.375 -3.9101 -0.731836 0
M  V30 3305 H 306.114 -6.51097 0.758514 0
M  V30 3306 H 305.634 -5.93676 -0.854941 0
M  V30 3307 H 307.313 -6.44663 -0.549448 0
M  V30 3308 N 307.445 0.0818655 -1.57387 0
M  V30 3309 C 308.691 0.784074 -1.8703 0
M  V30 3310 C 309.024 1.77729 -0.782689 0
M  V30 3311 O 308.299 1.93384 0.208051 0
M  V30 3312 C 308.582 1.50105 -3.27323 0
M  V30 3313 C 308.435 0.524925 -4.46727 0
M  V30 3314 C 309.754 2.44843 -3.65705 0
M  V30 3315 H 306.873 0.283582 -0.680257 0
M  V30 3316 H 309.515 0.0474352 -1.89941 0
M  V30 3317 H 307.665 2.12897 -3.24972 0
M  V30 3318 H 309.337 -0.0970111 -4.61198 0
M  V30 3319 H 307.58 -0.160606 -4.33503 0
M  V30 3320 H 308.251 1.064 -5.41648 0
M  V30 3321 H 310.727 1.92135 -3.69085 0
M  V30 3322 H 309.603 2.92018 -4.64776 0
M  V30 3323 H 309.864 3.29197 -2.95096 0
M  V30 3324 N 308.923 1.53595 0.353017 0
M  V30 3325 C 310.339 1.43648 0.695516 0
M  V30 3326 C 310.539 0.585617 1.92802 0
M  V30 3327 O 309.595 0.0729223 2.52395 0
M  V30 3328 C 310.908 2.8701 0.896991 0
M  V30 3329 C 312.456 2.96723 0.996209 0
M  V30 3330 C 312.931 4.41173 1.23007 0
M  V30 3331 N 314.422 4.44657 1.29749 0
M  V30 3332 C 315.157 5.53547 1.49577 0
M  V30 3333 N 314.653 6.72461 1.66639 0
M  V30 3334 N 316.446 5.41145 1.52048 0
M  V30 3335 H 308.597 2.07415 -0.457481 0
M  V30 3336 H 310.86 0.9372 -0.142687 0
M  V30 3337 H 310.566 3.51644 0.0629938 0
M  V30 3338 H 310.44 3.31401 1.80148 0
M  V30 3339 H 312.827 2.32235 1.82074 0
M  V30 3340 H 312.908 2.55707 0.0688331 0
M  V30 3341 H 312.552 5.06238 0.410505 0
M  V30 3342 H 312.482 4.79772 2.17086 0
M  V30 3343 H 314.973 3.58963 1.18126 0
M  V30 3344 H 315.286 7.51214 1.81378 0
M  V30 3345 H 313.631 6.75423 1.63794 0
M  V30 3346 H 316.822 4.47205 1.38294 0
M  V30 3347 H 316.995 6.26068 1.67159 0
M  V30 3348 N 310.401 -0.613514 1.45168 0
M  V30 3349 C 311.348 -1.72456 1.53387 0
M  V30 3350 C 312.318 -1.6169 0.380191 0
M  V30 3351 O 313.503 -1.81356 0.592836 0
M  V30 3352 C 310.643 -3.10753 1.50088 0
M  V30 3353 C 309.756 -3.32368 2.75963 0
M  V30 3354 C 308.891 -4.60737 2.64376 0
M  V30 3355 C 307.93 -4.7559 3.85332 0
M  V30 3356 N 307.067 -5.95253 3.72315 0
M  V30 3357 H 311.907 -1.64768 2.48305 0
M  V30 3358 H 309.444 -0.803503 1.23216 0
M  V30 3359 H 311.402 -3.90758 1.46164 0
M  V30 3360 H 310.032 -3.17413 0.587243 0
M  V30 3361 H 309.084 -2.4618 2.89999 0
M  V30 3362 H 310.396 -3.39218 3.65695 0
M  V30 3363 H 309.55 -5.48928 2.58385 0
M  V30 3364 H 308.289 -4.56275 1.72233 0
M  V30 3365 H 307.294 -3.85824 3.91688 0
M  V30 3366 H 308.519 -4.81854 4.78533 0
M  V30 3367 H 306.465 -5.91847 2.82937 0
M  V30 3368 H 306.382 -6.03236 4.55677 0
M  V30 3369 H 307.65 -6.85958 3.70246 0
M  V30 3370 N 311.879 -1.3236 -0.855495 0
M  V30 3371 C 313.156 -1.13491 -1.59309 0
M  V30 3372 C 313.536 0.30503 -2.08885 0
M  V30 3373 O 312.884 1.30151 -1.87811 0
M  V30 3374 C 313.094 -2.16176 -2.73987 0
M  V30 3375 C 314.442 -2.49463 -3.43589 0
M  V30 3376 O 315.466 -2.14715 -2.84211 0
M  V30 3377 O 314.325 -3.09027 -4.50738 0
M  V30 3378 H 311.419 -0.437887 -0.701559 0
M  V30 3379 H 313.965 -1.43887 -0.899696 0
M  V30 3380 H 312.737 -3.1297 -2.34873 0
M  V30 3381 H 312.36 -1.86769 -3.51003 0
M  V30 3382 N 313.357 1.07166 -1.15556 0
M  V30 3383 C 314.773 1.31899 -0.898603 0
M  V30 3384 C 314.973 1.96333 0.453383 0
M  V30 3385 O 314.029 2.22438 1.19489 0
M  V30 3386 C 315.342 2.20826 -2.04099 0
M  V30 3387 C 316.89 2.34269 -2.07574 0
M  V30 3388 C 317.365 3.26546 -3.21141 0
M  V30 3389 N 318.856 3.34127 -3.20801 0
M  V30 3390 C 319.591 4.05595 -4.05315 0
M  V30 3391 N 319.087 4.79661 -4.99897 0
M  V30 3392 N 320.88 4.01555 -3.93332 0
M  V30 3393 H 313.031 0.637302 -2.02613 0
M  V30 3394 H 315.294 0.343468 -0.883591 0
M  V30 3395 H 315 1.80744 -3.01703 0
M  V30 3396 H 314.874 3.21364 -1.97496 0
M  V30 3397 H 317.261 2.73603 -1.10568 0
M  V30 3398 H 317.342 1.33429 -2.18244 0
M  V30 3399 H 316.986 2.87931 -4.184 0
M  V30 3400 H 316.916 4.27345 -3.07708 0
M  V30 3401 H 319.407 2.81336 -2.52306 0
M  V30 3402 H 319.72 5.31694 -5.60822 0
M  V30 3403 H 318.065 4.78671 -5.03884 0
M  V30 3404 H 321.256 3.42806 -3.18751 0
M  V30 3405 H 321.429 4.56987 -4.5942 0
M  V30 3406 N 314.835 0.952656 1.25548 0
M  V30 3407 C 316.065 0.622592 1.96996 0
M  V30 3408 C 316.473 -0.809112 1.71026 0
M  V30 3409 O 315.816 -1.55258 0.981861 0
M  V30 3410 C 315.878 0.798946 3.5051 0
M  V30 3411 C 315.542 2.20744 4.00151 0
M  V30 3412 C 316.539 3.18394 4.11001 0
M  V30 3413 C 314.224 2.5311 4.33867 0
M  V30 3414 C 316.218 4.46504 4.54877 0
M  V30 3415 C 313.905 3.8145 4.7743 0
M  V30 3416 C 314.903 4.77959 4.87897 0
M  V30 3417 O 314.591 6.04012 5.30494 0
M  V30 3418 H 314.323 0.232503 0.634758 0
M  V30 3419 H 316.877 1.2789 1.60728 0
M  V30 3420 H 315.107 0.0854903 3.86605 0
M  V30 3421 H 316.796 0.47023 4.03167 0
M  V30 3422 H 317.562 2.94715 3.85186 0
M  V30 3423 H 313.441 1.78719 4.24948 0
M  V30 3424 H 316.985 5.21835 4.62962 0
M  V30 3425 H 312.882 4.04936 5.0269 0
M  V30 3426 H 313.65 6.0736 5.48685 0
M  V30 3427 N 316.313 -1.40141 0.720998 0
M  V30 3428 C 317.561 -2.0039 0.262323 0
M  V30 3429 C 317.882 -1.57469 -1.15015 0
M  V30 3430 O 317.152 -0.816582 -1.78069 0
M  V30 3431 H 315.732 -0.741063 0.093996 0
M  V30 3432 H 318.394 -1.71398 0.927835 0
M  V30 3433 H 317.49 -3.10658 0.299671 0
M  V30 3434 N 317.792 -0.46758 -1.50504 0
M  V30 3435 C 319.208 -0.121533 -1.59137 0
M  V30 3436 C 319.408 1.3717 -1.47603 0
M  V30 3437 O 318.464 2.14464 -1.33272 0
M  V30 3438 C 319.777 -0.6686 -2.93173 0
M  V30 3439 C 321.325 -0.631716 -3.06559 0
M  V30 3440 C 321.8 -1.15627 -4.43164 0
M  V30 3441 N 323.291 -1.11553 -4.49567 0
M  V30 3442 C 324.026 -1.49195 -5.5365 0
M  V30 3443 N 323.522 -1.94269 -6.65005 0
M  V30 3444 N 325.315 -1.4082 -5.44175 0
M  V30 3445 H 317.466 -1.4388 -1.56245 0
M  V30 3446 H 319.729 -0.594784 -0.738198 0
M  V30 3447 H 319.435 -1.71453 -3.07078 0
M  V30 3448 H 319.309 -0.11021 -3.77039 0
M  V30 3449 H 321.696 0.405297 -2.92304 0
M  V30 3450 H 321.777 -1.22687 -2.24458 0
M  V30 3451 H 321.421 -2.1919 -4.58168 0
M  V30 3452 H 321.351 -0.537365 -5.23851 0
M  V30 3453 H 323.842 -0.784895 -3.69659 0
M  V30 3454 H 324.155 -2.21148 -7.40482 0
M  V30 3455 H 322.5 -1.98219 -6.66134 0
M  V30 3456 H 325.691 -1.0545 -4.56068 0
M  V30 3457 H 325.864 -1.70481 -6.25172 0
M  V30 3458 N 319.27 1.56325 -0.20005 0
M  V30 3459 C 320.516 1.98012 0.438059 0
M  V30 3460 C 320.849 1.08702 1.60927 0
M  V30 3461 O 320.124 0.140064 1.93995 0
M  V30 3462 C 320.407 3.48841 0.893419 0
M  V30 3463 C 320.26 4.48928 -0.279947 0
M  V30 3464 C 321.579 4.03498 1.75719 0
M  V30 3465 H 318.698 0.719918 0.157757 0
M  V30 3466 H 321.34 1.87743 -0.291968 0
M  V30 3467 H 319.49 3.57723 1.51547 0
M  V30 3468 H 321.162 4.52079 -0.91772 0
M  V30 3469 H 319.405 4.23694 -0.930919 0
M  V30 3470 H 320.076 5.5194 0.0812601 0
M  V30 3471 H 322.552 3.97427 1.23253 0
M  V30 3472 H 321.428 5.09393 2.04476 0
M  V30 3473 H 321.689 3.4906 2.71311 0
M  V30 3474 N 320.748 -0.0735177 1.57428 0
M  V30 3475 C 321.997 -0.771809 1.86349 0
M  V30 3476 C 322.31 -1.78828 0.792452 0
M  V30 3477 O 323.516 -2.53602 0.96945 0
M  V30 3478 C 321.972 -1.42358 3.30548 0
M  V30 3479 C 321.58 -0.445761 4.45777 0
M  V30 3480 C 323.324 -2.10434 3.6867 0
M  V30 3481 C 321.231 -1.10335 5.81016 0
M  V30 3482 H 320.161 -0.291999 0.695164 0
M  V30 3483 H 322.812 -0.0250749 1.83483 0
M  V30 3484 H 321.194 -2.21852 3.28021 0
M  V30 3485 H 322.368 0.319239 4.59693 0
M  V30 3486 H 320.683 0.130457 4.16196 0
M  V30 3487 H 323.28 -2.60405 4.67004 0
M  V30 3488 H 323.623 -2.90298 2.98383 0
M  V30 3489 H 324.156 -1.37773 3.7318 0
M  V30 3490 H 320.895 -0.345061 6.54591 0
M  V30 3491 H 320.415 -1.83925 5.70904 0
M  V30 3492 H 322.094 -1.62367 6.26295 0
M  V30 3493 N 322.226 -1.5378 -0.344866 0
M  V30 3494 C 323.136 -1.84667 -1.4469 0
M  V30 3495 C 324.152 -0.736704 -1.57635 0
M  V30 3496 O 325.328 -1.02888 -1.73136 0
M  V30 3497 C 322.393 -2.04869 -2.79696 0
M  V30 3498 C 321.454 -3.28731 -2.76106 0
M  V30 3499 C 320.687 -3.4796 -4.04673 0
M  V30 3500 O 320.91 -2.71052 -5.01883 0
M  V30 3501 O 319.844 -4.41383 -4.09224 0
M  V30 3502 H 323.67 -2.78334 -1.21506 0
M  V30 3503 H 321.255 -1.39418 -0.536921 0
M  V30 3504 H 323.137 -2.19609 -3.59652 0
M  V30 3505 H 321.812 -1.14391 -3.02814 0
M  V30 3506 H 320.719 -3.19396 -1.94774 0
M  V30 3507 H 322.052 -4.19198 -2.57941 0
M  V30 3508 N 323.704 0.605807 -1.45491 0
M  V30 3509 C 324.981 1.36522 -1.40075 0
M  V30 3510 C 325.361 2.10976 -0.0722744 0
M  V30 3511 O 324.709 2.08007 0.945808 0
M  V30 3512 C 324.919 2.31056 -2.61561 0
M  V30 3513 C 326.267 2.93608 -3.06724 0
M  V30 3514 O 327.291 2.41376 -2.61946 0
M  V30 3515 O 326.15 3.88421 -3.84437 0
M  V30 3516 H 323.244 0.612248 -0.555951 0
M  V30 3517 H 325.79 0.628747 -1.57623 0
M  V30 3518 H 324.562 1.75311 -3.49831 0
M  V30 3519 H 324.185 3.12081 -2.46356 0
M  V30 3520 N 325.182 1.32811 0.848464 0
M  V30 3521 C 326.431 1.23075 1.59798 0
M  V30 3522 C 326.744 -0.204419 1.94529 0
M  V30 3523 O 327.95 -0.423701 2.68173 0
M  V30 3524 C 326.406 2.15594 2.88179 0
M  V30 3525 C 326.014 3.64228 2.60849 0
M  V30 3526 C 327.758 2.14709 3.66197 0
M  V30 3527 C 325.665 4.48689 3.85269 0
M  V30 3528 H 324.595 0.457091 0.599653 0
M  V30 3529 H 327.246 1.57813 0.936342 0
M  V30 3530 H 325.628 1.73778 3.55833 0
M  V30 3531 H 326.802 4.14424 2.01467 0
M  V30 3532 H 325.117 3.67306 1.96151 0
M  V30 3533 H 327.714 2.75046 4.58534 0
M  V30 3534 H 328.057 1.13966 4.00397 0
M  V30 3535 H 328.59 2.54837 3.05455 0
M  V30 3536 H 325.329 5.5027 3.56207 0
M  V30 3537 H 324.849 4.03241 4.44024 0
M  V30 3538 H 326.528 4.62006 4.52946 0
M  V30 3539 N 326.66 -1.06551 1.16123 0
M  V30 3540 C 327.885 -1.83544 0.965735 0
M  V30 3541 C 328.31 -1.81843 -0.481102 0
M  V30 3542 O 327.668 -1.21732 -1.34354 0
M  V30 3543 C 327.716 -3.28169 1.49457 0
M  V30 3544 O 326.82 -4.0643 0.699157 0
M  V30 3545 H 326.161 -0.568026 0.343864 0
M  V30 3546 H 328.691 -1.34362 1.54299 0
M  V30 3547 H 328.701 -3.78992 1.51092 0
M  V30 3548 H 327.376 -3.28722 2.54784 0
M  V30 3549 H 325.953 -3.65216 0.7531 0
M  V30 3550 N 328.138 -0.959301 -1.25041 0
M  V30 3551 C 329.363 -0.633507 -1.97488 0
M  V30 3552 C 329.788 0.788555 -1.70773 0
M  V30 3553 O 329.146 1.53394 -0.966431 0
M  V30 3554 C 329.194 -0.904057 -3.49083 0
M  V30 3555 O 328.298 0.0147939 -4.12397 0
M  V30 3556 H 327.639 -0.240368 -0.618966 0
M  V30 3557 H 330.169 -1.28717 -1.59038 0
M  V30 3558 H 330.179 -0.832203 -3.99423 0
M  V30 3559 H 328.854 -1.94048 -3.67856 0
M  V30 3560 H 327.431 -0.109664 -3.72739 0
M  V30 3561 N 329.616 1.39756 -0.72842 0
M  V30 3562 C 330.844 2.04948 -0.283528 0
M  V30 3563 C 331.259 1.54908 1.0793 0
M  V30 3564 O 330.616 0.711135 1.68075 0
M  V30 3565 C 330.667 3.60498 -0.268957 0
M  V30 3566 O 330.388 4.08695 -1.57798 0
M  V30 3567 C 331.889 4.4288 0.192912 0
M  V30 3568 H 329.109 0.659243 -0.125056 0
M  V30 3569 H 331.653 1.78927 -0.990226 0
M  V30 3570 H 329.808 3.85444 0.388801 0
M  V30 3571 H 330.222 5.02977 -1.48709 0
M  V30 3572 H 331.696 5.51791 0.151952 0
M  V30 3573 H 332.173 4.21418 1.23708 0
M  V30 3574 H 332.779 4.23069 -0.435039 0
M  V30 3575 N 331.094 0.475555 1.50254 0
M  V30 3576 C 332.371 -0.139685 1.95101 0
M  V30 3577 C 332.751 -1.56555 1.41611 0
M  V30 3578 O 332.099 -2.19956 0.618993 0
M  V30 3579 C 332.309 -0.0784298 3.48912 0
M  V30 3580 C 333.657 -0.265095 4.23772 0
M  V30 3581 O 334.681 -0.154808 3.55863 0
M  V30 3582 O 333.54 -0.488327 5.44314 0
M  V30 3583 H 330.634 -0.109236 0.819754 0
M  V30 3584 H 333.18 0.536276 1.61004 0
M  V30 3585 H 331.952 0.916918 3.80405 0
M  V30 3586 H 331.575 -0.795655 3.89558 0
M  V30 3587 N 332.573 -1.56217 0.208337 0
M  V30 3588 C 333.798 -2.02782 -0.435222 0
M  V30 3589 C 334.223 -1.08738 -1.53485 0
M  V30 3590 O 333.581 -0.0731855 -1.81152 0
M  V30 3591 C 333.629 -3.47687 -0.956335 0
M  V30 3592 O 332.733 -3.56773 -2.06849 0
M  V30 3593 H 332.074 -0.656403 -0.100158 0
M  V30 3594 H 334.604 -2.02033 0.3231 0
M  V30 3595 H 334.614 -3.87745 -1.26955 0
M  V30 3596 H 333.289 -4.15624 -0.15143 0
M  V30 3597 H 331.866 -3.28597 -1.76292 0
M  V30 3598 N 334.051 0.0651679 -1.57465 0
M  V30 3599 C 334.983 1.10359 -2.00882 0
M  V30 3600 C 335.996 1.346 -0.915788 0
M  V30 3601 O 337.185 1.32723 -1.1936 0
M  V30 3602 C 334.285 2.45312 -2.33828 0
M  V30 3603 C 333.458 2.40934 -3.65061 0
M  V30 3604 C 332.517 3.58047 -3.85602 0
M  V30 3605 O 331.543 3.39175 -4.57109 0
M  V30 3606 N 332.745 4.78637 -3.28462 0
M  V30 3607 H 335.51 0.733807 -2.90578 0
M  V30 3608 H 333.071 0.253719 -1.599 0
M  V30 3609 H 335.063 3.22314 -2.44737 0
M  V30 3610 H 333.633 2.74267 -1.49988 0
M  V30 3611 H 332.853 1.49273 -3.64844 0
M  V30 3612 H 334.141 2.35117 -4.51218 0
M  V30 3613 H 333.539 4.96872 -2.70433 0
M  V30 3614 H 332.096 5.53127 -3.44809 0
M  V30 3615 N 335.529 1.53961 0.336706 0
M  V30 3616 C 336.492 1.81724 1.39675 0
M  V30 3617 C 337.492 0.688532 1.45313 0
M  V30 3618 O 338.682 0.956829 1.45569 0
M  V30 3619 C 335.814 1.96543 2.78538 0
M  V30 3620 H 337.007 2.76424 1.16318 0
M  V30 3621 H 334.56 1.45478 0.571474 0
M  V30 3622 H 335.295 1.0401 3.07168 0
M  V30 3623 H 335.08 2.78665 2.75841 0
M  V30 3624 H 336.57 2.19516 3.5525 0
M  V30 3625 N 337.007 -0.598083 1.45811 0
M  V30 3626 C 337.97 -1.69018 1.54808 0
M  V30 3627 C 338.97 -1.55037 0.426652 0
M  V30 3628 O 340.16 -1.59932 0.690456 0
M  V30 3629 C 337.292 -3.0835 1.45371 0
M  V30 3630 H 338.485 -1.62403 2.52121 0
M  V30 3631 H 336.038 -0.814626 1.33392 0
M  V30 3632 H 336.773 -3.20534 0.492793 0
M  V30 3633 H 336.558 -3.19907 2.26721 0
M  V30 3634 H 338.048 -3.8788 1.54721 0
M  V30 3635 N 338.485 -1.33259 -0.841409 0
M  V30 3636 C 339.435 -1.19872 -1.93945 0
M  V30 3637 C 340.419 -0.102269 -1.60575 0
M  V30 3638 O 341.611 -0.330114 -1.73894 0
M  V30 3639 C 338.74 -0.937517 -3.30251 0
M  V30 3640 C 337.826 -2.07629 -3.69799 0
M  V30 3641 N 338.217 -3.32604 -3.81062 0
M  V30 3642 C 336.515 -1.98242 -3.9952 0
M  V30 3643 C 337.216 -4.07275 -4.15333 0
M  V30 3644 N 336.192 -3.35691 -4.27566 0
M  V30 3645 H 339.994 -2.14604 -2.00805 0
M  V30 3646 H 337.508 -1.2523 -1.03398 0
M  V30 3647 H 339.505 -0.822545 -4.08705 0
M  V30 3648 H 338.165 0.00128798 -3.247 0
M  V30 3649 H 339.176 -3.67382 -3.65035 0
M  V30 3650 H 335.853 -1.12005 -4.02195 0
M  V30 3651 H 337.243 -5.1511 -4.31406 0
M  V30 3652 N 339.963 1.05934 -1.16686 0
M  V30 3653 C 340.911 2.15603 -0.872817 0
M  V30 3654 C 341.905 1.68647 0.159576 0
M  V30 3655 O 343.111 1.79995 0.0132125 0
M  V30 3656 H 339.486 0.703885 -0.264671 0
M  V30 3657 H 341.457 2.37613 -1.80507 0
M  V30 3658 C 340.206 3.45457 -0.394344 0
M  V30 3659 H 339.529 3.81984 -1.18019 0
M  V30 3660 H 340.969 4.2339 -0.227408 0
M  V30 3661 C 339.428 3.25021 0.88673 0
M  V30 3662 O 339.958 3.50906 1.95519 0
M  V30 3663 N 338.164 2.78437 0.831925 0
M  V30 3664 H 337.711 2.57572 -0.0377619 0
M  V30 3665 H 337.669 2.65144 1.68956 0
M  V30 3666 N 341.441 0.965919 1.2453 0
M  V30 3667 C 342.371 0.513476 2.27784 0
M  V30 3668 C 343.352 -0.445974 1.6415 0
M  V30 3669 O 344.537 -0.342485 1.91156 0
M  V30 3670 C 341.667 -0.198839 3.4673 0
M  V30 3671 C 340.621 0.676456 4.2262 0
M  V30 3672 C 339.947 -0.167248 5.34438 0
M  V30 3673 C 341.247 1.96017 4.84123 0
M  V30 3674 H 342.941 1.3765 2.65881 0
M  V30 3675 H 340.487 0.663321 1.27813 0
M  V30 3676 H 342.44 -0.526567 4.18097 0
M  V30 3677 H 341.164 -1.0962 3.07654 0
M  V30 3678 H 339.823 0.98743 3.53052 0
M  V30 3679 H 339.471 -1.0647 4.91603 0
M  V30 3680 H 339.171 0.415181 5.86131 0
M  V30 3681 H 340.695 -0.489688 6.08633 0
M  V30 3682 H 342.109 1.69814 5.47573 0
M  V30 3683 H 340.506 2.48918 5.4604 0
M  V30 3684 H 341.576 2.65622 4.05676 0
M  V30 3685 N 342.919 -1.39368 0.735821 0
M  V30 3686 C 343.882 -2.2896 0.104874 0
M  V30 3687 C 344.882 -1.46347 -0.666274 0
M  V30 3688 O 346.072 -1.67014 -0.49517 0
M  V30 3689 C 343.204 -3.29857 -0.860656 0
M  V30 3690 H 344.397 -2.86259 0.894205 0
M  V30 3691 H 341.95 -1.48029 0.501704 0
M  V30 3692 H 342.685 -2.77615 -1.67631 0
M  V30 3693 H 342.47 -3.9087 -0.310327 0
M  V30 3694 H 343.96 -3.96893 -1.29867 0
M  V30 3695 N 344.397 -0.483516 -1.5 0
M  V30 3696 C 345.327 0.293829 -2.31644 0
M  V30 3697 C 346.308 0.978864 -1.39112 0
M  V30 3698 O 347.493 0.973644 -1.68029 0
M  V30 3699 C 344.623 1.36897 -3.19181 0
M  V30 3700 C 343.577 0.804833 -4.20365 0
M  V30 3701 C 342.903 1.9792 -4.96721 0
M  V30 3702 C 344.203 -0.192313 -5.21946 0
M  V30 3703 H 345.897 -0.387616 -2.9688 0
M  V30 3704 H 343.443 -0.187856 -1.42769 0
M  V30 3705 H 345.396 1.92037 -3.751 0
M  V30 3706 H 344.12 2.07936 -2.51853 0
M  V30 3707 H 342.779 0.275319 -3.65565 0
M  V30 3708 H 342.427 2.67686 -4.25856 0
M  V30 3709 H 342.127 1.60789 -5.65173 0
M  V30 3710 H 343.651 2.53526 -5.55479 0
M  V30 3711 H 345.065 0.270333 -5.72662 0
M  V30 3712 H 343.462 -0.478543 -5.98189 0
M  V30 3713 H 344.532 -1.11409 -4.71928 0
M  V30 3714 N 345.875 1.56104 -0.216619 0
M  V30 3715 C 347.1 2.0301 0.424462 0
M  V30 3716 C 347.525 1.0955 1.52907 0
M  V30 3717 O 346.883 0.0827914 1.81111 0
M  V30 3718 C 346.931 3.4819 0.937883 0
M  V30 3719 O 346.035 3.57865 2.04955 0
M  V30 3720 H 345.376 0.656925 0.0966755 0
M  V30 3721 H 347.906 2.01859 -0.33381 0
M  V30 3722 H 347.916 3.88413 1.24897 0
M  V30 3723 H 346.591 4.15699 0.129387 0
M  V30 3724 H 345.168 3.29527 1.74546 0
M  V30 3725 N 347.353 -0.0568162 1.57498 0
M  V30 3726 C 348.602 -0.752001 1.87157 0
M  V30 3727 C 348.915 -1.77978 0.811375 0
M  V30 3728 O 350.121 -2.52559 0.996293 0
M  V30 3729 C 348.577 -1.38844 3.3204 0
M  V30 3730 C 348.185 -0.398456 4.46225 0
M  V30 3731 C 349.929 -2.06512 3.70882 0
M  V30 3732 C 347.836 -1.04166 5.82154 0
M  V30 3733 H 346.766 -0.28461 0.698222 0
M  V30 3734 H 349.417 -0.00561272 1.83499 0
M  V30 3735 H 347.799 -2.1836 3.30356 0
M  V30 3736 H 348.973 0.367977 4.59328 0
M  V30 3737 H 347.288 0.174592 4.16034 0
M  V30 3738 H 349.885 -2.55437 4.6974 0
M  V30 3739 H 350.228 -2.87117 3.01445 0
M  V30 3740 H 350.761 -1.33808 3.7462 0
M  V30 3741 H 347.5 -0.275614 6.5492 0
M  V30 3742 H 347.02 -1.7786 5.72823 0
M  V30 3743 H 348.699 -1.55715 6.27982 0
M  V30 3744 N 348.832 -1.54138 -0.328536 0
M  V30 3745 C 350.109 -1.62749 -1.08499 0
M  V30 3746 C 350.489 -0.458198 -2.06067 0
M  V30 3747 O 349.837 0.548046 -2.2183 0
M  V30 3748 C 350.047 -2.99519 -1.79135 0
M  V30 3749 C 351.395 -3.55394 -2.32337 0
M  V30 3750 O 352.419 -3.01792 -1.89209 0
M  V30 3751 O 351.278 -4.49186 -3.11279 0
M  V30 3752 H 348.372 -0.65886 -0.499832 0
M  V30 3753 H 350.918 -1.66484 -0.328826 0
M  V30 3754 H 349.69 -3.76061 -1.08139 0
M  V30 3755 H 349.313 -2.99441 -2.61574 0
M  V30 3756 N 350.31 0.590341 -1.46126 0
M  V30 3757 C 351.22 1.72793 -1.58681 0
M  V30 3758 C 352.236 1.67516 -0.470566 0
M  V30 3759 O 353.412 1.87562 -0.733642 0
M  V30 3760 C 350.477 3.09287 -1.5666 0
M  V30 3761 C 349.538 3.25886 -2.79458 0
M  V30 3762 C 348.771 4.55869 -2.77524 0
M  V30 3763 O 348.994 5.3928 -1.85832 0
M  V30 3764 O 347.928 4.75552 -3.68964 0
M  V30 3765 H 351.754 1.65149 -2.54872 0
M  V30 3766 H 349.339 0.756486 -1.28832 0
M  V30 3767 H 351.221 3.90577 -1.58202 0
M  V30 3768 H 349.896 3.17385 -0.636271 0
M  V30 3769 H 348.803 2.44119 -2.83472 0
M  V30 3770 H 350.136 3.22675 -3.71674 0
M  V30 3771 N 351.788 1.33704 0.83433 0
M  V30 3772 C 353.204 1.13137 1.12571 0
M  V30 3773 C 353.404 -0.0747261 2.01361 0
M  V30 3774 O 352.46 -0.753647 2.4099 0
M  V30 3775 C 353.773 2.42105 1.78342 0
M  V30 3776 C 355.321 2.48054 1.90888 0
M  V30 3777 C 355.796 3.76995 2.60075 0
M  V30 3778 N 357.287 3.78092 2.67584 0
M  V30 3779 C 358.022 4.74574 3.21818 0
M  V30 3780 N 357.518 5.81434 3.76705 0
M  V30 3781 N 359.311 4.62044 3.20112 0
M  V30 3782 H 351.462 2.11 0.243489 0
M  V30 3783 H 353.725 0.932532 0.17055 0
M  V30 3784 H 353.431 3.30391 1.20561 0
M  V30 3785 H 353.305 2.54594 2.7832 0
M  V30 3786 H 355.692 1.60215 2.47821 0
M  V30 3787 H 355.773 2.39502 0.898459 0
M  V30 3788 H 355.417 4.65219 2.03799 0
M  V30 3789 H 355.347 3.82825 3.61597 0
M  V30 3790 H 357.838 3.00865 2.28667 0
M  V30 3791 H 358.151 6.51084 4.16305 0
M  V30 3792 H 356.496 5.85163 3.7498 0
M  V30 3793 H 359.687 3.77716 2.76493 0
M  V30 3794 H 359.86 5.37406 3.62076 0
M  V30 3795 N 353.266 -1.05314 1.17247 0
M  V30 3796 C 354.196 -2.1498 0.911362 0
M  V30 3797 C 355.177 -1.69471 -0.146169 0
M  V30 3798 O 356.362 -1.942 0.003812 0
M  V30 3799 C 353.492 -3.4472 0.422528 0
M  V30 3800 C 352.446 -4.03789 1.4191 0
M  V30 3801 C 351.772 -5.28858 0.788274 0
M  V30 3802 C 353.072 -4.41418 2.7919 0
M  V30 3803 H 354.766 -2.3708 1.82848 0
M  V30 3804 H 352.312 -1.13938 0.880569 0
M  V30 3805 H 354.265 -4.20787 0.227289 0
M  V30 3806 H 352.989 -3.22269 -0.530123 0
M  V30 3807 H 351.648 -3.2979 1.60106 0
M  V30 3808 H 351.296 -5.02709 -0.171173 0
M  V30 3809 H 350.996 -5.69338 1.45353 0
M  V30 3810 H 352.52 -6.07612 0.603282 0
M  V30 3811 H 353.934 -5.08524 2.64719 0
M  V30 3812 H 352.331 -4.92913 3.42282 0
M  V30 3813 H 353.401 -3.51819 3.33693 0
M  V30 3814 N 354.744 -0.972509 -1.24016 0
M  V30 3815 C 355.676 -0.464375 -2.24446 0
M  V30 3816 C 356.689 0.4295 -1.57032 0
M  V30 3817 O 357.878 0.234902 -1.76948 0
M  V30 3818 C 354.978 0.348385 -3.37105 0
M  V30 3819 C 354.151 -0.53673 -4.34094 0
M  V30 3820 C 353.21 0.220838 -5.25736 0
M  V30 3821 O 352.236 -0.386867 -5.67884 0
M  V30 3822 N 353.438 1.50907 -5.60542 0
M  V30 3823 H 356.203 -1.32788 -2.68677 0
M  V30 3824 H 353.764 -0.844877 -1.38107 0
M  V30 3825 H 355.756 0.863341 -3.95384 0
M  V30 3826 H 354.326 1.11285 -2.92121 0
M  V30 3827 H 353.546 -1.23261 -3.74433 0
M  V30 3828 H 354.834 -1.14022 -4.95859 0
M  V30 3829 H 354.232 2.02444 -5.28236 0
M  V30 3830 H 352.789 1.96962 -6.21329 0
M  V30 3831 N 356.222 1.38976 -0.743202 0
M  V30 3832 C 357.185 2.28901 -0.117014 0
M  V30 3833 C 358.185 1.46698 0.658503 0
M  V30 3834 O 359.375 1.67274 0.486305 0
M  V30 3835 C 356.507 3.30309 0.84315 0
M  V30 3836 H 357.7 2.8578 -0.909373 0
M  V30 3837 H 355.253 1.47761 -0.509547 0
M  V30 3838 H 355.988 2.785 1.66157 0
M  V30 3839 H 355.773 3.91029 0.289594 0
M  V30 3840 H 357.263 3.97577 1.2776 0
M  V30 3841 N 357.7 0.491464 1.49741 0
M  V30 3842 C 358.63 -0.28154 2.31796 0
M  V30 3843 C 359.611 -0.971473 1.3963 0
M  V30 3844 O 360.796 -0.964719 1.68543 0
M  V30 3845 C 357.926 -1.35203 3.19902 0
M  V30 3846 C 356.88 -0.782529 4.20786 0
M  V30 3847 C 356.206 -1.95283 4.97764 0
M  V30 3848 C 357.506 0.21999 5.21837 0
M  V30 3849 H 359.2 0.403355 2.96671 0
M  V30 3850 H 356.746 0.195425 1.42668 0
M  V30 3851 H 358.699 -1.90045 3.76113 0
M  V30 3852 H 357.423 -2.06598 2.52953 0
M  V30 3853 H 356.082 -0.255928 3.65706 0
M  V30 3854 H 355.73 -2.65423 4.2727 0
M  V30 3855 H 355.43 -1.57789 5.66018 0
M  V30 3856 H 356.954 -2.50577 5.56816 0
M  V30 3857 H 358.368 -0.23996 5.72798 0
M  V30 3858 H 356.765 0.51026 5.97927 0
M  V30 3859 H 357.835 1.13911 4.7133 0
M  V30 3860 N 359.178 -1.55987 0.224894 0
M  V30 3861 C 360.424 -1.98684 -0.406502 0
M  V30 3862 C 360.757 -1.11248 -1.59177 0
M  V30 3863 O 360.032 -0.170909 -1.93748 0
M  V30 3864 C 360.315 -3.50218 -0.837808 0
M  V30 3865 C 360.168 -4.48426 0.351332 0
M  V30 3866 C 361.487 -4.06243 -1.69278 0
M  V30 3867 H 358.606 -0.722337 -0.146283 0
M  V30 3868 H 361.248 -1.87255 0.321799 0
M  V30 3869 H 359.398 -3.60089 -1.45837 0
M  V30 3870 H 361.07 -4.50562 0.989526 0
M  V30 3871 H 359.313 -4.22159 0.998207 0
M  V30 3872 H 359.984 -5.52 0.00655905 0
M  V30 3873 H 362.46 -3.99337 -1.16914 0
M  V30 3874 H 361.336 -5.12581 -1.96346 0
M  V30 3875 H 361.597 -3.53332 -2.65723 0
M  V30 3876 N 360.656 0.0484629 -1.57525 0
M  V30 3877 C 361.886 0.754326 -1.92337 0
M  V30 3878 C 362.294 1.70443 -0.82132 0
M  V30 3879 O 361.637 1.82466 0.21254 0
M  V30 3880 C 361.699 1.58231 -3.22805 0
M  V30 3881 C 361.363 0.799074 -4.4996 0
M  V30 3882 C 362.36 0.1079 -5.19788 0
M  V30 3883 C 360.045 0.759345 -4.96527 0
M  V30 3884 C 362.039 -0.612516 -6.3445 0
M  V30 3885 C 359.726 0.0351713 -6.1109 0
M  V30 3886 C 360.724 -0.649537 -6.79904 0
M  V30 3887 O 360.412 -1.36199 -7.92278 0
M  V30 3888 H 360.144 0.218257 -0.639797 0
M  V30 3889 H 362.698 0.0159295 -2.05394 0
M  V30 3890 H 360.928 2.36406 -3.06021 0
M  V30 3891 H 362.617 2.16898 -3.43089 0
M  V30 3892 H 363.383 0.129748 -4.84826 0
M  V30 3893 H 359.262 1.28177 -4.42822 0
M  V30 3894 H 362.806 -1.14751 -6.88097 0
M  V30 3895 H 358.703 0.0113314 -6.45499 0
M  V30 3896 H 359.471 -1.27366 -8.0853 0
M  V30 3897 N 362.134 1.5431 0.320358 0
M  V30 3898 C 363.55 1.45091 0.664889 0
M  V30 3899 C 363.75 0.626382 1.91517 0
M  V30 3900 O 362.806 0.126443 2.52183 0
M  V30 3901 C 364.119 2.88848 0.83591 0
M  V30 3902 C 365.667 2.9877 0.933046 0
M  V30 3903 C 366.142 4.43683 1.13621 0
M  V30 3904 N 367.633 4.47309 1.20287 0
M  V30 3905 C 368.368 5.56595 1.37801 0
M  V30 3906 N 367.864 6.75844 1.52338 0
M  V30 3907 N 369.657 5.44248 1.40535 0
M  V30 3908 H 361.808 2.06398 -0.501374 0
M  V30 3909 H 364.071 0.933963 -0.162534 0
M  V30 3910 H 363.777 3.51698 -0.0116092 0
M  V30 3911 H 363.651 3.35148 1.73078 0
M  V30 3912 H 366.038 2.36045 1.77107 0
M  V30 3913 H 366.119 2.55796 0.0145782 0
M  V30 3914 H 365.763 5.06995 0.303032 0
M  V30 3915 H 365.693 4.84269 2.0686 0
M  V30 3916 H 368.184 3.61388 1.10485 0
M  V30 3917 H 368.497 7.54892 1.65403 0
M  V30 3918 H 366.842 6.78746 1.4943 0
M  V30 3919 H 370.033 4.50038 1.28777 0
M  V30 3920 H 370.206 6.29473 1.53842 0
M  V30 3921 N 363.613 -0.582584 1.46437 0
M  V30 3922 C 364.523 -1.71949 1.59595 0
M  V30 3923 C 365.539 -1.67264 0.479443 0
M  V30 3924 O 366.715 -1.87171 0.743579 0
M  V30 3925 C 363.78 -3.08452 1.58298 0
M  V30 3926 C 362.841 -3.244 2.81182 0
M  V30 3927 C 362.074 -4.54391 2.79937 0
M  V30 3928 O 362.297 -5.38287 1.8869 0
M  V30 3929 O 361.231 -4.73588 3.71481 0
M  V30 3930 H 365.057 -1.63795 2.55744 0
M  V30 3931 H 362.642 -0.749643 1.29231 0
M  V30 3932 H 364.524 -3.89732 1.60271 0
M  V30 3933 H 363.199 -3.17043 0.653094 0
M  V30 3934 H 362.106 -2.42613 2.84763 0
M  V30 3935 H 363.439 -3.20699 3.7338 0
M  V30 3936 N 365.091 -1.34144 -0.827227 0
M  V30 3937 C 366.021 -1.28005 -1.95287 0
M  V30 3938 C 367.002 -0.158321 -1.69362 0
M  V30 3939 O 368.187 -0.349987 -1.9102 0
M  V30 3940 C 365.317 -1.03036 -3.31664 0
M  V30 3941 C 364.271 -2.11628 -3.72019 0
M  V30 3942 C 363.597 -1.71854 -5.0633 0
M  V30 3943 C 364.897 -3.53417 -3.8457 0
M  V30 3944 H 366.591 -2.22187 -2.00682 0
M  V30 3945 H 364.137 -1.0696 -0.964135 0
M  V30 3946 H 366.09 -0.973863 -4.09993 0
M  V30 3947 H 364.814 -0.0529391 -3.26557 0
M  V30 3948 H 363.473 -2.16339 -2.95961 0
M  V30 3949 H 363.121 -0.727841 -4.97706 0
M  V30 3950 H 362.821 -2.44531 -5.34302 0
M  V30 3951 H 364.345 -1.67692 -5.87122 0
M  V30 3952 H 365.759 -3.51142 -4.5318 0
M  V30 3953 H 364.156 -4.24679 -4.2399 0
M  V30 3954 H 365.226 -3.91072 -2.86689 0
M  V30 3955 N 366.569 1.04691 -1.17803 0
M  V30 3956 C 367.517 2.14665 -0.895635 0
M  V30 3957 C 368.511 1.68806 0.141679 0
M  V30 3958 O 369.717 1.79999 -0.00587914 0
M  V30 3959 H 366.092 0.701038 -0.272121 0
M  V30 3960 H 368.063 2.35685 -1.83017 0
M  V30 3961 C 366.812 3.45019 -0.430962 0
M  V30 3962 H 366.135 3.8071 -1.22064 0
M  V30 3963 H 367.575 4.23125 -0.272301 0
M  V30 3964 C 366.034 3.25943 0.852207 0
M  V30 3965 O 366.564 3.5296 1.91786 0
M  V30 3966 N 364.77 2.79304 0.802346 0
M  V30 3967 H 364.317 2.57518 -0.0650788 0
M  V30 3968 H 364.275 2.66921 1.66134 0
M  V30 3969 N 368.047 0.979072 1.23499 0
M  V30 3970 C 368.995 0.510604 2.26926 0
M  V30 3971 C 369.989 -0.431691 1.63807 0
M  V30 3972 O 371.195 -0.30573 1.77385 0
M  V30 3973 H 367.57 0.146688 0.737554 0
M  V30 3974 H 369.541 1.39466 2.63803 0
M  V30 3975 C 368.29 -0.172658 3.47271 0
M  V30 3976 H 367.613 0.543331 3.96091 0
M  V30 3977 H 369.053 -0.464101 4.21452 0
M  V30 3978 C 367.512 -1.40345 3.06276 0
M  V30 3979 O 368.042 -2.49978 3.14442 0
M  V30 3980 N 366.248 -1.27362 2.61203 0
M  V30 3981 H 365.795 -0.381584 2.54758 0
M  V30 3982 H 365.753 -2.09822 2.34141 0
M  V30 3983 N 369.525 -1.3858 0.750561 0
M  V30 3984 C 370.488 -2.28836 0.129152 0
M  V30 3985 C 371.488 -1.47045 -0.650714 0
M  V30 3986 O 372.678 -1.6753 -0.477428 0
M  V30 3987 C 369.81 -3.30751 -0.825622 0
M  V30 3988 H 371.003 -2.85294 0.924516 0
M  V30 3989 H 368.556 -1.47489 0.517376 0
M  V30 3990 H 369.291 -2.79378 -1.64677 0
M  V30 3991 H 369.076 -3.91177 -0.268852 0
M  V30 3992 H 370.566 -3.98249 -1.2565 0
M  V30 3993 N 371.003 -0.499398 -1.49478 0
M  V30 3994 C 372.249 0.0457576 -2.02748 0
M  V30 3995 C 372.582 1.36793 -1.37846 0
M  V30 3996 O 371.857 1.87596 -0.513601 0
M  V30 3997 C 372.14 0.199986 -3.59544 0
M  V30 3998 C 371.993 -1.1452 -4.34977 0
M  V30 3999 C 373.312 0.94137 -4.29914 0
M  V30 4000 H 370.431 0.0151552 -0.736844 0
M  V30 4001 H 373.073 -0.650498 -1.78518 0
M  V30 4002 H 371.223 0.793007 -3.8032 0
M  V30 4003 H 372.895 -1.77697 -4.25701 0
M  V30 4004 H 371.138 -1.73488 -3.97598 0
M  V30 4005 H 371.809 -0.990607 -5.43039 0
M  V30 4006 H 374.285 0.43844 -4.13784 0
M  V30 4007 H 373.161 1.01812 -5.39375 0
M  V30 4008 H 373.422 1.98471 -3.95046 0
M  V30 4009 N 372.481 1.55866 -0.233164 0
M  V30 4010 C 373.444 2.1953 0.658715 0
M  V30 4011 C 374.444 1.16053 1.11303 0
M  V30 4012 O 375.634 1.41218 1.01996 0
M  V30 4013 C 372.766 2.82791 1.90373 0
M  V30 4014 H 373.959 2.99721 0.10347 0
M  V30 4015 H 371.512 1.56291 0.0164245 0
M  V30 4016 H 372.247 2.06501 2.50056 0
M  V30 4017 H 372.032 3.58578 1.58632 0
M  V30 4018 H 373.522 3.31556 2.53891 0
M  V30 4019 N 373.959 -0.0401083 1.57549 0
M  V30 4020 C 375.206 -0.733125 1.88763 0
M  V30 4021 C 375.534 -1.75946 0.829058 0
M  V30 4022 O 374.789 -1.94949 -0.171323 0
M  V30 4023 C 375.088 -1.44902 3.26708 0
M  V30 4024 C 374.754 -0.559707 4.47413 0
M  V30 4025 C 373.416 -0.314731 4.8017 0
M  V30 4026 C 375.768 0.0549743 5.21171 0
M  V30 4027 C 373.096 0.553886 5.8408 0
M  V30 4028 C 375.448 0.911229 6.26003 0
M  V30 4029 C 374.112 1.16577 6.57241 0
M  V30 4030 H 373.382 -0.268269 0.690733 0
M  V30 4031 H 376.029 0.00679408 1.91499 0
M  V30 4032 H 374.334 -2.26197 3.1991 0
M  V30 4033 H 376.031 -1.99058 3.48105 0
M  V30 4034 H 372.621 -0.760793 4.21794 0
M  V30 4035 H 376.805 -0.121344 4.96152 0
M  V30 4036 H 372.061 0.759518 6.06664 0
M  V30 4037 H 376.235 1.3941 6.82303 0
M  V30 4038 H 373.862 1.84058 7.37582 0
M  V30 4039 N 375.437 -1.54477 -0.31217 0
M  V30 4040 C 376.385 -1.85395 -1.40469 0
M  V30 4041 C 377.379 -0.726749 -1.53019 0
M  V30 4042 O 378.585 -0.910582 -1.55269 0
M  V30 4043 H 374.96 -0.587845 -0.46898 0
M  V30 4044 H 376.931 -2.76736 -1.11623 0
M  V30 4045 C 375.68 -2.10811 -2.76503 0
M  V30 4046 H 375.003 -2.97014 -2.67625 0
M  V30 4047 H 376.443 -2.3639 -3.51988 0
M  V30 4048 C 374.902 -0.903165 -3.24568 0
M  V30 4049 O 375.432 -0.118085 -4.01526 0
M  V30 4050 N 373.638 -0.711634 -2.81752 0
M  V30 4051 H 373.185 -1.35171 -2.19286 0
M  V30 4052 H 373.143 0.0930473 -3.14262 0
M  V30 4053 N 376.915 0.57481 -1.46744 0
M  V30 4054 C 377.862 1.68329 -1.57905 0
M  V30 4055 C 378.832 1.60625 -0.422927 0
M  V30 4056 O 380.017 1.79721 -0.640711 0
M  V30 4057 C 377.157 3.06665 -1.58274 0
M  V30 4058 C 376.27 3.24935 -2.84678 0
M  V30 4059 C 375.405 4.53566 -2.76499 0
M  V30 4060 C 374.444 4.65207 -3.97806 0
M  V30 4061 N 373.581 5.85172 -3.87967 0
M  V30 4062 H 378.421 1.58127 -2.52587 0
M  V30 4063 H 375.958 0.770552 -1.25303 0
M  V30 4064 H 377.916 3.86745 -1.56473 0
M  V30 4065 H 376.546 3.15745 -0.671194 0
M  V30 4066 H 375.598 2.38405 -2.96424 0
M  V30 4067 H 376.91 3.29403 -3.7456 0
M  V30 4068 H 376.064 5.41885 -2.72848 0
M  V30 4069 H 374.803 4.51548 -1.8427 0
M  V30 4070 H 373.808 3.75304 -4.0178 0
M  V30 4071 H 375.033 4.68997 -4.9114 0
M  V30 4072 H 372.979 5.84137 -2.98529 0
M  V30 4073 H 372.896 5.90943 -4.71511 0
M  V30 4074 H 374.164 6.759 -3.88303 0
M  V30 4075 N 378.394 1.34581 0.820102 0
M  V30 4076 C 379.357 1.2628 1.91275 0
M  V30 4077 C 380.357 0.177344 1.59819 0
M  V30 4078 O 381.547 0.430156 1.68806 0
M  V30 4079 C 378.679 0.950327 3.27386 0
M  V30 4080 H 379.872 2.23421 2.00057 0
M  V30 4081 H 377.425 1.1891 1.0144 0
M  V30 4082 H 378.16 -0.0177938 3.24295 0
M  V30 4083 H 377.945 1.73549 3.51601 0
M  V30 4084 H 379.435 0.917492 4.07396 0
M  V30 4085 N 379.872 -1.04064 1.18357 0
M  V30 4086 C 380.782 -2.15569 0.925596 0
M  V30 4087 C 381.798 -1.7365 -0.110295 0
M  V30 4088 O 382.974 -2.01273 0.0716218 0
M  V30 4089 C 380.039 -3.43704 0.454836 0
M  V30 4090 C 379.1 -4.00004 1.55869 0
M  V30 4091 C 378.333 -5.22023 1.1103 0
M  V30 4092 O 378.556 -5.70392 -0.0309756 0
M  V30 4093 O 377.49 -5.70856 1.90805 0
M  V30 4094 H 381.316 -2.40187 1.8586 0
M  V30 4095 H 378.901 -1.1402 0.965394 0
M  V30 4096 H 380.783 -4.20923 0.200382 0
M  V30 4097 H 379.458 -3.20559 -0.449876 0
M  V30 4098 H 378.365 -3.24172 1.86716 0
M  V30 4099 H 379.698 -4.2749 2.43953 0
M  V30 4100 N 381.35 -0.985608 -1.22978 0
M  V30 4101 C 382.575 -0.675254 -1.961 0
M  V30 4102 C 383 0.752154 -1.72407 0
M  V30 4103 O 382.358 1.5131 -0.998751 0
M  V30 4104 C 382.406 -0.977899 -3.47087 0
M  V30 4105 O 381.51 -0.072685 -4.12336 0
M  V30 4106 H 380.851 -0.253443 -0.613728 0
M  V30 4107 H 383.381 -1.32061 -1.56272 0
M  V30 4108 H 383.391 -0.916739 -3.97567 0
M  V30 4109 H 382.066 -2.01807 -3.63657 0
M  V30 4110 H 380.643 -0.188703 -3.72422 0
M  V30 4111 N 382.828 1.3818 -0.7579 0
M  V30 4112 C 384.076 1.99624 -0.315361 0
M  V30 4113 C 384.397 1.60464 1.10799 0
M  V30 4114 O 383.667 0.863507 1.75842 0
M  V30 4115 H 382.247 0.73831 -0.113611 0
M  V30 4116 H 384.909 1.68878 -0.972952 0
M  V30 4117 H 384.005 3.09754 -0.381931 0
M  V30 4118 N 384.306 0.507319 1.49211 0
M  V30 4119 C 385.531 -0.033725 2.07373 0
M  V30 4120 C 385.956 -1.29485 1.36437 0
M  V30 4121 O 385.314 -1.76294 0.423087 0
M  V30 4122 C 385.362 -0.263945 3.59633 0
M  V30 4123 O 384.466 -1.33737 3.90113 0
M  V30 4124 H 383.807 0.0290331 0.663365 0
M  V30 4125 H 386.337 0.708749 1.91932 0
M  V30 4126 H 386.347 -0.493536 4.05004 0
M  V30 4127 H 385.022 0.657424 4.10671 0
M  V30 4128 H 383.599 -1.09224 3.56545 0
M  V30 4129 N 385.784 -1.5574 0.241426 0
M  V30 4130 C 386.747 -2.19877 -0.647063 0
M  V30 4131 C 387.747 -1.16642 -1.10686 0
M  V30 4132 O 388.937 -1.41757 -1.01245 0
M  V30 4133 C 386.069 -2.83797 -1.88871 0
M  V30 4134 H 387.262 -2.99772 -0.087574 0
M  V30 4135 H 384.815 -1.56298 -0.00813574 0
M  V30 4136 H 385.55 -2.07824 -2.48957 0
M  V30 4137 H 385.335 -3.59414 -1.56728 0
M  V30 4138 H 386.825 -3.32898 -2.52129 0
M  V30 4139 N 387.262 0.0317525 -1.57568 0
M  V30 4140 C 388.508 0.724175 -1.8943 0
M  V30 4141 C 388.841 1.75149 -0.838836 0
M  V30 4142 O 388.116 1.93948 0.146422 0
M  V30 4143 C 388.399 1.39615 -3.31933 0
M  V30 4144 C 388.252 0.382537 -4.4817 0
M  V30 4145 C 389.571 2.33084 -3.73309 0
M  V30 4146 H 386.69 0.261797 -0.688935 0
M  V30 4147 H 389.332 -0.013017 -1.89996 0
M  V30 4148 H 387.482 2.02451 -3.31581 0
M  V30 4149 H 389.154 -0.243689 -4.60656 0
M  V30 4150 H 387.397 -0.29844 -4.32772 0
M  V30 4151 H 388.068 0.891145 -5.44759 0
M  V30 4152 H 390.544 1.80295 -3.7501 0
M  V30 4153 H 389.42 2.77084 -4.73831 0
M  V30 4154 H 389.681 3.19643 -3.05419 0
M  V30 4155 N 388.74 1.54641 0.303973 0
M  V30 4156 C 389.67 1.88386 1.3796 0
M  V30 4157 C 390.651 0.742485 1.5304 0
M  V30 4158 O 391.836 0.997959 1.66597 0
M  V30 4159 C 388.966 2.12854 2.74427 0
M  V30 4160 C 387.92 3.28702 2.74115 0
M  V30 4161 C 387.246 3.38582 4.13844 0
M  V30 4162 C 388.546 4.65881 2.3612 0
M  V30 4163 H 390.24 2.78474 1.09966 0
M  V30 4164 H 387.786 1.33988 0.527556 0
M  V30 4165 H 389.739 2.35047 3.49758 0
M  V30 4166 H 388.463 1.19535 3.03939 0
M  V30 4167 H 387.122 3.06428 2.0124 0
M  V30 4168 H 386.77 2.42784 4.40528 0
M  V30 4169 H 386.47 4.16453 4.14537 0
M  V30 4170 H 387.994 3.63031 4.90959 0
M  V30 4171 H 389.408 4.87823 3.01167 0
M  V30 4172 H 387.805 5.46444 2.48031 0
M  V30 4173 H 388.875 4.66799 1.3125 0
M  V30 4174 N 390.218 -0.567019 1.47046 0
M  V30 4175 C 391.464 -1.32658 1.53394 0
M  V30 4176 C 391.797 -1.93254 0.19148 0
M  V30 4177 O 391.072 -1.77338 -0.798844 0
M  V30 4178 C 391.355 -2.44412 2.64452 0
M  V30 4179 C 391.208 -1.88749 4.08282 0
M  V30 4180 C 392.527 -3.46387 2.71485 0
M  V30 4181 H 389.646 -0.48098 0.558415 0
M  V30 4182 H 392.288 -0.635481 1.79058 0
M  V30 4183 H 390.438 -3.03363 2.427 0
M  V30 4184 H 392.11 -1.34134 4.41368 0
M  V30 4185 H 390.353 -1.19481 4.17021 0
M  V30 4186 H 391.024 -2.69491 4.81745 0
M  V30 4187 H 393.5 -2.9734 2.91081 0
M  V30 4188 H 392.376 -4.2202 3.50985 0
M  V30 4189 H 392.637 -4.04616 1.78153 0
M  V30 4190 N 391.696 -1.35014 -0.812953 0
M  V30 4191 C 392.973 -1.18502 -1.55617 0
M  V30 4192 C 393.353 0.238421 -2.09749 0
M  V30 4193 O 392.701 1.2411 -1.91857 0
M  V30 4194 C 392.911 -2.24783 -2.66971 0
M  V30 4195 C 394.259 -2.60268 -3.35478 0
M  V30 4196 O 395.283 -2.23648 -2.77236 0
M  V30 4197 O 394.142 -3.2321 -4.40678 0
M  V30 4198 H 391.236 -0.459984 -0.687272 0
M  V30 4199 H 393.782 -1.46677 -0.853464 0
M  V30 4200 H 392.554 -3.20284 -2.24798 0
M  V30 4201 H 392.177 -1.97841 -3.44884 0
M  V30 4202 N 393.175 1.03435 -1.18907 0
M  V30 4203 C 394.421 1.77005 -0.989798 0
M  V30 4204 C 394.754 1.88205 0.478816 0
M  V30 4205 O 394.029 1.39481 1.35556 0
M  V30 4206 C 394.312 3.19925 -1.65287 0
M  V30 4207 C 394.165 3.1663 -3.19477 0
M  V30 4208 C 395.484 4.18189 -1.37134 0
M  V30 4209 H 392.603 0.642538 -0.360991 0
M  V30 4210 H 395.245 1.20784 -1.46667 0
M  V30 4211 H 393.395 3.67929 -1.24741 0
M  V30 4212 H 395.067 2.76567 -3.692 0
M  V30 4213 H 393.31 2.54491 -3.51307 0
M  V30 4214 H 393.981 4.1758 -3.61013 0
M  V30 4215 H 396.457 3.78761 -1.72276 0
M  V30 4216 H 395.333 5.16394 -1.86087 0
M  V30 4217 H 395.594 4.41112 -0.295424 0
M  V30 4218 N 394.653 0.992116 1.22453 0
M  V30 4219 C 395.601 0.534644 2.26372 0
M  V30 4220 C 396.595 -0.414293 1.64256 0
M  V30 4221 O 397.801 -0.286899 1.77699 0
M  V30 4222 H 394.176 0.154502 0.735957 0
M  V30 4223 H 396.147 1.42256 2.62309 0
M  V30 4224 C 394.896 -0.135815 3.47435 0
M  V30 4225 H 394.219 0.585311 3.95492 0
M  V30 4226 H 395.659 -0.419374 4.21921 0
M  V30 4227 C 394.118 -1.37089 3.07747 0
M  V30 4228 O 394.648 -2.46629 3.17076 0
M  V30 4229 N 392.854 -1.24585 2.62539 0
M  V30 4230 H 392.401 -0.354542 2.55149 0
M  V30 4231 H 392.359 -2.07327 2.36353 0
M  V30 4232 N 396.131 -1.37776 0.765217 0
M  V30 4233 C 397.359 -2.04124 0.337767 0
M  V30 4234 C 397.774 -1.57715 -1.03785 0
M  V30 4235 O 397.131 -0.755447 -1.6613 0
M  V30 4236 C 397.182 -3.59658 0.364442 0
M  V30 4237 O 396.903 -4.04367 1.68579 0
M  V30 4238 C 398.404 -4.43236 -0.0754221 0
M  V30 4239 H 395.624 -0.655696 0.142491 0
M  V30 4240 H 398.168 -1.76238 1.03732 0
M  V30 4241 H 396.323 -3.86339 -0.286471 0
M  V30 4242 H 396.737 -4.98857 1.61993 0
M  V30 4243 H 398.211 -5.52 -0.00560067 0
M  V30 4244 H 398.688 -4.2455 -1.12491 0
M  V30 4245 H 399.294 -4.21767 0.547055 0
M  V30 4246 N 397.609 -0.515225 -1.4894 0
M  V30 4247 C 398.857 0.0241671 -2.02086 0
M  V30 4248 C 399.178 1.3616 -1.3959 0
M  V30 4249 O 398.448 1.87841 -0.556121 0
M  V30 4250 H 397.028 0.0119203 -0.746905 0
M  V30 4251 H 399.69 -0.675702 -1.82812 0
M  V30 4252 H 398.786 0.143385 -3.1177 0
M  V30 4253 N 399.087 1.5561 -0.249682 0
M  V30 4254 C 399.997 2.25143 0.659375 0
M  V30 4255 C 401.013 1.2685 1.19101 0
M  V30 4256 O 402.189 1.59732 1.22669 0
M  V30 4257 C 399.254 2.93945 1.8384 0
M  V30 4258 C 398.315 4.07655 1.34596 0
M  V30 4259 C 397.548 4.73167 2.46878 0
M  V30 4260 O 397.771 4.37768 3.65671 0
M  V30 4261 O 396.705 5.61623 2.16478 0
M  V30 4262 H 400.531 3.03545 0.0968698 0
M  V30 4263 H 398.116 1.49389 -0.018074 0
M  V30 4264 H 399.998 3.37271 2.52638 0
M  V30 4265 H 398.673 2.18481 2.38847 0
M  V30 4266 H 397.58 3.68839 0.625174 0
M  V30 4267 H 398.913 4.84946 0.841941 0
M  V30 4268 N 400.565 -0.0233959 1.57583 0
M  V30 4269 C 401.811 -0.714119 1.89811 0
M  V30 4270 C 402.144 -1.74702 0.848113 0
M  V30 4271 O 401.419 -1.94023 -0.136135 0
M  V30 4272 C 401.702 -1.37853 3.32669 0
M  V30 4273 C 401.555 -0.358764 4.48367 0
M  V30 4274 C 402.874 -2.31101 3.7454 0
M  V30 4275 H 399.993 -0.25814 0.690314 0
M  V30 4276 H 402.635 0.0230927 1.89986 0
M  V30 4277 H 400.785 -2.00689 3.3265 0
M  V30 4278 H 402.457 0.268115 4.6052 0
M  V30 4279 H 400.7 0.321387 4.32608 0
M  V30 4280 H 401.371 -0.862242 5.45224 0
M  V30 4281 H 403.847 -1.78304 3.75961 0
M  V30 4282 H 402.723 -2.74567 4.75294 0
M  V30 4283 H 402.984 -3.18018 3.0711 0
M  V30 4284 N 402.043 -1.548 -0.295768 0
M  V30 4285 C 402.973 -1.89115 -1.36959 0
M  V30 4286 C 403.954 -0.75059 -1.52644 0
M  V30 4287 O 405.139 -1.00678 -1.66065 0
M  V30 4288 C 402.269 -2.14307 -2.73295 0
M  V30 4289 C 401.223 -3.30151 -2.72368 0
M  V30 4290 C 400.549 -3.40772 -4.12042 0
M  V30 4291 C 401.849 -4.67126 -2.33646 0
M  V30 4292 H 403.543 -2.79053 -1.08488 0
M  V30 4293 H 401.089 -1.34266 -0.520443 0
M  V30 4294 H 403.042 -2.36898 -3.48507 0
M  V30 4295 H 401.766 -1.21145 -3.03301 0
M  V30 4296 H 400.425 -3.0749 -1.99613 0
M  V30 4297 H 400.073 -2.45117 -4.39234 0
M  V30 4298 H 399.773 -4.18645 -4.12322 0
M  V30 4299 H 401.297 -3.6563 -4.89027 0
M  V30 4300 H 402.711 -4.89414 -2.98575 0
M  V30 4301 H 401.108 -5.47751 -2.45129 0
M  V30 4302 H 402.178 -4.67489 -1.28772 0
M  V30 4303 N 403.521 0.559213 -1.47345 0
M  V30 4304 C 404.484 1.64854 -1.59235 0
M  V30 4305 C 405.484 1.53851 -0.467607 0
M  V30 4306 O 406.674 1.58045 -0.732617 0
M  V30 4307 C 403.806 3.04388 -1.53496 0
M  V30 4308 H 404.999 1.55662 -2.56339 0
M  V30 4309 H 402.552 0.778973 -1.35505 0
M  V30 4310 H 403.287 3.19115 -0.577604 0
M  V30 4311 H 403.072 3.13783 -2.35123 0
M  V30 4312 H 404.562 3.83642 -1.6495 0
M  V30 4313 N 404.999 1.35443 0.805782 0
M  V30 4314 C 405.932 1.22783 1.92353 0
M  V30 4315 C 406.91 0.115543 1.62189 0
M  V30 4316 O 408.094 0.283778 1.86352 0
M  V30 4317 C 405.221 0.890746 3.26777 0
M  V30 4318 C 404.267 2.01519 3.75889 0
M  V30 4319 S 405.1 3.63101 3.93596 0
M  V30 4320 C 406.256 3.31472 5.30921 0
M  V30 4321 H 406.489 2.17394 2.02798 0
M  V30 4322 H 404.022 1.20669 0.963245 0
M  V30 4323 H 405.98 0.703068 4.04434 0
M  V30 4324 H 404.641 -0.0373152 3.14078 0
M  V30 4325 H 403.834 1.7335 4.7325 0
M  V30 4326 H 403.436 2.16124 3.05231 0
M  V30 4327 H 405.728 2.8435 6.1494 0
M  V30 4328 H 406.671 4.28036 5.64084 0
M  V30 4329 H 407.079 2.67221 4.97246 0
M  V30 4330 N 406.477 -1.02803 1.19454 0
M  V30 4331 C 407.44 -2.09264 0.934955 0
M  V30 4332 C 408.44 -1.60576 -0.0849015 0
M  V30 4333 O 409.63 -1.73554 0.149933 0
M  V30 4334 C 406.762 -3.38482 0.40531 0
M  V30 4335 H 407.955 -2.33726 1.87916 0
M  V30 4336 H 405.508 -1.19426 1.00832 0
M  V30 4337 H 406.243 -3.19689 -0.544899 0
M  V30 4338 H 406.028 -3.75142 1.14065 0
M  V30 4339 H 407.518 -4.16894 0.242806 0
M  V30 4340 N 407.956 -0.998596 -1.21925 0
M  V30 4341 C 408.904 -0.546641 -2.26085 0
M  V30 4342 C 409.898 0.405576 -1.64473 0
M  V30 4343 O 411.104 0.277471 -1.77849 0
M  V30 4344 H 407.479 -0.158403 -0.735127 0
M  V30 4345 H 409.45 -1.43645 -2.61551 0
M  V30 4346 C 408.199 0.117388 -3.47502 0
M  V30 4347 H 407.522 -0.606277 -3.95176 0
M  V30 4348 H 408.962 0.396993 -4.22137 0
M  V30 4349 C 407.421 1.35455 -3.0847 0
M  V30 4350 O 407.951 2.44944 -3.18379 0
M  V30 4351 N 406.157 1.23191 -2.63196 0
M  V30 4352 H 405.704 0.341006 -2.55333 0
M  V30 4353 H 405.662 2.06071 -2.37449 0
M  V30 4354 N 409.434 1.37368 -0.772513 0
M  V30 4355 C 410.659 2.0447 -0.347386 0
M  V30 4356 C 411.084 1.57882 1.0225 0
M  V30 4357 O 410.442 0.73941 1.65537 0
M  V30 4358 C 410.49 3.58369 -0.400479 0
M  V30 4359 O 409.594 4.0803 0.598789 0
M  V30 4360 H 408.935 0.646773 -0.15027 0
M  V30 4361 H 411.465 1.75667 -1.04892 0
M  V30 4362 H 411.475 4.07183 -0.258045 0
M  V30 4363 H 410.15 3.91633 -1.39986 0
M  V30 4364 H 408.727 3.70534 0.419411 0
M  V30 4365 N 410.912 0.523116 1.48665 0
M  V30 4366 C 412.323 0.0808997 1.86525 0
M  V30 4367 C 412.674 -1.33975 1.43336 0
M  V30 4368 O 411.799 -2.00221 0.821009 0
M  V30 4369 C 412.394 0.140037 3.3851 0
M  V30 4370 C 410.953 -0.246948 3.75589 0
M  V30 4371 C 410.1 0.502845 2.72703 0
M  V30 4372 H 413.051 0.734736 1.40667 0
M  V30 4373 H 413.072 -0.649945 3.74908 0
M  V30 4374 H 412.584 1.17412 3.69914 0
M  V30 4375 H 410.685 -1.28343 3.49798 0
M  V30 4376 H 410.798 0.0878859 4.79019 0
M  V30 4377 H 409.162 -0.0500581 2.54651 0
M  V30 4378 H 409.945 1.53743 3.0695 0
M  V30 4379 N 412.39 -1.55475 0.257931 0
M  V30 4380 C 413.615 -2.04064 -0.370488 0
M  V30 4381 C 414.04 -1.13565 -1.49948 0
M  V30 4382 O 413.398 -0.130781 -1.80828 0
M  V30 4383 C 413.446 -3.50554 -0.845237 0
M  V30 4384 O 412.55 -3.63173 -1.95394 0
M  V30 4385 H 411.891 -0.659257 -0.0792243 0
M  V30 4386 H 414.421 -2.00903 0.387212 0
M  V30 4387 H 414.431 -3.91588 -1.14555 0
M  V30 4388 H 413.106 -4.15896 -0.0191259 0
M  V30 4389 H 411.683 -3.34039 -1.65748 0
M  V30 4390 N 413.868 0.0150385 -1.57593 0
M  V30 4391 C 415.098 0.713359 -1.93894 0
M  V30 4392 C 415.506 1.68663 -0.857289 0
M  V30 4393 O 414.849 1.82876 0.173788 0
M  V30 4394 C 414.911 1.51348 -3.26089 0
M  V30 4395 C 414.575 0.703451 -4.51554 0
M  V30 4396 C 415.572 -0.00237924 -5.199 0
M  V30 4397 C 413.257 0.653854 -4.98026 0
M  V30 4398 C 415.251 -0.746955 -6.33008 0
M  V30 4399 C 412.938 -0.0944578 -6.11027 0
M  V30 4400 C 413.936 -0.793609 -6.78374 0
M  V30 4401 O 413.624 -1.52974 -7.89211 0
M  V30 4402 H 413.356 0.204637 -0.644282 0
M  V30 4403 H 415.91 -0.0276411 -2.05381 0
M  V30 4404 H 414.14 2.29862 -3.10967 0
M  V30 4405 H 415.829 2.09572 -3.47612 0
M  V30 4406 H 416.595 0.0268803 -4.84993 0
M  V30 4407 H 412.474 1.18756 -4.45441 0
M  V30 4408 H 416.018 -1.2932 -6.85509 0
M  V30 4409 H 411.915 -0.125591 -6.45378 0
M  V30 4410 H 412.683 -1.44488 -8.05646 0
M  V30 4411 N 415.346 1.54954 0.287554 0
M  V30 4412 C 416.294 1.87606 1.37502 0
M  V30 4413 C 417.288 0.751001 1.51843 0
M  V30 4414 O 418.494 0.935169 1.53801 0
M  V30 4415 H 414.869 0.595231 0.459569 0
M  V30 4416 H 416.84 2.78477 1.07206 0
M  V30 4417 C 415.589 2.15183 2.73115 0
M  V30 4418 H 414.912 3.01234 2.62866 0
M  V30 4419 H 416.352 2.4196 3.48183 0
M  V30 4420 C 414.811 0.954686 3.2309 0
M  V30 4421 O 415.341 0.181949 4.01288 0
M  V30 4422 N 413.547 0.756368 2.80584 0
M  V30 4423 H 413.094 1.38643 2.17108 0
M  V30 4424 H 413.052 -0.0430391 3.14371 0
M  V30 4425 N 416.824 -0.551391 1.4764 0
M  V30 4426 C 418.235 -1.13349 1.48354 0
M  V30 4427 C 418.586 -1.94709 0.241432 0
M  V30 4428 O 417.711 -2.06306 -0.653205 0
M  V30 4429 C 418.306 -2.0623 2.68802 0
M  V30 4430 C 416.865 -2.597 2.72457 0
M  V30 4431 C 416.012 -1.36201 2.41546 0
M  V30 4432 H 418.963 -0.337698 1.55065 0
M  V30 4433 H 418.984 -2.90196 2.46103 0
M  V30 4434 H 418.496 -1.46987 3.59188 0
M  V30 4435 H 416.597 -3.22724 1.86225 0
M  V30 4436 H 416.71 -3.00296 3.73308 0
M  V30 4437 H 415.074 -1.67068 1.9225 0
M  V30 4438 H 415.857 -0.787425 3.34147 0
M  V30 4439 N 418.302 -1.35869 -0.798587 0
M  V30 4440 C 419.25 -1.29491 -1.93222 0
M  V30 4441 C 420.244 -0.18836 -1.6835 0
M  V30 4442 O 421.45 -0.354822 -1.76468 0
M  V30 4443 H 417.825 -0.402901 -0.63496 0
M  V30 4444 H 419.796 -2.25247 -1.9572 0
M  V30 4445 C 418.545 -1.09184 -3.30112 0
M  V30 4446 H 417.868 -1.93574 -3.49813 0
M  V30 4447 H 419.308 -1.08766 -4.09812 0
M  V30 4448 C 417.767 0.203959 -3.36282 0
M  V30 4449 O 418.297 1.19699 -3.83451 0
M  V30 4450 N 416.503 0.245488 -2.89561 0
M  V30 4451 H 416.05 -0.563223 -2.51367 0
M  V30 4452 H 416.008 1.11219 -2.94071 0
M  V30 4453 N 419.78 1.02168 -1.19998 0
M  V30 4454 C 420.728 2.12717 -0.940967 0
M  V30 4455 C 421.722 1.69069 0.105841 0
M  V30 4456 O 422.928 1.79946 -0.0440583 0
M  V30 4457 H 419.303 0.695108 -0.28693 0
M  V30 4458 H 421.274 2.3175 -1.87975 0
M  V30 4459 C 420.023 3.44027 -0.504049 0
M  V30 4460 H 419.346 3.78036 -1.30112 0
M  V30 4461 H 420.786 4.22452 -0.361991 0
M  V30 4462 C 419.245 3.27678 0.782878 0
M  V30 4463 O 419.775 3.56949 1.84256 0
M  V30 4464 N 417.981 2.80943 0.742921 0
M  V30 4465 H 417.528 2.57322 -0.119687 0
M  V30 4466 H 417.486 2.70385 1.60435 0
M  V30 4467 N 421.258 1.00505 1.21394 0
M  V30 4468 C 422.188 0.585684 2.26035 0
M  V30 4469 C 423.169 -0.393525 1.65485 0
M  V30 4470 O 424.354 -0.281497 1.92149 0
M  V30 4471 C 421.484 -0.0884283 3.47187 0
M  V30 4472 C 420.438 0.810567 4.20254 0
M  V30 4473 C 419.764 0.00286382 5.347 0
M  V30 4474 C 421.064 2.1132 4.77641 0
M  V30 4475 H 422.758 1.46039 2.61368 0
M  V30 4476 H 420.304 0.703648 1.25638 0
M  V30 4477 H 422.257 -0.393286 4.19561 0
M  V30 4478 H 420.981 -0.997766 3.10986 0
M  V30 4479 H 419.64 1.09925 3.49731 0
M  V30 4480 H 419.288 -0.907765 4.94741 0
M  V30 4481 H 418.988 0.601444 5.84514 0
M  V30 4482 H 420.512 -0.295808 6.09883 0
M  V30 4483 H 421.926 1.87148 5.41893 0
M  V30 4484 H 420.323 2.66164 5.37845 0
M  V30 4485 H 421.393 2.78393 3.9702 0
M  V30 4486 N 422.737 -1.36956 0.779787 0
M  V30 4487 C 423.962 -2.04283 0.358224 0
M  V30 4488 C 424.387 -1.58422 -1.01411 0
M  V30 4489 O 423.745 -0.748179 -1.65142 0
M  V30 4490 C 423.793 -3.58152 0.419479 0
M  V30 4491 O 422.897 -4.08342 -0.577142 0
M  V30 4492 H 422.238 -0.645967 0.153698 0
M  V30 4493 H 424.768 -1.75108 1.05822 0
M  V30 4494 H 424.778 -4.07041 0.279636 0
M  V30 4495 H 423.453 -3.90886 1.42061 0
M  V30 4496 H 422.03 -3.70751 -0.399755 0
M  V30 4497 N 424.215 -0.530993 -1.48385 0
M  V30 4498 C 425.463 0.00273189 -2.021 0
M  V30 4499 C 425.784 1.34672 -1.41027 0
M  V30 4500 O 425.054 1.8724 -0.576012 0
M  V30 4501 H 423.634 0.00399774 -0.746989 0
M  V30 4502 H 426.296 -0.695054 -1.82085 0
M  V30 4503 H 425.392 0.11031 -3.11905 0
M  V30 4504 N 425.693 1.55336 -0.266172 0
M  V30 4505 C 426.921 2.03801 0.356756 0
M  V30 4506 C 427.336 1.14485 1.50129 0
M  V30 4507 O 426.693 0.163121 1.8177 0
M  V30 4508 C 426.744 3.51455 0.846281 0
M  V30 4509 O 426.465 4.37371 -0.252663 0
M  V30 4510 C 427.966 4.15767 1.53794 0
M  V30 4511 H 425.186 0.665906 0.0825218 0
M  V30 4512 H 427.73 2.00636 -0.39566 0
M  V30 4513 H 425.885 3.55092 1.54881 0
M  V30 4514 H 426.299 5.24358 0.122173 0
M  V30 4515 H 427.773 5.20714 1.83198 0
M  V30 4516 H 428.25 3.63404 2.46646 0
M  V30 4517 H 428.856 4.16107 0.879488 0
M  V30 4518 N 427.171 -0.0066808 1.57599 0
M  V30 4519 C 428.582 -0.550379 1.78403 0
M  V30 4520 C 428.933 -1.74339 0.900014 0
M  V30 4521 O 428.058 -2.16166 0.100713 0
M  V30 4522 C 428.653 -1.00523 3.23544 0
M  V30 4523 C 427.212 -1.49428 3.45468 0
M  V30 4524 C 426.359 -0.442444 2.73748 0
M  V30 4525 H 429.31 0.219508 1.57175 0
M  V30 4526 H 429.331 -1.87157 3.31289 0
M  V30 4527 H 428.843 -0.136735 3.87859 0
M  V30 4528 H 426.944 -2.3839 2.86358 0
M  V30 4529 H 427.057 -1.52635 4.54136 0
M  V30 4530 H 425.421 -0.902578 2.38171 0
M  V30 4531 H 426.204 0.416973 3.40758 0
M  V30 4532 N 428.649 -1.55105 -0.279332 0
M  V30 4533 C 429.596 -1.8755 -1.34513 0
M  V30 4534 C 430.566 -0.726384 -1.49375 0
M  V30 4535 O 431.751 -0.977063 -1.63884 0
M  V30 4536 C 428.891 -2.14738 -2.70151 0
M  V30 4537 C 428.004 -3.42285 -2.63562 0
M  V30 4538 C 427.139 -3.59206 -3.91337 0
M  V30 4539 C 426.178 -4.80467 -3.79233 0
M  V30 4540 N 425.315 -4.94079 -4.98829 0
M  V30 4541 H 430.155 -2.78456 -1.06143 0
M  V30 4542 H 427.692 -1.37867 -0.512936 0
M  V30 4543 H 429.65 -2.28501 -3.49061 0
M  V30 4544 H 428.28 -1.27075 -2.96735 0
M  V30 4545 H 427.332 -3.37029 -1.76397 0
M  V30 4546 H 428.644 -4.31328 -2.50515 0
M  V30 4547 H 427.798 -3.72751 -4.78687 0
M  V30 4548 H 426.537 -2.68337 -4.07243 0
M  V30 4549 H 425.542 -4.66932 -2.90266 0
M  V30 4550 H 426.767 -5.72765 -3.64852 0
M  V30 4551 H 424.713 -4.06139 -5.15158 0
M  V30 4552 H 424.63 -5.77156 -4.8829 0
M  V30 4553 H 425.898 -5.12003 -5.8777 0
M  V30 4554 N 430.127 0.543554 -1.4793 0
M  V30 4555 C 431.037 1.67657 -1.64098 0
M  V30 4556 C 432.053 1.65934 -0.523622 0
M  V30 4557 O 433.229 1.85133 -0.792943 0
M  V30 4558 C 430.294 3.04146 -1.66421 0
M  V30 4559 C 429.355 3.16831 -2.89684 0
M  V30 4560 C 428.588 4.46809 -2.91886 0
M  V30 4561 O 428.811 5.33095 -2.02895 0
M  V30 4562 O 427.745 4.63573 -3.83906 0
M  V30 4563 H 431.571 1.56957 -2.59997 0
M  V30 4564 H 429.156 0.715116 -1.31173 0
M  V30 4565 H 431.038 3.85346 -1.70548 0
M  V30 4566 H 429.713 3.152 -0.736923 0
M  V30 4567 H 428.62 2.34977 -2.91095 0
M  V30 4568 H 429.953 3.10687 -3.81752 0
M  V30 4569 N 431.605 1.3629 0.791371 0
M  V30 4570 C 432.568 1.30309 1.88553 0
M  V30 4571 C 433.568 0.211204 1.59407 0
M  V30 4572 O 434.758 0.465865 1.67855 0
M  V30 4573 C 431.89 1.01956 3.25297 0
M  V30 4574 H 433.083 2.27614 1.95273 0
M  V30 4575 H 430.636 1.21035 0.988953 0
M  V30 4576 H 431.371 0.050998 3.2426 0
M  V30 4577 H 431.156 1.80968 3.4784 0
M  V30 4578 H 432.646 1.0037 4.05359 0
M  V30 4579 N 433.083 -1.0153 1.20538 0
M  V30 4580 C 434.016 -2.09759 0.898695 0
M  V30 4581 C 434.994 -1.61909 -0.149733 0
M  V30 4582 O 436.178 -1.88486 -0.0230293 0
M  V30 4583 C 433.305 -3.36913 0.347512 0
M  V30 4584 C 432.351 -4.03655 1.37713 0
M  V30 4585 S 433.184 -4.47402 2.94265 0
M  V30 4586 C 434.34 -5.77756 2.40726 0
M  V30 4587 H 434.573 -2.3545 1.81523 0
M  V30 4588 H 432.106 -1.14665 1.03399 0
M  V30 4589 H 434.064 -4.10484 0.0360518 0
M  V30 4590 H 432.725 -3.09291 -0.547546 0
M  V30 4591 H 431.918 -4.9514 0.940872 0
M  V30 4592 H 431.52 -3.36313 1.63614 0
M  V30 4593 H 433.812 -6.52994 1.80569 0
M  V30 4594 H 434.755 -6.2618 3.30612 0
M  V30 4595 H 435.163 -5.34081 1.82806 0
M  V30 4596 N 434.561 -1.01147 -1.20859 0
M  V30 4597 C 435.977 -0.725422 -1.42161 0
M  V30 4598 C 436.177 0.696919 -1.89064 0
M  V30 4599 O 435.233 1.46539 -2.05627 0
M  V30 4600 C 436.546 -1.74678 -2.44761 0
M  V30 4601 C 438.094 -1.76433 -2.58535 0
M  V30 4602 C 438.569 -2.77481 -3.64374 0
M  V30 4603 N 440.06 -2.76189 -3.71852 0
M  V30 4604 C 440.795 -3.51035 -4.53389 0
M  V30 4605 N 440.291 -4.35541 -5.38773 0
M  V30 4606 N 442.084 -3.39655 -4.47873 0
M  V30 4607 H 434.235 -1.92979 -0.887282 0
M  V30 4608 H 436.498 -0.833327 -0.451962 0
M  V30 4609 H 436.204 -2.76551 -2.17285 0
M  V30 4610 H 436.078 -1.55472 -3.43669 0
M  V30 4611 H 438.465 -0.75248 -2.85345 0
M  V30 4612 H 438.546 -1.99712 -1.5984 0
M  V30 4613 H 438.19 -3.78827 -3.38308 0
M  V30 4614 H 438.12 -2.51466 -4.6268 0
M  V30 4615 H 440.611 -2.14885 -3.10858 0
M  V30 4616 H 440.924 -4.89432 -5.98061 0
M  V30 4617 H 439.269 -4.39621 -5.38292 0
M  V30 4618 H 442.46 -2.73063 -3.80203 0
M  V30 4619 H 442.633 -3.9824 -5.11184 0
M  V30 4620 N 436.039 1.36541 -0.78704 0
M  V30 4621 C 436.987 2.31965 -0.171724 0
M  V30 4622 C 437.981 1.55689 0.667631 0
M  V30 4623 O 439.187 1.70969 0.562981 0
M  V30 4624 H 435.562 0.751101 -0.0367545 0
M  V30 4625 H 437.533 2.81428 -0.992017 0
M  V30 4626 C 436.282 3.40968 0.680904 0
M  V30 4627 H 435.605 3.99775 0.0443961 0
M  V30 4628 H 437.045 4.10063 1.07815 0
M  V30 4629 C 435.504 2.82338 1.83813 0
M  V30 4630 O 436.034 2.74311 2.93456 0
M  V30 4631 N 434.24 2.39661 1.6435 0
M  V30 4632 H 433.787 2.46389 0.751668 0
M  V30 4633 H 433.745 2.00779 2.4194 0
M  V30 4634 N 437.518 0.538854 1.48102 0
M  V30 4635 C 438.934 0.19732 1.58376 0
M  V30 4636 C 439.134 -1.29971 1.5398 0
M  V30 4637 O 438.19 -2.07861 1.43352 0
M  V30 4638 C 439.503 0.807716 2.89649 0
M  V30 4639 C 441.051 0.77726 3.03196 0
M  V30 4640 C 441.526 1.36639 4.37143 0
M  V30 4641 N 443.017 1.32875 4.43732 0
M  V30 4642 C 443.752 1.7544 5.45901 0
M  V30 4643 N 443.248 2.25776 6.54979 0
M  V30 4644 N 445.041 1.66623 5.36836 0
M  V30 4645 H 437.192 1.5117 1.49202 0
M  V30 4646 H 439.455 0.629327 0.708979 0
M  V30 4647 H 439.161 1.85909 2.98548 0
M  V30 4648 H 439.035 0.289975 3.76084 0
M  V30 4649 H 441.422 -0.265374 2.93904 0
M  V30 4650 H 441.503 1.33256 2.18349 0
M  V30 4651 H 441.147 2.408 4.47189 0
M  V30 4652 H 441.077 0.786689 5.20691 0
M  V30 4653 H 443.568 0.96037 3.65493 0
M  V30 4654 H 443.881 2.56226 7.29087 0
M  V30 4655 H 442.226 2.29775 6.55918 0
M  V30 4656 H 445.417 1.27089 4.50517 0
M  V30 4657 H 445.59 2.00115 6.16326 0
M  V30 4658 N 438.996 -1.55193 0.274407 0
M  V30 4659 C 440.224 -2.03987 -0.345943 0
M  V30 4660 C 440.639 -1.15279 -1.4952 0
M  V30 4661 O 439.996 -0.172759 -1.8168 0
M  V30 4662 C 440.047 -3.51898 -0.827631 0
M  V30 4663 O 439.768 -4.37231 0.275855 0
M  V30 4664 C 441.269 -4.16577 -1.51587 0
M  V30 4665 H 438.489 -0.666335 -0.0789892 0
M  V30 4666 H 441.033 -2.00423 0.406294 0
M  V30 4667 H 439.188 -3.55909 -1.52996 0
M  V30 4668 H 439.602 -5.24415 -0.0943638 0
M  V30 4669 H 441.076 -5.21678 -1.80433 0
M  V30 4670 H 441.553 -3.64707 -2.44716 0
M  V30 4671 H 442.159 -4.16568 -0.857409 0
M  V30 4672 N 440.474 -0.00167713 -1.576 0
M  V30 4673 C 441.723 0.682021 -1.89819 0
M  V30 4674 C 442.036 1.74844 -0.876871 0
M  V30 4675 O 443.242 2.48688 -1.08934 0
M  V30 4676 C 441.698 1.26425 -3.36964 0
M  V30 4677 C 441.306 0.232568 -4.47396 0
M  V30 4678 C 443.05 1.92604 -3.78291 0
M  V30 4679 C 440.957 0.824882 -5.85619 0
M  V30 4680 H 439.887 0.258499 -0.708304 0
M  V30 4681 H 442.538 -0.0624957 -1.83394 0
M  V30 4682 H 440.92 2.05949 -3.38232 0
M  V30 4683 H 442.094 -0.5382 -4.57646 0
M  V30 4684 H 440.409 -0.32888 -4.15099 0
M  V30 4685 H 443.006 2.37827 -4.78897 0
M  V30 4686 H 443.349 2.75732 -3.11894 0
M  V30 4687 H 443.882 1.19812 -3.79328 0
M  V30 4688 H 440.621 0.0323542 -6.55492 0
M  V30 4689 H 440.141 1.56477 -5.79029 0
M  V30 4690 H 441.82 1.32301 -6.33329 0
M  V30 4691 N 441.952 1.55251 0.271103 0
M  V30 4692 C 443.18 1.79974 1.02064 0
M  V30 4693 C 443.595 0.574003 1.79863 0
M  V30 4694 O 442.952 -0.456962 1.76686 0
M  V30 4695 C 443.003 3.02603 1.97772 0
M  V30 4696 O 442.724 4.20443 1.23124 0
M  V30 4697 C 444.225 3.39944 2.84522 0
M  V30 4698 H 441.445 0.599489 0.301419 0
M  V30 4699 H 443.989 2.02268 0.301313 0
M  V30 4700 H 442.144 2.8243 2.65165 0
M  V30 4701 H 442.558 4.89783 1.87651 0
M  V30 4702 H 444.032 4.28915 3.47471 0
M  V30 4703 H 444.509 2.59432 3.54389 0
M  V30 4704 H 445.115 3.62383 2.22618 0
M  V30 4705 N 443.43 -0.535701 1.48216 0
M  V30 4706 C 444.707 -1.29683 1.46429 0
M  V30 4707 C 445.087 -2.10391 0.172852 0
M  V30 4708 O 444.435 -2.12282 -0.845488 0
M  V30 4709 C 444.645 -2.18313 2.72287 0
M  V30 4710 C 445.993 -2.78639 3.20383 0
M  V30 4711 O 447.017 -2.28604 2.73164 0
M  V30 4712 O 445.876 -3.69636 4.02531 0
M  V30 4713 H 442.97 -0.585026 0.584529 0
M  V30 4714 H 445.516 -0.552827 1.60443 0
M  V30 4715 H 444.288 -1.58421 3.57797 0
M  V30 4716 H 443.911 -2.99971 2.60966 0
M  V30 4717 N 444.908 -1.36708 -0.784132 0
M  V30 4718 C 446.154 -1.31426 -1.54451 0
M  V30 4719 C 446.487 0.10476 -1.93917 0
M  V30 4720 O 445.762 1.05934 -1.6312 0
M  V30 4721 C 446.045 -2.24189 -2.818 0
M  V30 4722 C 445.898 -3.74813 -2.48667 0
M  V30 4723 C 447.217 -2.15626 -3.83658 0
M  V30 4724 H 444.336 -0.478739 -0.560337 0
M  V30 4725 H 446.978 -1.67305 -0.900498 0
M  V30 4726 H 445.128 -1.93722 -3.36755 0
M  V30 4727 H 446.8 -4.15823 -1.99722 0
M  V30 4728 H 445.043 -3.93989 -1.81535 0
M  V30 4729 H 445.714 -4.35138 -3.39646 0
M  V30 4730 H 448.19 -2.42456 -3.38163 0
M  V30 4731 H 447.066 -2.82694 -4.70506 0
M  V30 4732 H 447.327 -1.14522 -4.27009 0
M  V30 4733 N 446.386 1.0089 -1.21074 0
M  V30 4734 C 447.633 1.74607 -1.0256 0
M  V30 4735 C 447.961 1.89426 0.44136 0
M  V30 4736 O 447.216 1.42266 1.34384 0
M  V30 4737 C 447.515 3.16335 -1.66334 0
M  V30 4738 C 447.181 3.21474 -3.16173 0
M  V30 4739 C 445.843 3.22583 -3.57062 0
M  V30 4740 C 448.195 3.19025 -4.12156 0
M  V30 4741 C 445.523 3.18925 -4.92446 0
M  V30 4742 C 447.875 3.16909 -5.47496 0
M  V30 4743 C 446.539 3.16326 -5.87787 0
M  V30 4744 H 445.809 0.638933 -0.375294 0
M  V30 4745 H 448.456 1.18274 -1.50611 0
M  V30 4746 H 446.761 3.75876 -1.10566 0
M  V30 4747 H 448.458 3.72083 -1.49516 0
M  V30 4748 H 445.048 3.2135 -2.83605 0
M  V30 4749 H 449.232 3.17332 -3.81595 0
M  V30 4750 H 444.488 3.16809 -5.22917 0
M  V30 4751 H 448.662 3.13968 -6.21609 0
M  V30 4752 H 446.289 3.13246 -6.92662 0
M  V30 4753 N 447.864 1.01787 1.20321 0
M  V30 4754 C 448.774 0.598898 2.26827 0
M  V30 4755 C 449.79 -0.36418 1.70146 0
M  V30 4756 O 450.966 -0.224812 2.00141 0
M  V30 4757 C 448.031 -0.0549769 3.46656 0
M  V30 4758 C 447.092 0.954205 4.18561 0
M  V30 4759 C 446.325 0.331439 5.3267 0
M  V30 4760 O 446.548 -0.86851 5.63749 0
M  V30 4761 O 445.482 1.0488 5.92692 0
M  V30 4762 H 449.308 1.48562 2.64883 0
M  V30 4763 H 446.893 0.787434 1.26964 0
M  V30 4764 H 448.775 -0.420102 4.19301 0
M  V30 4765 H 447.45 -0.915876 3.10473 0
M  V30 4766 H 446.357 1.37072 3.48083 0
M  V30 4767 H 447.69 1.78511 4.58688 0
M  V30 4768 N 449.342 -1.36122 0.79427 0
M  V30 4769 C 450.753 -1.81646 0.431446 0
M  V30 4770 C 451.104 -1.66043 -1.04518 0
M  V30 4771 O 450.229 -1.1841 -1.8113 0
M  V30 4772 C 450.824 -3.29785 0.776341 0
M  V30 4773 C 449.383 -3.73501 0.466282 0
M  V30 4774 C 448.53 -2.58313 1.00844 0
M  V30 4775 H 451.481 -1.24274 0.986995 0
M  V30 4776 H 451.502 -3.80437 0.0692413 0
M  V30 4777 H 451.014 -3.4111 1.8511 0
M  V30 4778 H 449.115 -3.67733 -0.600245 0
M  V30 4779 H 449.228 -4.68754 0.990288 0
M  V30 4780 H 447.592 -2.5102 0.431406 0
M  V30 4781 H 448.375 -2.72421 2.08906 0
M  V30 4782 N 450.82 -0.546701 -1.47814 0
M  V30 4783 C 452.068 -0.0187037 -2.02091 0
M  V30 4784 C 452.389 1.33168 -1.42447 0
M  V30 4785 O 451.659 1.86619 -0.595839 0
M  V30 4786 H 450.239 -0.00392531 -0.74699 0
M  V30 4787 H 452.901 -0.714327 -1.81338 0
M  V30 4788 H 451.997 0.0772219 -3.12004 0
M  V30 4789 N 452.299 1.55045 -0.282633 0
M  V30 4790 C 453.524 2.04628 0.337977 0
M  V30 4791 C 453.949 1.15937 1.48123 0
M  V30 4792 O 453.307 0.159532 1.80597 0
M  V30 4793 C 453.355 3.51854 0.78936 0
M  V30 4794 O 452.459 3.66236 1.89592 0
M  V30 4795 H 451.8 0.660434 0.0687261 0
M  V30 4796 H 454.33 2.00261 -0.419124 0
M  V30 4797 H 454.34 3.93361 1.08311 0
M  V30 4798 H 453.015 4.15873 -0.0470419 0
M  V30 4799 H 451.592 3.36633 1.60413 0
M  V30 4800 N 453.777 0.010035 1.57597 0
M  V30 4801 C 455.005 -0.683413 1.95287 0
M  V30 4802 C 455.42 -1.66747 0.885481 0
M  V30 4803 O 454.777 -1.82003 -0.134629 0
M  V30 4804 C 454.828 -1.40652 3.33015 0
M  V30 4805 O 454.549 -0.461916 4.35658 0
M  V30 4806 C 456.05 -2.19356 3.85225 0
M  V30 4807 H 453.27 -0.189708 0.643624 0
M  V30 4808 H 455.814 0.0641359 2.04399 0
M  V30 4809 H 453.969 -2.10562 3.2518 0
M  V30 4810 H 454.383 -0.973215 5.15392 0
M  V30 4811 H 455.857 -2.65433 4.83993 0
M  V30 4812 H 456.334 -3.02457 3.18459 0
M  V30 4813 H 456.94 -1.54442 3.96267 0
M  V30 4814 N 455.255 -1.55392 -0.262866 0
M  V30 4815 C 456.501 -1.76737 -0.99458 0
M  V30 4816 C 456.834 -0.572453 -1.85571 0
M  V30 4817 O 456.109 0.429732 -1.89693 0
M  V30 4818 C 456.392 -3.07824 -1.8686 0
M  V30 4819 C 456.245 -4.3769 -1.03672 0
M  V30 4820 C 457.564 -3.35021 -2.85393 0
M  V30 4821 H 454.683 -0.643005 -0.360157 0
M  V30 4822 H 457.325 -1.88126 -0.266216 0
M  V30 4823 H 455.475 -2.98245 -2.48962 0
M  V30 4824 H 457.147 -4.59238 -0.43563 0
M  V30 4825 H 455.39 -4.32461 -0.340513 0
M  V30 4826 H 456.061 -5.25759 -1.6817 0
M  V30 4827 H 458.537 -3.44458 -2.33426 0
M  V30 4828 H 457.413 -4.27989 -3.43681 0
M  V30 4829 H 457.674 -2.55153 -3.61039 0
M  V30 4830 N 456.733 0.527833 -1.48498 0
M  V30 4831 C 457.68 1.6322 -1.6318 0
M  V30 4832 C 458.65 1.59199 -0.473815 0
M  V30 4833 O 459.835 1.77591 -0.697563 0
M  V30 4834 C 456.975 3.01474 -1.67951 0
M  V30 4835 C 456.088 3.15713 -2.94871 0
M  V30 4836 C 455.223 4.44539 -2.90789 0
M  V30 4837 C 454.262 4.52315 -4.12404 0
M  V30 4838 N 453.399 5.72533 -4.06387 0
M  V30 4839 H 458.239 1.50011 -2.57489 0
M  V30 4840 H 455.776 0.730298 -1.27691 0
M  V30 4841 H 457.734 3.81572 -1.68698 0
M  V30 4842 H 456.364 3.1345 -0.771306 0
M  V30 4843 H 455.416 2.28854 -3.03859 0
M  V30 4844 H 456.728 3.1732 -3.8485 0
M  V30 4845 H 455.882 5.3293 -2.89949 0
M  V30 4846 H 454.621 4.45457 -1.98542 0
M  V30 4847 H 453.626 3.62331 -4.13517 0
M  V30 4848 H 454.851 4.53134 -5.05812 0
M  V30 4849 H 452.797 5.74344 -3.16962 0
M  V30 4850 H 452.714 5.75643 -4.90073 0
M  V30 4851 H 453.982 6.63204 -4.0961 0
M  V30 4852 N 458.211 1.37122 0.776871 0
M  V30 4853 C 459.622 1.28667 1.35284 0
M  V30 4854 C 459.973 -0.0680035 1.96082 0
M  V30 4855 O 459.098 -0.969743 1.93455 0
M  V30 4856 C 459.693 2.32997 2.45963 0
M  V30 4857 C 458.252 2.28191 2.99342 0
M  V30 4858 C 457.399 2.17101 1.72517 0
M  V30 4859 H 460.35 1.47819 0.577527 0
M  V30 4860 H 460.371 1.97366 3.2531 0
M  V30 4861 H 459.883 3.3158 2.01684 0
M  V30 4862 H 457.984 1.33115 3.4801 0
M  V30 4863 H 458.097 3.21397 3.55304 0
M  V30 4864 H 456.461 1.63562 1.95242 0
M  V30 4865 H 457.244 3.17591 1.30348 0
M  V30 4866 N 459.689 -1.00246 1.21608 0
M  V30 4867 C 460.622 -2.08794 0.920892 0
M  V30 4868 C 461.6 -1.62059 -0.132552 0
M  V30 4869 O 462.784 -1.885 -0.0030366 0
M  V30 4870 C 459.911 -3.36525 0.383226 0
M  V30 4871 C 458.957 -4.02172 1.41987 0
M  V30 4872 S 459.79 -4.44256 2.98994 0
M  V30 4873 C 460.946 -5.7517 2.4684 0
M  V30 4874 H 461.179 -2.33511 1.8401 0
M  V30 4875 H 458.712 -1.13562 1.04609 0
M  V30 4876 H 460.67 -4.10423 0.0795871 0
M  V30 4877 H 459.331 -3.09854 -0.514711 0
M  V30 4878 H 458.524 -4.94114 0.993335 0
M  V30 4879 H 458.126 -3.34559 1.67171 0
M  V30 4880 H 460.418 -6.51042 1.87484 0
M  V30 4881 H 461.361 -6.22638 3.37235 0
M  V30 4882 H 461.769 -5.32112 1.88461 0
M  V30 4883 N 461.167 -1.02423 -1.1978 0
M  V30 4884 C 462.413 -0.719051 -1.89625 0
M  V30 4885 C 462.746 0.750083 -1.7913 0
M  V30 4886 O 462.021 1.54574 -1.18056 0
M  V30 4887 C 462.304 -1.16499 -3.40735 0
M  V30 4888 C 462.157 -2.695 -3.60125 0
M  V30 4889 C 463.476 -0.742166 -4.33797 0
M  V30 4890 H 460.595 -0.26269 -0.688595 0
M  V30 4891 H 463.237 -1.27333 -1.41018 0
M  V30 4892 H 461.387 -0.69341 -3.82262 0
M  V30 4893 H 463.059 -3.24569 -3.278 0
M  V30 4894 H 461.302 -3.10113 -3.03336 0
M  V30 4895 H 461.973 -2.95757 -4.66081 0
M  V30 4896 H 464.449 -1.1477 -3.99959 0
M  V30 4897 H 463.325 -1.08213 -5.38127 0
M  V30 4898 H 463.586 0.355747 -4.40666 0
M  V30 4899 N 462.645 1.35699 -0.801477 0
M  V30 4900 C 463.891 1.99208 -0.380022 0
M  V30 4901 C 464.224 1.63445 1.04878 0
M  V30 4902 O 463.499 0.895223 1.72673 0
M  V30 4903 C 463.782 3.55755 -0.557708 0
M  V30 4904 C 463.635 4.01332 -2.03107 0
M  V30 4905 C 464.954 4.40096 0.0197968 0
M  V30 4906 H 462.073 0.723667 -0.139552 0
M  V30 4907 H 464.715 1.60928 -1.01006 0
M  V30 4908 H 462.865 3.88494 -0.0213741 0
M  V30 4909 H 464.537 3.79026 -2.62939 0
M  V30 4910 H 462.78 3.52429 -2.52936 0
M  V30 4911 H 463.451 5.10234 -2.1063 0
M  V30 4912 H 465.927 4.13786 -0.438179 0
M  V30 4913 H 464.803 5.48735 -0.134477 0
M  V30 4914 H 465.064 4.2786 1.11303 0
M  V30 4915 N 464.123 0.554532 1.47522 0
M  V30 4916 C 465.056 -0.242442 2.26908 0
M  V30 4917 C 466.034 -0.922722 1.33883 0
M  V30 4918 O 467.218 -0.942244 1.63261 0
M  V30 4919 C 464.345 -1.34525 3.10839 0
M  V30 4920 C 463.391 -0.773805 4.19422 0
M  V30 4921 S 464.224 0.377525 5.34168 0
M  V30 4922 C 465.38 -0.727164 6.21662 0
M  V30 4923 H 465.613 0.431218 2.94156 0
M  V30 4924 H 463.146 0.3408 1.50592 0
M  V30 4925 H 465.104 -1.97683 3.59766 0
M  V30 4926 H 463.765 -1.99073 2.42958 0
M  V30 4927 H 462.958 -1.60187 4.77866 0
M  V30 4928 H 462.56 -0.218448 3.73361 0
M  V30 4929 H 464.852 -1.61992 6.57849 0
M  V30 4930 H 465.795 -0.180135 7.07871 0
M  V30 4931 H 466.203 -1.01863 5.55233 0
M  V30 4932 N 465.601 -1.54893 0.290851 0
M  V30 4933 C 466.829 -2.04343 -0.324288 0
M  V30 4934 C 467.244 -1.16859 -1.48289 0
M  V30 4935 O 466.601 -0.192018 -1.81487 0
M  V30 4936 C 466.652 -3.52756 -0.79026 0
M  V30 4937 O 466.373 -4.36913 0.322213 0
M  V30 4938 C 467.874 -4.18161 -1.4716 0
M  V30 4939 H 465.094 -0.667135 -0.0719173 0
M  V30 4940 H 467.638 -1.99981 0.427529 0
M  V30 4941 H 465.793 -3.57511 -1.49213 0
M  V30 4942 H 466.207 -5.24486 -0.0387372 0
M  V30 4943 H 467.681 -5.23562 -1.7489 0
M  V30 4944 H 468.158 -3.67282 -2.40834 0
M  V30 4945 H 468.764 -4.17454 -0.813178 0
M  V30 4946 N 467.08 -0.0183926 -1.57589 0
M  V30 4947 C 468.043 0.951986 -2.08494 0
M  V30 4948 C 469.043 1.26092 -0.997874 0
M  V30 4949 O 470.233 1.20304 -1.25987 0
M  V30 4950 C 467.365 2.27165 -2.54182 0
M  V30 4951 H 468.558 0.511307 -2.95509 0
M  V30 4952 H 466.111 0.229444 -1.54607 0
M  V30 4953 H 466.846 2.75884 -1.70465 0
M  V30 4954 H 466.631 2.06057 -3.33591 0
M  V30 4955 H 468.121 2.9674 -2.93828 0
M  V30 4956 N 468.558 1.5553 0.254621 0
M  V30 4957 C 469.488 1.9268 1.31897 0
M  V30 4958 C 470.469 0.790797 1.506 0
M  V30 4959 O 471.654 1.05045 1.63337 0
M  V30 4960 C 468.784 2.21477 2.67517 0
M  V30 4961 C 467.738 3.37256 2.63519 0
M  V30 4962 C 467.064 3.51576 4.02862 0
M  V30 4963 C 468.364 4.73157 2.21179 0
M  V30 4964 H 470.058 2.81832 1.01051 0
M  V30 4965 H 467.604 1.35599 0.484662 0
M  V30 4966 H 469.557 2.46055 3.42104 0
M  V30 4967 H 468.281 1.29144 2.99982 0
M  V30 4968 H 466.94 3.12675 1.9139 0
M  V30 4969 H 466.588 2.56676 4.32581 0
M  V30 4970 H 466.288 4.2943 4.01078 0
M  V30 4971 H 467.812 3.78467 4.79161 0
M  V30 4972 H 469.226 4.97158 2.85494 0
M  V30 4973 H 467.623 5.54058 2.30521 0
M  V30 4974 H 468.693 4.70739 1.16332 0
M  V30 4975 N 470.036 -0.519951 1.48776 0
M  V30 4976 C 470.968 -1.63973 1.60142 0
M  V30 4977 C 471.981 -1.55404 0.485117 0
M  V30 4978 O 473.17 -1.61682 0.756391 0
M  V30 4979 C 470.27 -3.02676 1.52449 0
M  V30 4980 C 469.443 -3.36624 2.79291 0
M  V30 4981 C 468.502 -4.54652 2.64912 0
M  V30 4982 O 467.528 -4.57374 3.38818 0
M  V30 4983 N 468.73 -5.53432 1.75195 0
M  V30 4984 H 471.495 -1.54656 2.56713 0
M  V30 4985 H 469.056 -0.707439 1.45626 0
M  V30 4986 H 471.048 -3.79525 1.4051 0
M  V30 4987 H 469.618 -3.06018 0.638125 0
M  V30 4988 H 468.838 -2.48855 3.0572 0
M  V30 4989 H 470.126 -3.56094 3.6342 0
M  V30 4990 H 469.524 -5.54018 1.14371 0
M  V30 4991 H 468.081 -6.29459 1.69189 0
M  V30 4992 N 471.514 -1.37532 -0.769588 0
M  V30 4993 C 472.93 -1.18379 -1.07045 0
M  V30 4994 C 473.13 -0.0214312 -2.01489 0
M  V30 4995 O 472.186 0.637809 -2.44312 0
M  V30 4996 C 473.499 -2.50338 -1.66588 0
M  V30 4997 C 475.047 -2.56879 -1.78835 0
M  V30 4998 C 475.522 -3.88974 -2.41792 0
M  V30 4999 N 477.013 -3.90428 -2.4924 0
M  V30 5000 C 477.748 -4.89388 -2.98809 0
M  V30 5001 N 477.244 -5.98745 -3.48535 0
M  V30 5002 N 479.037 -4.76791 -2.97703 0
M  V30 5003 H 471.188 -2.11921 -0.142541 0
M  V30 5004 H 473.451 -0.939608 -0.125863 0
M  V30 5005 H 473.157 -3.35767 -1.0466 0
M  V30 5006 H 473.031 -2.67583 -2.65856 0
M  V30 5007 H 475.418 -1.71856 -2.39895 0
M  V30 5008 H 475.499 -2.43516 -0.783166 0
M  V30 5009 H 475.143 -4.74412 -1.81371 0
M  V30 5010 H 475.073 -3.99641 -3.4292 0
M  V30 5011 H 477.564 -3.11433 -2.14052 0
M  V30 5012 H 477.877 -6.70205 -3.84767 0
M  V30 5013 H 476.222 -6.02387 -3.46634 0
M  V30 5014 H 479.413 -3.90478 -2.58157 0
M  V30 5015 H 479.586 -5.54069 -3.36024 0
M  V30 5016 N 472.992 0.995999 -1.22138 0
M  V30 5017 C 474.24 1.73167 -1.042 0
M  V30 5018 C 474.561 1.90329 0.42423 0
M  V30 5019 O 473.831 1.4607 1.30539 0
M  V30 5020 H 472.411 0.641593 -0.38258 0
M  V30 5021 H 475.073 1.19974 -1.53598 0
M  V30 5022 H 474.169 2.72734 -1.51731 0
M  V30 5023 N 474.47 1.03057 1.19235 0
M  V30 5024 C 475.716 0.729098 1.89241 0
M  V30 5025 C 476.049 -0.740573 1.79525 0
M  V30 5026 O 475.324 -1.53946 1.18874 0
M  V30 5027 C 475.607 1.18304 3.40112 0
M  V30 5028 C 475.46 2.71406 3.5869 0
M  V30 5029 C 476.779 0.765161 4.33397 0
M  V30 5030 H 473.898 0.266338 0.687192 0
M  V30 5031 H 476.54 1.28079 1.40341 0
M  V30 5032 H 474.69 0.713672 3.81889 0
M  V30 5033 H 476.362 3.26303 3.26074 0
M  V30 5034 H 474.605 3.11717 3.01687 0
M  V30 5035 H 475.276 2.98225 4.64506 0
M  V30 5036 H 477.752 1.16889 3.99345 0
M  V30 5037 H 476.628 1.11065 5.37546 0
M  V30 5038 H 476.889 -0.332372 4.40849 0
M  V30 5039 N 475.948 -1.35272 0.808662 0
M  V30 5040 C 477.194 -1.99003 0.390581 0
M  V30 5041 C 477.527 -1.63999 -1.0401 0
M  V30 5042 O 476.802 -0.904368 -1.72196 0
M  V30 5043 C 477.085 -3.55454 0.576566 0
M  V30 5044 C 476.938 -4.00249 2.05233 0
M  V30 5045 C 478.257 -4.401 0.00354277 0
M  V30 5046 H 475.376 -0.722917 0.143388 0
M  V30 5047 H 478.018 -1.6039 1.01858 0
M  V30 5048 H 476.168 -3.88477 0.0419766 0
M  V30 5049 H 477.84 -3.77626 2.64946 0
M  V30 5050 H 476.083 -3.51082 2.54801 0
M  V30 5051 H 476.754 -5.0911 2.13333 0
M  V30 5052 H 479.23 -4.13548 0.460117 0
M  V30 5053 H 478.106 -5.48656 0.163575 0
M  V30 5054 H 478.367 -4.28444 -1.09032 0
M  V30 5055 N 477.426 -0.562348 -1.47226 0
M  V30 5056 C 478.842 -0.222492 -1.58042 0
M  V30 5057 C 479.042 1.27505 -1.56028 0
M  V30 5058 O 478.098 2.05555 -1.46641 0
M  V30 5059 C 479.411 -0.853694 -2.88327 0
M  V30 5060 C 480.959 -0.825397 -3.01921 0
M  V30 5061 C 481.434 -1.43576 -4.34914 0
M  V30 5062 N 482.925 -1.39918 -4.41562 0
M  V30 5063 C 483.66 -1.84103 -5.43041 0
M  V30 5064 N 483.156 -2.36167 -6.51304 0
M  V30 5065 N 484.949 -1.75142 -5.34118 0
M  V30 5066 H 477.1 -1.53525 -1.46778 0
M  V30 5067 H 479.363 -0.640527 -0.698877 0
M  V30 5068 H 479.069 -1.90635 -2.95552 0
M  V30 5069 H 478.943 -0.34977 -3.75575 0
M  V30 5070 H 481.33 0.218583 -2.94289 0
M  V30 5071 H 481.411 -1.36713 -2.16202 0
M  V30 5072 H 481.055 -2.47884 -4.43301 0
M  V30 5073 H 480.985 -0.869427 -5.19373 0
M  V30 5074 H 483.476 -1.0184 -3.63919 0
M  V30 5075 H 483.789 -2.67793 -7.24919 0
M  V30 5076 H 482.134 -2.40181 -6.52179 0
M  V30 5077 H 485.325 -1.34241 -4.48439 0
M  V30 5078 H 485.498 -2.09895 -6.13065 0
M  V30 5079 N 478.904 1.54736 -0.299062 0
M  V30 5080 C 479.814 2.27127 0.587413 0
M  V30 5081 C 480.83 1.30575 1.15005 0
M  V30 5082 O 482.006 1.63554 1.17525 0
M  V30 5083 C 479.071 2.99645 1.74395 0
M  V30 5084 C 478.132 4.11731 1.21559 0
M  V30 5085 C 477.365 4.80781 2.317 0
M  V30 5086 O 477.588 4.4918 3.51558 0
M  V30 5087 O 476.522 5.68226 1.98501 0
M  V30 5088 H 480.348 3.037 0.000250109 0
M  V30 5089 H 477.933 1.49256 -0.0655919 0
M  V30 5090 H 479.815 3.45138 2.4178 0
M  V30 5091 H 478.49 2.25969 2.31775 0
M  V30 5092 H 477.397 3.70641 0.507514 0
M  V30 5093 H 478.73 4.87379 0.687233 0
M  V30 5094 N 480.382 0.0267497 1.57577 0
M  V30 5095 C 481.33 -0.973923 2.11229 0
M  V30 5096 C 482.324 -1.33849 1.03831 0
M  V30 5097 O 483.53 -1.321 1.22269 0
M  V30 5098 H 479.905 -0.331844 0.674821 0
M  V30 5099 H 481.876 -0.496092 2.94247 0
M  V30 5100 C 480.625 -2.24798 2.65257 0
M  V30 5101 H 479.948 -1.9762 3.47543 0
M  V30 5102 H 481.388 -2.93031 3.06445 0
M  V30 5103 C 479.847 -2.97611 1.57891 0
M  V30 5104 O 480.377 -3.89629 0.97735 0
M  V30 5105 N 478.583 -2.59905 1.29992 0
M  V30 5106 H 478.13 -1.85154 1.79097 0
M  V30 5107 H 478.088 -3.08932 0.583798 0
M  V30 5108 N 481.861 -1.55662 -0.24637 0
M  V30 5109 C 483.086 -1.81914 -0.996093 0
M  V30 5110 C 483.511 -0.603875 -1.78143 0
M  V30 5111 O 482.869 0.447091 -1.75701 0
M  V30 5112 C 482.917 -3.05908 -1.90925 0
M  V30 5113 O 482.021 -2.82861 -3.00105 0
M  V30 5114 H 481.362 -0.600481 -0.283406 0
M  V30 5115 H 483.892 -2.02848 -0.267199 0
M  V30 5116 H 483.902 -3.35356 -2.3238 0
M  V30 5117 H 482.577 -3.93999 -1.33183 0
M  V30 5118 H 481.154 -2.64583 -2.62775 0
M  V30 5119 N 483.339 0.512053 -1.4905 0
M  V30 5120 C 484.585 1.26874 -1.58212 0
M  V30 5121 C 484.918 1.9241 -0.263073 0
M  V30 5122 O 484.193 1.80181 0.732476 0
M  V30 5123 C 484.476 2.34428 -2.73341 0
M  V30 5124 C 484.329 1.73466 -4.15006 0
M  V30 5125 C 485.648 3.36073 -2.84154 0
M  V30 5126 H 482.767 0.459924 -0.575881 0
M  V30 5127 H 485.409 0.568587 -1.81293 0
M  V30 5128 H 483.559 2.94146 -2.53792 0
M  V30 5129 H 485.231 1.17661 -4.46042 0
M  V30 5130 H 483.474 1.03921 -4.21168 0
M  V30 5131 H 484.145 2.51426 -4.91415 0
M  V30 5132 H 486.621 2.86332 -3.01916 0
M  V30 5133 H 485.497 4.08703 -3.66406 0
M  V30 5134 H 485.758 3.97725 -1.93048 0
M  V30 5135 N 484.817 1.37938 0.762283 0
M  V30 5136 C 485.747 1.37176 1.88958 0
M  V30 5137 C 486.728 0.238945 1.68413 0
M  V30 5138 O 487.913 0.440726 1.89133 0
M  V30 5139 C 485.043 1.18742 3.2637 0
M  V30 5140 C 483.997 2.29136 3.61498 0
M  V30 5141 C 483.323 1.95816 4.97554 0
M  V30 5142 C 484.623 3.71363 3.6727 0
M  V30 5143 H 486.317 2.31509 1.89853 0
M  V30 5144 H 483.863 1.11438 0.912005 0
M  V30 5145 H 485.816 1.16837 4.04879 0
M  V30 5146 H 484.54 0.208683 3.25933 0
M  V30 5147 H 483.199 2.30213 2.85303 0
M  V30 5148 H 482.847 0.964475 4.93667 0
M  V30 5149 H 482.547 2.69745 5.22026 0
M  V30 5150 H 484.071 1.95513 5.78452 0
M  V30 5151 H 485.485 3.72364 4.35911 0
M  V30 5152 H 483.882 4.44425 4.03245 0
M  V30 5153 H 484.952 4.04305 2.67704 0
M  V30 5154 N 486.295 -0.989507 1.22664 0
M  V30 5155 C 487.243 -2.10148 0.997035 0
M  V30 5156 C 488.237 -1.6929 -0.0609783 0
M  V30 5157 O 489.443 -1.79766 0.0917523 0
M  V30 5158 H 485.818 -0.687256 0.305259 0
M  V30 5159 H 487.789 -2.26685 1.94053 0
M  V30 5160 C 486.538 -3.4257 0.595085 0
M  V30 5161 H 485.861 -3.74453 1.40089 0
M  V30 5162 H 487.301 -4.21344 0.473869 0
M  V30 5163 C 485.76 -3.29638 -0.695725 0
M  V30 5164 O 486.29 -3.61709 -1.74727 0
M  V30 5165 N 484.496 -2.82814 -0.668173 0
M  V30 5166 H 484.043 -2.56914 0.18787 0
M  V30 5167 H 484.001 -2.74544 -1.5321 0
M  V30 5168 N 487.773 -1.03688 -1.18687 0
M  V30 5169 C 489.001 -0.757918 -1.92518 0
M  V30 5170 C 489.416 0.684398 -1.75959 0
M  V30 5171 O 488.773 1.46617 -1.08673 0
M  V30 5172 C 488.824 -1.10985 -3.44042 0
M  V30 5173 O 488.545 -2.49554 -3.60076 0
M  V30 5174 C 490.046 -0.854844 -4.3498 0
M  V30 5175 H 487.266 -0.276699 -0.611293 0
M  V30 5176 H 489.81 -1.38352 -1.50595 0
M  V30 5177 H 487.965 -0.529279 -3.83767 0
M  V30 5178 H 488.379 -2.6291 -4.53849 0
M  V30 5179 H 489.853 -1.15098 -5.39867 0
M  V30 5180 H 490.33 0.210507 -4.38695 0
M  V30 5181 H 490.936 -1.41853 -4.00946 0
M  V30 5182 N 489.251 1.34841 -0.815825 0
M  V30 5183 C 490.5 1.97755 -0.396976 0
M  V30 5184 C 490.813 1.65422 1.04379 0
M  V30 5185 O 492.019 2.21771 1.5662 0
M  V30 5186 C 490.475 3.53818 -0.658869 0
M  V30 5187 C 490.083 3.95051 -2.11278 0
M  V30 5188 C 491.827 4.23397 -0.305834 0
M  V30 5189 C 489.734 5.43997 -2.31994 0
M  V30 5190 H 488.664 0.739985 -0.1447 0
M  V30 5191 H 491.315 1.53781 -1.00118 0
M  V30 5192 H 489.697 3.95997 0.0154112 0
M  V30 5193 H 490.871 3.63998 -2.82564 0
M  V30 5194 H 489.186 3.38388 -2.42657 0
M  V30 5195 H 491.783 5.32899 -0.43854 0
M  V30 5196 H 492.126 4.09508 0.748952 0
M  V30 5197 H 492.659 3.8667 -0.934403 0
M  V30 5198 H 489.398 5.62865 -3.35952 0
M  V30 5199 H 488.918 5.76589 -1.65244 0
M  V30 5200 H 490.597 6.10584 -2.14001 0
M  V30 5201 N 490.729 0.570148 1.46925 0
M  V30 5202 C 492.14 0.1402 1.86173 0
M  V30 5203 C 492.491 -1.29347 1.47526 0
M  V30 5204 O 491.616 -1.97508 0.884292 0
M  V30 5205 C 492.211 0.247661 3.37894 0
M  V30 5206 C 490.77 -0.127332 3.76185 0
M  V30 5207 C 489.917 0.589349 2.70965 0
M  V30 5208 H 492.868 0.779117 1.38259 0
M  V30 5209 H 492.889 -0.530341 3.76786 0
M  V30 5210 H 492.401 1.29121 3.65991 0
M  V30 5211 H 490.502 -1.17149 3.53704 0
M  V30 5212 H 490.615 0.240238 4.78497 0
M  V30 5213 H 488.979 0.0309824 2.54681 0
M  V30 5214 H 489.762 1.6343 3.01903 0
M  V30 5215 N 492.207 -1.54576 0.307264 0
M  V30 5216 C 493.437 -2.04378 -0.302158 0
M  V30 5217 C 493.845 -1.18381 -1.47589 0
M  V30 5218 O 493.188 -0.20352 -1.82569 0
M  V30 5219 C 493.25 -3.50133 -0.815305 0
M  V30 5220 C 492.914 -4.56401 0.233977 0
M  V30 5221 C 493.911 -5.08884 1.06456 0
M  V30 5222 C 491.596 -5.0088 0.377478 0
M  V30 5223 C 493.59 -6.04394 2.02452 0
M  V30 5224 C 491.277 -5.96208 1.34088 0
M  V30 5225 C 492.275 -6.47849 2.16288 0
M  V30 5226 O 491.963 -7.41308 3.10994 0
M  V30 5227 H 491.695 -0.672502 -0.0686839 0
M  V30 5228 H 494.249 -2.00484 0.446682 0
M  V30 5229 H 492.479 -3.51371 -1.61478 0
M  V30 5230 H 494.168 -3.83098 -1.34129 0
M  V30 5231 H 494.934 -4.75311 0.964596 0
M  V30 5232 H 490.813 -4.60309 -0.252405 0
M  V30 5233 H 494.357 -6.44626 2.66652 0
M  V30 5234 H 490.254 -6.29198 1.44154 0
M  V30 5235 H 491.022 -7.5913 3.06045 0
M  V30 5236 N 493.685 -0.035106 -1.57561 0
M  V30 5237 C 495.101 0.321334 -1.56332 0
M  V30 5238 C 495.301 1.72509 -1.04129 0
M  V30 5239 O 494.357 2.4287 -0.690694 0
M  V30 5240 C 495.67 0.164469 -3.0025 0
M  V30 5241 C 497.218 0.236786 -3.12103 0
M  V30 5242 C 497.693 0.10864 -4.57871 0
M  V30 5243 N 499.184 0.165433 -4.62904 0
M  V30 5244 C 499.919 0.0901506 -5.73329 0
M  V30 5245 N 499.415 -0.0365606 -6.9279 0
M  V30 5246 N 501.208 0.144572 -5.61914 0
M  V30 5247 H 493.359 -0.952976 -1.89821 0
M  V30 5248 H 495.622 -0.368537 -0.873432 0
M  V30 5249 H 495.328 -0.802746 -3.42416 0
M  V30 5250 H 495.202 0.932194 -3.655 0
M  V30 5251 H 497.589 1.19446 -2.69845 0
M  V30 5252 H 497.67 -0.561419 -2.49563 0
M  V30 5253 H 497.314 -0.845644 -5.00811 0
M  V30 5254 H 497.244 0.925786 -5.18398 0
M  V30 5255 H 499.735 0.263269 -3.76982 0
M  V30 5256 H 500.048 -0.0871487 -7.72751 0
M  V30 5257 H 498.393 -0.0714256 -6.94963 0
M  V30 5258 H 501.584 0.242006 -4.67474 0
M  V30 5259 H 501.757 0.0824413 -6.47948 0
M  V30 5260 N 495.163 1.55791 0.238111 0
M  V30 5261 C 496.412 1.77234 0.962868 0
M  V30 5262 C 496.725 0.600661 1.86149 0
M  V30 5263 O 497.931 0.698315 2.62366 0
M  V30 5264 C 496.387 3.13808 1.76218 0
M  V30 5265 C 495.995 4.3865 0.910518 0
M  V30 5266 C 497.739 3.44585 2.47914 0
M  V30 5267 C 495.646 5.66252 1.70623 0
M  V30 5268 H 494.576 0.660731 0.36325 0
M  V30 5269 H 497.227 1.8221 0.217242 0
M  V30 5270 H 495.609 3.02963 2.55009 0
M  V30 5271 H 496.783 4.60507 0.164316 0
M  V30 5272 H 495.098 4.15271 0.30647 0
M  V30 5273 H 497.695 4.3714 3.07917 0
M  V30 5274 H 498.038 2.66314 3.19973 0
M  V30 5275 H 498.571 3.56685 1.76127 0
M  V30 5276 H 495.31 6.47369 1.02923 0
M  V30 5277 H 494.83 5.48483 2.42748 0
M  V30 5278 H 496.509 6.05829 2.27114 0
M  V30 5279 N 496.642 -0.504142 1.49319 0
M  V30 5280 C 497.59 -1.62689 1.66238 0
M  V30 5281 C 498.584 -1.6095 0.528349 0
M  V30 5282 O 499.79 -1.65496 0.707887 0
M  V30 5283 H 496.165 -0.539247 0.524134 0
M  V30 5284 H 498.136 -1.45571 2.60484 0
M  V30 5285 C 496.885 -3.00841 1.74328 0
M  V30 5286 H 496.208 -3.02884 2.60963 0
M  V30 5287 H 497.648 -3.78945 1.90202 0
M  V30 5288 C 496.107 -3.33355 0.487416 0
M  V30 5289 O 496.637 -3.99819 -0.388294 0
M  V30 5290 N 494.843 -2.88469 0.351306 0
M  V30 5291 H 494.39 -2.34557 1.06492 0
M  V30 5292 H 494.348 -3.10591 -0.487899 0
M  V30 5293 N 498.12 -1.38341 -0.754957 0
M  V30 5294 C 499.368 -1.34208 -1.51105 0
M  V30 5295 C 499.689 0.0677634 -1.94882 0
M  V30 5296 O 498.959 1.01517 -1.67544 0
M  V30 5297 H 497.539 -0.493819 -0.560493 0
M  V30 5298 H 500.201 -1.73005 -0.897507 0
M  V30 5299 H 499.297 -1.99203 -2.4026 0
M  V30 5300 N 499.598 0.982988 -1.23187 0
M  V30 5301 C 500.548 2.05962 -0.977942 0
M  V30 5302 C 501.532 1.60725 0.0751148 0
M  V30 5303 O 502.724 1.76471 -0.136683 0
M  V30 5304 C 499.853 3.38564 -0.568276 0
M  V30 5305 C 498.939 3.90407 -1.6566 0
M  V30 5306 N 499.33 4.15359 -2.88635 0
M  V30 5307 C 497.628 4.18915 -1.53058 0
M  V30 5308 C 498.329 4.57642 -3.5908 0
M  V30 5309 N 497.305 4.6192 -2.86584 0
M  V30 5310 H 501.107 2.23208 -1.91195 0
M  V30 5311 H 498.621 1.16555 -1.13087 0
M  V30 5312 H 500.618 4.15276 -0.36764 0
M  V30 5313 H 499.278 3.22712 0.358713 0
M  V30 5314 H 500.289 4.03258 -3.24966 0
M  V30 5315 H 496.966 4.12081 -0.670506 0
M  V30 5316 H 498.356 4.85488 -4.6449 0
M  V30 5317 N 501.076 1.04316 1.18135 0
M  V30 5318 C 501.986 0.646876 2.25505 0
M  V30 5319 C 503.002 -0.328008 1.7088 0
M  V30 5320 O 504.178 -0.182309 2.00573 0
M  V30 5321 C 501.243 0.0185664 3.46695 0
M  V30 5322 C 500.304 1.04277 4.16443 0
M  V30 5323 C 499.537 0.444352 5.31847 0
M  V30 5324 O 499.76 -0.748735 5.65465 0
M  V30 5325 O 498.694 1.17428 5.90334 0
M  V30 5326 H 502.52 1.54147 2.61672 0
M  V30 5327 H 500.105 0.814188 1.25265 0
M  V30 5328 H 501.987 -0.331068 4.20097 0
M  V30 5329 H 500.662 -0.849814 3.12346 0
M  V30 5330 H 499.569 1.44425 3.45098 0
M  V30 5331 H 500.902 1.882 4.54798 0
M  V30 5332 N 502.554 -1.34406 0.822964 0
M  V30 5333 C 503.803 -1.97542 0.407458 0
M  V30 5334 C 504.116 -1.65973 -1.035 0
M  V30 5335 O 505.322 -2.22598 -1.55442 0
M  V30 5336 C 503.778 -3.53463 0.677623 0
M  V30 5337 C 503.386 -3.93925 2.1337 0
M  V30 5338 C 505.13 -4.23229 0.328284 0
M  V30 5339 C 503.037 -5.42759 2.34876 0
M  V30 5340 H 501.967 -0.739207 0.148623 0
M  V30 5341 H 504.618 -1.53248 1.00932 0
M  V30 5342 H 503 -3.96 0.00558965 0
M  V30 5343 H 504.174 -3.62494 2.8449 0
M  V30 5344 H 502.489 -3.37097 2.44448 0
M  V30 5345 H 505.086 -5.32659 0.466794 0
M  V30 5346 H 505.429 -4.09899 -0.727224 0
M  V30 5347 H 505.962 -3.86169 0.954896 0
M  V30 5348 H 502.701 -5.61075 3.38932 0
M  V30 5349 H 502.221 -5.75704 1.68299 0
M  V30 5350 H 503.9 -6.0944 2.17236 0
M  V30 5351 N 504.032 -0.577932 -1.46621 0
M  V30 5352 C 504.979 0.158048 -2.30258 0
M  V30 5353 C 505.949 0.888669 -1.40328 0
M  V30 5354 O 507.134 0.880283 -1.6928 0
M  V30 5355 C 504.274 1.16884 -3.24703 0
M  V30 5356 C 503.387 0.442163 -4.29731 0
M  V30 5357 C 502.522 1.44007 -5.11308 0
M  V30 5358 C 501.561 0.69952 -6.0809 0
M  V30 5359 N 500.698 1.64525 -6.82551 0
M  V30 5360 H 505.538 -0.561242 -2.92667 0
M  V30 5361 H 503.075 -0.288591 -1.44241 0
M  V30 5362 H 505.033 1.7677 -3.779 0
M  V30 5363 H 503.663 1.85591 -2.64113 0
M  V30 5364 H 502.715 -0.271632 -3.79429 0
M  V30 5365 H 504.027 -0.136992 -4.98612 0
M  V30 5366 H 503.181 2.11186 -5.68758 0
M  V30 5367 H 501.92 2.05315 -4.42377 0
M  V30 5368 H 500.925 0.0139217 -5.49798 0
M  V30 5369 H 502.15 0.091894 -6.79038 0
M  V30 5370 H 500.096 2.24653 -6.16334 0
M  V30 5371 H 500.013 1.11878 -7.47676 0
M  V30 5372 H 501.281 2.30754 -7.44562 0
M  V30 5373 N 505.51 1.54411 -0.315457 0
M  V30 5374 C 506.787 1.92562 0.343398 0
M  V30 5375 C 507.167 1.24423 1.70535 0
M  V30 5376 O 506.515 0.385051 2.25232 0
M  V30 5377 C 506.725 3.46168 0.443687 0
M  V30 5378 C 508.073 4.18659 0.707783 0
M  V30 5379 O 509.097 3.52281 0.52693 0
M  V30 5380 O 507.956 5.36198 1.05612 0
M  V30 5381 H 505.05 0.80379 0.194552 0
M  V30 5382 H 507.596 1.65738 -0.364577 0
M  V30 5383 H 506.368 3.8792 -0.513172 0
M  V30 5384 H 505.991 3.79073 1.19956 0
M  V30 5385 N 506.988 0.0434614 1.5754 0
M  V30 5386 C 508.234 -0.632971 1.92669 0
M  V30 5387 C 508.567 -1.70947 0.921446 0
M  V30 5388 O 507.842 -1.94426 -0.0537202 0
M  V30 5389 C 508.125 -1.23619 3.38216 0
M  V30 5390 C 507.978 -0.168274 4.49485 0
M  V30 5391 C 509.297 -2.15008 3.84005 0
M  V30 5392 H 506.416 -0.228629 0.700641 0
M  V30 5393 H 509.058 0.103651 1.89717 0
M  V30 5394 H 507.208 -1.864 3.40863 0
M  V30 5395 H 508.88 0.463196 4.58969 0
M  V30 5396 H 507.123 0.504581 4.30855 0
M  V30 5397 H 507.794 -0.630218 5.48391 0
M  V30 5398 H 510.27 -1.62198 3.83185 0
M  V30 5399 H 509.146 -2.54161 4.86511 0
M  V30 5400 H 509.407 -3.04707 3.20322 0
M  V30 5401 N 508.466 -1.55915 -0.229846 0
M  V30 5402 C 509.429 -1.90914 -1.26824 0
M  V30 5403 C 510.429 -0.786999 -1.40225 0
M  V30 5404 O 511.619 -1.05484 -1.38632 0
M  V30 5405 C 508.751 -2.15264 -2.64337 0
M  V30 5406 H 509.944 -2.8378 -0.969998 0
M  V30 5407 H 507.497 -1.49069 -0.4699 0
M  V30 5408 H 508.232 -1.24923 -2.99274 0
M  V30 5409 H 508.017 -2.97005 -2.55989 0
M  V30 5410 H 509.507 -2.43467 -3.39284 0
M  V30 5411 N 509.944 0.496216 -1.49584 0
M  V30 5412 C 511.36 0.827814 -1.36453 0
M  V30 5413 C 511.56 1.97464 -0.401285 0
M  V30 5414 O 510.616 2.51958 0.165296 0
M  V30 5415 C 511.929 1.16352 -2.77277 0
M  V30 5416 C 513.477 1.27145 -2.86013 0
M  V30 5417 C 513.952 1.64042 -4.27615 0
M  V30 5418 N 515.443 1.71082 -4.30448 0
M  V30 5419 C 516.178 2.01085 -5.36984 0
M  V30 5420 N 515.674 2.2928 -6.5376 0
M  V30 5421 N 517.467 2.02376 -5.24405 0
M  V30 5422 H 509.618 -0.259947 -2.10803 0
M  V30 5423 H 511.881 -0.0537163 -0.946477 0
M  V30 5424 H 511.587 0.394153 -3.49484 0
M  V30 5425 H 511.461 2.10582 -3.12946 0
M  V30 5426 H 513.848 2.03152 -2.1404 0
M  V30 5427 H 513.929 0.309542 -2.5392 0
M  V30 5428 H 513.573 0.88583 -5.00115 0
M  V30 5429 H 513.503 2.6134 -4.57175 0
M  V30 5430 H 515.994 1.51434 -3.46232 0
M  V30 5431 H 516.307 2.51376 -7.30774 0
M  V30 5432 H 514.652 2.26726 -6.56978 0
M  V30 5433 H 517.843 1.79829 -4.32179 0
M  V30 5434 H 518.016 2.25425 -6.07526 0
M  V30 5435 N 511.423 1.38739 0.74761 0
M  V30 5436 C 512.653 1.3832 1.53464 0
M  V30 5437 C 513.061 -0.0273464 1.8918 0
M  V30 5438 O 512.404 -1.00588 1.53713 0
M  V30 5439 C 512.466 2.18007 2.85855 0
M  V30 5440 C 512.13 3.66762 2.72644 0
M  V30 5441 C 513.127 4.60124 2.42037 0
M  V30 5442 C 510.812 4.10193 2.89909 0
M  V30 5443 C 512.806 5.94897 2.28859 0
M  V30 5444 C 510.493 5.45045 2.7635 0
M  V30 5445 C 511.491 6.37211 2.45869 0
M  V30 5446 O 511.179 7.69581 2.3238 0
M  V30 5447 H 510.911 0.474718 0.481268 0
M  V30 5448 H 513.465 1.83012 0.932518 0
M  V30 5449 H 511.695 1.68043 3.48279 0
M  V30 5450 H 513.384 2.09921 3.47402 0
M  V30 5451 H 514.15 4.27874 2.28361 0
M  V30 5452 H 510.029 3.38797 3.1263 0
M  V30 5453 H 513.573 6.66802 2.04989 0
M  V30 5454 H 509.47 5.76889 2.89601 0
M  V30 5455 H 510.238 7.80169 2.47546 0
M  V30 5456 N 512.901 -0.976442 1.23707 0
M  V30 5457 C 514.126 -1.75875 1.09922 0
M  V30 5458 C 514.551 -1.84911 -0.34489 0
M  V30 5459 O 513.909 -1.31363 -1.24954 0
M  V30 5460 C 513.957 -3.16179 1.73388 0
M  V30 5461 O 513.061 -4.00124 0.99871 0
M  V30 5462 H 512.402 -0.540954 0.385052 0
M  V30 5463 H 514.932 -1.22546 1.6384 0
M  V30 5464 H 514.942 -3.66741 1.78788 0
M  V30 5465 H 513.617 -3.08917 2.78466 0
M  V30 5466 H 512.194 -3.58624 1.02193 0
M  V30 5467 N 514.379 -1.04941 -1.1758 0
M  V30 5468 C 515.289 -0.658826 -2.25159 0
M  V30 5469 C 516.305 0.318941 -1.71052 0
M  V30 5470 O 517.481 0.171669 -2.00667 0
M  V30 5471 C 514.546 -0.0369522 -3.4668 0
M  V30 5472 C 513.607 -1.06484 -4.15884 0
M  V30 5473 C 512.84 -0.472551 -5.31604 0
M  V30 5474 O 513.063 0.718736 -5.65854 0
M  V30 5475 O 511.997 -1.20557 -5.89703 0
M  V30 5476 H 515.823 -1.55533 -2.60851 0
M  V30 5477 H 513.408 -0.820819 -1.24832 0
M  V30 5478 H 515.29 0.308784 -4.20267 0
M  V30 5479 H 513.965 0.833238 -3.12792 0
M  V30 5480 H 512.872 -1.46253 -3.44327 0
M  V30 5481 H 514.205 -1.9061 -4.53794 0
M  V30 5482 N 515.857 1.33968 -0.830081 0
M  V30 5483 C 516.787 2.31911 -0.271911 0
M  V30 5484 C 517.768 1.58571 0.61556 0
M  V30 5485 O 518.953 1.86514 0.540946 0
M  V30 5486 C 516.083 3.42737 0.561146 0
M  V30 5487 C 515.037 4.27383 -0.229789 0
M  V30 5488 C 514.363 5.29742 0.726463 0
M  V30 5489 C 515.663 5.02 -1.44197 0
M  V30 5490 H 517.357 2.78844 -1.09025 0
M  V30 5491 H 514.903 1.34061 -0.52571 0
M  V30 5492 H 516.856 4.10276 0.961867 0
M  V30 5493 H 515.58 2.94471 1.41261 0
M  V30 5494 H 514.239 3.61456 -0.611964 0
M  V30 5495 H 513.887 4.77736 1.57408 0
M  V30 5496 H 513.587 5.87255 0.20142 0
M  V30 5497 H 515.111 6.00149 1.12489 0
M  V30 5498 H 516.525 5.62355 -1.11488 0
M  V30 5499 H 514.922 5.69122 -1.90317 0
M  V30 5500 H 515.992 4.31281 -2.2164 0
M  V30 5501 N 517.335 0.585699 1.46312 0
M  V30 5502 C 518.563 0.0781299 2.06752 0
M  V30 5503 C 518.978 -1.22812 1.43396 0
M  V30 5504 O 518.335 -1.74318 0.540314 0
M  V30 5505 C 518.386 -0.0911927 3.61385 0
M  V30 5506 O 518.107 1.16336 4.22371 0
M  V30 5507 C 519.608 -0.632765 4.38761 0
M  V30 5508 H 516.828 0.0588188 0.668417 0
M  V30 5509 H 519.372 0.807218 1.87894 0
M  V30 5510 H 517.527 -0.770514 3.7966 0
M  V30 5511 H 517.941 0.979082 5.15281 0
M  V30 5512 H 519.415 -0.70041 5.47538 0
M  V30 5513 H 519.892 -1.65039 4.07012 0
M  V30 5514 H 520.498 0.0117856 4.25298 0
M  V30 5515 N 518.813 -1.54241 0.323641 0
M  V30 5516 C 519.743 -2.27289 -0.534993 0
M  V30 5517 C 520.724 -1.28087 -1.11927 0
M  V30 5518 O 521.909 -1.56899 -1.14439 0
M  V30 5519 C 519.039 -3.03075 -1.69596 0
M  V30 5520 C 517.993 -4.09614 -1.24098 0
M  V30 5521 C 517.319 -4.73242 -2.4889 0
M  V30 5522 C 518.619 -5.21087 -0.355789 0
M  V30 5523 H 520.313 -2.99308 0.0743257 0
M  V30 5524 H 517.859 -1.43952 0.0371874 0
M  V30 5525 H 519.812 -3.52907 -2.30293 0
M  V30 5526 H 518.536 -2.28673 -2.33187 0
M  V30 5527 H 517.195 -3.60666 -0.656945 0
M  V30 5528 H 516.843 -3.95455 -3.10845 0
M  V30 5529 H 516.543 -5.45209 -2.19138 0
M  V30 5530 H 518.067 -5.25848 -3.10348 0
M  V30 5531 H 519.481 -5.66675 -0.869042 0
M  V30 5532 H 517.878 -5.9991 -0.151045 0
M  V30 5533 H 518.948 -4.81005 0.613339 0
M  V30 5534 N 520.291 -0.0518155 -1.57515 0
M  V30 5535 C 521.519 0.631395 -1.9703 0
M  V30 5536 C 521.934 1.64341 -0.92938 0
M  V30 5537 O 521.291 1.82296 0.0863266 0
M  V30 5538 C 521.342 1.31774 -3.36627 0
M  V30 5539 O 521.063 0.346247 -4.3673 0
M  V30 5540 C 522.564 2.09065 -3.90905 0
M  V30 5541 H 519.784 0.172576 -0.648428 0
M  V30 5542 H 522.328 -0.118306 -2.04158 0
M  V30 5543 H 520.483 2.01867 -3.30649 0
M  V30 5544 H 520.897 0.836226 -5.17791 0
M  V30 5545 H 522.371 2.52508 -4.9086 0
M  V30 5546 H 522.848 2.93908 -3.26366 0
M  V30 5547 H 523.454 1.43882 -4.00223 0
M  V30 5548 N 521.769 1.56035 0.221574 0
M  V30 5549 C 523.017 1.78693 0.944102 0
M  V30 5550 C 523.338 0.620317 1.8487 0
M  V30 5551 O 522.608 -0.362784 1.92512 0
M  V30 5552 H 521.188 0.659082 0.351597 0
M  V30 5553 H 523.85 1.93497 0.233435 0
M  V30 5554 H 522.946 2.70837 1.55093 0
M  V30 5555 N 523.247 -0.488276 1.49845 0
M  V30 5556 C 524.493 -1.24341 1.6021 0
M  V30 5557 C 524.826 -1.91967 0.293651 0
M  V30 5558 O 524.101 -1.81323 -0.703718 0
M  V30 5559 C 524.384 -2.3005 2.77036 0
M  V30 5560 C 524.237 -1.66842 4.17713 0
M  V30 5561 C 525.556 -3.31509 2.89464 0
M  V30 5562 H 522.675 -0.450704 0.583125 0
M  V30 5563 H 525.317 -0.539673 1.82174 0
M  V30 5564 H 523.467 -2.90071 2.58439 0
M  V30 5565 H 525.139 -1.1055 4.47858 0
M  V30 5566 H 523.382 -0.972079 4.22768 0
M  V30 5567 H 524.053 -2.43576 4.95353 0
M  V30 5568 H 526.529 -2.81493 3.06433 0
M  V30 5569 H 525.405 -4.02822 3.72861 0
M  V30 5570 H 525.666 -3.94603 1.99351 0
M  V30 5571 N 524.725 -1.39134 -0.740242 0
M  V30 5572 C 525.655 -1.40165 -1.86751 0
M  V30 5573 C 526.636 -0.265708 -1.68012 0
M  V30 5574 O 527.821 -0.47076 -1.88408 0
M  V30 5575 C 524.951 -1.2392 -3.2444 0
M  V30 5576 C 523.905 -2.34858 -3.57807 0
M  V30 5577 C 523.231 -2.03707 -4.94376 0
M  V30 5578 C 524.531 -3.77159 -3.61315 0
M  V30 5579 H 526.225 -2.345 -1.86145 0
M  V30 5580 H 523.771 -1.12875 -0.89416 0
M  V30 5581 H 525.724 -1.23263 -4.02969 0
M  V30 5582 H 524.448 -0.26051 -3.25559 0
M  V30 5583 H 523.107 -2.34723 -2.81604 0
M  V30 5584 H 522.755 -1.04289 -4.9207 0
M  V30 5585 H 522.455 -2.78016 -5.17669 0
M  V30 5586 H 523.979 -2.04691 -5.75268 0
M  V30 5587 H 525.393 -3.79252 -4.29931 0
M  V30 5588 H 523.79 -4.50784 -3.96124 0
M  V30 5589 H 524.86 -4.08513 -2.61238 0
M  V30 5590 N 526.204 0.969867 -1.24223 0
M  V30 5591 C 527.136 2.0669 -0.99055 0
M  V30 5592 C 528.149 1.62753 0.0392222 0
M  V30 5593 O 529.338 1.77403 -0.197561 0
M  V30 5594 C 526.438 3.35589 -0.472594 0
M  V30 5595 C 525.611 4.08444 -1.56499 0
M  V30 5596 C 524.67 5.15616 -1.05007 0
M  V30 5597 O 523.696 5.41911 -1.7413 0
M  V30 5598 N 524.898 5.80383 0.116641 0
M  V30 5599 H 527.663 2.28855 -1.93508 0
M  V30 5600 H 525.224 1.13733 -1.15223 0
M  V30 5601 H 527.216 4.04542 -0.112919 0
M  V30 5602 H 525.786 3.10311 0.377617 0
M  V30 5603 H 525.006 3.33798 -2.09696 0
M  V30 5604 H 526.294 4.53882 -2.29932 0
M  V30 5605 H 525.692 5.6142 0.694589 0
M  V30 5606 H 524.249 6.50462 0.417483 0
M  V30 5607 N 527.682 1.05563 1.17022 0
M  V30 5608 C 528.629 0.659893 2.21165 0
M  V30 5609 C 529.599 -0.339813 1.62587 0
M  V30 5610 O 530.784 -0.230378 1.89404 0
M  V30 5611 C 527.924 0.0447297 3.45071 0
M  V30 5612 C 527.037 1.09372 4.17926 0
M  V30 5613 C 526.172 0.445481 5.29329 0
M  V30 5614 C 525.211 1.47852 5.93975 0
M  V30 5615 N 524.348 0.854172 6.96885 0
M  V30 5616 H 529.188 1.55243 2.54369 0
M  V30 5617 H 526.725 0.776336 1.24946 0
M  V30 5618 H 528.683 -0.329404 4.15898 0
M  V30 5619 H 527.313 -0.811244 3.1244 0
M  V30 5620 H 526.365 1.58564 3.45777 0
M  V30 5621 H 527.677 1.87773 4.62107 0
M  V30 5622 H 526.831 0.0179688 6.06697 0
M  V30 5623 H 525.57 -0.370481 4.86291 0
M  V30 5624 H 524.575 1.91601 5.15334 0
M  V30 5625 H 525.8 2.29645 6.39093 0
M  V30 5626 H 523.746 0.0587882 6.55974 0
M  V30 5627 H 523.663 1.57567 7.39397 0
M  V30 5628 H 524.931 0.451559 7.78191 0
M  V30 5629 N 529.16 -1.33526 0.837174 0
M  V30 5630 C 530.385 -2.0258 0.444545 0
M  V30 5631 C 530.81 -1.6258 -0.946006 0
M  V30 5632 O 530.168 -0.817548 -1.6182 0
M  V30 5633 C 530.216 -3.5605 0.571006 0
M  V30 5634 O 529.32 -4.10422 -0.403431 0
M  V30 5635 H 528.661 -0.638866 0.180958 0
M  V30 5636 H 531.191 -1.70462 1.13154 0
M  V30 5637 H 531.201 -4.05488 0.452024 0
M  V30 5638 H 529.876 -3.84509 1.58512 0
M  V30 5639 H 528.453 -3.72113 -0.242147 0
M  V30 5640 N 530.638 -0.59345 -1.46 0
M  V30 5641 C 531.863 -0.0872365 -2.07216 0
M  V30 5642 C 532.288 1.2131 -1.43755 0
M  V30 5643 O 531.646 1.73528 -0.525152 0
M  V30 5644 C 531.694 0.0538197 -3.6056 0
M  V30 5645 O 530.798 1.10765 -3.97247 0
M  V30 5646 H 530.139 -0.0676598 -0.660544 0
M  V30 5647 H 532.669 -0.819445 -1.87473 0
M  V30 5648 H 532.679 0.256567 -4.07193 0
M  V30 5649 H 531.354 -0.895739 -4.0614 0
M  V30 5650 H 529.931 0.882501 -3.62307 0
M  V30 5651 N 532.116 1.54067 -0.331816 0
M  V30 5652 C 533.064 2.26105 0.54582 0
M  V30 5653 C 534.058 1.27816 1.11173 0
M  V30 5654 O 535.264 1.45565 1.05882 0
M  V30 5655 H 531.639 0.726363 0.194683 0
M  V30 5656 H 533.61 2.98282 -0.083931 0
M  V30 5657 C 532.359 3.03814 1.69092 0
M  V30 5658 H 531.682 3.79269 1.26473 0
M  V30 5659 H 533.122 3.57453 2.28043 0
M  V30 5660 C 531.581 2.12606 2.61343 0
M  V30 5661 O 532.111 1.71437 3.6328 0
M  V30 5662 N 530.317 1.77925 2.29763 0
M  V30 5663 H 529.864 2.11602 1.46909 0
M  V30 5664 H 529.822 1.1718 2.91747 0
M  V30 5665 N 533.594 0.0601682 1.57485 0
M  V30 5666 C 534.84 -0.612501 1.93329 0
M  V30 5667 C 535.173 -1.6996 0.939526 0
M  V30 5668 O 534.448 -1.94472 -0.0330957 0
M  V30 5669 C 534.731 -1.20025 3.39508 0
M  V30 5670 C 534.584 -0.12059 4.49638 0
M  V30 5671 C 535.903 -2.10923 3.86264 0
M  V30 5672 H 533.022 -0.221185 0.703027 0
M  V30 5673 H 535.664 0.123768 1.89596 0
M  V30 5674 H 533.814 -1.82774 3.42821 0
M  V30 5675 H 535.486 0.51185 4.58452 0
M  V30 5676 H 533.729 0.550251 4.30296 0
M  V30 5677 H 534.4 -0.572019 5.49028 0
M  V30 5678 H 536.876 -1.58124 3.84884 0
M  V30 5679 H 535.752 -2.48987 4.8918 0
M  V30 5680 H 536.013 -3.01292 3.23536 0
M  V30 5681 N 535.072 -1.5615 -0.213296 0
M  V30 5682 C 536.32 -1.79191 -0.934612 0
M  V30 5683 C 536.641 -0.630112 -1.84539 0
M  V30 5684 O 535.911 0.35257 -1.92701 0
M  V30 5685 H 534.491 -0.660937 -0.348097 0
M  V30 5686 H 537.153 -1.93618 -0.22317 0
M  V30 5687 H 536.249 -2.71656 -1.53654 0
M  V30 5688 N 536.55 0.480323 -1.50102 0
M  V30 5689 C 537.796 1.23489 -1.60867 0
M  V30 5690 C 538.129 1.91809 -0.303827 0
M  V30 5691 O 537.404 1.81694 0.694092 0
M  V30 5692 C 537.687 2.28578 -2.78252 0
M  V30 5693 C 537.54 1.64624 -4.18592 0
M  V30 5694 C 538.859 3.2997 -2.91218 0
M  V30 5695 H 535.978 0.447605 -0.585507 0
M  V30 5696 H 538.62 0.530005 -1.82458 0
M  V30 5697 H 536.77 2.88697 -2.59974 0
M  V30 5698 H 538.442 1.08173 -4.48438 0
M  V30 5699 H 536.685 0.949645 -4.23278 0
M  V30 5700 H 537.356 2.40946 -4.96638 0
M  V30 5701 H 539.832 2.79864 -3.07921 0
M  V30 5702 H 538.708 4.00839 -3.74993 0
M  V30 5703 H 538.969 3.93541 -2.0144 0
M  V30 5704 N 538.028 1.39524 0.732853 0
M  V30 5705 C 539.253 1.40329 1.52717 0
M  V30 5706 C 539.678 0.000286574 1.881 0
M  V30 5707 O 539.036 -0.987262 1.52062 0
M  V30 5708 C 539.084 2.28464 2.78992 0
M  V30 5709 O 538.188 1.716 3.75003 0
M  V30 5710 H 537.529 0.47778 0.461109 0
M  V30 5711 H 540.059 1.83546 0.903996 0
M  V30 5712 H 540.069 2.43051 3.27705 0
M  V30 5713 H 538.744 3.30425 2.52572 0
M  V30 5714 H 537.321 1.66267 3.33781 0
M  V30 5715 N 539.506 -0.963266 1.24736 0
M  V30 5716 C 540.453 -2.05857 1.04363 0
M  V30 5717 C 541.423 -1.6604 -0.0444951 0
M  V30 5718 O 542.608 -1.90477 0.110999 0
M  V30 5719 C 539.748 -3.38745 0.659235 0
M  V30 5720 C 538.861 -3.9173 1.82131 0
M  V30 5721 C 537.996 -5.12906 1.38208 0
M  V30 5722 C 537.035 -5.58098 2.51382 0
M  V30 5723 N 536.172 -6.7049 2.08295 0
M  V30 5724 H 541.012 -2.22616 1.98107 0
M  V30 5725 H 538.549 -1.09103 0.986661 0
M  V30 5726 H 540.507 -4.15107 0.417371 0
M  V30 5727 H 539.137 -3.21898 -0.241201 0
M  V30 5728 H 538.189 -3.11966 2.17672 0
M  V30 5729 H 539.501 -4.21225 2.67153 0
M  V30 5730 H 538.655 -5.96657 1.09935 0
M  V30 5731 H 537.394 -4.85105 0.502456 0
M  V30 5732 H 536.399 -4.72917 2.80409 0
M  V30 5733 H 537.624 -5.87911 3.39909 0
M  V30 5734 H 535.57 -6.44416 1.22737 0
M  V30 5735 H 535.487 -6.99458 2.86869 0
M  V30 5736 H 536.755 -7.57672 1.83175 0
M  V30 5737 N 540.985 -1.06182 -1.16461 0
M  V30 5738 C 541.915 -0.692861 -2.22984 0
M  V30 5739 C 542.896 0.314122 -1.67174 0
M  V30 5740 O 544.081 0.189499 -1.93273 0
M  V30 5741 C 541.211 -0.07732 -3.47214 0
M  V30 5742 C 540.165 -1.01015 -4.15909 0
M  V30 5743 C 539.491 -0.257973 -5.34077 0
M  V30 5744 C 540.791 -2.33868 -4.67015 0
M  V30 5745 H 542.485 -1.58343 -2.54102 0
M  V30 5746 H 540.031 -0.76279 -1.22137 0
M  V30 5747 H 541.984 0.19266 -4.20959 0
M  V30 5748 H 540.708 0.848254 -3.15392 0
M  V30 5749 H 539.367 -1.26486 -3.44088 0
M  V30 5750 H 539.015 0.670684 -4.98509 0
M  V30 5751 H 538.715 -0.879638 -5.80979 0
M  V30 5752 H 540.239 0.00448788 -6.106 0
M  V30 5753 H 541.653 -2.1279 -5.32347 0
M  V30 5754 H 540.05 -2.91522 -5.24533 0
M  V30 5755 H 541.12 -2.97019 -3.83286 0
M  V30 5756 N 542.463 1.3308 -0.844243 0
M  V30 5757 C 543.426 2.27403 -0.286485 0
M  V30 5758 C 544.426 1.51179 0.547872 0
M  V30 5759 O 545.616 1.70421 0.360886 0
M  V30 5760 C 542.748 3.35653 0.595813 0
M  V30 5761 H 543.941 2.78248 -1.11885 0
M  V30 5762 H 541.494 1.43574 -0.617749 0
M  V30 5763 H 542.229 2.90058 1.4504 0
M  V30 5764 H 542.014 3.921 -0.00125994 0
M  V30 5765 H 543.504 4.05958 0.979168 0
M  V30 5766 N 543.941 0.601185 1.45683 0
M  V30 5767 C 544.871 -0.108824 2.33246 0
M  V30 5768 C 545.852 -0.865223 1.46451 0
M  V30 5769 O 547.037 -0.83704 1.75235 0
M  V30 5770 C 544.167 -1.11101 3.2905 0
M  V30 5771 C 543.121 -0.468244 4.25431 0
M  V30 5772 C 542.447 -1.57822 5.10878 0
M  V30 5773 C 543.747 0.606469 5.18767 0
M  V30 5774 H 545.441 0.622306 2.92861 0
M  V30 5775 H 542.987 0.300714 1.40825 0
M  V30 5776 H 544.94 -1.61622 3.89174 0
M  V30 5777 H 543.664 -1.87265 2.67581 0
M  V30 5778 H 542.323 0.0160484 3.66596 0
M  V30 5779 H 541.971 -2.32998 4.45781 0
M  V30 5780 H 541.671 -1.15369 5.76163 0
M  V30 5781 H 543.195 -2.08583 5.73869 0
M  V30 5782 H 544.609 0.185589 5.73 0
M  V30 5783 H 543.006 0.952381 5.92494 0
M  V30 5784 H 544.076 1.48559 4.61582 0
M  V30 5785 N 545.419 -1.53889 0.339982 0
M  V30 5786 C 546.382 -2.23547 -0.50592 0
M  V30 5787 C 547.382 -1.23445 -1.03044 0
M  V30 5788 O 548.572 -1.47909 -0.920253 0
M  V30 5789 C 545.704 -2.95234 -1.7044 0
M  V30 5790 H 546.897 -2.99722 0.103247 0
M  V30 5791 H 544.45 -1.56033 0.0912804 0
M  V30 5792 H 545.185 -2.23236 -2.35236 0
M  V30 5793 H 544.97 -3.68654 -1.33553 0
M  V30 5794 H 546.46 -3.48258 -2.30447 0
M  V30 5795 N 546.897 -0.0685191 -1.57451 0
M  V30 5796 C 547.83 0.935736 -2.08133 0
M  V30 5797 C 548.808 1.29317 -0.985698 0
M  V30 5798 O 549.992 1.40304 -1.25886 0
M  V30 5799 C 547.119 2.2448 -2.53627 0
M  V30 5800 C 546.165 2.03917 -3.74593 0
M  V30 5801 S 546.998 1.30154 -5.19442 0
M  V30 5802 C 548.154 2.62346 -5.68265 0
M  V30 5803 H 548.387 0.504473 -2.92989 0
M  V30 5804 H 545.92 0.144169 -1.53725 0
M  V30 5805 H 547.878 2.99718 -2.80499 0
M  V30 5806 H 546.539 2.64731 -1.69045 0
M  V30 5807 H 545.732 3.00788 -4.04404 0
M  V30 5808 H 545.334 1.36815 -3.48077 0
M  V30 5809 H 547.626 3.58448 -5.7491 0
M  V30 5810 H 548.569 2.3715 -6.67207 0
M  V30 5811 H 548.977 2.69401 -4.96068 0
M  V30 5812 N 548.375 1.56261 0.205012 0
M  V30 5813 C 549.786 1.70056 0.770574 0
M  V30 5814 C 550.137 0.673398 1.84282 0
M  V30 5815 O 549.262 -0.172196 2.15714 0
M  V30 5816 C 549.857 3.08316 1.40451 0
M  V30 5817 C 548.416 3.2391 1.91727 0
M  V30 5818 C 547.563 2.66001 0.783516 0
M  V30 5819 H 550.514 1.58688 -0.019911 0
M  V30 5820 H 550.535 3.05094 2.27371 0
M  V30 5821 H 550.047 3.83053 0.623882 0
M  V30 5822 H 548.148 2.54072 2.7254 0
M  V30 5823 H 548.261 4.3131 2.08588 0
M  V30 5824 H 546.625 2.24915 1.19521 0
M  V30 5825 H 547.408 3.43297 0.0152883 0
M  V30 5826 N 549.853 -0.472356 1.50355 0
M  V30 5827 C 551.078 -1.25251 1.65309 0
M  V30 5828 C 551.503 -1.85081 0.335643 0
M  V30 5829 O 550.861 -1.67227 -0.700335 0
M  V30 5830 C 550.909 -2.3379 2.74544 0
M  V30 5831 O 550.013 -3.38401 2.35709 0
M  V30 5832 H 549.354 -0.368539 0.552336 0
M  V30 5833 H 551.884 -0.562271 1.96722 0
M  V30 5834 H 551.894 -2.79121 2.97583 0
M  V30 5835 H 550.569 -1.89614 3.70161 0
M  V30 5836 H 549.146 -2.9879 2.23112 0
M  V30 5837 N 551.331 -1.39911 -0.725443 0
M  V30 5838 C 552.556 -1.41137 -1.5197 0
M  V30 5839 C 552.981 -0.010262 -1.88097 0
M  V30 5840 O 552.339 0.979184 -1.52583 0
M  V30 5841 C 552.387 -2.2994 -2.77777 0
M  V30 5842 O 551.491 -1.73586 -3.74088 0
M  V30 5843 H 550.832 -0.480219 -0.458569 0
M  V30 5844 H 553.362 -1.84023 -0.894249 0
M  V30 5845 H 553.372 -2.44785 -3.26411 0
M  V30 5846 H 552.047 -3.31759 -2.50816 0
M  V30 5847 H 550.624 -1.68035 -3.32894 0
M  V30 5848 N 552.809 0.956637 -1.25245 0
M  V30 5849 C 553.772 2.03457 -1.05537 0
M  V30 5850 C 554.772 1.60798 -0.00886317 0
M  V30 5851 O 555.962 1.72384 -0.250865 0
M  V30 5852 C 553.094 3.35543 -0.601965 0
M  V30 5853 H 554.287 2.22372 -2.01223 0
M  V30 5854 H 551.84 1.13344 -1.07623 0
M  V30 5855 H 552.575 3.22323 0.357584 0
M  V30 5856 H 552.36 3.67854 -1.35743 0
M  V30 5857 H 553.85 4.14769 -0.485454 0
M  V30 5858 N 554.287 1.06798 1.15896 0
M  V30 5859 C 555.217 0.704677 2.22613 0
M  V30 5860 C 556.198 -0.305252 1.67339 0
M  V30 5861 O 557.383 -0.179247 1.93371 0
M  V30 5862 C 554.513 0.0957325 3.47168 0
M  V30 5863 C 553.467 1.0322 4.15367 0
M  V30 5864 C 552.793 0.286293 5.33933 0
M  V30 5865 C 554.093 2.36341 4.65768 0
M  V30 5866 H 555.787 1.59688 2.53259 0
M  V30 5867 H 553.333 0.769257 1.21731 0
M  V30 5868 H 555.286 -0.170333 4.21056 0
M  V30 5869 H 554.01 -0.831516 3.15838 0
M  V30 5870 H 552.669 1.28309 3.43413 0
M  V30 5871 H 552.317 -0.644237 4.98857 0
M  V30 5872 H 552.017 0.910436 5.80504 0
M  V30 5873 H 553.541 0.0278938 6.10594 0
M  V30 5874 H 554.955 2.1561 5.31211 0
M  V30 5875 H 553.352 2.94299 5.2298 0
M  V30 5876 H 554.422 2.99047 3.81705 0
M  V30 5877 N 555.766 -1.3263 0.851289 0
M  V30 5878 C 557.012 -1.9766 0.453694 0
M  V30 5879 C 557.345 -1.67225 -0.987396 0
M  V30 5880 O 556.62 -0.958693 -1.69232 0
M  V30 5881 C 556.903 -3.5344 0.68936 0
M  V30 5882 C 556.756 -3.93517 2.17862 0
M  V30 5883 C 558.075 -4.39866 0.143555 0
M  V30 5884 H 555.194 -0.717989 0.166314 0
M  V30 5885 H 557.836 -1.57068 1.06909 0
M  V30 5886 H 555.986 -3.88147 0.165546 0
M  V30 5887 H 557.658 -3.69006 2.76826 0
M  V30 5888 H 555.901 -3.42798 2.65841 0
M  V30 5889 H 556.572 -5.02065 2.29422 0
M  V30 5890 H 559.048 -4.11875 0.591451 0
M  V30 5891 H 557.924 -5.47858 0.338043 0
M  V30 5892 H 558.185 -4.31696 -0.953466 0
M  V30 5893 N 557.244 -0.608902 -1.45362 0
M  V30 5894 C 558.521 -0.0365378 -1.95566 0
M  V30 5895 C 558.901 1.43169 -1.55131 0
M  V30 5896 O 558.249 2.1349 -0.814513 0
M  V30 5897 C 558.459 -0.236026 -3.48201 0
M  V30 5898 C 559.807 -0.117518 -4.24437 0
M  V30 5899 O 560.831 -0.166217 -3.55812 0
M  V30 5900 O 559.69 -0.00372127 -5.465 0
M  V30 5901 H 556.784 0.0349874 -0.82626 0
M  V30 5902 H 559.33 -0.679055 -1.55521 0
M  V30 5903 H 558.102 -1.25569 -3.70605 0
M  V30 5904 H 557.725 0.441691 -3.95139 0
M  V30 5905 N 558.722 1.53707 -0.348139 0
M  V30 5906 C 559.95 2.05406 0.248224 0
M  V30 5907 C 560.365 1.22282 1.43849 0
M  V30 5908 O 559.722 0.259244 1.80649 0
M  V30 5909 C 559.773 3.55446 0.658793 0
M  V30 5910 O 559.494 4.35417 -0.484149 0
M  V30 5911 C 560.995 4.23335 1.31539 0
M  V30 5912 H 558.215 0.669344 0.0471075 0
M  V30 5913 H 560.759 1.98257 -0.501456 0
M  V30 5914 H 558.914 3.62803 1.35841 0
M  V30 5915 H 559.328 5.24268 -0.155949 0
M  V30 5916 H 560.802 5.29692 1.55338 0
M  V30 5917 H 561.279 3.75967 2.27036 0
M  V30 5918 H 561.885 4.20184 0.657683 0
M  V30 5919 N 560.2 0.0768682 1.57412 0
M  V30 5920 C 561.43 -0.5991 1.97723 0
M  V30 5921 C 561.838 -1.63378 0.954166 0
M  V30 5922 O 561.181 -1.83578 -0.0668706 0
M  V30 5923 C 561.243 -1.32078 3.34358 0
M  V30 5924 C 560.907 -0.438985 4.54887 0
M  V30 5925 C 561.904 0.305492 5.19002 0
M  V30 5926 C 559.589 -0.362378 5.00991 0
M  V30 5927 C 561.583 1.11475 6.27576 0
M  V30 5928 C 559.27 0.450543 6.09437 0
M  V30 5929 C 560.268 1.18777 6.72593 0
M  V30 5930 O 559.956 1.98727 7.7895 0
M  V30 5931 H 559.688 -0.166725 0.655117 0
M  V30 5932 H 562.242 0.147337 2.04871 0
M  V30 5933 H 560.472 -2.1134 3.2384 0
M  V30 5934 H 562.161 -1.88949 3.5924 0
M  V30 5935 H 562.927 0.25593 4.84324 0
M  V30 5936 H 558.806 -0.925832 4.51608 0
M  V30 5937 H 562.35 1.69068 6.76803 0
M  V30 5938 H 558.247 0.501651 6.43548 0
M  V30 5939 H 559.015 1.91214 7.95851 0
M  V30 5940 N 561.678 -1.56367 -0.196722 0
M  V30 5941 C 562.903 -1.84991 -0.937714 0
M  V30 5942 C 563.328 -0.660244 -1.76132 0
M  V30 5943 O 562.686 0.390967 -1.77034 0
M  V30 5944 C 562.734 -3.11828 -1.81096 0
M  V30 5945 O 561.838 -2.92266 -2.90955 0
M  V30 5946 H 561.179 -0.609193 -0.264159 0
M  V30 5947 H 563.709 -2.03595 -0.202529 0
M  V30 5948 H 563.719 -3.42579 -2.21594 0
M  V30 5949 H 562.394 -3.98037 -1.2058 0
M  V30 5950 H 560.971 -2.72809 -2.54224 0
M  V30 5951 N 563.156 0.464375 -1.50603 0
M  V30 5952 C 564.572 0.798684 -1.38178 0
M  V30 5953 C 564.772 1.96568 -0.44308 0
M  V30 5954 O 563.828 2.52252 0.111814 0
M  V30 5955 C 565.141 1.10444 -2.79683 0
M  V30 5956 C 566.689 1.2105 -2.88645 0
M  V30 5957 C 567.164 1.54934 -4.30998 0
M  V30 5958 N 568.655 1.61913 -4.3398 0
M  V30 5959 C 569.39 1.8965 -5.41129 0
M  V30 5960 N 568.886 2.15361 -6.58477 0
M  V30 5961 N 570.679 1.91207 -5.28579 0
M  V30 5962 H 562.83 -0.304603 -2.10204 0
M  V30 5963 H 565.093 -0.0737804 -0.945125 0
M  V30 5964 H 564.799 0.319934 -3.50242 0
M  V30 5965 H 564.673 2.03896 -3.17342 0
M  V30 5966 H 567.06 1.98567 -2.18301 0
M  V30 5967 H 567.141 0.255613 -2.5452 0
M  V30 5968 H 566.785 0.779549 -5.01882 0
M  V30 5969 H 566.715 2.51584 -4.62615 0
M  V30 5970 H 569.206 1.44055 -3.49366 0
M  V30 5971 H 569.519 2.35818 -7.35941 0
M  V30 5972 H 567.864 2.1274 -6.6164 0
M  V30 5973 H 571.055 1.70622 -4.35897 0
M  V30 5974 H 571.228 2.12488 -6.12171 0
M  V30 5975 N 564.634 1.40294 0.718013 0
M  V30 5976 C 565.881 1.3844 1.47786 0
M  V30 5977 C 566.209 -0.0140838 1.94495 0
M  V30 5978 O 565.464 -0.998165 1.68331 0
M  V30 5979 C 565.763 2.31814 2.72024 0
M  V30 5980 C 565.429 3.79117 2.44093 0
M  V30 5981 C 564.091 4.19249 2.36185 0
M  V30 5982 C 566.443 4.72212 2.20602 0
M  V30 5983 C 563.771 5.50516 2.02851 0
M  V30 5984 C 566.123 6.03775 1.88781 0
M  V30 5985 C 564.787 6.42953 1.79354 0
M  V30 5986 H 564.057 0.506588 0.540786 0
M  V30 5987 H 566.704 1.72929 0.822663 0
M  V30 5988 H 565.009 1.90501 3.42369 0
M  V30 5989 H 566.706 2.27664 3.30106 0
M  V30 5990 H 563.296 3.47318 2.51133 0
M  V30 5991 H 567.48 4.42026 2.25669 0
M  V30 5992 H 562.736 5.79776 1.94088 0
M  V30 5993 H 566.91 6.75428 1.69617 0
M  V30 5994 H 564.537 7.44584 1.53291 0
M  V30 5995 N 566.112 -0.949982 1.2575 0
M  V30 5996 C 567.36 -1.6918 1.10555 0
M  V30 5997 C 567.681 -1.91773 -0.353298 0
M  V30 5998 O 566.951 -1.50814 -1.25027 0
M  V30 5999 H 565.531 -0.626952 0.406129 0
M  V30 6000 H 568.193 -1.1419 1.57945 0
M  V30 6001 H 567.289 -2.66915 1.61749 0
M  V30 6002 N 567.59 -1.07411 -1.15328 0
M  V30 6003 C 568.52 -0.716472 -2.22236 0
M  V30 6004 C 569.501 0.296373 -1.67498 0
M  V30 6005 O 570.686 0.168989 -1.93463 0
M  V30 6006 C 567.816 -0.114142 -3.47112 0
M  V30 6007 C 566.77 -1.05421 -4.14814 0
M  V30 6008 C 566.096 -0.314604 -5.33774 0
M  V30 6009 C 567.396 -2.38808 -4.64508 0
M  V30 6010 H 569.09 -1.61029 -2.52408 0
M  V30 6011 H 566.636 -0.775702 -1.21321 0
M  V30 6012 H 568.589 0.148001 -4.2114 0
M  V30 6013 H 567.313 0.814755 -3.16274 0
M  V30 6014 H 565.972 -1.30128 -3.42728 0
M  V30 6015 H 565.62 0.617772 -4.99192 0
M  V30 6016 H 565.32 -0.941209 -5.80013 0
M  V30 6017 H 566.844 -0.0602747 -6.1057 0
M  V30 6018 H 568.258 -2.18424 -5.3006 0
M  V30 6019 H 566.655 -2.97069 -5.21412 0
M  V30 6020 H 567.725 -3.01067 -3.80114 0
M  V30 6021 N 569.068 1.32177 -0.85831 0
M  V30 6022 C 570.316 1.96735 -0.462568 0
M  V30 6023 C 570.637 1.6824 0.985911 0
M  V30 6024 O 569.907 0.991564 1.68952 0
M  V30 6025 H 568.487 0.727849 -0.168064 0
M  V30 6026 H 571.149 1.61195 -1.09554 0
M  V30 6027 H 570.245 3.06068 -0.610647 0
M  V30 6028 N 570.547 0.616602 1.45037 0
M  V30 6029 C 571.494 -0.0969439 2.30596 0
M  V30 6030 C 572.464 -0.851151 1.42635 0
M  V30 6031 O 573.649 -0.835092 1.71554 0
M  V30 6032 C 570.789 -1.08234 3.27688 0
M  V30 6033 C 569.902 -0.328072 4.30752 0
M  V30 6034 C 569.037 -1.30399 5.14946 0
M  V30 6035 C 568.076 -0.538049 6.09731 0
M  V30 6036 N 567.213 -1.46371 6.86673 0
M  V30 6037 H 572.053 0.63864 2.91076 0
M  V30 6038 H 569.59 0.326733 1.43425 0
M  V30 6039 H 571.548 -1.66688 3.82454 0
M  V30 6040 H 570.178 -1.78523 2.68941 0
M  V30 6041 H 569.23 0.372136 3.78575 0
M  V30 6042 H 570.542 0.269142 4.98073 0
M  V30 6043 H 569.696 -1.96032 5.74157 0
M  V30 6044 H 568.435 -1.93514 4.47665 0
M  V30 6045 H 567.44 0.131852 5.49642 0
M  V30 6046 H 568.665 0.0881732 6.79043 0
M  V30 6047 H 566.611 -2.08233 6.22073 0
M  V30 6048 H 566.528 -0.920152 7.50379 0
M  V30 6049 H 567.796 -2.10932 7.50418 0
M  V30 6050 N 572.025 -1.5352 0.356285 0
M  V30 6051 C 572.988 -2.24071 -0.482182 0
M  V30 6052 C 573.988 -1.24531 -1.01729 0
M  V30 6053 O 575.178 -1.48876 -0.904513 0
M  V30 6054 C 572.31 -2.97025 -1.67299 0
M  V30 6055 H 573.503 -2.99596 0.135031 0
M  V30 6056 H 571.056 -1.55928 0.107825 0
M  V30 6057 H 571.791 -2.25719 -2.32855 0
M  V30 6058 H 571.576 -3.7005 -1.29636 0
M  V30 6059 H 573.066 -3.50683 -2.26741 0
M  V30 6060 N 573.503 -0.0852151 -1.57369 0
M  V30 6061 C 574.731 0.58946 -1.98325 0
M  V30 6062 C 575.146 1.62333 -0.96403 0
M  V30 6063 O 574.503 1.82438 0.0476395 0
M  V30 6064 C 574.554 1.24604 -3.39347 0
M  V30 6065 O 574.275 0.253532 -4.37366 0
M  V30 6066 C 575.776 2.00726 -3.95252 0
M  V30 6067 H 572.996 0.158783 -0.651942 0
M  V30 6068 H 575.54 -0.161584 -2.03861 0
M  V30 6069 H 573.695 1.94808 -3.34856 0
M  V30 6070 H 574.109 0.726207 -5.19448 0
M  V30 6071 H 575.583 2.42039 -4.96106 0
M  V30 6072 H 576.06 2.86919 -3.32527 0
M  V30 6073 H 576.666 1.3536 -4.03185 0
M  V30 6074 N 574.981 1.5647 0.188427 0
M  V30 6075 C 575.929 1.95971 1.25293 0
M  V30 6076 C 576.923 0.846047 1.4676 0
M  V30 6077 O 578.129 1.03109 1.47542 0
M  V30 6078 H 574.504 0.623253 0.420784 0
M  V30 6079 H 576.475 2.84731 0.892792 0
M  V30 6080 C 575.224 2.32116 2.58877 0
M  V30 6081 H 574.547 3.17341 2.43176 0
M  V30 6082 H 575.987 2.63613 3.3209 0
M  V30 6083 C 574.446 1.15823 3.16365 0
M  V30 6084 O 574.976 0.436785 3.99318 0
M  V30 6085 N 573.182 0.933278 2.75206 0
M  V30 6086 H 572.729 1.52169 2.07852 0
M  V30 6087 H 572.687 0.156976 3.14008 0
M  V30 6088 N 576.459 -0.456382 1.50847 0
M  V30 6089 C 577.389 -1.56025 1.73719 0
M  V30 6090 C 578.37 -1.5967 0.586473 0
M  V30 6091 O 579.555 -1.75702 0.827185 0
M  V30 6092 C 576.685 -2.94251 1.84483 0
M  V30 6093 C 575.639 -3.05471 2.99786 0
M  V30 6094 C 574.965 -4.45489 2.95709 0
M  V30 6095 C 576.265 -2.81318 4.40065 0
M  V30 6096 H 577.959 -1.37138 2.66146 0
M  V30 6097 H 575.505 -0.658299 1.28072 0
M  V30 6098 H 577.458 -3.71417 1.99067 0
M  V30 6099 H 576.182 -3.14328 0.886891 0
M  V30 6100 H 574.841 -2.30741 2.84876 0
M  V30 6101 H 574.489 -4.62505 1.97732 0
M  V30 6102 H 574.189 -4.53929 3.73125 0
M  V30 6103 H 575.713 -5.24655 3.12362 0
M  V30 6104 H 577.127 -3.48226 4.55425 0
M  V30 6105 H 575.524 -3.01188 5.19043 0
M  V30 6106 H 576.594 -1.7706 4.51418 0
M  V30 6107 N 577.937 -1.40673 -0.710563 0
M  V30 6108 C 579.185 -1.38947 -1.46759 0
M  V30 6109 C 579.506 0.00572879 -1.94999 0
M  V30 6110 O 578.776 0.961358 -1.70689 0
M  V30 6111 H 577.356 -0.5114 -0.544499 0
M  V30 6112 H 580.018 -1.75773 -0.842012 0
M  V30 6113 H 579.114 -2.06745 -2.33801 0
M  V30 6114 N 579.415 0.9433 -1.26252 0
M  V30 6115 C 580.345 2.05902 -1.10122 0
M  V30 6116 C 581.326 1.70099 -0.00700552 0
M  V30 6117 O 582.511 1.93377 -0.178641 0
M  V30 6118 C 579.641 3.39516 -0.731175 0
M  V30 6119 C 578.595 3.89372 -1.77688 0
M  V30 6120 C 577.921 5.19613 -1.26122 0
M  V30 6121 C 579.221 4.14489 -3.17799 0
M  V30 6122 H 580.915 2.19655 -2.03451 0
M  V30 6123 H 578.461 1.05548 -0.979576 0
M  V30 6124 H 580.414 4.17031 -0.605215 0
M  V30 6125 H 579.138 3.25733 0.23782 0
M  V30 6126 H 577.797 3.14036 -1.89148 0
M  V30 6127 H 577.445 5.02208 -0.282128 0
M  V30 6128 H 577.145 5.53939 -1.96023 0
M  V30 6129 H 578.669 5.99713 -1.14789 0
M  V30 6130 H 580.083 4.82625 -3.09428 0
M  V30 6131 H 578.48 4.60094 -3.85271 0
M  V30 6132 H 579.55 3.20347 -3.64014 0
M  V30 6133 N 580.893 1.08022 1.14757 0
M  V30 6134 C 582.139 0.808705 1.85978 0
M  V30 6135 C 582.472 -0.663764 1.82504 0
M  V30 6136 O 581.747 -1.48765 1.25296 0
M  V30 6137 C 582.03 1.32623 3.34788 0
M  V30 6138 C 581.883 2.86375 3.46856 0
M  V30 6139 C 583.202 0.948291 4.29762 0
M  V30 6140 H 580.321 0.295244 0.675278 0
M  V30 6141 H 582.963 1.33917 1.34783 0
M  V30 6142 H 581.113 0.875002 3.78518 0
M  V30 6143 H 582.785 3.39839 3.11941 0
M  V30 6144 H 581.028 3.24232 2.88194 0
M  V30 6145 H 581.699 3.17658 4.51439 0
M  V30 6146 H 584.175 1.33722 3.94028 0
M  V30 6147 H 583.051 1.33765 5.32352 0
M  V30 6148 H 583.312 -0.145094 4.41862 0
M  V30 6149 N 582.371 -1.3172 0.865308 0
M  V30 6150 C 583.619 -1.96487 0.472995 0
M  V30 6151 C 583.94 -1.68761 -0.976975 0
M  V30 6152 O 583.21 -1.00051 -1.68424 0
M  V30 6153 H 581.79 -0.726947 0.171922 0
M  V30 6154 H 584.452 -1.60612 1.10407 0
M  V30 6155 H 583.548 -3.0574 0.62687 0
M  V30 6156 N 583.85 -0.624285 -1.44708 0
M  V30 6157 C 584.76 0.0861083 -2.34442 0
M  V30 6158 C 585.776 0.84291 -1.5222 0
M  V30 6159 O 586.952 0.796723 -1.84971 0
M  V30 6160 C 584.017 1.05999 -3.30099 0
M  V30 6161 C 583.077 0.303316 -4.28227 0
M  V30 6162 C 582.311 1.23081 -5.19314 0
M  V30 6163 O 582.534 2.46929 -5.14181 0
M  V30 6164 O 581.468 0.71883 -5.97592 0
M  V30 6165 H 585.293 -0.651756 -2.96624 0
M  V30 6166 H 582.879 -0.384493 -1.44368 0
M  V30 6167 H 584.76 1.62046 -3.88997 0
M  V30 6168 H 583.436 1.77859 -2.70459 0
M  V30 6169 H 582.343 -0.300033 -3.72895 0
M  V30 6170 H 583.676 -0.375123 -4.90768 0
M  V30 6171 N 585.328 1.53329 -0.364422 0
M  V30 6172 C 586.744 1.59594 -0.0133165 0
M  V30 6173 C 586.944 1.37959 1.46865 0
M  V30 6174 O 586 1.18418 2.2301 0
M  V30 6175 C 587.313 2.97032 -0.468213 0
M  V30 6176 C 588.861 3.10138 -0.422334 0
M  V30 6177 C 589.336 4.49986 -0.853024 0
M  V30 6178 N 590.827 4.56098 -0.808037 0
M  V30 6179 C 591.562 5.62495 -1.11299 0
M  V30 6180 N 591.058 6.7665 -1.48717 0
M  V30 6181 N 592.851 5.52473 -1.03586 0
M  V30 6182 H 585.002 1.65644 -1.32951 0
M  V30 6183 H 587.265 0.77684 -0.543345 0
M  V30 6184 H 586.971 3.18 -1.5023 0
M  V30 6185 H 586.845 3.76918 0.145775 0
M  V30 6186 H 589.232 2.88881 0.602622 0
M  V30 6187 H 589.313 2.32263 -1.0718 0
M  V30 6188 H 588.957 4.7198 -1.87609 0
M  V30 6189 H 588.887 5.26289 -0.180819 0
M  V30 6190 H 591.378 3.74131 -0.532361 0
M  V30 6191 H 591.691 7.53776 -1.70415 0
M  V30 6192 H 590.036 6.78044 -1.52581 0
M  V30 6193 H 593.227 4.6217 -0.742736 0
M  V30 6194 H 593.4 6.35295 -1.27686 0
M  V30 6195 N 586.806 0.0935595 1.57322 0
M  V30 6196 C 588.031 -0.582324 1.99057 0
M  V30 6197 C 588.456 -1.61025 0.972242 0
M  V30 6198 O 587.814 -1.81202 -0.0594622 0
M  V30 6199 C 587.862 -1.20799 3.39765 0
M  V30 6200 O 586.966 -2.32382 3.40694 0
M  V30 6201 H 586.307 -0.147884 0.647323 0
M  V30 6202 H 588.837 0.174516 2.03854 0
M  V30 6203 H 588.847 -1.54966 3.77425 0
M  V30 6204 H 587.522 -0.454914 4.13405 0
M  V30 6205 H 586.099 -1.99845 3.14827 0
M  V30 6206 N 588.284 -1.56567 -0.180126 0
M  V30 6207 C 589.532 -1.81133 -0.896392 0
M  V30 6208 C 589.853 -0.669114 -1.83161 0
M  V30 6209 O 589.123 0.311616 -1.93406 0
M  V30 6210 H 587.703 -0.668172 -0.333999 0
M  V30 6211 H 590.365 -1.94048 -0.182051 0
M  V30 6212 H 589.461 -2.74854 -1.47857 0
M  V30 6213 N 589.762 0.448376 -1.51087 0
M  V30 6214 C 590.692 1.55102 -1.74544 0
M  V30 6215 C 591.673 1.59357 -0.594932 0
M  V30 6216 O 592.858 1.75261 -0.836491 0
M  V30 6217 C 589.988 2.93268 -1.86041 0
M  V30 6218 C 588.942 3.03877 -3.01402 0
M  V30 6219 C 588.268 4.43914 -2.98068 0
M  V30 6220 C 589.568 2.7898 -4.41551 0
M  V30 6221 H 591.262 1.35724 -2.66869 0
M  V30 6222 H 588.808 0.651498 -1.28419 0
M  V30 6223 H 590.761 3.70356 -2.01034 0
M  V30 6224 H 589.485 3.13853 -0.903548 0
M  V30 6225 H 588.144 2.29227 -2.86096 0
M  V30 6226 H 587.792 4.6145 -2.00182 0
M  V30 6227 H 587.492 4.51944 -3.75527 0
M  V30 6228 H 589.016 5.22991 -3.1514 0
M  V30 6229 H 590.43 3.45805 -4.57265 0
M  V30 6230 H 588.827 2.98431 -5.20633 0
M  V30 6231 H 589.897 1.74663 -4.5235 0
M  V30 6232 N 591.24 1.41047 0.703093 0
M  V30 6233 C 592.47 1.43133 1.48985 0
M  V30 6234 C 592.878 0.0328537 1.89171 0
M  V30 6235 O 592.221 -0.956469 1.56835 0
M  V30 6236 C 592.283 2.26991 2.78775 0
M  V30 6237 C 591.947 3.7525 2.60837 0
M  V30 6238 C 592.944 4.67591 2.27276 0
M  V30 6239 C 590.629 4.19208 2.76712 0
M  V30 6240 C 592.623 6.01877 2.09817 0
M  V30 6241 C 590.31 5.53561 2.5887 0
M  V30 6242 C 591.308 6.4471 2.25472 0
M  V30 6243 O 590.996 7.76584 2.07778 0
M  V30 6244 H 590.728 0.489788 0.465922 0
M  V30 6245 H 593.282 1.85886 0.873822 0
M  V30 6246 H 591.512 1.79038 3.42757 0
M  V30 6247 H 593.201 2.20867 3.40547 0
M  V30 6248 H 593.967 4.34923 2.14633 0
M  V30 6249 H 589.846 3.48572 3.01693 0
M  V30 6250 H 593.39 6.72986 1.83671 0
M  V30 6251 H 589.287 5.85811 2.71102 0
M  V30 6252 H 590.055 7.87649 2.22601 0
M  V30 6253 N 592.718 -0.936591 1.26751 0
M  V30 6254 C 594.129 -1.49816 1.1141 0
M  V30 6255 C 594.48 -1.9383 -0.304015 0
M  V30 6256 O 593.605 -1.80346 -1.196 0
M  V30 6257 C 594.2 -2.72271 2.01629 0
M  V30 6258 C 592.759 -3.2468 1.9042 0
M  V30 6259 C 591.906 -1.97444 1.94708 0
M  V30 6260 H 594.857 -0.751604 1.39773 0
M  V30 6261 H 594.878 -3.46741 1.56688 0
M  V30 6262 H 594.39 -2.40205 3.04833 0
M  V30 6263 H 592.491 -3.61525 0.901674 0
M  V30 6264 H 592.604 -3.91476 2.76195 0
M  V30 6265 H 590.968 -2.13545 1.38818 0
M  V30 6266 H 591.751 -1.67703 2.9955 0
M  V30 6267 N 594.196 -1.08629 -1.14182 0
M  V30 6268 C 595.128 -0.676189 -2.18998 0
M  V30 6269 C 596.141 0.277871 -1.60411 0
M  V30 6270 O 597.33 0.0651771 -1.78381 0
M  V30 6271 C 594.43 0.0254916 -3.3889 0
M  V30 6272 C 593.603 -0.948039 -4.27002 0
M  V30 6273 C 592.662 -0.281268 -5.25448 0
M  V30 6274 O 591.688 -0.926378 -5.61611 0
M  V30 6275 N 592.89 0.967923 -5.72374 0
M  V30 6276 H 595.655 -1.57792 -2.54798 0
M  V30 6277 H 593.216 -0.972665 -1.29425 0
M  V30 6278 H 595.208 0.482554 -4.01813 0
M  V30 6279 H 593.778 0.829348 -3.01398 0
M  V30 6280 H 592.998 -1.58388 -3.6098 0
M  V30 6281 H 594.286 -1.60765 -4.82734 0
M  V30 6282 H 593.684 1.51175 -5.45126 0
M  V30 6283 H 592.241 1.36844 -6.37273 0
M  V30 6284 N 595.674 1.31259 -0.872281 0
M  V30 6285 C 596.621 2.28459 -0.327857 0
M  V30 6286 C 597.591 1.55831 0.574957 0
M  V30 6287 O 598.776 1.83965 0.506101 0
M  V30 6288 C 595.916 3.41985 0.462644 0
M  V30 6289 C 595.029 4.29458 -0.467949 0
M  V30 6290 C 594.164 5.30131 0.336903 0
M  V30 6291 C 593.203 6.0925 -0.58997 0
M  V30 6292 N 592.34 7.01872 0.178775 0
M  V30 6293 H 597.18 2.74414 -1.16193 0
M  V30 6294 H 594.717 1.34994 -0.584376 0
M  V30 6295 H 596.675 4.06547 0.936759 0
M  V30 6296 H 595.305 2.97134 1.2614 0
M  V30 6297 H 594.357 3.65318 -1.06052 0
M  V30 6298 H 595.669 4.84677 -1.17856 0
M  V30 6299 H 594.823 6.0038 0.873427 0
M  V30 6300 H 593.562 4.75573 1.08079 0
M  V30 6301 H 592.567 5.37889 -1.13823 0
M  V30 6302 H 593.792 6.65894 -1.33275 0
M  V30 6303 H 591.738 6.49721 0.905435 0
M  V30 6304 H 591.655 7.54522 -0.472452 0
M  V30 6305 H 592.923 7.76382 0.696454 0
M  V30 6306 N 597.152 0.631951 1.44375 0
M  V30 6307 C 598.084 -0.110911 2.28931 0
M  V30 6308 C 599.097 -0.808086 1.41329 0
M  V30 6309 O 600.286 -0.669396 1.65473 0
M  V30 6310 C 597.386 -1.17928 3.1772 0
M  V30 6311 C 596.559 -0.564458 4.33743 0
M  V30 6312 C 595.618 -1.5269 5.0356 0
M  V30 6313 O 594.644 -1.04372 5.59549 0
M  V30 6314 N 595.846 -2.86123 5.05088 0
M  V30 6315 H 598.611 0.614758 2.93327 0
M  V30 6316 H 596.172 0.473171 1.54831 0
M  V30 6317 H 598.164 -1.82348 3.61291 0
M  V30 6318 H 596.734 -1.80717 2.55069 0
M  V30 6319 H 595.954 0.258373 3.93352 0
M  V30 6320 H 597.242 -0.134355 5.08623 0
M  V30 6321 H 596.64 -3.27959 4.60933 0
M  V30 6322 H 595.197 -3.45901 5.52445 0
M  V30 6323 N 598.631 -1.53133 0.372548 0
M  V30 6324 C 600.047 -1.59585 0.02178 0
M  V30 6325 C 600.247 -1.38736 -1.46132 0
M  V30 6326 O 599.303 -1.19599 -2.22379 0
M  V30 6327 C 600.616 -2.9678 0.483959 0
M  V30 6328 C 602.164 -3.09909 0.438775 0
M  V30 6329 C 602.639 -4.49527 0.876876 0
M  V30 6330 N 604.13 -4.55663 0.832214 0
M  V30 6331 C 604.865 -5.61896 1.14281 0
M  V30 6332 N 604.361 -6.75852 1.52303 0
M  V30 6333 N 606.154 -5.51916 1.06515 0
M  V30 6334 H 598.305 -1.64936 1.33827 0
M  V30 6335 H 600.568 -0.773947 0.547458 0
M  V30 6336 H 600.274 -3.17198 1.51915 0
M  V30 6337 H 600.148 -3.7699 -0.125784 0
M  V30 6338 H 602.535 -2.89197 -0.587294 0
M  V30 6339 H 602.616 -2.31691 1.0841 0
M  V30 6340 H 602.26 -4.70979 1.90109 0
M  V30 6341 H 602.19 -5.26186 0.208727 0
M  V30 6342 H 604.681 -3.73844 0.552195 0
M  V30 6343 H 604.994 -7.52862 1.7441 0
M  V30 6344 H 603.339 -6.77226 1.56175 0
M  V30 6345 H 606.53 -4.6177 0.767235 0
M  V30 6346 H 606.703 -6.34609 1.31053 0
M  V30 6347 N 600.109 -0.101901 -1.5727 0
M  V30 6348 C 601.355 0.554864 -1.95686 0
M  V30 6349 C 601.71 1.65368 -0.983415 0
M  V30 6350 O 601.003 1.91597 -0.0105374 0
M  V30 6351 C 601.197 1.14898 -3.38427 0
M  V30 6352 C 601.026 0.109251 -4.49567 0
M  V30 6353 C 599.796 -0.316633 -5.04307 0
M  V30 6354 C 601.994 -0.665196 -5.0998 0
M  V30 6355 N 599.976 -1.34393 -5.99009 0
M  V30 6356 C 601.347 -1.54413 -6.00464 0
M  V30 6357 C 603.402 -0.717966 -4.92696 0
M  V30 6358 C 602.105 -2.47122 -6.75517 0
M  V30 6359 C 604.131 -1.63268 -5.68417 0
M  V30 6360 C 603.493 -2.49923 -6.58572 0
M  V30 6361 H 599.592 0.17317 -0.762585 0
M  V30 6362 H 602.176 -0.18605 -1.93809 0
M  V30 6363 H 600.347 1.85969 -3.40984 0
M  V30 6364 H 602.079 1.76867 -3.64006 0
M  V30 6365 H 598.834 0.0724419 -4.73545 0
M  V30 6366 H 599.258 -1.85598 -6.51062 0
M  V30 6367 H 603.9 -0.0621637 -4.22754 0
M  V30 6368 H 601.618 -3.13724 -7.44717 0
M  V30 6369 H 605.204 -1.67874 -5.57054 0
M  V30 6370 H 604.084 -3.19553 -7.16139 0
M  V30 6371 N 601.587 1.56661 0.17182 0
M  V30 6372 C 602.812 1.86459 0.908165 0
M  V30 6373 C 603.237 0.688181 1.75059 0
M  V30 6374 O 602.595 -0.362753 1.77634 0
M  V30 6375 C 602.643 3.14669 1.76112 0
M  V30 6376 O 601.747 2.96858 2.86268 0
M  V30 6377 H 601.088 0.613318 0.254434 0
M  V30 6378 H 603.618 2.03892 0.170113 0
M  V30 6379 H 603.628 3.46061 2.16115 0
M  V30 6380 H 602.303 3.99905 1.14233 0
M  V30 6381 H 600.88 2.76819 2.49852 0
M  V30 6382 N 603.065 -0.440357 1.51323 0
M  V30 6383 C 604.342 -1.20109 1.5438 0
M  V30 6384 C 604.722 -2.08866 0.306303 0
M  V30 6385 O 604.07 -2.1723 -0.708773 0
M  V30 6386 C 604.28 -2.00555 2.8562 0
M  V30 6387 C 605.628 -2.577 3.37455 0
M  V30 6388 O 606.652 -2.10769 2.8715 0
M  V30 6389 O 605.511 -3.43289 4.25224 0
M  V30 6390 H 602.605 -0.546668 0.620551 0
M  V30 6391 H 605.151 -0.449672 1.63634 0
M  V30 6392 H 603.923 -1.35346 3.67147 0
M  V30 6393 H 603.546 -2.82768 2.79514 0
M  V30 6394 N 604.543 -1.41418 -0.695603 0
M  V30 6395 C 605.792 -1.40073 -1.4513 0
M  V30 6396 C 606.105 -0.0130439 -1.95596 0
M  V30 6397 O 607.311 0.123032 -2.71221 0
M  V30 6398 C 605.767 -2.46286 -2.62433 0
M  V30 6399 C 605.375 -3.90962 -2.18753 0
M  V30 6400 C 607.119 -2.54077 -3.40066 0
M  V30 6401 C 605.026 -4.88728 -3.33015 0
M  V30 6402 H 603.956 -0.520903 -0.545138 0
M  V30 6403 H 606.607 -1.67242 -0.75515 0
M  V30 6404 H 604.989 -2.12248 -3.34315 0
M  V30 6405 H 606.163 -4.34248 -1.54161 0
M  V30 6406 H 604.478 -3.86831 -1.54114 0
M  V30 6407 H 607.075 -3.24303 -4.25125 0
M  V30 6408 H 607.418 -1.5776 -3.8525 0
M  V30 6409 H 607.951 -2.87206 -2.75241 0
M  V30 6410 H 604.69 -5.86449 -2.92844 0
M  V30 6411 H 604.21 -4.50091 -3.96457 0
M  V30 6412 H 605.889 -5.09483 -3.98793 0
M  V30 6413 N 606.021 0.929856 -1.27246 0
M  V30 6414 C 606.931 2.0636 -1.11592 0
M  V30 6415 C 607.947 1.73938 -0.046496 0
M  V30 6416 O 609.123 1.9981 -0.252544 0
M  V30 6417 C 606.188 3.38213 -0.762437 0
M  V30 6418 C 605.249 3.84346 -1.9125 0
M  V30 6419 C 604.482 5.09906 -1.57579 0
M  V30 6420 O 604.705 5.68354 -0.482694 0
M  V30 6421 O 603.639 5.51359 -2.41426 0
M  V30 6422 H 607.465 2.22478 -2.0673 0
M  V30 6423 H 605.05 1.04865 -1.06413 0
M  V30 6424 H 606.932 4.1741 -0.57854 0
M  V30 6425 H 605.607 3.23307 0.159439 0
M  V30 6426 H 604.514 3.06045 -2.15144 0
M  V30 6427 H 605.847 4.0379 -2.81451 0
M  V30 6428 N 607.499 1.09233 1.13605 0
M  V30 6429 C 608.915 0.82163 1.36826 0
M  V30 6430 C 609.115 -0.565021 1.93416 0
M  V30 6431 O 608.171 -1.32026 2.15234 0
M  V30 6432 C 609.484 1.91124 2.32147 0
M  V30 6433 C 611.032 1.93824 2.45767 0
M  V30 6434 C 611.507 3.01923 3.44393 0
M  V30 6435 N 612.998 3.01149 3.51942 0
M  V30 6436 C 613.733 3.81434 4.2813 0
M  V30 6437 N 613.229 4.71621 5.07489 0
M  V30 6438 N 615.022 3.69702 4.23411 0
M  V30 6439 H 607.173 1.98633 0.752234 0
M  V30 6440 H 609.436 0.862482 0.393482 0
M  V30 6441 H 609.142 2.90862 1.97717 0
M  V30 6442 H 609.016 1.78777 3.32142 0
M  V30 6443 H 611.403 0.94726 2.79483 0
M  V30 6444 H 611.484 2.10248 1.45703 0
M  V30 6445 H 611.128 4.01232 3.11408 0
M  V30 6446 H 611.058 2.82742 4.44257 0
M  V30 6447 H 613.549 2.35789 2.95317 0
M  V30 6448 H 613.862 5.29468 5.62924 0
M  V30 6449 H 612.207 4.75658 5.06729 0
M  V30 6450 H 615.398 2.98606 3.60489 0
M  V30 6451 H 615.571 4.32509 4.82535 0
M  V30 6452 N 608.977 -1.30795 0.87923 0
M  V30 6453 C 609.94 -2.26563 0.346676 0
M  V30 6454 C 610.94 -1.52578 -0.507597 0
M  V30 6455 O 612.13 -1.71318 -0.315575 0
M  V30 6456 C 609.262 -3.37115 -0.506611 0
M  V30 6457 H 610.455 -2.75183 1.19223 0
M  V30 6458 H 608.008 -1.41886 0.655598 0
M  V30 6459 H 608.743 -2.93802 -1.37299 0
M  V30 6460 H 608.528 -3.91959 0.105218 0
M  V30 6461 H 610.018 -4.08412 -0.871192 0
M  V30 6462 N 610.455 -0.639598 -1.44038 0
M  V30 6463 C 611.683 -0.154811 -2.0632 0
M  V30 6464 C 612.098 1.17406 -1.47856 0
M  V30 6465 O 611.455 1.72193 -0.604638 0
M  V30 6466 C 611.506 -0.0429958 -3.61474 0
M  V30 6467 O 611.227 -1.31932 -4.17763 0
M  V30 6468 C 612.728 0.469486 -4.40807 0
M  V30 6469 H 609.948 -0.0835862 -0.665773 0
M  V30 6470 H 612.492 -0.876397 -1.84769 0
M  V30 6471 H 610.647 0.629075 -3.82258 0
M  V30 6472 H 611.061 -1.16965 -5.11292 0
M  V30 6473 H 612.535 0.496712 -5.49761 0
M  V30 6474 H 613.012 1.49819 -4.12857 0
M  V30 6475 H 613.618 -0.169624 -4.24962 0
M  V30 6476 N 611.933 1.52934 -0.380664 0
M  V30 6477 C 613.18 2.01467 0.204278 0
M  V30 6478 C 613.508 1.26744 1.47533 0
M  V30 6479 O 612.763 0.353723 1.92477 0
M  V30 6480 C 613.062 3.5349 0.527199 0
M  V30 6481 C 612.728 4.46171 -0.651295 0
M  V30 6482 C 611.39 4.71227 -0.974619 0
M  V30 6483 C 613.742 5.00909 -1.44012 0
M  V30 6484 C 611.07 5.4827 -2.08847 0
M  V30 6485 C 613.422 5.7917 -2.5445 0
M  V30 6486 C 612.086 6.02507 -2.87301 0
M  V30 6487 H 611.356 0.73722 0.0747504 0
M  V30 6488 H 614.003 1.84411 -0.516234 0
M  V30 6489 H 612.308 3.68574 1.32892 0
M  V30 6490 H 614.005 3.88529 0.992283 0
M  V30 6491 H 610.595 4.26829 -0.389276 0
M  V30 6492 H 614.779 4.81485 -1.20357 0
M  V30 6493 H 610.035 5.64567 -2.34679 0
M  V30 6494 H 614.209 6.20588 -3.1598 0
M  V30 6495 H 611.836 6.61989 -3.7373 0
M  V30 6496 N 613.412 0.11024 1.57214 0
M  V30 6497 C 614.637 -0.561179 1.99664 0
M  V30 6498 C 615.062 -1.59985 0.989266 0
M  V30 6499 O 614.42 -1.81255 -0.0402399 0
M  V30 6500 C 614.468 -1.17189 3.41027 0
M  V30 6501 O 613.572 -2.28755 3.4314 0
M  V30 6502 H 612.913 -0.14101 0.648855 0
M  V30 6503 H 615.443 0.196128 2.03658 0
M  V30 6504 H 615.453 -1.50954 3.79047 0
M  V30 6505 H 614.128 -0.411041 4.13864 0
M  V30 6506 H 612.705 -1.96495 3.16929 0
M  V30 6507 N 614.89 -1.56749 -0.16351 0
M  V30 6508 C 616.137 -1.82434 -0.878866 0
M  V30 6509 C 616.465 -0.688557 -1.81904 0
M  V30 6510 O 615.72 0.323644 -1.93005 0
M  V30 6511 C 616.019 -3.14342 -1.70071 0
M  V30 6512 C 615.685 -4.41647 -0.908775 0
M  V30 6513 C 614.347 -4.76224 -0.690236 0
M  V30 6514 C 616.699 -5.19998 -0.353815 0
M  V30 6515 C 614.027 -5.86624 0.0942374 0
M  V30 6516 C 616.379 -6.3122 0.41761 0
M  V30 6517 C 615.043 -6.64358 0.646879 0
M  V30 6518 H 614.313 -0.667574 -0.3216 0
M  V30 6519 H 616.96 -1.90963 -0.14337 0
M  V30 6520 H 615.265 -3.0119 -2.50583 0
M  V30 6521 H 616.962 -3.31426 -2.25738 0
M  V30 6522 H 613.552 -4.1453 -1.08916 0
M  V30 6523 H 617.736 -4.93673 -0.509975 0
M  V30 6524 H 612.992 -6.10751 0.281529 0
M  V30 6525 H 617.166 -6.91133 0.854849 0
M  V30 6526 H 614.793 -7.49742 1.25662 0
M  V30 6527 N 616.368 0.432326 -1.51554 0
M  V30 6528 C 617.616 1.17901 -1.64146 0
M  V30 6529 C 617.937 1.91604 -0.362367 0
M  V30 6530 O 617.207 1.85764 0.621968 0
M  V30 6531 H 615.787 0.438206 -0.604966 0
M  V30 6532 H 618.449 0.495172 -1.88505 0
M  V30 6533 H 617.545 1.90584 -2.47152 0
M  V30 6534 N 617.846 1.41785 0.688094 0
M  V30 6535 C 619.076 1.44705 1.47459 0
M  V30 6536 C 619.484 0.052916 1.89126 0
M  V30 6537 O 618.827 -0.939781 1.57841 0
M  V30 6538 C 618.889 2.29935 2.76352 0
M  V30 6539 C 618.553 3.77996 2.56843 0
M  V30 6540 C 619.55 4.69976 2.22304 0
M  V30 6541 C 617.235 4.2212 2.7225 0
M  V30 6542 C 619.229 6.04068 2.03421 0
M  V30 6543 C 616.916 5.56275 2.52985 0
M  V30 6544 C 617.914 6.47065 2.18621 0
M  V30 6545 O 617.602 7.78744 1.9953 0
M  V30 6546 H 617.334 0.494703 0.460701 0
M  V30 6547 H 619.888 1.86802 0.854057 0
M  V30 6548 H 618.118 1.82664 3.40839 0
M  V30 6549 H 619.807 2.24467 3.38186 0
M  V30 6550 H 620.573 4.37175 2.10008 0
M  V30 6551 H 616.452 3.51752 2.97979 0
M  V30 6552 H 619.996 6.74897 1.76523 0
M  V30 6553 H 615.893 5.88653 2.64873 0
M  V30 6554 H 616.661 7.89966 2.14234 0
M  V30 6555 N 619.324 -0.923095 1.27737 0
M  V30 6556 C 620.572 -1.66797 1.14119 0
M  V30 6557 C 620.893 -1.92479 -0.312541 0
M  V30 6558 O 620.163 -1.53432 -1.218 0
M  V30 6559 H 618.743 -0.618196 0.419336 0
M  V30 6560 H 621.405 -1.10815 1.60331 0
M  V30 6561 H 620.501 -2.63424 1.67374 0
M  V30 6562 N 620.802 -1.09834 -1.13024 0
M  V30 6563 C 621.732 -0.763451 -2.20666 0
M  V30 6564 C 622.713 0.260778 -1.68089 0
M  V30 6565 O 623.898 0.127915 -1.93778 0
M  V30 6566 C 621.028 -0.187744 -3.46792 0
M  V30 6567 C 619.982 -1.14196 -4.12484 0
M  V30 6568 C 619.308 -0.427755 -5.32986 0
M  V30 6569 C 620.608 -2.48607 -4.59338 0
M  V30 6570 H 622.302 -1.66347 -2.48936 0
M  V30 6571 H 619.848 -0.801261 -1.19649 0
M  V30 6572 H 621.801 0.0586375 -4.21359 0
M  V30 6573 H 620.525 0.747485 -3.17931 0
M  V30 6574 H 619.184 -1.37369 -3.3989 0
M  V30 6575 H 618.832 0.511747 -5.0039 0
M  V30 6576 H 618.532 -1.06403 -5.77886 0
M  V30 6577 H 620.056 -0.189772 -6.10305 0
M  V30 6578 H 621.47 -2.29618 -5.25308 0
M  V30 6579 H 619.867 -3.08062 -5.14993 0
M  V30 6580 H 620.937 -3.09062 -3.73642 0
M  V30 6581 N 622.28 1.30327 -0.886154 0
M  V30 6582 C 623.213 2.26241 -0.298407 0
M  V30 6583 C 624.191 1.51839 0.581704 0
M  V30 6584 O 625.375 1.80851 0.531536 0
M  V30 6585 C 622.502 3.33768 0.575888 0
M  V30 6586 C 621.548 4.25852 -0.235057 0
M  V30 6587 S 622.381 5.10277 -1.62411 0
M  V30 6588 C 623.537 6.21313 -0.756368 0
M  V30 6589 H 623.77 2.75744 -1.11141 0
M  V30 6590 H 621.303 1.38341 -0.685651 0
M  V30 6591 H 623.261 3.96186 1.07458 0
M  V30 6592 H 621.922 2.82986 1.363 0
M  V30 6593 H 621.115 5.02143 0.432198 0
M  V30 6594 H 620.717 3.68015 -0.666409 0
M  V30 6595 H 623.009 6.77495 0.0261451 0
M  V30 6596 H 623.952 6.92226 -1.49093 0
M  V30 6597 H 624.36 5.63611 -0.316749 0
M  V30 6598 N 623.758 0.647228 1.43697 0
M  V30 6599 C 625.004 0.158422 2.0218 0
M  V30 6600 C 625.337 -1.22233 1.50907 0
M  V30 6601 O 624.612 -1.81478 0.699702 0
M  V30 6602 C 624.895 0.1627 3.59732 0
M  V30 6603 C 624.748 1.57694 4.21251 0
M  V30 6604 C 626.067 -0.504138 4.37203 0
M  V30 6605 H 623.186 0.059042 0.734631 0
M  V30 6606 H 625.828 0.826772 1.71069 0
M  V30 6607 H 623.978 -0.406414 3.86368 0
M  V30 6608 H 625.65 2.19618 4.05667 0
M  V30 6609 H 623.893 2.12603 3.7813 0
M  V30 6610 H 624.564 1.53183 5.3032 0
M  V30 6611 H 627.04 -0.0199841 4.16095 0
M  V30 6612 H 625.916 -0.470394 5.46881 0
M  V30 6613 H 626.177 -1.57726 4.13007 0
M  V30 6614 N 625.236 -1.5273 0.388769 0
M  V30 6615 C 626.464 -2.05992 -0.193677 0
M  V30 6616 C 626.879 -1.26053 -1.40557 0
M  V30 6617 O 626.236 -0.307049 -1.79898 0
M  V30 6618 C 626.287 -3.57068 -0.564321 0
M  V30 6619 O 626.008 -4.3398 0.599422 0
M  V30 6620 C 627.509 -4.26674 -1.20269 0
M  V30 6621 H 624.729 -0.670358 -0.0293445 0
M  V30 6622 H 627.273 -1.96857 0.553844 0
M  V30 6623 H 625.428 -3.66277 -1.26174 0
M  V30 6624 H 625.842 -5.2367 0.294895 0
M  V30 6625 H 627.316 -5.33625 -1.4124 0
M  V30 6626 H 627.793 -3.81854 -2.16989 0
M  V30 6627 H 628.399 -4.2178 -0.546047 0
M  V30 6628 N 626.714 -0.118576 -1.57153 0
M  V30 6629 C 628.125 0.40687 -1.82213 0
M  V30 6630 C 628.476 1.66636 -1.03571 0
M  V30 6631 O 627.601 2.14682 -0.272171 0
M  V30 6632 C 628.196 0.744949 -3.30509 0
M  V30 6633 C 626.755 1.21503 -3.5625 0
M  V30 6634 C 625.902 0.223511 -2.76398 0
M  V30 6635 H 628.853 -0.343712 -1.54933 0
M  V30 6636 H 628.874 1.6024 -3.45114 0
M  V30 6637 H 628.386 -0.171911 -3.87719 0
M  V30 6638 H 626.487 2.1488 -3.04396 0
M  V30 6639 H 626.6 1.16065 -4.64829 0
M  V30 6640 H 624.964 0.71046 -2.44591 0
M  V30 6641 H 625.747 -0.686439 -3.36367 0
M  V30 6642 N 628.193 1.56834 0.155195 0
M  V30 6643 C 629.123 2.00678 1.19376 0
M  V30 6644 C 630.104 0.884973 1.45266 0
M  V30 6645 O 631.289 1.1522 1.56326 0
M  V30 6646 C 628.419 2.38042 2.5289 0
M  V30 6647 C 627.373 3.53332 2.41538 0
M  V30 6648 C 626.699 3.76485 3.79688 0
M  V30 6649 C 627.999 4.86265 1.9064 0
M  V30 6650 H 629.693 2.87688 0.829232 0
M  V30 6651 H 627.239 1.38407 0.397445 0
M  V30 6652 H 629.192 2.67314 3.25763 0
M  V30 6653 H 627.916 1.4796 2.91162 0
M  V30 6654 H 626.575 3.24213 1.71117 0
M  V30 6655 H 626.223 2.83667 4.15382 0
M  V30 6656 H 625.923 4.54068 3.72956 0
M  V30 6657 H 627.447 4.08174 4.54122 0
M  V30 6658 H 628.861 5.14308 2.53299 0
M  V30 6659 H 627.258 5.67597 1.94818 0
M  V30 6660 H 628.328 4.77184 0.861596 0
M  V30 6661 N 629.671 -0.424282 1.51781 0
M  V30 6662 C 630.603 -1.53457 1.70246 0
M  V30 6663 C 631.616 -1.52004 0.582967 0
M  V30 6664 O 632.805 -1.56544 0.857683 0
M  V30 6665 C 629.905 -2.92368 1.71389 0
M  V30 6666 C 629.078 -3.1818 3.00133 0
M  V30 6667 C 628.137 -4.36884 2.9329 0
M  V30 6668 O 627.163 -4.34901 3.67219 0
M  V30 6669 N 628.365 -5.4117 2.10036 0
M  V30 6670 H 631.13 -1.38017 2.66029 0
M  V30 6671 H 628.691 -0.613394 1.4983 0
M  V30 6672 H 630.683 -3.6982 1.64362 0
M  V30 6673 H 629.253 -3.0134 0.831449 0
M  V30 6674 H 628.473 -2.28908 3.20928 0
M  V30 6675 H 629.761 -3.32261 3.85331 0
M  V30 6676 H 629.159 -5.45623 1.49373 0
M  V30 6677 H 627.716 -6.17425 2.08878 0
M  V30 6678 N 631.149 -1.42148 -0.680565 0
M  V30 6679 C 632.079 -1.4796 -1.80638 0
M  V30 6680 C 633.06 -0.336728 -1.66734 0
M  V30 6681 O 634.245 -0.550247 -1.86242 0
M  V30 6682 C 631.375 -1.37569 -3.18892 0
M  V30 6683 C 630.329 -2.49823 -3.47524 0
M  V30 6684 C 629.655 -2.24491 -4.85291 0
M  V30 6685 C 630.955 -3.92144 -3.44994 0
M  V30 6686 H 632.649 -2.42184 -1.76032 0
M  V30 6687 H 630.195 -1.16566 -0.845481 0
M  V30 6688 H 632.148 -1.40243 -3.97379 0
M  V30 6689 H 630.872 -0.398357 -3.24162 0
M  V30 6690 H 629.531 -2.46455 -2.71395 0
M  V30 6691 H 629.179 -1.25066 -4.87204 0
M  V30 6692 H 628.879 -2.99722 -5.05411 0
M  V30 6693 H 630.403 -2.28906 -5.66069 0
M  V30 6694 H 631.817 -3.97145 -4.13459 0
M  V30 6695 H 630.214 -4.67179 -3.76648 0
M  V30 6696 H 631.284 -4.19225 -2.43676 0
M  V30 6697 N 632.627 0.916307 -1.28225 0
M  V30 6698 C 633.59 1.99996 -1.11957 0
M  V30 6699 C 634.59 1.60688 -0.0600152 0
M  V30 6700 O 635.78 1.71499 -0.30558 0
M  V30 6701 C 632.912 3.33458 -0.708411 0
M  V30 6702 H 634.105 2.15858 -2.08196 0
M  V30 6703 H 631.658 1.09863 -1.11175 0
M  V30 6704 H 632.393 3.23297 0.254859 0
M  V30 6705 H 632.178 3.63349 -1.47377 0
M  V30 6706 H 633.668 4.13014 -0.617164 0
M  V30 6707 N 634.105 1.10431 1.1244 0
M  V30 6708 C 635.521 0.836096 1.35947 0
M  V30 6709 C 635.721 -0.544475 1.94004 0
M  V30 6710 O 634.777 -1.29735 2.16622 0
M  V30 6711 C 636.09 1.93575 2.30107 0
M  V30 6712 C 637.638 1.9642 2.43697 0
M  V30 6713 C 638.113 3.05559 3.41171 0
M  V30 6714 N 639.604 3.04865 3.48728 0
M  V30 6715 C 640.339 3.85954 4.24061 0
M  V30 6716 N 639.835 4.76977 5.02458 0
M  V30 6717 N 641.628 3.74172 4.19466 0
M  V30 6718 H 633.779 1.9942 0.731124 0
M  V30 6719 H 636.042 0.866607 0.384312 0
M  V30 6720 H 635.748 2.92943 1.94621 0
M  V30 6721 H 635.622 1.8229 3.30227 0
M  V30 6722 H 638.009 0.97685 2.78463 0
M  V30 6723 H 638.09 2.11782 1.43465 0
M  V30 6724 H 637.734 4.04513 3.07135 0
M  V30 6725 H 637.664 2.87438 4.41234 0
M  V30 6726 H 640.155 2.38908 2.92799 0
M  V30 6727 H 640.468 5.35409 5.57277 0
M  V30 6728 H 638.813 4.81006 5.01655 0
M  V30 6729 H 642.004 3.02412 3.57302 0
M  V30 6730 H 642.177 4.37602 4.77921 0
M  V30 6731 N 635.583 -1.29855 0.893053 0
M  V30 6732 C 636.829 -1.96116 0.516349 0
M  V30 6733 C 637.162 -1.70281 -0.933695 0
M  V30 6734 O 636.437 -1.01205 -1.66096 0
M  V30 6735 C 636.72 -3.51068 0.801455 0
M  V30 6736 C 636.573 -3.86387 2.30272 0
M  V30 6737 C 637.892 -4.39186 0.283423 0
M  V30 6738 H 635.011 -0.712335 0.189072 0
M  V30 6739 H 637.653 -1.53587 1.11852 0
M  V30 6740 H 635.803 -3.87424 0.288949 0
M  V30 6741 H 637.475 -3.60012 2.88425 0
M  V30 6742 H 635.718 -3.34167 2.76613 0
M  V30 6743 H 636.389 -4.94512 2.45279 0
M  V30 6744 H 638.865 -4.09785 0.722187 0
M  V30 6745 H 637.741 -5.46505 0.512169 0
M  V30 6746 H 638.002 -4.34511 -0.815643 0
M  V30 6747 N 637.061 -0.65484 -1.43351 0
M  V30 6748 C 638.291 -0.176429 -2.05845 0
M  V30 6749 C 638.699 1.16375 -1.49176 0
M  V30 6750 O 638.042 1.72981 -0.618322 0
M  V30 6751 C 638.104 -0.0125844 -3.59498 0
M  V30 6752 C 637.768 -1.27831 -4.38758 0
M  V30 6753 C 638.765 -2.2074 -4.70712 0
M  V30 6754 C 636.45 -1.52035 -4.78739 0
M  V30 6755 C 638.444 -3.36145 -5.41558 0
M  V30 6756 C 636.131 -2.67732 -5.49329 0
M  V30 6757 C 637.129 -3.59612 -5.80662 0
M  V30 6758 O 636.817 -4.73289 -6.4981 0
M  V30 6759 H 636.549 -0.0879682 -0.670252 0
M  V30 6760 H 639.103 -0.896193 -1.84818 0
M  V30 6761 H 637.333 0.762567 -3.79107 0
M  V30 6762 H 639.022 0.423392 -4.03686 0
M  V30 6763 H 639.788 -2.03284 -4.40341 0
M  V30 6764 H 635.667 -0.813987 -4.53757 0
M  V30 6765 H 639.211 -4.07881 -5.65932 0
M  V30 6766 H 635.108 -2.85122 -5.79116 0
M  V30 6767 H 635.876 -4.72575 -6.68293 0
M  V30 6768 N 638.539 1.52521 -0.396863 0
M  V30 6769 C 639.502 2.2527 0.422604 0
M  V30 6770 C 640.502 1.27184 0.983913 0
M  V30 6771 O 641.692 1.51222 0.864723 0
M  V30 6772 C 638.824 3.01356 1.59365 0
M  V30 6773 H 640.017 2.99133 -0.214416 0
M  V30 6774 H 637.57 1.55587 -0.149128 0
M  V30 6775 H 638.305 2.31813 2.26789 0
M  V30 6776 H 638.09 3.73357 1.19779 0
M  V30 6777 H 639.58 3.56571 2.17363 0
M  V30 6778 N 640.017 0.126909 1.57088 0
M  V30 6779 C 641.245 -0.53667 1.99819 0
M  V30 6780 C 641.66 -1.5972 1.00673 0
M  V30 6781 O 641.017 -1.825 0.000747365 0
M  V30 6782 C 641.068 -1.15563 3.42531 0
M  V30 6783 O 640.789 -0.137483 4.37884 0
M  V30 6784 C 642.29 -1.90176 4.00435 0
M  V30 6785 H 639.51 -0.141443 0.655923 0
M  V30 6786 H 642.054 0.215578 2.03361 0
M  V30 6787 H 640.209 -1.85861 3.39904 0
M  V30 6788 H 640.623 -0.588229 5.21191 0
M  V30 6789 H 642.097 -2.28801 5.02349 0
M  V30 6790 H 642.574 -2.78002 3.40017 0
M  V30 6791 H 643.18 -1.24623 4.06632 0
M  V30 6792 N 641.495 -1.56914 -0.146875 0
M  V30 6793 C 642.744 -1.82546 -0.857898 0
M  V30 6794 C 643.057 -0.708169 -1.8233 0
M  V30 6795 O 644.263 -0.850093 -2.57848 0
M  V30 6796 C 642.719 -3.23548 -1.57623 0
M  V30 6797 C 642.327 -4.43212 -0.653224 0
M  V30 6798 C 644.071 -3.58453 -2.27402 0
M  V30 6799 C 641.978 -5.75237 -1.37318 0
M  V30 6800 H 640.908 -0.680786 -0.32411 0
M  V30 6801 H 643.559 -1.83166 -0.110639 0
M  V30 6802 H 641.941 -3.17315 -2.36912 0
M  V30 6803 H 643.115 -4.60682 0.104452 0
M  V30 6804 H 641.43 -4.16351 -0.0638336 0
M  V30 6805 H 644.027 -4.54349 -2.81907 0
M  V30 6806 H 644.37 -2.84516 -3.03901 0
M  V30 6807 H 644.903 -3.66347 -1.55032 0
M  V30 6808 H 641.642 -6.52269 -0.650041 0
M  V30 6809 H 641.162 -5.61703 -2.10357 0
M  V30 6810 H 642.841 -6.18039 -1.91406 0
M  V30 6811 N 642.974 0.416227 -1.52004 0
M  V30 6812 C 644.222 1.16153 -1.65387 0
M  V30 6813 C 644.543 1.91208 -0.382669 0
M  V30 6814 O 643.813 1.86413 0.602231 0
M  V30 6815 H 642.393 0.431765 -0.60958 0
M  V30 6816 H 645.055 0.475151 -1.89019 0
M  V30 6817 H 644.151 1.87952 -2.4916 0
M  V30 6818 N 644.452 1.42507 0.673017 0
M  V30 6819 C 645.677 1.4668 1.46627 0
M  V30 6820 C 646.102 0.080066 1.8793 0
M  V30 6821 O 645.46 -0.921879 1.56112 0
M  V30 6822 C 645.508 2.40091 2.69051 0
M  V30 6823 O 644.612 1.8735 3.67387 0
M  V30 6824 H 643.953 0.496908 0.44043 0
M  V30 6825 H 646.483 1.87215 0.825334 0
M  V30 6826 H 646.493 2.56731 3.17101 0
M  V30 6827 H 645.168 3.4084 2.3833 0
M  V30 6828 H 643.745 1.80274 3.26429 0
M  V30 6829 N 645.93 -0.909495 1.28709 0
M  V30 6830 C 647.16 -1.69027 1.188 0
M  V30 6831 C 647.568 -1.87469 -0.255329 0
M  V30 6832 O 646.911 -1.40458 -1.18394 0
M  V30 6833 C 646.973 -3.10064 1.81936 0
M  V30 6834 C 646.637 -3.14891 3.31199 0
M  V30 6835 C 647.634 -2.95768 4.27571 0
M  V30 6836 C 645.319 -3.37269 3.7223 0
M  V30 6837 C 647.313 -2.98942 5.6295 0
M  V30 6838 C 645 -3.40074 5.07733 0
M  V30 6839 C 645.998 -3.20932 6.02903 0
M  V30 6840 O 645.686 -3.23507 7.35934 0
M  V30 6841 H 645.418 -0.535014 0.413203 0
M  V30 6842 H 647.972 -1.14645 1.70428 0
M  V30 6843 H 646.202 -3.66005 1.24808 0
M  V30 6844 H 647.891 -3.70185 1.66486 0
M  V30 6845 H 648.657 -2.78302 3.97206 0
M  V30 6846 H 644.536 -3.51212 2.98615 0
M  V30 6847 H 648.08 -2.83919 6.37209 0
M  V30 6848 H 643.977 -3.5707 5.37747 0
M  V30 6849 H 644.745 -3.3984 7.44615 0
M  V30 6850 N 647.408 -1.11026 -1.11852 0
M  V30 6851 C 648.656 -0.854769 -1.83134 0
M  V30 6852 C 648.977 0.621375 -1.84835 0
M  V30 6853 O 648.247 1.45129 -1.31584 0
M  V30 6854 H 646.827 -0.313229 -0.678157 0
M  V30 6855 H 649.489 -1.40178 -1.35411 0
M  V30 6856 H 648.585 -1.22311 -2.87135 0
M  V30 6857 N 648.886 1.2938 -0.899927 0
M  V30 6858 C 650.135 1.9483 -0.521937 0
M  V30 6859 C 650.448 1.71725 0.936473 0
M  V30 6860 O 651.654 2.31282 1.42199 0
M  V30 6861 C 650.11 3.48911 -0.88255 0
M  V30 6862 C 649.718 3.80815 -2.35974 0
M  V30 6863 C 651.462 4.20595 -0.57448 0
M  V30 6864 C 649.369 5.28142 -2.66121 0
M  V30 6865 H 648.299 0.729285 -0.191468 0
M  V30 6866 H 650.95 1.47103 -1.09695 0
M  V30 6867 H 649.332 3.95293 -0.236459 0
M  V30 6868 H 650.506 3.45291 -3.05141 0
M  V30 6869 H 648.821 3.22271 -2.63686 0
M  V30 6870 H 651.418 5.29031 -0.776556 0
M  V30 6871 H 651.761 4.13442 0.487005 0
M  V30 6872 H 652.294 3.79945 -1.17842 0
M  V30 6873 H 649.033 5.4036 -3.71068 0
M  V30 6874 H 648.553 5.64913 -2.01578 0
M  V30 6875 H 650.232 5.95738 -2.52399 0
M  V30 6876 N 650.364 0.662433 1.43002 0
M  V30 6877 C 651.594 0.187343 2.05749 0
M  V30 6878 C 652.002 -1.15582 1.49791 0
M  V30 6879 O 651.345 -1.72651 0.627487 0
M  V30 6880 C 651.407 0.0316493 3.59486 0
M  V30 6881 C 651.071 1.30156 4.38073 0
M  V30 6882 C 652.068 2.23234 4.69535 0
M  V30 6883 C 649.753 1.54572 4.77926 0
M  V30 6884 C 651.747 3.39012 5.39768 0
M  V30 6885 C 649.434 2.70641 5.47902 0
M  V30 6886 C 650.432 3.62687 5.78746 0
M  V30 6887 O 650.12 4.76728 6.47291 0
M  V30 6888 H 649.852 0.0915214 0.669776 0
M  V30 6889 H 652.406 0.905982 1.8434 0
M  V30 6890 H 650.636 -0.742451 3.79506 0
M  V30 6891 H 652.325 -0.401977 4.03905 0
M  V30 6892 H 653.091 2.05616 4.39257 0
M  V30 6893 H 648.97 0.83804 4.53319 0
M  V30 6894 H 652.514 4.10877 5.63761 0
M  V30 6895 H 648.411 2.88189 5.77596 0
M  V30 6896 H 649.179 4.76113 6.65777 0
M  V30 6897 N 651.842 -1.52309 0.404946 0
M  V30 6898 C 653.258 -1.59503 0.0556255 0
M  V30 6899 C 653.458 -1.41805 -1.43156 0
M  V30 6900 O 652.514 -1.2429 -2.19792 0
M  V30 6901 C 653.827 -2.95687 0.546801 0
M  V30 6902 C 655.375 -3.08909 0.504413 0
M  V30 6903 C 655.85 -4.47566 0.97203 0
M  V30 6904 N 657.341 -4.53795 0.928679 0
M  V30 6905 C 658.076 -5.59346 1.26174 0
M  V30 6906 N 657.572 -6.72469 1.66604 0
M  V30 6907 N 659.365 -5.49532 1.18198 0
M  V30 6908 H 651.516 -1.6206 1.37296 0
M  V30 6909 H 653.779 -0.762161 0.563751 0
M  V30 6910 H 653.485 -3.13905 1.58609 0
M  V30 6911 H 653.359 -3.77172 -0.0457905 0
M  V30 6912 H 655.746 -2.90378 -0.525819 0
M  V30 6913 H 655.827 -2.2934 1.13301 0
M  V30 6914 H 655.471 -4.6684 2.00057 0
M  V30 6915 H 655.401 -5.25625 0.320292 0
M  V30 6916 H 657.892 -3.72588 0.631369 0
M  V30 6917 H 658.205 -7.48993 1.9034 0
M  V30 6918 H 656.55 -6.73761 1.70504 0
M  V30 6919 H 659.741 -4.60038 0.865011 0
M  V30 6920 H 659.914 -6.31687 1.44485 0
M  V30 6921 N 653.32 -0.135238 -1.57019 0
M  V30 6922 C 654.731 0.387521 -1.82634 0
M  V30 6923 C 655.082 1.65528 -1.05332 0
M  V30 6924 O 654.207 2.14381 -0.294926 0
M  V30 6925 C 654.802 0.709852 -3.3128 0
M  V30 6926 C 653.361 1.17718 -3.57518 0
M  V30 6927 C 652.508 0.194183 -2.76619 0
M  V30 6928 H 655.459 -0.360126 -1.5456 0
M  V30 6929 H 655.48 1.5657 -3.46794 0
M  V30 6930 H 654.992 -0.213024 -3.87515 0
M  V30 6931 H 653.093 2.1164 -3.06658 0
M  V30 6932 H 653.206 1.11128 -4.66034 0
M  V30 6933 H 651.57 0.684478 -2.4533 0
M  V30 6934 H 652.353 -0.722076 -3.3562 0
M  V30 6935 N 654.798 1.5699 0.138552 0
M  V30 6936 C 655.728 2.01933 1.17241 0
M  V30 6937 C 656.709 0.90033 1.44319 0
M  V30 6938 O 657.894 1.16872 1.55095 0
M  V30 6939 C 655.024 2.40711 2.50351 0
M  V30 6940 C 653.978 3.55874 2.37776 0
M  V30 6941 C 653.304 3.80491 3.75674 0
M  V30 6942 C 654.604 4.8826 1.85472 0
M  V30 6943 H 656.298 2.88551 0.798672 0
M  V30 6944 H 653.844 1.3882 0.382743 0
M  V30 6945 H 655.797 2.70754 3.22909 0
M  V30 6946 H 654.521 1.5104 2.89576 0
M  V30 6947 H 653.18 3.2601 1.67669 0
M  V30 6948 H 652.828 2.88057 4.12349 0
M  V30 6949 H 652.528 4.57998 3.68119 0
M  V30 6950 H 654.052 4.12967 4.49767 0
M  V30 6951 H 655.466 5.16965 2.4783 0
M  V30 6952 H 653.863 5.69631 1.88787 0
M  V30 6953 H 654.933 4.78071 0.810935 0
M  V30 6954 N 656.276 -0.40816 1.52223 0
M  V30 6955 C 657.501 -1.18127 1.70472 0
M  V30 6956 C 657.926 -1.83491 0.41384 0
M  V30 6957 O 657.284 -1.70047 -0.628778 0
M  V30 6958 C 657.332 -2.21935 2.84213 0
M  V30 6959 O 656.436 -3.28099 2.4985 0
M  V30 6960 H 655.777 -0.344781 0.56747 0
M  V30 6961 H 658.307 -0.478328 1.9893 0
M  V30 6962 H 658.317 -2.66248 3.09153 0
M  V30 6963 H 656.992 -1.73744 3.7787 0
M  V30 6964 H 655.569 -2.89058 2.35584 0
M  V30 6965 N 657.755 -1.42862 -0.66545 0
M  V30 6966 C 659.004 -1.43119 -1.42126 0
M  V30 6967 C 659.317 -0.0545297 -1.95524 0
M  V30 6968 O 660.523 0.0654747 -2.71421 0
M  V30 6969 C 658.979 -2.51797 -2.5715 0
M  V30 6970 C 658.587 -3.95514 -2.10411 0
M  V30 6971 C 660.331 -2.61233 -3.346 0
M  V30 6972 C 658.238 -4.95682 -3.22573 0
M  V30 6973 H 657.168 -0.532349 -0.533966 0
M  V30 6974 H 659.819 -1.68806 -0.719506 0
M  V30 6975 H 658.201 -2.19292 -3.29738 0
M  V30 6976 H 659.375 -4.3742 -1.44915 0
M  V30 6977 H 657.69 -3.90012 -1.45874 0
M  V30 6978 H 660.287 -3.33248 -4.18151 0
M  V30 6979 H 660.63 -1.65896 -3.81817 0
M  V30 6980 H 661.163 -2.9298 -2.69087 0
M  V30 6981 H 657.902 -5.92529 -2.80338 0
M  V30 6982 H 657.422 -4.58399 -3.86821 0
M  V30 6983 H 659.101 -5.17828 -3.87896 0
M  V30 6984 N 659.233 0.902656 -1.29189 0
M  V30 6985 C 660.461 1.68639 -1.19869 0
M  V30 6986 C 660.876 1.87254 0.241121 0
M  V30 6987 O 660.233 1.40745 1.16177 0
M  V30 6988 C 660.284 3.07251 -1.90471 0
M  V30 6989 O 660.005 2.89488 -3.28829 0
M  V30 6990 C 661.506 4.01653 -1.8759 0
M  V30 6991 H 658.726 0.526802 -0.415596 0
M  V30 6992 H 661.27 1.12901 -1.7051 0
M  V30 6993 H 659.425 3.59774 -1.43672 0
M  V30 6994 H 659.839 3.77296 -3.64346 0
M  V30 6995 H 661.313 4.96339 -2.4156 0
M  V30 6996 H 661.79 4.30881 -0.850756 0
M  V30 6997 H 662.396 3.55061 -2.34119 0
M  V30 6998 N 660.711 1.11618 1.11262 0
M  V30 6999 C 661.658 0.7762 2.17356 0
M  V30 7000 C 662.628 -0.253152 1.6416 0
M  V30 7001 O 663.813 -0.129655 1.90359 0
M  V30 7002 C 660.953 0.227581 3.44349 0
M  V30 7003 C 660.066 1.31372 4.1154 0
M  V30 7004 C 659.201 0.72544 5.26223 0
M  V30 7005 C 658.24 1.7913 5.85302 0
M  V30 7006 N 657.377 1.22237 6.91377 0
M  V30 7007 H 662.217 1.68508 2.45783 0
M  V30 7008 H 659.754 0.841475 1.20655 0
M  V30 7009 H 661.712 -0.108483 4.17059 0
M  V30 7010 H 660.342 -0.644486 3.16301 0
M  V30 7011 H 659.394 1.7667 3.36885 0
M  V30 7012 H 660.706 2.12005 4.51504 0
M  V30 7013 H 659.86 0.339541 6.05749 0
M  V30 7014 H 658.599 -0.112188 4.87571 0
M  V30 7015 H 657.604 2.18648 5.04453 0
M  V30 7016 H 658.829 2.63199 6.26022 0
M  V30 7017 H 656.775 0.406423 6.5474 0
M  V30 7018 H 656.692 1.9654 7.30006 0
M  V30 7019 H 657.96 0.863426 7.74703 0
M  V30 7020 N 662.189 -1.289 0.906776 0
M  V30 7021 C 663.435 -1.95558 0.53712 0
M  V30 7022 C 663.768 -1.71262 -0.915582 0
M  V30 7023 O 663.043 -1.02961 -1.65013 0
M  V30 7024 C 663.326 -3.50198 0.838645 0
M  V30 7025 C 663.179 -3.83923 2.34357 0
M  V30 7026 C 664.498 -4.38861 0.329988 0
M  V30 7027 H 661.617 -0.710289 0.196617 0
M  V30 7028 H 664.259 -1.52392 1.13475 0
M  V30 7029 H 662.409 -3.87096 0.330024 0
M  V30 7030 H 664.081 -3.56933 2.92227 0
M  V30 7031 H 662.324 -3.31215 2.80141 0
M  V30 7032 H 662.995 -4.91883 2.5051 0
M  V30 7033 H 665.471 -4.08996 0.765609 0
M  V30 7034 H 664.347 -5.45931 0.570105 0
M  V30 7035 H 664.608 -4.35352 -0.769511 0
M  V30 7036 N 663.667 -0.670007 -1.42649 0
M  V30 7037 C 664.944 -0.119451 -1.95235 0
M  V30 7038 C 665.324 1.36461 -1.61064 0
M  V30 7039 O 664.672 2.09843 -0.904329 0
M  V30 7040 C 664.882 -0.383498 -3.46887 0
M  V30 7041 C 666.23 -0.297431 -4.23557 0
M  V30 7042 O 667.254 -0.31698 -3.54787 0
M  V30 7043 O 666.113 -0.235507 -5.45992 0
M  V30 7044 H 663.207 -8.85474e-05 -0.827 0
M  V30 7045 H 665.753 -0.744406 -1.52501 0
M  V30 7046 H 664.525 -1.41174 -3.64946 0
M  V30 7047 H 664.148 0.273702 -3.96657 0
M  V30 7048 N 665.145 1.52092 -0.413018 0
M  V30 7049 C 666.556 1.86617 0.0556967 0
M  V30 7050 C 666.907 1.33156 1.44097 0
M  V30 7051 O 666.032 0.672417 2.05688 0
M  V30 7052 C 666.627 3.38628 0.107844 0
M  V30 7053 C 665.186 3.72778 0.520904 0
M  V30 7054 C 664.333 2.75649 -0.302109 0
M  V30 7055 H 667.284 1.45663 -0.629919 0
M  V30 7056 H 667.305 3.69152 0.922324 0
M  V30 7057 H 666.817 3.77508 -0.900506 0
M  V30 7058 H 664.918 3.39478 1.53575 0
M  V30 7059 H 665.031 4.7838 0.262591 0
M  V30 7060 H 663.395 2.53603 0.236115 0
M  V30 7061 H 664.178 3.17369 -1.30888 0
M  V30 7062 N 666.623 0.143563 1.56945 0
M  V30 7063 C 668.034 -0.37783 1.82837 0
M  V30 7064 C 668.385 -1.64967 1.06209 0
M  V30 7065 O 667.51 -2.14221 0.306291 0
M  V30 7066 C 668.105 -0.692274 3.31652 0
M  V30 7067 C 666.664 -1.1582 3.58138 0
M  V30 7068 C 665.811 -0.17951 2.76718 0
M  V30 7069 H 668.762 0.368317 1.54367 0
M  V30 7070 H 668.783 -1.54729 3.47619 0
M  V30 7071 H 668.295 0.233572 3.87397 0
M  V30 7072 H 666.396 -2.10011 3.07776 0
M  V30 7073 H 666.509 -1.08655 4.66616 0
M  V30 7074 H 664.873 -0.671458 2.4569 0
M  V30 7075 H 665.656 0.739865 3.35233 0
M  V30 7076 N 668.101 -1.57061 -0.130224 0
M  V30 7077 C 669.347 -1.8453 -0.841216 0
M  V30 7078 C 669.68 -0.727666 -1.80052 0
M  V30 7079 O 668.955 0.267419 -1.92653 0
M  V30 7080 C 669.238 -3.22553 -1.60099 0
M  V30 7081 C 669.091 -4.44901 -0.662048 0
M  V30 7082 C 670.41 -3.58003 -2.55973 0
M  V30 7083 H 667.529 -0.671215 -0.304366 0
M  V30 7084 H 670.171 -1.89705 -0.105821 0
M  V30 7085 H 668.321 -3.18272 -2.22789 0
M  V30 7086 H 669.993 -4.61278 -0.0448559 0
M  V30 7087 H 668.236 -4.33791 0.0272253 0
M  V30 7088 H 668.907 -5.3812 -1.23006 0
M  V30 7089 H 671.383 -3.63002 -2.03393 0
M  V30 7090 H 670.259 -4.55576 -3.06172 0
M  V30 7091 H 670.52 -2.84833 -3.38116 0
M  V30 7092 N 669.579 0.400081 -1.52437 0
M  V30 7093 C 670.99 0.97851 -1.59003 0
M  V30 7094 C 671.341 1.91293 -0.436068 0
M  V30 7095 O 670.466 2.1183 0.442365 0
M  V30 7096 C 671.061 1.78145 -2.88184 0
M  V30 7097 C 669.62 2.30976 -2.97199 0
M  V30 7098 C 668.767 1.11212 -2.54022 0
M  V30 7099 H 671.718 0.180002 -1.57676 0
M  V30 7100 H 671.739 2.63968 -2.74046 0
M  V30 7101 H 671.251 1.1011 -3.72152 0
M  V30 7102 H 669.352 3.02355 -2.17744 0
M  V30 7103 H 669.465 2.61221 -4.01622 0
M  V30 7104 H 667.829 1.46882 -2.08081 0
M  V30 7105 H 668.612 0.447307 -3.40373 0
M  V30 7106 N 671.057 1.43213 0.657864 0
M  V30 7107 C 672.305 1.44298 1.41501 0
M  V30 7108 C 672.626 0.0666478 1.94886 0
M  V30 7109 O 671.896 -0.897345 1.74139 0
M  V30 7110 H 670.476 0.531257 0.525143 0
M  V30 7111 H 673.138 1.78777 0.776195 0
M  V30 7112 H 672.234 2.1528 2.25966 0
M  V30 7113 N 672.536 -0.895792 1.29666 0
M  V30 7114 C 673.446 -2.03329 1.17024 0
M  V30 7115 C 674.462 -1.73753 0.0925962 0
M  V30 7116 O 675.638 -1.99071 0.305431 0
M  V30 7117 C 672.703 -3.36072 0.851841 0
M  V30 7118 C 671.764 -3.7914 2.01373 0
M  V30 7119 C 670.997 -5.05549 1.71043 0
M  V30 7120 O 671.22 -5.66874 0.633213 0
M  V30 7121 O 670.154 -5.44764 2.5596 0
M  V30 7122 H 673.98 -2.16918 2.12556 0
M  V30 7123 H 671.565 -1.02007 1.09156 0
M  V30 7124 H 673.447 -4.15729 0.689006 0
M  V30 7125 H 672.122 -3.23616 -0.0736634 0
M  V30 7126 H 671.029 -3.00233 2.23183 0
M  V30 7127 H 672.362 -3.96186 2.92058 0
M  V30 7128 N 674.014 -1.12206 -1.10668 0
M  V30 7129 C 675.43 -0.857619 -1.346 0
M  V30 7130 C 675.63 0.513542 -1.94846 0
M  V30 7131 O 674.686 1.26273 -2.18658 0
M  V30 7132 C 675.999 -1.97212 -2.26998 0
M  V30 7133 C 677.547 -2.00272 -2.40542 0
M  V30 7134 C 678.022 -3.10948 -3.36267 0
M  V30 7135 N 679.513 -3.10375 -3.43834 0
M  V30 7136 C 680.248 -3.92651 -4.17867 0
M  V30 7137 N 679.744 -4.84911 -4.94807 0
M  V30 7138 N 681.537 -3.80798 -4.1346 0
M  V30 7139 H 673.688 -2.00558 -0.699306 0
M  V30 7140 H 675.951 -0.872612 -0.370477 0
M  V30 7141 H 675.657 -2.96002 -1.89936 0
M  V30 7142 H 675.531 -1.87521 -3.27286 0
M  V30 7143 H 677.918 -1.02103 -2.76874 0
M  V30 7144 H 677.999 -2.14037 -1.40077 0
M  V30 7145 H 677.643 -4.09348 -3.00661 0
M  V30 7146 H 677.573 -2.94421 -4.36605 0
M  V30 7147 H 680.064 -2.43536 -2.88961 0
M  V30 7148 H 680.377 -5.44207 -5.48688 0
M  V30 7149 H 678.722 -4.88926 -4.93939 0
M  V30 7150 H 681.913 -3.08058 -3.52445 0
M  V30 7151 H 682.086 -4.4515 -4.70898 0
M  V30 7152 N 675.492 1.28418 -0.913599 0
M  V30 7153 C 676.738 1.9527 -0.547484 0
M  V30 7154 C 677.071 1.71745 0.906486 0
M  V30 7155 O 676.346 1.03834 1.64465 0
M  V30 7156 C 676.629 3.49748 -0.857205 0
M  V30 7157 C 676.482 3.82675 -2.3639 0
M  V30 7158 C 677.801 4.3868 -0.353258 0
M  V30 7159 H 674.92 0.709236 -0.200381 0
M  V30 7160 H 677.562 1.51789 -1.14281 0
M  V30 7161 H 675.712 3.86915 -0.350548 0
M  V30 7162 H 677.384 3.55378 -2.94116 0
M  V30 7163 H 675.627 3.29724 -2.81894 0
M  V30 7164 H 676.298 4.90547 -2.53115 0
M  V30 7165 H 678.774 4.08584 -0.787288 0
M  V30 7166 H 677.65 5.45621 -0.599049 0
M  V30 7167 H 677.911 4.35753 0.746413 0
M  V30 7168 N 676.97 0.677563 1.42291 0
M  V30 7169 C 678.217 0.200975 2.015 0
M  V30 7170 C 678.545 -1.19342 1.53583 0
M  V30 7171 O 677.8 -1.81579 0.7299 0
M  V30 7172 C 678.099 0.187229 3.56909 0
M  V30 7173 C 677.765 1.52667 4.24268 0
M  V30 7174 C 676.427 1.89341 4.42384 0
M  V30 7175 C 678.779 2.40869 4.62203 0
M  V30 7176 C 676.107 3.13836 4.95705 0
M  V30 7177 C 678.459 3.64679 5.16906 0
M  V30 7178 C 677.123 4.01519 5.33234 0
M  V30 7179 H 676.393 0.0735418 0.737342 0
M  V30 7180 H 679.04 0.873095 1.70439 0
M  V30 7181 H 677.345 -0.568407 3.87655 0
M  V30 7182 H 679.042 -0.198773 4.00507 0
M  V30 7183 H 675.632 1.23138 4.1053 0
M  V30 7184 H 679.816 2.1382 4.47878 0
M  V30 7185 H 675.072 3.42396 5.06532 0
M  V30 7186 H 679.246 4.33224 5.45243 0
M  V30 7187 H 676.873 4.98062 5.74316 0
M  V30 7188 N 678.448 -1.51871 0.421078 0
M  V30 7189 C 679.859 -1.86644 -0.0457991 0
M  V30 7190 C 680.21 -1.33919 -1.43388 0
M  V30 7191 O 679.335 -0.683316 -2.05328 0
M  V30 7192 C 679.93 -3.38681 -0.0898844 0
M  V30 7193 C 678.489 -3.73049 -0.501127 0
M  V30 7194 C 677.636 -2.75485 0.316723 0
M  V30 7195 H 680.587 -1.45327 0.637635 0
M  V30 7196 H 680.608 -3.69636 -0.902734 0
M  V30 7197 H 680.12 -3.77025 0.920513 0
M  V30 7198 H 678.221 -3.40288 -1.51773 0
M  V30 7199 H 678.334 -4.78512 -0.237217 0
M  V30 7200 H 676.698 -2.53725 -0.222663 0
M  V30 7201 H 677.481 -3.16671 1.32569 0
M  V30 7202 N 679.926 -0.151884 -1.56866 0
M  V30 7203 C 680.836 0.798876 -2.20579 0
M  V30 7204 C 681.852 1.268 -1.19154 0
M  V30 7205 O 683.028 1.32418 -1.51748 0
M  V30 7206 C 680.093 2.01861 -2.81874 0
M  V30 7207 C 679.154 1.59825 -3.9844 0
M  V30 7208 C 678.387 2.75984 -4.56802 0
M  V30 7209 O 678.61 3.92331 -4.14044 0
M  V30 7210 O 677.544 2.51175 -5.46987 0
M  V30 7211 H 681.37 0.2865 -3.02346 0
M  V30 7212 H 678.955 0.0753806 -1.4921 0
M  V30 7213 H 680.837 2.73235 -3.20813 0
M  V30 7214 H 679.512 2.52042 -2.03117 0
M  V30 7215 H 678.419 0.854601 -3.64208 0
M  V30 7216 H 679.752 1.14355 -4.78731 0
M  V30 7217 N 681.404 1.57128 0.121893 0
M  V30 7218 C 682.629 1.89254 0.848385 0
M  V30 7219 C 683.054 0.743527 1.72781 0
M  V30 7220 O 682.412 -0.306056 1.78698 0
M  V30 7221 C 682.46 3.20113 1.66012 0
M  V30 7222 O 681.564 3.05815 2.76679 0
M  V30 7223 H 680.905 0.621103 0.234793 0
M  V30 7224 H 683.435 2.0433 0.10516 0
M  V30 7225 H 683.445 3.52761 2.04996 0
M  V30 7226 H 682.12 4.03336 1.01452 0
M  V30 7227 H 680.697 2.84627 2.40918 0
M  V30 7228 N 682.882 -0.391992 1.52647 0
M  V30 7229 C 684.131 -1.13449 1.6677 0
M  V30 7230 C 684.444 -1.91203 0.412399 0
M  V30 7231 O 685.65 -2.68013 0.433707 0
M  V30 7232 C 684.106 -2.06577 2.9471 0
M  V30 7233 C 683.714 -1.3426 4.27409 0
M  V30 7234 C 685.458 -2.80981 3.18198 0
M  V30 7235 C 683.365 -2.26136 5.46458 0
M  V30 7236 H 682.295 -0.427211 0.621295 0
M  V30 7237 H 684.946 -0.397522 1.79142 0
M  V30 7238 H 683.328 -2.83898 2.76076 0
M  V30 7239 H 684.502 -0.621856 4.56585 0
M  V30 7240 H 682.817 -0.718279 4.10158 0
M  V30 7241 H 685.414 -3.49898 4.04321 0
M  V30 7242 H 685.757 -3.44891 2.33144 0
M  V30 7243 H 686.29 -2.10754 3.37383 0
M  V30 7244 H 683.029 -1.66846 6.33911 0
M  V30 7245 H 682.549 -2.96134 5.21598 0
M  V30 7246 H 684.228 -2.86286 5.80215 0
M  V30 7247 N 684.36 -1.4356 -0.65026 0
M  V30 7248 C 685.606 -1.45549 -1.41221 0
M  V30 7249 C 685.939 -0.0805472 -1.94033 0
M  V30 7250 O 685.214 0.899043 -1.72475 0
M  V30 7251 C 685.497 -2.50028 -2.59148 0
M  V30 7252 C 685.35 -3.96808 -2.1181 0
M  V30 7253 C 686.669 -2.51212 -3.61359 0
M  V30 7254 H 683.788 -0.529967 -0.512156 0
M  V30 7255 H 686.43 -1.75127 -0.736933 0
M  V30 7256 H 684.58 -2.24937 -3.16758 0
M  V30 7257 H 686.252 -4.32966 -1.59178 0
M  V30 7258 H 684.495 -4.09498 -1.43156 0
M  V30 7259 H 685.166 -4.6553 -2.96625 0
M  V30 7260 H 687.642 -2.73583 -3.13515 0
M  V30 7261 H 686.518 -3.26252 -4.41419 0
M  V30 7262 H 686.779 -1.54701 -4.1415 0
M  V30 7263 N 685.838 0.888903 -1.30139 0
M  V30 7264 C 687.254 1.17153 -1.08385 0
M  V30 7265 C 687.454 2.0088 0.157925 0
M  V30 7266 O 686.51 2.37668 0.852652 0
M  V30 7267 C 687.823 1.882 -2.34523 0
M  V30 7268 C 689.371 2.00981 -2.39949 0
M  V30 7269 C 689.846 2.75441 -3.65918 0
M  V30 7270 N 691.337 2.82989 -3.66704 0
M  V30 7271 C 692.072 3.41167 -4.60861 0
M  V30 7272 N 691.568 4.00425 -5.6536 0
M  V30 7273 N 693.361 3.38944 -4.48412 0
M  V30 7274 H 685.512 0.33053 -2.09812 0
M  V30 7275 H 687.775 0.208964 -0.924683 0
M  V30 7276 H 687.481 1.34119 -3.25123 0
M  V30 7277 H 687.355 2.88609 -2.42868 0
M  V30 7278 H 689.742 2.54234 -1.4983 0
M  V30 7279 H 689.823 0.996725 -2.35582 0
M  V30 7280 H 689.467 2.22861 -4.56394 0
M  V30 7281 H 689.397 3.77118 -3.67546 0
M  V30 7282 H 691.888 2.40912 -2.91153 0
M  V30 7283 H 692.201 4.42871 -6.33313 0
M  V30 7284 H 690.546 3.98856 -5.69157 0
M  V30 7285 H 693.737 2.91875 -3.6596 0
M  V30 7286 H 693.91 3.83989 -5.21974 0
M  V30 7287 N 687.317 1.12792 1.10072 0
M  V30 7288 C 688.545 0.908506 1.85886 0
M  V30 7289 C 688.96 -0.542408 1.80841 0
M  V30 7290 O 688.317 -1.37517 1.1998 0
M  V30 7291 C 688.368 1.37973 3.34134 0
M  V30 7292 O 688.089 2.77378 3.39106 0
M  V30 7293 C 689.59 1.1978 4.26811 0
M  V30 7294 H 686.81 0.3244 0.587372 0
M  V30 7295 H 689.354 1.49882 1.39125 0
M  V30 7296 H 687.509 0.832566 3.78348 0
M  V30 7297 H 687.923 2.98144 4.31521 0
M  V30 7298 H 689.397 1.57635 5.29014 0
M  V30 7299 H 689.874 0.138768 4.38981 0
M  V30 7300 H 690.48 1.73266 3.88406 0
M  V30 7301 N 688.795 -1.27931 0.920396 0
M  V30 7302 C 690.041 -1.94977 0.557832 0
M  V30 7303 C 690.374 -1.72224 -0.897365 0
M  V30 7304 O 689.649 -1.04705 -1.63912 0
M  V30 7305 C 689.932 -3.49289 0.875741 0
M  V30 7306 C 689.785 -3.81416 2.38416 0
M  V30 7307 C 691.104 -4.38486 0.376517 0
M  V30 7308 H 688.223 -0.708164 0.20414 0
M  V30 7309 H 690.865 -1.5118 1.15085 0
M  V30 7310 H 689.015 -3.86724 0.371062 0
M  V30 7311 H 690.687 -3.53813 2.95997 0
M  V30 7312 H 688.93 -3.28225 2.83639 0
M  V30 7313 H 689.601 -4.89198 2.55713 0
M  V30 7314 H 692.077 -4.08161 0.808945 0
M  V30 7315 H 690.953 -5.45296 0.627976 0
M  V30 7316 H 691.214 -4.36143 -0.723293 0
M  V30 7317 N 690.273 -0.685099 -1.4193 0
M  V30 7318 C 691.519 -0.211971 -2.01689 0
M  V30 7319 C 691.852 1.18189 -1.54094 0
M  V30 7320 O 691.127 1.79559 -0.747572 0
M  V30 7321 C 691.41 -0.258019 -3.59174 0
M  V30 7322 C 691.263 -1.68807 -4.16922 0
M  V30 7323 C 692.582 0.388044 -4.38386 0
M  V30 7324 H 689.701 -0.0784987 -0.732808 0
M  V30 7325 H 692.343 -0.871837 -1.68816 0
M  V30 7326 H 690.493 0.303832 -3.8731 0
M  V30 7327 H 692.165 -2.30296 -3.99702 0
M  V30 7328 H 690.408 -2.22553 -3.72361 0
M  V30 7329 H 691.079 -1.6719 -5.26072 0
M  V30 7330 H 693.555 -0.0903432 -4.16002 0
M  V30 7331 H 692.431 0.325232 -5.47936 0
M  V30 7332 H 692.692 1.4672 -4.17044 0
M  V30 7333 N 691.751 1.51645 -0.429126 0
M  V30 7334 C 692.701 2.24388 0.404217 0
M  V30 7335 C 693.685 1.26294 0.996933 0
M  V30 7336 O 694.877 1.51428 0.916434 0
M  V30 7337 C 692.006 3.08338 1.50938 0
M  V30 7338 C 691.092 4.13857 0.926464 0
M  V30 7339 N 691.483 5.05749 0.0719732 0
M  V30 7340 C 689.781 4.29695 1.19491 0
M  V30 7341 C 690.482 5.81143 -0.254528 0
M  V30 7342 N 689.458 5.42408 0.359763 0
M  V30 7343 H 693.26 2.92794 -0.254697 0
M  V30 7344 H 690.774 1.60606 -0.240712 0
M  V30 7345 H 692.771 3.59022 2.11918 0
M  V30 7346 H 691.431 2.41475 2.17072 0
M  V30 7347 H 692.442 5.17066 -0.293854 0
M  V30 7348 H 689.119 3.74059 1.85434 0
M  V30 7349 H 690.509 6.65159 -0.949365 0
M  V30 7350 N 693.229 0.160201 1.56784 0
M  V30 7351 C 694.162 -0.812797 2.13234 0
M  V30 7352 C 695.14 -1.2335 1.05942 0
M  V30 7353 O 696.324 -1.32725 1.33852 0
M  V30 7354 C 693.451 -2.09311 2.66283 0
M  V30 7355 C 692.497 -1.8173 3.85845 0
M  V30 7356 S 693.33 -0.996473 5.26147 0
M  V30 7357 C 694.486 -2.28769 5.82594 0
M  V30 7358 H 694.719 -0.332794 2.95432 0
M  V30 7359 H 692.252 -0.0542971 1.54304 0
M  V30 7360 H 694.21 -2.82854 2.97496 0
M  V30 7361 H 692.871 -2.54425 1.84192 0
M  V30 7362 H 692.064 -2.76699 4.21253 0
M  V30 7363 H 691.666 -1.16289 3.55462 0
M  V30 7364 H 693.958 -3.24319 5.9483 0
M  V30 7365 H 694.901 -1.97846 6.79899 0
M  V30 7366 H 695.309 -2.40021 5.10931 0
M  V30 7367 N 694.707 -1.5719 -0.113559 0
M  V30 7368 C 695.64 -1.9595 -1.16957 0
M  V30 7369 C 696.618 -0.829951 -1.39823 0
M  V30 7370 O 697.802 -1.08861 -1.53888 0
M  V30 7371 C 694.929 -2.2604 -2.52237 0
M  V30 7372 C 693.975 -3.48571 -2.45765 0
M  V30 7373 S 694.808 -5.00962 -1.89203 0
M  V30 7374 C 695.964 -5.3421 -3.26145 0
M  V30 7375 H 696.197 -2.85214 -0.839069 0
M  V30 7376 H 693.73 -1.51036 -0.320529 0
M  V30 7377 H 695.688 -2.44054 -3.30073 0
M  V30 7378 H 694.349 -1.3738 -2.82463 0
M  V30 7379 H 693.542 -3.67008 -3.45429 0
M  V30 7380 H 693.144 -3.29972 -1.76053 0
M  V30 7381 H 695.436 -5.29725 -4.22371 0
M  V30 7382 H 696.379 -6.35398 -3.12529 0
M  V30 7383 H 696.787 -4.61681 -3.24825 0
M  V30 7384 N 696.185 0.383891 -1.52853 0
M  V30 7385 C 697.095 1.49343 -1.80925 0
M  V30 7386 C 698.111 1.59458 -0.696348 0
M  V30 7387 O 699.287 1.75698 -0.984481 0
M  V30 7388 C 696.352 2.84819 -1.97684 0
M  V30 7389 C 695.413 2.84382 -3.21598 0
M  V30 7390 C 694.646 4.13397 -3.37548 0
M  V30 7391 O 694.869 5.08619 -2.58192 0
M  V30 7392 O 693.803 4.20325 -4.30826 0
M  V30 7393 H 697.629 1.2855 -2.75152 0
M  V30 7394 H 695.214 0.572229 -1.38007 0
M  V30 7395 H 697.096 3.65125 -2.10385 0
M  V30 7396 H 695.771 3.05627 -1.06647 0
M  V30 7397 H 694.678 2.0284 -3.14336 0
M  V30 7398 H 696.011 2.68526 -4.12498 0
M  V30 7399 N 697.663 1.43903 0.642637 0
M  V30 7400 C 698.888 1.49758 1.43483 0
M  V30 7401 C 699.313 0.119911 1.87717 0
M  V30 7402 O 698.671 -0.888558 1.58033 0
M  V30 7403 C 698.719 2.45744 2.63898 0
M  V30 7404 O 697.823 1.95101 3.63331 0
M  V30 7405 H 697.164 0.506138 0.429791 0
M  V30 7406 H 699.694 1.88923 0.785438 0
M  V30 7407 H 699.704 2.63399 3.11584 0
M  V30 7408 H 698.379 3.45818 2.31046 0
M  V30 7409 H 696.956 1.87158 3.22531 0
M  V30 7410 N 699.141 -0.881989 1.30609 0
M  V30 7411 C 700.387 -1.63647 1.19781 0
M  V30 7412 C 700.72 -1.92632 -0.246265 0
M  V30 7413 O 699.995 -1.54938 -1.17577 0
M  V30 7414 C 700.278 -2.97437 2.02985 0
M  V30 7415 C 700.131 -2.75406 3.55628 0
M  V30 7416 C 701.45 -3.98397 1.86997 0
M  V30 7417 H 698.569 -0.593841 0.436488 0
M  V30 7418 H 701.211 -1.02041 1.60273 0
M  V30 7419 H 699.361 -3.50018 1.68581 0
M  V30 7420 H 701.033 -2.2959 4.00107 0
M  V30 7421 H 699.276 -2.09856 3.79662 0
M  V30 7422 H 699.947 -3.70552 4.09139 0
M  V30 7423 H 702.423 -3.54986 2.17081 0
M  V30 7424 H 701.299 -4.89916 2.47536 0
M  V30 7425 H 701.56 -4.3424 0.829943 0
M  V30 7426 N 700.619 -1.13374 -1.09472 0
M  V30 7427 C 701.582 -0.813639 -2.14272 0
M  V30 7428 C 702.582 0.176677 -1.59826 0
M  V30 7429 O 703.772 -0.0503441 -1.74127 0
M  V30 7430 C 700.904 -0.210897 -3.40247 0
M  V30 7431 H 702.097 -1.74229 -2.44099 0
M  V30 7432 H 699.65 -0.938304 -1.25002 0
M  V30 7433 H 700.385 0.726998 -3.16046 0
M  V30 7434 H 700.17 -0.924048 -3.81056 0
M  V30 7435 H 701.66 -0.00377603 -4.176 0
M  V30 7436 N 702.098 1.27442 -0.927168 0
M  V30 7437 C 703.028 2.29256 -0.443188 0
M  V30 7438 C 704.009 1.62701 0.49624 0
M  V30 7439 O 705.194 1.90013 0.401105 0
M  V30 7440 C 702.324 3.45955 0.305366 0
M  V30 7441 C 701.278 4.24501 -0.546178 0
M  V30 7442 C 700.604 5.33671 0.331512 0
M  V30 7443 C 701.904 4.89921 -1.81037 0
M  V30 7444 H 703.598 2.69988 -1.29409 0
M  V30 7445 H 701.144 1.29792 -0.623705 0
M  V30 7446 H 703.097 4.1628 0.654885 0
M  V30 7447 H 701.821 3.04138 1.19029 0
M  V30 7448 H 700.48 3.55921 -0.878398 0
M  V30 7449 H 700.128 4.88096 1.21537 0
M  V30 7450 H 699.828 5.87131 -0.234746 0
M  V30 7451 H 701.352 6.0684 0.676614 0
M  V30 7452 H 702.766 5.52536 -1.52895 0
M  V30 7453 H 701.163 5.53436 -2.32009 0
M  V30 7454 H 702.233 4.13652 -2.53021 0
M  V30 7455 N 703.576 0.692616 1.41565 0
M  V30 7456 C 704.987 0.297478 1.84315 0
M  V30 7457 C 705.338 -1.16379 1.57957 0
M  V30 7458 O 704.463 -1.89303 1.0485 0
M  V30 7459 C 705.058 0.533136 3.34579 0
M  V30 7460 C 703.617 0.191944 3.7591 0
M  V30 7461 C 702.764 0.816873 2.64995 0
M  V30 7462 H 705.715 0.893488 1.31158 0
M  V30 7463 H 705.736 -0.209105 3.79925 0
M  V30 7464 H 705.248 1.59674 3.53731 0
M  V30 7465 H 703.349 -0.867512 3.6236 0
M  V30 7466 H 703.462 0.644902 4.7474 0
M  V30 7467 H 701.826 0.246715 2.53502 0
M  V30 7468 H 702.609 1.88429 2.86966 0
M  V30 7469 N 705.054 -1.51416 0.437162 0
M  V30 7470 C 706.302 -2.01687 -0.129108 0
M  V30 7471 C 706.623 -1.32329 -1.43227 0
M  V30 7472 O 705.893 -0.457796 -1.90476 0
M  V30 7473 H 704.473 -0.745277 -0.0507023 0
M  V30 7474 H 707.135 -1.86075 0.579828 0
M  V30 7475 H 706.231 -3.10605 -0.305141 0
M  V30 7476 N 706.532 -0.168513 -1.56696 0
M  V30 7477 C 707.78 0.476216 -1.96409 0
M  V30 7478 C 708.101 1.63968 -1.05544 0
M  V30 7479 O 707.371 1.95525 -0.121235 0
M  V30 7480 H 705.951 0.178921 -0.725256 0
M  V30 7481 H 708.613 -0.249042 -1.93302 0
M  V30 7482 H 707.709 0.838094 -3.00637 0
M  V30 7483 N 708.01 1.57248 0.105221 0
M  V30 7484 C 709.258 1.85204 0.808951 0
M  V30 7485 C 709.579 0.75574 1.7976 0
M  V30 7486 O 708.849 -0.218984 1.94672 0
M  V30 7487 H 707.429 0.683346 0.301739 0
M  V30 7488 H 710.091 1.94695 0.0892605 0
M  V30 7489 H 709.187 2.81595 1.34575 0
M  V30 7490 N 709.488 -0.375779 1.53054 0
M  V30 7491 C 710.736 -1.11727 1.68409 0
M  V30 7492 C 711.057 -1.90127 0.43323 0
M  V30 7493 O 710.327 -1.87945 -0.552595 0
M  V30 7494 H 708.907 -0.415451 0.620813 0
M  V30 7495 H 711.569 -0.424869 1.90213 0
M  V30 7496 H 710.665 -1.8128 2.54055 0
M  V30 7497 N 710.966 -1.44241 -0.634997 0
M  V30 7498 C 712.212 -1.47038 -1.39669 0
M  V30 7499 C 712.545 -0.101122 -1.93937 0
M  V30 7500 O 711.82 0.880699 -1.73418 0
M  V30 7501 C 712.103 -2.52763 -2.56482 0
M  V30 7502 C 711.956 -3.99032 -2.07589 0
M  V30 7503 C 713.275 -2.55031 -3.58674 0
M  V30 7504 H 710.394 -0.53537 -0.506506 0
M  V30 7505 H 713.036 -1.75898 -0.718317 0
M  V30 7506 H 711.186 -2.28284 -3.14354 0
M  V30 7507 H 712.858 -4.3463 -1.54577 0
M  V30 7508 H 711.101 -4.10994 -1.38804 0
M  V30 7509 H 711.772 -4.68649 -2.91671 0
M  V30 7510 H 714.248 -2.76893 -3.10595 0
M  V30 7511 H 713.124 -3.30916 -4.37934 0
M  V30 7512 H 713.385 -1.59085 -4.12486 0
M  V30 7513 N 712.444 0.87505 -1.31075 0
M  V30 7514 C 713.391 1.98178 -1.18296 0
M  V30 7515 C 714.361 1.65952 -0.0699923 0
M  V30 7516 O 715.546 1.8926 -0.241951 0
M  V30 7517 C 712.686 3.33399 -0.891024 0
M  V30 7518 C 711.799 3.78253 -2.08684 0
M  V30 7519 C 710.934 5.02166 -1.73212 0
M  V30 7520 C 709.973 5.39455 -2.89231 0
M  V30 7521 N 709.11 6.54549 -2.53989 0
M  V30 7522 H 713.95 2.0844 -2.12971 0
M  V30 7523 H 711.487 1.02047 -1.05948 0
M  V30 7524 H 713.445 4.11246 -0.702338 0
M  V30 7525 H 712.075 3.22794 0.0188799 0
M  V30 7526 H 711.127 2.9623 -2.38646 0
M  V30 7527 H 712.439 4.01821 -2.95536 0
M  V30 7528 H 711.593 5.87666 -1.50777 0
M  V30 7529 H 710.332 4.80491 -0.83544 0
M  V30 7530 H 709.337 4.52477 -3.12321 0
M  V30 7531 H 710.562 5.63098 -3.79601 0
M  V30 7532 H 708.508 6.3443 -1.66838 0
M  V30 7533 H 708.425 6.78035 -3.34372 0
M  V30 7534 H 709.693 7.43254 -2.34934 0
M  V30 7535 N 713.922 1.13953 1.08869 0
M  V30 7536 C 714.885 0.824991 2.13838 0
M  V30 7537 C 715.885 -0.168198 1.59918 0
M  V30 7538 O 717.075 0.0595778 1.74098 0
M  V30 7539 C 714.207 0.228938 3.4013 0
M  V30 7540 H 715.4 1.75521 2.43171 0
M  V30 7541 H 712.953 0.94492 1.24503 0
M  V30 7542 H 713.688 -0.710227 3.16427 0
M  V30 7543 H 713.473 0.944243 3.80561 0
M  V30 7544 H 714.963 0.0259223 4.17592 0
M  V30 7545 N 715.4 -1.26948 0.933913 0
M  V30 7546 C 716.363 -2.24889 0.442457 0
M  V30 7547 C 717.363 -1.54594 -0.442426 0
M  V30 7548 O 718.553 -1.72502 -0.242629 0
M  V30 7549 C 715.685 -3.3896 -0.363173 0
M  V30 7550 H 716.878 -2.69879 1.30787 0
M  V30 7551 H 714.431 -1.38978 0.715187 0
M  V30 7552 H 715.166 -2.99361 -1.24714 0
M  V30 7553 H 714.951 -3.9116 0.271366 0
M  V30 7554 H 716.441 -4.11739 -0.697186 0
M  V30 7555 N 716.879 -0.700114 -1.41195 0
M  V30 7556 C 718.128 -0.230082 -2.00383 0
M  V30 7557 C 718.441 1.17857 -1.56106 0
M  V30 7558 O 719.647 1.74631 -2.07885 0
M  V30 7559 C 718.103 -0.360447 -3.5809 0
M  V30 7560 C 717.711 -1.77475 -4.11347 0
M  V30 7561 C 719.455 0.0495799 -4.24471 0
M  V30 7562 C 717.362 -1.85653 -5.61504 0
M  V30 7563 H 716.292 -0.0822633 -0.749499 0
M  V30 7564 H 718.943 -0.868969 -1.6162 0
M  V30 7565 H 717.325 0.346768 -3.94479 0
M  V30 7566 H 718.499 -2.51109 -3.86369 0
M  V30 7567 H 716.814 -2.13486 -3.57509 0
M  V30 7568 H 719.411 0.00898219 -5.34699 0
M  V30 7569 H 719.754 1.08904 -4.01803 0
M  V30 7570 H 720.287 -0.607521 -3.93134 0
M  V30 7571 H 717.026 -2.87667 -5.89006 0
M  V30 7572 H 716.546 -1.1641 -5.88395 0
M  V30 7573 H 718.225 -1.62151 -6.26351 0
M  V30 7574 N 718.357 1.51182 -0.445186 0
M  V30 7575 C 719.304 2.27939 0.362291 0
M  V30 7576 C 720.274 1.31864 1.01 0
M  V30 7577 O 721.459 1.60776 1.02741 0
M  V30 7578 C 718.599 3.13016 1.45311 0
M  V30 7579 C 717.712 4.24093 0.822757 0
M  V30 7580 C 716.847 4.96467 1.88928 0
M  V30 7581 C 715.886 5.99454 1.23778 0
M  V30 7582 N 715.023 6.65206 2.24602 0
M  V30 7583 H 719.863 2.965 -0.29862 0
M  V30 7584 H 717.4 1.46237 -0.15911 0
M  V30 7585 H 719.358 3.60673 2.09692 0
M  V30 7586 H 717.988 2.46553 2.08354 0
M  V30 7587 H 717.04 3.80341 0.0670364 0
M  V30 7588 H 718.352 4.97853 0.307184 0
M  V30 7589 H 717.506 5.47712 2.60953 0
M  V30 7590 H 716.245 4.22355 2.4386 0
M  V30 7591 H 715.25 5.47494 0.503042 0
M  V30 7592 H 716.475 6.75527 0.695694 0
M  V30 7593 H 714.421 5.93901 2.78599 0
M  V30 7594 H 714.338 7.34756 1.77958 0
M  V30 7595 H 715.606 7.21078 2.96085 0
M  V30 7596 N 719.835 0.176821 1.56605 0
M  V30 7597 C 721.083 -0.465793 1.96659 0
M  V30 7598 C 721.404 -1.63406 1.06412 0
M  V30 7599 O 720.674 -1.95457 0.131603 0
M  V30 7600 H 719.254 -0.175072 0.726195 0
M  V30 7601 H 721.916 0.25929 1.93168 0
M  V30 7602 H 721.012 -0.822138 3.01077 0
M  V30 7603 N 721.313 -1.57302 -0.09688 0
M  V30 7604 C 722.543 -1.89926 -0.813114 0
M  V30 7605 C 722.951 -0.76852 -1.72888 0
M  V30 7606 O 722.294 0.268549 -1.81726 0
M  V30 7607 C 722.356 -3.17787 -1.68082 0
M  V30 7608 C 722.02 -4.4729 -0.937061 0
M  V30 7609 C 723.017 -5.1921 -0.267687 0
M  V30 7610 C 720.702 -4.93957 -0.911671 0
M  V30 7611 C 722.696 -6.36034 0.417129 0
M  V30 7612 C 720.383 -6.10693 -0.223068 0
M  V30 7613 C 721.381 -6.8158 0.440155 0
M  V30 7614 O 721.069 -7.96092 1.11772 0
M  V30 7615 H 720.801 -0.632783 -0.237828 0
M  V30 7616 H 723.355 -2.05248 -0.0790818 0
M  V30 7617 H 721.585 -2.98607 -2.45705 0
M  V30 7618 H 723.274 -3.36257 -2.27346 0
M  V30 7619 H 724.04 -4.84198 -0.278774 0
M  V30 7620 H 719.919 -4.38671 -1.41734 0
M  V30 7621 H 723.463 -6.91301 0.93537 0
M  V30 7622 H 719.36 -6.45159 -0.209821 0
M  V30 7623 H 720.128 -8.12064 1.02443 0
M  V30 7624 N 722.791 0.367657 -1.53252 0
M  V30 7625 C 724.207 0.709191 -1.42978 0
M  V30 7626 C 724.407 1.93352 -0.567193 0
M  V30 7627 O 723.463 2.52453 -0.0488349 0
M  V30 7628 C 724.776 0.924338 -2.86141 0
M  V30 7629 C 726.324 1.02448 -2.95759 0
M  V30 7630 C 726.799 1.27211 -4.39979 0
M  V30 7631 N 728.29 1.33986 -4.43398 0
M  V30 7632 C 729.025 1.54852 -5.52095 0
M  V30 7633 N 728.521 1.73049 -6.7084 0
M  V30 7634 N 730.314 1.57205 -5.39669 0
M  V30 7635 H 722.465 -0.437669 -2.07842 0
M  V30 7636 H 724.728 -0.133737 -0.938519 0
M  V30 7637 H 724.434 0.0965455 -3.51567 0
M  V30 7638 H 724.308 1.83302 -3.29667 0
M  V30 7639 H 726.695 1.84282 -2.30487 0
M  V30 7640 H 726.776 0.0932301 -2.5563 0
M  V30 7641 H 726.42 0.458792 -5.05824 0
M  V30 7642 H 726.35 2.21654 -4.77679 0
M  V30 7643 H 728.841 1.21545 -3.5782 0
M  V30 7644 H 729.154 1.88538 -7.49449 0
M  V30 7645 H 727.499 1.70231 -6.7383 0
M  V30 7646 H 730.69 1.42555 -4.45865 0
M  V30 7647 H 730.863 1.73126 -6.24445 0
M  V30 7648 N 724.269 1.44576 0.627338 0
M  V30 7649 C 725.518 1.46837 1.38281 0
M  V30 7650 C 725.831 0.10635 1.95311 0
M  V30 7651 O 727.037 0.00651084 2.71499 0
M  V30 7652 C 725.493 2.58527 2.50384 0
M  V30 7653 C 725.101 4.00953 1.99851 0
M  V30 7654 C 726.845 2.70013 3.27557 0
M  V30 7655 C 724.752 5.0406 3.09318 0
M  V30 7656 H 723.682 0.546319 0.519664 0
M  V30 7657 H 726.333 1.70654 0.674497 0
M  V30 7658 H 724.715 2.27957 3.23808 0
M  V30 7659 H 725.889 4.41108 1.33267 0
M  V30 7660 H 724.204 3.93743 1.35482 0
M  V30 7661 H 726.801 3.44217 4.09168 0
M  V30 7662 H 727.144 1.75961 3.77284 0
M  V30 7663 H 727.677 3.00011 2.61224 0
M  V30 7664 H 724.416 5.99753 2.6453 0
M  V30 7665 H 723.936 4.68493 3.74532 0
M  V30 7666 H 725.615 5.2793 3.74031 0
M  V30 7667 N 725.747 -0.868086 1.31537 0
M  V30 7668 C 726.71 -1.95703 1.19302 0
M  V30 7669 C 727.71 -1.60355 0.119612 0
M  V30 7670 O 728.9 -1.70247 0.36902 0
M  V30 7671 C 726.032 -3.30599 0.831684 0
M  V30 7672 H 727.225 -2.07982 2.16064 0
M  V30 7673 H 724.778 -1.05661 1.15176 0
M  V30 7674 H 725.513 -3.2402 -0.134694 0
M  V30 7675 H 725.298 -3.57629 1.60761 0
M  V30 7676 H 726.788 -4.10439 0.770026 0
M  V30 7677 N 727.225 -1.14528 -1.08264 0
M  V30 7678 C 728.474 -0.908992 -1.80056 0
M  V30 7679 C 728.787 0.565859 -1.87236 0
M  V30 7680 O 729.993 0.919454 -2.55457 0
M  V30 7681 C 728.449 -1.57681 -3.23519 0
M  V30 7682 C 728.057 -3.08803 -3.24569 0
M  V30 7683 C 729.801 -1.4217 -3.99985 0
M  V30 7684 C 727.708 -3.68414 -4.62629 0
M  V30 7685 H 726.638 -0.336432 -0.674781 0
M  V30 7686 H 729.289 -1.37437 -1.21587 0
M  V30 7687 H 727.671 -1.03911 -3.82124 0
M  V30 7688 H 728.845 -3.69252 -2.75663 0
M  V30 7689 H 727.16 -3.23968 -2.61598 0
M  V30 7690 H 729.757 -1.84106 -5.02005 0
M  V30 7691 H 730.1 -0.367989 -4.1467 0
M  V30 7692 H 730.633 -1.92984 -3.47853 0
M  V30 7693 H 727.372 -4.73644 -4.53147 0
M  V30 7694 H 726.892 -3.12746 -5.11811 0
M  V30 7695 H 728.571 -3.68793 -5.31602 0
M  V30 7696 N 728.703 1.26451 -0.940633 0
M  V30 7697 C 729.65 2.264 -0.448497 0
M  V30 7698 C 730.62 1.5866 0.491546 0
M  V30 7699 O 731.805 1.86389 0.407874 0
M  V30 7700 C 728.945 3.43956 0.280715 0
M  V30 7701 C 728.058 4.26374 -0.694937 0
M  V30 7702 C 727.193 5.31171 0.0554186 0
M  V30 7703 C 726.232 6.05266 -0.912091 0
M  V30 7704 N 725.369 7.01833 -0.193524 0
M  V30 7705 H 730.209 2.67869 -1.30576 0
M  V30 7706 H 727.746 1.31707 -0.655112 0
M  V30 7707 H 729.704 4.10941 0.71994 0
M  V30 7708 H 728.334 3.03403 1.10212 0
M  V30 7709 H 727.386 3.59183 -1.25267 0
M  V30 7710 H 728.698 4.77748 -1.43382 0
M  V30 7711 H 727.852 6.04166 0.553951 0
M  V30 7712 H 726.591 4.80634 0.827183 0
M  V30 7713 H 725.596 5.31099 -1.42175 0
M  V30 7714 H 726.821 6.57893 -1.68385 0
M  V30 7715 H 724.767 6.53607 0.559758 0
M  V30 7716 H 724.684 7.50957 -0.871744 0
M  V30 7717 H 725.952 7.78983 0.283932 0
M  V30 7718 N 730.181 0.707592 1.40822 0
M  V30 7719 C 731.409 0.253073 2.05346 0
M  V30 7720 C 731.824 -1.10218 1.53289 0
M  V30 7721 O 731.181 -1.69112 0.686105 0
M  V30 7722 C 731.232 0.215411 3.60858 0
M  V30 7723 O 730.953 1.51714 4.10992 0
M  V30 7724 C 732.454 -0.258636 4.42545 0
M  V30 7725 H 729.674 0.115256 0.661027 0
M  V30 7726 H 732.218 0.963555 1.80377 0
M  V30 7727 H 730.373 -0.445978 3.84824 0
M  V30 7728 H 730.787 1.41226 5.05129 0
M  V30 7729 H 732.261 -0.233849 5.51504 0
M  V30 7730 H 732.738 -1.2995 4.19535 0
M  V30 7731 H 733.344 0.372186 4.23668 0
M  V30 7732 N 731.66 -1.50943 0.453197 0
M  V30 7733 C 732.908 -2.01813 -0.107709 0
M  V30 7734 C 733.229 -1.33841 -1.41816 0
M  V30 7735 O 732.499 -0.477973 -1.8998 0
M  V30 7736 H 731.079 -0.745773 -0.0427948 0
M  V30 7737 H 733.741 -1.8545 0.599531 0
M  V30 7738 H 732.837 -3.10911 -0.27218 0
M  V30 7739 N 733.138 -0.185124 -1.56509 0
M  V30 7740 C 734.366 0.462139 -2.01673 0
M  V30 7741 C 734.781 1.55873 -1.06532 0
M  V30 7742 O 734.138 1.82371 -0.0684805 0
M  V30 7743 C 734.189 1.0277 -3.46584 0
M  V30 7744 O 733.91 -0.0251296 -4.38093 0
M  V30 7745 C 735.411 1.75183 -4.07217 0
M  V30 7746 H 732.631 0.117001 -0.660721 0
M  V30 7747 H 735.175 -0.290905 -2.0242 0
M  V30 7748 H 733.33 1.73118 -3.46568 0
M  V30 7749 H 733.744 0.394387 -5.23015 0
M  V30 7750 H 735.218 2.09999 -5.10494 0
M  V30 7751 H 735.695 2.6519 -3.50101 0
M  V30 7752 H 736.301 1.09445 -4.10977 0
M  V30 7753 N 734.616 1.57351 0.0885366 0
M  V30 7754 C 735.579 2.01557 1.09121 0
M  V30 7755 C 736.579 0.910052 1.3257 0
M  V30 7756 O 737.769 1.17537 1.28572 0
M  V30 7757 C 734.901 2.38189 2.43883 0
M  V30 7758 H 736.094 2.91361 0.710562 0
M  V30 7759 H 733.647 1.52694 0.333779 0
M  V30 7760 H 734.382 1.5136 2.86811 0
M  V30 7761 H 734.167 3.18846 2.28209 0
M  V30 7762 H 735.657 2.73025 3.15986 0
M  V30 7763 N 736.094 -0.359525 1.53444 0
M  V30 7764 C 737.041 -1.44073 1.8031 0
M  V30 7765 C 738.011 -1.52946 0.647811 0
M  V30 7766 O 739.196 -1.68739 0.890614 0
M  V30 7767 C 736.336 -2.80941 2.00416 0
M  V30 7768 C 735.449 -2.80986 3.28132 0
M  V30 7769 C 734.584 -4.09468 3.38393 0
M  V30 7770 C 733.623 -4.03679 4.60119 0
M  V30 7771 N 732.76 -5.23821 4.675 0
M  V30 7772 H 737.6 -1.20464 2.72566 0
M  V30 7773 H 735.137 -0.583859 1.35017 0
M  V30 7774 H 737.095 -3.60459 2.1006 0
M  V30 7775 H 735.725 -3.02936 1.11489 0
M  V30 7776 H 734.777 -1.93666 3.27411 0
M  V30 7777 H 736.089 -2.72583 4.17732 0
M  V30 7778 H 735.243 -4.97404 3.47382 0
M  V30 7779 H 733.982 -4.20632 2.4682 0
M  V30 7780 H 732.987 -3.14129 4.51224 0
M  V30 7781 H 734.212 -3.94112 5.5304 0
M  V30 7782 H 732.158 -5.35559 3.7883 0
M  V30 7783 H 732.075 -5.17611 5.51013 0
M  V30 7784 H 733.343 -6.13572 4.8078 0
M  V30 7785 N 737.572 -1.44907 -0.619662 0
M  V30 7786 C 738.519 -1.52654 -1.73105 0
M  V30 7787 C 739.489 -0.373334 -1.6185 0
M  V30 7788 O 740.674 -0.585143 -1.81606 0
M  V30 7789 C 737.814 -1.48769 -3.11387 0
M  V30 7790 C 736.927 -2.74551 -3.33535 0
M  V30 7791 C 736.062 -2.62421 -4.61854 0
M  V30 7792 C 735.101 -3.83312 -4.77219 0
M  V30 7793 N 734.238 -3.69789 -5.96826 0
M  V30 7794 H 739.078 -2.47605 -1.65819 0
M  V30 7795 H 736.615 -1.22875 -0.808719 0
M  V30 7796 H 738.573 -1.44507 -3.91374 0
M  V30 7797 H 737.203 -0.573783 -3.1766 0
M  V30 7798 H 736.255 -2.88953 -2.47408 0
M  V30 7799 H 737.567 -3.64253 -3.40765 0
M  V30 7800 H 736.721 -2.56056 -5.50019 0
M  V30 7801 H 735.46 -1.70298 -4.57001 0
M  V30 7802 H 734.465 -3.90049 -3.87481 0
M  V30 7803 H 735.69 -4.76486 -4.83878 0
M  V30 7804 H 733.636 -2.80426 -5.93041 0
M  V30 7805 H 733.553 -4.53116 -6.05163 0
M  V30 7806 H 734.821 -3.67335 -6.87521 0
M  V30 7807 N 739.05 0.861098 -1.31996 0
M  V30 7808 C 740.296 1.61721 -1.22369 0
M  V30 7809 C 740.629 1.93 0.215587 0
M  V30 7810 O 739.904 1.56789 1.15098 0
M  V30 7811 C 740.187 2.9417 -2.07691 0
M  V30 7812 C 740.04 2.69714 -3.59965 0
M  V30 7813 C 741.359 3.95372 -1.93312 0
M  V30 7814 H 738.478 0.586822 -0.44588 0
M  V30 7815 H 741.12 0.994788 -1.61876 0
M  V30 7816 H 739.27 3.47292 -1.74128 0
M  V30 7817 H 740.942 2.23196 -4.03709 0
M  V30 7818 H 739.185 2.03789 -3.82952 0
M  V30 7819 H 739.856 3.63996 -4.14983 0
M  V30 7820 H 742.332 3.51487 -2.22701 0
M  V30 7821 H 741.208 4.85916 -2.55298 0
M  V30 7822 H 741.469 4.32865 -0.898922 0
M  V30 7823 N 740.528 1.15101 1.07655 0
M  V30 7824 C 741.776 0.922149 1.79836 0
M  V30 7825 C 742.097 -0.552346 1.87014 0
M  V30 7826 O 741.367 -1.40145 1.3688 0
M  V30 7827 H 739.947 0.338182 0.666064 0
M  V30 7828 H 742.609 1.45107 1.30115 0
M  V30 7829 H 741.705 1.32883 2.82398 0
M  V30 7830 N 742.006 -1.2595 0.947325 0
M  V30 7831 C 743.417 -1.75389 0.639963 0
M  V30 7832 C 743.768 -1.77081 -0.844788 0
M  V30 7833 O 742.893 -1.3869 -1.66114 0
M  V30 7834 C 743.488 -3.18506 1.15496 0
M  V30 7835 C 742.047 -3.65534 0.897894 0
M  V30 7836 C 741.194 -2.44818 1.30228 0
M  V30 7837 H 744.145 -1.1194 1.12495 0
M  V30 7838 H 744.166 -3.77045 0.511627 0
M  V30 7839 H 743.678 -3.17243 2.23559 0
M  V30 7840 H 741.779 -3.72221 -0.168096 0
M  V30 7841 H 741.892 -4.54039 1.52922 0
M  V30 7842 H 740.256 -2.44291 0.720678 0
M  V30 7843 H 741.039 -2.46251 2.39198 0
M  V30 7844 N 743.484 -0.715051 -1.40445 0
M  V30 7845 C 744.761 -0.181503 -1.94756 0
M  V30 7846 C 745.141 1.31268 -1.65324 0
M  V30 7847 O 744.489 2.0686 -0.970631 0
M  V30 7848 C 744.699 -0.493663 -3.45491 0
M  V30 7849 C 746.047 -0.432032 -4.22396 0
M  V30 7850 O 747.071 -0.429692 -3.53599 0
M  V30 7851 O 745.93 -0.409091 -5.44967 0
M  V30 7852 H 743.024 -0.0263989 -0.826579 0
M  V30 7853 H 745.57 -0.792546 -1.50056 0
M  V30 7854 H 744.342 -1.52713 -3.6027 0
M  V30 7855 H 743.965 0.14737 -3.97327 0
M  V30 7856 N 744.962 1.50701 -0.461195 0
M  V30 7857 C 746.21 2.01867 0.0970051 0
M  V30 7858 C 746.531 1.34591 1.41104 0
M  V30 7859 O 745.801 0.488041 1.89723 0
M  V30 7860 H 744.381 0.74599 0.0388392 0
M  V30 7861 H 747.043 1.85129 -0.609357 0
M  V30 7862 H 746.139 3.11051 0.255688 0
M  V30 7863 N 746.441 0.193421 1.56409 0
M  V30 7864 C 747.857 -0.162447 1.58771 0
M  V30 7865 C 748.057 -1.6116 1.20954 0
M  V30 7866 O 747.113 -2.3469 0.931497 0
M  V30 7867 C 748.426 0.138391 3.00381 0
M  V30 7868 C 749.974 0.0783649 3.12902 0
M  V30 7869 C 750.449 0.352491 4.56642 0
M  V30 7870 N 751.94 0.30105 4.62221 0
M  V30 7871 C 752.675 0.487028 5.71328 0
M  V30 7872 N 752.171 0.733265 6.88909 0
M  V30 7873 N 753.964 0.4214 5.60518 0
M  V30 7874 H 746.115 1.13909 1.79272 0
M  V30 7875 H 748.378 0.454528 0.83193 0
M  V30 7876 H 748.084 1.14312 3.32604 0
M  V30 7877 H 747.958 -0.559804 3.73023 0
M  V30 7878 H 750.345 -0.916963 2.80492 0
M  V30 7879 H 750.426 0.809611 2.4265 0
M  V30 7880 H 750.07 1.34513 4.89764 0
M  V30 7881 H 750 -0.399624 5.25081 0
M  V30 7882 H 752.491 0.117279 3.77718 0
M  V30 7883 H 752.804 0.86403 7.67955 0
M  V30 7884 H 751.149 0.770138 6.9072 0
M  V30 7885 H 754.34 0.229461 4.67537 0
M  V30 7886 H 754.513 0.569758 6.4549 0
M  V30 7887 N 747.919 -1.57396 -0.0801906 0
M  V30 7888 C 749.149 -1.90778 -0.792924 0
M  V30 7889 C 749.557 -0.786814 -1.72064 0
M  V30 7890 O 748.9 0.249259 -1.82001 0
M  V30 7891 C 748.962 -3.19552 -1.64702 0
M  V30 7892 C 748.626 -4.48259 -0.889567 0
M  V30 7893 C 749.623 -5.19465 -0.212602 0
M  V30 7894 C 747.308 -4.94896 -0.859229 0
M  V30 7895 C 749.302 -6.35555 0.484566 0
M  V30 7896 C 746.989 -6.10895 -0.158284 0
M  V30 7897 C 747.987 -6.81075 0.512421 0
M  V30 7898 O 747.675 -7.94862 1.20209 0
M  V30 7899 H 747.407 -0.63527 -0.231103 0
M  V30 7900 H 749.961 -2.0532 -0.0573081 0
M  V30 7901 H 748.191 -3.01196 -2.42524 0
M  V30 7902 H 749.88 -3.38649 -2.23767 0
M  V30 7903 H 750.646 -4.84467 -0.227403 0
M  V30 7904 H 746.525 -4.4015 -1.37073 0
M  V30 7905 H 750.069 -6.9027 1.00864 0
M  V30 7906 H 745.966 -6.45345 -0.141381 0
M  V30 7907 H 746.734 -8.10932 1.11051 0
M  V30 7908 N 749.397 0.351382 -1.53633 0
M  V30 7909 C 750.646 1.08988 -1.69719 0
M  V30 7910 C 750.959 1.90043 -0.462948 0
M  V30 7911 O 752.165 2.66769 -0.504613 0
M  V30 7912 C 750.621 1.98691 -3.00083 0
M  V30 7913 C 750.229 1.22881 -4.30818 0
M  V30 7914 C 751.973 2.72446 -3.25536 0
M  V30 7915 C 749.88 2.11568 -5.52262 0
M  V30 7916 H 748.81 0.410588 -0.632403 0
M  V30 7917 H 751.461 0.349886 -1.80133 0
M  V30 7918 H 749.843 2.76478 -2.83506 0
M  V30 7919 H 751.017 0.500582 -4.58073 0
M  V30 7920 H 749.332 0.60928 -4.11918 0
M  V30 7921 H 751.929 3.39055 -4.13456 0
M  V30 7922 H 752.272 3.38588 -2.42206 0
M  V30 7923 H 752.805 2.01735 -3.42852 0
M  V30 7924 H 749.544 1.4998 -6.38111 0
M  V30 7925 H 749.064 2.82201 -5.29266 0
M  V30 7926 H 750.743 2.70802 -5.87601 0
M  V30 7927 N 750.875 1.45233 0.611969 0
M  V30 7928 C 751.823 1.53898 1.74408 0
M  V30 7929 C 752.817 0.409254 1.64382 0
M  V30 7930 O 754.023 0.584988 1.70229 0
M  V30 7931 H 750.398 0.483303 0.576127 0
M  V30 7932 H 752.369 2.49143 1.64227 0
M  V30 7933 C 751.118 1.51865 3.12782 0
M  V30 7934 H 750.441 2.38118 3.21154 0
M  V30 7935 H 751.881 1.61986 3.91838 0
M  V30 7936 C 750.34 0.242374 3.36027 0
M  V30 7937 O 750.87 -0.679587 3.9591 0
M  V30 7938 N 749.076 0.139448 2.90265 0
M  V30 7939 H 748.623 0.890571 2.41716 0
M  V30 7940 H 748.581 -0.713686 3.06193 0
M  V30 7941 N 752.353 -0.854086 1.3245 0
M  V30 7942 C 753.3 -1.96271 1.21434 0
M  V30 7943 C 754.27 -1.6582 0.0963851 0
M  V30 7944 O 755.455 -1.88851 0.27203 0
M  V30 7945 C 752.595 -3.31939 0.943952 0
M  V30 7946 C 751.708 -3.74885 2.14675 0
M  V30 7947 C 750.843 -4.99347 1.81179 0
M  V30 7948 C 749.882 -5.34785 2.97777 0
M  V30 7949 N 749.019 -6.50425 2.6437 0
M  V30 7950 H 753.859 -2.05025 2.16261 0
M  V30 7951 H 751.396 -1.00348 1.07558 0
M  V30 7952 H 753.354 -4.10076 0.767675 0
M  V30 7953 H 751.984 -3.22784 0.0324763 0
M  V30 7954 H 751.036 -2.92396 2.43328 0
M  V30 7955 H 752.348 -3.97068 3.01891 0
M  V30 7956 H 751.502 -5.85193 1.60107 0
M  V30 7957 H 750.241 -4.79101 0.911777 0
M  V30 7958 H 749.246 -4.47451 3.1948 0
M  V30 7959 H 750.471 -5.56988 3.88511 0
M  V30 7960 H 748.417 -6.31695 1.7691 0
M  V30 7961 H 748.334 -6.7263 3.45116 0
M  V30 7962 H 749.602 -7.39422 2.46729 0
M  V30 7963 N 753.831 -1.1567 -1.07043 0
M  V30 7964 C 755.061 -0.956083 -1.83146 0
M  V30 7965 C 755.469 0.498969 -1.82502 0
M  V30 7966 O 754.812 1.35791 -1.23719 0
M  V30 7967 C 754.874 -1.39704 -3.31245 0
M  V30 7968 C 754.538 -2.87045 -3.55604 0
M  V30 7969 C 755.535 -3.85092 -3.49285 0
M  V30 7970 C 753.22 -3.24787 -3.8317 0
M  V30 7971 C 755.214 -5.18885 -3.70185 0
M  V30 7972 C 752.901 -4.58751 -4.03721 0
M  V30 7973 C 753.899 -5.55609 -3.97224 0
M  V30 7974 O 753.587 -6.87154 -4.17223 0
M  V30 7975 H 753.319 -0.339473 -0.58458 0
M  V30 7976 H 755.873 -1.53922 -1.36005 0
M  V30 7977 H 754.103 -0.757326 -3.79212 0
M  V30 7978 H 755.792 -1.16503 -3.88821 0
M  V30 7979 H 756.558 -3.5728 -3.27988 0
M  V30 7980 H 752.437 -2.49979 -3.87339 0
M  V30 7981 H 755.981 -5.94473 -3.6503 0
M  V30 7982 H 751.878 -4.86277 -4.24505 0
M  V30 7983 H 752.646 -6.93618 -4.34553 0
M  V30 7984 N 755.309 1.25446 -0.953992 0
M  V30 7985 C 756.558 1.92441 -0.604101 0
M  V30 7986 C 756.871 1.75543 0.862796 0
M  V30 7987 O 758.077 2.37106 1.32262 0
M  V30 7988 C 756.533 3.44854 -1.02974 0
M  V30 7989 C 756.141 3.70464 -2.51914 0
M  V30 7990 C 757.885 4.1778 -0.752352 0
M  V30 7991 C 755.792 5.1638 -2.88281 0
M  V30 7992 H 754.722 0.720508 -0.222227 0
M  V30 7993 H 757.373 1.42318 -1.15836 0
M  V30 7994 H 755.755 3.93935 -0.403904 0
M  V30 7995 H 756.929 3.32038 -3.19511 0
M  V30 7996 H 755.244 3.10797 -2.77117 0
M  V30 7997 H 757.841 5.25261 -1.00024 0
M  V30 7998 H 758.184 4.15135 0.311212 0
M  V30 7999 H 758.717 3.74605 -1.33851 0
M  V30 8000 H 755.456 5.24135 -3.93653 0
M  V30 8001 H 754.976 5.55855 -2.25357 0
M  V30 8002 H 756.655 5.84497 -2.77439 0
M  V30 8003 N 756.787 0.722489 1.40064 0
M  V30 8004 C 757.75 0.0830209 2.2905 0
M  V30 8005 C 758.75 -0.680208 1.45705 0
M  V30 8006 O 759.94 -0.511084 1.66534 0
M  V30 8007 C 757.072 -0.892092 3.29021 0
M  V30 8008 H 758.265 0.866848 2.87099 0
M  V30 8009 H 755.818 0.487556 1.48501 0
M  V30 8010 H 756.553 -1.70273 2.76003 0
M  V30 8011 H 756.338 -0.34761 3.90556 0
M  V30 8012 H 757.828 -1.33648 3.95636 0
M  V30 8013 N 758.265 -1.50454 0.469181 0
M  V30 8014 C 759.495 -2.06429 -0.0840913 0
M  V30 8015 C 759.903 -1.3334 -1.34227 0
M  V30 8016 O 759.246 -0.395656 -1.79389 0
M  V30 8017 C 759.308 -3.56797 -0.440049 0
M  V30 8018 C 758.972 -4.51359 0.715838 0
M  V30 8019 C 759.969 -4.94754 1.59732 0
M  V30 8020 C 757.654 -4.94069 0.905621 0
M  V30 8021 C 759.648 -5.79564 2.653 0
M  V30 8022 C 757.335 -5.78662 1.96453 0
M  V30 8023 C 758.333 -6.21311 2.83658 0
M  V30 8024 O 758.021 -7.04218 3.87727 0
M  V30 8025 H 757.753 -0.675994 0.00289751 0
M  V30 8026 H 760.307 -1.94629 0.656417 0
M  V30 8027 H 758.537 -3.66492 -1.23372 0
M  V30 8028 H 760.226 -3.95145 -0.928181 0
M  V30 8029 H 760.992 -4.62428 1.46237 0
M  V30 8030 H 756.871 -4.60394 0.236326 0
M  V30 8031 H 760.415 -6.12774 3.33398 0
M  V30 8032 H 756.312 -6.10401 2.09955 0
M  V30 8033 H 757.08 -7.22464 3.84692 0
M  V30 8034 N 759.743 -0.201713 -1.56304 0
M  V30 8035 C 760.971 0.440723 -2.02152 0
M  V30 8036 C 761.386 1.54735 -1.08179 0
M  V30 8037 O 760.743 1.82289 -0.0878196 0
M  V30 8038 C 760.794 0.990884 -3.47655 0
M  V30 8039 O 760.515 -0.0715937 -4.38041 0
M  V30 8040 C 762.016 1.70854 -4.09052 0
M  V30 8041 H 759.236 0.109987 -0.661924 0
M  V30 8042 H 761.78 -0.312358 -2.021 0
M  V30 8043 H 759.935 1.69432 -3.48384 0
M  V30 8044 H 760.349 0.338892 -5.23404 0
M  V30 8045 H 761.823 2.04572 -5.12693 0
M  V30 8046 H 762.3 2.61462 -3.52894 0
M  V30 8047 H 762.906 1.0508 -4.12114 0
M  V30 8048 N 761.222 1.57436 0.0718424 0
M  V30 8049 C 762.185 2.02703 1.06977 0
M  V30 8050 C 763.185 0.924062 1.31597 0
M  V30 8051 O 764.375 1.18894 1.27318 0
M  V30 8052 C 761.507 2.40763 2.41342 0
M  V30 8053 H 762.7 2.92098 0.679619 0
M  V30 8054 H 760.253 1.5304 0.317565 0
M  V30 8055 H 760.988 1.54394 2.8519 0
M  V30 8056 H 760.773 3.21249 2.24814 0
M  V30 8057 H 762.263 2.76361 3.13073 0
M  V30 8058 N 762.7 -0.34323 1.53817 0
M  V30 8059 C 763.948 -1.0813 1.70741 0
M  V30 8060 C 764.269 -1.89165 0.473461 0
M  V30 8061 O 763.539 -1.89075 -0.512605 0
M  V30 8062 H 762.119 -0.40219 0.629486 0
M  V30 8063 H 764.781 -0.384426 1.91071 0
M  V30 8064 H 763.877 -1.7585 2.57843 0
M  V30 8065 N 764.178 -1.45556 -0.604258 0
M  V30 8066 C 765.424 -1.49968 -1.36519 0
M  V30 8067 C 765.757 -0.142236 -1.93678 0
M  V30 8068 O 765.032 0.843717 -1.75247 0
M  V30 8069 C 765.315 -2.58146 -2.51063 0
M  V30 8070 C 765.168 -4.03346 -1.99078 0
M  V30 8071 C 766.487 -2.62581 -3.53184 0
M  V30 8072 H 763.606 -0.545993 -0.495036 0
M  V30 8073 H 766.248 -1.77382 -0.680845 0
M  V30 8074 H 764.398 -2.34901 -3.09441 0
M  V30 8075 H 766.07 -4.37811 -1.45323 0
M  V30 8076 H 764.313 -4.13845 -1.30055 0
M  V30 8077 H 764.984 -4.74731 -2.81664 0
M  V30 8078 H 767.46 -2.83419 -3.04652 0
M  V30 8079 H 766.336 -3.40131 -4.30816 0
M  V30 8080 H 766.597 -1.67798 -4.09019 0
M  V30 8081 N 765.656 0.84705 -1.32902 0
M  V30 8082 C 766.619 1.9378 -1.224 0
M  V30 8083 C 767.619 1.60144 -0.145108 0
M  V30 8084 O 768.809 1.69638 -0.396058 0
M  V30 8085 C 765.941 3.29234 -0.884174 0
M  V30 8086 H 767.134 2.04518 -2.19345 0
M  V30 8087 H 764.687 1.03816 -1.16842 0
M  V30 8088 H 765.422 3.24193 0.0831277 0
M  V30 8089 H 765.207 3.55026 -1.6643 0
M  V30 8090 H 766.697 4.09162 -0.835226 0
M  V30 8091 N 767.134 1.16236 1.06428 0
M  V30 8092 C 768.545 0.950942 1.60667 0
M  V30 8093 C 768.896 -0.505491 1.89576 0
M  V30 8094 O 768.021 -1.37843 1.66818 0
M  V30 8095 C 768.616 1.71982 2.91904 0
M  V30 8096 C 767.175 1.55342 3.4285 0
M  V30 8097 C 766.322 1.72942 2.16763 0
M  V30 8098 H 769.273 1.31126 0.893959 0
M  V30 8099 H 769.294 1.19483 3.61253 0
M  V30 8100 H 768.806 2.77978 2.70831 0
M  V30 8101 H 766.907 0.5178 3.68985 0
M  V30 8102 H 767.02 2.33643 4.18267 0
M  V30 8103 H 765.384 1.15673 2.26918 0
M  V30 8104 H 766.167 2.80324 1.98175 0
M  V30 8105 N 768.612 -1.24939 0.960631 0
M  V30 8106 C 769.575 -2.239 0.49006 0
M  V30 8107 C 770.575 -1.55497 -0.409535 0
M  V30 8108 O 771.765 -1.72978 -0.205984 0
M  V30 8109 C 768.897 -3.39654 -0.291193 0
M  V30 8110 H 770.09 -2.67044 1.36482 0
M  V30 8111 H 767.643 -1.37429 0.744505 0
M  V30 8112 H 768.378 -3.01939 -1.18336 0
M  V30 8113 H 768.163 -3.90496 0.354276 0
M  V30 8114 H 769.653 -4.13125 -0.609693 0
M  V30 8115 N 770.09 -0.729906 -1.39679 0
M  V30 8116 C 771.315 -0.284345 -2.05442 0
M  V30 8117 C 771.74 1.07056 -1.54663 0
M  V30 8118 O 771.098 1.67732 -0.688157 0
M  V30 8119 C 771.146 -0.290089 -3.59431 0
M  V30 8120 O 770.25 0.723978 -4.05995 0
M  V30 8121 H 769.591 -0.130311 -0.651088 0
M  V30 8122 H 772.121 -0.994403 -1.78809 0
M  V30 8123 H 772.131 -0.132712 -4.07784 0
M  V30 8124 H 770.806 -1.27877 -3.95753 0
M  V30 8125 H 769.383 0.533154 -3.69069 0
M  V30 8126 N 771.568 1.50203 -0.477153 0
M  V30 8127 C 772.5 2.26508 0.350239 0
M  V30 8128 C 773.513 1.32081 0.95176 0
M  V30 8129 O 774.702 1.57546 0.839139 0
M  V30 8130 C 771.802 3.0361 1.50579 0
M  V30 8131 C 770.975 4.25438 1.01595 0
M  V30 8132 C 770.034 4.84783 2.04626 0
M  V30 8133 O 769.06 5.45528 1.62442 0
M  V30 8134 N 770.262 4.72318 3.37485 0
M  V30 8135 H 773.027 2.98155 -0.30394 0
M  V30 8136 H 770.588 1.58938 -0.308289 0
M  V30 8137 H 772.58 3.4019 2.1921 0
M  V30 8138 H 771.15 2.34724 2.06455 0
M  V30 8139 H 770.37 3.93894 0.155316 0
M  V30 8140 H 771.658 5.04413 0.666694 0
M  V30 8141 H 771.056 4.24022 3.74462 0
M  V30 8142 H 769.613 5.13149 4.01897 0
M  V30 8143 N 773.046 0.209999 1.56195 0
M  V30 8144 C 774.457 -0.299943 1.84275 0
M  V30 8145 C 774.808 -1.60314 1.1311 0
M  V30 8146 O 773.933 -2.1273 0.396874 0
M  V30 8147 C 774.528 -0.550986 3.3429 0
M  V30 8148 C 773.087 -1.00526 3.62728 0
M  V30 8149 C 772.234 -0.0619828 2.77231 0
M  V30 8150 H 775.185 0.433458 1.52666 0
M  V30 8151 H 775.206 -1.39846 3.53869 0
M  V30 8152 H 774.718 0.397669 3.86057 0
M  V30 8153 H 772.819 -1.96768 3.16407 0
M  V30 8154 H 772.932 -0.887664 4.70805 0
M  V30 8155 H 771.296 -0.566648 2.48317 0
M  V30 8156 H 772.079 0.881383 3.31793 0
M  V30 8157 N 774.524 -1.57472 -0.0634922 0
M  V30 8158 C 775.94 -1.54016 -0.418466 0
M  V30 8159 C 776.14 -0.931376 -1.78683 0
M  V30 8160 O 775.196 -0.537465 -2.46714 0
M  V30 8161 C 776.509 -2.98634 -0.351906 0
M  V30 8162 C 778.057 -3.10012 -0.431494 0
M  V30 8163 C 778.532 -4.56296 -0.394754 0
M  V30 8164 N 780.023 -4.60964 -0.454583 0
M  V30 8165 C 780.758 -5.71643 -0.448501 0
M  V30 8166 N 780.254 -6.91663 -0.396742 0
M  V30 8167 N 782.047 -5.5991 -0.495677 0
M  V30 8168 H 774.198 -1.95409 0.832408 0
M  V30 8169 H 776.461 -0.894769 0.313197 0
M  V30 8170 H 776.167 -3.46766 0.587048 0
M  V30 8171 H 776.041 -3.58955 -1.15893 0
M  V30 8172 H 778.428 -2.61848 -1.36087 0
M  V30 8173 H 778.509 -2.52585 0.404258 0
M  V30 8174 H 778.153 -5.05119 0.530811 0
M  V30 8175 H 778.083 -5.11594 -1.24815 0
M  V30 8176 H 780.574 -3.74598 -0.498496 0
M  V30 8177 H 780.887 -7.71783 -0.396256 0
M  V30 8178 H 779.232 -6.9405 -0.363304 0
M  V30 8179 H 782.423 -4.65046 -0.533864 0
M  V30 8180 H 782.596 -6.46164 -0.487469 0
M  V30 8181 N 776.003 0.335068 -1.53997 0
M  V30 8182 C 777.25 1.07435 -1.71651 0
M  V30 8183 C 777.578 1.88378 -0.48413 0
M  V30 8184 O 776.833 1.8827 0.534139 0
M  V30 8185 C 777.132 2.0364 -2.9371 0
M  V30 8186 C 776.798 1.38942 -4.28959 0
M  V30 8187 C 775.46 1.21027 -4.65732 0
M  V30 8188 C 777.812 0.924083 -5.12943 0
M  V30 8189 C 775.14 0.552097 -5.84097 0
M  V30 8190 C 777.492 0.27978 -6.31981 0
M  V30 8191 C 776.156 0.0883843 -6.67441 0
M  V30 8192 H 775.426 0.393133 -0.628114 0
M  V30 8193 H 778.073 0.352712 -1.88224 0
M  V30 8194 H 776.378 2.82215 -2.71775 0
M  V30 8195 H 778.075 2.6085 -3.04562 0
M  V30 8196 H 774.665 1.53885 -4.00022 0
M  V30 8197 H 778.849 1.05032 -4.85059 0
M  V30 8198 H 774.105 0.392502 -6.10139 0
M  V30 8199 H 778.279 -0.0888479 -6.96343 0
M  V30 8200 H 775.906 -0.423657 -7.59019 0
M  V30 8201 N 777.481 1.45874 0.596531 0
M  V30 8202 C 778.444 1.54988 1.68853 0
M  V30 8203 C 779.444 0.428302 1.54991 0
M  V30 8204 O 780.634 0.692158 1.59859 0
M  V30 8205 C 777.766 1.457 3.08195 0
M  V30 8206 H 778.959 2.52294 1.62135 0
M  V30 8207 H 776.512 1.33479 0.813206 0
M  V30 8208 H 777.247 0.496204 3.20481 0
M  V30 8209 H 777.032 2.27061 3.19665 0
M  V30 8210 H 778.522 1.55133 3.87716 0
M  V30 8211 N 778.959 -0.83999 1.33349 0
M  V30 8212 C 779.889 -1.965 1.26135 0
M  V30 8213 C 780.87 -1.69505 0.142152 0
M  V30 8214 O 782.055 -1.91346 0.331743 0
M  V30 8215 C 779.185 -3.32632 0.99866 0
M  V30 8216 C 778.139 -3.74021 2.08068 0
M  V30 8217 C 777.465 -5.07947 1.67014 0
M  V30 8218 C 778.765 -3.87925 3.49731 0
M  V30 8219 H 780.459 -2.02793 2.20262 0
M  V30 8220 H 778.005 -0.974297 1.06035 0
M  V30 8221 H 779.958 -4.10903 0.934696 0
M  V30 8222 H 778.682 -3.26593 0.0217759 0
M  V30 8223 H 777.341 -2.98012 2.13505 0
M  V30 8224 H 776.989 -4.98378 0.680316 0
M  V30 8225 H 776.689 -5.36611 2.39422 0
M  V30 8226 H 778.213 -5.88695 1.62082 0
M  V30 8227 H 779.627 -4.5651 3.46802 0
M  V30 8228 H 778.024 -4.28023 4.20614 0
M  V30 8229 H 779.094 -2.90407 3.88319 0
M  V30 8230 N 780.437 -1.16799 -1.0581 0
M  V30 8231 C 781.683 -0.953935 -1.78963 0
M  V30 8232 C 782.016 0.516638 -1.87202 0
M  V30 8233 O 781.291 1.38338 -1.36721 0
M  V30 8234 C 781.574 -1.58808 -3.23191 0
M  V30 8235 C 781.427 -3.13032 -3.23003 0
M  V30 8236 C 782.746 -1.2868 -4.20867 0
M  V30 8237 H 779.865 -0.347972 -0.64968 0
M  V30 8238 H 782.507 -1.44204 -1.23715 0
M  V30 8239 H 780.657 -1.17303 -3.70368 0
M  V30 8240 H 782.329 -3.63553 -2.83949 0
M  V30 8241 H 780.572 -3.46108 -2.61518 0
M  V30 8242 H 781.243 -3.52527 -4.24769 0
M  V30 8243 H 783.719 -1.6461 -3.82155 0
M  V30 8244 H 782.595 -1.75645 -5.20038 0
M  V30 8245 H 782.856 -0.206491 -4.41618 0
M  V30 8246 N 781.915 1.24427 -0.967243 0
M  V30 8247 C 783.161 1.92772 -0.629812 0
M  V30 8248 C 783.494 1.75436 0.832827 0
M  V30 8249 O 782.769 1.10716 1.59913 0
M  V30 8250 C 783.052 3.45798 -1.00477 0
M  V30 8251 C 782.905 3.72304 -2.52407 0
M  V30 8252 C 784.224 4.36787 -0.538999 0
M  V30 8253 H 781.343 0.700099 -0.230282 0
M  V30 8254 H 783.985 1.46805 -1.20616 0
M  V30 8255 H 782.135 3.8508 -0.514336 0
M  V30 8256 H 783.807 3.42584 -3.08924 0
M  V30 8257 H 782.05 3.17472 -2.95625 0
M  V30 8258 H 782.721 4.7937 -2.73693 0
M  V30 8259 H 785.197 4.04877 -0.959874 0
M  V30 8260 H 784.073 5.4259 -0.829926 0
M  V30 8261 H 784.334 4.38527 0.560923 0
M  V30 8262 N 783.393 0.737304 1.3929 0
M  V30 8263 C 784.639 0.286681 2.00763 0
M  V30 8264 C 784.972 -1.12388 1.58375 0
M  V30 8265 O 784.247 -1.76661 0.813699 0
M  V30 8266 C 784.53 0.391147 3.57969 0
M  V30 8267 C 784.383 1.84165 4.1037 0
M  V30 8268 C 785.702 -0.225072 4.39524 0
M  V30 8269 H 782.821 0.105642 0.729389 0
M  V30 8270 H 785.463 0.933892 1.65464 0
M  V30 8271 H 783.613 -0.159875 3.88171 0
M  V30 8272 H 785.285 2.44972 3.90879 0
M  V30 8273 H 783.528 2.3622 3.63844 0
M  V30 8274 H 784.199 1.866 5.19504 0
M  V30 8275 H 786.675 0.244677 4.1538 0
M  V30 8276 H 785.551 -0.121646 5.48765 0
M  V30 8277 H 785.812 -1.31141 4.22202 0
M  V30 8278 N 784.871 -1.49948 0.485112 0
M  V30 8279 C 786.12 -2.01589 -0.066765 0
M  V30 8280 C 786.433 -1.371 -1.39509 0
M  V30 8281 O 787.639 -1.79978 -2.03274 0
M  V30 8282 C 786.095 -3.59501 -0.169476 0
M  V30 8283 C 785.703 -4.32955 1.15126 0
M  V30 8284 C 787.447 -4.19138 -0.672564 0
M  V30 8285 C 785.354 -5.82684 1.01158 0
M  V30 8286 H 784.284 -0.753453 -0.0287259 0
M  V30 8287 H 786.935 -1.72632 0.622132 0
M  V30 8288 H 785.317 -3.85106 -0.922471 0
M  V30 8289 H 786.491 -4.19064 1.9163 0
M  V30 8290 H 784.806 -3.84991 1.58654 0
M  V30 8291 H 787.403 -5.28767 -0.794325 0
M  V30 8292 H 787.746 -3.81447 -1.66745 0
M  V30 8293 H 788.279 -3.97793 0.0234415 0
M  V30 8294 H 785.018 -6.24873 1.98025 0
M  V30 8295 H 784.538 -5.99112 0.287151 0
M  V30 8296 H 786.217 -6.43376 0.683847 0
M  V30 8297 N 786.349 -0.21828 -1.56081 0
M  V30 8298 C 787.297 0.709679 -2.21509 0
M  V30 8299 C 788.291 1.20221 -1.19346 0
M  V30 8300 O 789.497 1.16241 -1.37433 0
M  V30 8301 H 785.872 0.247271 -0.710184 0
M  V30 8302 H 787.843 0.134386 -2.98097 0
M  V30 8303 C 786.592 1.90853 -2.90638 0
M  V30 8304 H 785.915 1.53865 -3.69006 0
M  V30 8305 H 787.355 2.53568 -3.39822 0
M  V30 8306 C 785.814 2.76189 -1.92929 0
M  V30 8307 O 786.344 3.74842 -1.44416 0
M  V30 8308 N 784.55 2.42157 -1.6065 0
M  V30 8309 H 784.097 1.61987 -2.00294 0
M  V30 8310 H 784.055 2.99534 -0.955347 0
M  V30 8311 N 787.827 1.57504 0.0551401 0
M  V30 8312 C 789.104 1.79155 0.785048 0
M  V30 8313 C 789.484 0.809995 1.94942 0
M  V30 8314 O 788.832 -0.153432 2.27984 0
M  V30 8315 C 789.042 3.26134 1.24247 0
M  V30 8316 C 790.39 3.90419 1.66908 0
M  V30 8317 O 791.414 3.30126 1.33772 0
M  V30 8318 O 790.273 4.96523 2.28314 0
M  V30 8319 H 787.367 0.735825 0.377479 0
M  V30 8320 H 789.913 1.69666 0.0339285 0
M  V30 8321 H 788.685 3.89145 0.410089 0
M  V30 8322 H 788.308 3.40411 2.05441 0
M  V30 8323 N 789.305 -0.326896 1.54172 0
M  V30 8324 C 790.716 -0.901533 1.63491 0
M  V30 8325 C 791.067 -1.88994 0.52684 0
M  V30 8326 O 790.192 -2.137 -0.340794 0
M  V30 8327 C 790.787 -1.64192 2.96355 0
M  V30 8328 C 789.346 -2.16533 3.07881 0
M  V30 8329 C 788.493 -0.98966 2.59039 0
M  V30 8330 H 791.444 -0.104568 1.58355 0
M  V30 8331 H 791.465 -2.50592 2.86328 0
M  V30 8332 H 790.977 -0.922291 3.76982 0
M  V30 8333 H 789.078 -2.91622 2.31922 0
M  V30 8334 H 789.191 -2.41762 4.13628 0
M  V30 8335 H 787.555 -1.36787 2.14852 0
M  V30 8336 H 788.338 -0.284401 3.4212 0
M  V30 8337 N 790.784 -1.46188 -0.588786 0
M  V30 8338 C 791.716 -1.52319 -1.71265 0
M  V30 8339 C 792.729 -0.412096 -1.57498 0
M  V30 8340 O 793.918 -0.680146 -1.65034 0
M  V30 8341 C 791.018 -1.38164 -3.09458 0
M  V30 8342 C 790.191 -2.63284 -3.49286 0
M  V30 8343 C 789.25 -2.43415 -4.66514 0
M  V30 8344 O 788.276 -3.17113 -4.72682 0
M  V30 8345 N 789.478 -1.49187 -5.61002 0
M  V30 8346 H 792.243 -2.49219 -1.66463 0
M  V30 8347 H 789.804 -1.42167 -0.774601 0
M  V30 8348 H 791.796 -1.22653 -3.85666 0
M  V30 8349 H 790.366 -0.494678 -3.08661 0
M  V30 8350 H 789.586 -2.93779 -2.62845 0
M  V30 8351 H 790.874 -3.46413 -3.7266 0
M  V30 8352 H 790.272 -0.884027 -5.5875 0
M  V30 8353 H 788.829 -1.39642 -6.36666 0
M  V30 8354 N 792.262 0.832906 -1.33792 0
M  V30 8355 C 793.225 1.92471 -1.24449 0
M  V30 8356 C 794.225 1.59981 -0.162085 0
M  V30 8357 O 795.415 1.69208 -0.414029 0
M  V30 8358 C 792.547 3.28278 -0.919044 0
M  V30 8359 H 793.74 2.0218 -2.21502 0
M  V30 8360 H 791.293 1.0257 -1.17936 0
M  V30 8361 H 792.028 3.24263 0.048738 0
M  V30 8362 H 791.813 3.53241 -1.70187 0
M  V30 8363 H 793.303 4.08253 -0.878576 0
M  V30 8364 N 793.74 1.17359 1.05189 0
M  V30 8365 C 794.988 0.960087 1.77839 0
M  V30 8366 C 795.309 -0.512554 1.88143 0
M  V30 8367 O 794.579 -1.3721 1.39822 0
M  V30 8368 H 793.159 0.352234 0.658741 0
M  V30 8369 H 795.821 1.47834 1.27008 0
M  V30 8370 H 794.917 1.38843 2.79516 0
M  V30 8371 N 795.218 -1.23913 0.973828 0
M  V30 8372 C 796.165 -2.25132 0.508366 0
M  V30 8373 C 797.135 -1.59908 -0.449307 0
M  V30 8374 O 798.32 -1.87405 -0.358313 0
M  V30 8375 C 795.46 -3.4458 -0.189422 0
M  V30 8376 C 794.573 -4.24381 0.807738 0
M  V30 8377 C 793.708 -5.31131 0.0854315 0
M  V30 8378 C 792.747 -6.02635 1.07225 0
M  V30 8379 N 791.884 -7.01073 0.379535 0
M  V30 8380 H 796.724 -2.64313 1.37632 0
M  V30 8381 H 794.261 -1.29924 0.689802 0
M  V30 8382 H 796.219 -4.12706 -0.610733 0
M  V30 8383 H 794.849 -3.06218 -1.02129 0
M  V30 8384 H 793.901 -3.55735 1.34747 0
M  V30 8385 H 795.213 -4.73778 1.55998 0
M  V30 8386 H 794.367 -6.05422 -0.393572 0
M  V30 8387 H 793.106 -4.82658 -0.699461 0
M  V30 8388 H 792.111 -5.27143 1.56207 0
M  V30 8389 H 793.336 -6.53197 1.85769 0
M  V30 8390 H 791.282 -6.54862 -0.386269 0
M  V30 8391 H 791.199 -7.48382 1.07054 0
M  V30 8392 H 792.467 -7.79462 -0.0772984 0
M  V30 8393 N 796.696 -0.74468 -1.38897 0
M  V30 8394 C 797.926 -0.306982 -2.04307 0
M  V30 8395 C 798.334 1.06652 -1.56275 0
M  V30 8396 O 797.677 1.68699 -0.72708 0
M  V30 8397 C 797.739 -0.241186 -3.5869 0
M  V30 8398 C 797.403 -1.55476 -4.2974 0
M  V30 8399 C 798.4 -2.50229 -4.55721 0
M  V30 8400 C 796.085 -1.82173 -4.68101 0
M  V30 8401 C 798.079 -3.69905 -5.19085 0
M  V30 8402 C 795.766 -3.02125 -5.31191 0
M  V30 8403 C 796.764 -3.95812 -5.56616 0
M  V30 8404 O 796.452 -5.13656 -6.18395 0
M  V30 8405 H 796.184 -0.130416 -0.663301 0
M  V30 8406 H 798.738 -1.01192 -1.78744 0
M  V30 8407 H 796.968 0.519925 -3.83189 0
M  V30 8408 H 798.657 0.165806 -4.05561 0
M  V30 8409 H 799.423 -2.30877 -4.26522 0
M  V30 8410 H 795.302 -1.10091 -4.47662 0
M  V30 8411 H 798.846 -4.43047 -5.38846 0
M  V30 8412 H 794.743 -3.21374 -5.59811 0
M  V30 8413 H 795.511 -5.14119 -6.36886 0
M  V30 8414 N 798.174 1.49689 -0.493057 0
M  V30 8415 C 799.404 2.06536 0.0512397 0
M  V30 8416 C 799.812 1.35459 1.32089 0
M  V30 8417 O 799.155 0.424145 1.78736 0
M  V30 8418 C 799.217 3.57452 0.383231 0
M  V30 8419 C 798.881 4.50163 -0.787555 0
M  V30 8420 C 799.878 4.92151 -1.67582 0
M  V30 8421 C 797.563 4.92565 -0.984109 0
M  V30 8422 C 799.557 5.7527 -2.74487 0
M  V30 8423 C 797.244 5.75463 -2.05634 0
M  V30 8424 C 798.242 6.16719 -2.93507 0
M  V30 8425 O 797.93 6.97961 -3.98881 0
M  V30 8426 H 797.662 0.675862 -0.0136516 0
M  V30 8427 H 800.216 1.9356 -0.687298 0
M  V30 8428 H 798.446 3.68408 1.17526 0
M  V30 8429 H 800.135 3.96572 0.8652 0
M  V30 8430 H 800.901 4.60043 -1.53575 0
M  V30 8431 H 796.78 4.5996 -0.309541 0
M  V30 8432 H 800.324 6.07392 -3.43104 0
M  V30 8433 H 796.221 6.06983 -2.19639 0
M  V30 8434 H 796.989 7.16253 -3.96137 0
M  V30 8435 N 799.652 0.226554 1.55963 0
M  V30 8436 C 800.9 -0.402991 1.98041 0
M  V30 8437 C 801.221 -1.59938 1.11557 0
M  V30 8438 O 800.491 -1.9494 0.193719 0
M  V30 8439 H 799.071 -0.15188 0.731397 0
M  V30 8440 H 801.733 0.320613 1.92245 0
M  V30 8441 H 800.829 -0.725937 3.0354 0
M  V30 8442 N 801.13 -1.57531 -0.0467866 0
M  V30 8443 C 802.378 -1.88078 -0.739656 0
M  V30 8444 C 802.699 -0.821936 -1.76831 0
M  V30 8445 O 801.969 0.146582 -1.95351 0
M  V30 8446 H 800.549 -0.694075 -0.276169 0
M  V30 8447 H 803.211 -1.94893 -0.0169391 0
M  V30 8448 H 802.307 -2.86396 -1.24031 0
M  V30 8449 N 802.608 0.318715 -1.54344 0
M  V30 8450 C 803.571 1.37545 -1.83342 0
M  V30 8451 C 804.571 1.445 -0.705444 0
M  V30 8452 O 805.761 1.44443 -0.973752 0
M  V30 8453 C 802.893 2.76225 -1.99781 0
M  V30 8454 H 804.086 1.13084 -2.77762 0
M  V30 8455 H 801.639 0.554457 -1.46135 0
M  V30 8456 H 802.374 3.05934 -1.07588 0
M  V30 8457 H 802.159 2.7257 -2.81865 0
M  V30 8458 H 803.649 3.52664 -2.23647 0
M  V30 8459 N 804.086 1.46499 0.581025 0
M  V30 8460 C 805.332 1.52121 1.34116 0
M  V30 8461 C 805.665 0.173031 1.93428 0
M  V30 8462 O 804.94 -0.815729 1.76568 0
M  V30 8463 C 805.223 2.62108 2.46924 0
M  V30 8464 C 805.076 4.06462 1.92636 0
M  V30 8465 C 806.395 2.68167 3.48962 0
M  V30 8466 H 803.514 0.5538 0.486287 0
M  V30 8467 H 806.156 1.78443 0.652538 0
M  V30 8468 H 804.306 2.39794 3.05665 0
M  V30 8469 H 805.978 4.40068 1.3834 0
M  V30 8470 H 804.221 4.15862 1.23455 0
M  V30 8471 H 804.892 4.79152 2.74076 0
M  V30 8472 H 807.368 2.8823 3.00104 0
M  V30 8473 H 806.244 3.46942 4.2535 0
M  V30 8474 H 806.505 1.74284 4.06297 0
M  V30 8475 N 805.565 -0.825799 1.34232 0
M  V30 8476 C 806.79 -1.61883 1.29648 0
M  V30 8477 C 807.215 -1.87669 -0.127295 0
M  V30 8478 O 806.573 -1.45016 -1.08813 0
M  V30 8479 C 806.621 -2.93846 2.09014 0
M  V30 8480 O 805.725 -3.85778 1.4577 0
M  V30 8481 H 805.066 -0.492454 0.445405 0
M  V30 8482 H 807.596 -1.02641 1.76992 0
M  V30 8483 H 807.606 -3.43435 2.20264 0
M  V30 8484 H 806.281 -2.74401 3.12533 0
M  V30 8485 H 804.858 -3.4429 1.43245 0
M  V30 8486 N 807.043 -1.17915 -1.04565 0
M  V30 8487 C 808.006 -0.903787 -2.10628 0
M  V30 8488 C 809.006 0.10873 -1.60432 0
M  V30 8489 O 810.196 -0.124152 -1.73757 0
M  V30 8490 C 807.328 -0.355017 -3.39046 0
M  V30 8491 H 808.521 -1.84425 -2.3649 0
M  V30 8492 H 806.074 -0.990477 -1.2091 0
M  V30 8493 H 806.809 0.592297 -3.18845 0
M  V30 8494 H 806.594 -1.08484 -3.76794 0
M  V30 8495 H 808.084 -0.180891 -4.17208 0
M  V30 8496 N 808.521 1.23394 -0.980386 0
M  V30 8497 C 809.932 1.73631 -0.686239 0
M  V30 8498 C 810.283 1.79259 0.797541 0
M  V30 8499 O 809.408 1.43046 1.62379 0
M  V30 8500 C 810.003 3.15332 -1.239 0
M  V30 8501 C 808.562 3.63024 -0.994494 0
M  V30 8502 C 807.709 2.41279 -1.36673 0
M  V30 8503 H 810.66 1.08918 -1.15423 0
M  V30 8504 H 810.681 3.75556 -0.611414 0
M  V30 8505 H 810.193 3.11204 -2.31892 0
M  V30 8506 H 808.294 3.72535 0.0693492 0
M  V30 8507 H 808.407 4.49825 -1.64906 0
M  V30 8508 H 806.771 2.42295 -0.785195 0
M  V30 8509 H 807.554 2.39822 -2.45642 0
M  V30 8510 N 809.999 0.752036 1.385 0
M  V30 8511 C 811.245 0.307958 2.00448 0
M  V30 8512 C 811.578 -1.10702 1.59558 0
M  V30 8513 O 810.853 -1.75788 0.832391 0
M  V30 8514 C 811.136 0.429092 3.57534 0
M  V30 8515 C 810.989 1.88507 4.08393 0
M  V30 8516 C 812.308 -0.178442 4.39738 0
M  V30 8517 H 809.427 0.113373 0.728228 0
M  V30 8518 H 812.069 0.951389 1.64465 0
M  V30 8519 H 810.219 -0.118695 3.88319 0
M  V30 8520 H 811.891 2.49104 3.88259 0
M  V30 8521 H 810.134 2.40066 3.61318 0
M  V30 8522 H 810.805 1.92099 5.17496 0
M  V30 8523 H 813.281 0.28872 4.15097 0
M  V30 8524 H 812.157 -0.0634349 5.48863 0
M  V30 8525 H 812.418 -1.26655 4.23569 0
M  V30 8526 N 811.477 -1.49425 0.500989 0
M  V30 8527 C 812.724 -2.02453 -0.0435355 0
M  V30 8528 C 813.052 -1.38067 -1.36995 0
M  V30 8529 O 812.307 -0.505557 -1.89057 0
M  V30 8530 C 812.606 -3.56562 -0.24463 0
M  V30 8531 C 812.272 -4.39585 1.00379 0
M  V30 8532 C 810.934 -4.61992 1.346 0
M  V30 8533 C 813.286 -4.87881 1.83361 0
M  V30 8534 C 810.614 -5.2994 2.51755 0
M  V30 8535 C 812.966 -5.57119 2.99669 0
M  V30 8536 C 811.63 -5.77771 3.3427 0
M  V30 8537 H 810.9 -0.740829 -0.0159308 0
M  V30 8538 H 813.547 -1.79725 0.661143 0
M  V30 8539 H 811.852 -3.77969 -1.03183 0
M  V30 8540 H 813.549 -3.95185 -0.6804 0
M  V30 8541 H 810.139 -4.22385 0.727225 0
M  V30 8542 H 814.323 -4.70398 1.58237 0
M  V30 8543 H 809.579 -5.44133 2.788 0
M  V30 8544 H 813.753 -5.93516 3.64296 0
M  V30 8545 H 811.38 -6.30197 4.25154 0
M  V30 8546 N 812.955 -0.234822 -1.55841 0
M  V30 8547 C 814.203 0.392483 -1.98252 0
M  V30 8548 C 814.524 1.59344 -1.12404 0
M  V30 8549 O 813.794 1.94834 -0.204055 0
M  V30 8550 H 812.374 0.147999 -0.732192 0
M  V30 8551 H 815.036 -0.330804 -1.92072 0
M  V30 8552 H 814.132 0.709829 -3.03921 0
M  V30 8553 N 814.433 1.57553 0.0384317 0
M  V30 8554 C 815.396 2.04927 1.02653 0
M  V30 8555 C 816.396 0.951768 1.29607 0
M  V30 8556 O 817.586 1.21568 1.24768 0
M  V30 8557 C 814.718 2.45828 2.36181 0
M  V30 8558 H 815.911 2.93474 0.617508 0
M  V30 8559 H 813.464 1.53679 0.285031 0
M  V30 8560 H 814.199 1.60408 2.8185 0
M  V30 8561 H 813.984 3.25945 2.1795 0
M  V30 8562 H 815.474 2.82939 3.0714 0
M  V30 8563 N 815.911 -0.310526 1.54511 0
M  V30 8564 C 817.16 -1.0445 1.72549 0
M  V30 8565 C 817.473 -1.88748 0.513172 0
M  V30 8566 O 818.679 -2.65338 0.575165 0
M  V30 8567 C 817.135 -1.90665 3.05246 0
M  V30 8568 C 816.743 -1.11415 4.33925 0
M  V30 8569 C 818.487 -2.63719 3.32645 0
M  V30 8570 C 816.394 -1.96852 5.57677 0
M  V30 8571 H 815.324 -0.393676 0.643067 0
M  V30 8572 H 817.975 -0.302003 1.80998 0
M  V30 8573 H 816.357 -2.68864 2.90737 0
M  V30 8574 H 817.531 -0.378956 4.59239 0
M  V30 8575 H 815.846 -0.499853 4.13389 0
M  V30 8576 H 818.443 -3.27974 4.223 0
M  V30 8577 H 818.786 -3.32047 2.51098 0
M  V30 8578 H 819.319 -1.92574 3.48081 0
M  V30 8579 H 816.058 -1.33009 6.41864 0
M  V30 8580 H 815.578 -2.68069 5.36562 0
M  V30 8581 H 817.257 -2.55127 5.94575 0
M  V30 8582 N 817.389 -1.46805 -0.573248 0
M  V30 8583 C 818.322 -1.52608 -1.69665 0
M  V30 8584 C 819.3 -0.379426 -1.58111 0
M  V30 8585 O 820.484 -0.584938 -1.79195 0
M  V30 8586 C 817.611 -1.41355 -3.07793 0
M  V30 8587 C 816.657 -2.60321 -3.37839 0
M  V30 8588 S 817.49 -4.22622 -3.28863 0
M  V30 8589 C 818.646 -4.13894 -4.69513 0
M  V30 8590 H 818.879 -2.47653 -1.64485 0
M  V30 8591 H 816.412 -1.34806 -0.752769 0
M  V30 8592 H 818.37 -1.35549 -3.87475 0
M  V30 8593 H 817.031 -0.477213 -3.10454 0
M  V30 8594 H 816.224 -2.48466 -4.38498 0
M  V30 8595 H 815.826 -2.63165 -2.65745 0
M  V30 8596 H 818.118 -3.81158 -5.60111 0
M  V30 8597 H 819.061 -5.14584 -4.86425 0
M  V30 8598 H 819.469 -3.44998 -4.46807 0
M  V30 8599 N 818.867 0.818669 -1.34668 0
M  V30 8600 C 820.115 1.57201 -1.27013 0
M  V30 8601 C 820.436 1.94354 0.158599 0
M  V30 8602 O 819.706 1.62626 1.09223 0
M  V30 8603 H 818.286 0.582919 -0.467135 0
M  V30 8604 H 820.948 0.977234 -1.6863 0
M  V30 8605 H 820.044 2.49291 -1.87778 0
M  V30 8606 N 820.346 1.18468 1.03938 0
M  V30 8607 C 821.594 0.978895 1.76811 0
M  V30 8608 C 821.915 -0.49257 1.88676 0
M  V30 8609 O 821.185 -1.3572 1.41269 0
M  V30 8610 H 819.765 0.359201 0.654968 0
M  V30 8611 H 822.427 1.49173 1.25433 0
M  V30 8612 H 821.523 1.418 2.78027 0
M  V30 8613 N 821.824 -1.22873 0.986916 0
M  V30 8614 C 823.07 -1.91746 0.660401 0
M  V30 8615 C 823.403 -1.76738 -0.804812 0
M  V30 8616 O 822.678 -1.13246 -1.58131 0
M  V30 8617 C 822.961 -3.44156 1.05966 0
M  V30 8618 C 822.814 -3.68242 2.58298 0
M  V30 8619 C 824.133 -4.35874 0.60842 0
M  V30 8620 H 821.252 -0.696347 0.241391 0
M  V30 8621 H 823.894 -1.44867 1.22937 0
M  V30 8622 H 822.044 -3.84213 0.575534 0
M  V30 8623 H 823.716 -3.37626 3.14335 0
M  V30 8624 H 821.959 -3.12728 3.00638 0
M  V30 8625 H 822.63 -4.74956 2.81285 0
M  V30 8626 H 825.106 -4.03299 1.02417 0
M  V30 8627 H 823.982 -5.41201 0.916142 0
M  V30 8628 H 824.243 -4.39364 -0.491086 0
M  V30 8629 N 823.302 -0.75937 -1.38099 0
M  V30 8630 C 824.232 -0.151077 -2.33011 0
M  V30 8631 C 825.213 0.697099 -1.5516 0
M  V30 8632 O 826.398 0.637101 -1.83452 0
M  V30 8633 C 823.528 0.738423 -3.39359 0
M  V30 8634 C 822.482 -0.0074741 -4.27999 0
M  V30 8635 C 821.808 1.00066 -5.25253 0
M  V30 8636 C 823.108 -1.17926 -5.08813 0
M  V30 8637 H 824.802 -0.943933 -2.84131 0
M  V30 8638 H 822.348 -0.455362 -1.36611 0
M  V30 8639 H 824.301 1.17369 -4.04725 0
M  V30 8640 H 823.025 1.56366 -2.86735 0
M  V30 8641 H 821.684 -0.423379 -3.64147 0
M  V30 8642 H 821.332 1.82012 -4.68914 0
M  V30 8643 H 821.032 0.506199 -5.85416 0
M  V30 8644 H 822.556 1.43512 -5.93495 0
M  V30 8645 H 823.97 -0.821262 -5.67387 0
M  V30 8646 H 822.367 -1.60497 -5.78239 0
M  V30 8647 H 823.437 -1.98938 -4.42212 0
M  V30 8648 N 824.78 1.49157 -0.508906 0
M  V30 8649 C 826.196 1.58741 -0.165372 0
M  V30 8650 C 826.396 1.5133 1.33047 0
M  V30 8651 O 825.452 1.39135 2.10707 0
M  V30 8652 C 826.765 2.91217 -0.749194 0
M  V30 8653 C 828.313 3.047 -0.716015 0
M  V30 8654 C 828.788 4.39807 -1.27804 0
M  V30 8655 N 830.279 4.46319 -1.23908 0
M  V30 8656 C 831.014 5.49325 -1.64406 0
M  V30 8657 N 830.51 6.59395 -2.12534 0
M  V30 8658 N 832.303 5.40084 -1.55773 0
M  V30 8659 H 824.454 1.52217 -1.48134 0
M  V30 8660 H 826.717 0.721514 -0.614915 0
M  V30 8661 H 826.423 3.02233 -1.79856 0
M  V30 8662 H 826.297 3.76592 -0.214144 0
M  V30 8663 H 828.684 2.9331 0.324535 0
M  V30 8664 H 828.765 2.2099 -1.2883 0
M  V30 8665 H 828.409 4.5195 -2.31741 0
M  V30 8666 H 828.339 5.2217 -0.681623 0
M  V30 8667 H 830.83 3.67354 -0.886537 0
M  V30 8668 H 831.143 7.34102 -2.41485 0
M  V30 8669 H 829.488 6.60414 -2.16513 0
M  V30 8670 H 832.679 4.52986 -1.17987 0
M  V30 8671 H 832.852 6.20233 -1.87657 0
M  V30 8672 N 826.258 0.243083 1.55714 0
M  V30 8673 C 827.486 -0.386971 2.03249 0
M  V30 8674 C 827.901 -1.51812 1.12243 0
M  V30 8675 O 827.258 -1.81992 0.136119 0
M  V30 8676 C 827.309 -0.898361 3.5016 0
M  V30 8677 O 827.03 0.187708 4.37698 0
M  V30 8678 C 828.531 -1.59949 4.13438 0
M  V30 8679 H 825.751 -0.0923981 0.664608 0
M  V30 8680 H 828.295 0.365832 2.01201 0
M  V30 8681 H 826.45 -1.60136 3.52754 0
M  V30 8682 H 826.864 -0.200001 5.24119 0
M  V30 8683 H 828.338 -1.90907 5.17937 0
M  V30 8684 H 828.815 -2.52014 3.59702 0
M  V30 8685 H 829.421 -0.941163 4.14756 0
M  V30 8686 N 827.736 -1.57571 -0.0300757 0
M  V30 8687 C 828.669 -2.01874 -1.06406 0
M  V30 8688 C 829.647 -0.902901 -1.35227 0
M  V30 8689 O 830.831 -1.16865 -1.47901 0
M  V30 8690 C 827.958 -2.39093 -2.39901 0
M  V30 8691 C 827.004 -3.61108 -2.26943 0
M  V30 8692 S 827.837 -5.10287 -1.62382 0
M  V30 8693 C 828.993 -5.50747 -2.97369 0
M  V30 8694 H 829.226 -2.89261 -0.686703 0
M  V30 8695 H 826.759 -1.52523 -0.240017 0
M  V30 8696 H 828.717 -2.61207 -3.16672 0
M  V30 8697 H 827.378 -1.52159 -2.74784 0
M  V30 8698 H 826.571 -3.84803 -3.25489 0
M  V30 8699 H 826.173 -3.3884 -1.58314 0
M  V30 8700 H 828.465 -5.51369 -3.93698 0
M  V30 8701 H 829.408 -6.51071 -2.78409 0
M  V30 8702 H 829.816 -4.7825 -2.99895 0
M  V30 8703 N 829.214 0.302327 -1.54673 0
M  V30 8704 C 830.162 1.39286 -1.86285 0
M  V30 8705 C 831.156 1.52553 -0.736478 0
M  V30 8706 O 832.362 1.54686 -0.92045 0
M  V30 8707 H 828.737 0.465228 -0.590819 0
M  V30 8708 H 830.708 1.09859 -2.77441 0
M  V30 8709 C 829.457 2.75155 -2.12567 0
M  V30 8710 H 828.78 2.65728 -2.98712 0
M  V30 8711 H 830.22 3.50476 -2.38627 0
M  V30 8712 C 828.679 3.23987 -0.923813 0
M  V30 8713 O 829.209 4.01443 -0.143649 0
M  V30 8714 N 827.415 2.81293 -0.72956 0
M  V30 8715 H 826.962 2.18421 -1.36565 0
M  V30 8716 H 826.92 3.14315 0.0730351 0
M  V30 8717 N 830.692 1.47107 0.565454 0
M  V30 8718 C 831.941 1.5257 1.31929 0
M  V30 8719 C 832.254 0.189092 1.94684 0
M  V30 8720 O 833.46 0.121657 2.71227 0
M  V30 8721 C 831.916 2.68914 2.39193 0
M  V30 8722 C 831.524 4.09069 1.82665 0
M  V30 8723 C 833.268 2.83663 3.1581 0
M  V30 8724 C 831.175 5.16726 2.87661 0
M  V30 8725 H 830.105 0.567869 0.496025 0
M  V30 8726 H 832.756 1.73361 0.60151 0
M  V30 8727 H 831.138 2.41486 3.13848 0
M  V30 8728 H 832.312 4.46364 1.14438 0
M  V30 8729 H 830.627 3.99135 1.1866 0
M  V30 8730 H 833.224 3.61261 3.94201 0
M  V30 8731 H 833.567 1.91804 3.69482 0
M  V30 8732 H 834.1 3.10821 2.48265 0
M  V30 8733 H 830.839 6.10433 2.38854 0
M  V30 8734 H 830.359 4.83957 3.54324 0
M  V30 8735 H 832.038 5.43319 3.51303 0
M  V30 8736 N 832.17 -0.811516 1.35101 0
M  V30 8737 C 833.08 -1.95475 1.29718 0
M  V30 8738 C 834.096 -1.72813 0.202909 0
M  V30 8739 O 835.272 -1.96725 0.431414 0
M  V30 8740 C 832.337 -3.29975 1.06385 0
M  V30 8741 C 831.398 -3.65566 2.25077 0
M  V30 8742 C 830.631 -4.93648 2.02848 0
M  V30 8743 O 830.854 -5.617 0.992442 0
M  V30 8744 O 829.788 -5.27384 2.90087 0
M  V30 8745 H 833.614 -2.02961 2.25921 0
M  V30 8746 H 831.199 -0.948583 1.15422 0
M  V30 8747 H 833.081 -4.10506 0.951999 0
M  V30 8748 H 831.756 -3.2343 0.132294 0
M  V30 8749 H 830.663 -2.85432 2.41825 0
M  V30 8750 H 831.996 -3.7681 3.16662 0
M  V30 8751 N 833.648 -1.19017 -1.03309 0
M  V30 8752 C 835.059 -0.993206 -1.5809 0
M  V30 8753 C 835.41 0.45505 -1.9085 0
M  V30 8754 O 834.535 1.33372 -1.70414 0
M  V30 8755 C 835.13 -1.79661 -2.87241 0
M  V30 8756 C 833.689 -1.64377 -3.38611 0
M  V30 8757 C 832.836 -1.78628 -2.12102 0
M  V30 8758 H 835.787 -1.3345 -0.858879 0
M  V30 8759 H 835.808 -1.29019 -3.57958 0
M  V30 8760 H 835.32 -2.85061 -2.63366 0
M  V30 8761 H 833.421 -0.615447 -3.67482 0
M  V30 8762 H 833.534 -2.44651 -4.11926 0
M  V30 8763 H 831.898 -1.21648 -2.23772 0
M  V30 8764 H 832.681 -2.8548 -1.90673 0
M  V30 8765 N 835.127 1.22348 -0.993418 0
M  V30 8766 C 836.404 1.86632 -0.585495 0
M  V30 8767 C 836.784 1.89156 0.937187 0
M  V30 8768 O 836.132 1.38247 1.81934 0
M  V30 8769 C 836.342 3.27481 -1.20652 0
M  V30 8770 C 837.69 4.03971 -1.30738 0
M  V30 8771 O 838.714 3.3675 -1.16096 0
M  V30 8772 O 837.573 5.24302 -1.54173 0
M  V30 8773 H 834.667 0.802704 -0.198984 0
M  V30 8774 H 837.213 1.30122 -1.08933 0
M  V30 8775 H 835.985 3.20281 -2.24802 0
M  V30 8776 H 835.608 3.91597 -0.688312 0
M  V30 8777 N 836.605 0.766683 1.37694 0
M  V30 8778 C 837.568 0.155849 2.2867 0
M  V30 8779 C 838.568 -0.633509 1.47795 0
M  V30 8780 O 839.758 -0.457844 1.68076 0
M  V30 8781 C 836.89 -0.786965 3.31692 0
M  V30 8782 H 838.083 0.957748 2.84196 0
M  V30 8783 H 835.636 0.534554 1.46875 0
M  V30 8784 H 836.371 -1.61406 2.8128 0
M  V30 8785 H 836.156 -0.223182 3.91464 0
M  V30 8786 H 837.646 -1.20994 3.99688 0
M  V30 8787 N 838.083 -1.48885 0.516809 0
M  V30 8788 C 839.013 -2.32241 -0.242157 0
M  V30 8789 C 839.994 -1.41258 -0.947633 0
M  V30 8790 O 841.179 -1.70156 -0.935973 0
M  V30 8791 C 838.309 -3.22151 -1.29754 0
M  V30 8792 C 837.263 -4.22053 -0.710995 0
M  V30 8793 C 836.589 -5.01007 -1.86806 0
M  V30 8794 C 837.889 -5.21388 0.30853 0
M  V30 8795 H 839.583 -2.95943 0.453651 0
M  V30 8796 H 837.129 -1.42316 0.219612 0
M  V30 8797 H 839.082 -3.79284 -1.83634 0
M  V30 8798 H 837.806 -2.56423 -2.02274 0
M  V30 8799 H 836.465 -3.66087 -0.193819 0
M  V30 8800 H 836.113 -4.31713 -2.58133 0
M  V30 8801 H 835.813 -5.68615 -1.48159 0
M  V30 8802 H 837.337 -5.60989 -2.4109 0
M  V30 8803 H 838.751 -5.73122 -0.142703 0
M  V30 8804 H 837.148 -5.96975 0.611673 0
M  V30 8805 H 838.218 -4.69329 1.21894 0
M  V30 8806 N 839.561 -0.251338 -1.55583 0
M  V30 8807 C 840.789 0.376187 -2.03451 0
M  V30 8808 C 841.204 1.51215 -1.13047 0
M  V30 8809 O 840.561 1.81917 -0.145769 0
M  V30 8810 C 840.612 0.879779 -3.50631 0
M  V30 8811 O 840.333 -0.210917 -4.37592 0
M  V30 8812 C 841.834 1.57754 -4.14281 0
M  V30 8813 H 839.054 0.0888722 -0.665089 0
M  V30 8814 H 841.598 -0.376497 -2.01004 0
M  V30 8815 H 839.753 1.58263 -3.53598 0
M  V30 8816 H 840.167 0.172203 -5.24217 0
M  V30 8817 H 841.641 1.88158 -5.18942 0
M  V30 8818 H 842.118 2.50103 -3.61034 0
M  V30 8819 H 842.724 0.919154 -4.15249 0
M  V30 8820 N 841.039 1.57585 0.0217189 0
M  V30 8821 C 842.267 1.93871 0.722619 0
M  V30 8822 C 842.682 0.851706 1.68498 0
M  V30 8823 O 842.039 -0.17127 1.81695 0
M  V30 8824 C 842.09 3.30114 1.47333 0
M  V30 8825 O 841.811 4.34639 0.549597 0
M  V30 8826 C 843.312 3.80727 2.27072 0
M  V30 8827 H 840.532 0.639671 0.202637 0
M  V30 8828 H 843.076 2.04487 -0.0229414 0
M  V30 8829 H 841.231 3.20872 2.17071 0
M  V30 8830 H 841.645 5.13326 1.07686 0
M  V30 8831 H 843.119 4.78547 2.75131 0
M  V30 8832 H 843.596 3.12301 3.08812 0
M  V30 8833 H 844.202 3.93075 1.62395 0
M  V30 8834 N 842.517 -0.29412 1.54831 0
M  V30 8835 C 843.765 -1.02643 1.74094 0
M  V30 8836 C 844.086 -1.87563 0.533402 0
M  V30 8837 O 843.356 -1.9061 -0.452192 0
M  V30 8838 H 841.936 -0.381959 0.641963 0
M  V30 8839 H 844.598 -0.323444 1.92197 0
M  V30 8840 H 843.694 -1.67558 2.63307 0
M  V30 8841 N 843.995 -1.47404 -0.557645 0
M  V30 8842 C 845.272 -1.44488 -1.31843 0
M  V30 8843 C 845.652 -0.1416 -2.10625 0
M  V30 8844 O 845 0.876908 -2.11004 0
M  V30 8845 C 845.21 -2.69016 -2.22331 0
M  V30 8846 C 846.558 -3.16212 -2.83364 0
M  V30 8847 O 847.582 -2.69741 -2.32634 0
M  V30 8848 O 846.441 -3.96999 -3.75571 0
M  V30 8849 H 843.535 -0.57578 -0.593639 0
M  V30 8850 H 846.081 -1.59605 -0.576584 0
M  V30 8851 H 844.853 -3.55406 -1.63715 0
M  V30 8852 H 844.476 -2.56484 -3.03812 0
M  V30 8853 N 845.473 0.80434 -1.35529 0
M  V30 8854 C 846.42 1.91629 -1.28635 0
M  V30 8855 C 847.39 1.65348 -0.157862 0
M  V30 8856 O 848.575 1.87711 -0.341934 0
M  V30 8857 C 845.715 3.28207 -1.0665 0
M  V30 8858 C 844.828 3.66659 -2.28441 0
M  V30 8859 C 843.963 4.92279 -1.99588 0
M  V30 8860 C 843.002 5.23365 -3.1742 0
M  V30 8861 N 842.139 6.40165 -2.88328 0
M  V30 8862 H 846.979 1.96858 -2.23721 0
M  V30 8863 H 844.516 0.962871 -1.11208 0
M  V30 8864 H 846.474 4.06945 -0.919343 0
M  V30 8865 H 845.104 3.22441 -0.152253 0
M  V30 8866 H 844.156 2.83164 -2.54013 0
M  V30 8867 H 845.468 3.8559 -3.1642 0
M  V30 8868 H 844.622 5.78847 -1.81715 0
M  V30 8869 H 843.361 4.75387 -1.08896 0
M  V30 8870 H 842.366 4.35285 -3.35867 0
M  V30 8871 H 843.591 5.42185 -4.08916 0
M  V30 8872 H 841.537 6.24694 -2.00233 0
M  V30 8873 H 841.454 6.59357 -3.69843 0
M  V30 8874 H 842.722 7.29755 -2.74002 0
M  V30 8875 N 846.951 1.19563 1.02676 0
M  V30 8876 C 847.899 0.931942 2.13114 0
M  V30 8877 C 848.893 -0.113007 1.69023 0
M  V30 8878 O 850.099 0.0364298 1.79963 0
M  V30 8879 H 846.474 0.283981 0.696318 0
M  V30 8880 H 848.445 1.86991 2.32545 0
M  V30 8881 C 847.194 0.489461 3.44238 0
M  V30 8882 H 846.517 1.28508 3.78584 0
M  V30 8883 H 847.957 0.34408 4.22602 0
M  V30 8884 C 846.416 -0.796761 3.27343 0
M  V30 8885 O 846.946 -1.85767 3.56165 0
M  V30 8886 N 845.152 -0.754824 2.80626 0
M  V30 8887 H 844.699 0.108778 2.5737 0
M  V30 8888 H 844.657 -1.6158 2.69702 0
M  V30 8889 N 848.429 -1.21819 0.999893 0
M  V30 8890 C 849.339 -2.27691 0.565159 0
M  V30 8891 C 850.355 -1.69587 -0.389398 0
M  V30 8892 O 851.531 -1.99786 -0.254499 0
M  V30 8893 C 848.596 -3.46537 -0.106432 0
M  V30 8894 C 847.657 -4.19932 0.891964 0
M  V30 8895 C 846.89 -5.33103 0.252327 0
M  V30 8896 O 847.113 -5.62398 -0.952103 0
M  V30 8897 O 846.047 -5.94184 0.960698 0
M  V30 8898 H 849.873 -2.67059 1.44613 0
M  V30 8899 H 847.458 -1.28119 0.768499 0
M  V30 8900 H 849.34 -4.18631 -0.482301 0
M  V30 8901 H 848.015 -3.09079 -0.961865 0
M  V30 8902 H 846.922 -3.5008 1.3189 0
M  V30 8903 H 848.255 -4.61287 1.71682 0
M  V30 8904 N 849.908 -0.773975 -1.37286 0
M  V30 8905 C 851.155 -0.339306 -1.99637 0
M  V30 8906 C 851.483 1.08478 -1.61439 0
M  V30 8907 O 850.738 1.7612 -0.853252 0
M  V30 8908 C 851.037 -0.432651 -3.54772 0
M  V30 8909 C 850.703 -1.81531 -4.12744 0
M  V30 8910 C 849.365 -2.19366 -4.2829 0
M  V30 8911 C 851.717 -2.72137 -4.44512 0
M  V30 8912 C 849.045 -3.47239 -4.72908 0
M  V30 8913 C 851.397 -3.99421 -4.90556 0
M  V30 8914 C 850.061 -4.37298 -5.04308 0
M  V30 8915 H 849.331 -0.124161 -0.730524 0
M  V30 8916 H 851.978 -0.988432 -1.64019 0
M  V30 8917 H 850.283 0.30001 -3.9065 0
M  V30 8918 H 851.98 -0.0776 -4.00925 0
M  V30 8919 H 848.57 -1.51126 -4.01072 0
M  V30 8920 H 852.754 -2.44165 -4.32084 0
M  V30 8921 H 848.01 -3.76477 -4.81742 0
M  V30 8922 H 852.184 -4.69756 -5.14104 0
M  V30 8923 H 849.811 -5.36442 -5.38641 0
M  V30 8924 N 851.386 1.48609 -0.524698 0
M  V30 8925 C 852.632 2.02797 0.0113382 0
M  V30 8926 C 852.965 1.40147 1.34433 0
M  V30 8927 O 852.24 0.545368 1.86698 0
M  V30 8928 C 852.523 3.59832 0.138931 0
M  V30 8929 C 852.376 4.32971 -1.21886 0
M  V30 8930 C 853.695 4.3145 0.868265 0
M  V30 8931 H 850.814 0.736995 0.00264645 0
M  V30 8932 H 853.456 1.77388 -0.680704 0
M  V30 8933 H 851.606 3.81612 0.72834 0
M  V30 8934 H 853.278 4.22624 -1.84897 0
M  V30 8935 H 851.521 3.94597 -1.80211 0
M  V30 8936 H 852.192 5.41279 -1.08263 0
M  V30 8937 H 854.668 4.14468 0.368145 0
M  V30 8938 H 853.544 5.41025 0.926428 0
M  V30 8939 H 853.805 3.98358 1.91737 0
M  V30 8940 N 852.864 0.259585 1.55447 0
M  V30 8941 C 854.113 -0.362163 1.98422 0
M  V30 8942 C 854.426 -1.58135 1.1512 0
M  V30 8943 O 855.632 -2.27506 1.48166 0
M  V30 8944 C 854.088 -0.695722 3.53111 0
M  V30 8945 C 853.696 0.502784 4.4517 0
M  V30 8946 C 855.44 -1.28096 4.04712 0
M  V30 8947 C 853.347 0.144674 5.91223 0
M  V30 8948 H 852.277 -0.139092 0.74106 0
M  V30 8949 H 854.928 0.361798 1.79898 0
M  V30 8950 H 853.31 -1.47816 3.67378 0
M  V30 8951 H 854.484 1.27994 4.42667 0
M  V30 8952 H 852.799 1.0038 4.0412 0
M  V30 8953 H 855.396 -1.56243 5.11363 0
M  V30 8954 H 855.739 -2.20969 3.52815 0
M  V30 8955 H 856.272 -0.561146 3.93822 0
M  V30 8956 H 853.011 1.04087 6.47183 0
M  V30 8957 H 852.531 -0.596023 5.96831 0
M  V30 8958 H 854.21 -0.268651 6.46442 0
M  V30 8959 N 854.342 -1.57594 -0.0133615 0
M  V30 8960 C 855.29 -2.08682 -1.02736 0
M  V30 8961 C 856.284 -1.00391 -1.36448 0
M  V30 8962 O 857.49 -1.18868 -1.35168 0
M  V30 8963 H 853.865 -0.666158 -0.34891 0
M  V30 8964 H 855.836 -2.9289 -0.570815 0
M  V30 8965 C 854.585 -2.5945 -2.31476 0
M  V30 8966 H 853.908 -3.42401 -2.06401 0
M  V30 8967 H 855.348 -2.98888 -3.00735 0
M  V30 8968 C 853.807 -1.50266 -3.01533 0
M  V30 8969 O 854.337 -0.877875 -3.9199 0
M  V30 8970 N 852.543 -1.23336 -2.63129 0
M  V30 8971 H 852.09 -1.74327 -1.89652 0
M  V30 8972 H 852.048 -0.504987 -3.10318 0
M  V30 8973 N 855.82 0.285905 -1.54985 0
M  V30 8974 C 856.752 1.37505 -1.83371 0
M  V30 8975 C 857.765 1.46138 -0.717454 0
M  V30 8976 O 858.954 1.48186 -0.995142 0
M  V30 8977 C 856.054 2.7575 -1.97016 0
M  V30 8978 C 855.227 2.89866 -3.27561 0
M  V30 8979 C 854.286 4.08704 -3.31433 0
M  V30 8980 O 853.312 4.00073 -4.04883 0
M  V30 8981 N 854.514 5.20062 -2.57907 0
M  V30 8982 H 857.279 1.13505 -2.77375 0
M  V30 8983 H 854.84 0.476006 -1.54744 0
M  V30 8984 H 856.832 3.5352 -1.96991 0
M  V30 8985 H 855.402 2.9263 -1.09938 0
M  V30 8986 H 854.622 1.99085 -3.40234 0
M  V30 8987 H 855.91 2.96219 -4.13681 0
M  V30 8988 H 855.308 5.29958 -1.97891 0
M  V30 8989 H 853.865 5.96111 -2.63619 0
M  V30 8990 N 857.298 1.47698 0.54982 0
M  V30 8991 C 858.546 1.54397 1.30407 0
M  V30 8992 C 858.867 0.211026 1.93855 0
M  V30 8993 O 858.137 -0.765701 1.80316 0
M  V30 8994 H 856.717 0.568747 0.484289 0
M  V30 8995 H 859.379 1.84042 0.641444 0
M  V30 8996 H 858.475 2.31449 2.09375 0
M  V30 8997 N 858.776 -0.797141 1.35954 0
M  V30 8998 C 859.686 -1.94088 1.31784 0
M  V30 8999 C 860.702 -1.72588 0.221227 0
M  V30 9000 O 861.878 -1.96256 0.452255 0
M  V30 9001 C 858.943 -3.28828 1.09878 0
M  V30 9002 C 858.004 -3.63158 2.28942 0
M  V30 9003 C 857.237 -4.91469 2.08072 0
M  V30 9004 O 857.46 -5.60616 1.05196 0
M  V30 9005 O 856.394 -5.24277 2.95664 0
M  V30 9006 H 860.22 -2.00554 2.28061 0
M  V30 9007 H 857.805 -0.936288 1.16422 0
M  V30 9008 H 859.687 -4.09473 0.995485 0
M  V30 9009 H 858.362 -3.23271 0.16659 0
M  V30 9010 H 857.269 -2.82851 2.44839 0
M  V30 9011 H 858.602 -3.7343 3.20641 0
M  V30 9012 N 860.254 -1.20106 -1.0204 0
M  V30 9013 C 861.502 -1.0069 -1.75231 0
M  V30 9014 C 861.823 0.462491 -1.89436 0
M  V30 9015 O 861.093 1.33455 -1.4341 0
M  V30 9016 H 859.673 -0.369576 -0.649171 0
M  V30 9017 H 862.335 -1.51149 -1.23044 0
M  V30 9018 H 861.431 -1.46205 -2.75736 0
M  V30 9019 N 861.732 1.21287 -1.00634 0
M  V30 9020 C 862.96 1.94385 -0.708678 0
M  V30 9021 C 863.375 1.7416 0.728957 0
M  V30 9022 O 862.732 1.04906 1.49335 0
M  V30 9023 C 862.783 3.46755 -1.02193 0
M  V30 9024 O 862.504 3.6631 -2.40309 0
M  V30 9025 C 864.005 4.37014 -0.743867 0
M  V30 9026 H 861.225 0.618136 -0.261052 0
M  V30 9027 H 863.769 1.54067 -1.34475 0
M  V30 9028 H 861.924 3.8499 -0.431441 0
M  V30 9029 H 862.338 4.60393 -2.51274 0
M  V30 9030 H 863.812 5.42621 -1.01321 0
M  V30 9031 H 864.289 4.38017 0.322084 0
M  V30 9032 H 864.895 4.04426 -1.31603 0
M  V30 9033 N 863.21 0.781244 1.36873 0
M  V30 9034 C 864.458 0.349198 1.9906 0
M  V30 9035 C 864.779 -1.0806 1.62321 0
M  V30 9036 O 864.049 -1.74351 0.893229 0
M  V30 9037 H 862.629 0.126126 0.736275 0
M  V30 9038 H 865.291 1.00148 1.67202 0
M  V30 9039 H 864.387 0.434451 3.09061 0
M  V30 9040 N 864.689 -1.48329 0.532571 0
M  V30 9041 C 865.937 -2.021 -0.000581206 0
M  V30 9042 C 866.258 -1.4117 -1.34522 0
M  V30 9043 O 865.528 -0.578005 -1.87179 0
M  V30 9044 H 864.108 -0.746993 -0.00320281 0
M  V30 9045 H 866.77 -1.82011 0.696991 0
M  V30 9046 H 865.866 -3.11917 -0.106991 0
M  V30 9047 N 866.167 -0.267825 -1.55308 0
M  V30 9048 C 867.583 0.0865107 -1.59365 0
M  V30 9049 C 867.783 1.55205 -1.28505 0
M  V30 9050 O 866.839 2.29978 -1.04241 0
M  V30 9051 C 868.152 -0.28155 -2.99379 0
M  V30 9052 C 869.7 -0.227565 -3.12172 0
M  V30 9053 C 870.175 -0.569959 -4.5444 0
M  V30 9054 N 871.666 -0.521238 -4.60258 0
M  V30 9055 C 872.401 -0.759061 -5.68354 0
M  V30 9056 N 871.897 -1.06112 -6.84626 0
M  V30 9057 N 873.69 -0.688351 -5.57869 0
M  V30 9058 H 865.841 -1.22332 -1.73633 0
M  V30 9059 H 868.104 -0.493703 -0.809297 0
M  V30 9060 H 867.81 -1.3005 -3.26772 0
M  V30 9061 H 867.684 0.381192 -3.75269 0
M  V30 9062 H 870.071 0.782093 -2.84548 0
M  V30 9063 H 870.152 -0.924461 -2.38511 0
M  V30 9064 H 869.796 -1.57727 -4.82788 0
M  V30 9065 H 869.726 0.148646 -5.2639 0
M  V30 9066 H 872.217 -0.297359 -3.76728 0
M  V30 9067 H 872.53 -1.22945 -7.62958 0
M  V30 9068 H 870.875 -1.09881 -6.86259 0
M  V30 9069 H 874.066 -0.452268 -4.6591 0
M  V30 9070 H 874.239 -0.877081 -6.42037 0
M  V30 9071 N 867.645 1.57599 0.00500368 0
M  V30 9072 C 868.87 1.95026 0.705663 0
M  V30 9073 C 869.295 0.869643 1.6679 0
M  V30 9074 O 868.653 -0.172659 1.80476 0
M  V30 9075 C 868.701 3.31545 1.4181 0
M  V30 9076 O 867.805 3.25495 2.53232 0
M  V30 9077 H 867.146 0.636808 0.188074 0
M  V30 9078 H 869.676 2.04547 -0.046696 0
M  V30 9079 H 869.686 3.66996 1.78265 0
M  V30 9080 H 868.361 4.09751 0.712543 0
M  V30 9081 H 866.938 3.01714 2.19142 0
M  V30 9082 O 869.162 -0.147371 1.60826 0
M  V30 9083 H 869.853 -0.78165 1.77228 0
M  V30 END ATOM
M  V30 BEGIN BOND
M  V30 END BOND
M  V30 END CTAB
M  END
$$$$
