drugbank_target|P39086 Glutamate receptor ionotropic, kainate 1 (DB00142; DB00237; DB06354)
 OpenBabel12092119293D

  0  0  0     0  0            999 V3000
M  V30 BEGIN CTAB
M  V30 COUNTS 14636 14805 0 0 0
M  V30 BEGIN ATOM
M  V30 1 H -0.908 1.98254 -0.117106 0
M  V30 2 N 0 1.576 0 0
M  V30 3 C 0.933 2.03868 1.02534 0
M  V30 4 C 1.911 0.928543 1.3348 0
M  V30 5 O 3.095 1.19667 1.45644 0
M  V30 6 C 0.222 2.43627 2.35294 0
M  V30 7 C -0.732 3.65373 2.2001 0
M  V30 8 S 0.101 5.13292 1.52614 0
M  V30 9 C 1.257 5.56322 2.86805 0
M  V30 10 H 1.49 2.90518 0.631377 0
M  V30 11 H -0.977 1.52953 0.210867 0
M  V30 12 H 0.981 2.67203 3.11629 0
M  V30 13 H -0.358 1.57376 2.7183 0
M  V30 14 H -1.165 3.90944 3.18086 0
M  V30 15 H -1.563 3.418 1.51819 0
M  V30 16 H 0.729 5.58782 3.83104 0
M  V30 17 H 1.672 6.56266 2.65933 0
M  V30 18 H 2.08 4.83886 2.90714 0
M  V30 19 N 1.4781 -0.272755 1.55222 0
M  V30 20 C 2.3881 -1.35918 1.91216 0
M  V30 21 C 3.4041 -1.54026 0.809436 0
M  V30 22 O 4.5801 -1.68148 1.10852 0
M  V30 23 C 1.6451 -2.69834 2.17693 0
M  V30 24 C 0.7061 -2.6047 3.41253 0
M  V30 25 C -0.0609 -3.88 3.66458 0
M  V30 26 O 0.1621 -4.88693 2.94169 0
M  V30 27 O -0.9039 -3.88189 4.59992 0
M  V30 28 H 2.9221 -1.0839 2.83699 0
M  V30 29 H 0.5071 -0.471301 1.41771 0
M  V30 30 H 2.3891 -3.49017 2.36147 0
M  V30 31 H 1.0641 -2.97148 1.28392 0
M  V30 32 H -0.0289 -1.79663 3.28134 0
M  V30 33 H 1.3041 -2.38106 4.30774 0
M  V30 34 N 2.9562 -1.48159 -0.537278 0
M  V30 35 C 3.9062 -1.5854 -1.63857 0
M  V30 36 C 4.8902 -0.442969 -1.54682 0
M  V30 37 O 6.0822 -0.69401 -1.62827 0
M  V30 38 C 3.2112 -1.62144 -3.02596 0
M  V30 39 C 2.2972 -2.81841 -3.16901 0
M  V30 40 N 2.6882 -4.06337 -3.01204 0
M  V30 41 C 0.9862 -2.79021 -3.47942 0
M  V30 42 C 1.6872 -4.86606 -3.18731 0
M  V30 43 N 0.6632 -4.19288 -3.45974 0
M  V30 44 H 4.4652 -2.5255 -1.50319 0
M  V30 45 H 1.9792 -1.4443 -0.742555 0
M  V30 46 H 3.9762 -1.67674 -3.81695 0
M  V30 47 H 2.6362 -0.69245 -3.17231 0
M  V30 48 H 3.6472 -4.36888 -2.78117 0
M  V30 49 H 0.3242 -1.95347 -3.6898 0
M  V30 50 H 1.7142 -5.95385 -3.11394 0
M  V30 51 N 4.4343 0.785586 -1.36625 0
M  V30 52 C 5.6823 1.54057 -1.30808 0
M  V30 53 C 6.0033 1.94683 0.111157 0
M  V30 54 O 5.2733 1.65241 1.05224 0
M  V30 55 H 3.8533 0.571354 -0.481211 0
M  V30 56 H 6.5153 0.935821 -1.70963 0
M  V30 57 H 5.6113 2.44637 -1.93801 0
M  V30 58 N 5.9124 1.20967 1.01018 0
M  V30 59 C 7.1404 1.04956 1.78303 0
M  V30 60 C 7.5554 -0.400915 1.84494 0
M  V30 61 O 6.9124 -1.27826 1.30257 0
M  V30 62 C 6.9634 1.63403 3.22462 0
M  V30 63 O 6.6844 3.02775 3.16637 0
M  V30 64 C 8.1854 1.52432 4.16268 0
M  V30 65 H 5.4054 0.368858 0.560522 0
M  V30 66 H 7.9494 1.60193 1.27116 0
M  V30 67 H 6.1044 1.1227 3.70775 0
M  V30 68 H 6.5184 3.30626 4.07169 0
M  V30 69 H 7.9924 1.98078 5.15237 0
M  V30 70 H 8.4694 0.477875 4.36592 0
M  V30 71 H 9.0754 2.02787 3.73841 0
M  V30 72 N 7.3905 -1.2043 1.01659 0
M  V30 73 C 8.3205 -2.25466 0.607226 0
M  V30 74 C 9.3015 -1.65853 -0.377716 0
M  V30 75 O 10.4865 -1.92409 -0.263149 0
M  V30 76 C 7.6165 -3.47256 -0.0552949 0
M  V30 77 C 6.5705 -4.19462 0.850632 0
M  V30 78 C 5.8965 -5.34673 0.0538859 0
M  V30 79 C 7.1965 -4.75603 2.15868 0
M  V30 80 H 8.8905 -2.59962 1.48526 0
M  V30 81 H 6.4365 -1.2496 0.715605 0
M  V30 82 H 8.3895 -4.19917 -0.353233 0
M  V30 83 H 7.1135 -3.11924 -0.968045 0
M  V30 84 H 5.7725 -3.48667 1.13257 0
M  V30 85 H 5.4205 -4.95585 -0.860514 0
M  V30 86 H 5.1205 -5.83913 0.657192 0
M  V30 87 H 6.6445 -6.10138 -0.237598 0
M  V30 88 H 8.0585 -5.40083 1.92311 0
M  V30 89 H 6.4555 -5.3528 2.71284 0
M  V30 90 H 7.5255 -3.94346 2.82169 0
M  V30 91 N 8.8686 -0.792821 -1.36206 0
M  V30 92 C 9.7986 -0.207853 -2.32573 0
M  V30 93 C 10.7796 0.659055 -1.56813 0
M  V30 94 O 11.9646 0.592176 -1.84951 0
M  V30 95 C 9.0946 0.655449 -3.41059 0
M  V30 96 C 8.0486 -0.111842 -4.27854 0
M  V30 97 C 7.3746 0.872274 -5.27537 0
M  V30 98 C 8.6746 -1.30299 -5.05786 0
M  V30 99 H 10.3686 -1.01294 -2.81744 0
M  V30 100 H 7.9146 -0.48854 -1.3546 0
M  V30 101 H 9.8676 1.07464 -4.07467 0
M  V30 102 H 8.5916 1.49328 -2.90463 0
M  V30 103 H 7.2506 -0.512053 -3.63006 0
M  V30 104 H 6.8986 1.70523 -4.73214 0
M  V30 105 H 6.5986 0.363291 -5.86476 0
M  V30 106 H 8.1226 1.28996 -5.96818 0
M  V30 107 H 9.5366 -0.959379 -5.65216 0
M  V30 108 H 7.9336 -1.7455 -5.74154 0
M  V30 109 H 9.0036 -2.09663 -4.37229 0
M  V30 110 N 10.3467 1.47872 -0.545128 0
M  V30 111 C 11.3097 2.28337 0.198717 0
M  V30 112 C 12.3097 1.36255 0.853888 0
M  V30 113 O 13.4997 1.59003 0.711606 0
M  V30 114 C 10.6317 3.15585 1.28915 0
M  V30 115 H 11.8247 2.95567 -0.507941 0
M  V30 116 H 9.3777 1.53362 -0.301616 0
M  V30 117 H 10.1127 2.53019 2.02859 0
M  V30 118 H 9.8977 3.83337 0.824309 0
M  V30 119 H 11.3877 3.76243 1.81194 0
M  V30 120 N 11.8248 0.280983 1.55075 0
M  V30 121 C 12.7568 -0.637268 2.20163 0
M  V30 122 C 13.7698 -1.11298 1.18813 0
M  V30 123 O 14.9588 -1.03388 1.4551 0
M  V30 124 C 12.0588 -1.88199 2.81841 0
M  V30 125 C 11.2318 -1.55211 4.08936 0
M  V30 126 C 10.2908 -2.64991 4.54606 0
M  V30 127 O 9.3168 -2.30929 5.2025 0
M  V30 128 N 10.5188 -3.95161 4.25238 0
M  V30 129 H 13.2838 -0.0801694 2.99593 0
M  V30 130 H 10.8448 0.102329 1.61576 0
M  V30 131 H 12.8368 -2.60948 3.09335 0
M  V30 132 H 11.4068 -2.34799 2.06369 0
M  V30 133 H 10.6268 -0.658185 3.88666 0
M  V30 134 H 11.9148 -1.30681 4.91732 0
M  V30 135 H 11.3128 -4.25653 3.72607 0
M  V30 136 H 9.8698 -4.6427 4.5749 0
M  V30 137 N 13.3029 -1.57598 0.00835791 0
M  V30 138 C 14.7139 -1.7892 -0.53333 0
M  V30 139 C 15.0649 -0.916609 -1.73473 0
M  V30 140 O 14.1899 -0.121336 -2.1606 0
M  V30 141 C 14.7849 -3.24488 -0.974313 0
M  V30 142 C 13.3439 -3.46878 -1.46125 0
M  V30 143 C 12.4909 -2.74157 -0.416302 0
M  V30 144 H 15.4419 -1.56958 0.234495 0
M  V30 145 H 15.4629 -3.3306 -1.83988 0
M  V30 146 H 14.9749 -3.87972 -0.099718 0
M  V30 147 H 13.0759 -2.8862 -2.35646 0
M  V30 148 H 13.1889 -4.55572 -1.48295 0
M  V30 149 H 11.5529 -2.39022 -0.87981 0
M  V30 150 H 12.3359 -3.40345 0.44947 0
M  V30 151 N 14.781 0.264519 -1.55364 0
M  V30 152 C 16.029 0.993021 -1.76021 0
M  V30 153 C 16.35 1.86511 -0.569099 0
M  V30 154 O 15.62 1.91438 0.415735 0
M  V30 155 H 14.2 0.369639 -0.649135 0
M  V30 156 H 16.862 0.286707 -1.9278 0
M  V30 157 H 15.958 1.62502 -2.66457 0
M  V30 158 N 16.2591 1.48442 0.529413 0
M  V30 159 C 17.1891 1.65902 1.64313 0
M  V30 160 C 18.1701 0.507897 1.6234 0
M  V30 161 O 19.3551 0.740503 1.79528 0
M  V30 162 C 16.4851 1.69911 3.02898 0
M  V30 163 C 15.4391 2.8453 3.19729 0
M  V30 164 C 14.7651 2.73629 4.59381 0
M  V30 165 C 16.0651 4.25821 3.02447 0
M  V30 166 H 17.7591 2.5914 1.49955 0
M  V30 167 H 15.3051 1.24709 0.719982 0
M  V30 168 H 17.2581 1.80715 3.80684 0
M  V30 169 H 15.9821 0.732524 3.18279 0
M  V30 170 H 14.6411 2.73283 2.44361 0
M  V30 171 H 14.2891 1.74938 4.71599 0
M  V30 172 H 13.9891 3.50541 4.71588 0
M  V30 173 H 15.5131 2.86401 5.39265 0
M  V30 174 H 16.9271 4.37898 3.70024 0
M  V30 175 H 15.3241 5.03735 3.26146 0
M  V30 176 H 16.3941 4.42244 1.98867 0
M  V30 177 N 17.7372 -0.778329 1.37039 0
M  V30 178 C 18.9832 -1.53817 1.33086 0
M  V30 179 C 19.3382 -1.92208 -0.0860346 0
M  V30 180 O 18.6312 -1.60713 -1.04316 0
M  V30 181 C 18.8252 -2.81845 2.19768 0
M  V30 182 C 18.6542 -2.55967 3.69744 0
M  V30 183 C 17.4242 -2.50428 4.38878 0
M  V30 184 C 19.6222 -2.2441 4.62758 0
M  V30 185 N 17.6042 -2.16564 5.74433 0
M  V30 186 C 18.9752 -2.0063 5.86641 0
M  V30 187 C 21.0302 -2.1051 4.5121 0
M  V30 188 C 19.7332 -1.64354 7.00272 0
M  V30 189 C 21.7592 -1.75634 5.64718 0
M  V30 190 C 21.1212 -1.52709 6.87648 0
M  V30 191 H 17.2202 -0.563434 0.542279 0
M  V30 192 H 19.8042 -0.908617 1.72198 0
M  V30 193 H 17.9752 -3.42649 1.82883 0
M  V30 194 H 19.7072 -3.47682 2.07122 0
M  V30 195 H 16.4622 -2.66056 3.91805 0
M  V30 196 H 16.8862 -2.02348 6.46053 0
M  V30 197 H 21.5282 -2.26919 3.56746 0
M  V30 198 H 19.2462 -1.46683 7.94676 0
M  V30 199 H 22.8322 -1.65546 5.57751 0
M  V30 200 H 21.7122 -1.2612 7.73992 0
M  V30 201 N 19.2153 -1.21501 -1.00376 0
M  V30 202 C 20.4433 -1.059 -1.77744 0
M  V30 203 C 20.8583 0.391125 -1.84704 0
M  V30 204 O 20.2153 1.27133 -1.30933 0
M  V30 205 C 20.2663 -1.65111 -3.21591 0
M  V30 206 O 19.9873 -3.0445 -3.15027 0
M  V30 207 C 21.4883 -1.54637 -4.15454 0
M  V30 208 H 18.7083 -0.371825 -0.558558 0
M  V30 209 H 21.2523 -1.60865 -1.26264 0
M  V30 210 H 19.4073 -1.14235 -3.70175 0
M  V30 211 H 19.8213 -3.3278 -4.0541 0
M  V30 212 H 21.2953 -2.00808 -5.14179 0
M  V30 213 H 21.7723 -0.501022 -4.36333 0
M  V30 214 H 22.3783 -2.04767 -3.72761 0
M  V30 215 N 20.6934 1.19889 -1.02296 0
M  V30 216 C 22.1094 1.41462 -0.738954 0
M  V30 217 C 22.3094 1.89721 0.678846 0
M  V30 218 O 21.3654 2.07016 1.4457 0
M  V30 219 C 22.6784 2.43083 -1.77005 0
M  V30 220 C 24.2264 2.5684 -1.78892 0
M  V30 221 C 24.7014 3.61709 -2.80945 0
M  V30 222 N 26.1924 3.69199 -2.79725 0
M  V30 223 C 26.9274 4.50019 -3.55345 0
M  V30 224 N 26.4234 5.34592 -4.40662 0
M  V30 225 N 28.2164 4.44612 -3.43914 0
M  V30 226 H 20.3674 0.868827 -1.93817 0
M  V30 227 H 22.6304 0.44399 -0.837602 0
M  V30 228 H 22.3364 2.14636 -2.78612 0
M  V30 229 H 22.2104 3.4217 -1.58744 0
M  V30 230 H 24.5974 2.84614 -0.779674 0
M  V30 231 H 24.6784 1.57927 -2.01228 0
M  V30 232 H 24.3224 3.34678 -3.82038 0
M  V30 233 H 24.2524 4.60259 -2.5587 0
M  V30 234 H 26.7434 3.08794 -2.17842 0
M  V30 235 H 27.0564 5.93363 -4.95116 0
M  V30 236 H 25.4014 5.34073 -4.44737 0
M  V30 237 H 28.5924 3.7758 -2.76679 0
M  V30 238 H 28.7654 5.0736 -4.031 0
M  V30 239 N 22.1715 0.800033 1.35784 0
M  V30 240 C 23.4485 0.30088 1.93272 0
M  V30 241 C 23.8285 -1.20857 1.73081 0
M  V30 242 O 23.1765 -2.00502 1.09596 0
M  V30 243 C 23.3865 0.70511 3.41803 0
M  V30 244 C 24.7345 0.690871 4.18942 0
M  V30 245 O 25.7585 0.646244 3.50289 0
M  V30 246 O 24.6175 0.74332 5.41421 0
M  V30 247 H 21.7115 0.0771605 0.823393 0
M  V30 248 H 24.2575 0.88329 1.449 0
M  V30 249 H 23.0295 1.74571 3.50201 0
M  V30 250 H 22.6525 0.0971541 3.97481 0
M  V30 251 N 23.6496 -1.47581 0.552962 0
M  V30 252 C 24.8776 -2.06875 0.0320556 0
M  V30 253 C 25.2926 -1.40625 -1.25976 0
M  V30 254 O 24.6496 -0.501349 -1.75479 0
M  V30 255 C 24.7006 -3.61092 -0.17167 0
M  V30 256 O 24.4216 -4.24858 1.06899 0
M  V30 257 C 25.9226 -4.37242 -0.730344 0
M  V30 258 H 23.1426 -0.669561 0.043915 0
M  V30 259 H 25.6866 -1.89646 0.765163 0
M  V30 260 H 23.8416 -3.7785 -0.854894 0
M  V30 261 H 24.2556 -5.17334 0.864059 0
M  V30 262 H 25.7296 -5.45842 -0.822203 0
M  V30 263 H 26.2066 -4.03235 -1.74064 0
M  V30 264 H 26.8126 -4.25219 -0.0829543 0
M  V30 265 N 25.1277 -0.289203 -1.54924 0
M  V30 266 C 26.3527 0.329299 -2.04769 0
M  V30 267 C 26.7777 1.4763 -1.16564 0
M  V30 268 O 26.1357 1.80527 -0.167186 0
M  V30 269 C 26.1837 0.774438 -3.52186 0
M  V30 270 O 25.2877 1.88038 -3.67036 0
M  V30 271 H 24.6287 0.0659259 -0.660719 0
M  V30 272 H 27.1587 -0.42761 -2.00082 0
M  V30 273 H 27.1687 1.06642 -3.93816 0
M  V30 274 H 25.8437 -0.0646707 -4.1585 0
M  V30 275 H 24.4207 1.58985 -3.3731 0
M  V30 276 N 26.6058 1.57591 -0.0167156 0
M  V30 277 C 27.8518 1.92399 0.659861 0
M  V30 278 C 28.2068 0.892561 1.70444 0
M  V30 279 O 27.4998 -0.0930755 1.91374 0
M  V30 280 C 27.6938 3.3172 1.33029 0
M  V30 281 C 27.5228 4.48319 0.352174 0
M  V30 282 C 26.2928 5.05281 -0.0434883 0
M  V30 283 C 28.4908 5.12831 -0.388474 0
M  V30 284 N 26.4728 6.05399 -1.01807 0
M  V30 285 C 27.8438 6.07934 -1.2172 0
M  V30 286 C 29.8988 4.95858 -0.450513 0
M  V30 287 C 28.6018 6.87891 -2.10235 0
M  V30 288 C 30.6278 5.76413 -1.32295 0
M  V30 289 C 29.9898 6.71123 -2.13948 0
M  V30 290 H 26.0888 0.752106 0.21415 0
M  V30 291 H 28.6728 1.94532 -0.0809846 0
M  V30 292 H 26.8438 3.3043 2.04134 0
M  V30 293 H 28.5758 3.5391 1.9629 0
M  V30 294 H 25.3308 4.7246 0.328384 0
M  V30 295 H 25.7548 6.60145 -1.50123 0
M  V30 296 H 30.3968 4.22472 0.166512 0
M  V30 297 H 28.1148 7.60591 -2.72997 0
M  V30 298 H 31.7008 5.65317 -1.37508 0
M  V30 299 H 30.5808 7.3237 -2.80364 0
M  V30 300 N 28.0839 -0.256276 1.55502 0
M  V30 301 C 29.0469 -1.30047 1.88734 0
M  V30 302 C 30.0469 -1.4154 0.763086 0
M  V30 303 O 31.2369 -1.40403 1.03115 0
M  V30 304 C 28.3689 -2.67953 2.10747 0
M  V30 305 H 29.5619 -1.01802 2.82093 0
M  V30 306 H 27.1149 -0.495134 1.4825 0
M  V30 307 H 27.8499 -3.01351 1.19825 0
M  V30 308 H 27.6349 -2.60993 2.92617 0
M  V30 309 H 29.1249 -3.43368 2.37673 0
M  V30 310 N 29.562 -1.4872 -0.521534 0
M  V30 311 C 30.492 -1.66771 -1.63431 0
M  V30 312 C 31.473 -0.516499 -1.62069 0
M  V30 313 O 32.658 -0.750013 -1.79132 0
M  V30 314 C 29.788 -1.71515 -3.01993 0
M  V30 315 C 28.742 -2.86222 -3.18216 0
M  V30 316 C 28.068 -2.76061 -4.57924 0
M  V30 317 C 29.368 -4.27419 -3.00184 0
M  V30 318 H 31.062 -2.59932 -1.48579 0
M  V30 319 H 28.608 -1.25089 -0.713358 0
M  V30 320 H 30.561 -1.82731 -3.7972 0
M  V30 321 H 29.285 -0.749393 -3.17886 0
M  V30 322 H 27.944 -2.74575 -2.42908 0
M  V30 323 H 27.592 -1.77437 -4.70665 0
M  V30 324 H 27.292 -3.53037 -4.69722 0
M  V30 325 H 28.816 -2.89256 -5.37739 0
M  V30 326 H 30.23 -4.39855 -3.67697 0
M  V30 327 H 28.627 -5.05458 -3.2347 0
M  V30 328 H 29.697 -4.43293 -1.96518 0
M  V30 329 N 31.0401 0.771051 -1.3745 0
M  V30 330 C 31.9701 1.89827 -1.3597 0
M  V30 331 C 32.9511 1.68562 -0.228216 0
M  V30 332 O 34.1361 1.8941 -0.428675 0
M  V30 333 C 31.2661 3.2712 -1.16662 0
M  V30 334 C 30.2201 3.6295 -2.2683 0
M  V30 335 C 29.5461 4.98791 -1.92644 0
M  V30 336 C 30.8461 3.69627 -3.69017 0
M  V30 337 H 32.5401 1.91323 -2.30295 0
M  V30 338 H 30.0861 0.919082 -1.10855 0
M  V30 339 H 32.0391 4.05615 -1.14256 0
M  V30 340 H 30.7631 3.26059 -0.187926 0
M  V30 341 H 29.4221 2.86763 -2.28392 0
M  V30 342 H 29.0701 4.94271 -0.933021 0
M  V30 343 H 28.7701 5.23733 -2.66416 0
M  V30 344 H 30.2941 5.79685 -1.91826 0
M  V30 345 H 31.7081 4.38273 -3.69581 0
M  V30 346 H 30.1051 4.06067 -4.41848 0
M  V30 347 H 31.1751 2.70273 -4.02592 0
M  V30 348 N 32.5182 1.22032 0.997298 0
M  V30 349 C 33.7482 1.06686 1.76923 0
M  V30 350 C 34.1562 -0.385838 1.85224 0
M  V30 351 O 33.4992 -1.27929 1.31833 0
M  V30 352 C 33.5612 1.59802 3.22031 0
M  V30 353 C 33.2252 3.08362 3.37286 0
M  V30 354 C 34.2222 4.05835 3.24952 0
M  V30 355 C 31.9072 3.47727 3.6248 0
M  V30 356 C 33.9012 5.4066 3.37588 0
M  V30 357 C 31.5882 4.82701 3.74757 0
M  V30 358 C 32.5862 5.78977 3.62319 0
M  V30 359 O 32.2742 7.11502 3.74193 0
M  V30 360 H 32.0062 0.374767 0.562606 0
M  V30 361 H 34.5602 1.61991 1.26286 0
M  V30 362 H 32.7902 0.989003 3.73839 0
M  V30 363 H 34.4792 1.40184 3.80924 0
M  V30 364 H 35.2452 3.76766 3.05405 0
M  V30 365 H 31.1242 2.73317 3.7124 0
M  V30 366 H 34.6682 6.15788 3.27796 0
M  V30 367 H 30.5652 5.11453 3.9381 0
M  V30 368 H 31.3332 7.19019 3.91093 0
M  V30 369 N 33.9963 -1.19345 1.0293 0
M  V30 370 C 35.2433 -1.89038 0.726008 0
M  V30 371 C 35.5713 -1.79649 -0.745427 0
M  V30 372 O 34.8263 -1.18354 -1.55855 0
M  V30 373 C 35.1253 -3.39292 1.12319 0
M  V30 374 C 34.7913 -3.68885 2.59297 0
M  V30 375 C 33.4533 -3.76671 2.99453 0
M  V30 376 C 35.8053 -3.82178 3.54386 0
M  V30 377 C 33.1333 -3.9522 4.33611 0
M  V30 378 C 35.4853 -4.0224 4.88248 0
M  V30 379 C 34.1493 -4.08259 5.28092 0
M  V30 380 H 33.4193 -0.691739 0.265665 0
M  V30 381 H 36.0663 -1.41328 1.29223 0
M  V30 382 H 34.3713 -3.88903 0.475584 0
M  V30 383 H 36.0683 -3.91536 0.866037 0
M  V30 384 H 32.6583 -3.63433 2.27189 0
M  V30 385 H 36.8423 -3.75505 3.24514 0
M  V30 386 H 32.0983 -3.98119 4.64016 0
M  V30 387 H 36.2723 -4.11468 5.61843 0
M  V30 388 H 33.8993 -4.22384 6.32057 0
M  V30 389 N 35.4744 -0.807222 -1.35358 0
M  V30 390 C 36.4044 -0.232509 -2.3234 0
M  V30 391 C 37.3854 0.642386 -1.57504 0
M  V30 392 O 38.5704 0.572526 -1.85569 0
M  V30 393 C 35.7004 0.619238 -3.41735 0
M  V30 394 C 34.6544 -0.157215 -4.27711 0
M  V30 395 C 33.9804 0.816273 -5.28433 0
M  V30 396 C 35.2804 -1.35656 -5.04376 0
M  V30 397 H 36.9744 -1.04276 -2.80654 0
M  V30 398 H 34.5204 -0.50288 -1.34934 0
M  V30 399 H 36.4734 1.03137 -4.08584 0
M  V30 400 H 35.1974 1.46239 -2.92031 0
M  V30 401 H 33.8564 -0.550525 -3.62443 0
M  V30 402 H 33.5044 1.65494 -4.74996 0
M  V30 403 H 33.2044 0.301067 -5.86828 0
M  V30 404 H 34.7284 1.22659 -5.98153 0
M  V30 405 H 36.1424 -1.01927 -5.64166 0
M  V30 406 H 34.5394 -1.8063 -5.7227 0
M  V30 407 H 35.6094 -2.14288 -4.34981 0
M  V30 408 N 36.9525 1.47285 -0.560781 0
M  V30 409 C 38.1925 2.0436 -0.0404627 0
M  V30 410 C 38.5565 1.42534 1.28639 0
M  V30 411 O 39.7575 1.90677 1.89462 0
M  V30 412 C 38.0285 3.57369 0.0471856 0
M  V30 413 S 39.5875 4.3579 0.513109 0
M  V30 414 H 36.4055 0.710492 -0.0268674 0
M  V30 415 H 39.0075 1.80611 -0.748323 0
M  V30 416 H 37.7115 3.9989 -0.922817 0
M  V30 417 H 37.2425 3.8562 0.778491 0
M  V30 418 H 39.2575 4.63476 1.77212 0
M  V30 419 N 38.4306 0.297415 1.54768 0
M  V30 420 C 39.6606 -0.315165 2.04182 0
M  V30 421 C 40.0686 -1.4834 1.17439 0
M  V30 422 O 39.4116 -1.82695 0.191891 0
M  V30 423 C 39.4736 -0.837583 3.49607 0
M  V30 424 C 39.1376 0.204912 4.5654 0
M  V30 425 C 40.1346 1.03214 5.09552 0
M  V30 426 C 37.8196 0.345578 5.0111 0
M  V30 427 C 39.8136 1.986 6.05671 0
M  V30 428 C 37.5006 1.30289 5.97049 0
M  V30 429 C 38.4986 2.12159 6.49213 0
M  V30 430 O 38.1866 3.06268 7.43273 0
M  V30 431 H 37.9186 -0.0729646 0.672051 0
M  V30 432 H 40.4726 0.433907 2.00765 0
M  V30 433 H 38.7026 -1.63712 3.50336 0
M  V30 434 H 40.3916 -1.36566 3.82236 0
M  V30 435 H 41.1576 0.934312 4.75916 0
M  V30 436 H 37.0366 -0.28171 4.60138 0
M  V30 437 H 40.5806 2.62542 6.46311 0
M  V30 438 H 36.4776 1.40145 6.30103 0
M  V30 439 H 37.2456 3.01205 7.61064 0
M  V30 440 N 39.9087 -1.5758 0.0250728 0
M  V30 441 C 41.1577 -1.90811 -0.653767 0
M  V30 442 C 41.4707 -0.90273 -1.73523 0
M  V30 443 O 42.6767 -1.12614 -2.47043 0
M  V30 444 C 41.1327 -3.38804 -1.21409 0
M  V30 445 C 40.7407 -4.47692 -0.166126 0
M  V30 446 C 42.4847 -3.81108 -1.86967 0
M  V30 447 C 40.3917 -5.86779 -0.737856 0
M  V30 448 H 39.3217 -0.712063 -0.247956 0
M  V30 449 H 41.9727 -1.83281 0.0897137 0
M  V30 450 H 40.3547 -3.41252 -2.00905 0
M  V30 451 H 41.5287 -4.56797 0.606079 0
M  V30 452 H 39.8437 -4.14565 0.390466 0
M  V30 453 H 42.4407 -4.82375 -2.30692 0
M  V30 454 H 42.7837 -3.15953 -2.71071 0
M  V30 455 H 43.3167 -3.81065 -1.14167 0
M  V30 456 H 40.0557 -6.55468 0.0649577 0
M  V30 457 H 39.5757 -5.81288 -1.47864 0
M  V30 458 H 41.2547 -6.35223 -1.22884 0
M  V30 459 N 41.3868 0.248026 -1.55636 0
M  V30 460 C 42.3168 1.31079 -1.93237 0
M  V30 461 C 43.2978 1.50264 -0.797174 0
M  V30 462 O 44.4828 1.62891 -1.05737 0
M  V30 463 C 41.6128 2.66575 -2.22609 0
M  V30 464 C 40.5668 2.62087 -3.3837 0
M  V30 465 C 39.8928 4.01369 -3.53281 0
M  V30 466 C 41.1928 2.19171 -4.7409 0
M  V30 467 H 42.8868 0.998556 -2.82257 0
M  V30 468 H 40.4328 0.47891 -1.35803 0
M  V30 469 H 42.3858 3.41057 -2.47503 0
M  V30 470 H 41.1098 2.99432 -1.30414 0
M  V30 471 H 39.7688 1.90063 -3.13483 0
M  V30 472 H 39.4168 4.31489 -2.58508 0
M  V30 473 H 39.1168 3.99254 -4.31127 0
M  V30 474 H 40.6408 4.77552 -3.80495 0
M  V30 475 H 42.0548 2.83384 -4.98363 0
M  V30 476 H 40.4518 2.2817 -5.5503 0
M  V30 477 H 41.5218 1.14336 -4.71227 0
M  V30 478 N 42.8649 1.48995 0.513639 0
M  V30 479 C 44.2759 1.5119 1.09537 0
M  V30 480 C 44.6269 0.290906 1.94031 0
M  V30 481 O 43.7519 -0.60049 2.07902 0
M  V30 482 C 44.3469 2.73964 1.99322 0
M  V30 483 C 42.9059 2.78978 2.52682 0
M  V30 484 C 42.0529 2.44934 1.30009 0
M  V30 485 H 45.0039 1.55875 0.298125 0
M  V30 486 H 45.0249 2.53409 2.83838 0
M  V30 487 H 44.5369 3.62813 1.37799 0
M  V30 488 H 42.6379 1.94378 3.1788 0
M  V30 489 H 42.7509 3.8083 2.90698 0
M  V30 490 H 41.1149 1.9644 1.62122 0
M  V30 491 H 41.8979 3.36043 0.702131 0
M  V30 492 N 44.343 -0.763751 1.37857 0
M  V30 493 C 45.275 -1.88664 1.30148 0
M  V30 494 C 46.288 -1.61365 0.215685 0
M  V30 495 O 47.477 -1.72134 0.472459 0
M  V30 496 C 44.577 -3.24075 0.991396 0
M  V30 497 C 43.75 -3.78958 2.18426 0
M  V30 498 C 42.809 -4.92862 1.8432 0
M  V30 499 O 41.835 -5.08027 2.56704 0
M  V30 500 N 43.037 -5.75071 0.792081 0
M  V30 501 H 45.802 -1.95791 2.26905 0
M  V30 502 H 43.363 -0.943226 1.31586 0
M  V30 503 H 45.355 -3.97804 0.743935 0
M  V30 504 H 43.925 -3.12399 0.112122 0
M  V30 505 H 43.145 -2.96913 2.59299 0
M  V30 506 H 44.433 -4.12357 2.98058 0
M  V30 507 H 43.831 -5.65375 0.191595 0
M  V30 508 H 42.388 -6.48991 0.60449 0
M  V30 509 N 45.8211 -1.22559 -0.990812 0
M  V30 510 C 47.0491 -1.07779 -1.76611 0
M  V30 511 C 47.4641 0.371513 -1.85109 0
M  V30 512 O 46.8211 1.25737 -1.32274 0
M  V30 513 C 46.8721 -1.68512 -3.19822 0
M  V30 514 O 46.5931 -3.07774 -3.1178 0
M  V30 515 C 48.0941 -1.59035 -4.13791 0
M  V30 516 H 45.3141 -0.377729 -0.554583 0
M  V30 517 H 47.8581 -1.62195 -1.24551 0
M  V30 518 H 46.0131 -1.18154 -3.68942 0
M  V30 519 H 46.4271 -3.37062 -4.01858 0
M  V30 520 H 47.9011 -2.0625 -5.1202 0
M  V30 521 H 48.3781 -0.547273 -4.35777 0
M  V30 522 H 48.9841 -2.08709 -3.70568 0
M  V30 523 N 47.2992 1.18797 -1.03562 0
M  V30 524 C 48.2622 2.20464 -0.626769 0
M  V30 525 C 49.2622 1.57721 0.313173 0
M  V30 526 O 50.4522 1.73917 0.0992615 0
M  V30 527 C 47.5842 3.40802 0.0818498 0
M  V30 528 H 48.7772 2.58149 -1.5264 0
M  V30 529 H 46.3302 1.32593 -0.827578 0
M  V30 530 H 47.0652 3.08642 0.995518 0
M  V30 531 H 46.8502 3.8758 -0.593652 0
M  V30 532 H 48.3402 4.16092 0.354584 0
M  V30 533 N 48.7773 0.814389 1.34928 0
M  V30 534 C 50.1883 0.458364 1.80986 0
M  V30 535 C 50.5393 -1.02042 1.67577 0
M  V30 536 O 49.6643 -1.79352 1.21086 0
M  V30 537 C 50.2593 0.825212 3.28597 0
M  V30 538 C 48.8183 0.521677 3.72767 0
M  V30 539 C 47.9653 1.04668 2.56788 0
M  V30 540 H 50.9163 1.00533 1.22795 0
M  V30 541 H 50.9373 0.12571 3.80292 0
M  V30 542 H 50.4493 1.90154 3.38324 0
M  V30 543 H 48.5503 -0.545589 3.68584 0
M  V30 544 H 48.6633 1.05977 4.67232 0
M  V30 545 H 47.0273 0.468622 2.50352 0
M  V30 546 H 47.8103 2.12927 2.6929 0
M  V30 547 N 50.2554 -1.46986 0.568584 0
M  V30 548 C 51.1874 -2.28233 -0.210337 0
M  V30 549 C 52.2004 -1.37682 -0.868767 0
M  V30 550 O 53.3894 -1.62406 -0.740705 0
M  V30 551 C 50.4894 -3.12293 -1.3163 0
M  V30 552 C 49.6624 -4.30878 -0.7525 0
M  V30 553 C 48.7214 -4.96445 -1.74439 0
M  V30 554 O 47.7474 -5.54482 -1.286 0
M  V30 555 N 48.9494 -4.92171 -3.07812 0
M  V30 556 H 51.7144 -2.95723 0.486648 0
M  V30 557 H 49.2754 -1.56742 0.405409 0
M  V30 558 H 51.2674 -3.53022 -1.97883 0
M  V30 559 H 49.8374 -2.46971 -1.91636 0
M  V30 560 H 49.0574 -3.94104 0.0871128 0
M  V30 561 H 50.3454 -5.07558 -0.35536 0
M  V30 562 H 49.7434 -4.46239 -3.47688 0
M  V30 563 H 48.3004 -5.36884 -3.69592 0
M  V30 564 N 51.7335 -0.305618 -1.54608 0
M  V30 565 C 52.9795 0.302746 -2.00528 0
M  V30 566 C 53.3125 1.53184 -1.19367 0
M  V30 567 O 52.5875 1.92598 -0.271321 0
M  V30 568 C 52.8705 0.654756 -3.54097 0
M  V30 569 C 52.7235 -0.583793 -4.45995 0
M  V30 570 C 54.0425 1.47947 -4.14487 0
M  V30 571 H 51.1615 0.108564 -0.72896 0
M  V30 572 H 53.8035 -0.418634 -1.85331 0
M  V30 573 H 51.9535 1.26935 -3.67178 0
M  V30 574 H 53.6255 -1.22224 -4.44814 0
M  V30 575 H 51.8685 -1.21615 -4.16404 0
M  V30 576 H 52.5395 -0.293287 -5.5122 0
M  V30 577 H 55.0155 0.96013 -4.04871 0
M  V30 578 H 53.8915 1.69454 -5.22088 0
M  V30 579 H 54.1525 2.47011 -3.66658 0
M  V30 580 N 53.2116 1.57565 -0.0334293 0
M  V30 581 C 54.1416 2.13511 0.945265 0
M  V30 582 C 55.1226 1.05231 1.33643 0
M  V30 583 O 56.3076 1.33084 1.41429 0
M  V30 584 C 53.4376 2.6657 2.22616 0
M  V30 585 C 52.3916 3.79676 1.97561 0
M  V30 586 C 51.7176 4.1918 3.31952 0
M  V30 587 C 53.0176 5.0557 1.31135 0
M  V30 588 H 54.7116 2.95538 0.479325 0
M  V30 589 H 52.2576 1.42166 0.229115 0
M  V30 590 H 54.2106 3.04344 2.91466 0
M  V30 591 H 52.9346 1.8171 2.71384 0
M  V30 592 H 51.5936 3.42347 1.31127 0
M  V30 593 H 51.2416 3.31296 3.78487 0
M  V30 594 H 50.9416 4.95402 3.15992 0
M  V30 595 H 52.4656 4.59541 4.02063 0
M  V30 596 H 53.8796 5.40903 1.89992 0
M  V30 597 H 52.2766 5.86818 1.25559 0
M  V30 598 H 53.3466 4.84062 0.284894 0
M  V30 599 N 54.6897 -0.239769 1.55765 0
M  V30 600 C 56.1057 -0.588624 1.48349 0
M  V30 601 C 56.3057 -1.88005 0.72502 0
M  V30 602 O 55.3617 -2.51186 0.257269 0
M  V30 603 C 56.6747 -0.68474 2.928 0
M  V30 604 C 58.2227 -0.77659 3.03213 0
M  V30 605 C 58.6977 -0.904207 4.48986 0
M  V30 606 N 60.1887 -0.968896 4.52953 0
M  V30 607 C 60.9237 -1.08703 5.63002 0
M  V30 608 N 60.4197 -1.17026 6.82845 0
M  V30 609 N 62.2127 -1.12074 5.50814 0
M  V30 610 H 54.3637 0.607911 2.03515 0
M  V30 611 H 56.6267 0.21083 0.924259 0
M  V30 612 H 56.3327 0.194284 3.51163 0
M  V30 613 H 56.2067 -1.55435 3.43686 0
M  V30 614 H 58.5937 -1.64606 2.44926 0
M  V30 615 H 58.6747 0.118315 2.55526 0
M  V30 616 H 58.3187 -0.0392633 5.07885 0
M  V30 617 H 58.2487 -1.81426 4.9436 0
M  V30 618 H 60.7397 -0.915633 3.6664 0
M  V30 619 H 61.0527 -1.25966 7.62465 0
M  V30 620 H 59.3977 -1.13971 6.85591 0
M  V30 621 H 62.5887 -1.05226 4.5612 0
M  V30 622 H 62.7617 -1.20936 6.36615 0
M  V30 623 N 56.1678 -1.49265 -0.50573 0
M  V30 624 C 57.4168 -1.57761 -1.25675 0
M  V30 625 C 57.7298 -0.267371 -1.93764 0
M  V30 626 O 58.9358 -0.230827 -2.70517 0
M  V30 627 C 57.3918 -2.78332 -2.28165 0
M  V30 628 C 56.9998 -4.16096 -1.66037 0
M  V30 629 C 58.7438 -2.96155 -3.04125 0
M  V30 630 C 56.6508 -5.27895 -2.6661 0
M  V30 631 H 55.5808 -0.587391 -0.472745 0
M  V30 632 H 58.2318 -1.75644 -0.53118 0
M  V30 633 H 56.6138 -2.53934 -3.03865 0
M  V30 634 H 57.7878 -4.50612 -0.963622 0
M  V30 635 H 56.1028 -4.03591 -1.02484 0
M  V30 636 H 58.6998 -3.76849 -3.79327 0
M  V30 637 H 59.0428 -2.06534 -3.61455 0
M  V30 638 H 59.5758 -3.2057 -2.35541 0
M  V30 639 H 56.3148 -6.1956 -2.14068 0
M  V30 640 H 55.8348 -4.97839 -3.34539 0
M  V30 641 H 57.5138 -5.57031 -3.29129 0
M  V30 642 N 57.6459 0.756429 -1.3826 0
M  V30 643 C 58.8939 1.51248 -1.34047 0
M  V30 644 C 59.2149 1.94875 0.0698372 0
M  V30 645 O 58.4849 1.67436 1.01696 0
M  V30 646 H 57.0649 0.561018 -0.493222 0
M  V30 647 H 59.7269 0.899347 -1.7291 0
M  V30 648 H 58.8229 2.40472 -1.98947 0
M  V30 649 N 59.124 1.23083 0.984299 0
M  V30 650 C 60.372 1.05848 1.72165 0
M  V30 651 C 60.693 -0.406049 1.90726 0
M  V30 652 O 59.963 -1.29139 1.47309 0
M  V30 653 H 58.543 0.388685 0.637913 0
M  V30 654 H 61.205 1.54736 1.18503 0
M  V30 655 H 60.301 1.54327 2.71274 0
M  V30 656 N 60.6021 -1.18246 1.0419 0
M  V30 657 C 61.8511 -1.87588 0.741194 0
M  V30 658 C 62.1641 -1.81303 -0.734066 0
M  V30 659 O 63.3701 -2.46019 -1.14834 0
M  V30 660 C 61.8261 -3.36538 1.27555 0
M  V30 661 C 61.4341 -3.51349 2.77953 0
M  V30 662 C 63.1781 -4.11273 1.05143 0
M  V30 663 C 61.0851 -4.94265 3.2474 0
M  V30 664 H 60.0151 -0.702622 0.273565 0
M  V30 665 H 62.6661 -1.33601 1.25789 0
M  V30 666 H 61.0481 -3.9 0.686703 0
M  V30 667 H 62.2221 -3.08153 3.42605 0
M  V30 668 H 60.5371 -2.90022 2.98791 0
M  V30 669 H 63.1341 -5.16689 1.37611 0
M  V30 670 H 63.4771 -4.16298 -0.0112774 0
M  V30 671 H 64.0101 -3.63987 1.60495 0
M  V30 672 H 60.7491 -4.94408 4.30396 0
M  V30 673 H 60.2691 -5.38172 2.64823 0
M  V30 674 H 61.9481 -5.62987 3.18834 0
M  V30 675 N 62.0802 -0.821533 -1.34494 0
M  V30 676 C 63.3272 -0.408946 -1.98328 0
M  V30 677 C 63.6552 1.02764 -1.65136 0
M  V30 678 O 62.9102 1.73026 -0.914349 0
M  V30 679 C 63.2092 -0.556512 -3.53041 0
M  V30 680 C 62.8752 -1.95861 -4.0614 0
M  V30 681 C 61.5372 -2.34217 -4.20352 0
M  V30 682 C 63.8892 -2.87523 -4.34718 0
M  V30 683 C 61.2172 -3.63572 -4.6047 0
M  V30 684 C 63.5692 -4.1634 -4.76281 0
M  V30 685 C 62.2332 -4.54675 -4.88699 0
M  V30 686 H 61.5032 -0.149644 -0.725732 0
M  V30 687 H 64.1502 -1.04521 -1.6046 0
M  V30 688 H 62.4552 0.163148 -3.9146 0
M  V30 689 H 64.1522 -0.217826 -4.00408 0
M  V30 690 H 60.7422 -1.65066 -3.95539 0
M  V30 691 H 64.9262 -2.59133 -4.23277 0
M  V30 692 H 60.1822 -3.93101 -4.68275 0
M  V30 693 H 64.3562 -4.87455 -4.97354 0
M  V30 694 H 61.9832 -5.54959 -5.19542 0
M  V30 695 N 63.5583 1.46682 -0.576371 0
M  V30 696 C 64.4683 2.34032 0.163141 0
M  V30 697 C 65.4843 1.49367 0.892501 0
M  V30 698 O 66.6603 1.82252 0.857106 0
M  V30 699 C 63.7253 3.26435 1.16795 0
M  V30 700 C 62.7863 4.26998 0.443944 0
M  V30 701 C 62.0193 5.14986 1.40088 0
M  V30 702 O 62.2423 5.05785 2.637 0
M  V30 703 O 61.1763 5.94906 0.914917 0
M  V30 704 H 65.0023 2.98607 -0.55388 0
M  V30 705 H 62.5873 1.45554 -0.336821 0
M  V30 706 H 64.4693 3.83459 1.74748 0
M  V30 707 H 63.1443 2.64465 1.86655 0
M  V30 708 H 62.0513 3.7368 -0.177271 0
M  V30 709 H 63.3843 4.91736 -0.213566 0
M  V30 710 N 65.0364 0.313813 1.54444 0
M  V30 711 C 66.2644 -0.293918 2.04802 0
M  V30 712 C 66.6794 -1.46537 1.19047 0
M  V30 713 O 66.0364 -1.81182 0.218939 0
M  V30 714 C 66.0874 -0.737806 3.53891 0
M  V30 715 O 65.8084 0.387038 4.36387 0
M  V30 716 C 67.3094 -1.40936 4.203 0
M  V30 717 H 64.5294 -0.0620057 0.668129 0
M  V30 718 H 67.0734 0.457169 1.99324 0
M  V30 719 H 65.2284 -1.43889 3.59687 0
M  V30 720 H 65.6424 0.0391274 5.24485 0
M  V30 721 H 67.1164 -1.67099 5.26101 0
M  V30 722 H 67.5934 -2.35355 3.70816 0
M  V30 723 H 68.1994 -0.751117 4.18615 0
M  V30 724 N 66.5145 -1.57545 0.0417849 0
M  V30 725 C 67.7605 -1.92601 -0.635021 0
M  V30 726 C 68.0935 -0.919627 -1.71045 0
M  V30 727 O 67.3685 0.0557892 -1.9442 0
M  V30 728 C 67.6515 -3.38085 -1.23979 0
M  V30 729 C 67.5045 -4.49467 -0.173057 0
M  V30 730 C 68.8235 -3.83776 -2.15416 0
M  V30 731 H 65.9425 -0.700397 -0.229374 0
M  V30 732 H 68.5845 -1.89728 0.101633 0
M  V30 733 H 66.7345 -3.40664 -1.86762 0
M  V30 734 H 68.4065 -4.59018 0.458312 0
M  V30 735 H 66.6495 -4.30909 0.499996 0
M  V30 736 H 67.3205 -5.48323 -0.636054 0
M  V30 737 H 69.7965 -3.83013 -1.62605 0
M  V30 738 H 68.6725 -4.8624 -2.54679 0
M  V30 739 H 68.9335 -3.19998 -3.05047 0
M  V30 740 N 67.9926 0.231505 -1.5589 0
M  V30 741 C 68.9026 1.308 -1.94752 0
M  V30 742 C 69.9186 1.51826 -0.849989 0
M  V30 743 O 71.0946 1.6515 -1.15271 0
M  V30 744 C 68.1596 2.63968 -2.24771 0
M  V30 745 C 67.2206 2.51331 -3.48039 0
M  V30 746 C 66.4536 3.78148 -3.76616 0
M  V30 747 O 66.6766 4.80722 -3.07022 0
M  V30 748 O 65.6106 3.75857 -4.70123 0
M  V30 749 H 69.4366 1.0083 -2.86474 0
M  V30 750 H 67.0216 0.433547 -1.42971 0
M  V30 751 H 68.9036 3.42633 -2.45318 0
M  V30 752 H 67.5786 2.9364 -1.36225 0
M  V30 753 H 66.4856 1.709 -3.32782 0
M  V30 754 H 67.8186 2.26601 -4.36936 0
M  V30 755 N 69.4707 1.49531 0.497807 0
M  V30 756 C 70.4187 1.66926 1.61983 0
M  V30 757 C 71.4127 0.535167 1.60724 0
M  V30 758 O 72.6187 0.714896 1.65195 0
M  V30 759 H 68.9937 0.526415 0.537021 0
M  V30 760 H 70.9647 2.61098 1.44465 0
M  V30 761 C 69.7137 1.75602 3.00099 0
M  V30 762 H 69.0367 2.62244 3.01775 0
M  V30 763 H 70.4767 1.91807 3.78135 0
M  V30 764 C 68.9357 0.501543 3.33146 0
M  V30 765 O 69.4657 -0.371342 3.9998 0
M  V30 766 N 67.6717 0.363531 2.88317 0
M  V30 767 H 67.2187 1.07485 2.34104 0
M  V30 768 H 67.1767 -0.474728 3.10795 0
M  V30 769 N 70.9488 -0.749086 1.3866 0
M  V30 770 C 71.8588 -1.89358 1.38494 0
M  V30 771 C 72.8748 -1.71708 0.281476 0
M  V30 772 O 74.0508 -1.94554 0.520643 0
M  V30 773 C 71.1158 -3.24782 1.21316 0
M  V30 774 C 70.1768 -3.54926 2.41508 0
M  V30 775 C 69.4098 -4.83888 2.2514 0
M  V30 776 O 69.6328 -5.56592 1.24746 0
M  V30 777 O 68.5668 -5.13612 3.13826 0
M  V30 778 H 72.3928 -1.92452 2.34938 0
M  V30 779 H 69.9778 -0.894981 1.19626 0
M  V30 780 H 71.8598 -4.05739 1.13814 0
M  V30 781 H 70.5348 -3.2249 0.279592 0
M  V30 782 H 69.4418 -2.74112 2.54585 0
M  V30 783 H 70.7748 -3.61983 3.3351 0
M  V30 784 N 72.4269 -1.23603 -0.977757 0
M  V30 785 C 73.8379 -1.06424 -1.53398 0
M  V30 786 C 74.1889 0.367578 -1.92726 0
M  V30 787 O 73.3139 1.25465 -1.76316 0
M  V30 788 C 73.9089 -1.92568 -2.78753 0
M  V30 789 C 72.4679 -1.79642 -3.30765 0
M  V30 790 C 71.6149 -1.88111 -2.03739 0
M  V30 791 H 74.5659 -1.37227 -0.797152 0
M  V30 792 H 74.5869 -1.45203 -3.51705 0
M  V30 793 H 74.0989 -2.96771 -2.50098 0
M  V30 794 H 72.1999 -0.782325 -3.64294 0
M  V30 795 H 72.3129 -2.63174 -4.00345 0
M  V30 796 H 70.6769 -1.31723 -2.17994 0
M  V30 797 H 71.4599 -2.93875 -1.77461 0
M  V30 798 N 73.905 1.17692 -1.04816 0
M  V30 799 C 75.151 1.88137 -0.75711 0
M  V30 800 C 75.484 1.80604 0.713841 0
M  V30 801 O 74.759 1.21146 1.52164 0
M  V30 802 C 75.042 3.38318 -1.2334 0
M  V30 803 C 74.895 3.54622 -2.76701 0
M  V30 804 C 76.214 4.32214 -0.829415 0
M  V30 805 H 73.333 0.683163 -0.27651 0
M  V30 806 H 75.975 1.38424 -1.30149 0
M  V30 807 H 74.125 3.80787 -0.770286 0
M  V30 808 H 75.797 3.21194 -3.31107 0
M  V30 809 H 74.04 2.97026 -3.16161 0
M  V30 810 H 74.711 4.60028 -3.05088 0
M  V30 811 H 77.187 3.97565 -1.22805 0
M  V30 812 H 76.063 5.35838 -1.19033 0
M  V30 813 H 76.324 4.41294 0.266891 0
M  V30 814 N 75.3831 0.828654 1.34056 0
M  V30 815 C 76.3311 0.242973 2.31327 0
M  V30 816 C 77.3251 -0.61944 1.57668 0
M  V30 817 O 78.5311 -0.51014 1.7262 0
M  V30 818 H 74.9061 0.059834 0.749616 0
M  V30 819 H 76.8771 1.07809 2.78244 0
M  V30 820 C 75.6261 -0.575733 3.429 0
M  V30 821 H 74.9491 0.0785582 3.99723 0
M  V30 822 H 76.3891 -0.951547 4.13185 0
M  V30 823 C 74.8481 -1.75044 2.87856 0
M  V30 824 O 75.3781 -2.84882 2.83205 0
M  V30 825 N 73.5841 -1.56903 2.44602 0
M  V30 826 H 73.1311 -0.675547 2.48584 0
M  V30 827 H 73.0891 -2.35652 2.08124 0
M  V30 828 N 76.8612 -1.46375 0.584142 0
M  V30 829 C 78.1072 -2.02678 0.0703716 0
M  V30 830 C 78.4402 -1.4545 -1.28678 0
M  V30 831 O 77.7152 -0.62014 -1.84349 0
M  V30 832 C 77.9982 -3.60099 0.00614674 0
M  V30 833 C 77.8512 -4.27709 1.3923 0
M  V30 834 C 79.1702 -4.34598 -0.693742 0
M  V30 835 H 76.2892 -0.736504 0.027047 0
M  V30 836 H 78.9312 -1.74501 0.751615 0
M  V30 837 H 77.0812 -3.84236 -0.574009 0
M  V30 838 H 78.7532 -4.14832 2.01773 0
M  V30 839 H 76.9962 -3.87016 1.95962 0
M  V30 840 H 77.6672 -5.36478 1.29982 0
M  V30 841 H 80.1432 -4.15615 -0.200869 0
M  V30 842 H 79.0192 -5.44318 -0.707714 0
M  V30 843 H 79.2802 -4.05759 -1.75533 0
M  V30 844 N 78.3393 -0.321999 -1.54275 0
M  V30 845 C 79.2493 0.553631 -2.27974 0
M  V30 846 C 80.2653 1.13054 -1.32268 0
M  V30 847 O 81.4413 1.15084 -1.6528 0
M  V30 848 C 78.5063 1.69927 -3.02201 0
M  V30 849 C 77.5673 1.15433 -4.1349 0
M  V30 850 C 76.8003 2.24537 -4.84168 0
M  V30 851 O 77.0233 3.44852 -4.5435 0
M  V30 852 O 75.9573 1.90044 -5.7111 0
M  V30 853 H 79.7833 -0.0448345 -3.03667 0
M  V30 854 H 77.3683 -0.0877418 -1.49142 0
M  V30 855 H 79.2503 2.3663 -3.48689 0
M  V30 856 H 77.9253 2.28395 -2.29385 0
M  V30 857 H 76.8323 0.452436 -3.71354 0
M  V30 858 H 78.1653 0.614805 -4.88345 0
M  V30 859 N 79.8174 1.5752 -0.0501392 0
M  V30 860 C 80.7274 2.14952 0.939827 0
M  V30 861 C 81.7434 1.10706 1.34239 0
M  V30 862 O 82.9194 1.42869 1.41952 0
M  V30 863 C 79.9844 2.68232 2.19665 0
M  V30 864 C 79.0454 3.87272 1.85253 0
M  V30 865 C 78.2784 4.38002 3.04943 0
M  V30 866 O 78.5014 3.87811 4.18281 0
M  V30 867 O 77.4354 5.29602 2.86017 0
M  V30 868 H 81.2614 2.9986 0.481392 0
M  V30 869 H 78.8464 1.4841 0.171699 0
M  V30 870 H 80.7284 3.02475 2.93406 0
M  V30 871 H 79.4034 1.86395 2.64648 0
M  V30 872 H 78.3104 3.5792 1.0883 0
M  V30 873 H 79.6434 4.70336 1.4507 0
M  V30 874 N 81.2955 -0.223234 1.56011 0
M  V30 875 C 82.2255 -1.27988 1.95298 0
M  V30 876 C 83.2065 -1.48976 0.820979 0
M  V30 877 O 84.3915 -1.61188 1.08315 0
M  V30 878 C 81.5215 -2.63 2.26822 0
M  V30 879 C 80.4755 -2.56671 3.42497 0
M  V30 880 C 79.8015 -3.95697 3.59622 0
M  V30 881 C 81.1015 -2.11601 4.77517 0
M  V30 882 H 82.7955 -0.953525 2.8381 0
M  V30 883 H 80.3415 -0.457244 1.36548 0
M  V30 884 H 82.2945 -3.37077 2.52898 0
M  V30 885 H 81.0185 -2.9732 1.35161 0
M  V30 886 H 79.6775 -1.85051 3.16467 0
M  V30 887 H 79.3255 -4.27322 2.6534 0
M  V30 888 H 79.0255 -3.92345 4.37424 0
M  V30 889 H 80.5495 -4.71438 3.88044 0
M  V30 890 H 81.9635 -2.7542 5.02809 0
M  V30 891 H 80.3605 -2.19311 5.5859 0
M  V30 892 H 81.4305 -1.06824 4.72987 0
M  V30 893 N 82.7736 -1.49793 -0.48987 0
M  V30 894 C 83.7366 -1.66752 -1.57246 0
M  V30 895 C 84.7366 -0.538867 -1.51502 0
M  V30 896 O 85.9266 -0.805545 -1.54456 0
M  V30 897 C 83.0586 -1.67528 -2.96896 0
M  V30 898 H 84.2516 -2.63321 -1.43534 0
M  V30 899 H 81.8046 -1.38992 -0.714914 0
M  V30 900 H 82.5396 -0.725837 -3.16073 0
M  V30 901 H 82.3246 -2.49504 -3.02473 0
M  V30 902 H 83.8146 -1.82667 -3.7553 0
M  V30 903 N 84.2517 0.741722 -1.39055 0
M  V30 904 C 85.4987 1.50114 -1.35912 0
M  V30 905 C 85.8267 1.94443 0.0470937 0
M  V30 906 O 85.0817 1.66612 1.02659 0
M  V30 907 C 85.3807 2.7592 -2.27163 0
M  V30 908 C 85.0467 2.50493 -3.74919 0
M  V30 909 C 83.7087 2.43267 -4.1518 0
M  V30 910 C 86.0607 2.28585 -4.684 0
M  V30 911 C 83.3887 2.12166 -5.46994 0
M  V30 912 C 85.7407 1.99002 -6.00484 0
M  V30 913 C 84.4047 1.90241 -6.39816 0
M  V30 914 H 83.6747 0.549306 -0.497336 0
M  V30 915 H 86.3217 0.851896 -1.71508 0
M  V30 916 H 84.6267 3.45553 -1.84663 0
M  V30 917 H 86.3237 3.33923 -2.22028 0
M  V30 918 H 82.9137 2.56992 -3.43006 0
M  V30 919 H 87.0977 2.33139 -4.38132 0
M  V30 920 H 82.3537 2.03901 -5.76398 0
M  V30 921 H 86.5277 1.81057 -6.72452 0
M  V30 922 H 84.1547 1.65907 -7.41875 0
M  V30 923 N 85.7298 1.2412 0.971189 0
M  V30 924 C 86.6768 1.0305 2.06517 0
M  V30 925 C 87.6468 -0.0550666 1.66009 0
M  V30 926 O 88.8318 0.0988688 1.90544 0
M  V30 927 C 85.9718 0.637653 3.39158 0
M  V30 928 C 85.0848 1.79633 3.92882 0
M  V30 929 C 84.2198 1.34939 5.13775 0
M  V30 930 C 83.2588 2.47823 5.59687 0
M  V30 931 N 82.3958 2.04022 6.71803 0
M  V30 932 H 87.2358 1.96685 2.23873 0
M  V30 933 H 84.7728 0.979694 1.09729 0
M  V30 934 H 86.7308 0.390931 4.15364 0
M  V30 935 H 85.3608 -0.261693 3.21737 0
M  V30 936 H 84.4128 2.15681 3.13346 0
M  V30 937 H 85.7248 2.64466 4.22918 0
M  V30 938 H 84.8788 1.06134 5.97345 0
M  V30 939 H 83.6178 0.471557 4.85415 0
M  V30 940 H 82.6228 2.77392 4.74693 0
M  V30 941 H 83.8478 3.36158 5.90063 0
M  V30 942 H 81.7938 1.18632 6.45184 0
M  V30 943 H 81.7108 2.82409 7.01271 0
M  V30 944 H 82.9788 1.78347 7.58823 0
M  V30 945 N 87.2079 -1.17134 1.05439 0
M  V30 946 C 88.4549 -1.87456 0.765942 0
M  V30 947 C 88.7829 -1.81189 -0.707153 0
M  V30 948 O 88.0379 -1.21633 -1.5331 0
M  V30 949 C 88.3369 -3.36833 1.19491 0
M  V30 950 C 88.0029 -3.63301 2.67063 0
M  V30 951 C 86.6649 -3.70234 3.07376 0
M  V30 952 C 89.0169 -3.74575 3.62413 0
M  V30 953 C 86.3449 -3.85933 4.41896 0
M  V30 954 C 88.6969 -3.91793 4.9667 0
M  V30 955 C 87.3609 -3.96966 5.36633 0
M  V30 956 H 86.6309 -0.685948 0.280278 0
M  V30 957 H 89.2779 -1.38556 1.32192 0
M  V30 958 H 87.5829 -3.87807 0.557969 0
M  V30 959 H 89.2799 -3.89611 0.948893 0
M  V30 960 H 85.8699 -3.58532 2.34846 0
M  V30 961 H 90.0539 -3.68537 3.32406 0
M  V30 962 H 85.3099 -3.88187 4.72357 0
M  V30 963 H 89.4839 -3.99458 5.70444 0
M  V30 964 H 87.1109 -4.08883 6.40874 0
M  V30 965 N 88.686 -0.835752 -1.33615 0
M  V30 966 C 89.649 -0.272 -2.2758 0
M  V30 967 C 90.649 0.557487 -1.50827 0
M  V30 968 O 91.839 0.37173 -1.70188 0
M  V30 969 C 88.971 0.617173 -3.35267 0
M  V30 970 H 90.164 -1.10111 -2.78954 0
M  V30 971 H 87.717 -0.608594 -1.43965 0
M  V30 972 H 88.452 1.46884 -2.89129 0
M  V30 973 H 88.237 0.0237066 -3.92093 0
M  V30 974 H 89.727 1.005 -4.05326 0
M  V30 975 N 90.1641 1.46063 -0.591896 0
M  V30 976 C 91.4101 2.02638 -0.0811191 0
M  V30 977 C 91.7431 1.4613 1.27905 0
M  V30 978 O 91.0181 0.629908 1.84017 0
M  V30 979 C 91.3011 3.60091 -0.0252436 0
M  V30 980 C 91.1541 4.26965 -1.41496 0
M  V30 981 C 92.4731 4.3496 0.670685 0
M  V30 982 H 89.5921 0.73635 -0.0309524 0
M  V30 983 H 92.2341 1.741 -0.760859 0
M  V30 984 H 90.3841 3.84535 0.553624 0
M  V30 985 H 92.0561 4.13756 -2.0397 0
M  V30 986 H 90.2991 3.85971 -1.98011 0
M  V30 987 H 90.9701 5.35781 -1.32825 0
M  V30 988 H 93.4461 4.15716 0.178825 0
M  V30 989 H 92.3221 5.44686 0.678837 0
M  V30 990 H 92.5831 4.06685 1.73379 0
M  V30 991 N 91.6422 0.330177 1.54103 0
M  V30 992 C 92.8702 -0.272179 2.05102 0
M  V30 993 C 93.2852 -1.45267 1.20595 0
M  V30 994 O 92.6422 -1.8094 0.238144 0
M  V30 995 C 92.6932 -0.70023 3.54653 0
M  V30 996 O 92.4142 0.433301 4.35952 0
M  V30 997 C 93.9152 -1.3647 4.21771 0
M  V30 998 H 91.1352 -0.0549159 0.668749 0
M  V30 999 H 93.6792 0.478285 1.98828 0
M  V30 1000 H 91.8342 -1.40066 3.61193 0
M  V30 1001 H 92.2482 0.0947539 5.24414 0
M  V30 1002 H 93.7222 -1.61509 5.27843 0
M  V30 1003 H 94.1992 -2.31409 3.73292 0
M  V30 1004 H 94.8052 -0.706675 4.19388 0
M  V30 1005 N 93.1203 -1.57491 0.0584922 0
M  V30 1006 C 94.3453 -1.97711 -0.62652 0
M  V30 1007 C 94.7703 -0.936132 -1.63151 0
M  V30 1008 O 94.1283 0.099811 -1.81025 0
M  V30 1009 C 94.1763 -3.36989 -1.28338 0
M  V30 1010 O 93.2803 -3.35433 -2.39913 0
M  V30 1011 H 92.6213 -0.643868 -0.162266 0
M  V30 1012 H 95.1513 -2.04193 0.129064 0
M  V30 1013 H 95.1613 -3.73879 -1.63335 0
M  V30 1014 H 93.8363 -4.12289 -0.546889 0
M  V30 1015 H 92.4133 -3.10298 -2.06809 0
M  V30 1016 N 94.5984 0.214957 -1.56127 0
M  V30 1017 C 95.8474 0.936451 -1.78643 0
M  V30 1018 C 96.1604 1.85237 -0.628229 0
M  V30 1019 O 97.3664 2.613 -0.737186 0
M  V30 1020 C 95.8224 1.7154 -3.16389 0
M  V30 1021 C 95.4304 0.845299 -4.39953 0
M  V30 1022 C 97.1744 2.42772 -3.48227 0
M  V30 1023 C 95.0814 1.62198 -5.68723 0
M  V30 1024 H 94.0114 0.353401 -0.666051 0
M  V30 1025 H 96.6624 0.190169 -1.82512 0
M  V30 1026 H 95.0444 2.50484 -3.06715 0
M  V30 1027 H 96.2184 0.0959353 -4.607 0
M  V30 1028 H 94.5334 0.244789 -4.1568 0
M  V30 1029 H 97.1304 3.01394 -4.41663 0
M  V30 1030 H 97.4734 3.15984 -2.71035 0
M  V30 1031 H 98.0064 1.70813 -3.5926 0
M  V30 1032 H 94.7454 0.933011 -6.48826 0
M  V30 1033 H 94.2654 2.34579 -5.52026 0
M  V30 1034 H 95.9444 2.18095 -6.09133 0
M  V30 1035 N 96.0765 1.50051 0.48192 0
M  V30 1036 C 97.0245 1.68635 1.60203 0
M  V30 1037 C 98.0185 0.552184 1.60148 0
M  V30 1038 O 99.2245 0.732377 1.64427 0
M  V30 1039 H 95.5995 0.532081 0.531407 0
M  V30 1040 H 97.5705 2.62616 1.41688 0
M  V30 1041 C 96.3195 1.78775 2.9822 0
M  V30 1042 H 95.6425 2.6543 2.98976 0
M  V30 1043 H 97.0825 1.95806 3.7608 0
M  V30 1044 C 95.5415 0.536849 3.32595 0
M  V30 1045 O 96.0715 -0.328897 4.00351 0
M  V30 1046 N 94.2775 0.394091 2.87915 0
M  V30 1047 H 93.8245 1.09962 2.32951 0
M  V30 1048 H 93.7825 -0.441737 3.11281 0
M  V30 1049 N 97.5546 -0.734337 1.39446 0
M  V30 1050 C 98.9706 -1.03997 1.21065 0
M  V30 1051 C 99.1706 -2.01369 0.0727019 0
M  V30 1052 O 98.2266 -2.45856 -0.575426 0
M  V30 1053 C 99.5396 -1.60163 2.54496 0
M  V30 1054 C 101.088 -1.7224 2.61347 0
M  V30 1055 C 101.563 -2.31814 3.95002 0
M  V30 1056 N 103.054 -2.39223 3.96644 0
M  V30 1057 C 103.789 -2.86258 4.96834 0
M  V30 1058 N 103.285 -3.33184 6.07421 0
M  V30 1059 N 105.078 -2.85473 4.84213 0
M  V30 1060 H 97.2286 -0.0885624 2.12215 0
M  V30 1061 H 99.4916 -0.10191 0.942506 0
M  V30 1062 H 99.1976 -0.960811 3.38321 0
M  V30 1063 H 99.0716 -2.5896 2.74262 0
M  V30 1064 H 101.459 -2.35443 1.77906 0
M  V30 1065 H 101.54 -0.720939 2.4543 0
M  V30 1066 H 101.184 -1.69238 4.78875 0
M  V30 1067 H 101.114 -3.32638 4.08239 0
M  V30 1068 H 103.605 -2.06057 3.16779 0
M  V30 1069 H 103.918 -3.67586 6.7978 0
M  V30 1070 H 102.263 -3.31191 6.11013 0
M  V30 1071 H 105.454 -2.48136 3.96921 0
M  V30 1072 H 105.627 -3.21814 5.62441 0
M  V30 1073 N 99.0327 -1.24633 -0.964593 0
M  V30 1074 C 99.9807 -1.03917 -2.08096 0
M  V30 1075 C 100.975 0.0268581 -1.69379 0
M  V30 1076 O 102.181 -0.127952 -1.79545 0
M  V30 1077 H 98.5557 -0.319044 -0.680966 0
M  V30 1078 H 100.527 -1.98581 -2.22729 0
M  V30 1079 C 99.2757 -0.663983 -3.41301 0
M  V30 1080 H 98.5987 -1.47605 -3.71555 0
M  V30 1081 H 100.039 -0.558663 -4.20303 0
M  V30 1082 C 98.4977 0.629169 -3.30973 0
M  V30 1083 O 99.0277 1.67404 -3.65156 0
M  V30 1084 N 97.2337 0.611057 -2.84103 0
M  V30 1085 H 96.7807 -0.239593 -2.56483 0
M  V30 1086 H 96.7387 1.47647 -2.77575 0
M  V30 1087 N 100.511 1.16574 -1.06058 0
M  V30 1088 C 101.927 1.3904 -0.783585 0
M  V30 1089 C 102.127 1.91784 0.618145 0
M  V30 1090 O 101.183 2.11511 1.37911 0
M  V30 1091 C 102.496 2.37329 -1.84649 0
M  V30 1092 C 104.044 2.51018 -1.86973 0
M  V30 1093 C 104.519 3.52588 -2.92311 0
M  V30 1094 N 106.01 3.60113 -2.91329 0
M  V30 1095 C 106.745 4.38486 -3.69482 0
M  V30 1096 N 106.241 5.20302 -4.57447 0
M  V30 1097 N 108.034 4.33446 -3.57885 0
M  V30 1098 H 100.185 0.806725 -1.96483 0
M  V30 1099 H 102.448 0.417117 -0.851303 0
M  V30 1100 H 102.154 2.05663 -2.85299 0
M  V30 1101 H 102.028 3.36946 -1.6955 0
M  V30 1102 H 104.415 2.81989 -0.869827 0
M  V30 1103 H 104.496 1.51445 -2.0615 0
M  V30 1104 H 104.14 3.22354 -3.92492 0
M  V30 1105 H 104.07 4.51886 -2.70383 0
M  V30 1106 H 106.561 3.01707 -2.27555 0
M  V30 1107 H 106.874 5.77311 -5.13743 0
M  V30 1108 H 105.219 5.19653 -4.61503 0
M  V30 1109 H 108.41 3.68586 -2.88551 0
M  V30 1110 H 108.583 4.94279 -4.19037 0
M  V30 1111 N 101.989 0.842826 1.3317 0
M  V30 1112 C 103.217 0.454055 2.01856 0
M  V30 1113 C 103.632 -0.94587 1.63397 0
M  V30 1114 O 102.989 -1.61534 0.849302 0
M  V30 1115 C 103.04 0.569715 3.56982 0
M  V30 1116 O 102.761 1.91448 3.94055 0
M  V30 1117 C 104.262 0.178412 4.42941 0
M  V30 1118 H 101.482 0.17979 0.646465 0
M  V30 1119 H 104.026 1.1365 1.70012 0
M  V30 1120 H 102.181 -0.0648587 3.87346 0
M  V30 1121 H 102.595 1.90282 4.88767 0
M  V30 1122 H 104.069 0.310376 5.51127 0
M  V30 1123 H 104.546 -0.880056 4.30293 0
M  V30 1124 H 105.152 0.787579 4.17944 0
M  V30 1125 N 103.467 -1.45747 0.599634 0
M  V30 1126 C 104.397 -2.33235 -0.111306 0
M  V30 1127 C 105.378 -1.46359 -0.866781 0
M  V30 1128 O 106.563 -1.75146 -0.838904 0
M  V30 1129 C 103.693 -3.28932 -1.11451 0
M  V30 1130 C 102.647 -4.25381 -0.472772 0
M  V30 1131 C 101.973 -5.1071 -1.58365 0
M  V30 1132 C 103.273 -5.18831 0.600948 0
M  V30 1133 H 104.967 -2.92927 0.61919 0
M  V30 1134 H 102.513 -1.40857 0.299215 0
M  V30 1135 H 104.466 -3.89002 -1.62036 0
M  V30 1136 H 103.19 -2.67381 -1.8755 0
M  V30 1137 H 101.849 -3.66598 0.0121472 0
M  V30 1138 H 101.497 -4.45533 -2.33473 0
M  V30 1139 H 101.197 -5.7604 -1.15982 0
M  V30 1140 H 102.721 -5.73647 -2.09194 0
M  V30 1141 H 104.135 -5.73019 0.179491 0
M  V30 1142 H 102.532 -5.92595 0.946076 0
M  V30 1143 H 103.602 -4.6174 1.48068 0
M  V30 1144 N 104.945 -0.338344 -1.53925 0
M  V30 1145 C 105.878 0.563758 -2.21127 0
M  V30 1146 C 106.856 1.10433 -1.19345 0
M  V30 1147 O 108.04 1.16557 -1.48144 0
M  V30 1148 C 105.167 1.77505 -2.88461 0
M  V30 1149 C 104.213 1.3644 -4.04087 0
M  V30 1150 S 105.046 0.388593 -5.34088 0
M  V30 1151 C 106.202 1.60683 -6.04923 0
M  V30 1152 H 106.435 -0.00704546 -2.97299 0
M  V30 1153 H 103.968 -0.122418 -1.53914 0
M  V30 1154 H 105.926 2.46999 -3.27875 0
M  V30 1155 H 104.587 2.31706 -2.12064 0
M  V30 1156 H 103.78 2.26739 -4.50117 0
M  V30 1157 H 103.382 0.748998 -3.66423 0
M  V30 1158 H 105.674 2.54209 -6.28 0
M  V30 1159 H 106.617 1.18842 -6.98056 0
M  V30 1160 H 107.025 1.80052 -5.35015 0
M  V30 1161 N 106.423 1.57458 -0.0668435 0
M  V30 1162 C 107.834 1.80776 0.466558 0
M  V30 1163 C 108.185 0.980361 1.69951 0
M  V30 1164 O 107.31 0.201441 2.1546 0
M  V30 1165 C 107.905 3.27881 0.85321 0
M  V30 1166 C 106.464 3.52062 1.3315 0
M  V30 1167 C 105.611 2.75513 0.314264 0
M  V30 1168 H 108.562 1.5598 -0.292588 0
M  V30 1169 H 108.583 3.39659 1.715 0
M  V30 1170 H 108.095 3.88075 -0.0443439 0
M  V30 1171 H 106.196 2.97167 2.24772 0
M  V30 1172 H 106.309 4.60762 1.31285 0
M  V30 1173 H 104.673 2.42123 0.790492 0
M  V30 1174 H 105.456 3.38442 -0.575477 0
M  V30 1175 N 107.901 -0.206675 1.56239 0
M  V30 1176 C 108.849 -1.27571 1.94495 0
M  V30 1177 C 109.843 -1.47737 0.828862 0
M  V30 1178 O 111.049 -1.48735 1.0138 0
M  V30 1179 H 107.424 -0.428029 0.6183 0
M  V30 1180 H 109.395 -0.925961 2.8367 0
M  V30 1181 C 108.144 -2.61568 2.29079 0
M  V30 1182 H 107.467 -2.46863 3.14482 0
M  V30 1183 H 108.907 -3.35144 2.5972 0
M  V30 1184 C 107.366 -3.17695 1.12123 0
M  V30 1185 O 107.896 -3.99801 0.390153 0
M  V30 1186 N 106.102 -2.76276 0.901097 0
M  V30 1187 H 105.649 -2.09613 1.49733 0
M  V30 1188 H 105.607 -3.1417 0.120319 0
M  V30 1189 N 109.379 -1.50304 -0.473955 0
M  V30 1190 C 110.607 -1.64902 -1.24959 0
M  V30 1191 C 111.022 -0.331198 -1.85872 0
M  V30 1192 O 110.379 0.68652 -1.69095 0
M  V30 1193 C 110.43 -2.73803 -2.36038 0
M  V30 1194 O 110.151 -4.00477 -1.77624 0
M  V30 1195 C 111.652 -2.99349 -3.26964 0
M  V30 1196 H 108.872 -0.554383 -0.378022 0
M  V30 1197 H 111.416 -1.9651 -0.566054 0
M  V30 1198 H 109.571 -2.44898 -3.00173 0
M  V30 1199 H 109.985 -4.60678 -2.5075 0
M  V30 1200 H 111.459 -3.79217 -4.01121 0
M  V30 1201 H 111.936 -2.10307 -3.85574 0
M  V30 1202 H 112.542 -3.29774 -2.68569 0
M  V30 1203 N 110.857 0.726932 -1.39834 0
M  V30 1204 C 112.085 1.51613 -1.40787 0
M  V30 1205 C 112.5 1.88799 -0.00451505 0
M  V30 1206 O 111.857 1.54662 0.968809 0
M  V30 1207 C 111.908 2.79863 -2.28821 0
M  V30 1208 O 111.629 2.44253 -3.63692 0
M  V30 1209 C 113.13 3.73837 -2.38245 0
M  V30 1210 H 110.35 0.468264 -0.480593 0
M  V30 1211 H 112.894 0.897607 -1.83748 0
M  V30 1212 H 111.049 3.38027 -1.89252 0
M  V30 1213 H 111.463 3.26695 -4.1033 0
M  V30 1214 H 112.937 4.60699 -3.04073 0
M  V30 1215 H 113.414 4.16153 -1.40403 0
M  V30 1216 H 114.02 3.21589 -2.78317 0
M  V30 1217 N 112.336 1.25143 0.95797 0
M  V30 1218 C 113.266 1.07711 2.07173 0
M  V30 1219 C 114.247 -0.0128462 1.70095 0
M  V30 1220 O 115.432 0.156061 1.93572 0
M  V30 1221 C 112.562 0.691503 3.40346 0
M  V30 1222 C 111.516 1.73132 3.9142 0
M  V30 1223 C 110.842 1.20049 5.21049 0
M  V30 1224 C 112.142 3.1294 4.1817 0
M  V30 1225 H 113.836 2.00873 2.22014 0
M  V30 1226 H 111.382 0.967191 1.06684 0
M  V30 1227 H 113.335 0.556505 4.17709 0
M  V30 1228 H 112.059 -0.275819 3.25433 0
M  V30 1229 H 110.718 1.8547 3.16222 0
M  V30 1230 H 110.366 0.223499 5.02503 0
M  V30 1231 H 110.066 1.89545 5.56189 0
M  V30 1232 H 111.59 1.07782 6.01012 0
M  V30 1233 H 113.004 3.03775 4.86203 0
M  V30 1234 H 111.401 3.79875 4.64559 0
M  V30 1235 H 112.471 3.6025 3.24573 0
M  V30 1236 N 113.814 -1.1601 1.06675 0
M  V30 1237 C 115.042 -1.90527 0.806667 0
M  V30 1238 C 115.457 -1.77643 -0.639396 0
M  V30 1239 O 114.814 -1.12369 -1.43803 0
M  V30 1240 C 114.865 -3.41106 1.19705 0
M  V30 1241 O 114.586 -3.53608 2.58636 0
M  V30 1242 C 116.087 -4.32663 0.965266 0
M  V30 1243 H 113.307 -0.604053 0.292166 0
M  V30 1244 H 115.851 -1.47026 1.4214 0
M  V30 1245 H 114.006 -3.82296 0.626774 0
M  V30 1246 H 114.42 -4.47011 2.74375 0
M  V30 1247 H 115.894 -5.36763 1.288 0
M  V30 1248 H 116.371 -4.39089 -0.0987936 0
M  V30 1249 H 116.977 -3.97206 1.52011 0
M  V30 1250 N 115.292 -0.849877 -1.32721 0
M  V30 1251 C 116.522 -0.46408 -2.0132 0
M  V30 1252 C 116.93 0.94246 -1.64056 0
M  V30 1253 O 116.273 1.6257 -0.855379 0
M  V30 1254 C 116.335 -0.517887 -3.5575 0
M  V30 1255 C 115.999 -1.88248 -4.16427 0
M  V30 1256 C 116.996 -2.84726 -4.35002 0
M  V30 1257 C 114.681 -2.17832 -4.52609 0
M  V30 1258 C 116.675 -4.08945 -4.8892 0
M  V30 1259 C 114.362 -3.42304 -5.06232 0
M  V30 1260 C 115.36 -4.37677 -5.24335 0
M  V30 1261 O 115.048 -5.59946 -5.76815 0
M  V30 1262 H 114.78 -0.181327 -0.651227 0
M  V30 1263 H 117.334 -1.14713 -1.70382 0
M  V30 1264 H 115.564 0.221997 -3.86062 0
M  V30 1265 H 117.253 -0.148366 -4.05629 0
M  V30 1266 H 118.019 -2.63174 -4.07388 0
M  V30 1267 H 113.898 -1.44385 -4.37806 0
M  V30 1268 H 117.442 -4.83396 -5.02966 0
M  V30 1269 H 113.339 -3.63709 -5.33278 0
M  V30 1270 H 114.107 -5.61838 -5.95214 0
M  V30 1271 N 116.77 1.45427 -0.607355 0
M  V30 1272 C 118.047 1.9557 -0.0344566 0
M  V30 1273 C 118.427 1.54979 1.43334 0
M  V30 1274 O 117.775 0.812241 2.13576 0
M  V30 1275 C 117.985 3.48226 -0.232321 0
M  V30 1276 C 119.333 4.2445 -0.113001 0
M  V30 1277 O 120.357 3.55829 -0.162431 0
M  V30 1278 O 119.216 5.465 0.00209442 0
M  V30 1279 H 116.31 0.826222 0.0358667 0
M  V30 1280 H 118.856 1.55594 -0.6774 0
M  V30 1281 H 117.628 3.70739 -1.25174 0
M  V30 1282 H 117.251 3.95092 0.445896 0
M  V30 1283 N 118.248 0.346503 1.53744 0
M  V30 1284 C 119.497 -0.250122 2.00143 0
M  V30 1285 C 119.81 -1.51418 1.23822 0
M  V30 1286 O 121.016 -2.18823 1.60713 0
M  V30 1287 C 119.472 -0.496252 3.56462 0
M  V30 1288 C 119.08 0.752077 4.41642 0
M  V30 1289 C 120.824 -1.05157 4.11269 0
M  V30 1290 C 118.731 0.476583 5.89477 0
M  V30 1291 H 117.661 -0.0972409 0.747703 0
M  V30 1292 H 120.312 0.46229 1.77581 0
M  V30 1293 H 118.694 -1.26944 3.75102 0
M  V30 1294 H 119.868 1.5266 4.34778 0
M  V30 1295 H 118.183 1.22925 3.97842 0
M  V30 1296 H 120.78 -1.27269 5.19333 0
M  V30 1297 H 121.123 -2.00799 3.64672 0
M  V30 1298 H 121.656 -0.339019 3.96353 0
M  V30 1299 H 118.395 1.4028 6.40314 0
M  V30 1300 H 117.915 -0.259794 5.99237 0
M  V30 1301 H 119.594 0.0949315 6.4693 0
M  V30 1302 N 119.726 -1.57421 0.075193 0
M  V30 1303 C 120.658 -2.09904 -0.920483 0
M  V30 1304 C 121.671 -1.03191 -1.25918 0
M  V30 1305 O 122.86 -1.30695 -1.21577 0
M  V30 1306 C 119.96 -2.54726 -2.23534 0
M  V30 1307 C 119.133 -3.8505 -2.07498 0
M  V30 1308 C 118.192 -4.15929 -3.22319 0
M  V30 1309 O 117.218 -4.85474 -2.9716 0
M  V30 1310 N 118.42 -3.69745 -4.47514 0
M  V30 1311 H 121.185 -2.95954 -0.472359 0
M  V30 1312 H 118.746 -1.61523 -0.110444 0
M  V30 1313 H 120.738 -2.72443 -2.9926 0
M  V30 1314 H 119.308 -1.73795 -2.59835 0
M  V30 1315 H 118.528 -3.76679 -1.16219 0
M  V30 1316 H 119.816 -4.70348 -1.94038 0
M  V30 1317 H 119.214 -3.13569 -4.7084 0
M  V30 1318 H 117.771 -3.92655 -5.20255 0
M  V30 1319 N 121.204 0.198386 -1.56346 0
M  V30 1320 C 122.62 0.549085 -1.49857 0
M  V30 1321 C 122.82 1.86016 -0.774611 0
M  V30 1322 O 121.876 2.50416 -0.323776 0
M  V30 1323 C 123.189 0.606868 -2.94512 0
M  V30 1324 C 124.737 0.695925 -3.05165 0
M  V30 1325 C 125.212 0.784848 -4.51225 0
M  V30 1326 N 126.703 0.848463 -4.55363 0
M  V30 1327 C 127.438 0.937378 -5.65686 0
M  V30 1328 N 126.934 0.9888 -6.85707 0
M  V30 1329 N 128.727 0.974312 -5.53592 0
M  V30 1330 H 120.878 -0.661655 -2.01831 0
M  V30 1331 H 123.141 -0.235261 -0.918344 0
M  V30 1332 H 122.847 -0.28732 -3.50524 0
M  V30 1333 H 122.721 1.46268 -3.47686 0
M  V30 1334 H 125.108 1.58055 -2.49204 0
M  V30 1335 H 125.189 -0.186022 -2.55123 0
M  V30 1336 H 124.833 -0.0954072 -5.0781 0
M  V30 1337 H 124.763 1.68255 -4.98997 0
M  V30 1338 H 127.254 0.818103 -3.68938 0
M  V30 1339 H 127.567 1.05707 -7.65536 0
M  V30 1340 H 125.912 0.957534 -6.88372 0
M  V30 1341 H 129.103 0.930954 -4.58749 0
M  V30 1342 H 129.276 1.04015 -6.39597 0
M  V30 1343 N 122.682 1.50554 0.465978 0
M  V30 1344 C 123.931 1.61038 1.21448 0
M  V30 1345 C 124.244 0.31865 1.92987 0
M  V30 1346 O 125.45 0.302469 2.6981 0
M  V30 1347 C 123.906 2.84283 2.20706 0
M  V30 1348 C 123.514 4.20352 1.54946 0
M  V30 1349 C 125.258 3.04115 2.96166 0
M  V30 1350 C 123.165 5.34778 2.5252 0
M  V30 1351 H 122.095 0.599718 0.457005 0
M  V30 1352 H 124.746 1.7699 0.484424 0
M  V30 1353 H 123.128 2.61901 2.97025 0
M  V30 1354 H 124.302 4.53008 0.843811 0
M  V30 1355 H 122.617 4.06167 0.917475 0
M  V30 1356 H 125.214 3.86774 3.69202 0
M  V30 1357 H 125.557 2.16045 3.55852 0
M  V30 1358 H 126.09 3.26702 2.26959 0
M  V30 1359 H 122.829 6.25018 1.97566 0
M  V30 1360 H 122.349 5.06534 3.21222 0
M  V30 1361 H 124.028 5.65561 3.14245 0
M  V30 1362 N 124.16 -0.719506 1.40217 0
M  V30 1363 C 125.108 -1.85493 1.40339 0
M  V30 1364 C 126.102 -1.66995 0.284415 0
M  V30 1365 O 127.308 -1.74148 0.455252 0
M  V30 1366 H 123.683 -0.610857 0.438586 0
M  V30 1367 H 125.654 -1.82506 2.36081 0
M  V30 1368 C 124.403 -3.23321 1.27901 0
M  V30 1369 H 123.726 -3.38159 2.1328 0
M  V30 1370 H 125.166 -4.02914 1.32045 0
M  V30 1371 C 123.625 -3.36898 -0.0111355 0
M  V30 1372 O 124.155 -3.89674 -0.975538 0
M  V30 1373 N 122.361 -2.90492 -0.0793393 0
M  V30 1374 H 121.908 -2.47731 0.706183 0
M  V30 1375 H 121.866 -2.99955 -0.942038 0
M  V30 1376 N 125.638 -1.25649 -0.95132 0
M  V30 1377 C 126.568 -1.08808 -2.06599 0
M  V30 1378 C 127.549 0.00382547 -1.701 0
M  V30 1379 O 128.734 -0.166325 -1.93486 0
M  V30 1380 C 125.864 -0.709542 -3.39975 0
M  V30 1381 C 124.818 -1.75206 -3.90496 0
M  V30 1382 C 124.144 -1.22811 -5.20405 0
M  V30 1383 C 125.444 -3.15153 -4.16504 0
M  V30 1384 H 127.138 -2.02048 -2.20946 0
M  V30 1385 H 124.684 -0.972835 -1.06169 0
M  V30 1386 H 126.637 -0.578649 -4.17408 0
M  V30 1387 H 125.361 0.258556 -3.25575 0
M  V30 1388 H 124.02 -1.87145 -3.15234 0
M  V30 1389 H 123.668 -0.250145 -5.02378 0
M  V30 1390 H 123.368 -1.92492 -5.55176 0
M  V30 1391 H 124.892 -1.10968 -6.00432 0
M  V30 1392 H 126.306 -3.06349 -4.84586 0
M  V30 1393 H 124.703 -3.82333 -4.62538 0
M  V30 1394 H 125.773 -3.61966 -3.22658 0
M  V30 1395 N 127.117 1.15442 -1.07289 0
M  V30 1396 C 128.364 1.86213 -0.795668 0
M  V30 1397 C 128.692 1.82291 0.678238 0
M  V30 1398 O 127.947 1.24057 1.51355 0
M  V30 1399 C 128.246 3.3489 -1.24834 0
M  V30 1400 C 127.912 3.59007 -2.72809 0
M  V30 1401 C 126.574 3.65298 -3.13227 0
M  V30 1402 C 128.926 3.68762 -3.68326 0
M  V30 1403 C 126.254 3.78854 -4.4798 0
M  V30 1404 C 128.606 3.83842 -5.0284 0
M  V30 1405 C 127.27 3.88378 -5.4288 0
M  V30 1406 H 126.54 0.681403 -0.291155 0
M  V30 1407 H 129.187 1.36435 -1.34379 0
M  V30 1408 H 127.492 3.8687 -0.619595 0
M  V30 1409 H 129.189 3.88052 -1.01076 0
M  V30 1410 H 125.779 3.5475 -2.40521 0
M  V30 1411 H 129.963 3.63202 -3.38227 0
M  V30 1412 H 125.219 3.80623 -4.78472 0
M  V30 1413 H 129.393 3.90332 -5.76727 0
M  V30 1414 H 127.02 3.98635 -6.47298 0
M  V30 1415 N 128.595 0.856903 1.32268 0
M  V30 1416 C 129.872 0.382583 1.91822 0
M  V30 1417 C 130.252 -1.13407 1.78051 0
M  V30 1418 O 129.6 -1.95673 1.18001 0
M  V30 1419 C 129.81 0.849446 3.38505 0
M  V30 1420 C 131.158 0.867936 4.15634 0
M  V30 1421 O 132.182 0.794232 3.47232 0
M  V30 1422 O 131.041 0.972286 5.37781 0
M  V30 1423 H 128.135 0.112014 0.819379 0
M  V30 1424 H 130.681 0.943952 1.41024 0
M  V30 1425 H 129.453 1.89267 3.42482 0
M  V30 1426 H 129.076 0.265652 3.96712 0
M  V30 1427 N 130.073 -1.45103 0.615059 0
M  V30 1428 C 131.298 -2.07064 0.117988 0
M  V30 1429 C 131.723 -1.4554 -1.19163 0
M  V30 1430 O 131.081 -0.550855 -1.72729 0
M  V30 1431 C 131.129 -3.606 -0.000288387 0
M  V30 1432 O 130.233 -3.98847 -1.04856 0
M  V30 1433 H 129.574 -0.659467 0.0774581 0
M  V30 1434 H 132.104 -1.86236 0.847186 0
M  V30 1435 H 132.114 -4.07529 -0.196091 0
M  V30 1436 H 130.789 -4.04765 0.955932 0
M  V30 1437 H 129.366 -3.63577 -0.828619 0
M  V30 1438 N 131.551 -0.354651 -1.53558 0
M  V30 1439 C 132.798 0.238443 -2.01091 0
M  V30 1440 C 133.126 1.49663 -1.24222 0
M  V30 1441 O 132.381 1.93049 -0.321003 0
M  V30 1442 C 132.68 0.587121 -3.52545 0
M  V30 1443 C 132.346 -0.575472 -4.47213 0
M  V30 1444 C 131.008 -0.894497 -4.72813 0
M  V30 1445 C 133.36 -1.35489 -5.03281 0
M  V30 1446 C 130.688 -1.99511 -5.51736 0
M  V30 1447 C 133.04 -2.44583 -5.83405 0
M  V30 1448 C 131.704 -2.77033 -6.07296 0
M  V30 1449 H 130.974 0.0872526 -0.735845 0
M  V30 1450 H 133.621 -0.484859 -1.8526 0
M  V30 1451 H 131.926 1.39129 -3.66265 0
M  V30 1452 H 133.623 1.05809 -3.86789 0
M  V30 1453 H 130.213 -0.316774 -4.27428 0
M  V30 1454 H 134.397 -1.12167 -4.83459 0
M  V30 1455 H 129.653 -2.25063 -5.68469 0
M  V30 1456 H 133.827 -3.05401 -6.25862 0
M  V30 1457 H 131.454 -3.6244 -6.68237 0
M  V30 1458 N 133.029 1.57378 -0.0835403 0
M  V30 1459 C 133.939 2.16897 0.894021 0
M  V30 1460 C 134.955 1.13528 1.31861 0
M  V30 1461 O 136.131 1.45848 1.3889 0
M  V30 1462 C 133.196 2.72831 2.13925 0
M  V30 1463 C 132.257 3.91115 1.76997 0
M  V30 1464 C 131.49 4.44371 2.95584 0
M  V30 1465 O 131.713 3.96596 4.09961 0
M  V30 1466 O 130.647 5.35549 2.74719 0
M  V30 1467 H 134.473 3.00814 0.417679 0
M  V30 1468 H 132.058 1.48741 0.140181 0
M  V30 1469 H 133.94 3.0863 2.86924 0
M  V30 1470 H 132.615 1.91967 2.60635 0
M  V30 1471 H 131.522 3.60148 1.01214 0
M  V30 1472 H 132.855 4.73307 1.3506 0
M  V30 1473 N 134.507 -0.190092 1.56449 0
M  V30 1474 C 135.47 -1.21925 1.9408 0
M  V30 1475 C 136.47 -1.38176 0.822431 0
M  V30 1476 O 137.66 -1.35903 1.08977 0
M  V30 1477 C 134.792 -2.58773 2.21922 0
M  V30 1478 H 135.985 -0.897464 2.86157 0
M  V30 1479 H 133.538 -0.43181 1.50217 0
M  V30 1480 H 134.273 -2.95998 1.32499 0
M  V30 1481 H 134.058 -2.48348 3.03424 0
M  V30 1482 H 135.548 -3.32978 2.52022 0
M  V30 1483 N 135.985 -1.50799 -0.457987 0
M  V30 1484 C 137.21 -1.66496 -1.23668 0
M  V30 1485 C 137.635 -0.353288 -1.84752 0
M  V30 1486 O 136.993 0.684346 -1.67888 0
M  V30 1487 C 137.041 -2.76763 -2.3116 0
M  V30 1488 O 136.145 -2.38928 -3.36136 0
M  V30 1489 H 135.486 -0.555828 -0.363252 0
M  V30 1490 H 138.016 -1.9725 -0.543474 0
M  V30 1491 H 138.026 -3.00232 -2.76269 0
M  V30 1492 H 136.701 -3.71954 -1.86073 0
M  V30 1493 H 135.278 -2.25953 -2.96647 0
M  V30 1494 N 137.463 0.71206 -1.40597 0
M  V30 1495 C 138.879 1.02058 -1.22704 0
M  V30 1496 C 139.079 2.01228 -0.104729 0
M  V30 1497 O 138.135 2.4674 0.53624 0
M  V30 1498 C 139.448 1.56094 -2.57012 0
M  V30 1499 C 140.996 1.6806 -2.64054 0
M  V30 1500 C 141.471 2.25501 -3.9864 0
M  V30 1501 N 142.962 2.32882 -4.004 0
M  V30 1502 C 143.697 2.78317 -5.01325 0
M  V30 1503 N 143.193 3.23478 -6.12645 0
M  V30 1504 N 144.986 2.77733 -4.88693 0
M  V30 1505 H 137.137 0.0547896 -2.12329 0
M  V30 1506 H 139.4 0.0869027 -0.944008 0
M  V30 1507 H 139.106 0.906865 -3.39807 0
M  V30 1508 H 138.98 2.54564 -2.78347 0
M  V30 1509 H 141.367 2.32583 -1.81629 0
M  V30 1510 H 141.448 0.681802 -2.46546 0
M  V30 1511 H 141.092 1.61598 -4.81506 0
M  V30 1512 H 141.022 3.26102 -4.13479 0
M  V30 1513 H 143.513 2.00991 -3.20017 0
M  V30 1514 H 143.826 3.56725 -6.85542 0
M  V30 1515 H 142.171 3.21429 -6.16205 0
M  V30 1516 H 145.362 2.4179 -4.00818 0
M  V30 1517 H 145.535 3.12826 -5.67489 0
M  V30 1518 N 138.941 1.26152 0.944643 0
M  V30 1519 C 140.357 1.03189 1.21754 0
M  V30 1520 C 140.557 -0.245112 2.00004 0
M  V30 1521 O 139.613 -0.955176 2.33736 0
M  V30 1522 C 140.926 2.26119 1.98219 0
M  V30 1523 C 142.474 2.30984 2.11224 0
M  V30 1524 C 142.949 3.53597 2.91089 0
M  V30 1525 N 144.44 3.54053 2.98664 0
M  V30 1526 C 145.175 4.45593 3.60881 0
M  V30 1527 N 144.671 5.47416 4.24626 0
M  V30 1528 N 146.464 4.33252 3.58119 0
M  V30 1529 H 138.615 2.08177 0.421437 0
M  V30 1530 H 140.878 0.914723 0.248969 0
M  V30 1531 H 140.584 3.18984 1.48128 0
M  V30 1532 H 140.458 2.3009 2.98895 0
M  V30 1533 H 142.845 1.38635 2.60508 0
M  V30 1534 H 142.926 2.31026 1.09821 0
M  V30 1535 H 142.57 4.46273 2.42493 0
M  V30 1536 H 142.5 3.50802 3.92741 0
M  V30 1537 H 144.991 2.80403 2.53343 0
M  V30 1538 H 145.304 6.13459 4.69987 0
M  V30 1539 H 143.649 5.51278 4.23223 0
M  V30 1540 H 146.84 3.52924 3.0751 0
M  V30 1541 H 147.013 5.04786 4.06319 0
M  V30 1542 N 140.419 -1.14872 1.07899 0
M  V30 1543 C 141.382 -2.17986 0.708161 0
M  V30 1544 C 142.382 -1.58775 -0.25442 0
M  V30 1545 O 143.572 -1.74166 -0.034645 0
M  V30 1546 C 140.704 -3.40871 0.0446929 0
M  V30 1547 H 141.897 -2.52306 1.62116 0
M  V30 1548 H 139.45 -1.2943 0.876218 0
M  V30 1549 H 140.185 -3.12124 -0.880281 0
M  V30 1550 H 139.97 -3.8511 0.737091 0
M  V30 1551 H 141.46 -4.17121 -0.19991 0
M  V30 1552 N 141.898 -0.863906 -1.31812 0
M  V30 1553 C 143.138 -0.47825 -1.98726 0
M  V30 1554 C 143.502 0.950397 -1.66828 0
M  V30 1555 O 144.703 1.44109 -2.26905 0
M  V30 1556 C 142.974 -0.721134 -3.50049 0
M  V30 1557 S 144.533 -0.434432 -4.36644 0
M  V30 1558 H 141.351 -0.178773 -0.688158 0
M  V30 1559 H 143.953 -1.11862 -1.60334 0
M  V30 1560 H 142.657 -1.75981 -3.70755 0
M  V30 1561 H 142.188 -0.0675315 -3.93342 0
M  V30 1562 H 144.203 0.735786 -4.90714 0
M  V30 1563 N 143.376 1.44774 -0.622745 0
M  V30 1564 C 144.653 1.95522 -0.0551974 0
M  V30 1565 C 145.033 1.5649 1.41683 0
M  V30 1566 O 144.381 0.834848 2.12703 0
M  V30 1567 C 144.591 3.4796 -0.269242 0
M  V30 1568 C 145.939 4.24306 -0.158014 0
M  V30 1569 O 146.963 3.55637 -0.200162 0
M  V30 1570 O 145.822 5.46471 -0.0558693 0
M  V30 1571 H 142.916 0.826556 0.0271015 0
M  V30 1572 H 145.462 1.54866 -0.693864 0
M  V30 1573 H 144.234 3.6939 -1.29099 0
M  V30 1574 H 143.857 3.95543 0.403966 0
M  V30 1575 N 144.854 0.36279 1.53368 0
M  V30 1576 C 145.786 -0.519668 2.23231 0
M  V30 1577 C 146.799 -1.04844 1.24546 0
M  V30 1578 O 147.988 -0.955296 1.50786 0
M  V30 1579 C 145.088 -1.72995 2.9142 0
M  V30 1580 C 144.261 -1.33316 4.16588 0
M  V30 1581 C 143.32 -2.40521 4.68013 0
M  V30 1582 O 142.346 -2.03027 5.3176 0
M  V30 1583 N 143.548 -3.72065 4.45587 0
M  V30 1584 H 146.313 0.078751 2.99597 0
M  V30 1585 H 143.874 0.187833 1.60807 0
M  V30 1586 H 145.866 -2.44184 3.22733 0
M  V30 1587 H 144.436 -2.2353 2.18525 0
M  V30 1588 H 143.656 -0.451236 3.91609 0
M  V30 1589 H 144.944 -1.04432 4.97967 0
M  V30 1590 H 144.342 -4.05304 3.94646 0
M  V30 1591 H 142.899 -4.39366 4.81457 0
M  V30 1592 N 146.332 -1.57332 0.0918853 0
M  V30 1593 C 147.262 -2.16872 -0.865371 0
M  V30 1594 C 148.243 -1.10118 -1.29646 0
M  V30 1595 O 149.428 -1.38242 -1.36392 0
M  V30 1596 C 146.558 -2.74649 -2.12569 0
M  V30 1597 C 145.512 -3.86747 -1.83333 0
M  V30 1598 C 144.838 -4.31212 -3.16166 0
M  V30 1599 C 146.138 -5.10089 -1.1228 0
M  V30 1600 H 147.832 -2.97114 -0.369307 0
M  V30 1601 H 145.378 -1.42918 -0.176194 0
M  V30 1602 H 147.331 -3.14952 -2.7997 0
M  V30 1603 H 146.055 -1.91657 -2.64452 0
M  V30 1604 H 144.714 -3.46978 -1.18331 0
M  V30 1605 H 144.362 -3.45115 -3.6593 0
M  V30 1606 H 144.062 -5.06788 -2.97388 0
M  V30 1607 H 145.586 -4.74146 -3.84731 0
M  V30 1608 H 147 -5.47582 -1.69785 0
M  V30 1609 H 145.397 -5.91073 -1.03693 0
M  V30 1610 H 146.467 -4.84786 -0.105041 0
M  V30 1611 N 147.81 0.181792 -1.56548 0
M  V30 1612 C 148.773 1.20894 -1.94724 0
M  V30 1613 C 149.773 1.37738 -0.829747 0
M  V30 1614 O 150.963 1.35323 -1.09697 0
M  V30 1615 C 148.095 2.57593 -2.23291 0
M  V30 1616 H 149.288 0.882275 -2.86629 0
M  V30 1617 H 146.841 0.423838 -1.50444 0
M  V30 1618 H 147.576 2.95291 -1.34067 0
M  V30 1619 H 147.361 2.46735 -3.04736 0
M  V30 1620 H 148.851 3.31637 -2.53785 0
M  V30 1621 N 149.288 1.51039 0.449983 0
M  V30 1622 C 150.218 1.74379 1.55288 0
M  V30 1623 C 151.199 0.593236 1.5942 0
M  V30 1624 O 152.384 0.834625 1.7535 0
M  V30 1625 C 149.514 1.85728 2.93466 0
M  V30 1626 C 148.468 3.01078 3.04197 0
M  V30 1627 C 147.794 2.97595 4.44231 0
M  V30 1628 C 149.094 4.41254 2.7945 0
M  V30 1629 H 150.788 2.66725 1.36008 0
M  V30 1630 H 148.334 1.2835 0.652864 0
M  V30 1631 H 150.287 2.0064 3.70569 0
M  V30 1632 H 149.011 0.900207 3.13949 0
M  V30 1633 H 147.67 2.85851 2.29531 0
M  V30 1634 H 147.318 1.99691 4.61663 0
M  V30 1635 H 147.018 3.75046 4.52343 0
M  V30 1636 H 148.542 3.14583 5.23326 0
M  V30 1637 H 149.956 4.56897 3.46292 0
M  V30 1638 H 148.353 5.20315 2.98985 0
M  V30 1639 H 149.423 4.52164 1.75144 0
M  V30 1640 N 150.766 -0.704594 1.40972 0
M  V30 1641 C 152.014 -1.46169 1.39568 0
M  V30 1642 C 152.335 -1.95 0.00253745 0
M  V30 1643 O 151.605 -1.71095 -0.954114 0
M  V30 1644 H 150.185 -0.542326 0.513704 0
M  V30 1645 H 152.847 -0.834553 1.76128 0
M  V30 1646 H 151.943 -2.32922 2.07735 0
M  V30 1647 N 152.244 -1.26651 -0.937939 0
M  V30 1648 C 153.49 -1.12553 -1.687 0
M  V30 1649 C 153.823 0.329782 -1.91379 0
M  V30 1650 O 153.098 1.24202 -1.4968 0
M  V30 1651 C 153.381 -1.89862 -3.05981 0
M  V30 1652 C 153.234 -3.43318 -2.90607 0
M  V30 1653 C 154.553 -1.69499 -4.0615 0
M  V30 1654 H 151.672 -0.410257 -0.612257 0
M  V30 1655 H 154.314 -1.55685 -1.08913 0
M  V30 1656 H 152.464 -1.53204 -3.57017 0
M  V30 1657 H 154.136 -3.89747 -2.46769 0
M  V30 1658 H 152.379 -3.70179 -2.26164 0
M  V30 1659 H 153.05 -3.92642 -3.8799 0
M  V30 1660 H 155.526 -2.01442 -3.64088 0
M  V30 1661 H 154.402 -2.26002 -5.00214 0
M  V30 1662 H 154.663 -0.640365 -4.37438 0
M  V30 1663 N 153.722 1.14298 -1.08507 0
M  V30 1664 C 154.685 2.17607 -0.719711 0
M  V30 1665 C 155.685 1.58907 0.245997 0
M  V30 1666 O 156.875 1.74181 0.0254081 0
M  V30 1667 C 154.007 3.40842 -0.0627695 0
M  V30 1668 H 155.2 2.51443 -1.63452 0
M  V30 1669 H 152.753 1.28963 -0.88307 0
M  V30 1670 H 153.488 3.12587 0.863716 0
M  V30 1671 H 153.273 3.84713 -0.757504 0
M  V30 1672 H 154.763 4.17221 0.177786 0
M  V30 1673 N 155.201 0.870884 1.31352 0
M  V30 1674 C 156.164 0.332243 2.26779 0
M  V30 1675 C 157.164 -0.517302 1.52252 0
M  V30 1676 O 158.354 -0.326477 1.71113 0
M  V30 1677 C 155.486 -0.528066 3.36785 0
M  V30 1678 H 156.679 1.17469 2.75937 0
M  V30 1679 H 154.232 0.64655 1.423 0
M  V30 1680 H 154.967 -1.39167 2.92922 0
M  V30 1681 H 154.752 0.0802582 3.92018 0
M  V30 1682 H 156.242 -0.897179 4.07849 0
M  V30 1683 N 156.679 -1.44442 0.630414 0
M  V30 1684 C 157.609 -2.33418 -0.0618083 0
M  V30 1685 C 158.59 -1.48165 -0.835541 0
M  V30 1686 O 159.775 -1.76886 -0.801564 0
M  V30 1687 C 156.905 -3.31222 -1.04449 0
M  V30 1688 C 155.859 -4.26288 -0.382436 0
M  V30 1689 C 155.185 -5.13954 -1.47497 0
M  V30 1690 C 156.485 -5.1744 0.710865 0
M  V30 1691 H 158.179 -2.91548 0.681184 0
M  V30 1692 H 155.725 -1.40191 0.329026 0
M  V30 1693 H 157.678 -3.92351 -1.53748 0
M  V30 1694 H 156.402 -2.71299 -1.81836 0
M  V30 1695 H 155.061 -3.6649 0.0899054 0
M  V30 1696 H 154.709 -4.50385 -2.2397 0
M  V30 1697 H 154.409 -5.7837 -1.03737 0
M  V30 1698 H 155.933 -5.77955 -1.96979 0
M  V30 1699 H 157.347 -5.72509 0.300996 0
M  V30 1700 H 155.744 -5.90455 1.07156 0
M  V30 1701 H 156.814 -4.58496 1.57829 0
M  V30 1702 N 158.157 -0.370918 -1.53173 0
M  V30 1703 C 159.404 0.217102 -2.01333 0
M  V30 1704 C 159.732 1.48338 -1.25802 0
M  V30 1705 O 158.987 1.92698 -0.34146 0
M  V30 1706 C 159.286 0.549696 -3.53147 0
M  V30 1707 C 158.952 -0.622872 -4.46577 0
M  V30 1708 C 157.614 -0.944595 -4.71838 0
M  V30 1709 C 159.966 -1.40819 -5.01816 0
M  V30 1710 C 157.294 -2.05351 -5.49589 0
M  V30 1711 C 159.646 -2.50757 -5.80778 0
M  V30 1712 C 158.31 -2.83458 -6.04324 0
M  V30 1713 H 157.58 0.0794431 -0.736729 0
M  V30 1714 H 160.227 -0.504481 -1.84736 0
M  V30 1715 H 158.532 1.35237 -3.6772 0
M  V30 1716 H 160.229 1.017 -3.87889 0
M  V30 1717 H 156.819 -0.36209 -4.27068 0
M  V30 1718 H 161.003 -1.17289 -4.82242 0
M  V30 1719 H 156.259 -2.3108 -5.6605 0
M  V30 1720 H 160.433 -3.12022 -6.22588 0
M  V30 1721 H 158.06 -3.69508 -6.64355 0
M  V30 1722 N 159.635 1.57281 -0.100228 0
M  V30 1723 C 160.883 1.94153 0.561157 0
M  V30 1724 C 161.204 0.983157 1.68401 0
M  V30 1725 O 160.474 0.0361132 1.95867 0
M  V30 1726 H 159.054 0.716791 0.210283 0
M  V30 1727 H 161.716 1.94202 -0.164765 0
M  V30 1728 H 160.812 2.96709 0.968008 0
M  V30 1729 N 161.113 -0.173488 1.56642 0
M  V30 1730 C 162.524 -0.736155 1.71574 0
M  V30 1731 C 162.875 -1.82888 0.710389 0
M  V30 1732 O 162 -2.16017 -0.1287 0
M  V30 1733 C 162.595 -1.34211 3.11083 0
M  V30 1734 C 161.154 -1.85162 3.27707 0
M  V30 1735 C 160.301 -0.729765 2.67525 0
M  V30 1736 H 163.252 0.0518786 1.58615 0
M  V30 1737 H 163.273 -2.21178 3.09613 0
M  V30 1738 H 162.785 -0.546579 3.84232 0
M  V30 1739 H 160.886 -2.67366 2.59512 0
M  V30 1740 H 160.999 -1.99855 4.35425 0
M  V30 1741 H 159.363 -1.14965 2.27278 0
M  V30 1742 H 160.146 0.0538806 3.43258 0
M  V30 1743 N 162.591 -1.51276 -0.441967 0
M  V30 1744 C 163.816 -1.67799 -1.21895 0
M  V30 1745 C 164.241 -0.372864 -1.84367 0
M  V30 1746 O 163.599 0.666501 -1.68604 0
M  V30 1747 C 163.647 -2.79199 -2.28211 0
M  V30 1748 O 162.751 -2.42479 -3.33583 0
M  V30 1749 H 162.092 -0.559649 -0.357336 0
M  V30 1750 H 164.622 -1.97815 -0.522522 0
M  V30 1751 H 164.632 -3.03146 -2.73069 0
M  V30 1752 H 163.307 -3.73906 -1.82118 0
M  V30 1753 H 161.884 -2.29087 -2.94234 0
M  V30 1754 N 164.069 0.697108 -1.41344 0
M  V30 1755 C 165.019 1.80313 -1.39539 0
M  V30 1756 C 166.003 1.58618 -0.270001 0
M  V30 1757 O 167.195 1.69477 -0.510551 0
M  V30 1758 C 164.324 3.18606 -1.27848 0
M  V30 1759 C 163.41 3.46001 -2.45244 0
M  V30 1760 N 163.801 3.44103 -3.70711 0
M  V30 1761 C 162.099 3.76542 -2.39023 0
M  V30 1762 C 162.8 3.7036 -4.48563 0
M  V30 1763 N 161.776 3.90027 -3.78655 0
M  V30 1764 H 165.578 1.77207 -2.34468 0
M  V30 1765 H 163.092 0.897031 -1.35378 0
M  V30 1766 H 165.089 3.97833 -1.24637 0
M  V30 1767 H 163.749 3.22925 -0.339032 0
M  V30 1768 H 164.76 3.2452 -4.03618 0
M  V30 1769 H 161.437 3.88241 -1.53542 0
M  V30 1770 H 162.827 3.75042 -5.57488 0
M  V30 1771 N 165.547 1.27147 0.931209 0
M  V30 1772 C 166.772 1.16191 1.71797 0
M  V30 1773 C 167.197 -0.278004 1.86034 0
M  V30 1774 O 166.555 -1.20137 1.35782 0
M  V30 1775 C 166.603 1.84673 3.09723 0
M  V30 1776 O 165.707 1.14231 3.96264 0
M  V30 1777 H 165.048 0.404303 0.526721 0
M  V30 1778 H 167.578 1.68152 1.1656 0
M  V30 1779 H 167.588 1.91893 3.60057 0
M  V30 1780 H 166.263 2.89421 2.98677 0
M  V30 1781 H 164.84 1.15056 3.54706 0
M  V30 1782 N 167.025 -1.13721 1.09112 0
M  V30 1783 C 168.25 -1.89314 0.847053 0
M  V30 1784 C 168.675 -1.78416 -0.595774 0
M  V30 1785 O 168.033 -1.12942 -1.41823 0
M  V30 1786 C 168.081 -3.3701 1.28284 0
M  V30 1787 O 167.185 -4.10054 0.439267 0
M  V30 1788 H 166.526 -0.588745 0.307044 0
M  V30 1789 H 169.056 -1.43902 1.45442 0
M  V30 1790 H 169.066 -3.87834 1.26683 0
M  V30 1791 H 167.741 -3.4426 2.33363 0
M  V30 1792 H 166.318 -3.69266 0.519312 0
M  V30 1793 N 168.503 -0.877838 -1.30888 0
M  V30 1794 C 169.728 -0.506629 -2.01117 0
M  V30 1795 C 170.153 0.895564 -1.65412 0
M  V30 1796 O 169.511 1.5923 -0.866922 0
M  V30 1797 C 169.559 -0.680223 -3.54126 0
M  V30 1798 O 168.663 0.277033 -4.11468 0
M  V30 1799 H 168.004 -0.200518 -0.633 0
M  V30 1800 H 170.534 -1.18342 -1.66902 0
M  V30 1801 H 170.544 -0.5765 -4.03907 0
M  V30 1802 H 169.219 -1.70261 -3.79452 0
M  V30 1803 H 167.796 0.127606 -3.72682 0
M  V30 1804 N 169.982 1.44106 -0.638065 0
M  V30 1805 C 171.228 2.02277 -0.145546 0
M  V30 1806 C 171.561 1.50125 1.23191 0
M  V30 1807 O 170.836 0.688133 1.8192 0
M  V30 1808 C 171.119 3.59829 -0.139791 0
M  V30 1809 C 170.972 4.22247 -1.55008 0
M  V30 1810 C 172.291 4.36873 0.531966 0
M  V30 1811 H 169.41 0.734992 -0.0543632 0
M  V30 1812 H 172.052 1.71592 -0.815863 0
M  V30 1813 H 170.202 3.86102 0.431007 0
M  V30 1814 H 171.874 4.07057 -2.1703 0
M  V30 1815 H 170.117 3.79476 -2.10191 0
M  V30 1816 H 170.788 5.31284 -1.49804 0
M  V30 1817 H 173.264 4.16074 0.0464781 0
M  V30 1818 H 172.14 5.4657 0.505206 0
M  V30 1819 H 172.401 4.11995 1.60352 0
M  V30 1820 N 171.46 0.379036 1.52974 0
M  V30 1821 C 172.685 -0.209353 2.06341 0
M  V30 1822 C 173.11 -1.40583 1.24972 0
M  V30 1823 O 172.468 -1.79246 0.272155 0
M  V30 1824 C 172.516 -0.567786 3.56102 0
M  V30 1825 O 171.62 -1.66318 3.77375 0
M  V30 1826 H 170.961 -0.0272919 0.663439 0
M  V30 1827 H 173.491 0.543536 1.97248 0
M  V30 1828 H 173.501 -0.835003 3.99364 0
M  V30 1829 H 172.176 0.307013 4.14765 0
M  V30 1830 H 170.753 -1.39048 3.46006 0
M  V30 1831 N 172.938 -1.57226 0.108567 0
M  V30 1832 C 173.901 -2.13602 -0.831082 0
M  V30 1833 C 174.901 -1.06841 -1.20173 0
M  V30 1834 O 176.091 -1.32666 -1.12895 0
M  V30 1835 C 173.223 -2.66769 -2.12243 0
M  V30 1836 H 174.416 -2.97951 -0.341317 0
M  V30 1837 H 171.969 -1.55667 -0.14057 0
M  V30 1838 H 172.704 -1.85977 -2.65675 0
M  V30 1839 H 172.489 -3.44839 -1.86625 0
M  V30 1840 H 173.979 -3.10332 -2.79435 0
M  V30 1841 N 174.416 0.165178 -1.56732 0
M  V30 1842 C 175.662 0.882112 -1.82611 0
M  V30 1843 C 175.995 1.81628 -0.687378 0
M  V30 1844 O 175.27 1.92009 0.310267 0
M  V30 1845 C 175.553 1.67245 -3.18906 0
M  V30 1846 C 175.406 0.760987 -4.43316 0
M  V30 1847 C 176.725 2.63884 -3.52212 0
M  V30 1848 H 173.844 0.319242 -0.664269 0
M  V30 1849 H 176.486 0.148052 -1.89422 0
M  V30 1850 H 174.636 2.29824 -3.1323 0
M  V30 1851 H 176.308 0.147596 -4.61064 0
M  V30 1852 H 174.551 0.0694102 -4.33744 0
M  V30 1853 H 175.222 1.34962 -5.35247 0
M  V30 1854 H 177.698 2.11429 -3.58381 0
M  V30 1855 H 176.574 3.16245 -4.48643 0
M  V30 1856 H 176.835 3.44377 -2.77231 0
M  V30 1857 N 175.894 1.51508 0.433938 0
M  V30 1858 C 176.826 1.69266 1.54537 0
M  V30 1859 C 177.839 0.573276 1.52373 0
M  V30 1860 O 179.028 0.847698 1.57087 0
M  V30 1861 C 176.128 1.69524 2.93453 0
M  V30 1862 C 175.301 2.98101 3.20085 0
M  V30 1863 C 174.36 2.90502 4.38742 0
M  V30 1864 O 173.386 3.64442 4.3723 0
M  V30 1865 N 174.588 2.06586 5.42496 0
M  V30 1866 H 177.353 2.65145 1.39708 0
M  V30 1867 H 174.914 1.49437 0.622922 0
M  V30 1868 H 176.906 1.62004 3.70859 0
M  V30 1869 H 175.476 0.812245 3.01863 0
M  V30 1870 H 174.696 3.19464 2.30947 0
M  V30 1871 H 175.984 3.83207 3.34708 0
M  V30 1872 H 175.382 1.45896 5.46563 0
M  V30 1873 H 173.939 2.04943 6.18742 0
M  V30 1874 N 177.372 -0.689602 1.41712 0
M  V30 1875 C 178.597 -1.48329 1.44959 0
M  V30 1876 C 179.022 -1.8801 0.0581283 0
M  V30 1877 O 178.38 -1.55026 -0.940035 0
M  V30 1878 C 178.428 -2.71835 2.36935 0
M  V30 1879 O 177.532 -3.69549 1.8305 0
M  V30 1880 H 176.873 -0.446199 0.491734 0
M  V30 1881 H 179.403 -0.847127 1.86239 0
M  V30 1882 H 179.413 -3.20076 2.53013 0
M  V30 1883 H 178.088 -2.42291 3.38035 0
M  V30 1884 H 176.665 -3.2851 1.76452 0
M  V30 1885 N 178.85 -1.27639 -0.924453 0
M  V30 1886 C 180.099 -1.13549 -1.66702 0
M  V30 1887 C 180.412 0.317487 -1.93006 0
M  V30 1888 O 181.618 0.579333 -2.65247 0
M  V30 1889 C 180.074 -1.98426 -3.00259 0
M  V30 1890 C 179.682 -3.484 -2.81641 0
M  V30 1891 C 181.426 -1.92993 -3.78092 0
M  V30 1892 C 179.333 -4.25464 -4.10773 0
M  V30 1893 H 178.263 -0.421351 -0.625283 0
M  V30 1894 H 180.914 -1.52085 -1.02676 0
M  V30 1895 H 179.296 -1.52736 -3.6536 0
M  V30 1896 H 180.47 -4.01973 -2.25287 0
M  V30 1897 H 178.785 -3.55245 -2.17232 0
M  V30 1898 H 181.382 -2.47844 -4.7379 0
M  V30 1899 H 181.725 -0.904281 -4.0636 0
M  V30 1900 H 182.258 -2.36595 -3.19793 0
M  V30 1901 H 178.997 -5.28566 -3.87683 0
M  V30 1902 H 178.517 -3.76667 -4.66779 0
M  V30 1903 H 180.196 -4.34812 -4.79111 0
M  V30 1904 N 180.328 1.1314 -1.09713 0
M  V30 1905 C 181.568 1.8613 -0.844683 0
M  V30 1906 C 181.932 1.81765 0.618491 0
M  V30 1907 O 183.133 2.50024 0.98699 0
M  V30 1908 C 181.404 3.30151 -1.36877 0
M  V30 1909 S 182.963 4.206 -1.25064 0
M  V30 1910 H 179.781 0.642056 -0.305427 0
M  V30 1911 H 182.383 1.36343 -1.4011 0
M  V30 1912 H 181.087 3.30883 -2.42786 0
M  V30 1913 H 180.618 3.85 -0.808614 0
M  V30 1914 H 182.633 4.95783 -0.203486 0
M  V30 1915 N 181.806 0.884767 1.30421 0
M  V30 1916 C 182.754 0.340869 2.30089 0
M  V30 1917 C 183.748 -0.55201 1.60154 0
M  V30 1918 O 184.954 -0.436467 1.74628 0
M  V30 1919 H 181.329 0.0915739 0.746404 0
M  V30 1920 H 183.3 1.19513 2.73421 0
M  V30 1921 C 182.049 -0.429779 3.45034 0
M  V30 1922 H 181.372 0.248024 3.9903 0
M  V30 1923 H 182.812 -0.775445 4.16849 0
M  V30 1924 C 181.271 -1.62677 2.95022 0
M  V30 1925 O 181.801 -2.72614 2.95033 0
M  V30 1926 N 180.007 -1.46387 2.51036 0
M  V30 1927 H 179.554 -0.569506 2.51226 0
M  V30 1928 H 179.512 -2.26612 2.17932 0
M  V30 1929 N 183.284 -1.43765 0.645699 0
M  V30 1930 C 184.247 -2.29163 -0.0409488 0
M  V30 1931 C 185.247 -1.41813 -0.757996 0
M  V30 1932 O 186.437 -1.63527 -0.600382 0
M  V30 1933 C 183.569 -3.23716 -1.06869 0
M  V30 1934 H 184.762 -2.91366 0.710345 0
M  V30 1935 H 182.315 -1.5092 0.406547 0
M  V30 1936 H 183.05 -2.66393 -1.84947 0
M  V30 1937 H 182.835 -3.88105 -0.558277 0
M  V30 1938 H 184.325 -3.87831 -1.54845 0
M  V30 1939 N 184.763 -0.387143 -1.52771 0
M  V30 1940 C 185.693 0.440551 -2.29306 0
M  V30 1941 C 186.674 1.06535 -1.32606 0
M  V30 1942 O 187.859 1.07853 -1.61497 0
M  V30 1943 C 184.989 1.56919 -3.09829 0
M  V30 1944 C 183.943 1.07054 -4.14395 0
M  V30 1945 C 183.269 2.29109 -4.83129 0
M  V30 1946 C 184.569 0.140015 -5.22112 0
M  V30 1947 H 186.263 -0.198026 -2.98744 0
M  V30 1948 H 183.809 -0.09668 -1.43675 0
M  V30 1949 H 185.762 2.15503 -3.62128 0
M  V30 1950 H 184.486 2.23532 -2.3812 0
M  V30 1951 H 183.145 0.507247 -3.63074 0
M  V30 1952 H 182.793 2.94227 -4.0797 0
M  V30 1953 H 182.493 1.96406 -5.53804 0
M  V30 1954 H 184.017 2.88339 -5.38231 0
M  V30 1955 H 185.431 0.633978 -5.69784 0
M  V30 1956 H 183.828 -0.0971485 -6.00021 0
M  V30 1957 H 184.898 -0.811711 -4.78058 0
M  V30 1958 N 186.241 1.57166 -0.116904 0
M  V30 1959 C 187.151 2.18745 0.847812 0
M  V30 1960 C 188.167 1.163 1.29423 0
M  V30 1961 O 189.343 1.48761 1.35765 0
M  V30 1962 C 186.408 2.77307 2.0809 0
M  V30 1963 C 185.469 3.94781 1.68661 0
M  V30 1964 C 184.702 4.50541 2.86091 0
M  V30 1965 O 184.925 4.05202 4.01456 0
M  V30 1966 O 183.859 5.41256 2.63298 0
M  V30 1967 H 187.685 3.01632 0.353778 0
M  V30 1968 H 185.27 1.49005 0.108599 0
M  V30 1969 H 187.152 3.14647 2.80313 0
M  V30 1970 H 185.827 1.97452 2.56504 0
M  V30 1971 H 184.734 3.62214 0.935518 0
M  V30 1972 H 186.067 4.76065 1.24991 0
M  V30 1973 N 187.719 -0.156864 1.56817 0
M  V30 1974 C 188.965 -0.872416 1.83076 0
M  V30 1975 C 189.298 -1.81261 0.697001 0
M  V30 1976 O 188.573 -1.92171 -0.30008 0
M  V30 1977 C 188.856 -1.65551 3.19789 0
M  V30 1978 C 188.709 -0.737467 4.43713 0
M  V30 1979 C 190.028 -2.62012 3.53606 0
M  V30 1980 H 187.147 -0.315715 0.665953 0
M  V30 1981 H 189.789 -0.138004 1.89498 0
M  V30 1982 H 187.939 -2.28159 3.14445 0
M  V30 1983 H 189.611 -0.123143 4.61136 0
M  V30 1984 H 187.854 -0.0464067 4.33775 0
M  V30 1985 H 188.525 -1.32122 5.35955 0
M  V30 1986 H 191.001 -2.09525 3.59497 0
M  V30 1987 H 189.877 -3.13861 4.50314 0
M  V30 1988 H 190.138 -3.42902 2.79053 0
M  V30 1989 N 189.197 -1.51736 -0.425897 0
M  V30 1990 C 190.608 -1.5732 -1.00536 0
M  V30 1991 C 190.959 -0.403537 -1.92005 0
M  V30 1992 O 190.084 0.478256 -2.11049 0
M  V30 1993 C 190.679 -2.85119 -1.8301 0
M  V30 1994 C 189.238 -2.93236 -2.35987 0
M  V30 1995 C 188.385 -2.52098 -1.15508 0
M  V30 1996 H 191.336 -1.57348 -0.206739 0
M  V30 1997 H 191.357 -2.69526 -2.68581 0
M  V30 1998 H 190.869 -3.7023 -1.16411 0
M  V30 1999 H 188.97 -2.12581 -3.06007 0
M  V30 2000 H 189.083 -3.9713 -2.68001 0
M  V30 2001 H 187.447 -2.05558 -1.50393 0
M  V30 2002 H 188.23 -3.39565 -0.505014 0
M  V30 2003 N 190.675 0.682077 -1.42076 0
M  V30 2004 C 191.625 1.78823 -1.41444 0
M  V30 2005 C 192.609 1.58323 -0.28681 0
M  V30 2006 O 193.801 1.68926 -0.528498 0
M  V30 2007 C 190.93 3.17232 -1.3122 0
M  V30 2008 C 190.016 3.4338 -2.489 0
M  V30 2009 N 190.407 3.40152 -3.7434 0
M  V30 2010 C 188.705 3.73986 -2.43003 0
M  V30 2011 C 189.406 3.65581 -4.52466 0
M  V30 2012 N 188.382 3.85989 -3.8277 0
M  V30 2013 H 192.184 1.7471 -2.36334 0
M  V30 2014 H 189.698 0.882622 -1.36321 0
M  V30 2015 H 191.695 3.96489 -1.2885 0
M  V30 2016 H 190.355 3.22547 -0.373263 0
M  V30 2017 H 191.366 3.20221 -4.07037 0
M  V30 2018 H 188.043 3.86591 -1.57651 0
M  V30 2019 H 189.433 3.69108 -5.61435 0
M  V30 2020 N 192.153 1.28127 0.917671 0
M  V30 2021 C 193.402 1.14432 1.66097 0
M  V30 2022 C 193.715 -0.307247 1.93172 0
M  V30 2023 O 194.921 -0.565259 2.65551 0
M  V30 2024 C 193.377 2.00015 2.99202 0
M  V30 2025 C 192.985 3.49889 2.79789 0
M  V30 2026 C 194.729 1.94996 3.77064 0
M  V30 2027 C 192.636 4.27636 4.08511 0
M  V30 2028 H 191.566 0.424662 0.62304 0
M  V30 2029 H 194.217 1.52628 1.01868 0
M  V30 2030 H 192.599 1.54672 3.64544 0
M  V30 2031 H 193.773 4.03162 2.23152 0
M  V30 2032 H 192.088 3.56392 2.15345 0
M  V30 2033 H 194.685 2.50354 4.72469 0
M  V30 2034 H 195.028 0.925819 4.05875 0
M  V30 2035 H 195.561 2.38287 3.18534 0
M  V30 2036 H 192.3 5.30615 3.84874 0
M  V30 2037 H 191.82 3.79137 4.64774 0
M  V30 2038 H 193.499 4.37346 4.76799 0
M  V30 2039 N 193.631 -1.12557 1.10312 0
M  V30 2040 C 194.563 -2.17971 0.708625 0
M  V30 2041 C 195.576 -1.60806 -0.254027 0
M  V30 2042 O 196.765 -1.78458 -0.0386891 0
M  V30 2043 C 193.865 -3.38891 0.0248198 0
M  V30 2044 C 193.038 -4.25548 1.01132 0
M  V30 2045 C 192.097 -5.24972 0.35924 0
M  V30 2046 O 191.123 -5.60174 1.00965 0
M  V30 2047 N 192.325 -5.73747 -0.882847 0
M  V30 2048 H 195.09 -2.52427 1.61557 0
M  V30 2049 H 192.651 -1.27967 0.991771 0
M  V30 2050 H 194.643 -4.02485 -0.422852 0
M  V30 2051 H 193.213 -3.02596 -0.784514 0
M  V30 2052 H 192.433 -3.58589 1.6373 0
M  V30 2053 H 193.721 -4.80294 1.67914 0
M  V30 2054 H 193.119 -5.4731 -1.43065 0
M  V30 2055 H 191.676 -6.39234 -1.27369 0
M  V30 2056 N 195.109 -0.891671 -1.2995 0
M  V30 2057 C 196.337 -0.52866 -2.00032 0
M  V30 2058 C 196.752 0.884574 -1.66795 0
M  V30 2059 O 196.109 1.5827 -0.908669 0
M  V30 2060 C 196.16 -0.701814 -3.54622 0
M  V30 2061 O 195.881 -2.05942 -3.86678 0
M  V30 2062 C 197.382 -0.342683 -4.41973 0
M  V30 2063 H 194.602 -0.203659 -0.639347 0
M  V30 2064 H 197.146 -1.19881 -1.65677 0
M  V30 2065 H 195.301 -0.0789468 -3.8732 0
M  V30 2066 H 195.715 -2.08291 -4.81368 0
M  V30 2067 H 197.189 -0.514709 -5.49595 0
M  V30 2068 H 197.666 0.71975 -4.33262 0
M  V30 2069 H 198.272 -0.942154 -4.14733 0
M  V30 2070 N 196.587 1.43421 -0.653314 0
M  V30 2071 C 198.003 1.56341 -0.320886 0
M  V30 2072 C 198.203 1.63696 1.17499 0
M  V30 2073 O 197.259 1.59208 1.95982 0
M  V30 2074 C 198.572 2.82424 -1.03233 0
M  V30 2075 C 200.12 2.96168 -1.01259 0
M  V30 2076 C 200.595 4.25084 -1.70492 0
M  V30 2077 N 202.086 4.31948 -1.67257 0
M  V30 2078 C 202.821 5.30466 -2.17701 0
M  V30 2079 N 202.317 6.35261 -2.76434 0
M  V30 2080 N 204.11 5.2212 -2.082 0
M  V30 2081 H 196.261 1.3689 -1.62403 0
M  V30 2082 H 198.524 0.657455 -0.682977 0
M  V30 2083 H 198.23 2.83053 -2.08744 0
M  V30 2084 H 198.104 3.72653 -0.583948 0
M  V30 2085 H 200.491 2.9508 0.0341235 0
M  V30 2086 H 200.572 2.07229 -1.49966 0
M  V30 2087 H 200.216 4.26932 -2.7512 0
M  V30 2088 H 200.146 5.1292 -1.19251 0
M  V30 2089 H 202.637 3.56838 -1.24398 0
M  V30 2090 H 202.95 7.06754 -3.12601 0
M  V30 2091 H 201.295 6.35884 -2.80495 0
M  V30 2092 H 204.486 4.39166 -1.62021 0
M  V30 2093 H 204.659 5.98739 -2.47822 0
M  V30 2094 N 198.065 0.39524 1.52563 0
M  V30 2095 C 199.311 -0.177763 2.02622 0
M  V30 2096 C 199.666 -1.43974 1.27629 0
M  V30 2097 O 198.959 -1.87995 0.36992 0
M  V30 2098 C 199.153 -0.493444 3.53977 0
M  V30 2099 C 198.982 0.736392 4.4363 0
M  V30 2100 C 197.752 1.25744 4.89404 0
M  V30 2101 C 199.95 1.61046 4.88435 0
M  V30 2102 N 197.932 2.44421 5.63145 0
M  V30 2103 C 199.303 2.64359 5.60816 0
M  V30 2104 C 201.358 1.62985 4.70468 0
M  V30 2105 C 200.061 3.69505 6.17137 0
M  V30 2106 C 202.087 2.67042 5.27677 0
M  V30 2107 C 201.449 3.69077 5.99968 0
M  V30 2108 H 197.548 -0.0269794 0.781534 0
M  V30 2109 H 200.132 0.546466 1.86874 0
M  V30 2110 H 198.303 -1.18672 3.69826 0
M  V30 2111 H 200.035 -1.05412 3.90731 0
M  V30 2112 H 196.79 0.817546 4.6649 0
M  V30 2113 H 197.214 3.04485 6.04663 0
M  V30 2114 H 201.856 0.854442 4.14076 0
M  V30 2115 H 199.574 4.4791 6.72608 0
M  V30 2116 H 203.16 2.69433 5.15652 0
M  V30 2117 H 202.04 4.48273 6.43444 0
M  V30 2118 N 199.544 -1.57102 0.125237 0
M  V30 2119 C 200.491 -2.15641 -0.822655 0
M  V30 2120 C 201.461 -1.08313 -1.25927 0
M  V30 2121 O 202.646 -1.36251 -1.33567 0
M  V30 2122 C 199.786 -2.76504 -2.06494 0
M  V30 2123 C 198.899 -3.98158 -1.67612 0
M  V30 2124 C 198.034 -4.47088 -2.86854 0
M  V30 2125 C 197.073 -5.6126 -2.44242 0
M  V30 2126 N 196.21 -6.04905 -3.56419 0
M  V30 2127 H 201.05 -2.96313 -0.316625 0
M  V30 2128 H 198.587 -1.46388 -0.144588 0
M  V30 2129 H 200.545 -3.09925 -2.79289 0
M  V30 2130 H 199.175 -1.98512 -2.54545 0
M  V30 2131 H 198.227 -3.70858 -0.846661 0
M  V30 2132 H 199.539 -4.80934 -1.32301 0
M  V30 2133 H 198.693 -4.82451 -3.67867 0
M  V30 2134 H 197.432 -3.63275 -3.25396 0
M  V30 2135 H 196.437 -5.25495 -1.61663 0
M  V30 2136 H 197.662 -6.46843 -2.0681 0
M  V30 2137 H 195.608 -5.24032 -3.94623 0
M  V30 2138 H 195.525 -6.82552 -3.25051 0
M  V30 2139 H 196.793 -6.44907 -4.37853 0
M  V30 2140 N 201.022 0.148545 -1.56898 0
M  V30 2141 C 201.972 1.1886 -1.94567 0
M  V30 2142 C 202.956 1.3863 -0.816735 0
M  V30 2143 O 204.148 1.40218 -1.08018 0
M  V30 2144 C 201.277 2.52262 -2.32849 0
M  V30 2145 C 200.363 2.36092 -3.52309 0
M  V30 2146 N 200.754 1.89674 -4.6889 0
M  V30 2147 C 199.052 2.66848 -3.57363 0
M  V30 2148 C 199.753 1.86511 -5.50989 0
M  V30 2149 N 198.729 2.29766 -4.92655 0
M  V30 2150 H 202.531 0.821793 -2.82177 0
M  V30 2151 H 200.045 0.356615 -1.58436 0
M  V30 2152 H 202.042 3.27447 -2.58039 0
M  V30 2153 H 200.702 2.89727 -1.46589 0
M  V30 2154 H 201.713 1.59663 -4.92674 0
M  V30 2155 H 198.39 3.08198 -2.81639 0
M  V30 2156 H 199.78 1.52128 -6.54452 0
M  V30 2157 N 202.5 1.5196 0.417844 0
M  V30 2158 C 203.911 1.57851 0.997 0
M  V30 2159 C 204.262 0.413714 1.91789 0
M  V30 2160 O 203.387 -0.467057 2.113 0
M  V30 2161 C 203.982 2.86085 1.81496 0
M  V30 2162 C 202.541 2.94483 2.34428 0
M  V30 2163 C 201.688 2.52707 1.14169 0
M  V30 2164 H 204.639 1.57455 0.198392 0
M  V30 2165 H 204.66 2.70947 2.67148 0
M  V30 2166 H 204.172 3.70842 1.14446 0
M  V30 2167 H 202.273 2.142 3.04875 0
M  V30 2168 H 202.386 3.98546 2.65891 0
M  V30 2169 H 200.75 2.06353 1.49301 0
M  V30 2170 H 201.533 3.39828 0.486999 0
M  V30 2171 N 203.978 -0.674533 1.42435 0
M  V30 2172 C 205.203 -1.46784 1.46524 0
M  V30 2173 C 205.628 -1.87938 0.078066 0
M  V30 2174 O 204.986 -1.56014 -0.92354 0
M  V30 2175 C 205.034 -2.69307 2.39805 0
M  V30 2176 O 204.138 -3.67587 1.86959 0
M  V30 2177 H 203.479 -0.440959 0.496439 0
M  V30 2178 H 206.009 -0.827326 1.87127 0
M  V30 2179 H 206.019 -3.17374 2.56393 0
M  V30 2180 H 204.694 -2.38692 3.40586 0
M  V30 2181 H 203.271 -3.2662 1.79927 0
M  V30 2182 N 205.456 -1.28612 -0.910864 0
M  V30 2183 C 206.702 -1.16106 -1.66274 0
M  V30 2184 C 207.035 0.289113 -1.92036 0
M  V30 2185 O 206.31 1.21 -1.52281 0
M  V30 2186 C 206.593 -1.96309 -3.01885 0
M  V30 2187 C 206.446 -3.49405 -2.8326 0
M  V30 2188 C 207.765 -1.78076 -4.02463 0
M  V30 2189 H 204.884 -0.423152 -0.603417 0
M  V30 2190 H 207.526 -1.57961 -1.05586 0
M  V30 2191 H 205.676 -1.60742 -3.53687 0
M  V30 2192 H 207.348 -3.94894 -2.38446 0
M  V30 2193 H 205.591 -3.74893 -2.18261 0
M  V30 2194 H 206.262 -4.00784 -3.79574 0
M  V30 2195 H 208.738 -2.0912 -3.59733 0
M  V30 2196 H 207.614 -2.36561 -4.95308 0
M  V30 2197 H 207.875 -0.733008 -4.35981 0
M  V30 2198 N 206.934 1.1197 -1.10907 0
M  V30 2199 C 208.211 1.79959 -0.766432 0
M  V30 2200 C 208.591 1.97466 0.746363 0
M  V30 2201 O 207.939 1.55491 1.67436 0
M  V30 2202 C 208.149 3.14009 -1.52314 0
M  V30 2203 C 209.497 3.89134 -1.69883 0
M  V30 2204 O 210.521 3.2368 -1.48692 0
M  V30 2205 O 209.38 5.06572 -2.05054 0
M  V30 2206 H 206.474 0.779208 -0.277062 0
M  V30 2207 H 209.02 1.18762 -1.21217 0
M  V30 2208 H 207.792 2.96587 -2.55249 0
M  V30 2209 H 207.415 3.82915 -1.07059 0
M  V30 2210 N 208.412 0.89855 1.29475 0
M  V30 2211 C 209.36 0.365253 2.29714 0
M  V30 2212 C 210.354 -0.534993 1.6073 0
M  V30 2213 O 211.56 -0.417921 1.75081 0
M  V30 2214 H 207.935 0.0994853 0.74539 0
M  V30 2215 H 209.906 1.22406 2.72138 0
M  V30 2216 C 208.655 -0.393159 3.4547 0
M  V30 2217 H 207.978 0.290332 3.98744 0
M  V30 2218 H 209.418 -0.731189 4.17648 0
M  V30 2219 C 207.877 -1.59539 2.9673 0
M  V30 2220 O 208.407 -2.69469 2.97908 0
M  V30 2221 N 206.613 -1.43716 2.52575 0
M  V30 2222 H 206.16 -0.542828 2.51816 0
M  V30 2223 H 206.118 -2.24288 2.20323 0
M  V30 2224 N 209.89 -1.43072 0.660911 0
M  V30 2225 C 210.837 -2.30785 -0.0259884 0
M  V30 2226 C 211.807 -1.45184 -0.806888 0
M  V30 2227 O 212.992 -1.74041 -0.781943 0
M  V30 2228 C 210.132 -3.30861 -0.981067 0
M  V30 2229 C 209.245 -4.31558 -0.195458 0
M  V30 2230 C 208.38 -5.18712 -1.14503 0
M  V30 2231 C 207.419 -6.11097 -0.350299 0
M  V30 2232 N 206.556 -6.90849 -1.25186 0
M  V30 2233 H 211.396 -2.88975 0.727846 0
M  V30 2234 H 208.933 -1.42353 0.370682 0
M  V30 2235 H 210.891 -3.87399 -1.54849 0
M  V30 2236 H 209.521 -2.74304 -1.70169 0
M  V30 2237 H 208.573 -3.77252 0.488374 0
M  V30 2238 H 209.885 -4.9701 0.422176 0
M  V30 2239 H 209.039 -5.79914 -1.78284 0
M  V30 2240 H 207.778 -4.53404 -1.79656 0
M  V30 2241 H 206.783 -5.48976 0.300808 0
M  V30 2242 H 208.008 -6.7845 0.296941 0
M  V30 2243 H 205.954 -6.28182 -1.89005 0
M  V30 2244 H 205.871 -7.52854 -0.688971 0
M  V30 2245 H 207.139 -7.5655 -1.87757 0
M  V30 2246 N 211.368 -0.403325 -1.52352 0
M  V30 2247 C 212.645 0.232611 -1.94212 0
M  V30 2248 C 213.025 1.63133 -1.33981 0
M  V30 2249 O 212.373 2.22659 -0.513344 0
M  V30 2250 C 212.583 0.244811 -3.4814 0
M  V30 2251 C 213.931 0.46698 -4.22024 0
M  V30 2252 O 214.955 0.324419 -3.5472 0
M  V30 2253 O 213.814 0.74747 -5.41364 0
M  V30 2254 H 210.908 0.148223 -0.813609 0
M  V30 2255 H 213.454 -0.458848 -1.63379 0
M  V30 2256 H 212.226 -0.734378 -3.84347 0
M  V30 2257 H 211.849 0.980611 -3.85318 0
M  V30 2258 N 212.846 1.57033 -0.133567 0
M  V30 2259 C 213.776 2.1909 0.807567 0
M  V30 2260 C 214.757 1.13517 1.26681 0
M  V30 2261 O 215.942 1.41809 1.32679 0
M  V30 2262 C 213.072 2.80188 2.05212 0
M  V30 2263 C 212.026 3.91471 1.73015 0
M  V30 2264 C 211.352 4.39443 3.04622 0
M  V30 2265 C 212.652 5.12886 0.987168 0
M  V30 2266 H 214.346 2.97988 0.290403 0
M  V30 2267 H 211.892 1.43335 0.138239 0
M  V30 2268 H 213.845 3.22264 2.71521 0
M  V30 2269 H 212.569 1.98601 2.59278 0
M  V30 2270 H 211.228 3.49993 1.0909 0
M  V30 2271 H 210.876 3.54695 3.56651 0
M  V30 2272 H 210.576 5.14495 2.83847 0
M  V30 2273 H 212.1 4.8418 3.72024 0
M  V30 2274 H 213.514 5.51891 1.55208 0
M  V30 2275 H 211.911 5.93615 0.87985 0
M  V30 2276 H 212.981 4.84894 -0.0235286 0
M  V30 2277 N 214.325 -0.140222 1.56975 0
M  V30 2278 C 215.572 -0.851687 1.83719 0
M  V30 2279 C 215.9 -1.80862 0.715485 0
M  V30 2280 O 215.155 -1.93464 -0.294956 0
M  V30 2281 C 215.454 -1.65386 3.16832 0
M  V30 2282 C 215.12 -0.843112 4.42947 0
M  V30 2283 C 213.782 -0.619464 4.77196 0
M  V30 2284 C 216.134 -0.276582 5.20466 0
M  V30 2285 C 213.462 0.181312 5.8642 0
M  V30 2286 C 215.814 0.51127 6.30531 0
M  V30 2287 C 214.478 0.745432 6.63325 0
M  V30 2288 H 213.748 -0.311654 0.672274 0
M  V30 2289 H 216.395 -0.115006 1.91154 0
M  V30 2290 H 214.7 -2.46084 3.04877 0
M  V30 2291 H 216.397 -2.20793 3.34741 0
M  V30 2292 H 212.987 -1.0275 4.16101 0
M  V30 2293 H 217.171 -0.436632 4.94376 0
M  V30 2294 H 212.427 0.372165 6.10266 0
M  V30 2295 H 216.601 0.957354 6.89788 0
M  V30 2296 H 214.228 1.36778 7.47794 0
M  V30 2297 N 215.803 -1.52179 -0.40978 0
M  V30 2298 C 217.033 -1.69807 -1.17682 0
M  V30 2299 C 217.441 -0.406908 -1.84773 0
M  V30 2300 O 216.784 0.626863 -1.72673 0
M  V30 2301 C 216.846 -2.77712 -2.2829 0
M  V30 2302 C 216.51 -4.19481 -1.81341 0
M  V30 2303 C 217.507 -5.03345 -1.30154 0
M  V30 2304 C 215.192 -4.65713 -1.88194 0
M  V30 2305 C 217.186 -6.31511 -0.864416 0
M  V30 2306 C 214.873 -5.93869 -1.44093 0
M  V30 2307 C 215.871 -6.76597 -0.933023 0
M  V30 2308 O 215.559 -8.02354 -0.49838 0
M  V30 2309 H 215.291 -0.572372 -0.359675 0
M  V30 2310 H 217.845 -1.99511 -0.488311 0
M  V30 2311 H 216.075 -2.43383 -3.00502 0
M  V30 2312 H 217.764 -2.83946 -2.90051 0
M  V30 2313 H 218.53 -4.68819 -1.24232 0
M  V30 2314 H 214.409 -4.01424 -2.26671 0
M  V30 2315 H 217.953 -6.96033 -0.467286 0
M  V30 2316 H 213.85 -6.27903 -1.49694 0
M  V30 2317 H 214.618 -8.16135 -0.621747 0
M  V30 2318 N 217.281 0.66697 -1.42791 0
M  V30 2319 C 218.53 1.42278 -1.42968 0
M  V30 2320 C 218.843 1.9553 -0.0524489 0
M  V30 2321 O 220.049 2.71414 0.068363 0
M  V30 2322 C 218.505 2.57418 -2.51524 0
M  V30 2323 C 218.113 2.10832 -3.9529 0
M  V30 2324 C 219.857 3.34878 -2.60877 0
M  V30 2325 C 217.764 3.23101 -4.95338 0
M  V30 2326 H 216.694 0.534533 -0.531781 0
M  V30 2327 H 219.345 0.721302 -1.68729 0
M  V30 2328 H 217.727 3.29971 -2.18941 0
M  V30 2329 H 218.901 1.4538 -4.37266 0
M  V30 2330 H 217.216 1.46289 -3.89857 0
M  V30 2331 H 219.813 4.18505 -3.32802 0
M  V30 2332 H 220.156 3.81993 -1.6549 0
M  V30 2333 H 220.689 2.69398 -2.92693 0
M  V30 2334 H 217.428 2.80969 -5.9223 0
M  V30 2335 H 216.948 3.87309 -4.57987 0
M  V30 2336 H 218.627 3.88447 -5.17415 0
M  V30 2337 N 218.759 1.29093 0.90403 0
M  V30 2338 C 219.707 1.13727 2.02901 0
M  V30 2339 C 220.701 0.0539853 1.69314 0
M  V30 2340 O 221.907 0.213469 1.7873 0
M  V30 2341 H 218.282 0.35117 0.664969 0
M  V30 2342 H 220.253 2.08982 2.13001 0
M  V30 2343 C 219.002 0.826066 3.37745 0
M  V30 2344 H 218.325 1.65164 3.64089 0
M  V30 2345 H 219.765 0.758559 4.17159 0
M  V30 2346 C 218.224 -0.470541 3.33598 0
M  V30 2347 O 218.754 -1.49792 3.72727 0
M  V30 2348 N 216.96 -0.474812 2.86695 0
M  V30 2349 H 216.507 0.361692 2.55048 0
M  V30 2350 H 216.465 -1.34236 2.84303 0
M  V30 2351 N 220.237 -1.11381 1.11499 0
M  V30 2352 C 221.167 -2.19509 0.796125 0
M  V30 2353 C 222.148 -1.68458 -0.235796 0
M  V30 2354 O 223.333 -1.93947 -0.0991344 0
M  V30 2355 C 220.463 -3.46475 0.239205 0
M  V30 2356 C 219.417 -4.10744 1.20307 0
M  V30 2357 C 218.743 -5.32293 0.50683 0
M  V30 2358 C 220.043 -4.55597 2.55399 0
M  V30 2359 H 221.737 -2.46439 1.70024 0
M  V30 2360 H 219.283 -1.18446 0.818935 0
M  V30 2361 H 221.236 -4.214 0.00392006 0
M  V30 2362 H 219.96 -3.19006 -0.700206 0
M  V30 2363 H 218.619 -3.37813 1.42399 0
M  V30 2364 H 218.267 -5.01095 -0.437408 0
M  V30 2365 H 217.967 -5.76243 1.1497 0
M  V30 2366 H 219.491 -6.09956 0.280351 0
M  V30 2367 H 220.905 -5.21841 2.37391 0
M  V30 2368 H 219.302 -5.10363 3.15673 0
M  V30 2369 H 220.372 -3.69013 3.14575 0
M  V30 2370 N 221.715 -0.905404 -1.28997 0
M  V30 2371 C 222.945 -0.549049 -1.99171 0
M  V30 2372 C 223.353 0.87203 -1.67906 0
M  V30 2373 O 222.696 1.58796 -0.923561 0
M  V30 2374 C 222.758 -0.668306 -3.53234 0
M  V30 2375 C 222.422 -2.0574 -4.08069 0
M  V30 2376 C 223.419 -3.0292 -4.22534 0
M  V30 2377 C 221.104 -2.36833 -4.42962 0
M  V30 2378 C 223.098 -4.29314 -4.71135 0
M  V30 2379 C 220.785 -3.63467 -4.91258 0
M  V30 2380 C 221.783 -4.59522 -5.053 0
M  V30 2381 O 221.471 -5.83907 -5.52546 0
M  V30 2382 H 221.203 -0.208784 -0.64295 0
M  V30 2383 H 223.757 -1.21836 -1.65363 0
M  V30 2384 H 221.987 0.0580547 -3.86656 0
M  V30 2385 H 223.676 -0.320273 -4.04634 0
M  V30 2386 H 224.442 -2.80216 -3.95859 0
M  V30 2387 H 220.321 -1.62824 -4.31288 0
M  V30 2388 H 223.865 -5.04293 -4.8201 0
M  V30 2389 H 219.762 -3.86 -5.17372 0
M  V30 2390 H 220.53 -5.86578 -5.70849 0
M  V30 2391 N 223.193 1.4272 -0.668489 0
M  V30 2392 C 224.604 1.84793 -0.266151 0
M  V30 2393 C 224.955 1.55959 1.19043 0
M  V30 2394 O 224.08 1.01622 1.91055 0
M  V30 2395 C 224.675 3.35436 -0.476271 0
M  V30 2396 C 223.234 3.76182 -0.128113 0
M  V30 2397 C 222.381 2.66344 -0.771777 0
M  V30 2398 H 225.332 1.32656 -0.871098 0
M  V30 2399 H 225.353 3.79515 0.273561 0
M  V30 2400 H 224.865 3.5639 -1.53647 0
M  V30 2401 H 222.966 3.60836 0.928891 0
M  V30 2402 H 223.079 4.75766 -0.564231 0
M  V30 2403 H 221.443 2.53885 -0.203652 0
M  V30 2404 H 222.226 2.90123 -1.83531 0
M  V30 2405 N 224.671 0.411399 1.52136 0
M  V30 2406 C 225.948 -0.222308 1.94333 0
M  V30 2407 C 226.328 -1.6242 1.34844 0
M  V30 2408 O 225.676 -2.22384 0.525145 0
M  V30 2409 C 225.886 -0.226345 3.48265 0
M  V30 2410 C 227.234 -0.444592 4.22266 0
M  V30 2411 O 228.258 -0.305602 3.54887 0
M  V30 2412 O 227.117 -0.718749 5.41753 0
M  V30 2413 H 224.211 -0.143907 0.814383 0
M  V30 2414 H 226.757 0.467506 1.63133 0
M  V30 2415 H 225.529 0.75475 3.83952 0
M  V30 2416 H 225.152 -0.960163 3.85832 0
M  V30 2417 N 226.149 -1.5696 0.141893 0
M  V30 2418 C 227.379 -2.00031 -0.516828 0
M  V30 2419 C 227.787 -1.02091 -1.59293 0
M  V30 2420 O 227.13 -0.00909657 -1.83698 0
M  V30 2421 C 227.192 -3.39534 -1.1814 0
M  V30 2422 C 226.856 -4.56313 -0.250513 0
M  V30 2423 C 227.853 -5.17295 0.519839 0
M  V30 2424 C 225.538 -5.02061 -0.154907 0
M  V30 2425 C 227.532 -6.2243 1.3733 0
M  V30 2426 C 225.219 -6.07053 0.702161 0
M  V30 2427 C 226.217 -6.67106 1.46487 0
M  V30 2428 O 225.905 -7.70066 2.30767 0
M  V30 2429 H 225.637 -0.661451 -0.139493 0
M  V30 2430 H 228.191 -2.04086 0.231926 0
M  V30 2431 H 226.421 -3.32302 -1.97769 0
M  V30 2432 H 228.11 -3.66745 -1.73933 0
M  V30 2433 H 228.876 -4.82852 0.45598 0
M  V30 2434 H 224.755 -4.5505 -0.7383 0
M  V30 2435 H 228.299 -6.69233 1.96909 0
M  V30 2436 H 224.196 -6.40923 0.76733 0
M  V30 2437 H 224.964 -7.87264 2.23959 0
M  V30 2438 N 227.627 0.131896 -1.57047 0
M  V30 2439 C 228.59 1.14638 -1.98471 0
M  V30 2440 C 229.59 1.35029 -0.873148 0
M  V30 2441 O 230.78 1.31764 -1.13946 0
M  V30 2442 C 227.912 2.50358 -2.31373 0
M  V30 2443 H 229.105 0.79064 -2.8929 0
M  V30 2444 H 226.658 0.375761 -1.51716 0
M  V30 2445 H 227.393 2.90876 -1.43393 0
M  V30 2446 H 227.178 2.36915 -3.12432 0
M  V30 2447 H 228.668 3.23395 -2.64207 0
M  V30 2448 N 229.106 1.52395 0.401703 0
M  V30 2449 C 230.069 1.75636 1.47257 0
M  V30 2450 C 231.069 0.62628 1.48103 0
M  V30 2451 O 232.259 0.894227 1.49497 0
M  V30 2452 C 229.391 1.84553 2.86624 0
M  V30 2453 H 230.584 2.71241 1.27938 0
M  V30 2454 H 228.137 1.42923 0.632662 0
M  V30 2455 H 228.872 0.908882 3.11303 0
M  V30 2456 H 228.657 2.66715 2.87412 0
M  V30 2457 H 230.147 2.04251 3.64241 0
M  V30 2458 N 230.584 -0.659388 1.43143 0
M  V30 2459 C 231.833 -1.41518 1.43721 0
M  V30 2460 C 232.146 -1.95499 0.0628176 0
M  V30 2461 O 233.352 -2.71446 -0.0539683 0
M  V30 2462 C 231.808 -2.5608 2.52885 0
M  V30 2463 C 231.416 -2.08733 3.96402 0
M  V30 2464 C 233.16 -3.3349 2.62649 0
M  V30 2465 C 231.067 -3.20469 4.97045 0
M  V30 2466 H 229.997 -0.531705 0.534608 0
M  V30 2467 H 232.648 -0.712343 1.69109 0
M  V30 2468 H 231.03 -3.28805 2.20688 0
M  V30 2469 H 232.204 -1.43059 4.3803 0
M  V30 2470 H 230.519 -1.44219 3.90627 0
M  V30 2471 H 233.116 -4.16734 3.35017 0
M  V30 2472 H 233.459 -3.8111 1.67513 0
M  V30 2473 H 233.992 -2.67842 2.94118 0
M  V30 2474 H 230.731 -2.77824 5.93712 0
M  V30 2475 H 230.251 -3.84874 4.60034 0
M  V30 2476 H 231.93 -3.85698 5.19467 0
M  V30 2477 N 232.062 -1.29571 -0.897171 0
M  V30 2478 C 233.287 -1.20705 -1.68656 0
M  V30 2479 C 233.712 0.228582 -1.86706 0
M  V30 2480 O 233.07 1.16494 -1.3892 0
M  V30 2481 C 233.118 -1.9282 -3.04717 0
M  V30 2482 O 232.222 -1.24697 -3.93096 0
M  V30 2483 H 231.563 -0.418126 -0.515816 0
M  V30 2484 H 234.093 -1.71183 -1.12061 0
M  V30 2485 H 234.103 -2.01372 -3.54843 0
M  V30 2486 H 232.778 -2.97239 -2.90899 0
M  V30 2487 H 231.355 -1.2442 -3.51531 0
M  V30 2488 N 233.54 1.10788 -1.12088 0
M  V30 2489 C 234.956 1.34691 -0.856186 0
M  V30 2490 C 235.156 1.94791 0.515615 0
M  V30 2491 O 234.212 2.18524 1.26505 0
M  V30 2492 C 235.525 2.27208 -1.9697 0
M  V30 2493 C 237.073 2.40755 -2.00016 0
M  V30 2494 C 237.548 3.36598 -3.1059 0
M  V30 2495 N 239.039 3.44164 -3.10008 0
M  V30 2496 C 239.774 4.18284 -3.92206 0
M  V30 2497 N 239.27 4.95322 -4.84384 0
M  V30 2498 N 241.063 4.13865 -3.80357 0
M  V30 2499 H 233.214 0.70144 -2.00483 0
M  V30 2500 H 235.477 0.371405 -0.872217 0
M  V30 2501 H 235.183 1.90251 -2.958 0
M  V30 2502 H 235.057 3.27485 -1.87172 0
M  V30 2503 H 237.444 2.76982 -1.01808 0
M  V30 2504 H 237.525 1.40305 -2.13888 0
M  V30 2505 H 237.169 3.01096 -4.09028 0
M  V30 2506 H 237.099 4.36918 -2.93956 0
M  V30 2507 H 239.59 2.8922 -2.43228 0
M  V30 2508 H 239.903 5.49267 -5.43623 0
M  V30 2509 H 238.248 4.94459 -4.884 0
M  V30 2510 H 241.439 3.52773 -3.07683 0
M  V30 2511 H 241.612 4.71372 -4.44649 0
M  V30 2512 N 235.018 0.912232 1.28515 0
M  V30 2513 C 235.981 0.404223 2.25607 0
M  V30 2514 C 236.981 -0.468602 1.53821 0
M  V30 2515 O 238.171 -0.271873 1.72065 0
M  V30 2516 C 235.303 -0.420653 3.38295 0
M  V30 2517 H 236.496 1.26188 2.7206 0
M  V30 2518 H 234.049 0.691495 1.40171 0
M  V30 2519 H 234.784 -1.29777 2.97201 0
M  V30 2520 H 234.569 0.204935 3.91564 0
M  V30 2521 H 236.059 -0.766971 4.10496 0
M  V30 2522 N 236.496 -1.42363 0.676048 0
M  V30 2523 C 237.745 -2.00745 0.196037 0
M  V30 2524 C 238.058 -1.54083 -1.20489 0
M  V30 2525 O 239.264 -2.04891 -1.78134 0
M  V30 2526 C 237.72 -3.58651 0.299616 0
M  V30 2527 C 237.328 -4.143 1.70468 0
M  V30 2528 C 239.072 -4.24326 -0.121619 0
M  V30 2529 C 236.979 -5.64574 1.76096 0
M  V30 2530 H 235.909 -0.750787 0.0695301 0
M  V30 2531 H 238.56 -1.63072 0.841412 0
M  V30 2532 H 236.942 -3.93833 -0.413673 0
M  V30 2533 H 238.116 -3.90575 2.44515 0
M  V30 2534 H 236.431 -3.61081 2.07387 0
M  V30 2535 H 239.028 -5.34607 -0.0997362 0
M  V30 2536 H 239.371 -3.99897 -1.15708 0
M  V30 2537 H 239.904 -3.94108 0.540706 0
M  V30 2538 H 236.643 -5.93804 2.77628 0
M  V30 2539 H 236.163 -5.90286 1.06406 0
M  V30 2540 H 237.842 -6.29013 1.51496 0
M  V30 2541 N 237.974 -0.419461 -1.51915 0
M  V30 2542 C 238.904 0.391813 -2.30189 0
M  V30 2543 C 239.885 1.03699 -1.34836 0
M  V30 2544 O 241.07 1.04403 -1.63748 0
M  V30 2545 C 238.2 1.50312 -3.13087 0
M  V30 2546 C 237.154 0.9824 -4.16573 0
M  V30 2547 C 236.48 2.18809 -4.8788 0
M  V30 2548 C 237.78 0.0292356 -5.22292 0
M  V30 2549 H 239.474 -0.26135 -2.98257 0
M  V30 2550 H 237.02 -0.127134 -1.43438 0
M  V30 2551 H 238.973 2.07773 -3.66617 0
M  V30 2552 H 237.697 2.18431 -2.42807 0
M  V30 2553 H 236.356 0.430119 -3.64068 0
M  V30 2554 H 236.004 2.85507 -4.14119 0
M  V30 2555 H 235.704 1.84615 -5.57845 0
M  V30 2556 H 237.228 2.76858 -5.44226 0
M  V30 2557 H 238.642 0.512976 -5.71 0
M  V30 2558 H 237.039 -0.2244 -5.9968 0
M  V30 2559 H 238.109 -0.912931 -4.76228 0
M  V30 2560 N 239.452 1.56882 -0.150215 0
M  V30 2561 C 240.729 1.87844 0.545327 0
M  V30 2562 C 241.109 1.0567 1.82749 0
M  V30 2563 O 240.457 0.144442 2.28043 0
M  V30 2564 C 240.667 3.39526 0.80767 0
M  V30 2565 C 242.015 4.08814 1.14703 0
M  V30 2566 O 243.039 3.44723 0.896917 0
M  V30 2567 O 241.898 5.22004 1.61784 0
M  V30 2568 H 238.992 0.778677 0.278553 0
M  V30 2569 H 241.538 1.68666 -0.187068 0
M  V30 2570 H 240.31 3.91173 -0.0996096 0
M  V30 2571 H 239.933 3.64243 1.59413 0
M  V30 2572 N 240.93 -0.123565 1.57115 0
M  V30 2573 C 241.86 -1.15309 2.03042 0
M  V30 2574 C 242.841 -1.43454 0.914061 0
M  V30 2575 O 244.026 -1.53973 1.18347 0
M  V30 2576 C 241.156 -2.48043 2.43089 0
M  V30 2577 C 240.11 -2.3437 3.58127 0
M  V30 2578 C 239.436 -3.72026 3.84059 0
M  V30 2579 C 240.736 -1.80804 4.90007 0
M  V30 2580 H 242.43 -0.771102 2.893 0
M  V30 2581 H 239.976 -0.369479 1.39179 0
M  V30 2582 H 241.929 -3.20311 2.73823 0
M  V30 2583 H 240.653 -2.88122 1.53796 0
M  V30 2584 H 239.312 -1.64551 3.27595 0
M  V30 2585 H 238.96 -4.09582 2.91979 0
M  V30 2586 H 238.66 -3.63732 4.6149 0
M  V30 2587 H 240.184 -4.45806 4.1724 0
M  V30 2588 H 241.598 -2.42886 5.19307 0
M  V30 2589 H 239.995 -1.83343 5.71407 0
M  V30 2590 H 241.065 -0.76528 4.78823 0
M  V30 2591 N 242.408 -1.52605 -0.393616 0
M  V30 2592 C 243.654 -1.67672 -1.14079 0
M  V30 2593 C 243.987 -0.413121 -1.89755 0
M  V30 2594 O 243.262 0.588952 -1.85369 0
M  V30 2595 C 243.545 -2.9088 -2.12276 0
M  V30 2596 C 243.398 -4.27329 -1.40394 0
M  V30 2597 C 244.717 -3.09628 -3.12759 0
M  V30 2598 H 241.836 -0.610168 -0.413356 0
M  V30 2599 H 244.478 -1.85193 -0.424696 0
M  V30 2600 H 242.628 -2.76073 -2.73342 0
M  V30 2601 H 244.3 -4.53894 -0.82327 0
M  V30 2602 H 242.543 -4.2802 -0.705801 0
M  V30 2603 H 243.214 -5.09615 -2.12123 0
M  V30 2604 H 245.69 -3.23436 -2.61779 0
M  V30 2605 H 244.566 -3.97322 -3.78717 0
M  V30 2606 H 244.827 -2.23637 -3.81365 0
M  V30 2607 N 243.887 0.651787 -1.4349 0
M  V30 2608 C 244.817 1.77621 -1.51569 0
M  V30 2609 C 245.798 1.66022 -0.370253 0
M  V30 2610 O 246.983 1.85095 -0.587658 0
M  V30 2611 C 244.113 3.16056 -1.43966 0
M  V30 2612 C 243.067 3.4242 -2.56774 0
M  V30 2613 C 242.393 4.8067 -2.34223 0
M  V30 2614 C 243.693 3.37023 -3.99015 0
M  V30 2615 H 245.387 1.71117 -2.45681 0
M  V30 2616 H 242.933 0.821825 -1.18246 0
M  V30 2617 H 244.886 3.94472 -1.48221 0
M  V30 2618 H 243.61 3.23293 -0.463586 0
M  V30 2619 H 242.269 2.66375 -2.51873 0
M  V30 2620 H 241.917 4.84585 -1.34856 0
M  V30 2621 H 241.617 4.9927 -3.09844 0
M  V30 2622 H 243.141 5.61342 -2.40265 0
M  V30 2623 H 244.555 4.05374 -4.05395 0
M  V30 2624 H 242.952 3.67159 -4.74673 0
M  V30 2625 H 244.022 2.3518 -4.2405 0
M  V30 2626 N 245.365 1.30045 0.890287 0
M  V30 2627 C 246.595 1.21296 1.67245 0
M  V30 2628 C 247.003 -0.227471 1.87828 0
M  V30 2629 O 246.346 -1.16296 1.422 0
M  V30 2630 C 246.408 1.86519 3.07329 0
M  V30 2631 C 246.072 3.35837 3.09939 0
M  V30 2632 C 247.069 4.31915 2.89389 0
M  V30 2633 C 244.754 3.77196 3.31706 0
M  V30 2634 C 246.748 5.67325 2.90552 0
M  V30 2635 C 244.435 5.12725 3.32499 0
M  V30 2636 C 245.433 6.076 3.11947 0
M  V30 2637 O 245.121 7.40655 3.12547 0
M  V30 2638 H 244.853 0.4211 0.528821 0
M  V30 2639 H 247.407 1.72111 1.12103 0
M  V30 2640 H 245.637 1.30228 3.64112 0
M  V30 2641 H 247.326 1.71963 3.67673 0
M  V30 2642 H 248.092 4.01294 2.72375 0
M  V30 2643 H 243.971 3.03796 3.4674 0
M  V30 2644 H 247.515 6.41354 2.74429 0
M  V30 2645 H 243.412 5.42988 3.49047 0
M  V30 2646 H 244.18 7.49577 3.28749 0
M  V30 2647 N 246.843 -1.10192 1.12674 0
M  V30 2648 C 248.073 -1.85713 0.905213 0
M  V30 2649 C 248.481 -1.81056 -0.549108 0
M  V30 2650 O 247.824 -1.19927 -1.39151 0
M  V30 2651 C 247.886 -3.34972 1.30516 0
M  V30 2652 C 247.55 -3.63385 2.77129 0
M  V30 2653 C 248.547 -3.59772 3.75313 0
M  V30 2654 C 246.232 -3.91981 3.14096 0
M  V30 2655 C 248.226 -3.84354 5.08479 0
M  V30 2656 C 245.913 -4.16218 4.47443 0
M  V30 2657 C 246.911 -4.12395 5.44444 0
M  V30 2658 O 246.599 -4.36014 6.75387 0
M  V30 2659 H 246.331 -0.593719 0.323223 0
M  V30 2660 H 248.885 -1.40198 1.50112 0
M  V30 2661 H 247.115 -3.81156 0.652463 0
M  V30 2662 H 248.804 -3.91886 1.05736 0
M  V30 2663 H 249.57 -3.37716 3.48099 0
M  V30 2664 H 245.449 -3.94085 2.39202 0
M  V30 2665 H 248.993 -3.81285 5.84181 0
M  V30 2666 H 244.89 -4.37754 4.74386 0
M  V30 2667 H 245.658 -4.53516 6.8137 0
M  V30 2668 N 248.321 -0.919034 -1.28029 0
M  V30 2669 C 249.269 -0.401753 -2.29104 0
M  V30 2670 C 250.263 0.509354 -1.61561 0
M  V30 2671 O 251.469 0.390014 -1.75724 0
M  V30 2672 H 247.844 -0.111331 -0.743713 0
M  V30 2673 H 249.815 -1.2672 -2.70156 0
M  V30 2674 C 248.564 0.338148 -3.46052 0
M  V30 2675 H 247.887 -0.353732 -3.98232 0
M  V30 2676 H 249.327 0.664653 -4.18758 0
M  V30 2677 C 247.786 1.54798 -2.99231 0
M  V30 2678 O 248.316 2.64696 -3.02157 0
M  V30 2679 N 246.522 1.3968 -2.54829 0
M  V30 2680 H 246.069 0.502698 -2.52647 0
M  V30 2681 H 246.027 2.20755 -2.23863 0
M  V30 2682 N 249.799 1.42003 -0.683588 0
M  V30 2683 C 251.045 2.02223 -0.218536 0
M  V30 2684 C 251.4 1.53126 1.16492 0
M  V30 2685 O 250.693 0.727459 1.77253 0
M  V30 2686 C 250.887 3.56827 -0.202357 0
M  V30 2687 C 250.716 4.20928 -1.5827 0
M  V30 2688 C 249.486 4.5573 -2.18262 0
M  V30 2689 C 251.684 4.47933 -2.52706 0
M  V30 2690 N 249.666 5.05056 -3.48986 0
M  V30 2691 C 251.037 4.98906 -3.68094 0
M  V30 2692 C 253.092 4.29931 -2.51125 0
M  V30 2693 C 251.795 5.33768 -4.82166 0
M  V30 2694 C 253.821 4.65875 -3.643 0
M  V30 2695 C 253.183 5.17008 -4.78417 0
M  V30 2696 H 249.282 0.771931 -0.125088 0
M  V30 2697 H 251.866 1.72729 -0.898479 0
M  V30 2698 H 250.037 3.85819 0.447029 0
M  V30 2699 H 251.769 4.03755 0.276399 0
M  V30 2700 H 248.524 4.41781 -1.70665 0
M  V30 2701 H 248.948 5.34139 -4.15962 0
M  V30 2702 H 253.59 3.89647 -1.6412 0
M  V30 2703 H 251.308 5.72981 -5.6984 0
M  V30 2704 H 254.894 4.53615 -3.64314 0
M  V30 2705 H 253.774 5.44301 -5.64541 0
M  V30 2706 N 251.277 0.427512 1.51691 0
M  V30 2707 C 252.224 -0.388867 2.275 0
M  V30 2708 C 253.194 -1.02532 1.30677 0
M  V30 2709 O 254.379 -1.0461 1.59566 0
M  V30 2710 C 251.519 -1.48954 3.11298 0
M  V30 2711 C 250.632 -0.872194 4.23104 0
M  V30 2712 C 249.767 -1.94709 4.94228 0
M  V30 2713 C 248.806 -1.30766 5.97969 0
M  V30 2714 N 247.943 -2.32349 6.62539 0
M  V30 2715 H 252.783 0.263997 2.96828 0
M  V30 2716 H 250.32 0.142033 1.46413 0
M  V30 2717 H 252.278 -2.13887 3.58201 0
M  V30 2718 H 250.908 -2.11217 2.44105 0
M  V30 2719 H 249.96 -0.111419 3.80237 0
M  V30 2720 H 251.272 -0.365264 4.97461 0
M  V30 2721 H 250.426 -2.67327 5.44629 0
M  V30 2722 H 249.165 -2.48773 4.1948 0
M  V30 2723 H 248.17 -0.566902 5.4687 0
M  V30 2724 H 249.395 -0.774483 6.74669 0
M  V30 2725 H 247.341 -2.85511 5.90609 0
M  V30 2726 H 247.258 -1.8652 7.3263 0
M  V30 2727 H 248.526 -3.04481 7.17574 0
M  V30 2728 N 252.755 -1.56801 0.158532 0
M  V30 2729 C 253.983 -2.00859 -0.496303 0
M  V30 2730 C 254.398 -1.03871 -1.57659 0
M  V30 2731 O 253.755 -0.0375165 -1.82461 0
M  V30 2732 C 253.806 -3.4479 -1.08638 0
M  V30 2733 O 253.527 -4.38072 -0.0492322 0
M  V30 2734 C 255.028 -4.04185 -1.8207 0
M  V30 2735 H 252.248 -0.65864 -0.128199 0
M  V30 2736 H 254.792 -2.02885 0.256506 0
M  V30 2737 H 252.947 -3.43579 -1.78975 0
M  V30 2738 H 253.361 -5.2227 -0.483102 0
M  V30 2739 H 254.835 -5.06857 -2.18633 0
M  V30 2740 H 255.312 -3.45549 -2.71095 0
M  V30 2741 H 255.918 -4.0906 -1.16405 0
M  V30 2742 N 254.233 0.115231 -1.57178 0
M  V30 2743 C 255.479 0.82357 -1.85325 0
M  V30 2744 C 255.812 1.79349 -0.744814 0
M  V30 2745 O 255.087 1.92899 0.249024 0
M  V30 2746 C 255.37 1.57014 -3.24066 0
M  V30 2747 C 255.223 0.619565 -4.45513 0
M  V30 2748 C 256.542 2.52545 -3.60429 0
M  V30 2749 H 253.661 0.297948 -0.674089 0
M  V30 2750 H 256.303 0.0877138 -1.89797 0
M  V30 2751 H 254.453 2.19742 -3.20383 0
M  V30 2752 H 256.125 0.000837639 -4.613 0
M  V30 2753 H 254.368 -0.0686174 -4.33746 0
M  V30 2754 H 255.039 1.17866 -5.3927 0
M  V30 2755 H 257.515 1.9992 -3.64926 0
M  V30 2756 H 256.391 3.01811 -4.58477 0
M  V30 2757 H 256.652 3.35383 -2.88047 0
M  V30 2758 N 255.711 1.52812 0.385517 0
M  V30 2759 C 256.939 1.71907 1.15133 0
M  V30 2760 C 257.354 0.439004 1.83625 0
M  V30 2761 O 256.711 -0.586765 1.7281 0
M  V30 2762 C 256.762 2.87099 2.19673 0
M  V30 2763 O 256.483 4.10151 1.53973 0
M  V30 2764 C 257.984 3.17902 3.08955 0
M  V30 2765 H 255.204 0.575479 0.345057 0
M  V30 2766 H 257.748 1.99476 0.45052 0
M  V30 2767 H 255.903 2.61982 2.85384 0
M  V30 2768 H 256.317 4.74514 2.23465 0
M  V30 2769 H 257.791 4.01959 3.7833 0
M  V30 2770 H 258.268 2.3243 3.72657 0
M  V30 2771 H 258.874 3.44871 2.48885 0
M  V30 2772 N 257.189 -0.644168 1.43834 0
M  V30 2773 C 258.435 -1.40603 1.46146 0
M  V30 2774 C 258.768 -1.93997 0.0887717 0
M  V30 2775 O 258.043 -1.72854 -0.891724 0
M  V30 2776 C 258.326 -2.58086 2.51124 0
M  V30 2777 C 258.179 -2.10126 3.97702 0
M  V30 2778 C 259.498 -3.60291 2.52742 0
M  V30 2779 H 256.617 -0.509905 0.532134 0
M  V30 2780 H 259.259 -0.729502 1.75437 0
M  V30 2781 H 257.409 -3.15801 2.26278 0
M  V30 2782 H 259.081 -1.57342 4.33637 0
M  V30 2783 H 257.324 -1.41419 4.10101 0
M  V30 2784 H 257.995 -2.94649 4.66783 0
M  V30 2785 H 260.471 -3.12352 2.7491 0
M  V30 2786 H 259.347 -4.40032 3.28121 0
M  V30 2787 H 259.608 -4.1349 1.56455 0
M  V30 2788 N 258.668 -1.30515 -0.883378 0
M  V30 2789 C 259.914 -1.19607 -1.63774 0
M  V30 2790 C 260.247 0.248314 -1.92606 0
M  V30 2791 O 259.522 1.17742 -1.54813 0
M  V30 2792 C 259.805 -2.02669 -2.97653 0
M  V30 2793 C 259.658 -3.55335 -2.75784 0
M  V30 2794 C 260.977 -1.86573 -3.98596 0
M  V30 2795 H 258.096 -0.435856 -0.594305 0
M  V30 2796 H 260.738 -1.60165 -1.02212 0
M  V30 2797 H 258.888 -1.68208 -3.50197 0
M  V30 2798 H 260.56 -3.99863 -2.30016 0
M  V30 2799 H 258.803 -3.79438 -2.1026 0
M  V30 2800 H 259.474 -4.08745 -3.70988 0
M  V30 2801 H 261.95 -2.16703 -3.55217 0
M  V30 2802 H 260.826 -2.47014 -4.90179 0
M  V30 2803 H 261.087 -0.825321 -4.34328 0
M  V30 2804 N 260.146 1.09593 -1.13257 0
M  V30 2805 C 261.376 1.85231 -0.915049 0
M  V30 2806 C 261.784 1.81345 0.539498 0
M  V30 2807 O 261.127 1.20664 1.38513 0
M  V30 2808 C 261.189 3.34275 -1.3229 0
M  V30 2809 C 260.853 3.6191 -2.79052 0
M  V30 2810 C 261.85 3.57777 -3.77216 0
M  V30 2811 C 259.535 3.90309 -3.16171 0
M  V30 2812 C 261.529 3.81652 -5.1051 0
M  V30 2813 C 259.216 4.13839 -4.49644 0
M  V30 2814 C 260.214 4.09502 -5.46623 0
M  V30 2815 O 259.902 4.32426 -6.77689 0
M  V30 2816 H 259.634 0.591997 -0.326367 0
M  V30 2817 H 262.188 1.394 -1.50854 0
M  V30 2818 H 260.418 3.80805 -0.672667 0
M  V30 2819 H 262.107 3.9132 -1.07812 0
M  V30 2820 H 262.873 3.35865 -3.49885 0
M  V30 2821 H 258.752 3.92811 -2.41289 0
M  V30 2822 H 262.296 3.78182 -5.86195 0
M  V30 2823 H 258.193 4.35232 -4.767 0
M  V30 2824 H 258.961 4.49896 -6.83766 0
M  V30 2825 N 261.624 0.925811 1.2754 0
M  V30 2826 C 262.534 0.428993 2.30644 0
M  V30 2827 C 263.55 -0.489387 1.66976 0
M  V30 2828 O 264.726 -0.372653 1.97922 0
M  V30 2829 C 261.791 -0.311967 3.45294 0
M  V30 2830 C 260.852 0.641098 4.24486 0
M  V30 2831 C 260.085 -0.0645955 5.33661 0
M  V30 2832 O 260.308 -1.28429 5.55754 0
M  V30 2833 O 259.242 0.606265 5.98839 0
M  V30 2834 H 263.068 1.28504 2.75173 0
M  V30 2835 H 260.653 0.691086 1.32455 0
M  V30 2836 H 262.535 -0.729972 4.15029 0
M  V30 2837 H 261.21 -1.14365 3.02824 0
M  V30 2838 H 260.117 1.10874 3.57292 0
M  V30 2839 H 261.45 1.43995 4.70666 0
M  V30 2840 N 263.102 -1.41638 0.69111 0
M  V30 2841 C 264.379 -1.95036 0.148421 0
M  V30 2842 C 264.759 -1.63072 -1.34055 0
M  V30 2843 O 264.107 -0.93538 -2.08478 0
M  V30 2844 C 264.317 -3.46279 0.434951 0
M  V30 2845 C 265.665 -4.23069 0.360275 0
M  V30 2846 O 266.689 -3.54277 0.369613 0
M  V30 2847 O 265.548 -5.45583 0.316534 0
M  V30 2848 H 262.642 -0.826908 0.0123654 0
M  V30 2849 H 265.188 -1.5138 0.766963 0
M  V30 2850 H 263.96 -3.6281 1.46576 0
M  V30 2851 H 263.583 -3.97019 -0.214787 0
M  V30 2852 N 264.58 -0.43555 -1.51462 0
M  V30 2853 C 265.805 0.132627 -2.06976 0
M  V30 2854 C 266.23 1.35848 -1.30104 0
M  V30 2855 O 265.588 1.78112 -0.338493 0
M  V30 2856 C 265.636 0.43523 -3.57964 0
M  V30 2857 O 264.74 1.52198 -3.83288 0
M  V30 2858 H 264.081 0.00265 -0.663995 0
M  V30 2859 H 266.611 -0.616369 -1.95095 0
M  V30 2860 H 266.621 0.686206 -4.02188 0
M  V30 2861 H 265.296 -0.460739 -4.1334 0
M  V30 2862 H 263.873 1.2611 -3.50928 0
M  V30 2863 N 266.058 1.56714 -0.166846 0
M  V30 2864 C 267.286 2.0112 0.485644 0
M  V30 2865 C 267.701 1.04705 1.57106 0
M  V30 2866 O 267.058 0.0471923 1.82439 0
M  V30 2867 C 267.109 3.45361 1.06808 0
M  V30 2868 O 266.83 4.38092 0.0259995 0
M  V30 2869 C 268.331 4.05145 1.79924 0
M  V30 2870 H 265.551 0.65931 0.124704 0
M  V30 2871 H 268.095 2.02746 -0.267262 0
M  V30 2872 H 266.25 3.44524 1.7715 0
M  V30 2873 H 266.664 5.22519 0.455398 0
M  V30 2874 H 268.138 5.08009 2.15942 0
M  V30 2875 H 268.615 3.46982 2.69258 0
M  V30 2876 H 269.221 4.09672 1.14234 0
M  V30 2877 N 267.536 -0.106894 1.57237 0
M  V30 2878 C 268.784 -0.810921 1.85117 0
M  V30 2879 C 269.105 -1.7984 0.753827 0
M  V30 2880 O 268.375 -1.94649 -0.221056 0
M  V30 2881 H 266.955 -0.302466 0.683025 0
M  V30 2882 H 269.617 -0.0913324 1.94686 0
M  V30 2883 H 268.713 -1.34875 2.81452 0
M  V30 2884 N 269.014 -1.53014 -0.377408 0
M  V30 2885 C 269.944 -1.81589 -1.46791 0
M  V30 2886 C 270.925 -0.668622 -1.56408 0
M  V30 2887 O 272.11 -0.917337 -1.71168 0
M  V30 2888 C 269.24 -1.99519 -2.8427 0
M  V30 2889 C 268.194 -3.15249 -2.89486 0
M  V30 2890 C 267.52 -3.18451 -4.29527 0
M  V30 2891 C 268.82 -4.54084 -2.58079 0
M  V30 2892 H 270.514 -2.7291 -1.23127 0
M  V30 2893 H 268.06 -1.31319 -0.590883 0
M  V30 2894 H 270.013 -2.18092 -3.60575 0
M  V30 2895 H 268.737 -1.04897 -3.09296 0
M  V30 2896 H 267.396 -2.96477 -2.15631 0
M  V30 2897 H 267.044 -2.2149 -4.5161 0
M  V30 2898 H 266.744 -3.962 -4.33934 0
M  V30 2899 H 268.268 -3.39193 -5.07721 0
M  V30 2900 H 269.682 -4.72899 -3.24098 0
M  V30 2901 H 268.079 -5.33987 -2.7382 0
M  V30 2902 H 269.149 -4.60006 -1.53372 0
M  V30 2903 N 270.492 0.636531 -1.44174 0
M  V30 2904 C 271.741 1.39213 -1.45954 0
M  V30 2905 C 272.054 1.95374 -0.0939119 0
M  V30 2906 O 273.26 2.71498 0.0107767 0
M  V30 2907 C 271.716 2.52025 -2.56927 0
M  V30 2908 C 271.324 2.024 -3.99673 0
M  V30 2909 C 273.068 3.29269 -2.67922 0
M  V30 2910 C 270.975 3.12521 -5.0208 0
M  V30 2911 H 269.905 0.523132 -0.542999 0
M  V30 2912 H 272.556 0.685349 -1.70221 0
M  V30 2913 H 270.938 3.25253 -2.25891 0
M  V30 2914 H 272.112 1.36073 -4.40251 0
M  V30 2915 H 270.427 1.37987 -3.92872 0
M  V30 2916 H 273.024 4.11352 -3.41605 0
M  V30 2917 H 273.367 3.78397 -1.73555 0
M  V30 2918 H 273.9 2.63129 -2.98342 0
M  V30 2919 H 270.639 2.68343 -5.98057 0
M  V30 2920 H 270.159 3.77507 -4.66099 0
M  V30 2921 H 271.838 3.77385 -5.25538 0
M  V30 2922 N 271.97 1.30982 0.876444 0
M  V30 2923 C 273.386 1.09498 1.16113 0
M  V30 2924 C 273.586 -0.13875 2.01022 0
M  V30 2925 O 272.642 -0.829935 2.38471 0
M  V30 2926 C 273.955 2.36308 1.85954 0
M  V30 2927 C 275.503 2.41856 1.98683 0
M  V30 2928 C 275.978 3.6853 2.71937 0
M  V30 2929 N 277.469 3.69387 2.79477 0
M  V30 2930 C 278.204 4.64096 3.36753 0
M  V30 2931 N 277.7 5.69155 3.95012 0
M  V30 2932 N 279.493 4.51626 3.3465 0
M  V30 2933 H 271.644 2.10118 0.310494 0
M  V30 2934 H 273.907 0.926634 0.200131 0
M  V30 2935 H 273.613 3.26388 1.31011 0
M  V30 2936 H 273.487 2.4561 2.86278 0
M  V30 2937 H 275.874 1.52249 2.52793 0
M  V30 2938 H 275.955 2.36523 0.9742 0
M  V30 2939 H 275.599 4.58499 2.18496 0
M  V30 2940 H 275.529 3.71127 3.73593 0
M  V30 2941 H 278.02 2.93438 2.38123 0
M  V30 2942 H 278.333 6.3751 4.36808 0
M  V30 2943 H 276.678 5.72937 3.93406 0
M  V30 2944 H 279.869 3.68728 2.8837 0
M  V30 2945 H 280.042 5.25614 3.7899 0
M  V30 2946 N 273.449 -1.08991 1.13837 0
M  V30 2947 C 274.379 -2.17771 0.842507 0
M  V30 2948 C 275.36 -1.6892 -0.20001 0
M  V30 2949 O 276.545 -1.94113 -0.0579731 0
M  V30 2950 C 273.675 -3.4589 0.312644 0
M  V30 2951 C 272.629 -4.08099 1.28992 0
M  V30 2952 C 271.955 -5.31098 0.619623 0
M  V30 2953 C 273.255 -4.50077 2.65005 0
M  V30 2954 H 274.949 -2.42777 1.75213 0
M  V30 2955 H 272.495 -1.16682 0.843875 0
M  V30 2956 H 274.448 -4.21297 0.0933043 0
M  V30 2957 H 273.172 -3.20419 -0.632382 0
M  V30 2958 H 271.831 -3.34717 1.49533 0
M  V30 2959 H 271.479 -5.0191 -0.33102 0
M  V30 2960 H 271.179 -5.73674 1.27167 0
M  V30 2961 H 272.703 -6.09224 0.409669 0
M  V30 2962 H 274.117 -5.16688 2.48407 0
M  V30 2963 H 272.514 -5.03553 3.26427 0
M  V30 2964 H 273.584 -3.62257 3.22332 0
M  V30 2965 N 274.927 -0.932562 -1.27047 0
M  V30 2966 C 275.859 -0.392734 -2.2581 0
M  V30 2967 C 276.872 0.479241 -1.55586 0
M  V30 2968 O 278.061 0.291078 -1.76111 0
M  V30 2969 C 275.161 0.455456 -3.35826 0
M  V30 2970 C 274.334 -0.398355 -4.35582 0
M  V30 2971 C 273.393 0.387985 -5.24768 0
M  V30 2972 O 272.419 -0.206003 -5.68827 0
M  V30 2973 N 273.621 1.68664 -5.55457 0
M  V30 2974 H 276.386 -1.24173 -2.72766 0
M  V30 2975 H 273.947 -0.800511 -1.40725 0
M  V30 2976 H 275.939 0.988692 -3.92437 0
M  V30 2977 H 274.509 1.20522 -2.88432 0
M  V30 2978 H 273.729 -1.11286 -3.78165 0
M  V30 2979 H 275.017 -0.981889 -4.99236 0
M  V30 2980 H 274.415 2.19147 -5.21528 0
M  V30 2981 H 272.972 2.1663 -6.14748 0
M  V30 2982 N 276.405 1.4127 -0.698611 0
M  V30 2983 C 277.315 2.34573 -0.0357891 0
M  V30 2984 C 278.331 1.56393 0.762701 0
M  V30 2985 O 279.507 1.8886 0.699564 0
M  V30 2986 C 276.572 3.35159 0.887089 0
M  V30 2987 C 275.633 4.29225 0.0804634 0
M  V30 2988 C 274.866 5.25006 0.959387 0
M  V30 2989 O 275.089 5.26314 2.19886 0
M  V30 2990 O 274.023 6.00519 0.407439 0
M  V30 2991 H 277.849 2.92838 -0.804957 0
M  V30 2992 H 275.434 1.42175 -0.458966 0
M  V30 2993 H 277.316 3.9689 1.41621 0
M  V30 2994 H 275.991 2.79333 1.6357 0
M  V30 2995 H 274.898 3.70833 -0.493328 0
M  V30 2996 H 276.231 4.88157 -0.629547 0
M  V30 2997 N 277.883 0.443576 1.51229 0
M  V30 2998 C 278.813 -0.355142 2.30783 0
M  V30 2999 C 279.794 -1.0154 1.36468 0
M  V30 3000 O 280.979 -1.01785 1.65389 0
M  V30 3001 C 278.109 -1.45312 3.15439 0
M  V30 3002 C 277.063 -0.916002 4.18083 0
M  V30 3003 C 276.389 -2.1102 4.91299 0
M  V30 3004 C 277.689 0.0538602 5.22272 0
M  V30 3005 H 279.383 0.308767 2.97804 0
M  V30 3006 H 276.929 0.149937 1.43217 0
M  V30 3007 H 278.882 -2.01914 3.69876 0
M  V30 3008 H 277.606 -2.14541 2.46252 0
M  V30 3009 H 276.265 -0.372145 3.64706 0
M  V30 3010 H 275.913 -2.78882 4.18609 0
M  V30 3011 H 275.613 -1.75717 5.60712 0
M  V30 3012 H 277.137 -2.68164 5.48562 0
M  V30 3013 H 278.551 -0.422069 5.71744 0
M  V30 3014 H 276.948 0.319776 5.99247 0
M  V30 3015 H 278.018 0.98858 4.74716 0
M  V30 3016 N 279.361 -1.56624 0.175154 0
M  V30 3017 C 280.61 -1.96173 -0.468921 0
M  V30 3018 C 280.923 -1.06401 -1.64128 0
M  V30 3019 O 282.129 -1.35648 -2.35185 0
M  V30 3020 C 280.585 -3.48833 -0.885633 0
M  V30 3021 C 280.193 -4.47237 0.261343 0
M  V30 3022 C 281.937 -3.97194 -1.49791 0
M  V30 3023 C 279.844 -5.9114 -0.175214 0
M  V30 3024 H 278.774 -0.732455 -0.178958 0
M  V30 3025 H 281.425 -1.81591 0.263997 0
M  V30 3026 H 279.807 -3.58848 -1.67464 0
M  V30 3027 H 280.981 -4.4894 1.03871 0
M  V30 3028 H 279.296 -4.08956 0.783827 0
M  V30 3029 H 281.893 -5.02167 -1.83665 0
M  V30 3030 H 282.236 -3.40351 -2.39722 0
M  V30 3031 H 282.769 -3.90212 -0.773267 0
M  V30 3032 H 279.508 -6.51865 0.689414 0
M  V30 3033 H 279.028 -5.92735 -0.91786 0
M  V30 3034 H 280.707 -6.44044 -0.617792 0
M  V30 3035 N 280.839 0.0985539 -1.57292 0
M  V30 3036 C 281.786 1.11981 -2.01814 0
M  V30 3037 C 282.756 1.39999 -0.89384 0
M  V30 3038 O 283.941 1.5152 -1.15958 0
M  V30 3039 C 281.081 2.43577 -2.44467 0
M  V30 3040 C 280.194 2.2232 -3.70402 0
M  V30 3041 C 279.329 3.4729 -4.01949 0
M  V30 3042 C 278.368 3.2128 -5.21005 0
M  V30 3043 N 277.505 4.38507 -5.48321 0
M  V30 3044 H 282.345 0.733149 -2.88841 0
M  V30 3045 H 279.882 0.350482 -1.42864 0
M  V30 3046 H 281.84 3.20373 -2.6724 0
M  V30 3047 H 280.47 2.80097 -1.60455 0
M  V30 3048 H 279.522 1.36343 -3.55126 0
M  V30 3049 H 280.834 1.99089 -4.57345 0
M  V30 3050 H 279.988 4.32495 -4.25479 0
M  V30 3051 H 278.727 3.73572 -3.13521 0
M  V30 3052 H 277.732 2.34468 -4.97298 0
M  V30 3053 H 278.957 2.96348 -6.11028 0
M  V30 3054 H 276.903 4.64871 -4.62851 0
M  V30 3055 H 276.82 4.18455 -6.29628 0
M  V30 3056 H 278.088 5.24787 -5.76385 0
M  V30 3057 N 282.317 1.53212 0.369288 0
M  V30 3058 C 283.28 1.7872 1.43498 0
M  V30 3059 C 284.28 0.657554 1.46741 0
M  V30 3060 O 285.47 0.925736 1.47566 0
M  V30 3061 C 282.602 1.90591 2.82645 0
M  V30 3062 H 283.795 2.73894 1.22156 0
M  V30 3063 H 281.348 1.44233 0.602203 0
M  V30 3064 H 282.083 0.974709 3.09306 0
M  V30 3065 H 281.868 2.72751 2.8169 0
M  V30 3066 H 283.358 2.11931 3.59826 0
M  V30 3067 N 283.795 -0.628877 1.44509 0
M  V30 3068 C 285.206 -1.21054 1.42137 0
M  V30 3069 C 285.557 -1.95715 0.137881 0
M  V30 3070 O 284.682 -2.02554 -0.761645 0
M  V30 3071 C 285.277 -2.20189 2.57493 0
M  V30 3072 C 283.836 -2.73777 2.58308 0
M  V30 3073 C 282.983 -1.48813 2.33987 0
M  V30 3074 H 285.934 -0.41942 1.53057 0
M  V30 3075 H 285.955 -3.02833 2.30375 0
M  V30 3076 H 285.467 -1.6582 3.50892 0
M  V30 3077 H 283.568 -3.32142 1.68856 0
M  V30 3078 H 283.681 -3.19662 3.56865 0
M  V30 3079 H 282.045 -1.77024 1.83124 0
M  V30 3080 H 282.828 -0.963442 3.29504 0
M  V30 3081 N 285.273 -1.31445 -0.869486 0
M  V30 3082 C 286.498 -1.24256 -1.66058 0
M  V30 3083 C 286.923 0.188928 -1.87149 0
M  V30 3084 O 286.281 1.13522 -1.4136 0
M  V30 3085 C 286.329 -1.9924 -3.00559 0
M  V30 3086 O 285.433 -1.33007 -3.90362 0
M  V30 3087 H 284.774 -0.428973 -0.506831 0
M  V30 3088 H 287.304 -1.73521 -1.08404 0
M  V30 3089 H 287.314 -2.08854 -3.50491 0
M  V30 3090 H 285.989 -3.03342 -2.84528 0
M  V30 3091 H 284.566 -1.31848 -3.48813 0
M  V30 3092 N 286.751 1.08385 -1.14413 0
M  V30 3093 C 288.167 1.32844 -0.884563 0
M  V30 3094 C 288.367 1.95841 0.474181 0
M  V30 3095 O 287.423 2.21158 1.21842 0
M  V30 3096 C 288.736 2.22978 -2.01745 0
M  V30 3097 C 290.284 2.36458 -2.05077 0
M  V30 3098 C 290.759 3.29934 -3.1766 0
M  V30 3099 N 292.25 3.37511 -3.17239 0
M  V30 3100 C 292.985 4.09871 -4.0099 0
M  V30 3101 N 292.481 4.84936 -4.94781 0
M  V30 3102 N 294.274 4.05704 -3.89051 0
M  V30 3103 H 286.425 0.658756 -2.01926 0
M  V30 3104 H 288.688 0.352821 -0.879899 0
M  V30 3105 H 288.394 1.83934 -2.99769 0
M  V30 3106 H 288.268 3.23441 -1.94077 0
M  V30 3107 H 290.655 2.7476 -1.0766 0
M  V30 3108 H 290.736 1.35736 -2.16816 0
M  V30 3109 H 290.38 2.92352 -4.15322 0
M  V30 3110 H 290.31 4.30584 -3.03158 0
M  V30 3111 H 292.801 2.83996 -2.49308 0
M  V30 3112 H 293.114 5.37612 -5.55151 0
M  V30 3113 H 291.459 4.83988 -4.98779 0
M  V30 3114 H 294.65 3.46167 -3.15097 0
M  V30 3115 H 294.823 4.61834 -4.54547 0
M  V30 3116 N 288.23 0.939286 1.26551 0
M  V30 3117 C 289.46 0.601663 1.97645 0
M  V30 3118 C 289.868 -0.827206 1.70159 0
M  V30 3119 O 289.211 -1.56291 0.965338 0
M  V30 3120 C 289.273 0.761725 3.51337 0
M  V30 3121 C 288.937 2.16487 4.0247 0
M  V30 3122 C 289.934 3.14016 4.14355 0
M  V30 3123 C 287.619 2.48494 4.36527 0
M  V30 3124 C 289.613 4.41654 4.59587 0
M  V30 3125 C 287.3 3.76364 4.81449 0
M  V30 3126 C 288.298 4.72758 4.92939 0
M  V30 3127 O 287.986 5.98352 5.36871 0
M  V30 3128 H 287.718 0.225758 0.637189 0
M  V30 3129 H 290.272 1.26178 1.62075 0
M  V30 3130 H 288.502 0.0444808 3.86674 0
M  V30 3131 H 290.191 0.427442 4.03643 0
M  V30 3132 H 290.957 2.90613 3.8829 0
M  V30 3133 H 286.836 1.74202 4.26819 0
M  V30 3134 H 290.38 5.16896 4.68471 0
M  V30 3135 H 286.277 3.99582 5.06956 0
M  V30 3136 H 287.045 6.01507 5.55096 0
M  V30 3137 N 289.708 -1.40897 0.706093 0
M  V30 3138 C 290.656 -2.32572 0.0361893 0
M  V30 3139 C 291.65 -1.51532 -0.757266 0
M  V30 3140 O 292.856 -1.67396 -0.661703 0
M  V30 3141 H 289.231 -0.751966 -0.00709935 0
M  V30 3142 H 291.202 -2.86733 0.826249 0
M  V30 3143 C 289.951 -3.36418 -0.87854 0
M  V30 3144 H 289.274 -3.98836 -0.277401 0
M  V30 3145 H 290.714 -4.0308 -1.3154 0
M  V30 3146 C 289.173 -2.71141 -1.99961 0
M  V30 3147 O 289.703 -2.56735 -3.0895 0
M  V30 3148 N 287.909 -2.29671 -1.78043 0
M  V30 3149 H 287.456 -2.41588 -0.894042 0
M  V30 3150 H 287.414 -1.86332 -2.53235 0
M  V30 3151 N 291.186 -0.45159 -1.50991 0
M  V30 3152 C 292.435 0.111653 -2.01391 0
M  V30 3153 C 292.748 1.42529 -1.33959 0
M  V30 3154 O 293.954 2.07232 -1.75405 0
M  V30 3155 C 292.41 0.249514 -3.59034 0
M  V30 3156 C 292.018 -1.05453 -4.35412 0
M  V30 3157 C 293.762 0.765762 -4.17536 0
M  V30 3158 C 291.669 -0.881529 -5.84793 0
M  V30 3159 H 290.599 0.0455022 -0.752626 0
M  V30 3160 H 293.25 -0.583524 -1.73975 0
M  V30 3161 H 291.632 1.00803 -3.82955 0
M  V30 3162 H 292.806 -1.82248 -4.23229 0
M  V30 3163 H 291.121 -1.50039 -3.88429 0
M  V30 3164 H 293.718 0.911913 -5.26866 0
M  V30 3165 H 294.061 1.75201 -3.77638 0
M  V30 3166 H 294.594 0.0651744 -3.97747 0
M  V30 3167 H 291.333 -1.84057 -6.29129 0
M  V30 3168 H 290.853 -0.153625 -5.99603 0
M  V30 3169 H 292.532 -0.540363 -6.4474 0
M  V30 3170 N 292.664 1.56529 -0.183458 0
M  V30 3171 C 293.611 2.18546 0.742055 0
M  V30 3172 C 294.581 1.12912 1.2182 0
M  V30 3173 O 295.766 1.41115 1.28418 0
M  V30 3174 C 292.906 2.83977 1.96089 0
M  V30 3175 C 292.019 4.04105 1.52719 0
M  V30 3176 C 291.154 4.57427 2.70063 0
M  V30 3177 C 290.193 5.69938 2.23243 0
M  V30 3178 N 289.33 6.17717 3.33722 0
M  V30 3179 H 294.17 2.97284 0.206432 0
M  V30 3180 H 291.707 1.46823 0.0901571 0
M  V30 3181 H 293.665 3.20077 2.67594 0
M  V30 3182 H 292.295 2.07822 2.47002 0
M  V30 3183 H 291.347 3.73745 0.708436 0
M  V30 3184 H 292.659 4.85513 1.1436 0
M  V30 3185 H 291.813 4.95772 3.49708 0
M  V30 3186 H 290.552 3.75101 3.11689 0
M  V30 3187 H 289.557 5.31133 1.42048 0
M  V30 3188 H 290.782 6.54073 1.82661 0
M  V30 3189 H 288.728 5.38317 3.74902 0
M  V30 3190 H 288.645 6.94146 2.99495 0
M  V30 3191 H 289.913 6.60713 4.13616 0
M  V30 3192 N 294.142 -0.090211 1.57342 0
M  V30 3193 C 295.391 -0.791531 1.8552 0
M  V30 3194 C 295.704 -1.79659 0.773441 0
M  V30 3195 O 296.91 -2.54616 0.942497 0
M  V30 3196 C 295.366 -1.45856 3.2902 0
M  V30 3197 C 294.974 -0.493017 4.45279 0
M  V30 3198 C 296.718 -2.14332 3.66418 0
M  V30 3199 C 294.625 -1.16491 5.79814 0
M  V30 3200 H 293.555 -0.299356 0.692027 0
M  V30 3201 H 296.206 -0.0445343 1.83446 0
M  V30 3202 H 294.588 -2.25318 3.2565 0
M  V30 3203 H 295.762 0.270464 4.60006 0
M  V30 3204 H 294.077 0.0863061 4.16311 0
M  V30 3205 H 296.674 -2.65344 4.64216 0
M  V30 3206 H 297.017 -2.93447 2.95287 0
M  V30 3207 H 297.55 -1.41724 3.71698 0
M  V30 3208 H 294.289 -0.41447 6.54188 0
M  V30 3209 H 293.809 -1.8997 5.68921 0
M  V30 3210 H 295.488 -1.69001 6.24538 0
M  V30 3211 N 295.62 -1.53406 -0.361157 0
M  V30 3212 C 296.567 -1.80156 -1.44265 0
M  V30 3213 C 297.537 -0.646183 -1.53015 0
M  V30 3214 O 298.722 -0.888818 -1.68833 0
M  V30 3215 C 295.862 -2.00116 -2.81154 0
M  V30 3216 C 294.975 -3.27833 -2.81335 0
M  V30 3217 C 294.11 -3.37957 -4.09828 0
M  V30 3218 C 293.149 -4.59689 -4.04168 0
M  V30 3219 N 292.286 -4.66942 -5.24318 0
M  V30 3220 H 297.126 -2.72438 -1.20754 0
M  V30 3221 H 294.663 -1.34954 -0.585296 0
M  V30 3222 H 296.621 -2.09677 -3.60682 0
M  V30 3223 H 295.251 -1.11167 -3.03054 0
M  V30 3224 H 294.303 -3.27204 -1.94014 0
M  V30 3225 H 295.615 -4.17442 -2.73027 0
M  V30 3226 H 294.769 -3.46853 -4.97773 0
M  V30 3227 H 293.508 -2.46372 -4.20894 0
M  V30 3228 H 292.513 -4.50889 -3.14609 0
M  V30 3229 H 293.738 -5.5262 -3.947 0
M  V30 3230 H 291.684 -3.7826 -5.35962 0
M  V30 3231 H 291.601 -5.50462 -5.18197 0
M  V30 3232 H 292.869 -4.80127 -6.14084 0
M  V30 3233 N 297.098 0.621204 -1.44841 0
M  V30 3234 C 298.347 1.37658 -1.47422 0
M  V30 3235 C 298.66 1.95264 -0.114629 0
M  V30 3236 O 299.866 2.71494 -0.0180199 0
M  V30 3237 C 298.322 2.49285 -2.59586 0
M  V30 3238 C 297.93 1.98149 -4.01797 0
M  V30 3239 C 299.674 3.26409 -2.71399 0
M  V30 3240 C 297.581 3.07178 -5.05367 0
M  V30 3241 H 296.511 0.517344 -0.548517 0
M  V30 3242 H 299.162 0.667257 -1.70938 0
M  V30 3243 H 297.544 3.22839 -2.29328 0
M  V30 3244 H 298.718 1.31395 -4.41669 0
M  V30 3245 H 297.033 1.33812 -3.94314 0
M  V30 3246 H 299.63 4.07706 -3.45948 0
M  V30 3247 H 299.973 3.76535 -1.77559 0
M  V30 3248 H 300.506 2.5995 -3.01116 0
M  V30 3249 H 297.245 2.61985 -6.00869 0
M  V30 3250 H 296.765 3.72542 -4.70077 0
M  V30 3251 H 298.444 3.71789 -5.29511 0
M  V30 3252 N 298.576 1.31904 0.862503 0
M  V30 3253 C 299.992 1.10724 1.14945 0
M  V30 3254 C 300.192 -0.117421 2.01158 0
M  V30 3255 O 299.248 -0.804595 2.39338 0
M  V30 3256 C 300.561 2.38267 1.83437 0
M  V30 3257 C 302.109 2.43949 1.96106 0
M  V30 3258 C 302.584 3.71394 2.68013 0
M  V30 3259 N 304.075 3.72331 2.75543 0
M  V30 3260 C 304.81 4.67641 3.31812 0
M  V30 3261 N 304.306 5.73313 3.88953 0
M  V30 3262 N 306.099 4.5515 3.29841 0
M  V30 3263 H 298.25 2.10436 0.288191 0
M  V30 3264 H 300.513 0.928705 0.190292 0
M  V30 3265 H 300.219 3.27759 1.27542 0
M  V30 3266 H 300.093 2.48633 2.83657 0
M  V30 3267 H 302.48 1.54922 2.51164 0
M  V30 3268 H 302.561 2.37543 0.949059 0
M  V30 3269 H 302.205 4.60791 2.13621 0
M  V30 3270 H 302.135 3.75069 3.69636 0
M  V30 3271 H 304.626 2.95947 2.34997 0
M  V30 3272 H 304.939 6.42107 4.30022 0
M  V30 3273 H 303.284 5.77077 3.87308 0
M  V30 3274 H 306.475 3.71766 2.84443 0
M  V30 3275 H 306.648 5.29604 3.73394 0
M  V30 3276 N 300.054 -1.07777 1.14986 0
M  V30 3277 C 300.986 -2.14769 0.800436 0
M  V30 3278 C 301.999 -1.61739 -0.185595 0
M  V30 3279 O 303.188 -1.78462 0.0370358 0
M  V30 3280 C 300.288 -3.38481 0.168533 0
M  V30 3281 C 299.461 -4.20876 1.1909 0
M  V30 3282 C 298.52 -5.22976 0.581575 0
M  V30 3283 O 297.546 -5.55388 1.24633 0
M  V30 3284 N 298.748 -5.76976 -0.638706 0
M  V30 3285 H 301.513 -2.45348 1.72118 0
M  V30 3286 H 299.074 -1.23645 1.04515 0
M  V30 3287 H 301.066 -4.03916 -0.251764 0
M  V30 3288 H 299.636 -3.05651 -0.655467 0
M  V30 3289 H 298.856 -3.51322 1.78791 0
M  V30 3290 H 300.144 -4.7274 1.88133 0
M  V30 3291 H 299.542 -5.52886 -1.19723 0
M  V30 3292 H 298.099 -6.44061 -1.00142 0
M  V30 3293 N 301.532 -0.945985 -1.26051 0
M  V30 3294 C 302.462 -0.477172 -2.28572 0
M  V30 3295 C 303.443 0.472032 -1.63419 0
M  V30 3296 O 304.628 0.372853 -1.90587 0
M  V30 3297 C 301.758 0.253975 -3.4637 0
M  V30 3298 C 300.712 -0.609135 -4.23643 0
M  V30 3299 C 300.038 0.252252 -5.34105 0
M  V30 3300 C 301.338 -1.8829 -4.8718 0
M  V30 3301 H 303.032 -1.33402 -2.68038 0
M  V30 3302 H 300.578 -0.642904 -1.28852 0
M  V30 3303 H 302.531 0.593016 -4.17207 0
M  V30 3304 H 301.255 1.145 -3.05871 0
M  V30 3305 H 299.914 -0.931138 -3.54578 0
M  V30 3306 H 299.562 1.14278 -4.89846 0
M  V30 3307 H 299.262 -0.32188 -5.86718 0
M  V30 3308 H 300.786 0.586454 -6.07777 0
M  V30 3309 H 302.2 -1.61081 -5.50205 0
M  V30 3310 H 300.597 -2.40199 -5.49931 0
M  V30 3311 H 301.667 -2.59134 -4.09851 0
M  V30 3312 N 303.011 1.40521 -0.713556 0
M  V30 3313 C 304.422 1.83853 -0.324807 0
M  V30 3314 C 304.773 1.59667 1.14021 0
M  V30 3315 O 303.898 1.07649 1.87725 0
M  V30 3316 C 304.493 3.33751 -0.582746 0
M  V30 3317 C 303.052 3.75584 -0.247727 0
M  V30 3318 C 302.199 2.63753 -0.856121 0
M  V30 3319 H 305.15 1.29817 -0.91286 0
M  V30 3320 H 305.171 3.80194 0.152682 0
M  V30 3321 H 304.683 3.51322 -1.64908 0
M  V30 3322 H 302.784 3.63608 0.813624 0
M  V30 3323 H 302.897 4.7373 -0.715307 0
M  V30 3324 H 301.261 2.53108 -0.28432 0
M  V30 3325 H 302.044 2.84137 -1.92668 0
M  V30 3326 N 304.489 0.459591 1.5075 0
M  V30 3327 C 305.714 -0.0996819 2.0716 0
M  V30 3328 C 306.139 -1.33761 1.32249 0
M  V30 3329 O 305.497 -1.77551 0.366786 0
M  V30 3330 C 305.545 -0.378226 3.58611 0
M  V30 3331 O 304.649 -1.46081 3.85661 0
M  V30 3332 H 303.99 0.00791392 0.663953 0
M  V30 3333 H 306.52 0.647329 1.9409 0
M  V30 3334 H 306.53 -0.622135 4.03229 0
M  V30 3335 H 305.205 0.526439 4.12555 0
M  V30 3336 H 303.782 -1.20511 3.5289 0
M  V30 3337 N 305.967 -1.56429 0.191757 0
M  V30 3338 C 307.215 -1.97095 -0.447006 0
M  V30 3339 C 307.536 -1.07967 -1.62383 0
M  V30 3340 O 306.806 -0.150248 -1.95323 0
M  V30 3341 H 305.386 -0.727832 -0.168135 0
M  V30 3342 H 308.048 -1.92911 0.27771 0
M  V30 3343 H 307.144 -3.01848 -0.793371 0
M  V30 3344 N 307.445 0.0818655 -1.57387 0
M  V30 3345 C 308.393 1.11712 -2.04018 0
M  V30 3346 C 309.387 1.40683 -0.94364 0
M  V30 3347 O 310.593 1.40209 -1.12878 0
M  V30 3348 H 306.968 0.377542 -0.650358 0
M  V30 3349 H 308.939 0.697614 -2.90131 0
M  V30 3350 C 307.688 2.42537 -2.49141 0
M  V30 3351 H 307.011 2.21092 -3.33104 0
M  V30 3352 H 308.451 3.13446 -2.85531 0
M  V30 3353 C 306.91 3.0778 -1.37014 0
M  V30 3354 O 307.44 3.95436 -0.706621 0
M  V30 3355 N 305.646 2.68242 -1.11779 0
M  V30 3356 H 305.193 1.97052 -1.65917 0
M  V30 3357 H 305.151 3.1222 -0.369594 0
M  V30 3358 N 308.923 1.53595 0.353017 0
M  V30 3359 C 309.87 1.80919 1.43308 0
M  V30 3360 C 310.84 0.654288 1.5267 0
M  V30 3361 O 312.025 0.897759 1.6836 0
M  V30 3362 C 309.165 2.01605 2.80089 0
M  V30 3363 C 308.278 3.29321 2.79593 0
M  V30 3364 C 307.413 3.40125 4.0803 0
M  V30 3365 C 306.452 4.61826 4.01725 0
M  V30 3366 N 305.589 4.69716 5.21834 0
M  V30 3367 H 310.429 2.73074 1.19308 0
M  V30 3368 H 307.966 1.35263 0.578131 0
M  V30 3369 H 309.924 2.11586 3.59565 0
M  V30 3370 H 308.554 1.12772 3.0246 0
M  V30 3371 H 307.606 3.28229 1.92276 0
M  V30 3372 H 308.918 4.18884 2.70809 0
M  V30 3373 H 308.072 3.49488 4.95927 0
M  V30 3374 H 306.811 2.48601 4.19582 0
M  V30 3375 H 305.816 4.52552 3.12213 0
M  V30 3376 H 307.041 5.54705 3.91764 0
M  V30 3377 H 304.987 3.81097 5.33948 0
M  V30 3378 H 304.904 5.53202 5.1527 0
M  V30 3379 H 306.172 4.83376 6.11529 0
M  V30 3380 N 310.401 -0.613514 1.45168 0
M  V30 3381 C 311.678 -1.37263 1.39349 0
M  V30 3382 C 312.058 -2.11012 0.0610848 0
M  V30 3383 O 311.406 -2.07502 -0.956825 0
M  V30 3384 C 311.616 -2.3244 2.60332 0
M  V30 3385 C 312.964 -2.9523 3.05163 0
M  V30 3386 O 313.988 -2.42762 2.60663 0
M  V30 3387 O 312.847 -3.90454 3.82372 0
M  V30 3388 H 309.941 -0.615188 0.552696 0
M  V30 3389 H 312.487 -0.637097 1.57287 0
M  V30 3390 H 311.259 -1.77164 3.48896 0
M  V30 3391 H 310.882 -3.13383 2.44698 0
M  V30 3392 N 311.879 -1.3236 -0.855495 0
M  V30 3393 C 312.842 -1.21164 -1.94556 0
M  V30 3394 C 313.842 -0.134908 -1.60233 0
M  V30 3395 O 315.032 -0.385249 -1.69887 0
M  V30 3396 C 312.164 -0.863192 -3.29791 0
M  V30 3397 H 313.357 -2.18038 -2.05911 0
M  V30 3398 H 310.91 -1.16179 -1.04557 0
M  V30 3399 H 311.645 0.103769 -3.24134 0
M  V30 3400 H 311.43 -1.64166 -3.56078 0
M  V30 3401 H 312.92 -0.809156 -4.09686 0
M  V30 3402 N 313.357 1.07166 -1.15556 0
M  V30 3403 C 314.304 2.14417 -0.854055 0
M  V30 3404 C 315.274 1.64965 0.193806 0
M  V30 3405 O 316.459 1.90703 0.0609443 0
M  V30 3406 C 313.599 3.43304 -0.351574 0
M  V30 3407 C 312.712 4.06537 -1.46123 0
M  V30 3408 C 311.847 5.23266 -0.914677 0
M  V30 3409 C 310.886 5.78464 -2.00114 0
M  V30 3410 N 310.023 6.86521 -1.47083 0
M  V30 3411 H 314.863 2.39548 -1.77259 0
M  V30 3412 H 312.4 1.17543 -0.884425 0
M  V30 3413 H 314.358 4.17179 -0.0419409 0
M  V30 3414 H 312.988 3.18419 0.530037 0
M  V30 3415 H 312.04 3.30297 -1.88701 0
M  V30 3416 H 313.352 4.43567 -2.28144 0
M  V30 3417 H 312.506 6.04131 -0.557698 0
M  V30 3418 H 311.245 4.87658 -0.0636583 0
M  V30 3419 H 310.25 4.96243 -2.36692 0
M  V30 3420 H 311.475 6.16126 -2.85597 0
M  V30 3421 H 309.421 6.52849 -0.642198 0
M  V30 3422 H 309.338 7.22446 -2.22729 0
M  V30 3423 H 310.606 7.71087 -1.14215 0
M  V30 3424 N 314.835 0.952656 1.25548 0
M  V30 3425 C 316.246 0.647392 1.75116 0
M  V30 3426 C 316.597 -0.837274 1.77438 0
M  V30 3427 O 315.722 -1.65525 1.39393 0
M  V30 3428 C 316.317 1.16845 3.18014 0
M  V30 3429 C 314.876 0.913382 3.6515 0
M  V30 3430 C 314.023 1.31265 2.44264 0
M  V30 3431 H 316.974 1.12968 1.11462 0
M  V30 3432 H 316.995 0.527606 3.76824 0
M  V30 3433 H 316.507 2.24902 3.16292 0
M  V30 3434 H 314.608 -0.152316 3.72289 0
M  V30 3435 H 314.721 1.54845 4.53387 0
M  V30 3436 H 313.085 0.731028 2.43984 0
M  V30 3437 H 313.868 2.40239 2.45234 0
M  V30 3438 N 316.313 -1.40141 0.720998 0
M  V30 3439 C 317.243 -2.33339 0.0867621 0
M  V30 3440 C 318.224 -1.53178 -0.739622 0
M  V30 3441 O 319.409 -1.81625 -0.687449 0
M  V30 3442 C 316.539 -3.37194 -0.831728 0
M  V30 3443 C 315.493 -4.27857 -0.110558 0
M  V30 3444 C 314.819 -5.22294 -1.14513 0
M  V30 3445 C 316.119 -5.11872 1.0385 0
M  V30 3446 H 317.813 -2.86626 0.865219 0
M  V30 3447 H 315.359 -1.37814 0.417516 0
M  V30 3448 H 317.312 -4.01335 -1.28485 0
M  V30 3449 H 316.036 -2.82314 -1.64214 0
M  V30 3450 H 314.695 -3.65176 0.322797 0
M  V30 3451 H 314.343 -4.63717 -1.94874 0
M  V30 3452 H 314.043 -5.83797 -0.667446 0
M  V30 3453 H 315.567 -5.89312 -1.59824 0
M  V30 3454 H 316.981 -5.69436 0.664482 0
M  V30 3455 H 315.378 -5.82445 1.4449 0
M  V30 3456 H 316.448 -4.4753 1.86668 0
M  V30 3457 N 317.792 -0.46758 -1.50504 0
M  V30 3458 C 318.722 0.318381 -2.31319 0
M  V30 3459 C 319.703 0.993564 -1.38066 0
M  V30 3460 O 320.888 0.991411 -1.66987 0
M  V30 3461 C 318.018 1.40275 -3.17711 0
M  V30 3462 C 316.972 0.849373 -4.19487 0
M  V30 3463 C 316.298 2.03177 -4.94594 0
M  V30 3464 C 317.598 -0.136942 -5.2212 0
M  V30 3465 H 319.292 -0.356106 -2.97275 0
M  V30 3466 H 316.838 -0.172703 -1.42961 0
M  V30 3467 H 318.791 1.96004 -3.73042 0
M  V30 3468 H 317.515 2.10596 -2.49634 0
M  V30 3469 H 316.174 0.314076 -3.65252 0
M  V30 3470 H 315.822 2.72187 -4.22993 0
M  V30 3471 H 315.522 1.66774 -5.63436 0
M  V30 3472 H 317.046 2.59403 -5.52759 0
M  V30 3473 H 318.46 0.331056 -5.72343 0
M  V30 3474 H 316.857 -0.41507 -5.98663 0
M  V30 3475 H 317.927 -1.06398 -4.73083 0
M  V30 3476 N 319.27 1.56325 -0.20005 0
M  V30 3477 C 320.217 2.1932 0.718833 0
M  V30 3478 C 321.187 1.14198 1.20615 0
M  V30 3479 O 322.372 1.42469 1.26914 0
M  V30 3480 C 319.512 2.86041 1.93066 0
M  V30 3481 C 318.625 4.05702 1.48425 0
M  V30 3482 C 317.76 4.60266 2.65196 0
M  V30 3483 C 316.799 5.72273 2.17185 0
M  V30 3484 N 315.936 6.21221 3.27152 0
M  V30 3485 H 320.776 2.97486 0.17489 0
M  V30 3486 H 318.313 1.46911 0.0745794 0
M  V30 3487 H 320.271 3.22897 2.64184 0
M  V30 3488 H 318.901 2.1043 2.44783 0
M  V30 3489 H 317.953 3.74475 0.668755 0
M  V30 3490 H 319.265 4.86699 1.09204 0
M  V30 3491 H 318.419 4.99453 3.4443 0
M  V30 3492 H 317.158 3.78386 3.07693 0
M  V30 3493 H 316.163 5.3261 1.36407 0
M  V30 3494 H 317.388 6.55974 1.75713 0
M  V30 3495 H 315.334 5.42263 3.69171 0
M  V30 3496 H 315.251 6.97284 2.92116 0
M  V30 3497 H 316.519 6.65063 4.06585 0
M  V30 3498 N 320.748 -0.0735177 1.57428 0
M  V30 3499 C 321.658 -1.10547 2.06922 0
M  V30 3500 C 322.674 -1.42506 0.998402 0
M  V30 3501 O 323.85 -1.52717 1.31299 0
M  V30 3502 C 320.915 -2.40019 2.50184 0
M  V30 3503 C 319.976 -2.15046 3.71556 0
M  V30 3504 C 319.209 -3.38345 4.12745 0
M  V30 3505 O 319.432 -4.47399 3.53822 0
M  V30 3506 O 318.366 -3.2666 5.05546 0
M  V30 3507 H 322.192 -0.715013 2.95163 0
M  V30 3508 H 319.777 -0.287531 1.46607 0
M  V30 3509 H 321.659 -3.16218 2.78539 0
M  V30 3510 H 320.334 -2.78447 1.65072 0
M  V30 3511 H 319.241 -1.36558 3.48285 0
M  V30 3512 H 320.574 -1.81499 4.57514 0
M  V30 3513 N 322.226 -1.5378 -0.344866 0
M  V30 3514 C 323.159 -1.7649 -1.4466 0
M  V30 3515 C 324.137 -0.613954 -1.50563 0
M  V30 3516 O 325.321 -0.84896 -1.683 0
M  V30 3517 C 322.448 -1.86235 -2.82903 0
M  V30 3518 C 321.494 -3.08375 -2.94631 0
M  V30 3519 S 322.327 -4.67457 -2.61236 0
M  V30 3520 C 323.483 -4.80079 -4.0159 0
M  V30 3521 H 323.716 -2.69661 -1.2518 0
M  V30 3522 H 321.249 -1.44632 -0.540455 0
M  V30 3523 H 323.207 -1.92535 -3.62547 0
M  V30 3524 H 321.868 -0.940786 -2.9968 0
M  V30 3525 H 321.061 -3.11865 -3.95925 0
M  V30 3526 H 320.663 -3.00294 -2.22934 0
M  V30 3527 H 322.955 -4.61407 -4.96094 0
M  V30 3528 H 323.898 -5.82168 -4.03095 0
M  V30 3529 H 324.306 -4.08544 -3.89554 0
M  V30 3530 N 323.704 0.605807 -1.45491 0
M  V30 3531 C 324.651 1.7164 -1.54299 0
M  V30 3532 C 325.621 1.61486 -0.388761 0
M  V30 3533 O 326.806 1.81039 -0.602445 0
M  V30 3534 C 323.946 3.09953 -1.51734 0
M  V30 3535 C 323.059 3.309 -2.77721 0
M  V30 3536 C 322.194 4.59329 -2.66816 0
M  V30 3537 C 321.233 4.7354 -3.87848 0
M  V30 3538 N 320.37 5.9327 -3.75467 0
M  V30 3539 H 325.21 1.63449 -2.49176 0
M  V30 3540 H 322.747 0.796957 -1.23641 0
M  V30 3541 H 324.705 3.89977 -1.48235 0
M  V30 3542 H 323.335 3.17098 -0.604068 0
M  V30 3543 H 322.387 2.44639 -2.913 0
M  V30 3544 H 323.699 3.37274 -3.67488 0
M  V30 3545 H 322.853 5.4755 -2.61292 0
M  V30 3546 H 321.592 4.55355 -1.74651 0
M  V30 3547 H 320.597 3.83741 -3.93729 0
M  V30 3548 H 321.822 4.79309 -4.81082 0
M  V30 3549 H 319.768 5.90338 -2.86072 0
M  V30 3550 H 319.685 6.00811 -4.5887 0
M  V30 3551 H 320.953 6.83984 -3.73879 0
M  V30 3552 N 325.182 1.32811 0.848464 0
M  V30 3553 C 326.129 1.22265 1.95755 0
M  V30 3554 C 327.099 0.103413 1.65778 0
M  V30 3555 O 328.284 0.280033 1.88734 0
M  V30 3556 C 325.424 0.958014 3.31536 0
M  V30 3557 C 324.537 2.16262 3.73971 0
M  V30 3558 C 323.672 1.83295 4.98575 0
M  V30 3559 C 322.711 3.00041 5.33518 0
M  V30 3560 N 321.848 2.67125 6.49299 0
M  V30 3561 H 326.688 2.17128 2.04107 0
M  V30 3562 H 324.225 1.07982 0.998913 0
M  V30 3563 H 326.183 0.785052 4.09747 0
M  V30 3564 H 324.813 0.046159 3.22767 0
M  V30 3565 H 323.865 2.44565 2.91362 0
M  V30 3566 H 325.177 3.03572 3.95785 0
M  V30 3567 H 324.331 1.62586 5.84509 0
M  V30 3568 H 323.07 0.932078 4.7871 0
M  V30 3569 H 322.075 3.21374 4.46093 0
M  V30 3570 H 323.3 3.90869 5.55336 0
M  V30 3571 H 321.246 1.79586 6.3094 0
M  V30 3572 H 321.163 3.47965 6.71161 0
M  V30 3573 H 322.431 2.49861 7.3837 0
M  V30 3574 N 326.66 -1.06551 1.16123 0
M  V30 3575 C 327.908 -1.78947 0.939267 0
M  V30 3576 C 328.229 -1.87532 -0.534476 0
M  V30 3577 O 327.499 -1.38211 -1.38833 0
M  V30 3578 H 326.079 -0.662807 0.344523 0
M  V30 3579 H 328.741 -1.28725 1.46342 0
M  V30 3580 H 327.837 -2.81117 1.35572 0
M  V30 3581 N 328.138 -0.959301 -1.25041 0
M  V30 3582 C 329.085 -0.482057 -2.2571 0
M  V30 3583 C 330.055 0.467939 -1.59372 0
M  V30 3584 O 331.24 0.380159 -1.86974 0
M  V30 3585 C 328.38 0.229623 -3.44335 0
M  V30 3586 C 327.493 -0.758156 -4.25295 0
M  V30 3587 C 326.628 -0.0234403 -5.31195 0
M  V30 3588 C 325.667 -1.00184 -6.03846 0
M  V30 3589 N 324.804 -0.29769 -7.01469 0
M  V30 3590 H 329.644 -1.34538 -2.65901 0
M  V30 3591 H 327.181 -0.674592 -1.3072 0
M  V30 3592 H 329.139 0.658856 -4.11965 0
M  V30 3593 H 327.769 1.05696 -3.05005 0
M  V30 3594 H 326.821 -1.30586 -3.57284 0
M  V30 3595 H 328.133 -1.50458 -4.75567 0
M  V30 3596 H 327.287 0.464201 -6.04922 0
M  V30 3597 H 326.026 0.755741 -4.81809 0
M  V30 3598 H 325.031 -1.50044 -5.2893 0
M  V30 3599 H 326.256 -1.78133 -6.55321 0
M  V30 3600 H 324.202 0.462668 -6.54366 0
M  V30 3601 H 324.119 -0.983128 -7.4958 0
M  V30 3602 H 325.387 0.16826 -7.79318 0
M  V30 3603 N 329.616 1.39756 -0.72842 0
M  V30 3604 C 330.526 2.34444 -0.0855374 0
M  V30 3605 C 331.542 1.57976 0.729356 0
M  V30 3606 O 332.718 1.90301 0.659346 0
M  V30 3607 C 329.783 3.36965 0.815798 0
M  V30 3608 C 328.844 4.29299 -0.0105996 0
M  V30 3609 C 328.077 5.26923 0.84781 0
M  V30 3610 O 328.3 5.30859 2.08673 0
M  V30 3611 O 327.234 6.01249 0.279969 0
M  V30 3612 H 331.06 2.91065 -0.866892 0
M  V30 3613 H 328.645 1.4117 -0.48902 0
M  V30 3614 H 330.527 3.99804 1.33171 0
M  V30 3615 H 329.202 2.82739 1.57608 0
M  V30 3616 H 328.109 3.69703 -0.571877 0
M  V30 3617 H 329.442 4.86712 -0.73295 0
M  V30 3618 N 331.094 0.475555 1.50254 0
M  V30 3619 C 332.341 -0.0778919 2.0235 0
M  V30 3620 C 332.669 -1.39319 1.35722 0
M  V30 3621 O 331.924 -1.89888 0.473395 0
M  V30 3622 C 332.223 -0.305114 3.56095 0
M  V30 3623 C 331.889 0.92903 4.41225 0
M  V30 3624 C 330.551 1.26739 4.6421 0
M  V30 3625 C 332.903 1.75054 4.90923 0
M  V30 3626 C 330.231 2.42724 5.34137 0
M  V30 3627 C 332.583 2.9017 5.62125 0
M  V30 3628 C 331.247 3.24416 5.83362 0
M  V30 3629 H 330.517 -0.0285027 0.740452 0
M  V30 3630 H 333.164 0.630543 1.80821 0
M  V30 3631 H 331.469 -1.09584 3.76163 0
M  V30 3632 H 333.166 -0.747377 3.93974 0
M  V30 3633 H 329.756 0.655428 4.23559 0
M  V30 3634 H 333.94 1.50231 4.73016 0
M  V30 3635 H 329.196 2.69525 5.48786 0
M  V30 3636 H 333.37 3.54169 5.99614 0
M  V30 3637 H 330.997 4.14396 6.37323 0
M  V30 3638 N 332.573 -1.56217 0.208337 0
M  V30 3639 C 333.803 -2.02043 -0.431523 0
M  V30 3640 C 334.211 -1.08755 -1.54819 0
M  V30 3641 O 333.554 -0.0870009 -1.83494 0
M  V30 3642 C 333.616 -3.44239 -1.03633 0
M  V30 3643 C 333.28 -4.56965 -0.0567502 0
M  V30 3644 C 334.277 -5.14624 0.738773 0
M  V30 3645 C 331.962 -5.02266 0.0581736 0
M  V30 3646 C 333.956 -6.16045 1.63605 0
M  V30 3647 C 331.643 -6.03528 0.959001 0
M  V30 3648 C 332.641 -6.60293 1.7465 0
M  V30 3649 O 332.329 -7.59586 2.6322 0
M  V30 3650 H 332.061 -0.666772 -0.111313 0
M  V30 3651 H 334.615 -2.02919 0.318277 0
M  V30 3652 H 332.845 -3.40391 -1.83497 0
M  V30 3653 H 334.534 -3.73793 -1.58221 0
M  V30 3654 H 335.3 -4.80483 0.660364 0
M  V30 3655 H 331.179 -4.57771 -0.544633 0
M  V30 3656 H 334.723 -6.60279 2.25116 0
M  V30 3657 H 330.62 -6.37092 1.03848 0
M  V30 3658 H 331.388 -7.77057 2.57148 0
M  V30 3659 N 334.051 0.0651679 -1.57465 0
M  V30 3660 C 335.297 0.764193 -1.87851 0
M  V30 3661 C 335.63 1.76889 -0.801495 0
M  V30 3662 O 334.905 1.93594 0.187528 0
M  V30 3663 C 335.188 1.46625 -3.28897 0
M  V30 3664 C 335.041 0.477515 -4.47258 0
M  V30 3665 C 336.36 2.4095 -3.68281 0
M  V30 3666 H 333.479 0.276351 -0.683227 0
M  V30 3667 H 336.121 0.0272868 -1.8998 0
M  V30 3668 H 334.271 2.09438 -3.27212 0
M  V30 3669 H 335.943 -0.145922 -4.61069 0
M  V30 3670 H 334.186 -0.206576 -4.33308 0
M  V30 3671 H 334.857 1.0065 -5.42746 0
M  V30 3672 H 337.333 1.88209 -3.71102 0
M  V30 3673 H 336.209 2.87072 -4.67847 0
M  V30 3674 H 336.47 3.26049 -2.98571 0
M  V30 3675 N 335.529 1.53961 0.336706 0
M  V30 3676 C 336.778 1.70751 1.07363 0
M  V30 3677 C 337.091 0.481061 1.89592 0
M  V30 3678 O 338.297 0.530046 2.66276 0
M  V30 3679 C 336.753 3.01965 1.95818 0
M  V30 3680 C 336.361 4.31971 1.18764 0
M  V30 3681 C 338.105 3.28121 2.69327 0
M  V30 3682 C 336.012 5.54255 2.06289 0
M  V30 3683 H 334.942 0.636292 0.404535 0
M  V30 3684 H 337.593 1.80459 0.332681 0
M  V30 3685 H 335.975 2.86132 2.7376 0
M  V30 3686 H 337.149 4.5853 0.456849 0
M  V30 3687 H 335.464 4.12481 0.569946 0
M  V30 3688 H 338.061 4.16673 3.35094 0
M  V30 3689 H 338.404 2.45426 3.36261 0
M  V30 3690 H 338.937 3.44762 1.98454 0
M  V30 3691 H 335.676 6.39513 1.43885 0
M  V30 3692 H 335.196 5.31935 2.77138 0
M  V30 3693 H 336.875 5.90159 2.65182 0
M  V30 3694 N 337.007 -0.598083 1.45811 0
M  V30 3695 C 338.254 -1.35681 1.50323 0
M  V30 3696 C 338.582 -1.9393 0.148739 0
M  V30 3697 O 337.837 -1.76094 -0.853787 0
M  V30 3698 C 338.136 -2.51669 2.53766 0
M  V30 3699 C 337.802 -2.11508 3.98215 0
M  V30 3700 C 336.464 -2.0027 4.37545 0
M  V30 3701 C 338.816 -1.80308 4.89018 0
M  V30 3702 C 336.144 -1.56067 5.65562 0
M  V30 3703 C 338.496 -1.37589 6.17456 0
M  V30 3704 C 337.16 -1.24916 6.55708 0
M  V30 3705 H 336.43 -0.496492 0.550069 0
M  V30 3706 H 339.077 -0.675052 1.79207 0
M  V30 3707 H 337.382 -3.25225 2.18486 0
M  V30 3708 H 339.079 -3.09895 2.54492 0
M  V30 3709 H 335.669 -2.21185 3.67117 0
M  V30 3710 H 339.853 -1.87884 4.59362 0
M  V30 3711 H 335.109 -1.44886 5.93985 0
M  V30 3712 H 339.283 -1.12495 6.87254 0
M  V30 3713 H 336.91 -0.904386 7.54801 0
M  V30 3714 N 338.485 -1.33259 -0.841409 0
M  V30 3715 C 339.762 -1.15174 -1.58096 0
M  V30 3716 C 340.142 0.282858 -2.09196 0
M  V30 3717 O 339.49 1.28151 -1.89181 0
M  V30 3718 C 339.7 -2.1907 -2.71679 0
M  V30 3719 C 341.048 -2.53093 -3.40924 0
M  V30 3720 O 342.072 -2.17717 -2.81918 0
M  V30 3721 O 340.931 -3.1379 -4.47435 0
M  V30 3722 H 338.025 -0.445303 -0.696875 0
M  V30 3723 H 340.571 -1.44833 -0.884385 0
M  V30 3724 H 339.343 -3.15443 -2.31541 0
M  V30 3725 H 338.966 -1.90481 -3.49002 0
M  V30 3726 N 339.963 1.05934 -1.16686 0
M  V30 3727 C 341.203 1.80382 -0.961345 0
M  V30 3728 C 341.567 1.85331 0.501643 0
M  V30 3729 O 342.768 2.55795 0.825986 0
M  V30 3730 C 341.039 3.20777 -1.57596 0
M  V30 3731 S 342.598 4.11795 -1.51559 0
M  V30 3732 H 339.416 0.621332 -0.345641 0
M  V30 3733 H 342.018 1.27157 -1.48497 0
M  V30 3734 H 340.722 3.14773 -2.63337 0
M  V30 3735 H 340.253 3.79078 -1.05182 0
M  V30 3736 H 342.268 4.93485 -0.518374 0
M  V30 3737 N 341.441 0.965919 1.2453 0
M  V30 3738 C 342.666 0.643971 1.97149 0
M  V30 3739 C 343.091 -0.779487 1.71189 0
M  V30 3740 O 342.449 -1.5288 0.974553 0
M  V30 3741 C 342.497 0.922557 3.48599 0
M  V30 3742 O 341.601 0.00707672 4.12399 0
M  V30 3743 H 340.942 0.243647 0.617683 0
M  V30 3744 H 343.472 1.29558 1.58353 0
M  V30 3745 H 343.482 0.853373 3.98976 0
M  V30 3746 H 342.157 1.95996 3.66822 0
M  V30 3747 H 340.734 0.12943 3.72675 0
M  V30 3748 N 342.919 -1.39368 0.735821 0
M  V30 3749 C 343.869 -2.27885 0.0724287 0
M  V30 3750 C 344.853 -1.44301 -0.711756 0
M  V30 3751 O 346.045 -1.67206 -0.58063 0
M  V30 3752 C 343.174 -3.33029 -0.833454 0
M  V30 3753 C 342.26 -4.24078 -0.0433749 0
M  V30 3754 N 342.651 -4.96138 0.983903 0
M  V30 3755 C 340.949 -4.45164 -0.272905 0
M  V30 3756 C 341.65 -5.63069 1.4604 0
M  V30 3757 N 340.626 -5.37991 0.778857 0
M  V30 3758 H 344.428 -2.81052 0.859467 0
M  V30 3759 H 341.942 -1.5206 0.570227 0
M  V30 3760 H 343.939 -3.95311 -1.32419 0
M  V30 3761 H 342.599 -2.81421 -1.61964 0
M  V30 3762 H 343.61 -4.9958 1.36528 0
M  V30 3763 H 340.287 -4.04497 -1.03383 0
M  V30 3764 H 341.677 -6.30755 2.31511 0
M  V30 3765 N 344.397 -0.483516 -1.5 0
M  V30 3766 C 345.307 0.309172 -2.32554 0
M  V30 3767 C 346.323 0.984159 -1.43493 0
M  V30 3768 O 347.499 0.969399 -1.76535 0
M  V30 3769 C 344.564 1.36979 -3.18493 0
M  V30 3770 C 343.625 0.710095 -4.23387 0
M  V30 3771 C 342.858 1.72018 -5.05218 0
M  V30 3772 O 343.081 2.94813 -4.88305 0
M  V30 3773 O 342.015 1.28515 -5.8802 0
M  V30 3774 H 345.841 -0.366064 -3.01486 0
M  V30 3775 H 343.426 -0.24514 -1.47375 0
M  V30 3776 H 345.308 1.98385 -3.71781 0
M  V30 3777 H 343.983 2.02828 -2.52275 0
M  V30 3778 H 342.89 0.0567539 -3.74057 0
M  V30 3779 H 344.223 0.0943557 -4.9211 0
M  V30 3780 N 345.875 1.56104 -0.216619 0
M  V30 3781 C 347.103 2.02563 0.421413 0
M  V30 3782 C 347.518 1.0965 1.53695 0
M  V30 3783 O 346.875 0.10521 1.82196 0
M  V30 3784 C 346.926 3.48584 0.957665 0
M  V30 3785 O 346.647 4.37953 -0.113389 0
M  V30 3786 C 348.148 4.10664 1.66943 0
M  V30 3787 H 345.368 0.662944 0.103665 0
M  V30 3788 H 347.912 2.01793 -0.331629 0
M  V30 3789 H 346.067 3.49985 1.661 0
M  V30 3790 H 346.481 5.23704 0.288932 0
M  V30 3791 H 347.955 5.14622 1.99671 0
M  V30 3792 H 348.432 3.55373 2.58083 0
M  V30 3793 H 349.038 4.13098 1.01142 0
M  V30 3794 N 347.353 -0.0568162 1.57498 0
M  V30 3795 C 348.316 -1.05038 2.03715 0
M  V30 3796 C 349.316 -1.30709 0.936577 0
M  V30 3797 O 350.506 -1.26178 1.20103 0
M  V30 3798 C 347.638 -2.39034 2.43055 0
M  V30 3799 H 348.831 -0.651715 2.92733 0
M  V30 3800 H 346.384 -0.302947 1.53336 0
M  V30 3801 H 347.119 -2.83703 1.57108 0
M  V30 3802 H 346.904 -2.21739 3.2338 0
M  V30 3803 H 348.394 -3.10421 2.79336 0
M  V30 3804 N 348.832 -1.54138 -0.328536 0
M  V30 3805 C 349.795 -1.82462 -1.38709 0
M  V30 3806 C 350.795 -0.696229 -1.44946 0
M  V30 3807 O 351.985 -0.964535 -1.4506 0
M  V30 3808 C 349.117 -1.98018 -2.77492 0
M  V30 3809 H 350.31 -2.77037 -1.14851 0
M  V30 3810 H 347.863 -1.45779 -0.563751 0
M  V30 3811 H 348.598 -1.05637 -3.06613 0
M  V30 3812 H 348.383 -2.80124 -2.74359 0
M  V30 3813 H 349.873 -2.21396 -3.54081 0
M  V30 3814 N 350.31 0.590341 -1.46126 0
M  V30 3815 C 351.22 1.72793 -1.58681 0
M  V30 3816 C 352.236 1.67516 -0.470566 0
M  V30 3817 O 353.412 1.87562 -0.733642 0
M  V30 3818 C 350.477 3.09287 -1.5666 0
M  V30 3819 C 349.538 3.25886 -2.79458 0
M  V30 3820 C 348.771 4.55869 -2.77524 0
M  V30 3821 O 348.994 5.3928 -1.85832 0
M  V30 3822 O 347.928 4.75552 -3.68964 0
M  V30 3823 H 351.754 1.65149 -2.54872 0
M  V30 3824 H 349.339 0.756486 -1.28832 0
M  V30 3825 H 351.221 3.90577 -1.58202 0
M  V30 3826 H 349.896 3.17385 -0.636271 0
M  V30 3827 H 348.803 2.44119 -2.83472 0
M  V30 3828 H 350.136 3.22675 -3.71674 0
M  V30 3829 N 351.788 1.33704 0.83433 0
M  V30 3830 C 353.037 1.24763 1.58484 0
M  V30 3831 C 353.35 -0.183775 1.94735 0
M  V30 3832 O 354.556 -0.395234 2.68608 0
M  V30 3833 C 353.012 2.18638 2.85876 0
M  V30 3834 C 352.62 3.66974 2.56971 0
M  V30 3835 C 354.364 2.18581 3.63899 0
M  V30 3836 C 352.271 4.5275 3.80488 0
M  V30 3837 H 351.201 0.463425 0.594772 0
M  V30 3838 H 353.852 1.58797 0.919551 0
M  V30 3839 H 352.234 1.77542 3.5397 0
M  V30 3840 H 353.408 4.16538 1.9706 0
M  V30 3841 H 351.723 3.69366 1.92244 0
M  V30 3842 H 354.32 2.79894 4.55591 0
M  V30 3843 H 354.663 1.18207 3.99165 0
M  V30 3844 H 355.196 2.58062 3.02735 0
M  V30 3845 H 351.935 5.54017 3.5035 0
M  V30 3846 H 351.455 4.07927 4.39722 0
M  V30 3847 H 353.134 4.66784 4.4802 0
M  V30 3848 N 353.266 -1.05314 1.17247 0
M  V30 3849 C 354.196 -2.1498 0.911362 0
M  V30 3850 C 355.177 -1.69471 -0.146169 0
M  V30 3851 O 356.362 -1.942 0.003812 0
M  V30 3852 C 353.492 -3.4472 0.422528 0
M  V30 3853 C 352.446 -4.03789 1.4191 0
M  V30 3854 C 351.772 -5.28858 0.788274 0
M  V30 3855 C 353.072 -4.41418 2.7919 0
M  V30 3856 H 354.766 -2.3708 1.82848 0
M  V30 3857 H 352.312 -1.13938 0.880569 0
M  V30 3858 H 354.265 -4.20787 0.227289 0
M  V30 3859 H 352.989 -3.22269 -0.530123 0
M  V30 3860 H 351.648 -3.2979 1.60106 0
M  V30 3861 H 351.296 -5.02709 -0.171173 0
M  V30 3862 H 350.996 -5.69338 1.45353 0
M  V30 3863 H 352.52 -6.07612 0.603282 0
M  V30 3864 H 353.934 -5.08524 2.64719 0
M  V30 3865 H 352.331 -4.92913 3.42282 0
M  V30 3866 H 353.401 -3.51819 3.33693 0
M  V30 3867 N 354.744 -0.972509 -1.24016 0
M  V30 3868 C 355.691 -0.505969 -2.25186 0
M  V30 3869 C 356.661 0.451009 -1.5986 0
M  V30 3870 O 357.846 0.360307 -1.87367 0
M  V30 3871 C 354.986 0.193089 -3.44559 0
M  V30 3872 C 354.099 -0.803222 -4.24467 0
M  V30 3873 C 353.234 -0.0797793 -5.3114 0
M  V30 3874 C 352.273 -1.06583 -6.02749 0
M  V30 3875 N 351.41 -0.372074 -7.01113 0
M  V30 3876 H 356.25 -1.37351 -2.64459 0
M  V30 3877 H 353.787 -0.688419 -1.29997 0
M  V30 3878 H 355.745 0.615125 -4.1264 0
M  V30 3879 H 354.375 1.02455 -3.06109 0
M  V30 3880 H 353.427 -1.34368 -3.55878 0
M  V30 3881 H 354.739 -1.55494 -4.73944 0
M  V30 3882 H 353.893 0.400015 -6.0538 0
M  V30 3883 H 352.632 0.704597 -4.82583 0
M  V30 3884 H 351.637 -1.55645 -5.27309 0
M  V30 3885 H 352.862 -1.85074 -6.53395 0
M  V30 3886 H 350.808 0.393238 -6.5482 0
M  V30 3887 H 350.725 -1.06258 -7.48495 0
M  V30 3888 H 351.993 0.0855932 -7.79453 0
M  V30 3889 N 356.222 1.38976 -0.743202 0
M  V30 3890 C 357.154 2.29096 -0.0689228 0
M  V30 3891 C 358.167 1.47229 0.694791 0
M  V30 3892 O 359.356 1.70212 0.537597 0
M  V30 3893 C 356.456 3.25988 0.926548 0
M  V30 3894 C 355.629 4.36833 0.222647 0
M  V30 3895 C 354.688 5.13981 1.12739 0
M  V30 3896 O 353.714 5.6601 0.601795 0
M  V30 3897 N 354.916 5.25966 2.45641 0
M  V30 3898 H 357.681 2.87604 -0.842846 0
M  V30 3899 H 355.242 1.50645 -0.593109 0
M  V30 3900 H 357.234 3.74476 1.5346 0
M  V30 3901 H 355.804 2.68453 1.60162 0
M  V30 3902 H 355.024 3.90116 -0.565983 0
M  V30 3903 H 356.312 5.0811 -0.264841 0
M  V30 3904 H 355.71 4.85228 2.9081 0
M  V30 3905 H 354.267 5.77865 3.01522 0
M  V30 3906 N 357.7 0.491464 1.49741 0
M  V30 3907 C 358.949 -0.0582189 2.01616 0
M  V30 3908 C 359.262 -1.38927 1.3769 0
M  V30 3909 O 360.468 -2.02509 1.80838 0
M  V30 3910 C 358.924 -0.154235 3.59569 0
M  V30 3911 C 358.532 1.1696 4.32463 0
M  V30 3912 C 360.276 -0.65479 4.1942 0
M  V30 3913 C 358.183 1.03627 5.8225 0
M  V30 3914 H 357.113 -0.0255317 0.753568 0
M  V30 3915 H 359.764 0.629445 1.72367 0
M  V30 3916 H 358.146 -0.906138 3.85493 0
M  V30 3917 H 359.32 1.93405 4.18248 0
M  V30 3918 H 357.635 1.60285 3.84315 0
M  V30 3919 H 360.232 -0.771903 5.29099 0
M  V30 3920 H 360.575 -1.65127 3.8215 0
M  V30 3921 H 361.108 0.040304 3.9778 0
M  V30 3922 H 357.847 2.00672 6.24028 0
M  V30 3923 H 357.367 0.312546 5.98985 0
M  V30 3924 H 359.046 0.711114 6.4308 0
M  V30 3925 N 359.178 -1.55987 0.224894 0
M  V30 3926 C 360.108 -2.23426 -0.678457 0
M  V30 3927 C 361.089 -1.20709 -1.19847 0
M  V30 3928 O 362.274 -1.49304 -1.24186 0
M  V30 3929 C 359.404 -2.91676 -1.88527 0
M  V30 3930 C 358.358 -4.00893 -1.49896 0
M  V30 3931 C 357.684 -4.56455 -2.78483 0
M  V30 3932 C 358.984 -5.17769 -0.686461 0
M  V30 3933 H 360.678 -2.99175 -0.116173 0
M  V30 3934 H 358.224 -1.43897 -0.054436 0
M  V30 3935 H 360.177 -3.37547 -2.5227 0
M  V30 3936 H 358.901 -2.1338 -2.47258 0
M  V30 3937 H 357.56 -3.55758 -0.884985 0
M  V30 3938 H 357.208 -3.74886 -3.35365 0
M  V30 3939 H 356.908 -5.30169 -2.53368 0
M  V30 3940 H 358.432 -5.05047 -3.43162 0
M  V30 3941 H 359.846 -5.60001 -1.22767 0
M  V30 3942 H 358.243 -5.97735 -0.532259 0
M  V30 3943 H 359.313 -4.83932 0.306196 0
M  V30 3944 N 360.656 0.0484629 -1.57525 0
M  V30 3945 C 361.903 0.743125 -1.88372 0
M  V30 3946 C 362.231 1.76383 -0.819715 0
M  V30 3947 O 361.486 1.94855 0.181659 0
M  V30 3948 C 361.785 1.46632 -3.25935 0
M  V30 3949 C 361.451 0.583427 -4.4711 0
M  V30 3950 C 360.113 0.340191 -4.79996 0
M  V30 3951 C 362.465 -0.0273345 -5.21193 0
M  V30 3952 C 359.793 -0.522903 -5.84365 0
M  V30 3953 C 362.145 -0.878017 -6.26477 0
M  V30 3954 C 360.809 -1.1309 -6.5785 0
M  V30 3955 H 360.079 0.271929 -0.689301 0
M  V30 3956 H 362.726 0.00336166 -1.915 0
M  V30 3957 H 361.031 2.2789 -3.18706 0
M  V30 3958 H 362.728 2.00902 -3.47044 0
M  V30 3959 H 359.318 0.783151 -4.21384 0
M  V30 3960 H 363.502 0.147654 -4.9608 0
M  V30 3961 H 358.758 -0.727335 -6.07058 0
M  V30 3962 H 362.932 -1.35789 -6.83033 0
M  V30 3963 H 360.559 -1.80144 -7.38547 0
M  V30 3964 N 362.134 1.5431 0.320358 0
M  V30 3965 C 363.067 1.78769 1.41834 0
M  V30 3966 C 364.045 0.63783 1.49568 0
M  V30 3967 O 365.229 0.875628 1.66928 0
M  V30 3968 C 362.356 1.90712 2.79905 0
M  V30 3969 C 361.402 3.13023 2.89687 0
M  V30 3970 S 362.235 4.71554 2.53766 0
M  V30 3971 C 363.391 4.86408 3.93902 0
M  V30 3972 H 363.624 2.71619 1.20874 0
M  V30 3973 H 361.157 1.45474 0.517377 0
M  V30 3974 H 363.115 1.98279 3.59438 0
M  V30 3975 H 361.776 0.988343 2.98145 0
M  V30 3976 H 360.969 3.18124 3.90913 0
M  V30 3977 H 360.571 3.03803 2.18128 0
M  V30 3978 H 362.863 4.69241 4.88691 0
M  V30 3979 H 363.806 5.88508 3.93782 0
M  V30 3980 H 364.214 4.14689 3.83005 0
M  V30 3981 N 363.613 -0.582584 1.46437 0
M  V30 3982 C 364.861 -1.33814 1.51453 0
M  V30 3983 C 365.182 -1.94277 0.167792 0
M  V30 3984 O 364.452 -1.78566 -0.805677 0
M  V30 3985 H 363.032 -0.496838 0.557818 0
M  V30 3986 H 365.694 -0.682281 1.82568 0
M  V30 3987 H 364.79 -2.14479 2.26728 0
M  V30 3988 N 365.091 -1.34144 -0.827227 0
M  V30 3989 C 366.024 -1.19707 -1.94282 0
M  V30 3990 C 367.002 -0.0897256 -1.62352 0
M  V30 3991 O 368.186 -0.254095 -1.8678 0
M  V30 3992 C 365.313 -0.838646 -3.28153 0
M  V30 3993 C 364.359 -1.95514 -3.79047 0
M  V30 3994 S 365.192 -3.56793 -3.99323 0
M  V30 3995 C 366.348 -3.22983 -5.36127 0
M  V30 3996 H 366.581 -2.1414 -2.06231 0
M  V30 3997 H 364.114 -1.19121 -0.982321 0
M  V30 3998 H 366.072 -0.638637 -4.05502 0
M  V30 3999 H 364.733 0.0872776 -3.13979 0
M  V30 4000 H 363.926 -1.658 -4.75948 0
M  V30 4001 H 363.528 -2.11241 -3.08631 0
M  V30 4002 H 365.82 -2.74531 -6.19386 0
M  V30 4003 H 366.763 -4.19008 -5.70822 0
M  V30 4004 H 367.171 -2.59276 -5.01434 0
M  V30 4005 N 366.569 1.04691 -1.17803 0
M  V30 4006 C 367.502 2.12068 -0.842765 0
M  V30 4007 C 368.48 1.61455 0.192608 0
M  V30 4008 O 369.664 1.88359 0.072995 0
M  V30 4009 C 366.791 3.37715 -0.258063 0
M  V30 4010 C 365.837 4.07164 -1.26962 0
M  V30 4011 S 366.67 4.55047 -2.82299 0
M  V30 4012 C 367.826 5.83935 -2.25323 0
M  V30 4013 H 368.059 2.4018 -1.75217 0
M  V30 4014 H 365.592 1.17366 -1.00323 0
M  V30 4015 H 367.55 4.10435 0.0727935 0
M  V30 4016 H 366.211 3.0773 0.629357 0
M  V30 4017 H 365.404 4.9746 -0.809263 0
M  V30 4018 H 365.006 3.40533 -1.54639 0
M  V30 4019 H 367.298 6.57552 -1.63192 0
M  V30 4020 H 368.241 6.34725 -3.13894 0
M  V30 4021 H 368.649 5.3874 -1.68582 0
M  V30 4022 N 368.047 0.979072 1.23499 0
M  V30 4023 C 369.275 0.665202 1.95915 0
M  V30 4024 C 369.69 -0.767571 1.72493 0
M  V30 4025 O 369.047 -1.51635 1.01554 0
M  V30 4026 C 369.098 0.944438 3.48945 0
M  V30 4027 O 368.819 2.3209 3.71572 0
M  V30 4028 C 370.32 0.646336 4.38563 0
M  V30 4029 H 367.54 0.247218 0.623798 0
M  V30 4030 H 370.084 1.31009 1.57025 0
M  V30 4031 H 368.239 0.345575 3.85856 0
M  V30 4032 H 368.653 2.40957 4.65876 0
M  V30 4033 H 370.127 0.892091 5.44744 0
M  V30 4034 H 370.604 -0.419575 4.37191 0
M  V30 4035 H 371.21 1.22562 4.07258 0
M  V30 4036 N 369.525 -1.3858 0.750561 0
M  V30 4037 C 370.435 -2.34278 0.122825 0
M  V30 4038 C 371.451 -1.59116 -0.704131 0
M  V30 4039 O 372.627 -1.91326 -0.628987 0
M  V30 4040 C 369.692 -3.38221 -0.762086 0
M  V30 4041 C 368.753 -4.29227 0.078896 0
M  V30 4042 C 367.986 -5.28205 -0.763874 0
M  V30 4043 O 368.209 -5.34112 -2.00201 0
M  V30 4044 O 367.143 -6.01618 -0.18428 0
M  V30 4045 H 370.969 -2.89649 0.913088 0
M  V30 4046 H 368.554 -1.40374 0.511417 0
M  V30 4047 H 370.436 -4.01872 -1.26793 0
M  V30 4048 H 369.111 -2.85211 -1.5309 0
M  V30 4049 H 368.018 -3.68747 0.630621 0
M  V30 4050 H 369.351 -4.85484 0.810289 0
M  V30 4051 N 371.003 -0.499398 -1.49478 0
M  V30 4052 C 372.233 0.0424839 -2.06556 0
M  V30 4053 C 372.641 1.31514 -1.36018 0
M  V30 4054 O 371.984 1.78555 -0.431718 0
M  V30 4055 C 372.046 0.368074 -3.57611 0
M  V30 4056 C 371.71 -0.806631 -4.49825 0
M  V30 4057 C 372.707 -1.69667 -4.91436 0
M  V30 4058 C 370.392 -1.00498 -4.92144 0
M  V30 4059 C 372.386 -2.76923 -5.74101 0
M  V30 4060 C 370.073 -2.08072 -5.74586 0
M  V30 4061 C 371.071 -2.96119 -6.15469 0
M  V30 4062 O 370.759 -4.01836 -6.96264 0
M  V30 4063 H 370.491 -0.0165165 -0.675798 0
M  V30 4064 H 373.045 -0.695497 -1.93267 0
M  V30 4065 H 371.275 1.15963 -3.68903 0
M  V30 4066 H 372.964 0.848381 -3.96935 0
M  V30 4067 H 373.73 -1.55524 -4.59388 0
M  V30 4068 H 369.609 -0.329036 -4.59824 0
M  V30 4069 H 373.153 -3.45676 -6.05932 0
M  V30 4070 H 369.05 -2.22211 -6.06047 0
M  V30 4071 H 369.818 -3.9917 -7.14567 0
M  V30 4072 N 372.481 1.55866 -0.233164 0
M  V30 4073 C 373.711 2.02704 0.399325 0
M  V30 4074 C 374.119 1.11204 1.53069 0
M  V30 4075 O 373.462 0.116182 1.83332 0
M  V30 4076 C 373.524 3.45844 0.981429 0
M  V30 4077 C 373.188 4.56997 -0.0159561 0
M  V30 4078 C 374.185 5.13384 -0.820552 0
M  V30 4079 C 371.87 5.0211 -0.138072 0
M  V30 4080 C 373.864 6.13365 -1.73386 0
M  V30 4081 C 371.551 6.01926 -1.0549 0
M  V30 4082 C 372.549 6.57431 -1.85132 0
M  V30 4083 O 372.237 7.55302 -2.75272 0
M  V30 4084 H 371.969 0.668459 0.100692 0
M  V30 4085 H 374.523 2.02387 -0.35052 0
M  V30 4086 H 372.753 3.43267 1.78058 0
M  V30 4087 H 374.442 3.76262 1.52255 0
M  V30 4088 H 375.208 4.79372 -0.736721 0
M  V30 4089 H 371.087 4.5858 0.471737 0
M  V30 4090 H 374.631 6.56614 -2.35592 0
M  V30 4091 H 370.528 6.35359 -1.1397 0
M  V30 4092 H 371.296 7.72867 -2.69477 0
M  V30 4093 N 373.959 -0.0401083 1.57549 0
M  V30 4094 C 374.909 -1.05175 2.02292 0
M  V30 4095 C 375.893 -1.32674 0.910294 0
M  V30 4096 O 377.085 -1.32444 1.17421 0
M  V30 4097 C 374.214 -2.35622 2.49674 0
M  V30 4098 C 373.3 -2.11261 3.67736 0
M  V30 4099 N 373.691 -1.56923 4.80842 0
M  V30 4100 C 371.989 -2.41596 3.74897 0
M  V30 4101 C 372.69 -1.48111 5.62528 0
M  V30 4102 N 371.666 -1.95282 5.07312 0
M  V30 4103 H 375.468 -0.625455 2.87168 0
M  V30 4104 H 372.982 -0.246624 1.60516 0
M  V30 4105 H 374.979 -3.08893 2.79983 0
M  V30 4106 H 373.639 -2.7894 1.662 0
M  V30 4107 H 374.65 -1.25345 5.02503 0
M  V30 4108 H 371.327 -2.88064 3.02201 0
M  V30 4109 H 372.717 -1.06683 6.63377 0
M  V30 4110 N 375.437 -1.54477 -0.31217 0
M  V30 4111 C 376.667 -1.76948 -1.06645 0
M  V30 4112 C 377.075 -0.523593 -1.81811 0
M  V30 4113 O 376.418 0.51578 -1.76311 0
M  V30 4114 C 376.48 -2.91668 -2.10166 0
M  V30 4115 C 376.144 -4.30165 -1.54296 0
M  V30 4116 C 377.141 -5.10603 -0.978793 0
M  V30 4117 C 374.826 -4.76738 -1.58196 0
M  V30 4118 C 376.82 -6.3573 -0.461048 0
M  V30 4119 C 374.507 -6.01831 -1.06034 0
M  V30 4120 C 375.505 -6.81161 -0.500844 0
M  V30 4121 O 375.193 -8.03899 0.0128958 0
M  V30 4122 H 374.925 -0.594088 -0.322546 0
M  V30 4123 H 377.479 -2.02213 -0.360441 0
M  V30 4124 H 375.709 -2.62001 -2.84416 0
M  V30 4125 H 377.398 -3.01817 -2.71406 0
M  V30 4126 H 378.164 -4.75771 -0.941651 0
M  V30 4127 H 374.043 -4.15027 -2.00683 0
M  V30 4128 H 377.587 -6.97596 -0.0236894 0
M  V30 4129 H 373.484 -6.36152 -1.09459 0
M  V30 4130 H 374.252 -8.18437 -0.101457 0
M  V30 4131 N 376.915 0.57481 -1.46744 0
M  V30 4132 C 378.162 1.33272 -1.52462 0
M  V30 4133 C 378.49 1.93669 -0.179572 0
M  V30 4134 O 377.745 1.7743 0.825664 0
M  V30 4135 C 378.044 2.476 -2.57738 0
M  V30 4136 C 377.71 2.05146 -4.01529 0
M  V30 4137 C 376.372 1.93284 -4.40676 0
M  V30 4138 C 378.724 1.72506 -4.91824 0
M  V30 4139 C 376.052 1.47049 -5.67973 0
M  V30 4140 C 378.404 1.27748 -6.19567 0
M  V30 4141 C 377.068 1.14468 -6.57612 0
M  V30 4142 H 376.338 0.487678 -0.557899 0
M  V30 4143 H 378.985 0.646456 -1.80259 0
M  V30 4144 H 377.29 3.21708 -2.23632 0
M  V30 4145 H 378.987 3.05807 -2.5939 0
M  V30 4146 H 375.577 2.15316 -3.7059 0
M  V30 4147 H 379.761 1.80552 -4.62293 0
M  V30 4148 H 375.017 1.35417 -5.96215 0
M  V30 4149 H 379.191 1.01547 -6.88957 0
M  V30 4150 H 376.818 0.78419 -7.56145 0
M  V30 4151 N 378.394 1.34581 0.820102 0
M  V30 4152 C 379.641 1.27096 1.57648 0
M  V30 4153 C 379.969 -0.158317 1.93855 0
M  V30 4154 O 379.224 -1.12028 1.60463 0
M  V30 4155 C 379.523 2.10997 2.8847 0
M  V30 4156 C 379.189 3.59966 2.71543 0
M  V30 4157 C 377.851 4.00575 2.66634 0
M  V30 4158 C 380.203 4.54548 2.55021 0
M  V30 4159 C 377.531 5.33953 2.43128 0
M  V30 4160 C 379.883 5.88109 2.33047 0
M  V30 4161 C 378.547 6.27878 2.26552 0
M  V30 4162 H 377.817 0.465078 0.576874 0
M  V30 4163 H 380.464 1.6635 0.948671 0
M  V30 4164 H 378.769 1.6458 3.55557 0
M  V30 4165 H 380.466 2.0255 3.46084 0
M  V30 4166 H 377.056 3.27733 2.76205 0
M  V30 4167 H 381.24 4.24069 2.57835 0
M  V30 4168 H 376.496 5.63781 2.3656 0
M  V30 4169 H 380.67 6.60985 2.19251 0
M  V30 4170 H 378.297 7.31162 2.081 0
M  V30 4171 N 379.872 -1.04064 1.18357 0
M  V30 4172 C 381.1 -1.80916 1.00384 0
M  V30 4173 C 381.515 -1.83414 -0.447738 0
M  V30 4174 O 380.872 -1.26962 -1.31099 0
M  V30 4175 C 380.923 -3.26516 1.55144 0
M  V30 4176 O 380.644 -3.2424 2.94618 0
M  V30 4177 C 382.145 -4.20013 1.41789 0
M  V30 4178 H 379.365 -0.569728 0.354474 0
M  V30 4179 H 381.909 -1.31151 1.56906 0
M  V30 4180 H 380.064 -3.73512 1.02798 0
M  V30 4181 H 380.478 -4.15452 3.20156 0
M  V30 4182 H 381.952 -5.20111 1.84901 0
M  V30 4183 H 382.429 -4.37667 0.36661 0
M  V30 4184 H 383.035 -3.78881 1.93207 0
M  V30 4185 N 381.35 -0.985608 -1.22978 0
M  V30 4186 C 382.578 -0.675582 -1.95559 0
M  V30 4187 C 382.993 0.758413 -1.72897 0
M  V30 4188 O 382.35 1.51094 -1.02357 0
M  V30 4189 C 382.401 -0.96293 -3.48439 0
M  V30 4190 O 382.122 -2.34057 -3.70336 0
M  V30 4191 C 383.623 -0.669585 -4.38214 0
M  V30 4192 H 380.843 -0.250523 -0.622478 0
M  V30 4193 H 383.387 -1.3184 -1.56328 0
M  V30 4194 H 381.542 -0.366033 -3.85667 0
M  V30 4195 H 381.956 -2.43424 -4.64591 0
M  V30 4196 H 383.43 -0.920967 -5.44263 0
M  V30 4197 H 383.907 0.396383 -4.37408 0
M  V30 4198 H 384.513 -1.2472 -4.06602 0
M  V30 4199 N 382.828 1.3818 -0.7579 0
M  V30 4200 C 383.758 2.33027 -0.148597 0
M  V30 4201 C 384.739 1.55085 0.69875 0
M  V30 4202 O 385.924 1.83384 0.639053 0
M  V30 4203 C 383.054 3.3928 0.742034 0
M  V30 4204 C 382.008 4.28 -0.00291946 0
M  V30 4205 C 381.334 5.25146 1.00625 0
M  V30 4206 C 382.634 5.08938 -1.17385 0
M  V30 4207 H 384.328 2.84231 -0.940909 0
M  V30 4208 H 381.874 1.36659 -0.453908 0
M  V30 4209 H 383.827 4.046 1.17799 0
M  V30 4210 H 382.551 2.86569 1.56671 0
M  V30 4211 H 381.21 3.64192 -0.419504 0
M  V30 4212 H 380.858 4.68721 1.8251 0
M  V30 4213 H 380.558 5.85361 0.512428 0
M  V30 4214 H 382.082 5.93342 1.44143 0
M  V30 4215 H 383.496 5.67474 -0.815224 0
M  V30 4216 H 381.893 5.7841 -1.59882 0
M  V30 4217 H 382.963 4.42424 -1.98468 0
M  V30 4218 N 384.306 0.507319 1.49211 0
M  V30 4219 C 385.583 -0.0982702 1.95353 0
M  V30 4220 C 385.963 -1.53516 1.449 0
M  V30 4221 O 385.311 -2.18594 0.66551 0
M  V30 4222 C 385.521 -0.00440283 3.49 0
M  V30 4223 C 386.869 -0.175147 4.24239 0
M  V30 4224 O 387.893 -0.0792891 3.56112 0
M  V30 4225 O 386.752 -0.37276 5.45227 0
M  V30 4226 H 383.846 -0.0918236 0.821887 0
M  V30 4227 H 386.392 0.570307 1.5983 0
M  V30 4228 H 385.164 0.997402 3.78375 0
M  V30 4229 H 384.787 -0.712845 3.91158 0
M  V30 4230 N 385.784 -1.5574 0.241426 0
M  V30 4231 C 386.714 -2.24133 -0.654722 0
M  V30 4232 C 387.695 -1.21974 -1.1856 0
M  V30 4233 O 388.88 -1.50612 -1.22595 0
M  V30 4234 C 386.01 -2.93659 -1.85423 0
M  V30 4235 C 384.964 -4.0246 -1.45636 0
M  V30 4236 C 384.29 -4.59383 -2.73626 0
M  V30 4237 C 385.59 -5.18468 -0.631506 0
M  V30 4238 H 387.284 -2.99281 -0.0844353 0
M  V30 4239 H 384.83 -1.43947 -0.0391707 0
M  V30 4240 H 386.783 -3.40203 -2.48676 0
M  V30 4241 H 385.507 -2.15991 -2.44981 0
M  V30 4242 H 384.166 -3.56676 -0.847202 0
M  V30 4243 H 383.814 -3.78422 -3.3137 0
M  V30 4244 H 383.514 -5.32826 -2.4773 0
M  V30 4245 H 385.038 -5.08658 -3.37786 0
M  V30 4246 H 386.452 -5.61272 -1.1682 0
M  V30 4247 H 384.849 -5.98266 -0.468831 0
M  V30 4248 H 385.919 -4.8358 0.357506 0
M  V30 4249 N 387.262 0.0317525 -1.57568 0
M  V30 4250 C 388.509 0.723104 -1.89149 0
M  V30 4251 C 388.837 1.75504 -0.838377 0
M  V30 4252 O 388.092 1.95037 0.160982 0
M  V30 4253 C 388.391 1.43167 -3.27472 0
M  V30 4254 C 388.057 0.535972 -4.47703 0
M  V30 4255 C 386.719 0.289262 -4.8033 0
M  V30 4256 C 389.071 -0.0826125 -5.21135 0
M  V30 4257 C 386.399 -0.584853 -5.83778 0
M  V30 4258 C 388.751 -0.944414 -6.25511 0
M  V30 4259 C 387.415 -1.20061 -6.56614 0
M  V30 4260 H 386.685 0.264602 -0.692146 0
M  V30 4261 H 389.332 -0.0169496 -1.91492 0
M  V30 4262 H 387.637 2.24497 -3.21105 0
M  V30 4263 H 389.334 1.97209 -3.49155 0
M  V30 4264 H 385.924 0.738414 -4.22191 0
M  V30 4265 H 390.108 0.0950302 -4.96209 0
M  V30 4266 H 385.364 -0.79168 -6.06253 0
M  V30 4267 H 389.538 -1.43026 -6.81554 0
M  V30 4268 H 387.165 -1.87967 -7.36595 0
M  V30 4269 N 388.74 1.54641 0.303973 0
M  V30 4270 C 389.703 1.84646 1.35789 0
M  V30 4271 C 390.703 0.7192 1.4382 0
M  V30 4272 O 391.893 0.987491 1.43507 0
M  V30 4273 C 389.025 2.02407 2.74307 0
M  V30 4274 H 390.218 2.78829 1.10429 0
M  V30 4275 H 387.771 1.46658 0.540487 0
M  V30 4276 H 388.506 1.10502 3.04893 0
M  V30 4277 H 388.291 2.84453 2.69868 0
M  V30 4278 H 389.781 2.27002 3.50514 0
M  V30 4279 N 390.218 -0.567019 1.47046 0
M  V30 4280 C 391.148 -1.68482 1.61667 0
M  V30 4281 C 392.129 -1.6358 0.466418 0
M  V30 4282 O 393.314 -1.81354 0.694574 0
M  V30 4283 C 390.444 -3.07124 1.62148 0
M  V30 4284 C 389.398 -3.26867 2.76301 0
M  V30 4285 C 388.724 -4.66196 2.61849 0
M  V30 4286 C 390.024 -3.13186 4.17986 0
M  V30 4287 H 391.718 -1.56502 2.5524 0
M  V30 4288 H 389.264 -0.751486 1.22836 0
M  V30 4289 H 391.217 -3.8516 1.70968 0
M  V30 4290 H 389.941 -3.2004 0.651287 0
M  V30 4291 H 388.6 -2.51237 2.66975 0
M  V30 4292 H 388.248 -4.75898 1.62879 0
M  V30 4293 H 387.948 -4.80356 3.38425 0
M  V30 4294 H 389.472 -5.46379 2.72584 0
M  V30 4295 H 390.886 -3.81049 4.2834 0
M  V30 4296 H 389.283 -3.3886 4.95272 0
M  V30 4297 H 390.353 -2.10057 4.3704 0
M  V30 4298 N 391.696 -1.35014 -0.812953 0
M  V30 4299 C 392.973 -1.18502 -1.55617 0
M  V30 4300 C 393.353 0.238421 -2.09749 0
M  V30 4301 O 392.701 1.2411 -1.91857 0
M  V30 4302 C 392.911 -2.24783 -2.66971 0
M  V30 4303 C 394.259 -2.60268 -3.35478 0
M  V30 4304 O 395.283 -2.23648 -2.77236 0
M  V30 4305 O 394.142 -3.2321 -4.40678 0
M  V30 4306 H 391.236 -0.459984 -0.687272 0
M  V30 4307 H 393.782 -1.46677 -0.853464 0
M  V30 4308 H 392.554 -3.20284 -2.24798 0
M  V30 4309 H 392.177 -1.97841 -3.44884 0
M  V30 4310 N 393.175 1.03435 -1.18907 0
M  V30 4311 C 394.105 2.13503 -0.945448 0
M  V30 4312 C 395.086 1.69682 0.119189 0
M  V30 4313 O 396.271 1.94169 -0.034707 0
M  V30 4314 C 393.401 3.44004 -0.477316 0
M  V30 4315 C 392.355 4.0148 -1.48316 0
M  V30 4316 C 391.681 5.27537 -0.872311 0
M  V30 4317 C 392.981 4.36921 -2.86177 0
M  V30 4318 H 394.675 2.34141 -1.86597 0
M  V30 4319 H 392.221 1.12523 -0.898584 0
M  V30 4320 H 394.174 4.20372 -0.294204 0
M  V30 4321 H 392.898 3.23072 0.478786 0
M  V30 4322 H 391.557 3.27201 -1.65332 0
M  V30 4323 H 391.205 5.02917 0.0911752 0
M  V30 4324 H 390.905 5.66954 -1.54393 0
M  V30 4325 H 392.429 6.06576 -0.699871 0
M  V30 4326 H 393.843 5.04248 -2.72776 0
M  V30 4327 H 392.24 4.87405 -3.50081 0
M  V30 4328 H 393.31 3.46466 -3.39248 0
M  V30 4329 N 394.653 0.992116 1.22453 0
M  V30 4330 C 395.563 0.55065 2.28046 0
M  V30 4331 C 396.579 -0.400189 1.69335 0
M  V30 4332 O 397.755 -0.267215 1.99619 0
M  V30 4333 C 394.82 -0.128496 3.46462 0
M  V30 4334 C 393.881 0.865208 4.20491 0
M  V30 4335 C 393.114 0.218377 5.33253 0
M  V30 4336 O 393.337 -0.987894 5.6178 0
M  V30 4337 O 392.271 0.922845 5.94783 0
M  V30 4338 H 396.097 1.4291 2.67975 0
M  V30 4339 H 393.682 0.760326 1.28606 0
M  V30 4340 H 395.564 -0.508947 4.18315 0
M  V30 4341 H 394.239 -0.981526 3.0846 0
M  V30 4342 H 393.146 1.29658 3.50913 0
M  V30 4343 H 394.479 1.68741 4.62371 0
M  V30 4344 N 396.131 -1.37776 0.765217 0
M  V30 4345 C 397.061 -2.32945 0.160953 0
M  V30 4346 C 398.042 -1.55454 -0.690516 0
M  V30 4347 O 399.227 -1.83721 -0.629318 0
M  V30 4348 C 396.357 -3.39669 -0.724031 0
M  V30 4349 C 395.311 -4.27992 0.0256173 0
M  V30 4350 C 394.637 -5.25673 -0.978383 0
M  V30 4351 C 395.937 -5.08309 1.20082 0
M  V30 4352 H 397.631 -2.83728 0.955969 0
M  V30 4353 H 395.177 -1.36416 0.461149 0
M  V30 4354 H 397.13 -4.05219 -1.15652 0
M  V30 4355 H 395.854 -2.87396 -1.5515 0
M  V30 4356 H 394.513 -3.63964 0.438812 0
M  V30 4357 H 394.161 -4.69682 -1.80022 0
M  V30 4358 H 393.861 -5.85625 -0.481378 0
M  V30 4359 H 395.385 -5.94098 -1.40995 0
M  V30 4360 H 396.799 -5.67034 0.845307 0
M  V30 4361 H 395.196 -5.77554 1.62947 0
M  V30 4362 H 396.266 -4.41365 2.00811 0
M  V30 4363 N 397.609 -0.515225 -1.4894 0
M  V30 4364 C 398.839 0.0205735 -2.0659 0
M  V30 4365 C 399.247 1.30064 -1.37405 0
M  V30 4366 O 398.59 1.78087 -0.450632 0
M  V30 4367 C 398.652 0.330124 -3.57981 0
M  V30 4368 C 398.316 -0.854295 -4.48944 0
M  V30 4369 C 399.313 -1.7487 -4.89609 0
M  V30 4370 C 396.998 -1.05712 -4.9105 0
M  V30 4371 C 398.992 -2.82996 -5.71132 0
M  V30 4372 C 396.679 -2.14154 -5.72347 0
M  V30 4373 C 397.677 -3.0263 -6.12294 0
M  V30 4374 O 397.365 -4.09198 -6.91962 0
M  V30 4375 H 397.097 -0.0236833 -0.675585 0
M  V30 4376 H 399.651 -0.715956 -1.92518 0
M  V30 4377 H 397.881 1.12044 -3.70112 0
M  V30 4378 H 399.57 0.806233 -3.97812 0
M  V30 4379 H 400.336 -1.60388 -4.57712 0
M  V30 4380 H 396.215 -0.377788 -4.59449 0
M  V30 4381 H 399.759 -3.52083 -6.02232 0
M  V30 4382 H 395.656 -2.28626 -6.03656 0
M  V30 4383 H 396.424 -4.06726 -7.10293 0
M  V30 4384 N 399.087 1.5561 -0.249682 0
M  V30 4385 C 400.503 1.59254 0.105103 0
M  V30 4386 C 400.703 1.26685 1.56694 0
M  V30 4387 O 399.759 1.0155 2.31179 0
M  V30 4388 C 401.072 2.99687 -0.246592 0
M  V30 4389 C 402.62 3.12416 -0.191118 0
M  V30 4390 C 403.095 4.55074 -0.516885 0
M  V30 4391 N 404.586 4.60835 -0.467489 0
M  V30 4392 C 405.321 5.69201 -0.69268 0
M  V30 4393 N 404.817 6.85817 -0.981146 0
M  V30 4394 N 406.61 5.58635 -0.623198 0
M  V30 4395 H 398.761 1.75049 -1.20298 0
M  V30 4396 H 401.024 0.815003 -0.484225 0
M  V30 4397 H 400.73 3.28267 -1.26228 0
M  V30 4398 H 400.604 3.74798 0.424962 0
M  V30 4399 H 402.991 2.83615 0.815247 0
M  V30 4400 H 403.072 2.39573 -0.896563 0
M  V30 4401 H 402.716 4.84596 -1.52082 0
M  V30 4402 H 402.646 5.26181 0.210068 0
M  V30 4403 H 405.137 3.7705 -0.253373 0
M  V30 4404 H 405.45 7.64341 -1.14032 0
M  V30 4405 H 403.795 6.87494 -1.01865 0
M  V30 4406 H 406.986 4.66406 -0.397863 0
M  V30 4407 H 407.159 6.43017 -0.802093 0
M  V30 4408 N 400.565 -0.0233959 1.57583 0
M  V30 4409 C 401.795 -0.723631 1.93513 0
M  V30 4410 C 402.203 -1.69115 0.848333 0
M  V30 4411 O 401.546 -1.82781 -0.183484 0
M  V30 4412 C 401.608 -1.53075 3.25282 0
M  V30 4413 C 401.272 -0.727388 4.51174 0
M  V30 4414 C 402.269 -0.0251924 5.19894 0
M  V30 4415 C 399.954 -0.680256 4.97672 0
M  V30 4416 C 401.948 0.713374 6.33395 0
M  V30 4417 C 399.635 0.0620523 6.11068 0
M  V30 4418 C 400.633 0.757622 6.78785 0
M  V30 4419 O 400.321 1.48787 7.90011 0
M  V30 4420 H 400.053 -0.208051 0.643188 0
M  V30 4421 H 402.607 0.0167489 2.05393 0
M  V30 4422 H 400.837 -2.31508 3.09744 0
M  V30 4423 H 402.526 -2.11413 3.46496 0
M  V30 4424 H 403.292 -0.0526003 4.84971 0
M  V30 4425 H 399.171 -1.21116 4.44805 0
M  V30 4426 H 402.715 1.25683 6.86185 0
M  V30 4427 H 398.612 0.0913634 6.45435 0
M  V30 4428 H 399.38 1.40213 8.06401 0
M  V30 4429 N 402.043 -1.548 -0.295768 0
M  V30 4430 C 403.268 -1.78653 -1.05346 0
M  V30 4431 C 403.693 -0.546894 -1.79974 0
M  V30 4432 O 403.051 0.502763 -1.7419 0
M  V30 4433 C 403.099 -2.99679 -2.00561 0
M  V30 4434 O 402.203 -2.7317 -3.08953 0
M  V30 4435 H 401.544 -0.59116 -0.302367 0
M  V30 4436 H 404.074 -2.01895 -0.331598 0
M  V30 4437 H 404.084 -3.27793 -2.42932 0
M  V30 4438 H 402.759 -3.89562 -1.4565 0
M  V30 4439 H 401.336 -2.56089 -2.71059 0
M  V30 4440 N 403.521 0.559213 -1.47345 0
M  V30 4441 C 404.769 1.31388 -1.53563 0
M  V30 4442 C 405.09 1.93985 -0.198678 0
M  V30 4443 O 404.36 1.79825 0.777167 0
M  V30 4444 H 402.94 0.487901 -0.565652 0
M  V30 4445 H 405.602 0.65315 -1.8363 0
M  V30 4446 H 404.698 2.10844 -2.30111 0
M  V30 4447 N 404.999 1.35443 0.805782 0
M  V30 4448 C 406.245 1.28952 1.56522 0
M  V30 4449 C 406.578 -0.135597 1.93726 0
M  V30 4450 O 405.853 -1.08516 1.61414 0
M  V30 4451 C 406.136 2.19678 2.85331 0
M  V30 4452 C 405.989 3.7081 2.54598 0
M  V30 4453 C 407.308 2.09495 3.8704 0
M  V30 4454 H 404.427 0.469764 0.567883 0
M  V30 4455 H 407.069 1.65851 0.927001 0
M  V30 4456 H 405.219 1.8834 3.39795 0
M  V30 4457 H 406.891 4.12593 2.06312 0
M  V30 4458 H 405.134 3.91051 1.8778 0
M  V30 4459 H 405.805 4.29679 3.46525 0
M  V30 4460 H 408.281 2.37045 3.41978 0
M  V30 4461 H 407.157 2.75173 4.74943 0
M  V30 4462 H 407.418 1.07714 4.28777 0
M  V30 4463 N 406.477 -1.02803 1.19454 0
M  V30 4464 C 407.425 -2.13213 0.929673 0
M  V30 4465 C 408.419 -1.69011 -0.114806 0
M  V30 4466 O 409.625 -1.79967 0.0345147 0
M  V30 4467 H 406 -0.69662 0.28324 0
M  V30 4468 H 407.971 -2.32744 1.86743 0
M  V30 4469 C 406.72 -3.4429 0.485797 0
M  V30 4470 H 406.043 -3.7872 1.28105 0
M  V30 4471 H 407.483 -4.22638 0.339582 0
M  V30 4472 C 405.942 -3.27258 -0.800244 0
M  V30 4473 O 406.472 -3.55967 -1.86146 0
M  V30 4474 N 404.678 -2.80545 -0.75781 0
M  V30 4475 H 404.225 -2.57382 0.106039 0
M  V30 4476 H 404.183 -2.6953 -1.61867 0
M  V30 4477 N 407.956 -0.998596 -1.21925 0
M  V30 4478 C 408.889 -0.498517 -2.22688 0
M  V30 4479 C 409.867 0.444301 -1.56412 0
M  V30 4480 O 411.051 0.368518 -1.84863 0
M  V30 4481 C 408.178 0.276639 -3.37568 0
M  V30 4482 C 407.224 -0.61302 -4.22071 0
M  V30 4483 S 408.057 -2.07168 -4.93803 0
M  V30 4484 C 409.213 -1.30617 -6.12119 0
M  V30 4485 H 409.446 -1.35234 -2.64762 0
M  V30 4486 H 406.979 -0.806018 -1.31692 0
M  V30 4487 H 408.937 0.717817 -4.04175 0
M  V30 4488 H 407.598 1.10581 -2.93991 0
M  V30 4489 H 406.791 -0.0162909 -5.03997 0
M  V30 4490 H 406.393 -0.991202 -3.60626 0
M  V30 4491 H 408.685 -0.57675 -6.75041 0
M  V30 4492 H 409.628 -2.10091 -6.76215 0
M  V30 4493 H 410.036 -0.816957 -5.58557 0
M  V30 4494 N 409.434 1.37368 -0.772513 0
M  V30 4495 C 410.662 2.03942 -0.348588 0
M  V30 4496 C 411.077 1.58264 1.02947 0
M  V30 4497 O 410.434 0.764246 1.65727 0
M  V30 4498 C 410.485 3.5946 -0.38351 0
M  V30 4499 O 410.206 4.03468 -1.70721 0
M  V30 4500 C 411.707 4.4327 0.0519152 0
M  V30 4501 H 408.927 0.654931 -0.145966 0
M  V30 4502 H 411.471 1.75686 -1.04665 0
M  V30 4503 H 409.626 3.86486 0.265978 0
M  V30 4504 H 410.04 4.97991 -1.64636 0
M  V30 4505 H 411.514 5.51995 -0.0236733 0
M  V30 4506 H 411.991 4.2514 1.10238 0
M  V30 4507 H 412.597 4.21471 -0.569415 0
M  V30 4508 N 410.912 0.523116 1.48665 0
M  V30 4509 C 412.16 -0.0134497 2.02096 0
M  V30 4510 C 412.481 -1.35418 1.40311 0
M  V30 4511 O 411.751 -1.87543 0.566074 0
M  V30 4512 H 410.331 -0.00795915 0.746958 0
M  V30 4513 H 412.993 0.685388 1.82451 0
M  V30 4514 H 412.089 -0.126849 3.11842 0
M  V30 4515 N 412.39 -1.55475 0.257931 0
M  V30 4516 C 413.637 -1.99207 -0.363728 0
M  V30 4517 C 413.965 -1.1462 -1.57139 0
M  V30 4518 O 413.22 -0.199653 -1.94679 0
M  V30 4519 C 413.519 -3.48183 -0.806433 0
M  V30 4520 C 413.185 -4.49936 0.294684 0
M  V30 4521 C 411.847 -4.77481 0.597076 0
M  V30 4522 C 414.199 -5.10769 1.03751 0
M  V30 4523 C 411.527 -5.63132 1.64618 0
M  V30 4524 C 413.879 -5.97558 2.07622 0
M  V30 4525 C 412.543 -6.23432 2.38514 0
M  V30 4526 H 411.813 -0.728949 -0.133097 0
M  V30 4527 H 414.46 -1.8793 0.368059 0
M  V30 4528 H 412.765 -3.56848 -1.61761 0
M  V30 4529 H 414.462 -3.79415 -1.29789 0
M  V30 4530 H 411.052 -4.28572 0.0488649 0
M  V30 4531 H 415.236 -4.89527 0.817149 0
M  V30 4532 H 410.492 -5.8143 1.89074 0
M  V30 4533 H 414.666 -6.43735 2.65666 0
M  V30 4534 H 412.293 -6.89594 3.19943 0
M  V30 4535 N 413.868 0.0150385 -1.57593 0
M  V30 4536 C 415.284 0.370907 -1.5523 0
M  V30 4537 C 415.484 1.75735 -0.985882 0
M  V30 4538 O 414.54 2.44944 -0.613077 0
M  V30 4539 C 415.853 0.259908 -2.99575 0
M  V30 4540 C 417.401 0.335959 -3.11192 0
M  V30 4541 C 417.876 0.254253 -4.57294 0
M  V30 4542 N 419.367 0.312618 -4.62144 0
M  V30 4543 C 420.102 0.272505 -5.72752 0
M  V30 4544 N 419.598 0.183864 -6.92556 0
M  V30 4545 N 421.391 0.323267 -5.6117 0
M  V30 4546 H 413.542 -0.892104 -1.92757 0
M  V30 4547 H 415.805 -0.340563 -0.884715 0
M  V30 4548 H 415.511 -0.693403 -3.44797 0
M  V30 4549 H 415.385 1.048 -3.62349 0
M  V30 4550 H 417.772 1.27971 -2.65909 0
M  V30 4551 H 417.853 -0.481739 -2.51223 0
M  V30 4552 H 417.497 -0.685887 -5.03247 0
M  V30 4553 H 417.427 1.09024 -5.15191 0
M  V30 4554 H 419.918 0.38307 -3.75953 0
M  V30 4555 H 420.231 0.15874 -7.72637 0
M  V30 4556 H 418.576 0.149708 -6.94839 0
M  V30 4557 H 421.767 0.390607 -4.66467 0
M  V30 4558 H 421.94 0.288539 -6.47357 0
M  V30 4559 N 415.346 1.54954 0.287554 0
M  V30 4560 C 416.276 1.89839 1.35954 0
M  V30 4561 C 417.257 0.758675 1.52244 0
M  V30 4562 O 418.442 1.01557 1.65529 0
M  V30 4563 C 415.572 2.15753 2.72154 0
M  V30 4564 C 414.526 3.3159 2.70614 0
M  V30 4565 C 413.852 3.42952 4.10229 0
M  V30 4566 C 415.152 4.68359 2.31165 0
M  V30 4567 H 416.846 2.79625 1.07007 0
M  V30 4568 H 414.392 1.3454 0.513316 0
M  V30 4569 H 416.345 2.38743 3.47246 0
M  V30 4570 H 415.069 1.22752 3.02654 0
M  V30 4571 H 413.728 3.08545 1.97979 0
M  V30 4572 H 413.376 2.47443 4.37928 0
M  V30 4573 H 413.076 4.20826 4.10097 0
M  V30 4574 H 414.6 3.68218 4.87081 0
M  V30 4575 H 416.014 4.9099 2.95976 0
M  V30 4576 H 414.411 5.49044 2.42221 0
M  V30 4577 H 415.481 4.68165 1.26291 0
M  V30 4578 N 416.824 -0.551391 1.4764 0
M  V30 4579 C 417.754 -1.66757 1.63445 0
M  V30 4580 C 418.735 -1.63077 0.483742 0
M  V30 4581 O 419.92 -1.80607 0.71377 0
M  V30 4582 C 417.05 -3.05387 1.65396 0
M  V30 4583 C 416.004 -3.23918 2.79752 0
M  V30 4584 C 415.33 -4.63393 2.66779 0
M  V30 4585 C 416.63 -3.08735 4.21284 0
M  V30 4586 H 418.324 -1.53786 2.56886 0
M  V30 4587 H 415.87 -0.738415 1.23626 0
M  V30 4588 H 417.823 -3.83325 1.75043 0
M  V30 4589 H 416.547 -3.19332 0.685195 0
M  V30 4590 H 415.206 -2.48391 2.69625 0
M  V30 4591 H 414.854 -4.74144 1.67918 0
M  V30 4592 H 414.554 -4.7674 3.43501 0
M  V30 4593 H 416.078 -5.43458 2.78364 0
M  V30 4594 H 417.492 -3.76484 4.32357 0
M  V30 4595 H 415.889 -3.33588 4.98838 0
M  V30 4596 H 416.959 -2.0541 4.39243 0
M  V30 4597 N 418.302 -1.35869 -0.798587 0
M  V30 4598 C 419.25 -1.29491 -1.93222 0
M  V30 4599 C 420.244 -0.18836 -1.6835 0
M  V30 4600 O 421.45 -0.354822 -1.76468 0
M  V30 4601 H 417.825 -0.402901 -0.63496 0
M  V30 4602 H 419.796 -2.25247 -1.9572 0
M  V30 4603 C 418.545 -1.09184 -3.30112 0
M  V30 4604 H 417.868 -1.93574 -3.49813 0
M  V30 4605 H 419.308 -1.08766 -4.09812 0
M  V30 4606 C 417.767 0.203959 -3.36282 0
M  V30 4607 O 418.297 1.19699 -3.83451 0
M  V30 4608 N 416.503 0.245488 -2.89561 0
M  V30 4609 H 416.05 -0.563223 -2.51367 0
M  V30 4610 H 416.008 1.11219 -2.94071 0
M  V30 4611 N 419.78 1.02168 -1.19998 0
M  V30 4612 C 421.029 1.75091 -1.0013 0
M  V30 4613 C 421.342 1.89923 0.467835 0
M  V30 4614 O 422.548 2.59888 0.785515 0
M  V30 4615 C 421.004 3.14892 -1.74273 0
M  V30 4616 C 420.612 3.0809 -3.25245 0
M  V30 4617 C 422.356 3.9206 -1.62755 0
M  V30 4618 C 420.263 4.42867 -3.91948 0
M  V30 4619 H 419.193 0.656394 -0.37103 0
M  V30 4620 H 421.844 1.14284 -1.43567 0
M  V30 4621 H 420.226 3.7621 -1.2362 0
M  V30 4622 H 421.4 2.5611 -3.83072 0
M  V30 4623 H 419.715 2.44416 -3.3712 0
M  V30 4624 H 422.312 4.91764 -2.09934 0
M  V30 4625 H 422.655 4.12199 -0.582894 0
M  V30 4626 H 423.188 3.37359 -2.10793 0
M  V30 4627 H 419.927 4.27931 -4.96543 0
M  V30 4628 H 419.447 4.94874 -3.3891 0
M  V30 4629 H 421.126 5.11728 -3.95909 0
M  V30 4630 N 421.258 1.00505 1.21394 0
M  V30 4631 C 422.535 0.603277 1.86064 0
M  V30 4632 C 422.915 -0.919095 1.90042 0
M  V30 4633 O 422.263 -1.80607 1.39977 0
M  V30 4634 C 422.473 1.23772 3.26315 0
M  V30 4635 C 423.821 1.34586 4.02705 0
M  V30 4636 O 424.845 1.19304 3.35626 0
M  V30 4637 O 423.704 1.59169 5.22807 0
M  V30 4638 H 420.798 0.206634 0.800769 0
M  V30 4639 H 423.344 1.1017 1.29076 0
M  V30 4640 H 422.116 2.27848 3.18121 0
M  V30 4641 H 421.739 0.725648 3.90922 0
M  V30 4642 N 422.737 -1.36956 0.779787 0
M  V30 4643 C 423.685 -2.32053 0.15942 0
M  V30 4644 C 424.679 -1.55333 -0.675878 0
M  V30 4645 O 425.885 -1.70668 -0.57204 0
M  V30 4646 H 422.26 -0.751286 0.0327707 0
M  V30 4647 H 424.231 -2.8195 0.977078 0
M  V30 4648 C 422.98 -3.40602 -0.698977 0
M  V30 4649 H 422.303 -3.99746 -0.0655966 0
M  V30 4650 H 423.743 -4.09486 -1.09989 0
M  V30 4651 C 422.202 -2.81359 -1.85307 0
M  V30 4652 O 422.732 -2.72751 -2.94906 0
M  V30 4653 N 420.938 -2.38786 -1.65619 0
M  V30 4654 H 420.485 -2.45987 -0.764725 0
M  V30 4655 H 420.443 -1.99493 -2.43002 0
M  V30 4656 N 424.215 -0.530993 -1.48385 0
M  V30 4657 C 425.626 -0.0907905 -1.86479 0
M  V30 4658 C 425.977 1.33213 -1.44044 0
M  V30 4659 O 425.102 1.99783 -0.831615 0
M  V30 4660 C 425.697 -0.157987 -3.38431 0
M  V30 4661 C 424.256 0.227026 -3.75715 0
M  V30 4662 C 423.403 -0.5173 -2.72432 0
M  V30 4663 H 426.354 -0.742186 -1.40276 0
M  V30 4664 H 426.375 0.630053 -3.75247 0
M  V30 4665 H 425.887 -1.19372 -3.69286 0
M  V30 4666 H 423.988 1.26486 -3.50474 0
M  V30 4667 H 424.101 -0.113288 -4.78966 0
M  V30 4668 H 422.465 0.0365527 -2.54674 0
M  V30 4669 H 423.248 -1.55368 -3.0613 0
M  V30 4670 N 425.693 1.55336 -0.266172 0
M  V30 4671 C 426.643 2.18848 0.639497 0
M  V30 4672 C 427.627 1.1503 1.12503 0
M  V30 4673 O 428.819 1.40875 1.0716 0
M  V30 4674 C 425.948 2.90626 1.82733 0
M  V30 4675 C 425.034 4.01723 1.35939 0
M  V30 4676 N 425.425 5.02145 0.606988 0
M  V30 4677 C 423.723 4.1463 1.6431 0
M  V30 4678 C 424.424 5.80572 0.362138 0
M  V30 4679 N 423.4 5.35551 0.931971 0
M  V30 4680 H 427.202 2.93845 0.0567057 0
M  V30 4681 H 424.716 1.62252 -0.0693312 0
M  V30 4682 H 426.713 3.34569 2.48735 0
M  V30 4683 H 425.373 2.17137 2.41416 0
M  V30 4684 H 426.384 5.17271 0.255198 0
M  V30 4685 H 423.061 3.52326 2.23993 0
M  V30 4686 H 424.451 6.71472 -0.239848 0
M  V30 4687 N 427.171 -0.0066808 1.57599 0
M  V30 4688 C 428.417 -0.693947 1.90558 0
M  V30 4689 C 428.75 -1.73792 0.866594 0
M  V30 4690 O 428.025 -1.94156 -0.115548 0
M  V30 4691 C 428.308 -1.34317 3.34112 0
M  V30 4692 C 428.161 -0.311189 4.48722 0
M  V30 4693 C 429.48 -2.27116 3.7697 0
M  V30 4694 H 426.599 -0.250803 0.693013 0
M  V30 4695 H 429.241 0.043242 1.89951 0
M  V30 4696 H 427.391 -1.9715 3.3476 0
M  V30 4697 H 429.063 0.316944 4.6021 0
M  V30 4698 H 427.306 0.367253 4.32243 0
M  V30 4699 H 427.977 -0.804366 5.46108 0
M  V30 4700 H 430.453 -1.74306 3.77831 0
M  V30 4701 H 429.329 -2.69511 4.78179 0
M  V30 4702 H 429.59 -3.14743 3.10466 0
M  V30 4703 N 428.649 -1.55105 -0.279332 0
M  V30 4704 C 429.874 -1.7976 -1.03446 0
M  V30 4705 C 430.299 -0.565952 -1.79384 0
M  V30 4706 O 429.657 0.484259 -1.74713 0
M  V30 4707 C 429.705 -3.0179 -1.97371 0
M  V30 4708 O 428.809 -2.76432 -3.06038 0
M  V30 4709 H 428.15 -0.594334 -0.29608 0
M  V30 4710 H 430.68 -2.02235 -0.310165 0
M  V30 4711 H 430.69 -3.30351 -2.39441 0
M  V30 4712 H 429.365 -3.91085 -1.4151 0
M  V30 4713 H 427.942 -2.58949 -2.68328 0
M  V30 4714 N 430.127 0.543554 -1.4793 0
M  V30 4715 C 431.352 1.32995 -1.59145 0
M  V30 4716 C 431.777 1.86472 -0.246956 0
M  V30 4717 O 431.135 1.63696 0.779324 0
M  V30 4718 C 431.183 2.46623 -2.63077 0
M  V30 4719 O 430.287 3.49261 -2.19295 0
M  V30 4720 H 429.628 0.394472 -0.534124 0
M  V30 4721 H 432.158 0.655489 -1.93816 0
M  V30 4722 H 432.168 2.93001 -2.83926 0
M  V30 4723 H 430.843 2.07059 -3.60693 0
M  V30 4724 H 429.42 3.09094 -2.08603 0
M  V30 4725 N 431.605 1.3629 0.791371 0
M  V30 4726 C 432.854 1.29742 1.54434 0
M  V30 4727 C 433.167 -0.121729 1.95221 0
M  V30 4728 O 434.373 -0.309579 2.69729 0
M  V30 4729 C 432.829 2.27623 2.78776 0
M  V30 4730 C 432.437 3.74963 2.45166 0
M  V30 4731 C 434.181 2.30047 3.56761 0
M  V30 4732 C 432.088 4.64626 3.65891 0
M  V30 4733 H 431.018 0.482113 0.579727 0
M  V30 4734 H 433.669 1.61642 0.868565 0
M  V30 4735 H 432.051 1.88714 3.48142 0
M  V30 4736 H 433.225 4.22596 1.83709 0
M  V30 4737 H 431.54 3.75295 1.80396 0
M  V30 4738 H 434.137 2.94247 4.46456 0
M  V30 4739 H 434.48 1.30846 3.95203 0
M  V30 4740 H 435.013 2.67563 2.94372 0
M  V30 4741 H 431.752 5.64883 3.32547 0
M  V30 4742 H 431.272 4.2171 4.26521 0
M  V30 4743 H 432.951 4.80801 4.32943 0
M  V30 4744 N 433.083 -1.0153 1.20538 0
M  V30 4745 C 434.332 -1.74558 1.01057 0
M  V30 4746 C 434.645 -1.90168 -0.457756 0
M  V30 4747 O 435.851 -2.60301 -0.771722 0
M  V30 4748 C 434.307 -3.13963 1.75941 0
M  V30 4749 C 433.915 -3.06361 3.26875 0
M  V30 4750 C 435.659 -3.91191 1.64832 0
M  V30 4751 C 433.566 -4.40782 3.94291 0
M  V30 4752 H 432.496 -0.654417 0.374505 0
M  V30 4753 H 435.147 -1.13521 1.44171 0
M  V30 4754 H 433.529 -3.75549 1.25614 0
M  V30 4755 H 434.703 -2.54074 3.84425 0
M  V30 4756 H 433.018 -2.42625 3.38411 0
M  V30 4757 H 435.615 -4.90644 2.12539 0
M  V30 4758 H 435.958 -4.11884 0.604745 0
M  V30 4759 H 436.491 -3.36236 2.12579 0
M  V30 4760 H 433.23 -4.25292 4.98805 0
M  V30 4761 H 432.75 -4.9307 3.41529 0
M  V30 4762 H 434.429 -5.09621 3.98617 0
M  V30 4763 N 434.561 -1.01147 -1.20859 0
M  V30 4764 C 435.471 -0.58686 -2.27141 0
M  V30 4765 C 436.487 0.373198 -1.69951 0
M  V30 4766 O 437.663 0.235423 -2.00019 0
M  V30 4767 C 434.728 0.0733602 -3.46622 0
M  V30 4768 C 433.789 -0.931995 -4.19061 0
M  V30 4769 C 433.022 -0.303186 -5.32838 0
M  V30 4770 O 433.245 0.898395 -5.63281 0
M  V30 4771 O 432.179 -1.01735 -5.9324 0
M  V30 4772 H 436.005 -1.47155 -2.65667 0
M  V30 4773 H 433.59 -0.780689 -1.2738 0
M  V30 4774 H 435.472 0.442333 -4.19072 0
M  V30 4775 H 434.147 0.932329 -3.09983 0
M  V30 4776 H 433.054 -1.35224 -3.48805 0
M  V30 4777 H 434.387 -1.76076 -4.59628 0
M  V30 4778 N 436.039 1.36541 -0.78704 0
M  V30 4779 C 436.986 2.30082 -0.181901 0
M  V30 4780 C 437.956 1.5186 0.672896 0
M  V30 4781 O 439.141 1.80374 0.622072 0
M  V30 4782 C 436.281 3.3835 0.679197 0
M  V30 4783 C 435.394 4.31565 -0.193882 0
M  V30 4784 C 434.529 5.26915 0.673364 0
M  V30 4785 C 433.568 6.11769 -0.201315 0
M  V30 4786 N 432.705 6.99315 0.624777 0
M  V30 4787 H 437.545 2.81248 -0.985064 0
M  V30 4788 H 435.082 1.38437 -0.497342 0
M  V30 4789 H 437.04 3.99767 1.19341 0
M  V30 4790 H 435.67 2.8851 1.44781 0
M  V30 4791 H 434.722 3.71323 -0.826044 0
M  V30 4792 H 436.034 4.91191 -0.867937 0
M  V30 4793 H 435.188 5.9361 1.25348 0
M  V30 4794 H 433.927 4.67737 1.38105 0
M  V30 4795 H 432.932 5.44039 -0.793849 0
M  V30 4796 H 434.157 6.73022 -0.906568 0
M  V30 4797 H 432.103 6.42648 1.3168 0
M  V30 4798 H 432.02 7.56 0.00835237 0
M  V30 4799 H 433.288 7.70382 1.18879 0
M  V30 4800 N 437.518 0.538854 1.48102 0
M  V30 4801 C 438.764 0.0161732 2.03394 0
M  V30 4802 C 439.119 -1.31154 1.40771 0
M  V30 4803 O 438.412 -1.83613 0.547421 0
M  V30 4804 C 438.606 -0.153808 3.57069 0
M  V30 4805 C 438.435 1.15588 4.34591 0
M  V30 4806 C 437.205 1.71818 4.75191 0
M  V30 4807 C 439.403 2.06867 4.70861 0
M  V30 4808 N 437.385 2.96983 5.37284 0
M  V30 4809 C 438.756 3.16609 5.33066 0
M  V30 4810 C 440.811 2.07085 4.52791 0
M  V30 4811 C 439.514 4.26645 5.79109 0
M  V30 4812 C 441.54 3.16121 4.99821 0
M  V30 4813 C 440.902 4.24582 5.62058 0
M  V30 4814 H 437.001 0.0476346 0.780548 0
M  V30 4815 H 439.585 0.722094 1.80815 0
M  V30 4816 H 437.756 -0.828825 3.79454 0
M  V30 4817 H 439.488 -0.676896 3.98999 0
M  V30 4818 H 436.243 1.25845 4.56574 0
M  V30 4819 H 436.667 3.60732 5.72889 0
M  V30 4820 H 441.309 1.24522 4.04047 0
M  V30 4821 H 439.027 5.0998 6.26854 0
M  V30 4822 H 442.613 3.17355 4.87624 0
M  V30 4823 H 441.493 5.07562 5.97788 0
M  V30 4824 N 438.996 -1.55193 0.274407 0
M  V30 4825 C 440.221 -2.04446 -0.348824 0
M  V30 4826 C 440.646 -1.15149 -1.48735 0
M  V30 4827 O 440.004 -0.149952 -1.80679 0
M  V30 4828 C 440.052 -3.51431 -0.808009 0
M  V30 4829 O 439.156 -3.65225 -1.91531 0
M  V30 4830 H 438.497 -0.66006 -0.0722276 0
M  V30 4831 H 441.027 -2.00481 0.408498 0
M  V30 4832 H 441.037 -3.92781 -1.10395 0
M  V30 4833 H 439.712 -4.15892 0.0249865 0
M  V30 4834 H 438.289 -3.35778 -1.62196 0
M  V30 4835 N 440.474 -0.00167713 -1.576 0
M  V30 4836 C 441.407 1.02317 -2.03977 0
M  V30 4837 C 442.385 1.33381 -0.929963 0
M  V30 4838 O 443.569 1.45517 -1.19822 0
M  V30 4839 C 440.696 2.35035 -2.43878 0
M  V30 4840 C 439.742 2.19621 -3.65607 0
M  V30 4841 S 440.575 1.52068 -5.13455 0
M  V30 4842 C 441.731 2.86212 -5.56627 0
M  V30 4843 H 441.964 0.628285 -2.90585 0
M  V30 4844 H 439.497 0.209239 -1.52976 0
M  V30 4845 H 441.455 3.11345 -2.67534 0
M  V30 4846 H 440.116 2.71663 -1.57665 0
M  V30 4847 H 439.309 3.1767 -3.91282 0
M  V30 4848 H 438.911 1.51455 -3.41961 0
M  V30 4849 H 441.203 3.82509 -5.59189 0
M  V30 4850 H 442.146 2.65235 -6.56549 0
M  V30 4851 H 442.554 2.90199 -4.84195 0
M  V30 4852 N 441.952 1.55251 0.271103 0
M  V30 4853 C 442.862 1.9136 1.35714 0
M  V30 4854 C 443.878 0.811075 1.5394 0
M  V30 4855 O 445.054 1.11031 1.6803 0
M  V30 4856 C 442.119 2.1798 2.69603 0
M  V30 4857 C 441.18 3.4153 2.60107 0
M  V30 4858 C 440.413 3.66871 3.8761 0
M  V30 4859 O 440.636 2.94689 4.8838 0
M  V30 4860 O 439.57 4.60405 3.87699 0
M  V30 4861 H 443.396 2.83815 1.08088 0
M  V30 4862 H 440.981 1.41821 0.469792 0
M  V30 4863 H 442.863 2.36518 3.48765 0
M  V30 4864 H 441.538 1.28708 2.97012 0
M  V30 4865 H 440.445 3.28325 1.79314 0
M  V30 4866 H 441.778 4.31027 2.37647 0
M  V30 4867 N 443.43 -0.535701 1.48216 0
M  V30 4868 C 444.846 -0.863701 1.3421 0
M  V30 4869 C 445.046 -1.98458 0.34879 0
M  V30 4870 O 444.102 -2.51432 -0.23204 0
M  V30 4871 C 445.415 -1.23662 2.74095 0
M  V30 4872 C 446.963 -1.34683 2.82541 0
M  V30 4873 C 447.438 -1.75322 4.23115 0
M  V30 4874 N 448.929 -1.82434 4.2576 0
M  V30 4875 C 449.664 -2.15252 5.31464 0
M  V30 4876 N 449.16 -2.46533 6.47452 0
M  V30 4877 N 450.953 -2.16209 5.18855 0
M  V30 4878 H 443.104 0.203965 2.11418 0
M  V30 4879 H 445.367 0.0286033 0.947568 0
M  V30 4880 H 445.073 -0.486674 3.48316 0
M  V30 4881 H 444.947 -2.18805 3.07253 0
M  V30 4882 H 447.334 -2.08756 2.08579 0
M  V30 4883 H 447.415 -0.376756 2.5301 0
M  V30 4884 H 447.059 -1.01812 4.97591 0
M  V30 4885 H 446.989 -2.7337 4.50085 0
M  V30 4886 H 449.48 -1.6056 3.42095 0
M  V30 4887 H 449.793 -2.70662 7.23852 0
M  V30 4888 H 448.138 -2.44065 6.50736 0
M  V30 4889 H 451.329 -1.91224 4.2726 0
M  V30 4890 H 451.502 -2.41453 6.01335 0
M  V30 4891 N 444.908 -1.36708 -0.784132 0
M  V30 4892 C 445.838 -1.34153 -1.91116 0
M  V30 4893 C 446.819 -0.212121 -1.68772 0
M  V30 4894 O 448.004 -0.410581 -1.8981 0
M  V30 4895 C 445.134 -1.13535 -3.28218 0
M  V30 4896 C 444.088 -2.23356 -3.65097 0
M  V30 4897 C 443.414 -1.87875 -5.00607 0
M  V30 4898 C 444.714 -3.65473 -3.73131 0
M  V30 4899 H 446.408 -2.28459 -1.93512 0
M  V30 4900 H 443.954 -1.09973 -0.929618 0
M  V30 4901 H 445.907 -1.10381 -4.06687 0
M  V30 4902 H 444.631 -0.156804 -3.26223 0
M  V30 4903 H 443.29 -2.25645 -2.88929 0
M  V30 4904 H 442.938 -0.885814 -4.95139 0
M  V30 4905 H 442.638 -2.61406 -5.26252 0
M  V30 4906 H 444.162 -1.86286 -5.81489 0
M  V30 4907 H 445.576 -3.65382 -4.41779 0
M  V30 4908 H 443.973 -4.37953 -4.10265 0
M  V30 4909 H 445.043 -3.99995 -2.74102 0
M  V30 4910 N 446.386 1.0089 -1.21074 0
M  V30 4911 C 447.318 2.09737 -0.924291 0
M  V30 4912 C 448.331 1.62546 0.0909809 0
M  V30 4913 O 449.52 1.77942 -0.141021 0
M  V30 4914 C 446.62 3.36922 -0.36559 0
M  V30 4915 C 445.793 4.13216 -1.43426 0
M  V30 4916 C 444.852 5.18696 -0.885496 0
M  V30 4917 O 443.878 5.47176 -1.56801 0
M  V30 4918 N 445.08 5.79718 0.301227 0
M  V30 4919 H 447.845 2.34895 -1.8613 0
M  V30 4920 H 445.406 1.17341 -1.11546 0
M  V30 4921 H 447.398 4.04697 0.0158407 0
M  V30 4922 H 445.968 3.08952 0.476149 0
M  V30 4923 H 445.188 3.40301 -1.9897 0
M  V30 4924 H 446.476 4.60967 -2.15376 0
M  V30 4925 H 445.874 5.58926 0.872849 0
M  V30 4926 H 444.431 6.48804 0.624211 0
M  V30 4927 N 447.864 1.01787 1.20321 0
M  V30 4928 C 448.827 0.593972 2.2137 0
M  V30 4929 C 449.827 -0.336553 1.57239 0
M  V30 4930 O 451.017 -0.125069 1.7375 0
M  V30 4931 C 448.149 -0.132433 3.40643 0
M  V30 4932 H 449.342 1.48791 2.60387 0
M  V30 4933 H 446.895 0.807803 1.33807 0
M  V30 4934 H 447.63 -1.04123 3.0713 0
M  V30 4935 H 447.415 0.53605 3.88418 0
M  V30 4936 H 448.905 -0.416314 4.1552 0
M  V30 4937 N 449.342 -1.36122 0.79427 0
M  V30 4938 C 450.753 -1.81646 0.431446 0
M  V30 4939 C 451.104 -1.66043 -1.04518 0
M  V30 4940 O 450.229 -1.1841 -1.8113 0
M  V30 4941 C 450.824 -3.29785 0.776341 0
M  V30 4942 C 449.383 -3.73501 0.466282 0
M  V30 4943 C 448.53 -2.58313 1.00844 0
M  V30 4944 H 451.481 -1.24274 0.986995 0
M  V30 4945 H 451.502 -3.80437 0.0692413 0
M  V30 4946 H 451.014 -3.4111 1.8511 0
M  V30 4947 H 449.115 -3.67733 -0.600245 0
M  V30 4948 H 449.228 -4.68754 0.990288 0
M  V30 4949 H 447.592 -2.5102 0.431406 0
M  V30 4950 H 448.375 -2.72421 2.08906 0
M  V30 4951 N 450.82 -0.546701 -1.47814 0
M  V30 4952 C 452.231 -0.110564 -1.86372 0
M  V30 4953 C 452.582 1.31678 -1.45449 0
M  V30 4954 O 451.707 1.98889 -0.852758 0
M  V30 4955 C 452.302 -0.193873 -3.38245 0
M  V30 4956 C 450.861 0.187164 -3.75934 0
M  V30 4957 C 450.008 -0.546166 -2.71868 0
M  V30 4958 H 452.959 -0.757022 -1.39481 0
M  V30 4959 H 452.98 0.590218 -3.75895 0
M  V30 4960 H 452.492 -1.23282 -3.67999 0
M  V30 4961 H 450.593 1.22762 -3.51796 0
M  V30 4962 H 450.706 -0.164083 -4.78819 0
M  V30 4963 H 449.07 0.00953904 -2.54698 0
M  V30 4964 H 449.853 -1.58606 -3.04465 0
M  V30 4965 N 452.299 1.55045 -0.282633 0
M  V30 4966 C 453.715 1.59441 0.0712997 0
M  V30 4967 C 453.915 1.2998 1.53972 0
M  V30 4968 O 452.971 1.06431 2.28973 0
M  V30 4969 C 454.284 2.99097 -0.310104 0
M  V30 4970 C 455.832 3.1194 -0.257343 0
M  V30 4971 C 456.307 4.53875 -0.613297 0
M  V30 4972 N 457.798 4.5974 -0.565134 0
M  V30 4973 C 458.533 5.67603 -0.81326 0
M  V30 4974 N 458.029 6.83582 -1.1264 0
M  V30 4975 N 459.822 5.57187 -0.741553 0
M  V30 4976 H 451.973 1.72458 -1.23984 0
M  V30 4977 H 454.236 0.804549 -0.501403 0
M  V30 4978 H 453.942 3.25516 -1.33163 0
M  V30 4979 H 453.816 3.75616 0.345366 0
M  V30 4980 H 456.203 2.85281 0.754905 0
M  V30 4981 H 456.284 2.37618 -0.947178 0
M  V30 4982 H 455.928 4.81261 -1.62327 0
M  V30 4983 H 455.858 5.26508 0.09841 0
M  V30 4984 H 458.349 3.76427 -0.333294 0
M  V30 4985 H 458.662 7.6175 -1.30219 0
M  V30 4986 H 457.007 6.85179 -1.16425 0
M  V30 4987 H 460.198 4.65457 -0.496705 0
M  V30 4988 H 460.371 6.41171 -0.938306 0
M  V30 4989 N 453.777 0.010035 1.57597 0
M  V30 4990 C 455.188 -0.531426 1.78977 0
M  V30 4991 C 455.539 -1.73375 0.918454 0
M  V30 4992 O 454.664 -2.16047 0.123635 0
M  V30 4993 C 455.259 -0.97086 3.24592 0
M  V30 4994 C 453.818 -1.45756 3.47033 0
M  V30 4995 C 452.965 -0.413384 2.74201 0
M  V30 4996 H 455.916 0.236166 1.56933 0
M  V30 4997 H 455.937 -1.83633 3.33255 0
M  V30 4998 H 455.449 -0.0955893 3.87982 0
M  V30 4999 H 453.55 -2.35339 2.88871 0
M  V30 5000 H 453.663 -1.4781 4.55729 0
M  V30 5001 H 452.027 -0.877266 2.39115 0
M  V30 5002 H 452.81 0.453092 3.40297 0
M  V30 5003 N 455.255 -1.55392 -0.262866 0
M  V30 5004 C 456.165 -1.92077 -1.34698 0
M  V30 5005 C 457.181 -0.819227 -1.53508 0
M  V30 5006 O 458.357 -1.11921 -1.67439 0
M  V30 5007 C 455.422 -2.19407 -2.68443 0
M  V30 5008 C 454.483 -3.42905 -2.58292 0
M  V30 5009 C 453.716 -3.68921 -3.85659 0
M  V30 5010 O 453.939 -2.97275 -4.8681 0
M  V30 5011 O 452.873 -4.62455 -3.85252 0
M  V30 5012 H 456.699 -2.84384 -1.06581 0
M  V30 5013 H 454.284 -1.42069 -0.462264 0
M  V30 5014 H 456.166 -2.38365 -3.47506 0
M  V30 5015 H 454.841 -1.30282 -2.96325 0
M  V30 5016 H 453.748 -3.29272 -1.7757 0
M  V30 5017 H 455.081 -4.32282 -2.35358 0
M  V30 5018 N 456.733 0.527833 -1.48498 0
M  V30 5019 C 457.961 1.30823 -1.6029 0
M  V30 5020 C 458.376 1.86945 -0.263974 0
M  V30 5021 O 457.733 1.6651 0.747034 0
M  V30 5022 C 457.784 2.45756 -2.65116 0
M  V30 5023 O 457.505 1.91946 -3.93813 0
M  V30 5024 C 459.006 3.37543 -2.87367 0
M  V30 5025 H 456.226 0.397763 -0.540394 0
M  V30 5026 H 458.77 0.636529 -1.94341 0
M  V30 5027 H 456.925 3.08806 -2.33917 0
M  V30 5028 H 457.339 2.67195 -4.51339 0
M  V30 5029 H 458.813 4.14532 -3.6451 0
M  V30 5030 H 459.29 3.92905 -1.9627 0
M  V30 5031 H 459.896 2.80283 -3.19878 0
M  V30 5032 N 458.211 1.37122 0.776871 0
M  V30 5033 C 459.459 1.31787 1.53221 0
M  V30 5034 C 459.78 -0.0987589 1.9475 0
M  V30 5035 O 459.05 -1.0417 1.65908 0
M  V30 5036 H 457.63 0.484839 0.568278 0
M  V30 5037 H 460.292 1.71556 0.924917 0
M  V30 5038 H 459.388 1.95355 2.43398 0
M  V30 5039 N 459.689 -1.00246 1.21608 0
M  V30 5040 C 460.619 -2.10921 1.00172 0
M  V30 5041 C 461.6 -1.69938 -0.0741587 0
M  V30 5042 O 462.785 -1.94009 0.0861753 0
M  V30 5043 C 459.915 -3.42618 0.568355 0
M  V30 5044 C 458.869 -3.97407 1.58909 0
M  V30 5045 C 458.195 -5.25038 1.01187 0
M  V30 5046 C 459.495 -4.2918 2.97661 0
M  V30 5047 H 461.189 -2.29112 1.92739 0
M  V30 5048 H 458.735 -1.10101 0.928102 0
M  V30 5049 H 460.688 -4.19444 0.405555 0
M  V30 5050 H 459.412 -3.24227 -0.392961 0
M  V30 5051 H 458.071 -3.22703 1.73949 0
M  V30 5052 H 457.719 -5.02982 0.0421965 0
M  V30 5053 H 457.419 -5.62661 1.6937 0
M  V30 5054 H 458.943 -6.04507 0.860448 0
M  V30 5055 H 460.357 -4.96839 2.86049 0
M  V30 5056 H 458.754 -4.77952 3.6288 0
M  V30 5057 H 459.824 -3.3735 3.48315 0
M  V30 5058 N 461.167 -1.02423 -1.1978 0
M  V30 5059 C 462.097 -0.62157 -2.25075 0
M  V30 5060 C 463.078 0.367148 -1.6609 0
M  V30 5061 O 464.263 0.250892 -1.92573 0
M  V30 5062 C 461.393 0.0331826 -3.47284 0
M  V30 5063 C 460.347 -0.877323 -4.18912 0
M  V30 5064 C 459.673 -0.0879296 -5.34628 0
M  V30 5065 C 460.973 -2.18892 -4.74219 0
M  V30 5066 H 462.667 -1.50179 -2.59011 0
M  V30 5067 H 460.213 -0.723547 -1.24502 0
M  V30 5068 H 462.166 0.326488 -4.20133 0
M  V30 5069 H 460.89 0.948164 -3.12534 0
M  V30 5070 H 459.549 -1.15475 -3.47938 0
M  V30 5071 H 459.197 0.828941 -4.96123 0
M  V30 5072 H 458.897 -0.694359 -5.83483 0
M  V30 5073 H 460.421 0.198743 -6.10276 0
M  V30 5074 H 461.835 -1.95746 -5.38847 0
M  V30 5075 H 460.232 -2.74686 -5.33542 0
M  V30 5076 H 461.302 -2.84674 -3.92541 0
M  V30 5077 N 462.645 1.35699 -0.801477 0
M  V30 5078 C 463.922 1.9324 -0.302937 0
M  V30 5079 C 464.302 1.73209 1.20672 0
M  V30 5080 O 463.65 1.09809 2.00385 0
M  V30 5081 C 463.86 3.41728 -0.708747 0
M  V30 5082 C 465.208 4.18868 -0.695328 0
M  V30 5083 O 466.232 3.5022 -0.649971 0
M  V30 5084 O 465.091 5.41342 -0.749081 0
M  V30 5085 H 462.185 0.82331 -0.0780367 0
M  V30 5086 H 464.731 1.44806 -0.884832 0
M  V30 5087 H 463.503 3.50015 -1.74944 0
M  V30 5088 H 463.126 3.97471 -0.101384 0
M  V30 5089 N 464.123 0.554532 1.47522 0
M  V30 5090 C 465.371 0.0294208 2.02079 0
M  V30 5091 C 465.692 -1.32411 1.43151 0
M  V30 5092 O 464.962 -1.863 0.605728 0
M  V30 5093 H 463.542 0.00788672 0.746958 0
M  V30 5094 H 466.204 0.723934 1.80956 0
M  V30 5095 H 465.3 -0.0606745 3.12041 0
M  V30 5096 N 465.601 -1.54893 0.290851 0
M  V30 5097 C 466.534 -2.19289 -0.631489 0
M  V30 5098 C 467.512 -1.15893 -1.14051 0
M  V30 5099 O 468.696 -1.4449 -1.21058 0
M  V30 5100 C 465.823 -2.82866 -1.86291 0
M  V30 5101 C 464.869 -3.997 -1.48801 0
M  V30 5102 S 465.702 -5.32641 -0.552644 0
M  V30 5103 C 466.858 -5.99696 -1.79209 0
M  V30 5104 H 467.091 -2.9718 -0.0843791 0
M  V30 5105 H 464.624 -1.54218 0.075031 0
M  V30 5106 H 466.582 -3.20124 -2.56964 0
M  V30 5107 H 465.243 -2.04839 -2.38117 0
M  V30 5108 H 464.436 -4.42932 -2.40473 0
M  V30 5109 H 464.038 -3.63947 -0.861321 0
M  V30 5110 H 466.33 -6.19886 -2.734 0
M  V30 5111 H 467.273 -6.94071 -1.40251 0
M  V30 5112 H 467.681 -5.29226 -1.96419 0
M  V30 5113 N 467.08 -0.0183926 -1.57589 0
M  V30 5114 C 468.013 1.00148 -2.0505 0
M  V30 5115 C 468.991 1.32387 -0.944058 0
M  V30 5116 O 470.175 1.44237 -1.21358 0
M  V30 5117 C 467.302 2.32435 -2.46357 0
M  V30 5118 C 466.348 2.15731 -3.67916 0
M  V30 5119 S 467.181 1.46613 -5.15039 0
M  V30 5120 C 468.337 2.80293 -5.59631 0
M  V30 5121 H 468.57 0.597429 -2.91235 0
M  V30 5122 H 466.103 0.193002 -1.53189 0
M  V30 5123 H 468.061 3.0849 -2.70822 0
M  V30 5124 H 466.722 2.69975 -1.60537 0
M  V30 5125 H 465.915 3.13502 -3.9463 0
M  V30 5126 H 465.517 1.4782 -3.43548 0
M  V30 5127 H 467.809 3.76557 -5.63215 0
M  V30 5128 H 468.752 2.58256 -6.59325 0
M  V30 5129 H 469.16 2.85047 -4.87246 0
M  V30 5130 N 468.558 1.5553 0.254621 0
M  V30 5131 C 469.786 1.81046 1.00149 0
M  V30 5132 C 470.201 0.593047 1.79244 0
M  V30 5133 O 469.558 -0.438196 1.77161 0
M  V30 5134 C 469.609 3.04684 1.94551 0
M  V30 5135 O 469.33 4.21725 1.18658 0
M  V30 5136 C 470.831 3.42943 2.80901 0
M  V30 5137 H 468.051 0.602653 0.295044 0
M  V30 5138 H 470.595 2.02576 0.279842 0
M  V30 5139 H 468.75 2.85226 2.62154 0
M  V30 5140 H 469.164 4.91746 1.82445 0
M  V30 5141 H 470.638 4.32576 3.42902 0
M  V30 5142 H 471.115 2.63176 3.51617 0
M  V30 5143 H 471.721 3.64724 2.18762 0
M  V30 5144 N 470.036 -0.519951 1.48776 0
M  V30 5145 C 471.264 -1.29971 1.60982 0
M  V30 5146 C 471.679 -1.86803 0.273885 0
M  V30 5147 O 471.036 -1.66904 -0.738193 0
M  V30 5148 C 471.087 -2.44346 2.66415 0
M  V30 5149 O 470.808 -1.89855 3.94825 0
M  V30 5150 C 472.309 -3.36014 2.89153 0
M  V30 5151 H 469.529 -0.394891 0.542496 0
M  V30 5152 H 472.073 -0.626214 1.94676 0
M  V30 5153 H 470.228 -3.07562 2.35552 0
M  V30 5154 H 470.642 -2.64798 4.5275 0
M  V30 5155 H 472.116 -4.12593 3.66703 0
M  V30 5156 H 472.593 -3.91859 1.98351 0
M  V30 5157 H 473.199 -2.78582 3.21359 0
M  V30 5158 N 471.514 -1.37532 -0.769588 0
M  V30 5159 C 472.424 -1.35668 -1.91393 0
M  V30 5160 C 473.44 -0.255954 -1.72107 0
M  V30 5161 O 474.616 -0.491704 -1.95305 0
M  V30 5162 C 471.681 -1.16481 -3.26547 0
M  V30 5163 C 470.742 -2.36212 -3.58472 0
M  V30 5164 C 469.975 -2.17932 -4.87177 0
M  V30 5165 O 470.198 -1.1647 -5.58382 0
M  V30 5166 O 469.132 -3.06167 -5.18214 0
M  V30 5167 H 472.958 -2.32055 -1.95918 0
M  V30 5168 H 470.543 -1.18284 -0.912641 0
M  V30 5169 H 472.425 -1.07778 -4.07384 0
M  V30 5170 H 471.1 -0.231687 -3.2287 0
M  V30 5171 H 470.007 -2.50488 -2.77861 0
M  V30 5172 H 471.34 -3.281 -3.66894 0
M  V30 5173 N 472.992 0.995999 -1.22138 0
M  V30 5174 C 473.955 2.06711 -0.990109 0
M  V30 5175 C 474.955 1.60744 0.0422978 0
M  V30 5176 O 476.145 1.73095 -0.195895 0
M  V30 5177 C 473.277 3.37288 -0.49491 0
M  V30 5178 H 474.47 2.28661 -1.94047 0
M  V30 5179 H 472.023 1.16711 -1.03963 0
M  V30 5180 H 472.758 3.21022 0.459948 0
M  V30 5181 H 472.543 3.71986 -1.23971 0
M  V30 5182 H 474.033 4.16103 -0.353253 0
M  V30 5183 N 474.47 1.03057 1.19235 0
M  V30 5184 C 475.433 0.617418 2.20727 0
M  V30 5185 C 476.433 -0.319856 1.57587 0
M  V30 5186 O 477.623 -0.106633 1.73873 0
M  V30 5187 C 474.755 -0.096296 3.40764 0
M  V30 5188 H 475.948 1.51544 2.58794 0
M  V30 5189 H 473.501 0.821949 1.32942 0
M  V30 5190 H 474.236 -1.00859 3.08217 0
M  V30 5191 H 474.021 0.577217 3.87828 0
M  V30 5192 H 475.511 -0.372219 4.15938 0
M  V30 5193 N 475.948 -1.35272 0.808662 0
M  V30 5194 C 476.878 -2.32315 0.234981 0
M  V30 5195 C 477.859 -1.57572 -0.64071 0
M  V30 5196 O 479.044 -1.8563 -0.570551 0
M  V30 5197 C 476.174 -3.41801 -0.615601 0
M  V30 5198 C 475.128 -4.27694 0.161767 0
M  V30 5199 C 474.454 -5.28519 -0.810649 0
M  V30 5200 C 475.754 -5.04231 1.36193 0
M  V30 5201 H 477.448 -2.80543 1.04575 0
M  V30 5202 H 474.994 -1.3488 0.504315 0
M  V30 5203 H 476.947 -4.08693 -1.02702 0
M  V30 5204 H 475.671 -2.92186 -1.45928 0
M  V30 5205 H 474.33 -3.62384 0.554382 0
M  V30 5206 H 473.978 -4.75171 -1.64988 0
M  V30 5207 H 473.678 -5.8686 -0.294822 0
M  V30 5208 H 475.202 -5.98283 -1.22023 0
M  V30 5209 H 476.616 -5.64058 1.02528 0
M  V30 5210 H 475.013 -5.72077 1.81239 0
M  V30 5211 H 476.083 -4.34753 2.14751 0
M  V30 5212 N 477.426 -0.562348 -1.47226 0
M  V30 5213 C 478.359 0.230405 -2.27034 0
M  V30 5214 C 479.337 0.915609 -1.3437 0
M  V30 5215 O 480.521 0.933573 -1.63758 0
M  V30 5216 C 477.648 1.32874 -3.11548 0
M  V30 5217 C 476.694 0.751552 -4.19826 0
M  V30 5218 S 477.527 -0.405848 -5.3396 0
M  V30 5219 C 478.683 0.694186 -6.22038 0
M  V30 5220 H 478.916 -0.446811 -2.93923 0
M  V30 5221 H 476.449 -0.348781 -1.50409 0
M  V30 5222 H 478.407 1.95773 -3.60809 0
M  V30 5223 H 477.068 1.97782 -2.44011 0
M  V30 5224 H 476.261 1.57651 -4.78709 0
M  V30 5225 H 475.863 0.198645 -3.73472 0
M  V30 5226 H 478.155 1.58501 -6.58698 0
M  V30 5227 H 479.098 0.142592 -7.07956 0
M  V30 5228 H 479.506 0.989169 -5.55766 0
M  V30 5229 N 478.904 1.54736 -0.299062 0
M  V30 5230 C 480.134 2.04215 0.312992 0
M  V30 5231 C 480.542 1.17596 1.48215 0
M  V30 5232 O 479.885 0.193835 1.82674 0
M  V30 5233 C 479.947 3.49696 0.833862 0
M  V30 5234 C 479.611 4.56518 -0.20977 0
M  V30 5235 C 480.608 5.09442 -1.03756 0
M  V30 5236 C 478.293 5.01073 -0.35091 0
M  V30 5237 C 480.287 6.05459 -1.99244 0
M  V30 5238 C 477.974 5.9691 -1.30924 0
M  V30 5239 C 478.972 6.48987 -2.1285 0
M  V30 5240 O 478.66 7.42947 -3.07059 0
M  V30 5241 H 478.392 0.672128 0.0722494 0
M  V30 5242 H 480.946 2.00718 -0.436043 0
M  V30 5243 H 479.176 3.5051 1.63339 0
M  V30 5244 H 480.865 3.82381 1.36159 0
M  V30 5245 H 481.631 4.75816 -0.939376 0
M  V30 5246 H 477.51 4.60168 0.276813 0
M  V30 5247 H 481.054 6.46031 -2.63229 0
M  V30 5248 H 476.951 6.29953 -1.40815 0
M  V30 5249 H 477.719 7.60743 -3.02015 0
M  V30 5250 N 480.382 0.0267497 1.57577 0
M  V30 5251 C 481.659 -0.690926 1.82991 0
M  V30 5252 C 482.039 -1.90471 0.910164 0
M  V30 5253 O 481.387 -2.28474 -0.0347985 0
M  V30 5254 C 481.597 -1.07139 3.32148 0
M  V30 5255 C 482.945 -1.46402 3.98562 0
M  V30 5256 O 483.969 -1.16443 3.36629 0
M  V30 5257 O 482.828 -2.02214 5.07712 0
M  V30 5258 H 479.922 -0.338747 0.75444 0
M  V30 5259 H 482.468 0.0542506 1.69613 0
M  V30 5260 H 481.24 -0.207394 3.9075 0
M  V30 5261 H 480.863 -1.87481 3.50623 0
M  V30 5262 N 481.861 -1.55662 -0.24637 0
M  V30 5263 C 482.824 -1.89558 -1.28842 0
M  V30 5264 C 483.824 -0.772082 -1.41052 0
M  V30 5265 O 485.014 -1.04007 -1.39743 0
M  V30 5266 C 482.146 -2.12449 -2.66605 0
M  V30 5267 H 483.339 -2.82735 -1.00004 0
M  V30 5268 H 480.892 -1.48562 -0.485684 0
M  V30 5269 H 481.627 -1.21742 -3.00582 0
M  V30 5270 H 481.412 -2.94273 -2.59125 0
M  V30 5271 H 482.902 -2.39854 -3.41847 0
M  V30 5272 N 483.339 0.512053 -1.4905 0
M  V30 5273 C 484.585 1.26874 -1.58212 0
M  V30 5274 C 484.918 1.9241 -0.263073 0
M  V30 5275 O 484.193 1.80181 0.732476 0
M  V30 5276 C 484.476 2.34428 -2.73341 0
M  V30 5277 C 484.329 1.73466 -4.15006 0
M  V30 5278 C 485.648 3.36073 -2.84154 0
M  V30 5279 H 482.767 0.459924 -0.575881 0
M  V30 5280 H 485.409 0.568587 -1.81293 0
M  V30 5281 H 483.559 2.94146 -2.53792 0
M  V30 5282 H 485.231 1.17661 -4.46042 0
M  V30 5283 H 483.474 1.03921 -4.21168 0
M  V30 5284 H 484.145 2.51426 -4.91415 0
M  V30 5285 H 486.621 2.86332 -3.01916 0
M  V30 5286 H 485.497 4.08703 -3.66406 0
M  V30 5287 H 485.758 3.97725 -1.93048 0
M  V30 5288 N 484.817 1.37938 0.762283 0
M  V30 5289 C 486.047 1.36685 1.54922 0
M  V30 5290 C 486.455 -0.0474099 1.89141 0
M  V30 5291 O 485.798 -1.02213 1.52638 0
M  V30 5292 C 485.86 2.14963 2.88152 0
M  V30 5293 C 485.524 3.6385 2.76518 0
M  V30 5294 C 486.521 4.57531 2.46904 0
M  V30 5295 C 484.206 4.07095 2.94243 0
M  V30 5296 C 486.2 5.92436 2.35156 0
M  V30 5297 C 483.887 5.42083 2.82116 0
M  V30 5298 C 484.885 6.34567 2.52614 0
M  V30 5299 O 484.573 7.67073 2.40529 0
M  V30 5300 H 484.305 0.469586 0.486276 0
M  V30 5301 H 486.859 1.82012 0.951876 0
M  V30 5302 H 485.089 1.6434 3.50042 0
M  V30 5303 H 486.778 2.06224 3.49609 0
M  V30 5304 H 487.544 4.25428 2.32886 0
M  V30 5305 H 483.423 3.35462 3.16206 0
M  V30 5306 H 486.967 6.64591 2.12049 0
M  V30 5307 H 482.864 5.73785 2.95704 0
M  V30 5308 H 483.632 7.77499 2.55807 0
M  V30 5309 N 486.295 -0.989507 1.22664 0
M  V30 5310 C 487.228 -2.07805 0.942985 0
M  V30 5311 C 488.206 -1.6219 -0.115356 0
M  V30 5312 O 489.39 -1.88492 0.0169565 0
M  V30 5313 C 486.517 -3.361 0.418898 0
M  V30 5314 C 485.563 -4.00643 1.46244 0
M  V30 5315 S 486.396 -4.41059 3.03689 0
M  V30 5316 C 487.552 -5.7252 2.52927 0
M  V30 5317 H 487.785 -2.31547 1.86476 0
M  V30 5318 H 485.318 -1.12446 1.05808 0
M  V30 5319 H 487.276 -4.10315 0.123114 0
M  V30 5320 H 485.937 -3.10383 -0.481818 0
M  V30 5321 H 485.13 -4.93033 1.04569 0
M  V30 5322 H 484.732 -3.32767 1.7071 0
M  V30 5323 H 487.024 -6.49017 1.94379 0
M  V30 5324 H 487.967 -6.19026 3.4382 0
M  V30 5325 H 488.375 -5.30083 1.94094 0
M  V30 5326 N 487.773 -1.03688 -1.18687 0
M  V30 5327 C 489.019 -0.739123 -1.88851 0
M  V30 5328 C 489.352 0.731042 -1.79915 0
M  V30 5329 O 488.627 1.53313 -1.19688 0
M  V30 5330 C 488.91 -1.20106 -3.3948 0
M  V30 5331 C 488.763 -2.73304 -3.57246 0
M  V30 5332 C 490.082 -0.788134 -4.32986 0
M  V30 5333 H 487.201 -0.269978 -0.68577 0
M  V30 5334 H 489.843 -1.28822 -1.3966 0
M  V30 5335 H 487.993 -0.733915 -3.81505 0
M  V30 5336 H 489.665 -3.28027 -3.24339 0
M  V30 5337 H 487.908 -3.13313 -3.00029 0
M  V30 5338 H 488.579 -3.00684 -4.62918 0
M  V30 5339 H 491.055 -1.19005 -3.98719 0
M  V30 5340 H 489.931 -1.13915 -5.36949 0
M  V30 5341 H 490.192 0.308988 -4.41019 0
M  V30 5342 N 489.251 1.34841 -0.815825 0
M  V30 5343 C 490.214 2.27959 -0.238185 0
M  V30 5344 C 491.214 1.49983 0.579816 0
M  V30 5345 O 492.404 1.69617 0.396953 0
M  V30 5346 C 489.536 3.34314 0.666876 0
M  V30 5347 H 490.729 2.80558 -1.05958 0
M  V30 5348 H 488.282 1.44852 -0.587156 0
M  V30 5349 H 489.017 2.86916 1.5116 0
M  V30 5350 H 488.802 3.92014 0.0819106 0
M  V30 5351 H 490.292 4.0379 1.06506 0
M  V30 5352 N 490.729 0.570148 1.46925 0
M  V30 5353 C 491.978 0.0487352 2.01641 0
M  V30 5354 C 492.291 -1.31433 1.44861 0
M  V30 5355 O 493.497 -1.92638 1.91318 0
M  V30 5356 C 491.953 0.0365817 3.59881 0
M  V30 5357 C 491.561 1.39719 4.25655 0
M  V30 5358 C 493.305 -0.431545 4.22301 0
M  V30 5359 C 491.212 1.34345 5.75939 0
M  V30 5360 H 490.142 0.0144492 0.753862 0
M  V30 5361 H 492.793 0.719928 1.68788 0
M  V30 5362 H 491.175 -0.700522 3.89755 0
M  V30 5363 H 492.349 2.15303 4.07408 0
M  V30 5364 H 490.664 1.80431 3.75278 0
M  V30 5365 H 493.261 -0.490354 5.32447 0
M  V30 5366 H 493.604 -1.44638 3.90366 0
M  V30 5367 H 494.137 0.251102 3.97007 0
M  V30 5368 H 490.876 2.33469 6.12513 0
M  V30 5369 H 490.396 0.629615 5.96486 0
M  V30 5370 H 492.075 1.051 6.38407 0
M  V30 5371 N 492.207 -1.54576 0.307264 0
M  V30 5372 C 493.17 -2.22423 -0.553224 0
M  V30 5373 C 494.17 -1.21231 -1.05639 0
M  V30 5374 O 495.36 -1.45923 -0.951419 0
M  V30 5375 C 492.492 -2.91552 -1.76664 0
M  V30 5376 H 493.685 -2.99874 0.0396484 0
M  V30 5377 H 491.238 -1.56192 0.0581629 0
M  V30 5378 H 491.973 -2.18196 -2.39918 0
M  V30 5379 H 491.758 -3.65738 -1.41343 0
M  V30 5380 H 493.248 -3.43292 -2.37783 0
M  V30 5381 N 493.685 -0.035106 -1.57561 0
M  V30 5382 C 494.91 0.655802 -1.96759 0
M  V30 5383 C 495.335 1.64523 -0.911809 0
M  V30 5384 O 494.693 1.80857 0.126673 0
M  V30 5385 C 494.741 1.33326 -3.35047 0
M  V30 5386 O 493.845 2.44866 -3.31835 0
M  V30 5387 H 493.186 0.171807 -0.641388 0
M  V30 5388 H 495.716 -0.0987369 -2.04362 0
M  V30 5389 H 495.726 1.68867 -3.71413 0
M  V30 5390 H 494.401 0.608033 -4.11431 0
M  V30 5391 H 492.978 2.11392 -3.07193 0
M  V30 5392 N 495.163 1.55791 0.238111 0
M  V30 5393 C 496.113 1.87444 1.29803 0
M  V30 5394 C 497.097 0.736043 1.43078 0
M  V30 5395 O 498.289 0.998146 1.46171 0
M  V30 5396 C 495.418 2.18028 2.65177 0
M  V30 5397 C 494.504 3.38217 2.55871 0
M  V30 5398 N 494.895 4.57264 2.16202 0
M  V30 5399 C 493.193 3.41502 2.86866 0
M  V30 5400 C 493.894 5.3941 2.17744 0
M  V30 5401 N 492.87 4.78695 2.57589 0
M  V30 5402 H 496.672 2.7701 0.981965 0
M  V30 5403 H 494.186 1.56135 0.44672 0
M  V30 5404 H 496.183 2.38873 3.4168 0
M  V30 5405 H 494.843 1.29765 2.97643 0
M  V30 5406 H 495.854 4.82727 1.87602 0
M  V30 5407 H 492.531 2.63536 3.23813 0
M  V30 5408 H 493.921 6.44671 1.89339 0
M  V30 5409 N 496.642 -0.504142 1.49319 0
M  V30 5410 C 498.058 -0.835039 1.36012 0
M  V30 5411 C 498.258 -1.97674 0.390808 0
M  V30 5412 O 497.314 -2.51867 -0.178655 0
M  V30 5413 C 498.627 -1.17821 2.76656 0
M  V30 5414 C 500.175 -1.2866 2.85334 0
M  V30 5415 C 500.65 -1.66307 4.26739 0
M  V30 5416 N 502.141 -1.73362 4.29534 0
M  V30 5417 C 502.876 -2.0393 5.35911 0
M  V30 5418 N 502.372 -2.32744 6.52535 0
M  V30 5419 N 504.165 -2.05155 5.23324 0
M  V30 5420 H 496.316 0.248764 2.10938 0
M  V30 5421 H 498.579 0.0486962 0.946748 0
M  V30 5422 H 498.285 -0.412682 3.4927 0
M  V30 5423 H 498.159 -2.12239 3.11825 0
M  V30 5424 H 500.546 -2.04285 2.1296 0
M  V30 5425 H 500.627 -0.323004 2.53752 0
M  V30 5426 H 500.271 -0.91234 4.99639 0
M  V30 5427 H 500.201 -2.63761 4.55782 0
M  V30 5428 H 502.692 -1.53268 3.45424 0
M  V30 5429 H 503.005 -2.55248 7.2943 0
M  V30 5430 H 501.35 -2.30207 6.55767 0
M  V30 5431 H 504.541 -1.82119 4.3122 0
M  V30 5432 H 504.714 -2.28644 6.06322 0
M  V30 5433 N 498.12 -1.38341 -0.754957 0
M  V30 5434 C 499.083 -1.35262 -1.85032 0
M  V30 5435 C 500.083 -0.253393 -1.58791 0
M  V30 5436 O 501.273 -0.510205 -1.66561 0
M  V30 5437 C 498.405 -1.10544 -3.22479 0
M  V30 5438 H 499.598 -2.32712 -1.8917 0
M  V30 5439 H 497.151 -1.23614 -0.956515 0
M  V30 5440 H 497.886 -0.136952 -3.24011 0
M  V30 5441 H 497.671 -1.90127 -3.4292 0
M  V30 5442 H 499.161 -1.11082 -4.02555 0
M  V30 5443 N 499.598 0.982988 -1.23187 0
M  V30 5444 C 500.823 1.76455 -1.08988 0
M  V30 5445 C 501.248 1.84726 0.354691 0
M  V30 5446 O 500.606 1.30699 1.25649 0
M  V30 5447 C 500.654 3.17094 -1.71708 0
M  V30 5448 O 499.758 4.00648 -0.977477 0
M  V30 5449 H 499.099 0.542988 -0.382177 0
M  V30 5450 H 501.629 1.23413 -1.63188 0
M  V30 5451 H 501.639 3.67684 -1.76841 0
M  V30 5452 H 500.314 3.10389 -2.76823 0
M  V30 5453 H 498.891 3.59161 -1.0029 0
M  V30 5454 N 501.076 1.04316 1.18135 0
M  V30 5455 C 502.008 0.594444 2.21357 0
M  V30 5456 C 503.021 -0.337215 1.59269 0
M  V30 5457 O 504.21 -0.131337 1.78016 0
M  V30 5458 C 501.31 -0.151251 3.38562 0
M  V30 5459 C 500.483 0.788907 4.30227 0
M  V30 5460 C 499.542 0.0860572 5.2613 0
M  V30 5461 O 498.568 0.717302 5.64662 0
M  V30 5462 N 499.77 -1.17969 5.68387 0
M  V30 5463 H 502.535 1.48227 2.60478 0
M  V30 5464 H 500.096 0.92396 1.32946 0
M  V30 5465 H 502.088 -0.631352 3.99745 0
M  V30 5466 H 500.658 -0.940639 2.98112 0
M  V30 5467 H 499.878 1.44882 3.6661 0
M  V30 5468 H 501.166 1.42738 4.88368 0
M  V30 5469 H 500.564 -1.71302 5.3914 0
M  V30 5470 H 499.121 -1.60402 6.31755 0
M  V30 5471 N 502.554 -1.34406 0.822964 0
M  V30 5472 C 503.484 -2.32052 0.259608 0
M  V30 5473 C 504.465 -1.58243 -0.623961 0
M  V30 5474 O 505.65 -1.86224 -0.55083 0
M  V30 5475 C 502.78 -3.42434 -0.579314 0
M  V30 5476 C 501.734 -4.27499 0.20712 0
M  V30 5477 C 501.06 -5.29349 -0.754547 0
M  V30 5478 C 502.36 -5.02758 1.41533 0
M  V30 5479 H 504.054 -2.79418 1.07545 0
M  V30 5480 H 501.6 -1.34338 0.518593 0
M  V30 5481 H 503.553 -4.0976 -0.983612 0
M  V30 5482 H 502.277 -2.93717 -1.4282 0
M  V30 5483 H 500.936 -3.61776 0.592787 0
M  V30 5484 H 500.584 -4.76895 -1.59939 0
M  V30 5485 H 500.284 -5.8714 -0.232561 0
M  V30 5486 H 501.808 -5.99544 -1.1567 0
M  V30 5487 H 503.222 -5.62938 1.08504 0
M  V30 5488 H 501.619 -5.70123 1.87296 0
M  V30 5489 H 502.689 -4.32451 2.1935 0
M  V30 5490 N 504.032 -0.577932 -1.46621 0
M  V30 5491 C 505.26 -0.0671642 -2.06791 0
M  V30 5492 C 505.675 1.23571 -1.42743 0
M  V30 5493 O 505.032 1.74602 -0.531062 0
M  V30 5494 C 505.083 0.110357 -3.61332 0
M  V30 5495 O 504.804 -1.14095 -4.22982 0
M  V30 5496 C 506.305 0.656025 -4.38419 0
M  V30 5497 H 503.525 -0.0552732 -0.66872 0
M  V30 5498 H 506.069 -0.797242 -1.8832 0
M  V30 5499 H 504.224 0.790637 -3.79246 0
M  V30 5500 H 504.638 -0.951742 -5.15793 0
M  V30 5501 H 506.112 0.729438 -5.47159 0
M  V30 5502 H 506.589 1.67195 -4.06131 0
M  V30 5503 H 507.195 0.0107692 -4.25299 0
M  V30 5504 N 505.51 1.54411 -0.315457 0
M  V30 5505 C 506.756 2.00716 0.289972 0
M  V30 5506 C 507.089 1.2034 1.5242 0
M  V30 5507 O 506.364 0.283579 1.92422 0
M  V30 5508 C 506.647 3.54507 0.632196 0
M  V30 5509 C 506.5 4.45615 -0.61218 0
M  V30 5510 C 507.819 4.15421 1.45305 0
M  V30 5511 H 504.938 0.729637 0.10392 0
M  V30 5512 H 507.58 1.8506 -0.430427 0
M  V30 5513 H 505.73 3.67979 1.24595 0
M  V30 5514 H 507.402 4.44026 -1.25053 0
M  V30 5515 H 505.645 4.15621 -1.24264 0
M  V30 5516 H 506.316 5.51022 -0.328379 0
M  V30 5517 H 508.792 4.05474 0.934331 0
M  V30 5518 H 507.668 5.23157 1.66127 0
M  V30 5519 H 507.929 3.68223 2.44671 0
M  V30 5520 N 506.988 0.0434614 1.5754 0
M  V30 5521 C 508.213 -0.645358 1.97104 0
M  V30 5522 C 508.638 -1.64037 0.920521 0
M  V30 5523 O 507.996 -1.80922 -0.11708 0
M  V30 5524 C 508.044 -1.31547 3.35749 0
M  V30 5525 O 507.148 -2.43103 3.33129 0
M  V30 5526 H 506.489 -0.168403 0.64229 0
M  V30 5527 H 509.019 0.109573 2.04306 0
M  V30 5528 H 509.029 -1.66895 3.72304 0
M  V30 5529 H 507.704 -0.586205 4.11748 0
M  V30 5530 H 506.281 -2.0976 3.0831 0
M  V30 5531 N 508.466 -1.55915 -0.229846 0
M  V30 5532 C 509.691 -1.8296 -0.976743 0
M  V30 5533 C 510.116 -0.622735 -1.77493 0
M  V30 5534 O 509.474 0.428431 -1.76165 0
M  V30 5535 C 509.522 -3.07916 -1.8767 0
M  V30 5536 O 508.626 -2.86028 -2.97088 0
M  V30 5537 H 507.967 -0.603453 -0.277021 0
M  V30 5538 H 510.497 -2.0312 -0.245669 0
M  V30 5539 H 510.507 -3.37802 -2.2881 0
M  V30 5540 H 509.182 -3.95389 -1.28996 0
M  V30 5541 H 507.759 -2.67355 -2.59954 0
M  V30 5542 N 509.944 0.496216 -1.49584 0
M  V30 5543 C 510.874 1.60576 -1.69521 0
M  V30 5544 C 511.855 1.61169 -0.543933 0
M  V30 5545 O 513.04 1.77834 -0.78031 0
M  V30 5546 C 510.17 2.99038 -1.76616 0
M  V30 5547 C 509.124 3.13312 -2.91581 0
M  V30 5548 C 508.45 4.53172 -2.83794 0
M  V30 5549 C 509.75 2.92886 -4.32452 0
M  V30 5550 H 511.444 1.44146 -2.62416 0
M  V30 5551 H 508.99 0.692024 -1.26282 0
M  V30 5552 H 510.943 3.76564 -1.8915 0
M  V30 5553 H 509.667 3.16568 -0.80324 0
M  V30 5554 H 508.326 2.38213 -2.78658 0
M  V30 5555 H 507.974 4.67585 -1.854 0
M  V30 5556 H 507.674 4.63662 -3.60958 0
M  V30 5557 H 509.198 5.32752 -2.98342 0
M  V30 5558 H 510.612 3.60178 -4.46032 0
M  V30 5559 H 509.009 3.14844 -5.10875 0
M  V30 5560 H 510.079 1.88966 -4.46565 0
M  V30 5561 N 511.423 1.38739 0.74761 0
M  V30 5562 C 512.355 1.32341 1.87132 0
M  V30 5563 C 513.368 0.234502 1.61102 0
M  V30 5564 O 514.557 0.492516 1.71571 0
M  V30 5565 C 511.657 1.02915 3.22896 0
M  V30 5566 C 510.83 2.22834 3.76383 0
M  V30 5567 C 509.889 1.90059 4.90677 0
M  V30 5568 O 508.915 2.62615 5.04997 0
M  V30 5569 N 510.117 0.859141 5.74107 0
M  V30 5570 H 512.882 2.29175 1.93129 0
M  V30 5571 H 510.443 1.32678 0.927805 0
M  V30 5572 H 512.435 0.79031 3.96908 0
M  V30 5573 H 511.005 0.148572 3.12247 0
M  V30 5574 H 510.225 2.62747 2.93867 0
M  V30 5575 H 511.513 3.02851 4.08851 0
M  V30 5576 H 510.911 0.257564 5.65113 0
M  V30 5577 H 509.468 0.680189 6.48241 0
M  V30 5578 N 512.901 -0.976442 1.23707 0
M  V30 5579 C 514.141 -1.73331 1.08332 0
M  V30 5580 C 514.505 -1.88346 -0.372781 0
M  V30 5581 O 515.706 -2.60877 -0.647813 0
M  V30 5582 C 513.977 -3.09159 1.7932 0
M  V30 5583 S 515.536 -4.00376 1.79567 0
M  V30 5584 H 512.354 -0.596045 0.387622 0
M  V30 5585 H 514.956 -1.16625 1.56904 0
M  V30 5586 H 513.66 -2.95884 2.84395 0
M  V30 5587 H 513.191 -3.70932 1.31046 0
M  V30 5588 H 515.206 -4.88742 0.857094 0
M  V30 5589 N 514.379 -1.04941 -1.1758 0
M  V30 5590 C 515.329 -0.618378 -2.19454 0
M  V30 5591 C 516.313 0.343813 -1.57184 0
M  V30 5592 O 517.505 0.16145 -1.76262 0
M  V30 5593 C 514.634 0.00803847 -3.43299 0
M  V30 5594 C 513.72 -0.977827 -4.12673 0
M  V30 5595 N 514.111 -2.14826 -4.57912 0
M  V30 5596 C 512.409 -0.805748 -4.38661 0
M  V30 5597 C 513.11 -2.77174 -5.11419 0
M  V30 5598 N 512.086 -2.04989 -5.03468 0
M  V30 5599 H 515.888 -1.51018 -2.52132 0
M  V30 5600 H 513.402 -0.919201 -1.33882 0
M  V30 5601 H 515.399 0.334584 -4.15555 0
M  V30 5602 H 514.059 0.895272 -3.12114 0
M  V30 5603 H 515.07 -2.52673 -4.52081 0
M  V30 5604 H 511.747 0.0306506 -4.17489 0
M  V30 5605 H 513.137 -3.76416 -5.56562 0
M  V30 5606 N 515.857 1.33968 -0.830081 0
M  V30 5607 C 517.273 1.51003 -0.516742 0
M  V30 5608 C 517.473 1.77286 0.957694 0
M  V30 5609 O 516.529 1.82797 1.74188 0
M  V30 5610 C 517.842 2.67036 -1.38247 0
M  V30 5611 C 519.39 2.80919 -1.38034 0
M  V30 5612 C 519.865 4.00004 -2.23071 0
M  V30 5613 N 521.356 4.07224 -2.20733 0
M  V30 5614 C 522.091 4.98541 -2.83275 0
M  V30 5615 N 521.587 5.95033 -3.54835 0
M  V30 5616 N 523.38 4.91469 -2.72791 0
M  V30 5617 H 515.531 1.15168 -1.78466 0
M  V30 5618 H 517.794 0.565443 -0.760906 0
M  V30 5619 H 517.5 2.54266 -2.42985 0
M  V30 5620 H 517.374 3.62226 -1.05225 0
M  V30 5621 H 519.761 2.93127 -0.340713 0
M  V30 5622 H 519.842 1.86517 -1.75057 0
M  V30 5623 H 519.486 3.88557 -3.27087 0
M  V30 5624 H 519.416 4.93634 -1.83394 0
M  V30 5625 H 521.907 3.38162 -1.68687 0
M  V30 5626 H 522.22 6.61357 -3.99784 0
M  V30 5627 H 520.565 5.95135 -3.58942 0
M  V30 5628 H 523.756 4.15048 -2.16456 0
M  V30 5629 H 523.929 5.62439 -3.21818 0
M  V30 5630 N 517.335 0.585699 1.46312 0
M  V30 5631 C 518.285 -0.166813 2.27389 0
M  V30 5632 C 519.269 -0.859076 1.36047 0
M  V30 5633 O 520.461 -0.752678 1.60199 0
M  V30 5634 C 517.59 -1.17791 3.2246 0
M  V30 5635 C 516.676 -0.487605 4.21288 0
M  V30 5636 N 517.067 0.45849 5.03718 0
M  V30 5637 C 515.365 -0.737971 4.39852 0
M  V30 5638 C 516.066 0.862213 5.75275 0
M  V30 5639 N 515.042 0.210707 5.43191 0
M  V30 5640 H 518.844 0.560167 2.88512 0
M  V30 5641 H 516.358 0.407715 1.57199 0
M  V30 5642 H 518.355 -1.73122 3.79255 0
M  V30 5643 H 517.015 -1.90568 2.62896 0
M  V30 5644 H 518.026 0.834163 5.11138 0
M  V30 5645 H 514.703 -1.45209 3.91434 0
M  V30 5646 H 516.093 1.64128 6.51546 0
M  V30 5647 N 518.813 -1.54241 0.323641 0
M  V30 5648 C 519.76 -2.24339 -0.542277 0
M  V30 5649 C 520.73 -1.23421 -1.11159 0
M  V30 5650 O 521.915 -1.52104 -1.15192 0
M  V30 5651 C 519.055 -3.00479 -1.69725 0
M  V30 5652 C 518.168 -4.16214 -1.15716 0
M  V30 5653 C 517.303 -4.79884 -2.27783 0
M  V30 5654 C 516.342 -5.87722 -1.71023 0
M  V30 5655 N 515.479 -6.45254 -2.76752 0
M  V30 5656 H 520.319 -2.97935 0.0620613 0
M  V30 5657 H 517.856 -1.47039 0.0423993 0
M  V30 5658 H 519.814 -3.42869 -2.3769 0
M  V30 5659 H 518.444 -2.29217 -2.27288 0
M  V30 5660 H 517.496 -3.78605 -0.369063 0
M  V30 5661 H 518.808 -4.93838 -0.701832 0
M  V30 5662 H 517.962 -5.25243 -3.03651 0
M  V30 5663 H 516.701 -4.01641 -2.76652 0
M  V30 5664 H 515.706 -5.41765 -0.936518 0
M  V30 5665 H 516.931 -6.67863 -1.2303 0
M  V30 5666 H 514.877 -5.69884 -3.24912 0
M  V30 5667 H 514.794 -7.18292 -2.35782 0
M  V30 5668 H 516.062 -6.95269 -3.5245 0
M  V30 5669 N 520.291 -0.0518155 -1.57515 0
M  V30 5670 C 521.702 0.483787 -1.80323 0
M  V30 5671 C 522.053 1.70879 -0.964099 0
M  V30 5672 O 521.178 2.15643 -0.180872 0
M  V30 5673 C 521.773 0.884459 -3.27052 0
M  V30 5674 C 520.332 1.36504 -3.50776 0
M  V30 5675 C 519.479 0.340539 -2.75201 0
M  V30 5676 H 522.43 -0.277691 -1.56252 0
M  V30 5677 H 522.451 1.74733 -3.38007 0
M  V30 5678 H 521.963 -0.00731093 -3.88099 0
M  V30 5679 H 520.064 2.27598 -2.95009 0
M  V30 5680 H 520.177 1.35675 -4.59488 0
M  V30 5681 H 518.541 0.81356 -2.41357 0
M  V30 5682 H 519.324 -0.543156 -3.38976 0
M  V30 5683 N 521.769 1.56035 0.221574 0
M  V30 5684 C 523.015 1.80221 0.942973 0
M  V30 5685 C 523.37 0.624799 1.81973 0
M  V30 5686 O 522.663 -0.381145 1.87771 0
M  V30 5687 C 522.857 3.07813 1.8162 0
M  V30 5688 C 522.686 4.37852 1.02548 0
M  V30 5689 C 521.456 5.00138 0.720418 0
M  V30 5690 C 523.654 5.12813 0.390799 0
M  V30 5691 N 521.636 6.13831 -0.0917139 0
M  V30 5692 C 523.007 6.19346 -0.284728 0
M  V30 5693 C 525.062 4.96972 0.303828 0
M  V30 5694 C 523.765 7.11758 -1.03891 0
M  V30 5695 C 525.791 5.89784 -0.436883 0
M  V30 5696 C 525.153 6.95743 -1.10095 0
M  V30 5697 H 521.252 0.711117 0.325325 0
M  V30 5698 H 523.836 1.93522 0.213854 0
M  V30 5699 H 522.007 2.95795 2.51714 0
M  V30 5700 H 523.739 3.20191 2.47508 0
M  V30 5701 H 520.494 4.62075 1.03843 0
M  V30 5702 H 520.918 6.75249 -0.486615 0
M  V30 5703 H 525.56 4.15107 0.802896 0
M  V30 5704 H 523.278 7.93105 -1.54949 0
M  V30 5705 H 526.864 5.79603 -0.505181 0
M  V30 5706 H 525.744 7.66322 -1.66495 0
M  V30 5707 N 523.247 -0.488276 1.49845 0
M  V30 5708 C 524.663 -0.820566 1.3689 0
M  V30 5709 C 524.863 -1.97248 0.411752 0
M  V30 5710 O 523.919 -2.52042 -0.151931 0
M  V30 5711 C 525.232 -1.1488 2.77891 0
M  V30 5712 C 526.78 -1.25626 2.86683 0
M  V30 5713 C 527.255 -1.61772 4.28479 0
M  V30 5714 N 528.746 -1.68797 4.31349 0
M  V30 5715 C 529.481 -1.98235 5.38043 0
M  V30 5716 N 528.977 -2.2581 6.54967 0
M  V30 5717 N 530.77 -1.99593 5.2547 0
M  V30 5718 H 522.921 0.271123 2.10662 0
M  V30 5719 H 525.184 0.058735 0.946179 0
M  V30 5720 H 524.89 -0.375614 3.49688 0
M  V30 5721 H 524.764 -2.08919 3.14058 0
M  V30 5722 H 527.151 -2.02014 2.15114 0
M  V30 5723 H 527.232 -0.296072 2.54081 0
M  V30 5724 H 526.876 -0.859295 5.00578 0
M  V30 5725 H 526.806 -2.58912 4.58554 0
M  V30 5726 H 529.297 -1.49595 3.4703 0
M  V30 5727 H 529.61 -2.47497 7.32096 0
M  V30 5728 H 527.955 -2.23239 6.58171 0
M  V30 5729 H 531.146 -1.77535 4.33127 0
M  V30 5730 H 531.319 -2.222 6.08713 0
M  V30 5731 N 524.725 -1.39134 -0.740242 0
M  V30 5732 C 525.655 -1.40165 -1.86751 0
M  V30 5733 C 526.636 -0.265708 -1.68012 0
M  V30 5734 O 527.821 -0.47076 -1.88408 0
M  V30 5735 C 524.951 -1.2392 -3.2444 0
M  V30 5736 C 523.905 -2.34858 -3.57807 0
M  V30 5737 C 523.231 -2.03707 -4.94376 0
M  V30 5738 C 524.531 -3.77159 -3.61315 0
M  V30 5739 H 526.225 -2.345 -1.86145 0
M  V30 5740 H 523.771 -1.12875 -0.89416 0
M  V30 5741 H 525.724 -1.23263 -4.02969 0
M  V30 5742 H 524.448 -0.26051 -3.25559 0
M  V30 5743 H 523.107 -2.34723 -2.81604 0
M  V30 5744 H 522.755 -1.04289 -4.9207 0
M  V30 5745 H 522.455 -2.78016 -5.17669 0
M  V30 5746 H 523.979 -2.04691 -5.75268 0
M  V30 5747 H 525.393 -3.79252 -4.29931 0
M  V30 5748 H 523.79 -4.50784 -3.96124 0
M  V30 5749 H 524.86 -4.08513 -2.61238 0
M  V30 5750 N 526.204 0.969867 -1.24223 0
M  V30 5751 C 527.452 1.70918 -1.0785 0
M  V30 5752 C 527.773 1.91186 0.383763 0
M  V30 5753 O 527.043 1.48806 1.27411 0
M  V30 5754 H 525.623 0.633334 -0.396103 0
M  V30 5755 H 528.285 1.16689 -1.56108 0
M  V30 5756 H 527.381 2.69455 -1.57482 0
M  V30 5757 N 527.682 1.05563 1.17022 0
M  V30 5758 C 529.093 0.793475 1.69 0
M  V30 5759 C 529.444 -0.683882 1.83895 0
M  V30 5760 O 528.569 -1.53116 1.5292 0
M  V30 5761 C 529.164 1.43376 3.06967 0
M  V30 5762 C 527.723 1.21956 3.56095 0
M  V30 5763 C 526.87 1.51494 2.3226 0
M  V30 5764 H 529.821 1.22008 1.01487 0
M  V30 5765 H 529.842 0.845068 3.70997 0
M  V30 5766 H 529.354 2.50899 2.96093 0
M  V30 5767 H 527.455 0.163749 3.7224 0
M  V30 5768 H 527.568 1.92713 4.38633 0
M  V30 5769 H 525.932 0.935175 2.3691 0
M  V30 5770 H 526.715 2.60159 2.23992 0
M  V30 5771 N 529.16 -1.33526 0.837174 0
M  V30 5772 C 530.576 -1.50727 0.524743 0
M  V30 5773 C 530.776 -1.77792 -0.948279 0
M  V30 5774 O 529.832 -1.83719 -1.73216 0
M  V30 5775 C 531.145 -2.66299 1.39661 0
M  V30 5776 C 532.693 -2.80183 1.39521 0
M  V30 5777 C 533.168 -3.98815 2.25189 0
M  V30 5778 N 534.659 -4.06047 2.2289 0
M  V30 5779 C 535.394 -4.97032 2.85915 0
M  V30 5780 N 534.89 -5.93143 3.57985 0
M  V30 5781 N 536.683 -4.90015 2.75394 0
M  V30 5782 H 528.834 -1.1422 1.79074 0
M  V30 5783 H 531.097 -0.561399 0.763894 0
M  V30 5784 H 530.803 -2.52974 2.4433 0
M  V30 5785 H 530.677 -3.61663 1.07145 0
M  V30 5786 H 533.064 -2.92942 0.356253 0
M  V30 5787 H 533.145 -1.85586 1.76044 0
M  V30 5788 H 532.789 -3.86817 3.29143 0
M  V30 5789 H 532.719 -4.92654 1.86009 0
M  V30 5790 H 535.21 -3.37262 1.70478 0
M  V30 5791 H 535.523 -6.59227 4.03286 0
M  V30 5792 H 533.868 -5.93223 3.62093 0
M  V30 5793 H 537.059 -4.13894 2.18654 0
M  V30 5794 H 537.232 -5.60724 3.24796 0
M  V30 5795 N 530.638 -0.59345 -1.46 0
M  V30 5796 C 531.885 -0.0831523 -2.02329 0
M  V30 5797 C 532.213 1.28093 -1.46364 0
M  V30 5798 O 531.468 1.85526 -0.622793 0
M  V30 5799 C 531.767 0.021178 -3.57394 0
M  V30 5800 C 531.433 -1.27671 -4.32448 0
M  V30 5801 C 530.095 -1.63227 -4.5267 0
M  V30 5802 C 532.447 -2.13511 -4.7546 0
M  V30 5803 C 529.775 -2.84401 -5.1316 0
M  V30 5804 C 532.127 -3.33922 -5.37289 0
M  V30 5805 C 530.791 -3.69747 -5.55737 0
M  V30 5806 H 530.061 -0.0304276 -0.740375 0
M  V30 5807 H 532.708 -0.772239 -1.75239 0
M  V30 5808 H 531.013 0.793454 -3.83682 0
M  V30 5809 H 532.71 0.431942 -3.98667 0
M  V30 5810 H 529.3 -0.989937 -4.17011 0
M  V30 5811 H 533.484 -1.87344 -4.59582 0
M  V30 5812 H 528.74 -3.12282 -5.25633 0
M  V30 5813 H 532.914 -4.00698 -5.69574 0
M  V30 5814 H 530.541 -4.6373 -6.02377 0
M  V30 5815 N 532.116 1.54067 -0.331816 0
M  V30 5816 C 533.049 2.20886 0.573127 0
M  V30 5817 C 534.027 1.18876 1.10938 0
M  V30 5818 O 535.211 1.47649 1.17184 0
M  V30 5819 C 532.338 2.87706 1.78726 0
M  V30 5820 C 531.384 4.03505 1.38152 0
M  V30 5821 S 532.217 5.33919 0.41123 0
M  V30 5822 C 533.373 6.04236 1.63246 0
M  V30 5823 H 533.606 2.97299 0.00555737 0
M  V30 5824 H 531.139 1.53964 -0.115893 0
M  V30 5825 H 533.097 3.26825 2.48386 0
M  V30 5826 H 531.758 2.1108 2.32603 0
M  V30 5827 H 530.951 4.49152 2.28645 0
M  V30 5828 H 530.553 3.66102 0.764524 0
M  V30 5829 H 532.845 6.26917 2.56869 0
M  V30 5830 H 533.788 6.97546 1.218 0
M  V30 5831 H 534.196 5.34247 1.82318 0
M  V30 5832 N 533.594 0.0601682 1.57485 0
M  V30 5833 C 534.542 -0.928899 2.13247 0
M  V30 5834 C 535.536 -1.31616 1.06647 0
M  V30 5835 O 536.742 -1.29476 1.25043 0
M  V30 5836 H 533.117 -0.317455 0.681708 0
M  V30 5837 H 535.088 -0.433566 2.95233 0
M  V30 5838 C 533.837 -2.19121 2.69965 0
M  V30 5839 H 533.16 -1.90204 3.51657 0
M  V30 5840 H 534.6 -2.86465 3.12592 0
M  V30 5841 C 533.059 -2.94195 1.64168 0
M  V30 5842 O 533.589 -3.87468 1.05978 0
M  V30 5843 N 531.795 -2.57089 1.35476 0
M  V30 5844 H 531.342 -1.81314 1.82984 0
M  V30 5845 H 531.3 -3.07624 0.649196 0
M  V30 5846 N 535.072 -1.5615 -0.213296 0
M  V30 5847 C 536.002 -1.96109 -1.26742 0
M  V30 5848 C 536.983 -0.830448 -1.48451 0
M  V30 5849 O 538.168 -1.09339 -1.60495 0
M  V30 5850 C 535.298 -2.28492 -2.61551 0
M  V30 5851 C 534.252 -3.44124 -2.54485 0
M  V30 5852 C 533.578 -3.62134 -3.93399 0
M  V30 5853 C 534.878 -4.78855 -2.08556 0
M  V30 5854 H 536.572 -2.84412 -0.935434 0
M  V30 5855 H 534.118 -1.36836 -0.44854 0
M  V30 5856 H 536.071 -2.55039 -3.3546 0
M  V30 5857 H 534.795 -1.37052 -2.96453 0
M  V30 5858 H 533.454 -3.17639 -1.83033 0
M  V30 5859 H 533.102 -2.68055 -4.25623 0
M  V30 5860 H 532.802 -4.39913 -3.89551 0
M  V30 5861 H 534.326 -3.91038 -4.68958 0
M  V30 5862 H 535.74 -5.04552 -2.72213 0
M  V30 5863 H 534.137 -5.59975 -2.1575 0
M  V30 5864 H 535.207 -4.73657 -1.03811 0
M  V30 5865 N 536.55 0.480323 -1.50102 0
M  V30 5866 C 537.799 1.22979 -1.59872 0
M  V30 5867 C 538.112 1.93282 -0.30022 0
M  V30 5868 O 539.318 2.70086 -0.276709 0
M  V30 5869 C 537.774 2.23408 -2.82164 0
M  V30 5870 C 537.382 1.5895 -4.18854 0
M  V30 5871 C 539.126 2.99055 -3.01275 0
M  V30 5872 C 537.033 2.57611 -5.32344 0
M  V30 5873 H 535.963 0.462707 -0.59533 0
M  V30 5874 H 538.614 0.501291 -1.7652 0
M  V30 5875 H 536.996 2.99511 -2.59055 0
M  V30 5876 H 538.17 0.887 -4.52182 0
M  V30 5877 H 536.485 0.956191 -4.05273 0
M  V30 5878 H 539.082 3.72876 -3.83233 0
M  V30 5879 H 539.425 3.57897 -2.12639 0
M  V30 5880 H 539.958 2.30066 -3.24522 0
M  V30 5881 H 536.697 2.03521 -6.23105 0
M  V30 5882 H 536.217 3.26041 -5.03445 0
M  V30 5883 H 537.896 3.19627 -5.62537 0
M  V30 5884 N 538.028 1.39524 0.732853 0
M  V30 5885 C 538.975 1.38416 1.84688 0
M  V30 5886 C 539.945 0.243539 1.64305 0
M  V30 5887 O 541.13 0.438979 1.85681 0
M  V30 5888 C 538.27 1.23555 3.22224 0
M  V30 5889 C 537.383 2.47179 3.54298 0
M  V30 5890 C 536.518 2.2489 4.81246 0
M  V30 5891 C 535.557 3.44178 5.0617 0
M  V30 5892 N 534.694 3.21192 6.24323 0
M  V30 5893 H 539.534 2.33645 1.84971 0
M  V30 5894 H 537.071 1.16059 0.903804 0
M  V30 5895 H 539.029 1.12949 4.0162 0
M  V30 5896 H 537.659 0.31954 3.21215 0
M  V30 5897 H 536.711 2.68379 2.69587 0
M  V30 5898 H 538.023 3.36022 3.68633 0
M  V30 5899 H 537.177 2.11538 5.68627 0
M  V30 5900 H 535.916 1.33443 4.69089 0
M  V30 5901 H 534.921 3.58025 4.17251 0
M  V30 5902 H 536.146 4.36528 5.20212 0
M  V30 5903 H 534.092 2.32413 6.1345 0
M  V30 5904 H 534.009 4.03594 6.39256 0
M  V30 5905 H 535.277 3.1154 7.14537 0
M  V30 5906 N 539.506 -0.963266 1.24736 0
M  V30 5907 C 540.416 -2.09246 1.06082 0
M  V30 5908 C 541.432 -1.74 0.000363101 0
M  V30 5909 O 542.608 -2.0041 0.199479 0
M  V30 5910 C 539.673 -3.40115 0.672498 0
M  V30 5911 C 538.734 -3.89282 1.80993 0
M  V30 5912 C 537.967 -5.13905 1.44004 0
M  V30 5913 O 538.19 -5.69434 0.331835 0
M  V30 5914 O 537.124 -5.57566 2.26723 0
M  V30 5915 H 540.95 -2.27881 2.00759 0
M  V30 5916 H 538.535 -1.07649 1.03595 0
M  V30 5917 H 540.417 -4.18797 0.467668 0
M  V30 5918 H 539.092 -3.22771 -0.245102 0
M  V30 5919 H 537.999 -3.11642 2.06955 0
M  V30 5920 H 539.332 -4.1111 2.70646 0
M  V30 5921 N 540.985 -1.06182 -1.16461 0
M  V30 5922 C 541.948 -0.675723 -2.19013 0
M  V30 5923 C 542.948 0.277963 -1.58379 0
M  V30 5924 O 544.138 0.0604962 -1.74095 0
M  V30 5925 C 541.27 0.00591459 -3.40899 0
M  V30 5926 H 542.463 -1.58353 -2.54685 0
M  V30 5927 H 540.016 -0.856908 -1.30716 0
M  V30 5928 H 540.751 0.92652 -3.10783 0
M  V30 5929 H 540.536 -0.67984 -3.86161 0
M  V30 5930 H 542.026 0.26181 -4.16778 0
M  V30 5931 N 542.463 1.3308 -0.844243 0
M  V30 5932 C 543.879 1.50447 -0.532729 0
M  V30 5933 C 544.079 1.78292 0.938837 0
M  V30 5934 O 543.135 1.84635 1.72239 0
M  V30 5935 C 544.448 2.65555 -1.41072 0
M  V30 5936 C 545.996 2.7944 -1.41005 0
M  V30 5937 C 546.471 3.97616 -2.27301 0
M  V30 5938 N 547.962 4.0486 -2.2504 0
M  V30 5939 C 548.697 4.95508 -2.88547 0
M  V30 5940 N 548.193 5.91236 -3.61126 0
M  V30 5941 N 549.986 4.88548 -2.77989 0
M  V30 5942 H 542.137 1.13269 -1.79677 0
M  V30 5943 H 544.4 0.55734 -0.766861 0
M  V30 5944 H 544.106 2.51675 -2.45668 0
M  V30 5945 H 543.98 3.61089 -1.09061 0
M  V30 5946 H 546.367 2.92749 -0.371784 0
M  V30 5947 H 546.448 1.8465 -1.77026 0
M  V30 5948 H 546.092 3.85066 -3.3119 0
M  V30 5949 H 546.022 4.91661 -1.88619 0
M  V30 5950 H 548.513 3.36353 -1.72264 0
M  V30 5951 H 548.826 6.57079 -4.06776 0
M  V30 5952 H 547.171 5.91295 -3.65234 0
M  V30 5953 H 550.362 4.12729 -2.20846 0
M  V30 5954 H 550.535 5.58994 -3.27765 0
M  V30 5955 N 543.941 0.601185 1.45683 0
M  V30 5956 C 545.187 0.102425 2.03142 0
M  V30 5957 C 545.542 -1.25066 1.46207 0
M  V30 5958 O 544.835 -1.81126 0.624806 0
M  V30 5959 C 545.029 -0.00222425 3.574 0
M  V30 5960 C 544.858 1.33917 4.29298 0
M  V30 5961 C 543.628 1.91818 4.67476 0
M  V30 5962 C 545.826 2.26652 4.61664 0
M  V30 5963 N 543.808 3.19504 5.24204 0
M  V30 5964 C 545.179 3.38933 5.19157 0
M  V30 5965 C 547.234 2.26103 4.43601 0
M  V30 5966 C 545.937 4.50823 5.60492 0
M  V30 5967 C 547.963 3.37036 4.85964 0
M  V30 5968 C 547.325 4.48039 5.43545 0
M  V30 5969 H 543.424 0.0806974 0.777825 0
M  V30 5970 H 546.008 0.798134 1.77589 0
M  V30 5971 H 544.179 -0.66714 3.82627 0
M  V30 5972 H 545.911 -0.507058 4.01511 0
M  V30 5973 H 542.666 1.45097 4.50826 0
M  V30 5974 H 543.09 3.84705 5.57073 0
M  V30 5975 H 547.732 1.41547 3.98402 0
M  V30 5976 H 545.45 5.36108 6.0466 0
M  V30 5977 H 549.036 3.37752 4.73725 0
M  V30 5978 H 547.916 5.32459 5.75723 0
M  V30 5979 N 545.419 -1.53889 0.339982 0
M  V30 5980 C 546.696 -1.93084 -0.312719 0
M  V30 5981 C 547.076 -1.2712 -1.68534 0
M  V30 5982 O 546.424 -0.420835 -2.24591 0
M  V30 5983 C 546.634 -3.4683 -0.388558 0
M  V30 5984 C 547.982 -4.19732 -0.641088 0
M  V30 5985 O 549.006 -3.53075 -0.470818 0
M  V30 5986 O 547.865 -5.3781 -0.970685 0
M  V30 5987 H 544.959 -0.806784 -0.18174 0
M  V30 5988 H 547.505 -1.65137 0.390898 0
M  V30 5989 H 546.277 -3.87055 0.574821 0
M  V30 5990 H 545.9 -3.80933 -1.1391 0
M  V30 5991 N 546.897 -0.0685191 -1.57451 0
M  V30 5992 C 548.145 0.60016 -1.92983 0
M  V30 5993 C 548.466 1.70348 -0.949028 0
M  V30 5994 O 547.736 1.959 0.00335647 0
M  V30 5995 H 546.316 0.224682 -0.712409 0
M  V30 5996 H 548.978 -0.125605 -1.94495 0
M  V30 5997 H 548.074 1.02759 -2.94698 0
M  V30 5998 N 548.375 1.56261 0.205012 0
M  V30 5999 C 549.305 1.96779 1.257 0
M  V30 6000 C 550.286 0.838309 1.48008 0
M  V30 6001 O 551.471 1.10189 1.59913 0
M  V30 6002 C 548.601 2.29876 2.60335 0
M  V30 6003 C 547.555 3.45469 2.52656 0
M  V30 6004 C 546.881 3.64215 3.91473 0
M  V30 6005 C 548.181 4.79954 2.06014 0
M  V30 6006 H 549.875 2.84904 0.920338 0
M  V30 6007 H 547.421 1.37072 0.441277 0
M  V30 6008 H 549.374 2.56814 3.34102 0
M  V30 6009 H 548.098 1.38622 2.95722 0
M  V30 6010 H 546.757 3.18605 1.81345 0
M  V30 6011 H 546.405 2.70309 4.24196 0
M  V30 6012 H 546.105 4.41973 3.87213 0
M  V30 6013 H 547.629 3.93519 4.66878 0
M  V30 6014 H 549.043 5.05989 2.69533 0
M  V30 6015 H 547.44 5.61111 2.12777 0
M  V30 6016 H 548.51 4.74201 1.01297 0
M  V30 6017 N 549.853 -0.472356 1.50355 0
M  V30 6018 C 551.081 -1.24784 1.65035 0
M  V30 6019 C 551.496 -1.85837 0.333176 0
M  V30 6020 O 550.853 -1.69168 -0.68472 0
M  V30 6021 C 550.904 -2.35747 2.74054 0
M  V30 6022 O 550.625 -1.77197 4.00665 0
M  V30 6023 C 552.126 -3.26645 2.99696 0
M  V30 6024 H 549.346 -0.377432 0.554785 0
M  V30 6025 H 551.89 -0.563962 1.9657 0
M  V30 6026 H 550.045 -2.99912 2.45217 0
M  V30 6027 H 550.459 -2.5026 4.60945 0
M  V30 6028 H 551.933 -4.00718 3.79644 0
M  V30 6029 H 552.41 -3.8535 2.10718 0
M  V30 6030 H 553.016 -2.68218 3.3006 0
M  V30 6031 N 551.331 -1.39911 -0.725443 0
M  V30 6032 C 552.579 -1.37382 -1.48224 0
M  V30 6033 C 552.9 0.0264107 -1.94982 0
M  V30 6034 O 552.17 0.979408 -1.6966 0
M  V30 6035 H 550.75 -0.505596 -0.549892 0
M  V30 6036 H 553.412 -1.7487 -0.860608 0
M  V30 6037 H 552.508 -2.04254 -2.3598 0
M  V30 6038 N 552.809 0.956637 -1.25245 0
M  V30 6039 C 553.759 2.03841 -1.02141 0
M  V30 6040 C 554.743 1.60848 0.0410058 0
M  V30 6041 O 555.935 1.76142 -0.174084 0
M  V30 6042 C 553.064 3.37282 -0.639963 0
M  V30 6043 C 552.15 3.86805 -1.73903 0
M  V30 6044 N 552.541 4.09143 -2.97381 0
M  V30 6045 C 550.839 4.15574 -1.61909 0
M  V30 6046 C 551.54 4.49923 -3.68707 0
M  V30 6047 N 550.516 4.55737 -2.96318 0
M  V30 6048 H 554.318 2.19102 -1.95886 0
M  V30 6049 H 551.832 1.1413 -1.15534 0
M  V30 6050 H 553.829 4.14403 -0.455643 0
M  V30 6051 H 552.489 3.23401 0.29018 0
M  V30 6052 H 553.5 3.96275 -3.33447 0
M  V30 6053 H 550.177 4.10566 -0.757764 0
M  V30 6054 H 551.567 4.75526 -4.74684 0
M  V30 6055 N 554.287 1.06798 1.15896 0
M  V30 6056 C 555.536 0.782796 1.8589 0
M  V30 6057 C 555.849 -0.693498 1.82893 0
M  V30 6058 O 557.055 -1.09325 2.48516 0
M  V30 6059 C 555.511 1.3502 3.33613 0
M  V30 6060 C 555.119 2.8571 3.45071 0
M  V30 6061 C 556.863 1.14278 4.08829 0
M  V30 6062 C 554.77 3.35669 4.86909 0
M  V30 6063 H 553.7 0.289149 0.696354 0
M  V30 6064 H 556.351 1.28734 1.30766 0
M  V30 6065 H 554.733 0.773407 3.88374 0
M  V30 6066 H 555.907 3.49385 3.00445 0
M  V30 6067 H 554.222 3.05178 2.83294 0
M  V30 6068 H 556.819 1.49087 5.13495 0
M  V30 6069 H 557.162 0.0814575 4.1622 0
M  V30 6070 H 557.695 1.68563 3.60321 0
M  V30 6071 H 554.434 4.41302 4.84698 0
M  V30 6072 H 553.954 2.76745 5.32139 0
M  V30 6073 H 555.633 3.31296 5.55745 0
M  V30 6074 N 555.766 -1.3263 0.851289 0
M  V30 6075 C 556.994 -2.01563 0.466899 0
M  V30 6076 C 557.409 -1.63996 -0.935447 0
M  V30 6077 O 556.766 -0.85957 -1.6099 0
M  V30 6078 C 556.817 -3.56613 0.592433 0
M  V30 6079 O 556.538 -3.92828 1.93954 0
M  V30 6080 C 558.039 -4.42818 0.206612 0
M  V30 6081 H 555.259 -0.645307 0.183902 0
M  V30 6082 H 557.803 -1.69285 1.1473 0
M  V30 6083 H 555.958 -3.87379 -0.0401936 0
M  V30 6084 H 556.372 -4.87545 1.9339 0
M  V30 6085 H 557.846 -5.50918 0.345462 0
M  V30 6086 H 558.323 -4.30844 -0.85264 0
M  V30 6087 H 558.929 -4.17434 0.814176 0
M  V30 6088 N 557.244 -0.608902 -1.45362 0
M  V30 6089 C 558.491 -0.104607 -2.0223 0
M  V30 6090 C 558.819 1.26534 -1.47714 0
M  V30 6091 O 558.074 1.84855 -0.642435 0
M  V30 6092 C 558.373 -0.0167296 -3.57396 0
M  V30 6093 C 558.039 -1.32251 -4.31069 0
M  V30 6094 C 556.701 -1.68019 -4.50914 0
M  V30 6095 C 559.053 -2.18542 -4.73169 0
M  V30 6096 C 556.381 -2.89828 -5.10114 0
M  V30 6097 C 558.733 -3.39602 -5.33717 0
M  V30 6098 C 557.397 -3.7562 -5.51784 0
M  V30 6099 H 556.667 -0.0382785 -0.740011 0
M  V30 6100 H 559.314 -0.790782 -1.7441 0
M  V30 6101 H 557.619 0.752715 -3.84502 0
M  V30 6102 H 559.316 0.389634 -3.99103 0
M  V30 6103 H 555.906 -1.03411 -4.15938 0
M  V30 6104 H 560.09 -1.92208 -4.5757 0
M  V30 6105 H 555.346 -3.17839 -5.22291 0
M  V30 6106 H 559.52 -4.06716 -5.65292 0
M  V30 6107 H 557.147 -4.70093 -5.97425 0
M  V30 6108 N 558.722 1.53707 -0.348139 0
M  V30 6109 C 559.67 2.26671 0.521808 0
M  V30 6110 C 560.664 1.28988 1.09811 0
M  V30 6111 O 561.87 1.4668 1.04332 0
M  V30 6112 H 558.245 0.728387 0.186968 0
M  V30 6113 H 560.216 2.98176 -0.115563 0
M  V30 6114 C 558.965 3.05591 1.6586 0
M  V30 6115 H 558.288 3.80589 1.22443 0
M  V30 6116 H 559.728 3.59851 2.24239 0
M  V30 6117 C 558.187 2.15366 2.59073 0
M  V30 6118 O 558.717 1.7528 3.61441 0
M  V30 6119 N 556.923 1.80352 2.27863 0
M  V30 6120 H 556.47 2.13149 1.44656 0
M  V30 6121 H 556.428 1.20268 2.90488 0
M  V30 6122 N 560.2 0.0768682 1.57412 0
M  V30 6123 C 561.147 -0.888577 2.13009 0
M  V30 6124 C 562.117 -1.29198 1.0439 0
M  V30 6125 O 563.302 -1.37694 1.3208 0
M  V30 6126 C 560.442 -2.14899 2.70023 0
M  V30 6127 C 559.555 -1.79777 3.92816 0
M  V30 6128 C 558.69 -3.00467 4.38056 0
M  V30 6129 C 557.729 -2.61385 5.53484 0
M  V30 6130 N 556.866 -3.74851 5.93659 0
M  V30 6131 H 561.706 -0.407593 2.95199 0
M  V30 6132 H 559.243 -0.189534 1.45874 0
M  V30 6133 H 561.201 -2.88688 3.0119 0
M  V30 6134 H 559.831 -2.60529 1.9059 0
M  V30 6135 H 558.883 -0.960301 3.68079 0
M  V30 6136 H 560.195 -1.47027 4.76639 0
M  V30 6137 H 559.349 -3.82529 4.7091 0
M  V30 6138 H 558.088 -3.36413 3.53097 0
M  V30 6139 H 557.093 -1.77746 5.20275 0
M  V30 6140 H 558.318 -2.26603 6.40178 0
M  V30 6141 H 556.264 -4.1055 5.11649 0
M  V30 6142 H 556.181 -3.45887 6.72234 0
M  V30 6143 H 557.449 -4.57477 6.31138 0
M  V30 6144 N 561.678 -1.56367 -0.196722 0
M  V30 6145 C 562.906 -1.84639 -0.933608 0
M  V30 6146 C 563.321 -0.659164 -1.76919 0
M  V30 6147 O 562.678 0.372142 -1.78665 0
M  V30 6148 C 562.729 -3.11694 -1.83109 0
M  V30 6149 O 562.45 -4.25838 -1.02924 0
M  V30 6150 C 563.951 -3.53132 -2.67979 0
M  V30 6151 H 561.171 -0.613188 -0.272473 0
M  V30 6152 H 563.715 -2.03475 -0.204465 0
M  V30 6153 H 561.87 -2.94759 -2.51387 0
M  V30 6154 H 562.284 -4.98178 -1.64069 0
M  V30 6155 H 563.758 -4.45005 -3.26611 0
M  V30 6156 H 564.235 -2.76045 -3.41608 0
M  V30 6157 H 564.841 -3.72592 -2.05074 0
M  V30 6158 N 563.156 0.464375 -1.50603 0
M  V30 6159 C 564.104 1.58224 -1.70493 0
M  V30 6160 C 565.098 1.59492 -0.570836 0
M  V30 6161 O 566.304 1.63561 -0.751517 0
M  V30 6162 H 562.679 0.525161 -0.538247 0
M  V30 6163 H 564.65 1.38613 -2.64252 0
M  V30 6164 C 563.399 2.96113 -1.82243 0
M  V30 6165 H 562.722 2.95858 -2.68901 0
M  V30 6166 H 564.162 3.73769 -2.00182 0
M  V30 6167 C 562.621 3.31946 -0.575628 0
M  V30 6168 O 563.151 4.00708 0.282152 0
M  V30 6169 N 561.357 2.87436 -0.427665 0
M  V30 6170 H 560.904 2.31652 -1.12674 0
M  V30 6171 H 560.862 3.11776 0.405379 0
M  V30 6172 N 564.634 1.40294 0.718013 0
M  V30 6173 C 565.882 1.38167 1.47494 0
M  V30 6174 C 566.203 -0.01607 1.94993 0
M  V30 6175 O 565.473 -0.970396 1.70177 0
M  V30 6176 H 564.053 0.508505 0.547203 0
M  V30 6177 H 566.715 1.75324 0.851322 0
M  V30 6178 H 565.811 2.05503 2.34894 0
M  V30 6179 N 566.112 -0.949982 1.2575 0
M  V30 6180 C 567.042 -2.06483 1.09028 0
M  V30 6181 C 568.023 -1.701 -0.00201532 0
M  V30 6182 O 569.208 -1.93469 0.168383 0
M  V30 6183 C 566.338 -3.39899 0.71316 0
M  V30 6184 C 565.292 -3.90309 1.75621 0
M  V30 6185 C 564.618 -5.20274 1.23365 0
M  V30 6186 C 565.918 -4.16169 3.15596 0
M  V30 6187 H 567.612 -2.20731 2.02283 0
M  V30 6188 H 565.158 -1.06066 0.973964 0
M  V30 6189 H 567.111 -4.17346 0.58309 0
M  V30 6190 H 565.835 -3.25602 -0.255091 0
M  V30 6191 H 564.494 -3.15035 1.8748 0
M  V30 6192 H 564.142 -5.02351 0.255491 0
M  V30 6193 H 563.842 -5.54971 1.93082 0
M  V30 6194 H 565.366 -6.00314 1.11607 0
M  V30 6195 H 566.78 -4.84259 3.06864 0
M  V30 6196 H 565.177 -4.62131 3.82825 0
M  V30 6197 H 566.247 -3.22273 3.6231 0
M  V30 6198 N 567.59 -1.07411 -1.15328 0
M  V30 6199 C 569.006 -0.799759 -1.38116 0
M  V30 6200 C 569.206 0.59572 -1.92493 0
M  V30 6201 O 568.262 1.35433 -2.13106 0
M  V30 6202 C 569.575 -1.87407 -2.35158 0
M  V30 6203 C 571.123 -1.89889 -2.48819 0
M  V30 6204 C 571.598 -2.96406 -3.49153 0
M  V30 6205 N 573.089 -2.95512 -3.56689 0
M  V30 6206 C 573.824 -3.74575 -4.34144 0
M  V30 6207 N 573.32 -4.63488 -5.14928 0
M  V30 6208 N 575.113 -3.62919 -4.29239 0
M  V30 6209 H 567.264 -1.97411 -0.78374 0
M  V30 6210 H 569.527 -0.856113 -0.407154 0
M  V30 6211 H 569.233 -2.8768 -2.0232 0
M  V30 6212 H 569.107 -1.73471 -3.34944 0
M  V30 6213 H 571.494 -0.902677 -2.80955 0
M  V30 6214 H 571.575 -2.07904 -1.49029 0
M  V30 6215 H 571.219 -3.96227 -3.17752 0
M  V30 6216 H 571.149 -2.75638 -4.48699 0
M  V30 6217 H 573.64 -2.31061 -2.99031 0
M  V30 6218 H 573.953 -5.20445 -5.71276 0
M  V30 6219 H 572.298 -4.67537 -5.14232 0
M  V30 6220 H 575.489 -2.92833 -3.65194 0
M  V30 6221 H 575.662 -4.24777 -4.89355 0
M  V30 6222 N 569.068 1.32177 -0.85831 0
M  V30 6223 C 570.015 2.28794 -0.303607 0
M  V30 6224 C 570.985 1.55213 0.591453 0
M  V30 6225 O 572.17 1.83418 0.525585 0
M  V30 6226 C 569.31 3.41475 0.49889 0
M  V30 6227 C 568.423 4.2993 -0.422373 0
M  V30 6228 C 567.558 5.29743 0.393111 0
M  V30 6229 C 566.597 6.09842 -0.525317 0
M  V30 6230 N 565.734 7.01643 0.253208 0
M  V30 6231 H 570.574 2.75631 -1.13276 0
M  V30 6232 H 568.111 1.35606 -0.570026 0
M  V30 6233 H 570.069 4.05531 0.979826 0
M  V30 6234 H 568.699 2.95779 1.29284 0
M  V30 6235 H 567.751 3.66422 -1.02171 0
M  V30 6236 H 569.063 4.85899 -1.12709 0
M  V30 6237 H 568.217 5.9942 0.937056 0
M  V30 6238 H 566.956 4.744 1.13117 0
M  V30 6239 H 565.961 5.39066 -1.08112 0
M  V30 6240 H 567.186 6.6727 -1.26205 0
M  V30 6241 H 565.132 6.48725 0.974295 0
M  V30 6242 H 565.049 7.54981 -0.392398 0
M  V30 6243 H 566.317 7.756 0.778761 0
M  V30 6244 N 570.547 0.616602 1.45037 0
M  V30 6245 C 571.824 0.0469086 1.95544 0
M  V30 6246 C 572.204 -1.42345 1.55888 0
M  V30 6247 O 571.552 -2.13055 0.825824 0
M  V30 6248 C 571.762 0.254489 3.48071 0
M  V30 6249 C 573.11 0.140025 4.24369 0
M  V30 6250 O 574.134 0.185084 3.55719 0
M  V30 6251 O 572.993 0.0327034 5.4649 0
M  V30 6252 H 570.087 -0.0306051 0.826433 0
M  V30 6253 H 572.633 0.687293 1.55159 0
M  V30 6254 H 571.405 1.27532 3.69934 0
M  V30 6255 H 571.028 -0.42073 3.95368 0
M  V30 6256 N 572.025 -1.5352 0.356285 0
M  V30 6257 C 573.272 -2.01117 -0.236303 0
M  V30 6258 C 573.6 -1.24381 -1.49531 0
M  V30 6259 O 572.855 -0.323057 -1.93015 0
M  V30 6260 C 573.154 -3.52607 -0.583369 0
M  V30 6261 C 572.82 -4.47151 0.58023 0
M  V30 6262 C 571.482 -4.72718 0.899528 0
M  V30 6263 C 573.834 -5.03137 1.36024 0
M  V30 6264 C 571.162 -5.51523 2.00098 0
M  V30 6265 C 573.514 -5.83145 2.45204 0
M  V30 6266 C 572.178 -6.07001 2.77679 0
M  V30 6267 H 571.448 -0.735938 -0.0864695 0
M  V30 6268 H 574.095 -1.85209 0.48683 0
M  V30 6269 H 572.4 -3.66413 -1.38739 0
M  V30 6270 H 574.097 -3.86901 -1.05397 0
M  V30 6271 H 570.687 -4.27394 0.321322 0
M  V30 6272 H 574.871 -4.83339 1.12682 0
M  V30 6273 H 570.127 -5.68229 2.25668 0
M  V30 6274 H 574.301 -6.25537 3.06067 0
M  V30 6275 H 571.928 -6.67851 3.63151 0
M  V30 6276 N 573.503 -0.0852151 -1.57369 0
M  V30 6277 C 574.78 0.622534 -1.85429 0
M  V30 6278 C 575.16 1.86962 -0.980229 0
M  V30 6279 O 574.508 2.28445 -0.0500219 0
M  V30 6280 C 574.718 0.947374 -3.35896 0
M  V30 6281 C 576.066 1.31509 -4.03721 0
M  V30 6282 O 577.09 1.03869 -3.40719 0
M  V30 6283 O 575.949 1.83231 -5.14868 0
M  V30 6284 H 573.043 0.310513 -0.766492 0
M  V30 6285 H 575.589 -0.117164 -1.69295 0
M  V30 6286 H 574.361 0.0622264 -3.91251 0
M  V30 6287 H 573.984 1.74338 -3.5734 0
M  V30 6288 N 574.981 1.5647 0.188427 0
M  V30 6289 C 575.911 1.98101 1.23606 0
M  V30 6290 C 576.892 0.853961 1.47111 0
M  V30 6291 O 578.077 1.11879 1.58735 0
M  V30 6292 C 575.207 2.32624 2.57882 0
M  V30 6293 C 574.161 3.48129 2.48978 0
M  V30 6294 C 573.487 3.68347 3.87588 0
M  V30 6295 C 574.787 4.82112 2.00911 0
M  V30 6296 H 576.481 2.85864 0.890068 0
M  V30 6297 H 574.027 1.37532 0.426714 0
M  V30 6298 H 575.98 2.60343 3.3136 0
M  V30 6299 H 574.704 1.41751 2.94235 0
M  V30 6300 H 573.363 3.20511 1.77956 0
M  V30 6301 H 573.011 2.74793 4.21305 0
M  V30 6302 H 572.711 4.46055 3.82503 0
M  V30 6303 H 574.235 3.98449 4.62678 0
M  V30 6304 H 575.649 5.08819 2.64151 0
M  V30 6305 H 574.046 5.63337 2.06814 0
M  V30 6306 H 575.116 4.75249 0.96262 0
M  V30 6307 N 576.459 -0.456382 1.50847 0
M  V30 6308 C 577.736 -1.21739 1.53098 0
M  V30 6309 C 578.116 -2.09179 0.284132 0
M  V30 6310 O 577.464 -2.16466 -0.731773 0
M  V30 6311 C 577.674 -2.03573 2.83477 0
M  V30 6312 C 579.022 -2.61264 3.34703 0
M  V30 6313 O 580.046 -2.13802 2.84898 0
M  V30 6314 O 578.905 -3.47779 4.21559 0
M  V30 6315 H 575.999 -0.553219 0.614718 0
M  V30 6316 H 578.545 -0.467003 1.63148 0
M  V30 6317 H 577.317 -1.39232 3.65691 0
M  V30 6318 H 576.94 -2.85716 2.76499 0
M  V30 6319 N 577.937 -1.40673 -0.710563 0
M  V30 6320 C 579.186 -1.38525 -1.46607 0
M  V30 6321 C 579.499 0.0077024 -1.95598 0
M  V30 6322 O 580.705 0.151792 -2.71075 0
M  V30 6323 C 579.161 -2.43489 -2.6503 0
M  V30 6324 C 578.769 -3.88619 -2.22888 0
M  V30 6325 C 580.513 -2.50456 -3.42742 0
M  V30 6326 C 578.42 -4.85168 -3.3818 0
M  V30 6327 H 577.35 -0.515092 -0.550632 0
M  V30 6328 H 580.001 -1.66431 -0.772846 0
M  V30 6329 H 578.383 -2.0869 -3.36548 0
M  V30 6330 H 579.557 -4.32588 -1.58758 0
M  V30 6331 H 577.872 -3.85174 -1.58208 0
M  V30 6332 H 580.469 -3.19776 -4.28541 0
M  V30 6333 H 580.812 -1.53665 -3.86902 0
M  V30 6334 H 581.345 -2.84271 -2.78271 0
M  V30 6335 H 578.084 -5.8331 -2.99047 0
M  V30 6336 H 577.604 -4.4586 -4.01209 0
M  V30 6337 H 579.283 -5.05225 -4.04174 0
M  V30 6338 N 579.415 0.9433 -1.26252 0
M  V30 6339 C 580.664 1.68369 -1.11062 0
M  V30 6340 C 580.977 1.92514 0.346104 0
M  V30 6341 O 582.183 2.64358 0.618646 0
M  V30 6342 C 580.639 3.03171 -1.93946 0
M  V30 6343 C 580.247 2.86782 -3.4418 0
M  V30 6344 C 581.991 3.80916 -1.87359 0
M  V30 6345 C 579.898 4.17044 -4.19319 0
M  V30 6346 H 578.828 0.631469 -0.412023 0
M  V30 6347 H 581.479 1.04922 -1.50544 0
M  V30 6348 H 579.861 3.67587 -1.47296 0
M  V30 6349 H 581.035 2.31229 -3.98585 0
M  V30 6350 H 579.35 2.22482 -3.51981 0
M  V30 6351 H 581.947 4.77417 -2.40784 0
M  V30 6352 H 582.29 4.07658 -0.843857 0
M  V30 6353 H 582.823 3.2327 -2.31821 0
M  V30 6354 H 579.562 3.95487 -5.22753 0
M  V30 6355 H 579.082 4.72319 -3.69696 0
M  V30 6356 H 580.761 4.85513 -4.27651 0
M  V30 6357 N 580.893 1.08022 1.14757 0
M  V30 6358 C 582.118 0.82895 1.90114 0
M  V30 6359 C 582.543 -0.612772 1.77839 0
M  V30 6360 O 581.901 -1.42895 1.11583 0
M  V30 6361 C 581.949 1.25062 3.38219 0
M  V30 6362 O 581.053 0.400119 4.10454 0
M  V30 6363 H 580.394 0.301412 0.591648 0
M  V30 6364 H 582.924 1.44062 1.45284 0
M  V30 6365 H 582.934 1.22977 3.89025 0
M  V30 6366 H 581.609 2.30067 3.46471 0
M  V30 6367 H 580.186 0.484052 3.69745 0
M  V30 6368 N 582.371 -1.3172 0.865308 0
M  V30 6369 C 583.301 -2.31109 0.333302 0
M  V30 6370 C 584.282 -1.60148 -0.573301 0
M  V30 6371 O 585.467 -1.87882 -0.491305 0
M  V30 6372 C 582.597 -3.44104 -0.470078 0
M  V30 6373 C 581.551 -4.26623 0.343021 0
M  V30 6374 C 580.877 -5.31482 -0.585756 0
M  V30 6375 C 582.177 -4.98001 1.57456 0
M  V30 6376 H 583.871 -2.75855 1.1638 0
M  V30 6377 H 581.417 -1.3262 0.561069 0
M  V30 6378 H 583.37 -4.12682 -0.852752 0
M  V30 6379 H 582.094 -2.98112 -1.33404 0
M  V30 6380 H 580.753 -3.59707 0.707583 0
M  V30 6381 H 580.401 -4.81741 -1.44686 0
M  V30 6382 H 580.101 -5.87582 -0.0456494 0
M  V30 6383 H 581.625 -6.0292 -0.965375 0
M  V30 6384 H 583.039 -5.59201 1.26359 0
M  V30 6385 H 581.436 -5.63876 2.05339 0
M  V30 6386 H 582.506 -4.25253 2.32997 0
M  V30 6387 N 583.85 -0.624285 -1.44708 0
M  V30 6388 C 584.797 0.0847135 -2.30644 0
M  V30 6389 C 585.767 0.843575 -1.43084 0
M  V30 6390 O 586.952 0.825982 -1.71995 0
M  V30 6391 C 584.091 1.06495 -3.28257 0
M  V30 6392 C 583.205 0.305224 -4.3092 0
M  V30 6393 C 582.34 1.27667 -5.1563 0
M  V30 6394 C 581.379 0.505706 -6.10007 0
M  V30 6395 N 580.516 1.42727 -6.8744 0
M  V30 6396 H 585.356 -0.654068 -2.90733 0
M  V30 6397 H 582.893 -0.334334 -1.4325 0
M  V30 6398 H 584.851 1.64658 -3.83332 0
M  V30 6399 H 583.481 1.77094 -2.69884 0
M  V30 6400 H 582.533 -0.392207 -3.78373 0
M  V30 6401 H 583.845 -0.295553 -4.97924 0
M  V30 6402 H 582.999 1.92984 -5.75189 0
M  V30 6403 H 581.738 1.91137 -4.48685 0
M  V30 6404 H 580.743 -0.160999 -5.49564 0
M  V30 6405 H 581.968 -0.124183 -6.78986 0
M  V30 6406 H 579.913 2.04931 -6.23169 0
M  V30 6407 H 579.831 0.880345 -7.50857 0
M  V30 6408 H 581.099 2.0695 -7.51526 0
M  V30 6409 N 585.328 1.53329 -0.364422 0
M  V30 6410 C 586.238 2.29414 0.490552 0
M  V30 6411 C 587.254 1.35335 1.09363 0
M  V30 6412 O 588.43 1.68391 1.10483 0
M  V30 6413 C 585.495 3.06772 1.61529 0
M  V30 6414 C 584.556 4.16516 1.03986 0
M  V30 6415 C 583.789 4.90176 2.111 0
M  V30 6416 O 584.012 4.63687 3.32191 0
M  V30 6417 O 582.946 5.76134 1.74222 0
M  V30 6418 H 586.772 3.03428 -0.12856 0
M  V30 6419 H 584.357 1.48843 -0.128837 0
M  V30 6420 H 586.239 3.55082 2.26924 0
M  V30 6421 H 584.914 2.35596 2.21983 0
M  V30 6422 H 583.821 3.7246 0.349856 0
M  V30 6423 H 585.154 4.89855 0.4799 0
M  V30 6424 N 586.806 0.0935595 1.57322 0
M  V30 6425 C 587.716 -0.880192 2.17462 0
M  V30 6426 C 588.732 -1.31135 1.14366 0
M  V30 6427 O 589.908 -1.37958 1.46729 0
M  V30 6428 C 586.973 -2.12184 2.74188 0
M  V30 6429 C 586.034 -1.74503 3.92234 0
M  V30 6430 C 585.267 -2.92748 4.46245 0
M  V30 6431 O 585.49 -4.07427 3.99198 0
M  V30 6432 O 584.424 -2.71303 5.37288 0
M  V30 6433 H 588.25 -0.398516 3.01074 0
M  V30 6434 H 585.835 -0.130707 1.48827 0
M  V30 6435 H 587.717 -2.84953 3.10451 0
M  V30 6436 H 586.392 -2.59407 1.93623 0
M  V30 6437 H 585.299 -0.989186 3.60785 0
M  V30 6438 H 586.632 -1.32044 4.74157 0
M  V30 6439 N 588.284 -1.56567 -0.180126 0
M  V30 6440 C 589.532 -1.81133 -0.896392 0
M  V30 6441 C 589.853 -0.669114 -1.83161 0
M  V30 6442 O 589.123 0.311616 -1.93406 0
M  V30 6443 H 587.703 -0.668172 -0.333999 0
M  V30 6444 H 590.365 -1.94048 -0.182051 0
M  V30 6445 H 589.461 -2.74854 -1.47857 0
M  V30 6446 N 589.762 0.448376 -1.51087 0
M  V30 6447 C 590.99 1.22143 -1.66999 0
M  V30 6448 C 591.405 1.85283 -0.362699 0
M  V30 6449 O 590.762 1.70236 0.65772 0
M  V30 6450 C 590.813 2.31357 -2.7777 0
M  V30 6451 O 590.534 1.70801 -4.03434 0
M  V30 6452 C 592.035 3.21836 -3.04855 0
M  V30 6453 H 589.255 0.368558 -0.560719 0
M  V30 6454 H 591.799 0.532618 -1.97442 0
M  V30 6455 H 589.954 2.95973 -2.49958 0
M  V30 6456 H 590.368 2.42895 -4.64868 0
M  V30 6457 H 591.842 3.94627 -3.85971 0
M  V30 6458 H 592.319 3.81949 -2.16821 0
M  V30 6459 H 592.925 2.62933 -3.34285 0
M  V30 6460 N 591.24 1.41047 0.703093 0
M  V30 6461 C 592.15 1.44645 1.84703 0
M  V30 6462 C 593.166 0.337778 1.7069 0
M  V30 6463 O 594.342 0.584327 1.92737 0
M  V30 6464 C 591.407 1.31928 3.20618 0
M  V30 6465 C 590.468 2.53047 3.46794 0
M  V30 6466 C 589.701 2.40927 4.76224 0
M  V30 6467 O 589.924 1.42978 5.5219 0
M  V30 6468 O 588.858 3.30543 5.03016 0
M  V30 6469 H 592.684 2.41139 1.84624 0
M  V30 6470 H 590.269 1.22504 0.855167 0
M  V30 6471 H 592.151 1.27092 4.01778 0
M  V30 6472 H 590.826 0.385469 3.21397 0
M  V30 6473 H 589.733 2.6346 2.65593 0
M  V30 6474 H 591.066 3.45231 3.50822 0
M  V30 6475 N 592.718 -0.936591 1.26751 0
M  V30 6476 C 593.665 -2.03597 1.08706 0
M  V30 6477 C 594.635 -1.66097 -0.00926542 0
M  V30 6478 O 595.82 -1.90199 0.151377 0
M  V30 6479 C 592.96 -3.3727 0.73094 0
M  V30 6480 C 592.073 -3.87778 1.90399 0
M  V30 6481 C 591.208 -5.09859 1.49056 0
M  V30 6482 C 590.247 -5.5264 2.63164 0
M  V30 6483 N 589.384 -6.65921 2.22471 0
M  V30 6484 H 594.224 -2.18364 2.02784 0
M  V30 6485 H 591.761 -1.06985 1.00958 0
M  V30 6486 H 593.719 -4.14128 0.505328 0
M  V30 6487 H 592.349 -3.22337 -0.172868 0
M  V30 6488 H 591.401 -3.07279 2.2424 0
M  V30 6489 H 592.713 -4.15464 2.76028 0
M  V30 6490 H 591.867 -5.9419 1.22567 0
M  V30 6491 H 590.606 -4.8393 0.60524 0
M  V30 6492 H 589.611 -4.66863 2.90377 0
M  V30 6493 H 590.836 -5.80568 3.52303 0
M  V30 6494 H 588.782 -6.41667 1.36379 0
M  V30 6495 H 588.699 -6.93216 3.01641 0
M  V30 6496 H 589.967 -7.53616 1.99205 0
M  V30 6497 N 594.196 -1.08629 -1.14182 0
M  V30 6498 C 595.159 -0.722027 -2.1753 0
M  V30 6499 C 596.159 0.244305 -1.58933 0
M  V30 6500 O 597.349 0.0235545 -1.74184 0
M  V30 6501 C 594.481 -0.0663966 -3.40835 0
M  V30 6502 H 595.674 -1.63719 -2.51269 0
M  V30 6503 H 593.227 -0.884442 -1.28869 0
M  V30 6504 H 593.962 0.860389 -3.12678 0
M  V30 6505 H 593.747 -0.761598 -3.84632 0
M  V30 6506 H 595.237 0.173346 -4.1724 0
M  V30 6507 N 595.674 1.31259 -0.872281 0
M  V30 6508 C 596.637 2.26744 -0.334656 0
M  V30 6509 C 597.637 1.52307 0.515681 0
M  V30 6510 O 598.827 1.71148 0.324656 0
M  V30 6511 C 595.959 3.36841 0.524482 0
M  V30 6512 H 597.152 2.75812 -1.17762 0
M  V30 6513 H 594.705 1.42232 -0.648064 0
M  V30 6514 H 595.44 2.93069 1.38855 0
M  V30 6515 H 595.225 3.92009 -0.0844299 0
M  V30 6516 H 596.715 4.07944 0.892838 0
M  V30 6517 N 597.152 0.631951 1.44375 0
M  V30 6518 C 598.4 0.136497 2.01639 0
M  V30 6519 C 598.721 -1.24637 1.49969 0
M  V30 6520 O 597.991 -1.82827 0.70363 0
M  V30 6521 H 596.571 0.0474703 0.74549 0
M  V30 6522 H 599.233 0.818837 1.76865 0
M  V30 6523 H 598.329 0.104817 3.11924 0
M  V30 6524 N 598.631 -1.53133 0.372548 0
M  V30 6525 C 599.541 -2.29671 -0.478379 0
M  V30 6526 C 600.557 -1.35913 -1.08644 0
M  V30 6527 O 601.733 -1.68975 -1.09588 0
M  V30 6528 C 598.798 -3.07625 -1.599 0
M  V30 6529 C 597.859 -4.17061 -1.01776 0
M  V30 6530 C 597.092 -4.91289 -2.08497 0
M  V30 6531 O 597.315 -4.65442 -3.29727 0
M  V30 6532 O 596.249 -5.7705 -1.71164 0
M  V30 6533 H 600.075 -3.03355 0.144649 0
M  V30 6534 H 597.66 -1.48773 0.136729 0
M  V30 6535 H 599.542 -3.56281 -2.25038 0
M  V30 6536 H 598.217 -2.3677 -2.2073 0
M  V30 6537 H 597.124 -3.72641 -0.330098 0
M  V30 6538 H 598.457 -4.90102 -0.453915 0
M  V30 6539 N 600.109 -0.101901 -1.5727 0
M  V30 6540 C 601.355 0.561027 -1.94885 0
M  V30 6541 C 601.688 1.6741 -0.984258 0
M  V30 6542 O 600.963 1.94491 -0.0184767 0
M  V30 6543 C 601.246 1.10982 -3.42571 0
M  V30 6544 C 601.099 0.00133418 -4.498 0
M  V30 6545 C 602.418 2.00608 -3.9172 0
M  V30 6546 H 599.537 0.202467 -0.708644 0
M  V30 6547 H 602.179 -0.173992 -1.89202 0
M  V30 6548 H 600.329 1.73621 -3.47546 0
M  V30 6549 H 602.001 -0.63322 -4.56933 0
M  V30 6550 H 600.244 -0.664143 -4.28686 0
M  V30 6551 H 600.915 0.426253 -5.50352 0
M  V30 6552 H 603.391 1.47864 -3.88941 0
M  V30 6553 H 602.267 2.3593 -4.95609 0
M  V30 6554 H 602.528 2.92608 -3.3141 0
M  V30 6555 N 601.587 1.56661 0.17182 0
M  V30 6556 C 602.812 1.86459 0.908165 0
M  V30 6557 C 603.237 0.688181 1.75059 0
M  V30 6558 O 602.595 -0.362753 1.77634 0
M  V30 6559 C 602.643 3.14669 1.76112 0
M  V30 6560 O 601.747 2.96858 2.86268 0
M  V30 6561 H 601.088 0.613318 0.254434 0
M  V30 6562 H 603.618 2.03892 0.170113 0
M  V30 6563 H 603.628 3.46061 2.16115 0
M  V30 6564 H 602.303 3.99905 1.14233 0
M  V30 6565 H 600.88 2.76819 2.49852 0
M  V30 6566 N 603.065 -0.440357 1.51323 0
M  V30 6567 C 604.012 -1.53429 1.72419 0
M  V30 6568 C 604.982 -1.56165 0.565826 0
M  V30 6569 O 606.167 -1.73222 0.799917 0
M  V30 6570 C 603.307 -2.91169 1.85242 0
M  V30 6571 C 602.42 -2.97985 3.12777 0
M  V30 6572 C 601.555 -4.26829 3.16212 0
M  V30 6573 C 600.594 -4.27501 4.38074 0
M  V30 6574 N 599.731 -5.47866 4.39076 0
M  V30 6575 H 604.571 -1.34743 2.65797 0
M  V30 6576 H 602.108 -0.654608 1.31732 0
M  V30 6577 H 604.066 -3.71087 1.90658 0
M  V30 6578 H 602.696 -3.0842 0.952744 0
M  V30 6579 H 601.748 -2.10749 3.16685 0
M  V30 6580 H 603.06 -2.94342 4.02696 0
M  V30 6581 H 602.214 -5.15118 3.20527 0
M  V30 6582 H 600.953 -4.33124 2.24176 0
M  V30 6583 H 599.958 -3.37606 4.33938 0
M  V30 6584 H 601.183 -4.22873 5.31371 0
M  V30 6585 H 599.129 -5.54887 3.49909 0
M  V30 6586 H 599.046 -5.46091 5.22801 0
M  V30 6587 H 600.314 -6.38195 4.4758 0
M  V30 6588 N 604.543 -1.41418 -0.695603 0
M  V30 6589 C 605.493 -1.39731 -1.80165 0
M  V30 6590 C 606.477 -0.271689 -1.5859 0
M  V30 6591 O 607.669 -0.512354 -1.69422 0
M  V30 6592 C 604.798 -1.28187 -3.1847 0
M  V30 6593 C 603.884 -2.45612 -3.45739 0
M  V30 6594 N 604.275 -3.71077 -3.43708 0
M  V30 6595 C 602.573 -2.39424 -3.76288 0
M  V30 6596 C 603.274 -4.48957 -3.69882 0
M  V30 6597 N 602.25 -3.7907 -3.89624 0
M  V30 6598 H 606.052 -2.34656 -1.76957 0
M  V30 6599 H 603.566 -1.35473 -0.89559 0
M  V30 6600 H 605.563 -1.2506 -3.977 0
M  V30 6601 H 604.223 -0.342468 -3.22889 0
M  V30 6602 H 605.234 -4.03963 -3.2409 0
M  V30 6603 H 601.911 -1.53955 -3.88077 0
M  V30 6604 H 603.301 -5.57887 -3.74448 0
M  V30 6605 N 606.021 0.929856 -1.27246 0
M  V30 6606 C 606.951 2.04722 -1.12299 0
M  V30 6607 C 607.932 1.70082 -0.0250464 0
M  V30 6608 O 609.117 1.93176 -0.199141 0
M  V30 6609 C 606.247 3.38721 -0.767145 0
M  V30 6610 C 605.201 3.87466 -1.81808 0
M  V30 6611 C 604.527 5.18246 -1.31626 0
M  V30 6612 C 605.827 4.11095 -3.22177 0
M  V30 6613 H 607.521 2.17485 -2.05769 0
M  V30 6614 H 605.067 1.04503 -0.990715 0
M  V30 6615 H 607.02 4.16366 -0.649413 0
M  V30 6616 H 605.744 3.25967 0.203259 0
M  V30 6617 H 604.403 3.12012 -1.92468 0
M  V30 6618 H 604.051 5.01881 -0.335378 0
M  V30 6619 H 603.751 5.51829 -2.01887 0
M  V30 6620 H 605.275 5.98462 -1.21143 0
M  V30 6621 H 606.689 4.79316 -3.1453 0
M  V30 6622 H 605.086 4.55982 -3.90129 0
M  V30 6623 H 606.156 3.16468 -3.67391 0
M  V30 6624 N 607.499 1.09233 1.13605 0
M  V30 6625 C 608.729 0.847677 1.88409 0
M  V30 6626 C 609.137 -0.604524 1.79282 0
M  V30 6627 O 608.48 -1.42773 1.15592 0
M  V30 6628 C 608.542 1.20153 3.38827 0
M  V30 6629 C 608.206 2.65824 3.71735 0
M  V30 6630 C 609.203 3.64072 3.71143 0
M  V30 6631 C 606.888 3.01894 4.01454 0
M  V30 6632 C 608.882 4.96419 3.99808 0
M  V30 6633 C 606.569 4.34433 4.29781 0
M  V30 6634 C 607.567 5.31505 4.28942 0
M  V30 6635 O 607.255 6.61659 4.56576 0
M  V30 6636 H 606.987 0.304813 0.603378 0
M  V30 6637 H 609.541 1.4573 1.44748 0
M  V30 6638 H 607.771 0.534946 3.82982 0
M  V30 6639 H 609.46 0.936349 3.94952 0
M  V30 6640 H 610.226 3.37549 3.4826 0
M  V30 6641 H 606.105 2.26971 4.01255 0
M  V30 6642 H 609.649 5.7218 3.99069 0
M  V30 6643 H 605.546 4.607 4.52135 0
M  V30 6644 H 606.314 6.67102 4.74254 0
M  V30 6645 N 608.977 -1.30795 0.87923 0
M  V30 6646 C 609.924 -2.28282 0.339968 0
M  V30 6647 C 610.894 -1.56134 -0.566685 0
M  V30 6648 O 612.079 -1.84231 -0.496338 0
M  V30 6649 C 609.219 -3.42225 -0.444501 0
M  V30 6650 C 608.332 -4.29204 0.490717 0
M  V30 6651 C 607.467 -5.30302 -0.308784 0
M  V30 6652 C 606.506 -6.08929 0.622272 0
M  V30 6653 N 605.643 -7.01957 -0.14155 0
M  V30 6654 H 610.483 -2.73794 1.17647 0
M  V30 6655 H 608.02 -1.34682 0.591527 0
M  V30 6656 H 609.978 -4.07038 -0.915186 0
M  V30 6657 H 608.608 -2.97799 -1.24562 0
M  V30 6658 H 607.66 -3.6475 1.07988 0
M  V30 6659 H 608.972 -4.84045 1.20425 0
M  V30 6660 H 608.126 -6.00835 -0.841575 0
M  V30 6661 H 606.865 -4.7614 -1.05556 0
M  V30 6662 H 605.87 -5.37278 1.16674 0
M  V30 6663 H 607.095 -6.65178 1.36804 0
M  V30 6664 H 605.041 -6.50192 -0.870966 0
M  V30 6665 H 604.958 -7.54261 0.51246 0
M  V30 6666 H 606.226 -7.76741 -0.655271 0
M  V30 6667 N 610.455 -0.639598 -1.44038 0
M  V30 6668 C 611.701 -0.147698 -2.02261 0
M  V30 6669 C 612.034 1.23031 -1.50256 0
M  V30 6670 O 611.309 1.81847 -0.690068 0
M  V30 6671 C 611.592 -0.14362 -3.59813 0
M  V30 6672 C 611.445 -1.55458 -4.22082 0
M  V30 6673 C 612.764 0.527317 -4.36929 0
M  V30 6674 H 609.883 -0.0551453 -0.734934 0
M  V30 6675 H 612.525 -0.817688 -1.71505 0
M  V30 6676 H 610.675 0.426898 -3.86147 0
M  V30 6677 H 612.347 -2.17464 -4.06826 0
M  V30 6678 H 610.59 -2.10594 -3.79253 0
M  V30 6679 H 611.261 -1.50369 -5.31124 0
M  V30 6680 H 613.737 0.0420504 -4.16079 0
M  V30 6681 H 612.613 0.499389 -5.46624 0
M  V30 6682 H 612.874 1.59914 -4.12165 0
M  V30 6683 N 611.933 1.52934 -0.380664 0
M  V30 6684 C 613.179 2.02443 0.197089 0
M  V30 6685 C 613.534 1.26249 1.45186 0
M  V30 6686 O 612.827 0.351964 1.8834 0
M  V30 6687 C 613.021 3.5349 0.527199 0
M  V30 6688 C 612.85 4.44312 -0.694027 0
M  V30 6689 C 611.62 4.90582 -1.21068 0
M  V30 6690 C 613.818 4.8995 -1.56377 0
M  V30 6691 N 611.8 5.65451 -2.39036 0
M  V30 6692 C 613.171 5.63313 -2.58995 0
M  V30 6693 C 615.226 4.72002 -1.58488 0
M  V30 6694 C 613.929 6.20635 -3.63599 0
M  V30 6695 C 615.955 5.30201 -2.61995 0
M  V30 6696 C 615.317 6.03463 -3.63335 0
M  V30 6697 H 611.416 0.781241 0.0344357 0
M  V30 6698 H 614 1.87387 -0.528609 0
M  V30 6699 H 612.171 3.68677 1.22196 0
M  V30 6700 H 613.903 3.89707 1.09135 0
M  V30 6701 H 610.658 4.67249 -0.772995 0
M  V30 6702 H 611.082 6.07541 -2.98701 0
M  V30 6703 H 615.724 4.14873 -0.814891 0
M  V30 6704 H 613.442 6.76852 -4.41472 0
M  V30 6705 H 617.028 5.182 -2.645 0
M  V30 6706 H 615.908 6.47693 -4.42113 0
M  V30 6707 N 613.412 0.11024 1.57214 0
M  V30 6708 C 614.359 -0.843195 2.14846 0
M  V30 6709 C 615.329 -1.26954 1.07107 0
M  V30 6710 O 616.514 -1.34861 1.34971 0
M  V30 6711 C 613.654 -2.09123 2.74521 0
M  V30 6712 C 612.767 -1.71404 3.96541 0
M  V30 6713 C 611.902 -2.91107 4.44331 0
M  V30 6714 C 610.941 -2.49586 5.58903 0
M  V30 6715 N 610.078 -3.62175 6.01477 0
M  V30 6716 H 614.918 -0.344886 2.95998 0
M  V30 6717 H 612.455 -0.15855 1.46243 0
M  V30 6718 H 614.413 -2.82234 3.07246 0
M  V30 6719 H 613.043 -2.56427 1.96074 0
M  V30 6720 H 612.095 -0.88201 3.70033 0
M  V30 6721 H 613.407 -1.36884 4.7965 0
M  V30 6722 H 612.561 -3.72454 4.78919 0
M  V30 6723 H 611.3 -3.28848 3.60153 0
M  V30 6724 H 610.305 -1.6667 5.23929 0
M  V30 6725 H 611.53 -2.12973 6.4484 0
M  V30 6726 H 609.476 -3.99605 5.20242 0
M  V30 6727 H 609.393 -3.3155 6.79419 0
M  V30 6728 H 610.661 -4.43987 6.407 0
M  V30 6729 N 614.89 -1.56749 -0.16351 0
M  V30 6730 C 615.837 -1.97011 -1.2023 0
M  V30 6731 C 616.807 -0.835186 -1.43575 0
M  V30 6732 O 617.992 -1.09594 -1.56185 0
M  V30 6733 C 615.132 -2.34186 -2.53478 0
M  V30 6734 C 614.245 -3.60893 -2.37446 0
M  V30 6735 C 613.38 -3.87245 -3.63614 0
M  V30 6736 C 612.419 -5.07274 -3.42548 0
M  V30 6737 N 611.556 -5.29719 -4.60806 0
M  V30 6738 H 616.396 -2.85562 -0.851958 0
M  V30 6739 H 613.933 -1.41292 -0.409257 0
M  V30 6740 H 615.891 -2.53764 -3.31149 0
M  V30 6741 H 614.521 -1.48736 -2.86492 0
M  V30 6742 H 613.573 -3.49185 -1.50911 0
M  V30 6743 H 614.885 -4.48722 -2.1783 0
M  V30 6744 H 614.039 -4.07232 -4.49719 0
M  V30 6745 H 612.778 -2.97806 -3.86216 0
M  V30 6746 H 611.783 -4.87177 -2.5483 0
M  V30 6747 H 613.008 -5.98251 -3.2136 0
M  V30 6748 H 610.954 -4.43233 -4.83612 0
M  V30 6749 H 610.871 -6.11786 -4.44132 0
M  V30 6750 H 612.139 -5.54192 -5.48171 0
M  V30 6751 N 616.368 0.432326 -1.51554 0
M  V30 6752 C 617.617 1.17831 -1.63703 0
M  V30 6753 C 617.93 1.92229 -0.36156 0
M  V30 6754 O 619.136 2.69069 -0.362495 0
M  V30 6755 C 617.592 2.14318 -2.89129 0
M  V30 6756 C 617.2 1.45544 -4.23699 0
M  V30 6757 C 618.944 2.89319 -3.10636 0
M  V30 6758 C 616.851 2.40545 -5.4027 0
M  V30 6759 H 615.781 0.443533 -0.60975 0
M  V30 6760 H 618.432 0.444878 -1.78026 0
M  V30 6761 H 616.814 2.91117 -2.68452 0
M  V30 6762 H 617.988 0.742693 -4.54775 0
M  V30 6763 H 616.303 0.826772 -4.0811 0
M  V30 6764 H 618.9 3.60495 -3.94902 0
M  V30 6765 H 619.243 3.50951 -2.23918 0
M  V30 6766 H 619.776 2.19625 -3.31677 0
M  V30 6767 H 616.515 1.83594 -6.29264 0
M  V30 6768 H 616.035 3.09859 -5.13563 0
M  V30 6769 H 617.714 3.01569 -5.72421 0
M  V30 6770 N 617.846 1.41785 0.688094 0
M  V30 6771 C 619.094 1.41264 1.4453 0
M  V30 6772 C 619.415 0.0252946 1.94984 0
M  V30 6773 O 618.685 -0.934081 1.72197 0
M  V30 6774 H 617.265 0.519998 0.536294 0
M  V30 6775 H 619.927 1.7709 0.813941 0
M  V30 6776 H 619.023 2.10439 2.30482 0
M  V30 6777 N 619.324 -0.923095 1.27737 0
M  V30 6778 C 620.573 -1.66581 1.13727 0
M  V30 6779 C 620.886 -1.9304 -0.315433 0
M  V30 6780 O 622.092 -2.65309 -0.57651 0
M  V30 6781 C 620.548 -3.00047 1.98745 0
M  V30 6782 C 620.156 -2.8127 3.48699 0
M  V30 6783 C 621.9 -3.77887 1.93395 0
M  V30 6784 C 619.807 -4.1032 4.25901 0
M  V30 6785 H 618.737 -0.624834 0.422017 0
M  V30 6786 H 621.388 -1.02514 1.52194 0
M  V30 6787 H 619.77 -3.65197 1.53125 0
M  V30 6788 H 620.944 -2.24859 4.02213 0
M  V30 6789 H 619.259 -2.16854 3.55476 0
M  V30 6790 H 621.856 -4.73526 2.48348 0
M  V30 6791 H 622.199 -4.06264 0.908605 0
M  V30 6792 H 622.732 -3.19541 2.36935 0
M  V30 6793 H 619.471 -3.8712 5.28978 0
M  V30 6794 H 618.991 -4.66377 3.77163 0
M  V30 6795 H 620.67 -4.78648 4.35321 0
M  V30 6796 N 620.802 -1.09834 -1.13024 0
M  V30 6797 C 622.048 -0.848072 -1.84876 0
M  V30 6798 C 622.403 0.619663 -1.82148 0
M  V30 6799 O 621.696 1.45067 -1.25164 0
M  V30 6800 C 621.89 -1.32263 -3.32026 0
M  V30 6801 C 621.719 -2.83497 -3.49084 0
M  V30 6802 C 620.489 -3.51425 -3.63082 0
M  V30 6803 C 622.687 -3.81623 -3.44773 0
M  V30 6804 N 620.669 -4.91042 -3.68443 0
M  V30 6805 C 622.04 -5.07217 -3.56555 0
M  V30 6806 C 624.095 -3.74419 -3.282 0
M  V30 6807 C 622.798 -6.26457 -3.53474 0
M  V30 6808 C 624.824 -4.93151 -3.26429 0
M  V30 6809 C 624.186 -6.1759 -3.38765 0
M  V30 6810 H 620.285 -0.363249 -0.692513 0
M  V30 6811 H 622.869 -1.39952 -1.35357 0
M  V30 6812 H 621.04 -0.79858 -3.80102 0
M  V30 6813 H 622.772 -1.01725 -3.91707 0
M  V30 6814 H 619.527 -3.0186 -3.64935 0
M  V30 6815 H 619.951 -5.63782 -3.74805 0
M  V30 6816 H 624.593 -2.79132 -3.17561 0
M  V30 6817 H 622.311 -7.22039 -3.62884 0
M  V30 6818 H 625.897 -4.8928 -3.14796 0
M  V30 6819 H 624.777 -7.07925 -3.37361 0
M  V30 6820 N 622.28 1.30327 -0.886154 0
M  V30 6821 C 623.228 2.30052 -0.343317 0
M  V30 6822 C 624.222 1.60212 0.550305 0
M  V30 6823 O 625.428 1.74674 0.434609 0
M  V30 6824 H 621.803 0.746306 -0.0923681 0
M  V30 6825 H 623.774 2.73294 -1.19804 0
M  V30 6826 C 622.523 3.45079 0.426107 0
M  V30 6827 H 621.846 3.99003 -0.25227 0
M  V30 6828 H 623.286 4.16931 0.771009 0
M  V30 6829 C 621.745 2.95195 1.62363 0
M  V30 6830 O 622.275 2.95323 2.723 0
M  V30 6831 N 620.481 2.51192 1.4612 0
M  V30 6832 H 620.028 2.51286 0.566832 0
M  V30 6833 H 619.986 2.18173 2.2638 0
M  V30 6834 N 623.758 0.647228 1.43697 0
M  V30 6835 C 624.983 0.164083 2.0675 0
M  V30 6836 C 625.408 -1.15892 1.48158 0
M  V30 6837 O 624.766 -1.71459 0.589194 0
M  V30 6838 C 624.814 0.0800368 3.60511 0
M  V30 6839 O 623.918 -0.959453 4.01084 0
M  V30 6840 H 623.259 0.0921288 0.657578 0
M  V30 6841 H 625.789 0.88846 1.84303 0
M  V30 6842 H 625.799 -0.105263 4.07864 0
M  V30 6843 H 624.474 1.04586 4.02535 0
M  V30 6844 H 623.051 -0.747425 3.65333 0
M  V30 6845 N 625.236 -1.5273 0.388769 0
M  V30 6846 C 626.184 -2.27975 -0.461527 0
M  V30 6847 C 627.178 -1.31854 -1.06352 0
M  V30 6848 O 628.384 -1.49394 -1.00406 0
M  V30 6849 H 624.759 -0.733088 -0.16759 0
M  V30 6850 H 626.73 -2.97765 0.194579 0
M  V30 6851 C 625.479 -3.09881 -1.577 0
M  V30 6852 H 624.802 -3.83701 -1.12309 0
M  V30 6853 H 626.242 -3.6567 -2.14619 0
M  V30 6854 C 624.701 -2.22159 -2.53272 0
M  V30 6855 O 625.231 -1.84802 -3.56667 0
M  V30 6856 N 623.437 -1.8633 -2.23001 0
M  V30 6857 H 622.984 -2.16909 -1.38954 0
M  V30 6858 H 622.942 -1.27927 -2.87197 0
M  V30 6859 N 626.714 -0.118576 -1.57153 0
M  V30 6860 C 627.939 0.550582 -1.99958 0
M  V30 6861 C 628.364 1.59458 -0.997736 0
M  V30 6862 O 627.722 1.81274 0.0306269 0
M  V30 6863 C 627.77 1.15379 -3.41643 0
M  V30 6864 O 626.874 2.26932 -3.44348 0
M  V30 6865 H 626.215 0.137567 -0.649593 0
M  V30 6866 H 628.745 -0.206926 -2.03551 0
M  V30 6867 H 628.755 1.48942 -3.79843 0
M  V30 6868 H 627.43 0.389087 -4.14076 0
M  V30 6869 H 626.007 1.94812 -3.17967 0
M  V30 6870 N 628.193 1.56834 0.155195 0
M  V30 6871 C 629.441 1.82536 0.867462 0
M  V30 6872 C 629.762 0.698168 1.82073 0
M  V30 6873 O 629.032 -0.280807 1.93877 0
M  V30 6874 H 627.612 0.673401 0.323327 0
M  V30 6875 H 630.274 1.94313 0.151156 0
M  V30 6876 H 629.37 2.77171 1.43466 0
M  V30 6877 N 629.671 -0.424282 1.51781 0
M  V30 6878 C 630.601 -1.52305 1.7699 0
M  V30 6879 C 631.582 -1.5839 0.620209 0
M  V30 6880 O 632.767 -1.73908 0.864268 0
M  V30 6881 C 629.897 -2.90271 1.90683 0
M  V30 6882 C 628.851 -2.99043 3.06198 0
M  V30 6883 C 628.177 -4.39116 3.05092 0
M  V30 6884 C 629.477 -2.7192 4.45934 0
M  V30 6885 H 631.171 -1.31461 2.68995 0
M  V30 6886 H 628.717 -0.630985 1.29439 0
M  V30 6887 H 630.67 -3.6711 2.06901 0
M  V30 6888 H 629.394 -3.12376 0.953365 0
M  V30 6889 H 628.053 -2.24646 2.89706 0
M  V30 6890 H 627.701 -4.58207 2.07498 0
M  V30 6891 H 627.401 -4.45912 3.82669 0
M  V30 6892 H 628.925 -5.17911 3.2342 0
M  V30 6893 H 630.339 -3.38487 4.62709 0
M  V30 6894 H 628.736 -2.90111 5.25315 0
M  V30 6895 H 629.806 -1.67445 4.55072 0
M  V30 6896 N 631.149 -1.42148 -0.680565 0
M  V30 6897 C 632.097 -1.45401 -1.81552 0
M  V30 6898 C 633.091 -0.33036 -1.66147 0
M  V30 6899 O 634.297 -0.503103 -1.72826 0
M  V30 6900 H 630.672 -0.455265 -0.59853 0
M  V30 6901 H 632.643 -2.41024 -1.75926 0
M  V30 6902 C 631.392 -1.36769 -3.19671 0
M  V30 6903 H 630.715 -2.22525 -3.32149 0
M  V30 6904 H 632.155 -1.43106 -3.9912 0
M  V30 6905 C 630.614 -0.0817752 -3.36801 0
M  V30 6906 O 631.144 0.867707 -3.92216 0
M  V30 6907 N 629.35 -0.000799811 -2.906 0
M  V30 6908 H 628.897 -0.774231 -2.4569 0
M  V30 6909 H 628.855 0.858961 -3.02439 0
M  V30 6910 N 632.627 0.916307 -1.28225 0
M  V30 6911 C 633.56 2.01954 -1.06254 0
M  V30 6912 C 634.538 1.62587 0.0205983 0
M  V30 6913 O 635.722 1.88073 -0.126824 0
M  V30 6914 C 632.849 3.33086 -0.614141 0
M  V30 6915 C 631.895 3.91435 -1.69354 0
M  V30 6916 S 632.728 4.22603 -3.28887 0
M  V30 6917 C 633.884 5.568 -2.85876 0
M  V30 6918 H 634.117 2.20281 -1.99659 0
M  V30 6919 H 631.65 1.06085 -1.12184 0
M  V30 6920 H 633.608 4.089 -0.36213 0
M  V30 6921 H 632.269 3.12664 0.300036 0
M  V30 6922 H 631.462 4.86098 -1.33136 0
M  V30 6923 H 631.064 3.22248 -1.89821 0
M  V30 6924 H 633.356 6.3658 -2.31888 0
M  V30 6925 H 634.299 5.97927 -3.79326 0
M  V30 6926 H 634.707 5.17865 -2.24669 0
M  V30 6927 N 634.105 1.10431 1.1244 0
M  V30 6928 C 635.333 0.868872 1.87772 0
M  V30 6929 C 635.748 -0.580645 1.7965 0
M  V30 6930 O 635.105 -1.40031 1.17036 0
M  V30 6931 C 635.156 1.30855 3.36986 0
M  V30 6932 O 634.877 2.70123 3.44914 0
M  V30 6933 C 636.378 1.107 4.29256 0
M  V30 6934 H 633.598 0.311868 0.59412 0
M  V30 6935 H 636.142 1.46897 1.42273 0
M  V30 6936 H 634.297 0.752126 3.80029 0
M  V30 6937 H 634.711 2.88923 4.37748 0
M  V30 6938 H 636.185 1.46378 5.32238 0
M  V30 6939 H 636.662 0.0456228 4.39176 0
M  V30 6940 H 637.268 1.64988 3.91994 0
M  V30 6941 N 635.583 -1.29855 0.893053 0
M  V30 6942 C 636.86 -1.90694 0.435336 0
M  V30 6943 C 637.24 -1.8111 -1.08454 0
M  V30 6944 O 636.588 -1.23352 -1.92345 0
M  V30 6945 C 636.798 -3.36033 0.942472 0
M  V30 6946 C 638.146 -4.13083 0.982226 0
M  V30 6947 O 639.17 -3.4491 0.889686 0
M  V30 6948 O 638.029 -5.34896 1.12022 0
M  V30 6949 H 635.123 -0.815978 0.134567 0
M  V30 6950 H 637.669 -1.38367 0.982484 0
M  V30 6951 H 636.441 -3.37132 1.9864 0
M  V30 6952 H 636.064 -3.95828 0.374952 0
M  V30 6953 N 637.061 -0.65484 -1.43351 0
M  V30 6954 C 638.286 -0.175046 -2.0666 0
M  V30 6955 C 638.711 1.15104 -1.4877 0
M  V30 6956 O 638.069 1.71144 -0.598279 0
M  V30 6957 C 638.117 -0.0991544 -3.60464 0
M  V30 6958 O 637.221 0.938169 -4.01587 0
M  V30 6959 H 636.562 -0.0956148 -0.65708 0
M  V30 6960 H 639.092 -0.898222 -1.83829 0
M  V30 6961 H 639.102 0.083632 -4.07914 0
M  V30 6962 H 637.777 -1.06719 -4.01975 0
M  V30 6963 H 636.354 0.72804 -3.65724 0
M  V30 6964 N 638.539 1.52521 -0.396863 0
M  V30 6965 C 639.487 2.28217 0.44943 0
M  V30 6966 C 640.481 1.32416 1.05652 0
M  V30 6967 O 641.687 1.49925 0.996124 0
M  V30 6968 H 638.062 0.733966 0.1637 0
M  V30 6969 H 640.033 2.97658 -0.210367 0
M  V30 6970 C 638.782 3.10713 1.56054 0
M  V30 6971 H 638.105 3.84291 1.10273 0
M  V30 6972 H 639.545 3.66803 2.12677 0
M  V30 6973 C 638.004 2.23499 2.52091 0
M  V30 6974 O 638.534 1.8669 3.55682 0
M  V30 6975 N 636.74 1.8751 2.2201 0
M  V30 6976 H 636.287 2.17643 1.37802 0
M  V30 6977 H 636.245 1.29448 2.86514 0
M  V30 6978 N 640.017 0.126909 1.57088 0
M  V30 6979 C 640.964 -0.82036 2.15728 0
M  V30 6980 C 641.934 -1.25811 1.08447 0
M  V30 6981 O 643.119 -1.33422 1.36393 0
M  V30 6982 C 640.259 -2.06199 2.76724 0
M  V30 6983 C 639.372 -1.67188 3.98337 0
M  V30 6984 C 638.507 -2.86378 4.47393 0
M  V30 6985 C 637.546 -2.43644 5.61519 0
M  V30 6986 N 636.683 -3.55775 6.05284 0
M  V30 6987 H 641.523 -0.313472 2.96347 0
M  V30 6988 H 639.06 -0.14303 1.46403 0
M  V30 6989 H 641.018 -2.78959 3.10222 0
M  V30 6990 H 639.648 -2.54333 1.98782 0
M  V30 6991 H 638.7 -0.842714 3.70948 0
M  V30 6992 H 640.012 -1.31789 4.81075 0
M  V30 6993 H 639.166 -3.67353 4.82842 0
M  V30 6994 H 637.905 -3.25009 3.63621 0
M  V30 6995 H 636.91 -1.61104 5.25667 0
M  V30 6996 H 638.135 -2.06122 6.47063 0
M  V30 6997 H 636.081 -3.94065 5.24451 0
M  V30 6998 H 635.998 -3.24325 6.82898 0
M  V30 6999 H 637.266 -4.37166 6.45373 0
M  V30 7000 N 641.495 -1.56914 -0.146875 0
M  V30 7001 C 642.772 -1.74273 -0.888165 0
M  V30 7002 C 643.152 -0.69496 -1.99333 0
M  V30 7003 O 642.5 0.286093 -2.26702 0
M  V30 7004 C 642.71 -3.18336 -1.43051 0
M  V30 7005 C 644.058 -3.80024 -1.89387 0
M  V30 7006 O 645.082 -3.21765 -1.52792 0
M  V30 7007 O 643.941 -4.82367 -2.56874 0
M  V30 7008 H 641.035 -0.712565 -0.419738 0
M  V30 7009 H 643.581 -1.6918 -0.132791 0
M  V30 7010 H 642.353 -3.86092 -0.636274 0
M  V30 7011 H 641.976 -3.27854 -2.24938 0
M  V30 7012 N 642.974 0.416227 -1.52004 0
M  V30 7013 C 643.921 1.50666 -1.74838 0
M  V30 7014 C 644.891 1.55245 -0.590599 0
M  V30 7015 O 646.076 1.71928 -0.827374 0
M  V30 7016 C 643.216 2.88185 -1.89851 0
M  V30 7017 C 642.329 2.92971 -3.17478 0
M  V30 7018 C 641.464 4.21745 -3.22962 0
M  V30 7019 C 640.503 4.20478 -4.4482 0
M  V30 7020 N 639.64 5.40811 -4.47736 0
M  V30 7021 H 644.48 1.30498 -2.67907 0
M  V30 7022 H 642.017 0.633568 -1.32757 0
M  V30 7023 H 643.975 3.68007 -1.96537 0
M  V30 7024 H 642.605 3.06865 -1.00169 0
M  V30 7025 H 641.657 2.05684 -3.19997 0
M  V30 7026 H 642.969 2.87899 -4.07328 0
M  V30 7027 H 642.123 5.09954 -3.28682 0
M  V30 7028 H 640.862 4.29503 -2.31038 0
M  V30 7029 H 639.867 3.30659 -4.39254 0
M  V30 7030 H 641.092 4.14366 -5.38031 0
M  V30 7031 H 639.038 5.4925 -3.58692 0
M  V30 7032 H 638.955 5.37705 -5.31422 0
M  V30 7033 H 640.223 6.30993 -4.57676 0
M  V30 7034 N 644.452 1.42507 0.673017 0
M  V30 7035 C 645.677 1.4668 1.46627 0
M  V30 7036 C 646.102 0.080066 1.8793 0
M  V30 7037 O 645.46 -0.921879 1.56112 0
M  V30 7038 C 645.508 2.40091 2.69051 0
M  V30 7039 O 644.612 1.8735 3.67387 0
M  V30 7040 H 643.953 0.496908 0.44043 0
M  V30 7041 H 646.483 1.87215 0.825334 0
M  V30 7042 H 646.493 2.56731 3.17101 0
M  V30 7043 H 645.168 3.4084 2.3833 0
M  V30 7044 H 643.745 1.80274 3.26429 0
M  V30 7045 N 645.93 -0.909495 1.28709 0
M  V30 7046 C 647.155 -1.69801 1.1909 0
M  V30 7047 C 647.58 -1.86479 -0.246388 0
M  V30 7048 O 646.938 -1.37802 -1.17815 0
M  V30 7049 C 646.986 -3.06543 1.89904 0
M  V30 7050 O 646.09 -3.94268 1.2094 0
M  V30 7051 H 645.431 -0.519783 0.413185 0
M  V30 7052 H 647.961 -1.13689 1.70106 0
M  V30 7053 H 647.971 -3.56748 1.97977 0
M  V30 7054 H 646.646 -2.93722 2.94449 0
M  V30 7055 H 645.223 -3.52702 1.2106 0
M  V30 7056 N 647.408 -1.11026 -1.11852 0
M  V30 7057 C 648.356 -0.759643 -2.19846 0
M  V30 7058 C 649.35 0.246964 -1.6759 0
M  V30 7059 O 650.556 0.106693 -1.79684 0
M  V30 7060 H 646.931 -0.22775 -0.716683 0
M  V30 7061 H 648.902 -1.6792 -2.46669 0
M  V30 7062 C 647.651 -0.214364 -3.47039 0
M  V30 7063 H 646.974 -0.980175 -3.87599 0
M  V30 7064 H 648.414 -0.00717047 -4.23999 0
M  V30 7065 C 646.873 1.05436 -3.19976 0
M  V30 7066 O 647.403 2.13483 -3.40276 0
M  V30 7067 N 645.609 0.975436 -2.7374 0
M  V30 7068 H 645.156 0.0960853 -2.57421 0
M  V30 7069 H 645.114 1.82501 -2.5601 0
M  V30 7070 N 648.886 1.2938 -0.899927 0
M  V30 7071 C 650.135 1.9483 -0.521937 0
M  V30 7072 C 650.448 1.71725 0.936473 0
M  V30 7073 O 651.654 2.31282 1.42199 0
M  V30 7074 C 650.11 3.48911 -0.88255 0
M  V30 7075 C 649.718 3.80815 -2.35974 0
M  V30 7076 C 651.462 4.20595 -0.57448 0
M  V30 7077 C 649.369 5.28142 -2.66121 0
M  V30 7078 H 648.299 0.729285 -0.191468 0
M  V30 7079 H 650.95 1.47103 -1.09695 0
M  V30 7080 H 649.332 3.95293 -0.236459 0
M  V30 7081 H 650.506 3.45291 -3.05141 0
M  V30 7082 H 648.821 3.22271 -2.63686 0
M  V30 7083 H 651.418 5.29031 -0.776556 0
M  V30 7084 H 651.761 4.13442 0.487005 0
M  V30 7085 H 652.294 3.79945 -1.17842 0
M  V30 7086 H 649.033 5.4036 -3.71068 0
M  V30 7087 H 648.553 5.64913 -2.01578 0
M  V30 7088 H 650.232 5.95738 -2.52399 0
M  V30 7089 N 650.364 0.662433 1.43002 0
M  V30 7090 C 651.592 0.187615 2.06048 0
M  V30 7091 C 652.007 -1.15039 1.49705 0
M  V30 7092 O 651.364 -1.71209 0.631956 0
M  V30 7093 C 651.415 0.100498 3.6136 0
M  V30 7094 O 651.136 1.38562 4.15611 0
M  V30 7095 C 652.637 -0.399298 4.41498 0
M  V30 7096 H 649.857 0.0941675 0.664359 0
M  V30 7097 H 652.401 0.905681 1.83351 0
M  V30 7098 H 650.556 -0.568181 3.83211 0
M  V30 7099 H 650.97 1.25084 5.09366 0
M  V30 7100 H 652.444 -0.409187 5.50481 0
M  V30 7101 H 652.921 -1.43232 4.15188 0
M  V30 7102 H 653.527 0.23721 4.24638 0
M  V30 7103 N 651.842 -1.52309 0.404946 0
M  V30 7104 C 653.119 -1.94237 -0.230544 0
M  V30 7105 C 653.499 -1.34154 -1.6299 0
M  V30 7106 O 652.847 -0.515713 -2.22604 0
M  V30 7107 C 653.057 -3.48166 -0.241106 0
M  V30 7108 C 654.405 -4.22074 -0.462488 0
M  V30 7109 O 655.429 -3.54754 -0.320644 0
M  V30 7110 O 654.288 -5.41443 -0.741708 0
M  V30 7111 H 651.382 -0.813766 -0.147358 0
M  V30 7112 H 653.928 -1.6333 0.460587 0
M  V30 7113 H 652.7 -3.84269 0.738467 0
M  V30 7114 H 652.323 -3.85422 -0.97651 0
M  V30 7115 N 653.32 -0.135238 -1.57019 0
M  V30 7116 C 654.545 0.529343 -2.00531 0
M  V30 7117 C 654.97 1.58391 -1.01459 0
M  V30 7118 O 654.328 1.81296 0.0113986 0
M  V30 7119 C 654.376 1.11748 -3.42848 0
M  V30 7120 O 653.48 2.23267 -3.46736 0
M  V30 7121 H 652.821 0.130669 -0.651016 0
M  V30 7122 H 655.351 -0.228503 -2.0332 0
M  V30 7123 H 655.361 1.44905 -3.81401 0
M  V30 7124 H 654.036 0.345147 -4.14465 0
M  V30 7125 H 652.613 1.91428 -3.20015 0
M  V30 7126 N 654.798 1.5699 0.138552 0
M  V30 7127 C 655.728 2.01933 1.17241 0
M  V30 7128 C 656.709 0.90033 1.44319 0
M  V30 7129 O 657.894 1.16872 1.55095 0
M  V30 7130 C 655.024 2.40711 2.50351 0
M  V30 7131 C 653.978 3.55874 2.37776 0
M  V30 7132 C 653.304 3.80491 3.75674 0
M  V30 7133 C 654.604 4.8826 1.85472 0
M  V30 7134 H 656.298 2.88551 0.798672 0
M  V30 7135 H 653.844 1.3882 0.382743 0
M  V30 7136 H 655.797 2.70754 3.22909 0
M  V30 7137 H 654.521 1.5104 2.89576 0
M  V30 7138 H 653.18 3.2601 1.67669 0
M  V30 7139 H 652.828 2.88057 4.12349 0
M  V30 7140 H 652.528 4.57998 3.68119 0
M  V30 7141 H 654.052 4.12967 4.49767 0
M  V30 7142 H 655.466 5.16965 2.4783 0
M  V30 7143 H 653.863 5.69631 1.88787 0
M  V30 7144 H 654.933 4.78071 0.810935 0
M  V30 7145 N 656.276 -0.40816 1.52223 0
M  V30 7146 C 657.239 -1.48 1.7501 0
M  V30 7147 C 658.239 -1.48367 0.619996 0
M  V30 7148 O 659.429 -1.49874 0.887881 0
M  V30 7149 C 656.561 -2.87403 1.83336 0
M  V30 7150 H 657.754 -1.29086 2.70697 0
M  V30 7151 H 655.307 -0.638715 1.42654 0
M  V30 7152 H 656.042 -3.11686 0.895677 0
M  V30 7153 H 655.827 -2.8854 2.65494 0
M  V30 7154 H 657.317 -3.65103 2.02705 0
M  V30 7155 N 657.755 -1.42862 -0.66545 0
M  V30 7156 C 658.703 -1.47319 -1.8 0
M  V30 7157 C 659.697 -0.347963 -1.65788 0
M  V30 7158 O 660.903 -0.521406 -1.72283 0
M  V30 7159 H 657.278 -0.461588 -0.593667 0
M  V30 7160 H 659.249 -2.42876 -1.7336 0
M  V30 7161 C 657.998 -1.40152 -3.18203 0
M  V30 7162 H 657.321 -2.26035 -3.2977 0
M  V30 7163 H 658.761 -1.47331 -3.9758 0
M  V30 7164 C 657.22 -0.117493 -3.36695 0
M  V30 7165 O 657.75 0.826058 -3.93115 0
M  V30 7166 N 655.956 -0.0316218 -2.90583 0
M  V30 7167 H 655.503 -0.800247 -2.44855 0
M  V30 7168 H 655.461 0.826835 -3.03333 0
M  V30 7169 N 659.233 0.902656 -1.29189 0
M  V30 7170 C 660.649 1.18296 -1.07137 0
M  V30 7171 C 660.849 2.00701 0.179223 0
M  V30 7172 O 659.905 2.3675 0.877812 0
M  V30 7173 C 661.218 1.90677 -2.32514 0
M  V30 7174 C 662.766 2.03515 -2.37804 0
M  V30 7175 C 663.241 2.79307 -3.62976 0
M  V30 7176 N 664.732 2.86862 -3.63681 0
M  V30 7177 C 665.467 3.46035 -4.57217 0
M  V30 7178 N 664.963 4.06399 -5.61081 0
M  V30 7179 N 666.756 3.43681 -4.44792 0
M  V30 7180 H 658.907 0.352765 -2.0945 0
M  V30 7181 H 661.17 0.21876 -0.922414 0
M  V30 7182 H 660.876 1.3756 -3.23682 0
M  V30 7183 H 660.75 2.91169 -2.39793 0
M  V30 7184 H 663.137 2.55809 -1.47125 0
M  V30 7185 H 663.218 1.02166 -2.34512 0
M  V30 7186 H 662.862 2.2769 -4.54004 0
M  V30 7187 H 662.792 3.80995 -3.63525 0
M  V30 7188 H 665.283 2.43987 -2.88581 0
M  V30 7189 H 665.596 4.49564 -6.2858 0
M  V30 7190 H 663.941 4.0487 -5.64894 0
M  V30 7191 H 667.132 2.9574 -3.62843 0
M  V30 7192 H 667.305 3.89503 -5.17872 0
M  V30 7193 N 660.711 1.11618 1.11262 0
M  V30 7194 C 661.939 0.888739 1.8684 0
M  V30 7195 C 662.354 -0.561558 1.80255 0
M  V30 7196 O 661.711 -1.38782 1.18515 0
M  V30 7197 C 661.762 1.34422 3.35579 0
M  V30 7198 O 661.483 2.73766 3.42029 0
M  V30 7199 C 662.984 1.15246 4.28058 0
M  V30 7200 H 660.204 0.318152 0.590779 0
M  V30 7201 H 662.748 1.48398 1.40707 0
M  V30 7202 H 660.903 0.79239 3.7921 0
M  V30 7203 H 661.317 2.9355 4.34659 0
M  V30 7204 H 662.791 1.52015 5.30656 0
M  V30 7205 H 663.268 0.0922007 4.39103 0
M  V30 7206 H 663.874 1.69136 3.90222 0
M  V30 7207 N 662.189 -1.289 0.906776 0
M  V30 7208 C 663.119 -2.29932 0.406659 0
M  V30 7209 C 664.1 -1.6189 -0.522061 0
M  V30 7210 O 665.285 -1.8935 -0.431283 0
M  V30 7211 C 662.415 -3.45425 -0.360366 0
M  V30 7212 C 661.369 -4.25316 0.478574 0
M  V30 7213 C 660.695 -5.33076 -0.416373 0
M  V30 7214 C 661.995 -4.92739 1.7322 0
M  V30 7215 H 663.689 -2.72013 1.25097 0
M  V30 7216 H 661.235 -1.30768 0.602977 0
M  V30 7217 H 663.188 -4.15186 -0.721029 0
M  V30 7218 H 661.912 -3.02206 -1.23852 0
M  V30 7219 H 660.571 -3.57273 0.821662 0
M  V30 7220 H 660.219 -4.86101 -1.29287 0
M  V30 7221 H 659.919 -5.8743 0.141309 0
M  V30 7222 H 661.443 -6.05686 -0.773072 0
M  V30 7223 H 662.857 -5.54898 1.44086 0
M  V30 7224 H 661.254 -5.57057 2.23175 0
M  V30 7225 H 662.324 -4.17625 2.46408 0
M  V30 7226 N 663.667 -0.670007 -1.42649 0
M  V30 7227 C 664.916 -0.187526 -2.00826 0
M  V30 7228 C 665.229 1.21142 -1.53571 0
M  V30 7229 O 666.435 1.79001 -2.04134 0
M  V30 7230 C 664.891 -0.284409 -3.58774 0
M  V30 7231 C 664.499 -1.6871 -4.15019 0
M  V30 7232 C 666.243 0.139605 -4.2427 0
M  V30 7233 C 664.15 -1.73701 -5.65316 0
M  V30 7234 H 663.08 -0.0663468 -0.751075 0
M  V30 7235 H 665.731 -0.834492 -1.63427 0
M  V30 7236 H 664.113 0.430364 -3.93655 0
M  V30 7237 H 665.287 -2.42857 -3.91608 0
M  V30 7238 H 663.602 -2.05855 -3.61957 0
M  V30 7239 H 666.199 0.122398 -5.3456 0
M  V30 7240 H 666.542 1.17403 -3.99402 0
M  V30 7241 H 667.075 -0.523995 -3.94334 0
M  V30 7242 H 663.814 -2.75109 -5.94975 0
M  V30 7243 H 663.334 -1.03903 -5.90732 0
M  V30 7244 H 665.013 -1.48829 -6.2965 0
M  V30 7245 N 665.145 1.52092 -0.413018 0
M  V30 7246 C 666.391 2.02154 0.161737 0
M  V30 7247 C 666.724 1.29789 1.44459 0
M  V30 7248 O 665.999 0.405378 1.90229 0
M  V30 7249 C 666.282 3.5781 0.405463 0
M  V30 7250 C 666.135 4.40819 -0.894335 0
M  V30 7251 C 667.454 4.23821 1.18591 0
M  V30 7252 H 664.573 0.734769 0.0573077 0
M  V30 7253 H 667.215 1.81948 -0.547247 0
M  V30 7254 H 665.365 3.75158 1.0094 0
M  V30 7255 H 667.037 4.35175 -1.53039 0
M  V30 7256 H 665.28 4.06877 -1.50444 0
M  V30 7257 H 665.951 5.47819 -0.678144 0
M  V30 7258 H 668.427 4.10596 0.674573 0
M  V30 7259 H 667.303 5.32663 1.3252 0
M  V30 7260 H 667.564 3.83038 2.20758 0
M  V30 7261 N 666.623 0.143563 1.56945 0
M  V30 7262 C 667.851 -0.515447 2.00377 0
M  V30 7263 C 668.266 -1.58643 1.02361 0
M  V30 7264 O 667.623 -1.82489 0.0201039 0
M  V30 7265 C 667.674 -1.11923 3.43737 0
M  V30 7266 O 667.395 -0.0910318 4.38005 0
M  V30 7267 C 668.896 -1.85918 4.02429 0
M  V30 7268 H 666.116 -0.134478 0.657386 0
M  V30 7269 H 668.66 0.237135 2.0312 0
M  V30 7270 H 666.815 -1.82245 3.41856 0
M  V30 7271 H 667.229 -0.532916 5.21786 0
M  V30 7272 H 668.703 -2.2346 5.04747 0
M  V30 7273 H 669.18 -2.7438 3.42947 0
M  V30 7274 H 669.786 -1.20303 4.07931 0
M  V30 7275 N 668.101 -1.57061 -0.130224 0
M  V30 7276 C 669.329 -1.88432 -0.854456 0
M  V30 7277 C 669.744 -0.733608 -1.73964 0
M  V30 7278 O 669.101 0.296029 -1.80083 0
M  V30 7279 C 669.152 -3.1918 -1.69724 0
M  V30 7280 O 668.873 -4.2982 -0.847705 0
M  V30 7281 C 670.374 -3.6418 -2.5276 0
M  V30 7282 H 667.594 -0.624193 -0.246221 0
M  V30 7283 H 670.138 -2.04159 -0.11798 0
M  V30 7284 H 668.293 -3.05156 -2.3866 0
M  V30 7285 H 668.707 -5.04689 -1.42792 0
M  V30 7286 H 670.181 -4.58457 -3.07443 0
M  V30 7287 H 670.658 -2.90285 -3.29592 0
M  V30 7288 H 671.264 -3.80954 -1.89087 0
M  V30 7289 N 669.579 0.400081 -1.52437 0
M  V30 7290 C 670.828 1.14332 -1.66166 0
M  V30 7291 C 671.141 1.91419 -0.402253 0
M  V30 7292 O 672.347 2.6824 -0.419487 0
M  V30 7293 C 670.803 2.08137 -2.9361 0
M  V30 7294 C 670.411 1.36524 -4.26691 0
M  V30 7295 C 672.155 2.82664 -3.16703 0
M  V30 7296 C 670.062 2.29031 -5.45251 0
M  V30 7297 H 668.992 0.430499 -0.61902 0
M  V30 7298 H 671.643 0.407017 -1.78929 0
M  V30 7299 H 670.025 2.85358 -2.74567 0
M  V30 7300 H 671.199 0.646061 -4.56249 0
M  V30 7301 H 669.514 0.74002 -4.09771 0
M  V30 7302 H 672.111 3.52037 -4.0246 0
M  V30 7303 H 672.454 3.46122 -2.31312 0
M  V30 7304 H 672.987 2.12541 -3.36261 0
M  V30 7305 H 669.726 1.70206 -6.33017 0
M  V30 7306 H 669.246 2.98896 -5.2002 0
M  V30 7307 H 670.925 2.89359 -5.78689 0
M  V30 7308 N 671.057 1.43213 0.657864 0
M  V30 7309 C 671.987 1.50815 1.78262 0
M  V30 7310 C 672.968 0.363211 1.66177 0
M  V30 7311 O 674.153 0.579806 1.85343 0
M  V30 7312 C 671.283 1.42625 3.16663 0
M  V30 7313 C 670.237 2.5532 3.43505 0
M  V30 7314 C 669.563 2.32184 4.81658 0
M  V30 7315 C 670.863 3.97583 3.38711 0
M  V30 7316 H 672.557 2.44954 1.72157 0
M  V30 7317 H 670.103 1.17896 0.82683 0
M  V30 7318 H 672.056 1.46548 3.95097 0
M  V30 7319 H 670.78 0.449877 3.23487 0
M  V30 7320 H 669.439 2.50742 2.6744 0
M  V30 7321 H 669.087 1.32801 4.85153 0
M  V30 7322 H 668.787 3.07724 5.00579 0
M  V30 7323 H 670.311 2.37883 5.62356 0
M  V30 7324 H 671.725 4.03673 4.07089 0
M  V30 7325 H 670.122 4.73112 3.69168 0
M  V30 7326 H 671.192 4.23049 2.36976 0
M  V30 7327 N 672.536 -0.895792 1.29666 0
M  V30 7328 C 673.446 -2.03329 1.17024 0
M  V30 7329 C 674.462 -1.73753 0.0925962 0
M  V30 7330 O 675.638 -1.99071 0.305431 0
M  V30 7331 C 672.703 -3.36072 0.851841 0
M  V30 7332 C 671.764 -3.7914 2.01373 0
M  V30 7333 C 670.997 -5.05549 1.71043 0
M  V30 7334 O 671.22 -5.66874 0.633213 0
M  V30 7335 O 670.154 -5.44764 2.5596 0
M  V30 7336 H 673.98 -2.16918 2.12556 0
M  V30 7337 H 671.565 -1.02007 1.09156 0
M  V30 7338 H 673.447 -4.15729 0.689006 0
M  V30 7339 H 672.122 -3.23616 -0.0736634 0
M  V30 7340 H 671.029 -3.00233 2.23183 0
M  V30 7341 H 672.362 -3.96186 2.92058 0
M  V30 7342 N 674.014 -1.12206 -1.10668 0
M  V30 7343 C 674.924 -0.800686 -2.20513 0
M  V30 7344 C 675.94 0.209512 -1.72734 0
M  V30 7345 O 677.116 0.043705 -2.01353 0
M  V30 7346 C 674.181 -0.257353 -3.45744 0
M  V30 7347 C 673.242 -1.32718 -4.0827 0
M  V30 7348 C 672.475 -0.809674 -5.27522 0
M  V30 7349 O 672.698 0.35742 -5.69279 0
M  V30 7350 O 671.632 -1.57816 -5.80842 0
M  V30 7351 H 675.458 -1.71807 -2.50432 0
M  V30 7352 H 673.043 -0.898546 -1.19359 0
M  V30 7353 H 674.925 0.0408849 -4.2138 0
M  V30 7354 H 673.6 0.632627 -3.17458 0
M  V30 7355 H 672.507 -1.67855 -3.34329 0
M  V30 7356 H 673.84 -2.19083 -4.40753 0
M  V30 7357 N 675.492 1.28418 -0.913599 0
M  V30 7358 C 676.903 1.77024 -0.593237 0
M  V30 7359 C 677.254 1.74779 0.891441 0
M  V30 7360 O 676.379 1.34237 1.69733 0
M  V30 7361 C 676.974 3.21456 -1.07011 0
M  V30 7362 C 675.533 3.67786 -0.800664 0
M  V30 7363 C 674.68 2.48185 -1.23691 0
M  V30 7364 H 677.631 1.14883 -1.09487 0
M  V30 7365 H 677.652 3.78269 -0.411481 0
M  V30 7366 H 677.164 3.23058 -2.1507 0
M  V30 7367 H 675.265 3.71644 0.266725 0
M  V30 7368 H 675.378 4.57934 -1.4083 0
M  V30 7369 H 673.742 2.46116 -0.655655 0
M  V30 7370 H 674.525 2.52506 -2.32585 0
M  V30 7371 N 676.97 0.677563 1.42291 0
M  V30 7372 C 678.2 0.209155 2.05539 0
M  V30 7373 C 678.608 -1.13987 1.51009 0
M  V30 7374 O 677.951 -1.71976 0.645764 0
M  V30 7375 C 678.013 0.0697758 3.59432 0
M  V30 7376 C 677.677 1.34795 4.36668 0
M  V30 7377 C 678.674 2.28201 4.67141 0
M  V30 7378 C 676.359 1.59632 4.76259 0
M  V30 7379 C 678.353 3.44718 5.36142 0
M  V30 7380 C 676.04 2.76437 5.45 0
M  V30 7381 C 677.038 3.68805 5.74867 0
M  V30 7382 O 676.726 4.83567 6.42198 0
M  V30 7383 H 676.458 0.0986202 0.668768 0
M  V30 7384 H 679.012 0.925483 1.83368 0
M  V30 7385 H 677.242 -0.702157 3.80272 0
M  V30 7386 H 678.931 -0.359115 4.04308 0
M  V30 7387 H 679.697 2.10264 4.37052 0
M  V30 7388 H 675.576 0.886073 4.52404 0
M  V30 7389 H 679.12 4.16833 5.59371 0
M  V30 7390 H 675.017 2.94299 5.74507 0
M  V30 7391 H 675.785 4.83147 6.6069 0
M  V30 7392 N 678.448 -1.51871 0.421078 0
M  V30 7393 C 679.694 -2.02237 -0.151014 0
M  V30 7394 C 680.027 -1.30554 -1.43768 0
M  V30 7395 O 679.302 -0.41546 -1.90011 0
M  V30 7396 C 679.585 -3.5802 -0.386482 0
M  V30 7397 C 679.438 -4.40339 0.9177 0
M  V30 7398 C 680.757 -4.24444 -1.16342 0
M  V30 7399 H 677.876 -0.735062 -0.0534102 0
M  V30 7400 H 680.518 -1.81656 0.556888 0
M  V30 7401 H 678.668 -3.75688 -0.989494 0
M  V30 7402 H 680.34 -4.34357 1.55344 0
M  V30 7403 H 678.583 -4.06073 1.526 0
M  V30 7404 H 679.254 -5.47451 0.707187 0
M  V30 7405 H 681.73 -4.10948 -0.652788 0
M  V30 7406 H 680.606 -5.33358 -1.29693 0
M  V30 7407 H 680.867 -3.84204 -2.18724 0
M  V30 7408 N 679.926 -0.151884 -1.56866 0
M  V30 7409 C 680.859 0.824094 -2.128 0
M  V30 7410 C 681.837 1.2391 -1.05286 0
M  V30 7411 O 683.021 1.33433 -1.33146 0
M  V30 7412 C 680.148 2.1072 -2.65169 0
M  V30 7413 C 679.194 1.83774 -3.84876 0
M  V30 7414 S 680.027 1.02436 -5.25611 0
M  V30 7415 C 681.183 2.31855 -5.81373 0
M  V30 7416 H 681.416 0.348456 -2.95251 0
M  V30 7417 H 678.949 0.0624794 -1.54274 0
M  V30 7418 H 680.907 2.84428 -2.95992 0
M  V30 7419 H 679.568 2.55398 -1.8284 0
M  V30 7420 H 678.761 2.78929 -4.19779 0
M  V30 7421 H 678.363 1.18172 -3.5484 0
M  V30 7422 H 680.655 3.27469 -5.93102 0
M  V30 7423 H 681.598 2.01449 -6.7884 0
M  V30 7424 H 682.006 2.42727 -5.09651 0
M  V30 7425 N 681.404 1.57128 0.121893 0
M  V30 7426 C 682.634 1.88609 0.843227 0
M  V30 7427 C 683.042 0.740917 1.74089 0
M  V30 7428 O 682.385 -0.297426 1.81276 0
M  V30 7429 C 682.447 3.15073 1.73117 0
M  V30 7430 C 682.111 4.45742 1.0081 0
M  V30 7431 C 683.108 5.18719 0.350255 0
M  V30 7432 C 680.793 4.92444 0.99014 0
M  V30 7433 C 682.787 6.36617 -0.315889 0
M  V30 7434 C 680.474 6.10261 0.320196 0
M  V30 7435 C 681.472 6.82194 -0.331666 0
M  V30 7436 O 681.16 7.97769 -0.990927 0
M  V30 7437 H 680.892 0.628919 0.247865 0
M  V30 7438 H 683.446 2.05096 0.111725 0
M  V30 7439 H 681.676 2.9466 2.50424 0
M  V30 7440 H 683.365 3.32597 2.32667 0
M  V30 7441 H 684.131 4.83693 0.35577 0
M  V30 7442 H 680.01 4.36361 1.48695 0
M  V30 7443 H 683.554 6.92701 -0.825272 0
M  V30 7444 H 679.451 6.44743 0.312433 0
M  V30 7445 H 680.219 8.13591 -0.895113 0
M  V30 7446 N 682.882 -0.391992 1.52647 0
M  V30 7447 C 684.298 -0.731848 1.41831 0
M  V30 7448 C 684.498 -1.9423 0.536361 0
M  V30 7449 O 683.554 -2.52499 0.00866571 0
M  V30 7450 C 684.867 -0.969743 2.84634 0
M  V30 7451 C 686.415 -1.0714 2.94092 0
M  V30 7452 C 686.89 -1.34195 4.37899 0
M  V30 7453 N 688.381 -1.41023 4.41211 0
M  V30 7454 C 689.116 -1.63616 5.49561 0
M  V30 7455 N 688.612 -1.83699 6.68002 0
M  V30 7456 N 690.405 -1.65771 5.371 0
M  V30 7457 H 682.556 0.404547 2.08512 0
M  V30 7458 H 684.819 0.11879 0.940528 0
M  V30 7459 H 684.525 -0.152465 3.51369 0
M  V30 7460 H 684.399 -1.88523 3.26709 0
M  V30 7461 H 686.786 -1.87925 2.27526 0
M  V30 7462 H 686.867 -0.133887 2.55449 0
M  V30 7463 H 686.511 -0.539207 5.0503 0
M  V30 7464 H 686.441 -2.29226 4.74092 0
M  V30 7465 H 688.932 -1.27223 3.55841 0
M  V30 7466 H 689.245 -2.00437 7.46354 0
M  V30 7467 H 687.59 -1.8093 6.71036 0
M  V30 7468 H 690.781 -1.4963 4.43541 0
M  V30 7469 H 690.954 -1.83038 6.21612 0
M  V30 7470 N 684.36 -1.4356 -0.65026 0
M  V30 7471 C 685.307 -1.48948 -1.76304 0
M  V30 7472 C 686.277 -0.338919 -1.62605 0
M  V30 7473 O 687.462 -0.54649 -1.82806 0
M  V30 7474 C 684.602 -1.42131 -3.14472 0
M  V30 7475 C 683.715 -2.67415 -3.39284 0
M  V30 7476 C 682.85 -2.52565 -4.67316 0
M  V30 7477 C 681.889 -3.73103 -4.85243 0
M  V30 7478 N 681.026 -3.57046 -6.04535 0
M  V30 7479 H 685.866 -2.44032 -1.71034 0
M  V30 7480 H 683.403 -1.21131 -0.834601 0
M  V30 7481 H 685.361 -1.36172 -3.94351 0
M  V30 7482 H 683.991 -0.506273 -3.18805 0
M  V30 7483 H 683.043 -2.8364 -2.53481 0
M  V30 7484 H 684.355 -3.56943 -3.48415 0
M  V30 7485 H 683.509 -2.44331 -5.55326 0
M  V30 7486 H 682.248 -1.60566 -4.60511 0
M  V30 7487 H 681.253 -3.81743 -3.95667 0
M  V30 7488 H 682.478 -4.66115 -4.93876 0
M  V30 7489 H 680.424 -2.67783 -5.98856 0
M  V30 7490 H 680.341 -4.40178 -6.14638 0
M  V30 7491 H 681.609 -3.52669 -6.95158 0
M  V30 7492 N 685.838 0.888903 -1.30139 0
M  V30 7493 C 687.063 1.67884 -1.21777 0
M  V30 7494 C 687.488 1.86848 0.216689 0
M  V30 7495 O 686.846 1.39659 1.15608 0
M  V30 7496 C 686.894 3.03483 -1.94757 0
M  V30 7497 O 685.998 3.92294 -1.27198 0
M  V30 7498 H 685.339 0.513144 -0.421402 0
M  V30 7499 H 687.869 1.10968 -1.71893 0
M  V30 7500 H 687.879 3.53553 -2.03627 0
M  V30 7501 H 686.554 2.89 -2.99085 0
M  V30 7502 H 685.131 3.50732 -1.26655 0
M  V30 7503 N 687.317 1.12792 1.10072 0
M  V30 7504 C 688.594 0.796867 1.78632 0
M  V30 7505 C 688.974 -0.712739 1.98704 0
M  V30 7506 O 688.322 -1.64773 1.5831 0
M  V30 7507 C 688.532 1.57622 3.11378 0
M  V30 7508 C 689.88 1.76463 3.86194 0
M  V30 7509 O 690.904 1.54165 3.2111 0
M  V30 7510 O 689.763 2.13623 5.03018 0
M  V30 7511 H 686.857 0.290248 0.774394 0
M  V30 7512 H 689.403 1.23215 1.16688 0
M  V30 7513 H 688.175 2.60246 2.92212 0
M  V30 7514 H 687.798 1.13543 3.81043 0
M  V30 7515 N 688.795 -1.27931 0.920396 0
M  V30 7516 C 689.742 -2.27085 0.412422 0
M  V30 7517 C 690.712 -1.57858 -0.516725 0
M  V30 7518 O 691.897 -1.85717 -0.437475 0
M  V30 7519 C 689.037 -3.43466 -0.335399 0
M  V30 7520 C 688.15 -4.27425 0.627017 0
M  V30 7521 C 687.285 -5.31016 -0.139916 0
M  V30 7522 C 686.324 -6.06641 0.815683 0
M  V30 7523 N 685.461 -7.02052 0.0818439 0
M  V30 7524 H 690.301 -2.69913 1.26298 0
M  V30 7525 H 687.838 -1.32732 0.634076 0
M  V30 7526 H 689.796 -4.09744 -0.785226 0
M  V30 7527 H 688.426 -3.01611 -1.15025 0
M  V30 7528 H 687.478 -3.6113 1.19537 0
M  V30 7529 H 688.79 -4.79969 1.35763 0
M  V30 7530 H 687.944 -6.03208 -0.649998 0
M  V30 7531 H 686.683 -4.79257 -0.903543 0
M  V30 7532 H 685.688 -5.33294 1.33708 0
M  V30 7533 H 686.913 -6.60489 1.57897 0
M  V30 7534 H 684.859 -6.52634 -0.663671 0
M  V30 7535 H 684.776 -7.52249 0.752163 0
M  V30 7536 H 686.044 -7.78432 -0.407825 0
M  V30 7537 N 690.273 -0.685099 -1.4193 0
M  V30 7538 C 691.684 -0.287699 -1.8447 0
M  V30 7539 C 692.035 1.17215 -1.57338 0
M  V30 7540 O 691.16 1.89856 -1.03845 0
M  V30 7541 C 691.755 -0.515385 -3.34857 0
M  V30 7542 C 690.314 -0.172006 -3.76007 0
M  V30 7543 C 689.461 -0.802808 -2.65425 0
M  V30 7544 H 692.412 -0.88652 -1.3163 0
M  V30 7545 H 692.433 0.229251 -3.79809 0
M  V30 7546 H 691.945 -1.57796 -3.54573 0
M  V30 7547 H 690.046 0.886716 -3.61895 0
M  V30 7548 H 690.159 -0.619717 -4.75075 0
M  V30 7549 H 688.523 -0.233267 -2.5363 0
M  V30 7550 H 689.306 -1.86904 -2.87961 0
M  V30 7551 N 691.751 1.51645 -0.429126 0
M  V30 7552 C 692.681 2.30434 0.377148 0
M  V30 7553 C 693.662 1.35493 1.02838 0
M  V30 7554 O 694.847 1.6441 1.03359 0
M  V30 7555 C 691.977 3.14038 1.48315 0
M  V30 7556 C 690.931 4.1719 0.955855 0
M  V30 7557 C 690.257 4.89263 2.15698 0
M  V30 7558 C 691.557 5.223 -0.00402136 0
M  V30 7559 H 693.251 2.98085 -0.280336 0
M  V30 7560 H 690.797 1.43354 -0.136265 0
M  V30 7561 H 692.75 3.67933 2.05435 0
M  V30 7562 H 691.474 2.44193 2.16881 0
M  V30 7563 H 690.133 3.64335 0.406929 0
M  V30 7564 H 689.781 4.15929 2.82864 0
M  V30 7565 H 689.481 5.59009 1.81059 0
M  V30 7566 H 691.005 5.45978 2.73387 0
M  V30 7567 H 692.419 5.71315 0.476607 0
M  V30 7568 H 690.816 5.99525 -0.26258 0
M  V30 7569 H 691.886 4.75638 -0.943236 0
M  V30 7570 N 693.229 0.160201 1.56784 0
M  V30 7571 C 694.459 -0.493449 2.00621 0
M  V30 7572 C 694.867 -1.5809 1.03943 0
M  V30 7573 O 694.21 -1.83675 0.0305343 0
M  V30 7574 C 694.272 -1.14169 3.4089 0
M  V30 7575 C 693.936 -0.197243 4.56574 0
M  V30 7576 C 694.933 0.580174 5.16653 0
M  V30 7577 C 692.618 -0.0963038 5.02208 0
M  V30 7578 C 694.612 1.44584 6.20785 0
M  V30 7579 C 692.299 0.772959 6.06192 0
M  V30 7580 C 693.297 1.54263 6.65351 0
M  V30 7581 O 692.985 2.39738 7.67321 0
M  V30 7582 H 692.717 -0.131764 0.663034 0
M  V30 7583 H 695.271 0.255728 2.03802 0
M  V30 7584 H 693.501 -1.93877 3.34587 0
M  V30 7585 H 695.19 -1.69641 3.6875 0
M  V30 7586 H 695.956 0.5123 4.82287 0
M  V30 7587 H 691.835 -0.685143 4.5588 0
M  V30 7588 H 695.379 2.04706 6.66889 0
M  V30 7589 H 691.276 0.842077 6.39984 0
M  V30 7590 H 692.044 2.33131 7.84597 0
M  V30 7591 N 694.707 -1.5719 -0.113559 0
M  V30 7592 C 695.955 -1.84772 -0.818761 0
M  V30 7593 C 696.276 -0.746196 -1.80158 0
M  V30 7594 O 695.546 0.229305 -1.94553 0
M  V30 7595 H 694.126 -0.681737 -0.305359 0
M  V30 7596 H 696.788 -1.94645 -0.0995845 0
M  V30 7597 H 695.884 -2.80878 -1.36067 0
M  V30 7598 N 696.185 0.383891 -1.52853 0
M  V30 7599 C 697.133 1.48965 -1.7864 0
M  V30 7600 C 698.127 1.56242 -0.654577 0
M  V30 7601 O 699.333 1.59347 -0.83716 0
M  V30 7602 H 695.708 0.495892 -0.565328 0
M  V30 7603 H 697.679 1.24411 -2.71228 0
M  V30 7604 C 696.428 2.86036 -1.97683 0
M  V30 7605 H 695.751 2.81188 -2.84206 0
M  V30 7606 H 697.191 3.62632 -2.19713 0
M  V30 7607 C 695.65 3.28428 -0.750776 0
M  V30 7608 O 696.18 4.0164 0.0693491 0
M  V30 7609 N 694.386 2.84765 -0.579427 0
M  V30 7610 H 693.933 2.25353 -1.24795 0
M  V30 7611 H 693.891 3.13486 0.239544 0
M  V30 7612 N 697.663 1.43903 0.642637 0
M  V30 7613 C 698.94 1.36556 1.40043 0
M  V30 7614 C 699.32 0.0185588 2.11092 0
M  V30 7615 O 698.668 -0.998438 2.05532 0
M  V30 7616 C 698.878 2.55596 2.37638 0
M  V30 7617 C 700.226 2.99153 3.01318 0
M  V30 7618 O 701.25 2.55719 2.47965 0
M  V30 7619 O 700.109 3.74427 3.98078 0
M  V30 7620 H 697.203 0.540189 0.626198 0
M  V30 7621 H 699.749 1.55971 0.668657 0
M  V30 7622 H 698.521 3.45256 1.84158 0
M  V30 7623 H 698.144 2.38334 3.18249 0
M  V30 7624 N 699.141 -0.881989 1.30609 0
M  V30 7625 C 700.557 -1.16576 1.09005 0
M  V30 7626 C 700.757 -2.00961 -0.14727 0
M  V30 7627 O 699.813 -2.38117 -0.840036 0
M  V30 7628 C 701.126 -1.86954 2.35518 0
M  V30 7629 C 702.674 -1.99706 2.41011 0
M  V30 7630 C 703.149 -2.73497 3.67374 0
M  V30 7631 N 704.64 -2.8104 3.68199 0
M  V30 7632 C 705.375 -3.38718 4.62664 0
M  V30 7633 N 704.871 -3.97421 5.67475 0
M  V30 7634 N 706.664 -3.36561 4.50203 0
M  V30 7635 H 698.815 -0.319398 2.09985 0
M  V30 7636 H 701.078 -0.204058 0.925778 0
M  V30 7637 H 700.784 -1.32393 3.2583 0
M  V30 7638 H 700.658 -2.87317 2.44395 0
M  V30 7639 H 703.045 -2.53436 1.51176 0
M  V30 7640 H 703.126 -0.984218 2.36108 0
M  V30 7641 H 702.77 -2.20438 4.57569 0
M  V30 7642 H 702.7 -3.75163 3.6954 0
M  V30 7643 H 705.191 -2.39365 2.92426 0
M  V30 7644 H 705.504 -4.39507 6.35652 0
M  V30 7645 H 703.849 -3.95832 5.71264 0
M  V30 7646 H 707.04 -2.8993 3.67503 0
M  V30 7647 H 707.213 -3.81215 5.24003 0
M  V30 7648 N 700.619 -1.13374 -1.09472 0
M  V30 7649 C 701.866 -0.89519 -1.81639 0
M  V30 7650 C 702.194 0.57868 -1.85692 0
M  V30 7651 O 701.449 1.44426 -1.32059 0
M  V30 7652 C 701.748 -1.42759 -3.2765 0
M  V30 7653 C 701.414 -2.91822 -3.43731 0
M  V30 7654 C 700.076 -3.32521 -3.47827 0
M  V30 7655 C 702.428 -3.87727 -3.48307 0
M  V30 7656 C 699.756 -4.6781 -3.54078 0
M  V30 7657 C 702.108 -5.22859 -3.56091 0
M  V30 7658 C 700.772 -5.63086 -3.58456 0
M  V30 7659 H 700.042 -0.327573 -0.664663 0
M  V30 7660 H 702.689 -1.4156 -1.28969 0
M  V30 7661 H 700.994 -0.827871 -3.82954 0
M  V30 7662 H 702.691 -1.2191 -3.8202 0
M  V30 7663 H 699.281 -2.5935 -3.41226 0
M  V30 7664 H 703.465 -3.57371 -3.44383 0
M  V30 7665 H 698.721 -4.98353 -3.54195 0
M  V30 7666 H 702.895 -5.96989 -3.58577 0
M  V30 7667 H 700.522 -6.67905 -3.63052 0
M  V30 7668 N 702.098 1.27442 -0.927168 0
M  V30 7669 C 703.008 2.30599 -0.431448 0
M  V30 7670 C 704.024 1.67028 0.48761 0
M  V30 7671 O 705.2 1.97962 0.370546 0
M  V30 7672 C 702.265 3.45327 0.308292 0
M  V30 7673 C 701.326 4.24418 -0.645615 0
M  V30 7674 C 700.559 5.33667 0.0589164 0
M  V30 7675 O 700.782 5.5589 1.27838 0
M  V30 7676 O 699.716 5.98774 -0.612638 0
M  V30 7677 H 703.542 2.75036 -1.28797 0
M  V30 7678 H 701.127 1.32382 -0.692495 0
M  V30 7679 H 703.009 4.15107 0.725555 0
M  V30 7680 H 701.684 3.02945 1.14043 0
M  V30 7681 H 700.591 3.57174 -1.11255 0
M  V30 7682 H 701.924 4.70512 -1.44496 0
M  V30 7683 N 703.576 0.692616 1.41565 0
M  V30 7684 C 704.824 0.221896 2.00878 0
M  V30 7685 C 705.145 -1.18164 1.5512 0
M  V30 7686 O 704.415 -1.79679 0.78054 0
M  V30 7687 H 702.995 0.0790463 0.742806 0
M  V30 7688 H 705.657 0.893115 1.73232 0
M  V30 7689 H 704.753 0.23702 3.11199 0
M  V30 7690 N 705.054 -1.51416 0.437162 0
M  V30 7691 C 706.284 -2.06204 -0.127859 0
M  V30 7692 C 706.692 -1.30463 -1.37026 0
M  V30 7693 O 706.035 -0.357516 -1.80187 0
M  V30 7694 C 706.097 -3.55783 -0.515632 0
M  V30 7695 C 705.761 -4.52776 0.619937 0
M  V30 7696 C 706.758 -4.98031 1.49201 0
M  V30 7697 C 704.443 -4.95878 0.800618 0
M  V30 7698 C 706.437 -5.85061 2.52947 0
M  V30 7699 C 704.124 -5.82699 1.84135 0
M  V30 7700 C 705.122 -6.27188 2.70416 0
M  V30 7701 O 704.81 -7.12284 3.72702 0
M  V30 7702 H 704.542 -0.675903 -0.011442 0
M  V30 7703 H 707.096 -1.95977 0.614986 0
M  V30 7704 H 705.326 -3.63793 -1.31118 0
M  V30 7705 H 707.015 -3.93087 -1.01179 0
M  V30 7706 H 707.781 -4.65426 1.36395 0
M  V30 7707 H 703.66 -4.60792 0.138617 0
M  V30 7708 H 707.204 -6.19708 3.20325 0
M  V30 7709 H 703.101 -6.14717 1.9696 0
M  V30 7710 H 703.869 -7.30462 3.69281 0
M  V30 7711 N 706.532 -0.168513 -1.56696 0
M  V30 7712 C 707.772 0.479648 -1.98693 0
M  V30 7713 C 708.136 1.60609 -1.05209 0
M  V30 7714 O 709.337 2.3166 -1.36334 0
M  V30 7715 C 707.608 0.952852 -3.44464 0
M  V30 7716 S 709.167 1.60259 -4.08488 0
M  V30 7717 H 705.985 0.154377 -0.694038 0
M  V30 7718 H 708.587 -0.265312 -1.93691 0
M  V30 7719 H 707.291 0.12257 -4.10217 0
M  V30 7720 H 706.822 1.73192 -3.53225 0
M  V30 7721 H 708.837 2.89065 -4.03307 0
M  V30 7722 N 708.01 1.57248 0.105221 0
M  V30 7723 C 708.94 2.04374 1.12931 0
M  V30 7724 C 709.921 0.93074 1.42377 0
M  V30 7725 O 711.106 1.20136 1.52581 0
M  V30 7726 C 708.236 2.45967 2.45189 0
M  V30 7727 C 707.19 3.60838 2.30174 0
M  V30 7728 C 706.516 3.88374 3.67518 0
M  V30 7729 C 707.816 4.92084 1.75073 0
M  V30 7730 H 709.51 2.9018 0.737287 0
M  V30 7731 H 707.056 1.39601 0.353211 0
M  V30 7732 H 709.009 2.77542 3.17094 0
M  V30 7733 H 707.733 1.57148 2.86308 0
M  V30 7734 H 706.392 3.29493 1.60716 0
M  V30 7735 H 706.04 2.96739 4.06147 0
M  V30 7736 H 705.74 4.65703 3.58321 0
M  V30 7737 H 707.264 4.22415 4.40906 0
M  V30 7738 H 708.678 5.22106 2.36809 0
M  V30 7739 H 707.075 5.73507 1.76662 0
M  V30 7740 H 708.145 4.79684 0.709347 0
M  V30 7741 N 709.488 -0.375779 1.53054 0
M  V30 7742 C 710.765 -1.13453 1.59336 0
M  V30 7743 C 711.145 -2.07379 0.394614 0
M  V30 7744 O 710.493 -2.2004 -0.616 0
M  V30 7745 C 710.703 -1.8826 2.93869 0
M  V30 7746 C 712.051 -2.43155 3.48081 0
M  V30 7747 O 713.075 -1.984 2.95831 0
M  V30 7748 O 711.934 -3.24944 4.39401 0
M  V30 7749 H 709.028 -0.519856 0.643179 0
M  V30 7750 H 711.574 -0.379865 1.65394 0
M  V30 7751 H 710.346 -1.19652 3.72558 0
M  V30 7752 H 709.969 -2.70658 2.91256 0
M  V30 7753 N 710.966 -1.44241 -0.634997 0
M  V30 7754 C 711.896 -1.53632 -1.7584 0
M  V30 7755 C 712.877 -0.389603 -1.65578 0
M  V30 7756 O 714.062 -0.609219 -1.84397 0
M  V30 7757 C 711.192 -1.47644 -3.14354 0
M  V30 7758 C 710.146 -2.60752 -3.394 0
M  V30 7759 C 709.472 -2.39817 -4.77904 0
M  V30 7760 C 710.772 -4.02921 -3.32343 0
M  V30 7761 H 712.466 -2.47662 -1.68238 0
M  V30 7762 H 710.012 -1.19197 -0.807969 0
M  V30 7763 H 711.965 -1.52815 -3.92716 0
M  V30 7764 H 710.689 -0.501284 -3.2273 0
M  V30 7765 H 709.348 -2.54965 -2.63417 0
M  V30 7766 H 708.996 -1.40502 -4.82978 0
M  V30 7767 H 708.696 -3.15649 -4.9562 0
M  V30 7768 H 710.22 -2.46799 -5.585 0
M  V30 7769 H 711.634 -4.10098 -4.00615 0
M  V30 7770 H 710.031 -4.78925 -3.61595 0
M  V30 7771 H 711.101 -4.26766 -2.30215 0
M  V30 7772 N 712.444 0.87505 -1.31075 0
M  V30 7773 C 713.374 1.99775 -1.20881 0
M  V30 7774 C 714.355 1.69822 -0.0971612 0
M  V30 7775 O 715.54 1.92158 -0.280895 0
M  V30 7776 C 712.67 3.35163 -0.910118 0
M  V30 7777 C 711.624 3.79406 -1.98078 0
M  V30 7778 C 710.95 5.12197 -1.53488 0
M  V30 7779 C 712.25 3.97061 -3.39323 0
M  V30 7780 H 713.944 2.08562 -2.14808 0
M  V30 7781 H 711.49 1.00207 -1.03415 0
M  V30 7782 H 713.443 4.13237 -0.825423 0
M  V30 7783 H 712.167 3.26536 0.064822 0
M  V30 7784 H 710.826 3.03568 -2.05528 0
M  V30 7785 H 710.474 5.00007 -0.547941 0
M  V30 7786 H 710.174 5.4277 -2.2511 0
M  V30 7787 H 711.698 5.92785 -1.46417 0
M  V30 7788 H 713.112 4.65545 -3.34576 0
M  V30 7789 H 711.509 4.39025 -4.09118 0
M  V30 7790 H 712.579 3.00601 -3.80483 0
M  V30 7791 N 713.922 1.13953 1.08869 0
M  V30 7792 C 714.869 0.82213 2.15661 0
M  V30 7793 C 715.839 -0.218274 1.6466 0
M  V30 7794 O 717.024 -0.0892475 1.90591 0
M  V30 7795 C 714.164 0.300572 3.43789 0
M  V30 7796 C 713.277 1.40071 4.08661 0
M  V30 7797 C 712.412 0.836897 5.24566 0
M  V30 7798 C 711.451 1.91504 5.81371 0
M  V30 7799 N 710.588 1.36875 6.88629 0
M  V30 7800 H 715.428 1.73683 2.42153 0
M  V30 7801 H 712.965 0.866879 1.18843 0
M  V30 7802 H 714.923 -0.0199943 4.17195 0
M  V30 7803 H 713.553 -0.577248 3.17597 0
M  V30 7804 H 712.605 1.83776 3.33062 0
M  V30 7805 H 713.917 2.21534 4.46905 0
M  V30 7806 H 713.071 0.467953 6.04893 0
M  V30 7807 H 711.81 -0.00874207 4.87699 0
M  V30 7808 H 710.815 2.29299 4.99702 0
M  V30 7809 H 712.04 2.76419 6.20298 0
M  V30 7810 H 709.986 0.545211 6.5373 0
M  V30 7811 H 709.903 2.1198 7.25672 0
M  V30 7812 H 711.171 1.02756 7.72698 0
M  V30 7813 N 715.4 -1.26948 0.933913 0
M  V30 7814 C 716.31 -2.30366 0.443671 0
M  V30 7815 C 717.326 -1.67284 -0.478745 0
M  V30 7816 O 718.502 -1.98156 -0.360043 0
M  V30 7817 C 715.567 -3.45485 -0.289974 0
M  V30 7818 C 714.628 -4.24069 0.668114 0
M  V30 7819 C 713.861 -5.33691 -0.0306138 0
M  V30 7820 O 714.084 -5.5656 -1.24888 0
M  V30 7821 O 713.018 -5.98441 0.644384 0
M  V30 7822 H 716.844 -2.74349 1.30254 0
M  V30 7823 H 714.429 -1.32012 0.699506 0
M  V30 7824 H 716.311 -4.15486 -0.70353 0
M  V30 7825 H 714.986 -3.03546 -1.12435 0
M  V30 7826 H 713.893 -3.56579 1.13147 0
M  V30 7827 H 715.226 -4.69739 1.46989 0
M  V30 7828 N 716.879 -0.700114 -1.41195 0
M  V30 7829 C 717.809 -0.0521132 -2.33442 0
M  V30 7830 C 718.79 0.76228 -1.52063 0
M  V30 7831 O 719.975 0.714336 -1.80585 0
M  V30 7832 C 717.105 0.881693 -3.35922 0
M  V30 7833 C 716.059 0.174062 -4.27646 0
M  V30 7834 C 715.385 1.22254 -5.20536 0
M  V30 7835 C 716.685 -0.962396 -5.13357 0
M  V30 7836 H 718.379 -0.822574 -2.87879 0
M  V30 7837 H 715.925 -0.397011 -1.38419 0
M  V30 7838 H 717.878 1.34429 -3.99383 0
M  V30 7839 H 716.602 1.68387 -2.79845 0
M  V30 7840 H 715.261 -0.268551 -3.65615 0
M  V30 7841 H 714.909 2.01736 -4.60773 0
M  V30 7842 H 714.609 0.754038 -5.82742 0
M  V30 7843 H 716.133 1.68555 -5.86874 0
M  V30 7844 H 717.547 -0.579875 -5.7036 0
M  V30 7845 H 715.944 -1.35828 -5.84526 0
M  V30 7846 H 717.014 -1.80003 -4.50252 0
M  V30 7847 N 718.357 1.51182 -0.445186 0
M  V30 7848 C 719.582 2.07056 0.119445 0
M  V30 7849 C 720.007 1.30966 1.35016 0
M  V30 7850 O 719.365 0.349827 1.77893 0
M  V30 7851 C 719.413 3.58234 0.412428 0
M  V30 7852 O 718.517 3.84249 1.49754 0
M  V30 7853 H 717.858 0.663998 -0.00157797 0
M  V30 7854 H 720.388 1.94699 -0.628779 0
M  V30 7855 H 720.398 4.02617 0.660583 0
M  V30 7856 H 719.073 4.13038 -0.487049 0
M  V30 7857 H 717.65 3.51724 1.23873 0
M  V30 7858 N 719.835 0.176821 1.56605 0
M  V30 7859 C 720.783 -0.768159 2.1955 0
M  V30 7860 C 721.777 -1.23343 1.16116 0
M  V30 7861 O 722.983 -1.19844 1.34303 0
M  V30 7862 H 719.358 -0.266013 0.703378 0
M  V30 7863 H 721.329 -0.213374 2.97636 0
M  V30 7864 C 720.078 -1.98492 2.85475 0
M  V30 7865 H 719.401 -1.63595 3.64797 0
M  V30 7866 H 720.841 -2.62489 3.3298 0
M  V30 7867 C 719.3 -2.81207 1.85538 0
M  V30 7868 O 719.83 -3.7854 1.34427 0
M  V30 7869 N 718.036 -2.46331 1.54173 0
M  V30 7870 H 717.583 -1.67241 1.95929 0
M  V30 7871 H 717.541 -3.01961 0.875595 0
M  V30 7872 N 721.313 -1.57302 -0.09688 0
M  V30 7873 C 722.562 -1.85183 -0.799388 0
M  V30 7874 C 722.875 -0.765818 -1.79985 0
M  V30 7875 O 724.081 -0.931696 -2.55013 0
M  V30 7876 C 722.537 -3.28399 -1.47249 0
M  V30 7877 C 722.145 -4.45066 -0.511888 0
M  V30 7878 C 723.889 -3.65506 -2.15883 0
M  V30 7879 C 721.796 -5.79315 -1.18948 0
M  V30 7880 H 720.726 -0.690752 -0.302287 0
M  V30 7881 H 723.377 -1.83425 -0.0523104 0
M  V30 7882 H 721.759 -3.24692 -2.26697 0
M  V30 7883 H 722.933 -4.60116 0.250962 0
M  V30 7884 H 721.248 -4.16343 0.0686576 0
M  V30 7885 H 723.845 -4.63087 -2.67309 0
M  V30 7886 H 724.188 -2.94041 -2.94696 0
M  V30 7887 H 724.721 -3.71094 -1.43298 0
M  V30 7888 H 721.46 -6.54007 -0.442198 0
M  V30 7889 H 720.98 -5.68111 -1.9238 0
M  V30 7890 H 722.659 -6.23816 -1.71646 0
M  V30 7891 N 722.791 0.367657 -1.53252 0
M  V30 7892 C 723.721 1.45632 -1.8252 0
M  V30 7893 C 724.702 1.55979 -0.678568 0
M  V30 7894 O 725.887 1.70581 -0.928217 0
M  V30 7895 C 723.017 2.82994 -2.01325 0
M  V30 7896 C 721.971 2.87473 -3.17086 0
M  V30 7897 C 721.297 4.2749 -3.21179 0
M  V30 7898 C 722.597 2.55182 -4.55719 0
M  V30 7899 H 724.291 1.21387 -2.73689 0
M  V30 7900 H 721.837 0.58251 -1.31692 0
M  V30 7901 H 723.79 3.59179 -2.20383 0
M  V30 7902 H 722.514 3.08622 -1.06864 0
M  V30 7903 H 721.173 2.13739 -2.97844 0
M  V30 7904 H 720.821 4.5019 -2.24361 0
M  V30 7905 H 720.521 4.31403 -3.98955 0
M  V30 7906 H 722.045 5.0555 -3.42419 0
M  V30 7907 H 723.459 3.21081 -4.74953 0
M  V30 7908 H 721.856 2.70414 -5.3572 0
M  V30 7909 H 722.926 1.5044 -4.60973 0
M  V30 7910 N 724.269 1.44576 0.627338 0
M  V30 7911 C 725.517 1.47267 1.38408 0
M  V30 7912 C 725.838 0.107971 1.94701 0
M  V30 7913 O 725.108 -0.860206 1.76004 0
M  V30 7914 H 723.688 0.542276 0.513756 0
M  V30 7915 H 726.35 1.80383 0.738099 0
M  V30 7916 H 725.446 2.20025 2.21349 0
M  V30 7917 N 725.747 -0.868086 1.31537 0
M  V30 7918 C 726.994 -1.62127 1.2133 0
M  V30 7919 C 727.322 -1.93158 -0.2281 0
M  V30 7920 O 726.577 -1.5632 -1.1774 0
M  V30 7921 C 726.876 -2.95889 2.0046 0
M  V30 7922 C 726.542 -2.84343 3.49943 0
M  V30 7923 C 725.204 -2.80901 3.90702 0
M  V30 7924 C 727.556 -2.71243 4.45058 0
M  V30 7925 C 724.884 -2.6222 5.24841 0
M  V30 7926 C 727.236 -2.54098 5.79325 0
M  V30 7927 C 725.9 -2.4904 6.19302 0
M  V30 7928 H 725.17 -0.593265 0.443979 0
M  V30 7929 H 727.817 -1.00803 1.62822 0
M  V30 7930 H 726.122 -3.61259 1.51655 0
M  V30 7931 H 727.819 -3.53161 1.89942 0
M  V30 7932 H 724.409 -2.8784 3.17563 0
M  V30 7933 H 728.593 -2.72956 4.14498 0
M  V30 7934 H 723.849 -2.56731 5.54887 0
M  V30 7935 H 728.023 -2.42938 6.52652 0
M  V30 7936 H 725.65 -2.34324 7.23185 0
M  V30 7937 N 727.225 -1.14528 -1.08264 0
M  V30 7938 C 728.474 -0.908992 -1.80056 0
M  V30 7939 C 728.787 0.565859 -1.87236 0
M  V30 7940 O 729.993 0.919454 -2.55457 0
M  V30 7941 C 728.449 -1.57681 -3.23519 0
M  V30 7942 C 728.057 -3.08803 -3.24569 0
M  V30 7943 C 729.801 -1.4217 -3.99985 0
M  V30 7944 C 727.708 -3.68414 -4.62629 0
M  V30 7945 H 726.638 -0.336432 -0.674781 0
M  V30 7946 H 729.289 -1.37437 -1.21587 0
M  V30 7947 H 727.671 -1.03911 -3.82124 0
M  V30 7948 H 728.845 -3.69252 -2.75663 0
M  V30 7949 H 727.16 -3.23968 -2.61598 0
M  V30 7950 H 729.757 -1.84106 -5.02005 0
M  V30 7951 H 730.1 -0.367989 -4.1467 0
M  V30 7952 H 730.633 -1.92984 -3.47853 0
M  V30 7953 H 727.372 -4.73644 -4.53147 0
M  V30 7954 H 726.892 -3.12746 -5.11811 0
M  V30 7955 H 728.571 -3.68793 -5.31602 0
M  V30 7956 N 728.703 1.26451 -0.940633 0
M  V30 7957 C 729.933 1.97581 -0.603766 0
M  V30 7958 C 730.341 1.70246 0.825395 0
M  V30 7959 O 729.684 0.967001 1.56188 0
M  V30 7960 C 729.746 3.51256 -0.765463 0
M  V30 7961 C 729.41 4.0224 -2.16915 0
M  V30 7962 C 730.407 4.1402 -3.14457 0
M  V30 7963 C 728.092 4.36263 -2.48958 0
M  V30 7964 C 730.086 4.59117 -4.42143 0
M  V30 7965 C 727.773 4.81048 -3.76877 0
M  V30 7966 C 728.771 4.92436 -4.73282 0
M  V30 7967 O 728.459 5.36234 -5.98923 0
M  V30 7968 H 728.191 0.636948 -0.226436 0
M  V30 7969 H 730.745 1.61941 -1.2635 0
M  V30 7970 H 728.975 3.86669 -0.0485956 0
M  V30 7971 H 730.664 4.03597 -0.431738 0
M  V30 7972 H 731.43 3.87981 -2.91026 0
M  V30 7973 H 727.309 4.26634 -1.74656 0
M  V30 7974 H 730.853 4.6792 -5.17394 0
M  V30 7975 H 726.75 5.06531 -4.00121 0
M  V30 7976 H 727.518 5.54456 -6.02097 0
M  V30 7977 N 730.181 0.707592 1.40822 0
M  V30 7978 C 731.458 0.171172 1.9485 0
M  V30 7979 C 731.838 -1.32143 1.64625 0
M  V30 7980 O 731.186 -2.07372 0.959647 0
M  V30 7981 C 731.396 0.475334 3.45748 0
M  V30 7982 C 732.744 0.409625 4.22619 0
M  V30 7983 O 733.768 0.410934 3.53822 0
M  V30 7984 O 732.627 0.380185 5.45176 0
M  V30 7985 H 729.721 0.022015 0.826707 0
M  V30 7986 H 732.267 0.784577 1.50474 0
M  V30 7987 H 731.039 1.50801 3.61075 0
M  V30 7988 H 730.662 -0.168439 3.97243 0
M  V30 7989 N 731.66 -1.50943 0.453197 0
M  V30 7990 C 732.906 -2.02512 -0.108082 0
M  V30 7991 C 733.239 -1.33574 -1.40967 0
M  V30 7992 O 732.514 -0.455671 -1.89087 0
M  V30 7993 C 732.797 -3.58759 -0.310453 0
M  V30 7994 C 732.65 -4.38293 1.0109 0
M  V30 7995 C 733.969 -4.26816 -1.07313 0
M  V30 7996 H 731.088 -0.73603 -0.0378064 0
M  V30 7997 H 733.73 -1.80433 0.595295 0
M  V30 7998 H 731.88 -3.77702 -0.909582 0
M  V30 7999 H 733.552 -4.30964 1.64523 0
M  V30 8000 H 731.795 -4.02745 1.61179 0
M  V30 8001 H 732.466 -5.45828 0.82315 0
M  V30 8002 H 734.942 -4.1224 -0.565473 0
M  V30 8003 H 733.818 -5.35989 -1.1835 0
M  V30 8004 H 734.079 -3.88757 -2.10525 0
M  V30 8005 N 733.138 -0.185124 -1.56509 0
M  V30 8006 C 734.085 0.739729 -2.18624 0
M  V30 8007 C 735.055 1.217 -1.13042 0
M  V30 8008 O 736.24 1.28268 -1.41251 0
M  V30 8009 C 733.38 1.95787 -2.84186 0
M  V30 8010 C 732.493 1.52289 -4.04267 0
M  V30 8011 C 731.628 2.69576 -4.57714 0
M  V30 8012 C 730.667 2.22636 -5.70175 0
M  V30 8013 N 729.804 3.33065 -6.18071 0
M  V30 8014 H 734.644 0.203269 -2.97306 0
M  V30 8015 H 732.181 0.0885946 -1.46833 0
M  V30 8016 H 734.139 2.67253 -3.20361 0
M  V30 8017 H 732.769 2.4678 -2.08085 0
M  V30 8018 H 731.821 0.704458 -3.7382 0
M  V30 8019 H 733.133 1.13843 -4.85635 0
M  V30 8020 H 732.287 3.4918 -4.96143 0
M  V30 8021 H 731.026 3.1129 -3.75433 0
M  V30 8022 H 730.031 1.41483 -5.31284 0
M  V30 8023 H 731.256 1.81964 -6.54267 0
M  V30 8024 H 729.202 3.74328 -5.38715 0
M  V30 8025 H 729.119 2.98756 -6.94464 0
M  V30 8026 H 730.387 4.12912 -6.61153 0
M  V30 8027 N 734.616 1.57351 0.0885366 0
M  V30 8028 C 735.546 2.05561 1.10757 0
M  V30 8029 C 736.527 0.945789 1.41382 0
M  V30 8030 O 737.712 1.21747 1.51299 0
M  V30 8031 C 734.842 2.48554 2.42566 0
M  V30 8032 C 733.796 3.63259 2.26334 0
M  V30 8033 C 733.122 3.9225 3.63378 0
M  V30 8034 C 734.422 4.93913 1.69844 0
M  V30 8035 H 736.116 2.90946 0.706468 0
M  V30 8036 H 733.662 1.39968 0.338385 0
M  V30 8037 H 735.615 2.8089 3.14132 0
M  V30 8038 H 734.339 1.60176 2.84625 0
M  V30 8039 H 732.998 3.31179 1.57213 0
M  V30 8040 H 732.646 3.0103 4.02976 0
M  V30 8041 H 732.346 4.69478 3.53362 0
M  V30 8042 H 733.87 4.27067 4.36401 0
M  V30 8043 H 735.284 5.24588 2.31258 0
M  V30 8044 H 733.681 5.75349 1.70569 0
M  V30 8045 H 734.751 4.80409 0.65843 0
M  V30 8046 N 736.094 -0.359525 1.53444 0
M  V30 8047 C 737.34 -1.10315 1.70172 0
M  V30 8048 C 737.673 -1.88788 0.455287 0
M  V30 8049 O 736.948 -1.86635 -0.547514 0
M  V30 8050 C 737.231 -2.05744 2.95536 0
M  V30 8051 C 737.084 -1.3084 4.3035 0
M  V30 8052 C 738.403 -3.05784 3.16518 0
M  V30 8053 H 735.522 -0.399662 0.619225 0
M  V30 8054 H 738.164 -0.383338 1.86093 0
M  V30 8055 H 736.314 -2.67125 2.82093 0
M  V30 8056 H 737.986 -0.721959 4.55615 0
M  V30 8057 H 736.229 -0.610283 4.29486 0
M  V30 8058 H 736.9 -2.00718 5.14214 0
M  V30 8059 H 739.376 -2.5451 3.29187 0
M  V30 8060 H 738.252 -3.69772 4.05659 0
M  V30 8061 H 738.513 -3.76289 2.32076 0
M  V30 8062 N 737.572 -1.44907 -0.619662 0
M  V30 8063 C 738.983 -1.42905 -1.20146 0
M  V30 8064 C 739.334 -0.150341 -1.95623 0
M  V30 8065 O 738.459 0.748732 -2.03034 0
M  V30 8066 C 739.054 -2.58889 -2.18545 0
M  V30 8067 C 737.613 -2.60046 -2.72127 0
M  V30 8068 C 736.76 -2.3493 -1.4732 0
M  V30 8069 H 739.711 -1.53321 -0.409666 0
M  V30 8070 H 739.732 -2.32298 -3.0136 0
M  V30 8071 H 739.244 -3.51941 -1.63583 0
M  V30 8072 H 737.345 -1.70968 -3.3106 0
M  V30 8073 H 737.458 -3.58893 -3.17384 0
M  V30 8074 H 735.822 -1.84248 -1.75855 0
M  V30 8075 H 736.605 -3.3011 -0.942442 0
M  V30 8076 N 739.05 0.861098 -1.31996 0
M  V30 8077 C 740.327 1.59788 -1.12814 0
M  V30 8078 C 740.707 2.08753 0.313882 0
M  V30 8079 O 740.055 1.87258 1.30946 0
M  V30 8080 C 740.265 2.74901 -2.15012 0
M  V30 8081 C 741.613 3.44643 -2.48004 0
M  V30 8082 O 742.637 2.85119 -2.13508 0
M  V30 8083 O 741.496 4.52044 -3.07113 0
M  V30 8084 H 738.59 0.703408 -0.434909 0
M  V30 8085 H 741.136 0.905788 -1.43505 0
M  V30 8086 H 739.908 2.36198 -3.11971 0
M  V30 8087 H 739.531 3.51792 -1.85279 0
M  V30 8088 N 740.528 1.15101 1.07655 0
M  V30 8089 C 741.776 0.922149 1.79836 0
M  V30 8090 C 742.097 -0.552346 1.87014 0
M  V30 8091 O 741.367 -1.40145 1.3688 0
M  V30 8092 H 739.947 0.338182 0.666064 0
M  V30 8093 H 742.609 1.45107 1.30115 0
M  V30 8094 H 741.705 1.32883 2.82398 0
M  V30 8095 N 742.006 -1.2595 0.947325 0
M  V30 8096 C 742.953 -2.26159 0.460497 0
M  V30 8097 C 743.923 -1.58919 -0.483125 0
M  V30 8098 O 745.108 -1.86603 -0.397983 0
M  V30 8099 C 742.248 -3.441 -0.26247 0
M  V30 8100 C 741.361 -4.25999 0.717539 0
M  V30 8101 C 740.496 -5.31193 -0.0272486 0
M  V30 8102 C 739.535 -6.04774 0.944177 0
M  V30 8103 N 738.672 -7.01721 0.230741 0
M  V30 8104 H 743.512 -2.67173 1.31995 0
M  V30 8105 H 741.049 -1.31358 0.662088 0
M  V30 8106 H 743.007 -4.11317 -0.698137 0
M  V30 8107 H 741.637 -3.03983 -1.08602 0
M  V30 8108 H 740.689 -3.58513 1.27171 0
M  V30 8109 H 742.001 -4.76981 1.45913 0
M  V30 8110 H 741.155 -6.04451 -0.521903 0
M  V30 8111 H 739.894 -4.81066 -0.801682 0
M  V30 8112 H 738.899 -5.30338 1.4499 0
M  V30 8113 H 740.124 -6.56991 1.71872 0
M  V30 8114 H 738.07 -6.53895 -0.525088 0
M  V30 8115 H 737.987 -7.50484 0.911556 0
M  V30 8116 H 739.255 -7.79122 -0.242616 0
M  V30 8117 N 743.484 -0.715051 -1.40445 0
M  V30 8118 C 744.714 -0.263576 -2.04912 0
M  V30 8119 C 745.122 1.09943 -1.53978 0
M  V30 8120 O 744.465 1.70203 -0.691133 0
M  V30 8121 C 744.527 -0.165048 -3.59121 0
M  V30 8122 C 744.191 -1.46325 -4.32941 0
M  V30 8123 C 745.188 -2.40506 -4.60926 0
M  V30 8124 C 742.873 -1.72203 -4.7186 0
M  V30 8125 C 744.867 -3.58812 -5.26814 0
M  V30 8126 C 742.554 -2.9079 -5.3748 0
M  V30 8127 C 743.552 -3.83917 -5.64887 0
M  V30 8128 O 743.24 -5.00424 -6.29151 0
M  V30 8129 H 742.972 -0.116317 -0.665918 0
M  V30 8130 H 745.526 -0.973774 -1.8085 0
M  V30 8131 H 743.756 0.601088 -3.82 0
M  V30 8132 H 745.445 0.251794 -4.05118 0
M  V30 8133 H 746.211 -2.21778 -4.31323 0
M  V30 8134 H 742.09 -1.00571 -4.49896 0
M  V30 8135 H 745.634 -4.31517 -5.48123 0
M  V30 8136 H 741.531 -3.09428 -5.66502 0
M  V30 8137 H 742.299 -5.00494 -6.47648 0
M  V30 8138 N 744.962 1.50701 -0.461195 0
M  V30 8139 C 746.21 2.01867 0.0970051 0
M  V30 8140 C 746.531 1.34591 1.41104 0
M  V30 8141 O 745.801 0.488041 1.89723 0
M  V30 8142 H 744.381 0.74599 0.0388392 0
M  V30 8143 H 747.043 1.85129 -0.609357 0
M  V30 8144 H 746.139 3.11051 0.255688 0
M  V30 8145 N 746.441 0.193421 1.56409 0
M  V30 8146 C 747.404 -0.714371 2.17783 0
M  V30 8147 C 748.404 -1.1422 1.13183 0
M  V30 8148 O 749.594 -1.05557 1.38576 0
M  V30 8149 C 746.726 -1.97509 2.77855 0
M  V30 8150 H 747.919 -0.179714 2.99361 0
M  V30 8151 H 745.472 -0.0561944 1.56199 0
M  V30 8152 H 746.207 -2.5523 2.0007 0
M  V30 8153 H 745.992 -1.67706 3.54425 0
M  V30 8154 H 747.482 -2.62246 3.24987 0
M  V30 8155 N 747.919 -1.57396 -0.0801906 0
M  V30 8156 C 748.851 -1.9982 -1.12271 0
M  V30 8157 C 749.864 -0.902902 -1.35468 0
M  V30 8158 O 751.053 -1.18088 -1.33856 0
M  V30 8159 C 748.153 -2.31476 -2.47532 0
M  V30 8160 C 747.326 -3.62745 -2.44407 0
M  V30 8161 C 746.385 -3.82168 -3.6171 0
M  V30 8162 O 745.411 -4.53852 -3.43522 0
M  V30 8163 N 746.613 -3.2388 -4.81749 0
M  V30 8164 H 749.378 -2.89864 -0.761501 0
M  V30 8165 H 746.939 -1.5965 -0.268965 0
M  V30 8166 H 748.931 -2.4165 -3.24634 0
M  V30 8167 H 747.501 -1.47364 -2.75686 0
M  V30 8168 H 746.721 -3.63403 -1.52747 0
M  V30 8169 H 748.009 -4.48954 -2.39412 0
M  V30 8170 H 747.407 -2.6568 -4.9943 0
M  V30 8171 H 745.964 -3.39515 -5.56392 0
M  V30 8172 N 749.397 0.351382 -1.53633 0
M  V30 8173 C 750.345 1.45142 -1.8176 0
M  V30 8174 C 751.339 1.54819 -0.687571 0
M  V30 8175 O 752.545 1.57536 -0.870772 0
M  V30 8176 H 748.92 0.483789 -0.575719 0
M  V30 8177 H 750.891 1.1863 -2.73806 0
M  V30 8178 C 749.64 2.81779 -2.03706 0
M  V30 8179 H 748.963 2.75097 -2.90107 0
M  V30 8180 H 750.403 3.5789 -2.27356 0
M  V30 8181 C 748.862 3.26762 -0.820271 0
M  V30 8182 O 749.392 4.01697 -0.0158603 0
M  V30 8183 N 747.598 2.83472 -0.639699 0
M  V30 8184 H 747.145 2.22655 -1.29547 0
M  V30 8185 H 747.103 3.13924 0.172995 0
M  V30 8186 N 750.875 1.45233 0.611969 0
M  V30 8187 C 752.152 1.39495 1.37115 0
M  V30 8188 C 752.532 0.0633303 2.11005 0
M  V30 8189 O 751.88 -0.954617 2.07604 0
M  V30 8190 C 752.09 2.60579 2.32163 0
M  V30 8191 C 753.438 3.05477 2.94905 0
M  V30 8192 O 754.462 2.60921 2.42485 0
M  V30 8193 O 753.321 3.82787 3.90047 0
M  V30 8194 H 750.415 0.55335 0.614599 0
M  V30 8195 H 752.961 1.57355 0.635423 0
M  V30 8196 H 751.733 3.49085 1.76793 0
M  V30 8197 H 751.356 2.45031 3.13122 0
M  V30 8198 N 752.353 -0.854086 1.3245 0
M  V30 8199 C 753.3 -1.96271 1.21434 0
M  V30 8200 C 754.27 -1.6582 0.0963851 0
M  V30 8201 O 755.455 -1.88851 0.27203 0
M  V30 8202 C 752.595 -3.31939 0.943952 0
M  V30 8203 C 751.708 -3.74885 2.14675 0
M  V30 8204 C 750.843 -4.99347 1.81179 0
M  V30 8205 C 749.882 -5.34785 2.97777 0
M  V30 8206 N 749.019 -6.50425 2.6437 0
M  V30 8207 H 753.859 -2.05025 2.16261 0
M  V30 8208 H 751.396 -1.00348 1.07558 0
M  V30 8209 H 753.354 -4.10076 0.767675 0
M  V30 8210 H 751.984 -3.22784 0.0324763 0
M  V30 8211 H 751.036 -2.92396 2.43328 0
M  V30 8212 H 752.348 -3.97068 3.01891 0
M  V30 8213 H 751.502 -5.85193 1.60107 0
M  V30 8214 H 750.241 -4.79101 0.911777 0
M  V30 8215 H 749.246 -4.47451 3.1948 0
M  V30 8216 H 750.471 -5.56988 3.88511 0
M  V30 8217 H 748.417 -6.31695 1.7691 0
M  V30 8218 H 748.334 -6.7263 3.45116 0
M  V30 8219 H 749.602 -7.39422 2.46729 0
M  V30 8220 N 753.831 -1.1567 -1.07043 0
M  V30 8221 C 755.079 -0.931673 -1.79344 0
M  V30 8222 C 755.4 0.542421 -1.87304 0
M  V30 8223 O 754.67 1.39418 -1.37621 0
M  V30 8224 H 753.25 -0.34171 -0.664262 0
M  V30 8225 H 755.912 -1.45795 -1.29344 0
M  V30 8226 H 755.008 -1.34379 -2.81689 0
M  V30 8227 N 755.309 1.25446 -0.953992 0
M  V30 8228 C 756.219 2.29632 -0.480264 0
M  V30 8229 C 757.235 1.68025 0.452071 0
M  V30 8230 O 758.411 1.98703 0.328472 0
M  V30 8231 C 755.476 3.45903 0.234974 0
M  V30 8232 C 754.537 4.22953 -0.735495 0
M  V30 8233 C 753.77 5.33672 -0.0542957 0
M  V30 8234 O 753.993 5.58477 1.16018 0
M  V30 8235 O 752.927 5.9734 -0.739509 0
M  V30 8236 H 756.753 2.72242 -1.34602 0
M  V30 8237 H 754.338 1.30883 -0.720419 0
M  V30 8238 H 756.22 4.16552 0.637341 0
M  V30 8239 H 754.895 3.05296 1.07592 0
M  V30 8240 H 753.802 3.54734 -1.18806 0
M  V30 8241 H 755.135 4.67341 -1.54444 0
M  V30 8242 N 756.787 0.722489 1.40064 0
M  V30 8243 C 758.033 0.27422 2.01543 0
M  V30 8244 C 758.388 -1.12224 1.5628 0
M  V30 8245 O 757.681 -1.75179 0.776063 0
M  V30 8246 C 757.875 0.300682 3.56133 0
M  V30 8247 C 757.704 1.69818 4.16404 0
M  V30 8248 C 756.474 2.30747 4.49537 0
M  V30 8249 C 758.672 2.64962 4.40794 0
M  V30 8250 N 756.654 3.62781 4.9524 0
M  V30 8251 C 758.025 3.81712 4.88565 0
M  V30 8252 C 760.08 2.62885 4.22842 0
M  V30 8253 C 758.783 4.96703 5.20268 0
M  V30 8254 C 760.809 3.77009 4.55652 0
M  V30 8255 C 760.171 4.92492 5.03618 0
M  V30 8256 H 756.27 0.146328 0.768188 0
M  V30 8257 H 758.854 0.94577 1.70186 0
M  V30 8258 H 757.025 -0.340461 3.86905 0
M  V30 8259 H 758.757 -0.164951 4.04364 0
M  V30 8260 H 755.512 1.82783 4.36907 0
M  V30 8261 H 755.936 4.30533 5.22465 0
M  V30 8262 H 760.578 1.74803 3.84972 0
M  V30 8263 H 758.296 5.85425 5.57049 0
M  V30 8264 H 761.882 3.76685 4.43396 0
M  V30 8265 H 760.762 5.79336 5.28525 0
M  V30 8266 N 758.265 -1.50454 0.469181 0
M  V30 8267 C 759.213 -2.30101 -0.340033 0
M  V30 8268 C 760.207 -1.37306 -0.992135 0
M  V30 8269 O 761.413 -1.54506 -0.923458 0
M  V30 8270 H 757.788 -0.740941 -0.128495 0
M  V30 8271 H 759.759 -2.96315 0.352144 0
M  V30 8272 C 758.508 -3.17804 -1.41052 0
M  V30 8273 H 757.831 -3.89115 -0.918124 0
M  V30 8274 H 759.271 -3.76533 -1.94934 0
M  V30 8275 C 757.73 -2.35272 -2.4114 0
M  V30 8276 O 758.26 -2.03448 -3.4637 0
M  V30 8277 N 756.466 -1.97889 -2.1281 0
M  V30 8278 H 756.013 -2.2397 -1.27261 0
M  V30 8279 H 755.971 -1.42971 -2.80012 0
M  V30 8280 N 759.743 -0.201713 -1.56304 0
M  V30 8281 C 760.991 0.434447 -1.97375 0
M  V30 8282 C 761.312 1.61692 -1.08998 0
M  V30 8283 O 760.582 1.95223 -0.162682 0
M  V30 8284 H 759.162 0.163497 -0.728888 0
M  V30 8285 H 761.824 -0.289988 -1.92731 0
M  V30 8286 H 760.92 0.774136 -3.02347 0
M  V30 8287 N 761.222 1.57436 0.0718424 0
M  V30 8288 C 762.155 1.98982 1.11721 0
M  V30 8289 C 763.133 0.866731 1.37574 0
M  V30 8290 O 764.317 1.12903 1.50948 0
M  V30 8291 C 761.444 2.32648 2.46155 0
M  V30 8292 C 760.49 3.54964 2.36437 0
M  V30 8293 S 761.323 5.05802 1.75854 0
M  V30 8294 C 762.479 5.42669 3.11867 0
M  V30 8295 H 762.712 2.87338 0.763154 0
M  V30 8296 H 760.245 1.51833 0.280372 0
M  V30 8297 H 762.203 2.52719 3.23486 0
M  V30 8298 H 760.864 1.44821 2.78722 0
M  V30 8299 H 760.057 3.76038 3.35577 0
M  V30 8300 H 759.659 3.34524 1.67242 0
M  V30 8301 H 761.951 5.40737 4.08178 0
M  V30 8302 H 762.894 6.43461 2.95573 0
M  V30 8303 H 763.302 4.70131 3.1247 0
M  V30 8304 N 762.7 -0.34323 1.53817 0
M  V30 8305 C 763.946 -1.08504 1.71332 0
M  V30 8306 C 764.279 -1.88294 0.475285 0
M  V30 8307 O 763.554 -1.87205 -0.527688 0
M  V30 8308 C 763.837 -2.02597 2.97702 0
M  V30 8309 C 763.69 -1.26268 4.31713 0
M  V30 8310 C 765.009 -3.0241 3.19744 0
M  V30 8311 H 762.128 -0.393072 0.623429 0
M  V30 8312 H 764.77 -0.363579 1.86489 0
M  V30 8313 H 762.92 -2.64118 2.8491 0
M  V30 8314 H 764.592 -0.673594 4.56356 0
M  V30 8315 H 762.835 -0.564696 4.30109 0
M  V30 8316 H 763.506 -1.95253 5.16314 0
M  V30 8317 H 765.982 -2.51004 3.31868 0
M  V30 8318 H 764.858 -3.65449 4.09558 0
M  V30 8319 H 765.119 -3.73806 2.36054 0
M  V30 8320 N 764.178 -1.45556 -0.604258 0
M  V30 8321 C 765.125 -1.54482 -1.71476 0
M  V30 8322 C 766.095 -0.390479 -1.61445 0
M  V30 8323 O 767.28 -0.604371 -1.80975 0
M  V30 8324 C 764.42 -1.52064 -3.09791 0
M  V30 8325 C 763.533 -2.78073 -3.30604 0
M  V30 8326 C 762.668 -2.67304 -4.59044 0
M  V30 8327 C 761.707 -3.88352 -4.73127 0
M  V30 8328 N 760.844 -3.76098 -5.9287 0
M  V30 8329 H 765.684 -2.49349 -1.63184 0
M  V30 8330 H 763.221 -1.23725 -0.795641 0
M  V30 8331 H 765.179 -1.48649 -3.89819 0
M  V30 8332 H 763.809 -0.607442 -3.17033 0
M  V30 8333 H 762.861 -2.91561 -2.44329 0
M  V30 8334 H 764.173 -3.67847 -3.36883 0
M  V30 8335 H 763.327 -2.61875 -5.47272 0
M  V30 8336 H 762.066 -1.75135 -4.55169 0
M  V30 8337 H 761.071 -3.94137 -3.83322 0
M  V30 8338 H 762.296 -4.81591 -4.78797 0
M  V30 8339 H 760.242 -2.867 -5.90033 0
M  V30 8340 H 760.159 -4.59509 -6.00323 0
M  V30 8341 H 761.427 -3.74607 -6.83586 0
M  V30 8342 N 765.656 0.84705 -1.32902 0
M  V30 8343 C 766.566 1.98845 -1.2449 0
M  V30 8344 C 767.582 1.7329 -0.15702 0
M  V30 8345 O 768.758 1.978 -0.379104 0
M  V30 8346 C 765.823 3.32679 -0.975985 0
M  V30 8347 C 764.884 3.71405 -2.15306 0
M  V30 8348 C 764.117 4.98853 -1.89688 0
M  V30 8349 O 764.34 5.64134 -0.843168 0
M  V30 8350 O 763.274 5.34889 -2.76002 0
M  V30 8351 H 767.1 2.0888 -2.2046 0
M  V30 8352 H 764.685 0.978852 -1.12867 0
M  V30 8353 H 766.567 4.12885 -0.842826 0
M  V30 8354 H 765.242 3.23667 -0.0464954 0
M  V30 8355 H 764.149 2.91743 -2.34172 0
M  V30 8356 H 765.482 3.85073 -3.06561 0
M  V30 8357 N 767.134 1.16236 1.06428 0
M  V30 8358 C 768.064 0.890807 2.1584 0
M  V30 8359 C 769.045 -0.162333 1.69324 0
M  V30 8360 O 770.23 -0.0147191 1.94194 0
M  V30 8361 C 767.36 0.389615 3.45108 0
M  V30 8362 C 766.314 1.38051 4.05125 0
M  V30 8363 C 765.64 0.737773 5.29586 0
M  V30 8364 C 766.94 2.74965 4.44062 0
M  V30 8365 H 768.634 1.80577 2.38814 0
M  V30 8366 H 766.18 0.869657 1.14774 0
M  V30 8367 H 768.133 0.187127 4.20984 0
M  V30 8368 H 766.857 -0.560851 3.21748 0
M  V30 8369 H 765.516 1.56952 3.31303 0
M  V30 8370 H 765.164 -0.219135 5.02522 0
M  V30 8371 H 764.864 1.39914 5.70699 0
M  V30 8372 H 766.388 0.545275 6.0816 0
M  V30 8373 H 767.802 2.59855 5.11027 0
M  V30 8374 H 766.199 3.37563 4.96156 0
M  V30 8375 H 767.269 3.30321 3.54987 0
M  V30 8376 N 768.612 -1.24939 0.960631 0
M  V30 8377 C 769.861 -1.92118 0.614298 0
M  V30 8378 C 770.174 -1.75998 -0.853474 0
M  V30 8379 O 771.38 -2.37804 -1.31003 0
M  V30 8380 C 769.836 -3.44303 1.04801 0
M  V30 8381 C 769.444 -3.69123 2.53875 0
M  V30 8382 C 771.188 -4.17375 0.774497 0
M  V30 8383 C 769.095 -5.14843 2.91016 0
M  V30 8384 H 768.025 -0.719319 0.226045 0
M  V30 8385 H 770.676 -1.41701 1.16589 0
M  V30 8386 H 769.058 -3.93715 0.42479 0
M  V30 8387 H 770.232 -3.30339 3.21267 0
M  V30 8388 H 768.547 -3.09323 2.78762 0
M  V30 8389 H 771.144 -5.24723 1.02808 0
M  V30 8390 H 771.487 -4.15294 -0.289192 0
M  V30 8391 H 772.02 -3.7389 1.35835 0
M  V30 8392 H 768.759 -5.2204 3.96427 0
M  V30 8393 H 768.279 -5.54652 2.28302 0
M  V30 8394 H 769.958 -5.83017 2.80535 0
M  V30 8395 N 770.09 -0.729906 -1.39679 0
M  V30 8396 C 771.367 -0.202149 -1.94553 0
M  V30 8397 C 771.747 1.29507 -1.66707 0
M  V30 8398 O 771.095 2.05819 -0.992517 0
M  V30 8399 C 771.305 -0.530279 -3.44948 0
M  V30 8400 C 772.653 -0.476808 -4.21914 0
M  V30 8401 O 773.677 -0.467171 -3.53123 0
M  V30 8402 O 772.536 -0.466869 -5.44502 0
M  V30 8403 H 769.63 -0.0351644 -0.826252 0
M  V30 8404 H 772.176 -0.808417 -1.49207 0
M  V30 8405 H 770.948 -1.56526 -3.5863 0
M  V30 8406 H 770.571 0.10522 -3.97461 0
M  V30 8407 N 771.568 1.50203 -0.477153 0
M  V30 8408 C 772.518 2.25561 0.332625 0
M  V30 8409 C 773.502 1.29401 0.956249 0
M  V30 8410 O 774.694 1.54267 0.867795 0
M  V30 8411 C 771.823 3.12984 1.41052 0
M  V30 8412 C 770.909 4.16595 0.79433 0
M  V30 8413 N 771.3 5.05722 -0.0889633 0
M  V30 8414 C 769.598 4.33279 1.0576 0
M  V30 8415 C 770.299 5.80039 -0.439286 0
M  V30 8416 N 769.275 5.43278 0.187018 0
M  V30 8417 H 773.077 2.91836 -0.347718 0
M  V30 8418 H 770.591 1.59759 -0.291686 0
M  V30 8419 H 772.588 3.65582 2.00388 0
M  V30 8420 H 771.248 2.48258 2.09279 0
M  V30 8421 H 772.259 5.15869 -0.458205 0
M  V30 8422 H 768.936 3.79769 1.7344 0
M  V30 8423 H 770.326 6.61802 -1.1605 0
M  V30 8424 N 773.046 0.209999 1.56195 0
M  V30 8425 C 774.462 -0.145598 1.58934 0
M  V30 8426 C 774.662 -1.59868 1.22656 0
M  V30 8427 O 773.718 -2.33689 0.956336 0
M  V30 8428 C 775.031 0.170243 3.00218 0
M  V30 8429 C 776.579 0.111548 3.12801 0
M  V30 8430 C 777.054 0.400904 4.56242 0
M  V30 8431 N 778.545 0.350058 4.61875 0
M  V30 8432 C 779.28 0.547598 5.70779 0
M  V30 8433 N 778.776 0.806291 6.88092 0
M  V30 8434 N 780.569 0.480827 5.6004 0
M  V30 8435 H 772.72 1.15804 1.78054 0
M  V30 8436 H 774.983 0.463326 0.827063 0
M  V30 8437 H 774.689 1.17833 3.31373 0
M  V30 8438 H 774.563 -0.520208 3.73596 0
M  V30 8439 H 776.95 -0.887162 2.81449 0
M  V30 8440 H 777.031 0.835302 2.41777 0
M  V30 8441 H 776.675 1.397 4.8831 0
M  V30 8442 H 776.605 -0.34391 5.25476 0
M  V30 8443 H 779.096 0.157334 3.77572 0
M  V30 8444 H 779.409 0.945433 7.66995 0
M  V30 8445 H 777.754 0.843355 6.89864 0
M  V30 8446 H 780.945 0.279037 4.67268 0
M  V30 8447 H 781.118 0.638189 6.4485 0
M  V30 8448 N 774.524 -1.57472 -0.0634922 0
M  V30 8449 C 775.487 -2.03268 -1.059 0
M  V30 8450 C 776.487 -0.931028 -1.31105 0
M  V30 8451 O 777.677 -1.19567 -1.26686 0
M  V30 8452 C 774.809 -2.42039 -2.40062 0
M  V30 8453 H 776.002 -2.92454 -0.664119 0
M  V30 8454 H 773.555 -1.53206 -0.309444 0
M  V30 8455 H 774.29 -1.55904 -2.84367 0
M  V30 8456 H 774.075 -3.22437 -2.23108 0
M  V30 8457 H 775.565 -2.78017 -3.11603 0
M  V30 8458 N 776.003 0.335068 -1.53997 0
M  V30 8459 C 777.28 1.09188 -1.62288 0
M  V30 8460 C 777.66 2.0626 -0.449458 0
M  V30 8461 O 777.008 2.21596 0.557444 0
M  V30 8462 C 777.218 1.80403 -2.98757 0
M  V30 8463 C 778.566 2.33841 -3.54406 0
M  V30 8464 O 779.59 1.90487 -3.00987 0
M  V30 8465 O 778.449 3.1318 -4.47862 0
M  V30 8466 H 775.543 0.502621 -0.656736 0
M  V30 8467 H 778.089 0.33588 -1.66343 0
M  V30 8468 H 776.861 1.09732 -3.75599 0
M  V30 8469 H 776.484 2.62841 -2.9833 0
M  V30 8470 N 777.481 1.45874 0.596531 0
M  V30 8471 C 778.411 1.5824 1.71705 0
M  V30 8472 C 779.392 0.433366 1.64487 0
M  V30 8473 O 780.577 0.657895 1.82717 0
M  V30 8474 C 777.707 1.55927 3.10329 0
M  V30 8475 C 776.661 2.69659 3.32367 0
M  V30 8476 C 775.987 2.52403 4.71377 0
M  V30 8477 C 777.287 4.11591 3.21544 0
M  V30 8478 H 778.981 2.52035 1.61613 0
M  V30 8479 H 776.527 1.21297 0.776082 0
M  V30 8480 H 778.48 1.63173 3.88526 0
M  V30 8481 H 777.204 0.586674 3.21288 0
M  V30 8482 H 775.863 2.61859 2.56564 0
M  V30 8483 H 775.511 1.53258 4.79083 0
M  V30 8484 H 775.211 3.28679 4.87077 0
M  V30 8485 H 776.735 2.6152 5.5176 0
M  V30 8486 H 778.149 4.20576 3.89601 0
M  V30 8487 H 776.546 4.88344 3.4877 0
M  V30 8488 H 777.616 4.32719 2.1882 0
M  V30 8489 N 778.959 -0.83999 1.33349 0
M  V30 8490 C 779.922 -1.93128 1.23426 0
M  V30 8491 C 780.922 -1.60065 0.153599 0
M  V30 8492 O 782.112 -1.69425 0.405049 0
M  V30 8493 C 779.244 -3.28761 0.901622 0
M  V30 8494 H 780.437 -2.03352 2.20427 0
M  V30 8495 H 777.99 -1.03194 1.17391 0
M  V30 8496 H 778.725 -3.24233 -0.0659337 0
M  V30 8497 H 778.51 -3.54138 1.68311 0
M  V30 8498 H 780 -4.08714 0.856913 0
M  V30 8499 N 780.437 -1.16799 -1.0581 0
M  V30 8500 C 781.683 -0.953935 -1.78963 0
M  V30 8501 C 782.016 0.516638 -1.87202 0
M  V30 8502 O 781.291 1.38338 -1.36721 0
M  V30 8503 C 781.574 -1.58808 -3.23191 0
M  V30 8504 C 781.427 -3.13032 -3.23003 0
M  V30 8505 C 782.746 -1.2868 -4.20867 0
M  V30 8506 H 779.865 -0.347972 -0.64968 0
M  V30 8507 H 782.507 -1.44204 -1.23715 0
M  V30 8508 H 780.657 -1.17303 -3.70368 0
M  V30 8509 H 782.329 -3.63553 -2.83949 0
M  V30 8510 H 780.572 -3.46108 -2.61518 0
M  V30 8511 H 781.243 -3.52527 -4.24769 0
M  V30 8512 H 783.719 -1.6461 -3.82155 0
M  V30 8513 H 782.595 -1.75645 -5.20038 0
M  V30 8514 H 782.856 -0.206491 -4.41618 0
M  V30 8515 N 781.915 1.24427 -0.967243 0
M  V30 8516 C 782.878 2.23637 -0.501927 0
M  V30 8517 C 783.878 1.55712 0.401283 0
M  V30 8518 O 785.068 1.73085 0.196808 0
M  V30 8519 C 782.2 3.39804 0.273176 0
M  V30 8520 H 783.393 2.66317 -1.37897 0
M  V30 8521 H 780.946 1.37033 -0.751783 0
M  V30 8522 H 781.681 3.02562 1.16733 0
M  V30 8523 H 781.466 3.90303 -0.37498 0
M  V30 8524 H 782.956 4.13443 0.587776 0
M  V30 8525 N 783.393 0.737304 1.3929 0
M  V30 8526 C 784.804 0.355966 1.83275 0
M  V30 8527 C 785.155 -1.11295 1.6158 0
M  V30 8528 O 784.28 -1.85871 1.10819 0
M  V30 8529 C 784.875 0.63931 3.32713 0
M  V30 8530 C 783.434 0.31144 3.75109 0
M  V30 8531 C 782.581 0.900765 2.62262 0
M  V30 8532 H 785.532 0.934763 1.28249 0
M  V30 8533 H 785.553 -0.0881293 3.80398 0
M  V30 8534 H 785.065 1.70847 3.48472 0
M  V30 8535 H 783.166 -0.751791 3.64937 0
M  V30 8536 H 783.279 0.795611 4.72448 0
M  V30 8537 H 781.643 0.327239 2.52589 0
M  V30 8538 H 782.426 1.97463 2.80826 0
M  V30 8539 N 784.871 -1.49948 0.485112 0
M  V30 8540 C 785.801 -2.31675 -0.291364 0
M  V30 8541 C 786.782 -1.39216 -0.977383 0
M  V30 8542 O 787.967 -1.68133 -0.971855 0
M  V30 8543 C 785.097 -3.19326 -1.36558 0
M  V30 8544 C 784.051 -4.2045 -0.800359 0
M  V30 8545 C 783.377 -4.96931 -1.97391 0
M  V30 8546 C 784.677 -5.21925 0.197867 0
M  V30 8547 H 786.371 -2.96839 0.390775 0
M  V30 8548 H 783.917 -1.42749 0.189375 0
M  V30 8549 H 785.87 -3.75304 -1.91638 0
M  V30 8550 H 784.594 -2.52074 -2.07668 0
M  V30 8551 H 783.253 -3.65594 -0.271428 0
M  V30 8552 H 782.901 -4.26141 -2.67232 0
M  V30 8553 H 782.601 -5.65344 -1.60187 0
M  V30 8554 H 784.125 -5.55749 -2.52935 0
M  V30 8555 H 785.539 -5.72691 -0.264239 0
M  V30 8556 H 783.936 -5.98138 0.484908 0
M  V30 8557 H 785.006 -4.71809 1.11912 0
M  V30 8558 N 786.349 -0.21828 -1.56081 0
M  V30 8559 C 787.577 0.419258 -2.02608 0
M  V30 8560 C 787.992 1.53578 -1.09814 0
M  V30 8561 O 787.349 1.82185 -0.107149 0
M  V30 8562 C 787.4 0.953955 -3.48686 0
M  V30 8563 O 787.121 -0.11805 -4.37941 0
M  V30 8564 C 788.622 1.66506 -4.10841 0
M  V30 8565 H 785.842 0.10296 -0.663054 0
M  V30 8566 H 788.386 -0.333776 -2.01758 0
M  V30 8567 H 786.541 1.65727 -3.50162 0
M  V30 8568 H 786.955 0.283359 -5.23734 0
M  V30 8569 H 788.429 1.99123 -5.14834 0
M  V30 8570 H 788.906 2.57705 -3.55647 0
M  V30 8571 H 789.512 1.00703 -4.13206 0
M  V30 8572 N 787.827 1.57504 0.0551401 0
M  V30 8573 C 789.076 1.87237 0.750009 0
M  V30 8574 C 789.389 0.813268 1.77891 0
M  V30 8575 O 790.595 0.99898 2.52453 0
M  V30 8576 C 789.051 3.32187 1.38491 0
M  V30 8577 C 788.659 4.46267 0.393707 0
M  V30 8578 C 790.403 3.71101 2.06117 0
M  V30 8579 C 788.31 5.82265 1.03547 0
M  V30 8580 H 787.24 0.698524 0.283866 0
M  V30 8581 H 789.891 1.835 0.00365997 0
M  V30 8582 H 788.273 3.30588 2.18008 0
M  V30 8583 H 789.447 4.59289 -0.372865 0
M  V30 8584 H 787.762 4.16015 -0.17902 0
M  V30 8585 H 790.359 4.70012 2.54937 0
M  V30 8586 H 790.702 3.01751 2.86796 0
M  V30 8587 H 791.235 3.74762 1.33409 0
M  V30 8588 H 787.974 6.54949 0.268644 0
M  V30 8589 H 787.494 5.73012 1.7725 0
M  V30 8590 H 789.173 6.28148 1.55047 0
M  V30 8591 N 789.305 -0.326896 1.54172 0
M  V30 8592 C 790.533 -1.08486 1.76177 0
M  V30 8593 C 790.948 -1.81815 0.508788 0
M  V30 8594 O 790.305 -1.74924 -0.520362 0
M  V30 8595 C 790.356 -2.08552 2.95276 0
M  V30 8596 O 790.077 -1.38202 4.15731 0
M  V30 8597 C 791.578 -2.96593 3.29466 0
M  V30 8598 H 788.798 -0.322835 0.588233 0
M  V30 8599 H 791.342 -0.374036 2.0105 0
M  V30 8600 H 789.497 -2.75174 2.72687 0
M  V30 8601 H 789.911 -2.05186 4.827 0
M  V30 8602 H 791.385 -3.62708 4.16109 0
M  V30 8603 H 791.862 -3.63511 2.46487 0
M  V30 8604 H 792.468 -2.35537 3.54122 0
M  V30 8605 N 790.784 -1.46188 -0.588786 0
M  V30 8606 C 792.014 -1.54519 -1.3714 0
M  V30 8607 C 792.422 -0.183075 -1.88312 0
M  V30 8608 O 791.765 0.828815 -1.6394 0
M  V30 8609 C 791.827 -2.48426 -2.59856 0
M  V30 8610 C 791.491 -3.94791 -2.30193 0
M  V30 8611 C 792.488 -4.84173 -1.894 0
M  V30 8612 C 790.173 -4.39872 -2.42525 0
M  V30 8613 C 792.167 -6.16647 -1.61325 0
M  V30 8614 C 789.854 -5.72381 -2.14063 0
M  V30 8615 C 790.852 -6.60589 -1.73527 0
M  V30 8616 O 790.54 -7.9064 -1.4541 0
M  V30 8617 H 790.272 -0.525264 -0.425527 0
M  V30 8618 H 792.826 -1.92242 -0.723344 0
M  V30 8619 H 791.056 -2.05709 -3.27446 0
M  V30 8620 H 792.745 -2.4723 -3.21919 0
M  V30 8621 H 793.511 -4.50603 -1.79393 0
M  V30 8622 H 789.39 -3.71444 -2.7304 0
M  V30 8623 H 792.934 -6.85454 -1.29611 0
M  V30 8624 H 788.831 -6.05501 -2.23693 0
M  V30 8625 H 789.599 -8.02847 -1.59306 0
M  V30 8626 N 792.262 0.832906 -1.33792 0
M  V30 8627 C 793.508 1.59089 -1.25772 0
M  V30 8628 C 793.841 1.93414 0.174601 0
M  V30 8629 O 793.116 1.59195 1.11746 0
M  V30 8630 C 793.399 2.89699 -2.13885 0
M  V30 8631 C 793.252 2.62017 -3.65605 0
M  V30 8632 C 794.571 3.91182 -2.01654 0
M  V30 8633 H 791.69 0.577232 -0.458227 0
M  V30 8634 H 794.332 0.960227 -1.6395 0
M  V30 8635 H 792.482 3.4352 -1.81456 0
M  V30 8636 H 794.154 2.14582 -4.08353 0
M  V30 8637 H 792.397 1.95621 -3.87189 0
M  V30 8638 H 793.068 3.55112 -4.2261 0
M  V30 8639 H 795.544 3.46684 -2.30107 0
M  V30 8640 H 794.42 4.80391 -2.65548 0
M  V30 8641 H 794.681 4.30861 -0.990536 0
M  V30 8642 N 793.74 1.17359 1.05189 0
M  V30 8643 C 795.156 0.920861 1.30355 0
M  V30 8644 C 795.356 -0.419993 1.97074 0
M  V30 8645 O 794.412 -1.15696 2.24434 0
M  V30 8646 C 795.725 2.07818 2.1733 0
M  V30 8647 C 797.273 2.1152 2.30712 0
M  V30 8648 C 797.748 3.26637 3.21048 0
M  V30 8649 N 799.239 3.26426 3.28634 0
M  V30 8650 C 799.974 4.12141 3.98657 0
M  V30 8651 N 799.47 5.07966 4.71107 0
M  V30 8652 N 801.263 4.00091 3.94821 0
M  V30 8653 H 793.414 2.03666 0.602821 0
M  V30 8654 H 795.677 0.889294 0.328421 0
M  V30 8655 H 795.383 3.04727 1.75597 0
M  V30 8656 H 795.257 2.02922 3.17966 0
M  V30 8657 H 797.644 1.15196 2.71687 0
M  V30 8658 H 797.725 2.20477 1.29706 0
M  V30 8659 H 797.369 4.23227 2.80788 0
M  V30 8660 H 797.299 3.14917 4.2206 0
M  V30 8661 H 799.79 2.57045 2.77013 0
M  V30 8662 H 800.103 5.69766 5.22099 0
M  V30 8663 H 798.448 5.11936 4.7005 0
M  V30 8664 H 801.639 3.24523 3.37346 0
M  V30 8665 H 801.812 4.6711 4.49123 0
M  V30 8666 N 795.218 -1.23913 0.973828 0
M  V30 8667 C 796.128 -2.28838 0.516735 0
M  V30 8668 C 797.144 -1.68723 -0.425282 0
M  V30 8669 O 798.32 -1.99201 -0.296819 0
M  V30 8670 C 795.385 -3.46233 -0.179914 0
M  V30 8671 C 794.446 -4.21729 0.80269 0
M  V30 8672 C 793.679 -5.33518 0.139191 0
M  V30 8673 O 793.902 -5.60252 -1.07118 0
M  V30 8674 O 792.836 -5.96088 0.834447 0
M  V30 8675 H 796.662 -2.70067 1.38916 0
M  V30 8676 H 794.247 -1.2972 0.74115 0
M  V30 8677 H 796.129 -4.17514 -0.570991 0
M  V30 8678 H 794.804 -3.06969 -1.02721 0
M  V30 8679 H 793.711 -3.52799 1.24434 0
M  V30 8680 H 795.044 -4.64825 1.61859 0
M  V30 8681 N 796.696 -0.74468 -1.38897 0
M  V30 8682 C 797.643 -0.111064 -2.30533 0
M  V30 8683 C 798.613 0.719276 -1.49719 0
M  V30 8684 O 799.798 0.677244 -1.78376 0
M  V30 8685 C 796.938 0.78292 -3.36102 0
M  V30 8686 C 796.051 -0.0610817 -4.31957 0
M  V30 8687 C 795.186 0.835075 -5.24595 0
M  V30 8688 C 794.225 -0.0130974 -6.12099 0
M  V30 8689 N 793.362 0.839525 -6.97063 0
M  V30 8690 H 798.202 -0.898113 -2.84144 0
M  V30 8691 H 795.739 -0.454537 -1.39901 0
M  V30 8692 H 797.697 1.31578 -3.95908 0
M  V30 8693 H 796.327 1.53585 -2.83922 0
M  V30 8694 H 795.379 -0.711469 -3.73687 0
M  V30 8695 H 796.691 -0.716482 -4.93627 0
M  V30 8696 H 795.845 1.43542 -5.89475 0
M  V30 8697 H 794.584 1.52423 -4.63269 0
M  V30 8698 H 793.589 -0.626179 -5.46223 0
M  V30 8699 H 794.814 -0.699181 -6.75491 0
M  V30 8700 H 792.76 1.5138 -6.38295 0
M  V30 8701 H 792.677 0.240823 -7.55616 0
M  V30 8702 H 793.945 1.42513 -7.66362 0
M  V30 8703 N 798.174 1.49689 -0.493057 0
M  V30 8704 C 799.42 2.02727 0.0543518 0
M  V30 8705 C 799.753 1.37264 1.37376 0
M  V30 8706 O 799.028 0.505644 1.87812 0
M  V30 8707 C 799.311 3.59456 0.215226 0
M  V30 8708 C 799.164 4.35459 -1.12675 0
M  V30 8709 C 800.483 4.29511 0.959586 0
M  V30 8710 H 797.602 0.736773 0.0182786 0
M  V30 8711 H 800.244 1.78792 -0.642924 0
M  V30 8712 H 798.394 3.79981 0.809122 0
M  V30 8713 H 800.066 4.2645 -1.75891 0
M  V30 8714 H 798.309 3.9833 -1.71801 0
M  V30 8715 H 798.98 5.43454 -0.967578 0
M  V30 8716 H 801.456 4.13594 0.455977 0
M  V30 8717 H 800.332 5.38939 1.04098 0
M  V30 8718 H 800.593 3.94202 2.00144 0
M  V30 8719 N 799.652 0.226554 1.55963 0
M  V30 8720 C 800.901 -0.40417 1.97609 0
M  V30 8721 C 801.214 -1.60541 1.1174 0
M  V30 8722 O 802.42 -2.30598 1.43307 0
M  V30 8723 C 800.876 -0.770466 3.51556 0
M  V30 8724 C 800.484 0.408244 4.46136 0
M  V30 8725 C 802.228 -1.36651 4.01904 0
M  V30 8726 C 800.135 0.0192347 5.91397 0
M  V30 8727 H 799.065 -0.15478 0.737943 0
M  V30 8728 H 801.716 0.323558 1.80625 0
M  V30 8729 H 800.098 -1.55575 3.6416 0
M  V30 8730 H 801.272 1.18575 4.45283 0
M  V30 8731 H 799.587 0.917859 4.06158 0
M  V30 8732 H 802.184 -1.67055 5.07934 0
M  V30 8733 H 802.527 -2.28403 3.48049 0
M  V30 8734 H 803.06 -0.644556 3.92543 0
M  V30 8735 H 799.799 0.90336 6.49245 0
M  V30 8736 H 799.319 -0.722485 5.95433 0
M  V30 8737 H 800.998 -0.405711 6.45727 0
M  V30 8738 N 801.13 -1.57531 -0.0467866 0
M  V30 8739 C 802.407 -1.79568 -0.775536 0
M  V30 8740 C 802.787 -0.820322 -1.94509 0
M  V30 8741 O 802.135 0.14134 -2.28062 0
M  V30 8742 C 802.345 -3.26789 -1.22516 0
M  V30 8743 C 803.693 -3.91299 -1.64835 0
M  V30 8744 O 804.717 -3.30831 -1.3202 0
M  V30 8745 O 803.576 -4.97727 -2.25677 0
M  V30 8746 H 800.67 -0.737817 -0.373572 0
M  V30 8747 H 803.216 -1.69682 -0.0249302 0
M  V30 8748 H 801.988 -3.89357 -0.389446 0
M  V30 8749 H 801.611 -3.41496 -2.03633 0
M  V30 8750 N 802.608 0.318715 -1.54344 0
M  V30 8751 C 803.855 1.05608 -1.72781 0
M  V30 8752 C 804.183 1.87854 -0.504083 0
M  V30 8753 O 803.438 1.88826 0.51414 0
M  V30 8754 C 803.737 2.00514 -2.95853 0
M  V30 8755 C 803.403 1.34385 -4.30409 0
M  V30 8756 C 802.065 1.16081 -4.66989 0
M  V30 8757 C 804.417 0.869627 -5.13894 0
M  V30 8758 C 801.745 0.490114 -5.84649 0
M  V30 8759 C 804.097 0.212735 -6.32242 0
M  V30 8760 C 802.761 0.0175882 -6.67498 0
M  V30 8761 H 802.031 0.386449 -0.632249 0
M  V30 8762 H 804.678 0.332729 -1.88587 0
M  V30 8763 H 802.983 2.79317 -2.74753 0
M  V30 8764 H 804.68 2.57605 -3.07312 0
M  V30 8765 H 801.27 1.49634 -4.01631 0
M  V30 8766 H 805.454 0.998809 -4.86146 0
M  V30 8767 H 800.71 0.327767 -6.10521 0
M  V30 8768 H 804.884 -0.162699 -6.9621 0
M  V30 8769 H 802.511 -0.504137 -7.58527 0
M  V30 8770 N 804.086 1.46499 0.581025 0
M  V30 8771 C 805.311 1.55708 1.37002 0
M  V30 8772 C 805.736 0.19942 1.8704 0
M  V30 8773 O 805.094 -0.820731 1.61659 0
M  V30 8774 C 805.142 2.56716 2.53238 0
M  V30 8775 O 804.246 2.10336 3.54729 0
M  V30 8776 H 803.587 0.523912 0.407937 0
M  V30 8777 H 806.117 1.92085 0.704602 0
M  V30 8778 H 806.127 2.76378 3.00132 0
M  V30 8779 H 804.802 3.55307 2.16171 0
M  V30 8780 H 803.379 2.00669 3.14303 0
M  V30 8781 N 805.565 -0.825799 1.34232 0
M  V30 8782 C 806.512 -1.93651 1.2557 0
M  V30 8783 C 807.482 -1.65578 0.131536 0
M  V30 8784 O 808.667 -1.88231 0.312027 0
M  V30 8785 C 805.807 -3.29862 1.01415 0
M  V30 8786 C 804.92 -3.70247 2.22579 0
M  V30 8787 C 804.055 -4.95392 1.91731 0
M  V30 8788 C 803.094 -5.28349 3.09053 0
M  V30 8789 N 802.231 -6.44671 2.78107 0
M  V30 8790 H 807.071 -2.00392 2.20561 0
M  V30 8791 H 804.608 -0.980441 1.09662 0
M  V30 8792 H 806.566 -4.08356 0.854485 0
M  V30 8793 H 805.196 -3.22642 0.100936 0
M  V30 8794 H 804.248 -2.87169 2.49476 0
M  V30 8795 H 805.56 -3.90575 3.10246 0
M  V30 8796 H 804.714 -5.81665 1.72484 0
M  V30 8797 H 803.453 -4.77059 1.0132 0
M  V30 8798 H 802.458 -4.40574 3.289 0
M  V30 8799 H 803.683 -5.48622 4.00239 0
M  V30 8800 H 801.629 -6.278 1.9027 0
M  V30 8801 H 801.546 -6.65158 3.59306 0
M  V30 8802 H 802.814 -7.34022 2.62358 0
M  V30 8803 N 807.043 -1.17915 -1.04565 0
M  V30 8804 C 808.454 -0.976383 -1.59134 0
M  V30 8805 C 808.805 0.475267 -1.90357 0
M  V30 8806 O 807.93 1.35172 -1.6899 0
M  V30 8807 C 808.525 -1.76604 -2.89131 0
M  V30 8808 C 807.084 -1.60777 -3.40335 0
M  V30 8809 C 806.231 -1.76369 -2.13985 0
M  V30 8810 H 809.182 -1.32532 -0.872985 0
M  V30 8811 H 809.203 -1.25215 -3.59307 0
M  V30 8812 H 808.715 -2.82252 -2.66375 0
M  V30 8813 H 806.816 -0.576436 -3.68114 0
M  V30 8814 H 806.929 -2.40268 -4.14497 0
M  V30 8815 H 805.293 -1.19268 -2.25049 0
M  V30 8816 H 806.076 -2.83441 -1.9369 0
M  V30 8817 N 808.521 1.23394 -0.980386 0
M  V30 8818 C 809.768 1.91809 -0.649261 0
M  V30 8819 C 810.096 1.765 0.817197 0
M  V30 8820 O 809.351 1.11979 1.60497 0
M  V30 8821 C 809.65 3.43542 -0.985588 0
M  V30 8822 C 809.316 3.79031 -2.44225 0
M  V30 8823 C 807.978 3.88429 -2.84035 0
M  V30 8824 C 810.33 3.96145 -3.38702 0
M  V30 8825 C 807.658 4.12368 -4.17336 0
M  V30 8826 C 810.01 4.21583 -4.71646 0
M  V30 8827 C 808.674 4.29203 -5.11215 0
M  V30 8828 H 807.944 0.70188 -0.237581 0
M  V30 8829 H 810.591 1.4642 -1.23424 0
M  V30 8830 H 808.896 3.90503 -0.318521 0
M  V30 8831 H 810.593 3.94708 -0.707596 0
M  V30 8832 H 807.183 3.7229 -2.12362 0
M  V30 8833 H 811.367 3.88274 -3.09123 0
M  V30 8834 H 806.623 4.1649 -4.47601 0
M  V30 8835 H 810.797 4.33769 -5.4481 0
M  V30 8836 H 808.424 4.47505 -6.14527 0
M  V30 8837 N 809.999 0.752036 1.385 0
M  V30 8838 C 810.932 0.0717411 2.28087 0
M  V30 8839 C 811.91 -0.729945 1.45295 0
M  V30 8840 O 813.094 -0.708902 1.74662 0
M  V30 8841 C 810.221 -0.905237 3.26379 0
M  V30 8842 C 809.267 -0.189973 4.26077 0
M  V30 8843 S 810.1 1.10815 5.23909 0
M  V30 8844 C 811.256 0.134202 6.25756 0
M  V30 8845 H 811.489 0.831438 2.85437 0
M  V30 8846 H 809.022 0.544552 1.44478 0
M  V30 8847 H 810.98 -1.46358 3.83523 0
M  V30 8848 H 809.641 -1.63789 2.68015 0
M  V30 8849 H 808.834 -0.92985 4.95348 0
M  V30 8850 H 808.436 0.296804 3.7282 0
M  V30 8851 H 810.728 -0.700345 6.7387 0
M  V30 8852 H 811.671 0.794532 7.03628 0
M  V30 8853 H 812.079 -0.245801 5.63965 0
M  V30 8854 N 811.477 -1.49425 0.500989 0
M  V30 8855 C 812.705 -2.06861 -0.0403443 0
M  V30 8856 C 813.12 -1.36132 -1.30819 0
M  V30 8857 O 812.477 -0.439647 -1.77125 0
M  V30 8858 C 812.528 -3.6027 -0.297902 0
M  V30 8859 O 812.249 -4.28338 0.919686 0
M  V30 8860 C 813.75 -4.34419 -0.882876 0
M  V30 8861 H 810.97 -0.670688 0.0204619 0
M  V30 8862 H 813.514 -1.92207 0.698342 0
M  V30 8863 H 811.669 -3.74627 -0.98657 0
M  V30 8864 H 812.083 -5.2004 0.682528 0
M  V30 8865 H 813.557 -5.42631 -1.01268 0
M  V30 8866 H 814.034 -3.96898 -1.88066 0
M  V30 8867 H 814.64 -4.24669 -0.231677 0
M  V30 8868 N 812.955 -0.234822 -1.55841 0
M  V30 8869 C 813.885 0.664217 -2.23854 0
M  V30 8870 C 814.866 1.19076 -1.2147 0
M  V30 8871 O 816.051 1.23232 -1.50091 0
M  V30 8872 C 813.181 1.86666 -2.9287 0
M  V30 8873 C 812.135 1.47341 -4.01839 0
M  V30 8874 C 811.461 2.75571 -4.58219 0
M  V30 8875 C 812.761 0.653479 -5.18196 0
M  V30 8876 H 814.455 0.0971213 -2.99242 0
M  V30 8877 H 812.001 0.0452724 -1.43929 0
M  V30 8878 H 813.954 2.50116 -3.39146 0
M  V30 8879 H 812.678 2.45894 -2.1495 0
M  V30 8880 H 811.337 0.862314 -3.56314 0
M  V30 8881 H 810.985 3.32971 -3.77014 0
M  V30 8882 H 810.685 2.49987 -5.31771 0
M  V30 8883 H 812.209 3.39939 -5.07221 0
M  V30 8884 H 813.623 1.19198 -5.60771 0
M  V30 8885 H 812.02 0.494188 -5.98062 0
M  V30 8886 H 813.09 -0.337004 -4.83728 0
M  V30 8887 N 814.433 1.57553 0.0384317 0
M  V30 8888 C 815.681 1.88468 0.729672 0
M  V30 8889 C 816.002 0.831302 1.76393 0
M  V30 8890 O 815.272 -0.13622 1.95426 0
M  V30 8891 H 813.852 0.695529 0.272485 0
M  V30 8892 H 816.514 1.94899 0.0066032 0
M  V30 8893 H 815.61 2.8705 1.22511 0
M  V30 8894 N 815.911 -0.310526 1.54511 0
M  V30 8895 C 817.16 -1.0445 1.72549 0
M  V30 8896 C 817.473 -1.88748 0.513172 0
M  V30 8897 O 818.679 -2.65338 0.575165 0
M  V30 8898 C 817.135 -1.90665 3.05246 0
M  V30 8899 C 816.743 -1.11415 4.33925 0
M  V30 8900 C 818.487 -2.63719 3.32645 0
M  V30 8901 C 816.394 -1.96852 5.57677 0
M  V30 8902 H 815.324 -0.393676 0.643067 0
M  V30 8903 H 817.975 -0.302003 1.80998 0
M  V30 8904 H 816.357 -2.68864 2.90737 0
M  V30 8905 H 817.531 -0.378956 4.59239 0
M  V30 8906 H 815.846 -0.499853 4.13389 0
M  V30 8907 H 818.443 -3.27974 4.223 0
M  V30 8908 H 818.786 -3.32047 2.51098 0
M  V30 8909 H 819.319 -1.92574 3.48081 0
M  V30 8910 H 816.058 -1.33009 6.41864 0
M  V30 8911 H 815.578 -2.68069 5.36562 0
M  V30 8912 H 817.257 -2.55127 5.94575 0
M  V30 8913 N 817.389 -1.46805 -0.573248 0
M  V30 8914 C 818.614 -1.56433 -1.36175 0
M  V30 8915 C 819.039 -0.209336 -1.86932 0
M  V30 8916 O 818.397 0.812146 -1.62092 0
M  V30 8917 C 818.445 -2.58055 -2.51873 0
M  V30 8918 O 817.549 -2.12214 -3.53609 0
M  V30 8919 H 816.89 -0.526068 -0.405153 0
M  V30 8920 H 819.42 -1.92456 -0.694405 0
M  V30 8921 H 819.43 -2.77966 -2.98662 0
M  V30 8922 H 818.105 -3.56448 -2.14284 0
M  V30 8923 H 816.682 -2.02333 -3.13234 0
M  V30 8924 N 818.867 0.818669 -1.34668 0
M  V30 8925 C 820.116 1.57017 -1.26604 0
M  V30 8926 C 820.429 1.94936 0.161036 0
M  V30 8927 O 821.635 2.69051 0.36386 0
M  V30 8928 C 820.091 2.83305 -2.2196 0
M  V30 8929 C 819.699 2.52671 -3.69948 0
M  V30 8930 C 821.443 3.61324 -2.22813 0
M  V30 8931 C 819.35 3.75178 -4.5716 0
M  V30 8932 H 818.28 0.589323 -0.470335 0
M  V30 8933 H 820.931 0.900956 -1.59859 0
M  V30 8934 H 819.313 3.51874 -1.81661 0
M  V30 8935 H 820.487 1.92186 -4.18809 0
M  V30 8936 H 818.802 1.8792 -3.71584 0
M  V30 8937 H 821.399 4.52294 -2.85192 0
M  V30 8938 H 821.742 3.97759 -1.22857 0
M  V30 8939 H 822.275 2.99703 -2.61578 0
M  V30 8940 H 819.014 3.43861 -5.58068 0
M  V30 8941 H 818.534 4.34931 -4.13031 0
M  V30 8942 H 820.213 4.42542 -4.71981 0
M  V30 8943 N 820.346 1.18468 1.03938 0
M  V30 8944 C 821.276 0.936389 2.13902 0
M  V30 8945 C 822.257 -0.126381 1.6963 0
M  V30 8946 O 823.442 0.0264757 1.94182 0
M  V30 8947 C 820.572 0.462729 3.44204 0
M  V30 8948 C 819.526 1.46613 4.02105 0
M  V30 8949 C 818.852 0.84994 5.27902 0
M  V30 8950 C 820.152 2.84323 4.3813 0
M  V30 8951 H 821.846 1.85602 2.3493 0
M  V30 8952 H 819.392 0.893806 1.12903 0
M  V30 8953 H 821.345 0.276382 4.20493 0
M  V30 8954 H 820.069 -0.492477 3.22866 0
M  V30 8955 H 818.728 1.63944 3.27899 0
M  V30 8956 H 818.376 -0.112493 5.02874 0
M  V30 8957 H 818.076 1.51988 5.67603 0
M  V30 8958 H 819.6 0.674152 6.06867 0
M  V30 8959 H 821.014 2.70636 5.054 0
M  V30 8960 H 819.411 3.48012 4.88884 0
M  V30 8961 H 820.481 3.37776 3.47901 0
M  V30 8962 N 821.824 -1.22873 0.986916 0
M  V30 8963 C 823.054 -1.95204 0.67668 0
M  V30 8964 C 823.462 -1.73193 -0.761641 0
M  V30 8965 O 822.805 -1.0243 -1.52492 0
M  V30 8966 C 822.867 -3.48173 0.895302 0
M  V30 8967 C 822.531 -3.93912 2.31695 0
M  V30 8968 C 823.528 -4.02064 3.29607 0
M  V30 8969 C 821.213 -4.26722 2.64978 0
M  V30 8970 C 823.207 -4.42391 4.58878 0
M  V30 8971 C 820.894 -4.66729 3.94471 0
M  V30 8972 C 821.892 -4.74531 4.91232 0
M  V30 8973 O 821.58 -5.13636 6.18412 0
M  V30 8974 H 821.312 -0.628105 0.24992 0
M  V30 8975 H 823.866 -1.5714 1.32274 0
M  V30 8976 H 822.096 -3.86223 0.192072 0
M  V30 8977 H 823.785 -4.01717 0.581233 0
M  V30 8978 H 824.551 -3.76912 3.05225 0
M  V30 8979 H 820.43 -4.19858 1.9037 0
M  V30 8980 H 823.974 -4.48395 5.34404 0
M  V30 8981 H 819.871 -4.91332 4.18645 0
M  V30 8982 H 820.639 -5.31728 6.2226 0
M  V30 8983 N 823.302 -0.75937 -1.38099 0
M  V30 8984 C 824.718 -0.437606 -1.53483 0
M  V30 8985 C 824.918 1.04849 -1.72072 0
M  V30 8986 O 823.974 1.83448 -1.73502 0
M  V30 8987 C 825.287 -1.24189 -2.73857 0
M  V30 8988 C 826.835 -1.23255 -2.8771 0
M  V30 8989 C 827.31 -2.01992 -4.11051 0
M  V30 8990 N 828.801 -1.99282 -4.1814 0
M  V30 8991 C 829.536 -2.56996 -5.12583 0
M  V30 8992 N 829.032 -3.23446 -6.12662 0
M  V30 8993 N 830.825 -2.46894 -5.04975 0
M  V30 8994 H 822.976 -1.72242 -1.24283 0
M  V30 8995 H 825.239 -0.730507 -0.604205 0
M  V30 8996 H 824.945 -2.29449 -2.66545 0
M  V30 8997 H 824.819 -0.862672 -3.67203 0
M  V30 8998 H 827.206 -0.187988 -2.94501 0
M  V30 8999 H 827.287 -1.65132 -1.95359 0
M  V30 9000 H 826.931 -3.06462 -4.05023 0
M  V30 9001 H 826.861 -1.57505 -5.02494 0
M  V30 9002 H 829.352 -1.50893 -3.46467 0
M  V30 9003 H 829.665 -3.6489 -6.81231 0
M  V30 9004 H 828.01 -3.27543 -6.12977 0
M  V30 9005 H 831.201 -1.94604 -4.25731 0
M  V30 9006 H 831.374 -2.92168 -5.78396 0
M  V30 9007 N 824.78 1.49157 -0.508906 0
M  V30 9008 C 825.727 2.2927 0.265288 0
M  V30 9009 C 826.697 1.3603 0.953162 0
M  V30 9010 O 827.882 1.64989 0.958291 0
M  V30 9011 C 825.022 3.18897 1.31904 0
M  V30 9012 C 824.135 4.27201 0.642144 0
M  V30 9013 C 823.27 5.04033 1.67701 0
M  V30 9014 C 822.309 6.04165 0.982422 0
M  V30 9015 N 821.446 6.74133 1.96186 0
M  V30 9016 H 826.286 2.94967 -0.424107 0
M  V30 9017 H 823.823 1.45431 -0.220991 0
M  V30 9018 H 825.781 3.69242 1.94206 0
M  V30 9019 H 824.411 2.55168 1.97709 0
M  V30 9020 H 823.463 3.80283 -0.0943395 0
M  V30 9021 H 824.775 4.98708 0.0957507 0
M  V30 9022 H 823.929 5.58287 2.37487 0
M  V30 9023 H 822.668 4.32317 2.25728 0
M  V30 9024 H 821.673 5.49135 0.270378 0
M  V30 9025 H 822.898 6.7787 0.408554 0
M  V30 9026 H 820.844 6.05183 2.53159 0
M  V30 9027 H 820.761 7.41643 1.46634 0
M  V30 9028 H 822.029 7.32987 2.65236 0
M  V30 9029 N 826.258 0.243083 1.55714 0
M  V30 9030 C 827.669 -0.260788 1.8487 0
M  V30 9031 C 828.02 -1.57879 1.16485 0
M  V30 9032 O 827.145 -2.1184 0.441908 0
M  V30 9033 C 827.74 -0.479954 3.35383 0
M  V30 9034 C 826.299 -0.928096 3.64778 0
M  V30 9035 C 825.446 -0.00316416 2.773 0
M  V30 9036 H 828.397 0.465743 1.51712 0
M  V30 9037 H 828.418 -1.32308 3.56756 0
M  V30 9038 H 827.93 0.479468 3.85127 0
M  V30 9039 H 826.031 -1.90012 3.20509 0
M  V30 9040 H 826.144 -0.7876 4.72582 0
M  V30 9041 H 824.508 -0.513849 2.49463 0
M  V30 9042 H 825.291 0.951562 3.29849 0
M  V30 9043 N 827.736 -1.57571 -0.0300757 0
M  V30 9044 C 828.684 -2.0758 -1.04944 0
M  V30 9045 C 829.678 -0.989384 -1.37505 0
M  V30 9046 O 830.884 -1.17427 -1.36422 0
M  V30 9047 H 827.259 -0.662419 -0.355956 0
M  V30 9048 H 829.23 -2.92268 -0.601848 0
M  V30 9049 C 827.979 -2.5698 -2.34215 0
M  V30 9050 H 827.302 -3.40193 -2.10021 0
M  V30 9051 H 828.742 -2.95682 -3.03888 0
M  V30 9052 C 827.201 -1.47059 -3.03109 0
M  V30 9053 O 827.731 -0.83625 -3.92899 0
M  V30 9054 N 825.937 -1.20538 -2.64422 0
M  V30 9055 H 825.484 -1.72305 -1.9149 0
M  V30 9056 H 825.442 -0.472045 -3.10836 0
M  V30 9057 N 829.214 0.302327 -1.54673 0
M  V30 9058 C 830.462 1.03565 -1.73547 0
M  V30 9059 C 830.783 1.87843 -0.523448 0
M  V30 9060 O 830.053 1.90367 0.462295 0
M  V30 9061 H 828.633 0.385358 -0.639928 0
M  V30 9062 H 831.295 0.333632 -1.92023 0
M  V30 9063 H 830.391 1.68952 -2.62415 0
M  V30 9064 N 830.692 1.47107 0.565454 0
M  V30 9065 C 831.92 1.56909 1.3486 0
M  V30 9066 C 832.335 0.216312 1.87557 0
M  V30 9067 O 831.692 -0.789168 1.64555 0
M  V30 9068 C 831.743 2.58776 2.52423 0
M  V30 9069 O 831.464 3.888 2.01906 0
M  V30 9070 C 832.965 2.78683 3.44747 0
M  V30 9071 H 830.185 0.530096 0.411387 0
M  V30 9072 H 832.729 1.92658 0.685782 0
M  V30 9073 H 830.884 2.25983 3.1466 0
M  V30 9074 H 831.298 4.44393 2.78595 0
M  V30 9075 H 832.772 3.53842 4.23674 0
M  V30 9076 H 833.249 1.86208 3.97773 0
M  V30 9077 H 833.855 3.12641 2.88333 0
M  V30 9078 N 832.17 -0.811516 1.35101 0
M  V30 9079 C 833.118 -1.94449 1.27642 0
M  V30 9080 C 834.112 -1.68522 0.172287 0
M  V30 9081 O 835.318 -1.76799 0.337967 0
M  V30 9082 H 831.693 -0.638776 0.396824 0
M  V30 9083 H 833.664 -1.97861 2.23369 0
M  V30 9084 C 832.413 -3.31139 1.06029 0
M  V30 9085 H 831.736 -3.51644 1.90227 0
M  V30 9086 H 833.176 -4.10831 1.0485 0
M  V30 9087 C 831.635 -3.36072 -0.236039 0
M  V30 9088 O 832.165 -3.82292 -1.23353 0
M  V30 9089 N 830.371 -2.89314 -0.273107 0
M  V30 9090 H 829.918 -2.51893 0.539211 0
M  V30 9091 H 829.876 -2.92996 -1.1402 0
M  V30 9092 N 833.648 -1.19017 -1.03309 0
M  V30 9093 C 835.059 -0.993206 -1.5809 0
M  V30 9094 C 835.41 0.45505 -1.9085 0
M  V30 9095 O 834.535 1.33372 -1.70414 0
M  V30 9096 C 835.13 -1.79661 -2.87241 0
M  V30 9097 C 833.689 -1.64377 -3.38611 0
M  V30 9098 C 832.836 -1.78628 -2.12102 0
M  V30 9099 H 835.787 -1.3345 -0.858879 0
M  V30 9100 H 835.808 -1.29019 -3.57958 0
M  V30 9101 H 835.32 -2.85061 -2.63366 0
M  V30 9102 H 833.421 -0.615447 -3.67482 0
M  V30 9103 H 833.534 -2.44651 -4.11926 0
M  V30 9104 H 831.898 -1.21648 -2.23772 0
M  V30 9105 H 832.681 -2.8548 -1.90673 0
M  V30 9106 N 835.127 1.22348 -0.993418 0
M  V30 9107 C 836.375 1.90733 -0.668246 0
M  V30 9108 C 836.696 1.77732 0.802261 0
M  V30 9109 O 835.966 1.16486 1.57505 0
M  V30 9110 H 834.546 0.705966 -0.244174 0
M  V30 9111 H 837.208 1.48691 -1.26004 0
M  V30 9112 H 836.304 2.97883 -0.931239 0
M  V30 9113 N 836.605 0.766683 1.37694 0
M  V30 9114 C 837.851 0.329201 2.0011 0
M  V30 9115 C 838.184 -1.09004 1.60723 0
M  V30 9116 O 837.459 -1.74895 0.850989 0
M  V30 9117 C 837.742 0.466989 3.57059 0
M  V30 9118 C 837.595 1.92828 4.06371 0
M  V30 9119 C 838.914 -0.131792 4.39903 0
M  V30 9120 H 836.033 0.12109 0.726984 0
M  V30 9121 H 838.675 0.968779 1.63446 0
M  V30 9122 H 836.825 -0.0775023 3.88423 0
M  V30 9123 H 838.497 2.53208 3.85595 0
M  V30 9124 H 836.74 2.43884 3.58752 0
M  V30 9125 H 837.411 1.97577 5.15429 0
M  V30 9126 H 839.887 0.332731 4.14768 0
M  V30 9127 H 838.763 -0.005217 5.489 0
M  V30 9128 H 839.024 -1.22156 4.24889 0
M  V30 9129 N 838.083 -1.48885 0.516809 0
M  V30 9130 C 839.33 -2.02488 -0.0220602 0
M  V30 9131 C 839.658 -1.39513 -1.35523 0
M  V30 9132 O 838.913 -0.52558 -1.8851 0
M  V30 9133 C 839.212 -3.56801 -0.206798 0
M  V30 9134 C 838.878 -4.38496 1.05035 0
M  V30 9135 C 837.54 -4.60538 1.39492 0
M  V30 9136 C 839.892 -4.85909 1.88525 0
M  V30 9137 C 837.22 -5.2724 2.57361 0
M  V30 9138 C 839.572 -5.53909 3.05561 0
M  V30 9139 C 838.236 -5.74193 3.4038 0
M  V30 9140 H 837.506 -0.740956 -0.00807238 0
M  V30 9141 H 840.153 -1.79014 0.680168 0
M  V30 9142 H 838.458 -3.79042 -0.991687 0
M  V30 9143 H 840.155 -3.95885 -0.638447 0
M  V30 9144 H 836.745 -4.2159 0.771984 0
M  V30 9145 H 840.929 -4.68694 1.63218 0
M  V30 9146 H 836.185 -5.41145 2.84556 0
M  V30 9147 H 840.359 -5.89619 3.7057 0
M  V30 9148 H 837.986 -6.25652 4.31814 0
M  V30 9149 N 839.561 -0.251338 -1.55583 0
M  V30 9150 C 840.786 0.379136 -2.03905 0
M  V30 9151 C 841.211 1.50428 -1.12929 0
M  V30 9152 O 840.569 1.80882 -0.123114 0
M  V30 9153 C 840.617 0.86009 -3.50193 0
M  V30 9154 O 839.721 1.96932 -3.62342 0
M  V30 9155 H 839.062 0.0820183 -0.658915 0
M  V30 9156 H 841.592 -0.378692 -2.01065 0
M  V30 9157 H 841.602 1.16214 -3.91099 0
M  V30 9158 H 840.277 0.0367559 -4.15884 0
M  V30 9159 H 838.854 1.67163 -3.33333 0
M  V30 9160 N 841.039 1.57585 0.0217189 0
M  V30 9161 C 842.286 1.89606 0.711045 0
M  V30 9162 C 842.614 0.849535 1.74966 0
M  V30 9163 O 841.869 -0.14856 1.95135 0
M  V30 9164 C 842.168 3.28377 1.41079 0
M  V30 9165 C 841.834 4.48035 0.507454 0
M  V30 9166 C 840.496 4.80504 0.258672 0
M  V30 9167 C 842.848 5.21071 -0.115793 0
M  V30 9168 C 840.176 5.83393 -0.622013 0
M  V30 9169 C 842.528 6.24897 -0.984224 0
M  V30 9170 C 841.192 6.55836 -1.2424 0
M  V30 9171 H 840.462 0.693817 0.26019 0
M  V30 9172 H 843.109 1.91478 -0.0291424 0
M  V30 9173 H 841.414 3.22528 2.22448 0
M  V30 9174 H 843.111 3.50404 1.94982 0
M  V30 9175 H 839.701 4.22653 0.711516 0
M  V30 9176 H 843.885 4.96259 0.0634327 0
M  V30 9177 H 839.141 6.05736 -0.830267 0
M  V30 9178 H 843.315 6.8063 -1.47363 0
M  V30 9179 H 840.942 7.35383 -1.92653 0
M  V30 9180 N 842.517 -0.29412 1.54831 0
M  V30 9181 C 843.447 -1.36757 1.89261 0
M  V30 9182 C 844.428 -1.52564 0.752214 0
M  V30 9183 O 845.613 -1.65958 1.00855 0
M  V30 9184 C 842.743 -2.73066 2.14597 0
M  V30 9185 C 841.697 -2.72017 3.3044 0
M  V30 9186 C 841.023 -4.11679 3.4121 0
M  V30 9187 C 842.323 -2.33149 4.67375 0
M  V30 9188 H 844.017 -1.08191 2.79169 0
M  V30 9189 H 841.563 -0.519014 1.34321 0
M  V30 9190 H 843.516 -3.48255 2.37269 0
M  V30 9191 H 842.24 -3.03172 1.21467 0
M  V30 9192 H 840.899 -1.99285 3.07703 0
M  V30 9193 H 840.547 -4.38973 2.45584 0
M  V30 9194 H 840.247 -4.11877 4.19084 0
M  V30 9195 H 841.771 -4.88637 3.6615 0
M  V30 9196 H 843.185 -2.98054 4.89731 0
M  V30 9197 H 841.582 -2.44546 5.48012 0
M  V30 9198 H 842.652 -1.28275 4.67626 0
M  V30 9199 N 843.995 -1.47404 -0.557645 0
M  V30 9200 C 844.943 -1.60265 -1.68576 0
M  V30 9201 C 845.937 -0.469982 -1.6275 0
M  V30 9202 O 847.143 -0.647764 -1.67941 0
M  V30 9203 H 843.518 -0.504353 -0.557792 0
M  V30 9204 H 845.489 -2.55066 -1.54867 0
M  V30 9205 C 844.238 -1.63369 -3.0693 0
M  V30 9206 H 843.561 -2.49874 -3.12095 0
M  V30 9207 H 845.001 -1.76417 -3.85556 0
M  V30 9208 C 843.46 -0.366921 -3.34896 0
M  V30 9209 O 843.99 0.53218 -3.98159 0
M  V30 9210 N 842.196 -0.247082 -2.89548 0
M  V30 9211 H 841.743 -0.979669 -2.38244 0
M  V30 9212 H 841.701 0.599552 -3.0863 0
M  V30 9213 N 845.473 0.80434 -1.35529 0
M  V30 9214 C 846.884 1.37849 -1.25915 0
M  V30 9215 C 847.235 1.95905 0.107495 0
M  V30 9216 O 846.36 1.91462 1.00852 0
M  V30 9217 C 846.955 2.50608 -2.27994 0
M  V30 9218 C 845.514 3.03879 -2.22114 0
M  V30 9219 C 844.661 1.76856 -2.13582 0
M  V30 9220 H 847.612 0.607192 -1.46625 0
M  V30 9221 H 847.633 3.29221 -1.90772 0
M  V30 9222 H 847.145 2.08323 -3.27449 0
M  V30 9223 H 845.246 3.50622 -1.26077 0
M  V30 9224 H 845.359 3.61707 -3.14173 0
M  V30 9225 H 843.723 1.98498 -1.59595 0
M  V30 9226 H 844.506 1.36721 -3.14901 0
M  V30 9227 N 846.951 1.19563 1.02676 0
M  V30 9228 C 847.881 0.959024 2.12897 0
M  V30 9229 C 848.862 -0.108382 1.69754 0
M  V30 9230 O 850.047 0.0470698 1.94143 0
M  V30 9231 C 847.177 0.499211 3.43693 0
M  V30 9232 C 846.131 1.5087 4.00528 0
M  V30 9233 C 845.457 0.905884 5.2697 0
M  V30 9234 C 846.757 2.88954 4.3509 0
M  V30 9235 H 848.451 1.88084 2.32948 0
M  V30 9236 H 845.997 0.905731 1.11949 0
M  V30 9237 H 847.95 0.320965 4.20176 0
M  V30 9238 H 846.674 -0.458205 3.2337 0
M  V30 9239 H 845.333 1.67413 3.26142 0
M  V30 9240 H 844.981 -0.0591506 5.02965 0
M  V30 9241 H 844.681 1.58 5.65959 0
M  V30 9242 H 846.205 0.73848 6.06118 0
M  V30 9243 H 847.619 2.75981 5.02501 0
M  V30 9244 H 846.016 3.53177 4.85166 0
M  V30 9245 H 847.086 3.41447 3.44299 0
M  V30 9246 N 848.429 -1.21819 0.999893 0
M  V30 9247 C 849.654 -1.95298 0.698094 0
M  V30 9248 C 850.079 -1.73273 -0.731982 0
M  V30 9249 O 849.437 -1.01634 -1.50134 0
M  V30 9250 C 849.485 -3.45922 1.01834 0
M  V30 9251 O 848.589 -4.12223 0.120801 0
M  V30 9252 H 847.93 -0.610729 0.260588 0
M  V30 9253 H 850.46 -1.5472 1.33876 0
M  V30 9254 H 850.47 -3.96471 0.963074 0
M  V30 9255 H 849.145 -3.61278 2.06037 0
M  V30 9256 H 847.722 -3.72177 0.232153 0
M  V30 9257 N 849.908 -0.773975 -1.37286 0
M  V30 9258 C 851.319 -0.404433 -1.82267 0
M  V30 9259 C 851.67 1.06971 -1.64474 0
M  V30 9260 O 850.795 1.82867 -1.15708 0
M  V30 9261 C 851.39 -0.727298 -3.30902 0
M  V30 9262 C 849.949 -0.410784 -3.74152 0
M  V30 9263 C 849.096 -0.969983 -2.59782 0
M  V30 9264 H 852.047 -0.968437 -1.25726 0
M  V30 9265 H 852.068 -0.0127575 -3.80498 0
M  V30 9266 H 851.58 -1.80026 -3.4382 0
M  V30 9267 H 849.681 0.65477 -3.66802 0
M  V30 9268 H 849.794 -0.920592 -4.70172 0
M  V30 9269 H 848.158 -0.394094 -2.51633 0
M  V30 9270 H 848.941 -2.04839 -2.75492 0
M  V30 9271 N 851.386 1.48609 -0.524698 0
M  V30 9272 C 852.663 1.95454 0.075465 0
M  V30 9273 C 853.043 1.46682 1.51814 0
M  V30 9274 O 852.391 0.690975 2.17802 0
M  V30 9275 C 852.601 3.48981 -0.0363273 0
M  V30 9276 C 853.949 4.24414 0.125624 0
M  V30 9277 O 854.973 3.5618 0.0377239 0
M  V30 9278 O 853.832 5.45625 0.309104 0
M  V30 9279 H 850.926 0.822902 0.0822256 0
M  V30 9280 H 853.472 1.59153 -0.588921 0
M  V30 9281 H 852.244 3.77185 -1.04149 0
M  V30 9282 H 851.867 3.91963 0.667146 0
M  V30 9283 N 852.864 0.259585 1.55447 0
M  V30 9284 C 854.113 -0.362163 1.98422 0
M  V30 9285 C 854.426 -1.58135 1.1512 0
M  V30 9286 O 855.632 -2.27506 1.48166 0
M  V30 9287 C 854.088 -0.695722 3.53111 0
M  V30 9288 C 853.696 0.502784 4.4517 0
M  V30 9289 C 855.44 -1.28096 4.04712 0
M  V30 9290 C 853.347 0.144674 5.91223 0
M  V30 9291 H 852.277 -0.139092 0.74106 0
M  V30 9292 H 854.928 0.361798 1.79898 0
M  V30 9293 H 853.31 -1.47816 3.67378 0
M  V30 9294 H 854.484 1.27994 4.42667 0
M  V30 9295 H 852.799 1.0038 4.0412 0
M  V30 9296 H 855.396 -1.56243 5.11363 0
M  V30 9297 H 855.739 -2.20969 3.52815 0
M  V30 9298 H 856.272 -0.561146 3.93822 0
M  V30 9299 H 853.011 1.04087 6.47183 0
M  V30 9300 H 852.531 -0.596023 5.96831 0
M  V30 9301 H 854.21 -0.268651 6.46442 0
M  V30 9302 N 854.342 -1.57594 -0.0133615 0
M  V30 9303 C 855.588 -1.91105 -0.696457 0
M  V30 9304 C 855.943 -0.859872 -1.72116 0
M  V30 9305 O 855.236 0.129579 -1.91161 0
M  V30 9306 C 855.43 -3.29121 -1.39336 0
M  V30 9307 C 855.259 -4.47565 -0.437666 0
M  V30 9308 C 854.029 -5.05272 -0.0529454 0
M  V30 9309 C 856.227 -5.13479 0.290537 0
M  V30 9310 N 854.209 -6.07232 0.902355 0
M  V30 9311 C 855.58 -6.10147 1.10097 0
M  V30 9312 C 857.635 -4.96627 0.355804 0
M  V30 9313 C 856.338 -6.91778 1.97069 0
M  V30 9314 C 858.364 -5.78833 1.21271 0
M  V30 9315 C 857.726 -6.75083 2.01102 0
M  V30 9316 H 853.825 -0.747882 -0.228464 0
M  V30 9317 H 856.409 -1.94651 0.0438462 0
M  V30 9318 H 854.58 -3.26474 -2.10403 0
M  V30 9319 H 856.312 -3.501 -2.03008 0
M  V30 9320 H 853.067 -4.71747 -0.418486 0
M  V30 9321 H 853.491 -6.6289 1.37498 0
M  V30 9322 H 858.133 -4.22077 -0.247105 0
M  V30 9323 H 855.851 -7.65662 2.58433 0
M  V30 9324 H 859.437 -5.67838 1.26694 0
M  V30 9325 H 858.317 -7.37587 2.66337 0
M  V30 9326 N 855.82 0.285905 -1.54985 0
M  V30 9327 C 856.753 1.37817 -1.81884 0
M  V30 9328 C 857.731 1.4811 -0.670988 0
M  V30 9329 O 858.915 1.64936 -0.912595 0
M  V30 9330 C 856.042 2.75587 -1.969 0
M  V30 9331 C 855.088 2.82643 -3.19398 0
M  V30 9332 S 855.921 2.43199 -4.7709 0
M  V30 9333 C 857.077 3.82969 -4.95061 0
M  V30 9334 H 857.31 1.14794 -2.74244 0
M  V30 9335 H 854.843 0.484843 -1.4659 0
M  V30 9336 H 856.801 3.54932 -2.06236 0
M  V30 9337 H 855.462 2.9587 -1.05451 0
M  V30 9338 H 854.655 3.8373 -3.26753 0
M  V30 9339 H 854.257 2.11306 -3.08586 0
M  V30 9340 H 856.549 4.78117 -4.80011 0
M  V30 9341 H 857.492 3.80575 -5.97133 0
M  V30 9342 H 857.9 3.73673 -4.23118 0
M  V30 9343 N 857.298 1.47698 0.54982 0
M  V30 9344 C 858.528 1.58101 1.32995 0
M  V30 9345 C 858.936 0.232939 1.87761 0
M  V30 9346 O 858.279 -0.785058 1.6608 0
M  V30 9347 C 858.341 2.55228 2.53178 0
M  V30 9348 C 858.005 4.00756 2.19645 0
M  V30 9349 C 859.002 4.89025 1.76496 0
M  V30 9350 C 856.687 4.46147 2.30777 0
M  V30 9351 C 858.681 6.20707 1.44919 0
M  V30 9352 C 856.368 5.77856 1.98812 0
M  V30 9353 C 857.366 6.64957 1.55952 0
M  V30 9354 O 857.054 7.94217 1.24396 0
M  V30 9355 H 856.786 0.536362 0.411451 0
M  V30 9356 H 859.34 1.94092 0.67212 0
M  V30 9357 H 857.57 2.14319 3.21876 0
M  V30 9358 H 859.259 2.55678 3.15251 0
M  V30 9359 H 860.025 4.55201 1.67383 0
M  V30 9360 H 855.904 3.78552 2.63096 0
M  V30 9361 H 859.448 6.88649 1.11392 0
M  V30 9362 H 855.345 6.11219 2.0756 0
M  V30 9363 H 856.113 8.06789 1.37964 0
M  V30 9364 N 858.776 -0.797141 1.35954 0
M  V30 9365 C 860.022 -1.55698 1.29946 0
M  V30 9366 C 860.355 -1.93808 -0.123259 0
M  V30 9367 O 859.63 -1.62102 -1.07486 0
M  V30 9368 C 859.913 -2.83926 2.2149 0
M  V30 9369 C 859.766 -2.52232 3.72423 0
M  V30 9370 C 861.085 -3.85698 2.11955 0
M  V30 9371 H 858.204 -0.56488 0.47337 0
M  V30 9372 H 860.846 -0.916421 1.66438 0
M  V30 9373 H 858.996 -3.38588 1.905 0
M  V30 9374 H 860.668 -2.0368 4.13899 0
M  V30 9375 H 858.911 -1.85286 3.92239 0
M  V30 9376 H 859.582 -3.43782 4.31877 0
M  V30 9377 H 862.058 -3.40462 2.39218 0
M  V30 9378 H 860.934 -4.73182 2.78191 0
M  V30 9379 H 861.195 -4.28083 1.10442 0
M  V30 9380 N 860.254 -1.20106 -1.0204 0
M  V30 9381 C 861.184 -0.970301 -2.12385 0
M  V30 9382 C 862.165 0.099378 -1.69809 0
M  V30 9383 O 863.35 -0.057365 -1.94115 0
M  V30 9384 C 860.48 -0.517431 -3.43424 0
M  V30 9385 C 859.434 -1.52992 -3.99722 0
M  V30 9386 C 858.76 -0.933817 -5.26483 0
M  V30 9387 C 860.06 -2.91257 -4.33551 0
M  V30 9388 H 861.754 -1.89316 -2.31948 0
M  V30 9389 H 859.3 -0.911655 -1.11467 0
M  V30 9390 H 861.253 -0.343243 -4.2 0
M  V30 9391 H 859.977 0.441049 -3.23608 0
M  V30 9392 H 858.636 -1.6914 -3.2525 0
M  V30 9393 H 858.284 0.0324763 -5.0299 0
M  V30 9394 H 857.984 -1.60999 -5.65113 0
M  V30 9395 H 859.508 -0.770614 -6.05718 0
M  V30 9396 H 860.922 -2.78642 -5.0103 0
M  V30 9397 H 859.319 -3.55745 -4.83286 0
M  V30 9398 H 860.389 -3.43269 -3.42483 0
M  V30 9399 N 861.732 1.21287 -1.00634 0
M  V30 9400 C 862.662 2.25973 -0.588089 0
M  V30 9401 C 863.643 1.65527 0.391764 0
M  V30 9402 O 864.828 1.92179 0.279452 0
M  V30 9403 C 861.958 3.47197 0.0847336 0
M  V30 9404 C 860.912 4.20168 -0.815039 0
M  V30 9405 C 860.238 5.34699 -0.00855393 0
M  V30 9406 C 861.538 4.77416 -2.11828 0
M  V30 9407 H 863.232 2.61212 -1.46317 0
M  V30 9408 H 860.778 1.25563 -0.704985 0
M  V30 9409 H 862.731 4.19602 0.388821 0
M  V30 9410 H 861.455 3.11092 0.994456 0
M  V30 9411 H 860.114 3.49614 -1.10297 0
M  V30 9412 H 859.762 4.94837 0.902499 0
M  V30 9413 H 859.462 5.84449 -0.607664 0
M  V30 9414 H 860.986 6.09914 0.289317 0
M  V30 9415 H 862.4 5.41694 -1.87725 0
M  V30 9416 H 860.797 5.37561 -2.66736 0
M  V30 9417 H 861.867 3.96724 -2.78816 0
M  V30 9418 N 863.21 0.781244 1.36873 0
M  V30 9419 C 864.173 0.180094 2.28491 0
M  V30 9420 C 865.173 -0.617798 1.48458 0
M  V30 9421 O 866.363 -0.439991 1.68552 0
M  V30 9422 C 863.495 -0.751741 3.32508 0
M  V30 9423 H 864.688 0.987837 2.83164 0
M  V30 9424 H 862.241 0.550102 1.463 0
M  V30 9425 H 862.976 -1.58413 2.82977 0
M  V30 9426 H 862.761 -0.181649 3.91679 0
M  V30 9427 H 864.251 -1.16748 4.00949 0
M  V30 9428 N 864.689 -1.48329 0.532571 0
M  V30 9429 C 865.929 -2.044 0.00145618 0
M  V30 9430 C 866.293 -1.40053 -1.31336 0
M  V30 9431 O 867.494 -1.87026 -1.93066 0
M  V30 9432 C 865.765 -3.57214 -0.115376 0
M  V30 9433 S 867.324 -4.34731 -0.59618 0
M  V30 9434 H 864.142 -0.710876 0.0133038 0
M  V30 9435 H 866.744 -1.82006 0.71372 0
M  V30 9436 H 865.448 -4.01579 0.846335 0
M  V30 9437 H 864.979 -3.84065 -0.85194 0
M  V30 9438 H 866.994 -4.6001 -1.86025 0
M  V30 9439 N 866.167 -0.267825 -1.55308 0
M  V30 9440 C 867.097 0.616585 -2.25212 0
M  V30 9441 C 868.078 1.16472 -1.23969 0
M  V30 9442 O 869.263 1.20021 -1.52672 0
M  V30 9443 C 866.393 1.80412 -2.96764 0
M  V30 9444 C 865.347 1.38784 -4.04874 0
M  V30 9445 C 864.673 2.65789 -4.63961 0
M  V30 9446 C 865.973 0.543415 -5.19465 0
M  V30 9447 H 867.667 0.0336257 -2.99381 0
M  V30 9448 H 865.213 0.0147328 -1.43992 0
M  V30 9449 H 867.166 2.42866 -3.44375 0
M  V30 9450 H 865.89 2.4128 -2.20118 0
M  V30 9451 H 864.549 0.786541 -3.58063 0
M  V30 9452 H 864.197 3.24899 -3.83992 0
M  V30 9453 H 863.897 2.38651 -5.36954 0
M  V30 9454 H 865.421 3.29104 -5.14318 0
M  V30 9455 H 866.835 1.07277 -5.63174 0
M  V30 9456 H 865.232 0.367219 -5.98975 0
M  V30 9457 H 866.302 -0.439534 -4.82904 0
M  V30 9458 N 867.645 1.57599 0.00500368 0
M  V30 9459 C 868.893 1.89973 0.68953 0
M  V30 9460 C 869.214 0.868531 1.7459 0
M  V30 9461 O 868.484 -0.0947367 1.95671 0
M  V30 9462 H 867.064 0.701153 0.25767 0
M  V30 9463 H 869.726 1.94869 -0.0347392 0
M  V30 9464 H 868.822 2.89584 1.16394 0
M  V30 9465 N 869.123 -0.277682 1.55134 0
M  V30 9466 C 870.369 -1.0114 1.7578 0
M  V30 9467 C 870.702 -1.86109 0.554719 0
M  V30 9468 O 869.977 -1.89275 -0.447813 0
M  V30 9469 C 870.26 -1.89789 3.06027 0
M  V30 9470 C 870.113 -1.07844 4.3668 0
M  V30 9471 C 871.432 -2.88577 3.32282 0
M  V30 9472 H 868.551 -0.366277 0.639539 0
M  V30 9473 H 871.193 -0.284155 1.87863 0
M  V30 9474 H 869.343 -2.51796 2.95856 0
M  V30 9475 H 871.015 -0.479432 4.58802 0
M  V30 9476 H 869.258 -0.381764 4.32117 0
M  V30 9477 H 869.929 -1.73179 5.24131 0
M  V30 9478 H 872.405 -2.36702 3.42215 0
M  V30 9479 H 871.281 -3.47749 4.2469 0
M  V30 9480 H 871.542 -3.63458 2.51696 0
M  V30 9481 N 870.601 -1.47988 -0.541979 0
M  V30 9482 C 871.826 -1.59286 -1.32826 0
M  V30 9483 C 872.251 -0.24894 -1.86445 0
M  V30 9484 O 871.609 0.777581 -1.63778 0
M  V30 9485 C 871.657 -2.6334 -2.46343 0
M  V30 9486 O 870.761 -2.19667 -3.49028 0
M  V30 9487 H 870.102 -0.534543 -0.393903 0
M  V30 9488 H 872.632 -1.93885 -0.653427 0
M  V30 9489 H 872.642 -2.84238 -2.92699 0
M  V30 9490 H 871.317 -3.60913 -2.06675 0
M  V30 9491 H 869.894 -2.08932 -3.08872 0
M  V30 9492 N 872.079 0.78992 -1.36375 0
M  V30 9493 C 873.319 1.56098 -1.31958 0
M  V30 9494 C 873.683 1.91738 0.100197 0
M  V30 9495 O 874.884 2.67451 0.268913 0
M  V30 9496 C 873.155 2.80406 -2.21601 0
M  V30 9497 S 874.714 3.70655 -2.34863 0
M  V30 9498 H 871.532 0.534632 -0.46871 0
M  V30 9499 H 874.134 0.930417 -1.7194 0
M  V30 9500 H 872.838 2.52273 -3.23707 0
M  V30 9501 H 872.369 3.48436 -1.82637 0
M  V30 9502 H 874.384 4.71509 -1.54575 0
M  V30 9503 N 873.557 1.20646 1.01402 0
M  V30 9504 C 874.803 1.0197 1.753 0
M  V30 9505 C 875.136 -0.446803 1.8899 0
M  V30 9506 O 874.411 -1.33169 1.41762 0
M  V30 9507 C 874.694 1.70693 3.17074 0
M  V30 9508 C 874.547 3.24805 3.11162 0
M  V30 9509 C 875.866 1.44212 4.15802 0
M  V30 9510 H 872.985 0.371844 0.636318 0
M  V30 9511 H 875.627 1.48696 1.18277 0
M  V30 9512 H 873.777 1.30968 3.65759 0
M  V30 9513 H 875.449 3.73841 2.70261 0
M  V30 9514 H 873.692 3.55576 2.48492 0
M  V30 9515 H 874.363 3.68049 4.11393 0
M  V30 9516 H 876.839 1.7868 3.75783 0
M  V30 9517 H 875.715 1.94825 5.13161 0
M  V30 9518 H 875.976 0.370252 4.40547 0
M  V30 9519 N 875.035 -1.20752 1.01276 0
M  V30 9520 C 875.965 -2.25658 0.600064 0
M  V30 9521 C 876.946 -1.65733 -0.38298 0
M  V30 9522 O 878.131 -1.92324 -0.269256 0
M  V30 9523 C 875.261 -3.47237 -0.0663197 0
M  V30 9524 C 874.215 -4.1973 0.83731 0
M  V30 9525 C 873.541 -5.34687 0.0369102 0
M  V30 9526 C 874.841 -4.76286 2.14357 0
M  V30 9527 H 876.535 -2.60432 1.477 0
M  V30 9528 H 874.081 -1.25187 0.711634 0
M  V30 9529 H 876.034 -4.19803 -0.366563 0
M  V30 9530 H 874.758 -3.11615 -0.977944 0
M  V30 9531 H 873.417 -3.49024 1.1215 0
M  V30 9532 H 873.065 -4.95309 -0.876244 0
M  V30 9533 H 872.765 -5.84119 0.63865 0
M  V30 9534 H 874.289 -6.10059 -0.256968 0
M  V30 9535 H 875.703 -5.40691 1.90595 0
M  V30 9536 H 874.1 -5.36139 2.69583 0
M  V30 9537 H 875.17 -3.9524 2.80916 0
M  V30 9538 N 876.513 -0.788492 -1.36457 0
M  V30 9539 C 877.76 -0.360461 -1.99266 0
M  V30 9540 C 878.088 1.0676 -1.62581 0
M  V30 9541 O 877.343 1.75205 -0.871884 0
M  V30 9542 C 877.642 -0.470255 -3.54293 0
M  V30 9543 C 877.308 -1.85899 -4.10795 0
M  V30 9544 C 875.97 -2.23896 -4.25939 0
M  V30 9545 C 878.322 -2.76836 -4.41601 0
M  V30 9546 C 875.65 -3.52235 -4.69199 0
M  V30 9547 C 878.002 -4.04602 -4.86292 0
M  V30 9548 C 876.666 -4.42623 -4.99641 0
M  V30 9549 H 875.936 -0.131902 -0.729166 0
M  V30 9550 H 878.583 -1.00577 -1.62962 0
M  V30 9551 H 876.888 0.258559 -3.90946 0
M  V30 9552 H 878.585 -0.120119 -4.0082 0
M  V30 9553 H 875.175 -1.55372 -3.99447 0
M  V30 9554 H 879.359 -2.48735 -4.2947 0
M  V30 9555 H 874.615 -3.81565 -4.77722 0
M  V30 9556 H 878.789 -4.75182 -5.09092 0
M  V30 9557 H 876.416 -5.42125 -5.32921 0
M  V30 9558 N 877.991 1.48044 -0.54043 0
M  V30 9559 C 879.237 2.02797 -0.0101718 0
M  V30 9560 C 879.57 1.41565 1.32939 0
M  V30 9561 O 878.845 0.565139 1.86109 0
M  V30 9562 C 879.128 3.59959 0.100758 0
M  V30 9563 C 878.981 4.31654 -1.26471 0
M  V30 9564 C 880.3 4.32347 0.822455 0
M  V30 9565 H 877.419 0.736982 -0.00517052 0
M  V30 9566 H 880.061 1.76656 -0.69948 0
M  V30 9567 H 878.211 3.82363 0.687824 0
M  V30 9568 H 879.883 4.20639 -1.89369 0
M  V30 9569 H 878.126 3.92663 -1.84386 0
M  V30 9570 H 878.797 5.401 -1.13998 0
M  V30 9571 H 881.273 4.14835 0.324164 0
M  V30 9572 H 880.149 5.41978 0.868993 0
M  V30 9573 H 880.41 4.00369 1.87501 0
M  V30 9574 N 879.47 0.276058 1.55163 0
M  V30 9575 C 880.719 -0.341098 1.98795 0
M  V30 9576 C 881.032 -1.56905 1.16791 0
M  V30 9577 O 882.238 -2.25922 1.50571 0
M  V30 9578 C 880.694 -0.658231 3.5383 0
M  V30 9579 C 880.302 0.549972 4.44611 0
M  V30 9580 C 882.046 -1.23796 4.06048 0
M  V30 9581 C 879.953 0.207373 5.91036 0
M  V30 9582 H 878.883 -0.131224 0.742493 0
M  V30 9583 H 881.534 0.380858 1.79504 0
M  V30 9584 H 879.916 -1.43911 3.68925 0
M  V30 9585 H 881.09 1.32681 4.41285 0
M  V30 9586 H 879.405 1.04661 4.03032 0
M  V30 9587 H 882.002 -1.50811 5.12991 0
M  V30 9588 H 882.345 -2.17214 3.55139 0
M  V30 9589 H 882.878 -0.519345 3.94395 0
M  V30 9590 H 879.617 1.10946 6.46043 0
M  V30 9591 H 879.137 -0.532687 5.9743 0
M  V30 9592 H 880.816 -0.200072 6.46691 0
M  V30 9593 N 880.948 -1.576 0.00335426 0
M  V30 9594 C 881.911 -2.07576 -0.971838 0
M  V30 9595 C 882.911 -0.985796 -1.27038 0
M  V30 9596 O 884.101 -1.24833 -1.21501 0
M  V30 9597 C 881.233 -2.52003 -2.29581 0
M  V30 9598 H 882.426 -2.95008 -0.539481 0
M  V30 9599 H 879.979 -1.54381 -0.244186 0
M  V30 9600 H 880.714 -1.67825 -2.77498 0
M  V30 9601 H 880.499 -3.31609 -2.09231 0
M  V30 9602 H 881.989 -2.90983 -2.99531 0
M  V30 9603 N 882.426 0.269451 -1.5528 0
M  V30 9604 C 883.842 0.616827 -1.47199 0
M  V30 9605 C 884.042 1.89354 -0.68901 0
M  V30 9606 O 883.098 2.51631 -0.209287 0
M  V30 9607 C 884.411 0.740492 -2.9144 0
M  V30 9608 C 885.959 0.834312 -3.01676 0
M  V30 9609 C 886.434 0.989725 -4.47178 0
M  V30 9610 N 887.925 1.05516 -4.51022 0
M  V30 9611 C 888.66 1.19427 -5.60825 0
M  V30 9612 N 888.156 1.30035 -6.80487 0
M  V30 9613 N 889.949 1.22566 -5.48575 0
M  V30 9614 H 882.1 -0.568962 -2.04638 0
M  V30 9615 H 884.363 -0.193153 -0.928114 0
M  V30 9616 H 884.069 -0.127234 -3.5147 0
M  V30 9617 H 883.943 1.61965 -3.40657 0
M  V30 9618 H 886.33 1.6925 -2.4174 0
M  V30 9619 H 886.411 -0.0695298 -2.55705 0
M  V30 9620 H 886.055 0.136179 -5.07717 0
M  V30 9621 H 885.985 1.90827 -4.90808 0
M  V30 9622 H 888.476 0.985434 -3.64825 0
M  V30 9623 H 888.789 1.40494 -7.59922 0
M  V30 9624 H 887.134 1.27033 -6.83292 0
M  V30 9625 H 890.325 1.13911 -4.54029 0
M  V30 9626 H 890.498 1.33063 -6.34191 0
M  V30 9627 N 883.904 1.48273 0.534124 0
M  V30 9628 C 885.151 1.56079 1.29017 0
M  V30 9629 C 885.479 0.232912 1.931 0
M  V30 9630 O 884.734 -0.77642 1.79639 0
M  V30 9631 C 885.033 2.64468 2.40398 0
M  V30 9632 C 884.699 4.07034 1.93995 0
M  V30 9633 C 883.361 4.45838 1.81058 0
M  V30 9634 C 885.713 4.96395 1.58877 0
M  V30 9635 C 883.041 5.71812 1.31331 0
M  V30 9636 C 885.393 6.22854 1.10614 0
M  V30 9637 C 884.057 6.60518 0.962895 0
M  V30 9638 H 883.327 0.571135 0.472108 0
M  V30 9639 H 885.974 1.81973 0.5965 0
M  V30 9640 H 884.279 2.32419 3.15418 0
M  V30 9641 H 885.976 2.67725 2.98537 0
M  V30 9642 H 882.566 3.76387 2.05015 0
M  V30 9643 H 886.75 4.67096 1.67734 0
M  V30 9644 H 882.006 5.99722 1.18924 0
M  V30 9645 H 886.18 6.91495 0.825095 0
M  V30 9646 H 883.807 7.58019 0.575369 0
M  V30 9647 N 885.382 -0.782676 1.36792 0
M  V30 9648 C 886.61 -1.57162 1.34565 0
M  V30 9649 C 887.025 -1.88664 -0.0715501 0
M  V30 9650 O 886.382 -1.50633 -1.03033 0
M  V30 9651 C 886.433 -2.88854 2.1736 0
M  V30 9652 O 886.154 -2.58707 3.53557 0
M  V30 9653 C 887.655 -3.83132 2.2299 0
M  V30 9654 H 884.875 -0.487245 0.461338 0
M  V30 9655 H 887.419 -0.970905 1.79982 0
M  V30 9656 H 885.574 -3.45377 1.7548 0
M  V30 9657 H 885.988 -3.42961 3.96835 0
M  V30 9658 H 887.462 -4.72575 2.85266 0
M  V30 9659 H 887.939 -4.21472 1.23524 0
M  V30 9660 H 888.545 -3.32541 2.65135 0
M  V30 9661 N 886.86 -1.21182 -1.00761 0
M  V30 9662 C 888.271 -1.02652 -1.55947 0
M  V30 9663 C 888.622 0.414466 -1.91772 0
M  V30 9664 O 887.747 1.29727 -1.73204 0
M  V30 9665 C 888.342 -1.85713 -2.83366 0
M  V30 9666 C 886.901 -1.71523 -3.35048 0
M  V30 9667 C 886.048 -1.83087 -2.08265 0
M  V30 9668 H 888.999 -1.35242 -0.830379 0
M  V30 9669 H 889.02 -1.36583 -3.55141 0
M  V30 9670 H 888.532 -2.90584 -2.5726 0
M  V30 9671 H 886.633 -0.693257 -3.66094 0
M  V30 9672 H 886.746 -2.53333 -4.06644 0
M  V30 9673 H 885.11 -1.26367 -2.21141 0
M  V30 9674 H 885.893 -2.8946 -1.84575 0
M  V30 9675 N 888.338 1.20213 -1.01915 0
M  V30 9676 C 889.568 1.93341 -0.728197 0
M  V30 9677 C 889.976 1.75151 0.715454 0
M  V30 9678 O 889.319 1.06437 1.49722 0
M  V30 9679 C 889.381 3.45677 -0.9873 0
M  V30 9680 C 889.045 3.8763 -2.42057 0
M  V30 9681 C 890.042 3.93184 -3.40151 0
M  V30 9682 C 887.727 4.19547 -2.76199 0
M  V30 9683 C 889.721 4.30069 -4.70446 0
M  V30 9684 C 887.408 4.56106 -4.06707 0
M  V30 9685 C 888.406 4.6134 -5.03641 0
M  V30 9686 O 888.094 4.97059 -6.31813 0
M  V30 9687 H 887.826 0.621258 -0.266485 0
M  V30 9688 H 890.38 1.53577 -1.36393 0
M  V30 9689 H 888.61 3.85578 -0.294405 0
M  V30 9690 H 890.299 4.00035 -0.687536 0
M  V30 9691 H 891.065 3.68687 -3.15111 0
M  V30 9692 H 886.944 4.14663 -2.01434 0
M  V30 9693 H 890.488 4.34069 -5.46105 0
M  V30 9694 H 886.385 4.80059 -4.31525 0
M  V30 9695 H 887.153 5.15043 -6.36139 0
M  V30 9696 N 889.816 0.795718 1.36037 0
M  V30 9697 C 890.726 0.199784 2.33748 0
M  V30 9698 C 891.742 -0.651436 1.61345 0
M  V30 9699 O 892.918 -0.565743 1.93291 0
M  V30 9700 C 889.983 -0.650475 3.40543 0
M  V30 9701 C 889.044 0.219974 4.28736 0
M  V30 9702 C 888.277 -0.589798 5.30431 0
M  V30 9703 O 888.5 -1.82532 5.40406 0
M  V30 9704 O 887.434 0.0136187 6.01898 0
M  V30 9705 H 891.26 1.00782 2.8649 0
M  V30 9706 H 888.845 0.557293 1.38617 0
M  V30 9707 H 890.727 -1.13512 4.05824 0
M  V30 9708 H 889.402 -1.4363 2.9009 0
M  V30 9709 H 888.309 0.751516 3.66474 0
M  V30 9710 H 889.642 0.969468 4.82558 0
M  V30 9711 N 891.294 -1.47756 0.548274 0
M  V30 9712 C 892.54 -2.03379 0.0291238 0
M  V30 9713 C 892.895 -1.41603 -1.30255 0
M  V30 9714 O 892.188 -0.559102 -1.83261 0
M  V30 9715 C 892.382 -3.5716 -0.131069 0
M  V30 9716 C 892.211 -4.33846 1.18353 0
M  V30 9717 C 890.981 -4.74087 1.74841 0
M  V30 9718 C 893.179 -4.69535 2.09861 0
M  V30 9719 N 891.161 -5.35382 3.00398 0
M  V30 9720 C 892.532 -5.31039 3.19997 0
M  V30 9721 C 894.587 -4.51464 2.09964 0
M  V30 9722 C 893.29 -5.7638 4.30323 0
M  V30 9723 C 895.316 -4.97798 3.19297 0
M  V30 9724 C 894.678 -5.59343 4.28152 0
M  V30 9725 H 890.777 -0.780229 0.0526037 0
M  V30 9726 H 893.361 -1.80351 0.733593 0
M  V30 9727 H 891.532 -3.79974 -0.804647 0
M  V30 9728 H 893.264 -3.99422 -0.651476 0
M  V30 9729 H 890.019 -4.55764 1.2875 0
M  V30 9730 H 890.443 -5.7058 3.64372 0
M  V30 9731 H 895.085 -4.03246 1.27093 0
M  V30 9732 H 892.803 -6.23594 5.13961 0
M  V30 9733 H 896.389 -4.85593 3.20454 0
M  V30 9734 H 895.269 -5.94544 5.11358 0
M  V30 9735 N 892.772 -0.284283 -1.55015 0
M  V30 9736 C 894.002 0.332465 -2.03907 0
M  V30 9737 C 894.41 1.49331 -1.16177 0
M  V30 9738 O 893.753 1.82851 -0.176395 0
M  V30 9739 C 893.815 0.867193 -3.48884 0
M  V30 9740 C 893.479 -0.166198 -4.56698 0
M  V30 9741 C 894.476 -0.988898 -5.10408 0
M  V30 9742 C 892.161 -0.303081 -5.01385 0
M  V30 9743 C 894.155 -1.93458 -6.07333 0
M  V30 9744 C 891.842 -1.25223 -5.98133 0
M  V30 9745 C 892.84 -2.06647 -6.50988 0
M  V30 9746 O 892.528 -2.99955 -7.45843 0
M  V30 9747 H 892.26 0.0786597 -0.671408 0
M  V30 9748 H 894.814 -0.416871 -2.01125 0
M  V30 9749 H 893.044 1.66676 -3.48935 0
M  V30 9750 H 894.733 1.39802 -3.81065 0
M  V30 9751 H 895.499 -0.89393 -4.76691 0
M  V30 9752 H 891.378 0.320711 -4.59883 0
M  V30 9753 H 894.922 -2.57053 -6.48513 0
M  V30 9754 H 890.819 -1.34798 -6.31268 0
M  V30 9755 H 891.587 -2.94742 -7.6359 0
M  V30 9756 N 894.251 1.57596 -0.0117121 0
M  V30 9757 C 895.199 2.1029 0.994035 0
M  V30 9758 C 896.193 1.02549 1.34833 0
M  V30 9759 O 897.399 1.21003 1.3326 0
M  V30 9760 H 893.774 0.671624 0.338268 0
M  V30 9761 H 895.745 2.93761 0.524147 0
M  V30 9762 C 894.494 2.63099 2.27319 0
M  V30 9763 H 893.817 3.45642 2.00927 0
M  V30 9764 H 895.257 3.03635 2.95942 0
M  V30 9765 C 893.716 1.55044 2.99104 0
M  V30 9766 O 894.246 0.940127 3.90544 0
M  V30 9767 N 892.452 1.27506 2.61133 0
M  V30 9768 H 891.999 1.77322 1.86855 0
M  V30 9769 H 891.957 0.554292 3.09475 0
M  V30 9770 N 895.729 -0.261212 1.5542 0
M  V30 9771 C 897.14 -0.83138 1.67167 0
M  V30 9772 C 897.491 -1.8659 0.606525 0
M  V30 9773 O 896.616 -2.14953 -0.24985 0
M  V30 9774 C 897.211 -1.51475 3.03052 0
M  V30 9775 C 895.77 -2.0328 3.16787 0
M  V30 9776 C 894.917 -0.878903 2.63003 0
M  V30 9777 H 897.868 -0.0373102 1.58656 0
M  V30 9778 H 897.889 -2.38222 2.96699 0
M  V30 9779 H 897.401 -0.76157 3.80554 0
M  V30 9780 H 895.502 -2.81523 2.44082 0
M  V30 9781 H 895.615 -2.24001 4.2351 0
M  V30 9782 H 893.979 -1.27551 2.2046 0
M  V30 9783 H 894.762 -0.13904 3.43018 0
M  V30 9784 N 897.207 -1.48554 -0.526253 0
M  V30 9785 C 898.157 -1.59753 -1.62674 0
M  V30 9786 C 899.141 -0.454452 -1.54349 0
M  V30 9787 O 900.333 -0.706091 -1.62306 0
M  V30 9788 C 897.462 -1.64388 -3.01383 0
M  V30 9789 C 896.548 -2.84188 -3.14798 0
M  V30 9790 N 896.939 -4.08564 -2.98176 0
M  V30 9791 C 895.237 -2.81599 -3.45859 0
M  V30 9792 C 895.938 -4.88961 -3.15106 0
M  V30 9793 N 894.914 -4.21848 -3.42849 0
M  V30 9794 H 898.716 -2.5366 -1.48438 0
M  V30 9795 H 896.23 -1.44977 -0.731801 0
M  V30 9796 H 898.227 -1.70505 -3.80439 0
M  V30 9797 H 896.887 -0.716006 -3.16707 0
M  V30 9798 H 897.898 -4.38943 -2.74862 0
M  V30 9799 H 894.575 -1.98083 -3.67518 0
M  V30 9800 H 895.965 -5.97683 -3.0696 0
M  V30 9801 N 898.685 0.775411 -1.37205 0
M  V30 9802 C 900.096 1.35147 -1.28811 0
M  V30 9803 C 900.447 1.96089 0.0659168 0
M  V30 9804 O 899.572 1.93558 0.967684 0
M  V30 9805 C 900.167 2.45715 -2.33258 0
M  V30 9806 C 898.726 2.99099 -2.2851 0
M  V30 9807 C 897.873 1.72286 -2.17285 0
M  V30 9808 H 900.824 0.575954 -1.4788 0
M  V30 9809 H 900.845 3.251 -1.97712 0
M  V30 9810 H 900.357 2.01331 -3.31795 0
M  V30 9811 H 898.458 3.47868 -1.33485 0
M  V30 9812 H 898.571 3.54962 -3.21774 0
M  V30 9813 H 896.935 1.95068 -1.6377 0
M  V30 9814 H 897.718 1.3001 -3.1773 0
M  V30 9815 N 900.163 1.21714 1.00117 0
M  V30 9816 C 901.403 1.04818 1.75478 0
M  V30 9817 C 901.767 -0.410653 1.87557 0
M  V30 9818 O 902.968 -0.700241 2.59519 0
M  V30 9819 C 901.239 1.73055 3.12709 0
M  V30 9820 S 902.798 1.71464 4.03913 0
M  V30 9821 H 899.616 0.375534 0.603734 0
M  V30 9822 H 902.218 1.54522 1.19763 0
M  V30 9823 H 900.922 2.78376 3.01554 0
M  V30 9824 H 900.453 1.23546 3.73497 0
M  V30 9825 H 902.468 0.75845 4.90369 0
M  V30 9826 N 901.641 -1.19671 1.02551 0
M  V30 9827 C 902.589 -2.24812 0.596867 0
M  V30 9828 C 903.583 -1.65336 -0.368839 0
M  V30 9829 O 904.789 -1.78422 -0.237786 0
M  V30 9830 H 901.164 -0.731417 0.174739 0
M  V30 9831 H 903.135 -2.58286 1.49435 0
M  V30 9832 C 901.884 -3.47677 -0.0399514 0
M  V30 9833 H 901.207 -3.93728 0.694153 0
M  V30 9834 H 902.647 -4.22917 -0.302861 0
M  V30 9835 C 901.106 -3.11411 -1.2855 0
M  V30 9836 O 901.636 -3.23757 -2.37791 0
M  V30 9837 N 899.842 -2.65875 -1.17297 0
M  V30 9838 H 899.389 -2.56029 -0.284045 0
M  V30 9839 H 899.347 -2.41981 -2.00731 0
M  V30 9840 N 903.119 -0.802921 -1.35613 0
M  V30 9841 C 904.53 -0.443004 -1.81368 0
M  V30 9842 C 904.881 1.03459 -1.66706 0
M  V30 9843 O 904.006 1.80372 -1.19561 0
M  V30 9844 C 904.601 -0.797324 -3.29284 0
M  V30 9845 C 903.16 -0.490055 -3.73196 0
M  V30 9846 C 902.307 -1.02487 -2.57666 0
M  V30 9847 H 905.258 -0.994888 -1.23643 0
M  V30 9848 H 905.279 -0.0934638 -3.80385 0
M  V30 9849 H 904.791 -1.87278 -3.39924 0
M  V30 9850 H 902.892 0.576818 -3.68108 0
M  V30 9851 H 903.005 -1.02012 -4.68114 0
M  V30 9852 H 901.369 -0.44738 -2.5074 0
M  V30 9853 H 902.152 -2.10636 -2.71085 0
M  V30 9854 N 904.597 1.47463 -0.556102 0
M  V30 9855 C 905.874 1.9557 0.0339892 0
M  V30 9856 C 906.254 1.49869 1.48669 0
M  V30 9857 O 905.602 0.737019 2.16288 0
M  V30 9858 C 905.812 3.48826 -0.110343 0
M  V30 9859 C 907.16 4.24585 0.0355716 0
M  V30 9860 O 908.184 3.5618 -0.0378356 0
M  V30 9861 O 907.043 5.46158 0.193299 0
M  V30 9862 H 904.137 0.824461 0.0647521 0
M  V30 9863 H 906.683 1.57868 -0.622547 0
M  V30 9864 H 905.455 3.74891 -1.12126 0
M  V30 9865 H 905.078 3.9329 0.583855 0
M  V30 9866 N 906.075 0.2925 1.54862 0
M  V30 9867 C 907.3 -0.32494 2.04839 0
M  V30 9868 C 907.725 -1.47381 1.16877 0
M  V30 9869 O 907.083 -1.80492 0.171028 0
M  V30 9870 C 907.131 -0.76694 3.5235 0
M  V30 9871 O 906.235 -1.87256 3.67436 0
M  V30 9872 H 905.576 -0.0645195 0.660858 0
M  V30 9873 H 908.106 0.431867 1.9999 0
M  V30 9874 H 908.116 -1.05804 3.94043 0
M  V30 9875 H 906.791 0.0735212 4.15835 0
M  V30 9876 H 905.368 -1.58266 3.37648 0
M  V30 9877 N 907.553 -1.57587 0.0200696 0
M  V30 9878 C 908.83 -1.82696 -0.698677 0
M  V30 9879 C 909.21 -0.902082 -1.90855 0
M  V30 9880 O 908.558 0.0444834 -2.28457 0
M  V30 9881 C 908.768 -3.31691 -1.08546 0
M  V30 9882 C 910.116 -3.97938 -1.4809 0
M  V30 9883 O 911.14 -3.36133 -1.17869 0
M  V30 9884 O 909.999 -5.06851 -2.04364 0
M  V30 9885 H 907.093 -0.752997 -0.341942 0
M  V30 9886 H 909.639 -1.69635 0.04706 0
M  V30 9887 H 908.411 -3.90659 -0.223956 0
M  V30 9888 H 908.034 -3.49825 -1.88965 0
M  V30 9889 N 909.032 0.252966 -1.55557 0
M  V30 9890 C 910.278 0.983306 -1.77367 0
M  V30 9891 C 910.611 1.85203 -0.584258 0
M  V30 9892 O 909.886 1.89963 0.417644 0
M  V30 9893 C 910.169 1.84896 -3.09007 0
M  V30 9894 C 910.022 1.00883 -4.38341 0
M  V30 9895 C 911.341 2.83254 -3.36831 0
M  V30 9896 H 908.46 0.356056 -0.645286 0
M  V30 9897 H 911.102 0.254232 -1.88291 0
M  V30 9898 H 909.252 2.47058 -2.99825 0
M  V30 9899 H 910.924 0.40638 -4.59507 0
M  V30 9900 H 909.167 0.31297 -4.3267 0
M  V30 9901 H 909.838 1.64818 -5.2682 0
M  V30 9902 H 912.314 2.31228 -3.45937 0
M  V30 9903 H 911.19 3.40949 -4.30169 0
M  V30 9904 H 911.451 3.59407 -2.57447 0
M  V30 9905 N 910.51 1.48831 0.518367 0
M  V30 9906 C 911.756 1.57672 1.27543 0
M  V30 9907 C 912.089 0.254915 1.9252 0
M  V30 9908 O 911.364 -0.740107 1.79868 0
M  V30 9909 C 911.647 2.72345 2.35585 0
M  V30 9910 C 911.5 4.14267 1.75224 0
M  V30 9911 C 912.819 2.82726 3.37274 0
M  V30 9912 H 909.938 0.573926 0.462361 0
M  V30 9913 H 912.58 1.8105 0.576267 0
M  V30 9914 H 910.73 2.52543 2.95219 0
M  V30 9915 H 912.402 4.45539 1.19551 0
M  V30 9916 H 910.645 4.20724 1.05706 0
M  V30 9917 H 911.316 4.90345 2.53507 0
M  V30 9918 H 913.792 3.00699 2.8761 0
M  V30 9919 H 912.668 3.6467 4.10252 0
M  V30 9920 H 912.929 1.9136 3.9854 0
M  V30 9921 N 911.988 -0.768124 1.37614 0
M  V30 9922 C 912.898 -1.91249 1.35871 0
M  V30 9923 C 913.914 -1.7208 0.257786 0
M  V30 9924 O 915.09 -1.95253 0.493782 0
M  V30 9925 C 912.155 -3.26423 1.16829 0
M  V30 9926 C 911.216 -3.5822 2.36594 0
M  V30 9927 C 910.449 -4.86945 2.1845 0
M  V30 9928 O 910.672 -5.58258 1.17064 0
M  V30 9929 O 909.606 -5.17888 3.06718 0
M  V30 9930 H 913.432 -1.95671 2.32264 0
M  V30 9931 H 911.017 -0.911382 1.18382 0
M  V30 9932 H 912.899 -4.07269 1.08212 0
M  V30 9933 H 911.574 -3.22845 0.235123 0
M  V30 9934 H 910.481 -2.77594 2.50783 0
M  V30 9935 H 911.814 -3.66545 3.2849 0
M  V30 9936 N 913.466 -1.22244 -0.994698 0
M  V30 9937 C 914.414 -0.988118 -2.10568 0
M  V30 9938 C 915.408 0.0681541 -1.69263 0
M  V30 9939 O 916.614 -0.0841311 -1.79803 0
M  V30 9940 H 912.989 -0.302343 -0.688544 0
M  V30 9941 H 914.96 -1.93091 -2.27505 0
M  V30 9942 C 913.709 -0.580557 -3.42819 0
M  V30 9943 H 913.032 -1.385 -3.75044 0
M  V30 9944 H 914.472 -0.456004 -4.21541 0
M  V30 9945 C 912.931 0.709692 -3.2934 0
M  V30 9946 O 913.461 1.76259 -3.60965 0
M  V30 9947 N 911.667 0.680155 -2.82528 0
M  V30 9948 H 911.214 -0.176977 -2.56991 0
M  V30 9949 H 911.172 1.54372 -2.73892 0
M  V30 9950 N 914.944 1.19125 -1.03184 0
M  V30 9951 C 915.892 2.24492 -0.608781 0
M  V30 9952 C 916.886 1.65529 0.360065 0
M  V30 9953 O 918.092 1.78546 0.22832 0
M  V30 9954 H 914.467 0.73048 -0.178616 0
M  V30 9955 H 916.438 2.5749 -1.50803 0
M  V30 9956 C 915.187 3.47693 0.0215126 0
M  V30 9957 H 914.51 3.93354 -0.715024 0
M  V30 9958 H 915.95 4.23072 0.280429 0
M  V30 9959 C 914.409 3.12088 1.26896 0
M  V30 9960 O 914.939 3.25013 2.36071 0
M  V30 9961 N 913.145 2.66494 1.15886 0
M  V30 9962 H 912.692 2.56176 0.270463 0
M  V30 9963 H 912.65 2.43042 1.99444 0
M  V30 9964 N 916.422 0.810101 1.35185 0
M  V30 9965 C 917.669 0.392117 1.98667 0
M  V30 9966 C 917.997 -1.0416 1.64259 0
M  V30 9967 O 917.252 -1.73795 0.899647 0
M  V30 9968 C 917.551 0.526561 3.535 0
M  V30 9969 C 917.217 1.92411 4.07785 0
M  V30 9970 C 915.879 2.30644 4.22323 0
M  V30 9971 C 918.231 2.83827 4.37141 0
M  V30 9972 C 915.559 3.59655 4.63536 0
M  V30 9973 C 917.911 4.12287 4.79794 0
M  V30 9974 C 916.575 4.50515 4.92536 0
M  V30 9975 H 915.845 0.143486 0.726975 0
M  V30 9976 H 918.492 1.03157 1.61341 0
M  V30 9977 H 916.797 -0.19633 3.91308 0
M  V30 9978 H 918.494 0.183871 4.00578 0
M  V30 9979 H 915.084 1.61707 3.96924 0
M  V30 9980 H 919.268 2.55536 4.25459 0
M  V30 9981 H 914.524 3.89117 4.71591 0
M  V30 9982 H 918.698 4.83221 5.01468 0
M  V30 9983 H 916.325 5.50535 5.24229 0
M  V30 9984 N 917.9 -1.47166 0.563914 0
M  V30 9985 C 919.128 -2.06846 0.0474287 0
M  V30 9986 C 919.543 -1.41557 -1.24928 0
M  V30 9987 O 918.9 -0.514376 -1.75101 0
M  V30 9988 C 918.951 -3.6121 -0.144831 0
M  V30 9989 O 918.672 -4.24052 1.10053 0
M  V30 9990 C 920.173 -4.37773 -0.69783 0
M  V30 9991 H 917.393 -0.669217 0.0488896 0
M  V30 9992 H 919.937 -1.89072 0.779235 0
M  V30 9993 H 918.092 -3.78474 -0.82679 0
M  V30 9994 H 918.506 -5.16677 0.902481 0
M  V30 9995 H 919.98 -5.46438 -0.781616 0
M  V30 9996 H 920.457 -4.04517 -1.71063 0
M  V30 9997 H 921.063 -4.25269 -0.0513516 0
M  V30 9998 N 919.378 -0.300708 -1.54705 0
M  V30 9999 C 920.308 0.568675 -2.26469 0
M  V30 10000 C 921.289 1.13817 -1.26411 0
M  V30 10001 O 922.474 1.16756 -1.55183 0
M  V30 10002 C 919.604 1.74077 -3.00524 0
M  V30 10003 C 918.558 1.30165 -4.07727 0
M  V30 10004 C 917.884 2.55888 -4.69495 0
M  V30 10005 C 919.184 0.433106 -5.20501 0
M  V30 10006 H 920.878 -0.0298851 -2.99385 0
M  V30 10007 H 918.424 -0.0158135 -1.43991 0
M  V30 10008 H 920.377 2.35506 -3.49449 0
M  V30 10009 H 919.101 2.36556 -2.25186 0
M  V30 10010 H 917.76 0.710414 -3.59651 0
M  V30 10011 H 917.408 3.16681 -3.90797 0
M  V30 10012 H 917.108 2.27207 -5.41895 0
M  V30 10013 H 918.632 3.18121 -5.21183 0
M  V30 10014 H 920.046 0.95307 -5.65322 0
M  V30 10015 H 918.443 0.240085 -5.9962 0
M  V30 10016 H 919.513 -0.541866 -4.81863 0
M  V30 10017 N 920.856 1.57574 -0.0284266 0
M  V30 10018 C 921.786 2.1321 0.952039 0
M  V30 10019 C 922.767 1.04806 1.33977 0
M  V30 10020 O 923.952 1.32635 1.41851 0
M  V30 10021 C 921.082 2.65862 2.23461 0
M  V30 10022 C 920.036 3.79047 1.98765 0
M  V30 10023 C 919.362 4.18124 3.33281 0
M  V30 10024 C 920.662 5.05151 1.32739 0
M  V30 10025 H 922.356 2.95385 0.488705 0
M  V30 10026 H 919.902 1.42092 0.233628 0
M  V30 10027 H 921.855 3.03417 2.92431 0
M  V30 10028 H 920.579 1.80848 2.71959 0
M  V30 10029 H 919.238 3.41929 1.32213 0
M  V30 10030 H 918.886 3.30092 3.79537 0
M  V30 10031 H 918.586 4.94396 3.17563 0
M  V30 10032 H 920.11 4.58262 4.0352 0
M  V30 10033 H 921.524 5.40297 1.91708 0
M  V30 10034 H 919.921 5.86416 1.27421 0
M  V30 10035 H 920.991 4.83969 0.300261 0
M  V30 10036 N 922.334 -0.244713 1.55689 0
M  V30 10037 C 923.282 -1.32276 1.91326 0
M  V30 10038 C 924.276 -1.49714 0.792589 0
M  V30 10039 O 925.482 -1.51163 0.977227 0
M  V30 10040 H 921.857 -0.442979 0.607679 0
M  V30 10041 H 923.828 -0.99486 2.81327 0
M  V30 10042 C 922.577 -2.67077 2.22633 0
M  V30 10043 H 921.9 -2.54458 3.08368 0
M  V30 10044 H 923.34 -3.41378 2.5147 0
M  V30 10045 C 921.799 -3.20335 1.04342 0
M  V30 10046 O 922.329 -4.00633 0.292543 0
M  V30 10047 N 920.535 -2.78392 0.833457 0
M  V30 10048 H 920.082 -2.13202 1.44577 0
M  V30 10049 H 920.04 -3.1437 0.0436713 0
M  V30 10050 N 923.813 -1.49104 -0.510467 0
M  V30 10051 C 925.038 -1.62068 -1.29417 0
M  V30 10052 C 925.463 -0.288432 -1.85875 0
M  V30 10053 O 924.821 0.742667 -1.65391 0
M  V30 10054 C 924.869 -2.68506 -2.40701 0
M  V30 10055 O 923.973 -2.27021 -3.4429 0
M  V30 10056 H 923.314 -0.542778 -0.382476 0
M  V30 10057 H 925.844 -1.95228 -0.612154 0
M  V30 10058 H 925.854 -2.90383 -2.86604 0
M  V30 10059 H 924.529 -3.65216 -1.98973 0
M  V30 10060 H 923.106 -2.15436 -3.04371 0
M  V30 10061 N 925.291 0.760815 -1.38019 0
M  V30 10062 C 926.538 1.51973 -1.3383 0
M  V30 10063 C 926.866 1.9436 0.0738855 0
M  V30 10064 O 926.121 1.65181 1.04946 0
M  V30 10065 C 926.42 2.79024 -2.23339 0
M  V30 10066 C 926.086 2.55636 -3.71431 0
M  V30 10067 C 924.748 2.48966 -4.11788 0
M  V30 10068 C 927.1 2.35018 -4.65205 0
M  V30 10069 C 924.428 2.19684 -5.44018 0
M  V30 10070 C 926.78 2.07258 -5.97685 0
M  V30 10071 C 925.444 1.9904 -6.37134 0
M  V30 10072 H 924.714 0.556108 -0.489719 0
M  V30 10073 H 927.361 0.87545 -1.70318 0
M  V30 10074 H 925.666 3.48065 -1.79883 0
M  V30 10075 H 927.363 3.36951 -2.17405 0
M  V30 10076 H 923.953 2.61695 -3.39432 0
M  V30 10077 H 928.137 2.39154 -4.34878 0
M  V30 10078 H 923.393 2.11825 -5.73533 0
M  V30 10079 H 927.567 1.90307 -6.69893 0
M  V30 10080 H 925.194 1.76115 -7.39519 0
M  V30 10081 N 926.769 1.22769 0.988202 0
M  V30 10082 C 928.015 1.06672 1.73184 0
M  V30 10083 C 928.37 -0.393434 1.88334 0
M  V30 10084 O 927.663 -1.2876 1.41885 0
M  V30 10085 C 927.857 1.71679 3.13466 0
M  V30 10086 C 927.686 3.23864 3.11997 0
M  V30 10087 C 926.456 3.92991 3.17626 0
M  V30 10088 C 928.654 4.20737 2.95778 0
M  V30 10089 N 926.636 5.32224 3.05959 0
M  V30 10090 C 928.007 5.46831 2.92191 0
M  V30 10091 C 930.062 4.1157 2.80205 0
M  V30 10092 C 928.765 6.64811 2.74624 0
M  V30 10093 C 930.791 5.29205 2.64 0
M  V30 10094 C 930.153 6.5422 2.61104 0
M  V30 10095 H 926.252 0.44481 0.64317 0
M  V30 10096 H 928.836 1.55381 1.17323 0
M  V30 10097 H 927.007 1.25513 3.67561 0
M  V30 10098 H 928.739 1.48629 3.76419 0
M  V30 10099 H 925.494 3.4402 3.25495 0
M  V30 10100 H 925.918 6.05197 3.03423 0
M  V30 10101 H 930.56 3.15697 2.81239 0
M  V30 10102 H 928.278 7.60828 2.72336 0
M  V30 10103 H 931.864 5.23947 2.52925 0
M  V30 10104 H 930.744 7.43713 2.48719 0
M  V30 10105 N 928.247 -1.18576 1.03814 0
M  V30 10106 C 929.494 -1.88493 0.740036 0
M  V30 10107 C 929.822 -1.80198 -0.732056 0
M  V30 10108 O 929.077 -1.19509 -1.54971 0
M  V30 10109 C 929.376 -3.38448 1.14837 0
M  V30 10110 C 929.042 -3.66947 2.62031 0
M  V30 10111 C 927.704 -3.74435 3.02244 0
M  V30 10112 C 930.056 -3.79534 3.57217 0
M  V30 10113 C 927.384 -3.91986 4.36536 0
M  V30 10114 C 929.736 -3.986 4.91223 0
M  V30 10115 C 928.4 -4.04323 5.31111 0
M  V30 10116 H 927.67 -0.689746 0.270798 0
M  V30 10117 H 930.317 -1.40364 1.3027 0
M  V30 10118 H 928.622 -3.88539 0.504472 0
M  V30 10119 H 930.319 -3.90882 0.89511 0
M  V30 10120 H 926.909 -3.61734 2.29883 0
M  V30 10121 H 931.093 -3.73083 3.27296 0
M  V30 10122 H 926.349 -3.9466 4.66962 0
M  V30 10123 H 930.523 -4.07281 5.64885 0
M  V30 10124 H 928.15 -4.17676 6.35178 0
M  V30 10125 N 929.725 -0.817259 -1.34754 0
M  V30 10126 C 930.973 -0.401852 -1.98065 0
M  V30 10127 C 931.294 1.03718 -1.65129 0
M  V30 10128 O 930.564 1.71921 -0.939141 0
M  V30 10129 H 929.144 -0.145603 -0.732672 0
M  V30 10130 H 931.806 -1.04545 -1.64488 0
M  V30 10131 H 930.902 -0.516241 -3.07801 0
M  V30 10132 N 931.203 1.46865 -0.571711 0
M  V30 10133 C 932.449 2.0273 -0.0531858 0
M  V30 10134 C 932.782 1.44353 1.29907 0
M  V30 10135 O 932.057 0.604488 1.84868 0
M  V30 10136 C 932.34 3.60092 0.0243831 0
M  V30 10137 C 932.193 4.28874 -1.35599 0
M  V30 10138 C 933.512 4.33994 0.730563 0
M  V30 10139 H 930.631 0.736706 -0.0208018 0
M  V30 10140 H 933.273 1.75132 -0.736794 0
M  V30 10141 H 931.423 3.83736 0.606565 0
M  V30 10142 H 933.095 4.16527 -1.98249 0
M  V30 10143 H 931.338 3.88664 -1.92674 0
M  V30 10144 H 932.009 5.37561 -1.25429 0
M  V30 10145 H 934.485 4.1543 0.236098 0
M  V30 10146 H 933.361 5.43699 0.753836 0
M  V30 10147 H 933.622 4.04257 1.78967 0
M  V30 10148 N 932.681 0.308908 1.54543 0
M  V30 10149 C 933.929 -0.297447 1.99899 0
M  V30 10150 C 934.25 -1.53799 1.19878 0
M  V30 10151 O 933.52 -1.93639 0.29678 0
M  V30 10152 H 932.1 -0.112897 0.738419 0
M  V30 10153 H 934.762 0.422067 1.90275 0
M  V30 10154 H 933.858 -0.564016 3.06961 0
M  V30 10155 N 934.159 -1.57557 0.0367827 0
M  V30 10156 C 935.122 -2.09591 -0.927589 0
M  V30 10157 C 936.122 -1.01252 -1.24919 0
M  V30 10158 O 937.312 -1.27382 -1.18825 0
M  V30 10159 C 934.444 -2.56816 -2.24184 0
M  V30 10160 H 935.637 -2.96086 -0.476784 0
M  V30 10161 H 933.19 -1.54864 -0.211385 0
M  V30 10162 H 933.925 -1.73673 -2.73876 0
M  V30 10163 H 933.71 -3.35973 -2.0215 0
M  V30 10164 H 935.2 -2.97271 -2.93291 0
M  V30 10165 N 935.637 0.236453 -1.55816 0
M  V30 10166 C 936.567 1.29639 -1.94206 0
M  V30 10167 C 937.548 1.49667 -0.808319 0
M  V30 10168 O 938.733 1.621 -1.06945 0
M  V30 10169 C 935.863 2.64914 -2.24584 0
M  V30 10170 C 934.817 2.59565 -3.40308 0
M  V30 10171 C 934.143 3.98732 -3.56254 0
M  V30 10172 C 935.443 2.15642 -4.75706 0
M  V30 10173 H 937.137 0.977552 -2.82992 0
M  V30 10174 H 934.683 0.468804 -1.36155 0
M  V30 10175 H 936.636 3.39209 -2.50031 0
M  V30 10176 H 935.36 2.98455 -1.32636 0
M  V30 10177 H 934.019 1.87728 -3.14887 0
M  V30 10178 H 933.667 4.29556 -2.61707 0
M  V30 10179 H 933.367 3.96039 -4.34082 0
M  V30 10180 H 934.891 4.74711 -3.84033 0
M  V30 10181 H 936.305 2.79673 -5.00456 0
M  V30 10182 H 934.702 2.24039 -5.56711 0
M  V30 10183 H 935.772 1.10831 -4.72064 0
M  V30 10184 N 937.115 1.49373 0.502552 0
M  V30 10185 C 938.048 1.60529 1.6219 0
M  V30 10186 C 939.026 0.454431 1.56121 0
M  V30 10187 O 940.21 0.669768 1.762 0
M  V30 10188 C 937.337 1.55879 3.00698 0
M  V30 10189 C 936.383 2.76143 3.25034 0
M  V30 10190 S 937.216 4.37831 3.08325 0
M  V30 10191 C 938.372 4.35824 4.49231 0
M  V30 10192 H 938.605 2.55219 1.52482 0
M  V30 10193 H 936.138 1.38244 0.687594 0
M  V30 10194 H 938.096 1.53882 3.80566 0
M  V30 10195 H 936.757 0.624791 3.07823 0
M  V30 10196 H 935.95 2.69104 4.26144 0
M  V30 10197 H 935.552 2.75544 2.52886 0
M  V30 10198 H 937.844 4.07447 5.41288 0
M  V30 10199 H 938.787 5.37206 4.6132 0
M  V30 10200 H 939.195 3.65923 4.29838 0
M  V30 10201 N 938.594 -0.753485 1.38421 0
M  V30 10202 C 939.526 -1.87692 1.31547 0
M  V30 10203 C 940.539 -1.612 0.227671 0
M  V30 10204 O 941.728 -1.71778 0.485238 0
M  V30 10205 C 938.828 -3.23329 1.01545 0
M  V30 10206 C 938.001 -3.77324 2.21236 0
M  V30 10207 C 937.06 -4.91478 1.87977 0
M  V30 10208 O 936.086 -5.06106 2.60472 0
M  V30 10209 N 937.288 -5.74466 0.834796 0
M  V30 10210 H 940.053 -1.94099 2.28354 0
M  V30 10211 H 937.614 -0.933421 1.32283 0
M  V30 10212 H 939.606 -3.9724 0.773477 0
M  V30 10213 H 938.176 -3.12307 0.135334 0
M  V30 10214 H 937.396 -2.94978 2.61498 0
M  V30 10215 H 938.684 -4.10131 3.01115 0
M  V30 10216 H 938.082 -5.65217 0.233606 0
M  V30 10217 H 936.639 -6.48524 0.652703 0
M  V30 10218 N 940.072 -1.23292 -0.981677 0
M  V30 10219 C 941.004 -0.970782 -2.07626 0
M  V30 10220 C 942.017 0.0547506 -1.62708 0
M  V30 10221 O 943.206 -0.180623 -1.77584 0
M  V30 10222 C 940.306 -0.44055 -3.36024 0
M  V30 10223 C 939.479 -1.52595 -4.09919 0
M  V30 10224 C 938.538 -1.00082 -5.16595 0
M  V30 10225 O 937.564 -1.68951 -5.43548 0
M  V30 10226 N 938.766 0.172017 -5.80245 0
M  V30 10227 H 941.531 -1.91316 -2.30691 0
M  V30 10228 H 939.092 -1.14133 -1.14828 0
M  V30 10229 H 941.084 -0.0743111 -4.04632 0
M  V30 10230 H 939.654 0.407211 -3.09936 0
M  V30 10231 H 938.874 -2.06501 -3.35784 0
M  V30 10232 H 940.162 -2.2559 -4.56055 0
M  V30 10233 H 939.56 0.748129 -5.60731 0
M  V30 10234 H 938.117 0.479532 -6.50034 0
M  V30 10235 N 941.55 1.18024 -1.04442 0
M  V30 10236 C 942.798 1.87727 -0.74854 0
M  V30 10237 C 943.119 1.80975 0.726156 0
M  V30 10238 O 942.389 1.23061 1.52423 0
M  V30 10239 H 940.969 0.694974 -0.273897 0
M  V30 10240 H 943.631 1.43213 -1.32197 0
M  V30 10241 H 942.727 2.93665 -1.05674 0
M  V30 10242 N 943.028 0.824394 1.34319 0
M  V30 10243 C 944.253 0.425194 2.02995 0
M  V30 10244 C 944.678 -0.961476 1.6167 0
M  V30 10245 O 944.036 -1.62593 0.80207 0
M  V30 10246 C 944.084 0.537004 3.56579 0
M  V30 10247 O 943.188 -0.442576 4.10018 0
M  V30 10248 H 942.529 0.174853 0.640564 0
M  V30 10249 H 945.059 1.11522 1.71534 0
M  V30 10250 H 945.069 0.413311 4.05901 0
M  V30 10251 H 943.744 1.54836 3.86004 0
M  V30 10252 H 942.321 -0.277644 3.71865 0
M  V30 10253 N 944.506 -1.46559 0.579492 0
M  V30 10254 C 945.416 -2.34066 -0.15816 0
M  V30 10255 C 946.432 -1.49556 -0.88932 0
M  V30 10256 O 947.608 -1.82434 -0.853226 0
M  V30 10257 C 944.673 -3.26683 -1.161 0
M  V30 10258 C 943.734 -4.27092 -0.434855 0
M  V30 10259 C 942.967 -5.15283 -1.38992 0
M  V30 10260 O 943.19 -5.06345 -2.62623 0
M  V30 10261 O 942.124 -5.95099 -0.902253 0
M  V30 10262 H 945.95 -2.98488 0.560234 0
M  V30 10263 H 943.535 -1.45482 0.339918 0
M  V30 10264 H 945.417 -3.8383 -1.73932 0
M  V30 10265 H 944.092 -2.64862 -1.86091 0
M  V30 10266 H 942.999 -3.73641 0.185224 0
M  V30 10267 H 944.332 -4.9169 0.224031 0
M  V30 10268 N 945.984 -0.3171 -1.54377 0
M  V30 10269 C 946.914 0.544623 -2.2706 0
M  V30 10270 C 947.895 1.12469 -1.27611 0
M  V30 10271 O 949.08 1.15103 -1.56413 0
M  V30 10272 C 946.21 1.70879 -3.02353 0
M  V30 10273 C 945.164 1.25833 -4.09084 0
M  V30 10274 C 944.49 2.50894 -4.72182 0
M  V30 10275 C 945.79 0.377876 -5.20931 0
M  V30 10276 H 947.484 -0.0616372 -2.99337 0
M  V30 10277 H 945.03 -0.0310848 -1.43966 0
M  V30 10278 H 946.983 2.31787 -3.51927 0
M  V30 10279 H 945.707 2.34155 -2.27682 0
M  V30 10280 H 944.366 0.672228 -3.60384 0
M  V30 10281 H 944.014 3.12518 -3.94134 0
M  V30 10282 H 943.714 2.21447 -5.44275 0
M  V30 10283 H 945.238 3.12575 -5.24528 0
M  V30 10284 H 946.652 0.893056 -5.66302 0
M  V30 10285 H 945.049 0.176474 -5.9984 0
M  V30 10286 H 946.119 -0.592943 -4.81261 0
M  V30 10287 N 947.462 1.57535 -0.0451378 0
M  V30 10288 C 948.395 2.06721 0.96653 0
M  V30 10289 C 949.373 0.966392 1.30766 0
M  V30 10290 O 950.557 1.23789 1.42157 0
M  V30 10291 C 947.684 2.50266 2.2822 0
M  V30 10292 C 946.73 3.71525 2.09455 0
M  V30 10293 S 947.563 5.17453 1.37851 0
M  V30 10294 C 948.719 5.64308 2.70753 0
M  V30 10295 H 948.952 2.92207 0.547911 0
M  V30 10296 H 946.485 1.53494 0.166973 0
M  V30 10297 H 948.443 2.76019 3.03849 0
M  V30 10298 H 947.104 1.65097 2.67211 0
M  V30 10299 H 946.297 3.99894 3.06759 0
M  V30 10300 H 945.899 3.46008 1.41967 0
M  V30 10301 H 948.191 5.69525 3.66943 0
M  V30 10302 H 949.134 6.63613 2.47028 0
M  V30 10303 H 949.542 4.92014 2.76736 0
M  V30 10304 N 948.94 -0.228186 1.55939 0
M  V30 10305 C 950.351 -0.795734 1.68893 0
M  V30 10306 C 950.702 -1.85261 0.645967 0
M  V30 10307 O 949.827 -2.15434 -0.2042 0
M  V30 10308 C 950.422 -1.45013 3.06197 0
M  V30 10309 C 948.981 -1.96514 3.21028 0
M  V30 10310 C 948.128 -0.822918 2.64808 0
M  V30 10311 H 951.079 -0.0036485 1.587 0
M  V30 10312 H 951.1 -2.31875 3.01685 0
M  V30 10313 H 950.612 -0.680678 3.82084 0
M  V30 10314 H 948.713 -2.76282 2.49998 0
M  V30 10315 H 948.826 -2.14967 4.28166 0
M  V30 10316 H 947.19 -1.22846 2.23116 0
M  V30 10317 H 947.973 -0.0662493 3.43236 0
M  V30 10318 N 950.418 -1.49637 -0.494624 0
M  V30 10319 C 951.365 -1.66776 -1.59545 0
M  V30 10320 C 952.335 -0.509159 -1.58104 0
M  V30 10321 O 953.52 -0.736949 -1.75993 0
M  V30 10322 C 950.66 -1.74624 -2.97658 0
M  V30 10323 C 949.773 -3.01831 -3.09067 0
M  V30 10324 C 948.908 -3.00619 -4.37952 0
M  V30 10325 C 947.947 -4.22378 -4.43016 0
M  V30 10326 N 947.084 -4.1904 -5.63339 0
M  V30 10327 H 951.924 -2.60767 -1.44238 0
M  V30 10328 H 949.461 -1.29286 -0.701673 0
M  V30 10329 H 951.419 -1.77156 -3.77719 0
M  V30 10330 H 950.049 -0.840936 -3.11654 0
M  V30 10331 H 949.101 -3.08881 -2.22029 0
M  V30 10332 H 950.413 -3.91823 -3.08669 0
M  V30 10333 H 949.567 -3.01749 -5.26339 0
M  V30 10334 H 948.306 -2.08416 -4.40924 0
M  V30 10335 H 947.311 -4.21485 -3.5303 0
M  V30 10336 H 948.536 -5.15781 -4.41755 0
M  V30 10337 H 946.482 -3.29677 -5.67141 0
M  V30 10338 H 946.399 -5.02774 -5.64583 0
M  V30 10339 H 947.667 -4.24281 -6.53916 0
M  V30 10340 N 951.896 0.746133 -1.38819 0
M  V30 10341 C 952.859 1.84167 -1.36437 0
M  V30 10342 C 953.859 1.58626 -0.263499 0
M  V30 10343 O 955.049 1.66233 -0.520801 0
M  V30 10344 C 952.181 3.21769 -1.12596 0
M  V30 10345 H 953.374 1.87684 -2.33912 0
M  V30 10346 H 950.927 0.948625 -1.24221 0
M  V30 10347 H 951.662 3.23917 -0.15758 0
M  V30 10348 H 951.447 3.41702 -1.92307 0
M  V30 10349 H 952.937 4.0184 -1.13643 0
M  V30 10350 N 953.375 1.23811 0.975125 0
M  V30 10351 C 954.305 1.04846 2.08638 0
M  V30 10352 C 955.286 -0.0362859 1.70061 0
M  V30 10353 O 956.471 0.12937 1.93769 0
M  V30 10354 C 953.601 0.644534 3.41267 0
M  V30 10355 C 952.555 1.67722 3.93768 0
M  V30 10356 C 951.881 1.12857 5.22654 0
M  V30 10357 C 953.181 3.07147 4.22443 0
M  V30 10358 H 954.875 1.97795 2.24761 0
M  V30 10359 H 952.421 0.952397 1.08006 0
M  V30 10360 H 954.374 0.498887 4.18436 0
M  V30 10361 H 953.098 -0.320641 3.25022 0
M  V30 10362 H 951.757 1.81095 3.18748 0
M  V30 10363 H 951.405 0.154227 5.02764 0
M  V30 10364 H 951.105 1.81862 5.58749 0
M  V30 10365 H 952.629 0.994891 6.0244 0
M  V30 10366 H 954.043 2.97045 4.90344 0
M  V30 10367 H 952.44 3.73437 4.6975 0
M  V30 10368 H 953.51 3.55743 3.29507 0
M  V30 10369 N 954.853 -1.17469 1.05066 0
M  V30 10370 C 956.078 -1.92162 0.780298 0
M  V30 10371 C 956.503 -1.76222 -0.657832 0
M  V30 10372 O 955.861 -1.0791 -1.45688 0
M  V30 10373 C 955.909 -3.41292 1.16414 0
M  V30 10374 O 955.013 -4.1134 0.295531 0
M  V30 10375 H 954.354 -0.599127 0.286257 0
M  V30 10376 H 956.884 -1.48903 1.40318 0
M  V30 10377 H 956.894 -3.92029 1.13036 0
M  V30 10378 H 955.569 -3.52214 2.21175 0
M  V30 10379 H 954.146 -3.70857 0.389797 0
M  V30 10380 N 956.331 -0.831506 -1.3388 0
M  V30 10381 C 957.559 -0.436925 -2.02234 0
M  V30 10382 C 957.974 0.959689 -1.6259 0
M  V30 10383 O 957.331 1.62248 -0.835576 0
M  V30 10384 C 957.382 -0.539429 -3.57453 0
M  V30 10385 O 957.103 -1.88101 -3.95664 0
M  V30 10386 C 958.604 -0.140852 -4.43076 0
M  V30 10387 H 955.824 -0.174302 -0.647966 0
M  V30 10388 H 958.368 -1.12204 -1.70969 0
M  V30 10389 H 956.523 0.0976959 -3.87277 0
M  V30 10390 H 956.937 -1.86131 -4.90363 0
M  V30 10391 H 958.411 -0.26364 -5.5137 0
M  V30 10392 H 958.888 0.916505 -4.29531 0
M  V30 10393 H 959.494 -0.752117 -4.18597 0
M  V30 10394 N 957.809 1.4625 -0.587256 0
M  V30 10395 C 959.225 1.57641 -0.249284 0
M  V30 10396 C 959.425 1.58169 1.24839 0
M  V30 10397 O 958.481 1.50109 2.03036 0
M  V30 10398 C 959.794 2.86837 -0.902509 0
M  V30 10399 C 961.342 3.00476 -0.876524 0
M  V30 10400 C 961.817 4.32414 -1.50938 0
M  V30 10401 N 963.308 4.39124 -1.47392 0
M  V30 10402 C 964.043 5.39838 -1.93293 0
M  V30 10403 N 963.539 6.47202 -2.47188 0
M  V30 10404 N 965.332 5.31068 -1.84183 0
M  V30 10405 H 957.483 1.44151 -1.55994 0
M  V30 10406 H 959.746 0.687905 -0.652297 0
M  V30 10407 H 959.452 2.92274 -1.95624 0
M  V30 10408 H 959.326 3.74927 -0.413466 0
M  V30 10409 H 961.713 2.94618 0.168601 0
M  V30 10410 H 961.794 2.1385 -1.40363 0
M  V30 10411 H 961.438 4.3903 -2.55372 0
M  V30 10412 H 961.368 5.17823 -0.957455 0
M  V30 10413 H 963.859 3.62138 -1.08002 0
M  V30 10414 H 964.172 7.20269 -2.80058 0
M  V30 10415 H 962.517 6.48009 -2.51216 0
M  V30 10416 H 965.708 4.46095 -1.41833 0
M  V30 10417 H 965.881 6.09414 -2.2027 0
M  V30 10418 N 959.287 0.325282 1.54207 0
M  V30 10419 C 960.536 -0.27768 1.99779 0
M  V30 10420 C 960.849 -1.5311 1.21723 0
M  V30 10421 O 962.055 -2.21017 1.57682 0
M  V30 10422 C 960.511 -0.545329 3.55745 0
M  V30 10423 C 960.119 0.691143 4.42637 0
M  V30 10424 C 961.863 -1.10815 4.09781 0
M  V30 10425 C 959.77 0.395302 5.90077 0
M  V30 10426 H 958.7 -0.107536 0.746292 0
M  V30 10427 H 961.351 0.437773 1.78202 0
M  V30 10428 H 959.733 -1.32101 3.73317 0
M  V30 10429 H 960.907 1.46653 4.3684 0
M  V30 10430 H 959.222 1.1743 3.99499 0
M  V30 10431 H 961.819 -1.34414 5.1753 0
M  V30 10432 H 962.162 -2.05806 3.6187 0
M  V30 10433 H 962.695 -0.393608 3.95848 0
M  V30 10434 H 959.434 1.31443 6.42186 0
M  V30 10435 H 958.954 -0.34235 5.98822 0
M  V30 10436 H 960.633 0.00576877 6.47 0
M  V30 10437 N 960.765 -1.57509 0.0534917 0
M  V30 10438 C 962.011 -1.93068 -0.62069 0
M  V30 10439 C 962.344 -0.932313 -1.70357 0
M  V30 10440 O 961.619 0.0413393 -1.94456 0
M  V30 10441 C 961.902 -3.38997 -1.21463 0
M  V30 10442 C 961.755 -4.49583 -0.13965 0
M  V30 10443 C 963.074 -3.85366 -2.12558 0
M  V30 10444 H 960.193 -0.702083 -0.224163 0
M  V30 10445 H 962.835 -1.89647 0.115729 0
M  V30 10446 H 960.985 -3.42043 -1.84226 0
M  V30 10447 H 962.657 -4.58664 0.492411 0
M  V30 10448 H 960.9 -4.30525 0.532006 0
M  V30 10449 H 961.571 -5.48781 -0.595287 0
M  V30 10450 H 964.047 -3.8421 -1.59755 0
M  V30 10451 H 962.923 -4.8812 -2.51058 0
M  V30 10452 H 963.184 -3.22256 -3.02661 0
M  V30 10453 N 962.243 0.219913 -1.56058 0
M  V30 10454 C 963.491 0.942199 -1.78793 0
M  V30 10455 C 963.812 1.84804 -0.622284 0
M  V30 10456 O 963.082 1.9255 0.360735 0
M  V30 10457 H 961.662 0.350895 -0.659455 0
M  V30 10458 H 964.324 0.231376 -1.93522 0
M  V30 10459 H 963.42 1.54804 -2.71002 0
M  V30 10460 N 963.721 1.49897 0.486681 0
M  V30 10461 C 964.969 1.59789 1.23742 0
M  V30 10462 C 965.29 0.293056 1.92785 0
M  V30 10463 O 964.56 -0.688534 1.83401 0
M  V30 10464 H 963.14 0.588775 0.459731 0
M  V30 10465 H 965.802 1.86597 0.562808 0
M  V30 10466 H 964.898 2.40121 1.9937 0
M  V30 10467 N 965.199 -0.738761 1.39212 0
M  V30 10468 C 966.448 -1.49368 1.35543 0
M  V30 10469 C 966.761 -1.95543 -0.0471091 0
M  V30 10470 O 967.967 -2.70714 -0.206376 0
M  V30 10471 C 966.423 -2.69882 2.381 0
M  V30 10472 C 966.031 -2.30672 3.8405 0
M  V30 10473 C 967.775 -3.47718 2.435 0
M  V30 10474 C 965.682 -3.47886 4.78256 0
M  V30 10475 H 964.612 -0.560898 0.503894 0
M  V30 10476 H 967.263 -0.806221 1.6484 0
M  V30 10477 H 965.645 -3.40684 2.01867 0
M  V30 10478 H 966.819 -1.67441 4.29302 0
M  V30 10479 H 965.134 -1.65936 3.81909 0
M  V30 10480 H 967.731 -4.34897 3.11077 0
M  V30 10481 H 968.074 -3.89919 1.45838 0
M  V30 10482 H 968.607 -2.83942 2.78606 0
M  V30 10483 H 965.346 -3.10739 5.77167 0
M  V30 10484 H 964.866 -4.10111 4.37686 0
M  V30 10485 H 966.545 -4.14271 4.96979 0
M  V30 10486 N 966.677 -1.24326 -0.968545 0
M  V30 10487 C 967.923 -1.09413 -1.71465 0
M  V30 10488 C 968.278 0.363422 -1.88937 0
M  V30 10489 O 967.571 1.26486 -1.43916 0
M  V30 10490 C 967.765 -1.76644 -3.10695 0
M  V30 10491 C 967.594 -3.28787 -3.06805 0
M  V30 10492 C 966.364 -3.97995 -3.11333 0
M  V30 10493 C 968.562 -4.25389 -2.89047 0
M  V30 10494 N 966.544 -5.37024 -2.97453 0
M  V30 10495 C 967.915 -5.51411 -2.83454 0
M  V30 10496 C 969.97 -4.15976 -2.73621 0
M  V30 10497 C 968.673 -6.69096 -2.64013 0
M  V30 10498 C 970.699 -5.33338 -2.55547 0
M  V30 10499 C 970.061 -6.58291 -2.50663 0
M  V30 10500 H 966.16 -0.454986 -0.636012 0
M  V30 10501 H 968.744 -1.57228 -1.14837 0
M  V30 10502 H 966.915 -1.31344 -3.65518 0
M  V30 10503 H 968.647 -1.54599 -3.74007 0
M  V30 10504 H 965.402 -3.49155 -3.19981 0
M  V30 10505 H 965.826 -6.09948 -2.93756 0
M  V30 10506 H 970.468 -3.20131 -2.76181 0
M  V30 10507 H 968.186 -7.65064 -2.60197 0
M  V30 10508 H 971.772 -5.27904 -2.44557 0
M  V30 10509 H 970.652 -7.47575 -2.36856 0
M  V30 10510 N 968.156 1.1691 -1.05688 0
M  V30 10511 C 969.402 1.87814 -0.780871 0
M  V30 10512 C 969.757 1.79796 0.684926 0
M  V30 10513 O 969.05 1.19853 1.49485 0
M  V30 10514 C 969.244 3.36578 -1.20207 0
M  V30 10515 C 969.073 3.59078 -2.70727 0
M  V30 10516 C 967.843 3.75515 -3.38107 0
M  V30 10517 C 970.041 3.58307 -3.68946 0
M  V30 10518 N 968.023 3.85906 -4.77441 0
M  V30 10519 C 969.394 3.74608 -4.94033 0
M  V30 10520 C 971.449 3.41484 -3.62343 0
M  V30 10521 C 970.152 3.75828 -6.13307 0
M  V30 10522 C 972.178 3.43995 -4.81063 0
M  V30 10523 C 971.54 3.60809 -6.04976 0
M  V30 10524 H 967.639 0.705158 -0.338047 0
M  V30 10525 H 970.223 1.40315 -1.34981 0
M  V30 10526 H 968.394 3.82734 -0.661031 0
M  V30 10527 H 970.126 3.95119 -0.875377 0
M  V30 10528 H 966.881 3.7558 -2.88508 0
M  V30 10529 H 967.305 3.94886 -5.49904 0
M  V30 10530 H 971.947 3.27417 -2.67503 0
M  V30 10531 H 969.665 3.88679 -7.08487 0
M  V30 10532 H 973.251 3.3223 -4.77613 0
M  V30 10533 H 972.131 3.62663 -6.95302 0
M  V30 10534 N 969.634 0.838594 1.33437 0
M  V30 10535 C 970.881 0.434169 1.97791 0
M  V30 10536 C 971.209 -1.00652 1.66431 0
M  V30 10537 O 970.464 -1.71848 0.936309 0
M  V30 10538 C 970.763 0.601425 3.52303 0
M  V30 10539 C 970.429 2.01017 4.03612 0
M  V30 10540 C 969.091 2.39551 4.17336 0
M  V30 10541 C 971.443 2.93035 4.31022 0
M  V30 10542 C 968.771 3.69406 4.55802 0
M  V30 10543 C 971.123 4.22372 4.7094 0
M  V30 10544 C 969.787 4.60862 4.82869 0
M  V30 10545 H 969.057 0.158874 0.723768 0
M  V30 10546 H 971.704 1.06556 1.59116 0
M  V30 10547 H 970.009 -0.113284 3.91636 0
M  V30 10548 H 971.706 0.268798 4.00098 0
M  V30 10549 H 968.296 1.7009 3.93405 0
M  V30 10550 H 972.48 2.64503 4.19943 0
M  V30 10551 H 967.736 3.99033 4.63231 0
M  V30 10552 H 971.91 4.93749 4.91106 0
M  V30 10553 H 969.537 5.6153 5.12433 0
M  V30 10554 N 971.112 -1.45937 0.595003 0
M  V30 10555 C 972.359 -2.0232 0.0853053 0
M  V30 10556 C 972.687 -1.465 -1.27937 0
M  V30 10557 O 971.942 -0.624767 -1.85459 0
M  V30 10558 C 972.241 -3.57396 -0.0173747 0
M  V30 10559 C 971.907 -4.32311 1.28131 0
M  V30 10560 C 970.569 -4.52496 1.63708 0
M  V30 10561 C 972.921 -4.75233 2.14017 0
M  V30 10562 C 970.249 -5.12857 2.84947 0
M  V30 10563 C 972.601 -5.36933 3.34493 0
M  V30 10564 C 971.265 -5.55343 3.70338 0
M  V30 10565 H 970.535 -0.740342 0.0312154 0
M  V30 10566 H 973.182 -1.75157 0.774103 0
M  V30 10567 H 971.487 -3.83766 -0.789371 0
M  V30 10568 H 973.184 -3.98713 -0.427699 0
M  V30 10569 H 969.774 -4.16905 0.994374 0
M  V30 10570 H 973.958 -4.59383 1.87833 0
M  V30 10571 H 969.214 -5.253 3.12841 0
M  V30 10572 H 973.388 -5.69147 4.01304 0
M  V30 10573 H 971.015 -6.01883 4.64371 0
M  V30 10574 N 972.59 -0.333456 -1.54032 0
M  V30 10575 C 973.818 0.267813 -2.05159 0
M  V30 10576 C 974.233 1.4501 -1.20903 0
M  V30 10577 O 973.59 1.80888 -0.241994 0
M  V30 10578 C 973.641 0.69268 -3.54802 0
M  V30 10579 O 973.362 -0.442579 -4.35859 0
M  V30 10580 C 974.863 1.35572 -4.2206 0
M  V30 10581 H 972.083 0.0534924 -0.668864 0
M  V30 10582 H 974.627 -0.482515 -1.98726 0
M  V30 10583 H 972.782 1.39297 -3.6149 0
M  V30 10584 H 973.196 -0.105915 -5.24393 0
M  V30 10585 H 974.67 1.60385 -5.28186 0
M  V30 10586 H 975.147 2.30614 -3.73783 0
M  V30 10587 H 975.753 0.697748 -4.19537 0
M  V30 10588 N 974.068 1.57479 -0.061844 0
M  V30 10589 C 974.998 2.15181 0.9066 0
M  V30 10590 C 975.979 1.07624 1.31724 0
M  V30 10591 O 977.164 1.35614 1.39006 0
M  V30 10592 C 974.294 2.70542 2.17771 0
M  V30 10593 C 973.248 3.83178 1.9068 0
M  V30 10594 C 972.574 4.25099 3.24337 0
M  V30 10595 C 973.874 5.07853 1.21994 0
M  V30 10596 H 975.568 2.96355 0.42594 0
M  V30 10597 H 973.114 1.42556 0.203435 0
M  V30 10598 H 975.067 3.09552 2.85929 0
M  V30 10599 H 973.791 1.86575 2.68062 0
M  V30 10600 H 972.45 3.44656 1.24931 0
M  V30 10601 H 972.098 3.38069 3.72449 0
M  V30 10602 H 971.798 5.01021 3.07005 0
M  V30 10603 H 973.322 4.66718 3.93709 0
M  V30 10604 H 974.736 5.44242 1.80204 0
M  V30 10605 H 973.133 5.88987 1.14954 0
M  V30 10606 H 974.203 4.84497 0.197536 0
M  V30 10607 N 975.546 -0.211634 1.56173 0
M  V30 10608 C 976.795 -0.932647 1.78842 0
M  V30 10609 C 977.108 -1.85103 0.63217 0
M  V30 10610 O 978.314 -2.61143 0.742746 0
M  V30 10611 C 976.77 -1.70866 3.16753 0
M  V30 10612 C 976.378 -0.835934 4.40132 0
M  V30 10613 C 978.122 -2.4203 3.48743 0
M  V30 10614 C 976.029 -1.60987 5.69067 0
M  V30 10615 H 974.959 -0.351983 0.666801 0
M  V30 10616 H 977.61 -0.186284 1.82552 0
M  V30 10617 H 975.992 -2.4983 3.07247 0
M  V30 10618 H 977.166 -0.0861298 4.60719 0
M  V30 10619 H 975.481 -0.235941 4.15731 0
M  V30 10620 H 978.078 -3.00453 4.42303 0
M  V30 10621 H 978.421 -3.15406 2.71707 0
M  V30 10622 H 978.954 -1.70048 3.59623 0
M  V30 10623 H 975.693 -0.9192 6.49023 0
M  V30 10624 H 975.213 -2.33403 5.52524 0
M  V30 10625 H 976.892 -2.16798 6.09596 0
M  V30 10626 N 977.024 -1.50153 -0.478725 0
M  V30 10627 C 978.273 -1.60002 -1.22809 0
M  V30 10628 C 978.586 -0.302277 -1.9325 0
M  V30 10629 O 979.792 -0.279583 -2.70057 0
M  V30 10630 C 978.248 -2.82402 -2.23108 0
M  V30 10631 C 977.856 -4.19023 -1.58505 0
M  V30 10632 C 979.6 -3.01593 -2.98734 0
M  V30 10633 C 977.507 -5.32618 -2.57045 0
M  V30 10634 H 976.437 -0.595822 -0.462073 0
M  V30 10635 H 979.088 -1.76573 -0.499412 0
M  V30 10636 H 977.47 -2.59373 -2.99235 0
M  V30 10637 H 978.644 -4.52277 -0.882187 0
M  V30 10638 H 976.959 -4.05374 -0.951877 0
M  V30 10639 H 979.556 -3.8363 -3.72468 0
M  V30 10640 H 979.899 -2.1302 -3.57671 0
M  V30 10641 H 980.432 -3.24766 -2.29721 0
M  V30 10642 H 977.171 -6.23321 -2.02858 0
M  V30 10643 H 976.691 -5.03792 -3.25505 0
M  V30 10644 H 978.37 -5.62877 -3.19028 0
M  V30 10645 N 978.502 0.731368 -1.39602 0
M  V30 10646 C 979.751 1.48647 -1.36334 0
M  V30 10647 C 980.064 1.95565 0.0367383 0
M  V30 10648 O 981.27 2.7082 0.192017 0
M  V30 10649 C 979.726 2.68616 -2.39528 0
M  V30 10650 C 979.334 2.28632 -3.85268 0
M  V30 10651 C 981.078 3.46422 -2.45341 0
M  V30 10652 C 978.985 3.45345 -4.80095 0
M  V30 10653 H 977.915 0.558218 -0.506861 0
M  V30 10654 H 980.566 0.797467 -1.65266 0
M  V30 10655 H 978.948 3.39609 -2.03671 0
M  V30 10656 H 980.122 1.65162 -4.30184 0
M  V30 10657 H 978.437 1.63909 -3.82783 0
M  V30 10658 H 981.034 4.33241 -3.13379 0
M  V30 10659 H 981.377 3.8914 -1.47904 0
M  V30 10660 H 981.91 2.82461 -2.80108 0
M  V30 10661 H 978.649 3.07674 -5.78807 0
M  V30 10662 H 978.169 4.07784 -4.39855 0
M  V30 10663 H 979.848 4.1163 -4.99169 0
M  V30 10664 N 979.98 1.24838 0.961938 0
M  V30 10665 C 981.205 1.11967 1.7458 0
M  V30 10666 C 981.63 -0.323287 1.85301 0
M  V30 10667 O 980.988 -1.23412 1.32812 0
M  V30 10668 C 981.036 1.77066 3.14134 0
M  V30 10669 O 980.14 1.04534 3.98932 0
M  V30 10670 H 979.481 0.391338 0.536424 0
M  V30 10671 H 982.011 1.65259 1.20626 0
M  V30 10672 H 982.021 1.83056 3.64629 0
M  V30 10673 H 980.696 2.82052 3.05646 0
M  V30 10674 H 979.273 1.06372 3.57407 0
M  V30 10675 N 981.458 -1.16348 1.06306 0
M  V30 10676 C 982.683 -1.91323 0.800636 0
M  V30 10677 C 983.108 -1.7691 -0.639105 0
M  V30 10678 O 982.466 -1.0945 -1.44535 0
M  V30 10679 C 982.514 -3.40038 1.20027 0
M  V30 10680 O 981.618 -4.11003 0.339142 0
M  V30 10681 H 980.959 -0.596057 0.292595 0
M  V30 10682 H 983.489 -1.47406 1.41889 0
M  V30 10683 H 983.499 -3.90808 1.17188 0
M  V30 10684 H 982.174 -3.49848 2.24898 0
M  V30 10685 H 980.751 -3.70423 0.42911 0
M  V30 10686 N 982.937 -0.845659 -1.3299 0
M  V30 10687 C 984.167 -0.457686 -2.01467 0
M  V30 10688 C 984.575 0.947664 -1.63756 0
M  V30 10689 O 983.918 1.62841 -0.850213 0
M  V30 10690 C 983.98 -0.506589 -3.55913 0
M  V30 10691 C 983.644 -1.86924 -4.17023 0
M  V30 10692 C 984.641 -2.83344 -4.35904 0
M  V30 10693 C 982.326 -2.16394 -4.53298 0
M  V30 10694 C 984.32 -4.07391 -4.90216 0
M  V30 10695 C 982.007 -3.40695 -5.07316 0
M  V30 10696 C 983.005 -4.3601 -5.25722 0
M  V30 10697 O 982.693 -5.58112 -5.7859 0
M  V30 10698 H 982.425 -0.179258 -0.651799 0
M  V30 10699 H 984.979 -1.14172 -1.70745 0
M  V30 10700 H 983.209 0.234253 -3.8599 0
M  V30 10701 H 984.898 -0.135487 -4.05674 0
M  V30 10702 H 985.664 -2.61879 -4.08221 0
M  V30 10703 H 981.543 -1.42994 -4.38262 0
M  V30 10704 H 985.087 -4.81796 -5.04498 0
M  V30 10705 H 980.984 -3.62014 -5.3443 0
M  V30 10706 H 981.752 -5.59946 -5.96995 0
M  V30 10707 N 984.415 1.45619 -0.602734 0
M  V30 10708 C 985.643 2.06647 -0.102253 0
M  V30 10709 C 986.058 1.4482 1.21131 0
M  V30 10710 O 985.415 0.560621 1.73676 0
M  V30 10711 C 985.466 3.61467 0.0490113 0
M  V30 10712 O 985.187 4.20985 -1.21257 0
M  V30 10713 C 986.688 4.39469 0.581517 0
M  V30 10714 H 983.908 0.667685 -0.0666155 0
M  V30 10715 H 986.452 1.86939 -0.829091 0
M  V30 10716 H 984.607 3.80534 0.726153 0
M  V30 10717 H 985.021 5.14103 -1.03915 0
M  V30 10718 H 986.495 5.48318 0.636462 0
M  V30 10719 H 986.972 4.0891 1.60277 0
M  V30 10720 H 987.578 4.25256 -0.061419 0
M  V30 10721 N 985.893 0.34162 1.53853 0
M  V30 10722 C 986.856 -0.503541 2.236 0
M  V30 10723 C 987.856 -1.02912 1.23554 0
M  V30 10724 O 989.046 -0.918678 1.48007 0
M  V30 10725 C 986.178 -1.70126 2.95415 0
M  V30 10726 H 987.371 0.106437 2.99711 0
M  V30 10727 H 984.924 0.0929408 1.56023 0
M  V30 10728 H 985.659 -2.34999 2.23486 0
M  V30 10729 H 985.444 -1.33161 3.68796 0
M  V30 10730 H 986.934 -2.30077 3.48503 0
M  V30 10731 N 987.371 -1.57444 0.0701946 0
M  V30 10732 C 988.319 -2.13834 -0.915302 0
M  V30 10733 C 989.313 -1.07483 -1.30934 0
M  V30 10734 O 990.519 -1.25865 -1.28678 0
M  V30 10735 H 986.894 -0.683716 -0.313108 0
M  V30 10736 H 988.865 -2.95503 -0.414758 0
M  V30 10737 C 987.614 -2.71355 -2.17398 0
M  V30 10738 H 986.937 -3.52861 -1.87961 0
M  V30 10739 H 988.377 -3.1441 -2.84469 0
M  V30 10740 C 986.836 -1.66038 -2.93143 0
M  V30 10741 O 987.366 -1.08443 -3.86786 0
M  V30 10742 N 985.572 -1.3711 -2.56221 0
M  V30 10743 H 985.119 -1.84135 -1.80145 0
M  V30 10744 H 985.077 -0.66877 -3.07205 0
M  V30 10745 N 988.849 0.203349 -1.56283 0
M  V30 10746 C 989.779 1.2549 -1.96912 0
M  V30 10747 C 990.76 1.47919 -0.839884 0
M  V30 10748 O 991.945 1.59795 -1.10359 0
M  V30 10749 C 989.075 2.6009 -2.30153 0
M  V30 10750 C 988.029 2.52289 -3.45738 0
M  V30 10751 C 987.355 3.91086 -3.64632 0
M  V30 10752 C 988.655 2.05503 -4.80173 0
M  V30 10753 H 990.349 0.917306 -2.85002 0
M  V30 10754 H 987.895 0.439818 -1.37119 0
M  V30 10755 H 989.848 3.33829 -2.5717 0
M  V30 10756 H 988.572 2.95574 -1.38937 0
M  V30 10757 H 987.231 1.81006 -3.18798 0
M  V30 10758 H 986.879 4.23908 -2.7076 0
M  V30 10759 H 986.579 3.86742 -4.42385 0
M  V30 10760 H 988.103 4.66459 -3.94016 0
M  V30 10761 H 989.517 2.68995 -5.06275 0
M  V30 10762 H 987.914 2.1218 -5.61337 0
M  V30 10763 H 988.984 1.00793 -4.74309 0
M  V30 10764 N 990.327 1.50405 0.470755 0
M  V30 10765 C 991.29 1.68741 1.5511 0
M  V30 10766 C 992.29 0.558116 1.50804 0
M  V30 10767 O 993.48 0.825149 1.53418 0
M  V30 10768 C 990.612 1.71295 2.94739 0
M  V30 10769 H 991.805 2.65127 1.40169 0
M  V30 10770 H 989.358 1.39891 0.697156 0
M  V30 10771 H 990.093 0.766029 3.15123 0
M  V30 10772 H 989.878 2.53336 2.99271 0
M  V30 10773 H 991.368 1.87434 3.73173 0
M  V30 10774 N 991.805 -0.723954 1.39988 0
M  V30 10775 C 992.768 -1.81973 1.3935 0
M  V30 10776 C 993.768 -1.58187 0.288702 0
M  V30 10777 O 994.958 -1.65383 0.547181 0
M  V30 10778 C 992.09 -3.19937 1.177 0
M  V30 10779 H 993.283 -1.83939 2.36868 0
M  V30 10780 H 990.836 -0.928742 1.25714 0
M  V30 10781 H 991.571 -3.23625 0.209093 0
M  V30 10782 H 991.356 -3.386 1.97719 0
M  V30 10783 H 992.846 -3.99981 1.20022 0
M  V30 10784 N 993.283 -1.25346 -0.955304 0
M  V30 10785 C 994.53 -1.10055 -1.69983 0
M  V30 10786 C 994.858 0.358586 -1.91166 0
M  V30 10787 O 994.113 1.28071 -1.47974 0
M  V30 10788 C 994.412 -1.7993 -3.08804 0
M  V30 10789 C 994.078 -3.29851 -3.07424 0
M  V30 10790 C 992.74 -3.7075 -3.06754 0
M  V30 10791 C 995.092 -4.25636 -3.00805 0
M  V30 10792 C 992.42 -5.05847 -2.97214 0
M  V30 10793 C 994.772 -5.60756 -2.92806 0
M  V30 10794 C 993.436 -6.00984 -2.90472 0
M  V30 10795 H 992.706 -0.402718 -0.622012 0
M  V30 10796 H 995.353 -1.5561 -1.11614 0
M  V30 10797 H 993.658 -1.26803 -3.70713 0
M  V30 10798 H 995.355 -1.65551 -3.65231 0
M  V30 10799 H 991.945 -2.97308 -3.08716 0
M  V30 10800 H 996.129 -3.9503 -3.00441 0
M  V30 10801 H 991.385 -5.36196 -2.93775 0
M  V30 10802 H 995.559 -6.34671 -2.86645 0
M  V30 10803 H 993.186 -7.05626 -2.82835 0
M  V30 10804 N 994.761 1.15782 -1.06922 0
M  V30 10805 C 995.691 2.22538 -0.707045 0
M  V30 10806 C 996.672 1.67371 0.303471 0
M  V30 10807 O 997.857 1.9339 0.177189 0
M  V30 10808 C 994.987 3.47158 -0.0994269 0
M  V30 10809 C 993.941 4.15257 -1.03661 0
M  V30 10810 C 993.267 5.33902 -0.291974 0
M  V30 10811 C 994.567 4.65516 -2.36837 0
M  V30 10812 H 996.261 2.53089 -1.59958 0
M  V30 10813 H 993.807 1.21649 -0.770552 0
M  V30 10814 H 995.76 4.21073 0.165852 0
M  V30 10815 H 994.484 3.15926 0.828155 0
M  V30 10816 H 993.143 3.43276 -1.28674 0
M  V30 10817 H 992.791 4.98926 0.638928 0
M  V30 10818 H 992.491 5.80407 -0.916613 0
M  V30 10819 H 994.015 6.1059 -0.0343915 0
M  V30 10820 H 995.429 5.30981 -2.16175 0
M  V30 10821 H 993.826 5.22666 -2.94856 0
M  V30 10822 H 994.896 3.81387 -2.99453 0
M  V30 10823 N 996.239 0.8527 1.3254 0
M  V30 10824 C 997.467 0.469044 2.01513 0
M  V30 10825 C 997.882 -0.933701 1.64096 0
M  V30 10826 O 997.239 -1.60898 0.861283 0
M  V30 10827 C 997.29 0.596228 3.56549 0
M  V30 10828 O 997.011 1.94371 3.92621 0
M  V30 10829 C 998.512 0.211324 4.42796 0
M  V30 10830 H 995.732 0.184589 0.645111 0
M  V30 10831 H 998.276 1.1491 1.69163 0
M  V30 10832 H 996.431 -0.0360712 3.87383 0
M  V30 10833 H 996.845 1.93909 4.87339 0
M  V30 10834 H 998.319 0.351324 5.50881 0
M  V30 10835 H 998.796 -0.848055 4.30935 0
M  V30 10836 H 999.402 0.818617 4.17347 0
M  V30 10837 N 997.718 -1.45297 0.610449 0
M  V30 10838 C 998.964 -2.02518 0.106917 0
M  V30 10839 C 999.297 -1.47747 -1.26034 0
M  V30 10840 O 998.572 -0.65329 -1.832 0
M  V30 10841 C 998.855 -3.6003 0.0710975 0
M  V30 10842 C 998.708 -4.25128 1.46922 0
M  V30 10843 C 1000.03 -4.35778 -0.61524 0
M  V30 10844 H 997.146 -0.735896 0.040327 0
M  V30 10845 H 999.788 -1.73117 0.782968 0
M  V30 10846 H 997.938 -3.85209 -0.504611 0
M  V30 10847 H 999.61 -4.11125 2.09223 0
M  V30 10848 H 997.853 -3.83418 2.02911 0
M  V30 10849 H 998.524 -5.34046 1.39637 0
M  V30 10850 H 1001 -4.1591 -0.125871 0
M  V30 10851 H 999.876 -5.45506 -0.609419 0
M  V30 10852 H 1000.14 -4.08859 -1.68186 0
M  V30 10853 N 999.196 -0.349774 -1.5367 0
M  V30 10854 C 1000.11 0.512421 -2.28935 0
M  V30 10855 C 1001.12 1.1065 -1.34286 0
M  V30 10856 O 1002.3 1.12084 -1.67329 0
M  V30 10857 C 999.363 1.64449 -3.05217 0
M  V30 10858 C 998.424 1.07956 -4.15505 0
M  V30 10859 C 997.657 2.15768 -4.88139 0
M  V30 10860 O 997.88 3.366 -4.60496 0
M  V30 10861 O 996.814 1.79712 -5.74445 0
M  V30 10862 H 1000.64 -0.0996001 -3.03537 0
M  V30 10863 H 998.225 -0.114629 -1.4896 0
M  V30 10864 H 1000.11 2.30302 -3.52901 0
M  V30 10865 H 998.782 2.24221 -2.33467 0
M  V30 10866 H 997.689 0.385381 -3.7211 0
M  V30 10867 H 999.022 0.526621 -4.89375 0
M  V30 10868 N 1000.67 1.57404 -0.0785433 0
M  V30 10869 C 1002.09 1.57158 0.2781 0
M  V30 10870 C 1002.29 1.08847 1.69572 0
M  V30 10871 O 1001.35 0.757407 2.40873 0
M  V30 10872 C 1002.66 3.00589 0.0816067 0
M  V30 10873 C 1004.21 3.12637 0.150627 0
M  V30 10874 C 1004.68 4.57997 -0.0176685 0
M  V30 10875 N 1006.17 4.63185 0.0377145 0
M  V30 10876 C 1006.91 5.7336 -0.0679907 0
M  V30 10877 N 1006.4 6.92426 -0.227598 0
M  V30 10878 N 1008.2 5.62099 -0.0104424 0
M  V30 10879 H 1000.35 1.87121 -1.00496 0
M  V30 10880 H 1002.61 0.862937 -0.392484 0
M  V30 10881 H 1002.32 3.40072 -0.896869 0
M  V30 10882 H 1002.19 3.67931 0.831046 0
M  V30 10883 H 1004.58 2.73037 1.11959 0
M  V30 10884 H 1004.66 2.4792 -0.630028 0
M  V30 10885 H 1004.3 4.98288 -0.983431 0
M  V30 10886 H 1004.23 5.20754 0.782475 0
M  V30 10887 H 1006.72 3.77564 0.159208 0
M  V30 10888 H 1007.04 7.72217 -0.300217 0
M  V30 10889 H 1005.38 6.94502 -0.263049 0
M  V30 10890 H 1008.57 4.67964 0.112999 0
M  V30 10891 H 1008.75 6.47928 -0.0962747 0
M  V30 10892 N 1002.15 -0.195058 1.56388 0
M  V30 10893 C 1003.08 -1.26978 1.8961 0
M  V30 10894 C 1004.06 -1.43946 0.756199 0
M  V30 10895 O 1005.25 -1.59335 1.0072 0
M  V30 10896 C 1002.37 -2.63638 2.12632 0
M  V30 10897 C 1001.42 -2.6354 3.35334 0
M  V30 10898 S 1002.25 -2.1497 4.90457 0
M  V30 10899 C 1003.41 -3.53454 5.16547 0
M  V30 10900 H 1003.64 -0.986091 2.8047 0
M  V30 10901 H 1001.17 -0.398552 1.49167 0
M  V30 10902 H 1003.13 -3.42304 2.26579 0
M  V30 10903 H 1001.79 -2.89218 1.22522 0
M  V30 10904 H 1000.99 -3.64027 3.48569 0
M  V30 10905 H 1000.59 -1.92956 3.20381 0
M  V30 10906 H 1002.88 -4.49318 5.0707 0
M  V30 10907 H 1003.82 -3.45113 6.18306 0
M  V30 10908 H 1004.23 -3.48368 4.44185 0
M  V30 10909 N 1003.63 -1.50653 -0.462772 0
M  V30 10910 C 1004.54 -1.72923 -1.58539 0
M  V30 10911 C 1005.56 -0.612577 -1.6286 0
M  V30 10912 O 1006.73 -0.891885 -1.80575 0
M  V30 10913 C 1003.8 -1.82623 -2.94703 0
M  V30 10914 C 1002.86 -3.06392 -3.00704 0
M  V30 10915 C 1002.09 -3.15618 -4.30373 0
M  V30 10916 O 1002.31 -2.31423 -5.21344 0
M  V30 10917 O 1001.25 -4.0841 -4.42136 0
M  V30 10918 H 1005.07 -2.68103 -1.42669 0
M  V30 10919 H 1002.66 -1.34848 -0.643144 0
M  V30 10920 H 1004.54 -1.91134 -3.7556 0
M  V30 10921 H 1003.22 -0.906275 -3.10754 0
M  V30 10922 H 1002.12 -3.03375 -2.18894 0
M  V30 10923 H 1003.46 -3.97992 -2.89591 0
M  V30 10924 N 1005.11 0.71652 -1.4037 0
M  V30 10925 C 1006.33 1.51069 -1.42102 0
M  V30 10926 C 1006.76 1.88087 -0.0222387 0
M  V30 10927 O 1006.12 1.53204 0.969448 0
M  V30 10928 C 1006.16 2.76307 -2.31704 0
M  V30 10929 O 1005.27 3.72975 -1.75964 0
M  V30 10930 H 1004.61 0.455502 -0.483129 0
M  V30 10931 H 1007.14 0.882514 -1.84588 0
M  V30 10932 H 1007.15 3.24846 -2.46859 0
M  V30 10933 H 1005.82 2.48698 -3.3335 0
M  V30 10934 H 1004.4 3.31818 -1.70151 0
M  V30 10935 N 1006.59 1.25851 0.948643 0
M  V30 10936 C 1008 1.09975 1.50872 0
M  V30 10937 C 1008.35 -0.322497 1.93531 0
M  V30 10938 O 1007.47 -1.21316 1.79197 0
M  V30 10939 C 1008.07 1.99021 2.74182 0
M  V30 10940 C 1006.63 1.87313 3.26483 0
M  V30 10941 C 1005.77 1.92815 1.99293 0
M  V30 10942 H 1008.73 1.3905 0.764908 0
M  V30 10943 H 1008.75 1.53372 3.4822 0
M  V30 10944 H 1008.26 3.02527 2.43103 0
M  V30 10945 H 1006.36 0.867136 3.62369 0
M  V30 10946 H 1006.47 2.72446 3.94094 0
M  V30 10947 H 1004.84 1.36774 2.1486 0
M  V30 10948 H 1005.62 2.97936 1.70554 0
M  V30 10949 N 1008.06 -1.15214 1.07534 0
M  V30 10950 C 1009.31 -1.85388 0.794617 0
M  V30 10951 C 1009.63 -1.83331 -0.681838 0
M  V30 10952 O 1010.83 -2.49207 -1.0774 0
M  V30 10953 C 1009.29 -3.32747 1.37141 0
M  V30 10954 C 1008.9 -3.43244 2.87902 0
M  V30 10955 C 1010.64 -4.08093 1.16879 0
M  V30 10956 C 1008.55 -4.84762 3.38763 0
M  V30 10957 H 1007.48 -0.694499 0.293577 0
M  V30 10958 H 1010.13 -1.29944 1.29564 0
M  V30 10959 H 1008.51 -3.87874 0.798121 0
M  V30 10960 H 1009.68 -2.98214 3.51291 0
M  V30 10961 H 1008 -2.81345 3.06975 0
M  V30 10962 H 1010.6 -5.12535 1.52353 0
M  V30 10963 H 1010.94 -4.1616 0.107958 0
M  V30 10964 H 1011.47 -3.59241 1.70854 0
M  V30 10965 H 1008.21 -4.81879 4.4438 0
M  V30 10966 H 1007.73 -5.30366 2.80128 0
M  V30 10967 H 1009.41 -5.53624 3.34827 0
M  V30 10968 N 1009.54 -0.859717 -1.32086 0
M  V30 10969 C 1010.82 -0.386665 -1.9174 0
M  V30 10970 C 1011.2 1.13028 -1.78292 0
M  V30 10971 O 1010.55 1.95422 -1.18417 0
M  V30 10972 C 1010.76 -0.856648 -3.38323 0
M  V30 10973 C 1012.11 -0.87678 -4.15449 0
M  V30 10974 O 1013.13 -0.80162 -3.47063 0
M  V30 10975 O 1011.99 -0.98373 -5.37573 0
M  V30 10976 H 1009.08 -0.113758 -0.819139 0
M  V30 10977 H 1011.63 -0.946952 -1.40822 0
M  V30 10978 H 1010.4 -1.89996 -3.42078 0
M  V30 10979 H 1010.02 -0.274095 -3.96654 0
M  V30 10980 N 1011.02 1.44971 -0.618145 0
M  V30 10981 C 1012.25 2.07039 -0.122395 0
M  V30 10982 C 1012.67 1.45793 1.18853 0
M  V30 10983 O 1012.03 0.55453 1.72611 0
M  V30 10984 C 1012.08 3.60599 -0.0073864 0
M  V30 10985 O 1011.18 3.99069 1.04007 0
M  V30 10986 H 1010.52 0.6593 -0.0788615 0
M  V30 10987 H 1013.05 1.86055 -0.851147 0
M  V30 10988 H 1013.06 4.07569 0.187417 0
M  V30 10989 H 1011.74 4.04561 -0.964544 0
M  V30 10990 H 1010.31 3.63753 0.820879 0
M  V30 10991 N 1012.5 0.357919 1.53482 0
M  V30 10992 C 1013.46 -0.479797 2.24122 0
M  V30 10993 C 1014.46 -1.01596 1.24639 0
M  V30 10994 O 1015.65 -0.902928 1.48973 0
M  V30 10995 C 1012.78 -1.66983 2.97203 0
M  V30 10996 H 1013.98 0.138219 2.99581 0
M  V30 10997 H 1011.53 0.109484 1.55916 0
M  V30 10998 H 1012.26 -2.32615 2.25966 0
M  V30 10999 H 1012.05 -1.29242 3.70188 0
M  V30 11000 H 1013.54 -2.26367 3.50924 0
M  V30 11001 N 1013.98 -1.5736 0.0868897 0
M  V30 11002 C 1015.25 -1.85495 -0.620561 0
M  V30 11003 C 1015.63 -0.982218 -1.86857 0
M  V30 11004 O 1014.98 -0.0524529 -2.2844 0
M  V30 11005 C 1015.19 -3.35996 -0.943798 0
M  V30 11006 C 1016.54 -4.03861 -1.31079 0
M  V30 11007 O 1017.56 -3.4083 -1.03507 0
M  V30 11008 O 1016.42 -5.15062 -1.82683 0
M  V30 11009 H 1013.52 -0.766822 -0.309697 0
M  V30 11010 H 1016.06 -1.69282 0.118966 0
M  V30 11011 H 1014.83 -3.91257 -0.0580628 0
M  V30 11012 H 1014.46 -3.57525 -1.73958 0
M  V30 11013 N 1015.45 0.186762 -1.56489 0
M  V30 11014 C 1016.73 0.932229 -1.71956 0
M  V30 11015 C 1017.11 2.01037 -0.644006 0
M  V30 11016 O 1016.46 2.259 0.343694 0
M  V30 11017 C 1016.67 1.51106 -3.14592 0
M  V30 11018 C 1018.02 1.98997 -3.75081 0
M  V30 11019 O 1019.04 1.60931 -3.17773 0
M  V30 11020 O 1017.9 2.69067 -4.75673 0
M  V30 11021 H 1014.99 0.437736 -0.701652 0
M  V30 11022 H 1017.54 0.175803 -1.68787 0
M  V30 11023 H 1016.31 0.734327 -3.84348 0
M  V30 11024 H 1015.94 2.33209 -3.22024 0
M  V30 11025 N 1016.93 1.50896 0.454776 0
M  V30 11026 C 1017.86 1.73885 1.5584 0
M  V30 11027 C 1018.84 0.588172 1.59607 0
M  V30 11028 O 1020.03 0.829054 1.75614 0
M  V30 11029 C 1017.16 1.84796 2.94054 0
M  V30 11030 C 1016.11 3.00111 3.05152 0
M  V30 11031 C 1015.44 2.96183 4.45174 0
M  V30 11032 C 1016.74 4.40365 2.80849 0
M  V30 11033 H 1018.43 2.66292 1.36854 0
M  V30 11034 H 1015.98 1.28142 0.656936 0
M  V30 11035 H 1017.93 1.99462 3.71204 0
M  V30 11036 H 1016.66 0.890235 3.14233 0
M  V30 11037 H 1015.31 2.85121 2.30438 0
M  V30 11038 H 1014.96 1.98224 4.62295 0
M  V30 11039 H 1014.66 3.73608 4.53532 0
M  V30 11040 H 1016.19 3.1292 5.24322 0
M  V30 11041 H 1017.6 4.55795 3.47741 0
M  V30 11042 H 1016 5.19363 3.00636 0
M  V30 11043 H 1017.07 4.51606 1.76579 0
M  V30 11044 N 1018.41 -0.709066 1.40748 0
M  V30 11045 C 1019.37 -1.80485 1.41272 0
M  V30 11046 C 1020.37 -1.57872 0.305463 0
M  V30 11047 O 1021.56 -1.64793 0.564691 0
M  V30 11048 C 1018.7 -3.1867 1.21087 0
M  V30 11049 H 1019.89 -1.81417 2.38805 0
M  V30 11050 H 1017.44 -0.915356 1.26692 0
M  V30 11051 H 1018.18 -3.23385 0.243406 0
M  V30 11052 H 1017.96 -3.36484 2.01299 0
M  V30 11053 H 1019.45 -3.98685 1.24257 0
M  V30 11054 N 1019.89 -1.26353 -0.941956 0
M  V30 11055 C 1020.84 -1.07842 -2.04056 0
M  V30 11056 C 1021.81 0.0163064 -1.66092 0
M  V30 11057 O 1022.99 -0.143313 -1.90261 0
M  V30 11058 C 1020.13 -0.716636 -3.37577 0
M  V30 11059 C 1019.24 -1.88754 -3.88582 0
M  V30 11060 C 1018.38 -1.46893 -5.10486 0
M  V30 11061 C 1017.42 -2.60819 -5.53751 0
M  V30 11062 N 1016.56 -2.19646 -6.66858 0
M  V30 11063 H 1021.4 -2.01856 -2.19221 0
M  V30 11064 H 1018.93 -1.00504 -1.07412 0
M  V30 11065 H 1020.89 -0.487768 -4.14339 0
M  V30 11066 H 1019.52 0.18653 -3.22261 0
M  V30 11067 H 1018.57 -2.22936 -3.08227 0
M  V30 11068 H 1019.88 -2.74264 -4.1663 0
M  V30 11069 H 1019.04 -1.20047 -5.94705 0
M  V30 11070 H 1017.78 -0.584721 -4.84182 0
M  V30 11071 H 1016.78 -2.88396 -4.6809 0
M  V30 11072 H 1018.01 -3.49838 -5.82057 0
M  V30 11073 H 1015.95 -1.33657 -6.4224 0
M  V30 11074 H 1015.87 -2.987 -6.94489 0
M  V30 11075 H 1017.14 -1.96009 -7.54454 0
M  V30 11076 N 1021.37 1.14642 -1.08144 0
M  V30 11077 C 1022.3 2.19283 -0.6669 0
M  V30 11078 C 1023.31 1.60292 0.284668 0
M  V30 11079 O 1024.5 1.78352 0.0727383 0
M  V30 11080 C 1021.6 3.38877 0.0398572 0
M  V30 11081 C 1020.77 4.274 -0.929929 0
M  V30 11082 C 1019.83 5.25562 -0.258991 0
M  V30 11083 O 1018.86 5.61999 -0.902563 0
M  V30 11084 N 1020.06 5.71958 0.992177 0
M  V30 11085 H 1022.83 2.55464 -1.5671 0
M  V30 11086 H 1020.39 1.29836 -0.96717 0
M  V30 11087 H 1022.38 4.01605 0.499583 0
M  V30 11088 H 1020.95 3.01043 0.842118 0
M  V30 11089 H 1020.17 3.61649 -1.56857 0
M  V30 11090 H 1021.46 4.83411 -1.58717 0
M  V30 11091 H 1020.86 5.44481 1.53484 0
M  V30 11092 H 1019.41 6.36687 1.39544 0
M  V30 11093 N 1022.85 0.866709 1.31628 0
M  V30 11094 C 1024.07 0.49039 2.01004 0
M  V30 11095 C 1024.49 -0.916244 1.65077 0
M  V30 11096 O 1023.85 -1.59975 0.8783 0
M  V30 11097 C 1023.9 0.634011 3.55897 0
M  V30 11098 O 1023.62 1.98525 3.90537 0
M  V30 11099 C 1025.12 0.258277 4.42547 0
M  V30 11100 H 1022.34 0.191421 0.643117 0
M  V30 11101 H 1024.88 1.16698 1.67934 0
M  V30 11102 H 1023.04 0.00501801 3.874 0
M  V30 11103 H 1023.45 1.99067 4.85255 0
M  V30 11104 H 1024.93 0.409733 5.50477 0
M  V30 11105 H 1025.4 -0.802301 4.3181 0
M  V30 11106 H 1026.01 0.862837 4.16456 0
M  V30 11107 N 1024.32 -1.44642 0.625825 0
M  V30 11108 C 1025.27 -2.30653 -0.082259 0
M  V30 11109 C 1026.24 -1.43174 -0.842052 0
M  V30 11110 O 1027.43 -1.72082 -0.824151 0
M  V30 11111 C 1024.57 -3.2837 -1.06146 0
M  V30 11112 C 1023.68 -4.30953 -0.300638 0
M  V30 11113 C 1022.81 -5.15766 -1.27118 0
M  V30 11114 C 1021.85 -6.10061 -0.499215 0
M  V30 11115 N 1020.99 -6.87591 -1.41995 0
M  V30 11116 H 1025.83 -2.90664 0.657161 0
M  V30 11117 H 1023.37 -1.43215 0.335859 0
M  V30 11118 H 1025.32 -3.83507 -1.6425 0
M  V30 11119 H 1023.95 -2.70072 -1.76807 0
M  V30 11120 H 1023.01 -3.78331 0.396234 0
M  V30 11121 H 1024.32 -4.97892 0.300851 0
M  V30 11122 H 1023.47 -5.75394 -1.92372 0
M  V30 11123 H 1022.21 -4.48888 -1.9066 0
M  V30 11124 H 1021.22 -5.49547 0.166848 0
M  V30 11125 H 1022.44 -6.78973 0.131409 0
M  V30 11126 H 1020.39 -6.23387 -2.04267 0
M  V30 11127 H 1020.3 -7.5095 -0.872354 0
M  V30 11128 H 1021.57 -7.51746 -2.0615 0
M  V30 11129 N 1025.8 -0.366053 -1.5329 0
M  V30 11130 C 1027.05 0.224614 -2.00445 0
M  V30 11131 C 1027.36 1.49829 -1.2574 0
M  V30 11132 O 1028.57 2.16759 -1.63487 0
M  V30 11133 C 1027.03 0.450818 -3.57065 0
M  V30 11134 C 1026.63 -0.808257 -4.40649 0
M  V30 11135 C 1028.38 0.999116 -4.12575 0
M  V30 11136 C 1026.28 -0.551612 -5.88822 0
M  V30 11137 H 1025.21 0.0877114 -0.748881 0
M  V30 11138 H 1027.87 -0.484866 -1.76978 0
M  V30 11139 H 1026.25 1.22157 -3.76688 0
M  V30 11140 H 1027.42 -1.58184 -4.32798 0
M  V30 11141 H 1025.74 -1.27981 -3.96245 0
M  V30 11142 H 1028.33 1.20646 -5.20911 0
M  V30 11143 H 1028.68 1.96139 -3.67199 0
M  V30 11144 H 1029.21 0.288518 -3.96752 0
M  V30 11145 H 1025.95 -1.48423 -6.38475 0
M  V30 11146 H 1025.47 0.183462 -5.99519 0
M  V30 11147 H 1027.15 -0.177307 -6.46757 0
M  V30 11148 N 1027.28 1.57312 -0.0952337 0
M  V30 11149 C 1028.19 2.17556 0.877877 0
M  V30 11150 C 1029.21 1.14505 1.31014 0
M  V30 11151 O 1030.38 1.46876 1.37802 0
M  V30 11152 C 1027.45 2.74413 2.11892 0
M  V30 11153 C 1026.51 3.92419 1.74085 0
M  V30 11154 C 1025.74 4.46556 2.92273 0
M  V30 11155 O 1025.96 3.99631 4.07002 0
M  V30 11156 O 1024.9 5.37576 2.70732 0
M  V30 11157 H 1028.72 3.01116 0.395312 0
M  V30 11158 H 1026.31 1.48841 0.129123 0
M  V30 11159 H 1028.19 3.10754 2.84622 0
M  V30 11160 H 1026.87 1.93899 2.59201 0
M  V30 11161 H 1025.77 3.6089 0.985346 0
M  V30 11162 H 1027.11 4.74298 1.31539 0
M  V30 11163 N 1028.76 -0.17846 1.56586 0
M  V30 11164 C 1029.99 -0.910674 1.85446 0
M  V30 11165 C 1030.4 -1.76647 0.677675 0
M  V30 11166 O 1029.74 -1.80086 -0.362584 0
M  V30 11167 C 1029.8 -1.84363 3.08627 0
M  V30 11168 C 1029.46 -1.16814 4.41818 0
M  V30 11169 C 1030.46 -0.53703 5.17119 0
M  V30 11170 C 1028.15 -1.16703 4.88555 0
M  V30 11171 C 1030.14 0.0861778 6.37342 0
M  V30 11172 C 1027.83 -0.539992 6.0871 0
M  V30 11173 C 1028.83 0.0855135 6.82946 0
M  V30 11174 O 1028.51 0.70268 8.00823 0
M  V30 11175 H 1028.25 -0.270377 0.619574 0
M  V30 11176 H 1030.8 -0.185591 2.0456 0
M  V30 11177 H 1029.03 -2.60884 2.85441 0
M  V30 11178 H 1030.72 -2.44506 3.23993 0
M  V30 11179 H 1031.48 -0.529915 4.82096 0
M  V30 11180 H 1027.36 -1.64329 4.30717 0
M  V30 11181 H 1030.91 0.575011 6.95226 0
M  V30 11182 H 1026.8 -0.544666 6.43198 0
M  V30 11183 H 1027.57 0.601224 8.16289 0
M  V30 11184 N 1030.24 -1.51135 -0.446768 0
M  V30 11185 C 1031.48 -1.63013 -1.19461 0
M  V30 11186 C 1031.8 -0.344067 -1.91941 0
M  V30 11187 O 1031.07 0.639666 -1.85162 0
M  V30 11188 H 1029.65 -0.600757 -0.443959 0
M  V30 11189 H 1032.32 -1.88024 -0.513137 0
M  V30 11190 H 1031.41 -2.45322 -1.92933 0
M  V30 11191 N 1031.71 0.701592 -1.41122 0
M  V30 11192 C 1032.68 1.79733 -1.42227 0
M  V30 11193 C 1033.68 1.57708 -0.313831 0
M  V30 11194 O 1034.87 1.64492 -0.573423 0
M  V30 11195 C 1032 3.18024 -1.22775 0
M  V30 11196 H 1033.19 1.80148 -2.39764 0
M  V30 11197 H 1030.74 0.908624 -1.27176 0
M  V30 11198 H 1031.48 3.23252 -0.260552 0
M  V30 11199 H 1031.26 3.35411 -2.0308 0
M  V30 11200 H 1032.75 3.98021 -1.2637 0
M  V30 11201 N 1033.19 1.2685 0.935242 0
M  V30 11202 C 1034.44 1.12912 1.6846 0
M  V30 11203 C 1034.77 -0.325708 1.91449 0
M  V30 11204 O 1034.05 -1.23884 1.49944 0
M  V30 11205 C 1034.33 1.90513 3.05576 0
M  V30 11206 C 1034.18 3.43936 2.89876 0
M  V30 11207 C 1035.5 1.70363 4.05789 0
M  V30 11208 H 1032.62 0.411559 0.611382 0
M  V30 11209 H 1035.26 1.55917 1.08582 0
M  V30 11210 H 1033.41 1.53963 3.5669 0
M  V30 11211 H 1035.08 3.90272 2.45939 0
M  V30 11212 H 1033.33 3.70659 2.25376 0
M  V30 11213 H 1034 3.93467 3.87153 0
M  V30 11214 H 1036.47 2.02217 3.63659 0
M  V30 11215 H 1035.35 2.27066 4.99732 0
M  V30 11216 H 1035.61 0.649674 4.373 0
M  V30 11217 N 1034.67 -1.14067 1.0875 0
M  V30 11218 C 1036.09 -1.37173 0.815823 0
M  V30 11219 C 1036.29 -1.93175 -0.573215 0
M  V30 11220 O 1035.34 -2.14672 -1.32937 0
M  V30 11221 C 1036.66 -2.32955 1.90138 0
M  V30 11222 C 1038.2 -2.46586 1.9278 0
M  V30 11223 C 1038.68 -3.4567 3.0046 0
M  V30 11224 N 1040.17 -3.53216 2.99655 0
M  V30 11225 C 1040.9 -4.29743 3.79616 0
M  V30 11226 N 1040.4 -5.09484 4.69466 0
M  V30 11227 N 1042.19 -4.24975 3.67903 0
M  V30 11228 H 1034.34 -0.760648 1.98313 0
M  V30 11229 H 1036.61 -0.397135 0.860807 0
M  V30 11230 H 1036.31 -1.98949 2.90021 0
M  V30 11231 H 1036.19 -3.32897 1.77368 0
M  V30 11232 H 1038.57 -2.79882 0.935404 0
M  V30 11233 H 1038.66 -1.46593 2.09629 0
M  V30 11234 H 1038.3 -3.13106 3.99909 0
M  V30 11235 H 1038.23 -4.45452 2.80856 0
M  V30 11236 H 1040.72 -2.96314 2.34535 0
M  V30 11237 H 1041.03 -5.65163 5.27077 0
M  V30 11238 H 1039.38 -5.08741 4.73506 0
M  V30 11239 H 1042.57 -3.61751 2.97075 0
M  V30 11240 H 1042.74 -4.84364 4.30459 0
M  V30 11241 N 1036.15 -0.873678 -1.31166 0
M  V30 11242 C 1037.43 -0.40698 -1.91319 0
M  V30 11243 C 1037.81 1.1113 -1.79481 0
M  V30 11244 O 1037.15 1.94155 -1.20483 0
M  V30 11245 C 1037.36 -0.892484 -3.37396 0
M  V30 11246 C 1038.71 -0.920795 -4.14496 0
M  V30 11247 O 1039.74 -0.838386 -3.46193 0
M  V30 11248 O 1038.59 -1.04069 -5.365 0
M  V30 11249 H 1035.69 -0.122439 -0.817886 0
M  V30 11250 H 1038.23 -0.961835 -1.3981 0
M  V30 11251 H 1037.01 -1.93613 -3.40044 0
M  V30 11252 H 1036.63 -0.31615 -3.96341 0
M  V30 11253 N 1037.63 1.44308 -0.633487 0
M  V30 11254 C 1038.87 2.01624 -0.138643 0
M  V30 11255 C 1039.2 1.50101 1.24477 0
M  V30 11256 O 1038.47 0.705575 1.82752 0
M  V30 11257 H 1037.05 0.745439 -0.0482636 0
M  V30 11258 H 1039.71 1.76777 -0.820719 0
M  V30 11259 H 1038.8 3.11913 -0.108136 0
M  V30 11260 N 1039.1 0.374177 1.53094 0
M  V30 11261 C 1040.33 -0.215903 2.06273 0
M  V30 11262 C 1040.75 -1.40979 1.24526 0
M  V30 11263 O 1040.11 -1.79331 0.266462 0
M  V30 11264 C 1040.16 -0.579089 3.5592 0
M  V30 11265 O 1039.26 -1.67516 3.76845 0
M  V30 11266 H 1038.61 -0.0293981 0.663349 0
M  V30 11267 H 1041.14 0.537271 1.9742 0
M  V30 11268 H 1041.15 -0.847678 3.99097 0
M  V30 11269 H 1039.82 0.293843 4.14861 0
M  V30 11270 H 1038.4 -1.40146 3.45563 0
M  V30 11271 N 1040.58 -1.57259 0.103575 0
M  V30 11272 C 1041.81 -1.99 -0.566275 0
M  V30 11273 C 1042.23 -0.982909 -1.61197 0
M  V30 11274 O 1041.58 0.026345 -1.82481 0
M  V30 11275 C 1041.63 -3.40778 -1.20635 0
M  V30 11276 O 1041.35 -4.37632 -0.202472 0
M  V30 11277 C 1042.86 -3.97567 -1.961 0
M  V30 11278 H 1040.08 -0.653751 -0.151164 0
M  V30 11279 H 1042.62 -2.03658 0.185365 0
M  V30 11280 H 1040.77 -3.37107 -1.90886 0
M  V30 11281 H 1041.19 -5.2026 -0.665535 0
M  V30 11282 H 1042.66 -4.98897 -2.36233 0
M  V30 11283 H 1043.14 -3.35853 -2.83018 0
M  V30 11284 H 1043.75 -4.04737 -1.30645 0
M  V30 11285 N 1042.06 0.170153 -1.56679 0
M  V30 11286 C 1042.99 1.23945 -1.91606 0
M  V30 11287 C 1043.97 1.42725 -0.779004 0
M  V30 11288 O 1045.16 1.57712 -1.03243 0
M  V30 11289 C 1042.28 2.60222 -2.168 0
M  V30 11290 C 1041.33 2.58172 -3.39484 0
M  V30 11291 S 1042.16 2.0714 -4.93815 0
M  V30 11292 C 1043.32 3.45192 -5.22105 0
M  V30 11293 H 1043.55 0.941345 -2.82004 0
M  V30 11294 H 1041.08 0.374771 -1.49783 0
M  V30 11295 H 1043.04 3.38656 -2.31996 0
M  V30 11296 H 1041.7 2.87232 -1.27107 0
M  V30 11297 H 1040.9 3.58435 -3.54317 0
M  V30 11298 H 1040.5 1.87834 -3.2341 0
M  V30 11299 H 1042.79 4.41194 -5.14154 0
M  V30 11300 H 1043.73 3.35233 -6.23718 0
M  V30 11301 H 1044.14 3.41257 -4.49671 0
M  V30 11302 N 1043.54 1.5137 0.438746 0
M  V30 11303 C 1044.77 1.67774 1.21077 0
M  V30 11304 C 1045.18 0.374489 1.85049 0
M  V30 11305 O 1044.54 -0.646867 1.70651 0
M  V30 11306 C 1044.59 2.79238 2.29584 0
M  V30 11307 O 1044.31 4.04513 1.68228 0
M  V30 11308 C 1045.81 3.06898 3.19888 0
M  V30 11309 H 1043.03 0.563054 0.364981 0
M  V30 11310 H 1045.58 1.97777 0.520035 0
M  V30 11311 H 1043.73 2.51837 2.94375 0
M  V30 11312 H 1044.14 4.66405 2.3993 0
M  V30 11313 H 1045.62 3.88476 3.92162 0
M  V30 11314 H 1046.1 2.19249 3.80561 0
M  V30 11315 H 1046.7 3.35952 2.60799 0
M  V30 11316 N 1045.02 -0.694098 1.41492 0
M  V30 11317 C 1046.26 -1.45415 1.40929 0
M  V30 11318 C 1046.59 -1.94491 0.0189301 0
M  V30 11319 O 1045.85 -1.7 -0.96945 0
M  V30 11320 C 1046.15 -2.6805 2.36398 0
M  V30 11321 C 1045.81 -2.37623 3.83205 0
M  V30 11322 C 1044.47 -2.29035 4.23198 0
M  V30 11323 C 1046.83 -2.12555 4.75888 0
M  V30 11324 C 1044.15 -1.93478 5.5388 0
M  V30 11325 C 1046.51 -1.78506 6.06892 0
M  V30 11326 C 1045.17 -1.68415 6.45905 0
M  V30 11327 H 1044.44 -0.53211 0.515694 0
M  V30 11328 H 1047.09 -0.793193 1.74301 0
M  V30 11329 H 1045.39 -3.39086 1.96285 0
M  V30 11330 H 1047.09 -3.26194 2.33234 0
M  V30 11331 H 1043.68 -2.45202 3.51531 0
M  V30 11332 H 1047.86 -2.18133 4.45793 0
M  V30 11333 H 1043.12 -1.84219 5.82986 0
M  V30 11334 H 1047.29 -1.58128 6.7821 0
M  V30 11335 H 1044.92 -1.40631 7.47079 0
M  V30 11336 N 1046.49 -1.27344 -0.928501 0
M  V30 11337 C 1047.74 -1.13635 -1.6761 0
M  V30 11338 C 1048.07 0.317957 -1.91884 0
M  V30 11339 O 1047.32 1.24904 -1.50657 0
M  V30 11340 C 1047.62 -1.86439 -3.04918 0
M  V30 11341 C 1047.29 -3.36298 -3.00358 0
M  V30 11342 C 1045.95 -3.77173 -2.98821 0
M  V30 11343 C 1048.3 -4.31921 -2.91708 0
M  V30 11344 C 1045.63 -5.12037 -2.86417 0
M  V30 11345 C 1047.98 -5.66841 -2.80846 0
M  V30 11346 C 1046.65 -6.07011 -2.77659 0
M  V30 11347 H 1045.92 -0.415821 -0.61333 0
M  V30 11348 H 1048.56 -1.57943 -1.08288 0
M  V30 11349 H 1046.87 -1.34638 -3.6794 0
M  V30 11350 H 1048.57 -1.73261 -3.61637 0
M  V30 11351 H 1045.16 -3.0379 -3.0234 0
M  V30 11352 H 1049.34 -4.01314 -2.91994 0
M  V30 11353 H 1044.6 -5.42307 -2.82336 0
M  V30 11354 H 1048.77 -6.40608 -2.73119 0
M  V30 11355 H 1046.4 -7.11467 -2.67804 0
M  V30 11356 N 1047.97 1.13488 -1.09353 0
M  V30 11357 C 1048.92 2.18876 -0.732251 0
M  V30 11358 C 1049.89 1.63616 0.286175 0
M  V30 11359 O 1051.07 1.90059 0.167981 0
M  V30 11360 C 1048.21 3.44737 -0.158157 0
M  V30 11361 C 1047.33 4.14104 -1.23053 0
M  V30 11362 C 1046.46 5.27578 -0.619272 0
M  V30 11363 C 1045.5 5.88793 -1.67301 0
M  V30 11364 N 1044.64 6.937 -1.08283 0
M  V30 11365 H 1049.48 2.49128 -1.63522 0
M  V30 11366 H 1047.02 1.22326 -0.816995 0
M  V30 11367 H 1048.97 4.16756 0.192488 0
M  V30 11368 H 1047.6 3.14938 0.708082 0
M  V30 11369 H 1046.66 3.40376 -1.69847 0
M  V30 11370 H 1047.97 4.55683 -2.02865 0
M  V30 11371 H 1047.12 6.0631 -0.217428 0
M  V30 11372 H 1045.86 4.87246 0.210399 0
M  V30 11373 H 1044.87 5.08756 -2.0844 0
M  V30 11374 H 1046.09 6.31197 -2.50533 0
M  V30 11375 H 1044.04 6.55426 -0.274426 0
M  V30 11376 H 1043.95 7.33817 -1.81792 0
M  V30 11377 H 1045.22 7.76286 -0.707167 0
M  V30 11378 N 1049.45 0.880621 1.30701 0
M  V30 11379 C 1050.4 0.342397 2.28246 0
M  V30 11380 C 1051.37 -0.565023 1.56194 0
M  V30 11381 O 1052.55 -0.494377 1.84284 0
M  V30 11382 C 1049.69 -0.440859 3.42272 0
M  V30 11383 C 1048.81 0.495284 4.29151 0
M  V30 11384 C 1047.94 -0.303141 5.30334 0
M  V30 11385 C 1046.98 0.628751 6.08862 0
M  V30 11386 N 1046.12 -0.13408 7.01972 0
M  V30 11387 H 1050.96 1.17938 2.73669 0
M  V30 11388 H 1048.49 0.59296 1.34619 0
M  V30 11389 H 1050.45 -0.910854 4.07135 0
M  V30 11390 H 1049.08 -1.24245 2.97931 0
M  V30 11391 H 1048.13 1.08376 3.64635 0
M  V30 11392 H 1049.45 1.2094 4.83916 0
M  V30 11393 H 1048.6 -0.835181 6.00924 0
M  V30 11394 H 1047.34 -1.05049 4.76252 0
M  V30 11395 H 1046.34 1.17246 5.37153 0
M  V30 11396 H 1047.57 1.37512 6.65032 0
M  V30 11397 H 1045.52 -0.864046 6.50285 0
M  V30 11398 H 1045.43 0.520486 7.54206 0
M  V30 11399 H 1046.7 -0.647005 7.7681 0
M  V30 11400 N 1050.93 -1.4397 0.641131 0
M  V30 11401 C 1052.15 -2.06818 0.155318 0
M  V30 11402 C 1052.58 -1.47665 -1.16519 0
M  V30 11403 O 1051.94 -0.58192 -1.71707 0
M  V30 11404 C 1051.99 -3.60542 0.0647537 0
M  V30 11405 O 1051.09 -4.00674 -0.976447 0
M  V30 11406 H 1050.43 -0.657962 0.0893404 0
M  V30 11407 H 1052.96 -1.84678 0.88064 0
M  V30 11408 H 1052.97 -4.07816 -0.122552 0
M  V30 11409 H 1051.65 -4.02975 1.02878 0
M  V30 11410 H 1050.22 -3.65013 -0.762905 0
M  V30 11411 N 1052.41 -0.382291 -1.52893 0
M  V30 11412 C 1053.35 0.456234 -2.26246 0
M  V30 11413 C 1054.32 1.06366 -1.27575 0
M  V30 11414 O 1055.51 1.09301 -1.5639 0
M  V30 11415 C 1052.65 1.5813 -3.06739 0
M  V30 11416 C 1051.76 0.997416 -4.20328 0
M  V30 11417 C 1050.9 2.09296 -4.8823 0
M  V30 11418 C 1049.94 1.4846 -5.93823 0
M  V30 11419 N 1049.07 2.51916 -6.55349 0
M  V30 11420 H 1053.91 -0.175761 -2.97481 0
M  V30 11421 H 1051.45 -0.0985046 -1.4677 0
M  V30 11422 H 1053.41 2.24426 -3.51694 0
M  V30 11423 H 1052.04 2.18371 -2.37727 0
M  V30 11424 H 1051.09 0.224251 -3.79738 0
M  V30 11425 H 1052.4 0.512784 -4.96157 0
M  V30 11426 H 1051.56 2.83377 -5.36453 0
M  V30 11427 H 1050.3 2.61116 -4.1191 0
M  V30 11428 H 1049.3 0.729001 -5.44946 0
M  V30 11429 H 1050.53 0.97443 -6.72073 0
M  V30 11430 H 1048.47 3.02919 -5.81873 0
M  V30 11431 H 1048.39 2.08188 -7.26769 0
M  V30 11432 H 1049.66 3.25649 -7.08218 0
M  V30 11433 N 1053.89 1.57202 -0.111913 0
M  V30 11434 C 1055.13 1.94125 0.547573 0
M  V30 11435 C 1055.45 0.997026 1.68282 0
M  V30 11436 O 1056.65 1.26063 2.40459 0
M  V30 11437 C 1055.11 3.44982 1.02545 0
M  V30 11438 C 1054.72 4.47927 -0.0809529 0
M  V30 11439 C 1056.46 3.90837 1.65671 0
M  V30 11440 C 1054.37 5.89955 0.413224 0
M  V30 11441 H 1053.3 0.724651 0.208321 0
M  V30 11442 H 1055.95 1.82507 -0.190625 0
M  V30 11443 H 1054.33 3.5181 1.81785 0
M  V30 11444 H 1055.51 4.52761 -0.857003 0
M  V30 11445 H 1053.82 4.11782 -0.618434 0
M  V30 11446 H 1056.42 4.9436 2.03746 0
M  V30 11447 H 1056.76 3.30417 2.53239 0
M  V30 11448 H 1057.29 3.8678 0.929844 0
M  V30 11449 H 1054.03 6.54113 -0.426238 0
M  V30 11450 H 1053.55 5.88557 1.15591 0
M  V30 11451 H 1055.23 6.41032 0.876756 0
M  V30 11452 N 1055.36 -0.161842 1.56767 0
M  V30 11453 C 1056.59 -0.896274 1.87034 0
M  V30 11454 C 1057.01 -1.74617 0.699314 0
M  V30 11455 O 1056.37 -1.77861 -0.351435 0
M  V30 11456 C 1056.42 -1.74105 3.15784 0
M  V30 11457 O 1055.52 -2.84372 2.98674 0
M  V30 11458 H 1054.86 -0.250523 0.614926 0
M  V30 11459 H 1057.39 -0.157127 2.03996 0
M  V30 11460 H 1057.4 -2.13907 3.4743 0
M  V30 11461 H 1056.08 -1.11684 4.00624 0
M  V30 11462 H 1054.66 -2.48084 2.78404 0
M  V30 11463 N 1056.84 -1.516 -0.430713 0
M  V30 11464 C 1058.07 -1.68414 -1.20185 0
M  V30 11465 C 1058.48 -0.384297 -1.84847 0
M  V30 11466 O 1057.84 0.637808 -1.70992 0
M  V30 11467 C 1057.89 -2.80451 -2.28099 0
M  V30 11468 O 1057.61 -4.05399 -1.66081 0
M  V30 11469 C 1059.11 -3.0859 -3.18256 0
M  V30 11470 H 1056.33 -0.564982 -0.361989 0
M  V30 11471 H 1058.88 -1.9805 -0.50954 0
M  V30 11472 H 1057.03 -2.53395 -2.93036 0
M  V30 11473 H 1057.45 -4.67671 -2.37453 0
M  V30 11474 H 1058.92 -3.9055 -3.90096 0
M  V30 11475 H 1059.4 -2.21264 -3.79393 0
M  V30 11476 H 1060 -3.37331 -2.59014 0
M  V30 11477 N 1058.32 0.686584 -1.41858 0
M  V30 11478 C 1059.55 1.47305 -1.44862 0
M  V30 11479 C 1059.96 1.8912 -0.0549286 0
M  V30 11480 O 1059.3 1.57941 0.938101 0
M  V30 11481 C 1059.36 2.76107 -2.30229 0
M  V30 11482 C 1059.03 2.5644 -3.78269 0
M  V30 11483 C 1060.02 2.21803 -4.70212 0
M  V30 11484 C 1057.71 2.71801 -4.22409 0
M  V30 11485 C 1059.7 2.02778 -6.04284 0
M  V30 11486 C 1057.39 2.52392 -5.56544 0
M  V30 11487 C 1058.39 2.17933 -6.47298 0
M  V30 11488 O 1058.08 1.98701 -7.78956 0
M  V30 11489 H 1057.81 0.460174 -0.495193 0
M  V30 11490 H 1060.36 0.852069 -1.86893 0
M  V30 11491 H 1058.59 3.40644 -1.83026 0
M  V30 11492 H 1060.28 3.37947 -2.24826 0
M  V30 11493 H 1061.05 2.09542 -4.37398 0
M  V30 11494 H 1056.93 2.97605 -3.52069 0
M  V30 11495 H 1060.47 1.75805 -6.75084 0
M  V30 11496 H 1056.37 2.64246 -5.88935 0
M  V30 11497 H 1057.13 2.13393 -7.90193 0
M  V30 11498 N 1059.8 1.27835 0.921735 0
M  V30 11499 C 1060.71 1.12904 2.05645 0
M  V30 11500 C 1061.72 0.0575704 1.73905 0
M  V30 11501 O 1062.9 0.265261 1.99645 0
M  V30 11502 C 1059.96 0.783957 3.3772 0
M  V30 11503 C 1059.03 1.93694 3.8312 0
M  V30 11504 C 1058.26 1.60823 5.08893 0
M  V30 11505 O 1058.48 0.518873 5.68035 0
M  V30 11506 O 1057.42 2.44932 5.49811 0
M  V30 11507 H 1061.24 2.08143 2.21157 0
M  V30 11508 H 1058.83 1.07078 1.04185 0
M  V30 11509 H 1060.71 0.605107 4.17033 0
M  V30 11510 H 1059.38 -0.138849 3.23402 0
M  V30 11511 H 1058.29 2.17089 3.04669 0
M  V30 11512 H 1059.62 2.84016 4.0199 0
M  V30 11513 N 1061.28 -1.12907 1.09954 0
M  V30 11514 C 1062.22 -2.18485 0.743848 0
M  V30 11515 C 1063.19 -1.63766 -0.277494 0
M  V30 11516 O 1064.38 -1.90146 -0.157899 0
M  V30 11517 C 1061.52 -3.44649 0.176437 0
M  V30 11518 C 1060.63 -4.13445 1.25248 0
M  V30 11519 C 1059.77 -5.27242 0.647242 0
M  V30 11520 C 1058.8 -5.87897 1.70421 0
M  V30 11521 N 1057.94 -6.93116 1.1196 0
M  V30 11522 H 1062.78 -2.48257 1.64841 0
M  V30 11523 H 1060.32 -1.21891 0.823471 0
M  V30 11524 H 1062.28 -4.16852 -0.170384 0
M  V30 11525 H 1060.91 -3.15309 -0.69137 0
M  V30 11526 H 1059.96 -3.39471 1.7165 0
M  V30 11527 H 1061.27 -4.54601 2.05279 0
M  V30 11528 H 1060.42 -6.06186 0.249579 0
M  V30 11529 H 1059.16 -4.87351 -0.184556 0
M  V30 11530 H 1058.17 -5.07643 2.11136 0
M  V30 11531 H 1059.39 -6.2986 2.53877 0
M  V30 11532 H 1057.34 -6.55271 0.309181 0
M  V30 11533 H 1057.26 -7.32843 1.85681 0
M  V30 11534 H 1058.52 -7.759 0.748326 0
M  V30 11535 N 1062.75 -0.88754 -1.30232 0
M  V30 11536 C 1063.69 -0.300814 -2.26209 0
M  V30 11537 C 1064.66 0.580088 -1.519 0
M  V30 11538 O 1065.85 0.529611 -1.80907 0
M  V30 11539 C 1062.98 0.572336 -3.33829 0
M  V30 11540 C 1062.02 -0.239589 -4.25827 0
M  V30 11541 S 1062.85 -1.62953 -5.10104 0
M  V30 11542 C 1064.01 -0.762979 -6.21232 0
M  V30 11543 H 1064.24 -1.11435 -2.75626 0
M  V30 11544 H 1061.78 -0.687123 -1.38268 0
M  V30 11545 H 1063.73 1.07036 -3.963 0
M  V30 11546 H 1062.4 1.35999 -2.83131 0
M  V30 11547 H 1061.59 0.426854 -5.02189 0
M  V30 11548 H 1061.19 -0.670325 -3.67944 0
M  V30 11549 H 1063.48 0.0189354 -6.77497 0
M  V30 11550 H 1064.43 -1.49829 -6.92067 0
M  V30 11551 H 1064.83 -0.322747 -5.63577 0
M  V30 11552 N 1064.23 1.43628 -0.648757 0
M  V30 11553 C 1065.48 2.02695 -0.169158 0
M  V30 11554 C 1065.83 1.50239 1.20191 0
M  V30 11555 O 1065.13 0.684018 1.78974 0
M  V30 11556 C 1065.32 3.57214 -0.115282 0
M  V30 11557 C 1065.15 4.24663 -1.47959 0
M  V30 11558 C 1063.92 4.60917 -2.07084 0
M  V30 11559 C 1066.12 4.53962 -2.41708 0
M  V30 11560 N 1064.1 5.13416 -3.36566 0
M  V30 11561 C 1065.47 5.07733 -3.55819 0
M  V30 11562 C 1067.53 4.35927 -2.40566 0
M  V30 11563 C 1066.23 5.45367 -4.69007 0
M  V30 11564 C 1068.25 4.7462 -3.52831 0
M  V30 11565 C 1067.62 5.2852 -4.65667 0
M  V30 11566 H 1063.72 0.774751 -0.106227 0
M  V30 11567 H 1066.3 1.74869 -0.85609 0
M  V30 11568 H 1064.47 3.84614 0.54098 0
M  V30 11569 H 1066.2 4.02961 0.374775 0
M  V30 11570 H 1062.96 4.45812 -1.59841 0
M  V30 11571 H 1063.38 5.44124 -4.02813 0
M  V30 11572 H 1068.02 3.93533 -1.54569 0
M  V30 11573 H 1065.74 5.86707 -5.55698 0
M  V30 11574 H 1069.33 4.62364 -3.53144 0
M  V30 11575 H 1068.21 5.57906 -5.511 0
M  V30 11576 N 1065.71 0.390394 1.52688 0
M  V30 11577 C 1066.67 -0.432149 2.25089 0
M  V30 11578 C 1067.67 -0.989296 1.26766 0
M  V30 11579 O 1068.86 -0.871126 1.50854 0
M  V30 11580 C 1066 -1.60642 3.00678 0
M  V30 11581 H 1067.19 0.201734 2.99221 0
M  V30 11582 H 1064.74 0.142531 1.55649 0
M  V30 11583 H 1065.48 -2.2777 2.3085 0
M  V30 11584 H 1065.26 -1.21361 3.72846 0
M  V30 11585 H 1066.75 -2.18873 3.55647 0
M  V30 11586 N 1067.19 -1.57141 0.120249 0
M  V30 11587 C 1068.44 -1.95238 -0.537449 0
M  V30 11588 C 1068.76 -1.00361 -1.66607 0
M  V30 11589 O 1068.02 -0.0277306 -1.9568 0
M  V30 11590 C 1068.32 -3.39745 -1.10941 0
M  V30 11591 C 1067.98 -4.50785 -0.102012 0
M  V30 11592 C 1066.65 -4.80882 0.174994 0
M  V30 11593 C 1069 -5.17913 0.584462 0
M  V30 11594 C 1066.33 -5.75424 1.14474 0
M  V30 11595 C 1068.68 -6.13497 1.54284 0
M  V30 11596 C 1067.34 -6.41987 1.82782 0
M  V30 11597 H 1066.61 -0.714425 -0.196666 0
M  V30 11598 H 1069.26 -1.90438 0.201418 0
M  V30 11599 H 1067.56 -3.41246 -1.92506 0
M  V30 11600 H 1069.26 -3.66536 -1.62642 0
M  V30 11601 H 1065.85 -4.27342 -0.328097 0
M  V30 11602 H 1070.03 -4.94815 0.383625 0
M  V30 11603 H 1065.29 -5.95801 1.37226 0
M  V30 11604 H 1069.46 -6.64598 2.08044 0
M  V30 11605 H 1067.09 -7.15052 2.5808 0
M  V30 11606 N 1068.67 0.153526 -1.5685 0
M  V30 11607 C 1069.6 1.21906 -1.9291 0
M  V30 11608 C 1070.58 1.4189 -0.794098 0
M  V30 11609 O 1071.76 1.56609 -1.0491 0
M  V30 11610 C 1068.89 2.57908 -2.19548 0
M  V30 11611 C 1067.93 2.54557 -3.42203 0
M  V30 11612 S 1068.77 2.01891 -4.95984 0
M  V30 11613 C 1069.92 3.39635 -5.25737 0
M  V30 11614 H 1070.16 0.911382 -2.82986 0
M  V30 11615 H 1067.69 0.358863 -1.50172 0
M  V30 11616 H 1069.65 3.36177 -2.35575 0
M  V30 11617 H 1068.31 2.85868 -1.30147 0
M  V30 11618 H 1067.5 3.54657 -3.58098 0
M  V30 11619 H 1067.1 1.84393 -3.25385 0
M  V30 11620 H 1069.4 4.35716 -5.18804 0
M  V30 11621 H 1070.34 3.28599 -6.27239 0
M  V30 11622 H 1070.75 3.36469 -4.53265 0
M  V30 11623 N 1070.14 1.51827 0.422667 0
M  V30 11624 C 1071.37 1.69337 1.19748 0
M  V30 11625 C 1071.79 0.396312 1.83878 0
M  V30 11626 O 1071.15 -0.644976 1.6944 0
M  V30 11627 C 1071.2 2.82082 2.24637 0
M  V30 11628 O 1070.3 2.46708 3.30468 0
M  V30 11629 H 1069.65 0.564154 0.35018 0
M  V30 11630 H 1072.18 1.98465 0.497289 0
M  V30 11631 H 1072.19 3.06599 2.69186 0
M  V30 11632 H 1070.86 3.76195 1.77341 0
M  V30 11633 H 1069.44 2.32815 2.91293 0
M  V30 11634 N 1071.62 -0.679052 1.4222 0
M  V30 11635 C 1072.85 -1.47248 1.46058 0
M  V30 11636 C 1073.27 -1.87962 0.0720987 0
M  V30 11637 O 1072.63 -1.5572 -0.928488 0
M  V30 11638 C 1072.68 -2.70067 2.38948 0
M  V30 11639 O 1071.78 -3.68178 1.85791 0
M  V30 11640 H 1071.12 -0.442533 0.495036 0
M  V30 11641 H 1073.65 -0.833263 1.86863 0
M  V30 11642 H 1073.66 -3.18187 2.55385 0
M  V30 11643 H 1072.34 -2.39773 3.39826 0
M  V30 11644 H 1070.92 -3.2719 1.78889 0
M  V30 11645 N 1073.1 -1.28322 -0.914942 0
M  V30 11646 C 1074.52 -1.06003 -1.19313 0
M  V30 11647 C 1074.72 0.198366 -2.00521 0
M  V30 11648 O 1073.77 0.900364 -2.35902 0
M  V30 11649 C 1075.09 -2.30684 -1.92887 0
M  V30 11650 C 1076.63 -2.35851 -2.05775 0
M  V30 11651 C 1077.11 -3.60295 -2.82757 0
M  V30 11652 N 1078.6 -3.60928 -2.9032 0
M  V30 11653 C 1079.33 -4.53894 -3.50383 0
M  V30 11654 N 1078.83 -5.57178 -4.11734 0
M  V30 11655 N 1080.62 -4.41492 -3.4791 0
M  V30 11656 H 1072.77 -2.09104 -0.372735 0
M  V30 11657 H 1075.04 -0.920285 -0.227552 0
M  V30 11658 H 1074.74 -3.22355 -1.40643 0
M  V30 11659 H 1074.62 -2.37003 -2.93444 0
M  V30 11660 H 1077 -1.44678 -2.57201 0
M  V30 11661 H 1077.09 -2.33526 -1.04399 0
M  V30 11662 H 1076.73 -4.51811 -2.32011 0
M  V30 11663 H 1076.66 -3.59873 -3.84446 0
M  V30 11664 H 1079.15 -2.8624 -2.46729 0
M  V30 11665 H 1079.46 -6.24261 -4.55541 0
M  V30 11666 H 1077.81 -5.61005 -4.10242 0
M  V30 11667 H 1081 -3.60005 -2.99189 0
M  V30 11668 H 1081.17 -5.14132 -3.94427 0
M  V30 11669 N 1074.58 1.12322 -1.10551 0
M  V30 11670 C 1075.51 2.17819 -0.713263 0
M  V30 11671 C 1076.52 1.6086 0.250604 0
M  V30 11672 O 1077.71 1.78466 0.0348909 0
M  V30 11673 C 1074.81 3.38885 -0.0320325 0
M  V30 11674 C 1073.99 4.25332 -1.02038 0
M  V30 11675 C 1073.04 5.24895 -0.370412 0
M  V30 11676 O 1072.07 5.59958 -1.02157 0
M  V30 11677 N 1073.27 5.73934 0.870633 0
M  V30 11678 H 1076.04 2.52083 -1.62094 0
M  V30 11679 H 1073.6 1.27755 -0.994492 0
M  V30 11680 H 1075.59 4.02574 0.414285 0
M  V30 11681 H 1074.16 3.02762 0.778072 0
M  V30 11682 H 1073.38 3.5824 -1.64492 0
M  V30 11683 H 1074.67 4.79936 -1.68936 0
M  V30 11684 H 1074.07 5.47614 1.419 0
M  V30 11685 H 1072.62 6.39504 1.26008 0
M  V30 11686 N 1076.06 0.894434 1.2976 0
M  V30 11687 C 1076.99 0.325525 2.26877 0
M  V30 11688 C 1078 -0.525218 1.54095 0
M  V30 11689 O 1079.19 -0.343231 1.75169 0
M  V30 11690 C 1076.29 -0.554952 3.34325 0
M  V30 11691 C 1075.46 0.268868 4.36573 0
M  V30 11692 C 1074.52 -0.543601 5.23385 0
M  V30 11693 O 1073.55 0.0370454 5.69188 0
M  V30 11694 N 1074.75 -1.85079 5.50205 0
M  V30 11695 H 1077.52 1.16021 2.76332 0
M  V30 11696 H 1075.08 0.758382 1.43039 0
M  V30 11697 H 1077.07 -1.10476 3.89329 0
M  V30 11698 H 1075.64 -1.29031 2.84727 0
M  V30 11699 H 1074.86 1.0001 3.81302 0
M  V30 11700 H 1076.15 0.833248 5.01931 0
M  V30 11701 H 1075.54 -2.34533 5.14792 0
M  V30 11702 H 1074.1 -2.34784 6.08046 0
M  V30 11703 N 1077.53 -1.43282 0.656365 0
M  V30 11704 C 1078.76 -2.06125 0.178879 0
M  V30 11705 C 1079.18 -1.49216 -1.15672 0
M  V30 11706 O 1078.53 -0.624693 -1.71475 0
M  V30 11707 C 1078.59 -3.614 0.0851785 0
M  V30 11708 O 1078.31 -4.16194 1.36798 0
M  V30 11709 C 1079.81 -4.41325 -0.41801 0
M  V30 11710 H 1077.03 -0.664753 0.0913504 0
M  V30 11711 H 1079.57 -1.83733 0.897901 0
M  V30 11712 H 1077.73 -3.82966 -0.584421 0
M  V30 11713 H 1078.14 -5.09892 1.22924 0
M  V30 11714 H 1079.61 -5.50303 -0.432519 0
M  V30 11715 H 1080.09 -4.14577 -1.44991 0
M  V30 11716 H 1080.7 -4.24735 0.219208 0
M  V30 11717 N 1079.01 -0.398486 -1.52479 0
M  V30 11718 C 1079.98 0.420206 -2.25315 0
M  V30 11719 C 1080.98 0.982559 -1.27289 0
M  V30 11720 O 1082.17 0.863113 -1.51314 0
M  V30 11721 C 1079.3 1.59045 -3.01525 0
M  V30 11722 H 1080.49 -0.217599 -2.9911 0
M  V30 11723 H 1078.04 -0.150784 -1.55571 0
M  V30 11724 H 1078.78 2.26542 -2.32054 0
M  V30 11725 H 1078.56 1.19382 -3.73484 0
M  V30 11726 H 1080.05 2.16984 -3.56802 0
M  V30 11727 N 1080.49 1.57075 -0.12858 0
M  V30 11728 C 1081.42 2.18833 0.814519 0
M  V30 11729 C 1082.4 1.13114 1.2704 0
M  V30 11730 O 1083.59 1.41387 1.33129 0
M  V30 11731 C 1080.72 2.79535 2.06101 0
M  V30 11732 C 1079.67 3.9092 1.74257 0
M  V30 11733 C 1079 4.38473 3.06015 0
M  V30 11734 C 1080.3 5.1257 1.00345 0
M  V30 11735 H 1081.99 2.97895 0.299862 0
M  V30 11736 H 1079.54 1.4329 0.14279 0
M  V30 11737 H 1081.49 3.21401 2.72543 0
M  V30 11738 H 1080.21 1.97777 2.59907 0
M  V30 11739 H 1078.87 3.49645 1.102 0
M  V30 11740 H 1078.52 3.53561 3.57776 0
M  V30 11741 H 1078.22 5.13591 2.85479 0
M  V30 11742 H 1079.75 4.82997 3.7356 0
M  V30 11743 H 1081.16 5.51395 1.56959 0
M  V30 11744 H 1079.56 5.93333 0.898693 0
M  V30 11745 H 1080.63 4.84899 -0.0081335 0
M  V30 11746 N 1081.97 -0.145205 1.5693 0
M  V30 11747 C 1083.22 -0.858786 1.83719 0
M  V30 11748 C 1083.55 -1.80738 0.710452 0
M  V30 11749 O 1082.82 -1.92389 -0.285791 0
M  V30 11750 C 1083.11 -1.6317 3.2101 0
M  V30 11751 C 1082.96 -0.704472 4.44249 0
M  V30 11752 C 1084.28 -2.59377 3.55544 0
M  V30 11753 H 1081.4 -0.310757 0.66828 0
M  V30 11754 H 1084.04 -0.123918 1.89595 0
M  V30 11755 H 1082.19 -2.25816 3.16132 0
M  V30 11756 H 1083.86 -0.08887 4.61214 0
M  V30 11757 H 1082.1 -0.0141693 4.33798 0
M  V30 11758 H 1082.78 -1.28135 5.36922 0
M  V30 11759 H 1085.25 -2.06848 3.61044 0
M  V30 11760 H 1084.13 -3.10506 4.52634 0
M  V30 11761 H 1084.39 -3.40819 2.81594 0
M  V30 11762 N 1083.45 -1.52049 -0.414609 0
M  V30 11763 C 1084.86 -1.40729 -0.752822 0
M  V30 11764 C 1085.06 -0.507468 -1.95005 0
M  V30 11765 O 1084.12 0.0288189 -2.52484 0
M  V30 11766 C 1085.43 -2.83163 -1.01189 0
M  V30 11767 C 1086.98 -2.92469 -1.11494 0
M  V30 11768 C 1087.46 -4.35859 -1.4068 0
M  V30 11769 N 1088.95 -4.39069 -1.47557 0
M  V30 11770 C 1089.68 -5.47072 -1.71756 0
M  V30 11771 N 1089.18 -6.65201 -1.93595 0
M  V30 11772 N 1090.97 -5.3458 -1.73726 0
M  V30 11773 H 1083.12 -2.09089 0.373549 0
M  V30 11774 H 1085.38 -0.942188 0.104814 0
M  V30 11775 H 1085.09 -3.51104 -0.204609 0
M  V30 11776 H 1084.96 -3.23874 -1.93353 0
M  V30 11777 H 1087.35 -2.24711 -1.91282 0
M  V30 11778 H 1087.43 -2.55222 -0.171794 0
M  V30 11779 H 1087.08 -5.04174 -0.614119 0
M  V30 11780 H 1087.01 -4.70637 -2.36238 0
M  V30 11781 H 1089.5 -3.53913 -1.32491 0
M  V30 11782 H 1089.81 -7.43297 -2.11495 0
M  V30 11783 H 1088.16 -6.68276 -1.90871 0
M  V30 11784 H 1091.35 -4.41271 -1.56198 0
M  V30 11785 H 1091.52 -6.18826 -1.92246 0
M  V30 11786 N 1084.93 0.6715 -1.42579 0
M  V30 11787 C 1085.87 1.80623 -1.46554 0
M  V30 11788 C 1086.87 1.65934 -0.340932 0
M  V30 11789 O 1088.07 1.72502 -0.514098 0
M  V30 11790 H 1084.45 0.595619 -0.459067 0
M  V30 11791 H 1086.42 1.74388 -2.42139 0
M  V30 11792 C 1085.17 3.18794 -1.38801 0
M  V30 11793 H 1084.49 3.30725 -2.24635 0
M  V30 11794 H 1085.93 3.98201 -1.45645 0
M  V30 11795 C 1084.39 3.36742 -0.103219 0
M  V30 11796 O 1084.92 3.92761 0.842715 0
M  V30 11797 N 1083.13 2.90594 -0.0193034 0
M  V30 11798 H 1082.67 2.45192 -0.78986 0
M  V30 11799 H 1082.63 3.0298 0.839686 0
M  V30 11800 N 1086.4 1.28806 0.908124 0
M  V30 11801 C 1087.63 1.19271 1.69674 0
M  V30 11802 C 1088.05 -0.244403 1.86505 0
M  V30 11803 O 1087.41 -1.17668 1.37927 0
M  V30 11804 C 1087.46 1.9023 3.06341 0
M  V30 11805 O 1086.56 1.2136 3.94139 0
M  V30 11806 H 1085.9 0.413738 0.519343 0
M  V30 11807 H 1088.43 1.70227 1.13508 0
M  V30 11808 H 1088.44 1.98356 3.56537 0
M  V30 11809 H 1087.12 2.94762 2.93408 0
M  V30 11810 H 1085.7 1.21435 3.52573 0
M  V30 11811 N 1087.88 -1.11734 1.11145 0
M  V30 11812 C 1089.16 -1.79795 0.770261 0
M  V30 11813 C 1089.54 -1.97624 -0.742158 0
M  V30 11814 O 1088.89 -1.55847 -1.67105 0
M  V30 11815 C 1089.1 -3.13684 1.52982 0
M  V30 11816 C 1090.44 -3.88771 1.70711 0
M  V30 11817 O 1091.47 -3.23363 1.49381 0
M  V30 11818 O 1090.33 -5.06134 2.06132 0
M  V30 11819 H 1087.42 -0.778617 0.27872 0
M  V30 11820 H 1089.97 -1.18504 1.2147 0
M  V30 11821 H 1088.74 -2.96043 2.55879 0
M  V30 11822 H 1088.36 -3.82687 1.07873 0
M  V30 11823 N 1089.36 -0.901303 -1.29284 0
M  V30 11824 C 1090.27 -0.3849 -2.31421 0
M  V30 11825 C 1091.29 0.521163 -1.66012 0
M  V30 11826 O 1092.46 0.410356 -1.97175 0
M  V30 11827 C 1089.53 0.377804 -3.44635 0
M  V30 11828 C 1088.59 -0.559974 -4.25632 0
M  V30 11829 C 1087.82 0.166425 -5.3344 0
M  V30 11830 O 1088.04 1.39012 -5.53202 0
M  V30 11831 O 1086.98 -0.491875 -5.99887 0
M  V30 11832 H 1090.8 -1.2323 -2.77575 0
M  V30 11833 H 1088.39 -0.665683 -1.3375 0
M  V30 11834 H 1090.27 0.809041 -4.13561 0
M  V30 11835 H 1088.95 1.20124 -3.00586 0
M  V30 11836 H 1087.85 -1.04036 -3.59343 0
M  V30 11837 H 1089.19 -1.34987 -4.73328 0
M  V30 11838 N 1090.84 1.42931 -0.663954 0
M  V30 11839 C 1092.09 2.01284 -0.181379 0
M  V30 11840 C 1092.41 1.52708 1.21265 0
M  V30 11841 O 1091.68 0.744181 1.81215 0
M  V30 11842 H 1090.26 0.744248 -0.0640646 0
M  V30 11843 H 1092.92 1.74997 -0.858031 0
M  V30 11844 H 1092.01 3.11613 -0.174273 0
M  V30 11845 N 1092.32 0.406567 1.52266 0
M  V30 11846 C 1093.56 -0.171391 2.00971 0
M  V30 11847 C 1093.88 -1.46443 1.29668 0
M  V30 11848 O 1095.08 -2.12348 1.69176 0
M  V30 11849 C 1093.54 -0.35599 3.58135 0
M  V30 11850 C 1093.15 0.924803 4.38351 0
M  V30 11851 C 1094.89 -0.889378 4.15079 0
M  V30 11852 C 1092.8 0.707534 5.87152 0
M  V30 11853 H 1091.73 -0.0678253 0.750943 0
M  V30 11854 H 1094.38 0.531619 1.7563 0
M  V30 11855 H 1092.76 -1.12127 3.79794 0
M  V30 11856 H 1093.94 1.69603 4.28452 0
M  V30 11857 H 1092.25 1.38442 3.92712 0
M  V30 11858 H 1094.85 -1.06792 5.23927 0
M  V30 11859 H 1095.19 -1.86334 3.7227 0
M  V30 11860 H 1095.72 -0.183224 3.97378 0
M  V30 11861 H 1092.46 1.65299 6.34316 0
M  V30 11862 H 1091.98 -0.024446 5.99795 0
M  V30 11863 H 1093.66 0.348721 6.4606 0
M  V30 11864 N 1093.79 -1.57004 0.136909 0
M  V30 11865 C 1094.73 -2.13355 -0.837405 0
M  V30 11866 C 1095.74 -1.08053 -1.21772 0
M  V30 11867 O 1096.93 -1.35365 -1.16355 0
M  V30 11868 C 1094.03 -2.63302 -2.13366 0
M  V30 11869 C 1093.2 -3.92896 -1.92228 0
M  V30 11870 C 1092.26 -4.28257 -3.05749 0
M  V30 11871 O 1091.29 -4.96761 -2.7788 0
M  V30 11872 N 1092.49 -3.87021 -4.3266 0
M  V30 11873 H 1095.25 -2.9758 -0.35586 0
M  V30 11874 H 1092.81 -1.61832 -0.0469758 0
M  V30 11875 H 1094.81 -2.83977 -2.88339 0
M  V30 11876 H 1093.38 -1.83858 -2.52814 0
M  V30 11877 H 1092.6 -3.80949 -1.01349 0
M  V30 11878 H 1093.88 -4.776 -1.75431 0
M  V30 11879 H 1093.28 -3.31804 -4.58173 0
M  V30 11880 H 1091.84 -4.12768 -5.04446 0
M  V30 11881 N 1095.27 0.136881 -1.57004 0
M  V30 11882 C 1096.69 0.489856 -1.51897 0
M  V30 11883 C 1096.89 1.82833 -0.847009 0
M  V30 11884 O 1095.94 2.48952 -0.421792 0
M  V30 11885 C 1097.26 0.490831 -2.96667 0
M  V30 11886 C 1098.81 0.575639 -3.07661 0
M  V30 11887 C 1099.28 0.607178 -4.53957 0
M  V30 11888 N 1100.77 0.66912 -4.58342 0
M  V30 11889 C 1101.51 0.714675 -5.68929 0
M  V30 11890 N 1101 0.718959 -6.89059 0
M  V30 11891 N 1102.8 0.756326 -5.56988 0
M  V30 11892 H 1094.95 -0.740347 -1.99079 0
M  V30 11893 H 1097.21 -0.271116 -0.908405 0
M  V30 11894 H 1096.92 -0.424648 -3.49127 0
M  V30 11895 H 1096.79 1.32512 -3.53158 0
M  V30 11896 H 1099.18 1.48154 -2.55215 0
M  V30 11897 H 1099.26 -0.285991 -2.54196 0
M  V30 11898 H 1098.9 -0.294604 -5.07045 0
M  V30 11899 H 1098.83 1.48544 -5.05215 0
M  V30 11900 H 1101.32 0.672697 -3.71864 0
M  V30 11901 H 1101.64 0.755848 -7.69095 0
M  V30 11902 H 1099.98 0.686671 -6.91599 0
M  V30 11903 H 1103.17 0.750219 -4.62049 0
M  V30 11904 H 1103.34 0.788363 -6.43186 0
M  V30 11905 N 1096.75 1.52266 0.40654 0
M  V30 11906 C 1098 1.66699 1.15496 0
M  V30 11907 C 1098.33 0.397019 1.90098 0
M  V30 11908 O 1097.6 -0.604646 1.84863 0
M  V30 11909 C 1097.89 2.8907 2.14734 0
M  V30 11910 C 1097.74 4.26123 1.44012 0
M  V30 11911 C 1099.06 3.06966 3.15373 0
M  V30 11912 H 1096.18 0.606642 0.418515 0
M  V30 11913 H 1098.82 1.84826 0.440381 0
M  V30 11914 H 1096.97 2.73745 2.75673 0
M  V30 11915 H 1098.64 4.5318 0.861722 0
M  V30 11916 H 1096.89 4.27406 0.742064 0
M  V30 11917 H 1097.56 5.07799 2.16436 0
M  V30 11918 H 1100.03 3.21205 2.64512 0
M  V30 11919 H 1098.91 3.94097 3.82072 0
M  V30 11920 H 1099.17 2.20395 3.83247 0
M  V30 11921 N 1098.23 -0.663929 1.42933 0
M  V30 11922 C 1099.16 -1.78899 1.50058 0
M  V30 11923 C 1100.14 -1.66329 0.356164 0
M  V30 11924 O 1101.32 -1.85587 0.571944 0
M  V30 11925 C 1098.45 -3.17265 1.41281 0
M  V30 11926 C 1097.41 -3.44584 2.53861 0
M  V30 11927 C 1096.73 -4.82638 2.3014 0
M  V30 11928 C 1098.03 -3.40394 3.96143 0
M  V30 11929 H 1099.73 -1.73194 2.44222 0
M  V30 11930 H 1097.27 -0.83182 1.17545 0
M  V30 11931 H 1099.23 -3.95715 1.44872 0
M  V30 11932 H 1097.95 -3.23675 0.43616 0
M  V30 11933 H 1096.61 -2.685 2.49606 0
M  V30 11934 H 1096.26 -4.85711 1.30743 0
M  V30 11935 H 1095.96 -5.01879 3.056 0
M  V30 11936 H 1097.48 -5.63359 2.35497 0
M  V30 11937 H 1098.9 -4.08796 4.01943 0
M  V30 11938 H 1097.29 -3.7117 4.71543 0
M  V30 11939 H 1098.36 -2.38767 4.22041 0
M  V30 11940 N 1099.71 -1.29285 -0.901281 0
M  V30 11941 C 1100.93 -1.20048 -1.68511 0
M  V30 11942 C 1101.35 0.239128 -1.8728 0
M  V30 11943 O 1100.71 1.16027 -1.40869 0
M  V30 11944 C 1100.76 -1.90798 -3.07048 0
M  V30 11945 O 1100.48 -3.29137 -2.89138 0
M  V30 11946 C 1101.98 -1.88017 -4.01453 0
M  V30 11947 H 1099.2 -0.416157 -0.52636 0
M  V30 11948 H 1101.74 -1.7063 -1.12719 0
M  V30 11949 H 1099.9 -1.44055 -3.5962 0
M  V30 11950 H 1100.31 -3.64747 -3.76908 0
M  V30 11951 H 1101.79 -2.42088 -4.96082 0
M  V30 11952 H 1102.26 -0.855341 -4.30791 0
M  V30 11953 H 1102.87 -2.34497 -3.54812 0
M  V30 11954 N 1101.18 1.11143 -1.11736 0
M  V30 11955 C 1102.41 1.86745 -0.890727 0
M  V30 11956 C 1102.83 1.80315 0.55964 0
M  V30 11957 O 1102.18 1.18663 1.38656 0
M  V30 11958 C 1102.24 3.35436 -1.34779 0
M  V30 11959 O 1101.96 3.41738 -2.74129 0
M  V30 11960 C 1103.46 4.27935 -1.15702 0
M  V30 11961 H 1100.68 0.59044 -0.318781 0
M  V30 11962 H 1103.22 1.40549 -1.48547 0
M  V30 11963 H 1101.38 3.79125 -0.796425 0
M  V30 11964 H 1101.79 4.34347 -2.94012 0
M  V30 11965 H 1103.26 5.30494 -1.52579 0
M  V30 11966 H 1103.74 4.39093 -0.0968735 0
M  V30 11967 H 1104.35 3.90042 -1.69551 0
M  V30 11968 N 1102.66 0.908147 1.28804 0
M  V30 11969 C 1103.94 0.457561 1.90173 0
M  V30 11970 C 1104.32 -1.06333 1.82364 0
M  V30 11971 O 1103.67 -1.90892 1.25589 0
M  V30 11972 C 1103.88 0.981624 3.34911 0
M  V30 11973 C 1105.23 1.03037 4.11908 0
M  V30 11974 O 1106.25 0.929878 3.43848 0
M  V30 11975 O 1105.11 1.18257 5.33552 0
M  V30 11976 H 1102.2 0.144081 0.814352 0
M  V30 11977 H 1104.75 0.998565 1.37211 0
M  V30 11978 H 1103.52 2.02561 3.34791 0
M  V30 11979 H 1103.14 0.421122 3.95364 0
M  V30 11980 N 1104.14 -1.42577 0.671525 0
M  V30 11981 C 1105.37 -2.05625 0.20044 0
M  V30 11982 C 1105.78 -1.50524 -1.14626 0
M  V30 11983 O 1105.12 -0.638468 -1.72248 0
M  V30 11984 C 1105.18 -3.59459 0.0545385 0
M  V30 11985 C 1104.85 -4.37236 1.32943 0
M  V30 11986 C 1105.84 -4.68104 2.26219 0
M  V30 11987 C 1103.53 -4.76932 1.57612 0
M  V30 11988 C 1105.52 -5.37599 3.42442 0
M  V30 11989 C 1103.21 -5.46167 2.74125 0
M  V30 11990 C 1104.21 -5.76425 3.66364 0
M  V30 11991 O 1103.9 -6.44242 4.8084 0
M  V30 11992 H 1103.63 -0.66918 0.0957843 0
M  V30 11993 H 1106.18 -1.83759 0.917701 0
M  V30 11994 H 1104.41 -3.79971 -0.718271 0
M  V30 11995 H 1106.1 -4.04152 -0.376251 0
M  V30 11996 H 1106.87 -4.37939 2.08409 0
M  V30 11997 H 1102.75 -4.52776 0.866887 0
M  V30 11998 H 1106.29 -5.61133 4.14458 0
M  V30 11999 H 1102.19 -5.75749 2.91861 0
M  V30 12000 H 1102.96 -6.62732 4.80342 0
M  V30 12001 N 1105.62 -0.414636 -1.52048 0
M  V30 12002 C 1106.58 0.396285 -2.25748 0
M  V30 12003 C 1107.58 0.969003 -1.28324 0
M  V30 12004 O 1108.77 0.847016 -1.52221 0
M  V30 12005 C 1105.9 1.55838 -3.03195 0
M  V30 12006 H 1107.1 -0.249311 -2.98862 0
M  V30 12007 H 1104.65 -0.167276 -1.55402 0
M  V30 12008 H 1105.38 2.24068 -2.34444 0
M  V30 12009 H 1105.17 1.15414 -3.74729 0
M  V30 12010 H 1106.66 2.13187 -3.59084 0
M  V30 12011 N 1107.1 1.56929 -0.145233 0
M  V30 12012 C 1108.03 2.19685 0.791263 0
M  V30 12013 C 1109.01 1.14455 1.25833 0
M  V30 12014 O 1110.19 1.42791 1.31622 0
M  V30 12015 C 1107.32 2.81705 2.03124 0
M  V30 12016 C 1106.28 3.92746 1.70101 0
M  V30 12017 C 1105.6 4.41694 3.01347 0
M  V30 12018 C 1106.9 5.13606 0.949025 0
M  V30 12019 H 1108.6 2.98196 0.26825 0
M  V30 12020 H 1106.14 1.43434 0.127584 0
M  V30 12021 H 1108.1 3.24273 2.69119 0
M  V30 12022 H 1106.82 2.00523 2.57795 0
M  V30 12023 H 1105.48 3.50794 1.06486 0
M  V30 12024 H 1105.13 3.57336 3.54006 0
M  V30 12025 H 1104.83 5.1659 2.80016 0
M  V30 12026 H 1106.35 4.86931 3.68416 0
M  V30 12027 H 1107.76 5.53029 1.51102 0
M  V30 12028 H 1106.16 5.94252 0.835711 0
M  V30 12029 H 1107.23 4.84863 -0.0595631 0
M  V30 12030 N 1108.58 -0.128553 1.57075 0
M  V30 12031 C 1109.51 -1.15953 2.02675 0
M  V30 12032 C 1110.49 -1.43743 0.909501 0
M  V30 12033 O 1111.67 -1.54348 1.17857 0
M  V30 12034 C 1108.8 -2.48813 2.423 0
M  V30 12035 C 1107.76 -2.35506 3.57381 0
M  V30 12036 C 1107.08 -3.73243 3.82875 0
M  V30 12037 C 1108.38 -1.82359 4.89431 0
M  V30 12038 H 1110.08 -0.780283 2.89054 0
M  V30 12039 H 1107.62 -0.373896 1.39061 0
M  V30 12040 H 1109.57 -3.21179 2.72804 0
M  V30 12041 H 1108.3 -2.88609 1.52881 0
M  V30 12042 H 1106.96 -1.6559 3.27071 0
M  V30 12043 H 1106.61 -4.10507 2.90677 0
M  V30 12044 H 1106.31 -3.65195 4.60333 0
M  V30 12045 H 1107.83 -4.47128 4.15823 0
M  V30 12046 H 1109.24 -2.44533 5.18533 0
M  V30 12047 H 1107.64 -1.85156 5.70822 0
M  V30 12048 H 1108.71 -0.780478 4.78578 0
M  V30 12049 N 1110.05 -1.5248 -0.398459 0
M  V30 12050 C 1110.99 -1.71321 -1.50746 0
M  V30 12051 C 1111.96 -0.5609 -1.52619 0
M  V30 12052 O 1113.15 -0.789557 -1.71167 0
M  V30 12053 C 1110.28 -1.76223 -2.89246 0
M  V30 12054 C 1109.32 -2.97878 -3.05239 0
M  V30 12055 S 1110.15 -4.58031 -2.77431 0
M  V30 12056 C 1111.31 -4.65735 -4.18141 0
M  V30 12057 H 1111.54 -2.65117 -1.34538 0
M  V30 12058 H 1109.08 -1.42653 -0.590727 0
M  V30 12059 H 1111.03 -1.79733 -3.69062 0
M  V30 12060 H 1109.7 -0.83536 -3.02788 0
M  V30 12061 H 1108.89 -2.97821 -4.06594 0
M  V30 12062 H 1108.49 -2.92311 -2.33304 0
M  V30 12063 H 1110.78 -4.43768 -5.11934 0
M  V30 12064 H 1111.73 -5.67709 -4.23217 0
M  V30 12065 H 1112.13 -3.94664 -4.03609 0
M  V30 12066 N 1111.53 0.65634 -1.43283 0
M  V30 12067 C 1112.44 1.79847 -1.50639 0
M  V30 12068 C 1113.46 1.69487 -0.393714 0
M  V30 12069 O 1114.63 1.90712 -0.647379 0
M  V30 12070 C 1111.7 3.16107 -1.42398 0
M  V30 12071 C 1110.76 3.38287 -2.64312 0
M  V30 12072 C 1109.99 4.68046 -2.56454 0
M  V30 12073 O 1110.22 5.4719 -1.61056 0
M  V30 12074 O 1109.15 4.91877 -3.46902 0
M  V30 12075 H 1112.98 1.76596 -2.47078 0
M  V30 12076 H 1110.56 0.814428 -1.25249 0
M  V30 12077 H 1112.44 3.97382 -1.40233 0
M  V30 12078 H 1111.12 3.19956 -0.490929 0
M  V30 12079 H 1110.02 2.56788 -2.72049 0
M  V30 12080 H 1111.36 3.39282 -3.56579 0
M  V30 12081 N 1113.01 1.29761 0.894412 0
M  V30 12082 C 1114.23 1.21064 1.68399 0
M  V30 12083 C 1114.66 -0.224608 1.86754 0
M  V30 12084 O 1114.02 -1.16199 1.39167 0
M  V30 12085 C 1114.07 1.93468 3.04306 0
M  V30 12086 O 1113.17 1.25533 3.9283 0
M  V30 12087 H 1112.51 0.419223 0.514925 0
M  V30 12088 H 1115.04 1.71421 1.11696 0
M  V30 12089 H 1115.05 2.02127 3.54413 0
M  V30 12090 H 1113.73 2.97857 2.90265 0
M  V30 12091 H 1112.3 1.25168 3.51266 0
M  V30 12092 N 1114.49 -1.10549 1.12324 0
M  V30 12093 C 1115.72 -1.8627 0.900618 0
M  V30 12094 C 1116.13 -1.80609 -0.550069 0
M  V30 12095 O 1115.49 -1.19396 -1.38025 0
M  V30 12096 C 1115.54 -3.34716 1.36556 0
M  V30 12097 O 1115.26 -3.40279 2.75938 0
M  V30 12098 C 1116.76 -4.27315 1.17969 0
M  V30 12099 H 1113.98 -0.588741 0.321908 0
M  V30 12100 H 1116.52 -1.39759 1.49291 0
M  V30 12101 H 1114.68 -3.78697 0.81652 0
M  V30 12102 H 1115.09 -4.32781 2.96312 0
M  V30 12103 H 1116.57 -5.29677 1.55391 0
M  V30 12104 H 1117.04 -4.39036 0.120158 0
M  V30 12105 H 1117.65 -3.89137 1.71617 0
M  V30 12106 N 1115.97 -0.914965 -1.28321 0
M  V30 12107 C 1117.19 -0.564023 -1.99583 0
M  V30 12108 C 1117.62 0.847821 -1.6791 0
M  V30 12109 O 1116.97 1.56682 -0.912171 0
M  V30 12110 C 1117.02 -0.781368 -3.52033 0
M  V30 12111 O 1116.13 0.159072 -4.12093 0
M  V30 12112 H 1115.47 -0.218565 -0.626997 0
M  V30 12113 H 1118 -1.23074 -1.63444 0
M  V30 12114 H 1118.01 -0.691946 -4.0209 0
M  V30 12115 H 1116.68 -1.81059 -3.7442 0
M  V30 12116 H 1115.26 0.0208145 -3.72894 0
M  V30 12117 N 1117.44 1.42219 -0.679077 0
M  V30 12118 C 1118.69 2.00703 -0.200309 0
M  V30 12119 C 1119.01 1.54339 1.20161 0
M  V30 12120 O 1120.21 2.0527 1.77698 0
M  V30 12121 C 1118.67 3.58586 -0.307248 0
M  V30 12122 C 1118.28 4.13937 -1.71349 0
M  V30 12123 C 1120.02 4.24351 0.112588 0
M  V30 12124 C 1117.93 5.64198 -1.77297 0
M  V30 12125 H 1116.86 0.750638 -0.0711279 0
M  V30 12126 H 1119.51 1.62893 -0.844881 0
M  V30 12127 H 1117.89 3.93921 0.40529 0
M  V30 12128 H 1119.06 3.90054 -2.45346 0
M  V30 12129 H 1117.38 3.60639 -2.08155 0
M  V30 12130 H 1119.98 5.34627 0.0883578 0
M  V30 12131 H 1120.32 4.00142 1.14857 0
M  V30 12132 H 1120.85 3.93992 -0.549093 0
M  V30 12133 H 1117.59 5.93211 -2.78892 0
M  V30 12134 H 1117.11 5.90058 -1.07662 0
M  V30 12135 H 1118.79 6.2869 -1.52835 0
M  V30 12136 N 1118.92 0.422693 1.51826 0
M  V30 12137 C 1119.83 -0.40261 2.31119 0
M  V30 12138 C 1120.85 -1.04117 1.39412 0
M  V30 12139 O 1122.02 -1.03973 1.72486 0
M  V30 12140 C 1119.09 -1.49699 3.12716 0
M  V30 12141 C 1118.15 -0.880088 4.20182 0
M  V30 12142 C 1117.38 -1.92232 4.97878 0
M  V30 12143 O 1117.61 -3.14246 4.76031 0
M  V30 12144 O 1116.54 -1.521 5.82365 0
M  V30 12145 H 1120.37 0.244308 3.02716 0
M  V30 12146 H 1117.95 0.185569 1.48243 0
M  V30 12147 H 1119.83 -2.13202 3.63487 0
M  V30 12148 H 1118.51 -2.12826 2.43899 0
M  V30 12149 H 1117.41 -0.207404 3.73525 0
M  V30 12150 H 1118.75 -0.292535 4.9133 0
M  V30 12151 N 1120.4 -1.5685 0.153553 0
M  V30 12152 C 1121.63 -2.0041 -0.501949 0
M  V30 12153 C 1122.04 -1.03272 -1.58529 0
M  V30 12154 O 1121.38 -0.0227479 -1.83686 0
M  V30 12155 C 1121.44 -3.40402 -1.15613 0
M  V30 12156 C 1121.11 -4.56486 -0.216596 0
M  V30 12157 C 1122.1 -5.16894 0.558267 0
M  V30 12158 C 1119.79 -5.02162 -0.117592 0
M  V30 12159 C 1121.78 -6.21392 1.41951 0
M  V30 12160 C 1119.47 -6.06514 0.747255 0
M  V30 12161 C 1120.47 -6.65999 1.51441 0
M  V30 12162 O 1120.16 -7.6833 2.36483 0
M  V30 12163 H 1119.89 -0.66247 -0.134574 0
M  V30 12164 H 1122.44 -2.03908 0.247086 0
M  V30 12165 H 1120.67 -3.33762 -1.95294 0
M  V30 12166 H 1122.36 -3.68028 -1.71202 0
M  V30 12167 H 1123.13 -4.825 0.491851 0
M  V30 12168 H 1119.01 -4.55586 -0.704462 0
M  V30 12169 H 1122.55 -6.67751 2.01877 0
M  V30 12170 H 1118.45 -6.40335 0.81494 0
M  V30 12171 H 1119.21 -7.85578 2.29803 0
M  V30 12172 N 1121.88 0.120221 -1.57141 0
M  V30 12173 C 1123.12 0.829449 -1.85062 0
M  V30 12174 C 1123.46 1.79585 -0.739116 0
M  V30 12175 O 1122.73 1.92819 0.255147 0
M  V30 12176 C 1123.01 1.58042 -3.23566 0
M  V30 12177 C 1122.87 0.633706 -4.45314 0
M  V30 12178 C 1124.19 2.53688 -3.59625 0
M  V30 12179 H 1121.31 0.300086 -0.67314 0
M  V30 12180 H 1123.95 0.0937393 -1.89769 0
M  V30 12181 H 1122.1 2.20758 -3.19684 0
M  V30 12182 H 1123.77 0.0154836 -4.61297 0
M  V30 12183 H 1122.01 -0.054846 -4.33765 0
M  V30 12184 H 1122.68 1.19577 -5.38893 0
M  V30 12185 H 1125.16 2.01078 -3.6429 0
M  V30 12186 H 1124.04 3.03265 -4.57516 0
M  V30 12187 H 1124.3 3.36296 -2.8698 0
M  V30 12188 N 1123.36 1.52689 0.390367 0
M  V30 12189 C 1124.58 1.71541 1.15678 0
M  V30 12190 C 1125 0.433171 1.83764 0
M  V30 12191 O 1124.36 -0.592248 1.72623 0
M  V30 12192 C 1124.41 2.864 2.20584 0
M  V30 12193 O 1124.13 4.0966 1.55274 0
M  V30 12194 C 1125.63 3.1692 3.09962 0
M  V30 12195 H 1122.85 0.574381 0.346883 0
M  V30 12196 H 1125.39 1.99332 0.456851 0
M  V30 12197 H 1123.55 2.61075 2.86214 0
M  V30 12198 H 1123.96 4.73802 2.2497 0
M  V30 12199 H 1125.44 4.00755 3.79604 0
M  V30 12200 H 1125.91 2.31245 3.73393 0
M  V30 12201 H 1126.52 3.4408 2.49979 0
M  V30 12202 N 1124.83 -0.648732 1.43629 0
M  V30 12203 C 1125.77 -1.77417 1.45107 0
M  V30 12204 C 1126.78 -1.59067 0.346618 0
M  V30 12205 O 1127.97 -1.67705 0.611322 0
M  V30 12206 C 1125.07 -3.14906 1.25249 0
M  V30 12207 C 1124.24 -3.59874 2.48616 0
M  V30 12208 C 1123.3 -4.76181 2.23916 0
M  V30 12209 O 1122.33 -4.8539 2.97296 0
M  V30 12210 N 1123.53 -5.66691 1.25862 0
M  V30 12211 H 1126.29 -1.76626 2.42123 0
M  V30 12212 H 1123.85 -0.832725 1.38843 0
M  V30 12213 H 1125.85 -3.90408 1.06601 0
M  V30 12214 H 1124.42 -3.10443 0.366623 0
M  V30 12215 H 1123.64 -2.74768 2.82659 0
M  V30 12216 H 1124.92 -3.86665 3.30708 0
M  V30 12217 H 1124.32 -5.61927 0.652227 0
M  V30 12218 H 1122.88 -6.41895 1.13196 0
M  V30 12219 N 1126.31 -1.30234 -0.887518 0
M  V30 12220 C 1127.73 -1.0851 -1.17037 0
M  V30 12221 C 1127.93 0.155788 -2.00897 0
M  V30 12222 O 1126.98 0.850123 -2.37759 0
M  V30 12223 C 1128.3 -2.34723 -1.87951 0
M  V30 12224 C 1129.85 -2.40163 -2.00726 0
M  V30 12225 C 1130.32 -3.66211 -2.75051 0
M  V30 12226 N 1131.81 -3.67004 -2.82599 0
M  V30 12227 C 1132.55 -4.61224 -3.40676 0
M  V30 12228 N 1132.04 -5.65786 -3.99823 0
M  V30 12229 N 1133.84 -4.48772 -3.38467 0
M  V30 12230 H 1125.99 -2.09847 -0.328297 0
M  V30 12231 H 1128.25 -0.924904 -0.20798 0
M  V30 12232 H 1127.96 -3.25265 -1.33773 0
M  V30 12233 H 1127.83 -2.43175 -2.8835 0
M  V30 12234 H 1130.22 -1.50101 -2.54074 0
M  V30 12235 H 1130.3 -2.35688 -0.994218 0
M  V30 12236 H 1129.94 -4.56631 -2.22376 0
M  V30 12237 H 1129.87 -3.67947 -3.76726 0
M  V30 12238 H 1132.36 -2.91409 -2.40602 0
M  V30 12239 H 1132.68 -6.33783 -4.42197 0
M  V30 12240 H 1131.02 -5.69581 -3.9825 0
M  V30 12241 H 1134.21 -3.6627 -2.91485 0
M  V30 12242 H 1134.38 -5.22382 -3.83433 0
M  V30 12243 N 1127.79 1.09952 -1.12909 0
M  V30 12244 C 1128.74 2.18525 -0.796849 0
M  V30 12245 C 1129.73 1.67985 0.218483 0
M  V30 12246 O 1130.94 1.79839 0.07618 0
M  V30 12247 H 1127.31 0.712714 -0.239882 0
M  V30 12248 H 1129.28 2.43783 -1.72083 0
M  V30 12249 C 1128.03 3.46625 -0.273237 0
M  V30 12250 H 1127.36 3.85879 -1.04582 0
M  V30 12251 H 1128.8 4.23926 -0.0791355 0
M  V30 12252 C 1127.26 3.2172 0.999903 0
M  V30 12253 O 1127.79 3.43851 2.07676 0
M  V30 12254 N 1125.99 2.75356 0.928833 0
M  V30 12255 H 1125.54 2.57547 0.052379 0
M  V30 12256 H 1125.5 2.5907 1.78129 0
M  V30 12257 N 1129.27 0.921757 1.27833 0
M  V30 12258 C 1130.51 0.566288 1.96399 0
M  V30 12259 C 1130.87 -0.875149 1.70895 0
M  V30 12260 O 1132.07 -1.3386 2.33099 0
M  V30 12261 C 1130.34 0.876329 3.4649 0
M  V30 12262 S 1131.9 0.628481 4.34276 0
M  V30 12263 H 1128.72 0.209246 0.679512 0
M  V30 12264 H 1131.32 1.18892 1.55193 0
M  V30 12265 H 1130.03 1.92319 3.62549 0
M  V30 12266 H 1129.56 0.242658 3.92651 0
M  V30 12267 H 1131.57 -0.516493 4.93505 0
M  V30 12268 N 1130.75 -1.41857 0.686609 0
M  V30 12269 C 1131.69 -2.326 0.0041351 0
M  V30 12270 C 1132.69 -1.50474 -0.778077 0
M  V30 12271 O 1133.89 -1.66468 -0.684709 0
M  V30 12272 H 1130.27 -0.751797 -0.0174615 0
M  V30 12273 H 1132.24 -2.87844 0.786656 0
M  V30 12274 C 1130.99 -3.35175 -0.924819 0
M  V30 12275 H 1130.31 -3.98416 -0.332339 0
M  V30 12276 H 1131.75 -4.01229 -1.37082 0
M  V30 12277 C 1130.21 -2.68359 -2.03679 0
M  V30 12278 O 1130.74 -2.52453 -3.12459 0
M  V30 12279 N 1128.95 -2.27196 -1.81192 0
M  V30 12280 H 1128.49 -2.40333 -0.92725 0
M  V30 12281 H 1128.45 -1.82824 -2.55778 0
M  V30 12282 N 1132.22 -0.430739 -1.51599 0
M  V30 12283 C 1133.15 0.374695 -2.30474 0
M  V30 12284 C 1134.14 1.02694 -1.35602 0
M  V30 12285 O 1135.32 1.03184 -1.6452 0
M  V30 12286 C 1132.45 1.47981 -3.14196 0
M  V30 12287 C 1131.4 0.951415 -4.17291 0
M  V30 12288 C 1130.73 2.15177 -4.89492 0
M  V30 12289 C 1132.03 -0.00957951 -5.22299 0
M  V30 12290 H 1133.72 -0.283508 -2.98055 0
M  V30 12291 H 1131.27 -0.13779 -1.43339 0
M  V30 12292 H 1133.22 2.05043 -3.68151 0
M  V30 12293 H 1131.95 2.16621 -2.44424 0
M  V30 12294 H 1130.61 0.403052 -3.64378 0
M  V30 12295 H 1130.25 2.82421 -4.1623 0
M  V30 12296 H 1129.95 1.80464 -5.59202 0
M  V30 12297 H 1131.48 2.72806 -5.46269 0
M  V30 12298 H 1132.89 0.470527 -5.71366 0
M  V30 12299 H 1131.29 -0.268959 -5.99497 0
M  V30 12300 H 1132.36 -0.948297 -4.75537 0
M  V30 12301 N 1133.7 1.56767 -0.161869 0
M  V30 12302 C 1134.93 2.00964 0.492027 0
M  V30 12303 C 1135.35 1.04206 1.57437 0
M  V30 12304 O 1134.7 0.0413998 1.82453 0
M  V30 12305 C 1134.75 3.4502 1.07904 0
M  V30 12306 O 1134.47 4.38082 0.0399085 0
M  V30 12307 C 1135.98 4.04572 1.81209 0
M  V30 12308 H 1133.2 0.658911 0.126797 0
M  V30 12309 H 1135.74 2.0283 -0.260824 0
M  V30 12310 H 1133.89 3.43959 1.78243 0
M  V30 12311 H 1134.31 5.22372 0.471985 0
M  V30 12312 H 1135.78 5.07321 2.17554 0
M  V30 12313 H 1136.26 3.46126 2.70359 0
M  V30 12314 H 1136.87 4.09307 1.15534 0
M  V30 12315 N 1135.18 -0.111886 1.57202 0
M  V30 12316 C 1136.11 -1.16274 1.97517 0
M  V30 12317 C 1137.13 -1.37259 0.875425 0
M  V30 12318 O 1138.31 -1.36208 1.15367 0
M  V30 12319 C 1135.41 -2.52145 2.26442 0
M  V30 12320 C 1134.59 -2.51666 3.57747 0
M  V30 12321 C 1133.65 -3.69337 3.74802 0
M  V30 12322 O 1132.67 -3.52596 4.46839 0
M  V30 12323 N 1133.87 -4.88177 3.14108 0
M  V30 12324 H 1136.64 -0.819747 2.88271 0
M  V30 12325 H 1134.2 -0.301076 1.59076 0
M  V30 12326 H 1136.19 -3.29437 2.3506 0
M  V30 12327 H 1134.76 -2.78599 1.41779 0
M  V30 12328 H 1133.98 -1.60038 3.60252 0
M  V30 12329 H 1135.27 -2.48408 4.44039 0
M  V30 12330 H 1134.67 -5.04682 2.55564 0
M  V30 12331 H 1133.23 -5.6312 3.28237 0
M  V30 12332 N 1136.66 -1.52894 -0.382264 0
M  V30 12333 C 1137.91 -1.67489 -1.12385 0
M  V30 12334 C 1138.22 -0.424565 -1.90937 0
M  V30 12335 O 1139.43 -0.450763 -2.67732 0
M  V30 12336 C 1137.88 -2.96019 -2.04697 0
M  V30 12337 C 1137.49 -4.28255 -1.31535 0
M  V30 12338 C 1139.23 -3.19981 -2.78949 0
M  V30 12339 C 1137.14 -5.47887 -2.22652 0
M  V30 12340 H 1136.07 -0.624002 -0.423246 0
M  V30 12341 H 1138.72 -1.79392 -0.386107 0
M  V30 12342 H 1137.1 -2.77878 -2.82134 0
M  V30 12343 H 1138.28 -4.56971 -0.592771 0
M  V30 12344 H 1136.59 -4.10607 -0.692148 0
M  V30 12345 H 1139.19 -4.06541 -3.47316 0
M  V30 12346 H 1139.53 -2.35335 -3.43399 0
M  V30 12347 H 1140.07 -3.38718 -2.08602 0
M  V30 12348 H 1136.81 -6.3496 -1.62806 0
M  V30 12349 H 1136.33 -5.23473 -2.92807 0
M  V30 12350 H 1138 -5.82026 -2.82586 0
M  V30 12351 N 1138.14 0.641106 -1.43971 0
M  V30 12352 C 1139.39 1.39807 -1.4594 0
M  V30 12353 C 1139.71 1.94795 -0.0893874 0
M  V30 12354 O 1138.98 1.75175 0.876962 0
M  V30 12355 H 1137.56 0.518908 -0.537349 0
M  V30 12356 H 1140.22 0.755278 -1.79671 0
M  V30 12357 H 1139.31 2.23439 -2.17903 0
M  V30 12358 N 1139.62 1.30703 0.880598 0
M  V30 12359 C 1140.86 1.19541 1.62955 0
M  V30 12360 C 1141.18 -0.249089 1.93403 0
M  V30 12361 O 1140.45 -1.1669 1.57354 0
M  V30 12362 H 1139.03 0.439434 0.604075 0
M  V30 12363 H 1141.7 1.63888 1.05483 0
M  V30 12364 H 1140.79 1.75945 2.57779 0
M  V30 12365 N 1141.09 -1.09351 1.1349 0
M  V30 12366 C 1142.02 -2.18037 0.835588 0
M  V30 12367 C 1143 -1.68856 -0.205373 0
M  V30 12368 O 1144.19 -1.94094 -0.0641357 0
M  V30 12369 C 1141.32 -3.45987 0.301661 0
M  V30 12370 C 1140.27 -4.08507 1.27696 0
M  V30 12371 C 1139.6 -5.31292 0.602758 0
M  V30 12372 C 1140.9 -4.50916 2.63575 0
M  V30 12373 H 1142.59 -2.43332 1.74441 0
M  V30 12374 H 1140.14 -1.1695 0.840166 0
M  V30 12375 H 1142.09 -4.21324 0.079928 0
M  V30 12376 H 1140.82 -3.20217 -0.642552 0
M  V30 12377 H 1139.48 -3.3519 1.4847 0
M  V30 12378 H 1139.12 -5.01802 -0.346953 0
M  V30 12379 H 1138.82 -5.74075 1.25345 0
M  V30 12380 H 1140.35 -6.09351 0.390325 0
M  V30 12381 H 1141.76 -5.17474 2.46765 0
M  V30 12382 H 1140.16 -5.04586 3.24827 0
M  V30 12383 H 1141.23 -3.63279 3.2118 0
M  V30 12384 N 1142.57 -0.928524 -1.27343 0
M  V30 12385 C 1143.82 -0.565207 -1.93619 0
M  V30 12386 C 1144.13 0.897988 -1.73769 0
M  V30 12387 O 1145.34 1.37012 -2.34393 0
M  V30 12388 C 1143.8 -0.960052 -3.46859 0
M  V30 12389 C 1143.4 -2.44399 -3.75464 0
M  V30 12390 C 1145.15 -0.668026 -4.19211 0
M  V30 12391 C 1143.05 -2.77819 -5.22083 0
M  V30 12392 H 1141.98 -0.207665 -0.724839 0
M  V30 12393 H 1144.64 -1.12945 -1.44623 0
M  V30 12394 H 1143.02 -0.324454 -3.94669 0
M  V30 12395 H 1144.19 -3.12756 -3.38408 0
M  V30 12396 H 1142.51 -2.70799 -3.16317 0
M  V30 12397 H 1145.1 -0.894207 -5.2717 0
M  V30 12398 H 1145.45 0.394788 -4.14424 0
M  V30 12399 H 1145.98 -1.26276 -3.77226 0
M  V30 12400 H 1142.72 -3.83013 -5.3196 0
M  V30 12401 H 1142.24 -2.14112 -5.60282 0
M  V30 12402 H 1143.92 -2.65607 -5.89968 0
M  V30 12403 N 1144.05 1.41491 -0.694123 0
M  V30 12404 C 1145.33 1.95004 -0.152571 0
M  V30 12405 C 1145.71 1.63357 1.33707 0
M  V30 12406 O 1145.05 0.939815 2.08278 0
M  V30 12407 C 1145.26 3.46186 -0.44232 0
M  V30 12408 C 1146.61 4.22991 -0.369279 0
M  V30 12409 O 1147.64 3.54198 -0.377152 0
M  V30 12410 O 1146.5 5.45514 -0.328145 0
M  V30 12411 H 1143.59 0.826879 -0.0141253 0
M  V30 12412 H 1146.14 1.51216 -0.770183 0
M  V30 12413 H 1144.91 3.62497 -1.47348 0
M  V30 12414 H 1144.53 3.97064 0.206337 0
M  V30 12415 N 1145.53 0.438773 1.51369 0
M  V30 12416 C 1146.75 -0.128221 2.07003 0
M  V30 12417 C 1147.18 -1.3557 1.30393 0
M  V30 12418 O 1146.54 -1.7804 0.342283 0
M  V30 12419 C 1146.58 -0.42761 3.58056 0
M  V30 12420 O 1145.69 -1.51382 3.83611 0
M  V30 12421 H 1145.03 -0.00123679 0.663999 0
M  V30 12422 H 1147.56 0.62052 1.94963 0
M  V30 12423 H 1147.57 -0.677645 4.02333 0
M  V30 12424 H 1146.24 0.469535 4.13241 0
M  V30 12425 H 1144.82 -1.25363 3.51196 0
M  V30 12426 N 1147.01 -1.56678 0.170181 0
M  V30 12427 C 1147.95 -2.17909 -0.760556 0
M  V30 12428 C 1148.92 -1.11875 -1.22773 0
M  V30 12429 O 1150.11 -1.40021 -1.2961 0
M  V30 12430 C 1147.25 -2.82305 -1.9849 0
M  V30 12431 C 1146.36 -4.02796 -1.5614 0
M  V30 12432 C 1145.5 -4.55121 -2.73932 0
M  V30 12433 C 1144.53 -5.68025 -2.28067 0
M  V30 12434 N 1143.67 -6.14865 -3.38947 0
M  V30 12435 H 1148.51 -2.97098 -0.231629 0
M  V30 12436 H 1146.05 -1.46742 -0.102602 0
M  V30 12437 H 1148.01 -3.17797 -2.70298 0
M  V30 12438 H 1146.64 -2.05721 -2.48755 0
M  V30 12439 H 1145.69 -3.73131 -0.740097 0
M  V30 12440 H 1147 -4.84526 -1.18472 0
M  V30 12441 H 1146.15 -4.92789 -3.53898 0
M  V30 12442 H 1144.89 -3.72445 -3.14858 0
M  V30 12443 H 1143.9 -5.2991 -1.46546 0
M  V30 12444 H 1145.12 -6.52501 -1.88199 0
M  V30 12445 H 1143.07 -5.35119 -3.79452 0
M  V30 12446 H 1142.99 -6.91582 -3.05369 0
M  V30 12447 H 1144.25 -6.57183 -4.19203 0
M  V30 12448 N 1148.48 0.103547 -1.57259 0
M  V30 12449 C 1149.73 0.806979 -1.8529 0
M  V30 12450 C 1150.05 1.79679 -0.757653 0
M  V30 12451 O 1149.32 1.94695 0.216913 0
M  V30 12452 H 1147.9 0.301012 -0.683667 0
M  V30 12453 H 1150.56 0.0871886 -1.94705 0
M  V30 12454 H 1149.66 1.34275 -2.81738 0
M  V30 12455 N 1149.96 1.53094 0.37415 0
M  V30 12456 C 1151.19 1.72508 1.13687 0
M  V30 12457 C 1151.6 0.449922 1.83773 0
M  V30 12458 O 1150.94 -0.586391 1.74089 0
M  V30 12459 C 1151 2.82965 2.21746 0
M  V30 12460 C 1150.67 4.23599 1.71501 0
M  V30 12461 C 1151.67 5.06245 1.1837 0
M  V30 12462 C 1149.35 4.69978 1.77273 0
M  V30 12463 C 1151.34 6.33357 0.71679 0
M  V30 12464 C 1149.03 5.9707 1.30194 0
M  V30 12465 C 1150.03 6.7859 0.774856 0
M  V30 12466 O 1149.72 8.03298 0.310981 0
M  V30 12467 H 1149.45 0.580611 0.346218 0
M  V30 12468 H 1152 2.00596 0.441614 0
M  V30 12469 H 1150.23 2.5033 2.9474 0
M  V30 12470 H 1151.92 2.90638 2.83345 0
M  V30 12471 H 1152.69 4.71591 1.13256 0
M  V30 12472 H 1148.57 4.06605 2.17241 0
M  V30 12473 H 1152.11 6.96934 0.30471 0
M  V30 12474 H 1148.01 6.31225 1.34999 0
M  V30 12475 H 1148.78 8.17364 0.431098 0
M  V30 12476 N 1151.44 -0.633461 1.44309 0
M  V30 12477 C 1152.69 -1.39031 1.46679 0
M  V30 12478 C 1153.01 -1.94745 0.0997165 0
M  V30 12479 O 1152.28 -1.75637 -0.867659 0
M  V30 12480 H 1150.86 -0.516051 0.540093 0
M  V30 12481 H 1153.52 -0.745739 1.80069 0
M  V30 12482 H 1152.62 -2.2228 2.19085 0
M  V30 12483 N 1152.92 -1.31168 -0.873655 0
M  V30 12484 C 1154.16 -1.20821 -1.62881 0
M  V30 12485 C 1154.5 0.233994 -1.92785 0
M  V30 12486 O 1153.77 1.16588 -1.55684 0
M  V30 12487 C 1154.06 -2.04875 -2.96139 0
M  V30 12488 C 1153.91 -3.57375 -2.73136 0
M  V30 12489 C 1155.23 -1.8953 -3.97198 0
M  V30 12490 H 1152.35 -0.44026 -0.59105 0
M  V30 12491 H 1154.99 -1.6092 -1.01019 0
M  V30 12492 H 1153.14 -1.70806 -3.48938 0
M  V30 12493 H 1154.81 -4.01561 -2.27038 0
M  V30 12494 H 1153.05 -3.8099 -2.07434 0
M  V30 12495 H 1153.72 -4.1149 -3.6794 0
M  V30 12496 H 1156.2 -2.19337 -3.53596 0
M  V30 12497 H 1155.08 -2.5065 -4.8833 0
M  V30 12498 H 1155.34 -0.857576 -4.33703 0
M  V30 12499 N 1154.4 1.08748 -1.14068 0
M  V30 12500 C 1155.64 1.80707 -0.904947 0
M  V30 12501 C 1155.97 1.86478 0.570167 0
M  V30 12502 O 1155.24 1.35536 1.41445 0
M  V30 12503 H 1153.82 0.669261 -0.331811 0
M  V30 12504 H 1156.48 1.31494 -1.43859 0
M  V30 12505 H 1155.57 2.83653 -1.30182 0
M  V30 12506 N 1155.87 0.935264 1.26849 0
M  V30 12507 C 1157.1 0.596249 1.98122 0
M  V30 12508 C 1157.52 -0.827452 1.69702 0
M  V30 12509 O 1156.87 -1.55095 0.961864 0
M  V30 12510 C 1156.93 0.821773 3.52036 0
M  V30 12511 O 1156.65 2.18947 3.79465 0
M  V30 12512 C 1158.15 0.492498 4.40556 0
M  V30 12513 H 1155.37 0.225242 0.632066 0
M  V30 12514 H 1157.91 1.25435 1.61512 0
M  V30 12515 H 1156.07 0.210363 3.86828 0
M  V30 12516 H 1156.48 2.24509 4.74021 0
M  V30 12517 H 1157.95 0.700953 5.47531 0
M  V30 12518 H 1158.43 -0.57228 4.35456 0
M  V30 12519 H 1159.04 1.08238 4.11296 0
M  V30 12520 N 1157.35 -1.41121 0.701616 0
M  V30 12521 C 1158.76 -1.84122 0.309208 0
M  V30 12522 C 1159.11 -1.58695 -1.15371 0
M  V30 12523 O 1158.24 -1.06053 -1.88631 0
M  V30 12524 C 1158.83 -3.34233 0.554429 0
M  V30 12525 C 1157.39 -3.7578 0.215876 0
M  V30 12526 C 1156.54 -2.6447 0.833729 0
M  V30 12527 H 1159.49 -1.30587 0.901822 0
M  V30 12528 H 1159.51 -3.8005 -0.18491 0
M  V30 12529 H 1159.02 -3.52707 1.61923 0
M  V30 12530 H 1157.13 -3.62905 -0.844421 0
M  V30 12531 H 1157.24 -4.74319 0.675118 0
M  V30 12532 H 1155.6 -2.5334 0.262851 0
M  V30 12533 H 1156.39 -2.85761 1.90252 0
M  V30 12534 N 1158.83 -0.446794 -1.51134 0
M  V30 12535 C 1160.08 0.118047 -2.01354 0
M  V30 12536 C 1160.39 1.42953 -1.33505 0
M  V30 12537 O 1161.6 2.07788 -1.74747 0
M  V30 12538 C 1160.05 0.260912 -3.58953 0
M  V30 12539 C 1159.66 -1.0407 -4.35745 0
M  V30 12540 C 1161.41 0.779014 -4.17291 0
M  V30 12541 C 1159.31 -0.862958 -5.8507 0
M  V30 12542 H 1158.24 0.0478915 -0.752478 0
M  V30 12543 H 1160.89 -0.577997 -1.74159 0
M  V30 12544 H 1159.28 1.02018 -3.82633 0
M  V30 12545 H 1160.45 -1.80903 -4.23805 0
M  V30 12546 H 1158.77 -1.48805 -3.88904 0
M  V30 12547 H 1161.36 0.928636 -5.26574 0
M  V30 12548 H 1161.71 1.76399 -3.7708 0
M  V30 12549 H 1162.24 0.0778022 -3.97724 0
M  V30 12550 H 1158.98 -1.82059 -6.2971 0
M  V30 12551 H 1158.5 -0.134588 -5.99649 0
M  V30 12552 H 1160.18 -0.51989 -6.44908 0
M  V30 12553 N 1160.31 1.56586 -0.178487 0
M  V30 12554 C 1161.56 1.96709 0.4637 0
M  V30 12555 C 1161.88 1.06586 1.63292 0
M  V30 12556 O 1161.15 0.133683 1.95443 0
M  V30 12557 H 1159.73 0.726381 0.174299 0
M  V30 12558 H 1162.39 1.9314 -0.261345 0
M  V30 12559 H 1161.49 3.01164 0.818934 0
M  V30 12560 N 1161.79 -0.095206 1.57312 0
M  V30 12561 C 1163.01 -0.81614 1.90667 0
M  V30 12562 C 1163.44 -1.71494 0.772746 0
M  V30 12563 O 1162.79 -1.79192 -0.275682 0
M  V30 12564 C 1162.84 -1.60555 3.22885 0
M  V30 12565 O 1161.95 -2.71448 3.10467 0
M  V30 12566 H 1161.29 -0.224217 0.624998 0
M  V30 12567 H 1163.82 -0.070464 2.04479 0
M  V30 12568 H 1163.83 -1.98979 3.5619 0
M  V30 12569 H 1162.5 -0.945918 4.05 0
M  V30 12570 H 1161.08 -2.36053 2.88675 0
M  V30 12571 N 1163.26 -1.53291 -0.366026 0
M  V30 12572 C 1164.68 -1.61144 -0.942849 0
M  V30 12573 C 1165.03 -0.478571 -1.90274 0
M  V30 12574 O 1164.15 0.395069 -2.12763 0
M  V30 12575 C 1164.75 -2.92081 -1.71681 0
M  V30 12576 C 1163.31 -3.0227 -2.24298 0
M  V30 12577 C 1162.45 -2.56436 -1.05526 0
M  V30 12578 H 1165.4 -1.58038 -0.144835 0
M  V30 12579 H 1165.42 -2.79858 -2.57798 0
M  V30 12580 H 1164.94 -3.74513 -1.01793 0
M  V30 12581 H 1163.04 -2.24425 -2.97429 0
M  V30 12582 H 1163.15 -4.07341 -2.5221 0
M  V30 12583 H 1161.51 -2.11301 -1.42211 0
M  V30 12584 H 1162.3 -3.41285 -0.371376 0
M  V30 12585 N 1164.74 0.6258 -1.44643 0
M  V30 12586 C 1165.97 1.41028 -1.50979 0
M  V30 12587 C 1166.38 1.88717 -0.135092 0
M  V30 12588 O 1165.72 1.61778 0.870268 0
M  V30 12589 C 1165.79 2.66094 -2.41732 0
M  V30 12590 C 1165.45 2.40166 -3.88805 0
M  V30 12591 C 1166.45 2.01661 -4.79196 0
M  V30 12592 C 1164.13 2.53641 -4.33557 0
M  V30 12593 C 1166.13 1.76966 -6.12341 0
M  V30 12594 C 1163.81 2.2856 -5.66748 0
M  V30 12595 C 1164.81 1.90282 -6.55959 0
M  V30 12596 O 1164.5 1.65484 -7.86683 0
M  V30 12597 H 1164.23 0.438757 -0.514265 0
M  V30 12598 H 1166.78 0.772034 -1.90339 0
M  V30 12599 H 1165.01 3.32575 -1.97309 0
M  V30 12600 H 1166.7 3.28107 -2.38957 0
M  V30 12601 H 1167.47 1.90802 -4.45892 0
M  V30 12602 H 1163.35 2.82404 -3.64375 0
M  V30 12603 H 1166.89 1.47014 -6.81933 0
M  V30 12604 H 1162.79 2.3903 -5.99612 0
M  V30 12605 H 1163.56 1.79686 -7.98533 0
M  V30 12606 N 1166.22 1.31629 0.866686 0
M  V30 12607 C 1167.64 1.10358 1.15296 0
M  V30 12608 C 1167.84 -0.123807 2.01119 0
M  V30 12609 O 1166.89 -0.81219 2.39081 0
M  V30 12610 C 1168.21 2.37684 1.84193 0
M  V30 12611 C 1169.75 2.43326 1.9688 0
M  V30 12612 C 1170.23 3.70541 2.69191 0
M  V30 12613 N 1171.72 3.71454 2.76724 0
M  V30 12614 C 1172.45 4.66585 3.33295 0
M  V30 12615 N 1171.95 5.72075 3.90771 0
M  V30 12616 N 1173.74 4.541 3.31284 0
M  V30 12617 H 1165.89 2.10343 0.29487 0
M  V30 12618 H 1168.16 0.928096 0.193239 0
M  V30 12619 H 1167.86 3.27352 1.28582 0
M  V30 12620 H 1167.74 2.47731 2.84445 0
M  V30 12621 H 1170.12 1.54124 2.51654 0
M  V30 12622 H 1170.21 2.3724 0.956596 0
M  V30 12623 H 1169.85 4.60111 2.15083 0
M  V30 12624 H 1169.78 3.73894 3.70825 0
M  V30 12625 H 1172.27 2.952 2.35936 0
M  V30 12626 H 1172.58 6.40738 4.32058 0
M  V30 12627 H 1170.93 5.75844 3.89138 0
M  V30 12628 H 1174.12 3.70861 2.85622 0
M  V30 12629 H 1174.29 5.28416 3.75074 0
M  V30 12630 N 1167.7 -1.08142 1.14644 0
M  V30 12631 C 1168.98 -1.77254 0.827071 0
M  V30 12632 C 1169.36 -1.99885 -0.67891 0
M  V30 12633 O 1168.7 -1.61084 -1.62062 0
M  V30 12634 C 1168.91 -3.08658 1.62884 0
M  V30 12635 C 1170.26 -3.83143 1.82993 0
M  V30 12636 O 1171.29 -3.18447 1.59593 0
M  V30 12637 O 1170.15 -4.9932 2.2213 0
M  V30 12638 H 1167.24 -0.769356 0.30335 0
M  V30 12639 H 1169.79 -1.1458 1.25178 0
M  V30 12640 H 1168.56 -2.87753 2.65168 0
M  V30 12641 H 1168.18 -3.79061 1.19994 0
M  V30 12642 N 1169.18 -0.941978 -1.26351 0
M  V30 12643 C 1170.12 -0.450906 -2.26353 0
M  V30 12644 C 1171.09 0.489857 -1.58712 0
M  V30 12645 O 1172.28 0.40589 -1.86433 0
M  V30 12646 C 1169.42 0.277054 -3.43986 0
M  V30 12647 C 1168.53 -0.699474 -4.263 0
M  V30 12648 C 1167.67 0.0497661 -5.31177 0
M  V30 12649 C 1166.71 -0.918531 -6.05169 0
M  V30 12650 N 1165.84 -0.200993 -7.01812 0
M  V30 12651 H 1170.68 -1.30861 -2.6773 0
M  V30 12652 H 1168.22 -0.656514 -1.31637 0
M  V30 12653 H 1170.18 0.715567 -4.11018 0
M  V30 12654 H 1168.81 1.09889 -3.0352 0
M  V30 12655 H 1167.86 -1.2565 -3.59049 0
M  V30 12656 H 1169.17 -1.4389 -4.77595 0
M  V30 12657 H 1168.33 0.547521 -6.04224 0
M  V30 12658 H 1167.07 0.822068 -4.80722 0
M  V30 12659 H 1166.07 -1.4274 -5.30947 0
M  V30 12660 H 1167.3 -1.69085 -6.57713 0
M  V30 12661 H 1165.24 0.552803 -6.53667 0
M  V30 12662 H 1165.16 -0.879735 -7.50864 0
M  V30 12663 H 1166.43 0.275642 -7.79012 0
M  V30 12664 N 1170.66 1.40747 -0.709091 0
M  V30 12665 C 1171.9 2.00233 -0.242836 0
M  V30 12666 C 1172.22 1.56853 1.1686 0
M  V30 12667 O 1173.42 2.08993 1.73304 0
M  V30 12668 C 1171.88 3.57854 -0.383241 0
M  V30 12669 C 1171.49 4.10209 -1.80091 0
M  V30 12670 C 1173.23 4.24494 0.0225511 0
M  V30 12671 C 1171.14 5.60311 -1.89225 0
M  V30 12672 H 1170.07 0.74896 -0.087034 0
M  V30 12673 H 1172.72 1.61064 -0.879243 0
M  V30 12674 H 1171.1 3.94692 0.321642 0
M  V30 12675 H 1172.28 3.84762 -2.53564 0
M  V30 12676 H 1170.59 3.56142 -2.15758 0
M  V30 12677 H 1173.19 5.34694 -0.0250644 0
M  V30 12678 H 1173.53 4.02488 1.06344 0
M  V30 12679 H 1174.06 3.92739 -0.632541 0
M  V30 12680 H 1170.8 5.87162 -2.91412 0
M  V30 12681 H 1170.32 5.87642 -1.20154 0
M  V30 12682 H 1172 6.25306 -1.66136 0
M  V30 12683 N 1172.13 0.454803 1.50895 0
M  V30 12684 C 1173.36 -0.103936 2.06639 0
M  V30 12685 C 1173.78 -1.34943 1.32044 0
M  V30 12686 O 1173.13 -1.78393 0.384972 0
M  V30 12687 C 1173.18 -0.408546 3.59184 0
M  V30 12688 O 1172.91 0.787535 4.30963 0
M  V30 12689 C 1174.41 -1.01605 4.31499 0
M  V30 12690 H 1171.63 -0.000171839 0.671 0
M  V30 12691 H 1174.17 0.638907 1.94263 0
M  V30 12692 H 1172.33 -1.1013 3.71416 0
M  V30 12693 H 1172.74 0.52229 5.21893 0
M  V30 12694 H 1174.21 -1.17906 5.39261 0
M  V30 12695 H 1174.69 -2.00182 3.90927 0
M  V30 12696 H 1175.3 -0.362155 4.23755 0
M  V30 12697 N 1173.61 -1.56489 0.186789 0
M  V30 12698 C 1174.86 -1.96517 -0.45433 0
M  V30 12699 C 1175.17 -1.07618 -1.63333 0
M  V30 12700 O 1176.38 -1.37392 -2.3417 0
M  V30 12701 C 1174.84 -3.49482 -0.859685 0
M  V30 12702 C 1174.44 -4.47031 0.294572 0
M  V30 12703 C 1176.19 -3.98296 -1.46835 0
M  V30 12704 C 1174.09 -5.91254 -0.131279 0
M  V30 12705 H 1173.02 -0.733765 -0.17351 0
M  V30 12706 H 1175.68 -1.8139 0.277485 0
M  V30 12707 H 1174.06 -3.60082 -1.64793 0
M  V30 12708 H 1175.23 -4.48156 1.07205 0
M  V30 12709 H 1173.55 -4.08362 0.814197 0
M  V30 12710 H 1176.14 -5.03518 -1.79928 0
M  V30 12711 H 1176.49 -3.42123 -2.37186 0
M  V30 12712 H 1177.02 -3.90776 -0.744247 0
M  V30 12713 H 1173.76 -6.51334 0.737839 0
M  V30 12714 H 1173.28 -5.93401 -0.873786 0
M  V30 12715 H 1174.96 -6.44485 -0.569913 0
M  V30 12716 N 1175.09 0.086862 -1.5736 0
M  V30 12717 C 1176.05 1.08906 -2.01673 0
M  V30 12718 C 1177.05 1.32473 -0.911463 0
M  V30 12719 O 1178.24 1.28447 -1.17673 0
M  V30 12720 C 1175.37 2.43629 -2.38449 0
M  V30 12721 H 1176.57 0.707461 -2.91436 0
M  V30 12722 H 1174.12 0.332154 -1.5273 0
M  V30 12723 H 1174.86 2.8665 -1.51665 0
M  V30 12724 H 1174.64 2.2787 -3.19089 0
M  V30 12725 H 1176.13 3.15695 -2.73361 0
M  V30 12726 N 1176.57 1.53483 0.357892 0
M  V30 12727 C 1177.82 1.69256 1.09706 0
M  V30 12728 C 1178.13 0.454888 1.90237 0
M  V30 12729 O 1179.34 0.4933 2.66981 0
M  V30 12730 C 1177.79 2.99238 1.99961 0
M  V30 12731 C 1177.4 4.30293 1.24706 0
M  V30 12732 C 1179.14 3.24378 2.73823 0
M  V30 12733 C 1177.05 5.5136 2.13907 0
M  V30 12734 H 1175.98 0.630657 0.413265 0
M  V30 12735 H 1178.63 1.79983 0.357518 0
M  V30 12736 H 1177.01 2.82332 2.77677 0
M  V30 12737 H 1178.19 4.57857 0.519995 0
M  V30 12738 H 1176.5 4.11656 0.626736 0
M  V30 12739 H 1179.1 4.12015 3.40805 0
M  V30 12740 H 1179.44 2.40769 3.39612 0
M  V30 12741 H 1179.98 3.41994 2.03187 0
M  V30 12742 H 1176.71 6.3747 1.52684 0
M  V30 12743 H 1176.23 5.28065 2.84442 0
M  V30 12744 H 1177.91 5.86448 2.7329 0
M  V30 12745 N 1178.05 -0.61812 1.44973 0
M  V30 12746 C 1178.98 -1.74035 1.55673 0
M  V30 12747 C 1179.96 -1.65112 0.4089 0
M  V30 12748 O 1181.14 -1.83673 0.630698 0
M  V30 12749 C 1178.27 -3.1261 1.51303 0
M  V30 12750 C 1177.23 -3.36334 2.64696 0
M  V30 12751 C 1176.55 -4.75072 2.45378 0
M  V30 12752 C 1177.85 -3.27618 4.06772 0
M  V30 12753 H 1179.55 -1.65336 2.49608 0
M  V30 12754 H 1177.09 -0.794003 1.20132 0
M  V30 12755 H 1179.04 -3.90906 1.57388 0
M  V30 12756 H 1177.77 -3.22123 0.538914 0
M  V30 12757 H 1176.43 -2.60423 2.58022 0
M  V30 12758 H 1176.08 -4.81306 1.46129 0
M  V30 12759 H 1175.78 -4.91903 3.21412 0
M  V30 12760 H 1177.3 -5.55582 2.53301 0
M  V30 12761 H 1178.71 -3.95802 4.14746 0
M  V30 12762 H 1177.11 -3.55981 4.83113 0
M  V30 12763 H 1178.18 -2.25219 4.29423 0
M  V30 12764 N 1179.52 -1.32087 -0.859693 0
M  V30 12765 C 1180.46 -1.16426 -1.97428 0
M  V30 12766 C 1181.47 -0.100582 -1.62489 0
M  V30 12767 O 1182.66 -0.349063 -1.75054 0
M  V30 12768 C 1179.76 -0.758822 -3.30295 0
M  V30 12769 C 1178.93 -1.90971 -3.93508 0
M  V30 12770 C 1177.99 -1.48865 -5.04704 0
M  V30 12771 O 1177.02 -2.1999 -5.2497 0
M  V30 12772 N 1178.22 -0.38182 -5.79243 0
M  V30 12773 H 1180.98 -2.12433 -2.11406 0
M  V30 12774 H 1178.54 -1.24558 -1.03426 0
M  V30 12775 H 1180.54 -0.459643 -4.02081 0
M  V30 12776 H 1179.11 0.109944 -3.12407 0
M  V30 12777 H 1178.33 -2.37566 -3.14573 0
M  V30 12778 H 1179.61 -2.68032 -4.32477 0
M  V30 12779 H 1179.01 0.210268 -5.65309 0
M  V30 12780 H 1177.57 -0.142224 -6.51645 0
M  V30 12781 N 1181 1.07532 -1.15215 0
M  V30 12782 C 1181.93 2.1668 -0.870171 0
M  V30 12783 C 1182.91 1.69161 0.178483 0
M  V30 12784 O 1184.1 1.94172 0.0332489 0
M  V30 12785 C 1181.23 3.45464 -0.356666 0
M  V30 12786 C 1180.18 4.06424 -1.34179 0
M  V30 12787 C 1179.51 5.30266 -0.687206 0
M  V30 12788 C 1180.81 4.46666 -2.70715 0
M  V30 12789 H 1182.5 2.40526 -1.7829 0
M  V30 12790 H 1180.05 1.15598 -0.858665 0
M  V30 12791 H 1182 4.21144 -0.146947 0
M  V30 12792 H 1180.72 3.21199 0.591527 0
M  V30 12793 H 1179.38 3.32786 -1.53783 0
M  V30 12794 H 1179.03 5.0229 0.267077 0
M  V30 12795 H 1178.73 5.72009 -1.34462 0
M  V30 12796 H 1180.26 6.08653 -0.487218 0
M  V30 12797 H 1181.67 5.13483 -2.54966 0
M  V30 12798 H 1180.07 4.99355 -3.32813 0
M  V30 12799 H 1181.14 3.58123 -3.26919 0
M  V30 12800 N 1182.48 0.948665 1.2585 0
M  V30 12801 C 1183.41 0.421458 2.25292 0
M  V30 12802 C 1184.43 -0.459389 1.56184 0
M  V30 12803 O 1185.61 -0.268627 1.76467 0
M  V30 12804 C 1182.71 -0.412653 3.36378 0
M  V30 12805 C 1181.89 0.453792 4.3504 0
M  V30 12806 C 1180.95 -0.321127 5.25219 0
M  V30 12807 O 1179.97 0.278424 5.68519 0
M  V30 12808 N 1181.17 -1.61576 5.5756 0
M  V30 12809 H 1183.94 1.27636 2.71162 0
M  V30 12810 H 1181.5 0.818367 1.39694 0
M  V30 12811 H 1183.49 -0.938637 3.93664 0
M  V30 12812 H 1182.06 -1.16839 2.89944 0
M  V30 12813 H 1181.28 1.16093 3.76718 0
M  V30 12814 H 1182.57 1.04538 4.97945 0
M  V30 12815 H 1181.97 -2.12488 5.24276 0
M  V30 12816 H 1180.53 -2.08783 6.17457 0
M  V30 12817 N 1183.96 -1.40369 0.716545 0
M  V30 12818 C 1184.87 -2.34508 0.065658 0
M  V30 12819 C 1185.88 -1.57352 -0.742723 0
M  V30 12820 O 1187.06 -1.89735 -0.675456 0
M  V30 12821 C 1184.13 -3.36262 -0.844337 0
M  V30 12822 C 1183.19 -4.29292 -0.0257971 0
M  V30 12823 C 1182.42 -5.26185 -0.892452 0
M  V30 12824 O 1182.64 -5.29071 -2.13166 0
M  V30 12825 O 1181.58 -6.0099 -0.330933 0
M  V30 12826 H 1185.4 -2.91789 0.842184 0
M  V30 12827 H 1182.99 -1.41579 0.477034 0
M  V30 12828 H 1184.87 -3.98661 -1.36555 0
M  V30 12829 H 1183.54 -2.81393 -1.59999 0
M  V30 12830 H 1182.45 -3.70175 0.540512 0
M  V30 12831 H 1183.78 -4.87316 0.69166 0
M  V30 12832 N 1185.44 -0.462799 -1.50652 0
M  V30 12833 C 1186.35 0.341191 -2.32106 0
M  V30 12834 C 1187.36 1.00384 -1.42123 0
M  V30 12835 O 1188.54 0.993635 -1.75182 0
M  V30 12836 C 1185.6 1.41356 -3.16575 0
M  V30 12837 C 1184.66 0.768375 -4.22368 0
M  V30 12838 C 1183.9 1.78964 -5.028 0
M  V30 12839 O 1184.12 3.01515 -4.84195 0
M  V30 12840 O 1183.05 1.36606 -5.86193 0
M  V30 12841 H 1186.88 -0.324482 -3.01962 0
M  V30 12842 H 1184.47 -0.224807 -1.47699 0
M  V30 12843 H 1186.35 2.0349 -3.69012 0
M  V30 12844 H 1185.02 2.06285 -2.49456 0
M  V30 12845 H 1183.93 0.108297 -3.73943 0
M  V30 12846 H 1185.26 0.162164 -4.91933 0
M  V30 12847 N 1186.91 1.56388 -0.195085 0
M  V30 12848 C 1188.16 1.97189 0.44281 0
M  V30 12849 C 1188.48 1.08312 1.62153 0
M  V30 12850 O 1187.75 0.154404 1.95291 0
M  V30 12851 H 1186.33 0.728188 0.166585 0
M  V30 12852 H 1189 1.92852 -0.281815 0
M  V30 12853 H 1188.09 3.02016 0.786945 0
M  V30 12854 N 1188.39 -0.0785156 1.57404 0
M  V30 12855 C 1189.34 -1.09402 2.03224 0
M  V30 12856 C 1190.31 -1.38849 0.911596 0
M  V30 12857 O 1191.49 -1.50031 1.17878 0
M  V30 12858 C 1188.63 -2.40444 2.47549 0
M  V30 12859 C 1187.75 -2.17585 3.73203 0
M  V30 12860 C 1186.88 -3.42143 4.06339 0
M  V30 12861 C 1185.92 -3.14619 5.25054 0
M  V30 12862 N 1185.06 -4.31489 5.5386 0
M  V30 12863 H 1189.9 -0.696307 2.89751 0
M  V30 12864 H 1187.44 -0.332261 1.43298 0
M  V30 12865 H 1189.39 -3.16944 2.71298 0
M  V30 12866 H 1188.02 -2.78031 1.64009 0
M  V30 12867 H 1187.08 -1.3181 3.56834 0
M  V30 12868 H 1188.39 -1.93249 4.59844 0
M  V30 12869 H 1187.54 -4.27042 4.30953 0
M  V30 12870 H 1186.28 -3.69549 3.18253 0
M  V30 12871 H 1185.29 -2.28116 5.00243 0
M  V30 12872 H 1186.51 -2.88543 6.14752 0
M  V30 12873 H 1184.46 -4.58939 4.68734 0
M  V30 12874 H 1184.37 -4.10403 6.34906 0
M  V30 12875 H 1185.64 -5.17404 5.83021 0
M  V30 12876 N 1189.87 -1.5367 -0.349747 0
M  V30 12877 C 1190.8 -1.84208 -1.43492 0
M  V30 12878 C 1191.78 -0.696725 -1.55177 0
M  V30 12879 O 1192.97 -0.948061 -1.69486 0
M  V30 12880 C 1190.1 -2.04613 -2.80625 0
M  V30 12881 C 1189.05 -3.20419 -2.83753 0
M  V30 12882 C 1188.38 -3.26147 -4.23713 0
M  V30 12883 C 1189.68 -4.58666 -2.49846 0
M  V30 12884 H 1191.37 -2.75087 -1.18185 0
M  V30 12885 H 1188.92 -1.32363 -0.567101 0
M  V30 12886 H 1190.87 -2.2456 -3.56582 0
M  V30 12887 H 1189.59 -1.10459 -3.07354 0
M  V30 12888 H 1188.25 -3.00318 -2.10249 0
M  V30 12889 H 1187.9 -2.29599 -4.47541 0
M  V30 12890 H 1187.6 -4.03963 -4.26717 0
M  V30 12891 H 1189.12 -3.48296 -5.0152 0
M  V30 12892 H 1190.54 -4.78668 -3.15516 0
M  V30 12893 H 1188.94 -5.3884 -2.64144 0
M  V30 12894 H 1190.01 -4.62697 -1.4505 0
M  V30 12895 N 1191.35 0.610423 -1.45298 0
M  V30 12896 C 1192.3 1.71552 -1.5018 0
M  V30 12897 C 1193.28 1.56697 -0.365357 0
M  V30 12898 O 1194.47 1.66082 -0.612029 0
M  V30 12899 C 1191.6 3.10298 -1.46867 0
M  V30 12900 C 1190.69 3.30549 -2.65703 0
M  V30 12901 N 1191.08 3.21073 -3.90827 0
M  V30 12902 C 1189.38 3.6141 -2.6134 0
M  V30 12903 C 1190.08 3.42577 -4.70123 0
M  V30 12904 N 1189.06 3.66434 -4.01531 0
M  V30 12905 H 1192.86 1.62714 -2.44747 0
M  V30 12906 H 1190.37 0.813587 -1.40551 0
M  V30 12907 H 1192.37 3.89575 -1.48449 0
M  V30 12908 H 1191.03 3.20286 -0.533548 0
M  V30 12909 H 1192.04 2.99537 -4.2249 0
M  V30 12910 H 1188.72 3.78253 -1.76722 0
M  V30 12911 H 1190.11 3.40669 -5.79132 0
M  V30 12912 N 1192.83 1.32541 0.852676 0
M  V30 12913 C 1193.76 1.15977 1.96531 0
M  V30 12914 C 1194.74 0.0587267 1.62494 0
M  V30 12915 O 1195.92 0.218404 1.8723 0
M  V30 12916 C 1193.05 0.77587 3.29694 0
M  V30 12917 C 1192.09 1.88244 3.82709 0
M  V30 12918 S 1192.93 3.49108 4.06059 0
M  V30 12919 C 1194.08 3.12693 5.42193 0
M  V30 12920 H 1194.32 2.10165 2.1028 0
M  V30 12921 H 1191.85 1.17225 1.00487 0
M  V30 12922 H 1193.81 0.561136 4.06647 0
M  V30 12923 H 1192.47 -0.14718 3.13755 0
M  V30 12924 H 1191.66 1.56687 4.79025 0
M  V30 12925 H 1191.26 2.05313 3.12606 0
M  V30 12926 H 1193.56 2.62661 6.24512 0
M  V30 12927 H 1194.5 4.08038 5.78714 0
M  V30 12928 H 1194.91 2.4966 5.06291 0
M  V30 12929 N 1194.3 -1.0692 1.15784 0
M  V30 12930 C 1195.24 -2.13637 0.802141 0
M  V30 12931 C 1196.22 -1.61058 -0.223384 0
M  V30 12932 O 1197.4 -1.88185 -0.108927 0
M  V30 12933 C 1194.53 -3.38146 0.193568 0
M  V30 12934 C 1193.57 -4.09513 1.19169 0
M  V30 12935 S 1194.41 -4.60351 2.73564 0
M  V30 12936 C 1195.56 -5.88129 2.14138 0
M  V30 12937 H 1195.79 -2.4348 1.70601 0
M  V30 12938 H 1193.33 -1.19259 0.980646 0
M  V30 12939 H 1195.29 -4.10222 -0.151106 0
M  V30 12940 H 1193.95 -3.06473 -0.687968 0
M  V30 12941 H 1193.14 -4.98914 0.714183 0
M  V30 12942 H 1192.74 -3.43422 1.48113 0
M  V30 12943 H 1195.03 -6.60547 1.50614 0
M  V30 12944 H 1195.98 -6.406 3.01724 0
M  V30 12945 H 1196.38 -5.41859 1.5827 0
M  V30 12946 N 1195.78 -0.955326 -1.25345 0
M  V30 12947 C 1196.73 -0.474888 -2.25862 0
M  V30 12948 C 1197.7 0.472996 -1.59223 0
M  V30 12949 O 1198.88 0.386094 -1.86853 0
M  V30 12950 C 1196.02 0.240554 -3.44261 0
M  V30 12951 C 1195.14 -0.74465 -4.25534 0
M  V30 12952 C 1194.27 -0.00657513 -5.312 0
M  V30 12953 C 1193.31 -0.982666 -6.04161 0
M  V30 12954 N 1192.45 -0.275418 -7.0156 0
M  V30 12955 H 1197.29 -1.33693 -2.66327 0
M  V30 12956 H 1194.83 -0.670439 -1.30933 0
M  V30 12957 H 1196.78 0.671933 -4.11753 0
M  V30 12958 H 1195.41 1.06664 -3.04668 0
M  V30 12959 H 1194.47 -1.29451 -3.57696 0
M  V30 12960 H 1195.78 -1.48948 -4.76042 0
M  V30 12961 H 1194.93 0.483404 -6.04771 0
M  V30 12962 H 1193.67 0.771035 -4.81567 0
M  V30 12963 H 1192.68 -1.48364 -5.29404 0
M  V30 12964 H 1193.9 -1.76052 -6.55883 0
M  V30 12965 H 1191.85 0.483441 -6.54216 0
M  V30 12966 H 1191.76 -0.959324 -7.49889 0
M  V30 12967 H 1193.03 0.193002 -7.79261 0
M  V30 12968 N 1197.26 1.39987 -0.723979 0
M  V30 12969 C 1198.17 2.3447 -0.0780936 0
M  V30 12970 C 1199.19 1.57744 0.734368 0
M  V30 12971 O 1200.36 1.90091 0.665385 0
M  V30 12972 C 1197.43 3.36705 0.826492 0
M  V30 12973 C 1196.49 4.293 0.00303036 0
M  V30 12974 C 1195.72 5.26651 0.864535 0
M  V30 12975 O 1195.95 5.30194 2.10357 0
M  V30 12976 O 1194.88 6.01157 0.299057 0
M  V30 12977 H 1198.71 2.91338 -0.857646 0
M  V30 12978 H 1196.29 1.41324 -0.484536 0
M  V30 12979 H 1198.17 3.9938 1.34439 0
M  V30 12980 H 1196.85 2.82237 1.58505 0
M  V30 12981 H 1195.75 3.69883 -0.560136 0
M  V30 12982 H 1197.09 4.86942 -0.717494 0
M  V30 12983 N 1198.74 0.470782 1.50404 0
M  V30 12984 C 1199.69 -0.32355 2.28521 0
M  V30 12985 C 1200.66 -0.987472 1.3356 0
M  V30 12986 O 1201.84 -0.999969 1.62497 0
M  V30 12987 C 1198.98 -1.39977 3.15437 0
M  V30 12988 C 1198.09 -0.750656 4.25428 0
M  V30 12989 C 1197.23 -1.80474 4.99602 0
M  V30 12990 C 1196.27 -1.13586 6.01469 0
M  V30 12991 N 1195.41 -2.13279 6.68922 0
M  V30 12992 H 1200.25 0.348902 2.9595 0
M  V30 12993 H 1197.78 0.183908 1.45946 0
M  V30 12994 H 1199.74 -2.0354 3.6418 0
M  V30 12995 H 1198.37 -2.04139 2.50054 0
M  V30 12996 H 1197.42 -0.00247092 3.804 0
M  V30 12997 H 1198.73 -0.222638 4.98303 0
M  V30 12998 H 1197.89 -2.51619 5.52062 0
M  V30 12999 H 1196.63 -2.36657 4.26433 0
M  V30 13000 H 1195.63 -0.410042 5.48269 0
M  V30 13001 H 1196.86 -0.580935 6.76611 0
M  V30 13002 H 1194.8 -2.68479 5.98544 0
M  V30 13003 H 1194.72 -1.65461 7.37671 0
M  V30 13004 H 1195.99 -2.83804 7.26 0
M  V30 13005 N 1200.22 -1.56282 0.203376 0
M  V30 13006 C 1201.46 -1.98864 -0.427176 0
M  V30 13007 C 1201.82 -1.08828 -1.58664 0
M  V30 13008 O 1201.11 -0.134399 -1.91128 0
M  V30 13009 C 1201.31 -3.45148 -0.927759 0
M  V30 13010 C 1201.13 -4.49333 0.18166 0
M  V30 13011 C 1199.9 -5.01204 0.642046 0
M  V30 13012 C 1202.1 -5.04612 0.993548 0
M  V30 13013 N 1200.08 -5.89066 1.72842 0
M  V30 13014 C 1201.46 -5.89223 1.92915 0
M  V30 13015 C 1203.51 -4.87023 1.03503 0
M  V30 13016 C 1202.21 -6.58125 2.90282 0
M  V30 13017 C 1204.24 -5.56671 1.99679 0
M  V30 13018 C 1203.6 -6.41035 2.91982 0
M  V30 13019 H 1199.7 -0.772186 -0.123501 0
M  V30 13020 H 1202.28 -1.92201 0.310974 0
M  V30 13021 H 1200.46 -3.52295 -1.63533 0
M  V30 13022 H 1202.19 -3.7468 -1.52961 0
M  V30 13023 H 1198.94 -4.73022 0.233895 0
M  V30 13024 H 1199.37 -6.377 2.27306 0
M  V30 13025 H 1204.01 -4.21468 0.335379 0
M  V30 13026 H 1201.73 -7.22874 3.61219 0
M  V30 13027 H 1205.31 -5.45034 2.0354 0
M  V30 13028 H 1204.19 -6.93979 3.65189 0
M  V30 13029 N 1201.7 0.070167 -1.57444 0
M  V30 13030 C 1202.94 0.764899 -1.8847 0
M  V30 13031 C 1203.3 1.75104 -0.797264 0
M  V30 13032 O 1202.59 1.9057 0.198411 0
M  V30 13033 C 1202.78 1.5111 -3.23883 0
M  V30 13034 C 1202.61 0.598732 -4.45696 0
M  V30 13035 C 1201.38 0.235066 -5.04753 0
M  V30 13036 C 1203.58 -0.105234 -5.14192 0
M  V30 13037 N 1201.56 -0.682856 -6.1009 0
M  V30 13038 C 1202.93 -0.880286 -6.13719 0
M  V30 13039 C 1204.99 -0.176534 -4.97587 0
M  V30 13040 C 1203.69 -1.72002 -6.98432 0
M  V30 13041 C 1205.72 -1.00324 -5.82828 0
M  V30 13042 C 1205.08 -1.76634 -6.81894 0
M  V30 13043 H 1201.18 0.255278 -0.73916 0
M  V30 13044 H 1203.76 0.0263555 -1.94682 0
M  V30 13045 H 1201.93 2.22036 -3.18676 0
M  V30 13046 H 1203.67 2.15498 -3.42553 0
M  V30 13047 H 1200.42 0.588283 -4.69932 0
M  V30 13048 H 1200.84 -1.13511 -6.67416 0
M  V30 13049 H 1205.49 0.399107 -4.20912 0
M  V30 13050 H 1203.2 -2.30662 -7.74481 0
M  V30 13051 H 1206.79 -1.06141 -5.72036 0
M  V30 13052 H 1205.67 -2.39573 -7.46709 0
M  V30 13053 N 1203.17 1.53854 0.341593 0
M  V30 13054 C 1204.59 1.44161 0.684821 0
M  V30 13055 C 1204.79 0.599929 1.92362 0
M  V30 13056 O 1203.85 0.0916771 2.52334 0
M  V30 13057 C 1205.16 2.87668 0.875637 0
M  V30 13058 C 1206.71 2.97455 0.974131 0
M  V30 13059 C 1207.18 4.42075 1.19725 0
M  V30 13060 N 1208.67 4.45609 1.2644 0
M  V30 13061 C 1209.41 5.54643 1.45459 0
M  V30 13062 N 1208.9 6.7368 1.61637 0
M  V30 13063 N 1210.7 5.4226 1.48022 0
M  V30 13064 H 1202.85 2.07069 -0.472883 0
M  V30 13065 H 1205.11 0.936114 -0.149648 0
M  V30 13066 H 1204.82 3.51681 0.0368595 0
M  V30 13067 H 1204.69 3.32731 1.7768 0
M  V30 13068 H 1207.08 2.33582 1.80343 0
M  V30 13069 H 1207.16 2.55751 0.0498282 0
M  V30 13070 H 1206.8 5.06529 0.372872 0
M  V30 13071 H 1206.73 4.81372 2.13515 0
M  V30 13072 H 1209.22 3.59831 1.15455 0
M  V30 13073 H 1209.54 7.52541 1.7579 0
M  V30 13074 H 1207.88 6.76622 1.5877 0
M  V30 13075 H 1211.07 4.48221 1.34966 0
M  V30 13076 H 1211.25 6.27293 1.62502 0
M  V30 13077 N 1204.65 -0.602709 1.4562 0
M  V30 13078 C 1205.9 -1.35889 1.49595 0
M  V30 13079 C 1206.22 -1.9449 0.141002 0
M  V30 13080 O 1205.49 -1.77438 -0.830209 0
M  V30 13081 H 1204.07 -0.504478 0.550918 0
M  V30 13082 H 1206.73 -0.707376 1.8161 0
M  V30 13083 H 1205.83 -2.17583 2.2375 0
M  V30 13084 N 1206.13 -1.32992 -0.845635 0
M  V30 13085 C 1207.08 -1.22652 -1.97634 0
M  V30 13086 C 1208.07 -0.129344 -1.68905 0
M  V30 13087 O 1209.28 -0.292863 -1.77602 0
M  V30 13088 H 1205.65 -0.380439 -0.648668 0
M  V30 13089 H 1207.62 -2.18261 -2.03481 0
M  V30 13090 C 1206.37 -0.975677 -3.3373 0
M  V30 13091 H 1205.7 -1.81217 -3.56371 0
M  V30 13092 H 1207.14 -0.943608 -4.13367 0
M  V30 13093 C 1205.59 0.321491 -3.35363 0
M  V30 13094 O 1206.12 1.33042 -3.79029 0
M  V30 13095 N 1204.33 0.346648 -2.88525 0
M  V30 13096 H 1203.88 -0.474931 -2.53184 0
M  V30 13097 H 1203.84 1.2144 -2.9 0
M  V30 13098 N 1207.61 1.06304 -1.1635 0
M  V30 13099 C 1208.86 1.78747 -0.943074 0
M  V30 13100 C 1209.18 1.87646 0.530483 0
M  V30 13101 O 1208.45 1.38506 1.38538 0
M  V30 13102 H 1207.03 0.662072 -0.345932 0
M  V30 13103 H 1209.69 1.28413 -1.46615 0
M  V30 13104 H 1208.78 2.80828 -1.3617 0
M  V30 13105 N 1209.09 0.96196 1.24836 0
M  V30 13106 C 1210.33 0.628484 1.94498 0
M  V30 13107 C 1210.69 -0.820337 1.73593 0
M  V30 13108 O 1211.89 -1.26376 2.37239 0
M  V30 13109 C 1210.16 0.986119 3.43527 0
M  V30 13110 S 1211.72 0.766324 4.32057 0
M  V30 13111 H 1208.54 0.230758 0.672511 0
M  V30 13112 H 1211.14 1.23769 1.51332 0
M  V30 13113 H 1209.84 2.03756 3.56247 0
M  V30 13114 H 1209.38 0.367454 3.9168 0
M  V30 13115 H 1211.39 -0.359227 4.94898 0
M  V30 13116 N 1210.56 -1.39601 0.731392 0
M  V30 13117 C 1211.97 -1.83424 0.348194 0
M  V30 13118 C 1212.33 -1.61106 -1.11979 0
M  V30 13119 O 1211.45 -1.1003 -1.86339 0
M  V30 13120 C 1212.05 -3.32982 0.6252 0
M  V30 13121 C 1210.6 -3.75238 0.295536 0
M  V30 13122 C 1209.75 -2.62642 0.88964 0
M  V30 13123 H 1212.7 -1.28644 0.929318 0
M  V30 13124 H 1212.72 -3.80357 -0.104254 0
M  V30 13125 H 1212.24 -3.49193 1.69368 0
M  V30 13126 H 1210.34 -3.64615 -0.767254 0
M  V30 13127 H 1210.45 -4.72781 0.775576 0
M  V30 13128 H 1208.81 -2.52726 0.316529 0
M  V30 13129 H 1209.6 -2.81661 1.96271 0
M  V30 13130 N 1212.04 -0.478751 -1.50152 0
M  V30 13131 C 1212.95 0.316554 -2.32455 0
M  V30 13132 C 1213.97 0.98871 -1.4318 0
M  V30 13133 O 1215.14 0.974998 -1.76226 0
M  V30 13134 C 1212.21 1.3799 -3.18056 0
M  V30 13135 C 1211.27 0.723534 -4.23159 0
M  V30 13136 C 1210.5 1.73621 -5.0467 0
M  V30 13137 O 1210.73 2.96362 -4.87366 0
M  V30 13138 O 1209.66 1.30381 -5.87609 0
M  V30 13139 H 1213.49 -0.356491 -3.016 0
M  V30 13140 H 1211.07 -0.24046 -1.47452 0
M  V30 13141 H 1212.95 1.99565 -3.71149 0
M  V30 13142 H 1211.63 2.03627 -2.5163 0
M  V30 13143 H 1210.54 0.0686296 -3.74037 0
M  V30 13144 H 1211.87 0.109979 -4.92077 0
M  V30 13145 N 1213.52 1.56172 -0.211661 0
M  V30 13146 C 1214.43 2.23468 0.714081 0
M  V30 13147 C 1215.45 1.23908 1.22159 0
M  V30 13148 O 1216.62 1.56693 1.26528 0
M  V30 13149 C 1213.69 2.89375 1.90953 0
M  V30 13150 C 1212.75 4.04251 1.44497 0
M  V30 13151 C 1211.98 4.67006 2.58343 0
M  V30 13152 O 1212.2 4.28721 3.76237 0
M  V30 13153 O 1211.14 5.56177 2.3011 0
M  V30 13154 H 1214.96 3.03219 0.170862 0
M  V30 13155 H 1212.55 1.49389 0.0183607 0
M  V30 13156 H 1214.43 3.3101 2.60787 0
M  V30 13157 H 1213.11 2.12591 2.44104 0
M  V30 13158 H 1212.01 3.67205 0.714932 0
M  V30 13159 H 1213.35 4.82748 0.959947 0
M  V30 13160 N 1215 -0.0618163 1.57479 0
M  V30 13161 C 1216.28 -0.792636 1.7882 0
M  V30 13162 C 1216.66 -1.95283 0.801724 0
M  V30 13163 O 1216 -2.27917 -0.163095 0
M  V30 13164 C 1216.21 -1.25629 3.25605 0
M  V30 13165 C 1217.56 -1.68561 3.89708 0
M  V30 13166 O 1218.59 -1.35171 3.29556 0
M  V30 13167 O 1217.44 -2.30417 4.95551 0
M  V30 13168 H 1214.54 -0.380595 0.734218 0
M  V30 13169 H 1217.08 -0.0411205 1.6965 0
M  V30 13170 H 1215.86 -0.426582 3.88968 0
M  V30 13171 H 1215.48 -2.06882 3.39537 0
M  V30 13172 N 1216.48 -1.54033 -0.333429 0
M  V30 13173 C 1217.42 -1.83441 -1.43011 0
M  V30 13174 C 1218.42 -0.705592 -1.54006 0
M  V30 13175 O 1219.62 -0.889098 -1.56509 0
M  V30 13176 H 1216 -0.581326 -0.477037 0
M  V30 13177 H 1217.97 -2.75172 -1.15426 0
M  V30 13178 C 1216.72 -2.0698 -2.79382 0
M  V30 13179 H 1216.04 -2.93297 -2.71692 0
M  V30 13180 H 1217.48 -2.31517 -3.55212 0
M  V30 13181 C 1215.94 -0.85835 -3.25782 0
M  V30 13182 O 1216.47 -0.062739 -4.01651 0
M  V30 13183 N 1214.68 -0.672738 -2.82706 0
M  V30 13184 H 1214.22 -1.32136 -2.21128 0
M  V30 13185 H 1214.18 0.136347 -3.14104 0
M  V30 13186 N 1217.95 0.594978 -1.45938 0
M  V30 13187 C 1218.9 1.70489 -1.5557 0
M  V30 13188 C 1219.87 1.61193 -0.400751 0
M  V30 13189 O 1221.06 1.80587 -0.615882 0
M  V30 13190 C 1218.2 3.08817 -1.54033 0
M  V30 13191 C 1217.31 3.28827 -2.80173 0
M  V30 13192 C 1216.44 4.57333 -2.70222 0
M  V30 13193 C 1215.48 4.70644 -3.91357 0
M  V30 13194 N 1214.62 5.90463 -3.79865 0
M  V30 13195 H 1219.46 1.61593 -2.50383 0
M  V30 13196 H 1217 0.787747 -1.24229 0
M  V30 13197 H 1218.96 3.88865 -1.51129 0
M  V30 13198 H 1217.59 3.1664 -0.627617 0
M  V30 13199 H 1216.64 2.42467 -2.9311 0
M  V30 13200 H 1217.95 3.34534 -3.69985 0
M  V30 13201 H 1217.1 5.45593 -2.65354 0
M  V30 13202 H 1215.84 4.54045 -1.7803 0
M  V30 13203 H 1214.85 3.80805 -3.9657 0
M  V30 13204 H 1216.07 4.75721 -4.8463 0
M  V30 13205 H 1214.02 5.88196 -2.90451 0
M  V30 13206 H 1213.94 5.97385 -4.63322 0
M  V30 13207 H 1215.2 6.81187 -3.78952 0
M  V30 13208 N 1219.43 1.33438 0.838571 0
M  V30 13209 C 1220.34 1.25753 1.98049 0
M  V30 13210 C 1221.36 0.168051 1.73187 0
M  V30 13211 O 1222.53 0.391691 1.97554 0
M  V30 13212 C 1219.6 0.997148 3.32051 0
M  V30 13213 C 1218.66 2.17667 3.70027 0
M  V30 13214 C 1217.89 1.92861 4.97635 0
M  V30 13215 O 1218.12 0.879072 5.63585 0
M  V30 13216 O 1217.05 2.79402 5.33121 0
M  V30 13217 H 1220.88 2.21786 2.07472 0
M  V30 13218 H 1218.46 1.13488 0.971645 0
M  V30 13219 H 1220.34 0.869099 4.1234 0
M  V30 13220 H 1219.02 0.0671036 3.2363 0
M  V30 13221 H 1217.93 2.36025 2.90246 0
M  V30 13222 H 1219.26 3.09006 3.83114 0
M  V30 13223 N 1220.91 -1.05686 1.16912 0
M  V30 13224 C 1221.87 -2.11481 0.883647 0
M  V30 13225 C 1222.87 -1.60321 -0.124034 0
M  V30 13226 O 1224.06 -1.73868 0.107566 0
M  V30 13227 C 1221.2 -3.3937 0.322649 0
M  V30 13228 H 1222.39 -2.38239 1.8216 0
M  V30 13229 H 1219.94 -1.2185 0.978895 0
M  V30 13230 H 1220.68 -3.18266 -0.622695 0
M  V30 13231 H 1220.46 -3.77812 1.04883 0
M  V30 13232 H 1221.95 -4.17362 0.141072 0
M  V30 13233 N 1222.39 -0.968567 -1.24324 0
M  V30 13234 C 1223.61 -0.648166 -1.97012 0
M  V30 13235 C 1224.04 0.775842 -1.71354 0
M  V30 13236 O 1223.4 1.52672 -0.977804 0
M  V30 13237 C 1223.44 -0.929974 -3.48402 0
M  V30 13238 O 1222.55 -0.015854 -4.12397 0
M  V30 13239 H 1221.89 -0.244961 -0.617163 0
M  V30 13240 H 1224.42 -1.29895 -1.58077 0
M  V30 13241 H 1224.43 -0.861863 -3.98793 0
M  V30 13242 H 1223.1 -1.96776 -3.66404 0
M  V30 13243 H 1221.68 -0.137361 -3.72647 0
M  V30 13244 N 1223.87 1.39211 -0.738786 0
M  V30 13245 C 1224.83 2.28937 -0.109746 0
M  V30 13246 C 1225.83 1.46488 0.663157 0
M  V30 13247 O 1227.02 1.67119 0.491614 0
M  V30 13248 C 1224.15 3.30039 0.853633 0
M  V30 13249 H 1225.34 2.86068 -0.900295 0
M  V30 13250 H 1222.9 1.47922 -0.504853 0
M  V30 13251 H 1223.63 2.77971 1.6704 0
M  V30 13252 H 1223.42 3.90935 0.302007 0
M  V30 13253 H 1224.91 3.97169 1.29022 0
M  V30 13254 N 1225.34 0.486708 1.49896 0
M  V30 13255 C 1226.27 -0.288898 2.31706 0
M  V30 13256 C 1227.26 -0.975901 1.3932 0
M  V30 13257 O 1228.44 -0.970065 1.68236 0
M  V30 13258 C 1225.57 -1.36218 3.19471 0
M  V30 13259 C 1224.52 -0.795884 4.20535 0
M  V30 13260 C 1223.85 -1.96862 4.97141 0
M  V30 13261 C 1225.15 0.203421 5.21904 0
M  V30 13262 H 1226.84 0.393934 2.96797 0
M  V30 13263 H 1224.39 0.190894 1.42729 0
M  V30 13264 H 1226.34 -1.91238 3.75508 0
M  V30 13265 H 1225.07 -2.074 2.52295 0
M  V30 13266 H 1223.73 -0.267538 3.65622 0
M  V30 13267 H 1223.37 -2.66779 4.26425 0
M  V30 13268 H 1223.07 -1.59585 5.65514 0
M  V30 13269 H 1224.6 -2.52343 5.56017 0
M  V30 13270 H 1226.01 -0.258144 5.72719 0
M  V30 13271 H 1224.41 0.491273 5.98086 0
M  V30 13272 H 1225.48 1.12414 4.7169 0
M  V30 13273 N 1226.82 -1.56058 0.219941 0
M  V30 13274 C 1228.07 -1.97869 -0.411383 0
M  V30 13275 C 1228.39 -1.10878 -1.60409 0
M  V30 13276 O 1227.66 -0.185454 -1.9502 0
M  V30 13277 H 1226.24 -0.730747 -0.154979 0
M  V30 13278 H 1228.9 -1.92379 0.312461 0
M  V30 13279 H 1228 -3.0323 -0.738798 0
M  V30 13280 N 1228.3 0.053464 -1.57509 0
M  V30 13281 C 1229.55 0.750212 -1.88414 0
M  V30 13282 C 1229.88 1.76288 -0.814619 0
M  V30 13283 O 1229.16 1.93728 0.173136 0
M  V30 13284 C 1229.44 1.44176 -3.29978 0
M  V30 13285 C 1229.29 0.444263 -4.47601 0
M  V30 13286 C 1230.61 2.38207 -3.70061 0
M  V30 13287 H 1227.73 0.271266 -0.685262 0
M  V30 13288 H 1230.37 0.0131676 -1.89995 0
M  V30 13289 H 1228.52 2.07001 -3.2876 0
M  V30 13290 H 1230.19 -0.180182 -4.60948 0
M  V30 13291 H 1228.44 -0.238771 -4.33142 0
M  V30 13292 H 1229.11 0.966134 -5.43479 0
M  V30 13293 H 1231.58 1.85446 -3.7249 0
M  V30 13294 H 1230.46 2.83588 -4.69967 0
M  V30 13295 H 1230.72 3.23821 -3.00985 0
M  V30 13296 N 1229.78 1.54207 0.325255 0
M  V30 13297 C 1230.69 1.86495 1.42326 0
M  V30 13298 C 1231.71 0.756718 1.56684 0
M  V30 13299 O 1232.88 1.05084 1.71812 0
M  V30 13300 C 1229.95 2.08414 2.77064 0
M  V30 13301 C 1229.01 3.32221 2.71897 0
M  V30 13302 C 1228.24 3.53085 4.00209 0
M  V30 13303 O 1228.46 2.77421 4.98391 0
M  V30 13304 O 1227.4 4.46559 4.0357 0
M  V30 13305 H 1231.22 2.79859 1.17951 0
M  V30 13306 H 1228.81 1.40091 0.519124 0
M  V30 13307 H 1230.69 2.24171 3.56827 0
M  V30 13308 H 1229.37 1.18238 3.01333 0
M  V30 13309 H 1228.27 3.21851 1.90691 0
M  V30 13310 H 1229.61 4.22449 2.52582 0
M  V30 13311 N 1231.26 -0.58723 1.46251 0
M  V30 13312 C 1232.21 -1.71771 1.56836 0
M  V30 13313 C 1233.2 -1.63664 0.437096 0
M  V30 13314 O 1234.41 -1.69212 0.613797 0
M  V30 13315 H 1230.78 -0.567841 0.493012 0
M  V30 13316 H 1232.75 -1.59974 2.51895 0
M  V30 13317 C 1231.5 -3.10159 1.57152 0
M  V30 13318 H 1230.82 -3.17066 2.43535 0
M  V30 13319 H 1232.26 -3.89032 1.68613 0
M  V30 13320 C 1230.72 -3.35567 0.299374 0
M  V30 13321 O 1231.25 -3.97006 -0.612291 0
M  V30 13322 N 1229.46 -2.89987 0.188695 0
M  V30 13323 H 1229.01 -2.4017 0.93147 0
M  V30 13324 H 1228.96 -3.0736 -0.661612 0
M  V30 13325 N 1232.74 -1.33881 -0.831482 0
M  V30 13326 C 1233.98 -1.251 -1.58218 0
M  V30 13327 C 1234.3 0.17963 -1.94773 0
M  V30 13328 O 1235.5 0.389516 -2.68691 0
M  V30 13329 C 1233.96 -2.19246 -2.8541 0
M  V30 13330 C 1233.57 -3.6752 -2.5619 0
M  V30 13331 C 1235.31 -2.19355 -3.63433 0
M  V30 13332 C 1233.22 -4.53559 -3.79523 0
M  V30 13333 H 1232.15 -0.46469 -0.593784 0
M  V30 13334 H 1234.8 -1.58992 -0.916169 0
M  V30 13335 H 1233.18 -1.78295 -3.53591 0
M  V30 13336 H 1234.36 -4.16956 -1.96173 0
M  V30 13337 H 1232.67 -3.69774 -1.91458 0
M  V30 13338 H 1235.27 -2.80863 -4.54995 0
M  V30 13339 H 1235.61 -1.19056 -3.98913 0
M  V30 13340 H 1236.14 -2.58706 -3.02185 0
M  V30 13341 H 1232.88 -5.54762 -3.4917 0
M  V30 13342 H 1232.4 -4.08862 -4.38853 0
M  V30 13343 H 1234.08 -4.67736 -4.47025 0
M  V30 13344 N 1234.21 1.05064 -1.1747 0
M  V30 13345 C 1235.46 1.77737 -0.961979 0
M  V30 13346 C 1235.78 1.88198 0.510551 0
M  V30 13347 O 1235.05 1.39968 1.37062 0
M  V30 13348 H 1233.63 0.658366 -0.352935 0
M  V30 13349 H 1236.29 1.26851 -1.47969 0
M  V30 13350 H 1235.39 2.79368 -1.39141 0
M  V30 13351 N 1235.69 0.975146 1.23809 0
M  V30 13352 C 1236.94 0.639858 1.91704 0
M  V30 13353 C 1237.26 -0.828557 1.76522 0
M  V30 13354 O 1236.53 -1.59217 1.14135 0
M  V30 13355 H 1235.11 0.233667 0.709513 0
M  V30 13356 H 1237.77 1.23782 1.50545 0
M  V30 13357 H 1236.87 0.886915 2.99233 0
M  V30 13358 N 1237.17 -1.38817 0.746158 0
M  V30 13359 C 1238.42 -1.99519 0.295839 0
M  V30 13360 C 1238.73 -1.59897 -1.12661 0
M  V30 13361 O 1239.94 -2.13514 -1.67702 0
M  V30 13362 C 1238.39 -3.56712 0.477984 0
M  V30 13363 C 1238 -4.0529 1.90904 0
M  V30 13364 C 1239.75 -4.24405 0.0900039 0
M  V30 13365 C 1237.65 -5.55097 2.04014 0
M  V30 13366 H 1236.58 -0.746389 0.106861 0
M  V30 13367 H 1239.23 -1.58676 0.921637 0
M  V30 13368 H 1237.62 -3.95406 -0.216884 0
M  V30 13369 H 1238.79 -3.77904 2.63677 0
M  V30 13370 H 1237.1 -3.50297 2.25125 0
M  V30 13371 H 1239.7 -5.3444 0.16682 0
M  V30 13372 H 1240.04 -4.05166 -0.956349 0
M  V30 13373 H 1240.58 -3.90924 0.736446 0
M  V30 13374 H 1237.32 -5.7923 3.06877 0
M  V30 13375 H 1236.84 -5.8425 1.35692 0
M  V30 13376 H 1238.52 -6.20682 1.82656 0
M  V30 13377 N 1238.65 -0.49465 -1.49636 0
M  V30 13378 C 1239.89 0.0521172 -2.02433 0
M  V30 13379 C 1240.22 1.37579 -1.37485 0
M  V30 13380 O 1239.48 1.8927 -0.497538 0
M  V30 13381 C 1239.78 0.259743 -3.56455 0
M  V30 13382 C 1239.44 -0.985143 -4.40007 0
M  V30 13383 C 1238.1 -1.3264 -4.62558 0
M  V30 13384 C 1240.46 -1.81291 -4.88654 0
M  V30 13385 C 1237.78 -2.49506 -5.31003 0
M  V30 13386 C 1240.14 -2.97305 -5.58384 0
M  V30 13387 C 1238.8 -3.31818 -5.79183 0
M  V30 13388 H 1238.07 0.0190711 -0.740755 0
M  V30 13389 H 1240.72 -0.653519 -1.80004 0
M  V30 13390 H 1239.02 1.04785 -3.77528 0
M  V30 13391 H 1240.72 0.697146 -3.94893 0
M  V30 13392 H 1237.31 -0.709313 -4.2269 0
M  V30 13393 H 1241.49 -1.56242 -4.71065 0
M  V30 13394 H 1236.75 -2.76491 -5.4531 0
M  V30 13395 H 1240.92 -3.61777 -5.95055 0
M  V30 13396 H 1238.55 -4.22478 -6.31994 0
M  V30 13397 N 1240.13 1.55939 -0.228214 0
M  V30 13398 C 1241.37 1.97652 0.402067 0
M  V30 13399 C 1241.69 1.11911 1.60422 0
M  V30 13400 O 1242.89 1.43552 2.30445 0
M  V30 13401 C 1241.35 3.51638 0.766724 0
M  V30 13402 C 1240.96 4.46092 -0.412991 0
M  V30 13403 C 1242.7 4.02049 1.36224 0
M  V30 13404 C 1240.61 5.91394 -0.0255281 0
M  V30 13405 H 1239.54 0.738107 0.153994 0
M  V30 13406 H 1242.19 1.8059 -0.32548 0
M  V30 13407 H 1240.57 3.64325 1.55188 0
M  V30 13408 H 1241.75 4.45156 -1.19049 0
M  V30 13409 H 1240.06 4.0606 -0.92218 0
M  V30 13410 H 1242.66 5.08111 1.66514 0
M  V30 13411 H 1243 3.48292 2.28032 0
M  V30 13412 H 1243.53 3.92612 0.640378 0
M  V30 13413 H 1240.27 6.49149 -0.910269 0
M  V30 13414 H 1239.79 5.95509 0.716149 0
M  V30 13415 H 1241.47 6.4577 0.398839 0
M  V30 13416 N 1241.6 -0.0451101 1.57535 0
M  V30 13417 C 1242.85 -0.740209 1.88809 0
M  V30 13418 C 1243.18 -1.75854 0.823956 0
M  V30 13419 O 1242.46 -1.93817 -0.16286 0
M  V30 13420 C 1242.74 -1.42424 3.30737 0
M  V30 13421 C 1242.59 -0.42052 4.4783 0
M  V30 13422 C 1243.91 -2.36241 3.7132 0
M  V30 13423 H 1241.03 -0.267628 0.686691 0
M  V30 13424 H 1243.67 -0.00309149 1.9 0
M  V30 13425 H 1241.82 -2.05254 3.29853 0
M  V30 13426 H 1243.5 0.204625 4.60846 0
M  V30 13427 H 1241.74 0.261739 4.3301 0
M  V30 13428 H 1242.41 -0.937298 5.43984 0
M  V30 13429 H 1244.89 -1.83468 3.73468 0
M  V30 13430 H 1243.76 -2.81091 4.71465 0
M  V30 13431 H 1244.02 -3.2222 3.02699 0
M  V30 13432 N 1243.08 -1.54377 -0.317073 0
M  V30 13433 C 1244.01 -1.8721 -1.39552 0
M  V30 13434 C 1244.99 -0.729483 -1.53664 0
M  V30 13435 O 1246.18 -0.983799 -1.67437 0
M  V30 13436 C 1243.31 -2.1052 -2.76222 0
M  V30 13437 C 1242.26 -3.26366 -2.76892 0
M  V30 13438 C 1241.59 -3.35061 -4.16699 0
M  V30 13439 C 1242.89 -4.63862 -2.40061 0
M  V30 13440 H 1244.58 -2.77532 -1.12323 0
M  V30 13441 H 1242.13 -1.33536 -0.538897 0
M  V30 13442 H 1244.08 -2.32073 -3.51739 0
M  V30 13443 H 1242.81 -1.16953 -3.04942 0
M  V30 13444 H 1241.46 -3.0471 -2.03831 0
M  V30 13445 H 1241.11 -2.39041 -4.4257 0
M  V30 13446 H 1240.81 -4.12923 -4.18053 0
M  V30 13447 H 1242.34 -3.58856 -4.94019 0
M  V30 13448 H 1243.75 -4.85252 -3.05292 0
M  V30 13449 H 1242.15 -5.44321 -2.52655 0
M  V30 13450 H 1243.22 -4.6567 -1.35202 0
M  V30 13451 N 1244.56 0.579466 -1.4656 0
M  V30 13452 C 1245.52 1.67033 -1.56948 0
M  V30 13453 C 1246.52 1.54481 -0.446361 0
M  V30 13454 O 1247.71 1.5904 -0.710767 0
M  V30 13455 C 1244.85 3.06474 -1.49286 0
M  V30 13456 H 1246.04 1.59179 -2.54169 0
M  V30 13457 H 1243.59 0.797573 -1.34419 0
M  V30 13458 H 1244.33 3.1988 -0.533572 0
M  V30 13459 H 1244.11 3.16993 -2.30776 0
M  V30 13460 H 1245.6 3.85879 -1.59648 0
M  V30 13461 N 1246.04 1.3432 0.824371 0
M  V30 13462 C 1247 1.25672 1.91675 0
M  V30 13463 C 1248 0.172269 1.59875 0
M  V30 13464 O 1249.19 0.424794 1.68941 0
M  V30 13465 C 1246.32 0.939928 3.27686 0
M  V30 13466 H 1247.52 2.22785 2.00766 0
M  V30 13467 H 1245.07 1.18587 1.01817 0
M  V30 13468 H 1245.8 -0.0280898 3.24288 0
M  V30 13469 H 1245.59 1.72432 3.5215 0
M  V30 13470 H 1247.08 0.904553 4.07686 0
M  V30 13471 N 1247.52 -1.0444 1.18026 0
M  V30 13472 C 1248.76 -1.77224 0.971391 0
M  V30 13473 C 1249.09 -1.88466 -0.500564 0
M  V30 13474 O 1248.36 -1.40692 -1.36317 0
M  V30 13475 H 1246.94 -0.656485 0.356422 0
M  V30 13476 H 1249.6 -1.26064 1.4864 0
M  V30 13477 H 1248.69 -2.78626 1.4062 0
M  V30 13478 N 1248.99 -0.981699 -1.2329 0
M  V30 13479 C 1249.92 -0.542441 -2.27112 0
M  V30 13480 C 1250.91 0.425034 -1.64704 0
M  V30 13481 O 1252.09 0.318114 -1.91577 0
M  V30 13482 C 1249.22 0.154668 -3.46955 0
M  V30 13483 C 1248.17 -0.73022 -4.21725 0
M  V30 13484 C 1247.5 0.0991766 -5.34608 0
M  V30 13485 C 1248.8 -2.02166 -4.81587 0
M  V30 13486 H 1250.49 -1.41024 -2.64107 0
M  V30 13487 H 1248.04 -0.679544 -1.26957 0
M  V30 13488 H 1249.99 0.473281 -4.18734 0
M  V30 13489 H 1248.72 1.05693 -3.09025 0
M  V30 13490 H 1247.38 -1.03231 -3.51765 0
M  V30 13491 H 1247.02 1.00201 -4.92919 0
M  V30 13492 H 1246.72 -0.489788 -5.85555 0
M  V30 13493 H 1248.25 0.412141 -6.09207 0
M  V30 13494 H 1249.66 -1.76773 -5.45366 0
M  V30 13495 H 1248.06 -2.55851 -5.42826 0
M  V30 13496 H 1249.13 -2.70766 -4.02261 0
M  V30 13497 N 1250.47 1.3842 -0.753509 0
M  V30 13498 C 1251.72 2.00415 -0.310091 0
M  V30 13499 C 1252.05 1.59675 1.10532 0
M  V30 13500 O 1251.33 0.834261 1.757 0
M  V30 13501 C 1251.61 3.57488 -0.432897 0
M  V30 13502 C 1251.46 4.08193 -1.88941 0
M  V30 13503 C 1252.78 4.39757 0.173763 0
M  V30 13504 H 1249.9 0.728107 -0.114147 0
M  V30 13505 H 1252.54 1.64363 -0.953138 0
M  V30 13506 H 1250.69 3.88331 0.114563 0
M  V30 13507 H 1252.36 3.87993 -2.49517 0
M  V30 13508 H 1250.61 3.61063 -2.4045 0
M  V30 13509 H 1251.28 5.17291 -1.9265 0
M  V30 13510 H 1253.75 4.15066 -0.293137 0
M  V30 13511 H 1252.63 5.4887 0.057594 0
M  V30 13512 H 1252.89 4.23704 1.26205 0
M  V30 13513 N 1251.95 0.502579 1.49372 0
M  V30 13514 C 1252.88 -0.264307 2.31999 0
M  V30 13515 C 1253.86 -0.96107 1.40348 0
M  V30 13516 O 1255.05 -0.952167 1.69255 0
M  V30 13517 C 1252.18 -1.32822 3.20898 0
M  V30 13518 C 1251.13 -0.751236 4.21355 0
M  V30 13519 C 1250.46 -1.91578 4.99201 0
M  V30 13520 C 1251.76 0.258764 5.21659 0
M  V30 13521 H 1253.45 0.425391 2.96363 0
M  V30 13522 H 1251 0.206022 1.42519 0
M  V30 13523 H 1252.95 -1.87245 3.77515 0
M  V30 13524 H 1251.67 -2.04712 2.54481 0
M  V30 13525 H 1250.33 -0.228743 3.65886 0
M  V30 13526 H 1249.98 -2.62241 4.2923 0
M  V30 13527 H 1249.68 -1.53578 5.67175 0
M  V30 13528 H 1251.2 -2.46432 5.58663 0
M  V30 13529 H 1252.62 -0.197385 5.7296 0
M  V30 13530 H 1251.02 0.554681 5.97531 0
M  V30 13531 H 1252.09 1.1741 4.70471 0
M  V30 13532 N 1253.43 -1.55816 0.23648 0
M  V30 13533 C 1254.65 -2.03534 -0.398575 0
M  V30 13534 C 1255.08 -1.11488 -1.51499 0
M  V30 13535 O 1254.44 -0.105848 -1.80991 0
M  V30 13536 C 1254.48 -3.49356 -0.893467 0
M  V30 13537 O 1253.59 -3.60446 -2.00381 0
M  V30 13538 H 1252.93 -0.658102 -0.0883021 0
M  V30 13539 H 1255.46 -2.01417 0.359488 0
M  V30 13540 H 1255.47 -3.89972 -1.19941 0
M  V30 13541 H 1254.14 -4.1583 -0.0764388 0
M  V30 13542 H 1252.72 -3.31723 -1.70336 0
M  V30 13543 N 1254.91 0.036755 -1.57557 0
M  V30 13544 C 1256.15 0.730186 -1.89199 0
M  V30 13545 C 1256.49 1.75414 -0.833271 0
M  V30 13546 O 1255.76 1.93901 0.152579 0
M  V30 13547 C 1256.04 1.40669 -3.31488 0
M  V30 13548 C 1255.9 0.396764 -4.48047 0
M  V30 13549 C 1257.22 2.34268 -3.72567 0
M  V30 13550 H 1254.33 0.263983 -0.6881 0
M  V30 13551 H 1256.98 -0.0069847 -1.89999 0
M  V30 13552 H 1255.13 2.03502 -3.30937 0
M  V30 13553 H 1256.8 -0.229062 -4.60731 0
M  V30 13554 H 1255.04 -0.284698 -4.32865 0
M  V30 13555 H 1255.71 0.908436 -5.44474 0
M  V30 13556 H 1258.19 1.81485 -3.74436 0
M  V30 13557 H 1257.06 2.78587 -4.72949 0
M  V30 13558 H 1257.33 3.20611 -3.04403 0
M  V30 13559 N 1256.39 1.54543 0.308881 0
M  V30 13560 C 1257.63 1.73449 1.04506 0
M  V30 13561 C 1257.96 0.516034 1.8753 0
M  V30 13562 O 1257.22 -0.502106 1.89149 0
M  V30 13563 C 1257.51 2.97124 1.98626 0
M  V30 13564 C 1257.18 4.31256 1.31641 0
M  V30 13565 C 1255.84 4.67719 1.13105 0
M  V30 13566 C 1258.19 5.14437 0.836888 0
M  V30 13567 C 1255.52 5.84949 0.452878 0
M  V30 13568 C 1257.87 6.32365 0.172473 0
M  V30 13569 C 1256.54 6.67495 -0.0249143 0
M  V30 13570 H 1255.81 0.634697 0.382415 0
M  V30 13571 H 1258.46 1.88795 0.320714 0
M  V30 13572 H 1256.76 2.76526 2.77562 0
M  V30 13573 H 1258.46 3.08946 2.55643 0
M  V30 13574 H 1255.05 4.02576 1.47074 0
M  V30 13575 H 1259.23 4.86772 0.967834 0
M  V30 13576 H 1254.49 6.10717 0.288886 0
M  V30 13577 H 1258.66 6.96092 -0.207027 0
M  V30 13578 H 1256.29 7.5819 -0.552425 0
M  V30 13579 N 1257.86 -0.571685 1.46866 0
M  V30 13580 C 1259.11 -1.33145 1.52972 0
M  V30 13581 C 1259.44 -1.93314 0.185344 0
M  V30 13582 O 1258.72 -1.77083 -0.80447 0
M  V30 13583 C 1259 -2.4525 2.63675 0
M  V30 13584 C 1258.85 -1.90044 4.0768 0
M  V30 13585 C 1260.17 -3.47247 2.70384 0
M  V30 13586 H 1257.29 -0.482751 0.556885 0
M  V30 13587 H 1259.93 -0.641163 1.78855 0
M  V30 13588 H 1258.08 -3.04132 2.41735 0
M  V30 13589 H 1259.76 -1.35535 4.4094 0
M  V30 13590 H 1258 -1.20805 4.1664 0
M  V30 13591 H 1258.67 -2.71019 4.80887 0
M  V30 13592 H 1261.15 -2.98263 2.90135 0
M  V30 13593 H 1260.02 -4.23132 3.49643 0
M  V30 13594 H 1260.28 -4.05179 1.76868 0
M  V30 13595 N 1259.34 -1.34755 -0.817236 0
M  V30 13596 C 1260.3 -1.26687 -1.91006 0
M  V30 13597 C 1261.3 -0.180745 -1.59781 0
M  V30 13598 O 1262.49 -0.433748 -1.68714 0
M  V30 13599 C 1259.63 -0.957293 -3.27183 0
M  V30 13600 H 1260.82 -2.23846 -1.99582 0
M  V30 13601 H 1258.37 -1.19125 -1.01187 0
M  V30 13602 H 1259.11 0.0108917 -3.24298 0
M  V30 13603 H 1258.89 -1.74297 -3.5123 0
M  V30 13604 H 1260.38 -0.926161 -4.072 0
M  V30 13605 N 1260.82 1.03812 -1.18578 0
M  V30 13606 C 1262.07 1.76455 -0.977071 0
M  V30 13607 C 1262.38 1.8926 0.493964 0
M  V30 13608 O 1263.59 2.58781 0.821256 0
M  V30 13609 C 1262.04 3.17264 -1.69917 0
M  V30 13610 C 1261.65 3.12543 -3.20969 0
M  V30 13611 C 1263.4 3.94266 -1.57337 0
M  V30 13612 C 1261.3 4.48226 -3.85807 0
M  V30 13613 H 1260.23 0.661445 -0.361949 0
M  V30 13614 H 1262.88 1.16252 -1.41978 0
M  V30 13615 H 1261.27 3.77878 -1.18424 0
M  V30 13616 H 1262.44 2.61364 -3.79507 0
M  V30 13617 H 1260.75 2.49039 -3.33719 0
M  V30 13618 H 1263.35 4.9461 -2.03137 0
M  V30 13619 H 1263.69 4.12963 -0.526033 0
M  V30 13620 H 1264.23 3.40232 -2.06124 0
M  V30 13621 H 1260.97 4.34734 -4.90599 0
M  V30 13622 H 1260.49 4.99497 -3.32058 0
M  V30 13623 H 1262.17 5.17135 -3.88819 0
M  V30 13624 N 1262.3 0.988223 1.22768 0
M  V30 13625 C 1263.55 0.660154 1.91014 0
M  V30 13626 C 1263.87 -0.809788 1.77391 0
M  V30 13627 O 1263.14 -1.57998 1.15817 0
M  V30 13628 H 1261.72 0.24118 0.706995 0
M  V30 13629 H 1264.38 1.25372 1.49224 0
M  V30 13630 H 1263.47 0.918603 2.98275 0
M  V30 13631 N 1263.78 -1.38018 0.760839 0
M  V30 13632 C 1264.69 -2.34181 0.140232 0
M  V30 13633 C 1265.7 -1.59635 -0.692287 0
M  V30 13634 O 1266.88 -1.91788 -0.614752 0
M  V30 13635 C 1263.94 -3.38778 -0.73693 0
M  V30 13636 C 1263 -4.29157 0.110792 0
M  V30 13637 C 1262.24 -5.28758 -0.724599 0
M  V30 13638 O 1262.46 -5.35585 -1.96226 0
M  V30 13639 O 1261.39 -6.01738 -0.139565 0
M  V30 13640 H 1265.22 -2.88962 0.934588 0
M  V30 13641 H 1262.8 -1.3999 0.521835 0
M  V30 13642 H 1264.69 -4.02804 -1.23803 0
M  V30 13643 H 1263.36 -2.86341 -1.50966 0
M  V30 13644 H 1262.27 -3.68268 0.658007 0
M  V30 13645 H 1263.6 -4.84869 0.846346 0
M  V30 13646 N 1265.25 -0.510493 -1.49103 0
M  V30 13647 C 1266.5 0.0306436 -2.02477 0
M  V30 13648 C 1266.83 1.36113 -1.38937 0
M  V30 13649 O 1266.08 1.88731 -0.517584 0
M  V30 13650 C 1266.38 0.221921 -3.5671 0
M  V30 13651 C 1266.05 -1.03176 -4.38937 0
M  V30 13652 C 1264.71 -1.37539 -4.61125 0
M  V30 13653 C 1267.06 -1.86464 -4.86704 0
M  V30 13654 C 1264.39 -2.55124 -5.28326 0
M  V30 13655 C 1266.74 -3.03211 -5.55199 0
M  V30 13656 C 1265.41 -3.37943 -5.75631 0
M  V30 13657 H 1264.68 0.0112133 -0.740915 0
M  V30 13658 H 1267.32 -0.672574 -1.79301 0
M  V30 13659 H 1265.63 1.00775 -3.78618 0
M  V30 13660 H 1267.33 0.655223 -3.95611 0
M  V30 13661 H 1263.92 -0.754105 -4.21914 0
M  V30 13662 H 1268.1 -1.61229 -4.69381 0
M  V30 13663 H 1263.36 -2.8226 -5.42346 0
M  V30 13664 H 1267.53 -3.68068 -5.91185 0
M  V30 13665 H 1265.16 -4.29158 -6.27477 0
M  V30 13666 N 1266.73 1.55688 -0.24474 0
M  V30 13667 C 1267.98 1.98067 0.381081 0
M  V30 13668 C 1268.29 1.13606 1.59227 0
M  V30 13669 O 1269.5 1.45988 2.2891 0
M  V30 13670 C 1267.96 3.52432 0.729385 0
M  V30 13671 C 1267.56 4.45629 -0.460282 0
M  V30 13672 C 1269.31 4.03471 1.31952 0
M  V30 13673 C 1267.21 5.91334 -0.088252 0
M  V30 13674 H 1266.14 0.739699 0.146157 0
M  V30 13675 H 1268.8 1.80235 -0.344615 0
M  V30 13676 H 1267.18 3.65951 1.51315 0
M  V30 13677 H 1268.35 4.43868 -1.23764 0
M  V30 13678 H 1266.67 4.05059 -0.965197 0
M  V30 13679 H 1269.26 5.09849 1.61116 0
M  V30 13680 H 1269.61 3.50691 2.24325 0
M  V30 13681 H 1270.14 3.93269 0.5987 0
M  V30 13682 H 1266.88 6.48147 -0.979069 0
M  V30 13683 H 1266.4 5.96235 0.652947 0
M  V30 13684 H 1268.08 6.46156 0.330324 0
M  V30 13685 N 1268.21 -0.0283989 1.57574 0
M  V30 13686 C 1269.44 -0.729772 1.93282 0
M  V30 13687 C 1269.85 -1.69384 0.842959 0
M  V30 13688 O 1269.19 -1.82722 -0.189286 0
M  V30 13689 C 1269.25 -1.54107 3.24794 0
M  V30 13690 C 1268.92 -0.741709 4.50941 0
M  V30 13691 C 1269.91 -0.0416985 5.19883 0
M  V30 13692 C 1267.6 -0.696053 4.97454 0
M  V30 13693 C 1269.59 0.693261 6.33619 0
M  V30 13694 C 1267.28 0.042651 6.11085 0
M  V30 13695 C 1268.28 0.736067 6.79022 0
M  V30 13696 O 1267.97 1.46278 7.9048 0
M  V30 13697 H 1267.7 -0.210092 0.642524 0
M  V30 13698 H 1270.25 0.0102277 2.05397 0
M  V30 13699 H 1268.48 -2.3249 3.09007 0
M  V30 13700 H 1270.17 -2.12512 3.45823 0
M  V30 13701 H 1270.94 -0.0679975 4.84952 0
M  V30 13702 H 1266.82 -1.22528 4.44419 0
M  V30 13703 H 1270.36 1.23504 6.8658 0
M  V30 13704 H 1266.26 0.0708708 6.45461 0
M  V30 13705 H 1267.02 1.37652 8.06842 0
M  V30 13706 N 1269.69 -1.54705 -0.300681 0
M  V30 13707 C 1270.63 -1.85678 -1.37084 0
M  V30 13708 C 1271.6 -0.70573 -1.50362 0
M  V30 13709 O 1272.79 -0.954385 -1.65215 0
M  V30 13710 C 1269.93 -2.10995 -2.73084 0
M  V30 13711 C 1269.04 -3.38621 -2.68254 0
M  V30 13712 C 1268.18 -3.53779 -3.9625 0
M  V30 13713 C 1267.22 -4.75195 -3.85818 0
M  V30 13714 N 1266.35 -4.87157 -5.05591 0
M  V30 13715 H 1271.19 -2.76967 -1.09971 0
M  V30 13716 H 1268.73 -1.37147 -0.531887 0
M  V30 13717 H 1270.69 -2.23669 -3.52176 0
M  V30 13718 H 1269.32 -1.22973 -2.98458 0
M  V30 13719 H 1268.37 -3.34566 -1.81025 0
M  V30 13720 H 1269.68 -4.27834 -2.56436 0
M  V30 13721 H 1268.84 -3.66119 -4.83779 0
M  V30 13722 H 1267.58 -2.62699 -4.10902 0
M  V30 13723 H 1266.58 -4.62888 -2.96673 0
M  V30 13724 H 1267.81 -5.67683 -3.72711 0
M  V30 13725 H 1265.75 -3.99001 -5.20706 0
M  V30 13726 H 1265.67 -5.70372 -4.96197 0
M  V30 13727 H 1266.94 -5.03854 -5.9477 0
M  V30 13728 N 1271.17 0.563888 -1.47167 0
M  V30 13729 C 1272.39 1.35176 -1.57297 0
M  V30 13730 C 1272.82 1.86794 -0.221235 0
M  V30 13731 O 1272.17 1.62606 0.801809 0
M  V30 13732 C 1272.22 2.50225 -2.59654 0
M  V30 13733 O 1271.33 3.5225 -2.14461 0
M  V30 13734 H 1270.67 0.401795 -0.528637 0
M  V30 13735 H 1273.2 0.682137 -1.92894 0
M  V30 13736 H 1273.21 2.96886 -2.79862 0
M  V30 13737 H 1271.88 2.1201 -3.57805 0
M  V30 13738 H 1270.46 3.1194 -2.04323 0
M  V30 13739 N 1272.64 1.35187 0.810078 0
M  V30 13740 C 1274.06 1.15149 1.10512 0
M  V30 13741 C 1274.26 -0.038394 2.01463 0
M  V30 13742 O 1273.32 -0.710056 2.42311 0
M  V30 13743 C 1274.63 2.45282 1.73946 0
M  V30 13744 C 1276.18 2.51457 1.86382 0
M  V30 13745 C 1276.65 3.81625 2.53232 0
M  V30 13746 N 1278.14 3.82856 2.6072 0
M  V30 13747 C 1278.88 4.80302 3.13206 0
M  V30 13748 N 1278.37 5.88134 3.66156 0
M  V30 13749 N 1280.17 4.67743 3.11726 0
M  V30 13750 H 1272.32 2.11405 0.205391 0
M  V30 13751 H 1274.58 0.935457 0.153702 0
M  V30 13752 H 1274.29 3.32512 1.14582 0
M  V30 13753 H 1274.16 2.59573 2.73682 0
M  V30 13754 H 1276.55 1.64659 2.44891 0
M  V30 13755 H 1276.63 2.41084 0.855113 0
M  V30 13756 H 1276.27 4.68819 1.95375 0
M  V30 13757 H 1276.2 3.89285 3.54633 0
M  V30 13758 H 1278.69 3.04941 2.23203 0
M  V30 13759 H 1279.01 6.58487 4.04494 0
M  V30 13760 H 1277.35 5.91831 3.64364 0
M  V30 13761 H 1280.54 3.82642 2.69635 0
M  V30 13762 H 1280.72 5.43849 3.52324 0
M  V30 13763 N 1274.12 -1.03182 1.19127 0
M  V30 13764 C 1275.07 -2.11394 0.926339 0
M  V30 13765 C 1276.04 -1.65528 -0.137703 0
M  V30 13766 O 1277.22 -1.908 0.00381804 0
M  V30 13767 C 1274.36 -3.41913 0.467894 0
M  V30 13768 C 1273.48 -4.01343 1.59837 0
M  V30 13769 C 1272.61 -5.1986 1.09175 0
M  V30 13770 C 1271.65 -5.71339 2.19632 0
M  V30 13771 N 1270.79 -6.81133 1.703 0
M  V30 13772 H 1275.63 -2.33393 1.85288 0
M  V30 13773 H 1273.17 -1.14473 0.923811 0
M  V30 13774 H 1275.12 -4.16796 0.183513 0
M  V30 13775 H 1273.75 -3.20034 -0.421656 0
M  V30 13776 H 1272.81 -3.23702 1.99803 0
M  V30 13777 H 1274.12 -4.35568 2.43068 0
M  V30 13778 H 1273.27 -6.0189 0.762427 0
M  V30 13779 H 1272.01 -4.87161 0.22914 0
M  V30 13780 H 1271.02 -4.87923 2.53399 0
M  V30 13781 H 1272.24 -6.06078 3.06344 0
M  V30 13782 H 1270.19 -6.50293 0.863415 0
M  V30 13783 H 1270.1 -7.1447 2.47122 0
M  V30 13784 H 1271.37 -7.66766 1.40321 0
M  V30 13785 N 1275.6 -0.99472 -1.22242 0
M  V30 13786 C 1276.55 -0.53946 -2.26258 0
M  V30 13787 C 1277.54 0.410796 -1.64344 0
M  V30 13788 O 1278.75 0.283116 -1.7776 0
M  V30 13789 H 1275.12 -0.156069 -0.735627 0
M  V30 13790 H 1277.09 -1.42814 -2.62005 0
M  V30 13791 C 1275.84 0.12842 -3.47463 0
M  V30 13792 H 1275.17 -0.593727 -3.95367 0
M  V30 13793 H 1276.61 0.410393 -4.22009 0
M  V30 13794 C 1275.07 1.36433 -3.08038 0
M  V30 13795 O 1275.6 2.45953 -3.176 0
M  V30 13796 N 1273.8 1.24026 -2.62804 0
M  V30 13797 H 1273.35 0.349111 -2.55223 0
M  V30 13798 H 1273.31 2.06824 -2.36794 0
M  V30 13799 N 1277.08 1.37613 -0.768148 0
M  V30 13800 C 1278.03 2.3218 -0.13974 0
M  V30 13801 C 1279.02 1.54754 0.689023 0
M  V30 13802 O 1280.23 1.70177 0.586489 0
M  V30 13803 H 1276.6 0.751536 -0.0264001 0
M  V30 13804 H 1278.57 2.82768 -0.953139 0
M  V30 13805 C 1277.32 3.39997 0.727829 0
M  V30 13806 H 1276.64 3.99676 0.0994851 0
M  V30 13807 H 1278.08 4.08538 1.13456 0
M  V30 13808 C 1276.54 2.79778 1.87686 0
M  V30 13809 O 1277.07 2.70241 2.97208 0
M  V30 13810 N 1275.28 2.37373 1.67637 0
M  V30 13811 H 1274.83 2.4533 0.785552 0
M  V30 13812 H 1274.78 1.97426 2.44684 0
M  V30 13813 N 1278.56 0.518393 1.4883 0
M  V30 13814 C 1279.83 -0.0837498 1.95421 0
M  V30 13815 C 1280.21 -1.52435 1.46037 0
M  V30 13816 O 1279.56 -2.18093 0.681736 0
M  V30 13817 C 1279.77 0.0215333 3.48993 0
M  V30 13818 C 1281.12 -0.143615 4.24357 0
M  V30 13819 O 1282.14 -0.0528223 3.56161 0
M  V30 13820 O 1281 -0.332231 5.45489 0
M  V30 13821 H 1278.1 -0.0857132 0.822546 0
M  V30 13822 H 1280.64 0.582169 1.59402 0
M  V30 13823 H 1279.41 1.02549 3.77623 0
M  V30 13824 H 1279.04 -0.683756 3.91677 0
M  V30 13825 N 1280.03 -1.55556 0.252993 0
M  V30 13826 C 1281.28 -1.98267 -0.370571 0
M  V30 13827 C 1281.6 -1.14449 -1.58622 0
M  V30 13828 O 1282.8 -1.472 -2.28132 0
M  V30 13829 C 1281.26 -3.52813 -0.710685 0
M  V30 13830 C 1280.87 -4.45379 0.483908 0
M  V30 13831 C 1282.61 -4.04165 -1.2981 0
M  V30 13832 C 1280.52 -5.91279 0.119611 0
M  V30 13833 H 1279.45 -0.740463 -0.142232 0
M  V30 13834 H 1282.1 -1.8005 0.354169 0
M  V30 13835 H 1280.48 -3.66748 -1.49372 0
M  V30 13836 H 1281.65 -4.43206 1.26116 0
M  V30 13837 H 1279.97 -4.04542 0.986664 0
M  V30 13838 H 1282.57 -5.10696 -1.5841 0
M  V30 13839 H 1282.91 -3.51875 -2.22462 0
M  V30 13840 H 1283.44 -3.93581 -0.577836 0
M  V30 13841 H 1280.18 -6.47619 1.01343 0
M  V30 13842 H 1279.7 -5.96573 -0.621318 0
M  V30 13843 H 1281.38 -6.46322 -0.296052 0
M  V30 13844 N 1281.51 0.0200419 -1.57587 0
M  V30 13845 C 1282.42 1.0346 -2.10555 0
M  V30 13846 C 1283.44 1.39035 -1.0462 0
M  V30 13847 O 1284.61 1.48172 -1.36407 0
M  V30 13848 C 1281.68 2.31389 -2.58186 0
M  V30 13849 C 1280.74 2.02311 -3.7864 0
M  V30 13850 C 1279.97 3.24141 -4.23991 0
M  V30 13851 O 1280.2 4.35132 -3.68803 0
M  V30 13852 O 1279.13 3.09312 -5.16342 0
M  V30 13853 H 1282.96 0.614419 -2.9742 0
M  V30 13854 H 1280.54 0.237604 -1.47498 0
M  V30 13855 H 1282.42 3.06582 -2.89112 0
M  V30 13856 H 1281.1 2.72684 -1.74428 0
M  V30 13857 H 1280.01 1.24658 -3.5272 0
M  V30 13858 H 1281.34 1.65866 -4.6341 0
M  V30 13859 N 1282.99 1.54862 0.292472 0
M  V30 13860 C 1283.92 1.82786 1.38282 0
M  V30 13861 C 1284.94 0.711253 1.46441 0
M  V30 13862 O 1286.12 0.988851 1.48607 0
M  V30 13863 C 1283.22 1.95845 2.76582 0
M  V30 13864 C 1282.4 3.2633 2.91252 0
M  V30 13865 C 1281.46 3.29697 4.10105 0
M  V30 13866 O 1280.48 4.03184 4.01785 0
M  V30 13867 N 1281.68 2.557 5.21151 0
M  V30 13868 H 1284.45 2.76891 1.1468 0
M  V30 13869 H 1282.01 1.54541 0.482561 0
M  V30 13870 H 1284 1.95491 3.54352 0
M  V30 13871 H 1282.57 1.08696 2.93094 0
M  V30 13872 H 1281.79 3.39387 2.00525 0
M  V30 13873 H 1283.08 4.12421 2.9797 0
M  V30 13874 H 1282.48 1.95642 5.30792 0
M  V30 13875 H 1281.04 2.61089 5.97223 0
M  V30 13876 N 1284.47 -0.556076 1.47464 0
M  V30 13877 C 1285.43 -1.64515 1.59586 0
M  V30 13878 C 1286.43 -1.53751 0.470881 0
M  V30 13879 O 1287.62 -1.57889 0.735979 0
M  V30 13880 C 1284.75 -3.0406 1.54143 0
M  V30 13881 H 1285.95 -1.55116 2.56669 0
M  V30 13882 H 1283.5 -0.776087 1.35671 0
M  V30 13883 H 1284.23 -3.18991 0.584395 0
M  V30 13884 H 1284.02 -3.13282 2.3579 0
M  V30 13885 H 1285.51 -3.8329 1.65766 0
M  V30 13886 N 1285.95 -1.35615 -0.802897 0
M  V30 13887 C 1287.19 -1.29094 -1.56016 0
M  V30 13888 C 1287.52 0.133617 -1.9404 0
M  V30 13889 O 1286.78 1.09975 -1.61876 0
M  V30 13890 C 1287.08 -2.14653 -2.8576 0
M  V30 13891 C 1286.74 -3.63395 -2.66936 0
M  V30 13892 C 1285.4 -4.03937 -2.61511 0
M  V30 13893 C 1287.76 -4.57758 -2.49212 0
M  V30 13894 C 1285.08 -5.37006 -2.36309 0
M  V30 13895 C 1287.44 -5.91029 -2.25539 0
M  V30 13896 C 1286.1 -6.30712 -2.18538 0
M  V30 13897 H 1285.37 -0.472387 -0.570904 0
M  V30 13898 H 1288.02 -1.67545 -0.92741 0
M  V30 13899 H 1286.32 -1.69095 -3.53432 0
M  V30 13900 H 1288.02 -2.06941 -3.43477 0
M  V30 13901 H 1284.61 -3.31224 -2.72009 0
M  V30 13902 H 1288.79 -4.27318 -2.52414 0
M  V30 13903 H 1284.05 -5.66748 -2.29361 0
M  V30 13904 H 1288.22 -6.63724 -2.10816 0
M  V30 13905 H 1285.85 -7.33753 -1.98772 0
M  V30 13906 N 1287.43 1.02549 -1.19673 0
M  V30 13907 C 1288.67 1.77554 -1.01261 0
M  V30 13908 C 1289.03 1.86692 0.448357 0
M  V30 13909 O 1290.23 2.58055 0.752386 0
M  V30 13910 C 1288.5 3.16132 -1.66719 0
M  V30 13911 S 1290.06 4.07285 -1.63291 0
M  V30 13912 H 1286.88 0.611178 -0.363294 0
M  V30 13913 H 1289.48 1.22852 -1.52078 0
M  V30 13914 H 1288.18 3.07101 -2.72244 0
M  V30 13915 H 1287.72 3.7591 -1.15996 0
M  V30 13916 H 1289.73 4.91798 -0.659499 0
M  V30 13917 N 1288.9 1.00119 1.21713 0
M  V30 13918 C 1290.15 0.681723 1.9068 0
M  V30 13919 C 1290.48 -0.787121 1.77861 0
M  V30 13920 O 1289.73 -1.58573 1.14687 0
M  V30 13921 C 1290.03 1.04376 3.41819 0
M  V30 13922 C 1289.7 2.50624 3.74831 0
M  V30 13923 C 1288.36 2.90587 3.83552 0
M  V30 13924 C 1290.71 3.45377 3.90339 0
M  V30 13925 C 1288.04 4.24276 4.05225 0
M  V30 13926 C 1290.39 4.78734 4.13517 0
M  V30 13927 C 1289.06 5.18427 4.20464 0
M  V30 13928 H 1288.33 0.24946 0.697747 0
M  V30 13929 H 1290.97 1.25892 1.44304 0
M  V30 13930 H 1289.28 0.384756 3.89906 0
M  V30 13931 H 1290.98 0.774488 3.9345 0
M  V30 13932 H 1287.57 2.18651 3.68632 0
M  V30 13933 H 1291.75 3.15669 3.82971 0
M  V30 13934 H 1287.01 4.54605 4.08833 0
M  V30 13935 H 1291.18 5.52094 4.24459 0
M  V30 13936 H 1288.81 6.22034 4.3701 0
M  V30 13937 N 1290.38 -1.37203 0.775435 0
M  V30 13938 C 1291.63 -1.99601 0.341431 0
M  V30 13939 C 1291.96 -1.61555 -1.08306 0
M  V30 13940 O 1291.21 -0.855126 -1.76029 0
M  V30 13941 C 1291.51 -3.54725 0.436426 0
M  V30 13942 C 1291.18 -4.1255 1.8197 0
M  V30 13943 C 1289.84 -4.28056 2.19822 0
M  V30 13944 C 1292.19 -4.44222 2.7261 0
M  V30 13945 C 1289.52 -4.72538 3.47742 0
M  V30 13946 C 1291.87 -4.90131 3.99943 0
M  V30 13947 C 1290.53 -5.03842 4.37835 0
M  V30 13948 H 1289.8 -0.730391 0.124938 0
M  V30 13949 H 1292.45 -1.63914 0.990177 0
M  V30 13950 H 1290.76 -3.90681 -0.295852 0
M  V30 13951 H 1292.45 -4.00916 0.0818664 0
M  V30 13952 H 1289.04 -4.00911 1.51553 0
M  V30 13953 H 1293.23 -4.31824 2.44625 0
M  V30 13954 H 1288.48 -4.81341 3.76989 0
M  V30 13955 H 1292.66 -5.13604 4.70302 0
M  V30 13956 H 1290.28 -5.3807 5.37015 0
M  V30 13957 N 1291.86 -0.526279 -1.48553 0
M  V30 13958 C 1293.09 0.00522012 -2.06599 0
M  V30 13959 C 1293.5 1.29039 -1.38368 0
M  V30 13960 O 1292.84 1.77747 -0.463854 0
M  V30 13961 C 1292.9 0.303512 -3.58216 0
M  V30 13962 C 1292.57 -0.887635 -4.48297 0
M  V30 13963 C 1293.56 -1.78504 -4.88295 0
M  V30 13964 C 1291.25 -1.09359 -4.90251 0
M  V30 13965 C 1293.24 -2.87233 -5.69013 0
M  V30 13966 C 1290.93 -2.18402 -5.7074 0
M  V30 13967 C 1291.93 -3.07172 -6.10028 0
M  V30 13968 O 1291.62 -4.14329 -6.88902 0
M  V30 13969 H 1291.35 -0.0287033 -0.67539 0
M  V30 13970 H 1293.9 -0.730244 -1.91981 0
M  V30 13971 H 1292.13 1.0929 -3.70935 0
M  V30 13972 H 1293.82 0.776647 -3.98401 0
M  V30 13973 H 1294.59 -1.63785 -4.56508 0
M  V30 13974 H 1290.47 -0.411922 -4.59156 0
M  V30 13975 H 1294.01 -3.56549 -5.99599 0
M  V30 13976 H 1289.91 -2.33106 -6.0194 0
M  V30 13977 H 1290.67 -4.11993 -7.07251 0
M  V30 13978 N 1293.34 1.5542 -0.261239 0
M  V30 13979 C 1294.59 1.9889 0.358777 0
M  V30 13980 C 1294.91 1.15092 1.57413 0
M  V30 13981 O 1294.18 0.237095 1.9446 0
M  V30 13982 H 1292.76 0.734599 0.13555 0
M  V30 13983 H 1295.42 1.91483 -0.363357 0
M  V30 13984 H 1294.51 3.05082 0.658142 0
M  V30 13985 N 1294.82 -0.0116844 1.57596 0
M  V30 13986 C 1295.75 -1.00599 2.10718 0
M  V30 13987 C 1296.73 -1.36601 1.01362 0
M  V30 13988 O 1297.91 -1.4518 1.28982 0
M  V30 13989 C 1295.04 -2.30155 2.60089 0
M  V30 13990 C 1294 -2.08347 3.73866 0
M  V30 13991 C 1293.32 -3.43814 4.09507 0
M  V30 13992 C 1294.62 -1.45552 5.01609 0
M  V30 13993 H 1296.32 -0.563721 2.94045 0
M  V30 13994 H 1293.86 -0.269714 1.41452 0
M  V30 13995 H 1295.81 -3.00058 2.95877 0
M  V30 13996 H 1294.54 -2.76473 1.73868 0
M  V30 13997 H 1293.2 -1.40872 3.38453 0
M  V30 13998 H 1292.85 -3.87814 3.20326 0
M  V30 13999 H 1292.55 -3.30043 4.86154 0
M  V30 14000 H 1294.07 -4.15052 4.47844 0
M  V30 14001 H 1295.48 -2.05396 5.35243 0
M  V30 14002 H 1293.88 -1.42304 5.82983 0
M  V30 14003 H 1294.95 -0.423331 4.83049 0
M  V30 14004 N 1296.29 -1.55015 -0.284256 0
M  V30 14005 C 1297.23 -1.83517 -1.3731 0
M  V30 14006 C 1298.24 -0.719009 -1.46062 0
M  V30 14007 O 1299.43 -0.996719 -1.4808 0
M  V30 14008 C 1296.53 -1.97309 -2.7554 0
M  V30 14009 C 1295.7 -3.2787 -2.89517 0
M  V30 14010 C 1294.76 -3.31868 -4.08351 0
M  V30 14011 O 1293.79 -4.05309 -3.99642 0
M  V30 14012 N 1294.99 -2.5846 -5.19787 0
M  V30 14013 H 1297.75 -2.77495 -1.1321 0
M  V30 14014 H 1295.31 -1.54795 -0.474359 0
M  V30 14015 H 1297.31 -1.97367 -3.53311 0
M  V30 14016 H 1295.88 -1.10249 -2.92513 0
M  V30 14017 H 1295.1 -3.40445 -1.98722 0
M  V30 14018 H 1296.38 -4.13996 -2.95779 0
M  V30 14019 H 1295.78 -1.98455 -5.29747 0
M  V30 14020 H 1294.34 -2.64253 -5.9583 0
M  V30 14021 N 1297.77 0.548248 -1.47757 0
M  V30 14022 C 1299.01 1.31569 -1.56426 0
M  V30 14023 C 1299.38 1.90676 -0.225072 0
M  V30 14024 O 1300.58 2.68151 -0.186652 0
M  V30 14025 C 1298.85 2.38951 -2.65776 0
M  V30 14026 S 1300.41 3.25664 -2.94089 0
M  V30 14027 H 1297.22 0.447791 -0.552272 0
M  V30 14028 H 1299.83 0.626659 -1.85184 0
M  V30 14029 H 1298.53 1.93978 -3.61664 0
M  V30 14030 H 1298.06 3.12584 -2.38861 0
M  V30 14031 H 1300.08 4.38629 -2.31989 0
M  V30 14032 N 1299.25 1.36039 0.795694 0
M  V30 14033 C 1300.2 1.29853 1.90806 0
M  V30 14034 C 1301.17 0.168387 1.65244 0
M  V30 14035 O 1302.35 0.353879 1.8749 0
M  V30 14036 C 1299.49 1.08737 3.27521 0
M  V30 14037 C 1298.6 2.30771 3.65197 0
M  V30 14038 C 1297.74 2.02718 4.90998 0
M  V30 14039 C 1296.78 3.20746 5.21333 0
M  V30 14040 N 1295.92 2.92399 6.38316 0
M  V30 14041 H 1300.76 2.2497 1.95429 0
M  V30 14042 H 1298.29 1.11819 0.955771 0
M  V30 14043 H 1300.25 0.945236 4.06351 0
M  V30 14044 H 1298.88 0.172781 3.22337 0
M  V30 14045 H 1297.93 2.5581 2.81541 0
M  V30 14046 H 1299.24 3.18869 3.83568 0
M  V30 14047 H 1298.4 1.85398 5.77679 0
M  V30 14048 H 1297.14 1.11921 4.74684 0
M  V30 14049 H 1296.14 3.38632 4.33138 0
M  V30 14050 H 1297.37 4.1236 5.3957 0
M  V30 14051 H 1295.31 2.04207 6.23406 0
M  V30 14052 H 1295.23 3.74034 6.56989 0
M  V30 14053 H 1296.5 2.78643 7.27996 0
M  V30 14054 N 1300.73 -1.01913 1.20215 0
M  V30 14055 C 1301.66 -2.10513 0.906476 0
M  V30 14056 C 1302.67 -1.62463 -0.104758 0
M  V30 14057 O 1303.86 -1.78055 0.12593 0
M  V30 14058 C 1300.96 -3.3722 0.337012 0
M  V30 14059 C 1300.14 -4.14417 1.39917 0
M  V30 14060 C 1299.19 -5.19428 0.841489 0
M  V30 14061 O 1298.22 -5.48486 1.52157 0
M  V30 14062 N 1299.42 -5.79442 -0.350365 0
M  V30 14063 H 1302.19 -2.36465 1.84132 0
M  V30 14064 H 1299.75 -1.18283 1.10548 0
M  V30 14065 H 1301.74 -4.04669 -0.0501507 0
M  V30 14066 H 1300.31 -3.08538 -0.502325 0
M  V30 14067 H 1299.53 -3.41975 1.96078 0
M  V30 14068 H 1300.82 -4.62777 2.1146 0
M  V30 14069 H 1300.22 -5.58166 -0.920204 0
M  V30 14070 H 1298.77 -6.48252 -0.679194 0
M  V30 14071 N 1302.21 -1.00763 -1.2118 0
M  V30 14072 C 1303.43 -0.710746 -1.94309 0
M  V30 14073 C 1303.85 0.727103 -1.74237 0
M  V30 14074 O 1303.21 1.49223 -1.05065 0
M  V30 14075 C 1303.26 -1.02562 -3.46646 0
M  V30 14076 O 1302.98 -2.40699 -3.66054 0
M  V30 14077 C 1304.48 -0.748517 -4.36935 0
M  V30 14078 H 1301.7 -0.26171 -0.617858 0
M  V30 14079 H 1304.24 -1.34639 -1.53924 0
M  V30 14080 H 1302.4 -0.435537 -3.84944 0
M  V30 14081 H 1302.81 -2.51764 -4.60125 0
M  V30 14082 H 1304.29 -1.01899 -5.42513 0
M  V30 14083 H 1304.76 0.317423 -4.38051 0
M  V30 14084 H 1305.37 -1.32033 -4.04286 0
M  V30 14085 N 1303.68 1.3679 -0.7827 0
M  V30 14086 C 1304.63 2.27508 -0.149734 0
M  V30 14087 C 1305.62 1.46634 0.662368 0
M  V30 14088 O 1306.81 1.6908 0.523544 0
M  V30 14089 C 1303.94 3.35666 0.719939 0
M  V30 14090 C 1303.03 4.23981 -0.100588 0
M  V30 14091 N 1303.42 4.92513 -1.15173 0
M  V30 14092 C 1301.71 4.45834 0.121653 0
M  V30 14093 C 1302.42 5.57788 -1.65067 0
M  V30 14094 N 1301.39 5.35038 -0.96101 0
M  V30 14095 H 1305.19 2.77973 -0.954365 0
M  V30 14096 H 1302.71 1.50037 -0.62151 0
M  V30 14097 H 1304.7 3.99578 1.18926 0
M  V30 14098 H 1303.36 2.86756 1.52319 0
M  V30 14099 H 1304.38 4.94658 -1.53406 0
M  V30 14100 H 1301.05 4.07773 0.895945 0
M  V30 14101 H 1302.44 6.22534 -2.52787 0
M  V30 14102 N 1305.16 0.53415 1.48272 0
M  V30 14103 C 1306.57 0.0947592 1.86459 0
M  V30 14104 C 1306.92 -1.32906 1.44328 0
M  V30 14105 O 1306.05 -1.99605 0.835866 0
M  V30 14106 C 1306.64 0.16519 3.38397 0
M  V30 14107 C 1305.2 -0.219029 3.75762 0
M  V30 14108 C 1304.35 0.523097 2.72321 0
M  V30 14109 H 1307.3 0.74517 1.40117 0
M  V30 14110 H 1307.32 -0.622065 3.75381 0
M  V30 14111 H 1306.83 1.20157 3.69031 0
M  V30 14112 H 1304.94 -1.2574 3.50742 0
M  V30 14113 H 1305.05 0.123482 4.78941 0
M  V30 14114 H 1303.41 -0.0311323 2.54681 0
M  V30 14115 H 1304.2 1.56019 3.05799 0
M  V30 14116 N 1306.64 -1.55279 0.269478 0
M  V30 14117 C 1307.87 -2.03876 -0.352418 0
M  V30 14118 C 1308.28 -1.14804 -1.49885 0
M  V30 14119 O 1307.64 -0.166989 -1.81734 0
M  V30 14120 C 1307.69 -3.51634 -0.838799 0
M  V30 14121 O 1307.41 -4.37316 0.261972 0
M  V30 14122 C 1308.91 -4.16094 -1.52909 0
M  V30 14123 H 1306.13 -0.66608 -0.0811043 0
M  V30 14124 H 1308.68 -2.00551 0.399929 0
M  V30 14125 H 1306.83 -3.55421 -1.54125 0
M  V30 14126 H 1307.25 -5.24383 -0.111013 0
M  V30 14127 H 1308.72 -5.21102 -1.82089 0
M  V30 14128 H 1309.2 -3.63928 -2.45872 0
M  V30 14129 H 1309.8 -4.16293 -0.87063 0
M  V30 14130 N 1308.12 0.00332656 -1.576 0
M  V30 14131 C 1309.07 1.01406 -2.09331 0
M  V30 14132 C 1310.06 1.35806 -1.01258 0
M  V30 14133 O 1311.27 1.34409 -1.19726 0
M  V30 14134 H 1307.64 0.344661 -0.668366 0
M  V30 14135 H 1309.61 0.552154 -2.93247 0
M  V30 14136 C 1308.36 2.29819 -2.60918 0
M  V30 14137 H 1307.68 2.04216 -3.43709 0
M  V30 14138 H 1309.12 2.98826 -3.00797 0
M  V30 14139 C 1307.58 3.0057 -1.52182 0
M  V30 14140 O 1308.11 3.91423 -0.902817 0
M  V30 14141 N 1306.32 2.62338 -1.25009 0
M  V30 14142 H 1305.87 1.88538 -1.75531 0
M  V30 14143 H 1305.82 3.0999 -0.524736 0
M  V30 14144 N 1309.6 1.55164 0.276031 0
M  V30 14145 C 1310.82 1.7998 1.03063 0
M  V30 14146 C 1311.25 0.569769 1.79263 0
M  V30 14147 O 1310.6 -0.48054 1.74816 0
M  V30 14148 C 1310.65 3.02209 1.96728 0
M  V30 14149 O 1309.76 2.77083 3.05449 0
M  V30 14150 H 1309.1 0.594963 0.294814 0
M  V30 14151 H 1311.63 2.02301 0.305861 0
M  V30 14152 H 1311.64 3.3086 2.38738 0
M  V30 14153 H 1310.31 3.91386 1.40677 0
M  V30 14154 H 1308.89 2.5952 2.67776 0
M  V30 14155 N 1311.07 -0.540404 1.48045 0
M  V30 14156 C 1312.3 -1.32177 1.59175 0
M  V30 14157 C 1312.72 -1.87163 0.248115 0
M  V30 14158 O 1312.07 -1.65871 -0.761124 0
M  V30 14159 C 1312.13 -2.47995 2.63023 0
M  V30 14160 O 1311.85 -1.95278 3.92171 0
M  V30 14161 C 1313.35 -3.39967 2.84495 0
M  V30 14162 H 1310.57 -0.40233 0.537002 0
M  V30 14163 H 1313.11 -0.652983 1.93795 0
M  V30 14164 H 1311.27 -3.10779 2.31291 0
M  V30 14165 H 1311.68 -2.71012 4.49058 0
M  V30 14166 H 1313.15 -4.17607 3.60982 0
M  V30 14167 H 1313.63 -3.94555 1.92932 0
M  V30 14168 H 1314.24 -2.82985 3.1749 0
M  V30 14169 N 1312.55 -1.36459 -0.788468 0
M  V30 14170 C 1313.78 -1.34063 -1.58246 0
M  V30 14171 C 1314.2 0.0754933 -1.87948 0
M  V30 14172 O 1313.56 1.04772 -1.47961 0
M  V30 14173 C 1313.61 -2.17038 -2.8797 0
M  V30 14174 O 1312.71 -1.56353 -3.81612 0
M  V30 14175 H 1312.05 -0.458816 -0.479983 0
M  V30 14176 H 1314.58 -1.79755 -0.977207 0
M  V30 14177 H 1314.59 -2.29651 -3.3723 0
M  V30 14178 H 1313.27 -3.19981 -2.65678 0
M  V30 14179 H 1311.85 -1.52685 -3.40208 0
M  V30 14180 N 1314.03 1.01274 -1.20754 0
M  V30 14181 C 1315.28 1.74586 -1.01804 0
M  V30 14182 C 1315.6 1.89727 0.450419 0
M  V30 14183 O 1314.87 1.44257 1.32539 0
M  V30 14184 H 1313.45 0.646804 -0.373702 0
M  V30 14185 H 1316.11 1.22079 -1.5193 0
M  V30 14186 H 1315.21 2.748 -1.47958 0
M  V30 14187 N 1315.51 1.01404 1.20644 0
M  V30 14188 C 1316.74 0.72104 1.93929 0
M  V30 14189 C 1317.15 -0.717853 1.7462 0
M  V30 14190 O 1316.51 -1.48664 1.05855 0
M  V30 14191 C 1316.56 1.04399 3.46097 0
M  V30 14192 O 1316.28 2.42637 3.64773 0
M  V30 14193 C 1317.78 0.771678 4.36532 0
M  V30 14194 H 1315 0.264983 0.616462 0
M  V30 14195 H 1317.55 1.35453 1.53208 0
M  V30 14196 H 1315.7 0.455946 3.84708 0
M  V30 14197 H 1316.12 2.54201 4.58783 0
M  V30 14198 H 1317.59 1.04774 5.41965 0
M  V30 14199 H 1318.07 -0.294188 4.38214 0
M  V30 14200 H 1318.67 1.34176 4.0358 0
M  V30 14201 N 1316.99 -1.36373 0.789944 0
M  V30 14202 C 1318.22 -2.03482 0.37453 0
M  V30 14203 C 1318.63 -1.59562 -1.00923 0
M  V30 14204 O 1317.99 -0.785289 -1.64741 0
M  V30 14205 C 1318.04 -3.58942 0.429255 0
M  V30 14206 O 1317.76 -4.01261 1.75845 0
M  V30 14207 C 1319.26 -4.433 0.00453729 0
M  V30 14208 H 1316.48 -0.653019 0.154295 0
M  V30 14209 H 1319.02 -1.74339 1.06894 0
M  V30 14210 H 1317.18 -3.86793 -0.21674 0
M  V30 14211 H 1317.59 -4.95854 1.70964 0
M  V30 14212 H 1319.07 -5.5192 0.0939653 0
M  V30 14213 H 1319.54 -4.26509 -1.04816 0
M  V30 14214 H 1320.15 -4.20712 0.623041 0
M  V30 14215 N 1318.47 -0.542005 -1.47987 0
M  V30 14216 C 1319.4 0.202703 -2.32618 0
M  V30 14217 C 1320.38 0.923521 -1.42846 0
M  V30 14218 O 1321.56 0.906957 -1.7172 0
M  V30 14219 C 1318.69 1.24267 -3.24307 0
M  V30 14220 C 1317.65 0.639257 -4.23199 0
M  V30 14221 C 1316.97 1.78275 -5.04105 0
M  V30 14222 C 1318.27 -0.396982 -5.20789 0
M  V30 14223 H 1319.97 -0.503817 -2.95131 0
M  V30 14224 H 1317.51 -0.243736 -1.41922 0
M  V30 14225 H 1319.46 1.7717 -3.82347 0
M  V30 14226 H 1318.19 1.97893 -2.59819 0
M  V30 14227 H 1316.85 0.131655 -3.66364 0
M  V30 14228 H 1316.5 2.50768 -4.36032 0
M  V30 14229 H 1316.2 1.38487 -5.71047 0
M  V30 14230 H 1317.72 2.31533 -5.65 0
M  V30 14231 H 1319.13 0.0454057 -5.73282 0
M  V30 14232 H 1317.53 -0.712911 -5.9585 0
M  V30 14233 H 1318.6 -1.29843 -4.67193 0
M  V30 14234 N 1319.94 1.55134 -0.277709 0
M  V30 14235 C 1321.17 2.04519 0.344472 0
M  V30 14236 C 1321.59 1.15466 1.4849 0
M  V30 14237 O 1320.95 0.153798 1.80646 0
M  V30 14238 C 1321 3.51602 0.800527 0
M  V30 14239 O 1320.1 3.65632 1.90754 0
M  V30 14240 H 1319.44 0.660212 0.0708226 0
M  V30 14241 H 1321.97 2.00393 -0.412764 0
M  V30 14242 H 1321.98 3.93015 1.09559 0
M  V30 14243 H 1320.66 4.15886 -0.033838 0
M  V30 14244 H 1319.24 3.36122 1.61481 0
M  V30 14245 N 1321.42 0.00503138 1.57599 0
M  V30 14246 C 1322.65 -0.689609 1.95069 0
M  V30 14247 C 1323.06 -1.67028 0.880183 0
M  V30 14248 O 1322.42 -1.81959 -0.140406 0
M  V30 14249 C 1322.47 -1.41709 3.32567 0
M  V30 14250 O 1322.19 -0.475746 4.35509 0
M  V30 14251 C 1323.69 -2.20578 3.84526 0
M  V30 14252 H 1320.91 -0.19175 0.643019 0
M  V30 14253 H 1323.46 0.057646 2.04419 0
M  V30 14254 H 1321.61 -2.11593 3.2451 0
M  V30 14255 H 1322.03 -0.989573 5.1508 0
M  V30 14256 H 1323.5 -2.66969 4.83148 0
M  V30 14257 H 1323.98 -3.03467 3.17497 0
M  V30 14258 H 1324.58 -1.557 3.95775 0
M  V30 14259 N 1322.9 -1.55308 -0.267798 0
M  V30 14260 C 1324.18 -1.66881 -1.02029 0
M  V30 14261 C 1324.56 -0.538708 -2.04111 0
M  V30 14262 O 1323.9 0.460575 -2.2381 0
M  V30 14263 C 1324.11 -3.06318 -1.67243 0
M  V30 14264 C 1325.46 -3.64237 -2.18212 0
M  V30 14265 O 1326.49 -3.08984 -1.77221 0
M  V30 14266 O 1325.35 -4.61055 -2.93413 0
M  V30 14267 H 1322.44 -0.677967 -0.473593 0
M  V30 14268 H 1324.99 -1.67646 -0.263242 0
M  V30 14269 H 1323.76 -3.80015 -0.932985 0
M  V30 14270 H 1323.38 -3.09475 -2.49622 0
M  V30 14271 N 1324.38 0.532545 -1.4833 0
M  V30 14272 C 1325.31 1.64662 -1.65555 0
M  V30 14273 C 1326.29 1.62447 -0.50447 0
M  V30 14274 O 1327.47 1.79684 -0.736712 0
M  V30 14275 C 1324.6 3.03256 -1.69272 0
M  V30 14276 C 1323.56 3.20329 -2.83854 0
M  V30 14277 C 1322.88 4.59958 -2.72659 0
M  V30 14278 C 1324.18 3.03345 -4.25181 0
M  V30 14279 H 1325.88 1.50502 -2.58823 0
M  V30 14280 H 1323.42 0.722612 -1.24556 0
M  V30 14281 H 1325.38 3.81064 -1.79911 0
M  V30 14282 H 1324.1 3.18433 -0.725805 0
M  V30 14283 H 1322.76 2.44937 -2.72766 0
M  V30 14284 H 1322.41 4.71967 -1.73942 0
M  V30 14285 H 1322.11 4.72327 -3.49544 0
M  V30 14286 H 1323.63 5.39869 -2.85262 0
M  V30 14287 H 1325.05 3.70948 -4.37116 0
M  V30 14288 H 1323.44 3.27208 -5.03045 0
M  V30 14289 H 1324.51 1.998 -4.41824 0
M  V30 14290 N 1325.86 1.36875 0.78122 0
M  V30 14291 C 1326.77 1.3404 1.92537 0
M  V30 14292 C 1327.78 0.241354 1.72318 0
M  V30 14293 O 1328.96 0.475128 1.95715 0
M  V30 14294 C 1326.02 1.13708 3.27523 0
M  V30 14295 C 1325.08 2.33165 3.60462 0
M  V30 14296 C 1324.32 2.13793 4.89007 0
M  V30 14297 O 1324.54 1.11732 5.5935 0
M  V30 14298 O 1323.47 3.01762 5.20791 0
M  V30 14299 H 1327.3 2.30386 1.97879 0
M  V30 14300 H 1324.88 1.17506 0.922637 0
M  V30 14301 H 1326.77 1.0432 4.08283 0
M  V30 14302 H 1325.44 0.204306 3.23055 0
M  V30 14303 H 1324.35 2.48123 2.79974 0
M  V30 14304 H 1325.68 3.24977 3.69663 0
M  V30 14305 N 1327.33 -1.00632 1.21289 0
M  V30 14306 C 1328.57 -1.75921 1.04073 0
M  V30 14307 C 1328.94 -1.87381 -0.4186 0
M  V30 14308 O 1330.14 -2.5922 -0.711236 0
M  V30 14309 C 1328.41 -3.1344 1.71727 0
M  V30 14310 S 1329.97 -4.04636 1.6975 0
M  V30 14311 H 1326.79 -0.605321 0.372972 0
M  V30 14312 H 1329.39 -1.20417 1.54013 0
M  V30 14313 H 1328.09 -3.02731 2.77096 0
M  V30 14314 H 1327.62 -3.74017 1.21962 0
M  V30 14315 H 1329.64 -4.90686 0.737656 0
M  V30 14316 N 1328.81 -1.02043 -1.20104 0
M  V30 14317 C 1330.06 -0.710566 -1.89197 0
M  V30 14318 C 1330.38 0.762471 -1.79475 0
M  V30 14319 O 1329.65 1.54871 -1.19965 0
M  V30 14320 H 1328.23 -0.259839 -0.700352 0
M  V30 14321 H 1330.89 -1.29285 -1.45848 0
M  V30 14322 H 1329.99 -0.997363 -2.95735 0
M  V30 14323 N 1330.29 1.35952 -0.797165 0
M  V30 14324 C 1331.24 2.29941 -0.198995 0
M  V30 14325 C 1332.21 1.52355 0.661592 0
M  V30 14326 O 1333.39 1.80832 0.60865 0
M  V30 14327 C 1330.53 3.38846 0.654033 0
M  V30 14328 C 1329.65 4.31409 -0.225949 0
M  V30 14329 C 1328.78 5.27401 0.634188 0
M  V30 14330 C 1327.82 6.11602 -0.246773 0
M  V30 14331 N 1326.96 6.9976 0.57279 0
M  V30 14332 H 1331.8 2.80508 -1.00594 0
M  V30 14333 H 1329.33 1.38064 -0.507617 0
M  V30 14334 H 1331.29 4.00643 1.16367 0
M  V30 14335 H 1329.92 2.89578 1.42633 0
M  V30 14336 H 1328.97 3.70699 -0.853616 0
M  V30 14337 H 1330.29 4.90532 -0.904416 0
M  V30 14338 H 1329.44 5.94525 1.20933 0
M  V30 14339 H 1328.18 4.68751 1.34625 0
M  V30 14340 H 1327.18 5.43434 -0.834258 0
M  V30 14341 H 1328.41 6.72329 -0.956559 0
M  V30 14342 H 1326.35 6.43609 1.26901 0
M  V30 14343 H 1326.27 7.55985 -0.0478303 0
M  V30 14344 H 1327.54 7.71244 1.13151 0
M  V30 14345 N 1331.77 0.549846 1.47697 0
M  V30 14346 C 1332.7 -0.190364 2.32723 0
M  V30 14347 C 1333.68 -0.915933 1.43334 0
M  V30 14348 O 1334.86 -0.897838 1.72199 0
M  V30 14349 C 1331.99 -1.22545 3.24961 0
M  V30 14350 C 1330.95 -0.616805 4.23532 0
M  V30 14351 C 1330.27 -1.75599 5.05044 0
M  V30 14352 C 1331.57 0.424595 5.20571 0
M  V30 14353 H 1333.27 0.519461 2.94859 0
M  V30 14354 H 1330.81 0.251259 1.41791 0
M  V30 14355 H 1332.77 -1.75139 3.83281 0
M  V30 14356 H 1331.49 -1.96512 2.60865 0
M  V30 14357 H 1330.15 -0.112224 3.66428 0
M  V30 14358 H 1329.8 -2.48453 4.37356 0
M  V30 14359 H 1329.5 -1.35456 5.71774 0
M  V30 14360 H 1331.02 -2.28533 5.6622 0
M  V30 14361 H 1332.44 -0.0150025 5.73298 0
M  V30 14362 H 1330.83 0.7445 5.95464 0
M  V30 14363 H 1331.9 1.32318 4.66497 0
M  V30 14364 N 1333.25 -1.54984 0.285932 0
M  V30 14365 C 1334.5 -1.99008 -0.328433 0
M  V30 14366 C 1334.81 -1.17787 -1.56158 0
M  V30 14367 O 1336.01 -1.52006 -2.24959 0
M  V30 14368 C 1334.47 -3.54241 -0.635688 0
M  V30 14369 C 1334.08 -4.44252 0.578271 0
M  V30 14370 C 1335.82 -4.06828 -1.21208 0
M  V30 14371 C 1333.73 -5.90892 0.245003 0
M  V30 14372 H 1332.66 -0.743314 -0.126494 0
M  V30 14373 H 1335.31 -1.79258 0.39228 0
M  V30 14374 H 1333.69 -3.69834 -1.41559 0
M  V30 14375 H 1334.87 -4.40431 1.35489 0
M  V30 14376 H 1333.18 -4.02358 1.07225 0
M  V30 14377 H 1335.78 -5.13941 -1.47542 0
M  V30 14378 H 1336.12 -3.56515 -2.14948 0
M  V30 14379 H 1336.65 -3.94718 -0.494222 0
M  V30 14380 H 1333.39 -6.45323 1.15057 0
M  V30 14381 H 1332.91 -5.97757 -0.494636 0
M  V30 14382 H 1334.59 -6.46805 -0.158891 0
M  V30 14383 N 1334.72 -0.0133892 -1.57594 0
M  V30 14384 C 1336.14 0.342848 -1.55874 0
M  V30 14385 C 1336.34 1.73928 -1.01742 0
M  V30 14386 O 1335.4 2.43798 -0.657158 0
M  V30 14387 C 1336.71 0.205831 -2.99995 0
M  V30 14388 C 1338.26 0.279774 -3.11747 0
M  V30 14389 C 1338.73 0.171729 -4.57678 0
M  V30 14390 N 1340.22 0.22921 -4.62633 0
M  V30 14391 C 1340.96 0.169153 -5.7315 0
M  V30 14392 N 1340.45 0.0589166 -6.92775 0
M  V30 14393 N 1342.25 0.221995 -5.61661 0
M  V30 14394 H 1334.4 -0.926727 -1.91117 0
M  V30 14395 H 1336.66 -0.356466 -0.878428 0
M  V30 14396 H 1336.37 -0.755482 -3.4349 0
M  V30 14397 H 1336.24 0.982476 -3.6418 0
M  V30 14398 H 1338.63 1.23154 -2.68174 0
M  V30 14399 H 1338.71 -0.526974 -2.50313 0
M  V30 14400 H 1338.35 -0.776547 -5.01928 0
M  V30 14401 H 1338.28 0.997138 -5.17073 0
M  V30 14402 H 1340.77 0.315196 -3.76583 0
M  V30 14403 H 1341.09 0.0193526 -7.72798 0
M  V30 14404 H 1339.43 0.0243543 -6.94996 0
M  V30 14405 H 1342.62 0.306406 -4.67096 0
M  V30 14406 H 1342.8 0.171727 -6.47772 0
M  V30 14407 N 1336.2 1.55448 0.259558 0
M  V30 14408 C 1337.11 1.92364 1.34289 0
M  V30 14409 C 1338.13 0.822492 1.53333 0
M  V30 14410 O 1339.3 1.12277 1.672 0
M  V30 14411 C 1336.37 2.19978 2.67975 0
M  V30 14412 C 1335.43 3.43454 2.57562 0
M  V30 14413 C 1334.66 3.69741 3.84873 0
M  V30 14414 O 1334.89 2.9831 4.86176 0
M  V30 14415 O 1333.82 4.63274 3.84267 0
M  V30 14416 H 1337.65 2.8461 1.05975 0
M  V30 14417 H 1335.23 1.42167 0.459239 0
M  V30 14418 H 1337.11 2.39104 3.46998 0
M  V30 14419 H 1335.79 1.30912 2.96047 0
M  V30 14420 H 1334.7 3.29649 1.76869 0
M  V30 14421 H 1336.03 4.32782 2.34437 0
M  V30 14422 N 1337.68 -0.524672 1.4861 0
M  V30 14423 C 1338.59 -1.65554 1.6622 0
M  V30 14424 C 1339.61 -1.65254 0.54471 0
M  V30 14425 O 1340.78 -1.84109 0.816454 0
M  V30 14426 C 1337.85 -3.02003 1.7028 0
M  V30 14427 C 1336.91 -3.13116 2.93695 0
M  V30 14428 C 1336.14 -4.43055 2.97553 0
M  V30 14429 O 1336.36 -5.30468 2.09667 0
M  V30 14430 O 1335.3 -4.58646 3.89779 0
M  V30 14431 H 1339.12 -1.53633 2.61974 0
M  V30 14432 H 1336.71 -0.698354 1.32073 0
M  V30 14433 H 1338.59 -3.83143 1.75441 0
M  V30 14434 H 1337.27 -3.14236 0.777002 0
M  V30 14435 H 1336.17 -2.31251 2.94064 0
M  V30 14436 H 1337.51 -3.058 3.85677 0
M  V30 14437 N 1339.16 -1.37287 -0.77395 0
M  V30 14438 C 1340.57 -1.18039 -1.0742 0
M  V30 14439 C 1340.77 -0.0150339 -2.01494 0
M  V30 14440 O 1339.83 0.645562 -2.44108 0
M  V30 14441 C 1341.14 -2.49808 -1.67382 0
M  V30 14442 C 1342.69 -2.5631 -1.7965 0
M  V30 14443 C 1343.17 -3.88204 -2.43025 0
M  V30 14444 N 1344.66 -3.89634 -2.50478 0
M  V30 14445 C 1345.39 -4.88437 -3.00361 0
M  V30 14446 N 1344.89 -5.97635 -3.50434 0
M  V30 14447 N 1346.68 -4.75843 -2.99215 0
M  V30 14448 H 1338.83 -2.11875 -0.149269 0
M  V30 14449 H 1341.1 -0.939203 -0.128846 0
M  V30 14450 H 1340.8 -3.35433 -1.05726 0
M  V30 14451 H 1340.68 -2.66737 -2.66704 0
M  V30 14452 H 1343.06 -1.71094 -2.40439 0
M  V30 14453 H 1343.14 -2.43266 -0.790894 0
M  V30 14454 H 1342.79 -4.73834 -1.82876 0
M  V30 14455 H 1342.72 -3.98551 -3.44187 0
M  V30 14456 H 1345.21 -3.10751 -2.15039 0
M  V30 14457 H 1345.52 -6.6898 -3.86893 0
M  V30 14458 H 1343.87 -6.01283 -3.48545 0
M  V30 14459 H 1347.06 -3.89656 -2.59395 0
M  V30 14460 H 1347.23 -5.52999 -3.37781 0
M  V30 14461 N 1340.64 0.999871 -1.21821 0
M  V30 14462 C 1341.88 1.73497 -1.0365 0
M  V30 14463 C 1342.21 1.90194 0.430271 0
M  V30 14464 O 1341.48 1.45655 1.31002 0
M  V30 14465 H 1340.06 0.642804 -0.380541 0
M  V30 14466 H 1342.72 1.20461 -1.53216 0
M  V30 14467 H 1341.81 2.73215 -1.50864 0
M  V30 14468 N 1342.11 1.02678 1.19562 0
M  V30 14469 C 1343.36 0.717279 1.88515 0
M  V30 14470 C 1343.68 -0.757063 1.80355 0
M  V30 14471 O 1344.88 -1.17953 2.44539 0
M  V30 14472 C 1343.34 1.23265 3.38133 0
M  V30 14473 C 1342.95 2.73462 3.54856 0
M  V30 14474 C 1344.69 0.99904 4.12577 0
M  V30 14475 C 1342.6 3.18428 4.98355 0
M  V30 14476 H 1341.53 0.264608 0.706044 0
M  V30 14477 H 1344.18 1.2408 1.3519 0
M  V30 14478 H 1342.56 0.637052 3.90842 0
M  V30 14479 H 1343.73 3.38659 3.12485 0
M  V30 14480 H 1342.05 2.95079 2.93798 0
M  V30 14481 H 1344.65 1.3103 5.18397 0
M  V30 14482 H 1344.99 -0.064217 4.1625 0
M  V30 14483 H 1345.52 1.55853 3.65998 0
M  V30 14484 H 1342.26 4.24074 4.99842 0
M  V30 14485 H 1341.78 2.57958 5.41496 0
M  V30 14486 H 1343.46 3.11649 5.66996 0
M  V30 14487 N 1343.59 -1.35528 0.804364 0
M  V30 14488 C 1345.01 -1.51962 0.487831 0
M  V30 14489 C 1345.21 -1.75426 -0.991353 0
M  V30 14490 O 1344.26 -1.7944 -1.77644 0
M  V30 14491 C 1345.58 -2.69626 1.33126 0
M  V30 14492 C 1347.13 -2.83502 1.32648 0
M  V30 14493 C 1347.6 -4.04188 2.15397 0
M  V30 14494 N 1349.09 -4.11362 2.12922 0
M  V30 14495 C 1349.83 -5.03856 2.73709 0
M  V30 14496 N 1349.32 -6.01696 3.43415 0
M  V30 14497 N 1351.12 -4.96585 2.63363 0
M  V30 14498 H 1343.27 -1.18553 1.76235 0
M  V30 14499 H 1345.53 -0.57986 0.749977 0
M  V30 14500 H 1345.24 -2.58857 2.38088 0
M  V30 14501 H 1345.11 -3.64168 0.982934 0
M  V30 14502 H 1347.5 -2.93723 0.284712 0
M  V30 14503 H 1347.58 -1.89824 1.71466 0
M  V30 14504 H 1347.22 -3.94728 3.19613 0
M  V30 14505 H 1347.15 -4.97044 1.7394 0
M  V30 14506 H 1349.64 -3.41319 1.62203 0
M  V30 14507 H 1349.96 -6.68866 3.8709 0
M  V30 14508 H 1348.3 -6.01877 3.47519 0
M  V30 14509 H 1351.49 -4.19103 2.08496 0
M  V30 14510 H 1351.66 -5.68478 3.11026 0
M  V30 14511 N 1345.07 -0.557671 -1.47404 0
M  V30 14512 C 1346.02 0.189765 -2.30019 0
M  V30 14513 C 1346.99 0.907923 -1.3909 0
M  V30 14514 O 1348.17 0.903528 -1.68051 0
M  V30 14515 C 1345.31 1.21348 -3.23061 0
M  V30 14516 C 1344.43 0.501343 -4.29081 0
M  V30 14517 C 1343.56 1.51039 -5.09275 0
M  V30 14518 C 1342.6 0.783254 -6.07068 0
M  V30 14519 N 1341.74 1.73916 -6.80219 0
M  V30 14520 H 1346.58 -0.520856 -2.93413 0
M  V30 14521 H 1344.11 -0.268686 -1.44625 0
M  V30 14522 H 1346.07 1.81961 -3.75428 0
M  V30 14523 H 1344.7 1.89213 -2.61531 0
M  V30 14524 H 1343.75 -0.219317 -3.79767 0
M  V30 14525 H 1345.07 -0.0682656 -4.98753 0
M  V30 14526 H 1344.22 2.19004 -5.65793 0
M  V30 14527 H 1342.96 2.11392 -4.39505 0
M  V30 14528 H 1341.96 0.0896883 -5.49727 0
M  V30 14529 H 1343.19 0.185464 -6.78847 0
M  V30 14530 H 1341.14 2.33125 -6.13179 0
M  V30 14531 H 1341.05 1.22171 -7.46063 0
M  V30 14532 H 1342.32 2.40993 -7.41311 0
M  V30 14533 N 1346.55 1.54831 -0.294147 0
M  V30 14534 C 1347.48 2.20696 0.61854 0
M  V30 14535 C 1348.49 1.19754 1.10285 0
M  V30 14536 O 1349.68 1.46383 1.02148 0
M  V30 14537 C 1346.78 2.83429 1.85798 0
M  V30 14538 C 1345.96 4.10239 1.51731 0
M  V30 14539 C 1345.02 4.56841 2.61119 0
M  V30 14540 O 1344.04 5.22194 2.26501 0
M  V30 14541 N 1345.24 4.2858 3.91534 0
M  V30 14542 H 1348.01 2.9965 0.054714 0
M  V30 14543 H 1345.57 1.61484 -0.116052 0
M  V30 14544 H 1347.56 3.11541 2.5831 0
M  V30 14545 H 1346.13 2.08356 2.33038 0
M  V30 14546 H 1345.35 3.89212 0.625142 0
M  V30 14547 H 1346.64 4.92824 1.26499 0
M  V30 14548 H 1346.04 3.7621 4.22472 0
M  V30 14549 H 1344.59 4.61418 4.60366 0
M  V30 14550 N 1348.03 0.0217466 1.57585 0
M  V30 14551 C 1349.25 -0.67246 1.96196 0
M  V30 14552 C 1349.68 -1.6529 0.897827 0
M  V30 14553 O 1349.04 -1.80743 -0.142002 0
M  V30 14554 C 1349.08 -1.36162 3.33905 0
M  V30 14555 O 1348.19 -2.47671 3.29747 0
M  V30 14556 H 1347.53 -0.177238 0.639908 0
M  V30 14557 H 1350.06 0.0814073 2.04438 0
M  V30 14558 H 1350.07 -1.7201 3.69968 0
M  V30 14559 H 1348.74 -0.642893 4.10901 0
M  V30 14560 H 1347.32 -2.13989 3.0539 0
M  V30 14561 N 1349.51 -1.55583 -0.251311 0
M  V30 14562 C 1350.73 -1.81597 -1.00186 0
M  V30 14563 C 1351.16 -0.598216 -1.78334 0
M  V30 14564 O 1350.51 0.452667 -1.75558 0
M  V30 14565 C 1350.56 -3.05301 -1.91895 0
M  V30 14566 O 1349.67 -2.81907 -3.01002 0
M  V30 14567 H 1349.01 -0.599578 -0.285311 0
M  V30 14568 H 1351.54 -2.02762 -0.273638 0
M  V30 14569 H 1351.55 -3.34616 -2.33444 0
M  V30 14570 H 1350.22 -3.93574 -1.34433 0
M  V30 14571 H 1348.8 -2.63747 -2.63613 0
M  V30 14572 N 1350.98 0.516783 -1.48886 0
M  V30 14573 C 1352.23 1.27375 -1.57808 0
M  V30 14574 C 1352.56 1.92492 -0.256963 0
M  V30 14575 O 1351.84 1.79947 0.738193 0
M  V30 14576 C 1352.12 2.35295 -2.72595 0
M  V30 14577 C 1351.97 1.74783 -4.14453 0
M  V30 14578 C 1353.29 3.36973 -2.83085 0
M  V30 14579 H 1350.41 0.46175 -0.574418 0
M  V30 14580 H 1353.05 0.57434 -1.81111 0
M  V30 14581 H 1351.2 2.94951 -2.52857 0
M  V30 14582 H 1352.88 1.19076 -4.45666 0
M  V30 14583 H 1351.12 1.05258 -4.20836 0
M  V30 14584 H 1351.79 2.52985 -4.90615 0
M  V30 14585 H 1354.27 2.87289 -3.01005 0
M  V30 14586 H 1353.14 4.09864 -3.65106 0
M  V30 14587 H 1353.4 3.98336 -1.91784 0
M  V30 14588 N 1352.46 1.37696 0.766659 0
M  V30 14589 C 1353.41 1.30383 1.87041 0
M  V30 14590 C 1354.4 0.190643 1.59767 0
M  V30 14591 O 1355.59 0.425485 1.7181 0
M  V30 14592 C 1352.72 1.11817 3.2458 0
M  V30 14593 C 1351.8 2.27701 3.57789 0
M  V30 14594 N 1352.19 3.53108 3.62144 0
M  V30 14595 C 1350.49 2.19967 3.87983 0
M  V30 14596 C 1351.19 4.29555 3.92247 0
M  V30 14597 N 1350.17 3.58754 4.08408 0
M  V30 14598 H 1353.97 2.25348 1.88668 0
M  V30 14599 H 1351.48 1.30741 0.963362 0
M  V30 14600 H 1353.48 1.04663 4.03548 0
M  V30 14601 H 1352.14 0.177731 3.24213 0
M  V30 14602 H 1353.15 3.86949 3.44225 0
M  V30 14603 H 1349.83 1.34009 3.95408 0
M  V30 14604 H 1351.22 5.38112 4.0235 0
M  V30 14605 N 1353.94 -0.993397 1.22349 0
M  V30 14606 C 1355.17 -1.76838 1.07406 0
M  V30 14607 C 1355.58 -1.8503 -0.37542 0
M  V30 14608 O 1354.94 -1.32008 -1.26016 0
M  V30 14609 C 1354.99 -3.20177 1.67837 0
M  V30 14610 O 1354.71 -3.12429 3.07115 0
M  V30 14611 C 1356.21 -4.14125 1.58161 0
M  V30 14612 H 1353.43 -0.555379 0.376557 0
M  V30 14613 H 1355.98 -1.24893 1.61932 0
M  V30 14614 H 1354.13 -3.69191 1.17375 0
M  V30 14615 H 1354.55 -4.02568 3.36213 0
M  V30 14616 H 1356.02 -5.12455 2.05169 0
M  V30 14617 H 1356.5 -4.35892 0.538073 0
M  V30 14618 H 1357.1 -3.71008 2.07926 0
M  V30 14619 N 1355.42 -1.03311 -1.19015 0
M  V30 14620 C 1356.66 -0.733124 -1.89085 0
M  V30 14621 C 1357 0.73675 -1.79682 0
M  V30 14622 O 1356.27 1.53692 -1.19201 0
M  V30 14623 C 1356.55 -1.19028 -3.39859 0
M  V30 14624 C 1356.41 -2.72169 -3.58112 0
M  V30 14625 C 1357.73 -0.774383 -4.33234 0
M  V30 14626 H 1354.85 -0.2678 -0.686624 0
M  V30 14627 H 1357.49 -1.28378 -1.40068 0
M  V30 14628 H 1355.64 -0.721799 -3.81736 0
M  V30 14629 H 1357.31 -3.26996 -3.25379 0
M  V30 14630 H 1355.55 -3.12358 -3.01023 0
M  V30 14631 H 1356.22 -2.99213 -4.6387 0
M  V30 14632 H 1358.7 -1.17739 -3.99095 0
M  V30 14633 H 1357.58 -1.12209 -5.37308 0
M  V30 14634 H 1357.84 0.322989 -4.40919 0
M  V30 14635 O 1356.93 1.30812 -0.947122 0
M  V30 14636 H 1357.63 1.84895 -0.577368 0
M  V30 END ATOM
M  V30 BEGIN BOND
M  V30 END BOND
M  V30 END CTAB
M  END
$$$$
