drugbank_target|Q9ULW8 Protein-arginine deiminase type-3 (DB00155)
 OpenBabel12092120083D

  0  0  0     0  0            999 V3000
M  V30 BEGIN CTAB
M  V30 COUNTS 10388 10521 0 0 0
M  V30 BEGIN ATOM
M  V30 1 H -0.908 1.98254 -0.117106 0
M  V30 2 N 0 1.576 0 0
M  V30 3 C 0.933 2.03868 1.02534 0
M  V30 4 C 1.911 0.928543 1.3348 0
M  V30 5 O 3.095 1.19667 1.45644 0
M  V30 6 C 0.222 2.43627 2.35294 0
M  V30 7 C -0.732 3.65373 2.2001 0
M  V30 8 S 0.101 5.13292 1.52614 0
M  V30 9 C 1.257 5.56322 2.86805 0
M  V30 10 H 1.49 2.90518 0.631377 0
M  V30 11 H -0.977 1.52953 0.210867 0
M  V30 12 H 0.981 2.67203 3.11629 0
M  V30 13 H -0.358 1.57376 2.7183 0
M  V30 14 H -1.165 3.90944 3.18086 0
M  V30 15 H -1.563 3.418 1.51819 0
M  V30 16 H 0.729 5.58782 3.83104 0
M  V30 17 H 1.672 6.56266 2.65933 0
M  V30 18 H 2.08 4.83886 2.90714 0
M  V30 19 N 1.4781 -0.272755 1.55222 0
M  V30 20 C 2.7031 -1.02683 1.80197 0
M  V30 21 C 3.1281 -1.79142 0.573551 0
M  V30 22 O 2.4861 -1.74917 -0.476849 0
M  V30 23 C 2.5341 -1.9609 3.02624 0
M  V30 24 O 1.6381 -3.04863 2.77727 0
M  V30 25 H 0.9791 -0.293557 0.595584 0
M  V30 26 H 3.5091 -0.30159 2.02365 0
M  V30 27 H 3.5191 -2.38039 3.31363 0
M  V30 28 H 2.1941 -1.39851 3.91682 0
M  V30 29 H 0.7711 -2.67228 2.60084 0
M  V30 30 N 2.9562 -1.48159 -0.537278 0
M  V30 31 C 3.8862 -1.65029 -1.6519 0
M  V30 32 C 4.8672 -0.499281 -1.62607 0
M  V30 33 O 6.0522 -0.730972 -1.79918 0
M  V30 34 C 3.1822 -1.68303 -3.03795 0
M  V30 35 C 2.1362 -2.8283 -3.21234 0
M  V30 36 C 1.4622 -2.71189 -4.60826 0
M  V30 37 C 2.7622 -4.24211 -3.04701 0
M  V30 38 H 4.4562 -2.58341 -1.51328 0
M  V30 39 H 2.0022 -1.24325 -0.726585 0
M  V30 40 H 3.9552 -1.78693 -3.81637 0
M  V30 41 H 2.6792 -0.715635 -3.18663 0
M  V30 42 H 1.3382 -2.71983 -2.45807 0
M  V30 43 H 0.9862 -1.72435 -4.7252 0
M  V30 44 H 0.6862 -3.48035 -4.7344 0
M  V30 45 H 2.2102 -2.83537 -5.40777 0
M  V30 46 H 3.6242 -4.3593 -3.72341 0
M  V30 47 H 2.0212 -5.01998 -3.28813 0
M  V30 48 H 3.0912 -4.41184 -2.01209 0
M  V30 49 N 4.4343 0.785586 -1.36625 0
M  V30 50 C 5.3663 1.90711 -1.2713 0
M  V30 51 C 6.3793 1.61688 -0.189986 0
M  V30 52 O 7.5683 1.72864 -0.445014 0
M  V30 53 C 4.6683 3.25611 -0.939713 0
M  V30 54 C 3.8413 3.82385 -2.12369 0
M  V30 55 C 2.9003 4.95732 -1.76456 0
M  V30 56 O 1.9263 5.12047 -2.48589 0
M  V30 57 N 3.1283 5.76258 -0.700492 0
M  V30 58 H 5.8933 1.99376 -2.23762 0
M  V30 59 H 3.4543 0.964041 -1.30069 0
M  V30 60 H 5.4463 3.98937 -0.680554 0
M  V30 61 H 4.0163 3.12538 -0.0624074 0
M  V30 62 H 3.2363 3.01001 -2.54543 0
M  V30 63 H 4.5243 4.17047 -2.9146 0
M  V30 64 H 3.9223 5.65609 -0.101624 0
M  V30 65 H 2.4793 6.4987 -0.501165 0
M  V30 66 N 5.9124 1.20967 1.01018 0
M  V30 67 C 7.3284 0.965905 1.27053 0
M  V30 68 C 7.5284 -0.350785 1.98423 0
M  V30 69 O 6.5844 -1.07773 2.28344 0
M  V30 70 C 7.8974 2.15294 2.09926 0
M  V30 71 C 9.4454 2.19463 2.23171 0
M  V30 72 C 9.9204 3.3767 3.09424 0
M  V30 73 N 11.4114 3.37724 3.17012 0
M  V30 74 C 12.1464 4.25837 3.83993 0
M  V30 75 N 11.6424 5.24138 4.53047 0
M  V30 76 N 13.4354 4.1366 3.80581 0
M  V30 77 H 5.5864 2.0565 0.531194 0
M  V30 78 H 7.8494 0.90024 0.297106 0
M  V30 79 H 7.5554 3.10684 1.64828 0
M  V30 80 H 7.4294 2.13923 3.10672 0
M  V30 81 H 9.8164 1.24632 2.6749 0
M  V30 82 H 9.8974 2.2488 1.21912 0
M  V30 83 H 9.5414 4.32791 2.65808 0
M  V30 84 H 9.4714 3.29491 4.10784 0
M  V30 85 H 11.9624 2.6658 2.6785 0
M  V30 86 H 12.2754 5.87684 5.01844 0
M  V30 87 H 10.6204 5.28068 4.5185 0
M  V30 88 H 13.8114 3.36127 3.25785 0
M  V30 89 H 13.9844 4.82538 4.32505 0
M  V30 90 N 7.3905 -1.2043 1.01659 0
M  V30 91 C 8.6395 -1.89118 0.701237 0
M  V30 92 C 8.9525 -1.79705 -0.772358 0
M  V30 93 O 10.1585 -2.43528 -1.20026 0
M  V30 94 C 8.6145 -3.39168 1.20388 0
M  V30 95 C 8.2225 -3.57166 2.70438 0
M  V30 96 C 9.9665 -4.1341 0.963953 0
M  V30 97 C 7.8735 -5.01042 3.14183 0
M  V30 98 H 6.8035 -0.708267 0.2586 0
M  V30 99 H 9.4545 -1.36239 1.22927 0
M  V30 100 H 7.8365 -3.91369 0.603824 0
M  V30 101 H 9.0105 -3.15351 3.35992 0
M  V30 102 H 7.3255 -2.96294 2.92572 0
M  V30 103 H 9.9225 -5.19491 1.26621 0
M  V30 104 H 10.2655 -4.16181 -0.099578 0
M  V30 105 H 10.7985 -3.67309 1.52738 0
M  V30 106 H 7.5375 -5.03426 4.19812 0
M  V30 107 H 7.0575 -5.43668 2.53348 0
M  V30 108 H 8.7365 -5.69623 3.0682 0
M  V30 109 N 8.8686 -0.792821 -1.36206 0
M  V30 110 C 10.1146 -0.36733 -1.99446 0
M  V30 111 C 10.4476 1.05917 -1.62774 0
M  V30 112 O 9.7226 1.7324 -0.88421 0
M  V30 113 C 10.0056 -0.535044 -3.56103 0
M  V30 114 C 9.8586 -2.00548 -4.02617 0
M  V30 115 C 11.1776 0.0478191 -4.40074 0
M  V30 116 H 8.2966 -0.134941 -0.724541 0
M  V30 117 H 10.9386 -0.999794 -1.61568 0
M  V30 118 H 9.0886 0.00336329 -3.885 0
M  V30 119 H 10.7606 -2.60521 -3.80692 0
M  V30 120 H 9.0036 -2.50686 -3.54032 0
M  V30 121 H 9.6746 -2.07377 -5.11565 0
M  V30 122 H 12.1506 -0.411822 -4.14057 0
M  V30 123 H 11.0266 -0.0995336 -5.4881 0
M  V30 124 H 11.2876 1.14025 -4.27142 0
M  V30 125 N 10.3467 1.47872 -0.545128 0
M  V30 126 C 11.7627 1.5829 -0.204032 0
M  V30 127 C 11.9627 1.54529 1.29317 0
M  V30 128 O 11.0187 1.44232 2.07252 0
M  V30 129 C 12.3317 2.89304 -0.819987 0
M  V30 130 C 13.8797 3.02864 -0.790105 0
M  V30 131 C 14.3547 4.3656 -1.38491 0
M  V30 132 N 15.8457 4.43165 -1.34755 0
M  V30 133 C 16.5807 5.45153 -1.77753 0
M  V30 134 N 16.0767 6.54016 -2.2855 0
M  V30 135 N 17.8697 5.36125 -1.68897 0
M  V30 136 H 10.0207 1.4856 -1.51802 0
M  V30 137 H 12.2837 0.706305 -0.632327 0
M  V30 138 H 11.9897 2.97757 -1.87173 0
M  V30 139 H 11.8637 3.75957 -0.305915 0
M  V30 140 H 14.2507 2.94014 0.252913 0
M  V30 141 H 14.3317 2.17782 -1.34181 0
M  V30 142 H 13.9757 4.46164 -2.42693 0
M  V30 143 H 13.9057 5.20353 -0.808754 0
M  V30 144 H 16.3967 3.65083 -0.975855 0
M  V30 145 H 16.7097 7.27994 -2.59314 0
M  V30 146 H 15.0547 6.54938 -2.32553 0
M  V30 147 H 18.2457 4.49975 -1.28998 0
M  V30 148 H 18.4187 6.15472 -2.02726 0
M  V30 149 N 11.8248 0.280983 1.55075 0
M  V30 150 C 13.0708 -0.33461 2.00021 0
M  V30 151 C 13.4038 -1.55063 1.16915 0
M  V30 152 O 12.6788 -1.93006 0.240646 0
M  V30 153 C 12.9618 -0.711007 3.53011 0
M  V30 154 C 12.8148 0.512766 4.46868 0
M  V30 155 C 14.1338 -1.54522 4.12081 0
M  V30 156 H 11.2528 -0.120147 0.727141 0
M  V30 157 H 13.8948 0.389097 1.85973 0
M  V30 158 H 12.0448 -1.32761 3.65112 0
M  V30 159 H 13.7168 1.15131 4.46702 0
M  V30 160 H 11.9598 1.14975 4.18286 0
M  V30 161 H 12.6308 0.205556 5.51617 0
M  V30 162 H 15.1068 -1.02442 4.03293 0
M  V30 163 H 13.9828 -1.77739 5.19327 0
M  V30 164 H 14.2438 -2.52813 3.62682 0
M  V30 165 N 13.3029 -1.57598 0.00835791 0
M  V30 166 C 14.5279 -1.95617 -0.689103 0
M  V30 167 C 14.9529 -0.883753 -1.66046 0
M  V30 168 O 14.3109 0.157352 -1.80616 0
M  V30 169 C 14.3589 -3.32736 -1.38994 0
M  V30 170 O 13.4629 -3.27631 -2.50463 0
M  V30 171 H 12.8039 -0.638379 -0.182668 0
M  V30 172 H 15.3339 -2.045 0.064036 0
M  V30 173 H 15.3439 -3.68494 -1.75147 0
M  V30 174 H 14.0189 -4.1034 -0.677778 0
M  V30 175 H 12.5959 -3.03561 -2.16576 0
M  V30 176 N 14.781 0.264519 -1.55364 0
M  V30 177 C 15.711 1.33121 -1.91836 0
M  V30 178 C 16.692 1.51101 -0.781192 0
M  V30 179 O 17.877 1.64003 -1.04003 0
M  V30 180 C 15.007 2.68921 -2.19769 0
M  V30 181 C 13.961 2.65661 -3.35571 0
M  V30 182 C 13.287 4.05093 -3.49004 0
M  V30 183 C 14.587 2.24187 -4.71739 0
M  V30 184 H 16.281 1.02844 -2.81182 0
M  V30 185 H 13.827 0.493286 -1.35287 0
M  V30 186 H 15.78 3.43663 -2.43872 0
M  V30 187 H 14.504 3.00799 -1.27231 0
M  V30 188 H 13.163 1.93377 -3.1145 0
M  V30 189 H 12.811 4.34206 -2.53917 0
M  V30 190 H 12.511 4.03804 -4.26868 0
M  V30 191 H 14.035 4.81561 -3.75408 0
M  V30 192 H 15.449 2.88654 -4.9533 0
M  V30 193 H 13.846 2.34044 -5.52579 0
M  V30 194 H 14.916 1.19327 -4.69988 0
M  V30 195 N 16.2591 1.48442 0.529413 0
M  V30 196 C 17.1691 1.6569 1.66084 0
M  V30 197 C 18.1851 0.539432 1.65427 0
M  V30 198 O 19.3611 0.810572 1.84368 0
M  V30 199 C 16.4261 1.69315 3.02545 0
M  V30 200 C 15.4871 2.92694 3.14052 0
M  V30 201 C 14.7201 2.96137 4.44003 0
M  V30 202 O 14.9431 2.07973 5.31134 0
M  V30 203 O 13.8771 3.88312 4.59888 0
M  V30 204 H 17.7031 2.61483 1.54469 0
M  V30 205 H 15.2881 1.3185 0.702567 0
M  V30 206 H 17.1701 1.74217 3.83701 0
M  V30 207 H 15.8451 0.766966 3.14483 0
M  V30 208 H 14.7521 2.93324 2.32189 0
M  V30 209 H 16.0851 3.84699 3.0703 0
M  V30 210 N 17.7372 -0.778329 1.37039 0
M  V30 211 C 18.6872 -1.88142 1.28789 0
M  V30 212 C 19.6712 -1.59923 0.177063 0
M  V30 213 O 20.8632 -1.72165 0.410873 0
M  V30 214 C 17.9922 -3.25518 1.09055 0
M  V30 215 C 17.0782 -3.5971 2.24654 0
M  V30 216 N 17.4692 -3.65131 3.50018 0
M  V30 217 C 15.7672 -3.89837 2.16663 0
M  V30 218 C 16.4682 -3.95882 4.26207 0
M  V30 219 N 15.4442 -4.11441 3.55271 0
M  V30 220 H 19.2462 -1.90575 2.23737 0
M  V30 221 H 16.7602 -0.974435 1.29917 0
M  V30 222 H 18.7572 -4.04423 1.0123 0
M  V30 223 H 17.4172 -3.24353 0.15018 0
M  V30 224 H 18.4282 -3.475 3.84011 0
M  V30 225 H 15.1052 -3.96533 1.30645 0
M  V30 226 H 16.4952 -4.06907 5.34674 0
M  V30 227 N 19.2153 -1.21501 -1.00376 0
M  V30 228 C 20.6263 -1.03146 -1.55621 0
M  V30 229 C 20.9773 0.408375 -1.91903 0
M  V30 230 O 20.1023 1.29177 -1.73616 0
M  V30 231 C 20.6973 -1.86612 -2.82775 0
M  V30 232 C 19.2563 -1.72586 -3.34501 0
M  V30 233 C 18.4033 -1.83747 -2.07683 0
M  V30 234 H 21.3543 -1.35505 -0.826081 0
M  V30 235 H 21.3753 -1.3771 -3.54706 0
M  V30 236 H 20.8873 -2.91399 -2.56336 0
M  V30 237 H 18.9883 -0.704877 -3.65872 0
M  V30 238 H 19.1013 -2.54623 -4.05837 0
M  V30 239 H 17.4653 -1.27069 -2.20739 0
M  V30 240 H 18.2483 -2.90044 -1.83655 0
M  V30 241 N 20.6934 1.19889 -1.02296 0
M  V30 242 C 21.9214 1.9339 -0.735399 0
M  V30 243 C 22.3364 1.75148 0.704887 0
M  V30 244 O 21.6934 1.06954 1.47875 0
M  V30 245 C 21.7444 3.45313 -1.06962 0
M  V30 246 O 21.4654 3.62964 -2.45334 0
M  V30 247 C 22.9664 4.35948 -0.804021 0
M  V30 248 H 20.1864 0.61448 -0.269546 0
M  V30 249 H 22.7304 1.522 -1.36585 0
M  V30 250 H 20.8854 3.84359 -0.484455 0
M  V30 251 H 21.2994 4.56886 -2.57595 0
M  V30 252 H 22.7734 5.41174 -1.0879 0
M  V30 253 H 23.2504 4.3842 0.261691 0
M  V30 254 H 23.8564 4.02574 -1.37164 0
M  V30 255 N 22.1715 0.800033 1.35784 0
M  V30 256 C 23.3965 0.388511 2.03729 0
M  V30 257 C 23.8215 -0.990481 1.5991 0
M  V30 258 O 23.1795 -1.64013 0.772612 0
M  V30 259 C 23.2275 0.4726 3.5749 0
M  V30 260 O 22.3315 -0.51646 4.09153 0
M  V30 261 H 21.6725 0.163271 0.643614 0
M  V30 262 H 24.2025 1.0841 1.73518 0
M  V30 263 H 24.2125 0.34003 4.06581 0
M  V30 264 H 22.8875 1.47848 3.88734 0
M  V30 265 H 21.4645 -0.344673 3.71304 0
M  V30 266 N 23.6496 -1.47581 0.552962 0
M  V30 267 C 24.6126 -2.28439 -0.186605 0
M  V30 268 C 25.6126 -1.36706 -0.84665 0
M  V30 269 O 26.8026 -1.59378 -0.703164 0
M  V30 270 C 23.9346 -3.16264 -1.2724 0
M  V30 271 H 25.1276 -2.95294 0.523609 0
M  V30 272 H 22.6806 -1.532 0.309745 0
M  V30 273 H 23.4156 -2.54091 -2.01514 0
M  V30 274 H 23.2006 -3.83769 -0.803968 0
M  V30 275 H 24.6906 -3.77198 -1.79196 0
M  V30 276 N 25.1277 -0.289203 -1.54924 0
M  V30 277 C 26.3737 0.323998 -2.00195 0
M  V30 278 C 26.7067 1.54441 -1.17735 0
M  V30 279 O 25.9817 1.92875 -0.250878 0
M  V30 280 C 26.2647 0.692276 -3.53383 0
M  V30 281 C 26.1177 -0.536457 -4.46589 0
M  V30 282 C 27.4367 1.52335 -4.12895 0
M  V30 283 H 24.5557 0.116289 -0.727768 0
M  V30 284 H 27.1977 -0.398954 -1.85764 0
M  V30 285 H 25.3477 1.30822 -3.65811 0
M  V30 286 H 27.0197 -1.17499 -4.46085 0
M  V30 287 H 25.2627 -1.17192 -4.1767 0
M  V30 288 H 25.9337 -0.234806 -5.515 0
M  V30 289 H 28.4097 1.00302 -4.0383 0
M  V30 290 H 27.2857 1.74982 -5.20262 0
M  V30 291 H 27.5467 2.50886 -3.64018 0
M  V30 292 N 26.6058 1.57591 -0.0167156 0
M  V30 293 C 27.8458 1.93145 0.668902 0
M  V30 294 C 28.2098 0.892406 1.7 0
M  V30 295 O 29.4108 1.13373 2.43721 0
M  V30 296 C 27.6818 3.33678 1.28039 0
M  V30 297 S 29.2408 3.91142 1.9888 0
M  V30 298 H 26.0588 0.67593 0.220545 0
M  V30 299 H 28.6608 1.95347 -0.0774105 0
M  V30 300 H 27.3648 4.07126 0.517339 0
M  V30 301 H 26.8958 3.3489 2.06427 0
M  V30 302 H 28.9108 3.73571 3.26587 0
M  V30 303 N 28.0839 -0.256276 1.55502 0
M  V30 304 C 29.3299 -0.987079 1.77157 0
M  V30 305 C 29.6629 -1.85327 0.580315 0
M  V30 306 O 28.9379 -1.89874 -0.421686 0
M  V30 307 C 29.2209 -1.85553 3.08613 0
M  V30 308 C 29.0739 -1.01816 4.38125 0
M  V30 309 C 30.3929 -2.8397 3.36228 0
M  V30 310 H 27.5119 -0.357428 0.644526 0
M  V30 311 H 30.1539 -0.258239 1.88237 0
M  V30 312 H 28.3039 -2.47695 2.99298 0
M  V30 313 H 29.9759 -0.416159 4.59419 0
M  V30 314 H 28.2189 -0.322178 4.32602 0
M  V30 315 H 28.8899 -1.65939 5.26468 0
M  V30 316 H 31.3659 -2.31964 3.45445 0
M  V30 317 H 30.2419 -3.41864 4.29442 0
M  V30 318 H 30.5029 -3.59955 2.56681 0
M  V30 319 N 29.562 -1.4872 -0.521534 0
M  V30 320 C 30.525 -1.63379 -1.60748 0
M  V30 321 C 31.525 -0.50661 -1.52611 0
M  V30 322 O 32.715 -0.772601 -1.5613 0
M  V30 323 C 29.847 -1.61192 -3.00383 0
M  V30 324 H 31.04 -2.60217 -1.49087 0
M  V30 325 H 28.593 -1.37444 -0.744235 0
M  V30 326 H 29.328 -0.65863 -3.17541 0
M  V30 327 H 29.113 -2.43032 -3.07698 0
M  V30 328 H 30.603 -1.7466 -3.7932 0
M  V30 329 N 31.0401 0.771051 -1.3745 0
M  V30 330 C 32.2881 1.52661 -1.32435 0
M  V30 331 C 32.6091 1.9479 0.0905024 0
M  V30 332 O 31.8791 1.66348 1.03466 0
M  V30 333 H 30.4591 0.566218 -0.487244 0
M  V30 334 H 33.1211 0.917636 -1.71946 0
M  V30 335 H 32.2171 2.42568 -1.96385 0
M  V30 336 N 32.5182 1.22032 0.997298 0
M  V30 337 C 33.7642 1.04376 1.73878 0
M  V30 338 C 34.0972 -0.420716 1.89588 0
M  V30 339 O 33.3722 -1.31202 1.43583 0
M  V30 340 C 33.6552 1.75047 3.14691 0
M  V30 341 C 33.5082 3.29062 3.06656 0
M  V30 342 C 34.8272 1.49928 4.13775 0
M  V30 343 H 31.9462 0.380578 0.631133 0
M  V30 344 H 34.5882 1.50312 1.16217 0
M  V30 345 H 32.7382 1.35996 3.63919 0
M  V30 346 H 34.4102 3.7753 2.65083 0
M  V30 347 H 32.6532 3.58967 2.43568 0
M  V30 348 H 33.3242 3.73683 4.06282 0
M  V30 349 H 35.8002 1.83842 3.73285 0
M  V30 350 H 34.6762 2.01878 5.10428 0
M  V30 351 H 34.9372 0.430929 4.39995 0
M  V30 352 N 33.9963 -1.19345 1.0293 0
M  V30 353 C 34.9063 -2.26245 0.620515 0
M  V30 354 C 35.9223 -1.70486 -0.347928 0
M  V30 355 O 37.0983 -2.00347 -0.205704 0
M  V30 356 C 34.1633 -3.46693 -0.0218957 0
M  V30 357 C 33.2243 -4.17632 0.994102 0
M  V30 358 C 32.4573 -5.32329 0.382253 0
M  V30 359 O 32.6803 -5.64552 -0.814676 0
M  V30 360 O 31.6143 -5.91664 1.10531 0
M  V30 361 H 35.4403 -2.63453 1.51083 0
M  V30 362 H 33.0253 -1.26207 0.799513 0
M  V30 363 H 34.9073 -4.19683 -0.380072 0
M  V30 364 H 33.5823 -3.11333 -0.886209 0
M  V30 365 H 32.4893 -3.4676 1.40387 0
M  V30 366 H 33.8223 -4.56964 1.8288 0
M  V30 367 N 35.4744 -0.807222 -1.35358 0
M  V30 368 C 36.7024 -0.400377 -2.02989 0
M  V30 369 C 37.1174 0.988859 -1.60832 0
M  V30 370 O 36.4744 1.63729 -0.806175 0
M  V30 371 C 36.5254 -0.474867 -3.58368 0
M  V30 372 O 36.2464 -1.80933 -3.98992 0
M  V30 373 C 37.7474 -0.0609112 -4.43258 0
M  V30 374 H 34.9674 -0.162587 -0.651004 0
M  V30 375 H 37.5114 -1.09102 -1.72965 0
M  V30 376 H 35.6664 0.167534 -3.87038 0
M  V30 377 H 36.0804 -1.77256 -4.9364 0
M  V30 378 H 37.5544 -0.164145 -5.51756 0
M  V30 379 H 38.0314 0.993831 -4.27808 0
M  V30 380 H 38.6374 -0.676492 -4.19885 0
M  V30 381 N 36.9525 1.47285 -0.560781 0
M  V30 382 C 37.8825 2.32857 0.173105 0
M  V30 383 C 38.8635 1.44009 0.905281 0
M  V30 384 O 40.0485 1.7286 0.885046 0
M  V30 385 C 37.1785 3.25861 1.20133 0
M  V30 386 C 36.1325 4.23978 0.585388 0
M  V30 387 C 35.4585 5.06332 1.7185 0
M  V30 388 C 36.7585 5.20242 -0.463178 0
M  V30 389 H 38.4525 2.94466 -0.541307 0
M  V30 390 H 35.9985 1.41601 -0.261764 0
M  V30 391 H 37.9515 3.84569 1.72293 0
M  V30 392 H 36.6755 2.62315 1.94573 0
M  V30 393 H 35.3345 3.66501 0.085054 0
M  V30 394 H 34.9825 4.39186 2.45203 0
M  V30 395 H 34.6825 5.72762 1.31213 0
M  V30 396 H 36.2065 5.67899 2.24329 0
M  V30 397 H 37.6205 5.73293 -0.027502 0
M  V30 398 H 36.0175 5.94896 -0.788627 0
M  V30 399 H 37.0875 4.65504 -1.35773 0
M  V30 400 N 38.4306 0.297415 1.54768 0
M  V30 401 C 39.6766 -0.313376 2.00364 0
M  V30 402 C 40.0096 -1.53815 1.18553 0
M  V30 403 O 39.2846 -1.92739 0.261103 0
M  V30 404 C 39.5676 -0.673525 3.53745 0
M  V30 405 C 39.4206 0.560133 4.46299 0
M  V30 406 C 40.7396 -1.50143 4.13697 0
M  V30 407 H 37.8586 -0.112428 0.728374 0
M  V30 408 H 40.5006 0.4088 1.8555 0
M  V30 409 H 38.6506 -1.28881 3.665 0
M  V30 410 H 40.3226 1.19863 4.45455 0
M  V30 411 H 38.5656 1.19405 4.17043 0
M  V30 412 H 39.2366 0.26405 5.51368 0
M  V30 413 H 41.7126 -0.981588 4.04356 0
M  V30 414 H 40.5886 -1.72221 5.21182 0
M  V30 415 H 40.8496 -2.48952 3.65343 0
M  V30 416 N 39.9087 -1.5758 0.0250728 0
M  V30 417 C 41.1857 -1.82917 -0.692873 0
M  V30 418 C 41.5657 -0.908137 -1.90568 0
M  V30 419 O 40.9137 0.0372298 -2.2847 0
M  V30 420 C 41.1237 -3.32034 -1.07492 0
M  V30 421 C 42.4717 -3.98406 -1.46826 0
M  V30 422 O 43.4957 -3.36505 -1.16801 0
M  V30 423 O 42.3547 -5.07497 -2.02754 0
M  V30 424 H 39.4487 -0.754079 -0.33955 0
M  V30 425 H 41.9947 -1.69619 0.0524456 0
M  V30 426 H 40.7667 -3.90728 -0.211552 0
M  V30 427 H 40.3897 -3.50424 -1.87854 0
M  V30 428 N 41.3868 0.248026 -1.55636 0
M  V30 429 C 42.6358 0.974134 -1.76617 0
M  V30 430 C 42.9488 1.86528 -0.588796 0
M  V30 431 O 44.1548 2.62805 -0.681594 0
M  V30 432 C 42.6108 1.78213 -3.12679 0
M  V30 433 C 42.2188 0.93843 -4.38061 0
M  V30 434 C 43.9628 2.50104 -3.42999 0
M  V30 435 C 41.8698 1.74225 -5.65155 0
M  V30 436 H 40.7998 0.36745 -0.658405 0
M  V30 437 H 43.4508 0.22884 -1.82067 0
M  V30 438 H 41.8328 2.56933 -3.01333 0
M  V30 439 H 43.0068 0.193635 -4.60393 0
M  V30 440 H 41.3218 0.332905 -4.15067 0
M  V30 441 H 43.9188 3.10694 -4.3517 0
M  V30 442 H 44.2618 3.21662 -2.64271 0
M  V30 443 H 44.7948 1.78395 -3.55556 0
M  V30 444 H 41.5338 1.07043 -6.46701 0
M  V30 445 H 41.0538 2.46235 -5.46926 0
M  V30 446 H 42.7328 2.30967 -6.0437 0
M  V30 447 N 42.8649 1.48995 0.513639 0
M  V30 448 C 44.0949 1.61297 1.291 0
M  V30 449 C 44.5029 0.278656 1.87137 0
M  V30 450 O 43.8459 -0.744325 1.67945 0
M  V30 451 C 43.9079 2.61326 2.46879 0
M  V30 452 C 43.5719 4.05993 2.09807 0
M  V30 453 C 44.5689 4.93183 1.64519 0
M  V30 454 C 42.2539 4.51642 2.19829 0
M  V30 455 C 44.2479 6.24056 1.2974 0
M  V30 456 C 41.9349 5.82532 1.84662 0
M  V30 457 C 42.9329 6.68562 1.3969 0
M  V30 458 O 42.6209 7.97014 1.04992 0
M  V30 459 H 42.3529 0.546236 0.39825 0
M  V30 460 H 44.9069 1.95673 0.62459 0
M  V30 461 H 43.1369 2.22104 3.16554 0
M  V30 462 H 44.8259 2.6329 3.08923 0
M  V30 463 H 45.5919 4.59147 1.56233 0
M  V30 464 H 41.4709 3.84855 2.53786 0
M  V30 465 H 45.0149 6.91161 0.945659 0
M  V30 466 H 40.9119 6.16099 1.92594 0
M  V30 467 H 41.6799 8.09913 1.18249 0
M  V30 468 N 44.343 -0.763751 1.37857 0
M  V30 469 C 45.591 -1.51957 1.33243 0
M  V30 470 C 45.912 -1.94835 -0.0801709 0
M  V30 471 O 45.182 -1.66894 -1.02582 0
M  V30 472 H 43.762 -0.563626 0.49024 0
M  V30 473 H 46.424 -0.908504 1.7243 0
M  V30 474 H 45.52 -2.41523 1.97669 0
M  V30 475 N 45.8211 -1.22559 -0.990812 0
M  V30 476 C 47.0461 -1.07862 -1.77145 0
M  V30 477 C 47.4711 0.366447 -1.84496 0
M  V30 478 O 46.8291 1.26478 -1.29896 0
M  V30 479 C 46.8771 -1.69686 -3.18181 0
M  V30 480 O 45.9811 -0.951946 -4.01263 0
M  V30 481 H 45.3221 -0.378712 -0.545411 0
M  V30 482 H 47.8521 -1.62399 -1.2445 0
M  V30 483 H 47.8621 -1.74496 -3.68802 0
M  V30 484 H 46.5371 -2.74841 -3.12146 0
M  V30 485 H 45.1141 -0.980011 -3.59792 0
M  V30 486 N 47.2992 1.18797 -1.03562 0
M  V30 487 C 48.5452 1.8893 -0.737113 0
M  V30 488 C 48.8782 1.79837 0.732956 0
M  V30 489 O 48.1532 1.19525 1.5344 0
M  V30 490 C 48.4362 3.39607 -1.19745 0
M  V30 491 C 48.2892 3.57537 -2.72924 0
M  V30 492 C 49.6082 4.33069 -0.783526 0
M  V30 493 H 46.7272 0.686057 -0.269249 0
M  V30 494 H 49.3692 1.39797 -1.28673 0
M  V30 495 H 47.5192 3.81583 -0.729855 0
M  V30 496 H 49.1912 3.24688 -3.27682 0
M  V30 497 H 47.4342 3.00363 -3.12993 0
M  V30 498 H 48.1052 4.63238 -3.00191 0
M  V30 499 H 50.5812 3.98846 -1.18581 0
M  V30 500 H 49.4572 5.3707 -1.13343 0
M  V30 501 H 49.7182 4.40986 0.313681 0
M  V30 502 N 48.7773 0.814389 1.34928 0
M  V30 503 C 50.1883 0.458364 1.80986 0
M  V30 504 C 50.5393 -1.02042 1.67577 0
M  V30 505 O 49.6643 -1.79352 1.21086 0
M  V30 506 C 50.2593 0.825212 3.28597 0
M  V30 507 C 48.8183 0.521677 3.72767 0
M  V30 508 C 47.9653 1.04668 2.56788 0
M  V30 509 H 50.9163 1.00533 1.22795 0
M  V30 510 H 50.9373 0.12571 3.80292 0
M  V30 511 H 50.4493 1.90154 3.38324 0
M  V30 512 H 48.5503 -0.545589 3.68584 0
M  V30 513 H 48.6633 1.05977 4.67232 0
M  V30 514 H 47.0273 0.468622 2.50352 0
M  V30 515 H 47.8103 2.12927 2.6929 0
M  V30 516 N 50.2554 -1.46986 0.568584 0
M  V30 517 C 51.1654 -2.33942 -0.17555 0
M  V30 518 C 52.1814 -1.48891 -0.90041 0
M  V30 519 O 53.3574 -1.81794 -0.86676 0
M  V30 520 C 50.4224 -3.25811 -1.18524 0
M  V30 521 C 49.4834 -4.26757 -0.466582 0
M  V30 522 C 48.7164 -5.14236 -1.42817 0
M  V30 523 O 48.9394 -5.04379 -2.66379 0
M  V30 524 O 47.8734 -5.94412 -0.946453 0
M  V30 525 H 51.6994 -2.98896 0.538036 0
M  V30 526 H 49.2844 -1.4573 0.329097 0
M  V30 527 H 51.1664 -3.82527 -1.76779 0
M  V30 528 H 49.8414 -2.63471 -1.88055 0
M  V30 529 H 48.7484 -3.73769 0.157451 0
M  V30 530 H 50.0814 -4.91843 0.187485 0
M  V30 531 N 51.7335 -0.305618 -1.54608 0
M  V30 532 C 52.9815 0.301701 -1.99835 0
M  V30 533 C 53.3025 1.54054 -1.19551 0
M  V30 534 O 52.5725 1.93702 -0.292658 0
M  V30 535 H 51.1525 0.114468 -0.738178 0
M  V30 536 H 53.8145 -0.418016 -1.90364 0
M  V30 537 H 52.9105 0.570548 -3.06841 0
M  V30 538 N 53.2116 1.57565 -0.0334293 0
M  V30 539 C 54.4396 1.9628 0.654347 0
M  V30 540 C 54.8546 0.910138 1.65414 0
M  V30 541 O 54.2116 -0.107595 1.82183 0
M  V30 542 C 54.2626 3.35067 1.35693 0
M  V30 543 O 53.9836 4.36296 0.397191 0
M  V30 544 C 55.4846 3.88439 2.13613 0
M  V30 545 H 52.7046 0.646369 0.180132 0
M  V30 546 H 55.2486 2.04282 -0.0944721 0
M  V30 547 H 53.4036 3.2827 2.05712 0
M  V30 548 H 53.8176 5.1678 0.896597 0
M  V30 549 H 55.2916 4.8788 2.58219 0
M  V30 550 H 55.7686 3.22914 2.97696 0
M  V30 551 H 56.3746 3.98516 1.48543 0
M  V30 552 N 54.6897 -0.239769 1.55765 0
M  V30 553 C 55.5997 -1.31831 1.94056 0
M  V30 554 C 56.6157 -1.52275 0.841925 0
M  V30 555 O 57.7917 -1.65759 1.14394 0
M  V30 556 C 54.8567 -2.65156 2.23368 0
M  V30 557 C 53.9177 -2.53173 3.46701 0
M  V30 558 C 53.1507 -3.8014 3.74606 0
M  V30 559 O 53.3737 -4.82343 3.04469 0
M  V30 560 O 52.3077 -3.78344 4.68123 0
M  V30 561 H 56.1337 -1.02347 2.85935 0
M  V30 562 H 53.7187 -0.441123 1.42739 0
M  V30 563 H 55.6007 -3.43929 2.43497 0
M  V30 564 H 54.2757 -2.94358 1.34666 0
M  V30 565 H 53.1827 -1.72662 3.31871 0
M  V30 566 H 54.5157 -2.28915 4.35728 0
M  V30 567 N 56.1678 -1.49265 -0.50573 0
M  V30 568 C 57.1008 -1.60183 -1.62532 0
M  V30 569 C 58.0788 -0.451107 -1.56217 0
M  V30 570 O 59.2628 -0.666016 -1.76342 0
M  V30 571 C 56.3898 -1.55238 -3.01029 0
M  V30 572 C 55.4358 -2.7545 -3.25621 0
M  V30 573 S 56.2688 -4.37174 -3.09256 0
M  V30 574 C 57.4248 -4.34866 -4.50158 0
M  V30 575 H 57.6578 -2.54894 -1.53025 0
M  V30 576 H 55.1908 -1.38098 -0.690535 0
M  V30 577 H 57.1488 -1.53071 -3.80893 0
M  V30 578 H 55.8098 -0.618238 -3.07956 0
M  V30 579 H 55.0028 -2.68197 -4.26716 0
M  V30 580 H 54.6048 -2.75005 -2.53472 0
M  V30 581 H 56.8968 -4.06295 -5.42154 0
M  V30 582 H 57.8398 -5.36223 -4.62462 0
M  V30 583 H 58.2478 -3.65007 -4.30616 0
M  V30 584 N 57.6459 0.756429 -1.3826 0
M  V30 585 C 58.8929 1.51547 -1.34312 0
M  V30 586 C 59.2209 1.94382 0.0677144 0
M  V30 587 O 58.4759 1.65514 1.04421 0
M  V30 588 C 58.7749 2.78313 -2.24224 0
M  V30 589 C 58.4409 2.54455 -3.72241 0
M  V30 590 C 57.1029 2.47657 -4.12576 0
M  V30 591 C 59.4549 2.3354 -4.65949 0
M  V30 592 C 56.7829 2.17956 -5.44713 0
M  V30 593 C 59.1349 2.05359 -5.9834 0
M  V30 594 C 57.7989 1.97016 -6.37762 0
M  V30 595 H 57.0689 0.55455 -0.491482 0
M  V30 596 H 59.7159 0.870039 -1.70595 0
M  V30 597 H 58.0209 3.47492 -1.80987 0
M  V30 598 H 59.7179 3.36259 -2.18474 0
M  V30 599 H 56.3079 2.60616 -3.40261 0
M  V30 600 H 60.4919 2.37772 -4.35635 0
M  V30 601 H 55.7479 2.10003 -5.74203 0
M  V30 602 H 59.9219 1.88179 -6.70494 0
M  V30 603 H 57.5489 1.73766 -7.40074 0
M  V30 604 N 59.124 1.23083 0.984299 0
M  V30 605 C 60.034 1.02515 2.11016 0
M  V30 606 C 61.05 -0.0291702 1.73976 0
M  V30 607 O 62.226 0.165434 2.00719 0
M  V30 608 C 59.291 0.614673 3.41208 0
M  V30 609 C 58.352 1.74359 3.92297 0
M  V30 610 C 57.585 1.35261 5.16275 0
M  V30 611 O 57.808 0.235136 5.69915 0
M  V30 612 O 56.742 2.17227 5.61334 0
M  V30 613 H 60.568 1.96862 2.31255 0
M  V30 614 H 58.153 1.01753 1.09392 0
M  V30 615 H 60.035 0.396518 4.1953 0
M  V30 616 H 58.71 -0.299851 3.22308 0
M  V30 617 H 57.617 2.01635 3.1511 0
M  V30 618 H 58.95 2.63629 4.15645 0
M  V30 619 N 60.6021 -1.18246 1.0419 0
M  V30 620 C 61.8481 -1.88536 0.747122 0
M  V30 621 C 62.1811 -1.80223 -0.723409 0
M  V30 622 O 61.4561 -1.20337 -1.52804 0
M  V30 623 C 61.7391 -3.38968 1.21544 0
M  V30 624 C 61.5921 -3.56084 2.74816 0
M  V30 625 C 62.9111 -4.32648 0.806482 0
M  V30 626 H 60.0301 -0.684619 0.272883 0
M  V30 627 H 62.6721 -1.39113 1.29413 0
M  V30 628 H 60.8221 -3.8119 0.750081 0
M  V30 629 H 62.4941 -3.22946 3.29399 0
M  V30 630 H 60.7371 -2.98699 3.14582 0
M  V30 631 H 61.4081 -4.61639 3.02644 0
M  V30 632 H 63.8841 -3.98211 1.20695 0
M  V30 633 H 62.7601 -5.36462 1.1619 0
M  V30 634 H 63.0211 -4.41146 -0.29029 0
M  V30 635 N 62.0802 -0.821533 -1.34494 0
M  V30 636 C 63.3102 -0.421272 -2.02259 0
M  V30 637 C 63.7182 0.977047 -1.6202 0
M  V30 638 O 63.0612 1.64348 -0.820703 0
M  V30 639 C 63.1232 -0.44231 -3.56769 0
M  V30 640 C 62.7872 -1.79372 -4.20327 0
M  V30 641 C 63.7842 -2.75435 -4.40944 0
M  V30 642 C 61.4692 -2.08182 -4.57127 0
M  V30 643 C 63.4632 -3.98482 -4.97484 0
M  V30 644 C 61.1502 -3.31489 -5.13379 0
M  V30 645 C 62.1482 -4.26457 -5.33501 0
M  V30 646 O 61.8362 -5.47585 -5.88562 0
M  V30 647 H 61.5682 -0.167473 -0.654927 0
M  V30 648 H 64.1222 -1.11073 -1.72777 0
M  V30 649 H 62.3522 0.303836 -3.85505 0
M  V30 650 H 64.0412 -0.0622925 -4.05852 0
M  V30 651 H 64.8072 -2.54473 -4.12878 0
M  V30 652 H 60.6862 -1.35066 -4.4077 0
M  V30 653 H 64.2302 -4.72618 -5.13106 0
M  V30 654 H 60.1272 -3.52316 -5.40873 0
M  V30 655 H 60.8952 -5.49086 -6.06998 0
M  V30 656 N 63.5583 1.46682 -0.576371 0
M  V30 657 C 64.8063 2.02013 -0.0594163 0
M  V30 658 C 65.1273 1.45101 1.30271 0
M  V30 659 O 64.3973 0.633317 1.8538 0
M  V30 660 H 62.9773 0.746759 -0.0189745 0
M  V30 661 H 65.6393 1.79862 -0.750717 0
M  V30 662 H 64.7353 3.12097 0.014345 0
M  V30 663 N 65.0364 0.313813 1.54444 0
M  V30 664 C 66.2644 -0.293918 2.04802 0
M  V30 665 C 66.6794 -1.46537 1.19047 0
M  V30 666 O 66.0364 -1.81182 0.218939 0
M  V30 667 C 66.0874 -0.737806 3.53891 0
M  V30 668 O 65.8084 0.387038 4.36387 0
M  V30 669 C 67.3094 -1.40936 4.203 0
M  V30 670 H 64.5294 -0.0620057 0.668129 0
M  V30 671 H 67.0734 0.457169 1.99324 0
M  V30 672 H 65.2284 -1.43889 3.59687 0
M  V30 673 H 65.6424 0.0391274 5.24485 0
M  V30 674 H 67.1164 -1.67099 5.26101 0
M  V30 675 H 67.5934 -2.35355 3.70816 0
M  V30 676 H 68.1994 -0.751117 4.18615 0
M  V30 677 N 66.5145 -1.57545 0.0417849 0
M  V30 678 C 67.9255 -1.80011 -0.495259 0
M  V30 679 C 68.2765 -0.953199 -1.71489 0
M  V30 680 O 67.4015 -0.167138 -2.15754 0
M  V30 681 C 67.9965 -3.26482 -0.905265 0
M  V30 682 C 66.5555 -3.499 -1.38734 0
M  V30 683 C 65.7025 -2.74979 -0.358056 0
M  V30 684 H 68.6535 -1.56425 0.267736 0
M  V30 685 H 68.6745 -3.36887 -1.76882 0
M  V30 686 H 68.1865 -3.88096 -0.017401 0
M  V30 687 H 66.2875 -2.93553 -2.29471 0
M  V30 688 H 66.4005 -4.58615 -1.38598 0
M  V30 689 H 64.7645 -2.40834 -0.828912 0
M  V30 690 H 65.5475 -3.39315 0.521561 0
M  V30 691 N 67.9926 0.231505 -1.5589 0
M  V30 692 C 69.2406 0.955461 -1.78088 0
M  V30 693 C 69.5616 1.85262 -0.608533 0
M  V30 694 O 68.8316 1.92277 0.375035 0
M  V30 695 H 67.4116 0.355787 -0.656829 0
M  V30 696 H 70.0736 0.245751 -1.93344 0
M  V30 697 H 69.1696 1.56814 -2.69844 0
M  V30 698 N 69.4707 1.49531 0.497807 0
M  V30 699 C 70.7167 1.59415 1.25358 0
M  V30 700 C 71.0497 0.281422 1.9215 0
M  V30 701 O 70.3247 -0.715249 1.80871 0
M  V30 702 C 70.6077 2.75566 2.3181 0
M  V30 703 C 70.4607 4.16642 1.69498 0
M  V30 704 C 71.7797 2.87347 3.33346 0
M  V30 705 H 68.8987 0.580244 0.454408 0
M  V30 706 H 71.5407 1.81827 0.551262 0
M  V30 707 H 69.6907 2.56587 2.91711 0
M  V30 708 H 71.3627 4.47145 1.13399 0
M  V30 709 H 69.6057 4.22141 0.998978 0
M  V30 710 H 70.2767 4.93792 2.46725 0
M  V30 711 H 72.7527 3.04634 2.83438 0
M  V30 712 H 71.6287 3.70289 4.05188 0
M  V30 713 H 71.8897 1.96834 3.95865 0
M  V30 714 N 70.9488 -0.749086 1.3866 0
M  V30 715 C 72.2258 -1.4992 1.25632 0
M  V30 716 C 72.6058 -2.10633 -0.140317 0
M  V30 717 O 71.9538 -1.97437 -1.15025 0
M  V30 718 C 72.1638 -2.56195 2.36992 0
M  V30 719 C 73.5118 -3.22972 2.75634 0
M  V30 720 O 74.5358 -2.66502 2.36337 0
M  V30 721 O 73.3948 -4.25122 3.43415 0
M  V30 722 H 70.4888 -0.665067 0.491544 0
M  V30 723 H 73.0348 -0.784113 1.50498 0
M  V30 724 H 71.8068 -2.09612 3.30422 0
M  V30 725 H 71.4298 -3.35279 2.13714 0
M  V30 726 N 72.4269 -1.23603 -0.977757 0
M  V30 727 C 73.6759 -1.06377 -1.71368 0
M  V30 728 C 73.9889 0.399062 -1.91486 0
M  V30 729 O 75.1949 0.691312 -2.62551 0
M  V30 730 C 73.6509 -1.85512 -3.08404 0
M  V30 731 C 73.2589 -3.36141 -2.96164 0
M  V30 732 C 75.0029 -1.76783 -3.85938 0
M  V30 733 C 72.9099 -4.07659 -4.28449 0
M  V30 734 H 71.8399 -0.394452 -0.642591 0
M  V30 735 H 74.4909 -1.47594 -1.09034 0
M  V30 736 H 72.8729 -1.37103 -3.71509 0
M  V30 737 H 74.0469 -3.92056 -2.42133 0
M  V30 738 H 72.3619 -3.45712 -2.32104 0
M  V30 739 H 74.9589 -2.27526 -4.83876 0
M  V30 740 H 75.3019 -0.731116 -4.0983 0
M  V30 741 H 75.8349 -2.22818 -3.2954 0
M  V30 742 H 72.5739 -5.11648 -4.09752 0
M  V30 743 H 72.0939 -3.5653 -4.82334 0
M  V30 744 H 73.7729 -4.141 -4.97122 0
M  V30 745 N 73.905 1.17692 -1.04816 0
M  V30 746 C 75.135 1.91508 -0.775128 0
M  V30 747 C 75.543 1.76844 0.67253 0
M  V30 748 O 74.886 1.10057 1.47082 0
M  V30 749 C 74.948 3.43167 -1.0713 0
M  V30 750 C 74.612 3.81612 -2.51438 0
M  V30 751 C 75.609 3.84772 -3.49638 0
M  V30 752 C 73.294 4.12687 -2.86348 0
M  V30 753 C 75.288 4.18469 -4.80794 0
M  V30 754 C 72.975 4.46053 -4.17708 0
M  V30 755 C 73.973 4.48921 -5.14741 0
M  V30 756 O 73.661 4.81504 -6.43746 0
M  V30 757 H 73.393 0.614575 -0.281555 0
M  V30 758 H 75.947 1.50206 -1.40098 0
M  V30 759 H 74.177 3.84745 -0.388342 0
M  V30 760 H 75.866 3.98239 -0.784883 0
M  V30 761 H 76.632 3.60893 -3.24008 0
M  V30 762 H 72.511 4.09627 -2.11486 0
M  V30 763 H 76.055 4.20623 -5.56527 0
M  V30 764 H 71.952 4.69393 -4.43103 0
M  V30 765 H 72.72 4.99377 -6.4851 0
M  V30 766 N 75.3831 0.828654 1.34056 0
M  V30 767 C 76.6321 0.415828 1.97367 0
M  V30 768 C 76.9451 -1.02796 1.6641 0
M  V30 769 O 78.1511 -1.54497 2.23255 0
M  V30 770 C 76.6071 0.692601 3.53173 0
M  V30 771 C 76.2151 2.15038 3.93017 0
M  V30 772 C 77.9591 0.346222 4.23086 0
M  V30 773 C 75.8661 2.37174 5.41758 0
M  V30 774 H 74.7961 0.151755 0.738571 0
M  V30 775 H 77.4471 1.01581 1.52819 0
M  V30 776 H 75.8291 0.0223764 3.95994 0
M  V30 777 H 77.0031 2.86024 3.61285 0
M  V30 778 H 75.3181 2.45875 3.36057 0
M  V30 779 H 77.9151 0.48937 5.32456 0
M  V30 780 H 78.2581 -0.709842 4.10204 0
M  V30 781 H 78.7911 0.971258 3.85761 0
M  V30 782 H 75.5301 3.41308 5.59633 0
M  V30 783 H 75.0501 1.70738 5.74986 0
M  V30 784 H 76.7291 2.19818 6.08514 0
M  V30 785 N 76.8612 -1.46375 0.584142 0
M  V30 786 C 78.0862 -2.07268 0.0740405 0
M  V30 787 C 78.5112 -1.42979 -1.22223 0
M  V30 788 O 77.8692 -0.514092 -1.73859 0
M  V30 789 C 77.9172 -3.60518 -0.0767769 0
M  V30 790 O 77.0212 -3.96533 -1.13292 0
M  V30 791 H 76.3622 -0.660961 0.0634524 0
M  V30 792 H 78.8922 -1.87991 0.807492 0
M  V30 793 H 78.9022 -4.07021 -0.282489 0
M  V30 794 H 77.5772 -4.06702 0.86986 0
M  V30 795 H 76.1542 -3.61738 -0.905553 0
M  V30 796 N 78.3393 -0.321999 -1.54275 0
M  V30 797 C 79.7503 0.166384 -1.85957 0
M  V30 798 C 80.1013 1.51747 -1.24367 0
M  V30 799 O 79.2263 2.09317 -0.549124 0
M  V30 800 C 79.8213 0.308681 -3.37391 0
M  V30 801 C 78.3803 0.741286 -3.69028 0
M  V30 802 C 77.5273 -0.137937 -2.76957 0
M  V30 803 H 80.4783 -0.542335 -1.49146 0
M  V30 804 H 80.4993 1.13984 -3.63026 0
M  V30 805 H 80.0113 -0.674809 -3.82188 0
M  V30 806 H 78.1123 1.73458 -3.29762 0
M  V30 807 H 78.2253 0.546118 -4.75977 0
M  V30 808 H 76.5893 0.386251 -2.51754 0
M  V30 809 H 77.3723 -1.11816 -3.2458 0
M  V30 810 N 79.8174 1.5752 -0.0501392 0
M  V30 811 C 80.7654 2.12651 0.942459 0
M  V30 812 C 81.7594 1.05807 1.32292 0
M  V30 813 O 82.9654 1.24217 1.3027 0
M  V30 814 H 79.3404 0.679673 0.321789 0
M  V30 815 H 81.3114 2.94951 0.452356 0
M  V30 816 C 80.0604 2.68565 2.20836 0
M  V30 817 H 79.3834 3.50439 1.92439 0
M  V30 818 H 80.8234 3.10761 2.8845 0
M  V30 819 C 79.2824 1.62291 2.95234 0
M  V30 820 O 79.8124 1.03508 3.88135 0
M  V30 821 N 78.0184 1.33836 2.57946 0
M  V30 822 H 77.5654 1.81826 1.82475 0
M  V30 823 H 77.5234 0.629595 3.08032 0
M  V30 824 N 81.2955 -0.223234 1.56011 0
M  V30 825 C 82.2285 -1.30377 1.87289 0
M  V30 826 C 83.2065 -1.45286 0.730112 0
M  V30 827 O 84.3905 -1.61126 0.978302 0
M  V30 828 C 81.5175 -2.67431 2.07843 0
M  V30 829 C 80.5635 -2.69546 3.30526 0
M  V30 830 S 81.3965 -2.23781 4.865 0
M  V30 831 C 82.5525 -3.62714 5.10088 0
M  V30 832 H 82.7855 -1.03652 2.78646 0
M  V30 833 H 80.3185 -0.425393 1.48424 0
M  V30 834 H 82.2765 -3.46336 2.20368 0
M  V30 835 H 80.9375 -2.91381 1.17285 0
M  V30 836 H 80.1305 -3.70255 3.41947 0
M  V30 837 H 79.7325 -1.98703 3.16849 0
M  V30 838 H 82.0245 -4.58391 4.98883 0
M  V30 839 H 82.9675 -3.5621 6.11981 0
M  V30 840 H 83.3755 -3.56323 4.37829 0
M  V30 841 N 82.7736 -1.49793 -0.48987 0
M  V30 842 C 83.6836 -1.70036 -1.61632 0
M  V30 843 C 84.6996 -0.583102 -1.63939 0
M  V30 844 O 85.8756 -0.859169 -1.82154 0
M  V30 845 C 82.9406 -1.77277 -2.97949 0
M  V30 846 C 82.0016 -3.00918 -3.06181 0
M  V30 847 C 81.2346 -3.07804 -4.35996 0
M  V30 848 O 81.4576 -2.21982 -5.25433 0
M  V30 849 O 80.3916 -4.00369 -4.49431 0
M  V30 850 H 84.2176 -2.65486 -1.47482 0
M  V30 851 H 81.8026 -1.33666 -0.667362 0
M  V30 852 H 83.6846 -1.84329 -3.78947 0
M  V30 853 H 82.3596 -0.850076 -3.12339 0
M  V30 854 H 81.2666 -2.99377 -2.2433 0
M  V30 855 H 82.5996 -3.92704 -2.96723 0
M  V30 856 N 84.2517 0.741722 -1.39055 0
M  V30 857 C 85.6677 1.04638 -1.20512 0
M  V30 858 C 85.8677 2.01405 -0.0620218 0
M  V30 859 O 84.9237 2.45547 0.588457 0
M  V30 860 C 86.2367 1.6151 -2.53643 0
M  V30 861 C 87.7847 1.73623 -2.6043 0
M  V30 862 C 88.2597 2.33906 -3.93767 0
M  V30 863 N 89.7507 2.41323 -3.9537 0
M  V30 864 C 90.4857 2.88888 -4.95309 0
M  V30 865 N 89.9817 3.36401 -6.05645 0
M  V30 866 N 91.7747 2.88037 -4.82692 0
M  V30 867 H 83.9257 0.0998155 -2.12165 0
M  V30 868 H 86.1887 0.106907 -0.941953 0
M  V30 869 H 85.8947 0.978739 -3.37807 0
M  V30 870 H 85.7687 2.60411 -2.72885 0
M  V30 871 H 88.1557 2.36384 -1.76655 0
M  V30 872 H 88.2367 0.733945 -2.45045 0
M  V30 873 H 87.8807 1.71776 -4.7797 0
M  V30 874 H 87.8107 3.34799 -4.06469 0
M  V30 875 H 90.3017 2.07734 -3.15682 0
M  V30 876 H 90.6147 3.71186 -6.77821 0
M  V30 877 H 88.9597 3.34427 -6.09248 0
M  V30 878 H 92.1507 2.50237 -3.95599 0
M  V30 879 H 92.3237 3.24792 -5.60726 0
M  V30 880 N 85.7298 1.2412 0.971189 0
M  V30 881 C 86.9778 1.07668 1.71032 0
M  V30 882 C 87.2988 -0.385797 1.91146 0
M  V30 883 O 86.5688 -1.27569 1.4867 0
M  V30 884 H 85.1488 0.395429 0.633755 0
M  V30 885 H 87.8108 1.55984 1.16855 0
M  V30 886 H 86.9068 1.57195 2.69622 0
M  V30 887 N 87.2079 -1.17134 1.05439 0
M  V30 888 C 88.6239 -1.39454 0.776201 0
M  V30 889 C 88.8239 -1.91454 -0.628307 0
M  V30 890 O 87.8799 -2.10777 -1.39031 0
M  V30 891 C 89.1929 -2.38305 1.83388 0
M  V30 892 C 90.7409 -2.52006 1.85639 0
M  V30 893 C 91.2159 -3.54133 2.90437 0
M  V30 894 N 92.7069 -3.61653 2.89415 0
M  V30 895 C 93.4419 -4.4044 3.67152 0
M  V30 896 N 92.9379 -5.22721 4.54681 0
M  V30 897 N 94.7309 -4.35337 3.55581 0
M  V30 898 H 86.8819 -0.817134 1.96053 0
M  V30 899 H 89.1449 -0.421626 0.849079 0
M  V30 900 H 88.8509 -2.07173 2.84204 0
M  V30 901 H 88.7249 -3.37841 1.67761 0
M  V30 902 H 91.1119 -2.82447 0.85486 0
M  V30 903 H 91.1929 -1.52537 2.05344 0
M  V30 904 H 90.8369 -3.24431 3.90777 0
M  V30 905 H 90.7669 -4.53313 2.67983 0
M  V30 906 H 93.2579 -3.02909 2.25952 0
M  V30 907 H 93.5709 -5.80027 5.10674 0
M  V30 908 H 91.9159 -5.22093 4.58741 0
M  V30 909 H 95.1069 -3.70112 2.86592 0
M  V30 910 H 95.2799 -4.96494 4.1641 0
M  V30 911 N 88.686 -0.835752 -1.33615 0
M  V30 912 C 89.596 -0.269088 -2.33052 0
M  V30 913 C 90.612 0.603251 -1.63208 0
M  V30 914 O 91.788 0.508112 -1.94885 0
M  V30 915 C 88.853 0.549091 -3.42324 0
M  V30 916 C 87.914 -0.347156 -4.27894 0
M  V30 917 C 87.147 0.43207 -5.31948 0
M  V30 918 O 87.37 1.66409 -5.45586 0
M  V30 919 O 86.304 -0.192298 -6.01593 0
M  V30 920 H 90.13 -1.09243 -2.83372 0
M  V30 921 H 87.715 -0.598198 -1.36901 0
M  V30 922 H 89.597 1.01414 -4.09015 0
M  V30 923 H 88.272 1.34955 -2.94226 0
M  V30 924 H 87.179 -0.859979 -3.64081 0
M  V30 925 H 88.512 -1.1123 -4.79467 0
M  V30 926 N 90.1641 1.46063 -0.591896 0
M  V30 927 C 91.5801 1.57561 -0.254288 0
M  V30 928 C 91.7801 1.58565 1.24336 0
M  V30 929 O 90.8361 1.50753 2.02558 0
M  V30 930 C 92.1491 2.86549 -0.911611 0
M  V30 931 C 93.6971 3.00197 -0.886059 0
M  V30 932 C 94.1721 4.31933 -1.5231 0
M  V30 933 N 95.6631 4.38654 -1.48786 0
M  V30 934 C 96.3981 5.39222 -1.95006 0
M  V30 935 N 95.8941 6.46414 -2.49241 0
M  V30 936 N 97.6871 5.3048 -1.85868 0
M  V30 937 H 89.8381 1.43655 -1.56451 0
M  V30 938 H 92.1011 0.68583 -0.654478 0
M  V30 939 H 91.8071 2.91651 -1.96551 0
M  V30 940 H 91.6811 3.74794 -0.425368 0
M  V30 941 H 94.0681 2.9467 0.159246 0
M  V30 942 H 94.1491 2.13403 -1.41041 0
M  V30 943 H 93.7931 4.38217 -2.56765 0
M  V30 944 H 93.7231 5.17516 -0.973891 0
M  V30 945 H 96.2141 3.61793 -1.09151 0
M  V30 946 H 96.5271 7.19376 -2.82344 0
M  V30 947 H 94.8721 6.47208 -2.53272 0
M  V30 948 H 98.0631 4.45643 -1.43248 0
M  V30 949 H 98.2361 6.08711 -2.22204 0
M  V30 950 N 91.6422 0.330177 1.54103 0
M  V30 951 C 92.6052 -0.520144 2.2322 0
M  V30 952 C 93.6052 -1.03828 1.22786 0
M  V30 953 O 94.7952 -0.929652 1.4732 0
M  V30 954 C 91.9272 -1.72317 2.94142 0
M  V30 955 H 93.1202 0.0841605 2.99782 0
M  V30 956 H 90.6732 0.0813433 1.56088 0
M  V30 957 H 91.4082 -2.36653 2.21734 0
M  V30 958 H 91.1932 -1.35898 3.67796 0
M  V30 959 H 92.6832 -2.3266 3.46784 0
M  V30 960 N 93.1203 -1.57491 0.0584922 0
M  V30 961 C 94.3973 -1.84346 -0.653918 0
M  V30 962 C 94.7773 -0.948355 -1.88599 0
M  V30 963 O 94.1253 -0.0112403 -2.28497 0
M  V30 964 C 94.3353 -3.34239 -1.00425 0
M  V30 965 C 95.6833 -4.01431 -1.38342 0
M  V30 966 O 96.7073 -3.38907 -1.09637 0
M  V30 967 O 95.5663 -5.11683 -1.91943 0
M  V30 968 H 92.6603 -0.761112 -0.323478 0
M  V30 969 H 95.2063 -1.6947 0.0884125 0
M  V30 970 H 93.9783 -3.91089 -0.128625 0
M  V30 971 H 93.6013 -3.54329 -1.80378 0
M  V30 972 N 94.5984 0.214957 -1.56127 0
M  V30 973 C 95.8264 0.955092 -1.83536 0
M  V30 974 C 96.2414 1.77677 -0.638472 0
M  V30 975 O 95.5984 1.78219 0.392968 0
M  V30 976 C 95.6494 1.86734 -3.09536 0
M  V30 977 O 95.3704 1.07887 -4.24608 0
M  V30 978 C 96.8714 2.72082 -3.4998 0
M  V30 979 H 94.0914 0.279611 -0.609966 0
M  V30 980 H 96.6354 0.228197 -2.03223 0
M  V30 981 H 94.7904 2.5481 -2.91806 0
M  V30 982 H 95.2044 1.69872 -4.9623 0
M  V30 983 H 96.6784 3.31782 -4.41163 0
M  V30 984 H 97.1554 3.44806 -2.7204 0
M  V30 985 H 97.7614 2.09409 -3.70173 0
M  V30 986 N 96.0765 1.50051 0.48192 0
M  V30 987 C 97.4925 1.37237 0.814756 0
M  V30 988 C 97.6925 0.420109 1.97072 0
M  V30 989 O 96.7485 -0.141246 2.52105 0
M  V30 990 C 98.0615 2.78375 1.13701 0
M  V30 991 C 99.6095 2.87213 1.2441 0
M  V30 992 C 100.084 4.29161 1.59954 0
M  V30 993 N 101.575 4.32061 1.66967 0
M  V30 994 C 102.31 5.38879 1.95952 0
M  V30 995 N 101.806 6.55918 2.23031 0
M  V30 996 N 103.599 5.26312 1.97363 0
M  V30 997 H 95.7505 2.10546 -0.28005 0
M  V30 998 H 98.0135 0.945921 -0.0627454 0
M  V30 999 H 97.7195 3.49845 0.360787 0
M  V30 1000 H 97.5935 3.14941 2.07586 0
M  V30 1001 H 99.9805 2.15969 2.01101 0
M  V30 1002 H 100.061 2.54204 0.285299 0
M  V30 1003 H 99.7055 5.00938 0.838067 0
M  V30 1004 H 99.6355 4.59648 2.56966 0
M  V30 1005 H 102.126 3.47661 1.48123 0
M  V30 1006 H 102.439 7.33139 2.44391 0
M  V30 1007 H 100.784 6.59112 2.20447 0
M  V30 1008 H 103.975 4.33876 1.75697 0
M  V30 1009 H 104.148 6.09649 2.19618 0
M  V30 1010 N 97.5546 -0.734337 1.39446 0
M  V30 1011 C 98.9706 -1.03997 1.21065 0
M  V30 1012 C 99.1706 -2.01369 0.0727019 0
M  V30 1013 O 98.2266 -2.45856 -0.575426 0
M  V30 1014 C 99.5396 -1.60163 2.54496 0
M  V30 1015 C 101.088 -1.7224 2.61347 0
M  V30 1016 C 101.563 -2.31814 3.95002 0
M  V30 1017 N 103.054 -2.39223 3.96644 0
M  V30 1018 C 103.789 -2.86258 4.96834 0
M  V30 1019 N 103.285 -3.33184 6.07421 0
M  V30 1020 N 105.078 -2.85473 4.84213 0
M  V30 1021 H 97.2286 -0.0885624 2.12215 0
M  V30 1022 H 99.4916 -0.10191 0.942506 0
M  V30 1023 H 99.1976 -0.960811 3.38321 0
M  V30 1024 H 99.0716 -2.5896 2.74262 0
M  V30 1025 H 101.459 -2.35443 1.77906 0
M  V30 1026 H 101.54 -0.720939 2.4543 0
M  V30 1027 H 101.184 -1.69238 4.78875 0
M  V30 1028 H 101.114 -3.32638 4.08239 0
M  V30 1029 H 103.605 -2.06057 3.16779 0
M  V30 1030 H 103.918 -3.67586 6.7978 0
M  V30 1031 H 102.263 -3.31191 6.11013 0
M  V30 1032 H 105.454 -2.48136 3.96921 0
M  V30 1033 H 105.627 -3.21814 5.62441 0
M  V30 1034 N 99.0327 -1.24633 -0.964593 0
M  V30 1035 C 100.279 -1.09957 -1.71117 0
M  V30 1036 C 100.634 0.357422 -1.89051 0
M  V30 1037 O 99.9267 1.26029 -1.44317 0
M  V30 1038 C 100.121 -1.7763 -3.10133 0
M  V30 1039 C 99.9497 -3.29759 -3.05759 0
M  V30 1040 C 98.7197 -3.98981 -3.10068 0
M  V30 1041 C 100.918 -4.26305 -2.87695 0
M  V30 1042 N 98.8997 -5.37966 -2.95747 0
M  V30 1043 C 100.271 -5.52308 -2.81702 0
M  V30 1044 C 102.326 -4.16842 -2.72299 0
M  V30 1045 C 101.029 -6.69931 -2.61887 0
M  V30 1046 C 103.055 -5.34147 -2.53853 0
M  V30 1047 C 102.417 -6.59084 -2.48572 0
M  V30 1048 H 98.5157 -0.457003 -0.634564 0
M  V30 1049 H 101.1 -1.57592 -1.14337 0
M  V30 1050 H 99.2707 -1.32504 -3.65099 0
M  V30 1051 H 101.003 -1.55786 -3.73514 0
M  V30 1052 H 97.7577 -3.50169 -3.18871 0
M  V30 1053 H 98.1817 -6.10877 -2.91818 0
M  V30 1054 H 102.824 -3.21007 -2.75163 0
M  V30 1055 H 100.542 -7.65886 -2.57767 0
M  V30 1056 H 104.128 -5.28678 -2.4288 0
M  V30 1057 H 103.008 -7.48324 -2.34481 0
M  V30 1058 N 100.511 1.16574 -1.06058 0
M  V30 1059 C 101.927 1.3904 -0.783585 0
M  V30 1060 C 102.127 1.91784 0.618145 0
M  V30 1061 O 101.183 2.11511 1.37911 0
M  V30 1062 C 102.496 2.37329 -1.84649 0
M  V30 1063 C 104.044 2.51018 -1.86973 0
M  V30 1064 C 104.519 3.52588 -2.92311 0
M  V30 1065 N 106.01 3.60113 -2.91329 0
M  V30 1066 C 106.745 4.38486 -3.69482 0
M  V30 1067 N 106.241 5.20302 -4.57447 0
M  V30 1068 N 108.034 4.33446 -3.57885 0
M  V30 1069 H 100.185 0.806725 -1.96483 0
M  V30 1070 H 102.448 0.417117 -0.851303 0
M  V30 1071 H 102.154 2.05663 -2.85299 0
M  V30 1072 H 102.028 3.36946 -1.6955 0
M  V30 1073 H 104.415 2.81989 -0.869827 0
M  V30 1074 H 104.496 1.51445 -2.0615 0
M  V30 1075 H 104.14 3.22354 -3.92492 0
M  V30 1076 H 104.07 4.51886 -2.70383 0
M  V30 1077 H 106.561 3.01707 -2.27555 0
M  V30 1078 H 106.874 5.77311 -5.13743 0
M  V30 1079 H 105.219 5.19653 -4.61503 0
M  V30 1080 H 108.41 3.68586 -2.88551 0
M  V30 1081 H 108.583 4.94279 -4.19037 0
M  V30 1082 N 101.989 0.842826 1.3317 0
M  V30 1083 C 103.236 0.440447 1.97652 0
M  V30 1084 C 103.564 -1.00123 1.6675 0
M  V30 1085 O 102.819 -1.7155 0.941761 0
M  V30 1086 C 103.118 0.612607 3.52111 0
M  V30 1087 C 102.784 2.02297 4.02972 0
M  V30 1088 C 101.446 2.40874 4.16573 0
M  V30 1089 C 103.798 2.94402 4.30089 0
M  V30 1090 C 101.126 3.70852 4.54627 0
M  V30 1091 C 103.478 4.23865 4.69597 0
M  V30 1092 C 102.142 4.62392 4.81404 0
M  V30 1093 H 101.412 0.161171 0.72326 0
M  V30 1094 H 104.059 1.07061 1.58777 0
M  V30 1095 H 102.364 -0.100849 3.9167 0
M  V30 1096 H 104.061 0.2815 4.00011 0
M  V30 1097 H 100.651 1.71338 3.92863 0
M  V30 1098 H 104.835 2.65835 4.19101 0
M  V30 1099 H 100.091 4.00501 4.61962 0
M  V30 1100 H 104.265 4.95306 4.89536 0
M  V30 1101 H 101.892 5.63154 5.10648 0
M  V30 1102 N 103.467 -1.45747 0.599634 0
M  V30 1103 C 104.744 -1.95585 0.0240846 0
M  V30 1104 C 105.124 -1.54217 -1.44154 0
M  V30 1105 O 104.472 -0.800903 -2.14004 0
M  V30 1106 C 104.682 -3.48344 0.21385 0
M  V30 1107 C 106.03 -4.24504 0.0904902 0
M  V30 1108 O 107.054 -3.55911 0.143558 0
M  V30 1109 O 105.913 -5.46491 -0.0310766 0
M  V30 1110 H 103.007 -0.82602 -0.0402478 0
M  V30 1111 H 105.553 -1.55951 0.669139 0
M  V30 1112 H 104.325 -3.71397 1.23206 0
M  V30 1113 H 103.948 -3.9485 -0.466842 0
M  V30 1114 N 104.945 -0.338344 -1.53925 0
M  V30 1115 C 105.908 0.508299 -2.23493 0
M  V30 1116 C 106.908 1.03175 -1.23335 0
M  V30 1117 O 108.098 0.921826 -1.47811 0
M  V30 1118 C 105.23 1.70754 -2.95052 0
M  V30 1119 H 106.423 -0.100058 -2.99733 0
M  V30 1120 H 103.976 -0.0896198 -1.56043 0
M  V30 1121 H 104.711 2.35474 -2.22986 0
M  V30 1122 H 104.496 1.33946 -3.68512 0
M  V30 1123 H 105.986 2.30818 -3.48013 0
M  V30 1124 N 106.423 1.57458 -0.0668435 0
M  V30 1125 C 107.651 1.97624 0.612565 0
M  V30 1126 C 108.066 0.94502 1.63447 0
M  V30 1127 O 107.423 -0.0689276 1.8237 0
M  V30 1128 C 107.474 3.37869 1.28555 0
M  V30 1129 O 107.195 4.3704 0.304557 0
M  V30 1130 C 108.696 3.92882 2.05325 0
M  V30 1131 H 105.916 0.650045 0.166381 0
M  V30 1132 H 108.46 2.04035 -0.137782 0
M  V30 1133 H 106.615 3.3256 1.98702 0
M  V30 1134 H 107.029 5.18565 0.786779 0
M  V30 1135 H 108.503 4.93247 2.47812 0
M  V30 1136 H 108.98 3.29156 2.9078 0
M  V30 1137 H 109.586 4.01577 1.40056 0
M  V30 1138 N 107.901 -0.206675 1.56239 0
M  V30 1139 C 108.831 -1.25909 1.96645 0
M  V30 1140 C 109.812 -1.48097 0.836734 0
M  V30 1141 O 110.997 -1.6003 1.10019 0
M  V30 1142 C 108.127 -2.6058 2.29599 0
M  V30 1143 C 107.081 -2.53024 3.452 0
M  V30 1144 C 106.407 -3.91861 3.63798 0
M  V30 1145 C 107.707 -2.06524 4.79734 0
M  V30 1146 H 109.401 -0.923369 2.84806 0
M  V30 1147 H 106.947 -0.442735 1.37025 0
M  V30 1148 H 108.9 -3.34375 2.56459 0
M  V30 1149 H 107.624 -2.95869 1.38307 0
M  V30 1150 H 106.283 -1.81684 3.18412 0
M  V30 1151 H 105.931 -4.24483 2.69857 0
M  V30 1152 H 105.631 -3.87683 4.4156 0
M  V30 1153 H 107.155 -4.67296 3.93022 0
M  V30 1154 H 108.569 -2.70072 5.05702 0
M  V30 1155 H 106.966 -2.13374 5.60885 0
M  V30 1156 H 108.036 -1.01802 4.74093 0
M  V30 1157 N 109.379 -1.50304 -0.473955 0
M  V30 1158 C 110.289 -1.7174 -1.5982 0
M  V30 1159 C 111.305 -0.600457 -1.63311 0
M  V30 1160 O 112.481 -0.878441 -1.81233 0
M  V30 1161 C 109.546 -1.80427 -2.96052 0
M  V30 1162 C 108.607 -3.04148 -3.02972 0
M  V30 1163 C 107.84 -3.12411 -4.32706 0
M  V30 1164 O 108.063 -2.27542 -5.23049 0
M  V30 1165 O 106.997 -4.05113 -4.45159 0
M  V30 1166 H 110.823 -2.67035 -1.44657 0
M  V30 1167 H 108.408 -1.34366 -0.653148 0
M  V30 1168 H 110.29 -1.88338 -3.7697 0
M  V30 1169 H 108.965 -0.883156 -3.11419 0
M  V30 1170 H 107.872 -3.0174 -2.21142 0
M  V30 1171 H 109.205 -3.95829 -2.92541 0
M  V30 1172 N 110.857 0.726932 -1.39834 0
M  V30 1173 C 112.106 1.48214 -1.36805 0
M  V30 1174 C 112.419 1.95576 0.0305291 0
M  V30 1175 O 113.625 2.7088 0.183417 0
M  V30 1176 C 112.081 2.67854 -2.40379 0
M  V30 1177 C 111.689 2.27408 -3.85992 0
M  V30 1178 C 113.433 3.45641 -2.46439 0
M  V30 1179 C 111.34 3.43819 -4.81189 0
M  V30 1180 H 110.27 0.556606 -0.508631 0
M  V30 1181 H 112.921 0.792216 -1.65518 0
M  V30 1182 H 111.303 3.3896 -2.04749 0
M  V30 1183 H 112.477 1.63795 -4.30706 0
M  V30 1184 H 110.792 1.62692 -3.83302 0
M  V30 1185 H 113.389 4.32244 -3.14753 0
M  V30 1186 H 113.732 3.88669 -1.49139 0
M  V30 1187 H 114.265 2.8157 -2.81004 0
M  V30 1188 H 111.004 3.05834 -5.79781 0
M  V30 1189 H 110.524 4.06385 -4.41148 0
M  V30 1190 H 112.203 4.10043 -5.00474 0
M  V30 1191 N 112.336 1.25143 0.95797 0
M  V30 1192 C 113.585 1.0909 1.69654 0
M  V30 1193 C 113.898 -0.368548 1.92097 0
M  V30 1194 O 115.104 -0.649455 2.63618 0
M  V30 1195 C 113.56 1.90395 3.05414 0
M  V30 1196 C 113.168 3.4081 2.90779 0
M  V30 1197 C 114.912 1.82901 3.83076 0
M  V30 1198 C 112.819 4.14423 4.21909 0
M  V30 1199 H 111.749 0.404625 0.636235 0
M  V30 1200 H 114.4 1.4931 1.06672 0
M  V30 1201 H 112.782 1.42996 3.69281 0
M  V30 1202 H 113.956 3.95859 2.35865 0
M  V30 1203 H 112.271 3.49361 2.26575 0
M  V30 1204 H 114.868 2.35196 4.80195 0
M  V30 1205 H 115.211 0.796224 4.08615 0
M  V30 1206 H 115.744 2.28033 3.25954 0
M  V30 1207 H 112.483 5.18102 4.01561 0
M  V30 1208 H 112.003 3.64159 4.76601 0
M  V30 1209 H 113.682 4.21956 4.90471 0
M  V30 1210 N 113.814 -1.1601 1.06675 0
M  V30 1211 C 115.06 -1.86909 0.786945 0
M  V30 1212 C 115.393 -1.81717 -0.685018 0
M  V30 1213 O 114.668 -1.23551 -1.50218 0
M  V30 1214 C 114.951 -3.36313 1.28707 0
M  V30 1215 C 114.804 -3.50175 2.82308 0
M  V30 1216 C 116.123 -4.3084 0.898071 0
M  V30 1217 H 113.242 -0.678677 0.287343 0
M  V30 1218 H 115.884 -1.36336 1.32334 0
M  V30 1219 H 114.034 -3.79513 0.830768 0
M  V30 1220 H 115.706 -3.15886 3.36175 0
M  V30 1221 H 113.949 -2.91959 3.20847 0
M  V30 1222 H 114.62 -4.55116 3.12368 0
M  V30 1223 H 117.096 -3.95561 1.29114 0
M  V30 1224 H 115.972 -5.33876 1.27543 0
M  V30 1225 H 116.233 -4.41662 -0.196651 0
M  V30 1226 N 115.292 -0.849877 -1.32721 0
M  V30 1227 C 116.538 -0.451591 -1.97708 0
M  V30 1228 C 116.871 0.989175 -1.6712 0
M  V30 1229 O 116.146 1.69334 -0.956891 0
M  V30 1230 C 116.429 -0.685598 -3.53513 0
M  V30 1231 C 116.282 -2.17444 -3.93749 0
M  V30 1232 C 117.601 -0.138874 -4.39881 0
M  V30 1233 H 114.72 -0.16555 -0.718166 0
M  V30 1234 H 117.362 -1.06742 -1.57182 0
M  V30 1235 H 115.512 -0.161416 -3.88165 0
M  V30 1236 H 117.184 -2.76433 -3.693 0
M  V30 1237 H 115.427 -2.65476 -3.43081 0
M  V30 1238 H 116.098 -2.28888 -5.02309 0
M  V30 1239 H 118.574 -0.587068 -4.11938 0
M  V30 1240 H 117.45 -0.332213 -5.47894 0
M  V30 1241 H 117.711 0.95806 -4.31594 0
M  V30 1242 N 116.77 1.45427 -0.607355 0
M  V30 1243 C 117.703 2.27635 0.160482 0
M  V30 1244 C 118.681 1.37122 0.873857 0
M  V30 1245 O 119.865 1.66551 0.882775 0
M  V30 1246 C 116.992 3.15486 1.23231 0
M  V30 1247 C 116.038 4.21939 0.622097 0
M  V30 1248 S 116.871 5.32459 -0.569852 0
M  V30 1249 C 118.027 6.23879 0.502577 0
M  V30 1250 H 118.26 2.9241 -0.536983 0
M  V30 1251 H 115.793 1.49265 -0.394868 0
M  V30 1252 H 117.751 3.66659 1.84585 0
M  V30 1253 H 116.412 2.49977 1.90185 0
M  V30 1254 H 115.605 4.8333 1.42856 0
M  V30 1255 H 115.207 3.73906 0.0837063 0
M  V30 1256 H 117.499 6.63261 1.38171 0
M  V30 1257 H 118.442 7.0806 -0.0751759 0
M  V30 1258 H 118.85 5.58545 0.8178 0
M  V30 1259 N 118.248 0.346503 1.53744 0
M  V30 1260 C 119.196 -0.52422 2.26616 0
M  V30 1261 C 120.19 -1.09948 1.28871 0
M  V30 1262 O 121.396 -1.04488 1.46568 0
M  V30 1263 H 117.771 -0.187743 0.728187 0
M  V30 1264 H 119.742 0.11239 2.98188 0
M  V30 1265 C 118.491 -1.66186 3.05414 0
M  V30 1266 H 117.814 -1.22848 3.80458 0
M  V30 1267 H 119.254 -2.24622 3.59612 0
M  V30 1268 C 117.713 -2.59302 2.1509 0
M  V30 1269 O 118.243 -3.61628 1.74895 0
M  V30 1270 N 116.449 -2.28055 1.8011 0
M  V30 1271 H 115.996 -1.44883 2.12994 0
M  V30 1272 H 115.954 -2.90615 1.19958 0
M  V30 1273 N 119.726 -1.57421 0.075193 0
M  V30 1274 C 120.951 -1.98364 -0.605515 0
M  V30 1275 C 121.376 -0.953383 -1.62149 0
M  V30 1276 O 120.734 0.0806053 -1.81121 0
M  V30 1277 C 120.782 -3.38332 -1.24756 0
M  V30 1278 O 119.886 -3.37959 -2.36342 0
M  V30 1279 H 119.227 -0.645553 -0.155428 0
M  V30 1280 H 121.757 -2.04044 0.150714 0
M  V30 1281 H 121.767 -3.75591 -1.5936 0
M  V30 1282 H 120.442 -4.12846 -0.503129 0
M  V30 1283 H 119.019 -3.12474 -2.03506 0
M  V30 1284 N 121.204 0.198386 -1.56346 0
M  V30 1285 C 122.615 0.763358 -1.70381 0
M  V30 1286 C 122.966 1.83995 -0.681203 0
M  V30 1287 O 122.091 2.15785 0.16305 0
M  V30 1288 C 122.686 1.39143 -3.08909 0
M  V30 1289 C 121.245 1.90352 -3.2472 0
M  V30 1290 C 120.392 0.772233 -2.6633 0
M  V30 1291 H 123.343 -0.0266377 -1.58678 0
M  V30 1292 H 123.364 2.26076 -3.06055 0
M  V30 1293 H 122.876 0.607638 -3.83314 0
M  V30 1294 H 120.977 2.71461 -2.55225 0
M  V30 1295 H 121.09 2.06757 -4.3219 0
M  V30 1296 H 119.454 1.18566 -2.2542 0
M  V30 1297 H 120.237 0.00073556 -3.433 0
M  V30 1298 N 122.682 1.50554 0.465978 0
M  V30 1299 C 123.907 1.65838 1.24549 0
M  V30 1300 C 124.332 0.343486 1.84937 0
M  V30 1301 O 123.69 -0.69324 1.67523 0
M  V30 1302 C 123.738 2.75533 2.32624 0
M  V30 1303 O 122.842 2.37142 3.37398 0
M  V30 1304 H 122.183 0.553893 0.366194 0
M  V30 1305 H 124.713 1.96959 0.553927 0
M  V30 1306 H 124.723 2.98763 2.77857 0
M  V30 1307 H 123.398 3.70962 1.88043 0
M  V30 1308 H 121.975 2.24377 2.97841 0
M  V30 1309 N 124.16 -0.719506 1.40217 0
M  V30 1310 C 125.108 -1.85493 1.40339 0
M  V30 1311 C 126.102 -1.66995 0.284415 0
M  V30 1312 O 127.308 -1.74148 0.455252 0
M  V30 1313 H 123.683 -0.610857 0.438586 0
M  V30 1314 H 125.654 -1.82506 2.36081 0
M  V30 1315 C 124.403 -3.23321 1.27901 0
M  V30 1316 H 123.726 -3.38159 2.1328 0
M  V30 1317 H 125.166 -4.02914 1.32045 0
M  V30 1318 C 123.625 -3.36898 -0.0111355 0
M  V30 1319 O 124.155 -3.89674 -0.975538 0
M  V30 1320 N 122.361 -2.90492 -0.0793393 0
M  V30 1321 H 121.908 -2.47731 0.706183 0
M  V30 1322 H 121.866 -2.99955 -0.942038 0
M  V30 1323 N 125.638 -1.25649 -0.95132 0
M  V30 1324 C 126.915 -1.01361 -1.67288 0
M  V30 1325 C 127.295 0.459135 -2.06046 0
M  V30 1326 O 126.643 1.43723 -1.7764 0
M  V30 1327 C 126.853 -1.95256 -2.89268 0
M  V30 1328 C 128.201 -2.23289 -3.61147 0
M  V30 1329 O 129.225 -1.93041 -2.99355 0
M  V30 1330 O 128.084 -2.74741 -4.72419 0
M  V30 1331 H 125.178 -0.38464 -0.732107 0
M  V30 1332 H 127.724 -1.36817 -1.00395 0
M  V30 1333 H 126.496 -2.94685 -2.57442 0
M  V30 1334 H 126.119 -1.60218 -3.6389 0
M  V30 1335 N 127.117 1.15442 -1.07289 0
M  V30 1336 C 128.047 2.22312 -0.714107 0
M  V30 1337 C 129.028 1.67467 0.298155 0
M  V30 1338 O 130.213 1.93445 0.171048 0
M  V30 1339 C 127.343 3.47124 -0.110448 0
M  V30 1340 C 126.297 4.14926 -1.04979 0
M  V30 1341 C 125.623 5.33807 -0.308924 0
M  V30 1342 C 126.923 4.64762 -2.38314 0
M  V30 1343 H 128.617 2.5258 -1.6076 0
M  V30 1344 H 126.163 1.21404 -0.77441 0
M  V30 1345 H 128.116 4.21124 0.152482 0
M  V30 1346 H 126.84 3.16187 0.81812 0
M  V30 1347 H 125.499 3.42866 -1.29764 0
M  V30 1348 H 125.147 4.99126 0.623084 0
M  V30 1349 H 124.847 5.80113 -0.935036 0
M  V30 1350 H 126.371 6.10576 -0.0537771 0
M  V30 1351 H 127.785 5.30292 -2.1786 0
M  V30 1352 H 126.182 5.21728 -2.96514 0
M  V30 1353 H 127.252 3.80434 -3.00663 0
M  V30 1354 N 128.595 0.856903 1.32268 0
M  V30 1355 C 129.543 0.291987 2.3076 0
M  V30 1356 C 130.537 -0.585857 1.58947 0
M  V30 1357 O 131.743 -0.47341 1.73663 0
M  V30 1358 H 128.118 0.075721 0.748178 0
M  V30 1359 H 130.089 1.13687 2.75895 0
M  V30 1360 C 128.838 -0.502869 3.44044 0
M  V30 1361 H 128.161 0.163328 3.99466 0
M  V30 1362 H 129.601 -0.863691 4.1511 0
M  V30 1363 C 128.06 -1.68898 2.91505 0
M  V30 1364 O 128.59 -2.78811 2.89184 0
M  V30 1365 N 126.796 -1.51679 2.47875 0
M  V30 1366 H 126.343 -0.622666 2.49961 0
M  V30 1367 H 126.301 -2.31184 2.13076 0
M  V30 1368 N 130.073 -1.45103 0.615059 0
M  V30 1369 C 131.35 -1.95549 0.0448276 0
M  V30 1370 C 131.73 -1.55737 -1.4251 0
M  V30 1371 O 131.078 -0.823556 -2.13143 0
M  V30 1372 C 131.288 -3.48098 0.250785 0
M  V30 1373 C 132.636 -4.24384 0.135509 0
M  V30 1374 O 133.66 -3.55738 0.181299 0
M  V30 1375 O 132.519 -5.46493 0.0268878 0
M  V30 1376 H 129.613 -0.8264 -0.0314845 0
M  V30 1377 H 132.159 -1.55232 0.685642 0
M  V30 1378 H 130.931 -3.7007 1.27139 0
M  V30 1379 H 130.554 -3.95323 -0.424937 0
M  V30 1380 N 131.551 -0.354651 -1.53558 0
M  V30 1381 C 132.776 0.242153 -2.05981 0
M  V30 1382 C 133.201 1.42553 -1.2272 0
M  V30 1383 O 132.559 1.79656 -0.243604 0
M  V30 1384 C 132.607 0.624367 -3.55154 0
M  V30 1385 O 131.711 1.72301 -3.74681 0
M  V30 1386 H 131.052 0.0378432 -0.662921 0
M  V30 1387 H 133.582 -0.512087 -1.98088 0
M  V30 1388 H 133.592 0.898433 -3.97985 0
M  V30 1389 H 132.267 -0.240989 -4.15201 0
M  V30 1390 H 130.844 1.44535 -3.4375 0
M  V30 1391 N 133.029 1.57378 -0.0835403 0
M  V30 1392 C 133.979 2.09916 0.889905 0
M  V30 1393 C 134.963 1.01151 1.25129 0
M  V30 1394 O 136.155 1.27443 1.2283 0
M  V30 1395 C 133.284 2.67379 2.15322 0
M  V30 1396 C 132.37 3.83167 1.81779 0
M  V30 1397 N 132.761 4.91665 1.18739 0
M  V30 1398 C 131.059 3.92685 2.11459 0
M  V30 1399 C 131.76 5.72409 1.0355 0
M  V30 1400 N 130.736 5.21062 1.54906 0
M  V30 1401 H 134.538 2.91188 0.398378 0
M  V30 1402 H 132.052 1.61956 0.120013 0
M  V30 1403 H 134.049 3.0334 2.8599 0
M  V30 1404 H 132.709 1.87558 2.65051 0
M  V30 1405 H 133.72 5.10784 0.855604 0
M  V30 1406 H 130.397 3.23856 2.63483 0
M  V30 1407 H 131.787 6.69699 0.543425 0
M  V30 1408 N 134.507 -0.190092 1.56449 0
M  V30 1409 C 135.753 -0.911052 1.81184 0
M  V30 1410 C 136.086 -1.82699 0.658396 0
M  V30 1411 O 135.361 -1.91491 -0.340775 0
M  V30 1412 C 135.644 -1.72297 3.16205 0
M  V30 1413 C 135.497 -0.831419 4.42049 0
M  V30 1414 C 136.816 -2.69454 3.47969 0
M  V30 1415 H 133.935 -0.32977 0.659106 0
M  V30 1416 H 136.577 -0.178169 1.89163 0
M  V30 1417 H 134.727 -2.34778 3.09534 0
M  V30 1418 H 136.399 -0.220929 4.60771 0
M  V30 1419 H 134.642 -0.138406 4.33579 0
M  V30 1420 H 135.313 -1.43461 5.33032 0
M  V30 1421 H 137.789 -2.17104 3.54972 0
M  V30 1422 H 136.665 -3.23342 4.43555 0
M  V30 1423 H 136.926 -3.48744 2.71717 0
M  V30 1424 N 135.985 -1.50799 -0.457987 0
M  V30 1425 C 136.917 -1.66786 -1.57211 0
M  V30 1426 C 137.93 -0.548962 -1.53265 0
M  V30 1427 O 139.119 -0.8226 -1.58416 0
M  V30 1428 C 136.219 -1.64834 -2.96113 0
M  V30 1429 C 135.392 -2.92971 -3.24787 0
M  V30 1430 C 134.451 -2.83485 -4.43309 0
M  V30 1431 O 133.477 -3.5744 -4.42973 0
M  V30 1432 N 134.679 -1.97929 -5.45714 0
M  V30 1433 H 137.444 -2.62889 -1.43909 0
M  V30 1434 H 135.005 -1.48427 -0.646617 0
M  V30 1435 H 136.997 -1.56084 -3.7339 0
M  V30 1436 H 135.567 -0.764118 -3.03117 0
M  V30 1437 H 134.787 -3.15749 -2.36 0
M  V30 1438 H 136.075 -3.77834 -3.40762 0
M  V30 1439 H 135.473 -1.37182 -5.48815 0
M  V30 1440 H 134.03 -1.95073 -6.21924 0
M  V30 1441 N 137.463 0.71206 -1.40597 0
M  V30 1442 C 138.712 1.46754 -1.38369 0
M  V30 1443 C 139.025 1.95598 0.0097839 0
M  V30 1444 O 140.231 2.71059 0.154677 0
M  V30 1445 C 138.687 2.65289 -2.43207 0
M  V30 1446 C 138.295 2.23301 -3.88382 0
M  V30 1447 C 140.039 3.43008 -2.50091 0
M  V30 1448 C 137.946 3.38696 -4.84808 0
M  V30 1449 H 136.876 0.55118 -0.514506 0
M  V30 1450 H 139.527 0.774616 -1.66349 0
M  V30 1451 H 137.909 3.36769 -2.08332 0
M  V30 1452 H 139.083 1.59218 -4.32419 0
M  V30 1453 H 137.398 1.58618 -3.85006 0
M  V30 1454 H 139.995 4.28881 -3.1932 0
M  V30 1455 H 140.338 3.87065 -1.53253 0
M  V30 1456 H 140.871 2.78574 -2.83974 0
M  V30 1457 H 137.61 2.99668 -5.82992 0
M  V30 1458 H 137.13 4.01683 -4.45433 0
M  V30 1459 H 138.809 4.04712 -5.04794 0
M  V30 1460 N 138.941 1.26152 0.944643 0
M  V30 1461 C 140.166 1.14363 1.7302 0
M  V30 1462 C 140.591 -0.29772 1.85729 0
M  V30 1463 O 139.949 -1.2157 1.34501 0
M  V30 1464 C 139.997 1.81378 3.11664 0
M  V30 1465 O 139.101 1.10022 3.97453 0
M  V30 1466 H 138.442 0.398694 0.53098 0
M  V30 1467 H 140.972 1.66906 1.18337 0
M  V30 1468 H 140.982 1.88064 3.62072 0
M  V30 1469 H 139.657 2.86237 3.0173 0
M  V30 1470 H 138.234 1.11287 3.55907 0
M  V30 1471 N 140.419 -1.14872 1.07899 0
M  V30 1472 C 141.649 -1.89386 0.825631 0
M  V30 1473 C 142.057 -1.78565 -0.625406 0
M  V30 1474 O 141.4 -1.13918 -1.44113 0
M  V30 1475 C 141.462 -3.40206 1.16191 0
M  V30 1476 C 141.126 -3.74812 2.61467 0
M  V30 1477 C 142.123 -3.75367 3.59716 0
M  V30 1478 C 139.808 -4.0495 2.97189 0
M  V30 1479 C 141.802 -4.05574 4.9172 0
M  V30 1480 C 139.489 -4.34821 4.29388 0
M  V30 1481 C 140.487 -4.35116 5.26463 0
M  V30 1482 O 140.175 -4.64267 6.56286 0
M  V30 1483 H 139.907 -0.606894 0.297751 0
M  V30 1484 H 142.461 -1.46438 1.44031 0
M  V30 1485 H 140.691 -3.8358 0.490214 0
M  V30 1486 H 142.38 -3.96018 0.890193 0
M  V30 1487 H 143.146 -3.52176 3.33462 0
M  V30 1488 H 139.025 -4.03876 2.22273 0
M  V30 1489 H 142.569 -4.05719 5.67484 0
M  V30 1490 H 138.466 -4.5748 4.55392 0
M  V30 1491 H 139.234 -4.82007 6.61522 0
M  V30 1492 N 141.898 -0.863906 -1.31812 0
M  V30 1493 C 142.848 -0.286898 -2.26188 0
M  V30 1494 C 143.832 0.572577 -1.50367 0
M  V30 1495 O 145.024 0.420447 -1.71934 0
M  V30 1496 C 142.153 0.515849 -3.39402 0
M  V30 1497 C 141.239 -0.356531 -4.22599 0
M  V30 1498 N 141.63 -1.44716 -4.84656 0
M  V30 1499 C 139.928 -0.147898 -4.45755 0
M  V30 1500 C 140.629 -1.98462 -5.46798 0
M  V30 1501 N 139.605 -1.28247 -5.28255 0
M  V30 1502 H 143.407 -1.12055 -2.717 0
M  V30 1503 H 140.921 -0.711012 -1.46008 0
M  V30 1504 H 142.918 0.945701 -4.06032 0
M  V30 1505 H 141.578 1.34718 -2.95434 0
M  V30 1506 H 142.589 -1.83008 -4.84488 0
M  V30 1507 H 139.266 0.647973 -4.12441 0
M  V30 1508 H 140.656 -2.89932 -6.06126 0
M  V30 1509 N 143.376 1.44774 -0.622745 0
M  V30 1510 C 144.601 2.06999 -0.128968 0
M  V30 1511 C 145.026 1.4617 1.1839 0
M  V30 1512 O 144.384 0.560007 1.72434 0
M  V30 1513 C 144.432 3.60595 -0.0188351 0
M  V30 1514 O 143.536 3.99398 1.02739 0
M  V30 1515 H 142.877 0.659047 -0.0809544 0
M  V30 1516 H 145.407 1.85784 -0.85705 0
M  V30 1517 H 145.417 4.07627 0.174476 0
M  V30 1518 H 144.092 4.04252 -0.977384 0
M  V30 1519 H 142.669 3.64011 0.809326 0
M  V30 1520 N 144.854 0.36279 1.53368 0
M  V30 1521 C 146.079 -0.231226 2.06107 0
M  V30 1522 C 146.504 -1.419 1.23474 0
M  V30 1523 O 145.862 -1.79524 0.253128 0
M  V30 1524 C 145.91 -0.605523 3.5548 0
M  V30 1525 O 145.014 -1.70312 3.7559 0
M  V30 1526 H 144.355 -0.034327 0.663112 0
M  V30 1527 H 146.885 0.522584 1.97814 0
M  V30 1528 H 146.895 -0.877314 3.98456 0
M  V30 1529 H 145.57 0.263004 4.15068 0
M  V30 1530 H 144.147 -1.4271 3.44512 0
M  V30 1531 N 146.332 -1.57332 0.0918853 0
M  V30 1532 C 147.282 -2.10385 -0.87876 0
M  V30 1533 C 148.266 -1.01814 -1.24591 0
M  V30 1534 O 149.458 -1.28093 -1.22152 0
M  V30 1535 C 146.587 -2.68517 -2.13901 0
M  V30 1536 C 145.673 -3.84126 -1.79744 0
M  V30 1537 N 146.064 -4.92288 -1.1613 0
M  V30 1538 C 144.362 -3.93801 -2.09373 0
M  V30 1539 C 145.063 -5.7295 -1.00513 0
M  V30 1540 N 144.039 -5.21876 -1.5214 0
M  V30 1541 H 147.841 -2.91395 -0.38293 0
M  V30 1542 H 145.355 -1.62017 -0.111423 0
M  V30 1543 H 147.352 -3.04852 -2.84378 0
M  V30 1544 H 146.012 -1.88961 -2.64053 0
M  V30 1545 H 147.023 -5.1123 -0.828504 0
M  V30 1546 H 143.7 -3.25249 -2.61762 0
M  V30 1547 H 145.09 -6.69978 -0.507902 0
M  V30 1548 N 147.81 0.181792 -1.56548 0
M  V30 1549 C 148.72 1.24538 -1.98815 0
M  V30 1550 C 149.736 1.49045 -0.897861 0
M  V30 1551 O 150.912 1.61399 -1.20467 0
M  V30 1552 C 147.977 2.56683 -2.33055 0
M  V30 1553 C 147.038 2.40131 -3.55859 0
M  V30 1554 C 146.271 3.65975 -3.88456 0
M  V30 1555 O 146.494 4.70711 -3.22161 0
M  V30 1556 O 145.428 3.6071 -4.81842 0
M  V30 1557 H 149.254 0.916647 -2.89536 0
M  V30 1558 H 146.839 0.387842 -1.44278 0
M  V30 1559 H 148.721 3.34655 -2.56094 0
M  V30 1560 H 147.396 2.89157 -1.45498 0
M  V30 1561 H 146.303 1.60226 -3.38051 0
M  V30 1562 H 147.636 2.12585 -4.43924 0
M  V30 1563 N 149.288 1.51039 0.449983 0
M  V30 1564 C 150.699 1.557 1.03026 0
M  V30 1565 C 151.05 0.372939 1.92623 0
M  V30 1566 O 150.175 -0.511771 2.10261 0
M  V30 1567 C 150.77 2.82171 1.87523 0
M  V30 1568 C 149.329 2.89444 2.40622 0
M  V30 1569 C 148.476 2.50228 1.19504 0
M  V30 1570 H 151.427 1.56999 0.231745 0
M  V30 1571 H 151.448 2.65219 2.72835 0
M  V30 1572 H 150.96 3.68331 1.22286 0
M  V30 1573 H 149.061 2.07685 3.0935 0
M  V30 1574 H 149.174 3.92816 2.74285 0
M  V30 1575 H 147.538 2.03139 1.53644 0
M  V30 1576 H 148.321 3.38719 0.558972 0
M  V30 1577 N 150.766 -0.704594 1.40972 0
M  V30 1578 C 151.696 -1.83124 1.44872 0
M  V30 1579 C 152.677 -1.67281 0.30838 0
M  V30 1580 O 153.862 -1.87149 0.518556 0
M  V30 1581 C 150.992 -3.21181 1.32136 0
M  V30 1582 C 149.946 -3.51714 2.43888 0
M  V30 1583 C 149.272 -4.89032 2.16222 0
M  V30 1584 C 150.572 -3.516 3.86232 0
M  V30 1585 H 152.266 -1.80117 2.39161 0
M  V30 1586 H 149.812 -0.865145 1.15114 0
M  V30 1587 H 151.765 -3.99702 1.33479 0
M  V30 1588 H 150.489 -3.24791 0.343279 0
M  V30 1589 H 149.148 -2.75539 2.41813 0
M  V30 1590 H 148.796 -4.89256 1.16778 0
M  V30 1591 H 148.496 -5.10426 2.911 0
M  V30 1592 H 150.02 -5.69873 2.19265 0
M  V30 1593 H 151.434 -4.2014 3.9007 0
M  V30 1594 H 149.831 -3.84523 4.60719 0
M  V30 1595 H 150.901 -2.50757 4.15029 0
M  V30 1596 N 152.244 -1.26651 -0.937939 0
M  V30 1597 C 153.655 -1.1125 -1.49934 0
M  V30 1598 C 154.006 0.306077 -1.93798 0
M  V30 1599 O 153.131 1.19792 -1.80219 0
M  V30 1600 C 153.726 -2.01339 -2.72485 0
M  V30 1601 C 152.285 -1.90074 -3.24883 0
M  V30 1602 C 151.432 -1.94498 -1.97651 0
M  V30 1603 H 154.383 -1.39693 -0.753091 0
M  V30 1604 H 154.404 -1.56319 -3.46907 0
M  V30 1605 H 153.916 -3.04577 -2.40529 0
M  V30 1606 H 152.017 -0.897827 -3.61621 0
M  V30 1607 H 152.13 -2.75778 -3.9177 0
M  V30 1608 H 150.494 -1.38591 -2.13693 0
M  V30 1609 H 151.277 -2.99372 -1.68022 0
M  V30 1610 N 153.722 1.14298 -1.08507 0
M  V30 1611 C 154.652 2.21542 -0.737646 0
M  V30 1612 C 155.633 1.67773 0.280377 0
M  V30 1613 O 156.818 1.93616 0.150521 0
M  V30 1614 C 153.948 3.46988 -0.147259 0
M  V30 1615 C 152.902 4.13789 -1.09374 0
M  V30 1616 C 152.228 5.33449 -0.365524 0
M  V30 1617 C 153.528 4.62208 -2.4323 0
M  V30 1618 H 155.222 2.5086 -1.6343 0
M  V30 1619 H 152.768 1.20576 -0.787243 0
M  V30 1620 H 154.721 4.21262 0.107808 0
M  V30 1621 H 153.445 3.17037 0.784538 0
M  V30 1622 H 152.104 3.4147 -1.33393 0
M  V30 1623 H 151.752 4.99759 0.57011 0
M  V30 1624 H 151.452 5.79088 -0.996512 0
M  V30 1625 H 152.976 6.10485 -0.118534 0
M  V30 1626 H 154.39 5.27952 -2.23472 0
M  V30 1627 H 152.787 5.18553 -3.02031 0
M  V30 1628 H 153.857 3.77224 -3.04681 0
M  V30 1629 N 155.201 0.870884 1.31352 0
M  V30 1630 C 156.164 0.332243 2.26779 0
M  V30 1631 C 157.164 -0.517302 1.52252 0
M  V30 1632 O 158.354 -0.326477 1.71113 0
M  V30 1633 C 155.486 -0.528066 3.36785 0
M  V30 1634 H 156.679 1.17469 2.75937 0
M  V30 1635 H 154.232 0.64655 1.423 0
M  V30 1636 H 154.967 -1.39167 2.92922 0
M  V30 1637 H 154.752 0.0802582 3.92018 0
M  V30 1638 H 156.242 -0.897179 4.07849 0
M  V30 1639 N 156.679 -1.44442 0.630414 0
M  V30 1640 C 157.909 -2.06115 0.141465 0
M  V30 1641 C 158.317 -1.47179 -1.1889 0
M  V30 1642 O 157.66 -0.588873 -1.74006 0
M  V30 1643 C 157.722 -3.59467 -0.0484355 0
M  V30 1644 C 157.386 -4.40864 1.20366 0
M  V30 1645 C 158.383 -4.74391 2.12719 0
M  V30 1646 C 156.068 -4.8125 1.43887 0
M  V30 1647 C 158.062 -5.47186 3.26904 0
M  V30 1648 C 155.749 -5.53795 2.5837 0
M  V30 1649 C 156.747 -5.86682 3.49705 0
M  V30 1650 O 156.435 -6.57749 4.62191 0
M  V30 1651 H 156.167 -0.671648 0.0765792 0
M  V30 1652 H 158.721 -1.86312 0.864695 0
M  V30 1653 H 156.951 -3.77758 -0.826803 0
M  V30 1654 H 158.64 -4.02909 -0.491849 0
M  V30 1655 H 159.406 -4.43728 1.95781 0
M  V30 1656 H 155.285 -4.55073 0.736853 0
M  V30 1657 H 158.829 -5.72773 3.98217 0
M  V30 1658 H 154.726 -5.83872 2.75251 0
M  V30 1659 H 155.494 -6.76217 4.61164 0
M  V30 1660 N 158.157 -0.370918 -1.53173 0
M  V30 1661 C 159.12 0.460778 -2.24521 0
M  V30 1662 C 160.12 1.00536 -1.25496 0
M  V30 1663 O 161.31 0.890266 -1.49733 0
M  V30 1664 C 158.442 1.64457 -2.98608 0
M  V30 1665 H 159.635 -0.163613 -2.99453 0
M  V30 1666 H 157.188 -0.122699 -1.55818 0
M  V30 1667 H 157.923 2.30691 -2.2793 0
M  V30 1668 H 157.708 1.26099 -3.7127 0
M  V30 1669 H 159.198 2.23384 -3.5283 0
M  V30 1670 N 159.635 1.57281 -0.100228 0
M  V30 1671 C 160.881 1.94826 0.563101 0
M  V30 1672 C 161.214 0.982475 1.67514 0
M  V30 1673 O 160.489 0.0164069 1.94493 0
M  V30 1674 C 160.772 3.42453 1.11346 0
M  V30 1675 C 160.625 4.498 0.00612081 0
M  V30 1676 C 161.944 3.91506 2.01024 0
M  V30 1677 H 159.063 0.708428 0.203221 0
M  V30 1678 H 161.705 1.8922 -0.171979 0
M  V30 1679 H 159.855 3.47361 1.7399 0
M  V30 1680 H 161.527 4.57 -0.628357 0
M  V30 1681 H 159.77 4.28756 -0.659581 0
M  V30 1682 H 160.441 5.50306 0.432109 0
M  V30 1683 H 162.917 3.88784 1.48278 0
M  V30 1684 H 161.793 4.95358 2.36457 0
M  V30 1685 H 162.054 3.31099 2.92961 0
M  V30 1686 N 161.113 -0.173488 1.56642 0
M  V30 1687 C 162.043 -1.2171 1.99271 0
M  V30 1688 C 163.024 -1.46289 0.867959 0
M  V30 1689 O 164.209 -1.5766 1.13388 0
M  V30 1690 C 161.339 -2.55651 2.35074 0
M  V30 1691 C 160.293 -2.45645 3.50489 0
M  V30 1692 C 159.619 -3.84056 3.72028 0
M  V30 1693 C 160.919 -1.96302 4.84007 0
M  V30 1694 H 162.613 -0.86275 2.867 0
M  V30 1695 H 160.159 -0.413571 1.37933 0
M  V30 1696 H 162.112 -3.2886 2.63494 0
M  V30 1697 H 160.836 -2.92869 1.44552 0
M  V30 1698 H 159.495 -1.7489 3.22194 0
M  V30 1699 H 159.143 -4.18664 2.788 0
M  V30 1700 H 158.843 -3.7823 4.49684 0
M  V30 1701 H 160.367 -4.58854 4.02846 0
M  V30 1702 H 161.781 -2.59284 5.11317 0
M  V30 1703 H 160.178 -2.01429 5.65284 0
M  V30 1704 H 161.248 -0.917226 4.76146 0
M  V30 1705 N 162.591 -1.51276 -0.441967 0
M  V30 1706 C 163.821 -1.67273 -1.21257 0
M  V30 1707 C 164.229 -0.367624 -1.85594 0
M  V30 1708 O 163.572 0.663349 -1.71305 0
M  V30 1709 C 163.634 -2.72807 -2.34129 0
M  V30 1710 C 163.298 -4.1554 -1.90198 0
M  V30 1711 C 164.295 -5.00471 -1.40801 0
M  V30 1712 C 161.98 -4.61616 -1.9803 0
M  V30 1713 C 163.974 -6.29536 -0.998174 0
M  V30 1714 C 161.661 -5.90679 -1.56658 0
M  V30 1715 C 162.659 -6.74466 -1.07633 0
M  V30 1716 O 162.347 -8.01116 -0.668459 0
M  V30 1717 H 162.079 -0.564614 -0.371734 0
M  V30 1718 H 164.633 -1.9843 -0.530521 0
M  V30 1719 H 162.863 -2.36954 -3.05597 0
M  V30 1720 H 164.552 -2.77729 -2.96009 0
M  V30 1721 H 165.318 -4.66079 -1.34148 0
M  V30 1722 H 161.197 -3.96526 -2.35135 0
M  V30 1723 H 164.741 -6.94885 -0.61482 0
M  V30 1724 H 160.638 -6.24586 -1.62979 0
M  V30 1725 H 161.406 -8.14633 -0.794722 0
M  V30 1726 N 164.069 0.697108 -1.41344 0
M  V30 1727 C 164.999 1.82353 -1.45841 0
M  V30 1728 C 165.98 1.67115 -0.317247 0
M  V30 1729 O 167.165 1.86871 -0.528474 0
M  V30 1730 C 164.295 3.20476 -1.33838 0
M  V30 1731 C 163.249 3.50415 -2.4575 0
M  V30 1732 C 162.575 4.87878 -2.18813 0
M  V30 1733 C 163.875 3.49546 -3.88091 0
M  V30 1734 H 165.569 1.78846 -2.40113 0
M  V30 1735 H 163.115 0.859028 -1.15571 0
M  V30 1736 H 165.068 3.98988 -1.35596 0
M  V30 1737 H 163.792 3.24604 -0.360498 0
M  V30 1738 H 162.451 2.74253 -2.43271 0
M  V30 1739 H 162.099 4.8863 -1.19371 0
M  V30 1740 H 161.799 5.08875 -2.93803 0
M  V30 1741 H 163.323 5.68702 -2.22284 0
M  V30 1742 H 164.737 4.18066 -3.92293 0
M  V30 1743 H 163.134 3.82075 -4.62751 0
M  V30 1744 H 164.204 2.48552 -4.16353 0
M  V30 1745 N 165.547 1.27147 0.931209 0
M  V30 1746 C 166.775 1.16082 1.71267 0
M  V30 1747 C 167.19 -0.282772 1.8667 0
M  V30 1748 O 166.547 -1.19283 1.38122 0
M  V30 1749 C 166.598 1.8358 3.11417 0
M  V30 1750 O 166.319 3.22299 2.96741 0
M  V30 1751 C 167.82 1.78597 4.05732 0
M  V30 1752 H 165.04 0.403758 0.535929 0
M  V30 1753 H 167.584 1.67953 1.16671 0
M  V30 1754 H 165.739 1.35623 3.62885 0
M  V30 1755 H 166.153 3.55851 3.85319 0
M  V30 1756 H 167.627 2.30444 5.01597 0
M  V30 1757 H 168.104 0.754564 4.3267 0
M  V30 1758 H 168.71 2.26152 3.60188 0
M  V30 1759 N 167.025 -1.13721 1.09112 0
M  V30 1760 C 168.265 -1.86576 0.834801 0
M  V30 1761 C 168.629 -1.81435 -0.628122 0
M  V30 1762 O 169.83 -2.49497 -1.00024 0
M  V30 1763 C 168.101 -3.30872 1.35124 0
M  V30 1764 S 169.66 -4.21257 1.22832 0
M  V30 1765 H 166.478 -0.643666 0.302017 0
M  V30 1766 H 169.08 -1.37085 1.39385 0
M  V30 1767 H 167.784 -3.32166 2.41027 0
M  V30 1768 H 167.315 -3.85423 0.788185 0
M  V30 1769 H 169.33 -4.95884 0.177191 0
M  V30 1770 N 168.503 -0.877838 -1.30888 0
M  V30 1771 C 169.749 -0.493426 -1.96706 0
M  V30 1772 C 170.082 0.953504 -1.6918 0
M  V30 1773 O 169.357 1.67266 -0.992594 0
M  V30 1774 C 169.64 -0.760429 -3.51979 0
M  V30 1775 C 169.493 -2.25747 -3.89048 0
M  V30 1776 C 170.812 -0.232148 -4.39487 0
M  V30 1777 H 167.931 -0.180746 -0.714493 0
M  V30 1778 H 170.573 -1.10052 -1.54882 0
M  V30 1779 H 168.723 -0.243715 -3.87735 0
M  V30 1780 H 170.395 -2.84204 -3.63354 0
M  V30 1781 H 168.638 -2.72694 -3.37373 0
M  V30 1782 H 169.309 -2.39491 -4.97341 0
M  V30 1783 H 171.785 -0.674314 -4.106 0
M  V30 1784 H 170.661 -0.448355 -5.47066 0
M  V30 1785 H 170.922 0.866297 -4.33529 0
M  V30 1786 N 169.982 1.44106 -0.638065 0
M  V30 1787 C 171.259 1.95453 -0.0759321 0
M  V30 1788 C 171.639 1.57984 1.40015 0
M  V30 1789 O 170.987 0.857361 2.11806 0
M  V30 1790 C 171.197 3.47655 -0.306132 0
M  V30 1791 C 172.545 4.24114 -0.203008 0
M  V30 1792 O 173.569 3.55405 -0.237871 0
M  V30 1793 O 172.428 5.46381 -0.113827 0
M  V30 1794 H 169.522 0.826797 0.0183332 0
M  V30 1795 H 172.068 1.54122 -0.710251 0
M  V30 1796 H 170.84 3.68 -1.3301 0
M  V30 1797 H 170.463 3.95949 0.361991 0
M  V30 1798 N 171.46 0.379036 1.52974 0
M  V30 1799 C 172.709 -0.207612 2.00629 0
M  V30 1800 C 173.022 -1.48758 1.27006 0
M  V30 1801 O 174.228 -2.15365 1.65318 0
M  V30 1802 C 172.684 -0.42053 3.57435 0
M  V30 1803 C 172.292 0.845587 4.39948 0
M  V30 1804 C 174.036 -0.964102 4.13407 0
M  V30 1805 C 171.943 0.601513 5.88333 0
M  V30 1806 H 170.873 -0.0813591 0.749598 0
M  V30 1807 H 173.524 0.499853 1.76561 0
M  V30 1808 H 171.906 -1.18959 3.7771 0
M  V30 1809 H 173.08 1.61848 4.31442 0
M  V30 1810 H 171.395 1.31336 3.95145 0
M  V30 1811 H 173.992 -1.16225 5.21916 0
M  V30 1812 H 174.335 -1.93019 3.68849 0
M  V30 1813 H 174.868 -0.25487 3.96983 0
M  V30 1814 H 171.607 1.53831 6.37194 0
M  V30 1815 H 171.127 -0.132628 5.99653 0
M  V30 1816 H 172.806 0.232134 6.46583 0
M  V30 1817 N 172.938 -1.57226 0.108567 0
M  V30 1818 C 174.163 -1.99604 -0.563303 0
M  V30 1819 C 174.588 -0.987563 -1.6009 0
M  V30 1820 O 173.946 0.0421687 -1.81251 0
M  V30 1821 C 173.994 -3.40902 -1.17552 0
M  V30 1822 O 173.098 -3.42896 -2.2912 0
M  V30 1823 H 172.439 -0.648704 -0.1417 0
M  V30 1824 H 174.969 -2.03679 0.193961 0
M  V30 1825 H 174.979 -3.78886 -1.51357 0
M  V30 1826 H 173.654 -4.1382 -0.415445 0
M  V30 1827 H 172.231 -3.1672 -1.96832 0
M  V30 1828 N 174.416 0.165178 -1.56732 0
M  V30 1829 C 175.346 1.20651 -1.99914 0
M  V30 1830 C 176.327 1.45827 -0.875705 0
M  V30 1831 O 177.512 1.57057 -1.14223 0
M  V30 1832 C 174.642 2.54401 -2.36427 0
M  V30 1833 C 173.596 2.43782 -3.51787 0
M  V30 1834 C 172.922 3.82078 -3.7406 0
M  V30 1835 C 174.222 1.93732 -4.85041 0
M  V30 1836 H 175.916 0.847534 -2.87154 0
M  V30 1837 H 173.462 0.40625 -1.38151 0
M  V30 1838 H 175.415 3.27458 -2.65234 0
M  V30 1839 H 174.139 2.92098 -1.46103 0
M  V30 1840 H 172.798 1.73178 -3.23117 0
M  V30 1841 H 172.446 4.17179 -2.81017 0
M  V30 1842 H 172.146 3.7584 -4.51684 0
M  V30 1843 H 173.67 4.56712 -4.05274 0
M  V30 1844 H 175.084 2.56569 -5.12684 0
M  V30 1845 H 173.481 1.98428 -5.66345 0
M  V30 1846 H 174.551 0.891962 -4.76626 0
M  V30 1847 N 175.894 1.51508 0.433938 0
M  V30 1848 C 177.171 1.54888 1.19453 0
M  V30 1849 C 177.551 0.315154 2.08734 0
M  V30 1850 O 176.899 -0.699558 2.17528 0
M  V30 1851 C 177.109 2.86467 1.99342 0
M  V30 1852 C 178.457 3.38545 2.56267 0
M  V30 1853 O 179.481 2.88041 2.0955 0
M  V30 1854 O 178.34 4.26675 3.41483 0
M  V30 1855 H 175.434 0.622863 0.544032 0
M  V30 1856 H 177.98 1.63823 0.442732 0
M  V30 1857 H 176.752 3.67718 1.33788 0
M  V30 1858 H 176.375 2.8071 2.8158 0
M  V30 1859 N 177.372 -0.689602 1.41712 0
M  V30 1860 C 178.612 -1.46184 1.42862 0
M  V30 1861 C 178.976 -1.91962 0.0382204 0
M  V30 1862 O 180.177 -2.68694 -0.0755019 0
M  V30 1863 C 178.448 -2.6371 2.4123 0
M  V30 1864 S 180.007 -3.52768 2.6096 0
M  V30 1865 H 176.825 -0.49947 0.506015 0
M  V30 1866 H 179.427 -0.804107 1.78198 0
M  V30 1867 H 178.131 -2.28293 3.41044 0
M  V30 1868 H 177.662 -3.3437 2.07269 0
M  V30 1869 H 179.677 -4.59146 1.88148 0
M  V30 1870 N 178.85 -1.27639 -0.924453 0
M  V30 1871 C 180.127 -1.04887 -1.651 0
M  V30 1872 C 180.507 0.415327 -2.06974 0
M  V30 1873 O 179.855 1.39923 -1.80648 0
M  V30 1874 C 180.065 -2.01348 -2.85061 0
M  V30 1875 C 181.413 -2.30899 -3.56329 0
M  V30 1876 O 182.437 -1.99348 -2.95193 0
M  V30 1877 O 181.296 -2.84699 -4.66485 0
M  V30 1878 H 178.39 -0.400083 -0.723784 0
M  V30 1879 H 180.936 -1.38916 -0.974703 0
M  V30 1880 H 179.708 -3.0008 -2.51133 0
M  V30 1881 H 179.331 -1.679 -3.6041 0
M  V30 1882 N 180.328 1.1314 -1.09713 0
M  V30 1883 C 181.258 2.20748 -0.761102 0
M  V30 1884 C 182.239 1.68061 0.262566 0
M  V30 1885 O 183.424 1.93765 0.129977 0
M  V30 1886 C 180.554 3.46812 -0.184054 0
M  V30 1887 C 179.508 4.12606 -1.13757 0
M  V30 1888 C 178.834 5.33031 -0.422083 0
M  V30 1889 C 180.134 4.59603 -2.48118 0
M  V30 1890 H 181.828 2.49113 -1.66082 0
M  V30 1891 H 179.374 1.19734 -0.799987 0
M  V30 1892 H 181.327 4.21353 0.0631215 0
M  V30 1893 H 180.051 3.17851 0.750868 0
M  V30 1894 H 178.71 3.40036 -1.37007 0
M  V30 1895 H 178.358 5.00335 0.517072 0
M  V30 1896 H 178.058 5.77999 -1.05788 0
M  V30 1897 H 179.582 6.10325 -0.183277 0
M  V30 1898 H 180.996 5.25552 -2.29059 0
M  V30 1899 H 179.393 5.15321 -3.07514 0
M  V30 1900 H 180.463 3.73971 -3.08665 0
M  V30 1901 N 181.806 0.884767 1.30421 0
M  V30 1902 C 182.754 0.340869 2.30089 0
M  V30 1903 C 183.748 -0.55201 1.60154 0
M  V30 1904 O 184.954 -0.436467 1.74628 0
M  V30 1905 H 181.329 0.0915739 0.746404 0
M  V30 1906 H 183.3 1.19513 2.73421 0
M  V30 1907 C 182.049 -0.429779 3.45034 0
M  V30 1908 H 181.372 0.248024 3.9903 0
M  V30 1909 H 182.812 -0.775445 4.16849 0
M  V30 1910 C 181.271 -1.62677 2.95022 0
M  V30 1911 O 181.801 -2.72614 2.95033 0
M  V30 1912 N 180.007 -1.46387 2.51036 0
M  V30 1913 H 179.554 -0.569506 2.51226 0
M  V30 1914 H 179.512 -2.26612 2.17932 0
M  V30 1915 N 183.284 -1.43765 0.645699 0
M  V30 1916 C 184.524 -2.03776 0.159542 0
M  V30 1917 C 184.888 -1.49792 -1.2011 0
M  V30 1918 O 186.089 -2.01398 -1.78023 0
M  V30 1919 C 184.36 -3.57036 0.161251 0
M  V30 1920 S 185.919 -4.3804 -0.258159 0
M  V30 1921 H 182.737 -0.707717 0.0682454 0
M  V30 1922 H 185.339 -1.75941 0.852352 0
M  V30 1923 H 184.043 -3.9383 1.15439 0
M  V30 1924 H 183.574 -3.89503 -0.552339 0
M  V30 1925 H 185.589 -4.7302 -1.49889 0
M  V30 1926 N 184.763 -0.387143 -1.52771 0
M  V30 1927 C 185.673 0.456442 -2.30117 0
M  V30 1928 C 186.689 1.07342 -1.36944 0
M  V30 1929 O 187.865 1.07971 -1.70013 0
M  V30 1930 C 184.93 1.56957 -3.09136 0
M  V30 1931 C 183.991 0.977916 -4.18014 0
M  V30 1932 C 183.224 2.038 -4.93256 0
M  V30 1933 O 183.447 3.25271 -4.68567 0
M  V30 1934 O 182.381 1.6565 -5.78657 0
M  V30 1935 H 186.207 -0.17359 -3.03203 0
M  V30 1936 H 183.792 -0.150919 -1.48636 0
M  V30 1937 H 185.674 2.21628 -3.58412 0
M  V30 1938 H 184.349 2.18461 -2.38865 0
M  V30 1939 H 183.256 0.294525 -3.72939 0
M  V30 1940 H 184.589 0.407128 -4.90513 0
M  V30 1941 N 186.241 1.57166 -0.116904 0
M  V30 1942 C 187.489 1.94737 0.540533 0
M  V30 1943 C 187.81 1.00096 1.67349 0
M  V30 1944 O 187.08 0.0568854 1.95817 0
M  V30 1945 H 185.66 0.718981 0.202669 0
M  V30 1946 H 188.322 1.94017 -0.185353 0
M  V30 1947 H 187.418 2.97719 0.936483 0
M  V30 1948 N 187.719 -0.156864 1.56817 0
M  V30 1949 C 189.135 -0.50916 1.5126 0
M  V30 1950 C 189.335 -1.83897 0.823658 0
M  V30 1951 O 188.391 -2.49469 0.390055 0
M  V30 1952 C 189.704 -0.52857 2.96018 0
M  V30 1953 C 191.252 -0.614771 3.06903 0
M  V30 1954 C 191.727 -0.664938 4.53147 0
M  V30 1955 N 193.218 -0.727433 4.57452 0
M  V30 1956 C 193.953 -0.787067 5.67973 0
M  V30 1957 N 193.449 -0.806649 6.88088 0
M  V30 1958 N 195.242 -0.827195 5.5598 0
M  V30 1959 H 187.393 0.714935 2.00006 0
M  V30 1960 H 189.656 0.259526 0.911784 0
M  V30 1961 H 189.362 0.380154 3.49639 0
M  V30 1962 H 189.236 -1.36998 3.51442 0
M  V30 1963 H 191.623 -1.51392 2.53307 0
M  V30 1964 H 191.704 0.253597 2.5454 0
M  V30 1965 H 191.348 0.230011 5.07379 0
M  V30 1966 H 191.278 -1.54966 5.03282 0
M  V30 1967 H 193.769 -0.719998 3.70978 0
M  V30 1968 H 194.082 -0.853727 7.6807 0
M  V30 1969 H 192.427 -0.774687 6.90669 0
M  V30 1970 H 195.618 -0.808998 4.61056 0
M  V30 1971 H 195.791 -0.870206 6.4213 0
M  V30 1972 N 189.197 -1.51736 -0.425897 0
M  V30 1973 C 190.129 -1.70083 -1.53638 0
M  V30 1974 C 191.142 -0.581349 -1.52066 0
M  V30 1975 O 192.331 -0.856017 -1.56635 0
M  V30 1976 C 189.431 -1.71078 -2.9255 0
M  V30 1977 C 188.604 -2.99795 -3.185 0
M  V30 1978 C 187.663 -2.92825 -4.37196 0
M  V30 1979 O 186.689 -3.66756 -4.35291 0
M  V30 1980 N 187.891 -2.0946 -5.41393 0
M  V30 1981 H 190.656 -2.65882 -1.383 0
M  V30 1982 H 188.217 -1.49765 -0.614988 0
M  V30 1983 H 190.209 -1.63969 -3.69995 0
M  V30 1984 H 188.779 -0.828242 -3.01428 0
M  V30 1985 H 187.999 -3.20684 -2.2925 0
M  V30 1986 H 189.287 -3.84977 -3.32671 0
M  V30 1987 H 188.685 -1.48792 -5.45781 0
M  V30 1988 H 187.242 -2.08221 -6.17647 0
M  V30 1989 N 190.675 0.682077 -1.42076 0
M  V30 1990 C 191.952 1.43755 -1.32642 0
M  V30 1991 C 192.332 2.11063 0.0396611 0
M  V30 1992 O 191.68 2.02701 1.05474 0
M  V30 1993 C 191.89 2.44596 -2.48946 0
M  V30 1994 C 193.238 3.09454 -2.9073 0
M  V30 1995 O 194.262 2.54922 -2.48783 0
M  V30 1996 O 193.121 4.08253 -3.63307 0
M  V30 1997 H 190.215 0.640857 -0.522715 0
M  V30 1998 H 192.761 0.711415 -1.54068 0
M  V30 1999 H 191.533 1.93609 -3.40046 0
M  V30 2000 H 191.156 3.24701 -2.29467 0
M  V30 2001 N 192.153 1.28127 0.917671 0
M  V30 2002 C 193.569 1.05749 1.19538 0
M  V30 2003 C 193.769 -0.202633 2.00479 0
M  V30 2004 O 192.825 -0.905382 2.3571 0
M  V30 2005 C 194.138 2.30273 1.93378 0
M  V30 2006 C 195.686 2.35412 2.06277 0
M  V30 2007 C 196.161 3.59692 2.83524 0
M  V30 2008 N 197.652 3.60309 2.91087 0
M  V30 2009 C 198.387 4.53147 3.51348 0
M  V30 2010 N 197.883 5.563 4.12919 0
M  V30 2011 N 199.676 4.40751 3.48849 0
M  V30 2012 H 191.827 2.09024 0.377184 0
M  V30 2013 H 194.09 0.919798 0.22951 0
M  V30 2014 H 193.796 3.22055 1.41328 0
M  V30 2015 H 193.67 2.36378 2.93947 0
M  V30 2016 H 196.057 1.4413 2.57508 0
M  V30 2017 H 196.138 2.33304 1.04895 0
M  V30 2018 H 195.782 4.51316 2.32973 0
M  V30 2019 H 195.712 3.59054 3.85211 0
M  V30 2020 H 198.203 2.85714 2.47338 0
M  V30 2021 H 198.516 6.2329 4.56869 0
M  V30 2022 H 196.861 5.60131 4.11435 0
M  V30 2023 H 200.052 3.59367 2.99955 0
M  V30 2024 H 200.225 5.13291 3.9552 0
M  V30 2025 N 193.631 -1.12557 1.10312 0
M  V30 2026 C 194.579 -2.20325 0.745629 0
M  V30 2027 C 195.573 -1.67429 -0.25763 0
M  V30 2028 O 196.779 -1.79612 -0.118132 0
M  V30 2029 H 193.154 -0.718118 0.223182 0
M  V30 2030 H 195.125 -2.47733 1.66346 0
M  V30 2031 C 193.874 -3.47168 0.192262 0
M  V30 2032 H 193.197 -3.88215 0.955475 0
M  V30 2033 H 194.637 -4.23995 -0.0198274 0
M  V30 2034 C 193.096 -3.19298 -1.07472 0
M  V30 2035 O 193.626 -3.3891 -2.15645 0
M  V30 2036 N 191.832 -2.73113 -0.992847 0
M  V30 2037 H 191.379 -2.57354 -0.112474 0
M  V30 2038 H 191.337 -2.54842 -1.84127 0
M  V30 2039 N 195.109 -0.891671 -1.2995 0
M  V30 2040 C 196.356 -0.513501 -1.95881 0
M  V30 2041 C 196.684 0.938655 -1.70351 0
M  V30 2042 O 195.939 1.67936 -1.00478 0
M  V30 2043 C 196.238 -0.742868 -3.49594 0
M  V30 2044 C 195.904 -2.17114 -3.95186 0
M  V30 2045 C 194.566 -2.56169 -4.07346 0
M  V30 2046 C 196.918 -3.10162 -4.18866 0
M  V30 2047 C 194.246 -3.87469 -4.4055 0
M  V30 2048 C 196.598 -4.41001 -4.53542 0
M  V30 2049 C 195.262 -4.79941 -4.63911 0
M  V30 2050 H 194.532 -0.187903 -0.71678 0
M  V30 2051 H 197.179 -1.1288 -1.54694 0
M  V30 2052 H 195.484 -0.044586 -3.91775 0
M  V30 2053 H 197.181 -0.429767 -3.9869 0
M  V30 2054 H 193.771 -1.85801 -3.86233 0
M  V30 2055 H 197.955 -2.81206 -4.08946 0
M  V30 2056 H 193.211 -4.17371 -4.46779 0
M  V30 2057 H 197.385 -5.13133 -4.70815 0
M  V30 2058 H 195.012 -5.81719 -4.89395 0
M  V30 2059 N 196.587 1.43421 -0.653314 0
M  V30 2060 C 197.833 2.02111 -0.166992 0
M  V30 2061 C 198.166 1.51423 1.21592 0
M  V30 2062 O 197.441 0.707389 1.8118 0
M  V30 2063 C 197.724 3.5966 -0.177948 0
M  V30 2064 C 197.577 4.20579 -1.59478 0
M  V30 2065 C 198.896 4.37413 0.4856 0
M  V30 2066 H 196.015 0.734374 -0.0621557 0
M  V30 2067 H 198.657 1.70717 -0.834016 0
M  V30 2068 H 196.807 3.86537 0.390032 0
M  V30 2069 H 198.479 4.04732 -2.21336 0
M  V30 2070 H 196.722 3.77226 -2.14204 0
M  V30 2071 H 197.393 5.29665 -1.5543 0
M  V30 2072 H 199.869 4.161 0.00234528 0
M  V30 2073 H 198.745 5.47075 0.447207 0
M  V30 2074 H 199.006 4.13672 1.55974 0
M  V30 2075 N 198.065 0.39524 1.52563 0
M  V30 2076 C 199.342 -0.242908 1.94086 0
M  V30 2077 C 199.722 -1.63841 1.33114 0
M  V30 2078 O 199.07 -2.22928 0.501529 0
M  V30 2079 C 199.28 -0.26327 3.48006 0
M  V30 2080 C 200.628 -0.489354 4.21771 0
M  V30 2081 O 201.652 -0.343226 3.54543 0
M  V30 2082 O 200.511 -0.776169 5.4096 0
M  V30 2083 H 197.605 -0.152536 0.812811 0
M  V30 2084 H 200.151 0.450178 1.6362 0
M  V30 2085 H 198.923 0.713985 3.84731 0
M  V30 2086 H 198.546 -1.00103 3.84792 0
M  V30 2087 N 199.544 -1.57102 0.125237 0
M  V30 2088 C 200.491 -2.15641 -0.822655 0
M  V30 2089 C 201.461 -1.08313 -1.25927 0
M  V30 2090 O 202.646 -1.36251 -1.33567 0
M  V30 2091 C 199.786 -2.76504 -2.06494 0
M  V30 2092 C 198.899 -3.98158 -1.67612 0
M  V30 2093 C 198.034 -4.47088 -2.86854 0
M  V30 2094 C 197.073 -5.6126 -2.44242 0
M  V30 2095 N 196.21 -6.04905 -3.56419 0
M  V30 2096 H 201.05 -2.96313 -0.316625 0
M  V30 2097 H 198.587 -1.46388 -0.144588 0
M  V30 2098 H 200.545 -3.09925 -2.79289 0
M  V30 2099 H 199.175 -1.98512 -2.54545 0
M  V30 2100 H 198.227 -3.70858 -0.846661 0
M  V30 2101 H 199.539 -4.80934 -1.32301 0
M  V30 2102 H 198.693 -4.82451 -3.67867 0
M  V30 2103 H 197.432 -3.63275 -3.25396 0
M  V30 2104 H 196.437 -5.25495 -1.61663 0
M  V30 2105 H 197.662 -6.46843 -2.0681 0
M  V30 2106 H 195.608 -5.24032 -3.94623 0
M  V30 2107 H 195.525 -6.82552 -3.25051 0
M  V30 2108 H 196.793 -6.44907 -4.37853 0
M  V30 2109 N 201.022 0.148545 -1.56898 0
M  V30 2110 C 202.438 0.501131 -1.51528 0
M  V30 2111 C 202.638 1.83458 -0.833399 0
M  V30 2112 O 201.694 2.49259 -0.40328 0
M  V30 2113 C 203.007 0.512864 -2.96294 0
M  V30 2114 C 204.555 0.598487 -3.07225 0
M  V30 2115 C 205.03 0.640897 -4.53494 0
M  V30 2116 N 206.521 0.703163 -4.57832 0
M  V30 2117 C 207.256 0.756935 -5.68382 0
M  V30 2118 N 206.752 0.770147 -6.88506 0
M  V30 2119 N 208.545 0.797698 -5.56411 0
M  V30 2120 H 200.696 -0.725532 -1.99624 0
M  V30 2121 H 202.959 -0.264358 -0.910395 0
M  V30 2122 H 202.665 -0.398691 -3.49433 0
M  V30 2123 H 202.539 1.35133 -3.52163 0
M  V30 2124 H 204.926 1.50046 -2.54106 0
M  V30 2125 H 205.007 -0.267093 -2.54402 0
M  V30 2126 H 204.651 -0.256915 -5.0725 0
M  V30 2127 H 204.581 1.52295 -5.04097 0
M  V30 2128 H 207.072 0.700314 -3.71354 0
M  V30 2129 H 207.385 0.812983 -7.68512 0
M  V30 2130 H 205.73 0.738049 -6.9107 0
M  V30 2131 H 208.921 0.784535 -4.61479 0
M  V30 2132 H 209.094 0.83614 -6.42583 0
M  V30 2133 N 202.5 1.5196 0.417844 0
M  V30 2134 C 203.432 1.70895 1.52733 0
M  V30 2135 C 204.445 0.589405 1.51756 0
M  V30 2136 O 205.634 0.864312 1.56179 0
M  V30 2137 C 202.734 1.72627 2.91639 0
M  V30 2138 C 201.907 3.01479 3.16905 0
M  V30 2139 C 200.966 2.95139 4.35637 0
M  V30 2140 O 199.992 3.69059 4.3334 0
M  V30 2141 N 201.194 2.12328 5.40275 0
M  V30 2142 H 203.959 2.66612 1.36888 0
M  V30 2143 H 201.52 1.50089 0.607037 0
M  V30 2144 H 203.512 1.65928 3.6912 0
M  V30 2145 H 202.082 0.844216 3.00985 0
M  V30 2146 H 201.302 3.21895 2.27546 0
M  V30 2147 H 202.59 3.86736 3.30625 0
M  V30 2148 H 201.988 1.51685 5.44985 0
M  V30 2149 H 200.545 2.11494 6.16534 0
M  V30 2150 N 203.978 -0.674533 1.42435 0
M  V30 2151 C 205.224 -1.43521 1.4413 0
M  V30 2152 C 205.579 -1.92316 0.0567773 0
M  V30 2153 O 204.872 -1.68008 -0.921076 0
M  V30 2154 C 205.066 -2.64767 2.40069 0
M  V30 2155 C 204.895 -2.27836 3.87713 0
M  V30 2156 C 203.665 -2.17183 4.56245 0
M  V30 2157 C 205.863 -1.89466 4.78129 0
M  V30 2158 N 203.845 -1.73358 5.88915 0
M  V30 2159 C 205.216 -1.56561 5.99907 0
M  V30 2160 C 207.271 -1.7646 4.65582 0
M  V30 2161 C 205.974 -1.11957 7.10534 0
M  V30 2162 C 208 -1.3326 5.76191 0
M  V30 2163 C 207.362 -1.0128 6.97081 0
M  V30 2164 H 203.461 -0.521656 0.582579 0
M  V30 2165 H 206.045 -0.778381 1.78464 0
M  V30 2166 H 204.216 -3.28139 2.07796 0
M  V30 2167 H 205.948 -3.3136 2.32342 0
M  V30 2168 H 202.703 -2.3626 4.10461 0
M  V30 2169 H 203.127 -1.53867 6.59283 0
M  V30 2170 H 207.769 -1.99831 3.72595 0
M  V30 2171 H 205.487 -0.873318 8.03367 0
M  V30 2172 H 209.073 -1.23717 5.68494 0
M  V30 2173 H 207.953 -0.683597 7.81215 0
M  V30 2174 N 205.456 -1.28612 -0.910864 0
M  V30 2175 C 206.702 -1.16106 -1.66274 0
M  V30 2176 C 207.035 0.289113 -1.92036 0
M  V30 2177 O 206.31 1.21 -1.52281 0
M  V30 2178 C 206.593 -1.96309 -3.01885 0
M  V30 2179 C 206.446 -3.49405 -2.8326 0
M  V30 2180 C 207.765 -1.78076 -4.02463 0
M  V30 2181 H 204.884 -0.423152 -0.603417 0
M  V30 2182 H 207.526 -1.57961 -1.05586 0
M  V30 2183 H 205.676 -1.60742 -3.53687 0
M  V30 2184 H 207.348 -3.94894 -2.38446 0
M  V30 2185 H 205.591 -3.74893 -2.18261 0
M  V30 2186 H 206.262 -4.00784 -3.79574 0
M  V30 2187 H 208.738 -2.0912 -3.59733 0
M  V30 2188 H 207.614 -2.36561 -4.95308 0
M  V30 2189 H 207.875 -0.733008 -4.35981 0
M  V30 2190 N 206.934 1.1197 -1.10907 0
M  V30 2191 C 208.18 1.84059 -0.865674 0
M  V30 2192 C 208.535 1.82731 0.602254 0
M  V30 2193 O 207.828 1.26543 1.43866 0
M  V30 2194 C 208.022 3.30749 -1.35425 0
M  V30 2195 C 207.851 3.46363 -2.86815 0
M  V30 2196 C 206.621 3.59712 -3.54874 0
M  V30 2197 C 208.819 3.41116 -3.84895 0
M  V30 2198 N 206.801 3.63741 -4.94536 0
M  V30 2199 C 208.172 3.51698 -5.10596 0
M  V30 2200 C 210.227 3.24612 -3.77533 0
M  V30 2201 C 208.93 3.4748 -6.29802 0
M  V30 2202 C 210.956 3.21708 -4.96244 0
M  V30 2203 C 210.318 3.32856 -6.20795 0
M  V30 2204 H 206.417 0.689015 -0.369841 0
M  V30 2205 H 209.001 1.34016 -1.41237 0
M  V30 2206 H 207.172 3.79322 -0.834814 0
M  V30 2207 H 208.904 3.90718 -1.05458 0
M  V30 2208 H 205.659 3.62038 -3.05329 0
M  V30 2209 H 206.083 3.69408 -5.67333 0
M  V30 2210 H 210.725 3.14883 -2.8215 0
M  V30 2211 H 208.443 3.55978 -7.25469 0
M  V30 2212 H 212.029 3.10113 -4.92261 0
M  V30 2213 H 210.909 3.3059 -7.11112 0
M  V30 2214 N 208.412 0.89855 1.29475 0
M  V30 2215 C 209.66 0.522847 1.9522 0
M  V30 2216 C 209.981 -0.93371 1.71192 0
M  V30 2217 O 209.251 -1.65823 1.04305 0
M  V30 2218 H 207.831 0.190366 0.722336 0
M  V30 2219 H 210.493 1.14459 1.5775 0
M  V30 2220 H 209.589 0.704476 3.04045 0
M  V30 2221 N 209.89 -1.43072 0.660911 0
M  V30 2222 C 211.301 -1.84932 0.256348 0
M  V30 2223 C 211.652 -1.55325 -1.19868 0
M  V30 2224 O 210.777 -1.00607 -1.91591 0
M  V30 2225 C 211.372 -3.35684 0.458475 0
M  V30 2226 C 209.931 -3.76245 0.108161 0
M  V30 2227 C 209.078 -2.66749 0.757641 0
M  V30 2228 H 212.029 -1.33116 0.864051 0
M  V30 2229 H 212.05 -3.79365 -0.293683 0
M  V30 2230 H 211.562 -3.572 1.51755 0
M  V30 2231 H 209.663 -3.60338 -0.948014 0
M  V30 2232 H 209.776 -4.76058 0.538992 0
M  V30 2233 H 208.14 -2.53989 0.190185 0
M  V30 2234 H 208.923 -2.91092 1.81989 0
M  V30 2235 N 211.368 -0.403325 -1.52352 0
M  V30 2236 C 212.593 0.176499 -2.06648 0
M  V30 2237 C 213.018 1.38577 -1.27193 0
M  V30 2238 O 212.376 1.7879 -0.300637 0
M  V30 2239 C 212.424 0.511061 -3.5696 0
M  V30 2240 O 211.528 1.60294 -3.79973 0
M  V30 2241 H 210.869 0.0167337 -0.663789 0
M  V30 2242 H 213.399 -0.574848 -1.96359 0
M  V30 2243 H 213.409 0.771362 -4.00642 0
M  V30 2244 H 212.084 -0.37296 -4.14224 0
M  V30 2245 H 210.661 1.33526 -3.48174 0
M  V30 2246 N 212.846 1.57033 -0.133567 0
M  V30 2247 C 214.094 1.953 0.519848 0
M  V30 2248 C 214.415 1.01866 1.66278 0
M  V30 2249 O 213.685 0.0776513 1.95746 0
M  V30 2250 H 212.265 0.721091 0.195032 0
M  V30 2251 H 214.927 1.93809 -0.205921 0
M  V30 2252 H 214.023 2.98695 0.904854 0
M  V30 2253 N 214.325 -0.140222 1.56975 0
M  V30 2254 C 215.555 -0.865181 1.87612 0
M  V30 2255 C 215.963 -1.74942 0.72055 0
M  V30 2256 O 215.306 -1.80917 -0.318561 0
M  V30 2257 C 215.368 -1.76782 3.13031 0
M  V30 2258 C 215.032 -1.06005 4.44536 0
M  V30 2259 C 216.029 -0.410768 5.18275 0
M  V30 2260 C 213.714 -1.04754 4.91255 0
M  V30 2261 C 215.708 0.241572 6.36942 0
M  V30 2262 C 213.395 -0.391394 6.09845 0
M  V30 2263 C 214.393 0.252029 6.82535 0
M  V30 2264 O 214.081 0.897757 7.98871 0
M  V30 2265 H 213.813 -0.255188 0.625983 0
M  V30 2266 H 216.367 -0.135653 2.04952 0
M  V30 2267 H 214.597 -2.53846 2.91718 0
M  V30 2268 H 216.286 -2.36533 3.29859 0
M  V30 2269 H 217.052 -0.412195 4.83245 0
M  V30 2270 H 212.931 -1.53777 4.34596 0
M  V30 2271 H 216.475 0.744375 6.93617 0
M  V30 2272 H 212.372 -0.387656 6.44335 0
M  V30 2273 H 213.14 0.800102 8.1458 0
M  V30 2274 N 215.803 -1.52179 -0.40978 0
M  V30 2275 C 217.051 -1.65878 -1.15451 0
M  V30 2276 C 217.372 -0.390771 -1.91044 0
M  V30 2277 O 216.642 0.594323 -1.86667 0
M  V30 2278 H 215.222 -0.611405 -0.429177 0
M  V30 2279 H 217.884 -1.89219 -0.467134 0
M  V30 2280 H 216.98 -2.49954 -1.86894 0
M  V30 2281 N 217.281 0.66697 -1.42791 0
M  V30 2282 C 218.529 1.42417 -1.43394 0
M  V30 2283 C 218.85 1.94925 -0.0542373 0
M  V30 2284 O 218.12 1.73564 0.908415 0
M  V30 2285 H 216.7 0.528515 -0.527902 0
M  V30 2286 H 219.362 0.787562 -1.78279 0
M  V30 2287 H 218.458 2.27333 -2.13837 0
M  V30 2288 N 218.759 1.29093 0.90403 0
M  V30 2289 C 220.008 1.16187 1.64874 0
M  V30 2290 C 220.321 -0.286742 1.93487 0
M  V30 2291 O 221.527 -0.537062 2.66135 0
M  V30 2292 C 219.983 2.03177 2.97064 0
M  V30 2293 C 219.591 3.52836 2.76062 0
M  V30 2294 C 221.335 1.98984 3.74974 0
M  V30 2295 C 219.242 4.31945 4.03952 0
M  V30 2296 H 218.172 0.431246 0.618501 0
M  V30 2297 H 220.823 1.53699 1.00243 0
M  V30 2298 H 219.205 1.5853 3.62883 0
M  V30 2299 H 220.379 4.05507 2.18863 0
M  V30 2300 H 218.694 3.58656 2.11553 0
M  V30 2301 H 221.291 2.55351 4.69787 0
M  V30 2302 H 221.634 0.968815 4.0487 0
M  V30 2303 H 222.167 2.41652 3.15989 0
M  V30 2304 H 218.906 5.34667 3.79225 0
M  V30 2305 H 218.426 3.84045 4.60727 0
M  V30 2306 H 220.105 4.42379 4.72133 0
M  V30 2307 N 220.237 -1.11381 1.11499 0
M  V30 2308 C 221.167 -2.19509 0.796125 0
M  V30 2309 C 222.148 -1.68458 -0.235796 0
M  V30 2310 O 223.333 -1.93947 -0.0991344 0
M  V30 2311 C 220.463 -3.46475 0.239205 0
M  V30 2312 C 219.417 -4.10744 1.20307 0
M  V30 2313 C 218.743 -5.32293 0.50683 0
M  V30 2314 C 220.043 -4.55597 2.55399 0
M  V30 2315 H 221.737 -2.46439 1.70024 0
M  V30 2316 H 219.283 -1.18446 0.818935 0
M  V30 2317 H 221.236 -4.214 0.00392006 0
M  V30 2318 H 219.96 -3.19006 -0.700206 0
M  V30 2319 H 218.619 -3.37813 1.42399 0
M  V30 2320 H 218.267 -5.01095 -0.437408 0
M  V30 2321 H 217.967 -5.76243 1.1497 0
M  V30 2322 H 219.491 -6.09956 0.280351 0
M  V30 2323 H 220.905 -5.21841 2.37391 0
M  V30 2324 H 219.302 -5.10363 3.15673 0
M  V30 2325 H 220.372 -3.69013 3.14575 0
M  V30 2326 N 221.715 -0.905404 -1.28997 0
M  V30 2327 C 222.645 -0.404212 -2.29975 0
M  V30 2328 C 223.626 0.523784 -1.61835 0
M  V30 2329 O 224.811 0.433298 -1.89304 0
M  V30 2330 C 221.941 0.364042 -3.45387 0
M  V30 2331 C 220.895 -0.474048 -4.25367 0
M  V30 2332 C 220.221 0.422045 -5.33032 0
M  V30 2333 C 221.521 -1.72696 -4.92923 0
M  V30 2334 H 223.215 -1.24807 -2.72146 0
M  V30 2335 H 220.761 -0.601585 -1.30832 0
M  V30 2336 H 222.714 0.725447 -4.15109 0
M  V30 2337 H 221.438 1.24174 -3.02074 0
M  V30 2338 H 220.097 -0.81786 -3.57361 0
M  V30 2339 H 219.745 1.29804 -4.85963 0
M  V30 2340 H 219.445 -0.135057 -5.87445 0
M  V30 2341 H 220.969 0.779517 -6.05604 0
M  V30 2342 H 222.383 -1.43495 -5.55051 0
M  V30 2343 H 220.78 -2.22582 -5.57295 0
M  V30 2344 H 221.85 -2.45964 -4.17887 0
M  V30 2345 N 223.193 1.4272 -0.668489 0
M  V30 2346 C 224.439 2.01923 -0.188419 0
M  V30 2347 C 224.772 1.52704 1.19979 0
M  V30 2348 O 224.047 0.726566 1.8042 0
M  V30 2349 C 224.33 3.59451 -0.216085 0
M  V30 2350 C 224.183 4.18864 -1.6393 0
M  V30 2351 C 225.502 4.37903 0.439179 0
M  V30 2352 H 222.621 0.733674 -0.0699412 0
M  V30 2353 H 225.263 1.69822 -0.852076 0
M  V30 2354 H 223.413 3.86929 0.349012 0
M  V30 2355 H 225.085 4.02362 -2.25616 0
M  V30 2356 H 223.328 3.74933 -2.18193 0
M  V30 2357 H 223.999 5.27987 -1.61039 0
M  V30 2358 H 226.475 4.16079 -0.0417878 0
M  V30 2359 H 225.351 5.47519 0.389157 0
M  V30 2360 H 225.612 4.15303 1.51577 0
M  V30 2361 N 224.671 0.411399 1.52136 0
M  V30 2362 C 225.619 -0.427633 2.28635 0
M  V30 2363 C 226.613 -1.04383 1.33419 0
M  V30 2364 O 227.819 -0.981772 1.50868 0
M  V30 2365 H 224.194 -0.156689 0.735495 0
M  V30 2366 H 226.165 0.238761 2.97443 0
M  V30 2367 C 224.914 -1.53082 3.12188 0
M  V30 2368 H 224.237 -1.06601 3.85326 0
M  V30 2369 H 225.677 -2.09167 3.68816 0
M  V30 2370 C 224.136 -2.49946 2.25895 0
M  V30 2371 O 224.666 -3.53884 1.90076 0
M  V30 2372 N 222.872 -2.2021 1.8962 0
M  V30 2373 H 222.419 -1.35719 2.18948 0
M  V30 2374 H 222.377 -2.85266 1.32176 0
M  V30 2375 N 226.149 -1.5696 0.141893 0
M  V30 2376 C 227.389 -1.9785 -0.513304 0
M  V30 2377 C 227.753 -1.02467 -1.62371 0
M  V30 2378 O 228.954 -1.32382 -2.33941 0
M  V30 2379 C 227.225 -3.42797 -1.01118 0
M  V30 2380 S 228.784 -4.05709 -1.67169 0
M  V30 2381 H 225.602 -0.691318 -0.166135 0
M  V30 2382 H 228.204 -1.94114 0.232398 0
M  V30 2383 H 226.908 -4.0995 -0.192179 0
M  V30 2384 H 226.439 -3.50235 -1.79162 0
M  V30 2385 H 228.454 -3.98342 -2.95868 0
M  V30 2386 N 227.627 0.131896 -1.57047 0
M  V30 2387 C 228.904 0.871495 -1.75112 0
M  V30 2388 C 229.284 1.9866 -0.713949 0
M  V30 2389 O 228.632 2.26965 0.264447 0
M  V30 2390 C 228.842 1.40007 -3.19686 0
M  V30 2391 C 230.19 1.85752 -3.81813 0
M  V30 2392 O 231.214 1.49715 -3.23209 0
M  V30 2393 O 230.073 2.5226 -4.84796 0
M  V30 2394 H 227.167 0.412919 -0.716538 0
M  V30 2395 H 229.713 0.116641 -1.69299 0
M  V30 2396 H 228.485 0.599404 -3.86682 0
M  V30 2397 H 228.108 2.218 -3.29986 0
M  V30 2398 N 229.106 1.52395 0.401703 0
M  V30 2399 C 230.522 1.41363 0.740864 0
M  V30 2400 C 230.722 0.523982 1.94568 0
M  V30 2401 O 229.778 -0.00741204 2.52499 0
M  V30 2402 C 231.091 2.84011 0.987847 0
M  V30 2403 C 232.639 2.93404 1.09011 0
M  V30 2404 C 233.114 4.37036 1.3698 0
M  V30 2405 N 234.605 4.40304 1.43829 0
M  V30 2406 C 235.34 5.48508 1.67112 0
M  V30 2407 N 234.836 6.66819 1.87949 0
M  V30 2408 N 236.629 5.36034 1.69187 0
M  V30 2409 H 228.78 2.08765 -0.391262 0
M  V30 2410 H 231.043 0.941265 -0.112798 0
M  V30 2411 H 230.749 3.51265 0.174835 0
M  V30 2412 H 230.623 3.25502 1.906 0
M  V30 2413 H 233.01 2.26325 1.8937 0
M  V30 2414 H 233.091 2.55359 0.15015 0
M  V30 2415 H 232.735 5.04676 0.571353 0
M  V30 2416 H 232.665 4.72623 2.3224 0
M  V30 2417 H 235.156 3.55024 1.29486 0
M  V30 2418 H 235.469 7.45063 2.05185 0
M  V30 2419 H 233.814 6.6987 1.85199 0
M  V30 2420 H 237.005 4.42579 1.52451 0
M  V30 2421 H 237.178 6.20434 1.86993 0
M  V30 2422 N 230.584 -0.659388 1.43143 0
M  V30 2423 C 231.861 -1.41627 1.34912 0
M  V30 2424 C 232.241 -2.11099 -0.00607785 0
M  V30 2425 O 231.589 -2.04353 -1.02236 0
M  V30 2426 C 231.799 -2.40604 2.52805 0
M  V30 2427 C 233.147 -3.04789 2.95616 0
M  V30 2428 O 234.171 -2.50932 2.52807 0
M  V30 2429 O 233.03 -4.02421 3.69756 0
M  V30 2430 H 230.124 -0.63246 0.532844 0
M  V30 2431 H 232.67 -0.686814 1.5518 0
M  V30 2432 H 231.442 -1.88174 3.43083 0
M  V30 2433 H 231.065 -3.21009 2.34604 0
M  V30 2434 N 232.062 -1.29571 -0.897171 0
M  V30 2435 C 233.339 -1.08365 -1.62839 0
M  V30 2436 C 233.719 0.371331 -2.07808 0
M  V30 2437 O 233.067 1.3606 -1.83576 0
M  V30 2438 C 233.277 -2.0735 -2.80726 0
M  V30 2439 C 234.625 -2.38406 -3.51351 0
M  V30 2440 O 235.649 -2.05564 -2.90898 0
M  V30 2441 O 234.508 -2.9453 -4.60341 0
M  V30 2442 H 231.602 -0.415345 -0.715134 0
M  V30 2443 H 234.148 -1.40952 -0.945018 0
M  V30 2444 H 232.92 -3.05339 -2.44711 0
M  V30 2445 H 232.543 -1.75507 -3.56767 0
M  V30 2446 N 233.54 1.10788 -1.12088 0
M  V30 2447 C 234.951 1.64181 -0.88891 0
M  V30 2448 C 235.302 1.87508 0.577498 0
M  V30 2449 O 234.427 1.61434 1.44112 0
M  V30 2450 C 235.022 2.98257 -1.60712 0
M  V30 2451 C 233.581 3.4853 -1.42139 0
M  V30 2452 C 232.728 2.23208 -1.6454 0
M  V30 2453 H 235.679 0.943368 -1.27618 0
M  V30 2454 H 235.7 3.65552 -1.05604 0
M  V30 2455 H 235.212 2.81246 -2.67436 0
M  V30 2456 H 233.313 3.70692 -0.376552 0
M  V30 2457 H 233.426 4.26882 -2.17505 0
M  V30 2458 H 231.79 2.31169 -1.06925 0
M  V30 2459 H 232.573 2.08733 -2.72554 0
M  V30 2460 N 235.018 0.912232 1.28515 0
M  V30 2461 C 236.243 0.559774 1.99703 0
M  V30 2462 C 236.668 -0.851393 1.67729 0
M  V30 2463 O 236.026 -1.56875 0.908834 0
M  V30 2464 C 236.074 0.773874 3.52198 0
M  V30 2465 O 235.178 -0.167842 4.12058 0
M  V30 2466 H 234.519 0.21723 0.627461 0
M  V30 2467 H 237.049 1.22725 1.63706 0
M  V30 2468 H 237.059 0.683386 4.02236 0
M  V30 2469 H 235.734 1.80261 3.74805 0
M  V30 2470 H 234.311 -0.0287509 3.72889 0
M  V30 2471 N 236.496 -1.42363 0.676048 0
M  V30 2472 C 237.736 -2.03392 0.20273 0
M  V30 2473 C 238.1 -1.52306 -1.16906 0
M  V30 2474 O 239.301 -2.05129 -1.73711 0
M  V30 2475 C 237.572 -3.56614 0.236947 0
M  V30 2476 S 239.131 -4.38489 -0.165186 0
M  V30 2477 H 235.949 -0.70611 0.0832418 0
M  V30 2478 H 238.551 -1.74093 0.88948 0
M  V30 2479 H 237.255 -3.91293 1.23767 0
M  V30 2480 H 236.786 -3.90587 -0.469596 0
M  V30 2481 H 238.801 -4.76093 -1.39822 0
M  V30 2482 N 237.974 -0.419461 -1.51915 0
M  V30 2483 C 239.251 0.211999 -1.94448 0
M  V30 2484 C 239.631 1.61703 -1.35703 0
M  V30 2485 O 238.979 2.22102 -0.536931 0
M  V30 2486 C 239.189 0.207872 -3.4838 0
M  V30 2487 C 240.537 0.422192 -4.22496 0
M  V30 2488 O 241.561 0.286778 -3.55044 0
M  V30 2489 O 240.42 0.690009 -5.42126 0
M  V30 2490 H 237.514 0.139586 -0.815135 0
M  V30 2491 H 240.06 -0.476151 -1.62883 0
M  V30 2492 H 238.832 -0.775102 -3.83546 0
M  V30 2493 H 238.455 0.939688 -3.86336 0
M  V30 2494 N 239.452 1.56882 -0.150215 0
M  V30 2495 C 240.698 1.96518 0.500834 0
M  V30 2496 C 241.031 1.03527 1.64304 0
M  V30 2497 O 240.306 0.0782751 1.94342 0
M  V30 2498 C 240.589 3.45822 1.00395 0
M  V30 2499 C 240.442 4.49591 -0.136983 0
M  V30 2500 C 241.761 3.97704 1.88467 0
M  V30 2501 H 238.88 0.714535 0.18058 0
M  V30 2502 H 241.522 1.88577 -0.232091 0
M  V30 2503 H 239.672 3.5272 1.62851 0
M  V30 2504 H 241.344 4.5477 -0.77343 0
M  V30 2505 H 239.587 4.26441 -0.795652 0
M  V30 2506 H 240.258 5.51402 0.256815 0
M  V30 2507 H 242.734 3.93304 1.35834 0
M  V30 2508 H 241.61 5.0263 2.20578 0
M  V30 2509 H 241.871 3.40252 2.82279 0
M  V30 2510 N 240.93 -0.123565 1.57115 0
M  V30 2511 C 241.862 -1.17739 1.96648 0
M  V30 2512 C 242.875 -1.37906 0.865201 0
M  V30 2513 O 244.064 -1.37062 1.14351 0
M  V30 2514 C 241.164 -2.53821 2.24562 0
M  V30 2515 C 240.337 -2.54317 3.55867 0
M  V30 2516 C 239.396 -3.72112 3.72047 0
M  V30 2517 O 238.422 -3.55907 4.44206 0
M  V30 2518 N 239.624 -4.90498 3.10471 0
M  V30 2519 H 242.389 -0.841147 2.87654 0
M  V30 2520 H 239.95 -0.31289 1.58848 0
M  V30 2521 H 241.942 -3.31175 2.32606 0
M  V30 2522 H 240.512 -2.79645 1.39705 0
M  V30 2523 H 239.732 -1.62711 3.59053 0
M  V30 2524 H 241.02 -2.51701 4.42181 0
M  V30 2525 H 240.418 -5.06567 2.51806 0
M  V30 2526 H 238.975 -5.65544 3.24043 0
M  V30 2527 N 242.408 -1.52605 -0.393616 0
M  V30 2528 C 243.685 -1.58001 -1.15304 0
M  V30 2529 C 244.065 -0.370385 -2.07825 0
M  V30 2530 O 243.413 0.641638 -2.19306 0
M  V30 2531 C 243.623 -2.91652 -1.91677 0
M  V30 2532 C 244.971 -3.4522 -2.47201 0
M  V30 2533 O 245.995 -2.93495 -2.01839 0
M  V30 2534 O 244.854 -4.35579 -3.3005 0
M  V30 2535 H 241.948 -0.637068 -0.527327 0
M  V30 2536 H 244.494 -1.64939 -0.399141 0
M  V30 2537 H 243.266 -3.71136 -1.23992 0
M  V30 2538 H 242.889 -2.88077 -2.74039 0
M  V30 2539 N 243.887 0.651787 -1.4349 0
M  V30 2540 C 244.835 1.78586 -1.49029 0
M  V30 2541 C 245.829 1.65448 -0.363767 0
M  V30 2542 O 247.035 1.71777 -0.537821 0
M  V30 2543 H 243.41 0.589236 -0.467231 0
M  V30 2544 H 245.381 1.71035 -2.44519 0
M  V30 2545 C 244.13 3.16851 -1.43181 0
M  V30 2546 H 243.453 3.27598 -2.29171 0
M  V30 2547 H 244.893 3.96156 -1.51118 0
M  V30 2548 C 243.352 3.36568 -0.149616 0
M  V30 2549 O 243.882 3.93885 0.788509 0
M  V30 2550 N 242.088 2.90539 -0.0593484 0
M  V30 2551 H 241.635 2.4408 -0.823575 0
M  V30 2552 H 241.593 3.04108 0.797853 0
M  V30 2553 N 245.365 1.30045 0.890287 0
M  V30 2554 C 246.605 1.19839 1.65584 0
M  V30 2555 C 246.969 -0.244175 1.90441 0
M  V30 2556 O 248.17 -0.469378 2.6467 0
M  V30 2557 C 246.441 1.99876 2.96284 0
M  V30 2558 S 248 2.06309 3.87275 0
M  V30 2559 H 244.818 0.427157 0.568382 0
M  V30 2560 H 247.42 1.64453 1.05715 0
M  V30 2561 H 246.124 3.03809 2.75913 0
M  V30 2562 H 245.655 1.55903 3.61189 0
M  V30 2563 H 247.67 1.18661 4.81803 0
M  V30 2564 N 246.843 -1.10192 1.12674 0
M  V30 2565 C 248.12 -1.78717 0.794965 0
M  V30 2566 C 248.5 -1.98628 -0.714853 0
M  V30 2567 O 247.848 -1.58135 -1.64941 0
M  V30 2568 C 248.058 -3.11546 1.5729 0
M  V30 2569 C 249.406 -3.86382 1.76052 0
M  V30 2570 O 250.43 -3.21274 1.53823 0
M  V30 2571 O 249.289 -5.03246 2.13087 0
M  V30 2572 H 246.383 -0.774702 0.289423 0
M  V30 2573 H 248.929 -1.16819 1.23091 0
M  V30 2574 H 247.701 -2.92489 2.59935 0
M  V30 2575 H 247.324 -3.81164 1.13137 0
M  V30 2576 N 248.321 -0.919034 -1.28029 0
M  V30 2577 C 249.253 -0.368762 -2.26214 0
M  V30 2578 C 250.266 0.495716 -1.55069 0
M  V30 2579 O 251.455 0.30974 -1.75792 0
M  V30 2580 C 248.555 0.491049 -3.35324 0
M  V30 2581 C 247.728 -0.352133 -4.3598 0
M  V30 2582 C 246.787 0.443622 -5.24327 0
M  V30 2583 O 245.813 -0.14566 -5.69014 0
M  V30 2584 N 247.015 1.74545 -5.53637 0
M  V30 2585 H 249.78 -1.21273 -2.74068 0
M  V30 2586 H 247.341 -0.785541 -1.41566 0
M  V30 2587 H 249.333 1.03026 -3.91366 0
M  V30 2588 H 247.903 1.23574 -2.87138 0
M  V30 2589 H 247.123 -1.07269 -3.79324 0
M  V30 2590 H 248.411 -0.928883 -5.00249 0
M  V30 2591 H 247.809 2.24666 -5.19174 0
M  V30 2592 H 246.366 2.23138 -6.12416 0
M  V30 2593 N 249.799 1.42003 -0.683588 0
M  V30 2594 C 250.749 2.27997 0.0121992 0
M  V30 2595 C 251.733 1.4156 0.764822 0
M  V30 2596 O 252.925 1.64935 0.642287 0
M  V30 2597 C 250.054 3.29706 0.956482 0
M  V30 2598 C 249.14 4.23625 0.200739 0
M  V30 2599 N 249.531 4.99448 -0.799087 0
M  V30 2600 C 247.829 4.43845 0.437937 0
M  V30 2601 C 248.53 5.68102 -1.25041 0
M  V30 2602 N 247.506 5.40511 -0.578648 0
M  V30 2603 H 251.308 2.84048 -0.754564 0
M  V30 2604 H 248.822 1.54071 -0.513398 0
M  V30 2605 H 250.819 3.90124 1.47 0
M  V30 2606 H 249.479 2.75216 1.72297 0
M  V30 2607 H 250.49 5.04303 -1.17893 0
M  V30 2608 H 247.167 4.00382 1.18325 0
M  V30 2609 H 248.557 6.38913 -2.07942 0
M  V30 2610 N 251.277 0.427512 1.51691 0
M  V30 2611 C 252.523 -0.142439 2.02299 0
M  V30 2612 C 252.856 -1.43214 1.31162 0
M  V30 2613 O 252.131 -1.89833 0.423511 0
M  V30 2614 C 252.414 -0.371301 3.58181 0
M  V30 2615 C 252.267 0.936358 4.39946 0
M  V30 2616 C 253.586 -1.14542 4.24933 0
M  V30 2617 H 250.705 -0.0502937 0.735282 0
M  V30 2618 H 253.347 0.564584 1.81418 0
M  V30 2619 H 251.497 -0.973559 3.76104 0
M  V30 2620 H 253.169 1.57184 4.33694 0
M  V30 2621 H 251.412 1.5432 4.05423 0
M  V30 2622 H 252.083 0.730388 5.47147 0
M  V30 2623 H 254.559 -0.635362 4.11221 0
M  V30 2624 H 253.435 -1.27431 5.33903 0
M  V30 2625 H 253.696 -2.17093 3.85127 0
M  V30 2626 N 252.755 -1.56801 0.158532 0
M  V30 2627 C 253.705 -2.13923 -0.788738 0
M  V30 2628 C 254.689 -1.07006 -1.2016 0
M  V30 2629 O 255.881 -1.33159 -1.1661 0
M  V30 2630 C 253.01 -2.77348 -2.02319 0
M  V30 2631 C 252.096 -3.91404 -1.6329 0
M  V30 2632 N 252.487 -4.9677 -0.951463 0
M  V30 2633 C 250.785 -4.02326 -1.92482 0
M  V30 2634 C 251.486 -5.76698 -0.761221 0
M  V30 2635 N 250.462 -5.27859 -1.29869 0
M  V30 2636 H 254.264 -2.92757 -0.258995 0
M  V30 2637 H 251.778 -1.62344 -0.0426055 0
M  V30 2638 H 253.775 -3.16639 -2.71192 0
M  V30 2639 H 252.435 -1.99991 -2.558 0
M  V30 2640 H 253.446 -5.14284 -0.610928 0
M  V30 2641 H 250.123 -3.36059 -2.47732 0
M  V30 2642 H 251.513 -6.71529 -0.223284 0
M  V30 2643 N 254.233 0.115231 -1.57178 0
M  V30 2644 C 255.473 0.828199 -1.8687 0
M  V30 2645 C 255.837 1.76873 -0.747002 0
M  V30 2646 O 257.038 2.52354 -0.925785 0
M  V30 2647 C 255.309 1.55515 -3.21792 0
M  V30 2648 S 256.868 2.30917 -3.73125 0
M  V30 2649 H 253.686 0.27634 -0.655101 0
M  V30 2650 H 256.288 0.0863469 -1.95309 0
M  V30 2651 H 254.992 0.856248 -4.01368 0
M  V30 2652 H 254.523 2.3373 -3.16439 0
M  V30 2653 H 256.538 3.56705 -3.44929 0
M  V30 2654 N 255.711 1.52812 0.385517 0
M  V30 2655 C 256.641 1.80808 1.47752 0
M  V30 2656 C 257.622 0.660318 1.5676 0
M  V30 2657 O 258.807 0.908246 1.71652 0
M  V30 2658 C 255.937 1.98008 2.85324 0
M  V30 2659 C 254.891 3.13709 2.91154 0
M  V30 2660 C 254.217 3.16169 4.31209 0
M  V30 2661 C 255.517 4.52709 2.60483 0
M  V30 2662 H 257.211 2.72253 1.24573 0
M  V30 2663 H 254.757 1.31003 0.597839 0
M  V30 2664 H 256.71 2.16176 3.61726 0
M  V30 2665 H 255.434 1.03255 3.09848 0
M  V30 2666 H 254.093 2.95329 2.17201 0
M  V30 2667 H 253.741 2.19092 4.52778 0
M  V30 2668 H 253.441 3.93894 4.36029 0
M  V30 2669 H 254.965 3.36496 5.09512 0
M  V30 2670 H 256.379 4.71173 3.26602 0
M  V30 2671 H 254.776 5.32528 2.76648 0
M  V30 2672 H 255.846 4.59186 1.55809 0
M  V30 2673 N 257.189 -0.644168 1.43834 0
M  V30 2674 C 258.121 -1.76955 1.45669 0
M  V30 2675 C 259.134 -1.58956 0.351666 0
M  V30 2676 O 260.323 -1.6751 0.616644 0
M  V30 2677 C 257.423 -3.14507 1.26248 0
M  V30 2678 C 256.596 -3.59083 2.49757 0
M  V30 2679 C 255.655 -4.75467 2.25427 0
M  V30 2680 O 254.681 -4.84444 2.98836 0
M  V30 2681 N 255.883 -5.66289 1.27661 0
M  V30 2682 H 258.648 -1.75856 2.42682 0
M  V30 2683 H 256.209 -0.828312 1.39106 0
M  V30 2684 H 258.201 -3.90067 1.0784 0
M  V30 2685 H 256.771 -3.10325 0.376478 0
M  V30 2686 H 255.991 -2.7387 2.8353 0
M  V30 2687 H 257.279 -3.85613 3.31934 0
M  V30 2688 H 256.677 -5.61718 0.670064 0
M  V30 2689 H 255.234 -6.41533 1.15234 0
M  V30 2690 N 258.668 -1.30515 -0.883378 0
M  V30 2691 C 259.945 -1.10086 -1.6168 0
M  V30 2692 C 260.325 0.349269 -2.08191 0
M  V30 2693 O 259.673 1.34105 -1.85008 0
M  V30 2694 C 259.883 -2.10315 -2.78511 0
M  V30 2695 C 261.231 -2.42119 -3.48803 0
M  V30 2696 O 262.255 -2.08638 -2.88702 0
M  V30 2697 O 261.114 -2.99396 -4.57192 0
M  V30 2698 H 258.208 -0.422907 -0.710689 0
M  V30 2699 H 260.754 -1.41947 -0.930015 0
M  V30 2700 H 259.526 -3.07917 -2.41459 0
M  V30 2701 H 259.149 -1.79282 -3.54886 0
M  V30 2702 N 260.146 1.09593 -1.13257 0
M  V30 2703 C 261.076 2.18214 -0.830946 0
M  V30 2704 C 262.057 1.68812 0.208966 0
M  V30 2705 O 263.242 1.9408 0.0682666 0
M  V30 2706 C 260.372 3.46051 -0.294296 0
M  V30 2707 C 259.326 4.08778 -1.26826 0
M  V30 2708 C 258.652 5.31419 -0.591449 0
M  V30 2709 C 259.952 4.51476 -2.62615 0
M  V30 2710 H 261.646 2.43703 -1.73923 0
M  V30 2711 H 259.192 1.17128 -0.837675 0
M  V30 2712 H 261.145 4.2134 -0.0709606 0
M  V30 2713 H 259.869 3.20079 0.649366 0
M  V30 2714 H 258.528 3.35505 -1.47756 0
M  V30 2715 H 258.176 5.01727 0.357633 0
M  V30 2716 H 257.876 5.74341 -1.24123 0
M  V30 2717 H 259.4 6.09433 -0.377355 0
M  V30 2718 H 260.814 5.17999 -2.45663 0
M  V30 2719 H 259.211 5.05277 -3.23752 0
M  V30 2720 H 260.281 3.63962 -3.20406 0
M  V30 2721 N 261.624 0.925811 1.2754 0
M  V30 2722 C 262.534 0.428993 2.30644 0
M  V30 2723 C 263.55 -0.489387 1.66976 0
M  V30 2724 O 264.726 -0.372653 1.97922 0
M  V30 2725 C 261.791 -0.311967 3.45294 0
M  V30 2726 C 260.852 0.641098 4.24486 0
M  V30 2727 C 260.085 -0.0645955 5.33661 0
M  V30 2728 O 260.308 -1.28429 5.55754 0
M  V30 2729 O 259.242 0.606265 5.98839 0
M  V30 2730 H 263.068 1.28504 2.75173 0
M  V30 2731 H 260.653 0.691086 1.32455 0
M  V30 2732 H 262.535 -0.729972 4.15029 0
M  V30 2733 H 261.21 -1.14365 3.02824 0
M  V30 2734 H 260.117 1.10874 3.57292 0
M  V30 2735 H 261.45 1.43995 4.70666 0
M  V30 2736 N 263.102 -1.41638 0.69111 0
M  V30 2737 C 264.379 -1.95036 0.148421 0
M  V30 2738 C 264.759 -1.63072 -1.34055 0
M  V30 2739 O 264.107 -0.93538 -2.08478 0
M  V30 2740 C 264.317 -3.46279 0.434951 0
M  V30 2741 C 265.665 -4.23069 0.360275 0
M  V30 2742 O 266.689 -3.54277 0.369613 0
M  V30 2743 O 265.548 -5.45583 0.316534 0
M  V30 2744 H 262.642 -0.826908 0.0123654 0
M  V30 2745 H 265.188 -1.5138 0.766963 0
M  V30 2746 H 263.96 -3.6281 1.46576 0
M  V30 2747 H 263.583 -3.97019 -0.214787 0
M  V30 2748 N 264.58 -0.43555 -1.51462 0
M  V30 2749 C 265.513 0.421989 -2.24264 0
M  V30 2750 C 266.491 1.02619 -1.26127 0
M  V30 2751 O 267.675 1.069 -1.55257 0
M  V30 2752 C 264.802 1.588 -2.99166 0
M  V30 2753 C 263.848 1.10465 -4.11946 0
M  V30 2754 S 264.681 0.048146 -5.35478 0
M  V30 2755 C 265.837 1.21887 -6.13917 0
M  V30 2756 H 266.07 -0.196102 -2.96653 0
M  V30 2757 H 263.603 -0.220054 -1.52824 0
M  V30 2758 H 265.561 2.25647 -3.42919 0
M  V30 2759 H 264.222 2.1775 -2.26371 0
M  V30 2760 H 263.415 1.97654 -4.63626 0
M  V30 2761 H 263.017 0.51445 -3.70445 0
M  V30 2762 H 265.309 2.13756 -6.42895 0
M  V30 2763 H 266.252 0.742076 -7.04201 0
M  V30 2764 H 266.66 1.45663 -5.45383 0
M  V30 2765 N 266.058 1.56714 -0.166846 0
M  V30 2766 C 267.283 2.01557 0.488833 0
M  V30 2767 C 267.708 1.0463 1.56314 0
M  V30 2768 O 267.066 0.0251304 1.81283 0
M  V30 2769 C 267.114 3.4503 1.04818 0
M  V30 2770 O 266.218 3.51163 2.16236 0
M  V30 2771 H 265.559 0.653516 0.117526 0
M  V30 2772 H 268.089 2.02818 -0.269421 0
M  V30 2773 H 268.099 3.84243 1.37191 0
M  V30 2774 H 266.774 4.15077 0.261572 0
M  V30 2775 H 265.351 3.23807 1.84942 0
M  V30 2776 N 267.536 -0.106894 1.57237 0
M  V30 2777 C 268.782 -0.81373 1.85759 0
M  V30 2778 C 269.115 -1.78952 0.754315 0
M  V30 2779 O 268.39 -1.93029 -0.23879 0
M  V30 2780 C 268.673 -1.55293 3.24894 0
M  V30 2781 C 268.526 -0.595929 4.45835 0
M  V30 2782 C 269.845 -2.5063 3.61763 0
M  V30 2783 H 266.964 -0.294369 0.67566 0
M  V30 2784 H 269.606 -0.0776472 1.89841 0
M  V30 2785 H 267.756 -2.1804 3.21544 0
M  V30 2786 H 269.428 0.0236262 4.61294 0
M  V30 2787 H 267.671 0.0916191 4.33703 0
M  V30 2788 H 268.342 -1.15004 5.39887 0
M  V30 2789 H 270.818 -1.97982 3.65981 0
M  V30 2790 H 269.694 -2.99376 4.60071 0
M  V30 2791 H 269.955 -3.3385 2.89821 0
M  V30 2792 N 269.014 -1.53014 -0.377408 0
M  V30 2793 C 269.947 -1.73382 -1.48371 0
M  V30 2794 C 270.925 -0.581879 -1.51832 0
M  V30 2795 O 272.109 -0.81307 -1.70063 0
M  V30 2796 C 269.236 -1.80192 -2.8679 0
M  V30 2797 C 268.282 -3.02056 -3.01105 0
M  V30 2798 S 269.115 -4.61811 -2.71093 0
M  V30 2799 C 270.271 -4.71453 -4.11683 0
M  V30 2800 H 270.504 -2.66946 -1.30872 0
M  V30 2801 H 268.037 -1.43453 -0.571012 0
M  V30 2802 H 269.995 -1.84802 -3.6655 0
M  V30 2803 H 268.656 -0.877008 -3.01608 0
M  V30 2804 H 267.849 -3.03396 -4.02451 0
M  V30 2805 H 267.451 -2.95498 -2.29253 0
M  V30 2806 H 269.743 -4.50781 -5.0577 0
M  V30 2807 H 270.686 -5.73487 -4.15353 0
M  V30 2808 H 271.094 -4.00189 -3.98132 0
M  V30 2809 N 270.492 0.636531 -1.44174 0
M  V30 2810 C 271.738 1.39826 -1.4689 0
M  V30 2811 C 272.071 1.93947 -0.0990585 0
M  V30 2812 O 271.346 1.73325 0.882544 0
M  V30 2813 C 271.629 2.56751 -2.5249 0
M  V30 2814 C 271.482 2.08014 -3.98811 0
M  V30 2815 C 272.801 3.58946 -2.54649 0
M  V30 2816 H 269.92 0.507075 -0.53483 0
M  V30 2817 H 272.562 0.720188 -1.75822 0
M  V30 2818 H 270.712 3.14597 -2.2795 0
M  V30 2819 H 272.384 1.5504 -4.34466 0
M  V30 2820 H 270.627 1.39242 -4.10846 0
M  V30 2821 H 271.298 2.92169 -4.68339 0
M  V30 2822 H 273.774 3.1089 -2.76563 0
M  V30 2823 H 272.65 4.38286 -3.3045 0
M  V30 2824 H 272.911 4.12655 -1.58646 0
M  V30 2825 N 271.97 1.30982 0.876444 0
M  V30 2826 C 272.9 1.20668 1.99903 0
M  V30 2827 C 273.881 0.095354 1.69833 0
M  V30 2828 O 275.066 0.27885 1.92188 0
M  V30 2829 C 272.196 0.90655 3.3526 0
M  V30 2830 C 271.15 1.97675 3.79617 0
M  V30 2831 C 270.476 1.52943 5.1236 0
M  V30 2832 C 271.776 3.389 3.97422 0
M  V30 2833 H 273.47 2.14586 2.0879 0
M  V30 2834 H 271.016 1.03308 1.00317 0
M  V30 2835 H 272.969 0.821025 4.13324 0
M  V30 2836 H 271.693 -0.0682969 3.26529 0
M  V30 2837 H 270.352 2.05205 3.03787 0
M  V30 2838 H 270 0.54262 5.00065 0
M  V30 2839 H 269.7 2.24532 5.43009 0
M  V30 2840 H 271.224 1.45786 5.92941 0
M  V30 2841 H 272.638 3.34081 4.659 0
M  V30 2842 H 271.035 4.0865 4.3946 0
M  V30 2843 H 272.105 3.80163 3.01006 0
M  V30 2844 N 273.449 -1.08991 1.13837 0
M  V30 2845 C 274.865 -1.33312 0.877506 0
M  V30 2846 C 275.065 -1.95587 -0.48456 0
M  V30 2847 O 274.121 -2.20509 -1.23013 0
M  V30 2848 C 275.434 -2.24045 2.0056 0
M  V30 2849 C 276.982 -2.37542 2.03821 0
M  V30 2850 C 277.457 -3.31614 3.15905 0
M  V30 2851 N 278.948 -3.39189 3.15445 0
M  V30 2852 C 279.683 -4.11992 3.98811 0
M  V30 2853 N 279.179 -4.87553 4.92203 0
M  V30 2854 N 280.972 -4.07762 3.86894 0
M  V30 2855 H 273.123 -0.669456 2.01574 0
M  V30 2856 H 275.386 -0.357482 0.878015 0
M  V30 2857 H 275.092 -1.85521 2.98789 0
M  V30 2858 H 274.966 -3.24466 1.92359 0
M  V30 2859 H 277.353 -2.75327 1.06202 0
M  V30 2860 H 277.434 -1.36884 2.16093 0
M  V30 2861 H 277.078 -2.94551 4.13766 0
M  V30 2862 H 277.008 -4.32186 3.0087 0
M  V30 2863 H 279.499 -2.85314 2.47799 0
M  V30 2864 H 279.812 -5.40549 5.52292 0
M  V30 2865 H 278.157 -4.86627 4.96205 0
M  V30 2866 H 281.348 -3.47833 3.13257 0
M  V30 2867 H 281.521 -4.64238 4.52092 0
M  V30 2868 N 274.927 -0.932562 -1.27047 0
M  V30 2869 C 276.155 -0.592031 -1.98249 0
M  V30 2870 C 276.57 0.831062 -1.69525 0
M  V30 2871 O 275.927 1.55299 -0.958561 0
M  V30 2872 C 275.978 -0.814279 -3.5221 0
M  V30 2873 O 275.699 -2.18139 -3.7993 0
M  V30 2874 C 277.2 -0.483121 -4.4066 0
M  V30 2875 H 274.42 -0.223896 -0.632544 0
M  V30 2876 H 276.964 -1.25091 -1.61779 0
M  V30 2877 H 275.119 -0.20213 -3.86872 0
M  V30 2878 H 275.533 -2.235 -4.74498 0
M  V30 2879 H 277.007 -0.689298 -5.47679 0
M  V30 2880 H 277.484 0.581546 -4.35333 0
M  V30 2881 H 278.09 -1.07362 -4.11526 0
M  V30 2882 N 276.405 1.4127 -0.698611 0
M  V30 2883 C 277.337 2.292 0.00399731 0
M  V30 2884 C 278.35 1.44944 0.741279 0
M  V30 2885 O 279.539 1.68416 0.591477 0
M  V30 2886 C 276.639 3.22875 1.02979 0
M  V30 2887 C 275.812 4.35904 0.36151 0
M  V30 2888 C 274.871 5.10134 1.29033 0
M  V30 2889 O 273.897 5.63809 0.781562 0
M  V30 2890 N 275.099 5.17885 2.6225 0
M  V30 2891 H 277.864 2.9014 -0.750921 0
M  V30 2892 H 275.425 1.52455 -0.544882 0
M  V30 2893 H 277.417 3.69404 1.65296 0
M  V30 2894 H 275.987 2.63221 1.68622 0
M  V30 2895 H 275.207 3.91719 -0.441584 0
M  V30 2896 H 276.495 5.08696 -0.103055 0
M  V30 2897 H 275.893 4.7573 3.061 0
M  V30 2898 H 274.45 5.6798 3.19754 0
M  V30 2899 N 277.883 0.443576 1.51229 0
M  V30 2900 C 279.131 -0.120557 2.0174 0
M  V30 2901 C 279.452 -1.42665 1.32935 0
M  V30 2902 O 278.722 -1.9028 0.465866 0
M  V30 2903 H 277.302 -0.0475426 0.745486 0
M  V30 2904 H 279.964 0.587711 1.85828 0
M  V30 2905 H 279.06 -0.291972 3.10731 0
M  V30 2906 N 279.361 -1.56624 0.175154 0
M  V30 2907 C 280.772 -1.83561 -0.340916 0
M  V30 2908 C 281.123 -1.09511 -1.62794 0
M  V30 2909 O 280.248 -0.349389 -2.13561 0
M  V30 2910 C 280.843 -3.32979 -0.625313 0
M  V30 2911 C 279.402 -3.60399 -1.08581 0
M  V30 2912 C 278.549 -2.77024 -0.123722 0
M  V30 2913 H 281.5 -1.53593 0.399344 0
M  V30 2914 H 281.521 -3.50666 -1.47694 0
M  V30 2915 H 281.033 -3.86847 0.311575 0
M  V30 2916 H 279.134 -3.11945 -2.03767 0
M  V30 2917 H 279.247 -4.68711 -0.992317 0
M  V30 2918 H 277.611 -2.46993 -0.621821 0
M  V30 2919 H 278.394 -3.33674 0.807256 0
M  V30 2920 N 280.839 0.0985539 -1.57292 0
M  V30 2921 C 281.802 1.10402 -2.00858 0
M  V30 2922 C 282.802 1.33146 -0.901593 0
M  V30 2923 O 283.992 1.29318 -1.16716 0
M  V30 2924 C 281.124 2.45394 -2.36632 0
M  V30 2925 H 282.317 0.729099 -2.90902 0
M  V30 2926 H 279.87 0.343495 -1.52479 0
M  V30 2927 H 280.605 2.87769 -1.49531 0
M  V30 2928 H 280.39 2.30235 -3.17387 0
M  V30 2929 H 281.88 3.17718 -2.71007 0
M  V30 2930 N 282.317 1.53212 0.369288 0
M  V30 2931 C 283.28 1.7872 1.43498 0
M  V30 2932 C 284.28 0.657554 1.46741 0
M  V30 2933 O 285.47 0.925736 1.47566 0
M  V30 2934 C 282.602 1.90591 2.82645 0
M  V30 2935 H 283.795 2.73894 1.22156 0
M  V30 2936 H 281.348 1.44233 0.602203 0
M  V30 2937 H 282.083 0.974709 3.09306 0
M  V30 2938 H 281.868 2.72751 2.8169 0
M  V30 2939 H 283.358 2.11931 3.59826 0
M  V30 2940 N 283.795 -0.628877 1.44509 0
M  V30 2941 C 284.725 -1.75187 1.54376 0
M  V30 2942 C 285.706 -1.65411 0.396618 0
M  V30 2943 O 286.891 -1.84137 0.617031 0
M  V30 2944 C 284.021 -3.13725 1.48976 0
M  V30 2945 C 282.975 -3.38291 2.62189 0
M  V30 2946 C 282.301 -4.76883 2.41841 0
M  V30 2947 C 283.601 -3.30632 4.04326 0
M  V30 2948 H 285.295 -1.67187 2.48373 0
M  V30 2949 H 282.841 -0.802909 1.19538 0
M  V30 2950 H 284.794 -3.92064 1.54478 0
M  V30 2951 H 283.518 -3.22515 0.514961 0
M  V30 2952 H 282.177 -2.62334 2.56079 0
M  V30 2953 H 281.825 -4.82378 1.42548 0
M  V30 2954 H 281.525 -4.94278 3.17747 0
M  V30 2955 H 283.049 -5.57449 2.49165 0
M  V30 2956 H 284.463 -3.98873 4.11793 0
M  V30 2957 H 282.86 -3.59561 4.80454 0
M  V30 2958 H 283.93 -2.28404 4.27738 0
M  V30 2959 N 285.273 -1.31445 -0.869486 0
M  V30 2960 C 286.52 -1.21158 -1.62256 0
M  V30 2961 C 286.848 0.230155 -1.93133 0
M  V30 2962 O 286.103 1.17906 -1.56194 0
M  V30 2963 C 286.402 -2.00145 -2.96102 0
M  V30 2964 C 286.068 -3.4964 -2.84715 0
M  V30 2965 C 284.73 -3.90403 -2.81317 0
M  V30 2966 C 287.082 -4.44769 -2.71716 0
M  V30 2967 C 284.41 -5.24561 -2.62778 0
M  V30 2968 C 286.762 -5.79054 -2.54714 0
M  V30 2969 C 285.426 -6.19037 -2.49699 0
M  V30 2970 H 284.696 -0.443348 -0.593737 0
M  V30 2971 H 287.343 -1.62715 -1.00976 0
M  V30 2972 H 285.648 -1.5127 -3.6142 0
M  V30 2973 H 287.345 -1.89566 -3.53363 0
M  V30 2974 H 283.935 -3.17256 -2.88178 0
M  V30 2975 H 288.119 -4.14208 -2.73397 0
M  V30 2976 H 283.375 -5.54613 -2.57321 0
M  V30 2977 H 287.549 -6.52393 -2.43632 0
M  V30 2978 H 285.176 -7.22935 -2.35093 0
M  V30 2979 N 286.751 1.08385 -1.14413 0
M  V30 2980 C 288.028 1.77429 -0.823297 0
M  V30 2981 C 288.408 1.9974 0.683163 0
M  V30 2982 O 287.756 1.60739 1.62405 0
M  V30 2983 C 287.966 3.09004 -1.62227 0
M  V30 2984 C 289.314 3.83532 -1.82177 0
M  V30 2985 O 290.338 3.18786 -1.58915 0
M  V30 2986 O 289.197 4.99792 -2.21067 0
M  V30 2987 H 286.291 0.769999 -0.301712 0
M  V30 2988 H 288.837 1.14846 -1.24934 0
M  V30 2989 H 287.609 2.88316 -2.64555 0
M  V30 2990 H 287.232 3.79316 -1.19187 0
M  V30 2991 N 288.23 0.939286 1.26551 0
M  V30 2992 C 289.507 0.5038 1.89001 0
M  V30 2993 C 289.887 -1.01854 1.84903 0
M  V30 2994 O 289.235 -1.87773 1.30206 0
M  V30 2995 C 289.445 1.063 3.32417 0
M  V30 2996 C 290.793 1.13051 4.09273 0
M  V30 2997 O 291.817 1.01345 3.41479 0
M  V30 2998 O 290.676 1.31233 5.30509 0
M  V30 2999 H 287.77 0.163897 0.810597 0
M  V30 3000 H 290.316 1.03173 1.34735 0
M  V30 3001 H 289.088 2.10665 3.29752 0
M  V30 3002 H 288.711 0.517408 3.94219 0
M  V30 3003 N 289.708 -1.40897 0.706093 0
M  V30 3004 C 290.658 -2.27987 0.0240746 0
M  V30 3005 C 291.642 -1.42759 -0.742204 0
M  V30 3006 O 292.834 -1.65936 -0.615966 0
M  V30 3007 C 289.963 -3.31186 -0.903907 0
M  V30 3008 C 289.049 -4.2389 -0.133318 0
M  V30 3009 N 289.44 -4.98113 0.878444 0
M  V30 3010 C 287.738 -4.44485 -0.367269 0
M  V30 3011 C 288.439 -5.6604 1.34064 0
M  V30 3012 N 287.415 -5.39522 0.664565 0
M  V30 3013 H 291.217 -2.82812 0.799658 0
M  V30 3014 H 288.731 -1.53235 0.537845 0
M  V30 3015 H 290.728 -3.92413 -1.40775 0
M  V30 3016 H 289.388 -2.77922 -1.67897 0
M  V30 3017 H 290.399 -5.02364 1.25901 0
M  V30 3018 H 287.076 -4.02213 -1.1194 0
M  V30 3019 H 288.466 -6.35524 2.1808 0
M  V30 3020 N 291.186 -0.45159 -1.50991 0
M  V30 3021 C 292.133 0.352625 -2.2809 0
M  V30 3022 C 293.103 1.0044 -1.32291 0
M  V30 3023 O 294.288 1.02058 -1.6121 0
M  V30 3024 C 291.428 1.43983 -3.13629 0
M  V30 3025 C 290.541 0.804772 -4.24438 0
M  V30 3026 C 289.676 1.86822 -4.97263 0
M  V30 3027 C 288.715 1.21236 -5.99973 0
M  V30 3028 N 287.852 2.2178 -6.66152 0
M  V30 3029 H 292.692 -0.311186 -2.96371 0
M  V30 3030 H 290.229 -0.165308 -1.46168 0
M  V30 3031 H 292.187 2.08161 -3.61559 0
M  V30 3032 H 290.817 2.07307 -2.47434 0
M  V30 3033 H 289.869 0.0509129 -3.80366 0
M  V30 3034 H 291.181 0.286076 -4.97979 0
M  V30 3035 H 290.335 2.58628 -5.48813 0
M  V30 3036 H 289.074 2.42068 -4.23385 0
M  V30 3037 H 288.079 0.479828 -5.47702 0
M  V30 3038 H 289.304 0.667051 -6.75816 0
M  V30 3039 H 287.25 2.76079 -5.95077 0
M  V30 3040 H 287.167 1.74841 -7.35504 0
M  V30 3041 H 288.435 2.93026 -7.22327 0
M  V30 3042 N 292.664 1.56529 -0.183458 0
M  V30 3043 C 293.594 2.21549 0.737456 0
M  V30 3044 C 294.575 1.17489 1.23005 0
M  V30 3045 O 295.76 1.45959 1.281 0
M  V30 3046 C 292.89 2.86575 1.96194 0
M  V30 3047 C 291.844 3.96778 1.60473 0
M  V30 3048 C 291.17 4.48911 2.90487 0
M  V30 3049 C 292.47 5.15767 0.823497 0
M  V30 3050 H 294.164 2.98761 0.195453 0
M  V30 3051 H 291.71 1.43702 0.0925686 0
M  V30 3052 H 293.663 3.30739 2.61131 0
M  V30 3053 H 292.387 2.06749 2.52828 0
M  V30 3054 H 291.046 3.53286 0.978997 0
M  V30 3055 H 290.694 3.65862 3.45186 0
M  V30 3056 H 290.394 5.23265 2.67335 0
M  V30 3057 H 291.918 4.95771 3.56432 0
M  V30 3058 H 293.332 5.56549 1.37571 0
M  V30 3059 H 291.729 5.96114 0.690551 0
M  V30 3060 H 292.799 4.84574 -0.177782 0
M  V30 3061 N 294.142 -0.090211 1.57342 0
M  V30 3062 C 295.388 -0.793982 1.86611 0
M  V30 3063 C 295.721 -1.78142 0.773252 0
M  V30 3064 O 294.996 -1.93271 -0.218304 0
M  V30 3065 C 295.279 -1.51839 3.26523 0
M  V30 3066 C 295.132 -0.548609 4.46442 0
M  V30 3067 C 296.451 -2.46779 3.64401 0
M  V30 3068 H 293.57 -0.287186 0.678744 0
M  V30 3069 H 296.212 -0.0575076 1.89913 0
M  V30 3070 H 294.362 -2.14617 3.23839 0
M  V30 3071 H 296.034 0.0725513 4.61243 0
M  V30 3072 H 294.277 0.137614 4.33582 0
M  V30 3073 H 294.948 -1.09271 5.41076 0
M  V30 3074 H 297.424 -1.94089 3.68061 0
M  V30 3075 H 296.3 -2.94479 4.63221 0
M  V30 3076 H 296.561 -3.30758 2.93346 0
M  V30 3077 N 295.62 -1.53406 -0.361157 0
M  V30 3078 C 296.55 -1.83136 -1.44857 0
M  V30 3079 C 297.531 -0.685174 -1.5569 0
M  V30 3080 O 298.716 -0.93544 -1.70186 0
M  V30 3081 C 295.846 -2.02522 -2.82138 0
M  V30 3082 C 294.8 -3.18302 -2.86126 0
M  V30 3083 C 294.126 -3.22989 -4.26125 0
M  V30 3084 C 295.426 -4.56796 -2.53248 0
M  V30 3085 H 297.12 -2.74201 -1.20226 0
M  V30 3086 H 294.666 -1.31938 -0.576922 0
M  V30 3087 H 296.619 -2.21904 -3.58241 0
M  V30 3088 H 295.343 -1.08172 -3.08166 0
M  V30 3089 H 294.002 -2.98747 -2.12475 0
M  V30 3090 H 293.65 -2.26267 -4.49235 0
M  V30 3091 H 293.35 -4.00781 -4.29708 0
M  V30 3092 H 294.874 -3.44559 -5.04094 0
M  V30 3093 H 296.288 -4.7631 -3.19064 0
M  V30 3094 H 294.685 -5.36862 -2.68141 0
M  V30 3095 H 295.755 -4.61606 -1.48484 0
M  V30 3096 N 297.098 0.621204 -1.44841 0
M  V30 3097 C 298.048 1.72663 -1.48901 0
M  V30 3098 C 299.032 1.56964 -0.353702 0
M  V30 3099 O 300.224 1.66532 -0.599669 0
M  V30 3100 C 297.353 3.11381 -1.44557 0
M  V30 3101 C 296.439 3.32514 -2.6324 0
M  V30 3102 N 296.83 3.23969 -3.8843 0
M  V30 3103 C 295.128 3.63343 -2.58647 0
M  V30 3104 C 295.829 3.46062 -4.67564 0
M  V30 3105 N 294.805 3.69407 -3.98797 0
M  V30 3106 H 298.607 1.64529 -2.43531 0
M  V30 3107 H 296.121 0.82401 -1.39942 0
M  V30 3108 H 298.118 3.90667 -1.4555 0
M  V30 3109 H 296.778 3.20674 -0.509731 0
M  V30 3110 H 297.789 3.02669 -4.20252 0
M  V30 3111 H 294.466 3.79556 -1.73906 0
M  V30 3112 H 295.856 3.44963 -5.76585 0
M  V30 3113 N 298.576 1.31904 0.862503 0
M  V30 3114 C 299.804 1.24998 1.64873 0
M  V30 3115 C 300.219 -0.183425 1.87907 0
M  V30 3116 O 299.576 -1.11794 1.44251 0
M  V30 3117 C 299.627 1.99829 3.01248 0
M  V30 3118 O 299.348 3.37575 2.79239 0
M  V30 3119 C 300.849 1.99852 3.95694 0
M  V30 3120 H 298.069 0.431599 0.513773 0
M  V30 3121 H 300.613 1.73901 1.07604 0
M  V30 3122 H 298.768 1.54668 3.55185 0
M  V30 3123 H 299.182 3.75776 3.65914 0
M  V30 3124 H 300.656 2.56709 4.88676 0
M  V30 3125 H 301.133 0.982852 4.28062 0
M  V30 3126 H 301.739 2.44926 3.47694 0
M  V30 3127 N 300.054 -1.07777 1.14986 0
M  V30 3128 C 301.279 -1.84558 0.946213 0
M  V30 3129 C 301.704 -1.81323 -0.500362 0
M  V30 3130 O 301.062 -1.20301 -1.35637 0
M  V30 3131 C 301.11 -3.29736 1.45968 0
M  V30 3132 O 300.214 -4.07149 0.65601 0
M  V30 3133 H 299.555 -0.571641 0.33782 0
M  V30 3134 H 302.085 -1.35991 1.52865 0
M  V30 3135 H 302.095 -3.80574 1.47063 0
M  V30 3136 H 300.77 -3.31406 2.51283 0
M  V30 3137 H 299.347 -3.65994 0.714322 0
M  V30 3138 N 301.532 -0.945985 -1.26051 0
M  V30 3139 C 302.757 -0.612525 -1.98149 0
M  V30 3140 C 303.182 0.806623 -1.69927 0
M  V30 3141 O 302.54 1.54411 -0.950108 0
M  V30 3142 C 302.588 -0.866981 -3.50023 0
M  V30 3143 O 301.692 0.0585333 -4.12358 0
M  V30 3144 H 301.033 -0.23379 -0.621481 0
M  V30 3145 H 303.563 -1.27023 -1.60395 0
M  V30 3146 H 303.573 -0.789792 -4.00283 0
M  V30 3147 H 302.248 -1.90135 -3.69894 0
M  V30 3148 H 300.825 -0.0701241 -3.72834 0
M  V30 3149 N 303.011 1.40521 -0.713556 0
M  V30 3150 C 304.241 2.0494 -0.261395 0
M  V30 3151 C 304.649 1.53861 1.10107 0
M  V30 3152 O 303.992 0.689321 1.70276 0
M  V30 3153 C 304.054 3.59138 -0.161227 0
M  V30 3154 C 303.718 4.33096 -1.45865 0
M  V30 3155 C 304.715 4.61182 -2.40016 0
M  V30 3156 C 302.4 4.72043 -1.71701 0
M  V30 3157 C 304.394 5.27196 -3.58251 0
M  V30 3158 C 302.081 5.37789 -2.90218 0
M  V30 3159 C 303.079 5.65295 -3.83315 0
M  V30 3160 O 302.767 6.29683 -4.99754 0
M  V30 3161 H 302.499 0.666041 -0.115608 0
M  V30 3162 H 305.053 1.80954 -0.971849 0
M  V30 3163 H 303.283 3.81936 0.605153 0
M  V30 3164 H 304.972 4.05091 0.256105 0
M  V30 3165 H 305.738 4.31559 -2.21318 0
M  V30 3166 H 301.617 4.50003 -1.00092 0
M  V30 3167 H 305.161 5.48582 -4.30934 0
M  V30 3168 H 301.058 5.66831 -3.08825 0
M  V30 3169 H 301.826 6.4818 -4.99805 0
M  V30 3170 N 304.489 0.459591 1.5075 0
M  V30 3171 C 305.766 -0.160371 1.94941 0
M  V30 3172 C 306.146 -1.58048 1.39943 0
M  V30 3173 O 305.494 -2.206 0.595629 0
M  V30 3174 C 305.704 -0.115432 3.48809 0
M  V30 3175 C 307.052 -0.310026 4.23467 0
M  V30 3176 O 308.076 -0.192543 3.55679 0
M  V30 3177 O 306.935 -0.546031 5.43765 0
M  V30 3178 H 304.029 -0.117925 0.818549 0
M  V30 3179 H 306.575 0.519169 1.61563 0
M  V30 3180 H 305.347 0.87652 3.81357 0
M  V30 3181 H 304.97 -0.836928 3.88692 0
M  V30 3182 N 305.967 -1.56429 0.191757 0
M  V30 3183 C 306.93 -2.17707 -0.716688 0
M  V30 3184 C 307.93 -1.13061 -1.14341 0
M  V30 3185 O 309.12 -1.38464 -1.05704 0
M  V30 3186 C 306.252 -2.77644 -1.97804 0
M  V30 3187 H 307.445 -2.99342 -0.1829 0
M  V30 3188 H 304.998 -1.56193 -0.0578566 0
M  V30 3189 H 305.733 -1.99799 -2.55443 0
M  V30 3190 H 305.518 -3.54246 -1.68083 0
M  V30 3191 H 307.008 -3.24708 -2.62592 0
M  V30 3192 N 307.445 0.0818655 -1.57387 0
M  V30 3193 C 308.392 1.09834 -2.0299 0
M  V30 3194 C 309.362 1.39043 -0.908639 0
M  V30 3195 O 310.547 1.50282 -1.17559 0
M  V30 3196 C 307.687 2.40971 -2.47037 0
M  V30 3197 C 306.8 2.18379 -3.7274 0
M  V30 3198 C 305.935 3.43008 -4.0561 0
M  V30 3199 C 304.974 3.15736 -5.24383 0
M  V30 3200 N 304.111 4.32667 -5.52941 0
M  V30 3201 H 308.951 0.702472 -2.89602 0
M  V30 3202 H 306.488 0.33531 -1.43227 0
M  V30 3203 H 308.446 3.1752 -2.70623 0
M  V30 3204 H 307.076 2.78379 -1.63417 0
M  V30 3205 H 306.128 1.32569 -3.56552 0
M  V30 3206 H 307.44 1.94227 -4.59431 0
M  V30 3207 H 306.594 4.27958 -4.30043 0
M  V30 3208 H 305.333 3.70225 -3.17466 0
M  V30 3209 H 304.338 2.2918 -4.99757 0
M  V30 3210 H 305.563 2.8985 -6.14136 0
M  V30 3211 H 303.509 4.59935 -4.67756 0
M  V30 3212 H 303.426 4.11753 -6.34031 0
M  V30 3213 H 304.694 5.18644 -5.81918 0
M  V30 3214 N 308.923 1.53595 0.353017 0
M  V30 3215 C 310.339 1.43648 0.695516 0
M  V30 3216 C 310.539 0.585617 1.92802 0
M  V30 3217 O 309.595 0.0729223 2.52395 0
M  V30 3218 C 310.908 2.8701 0.896991 0
M  V30 3219 C 312.456 2.96723 0.996209 0
M  V30 3220 C 312.931 4.41173 1.23007 0
M  V30 3221 N 314.422 4.44657 1.29749 0
M  V30 3222 C 315.157 5.53547 1.49577 0
M  V30 3223 N 314.653 6.72461 1.66639 0
M  V30 3224 N 316.446 5.41145 1.52048 0
M  V30 3225 H 308.597 2.07415 -0.457481 0
M  V30 3226 H 310.86 0.9372 -0.142687 0
M  V30 3227 H 310.566 3.51644 0.0629938 0
M  V30 3228 H 310.44 3.31401 1.80148 0
M  V30 3229 H 312.827 2.32235 1.82074 0
M  V30 3230 H 312.908 2.55707 0.0688331 0
M  V30 3231 H 312.552 5.06238 0.410505 0
M  V30 3232 H 312.482 4.79772 2.17086 0
M  V30 3233 H 314.973 3.58963 1.18126 0
M  V30 3234 H 315.286 7.51214 1.81378 0
M  V30 3235 H 313.631 6.75423 1.63794 0
M  V30 3236 H 316.822 4.47205 1.38294 0
M  V30 3237 H 316.995 6.26068 1.67159 0
M  V30 3238 N 310.401 -0.613514 1.45168 0
M  V30 3239 C 311.364 -1.7065 1.53007 0
M  V30 3240 C 312.364 -1.5548 0.410184 0
M  V30 3241 O 313.554 -1.60656 0.673455 0
M  V30 3242 C 310.686 -3.09875 1.42093 0
M  V30 3243 H 311.879 -1.65068 2.50385 0
M  V30 3244 H 309.432 -0.828728 1.32521 0
M  V30 3245 H 310.167 -3.21039 0.458769 0
M  V30 3246 H 309.952 -3.22293 2.23315 0
M  V30 3247 H 311.442 -3.895 1.50598 0
M  V30 3248 N 311.879 -1.3236 -0.855495 0
M  V30 3249 C 312.811 -1.17052 -1.97057 0
M  V30 3250 C 313.824 -0.10574 -1.62456 0
M  V30 3251 O 315.013 -0.354619 -1.74942 0
M  V30 3252 C 312.113 -0.769305 -3.30053 0
M  V30 3253 C 311.286 -1.9222 -3.929 0
M  V30 3254 C 310.345 -1.50466 -5.04228 0
M  V30 3255 O 309.371 -2.21655 -5.24269 0
M  V30 3256 N 310.573 -0.400209 -5.79119 0
M  V30 3257 H 313.338 -2.13103 -2.1073 0
M  V30 3258 H 310.899 -1.24885 -1.0303 0
M  V30 3259 H 312.891 -0.472407 -4.01933 0
M  V30 3260 H 311.461 0.100025 -3.1244 0
M  V30 3261 H 310.681 -2.38563 -3.13817 0
M  V30 3262 H 311.969 -2.69403 -4.31624 0
M  V30 3263 H 311.367 0.192319 -5.65373 0
M  V30 3264 H 309.924 -0.162912 -6.51596 0
M  V30 3265 N 313.357 1.07166 -1.15556 0
M  V30 3266 C 314.603 1.80065 -0.932984 0
M  V30 3267 C 314.936 1.86586 0.53845 0
M  V30 3268 O 314.211 1.35098 1.39924 0
M  V30 3269 C 314.494 3.25022 -1.55025 0
M  V30 3270 C 314.347 3.26634 -3.09242 0
M  V30 3271 C 315.666 4.22341 -1.2376 0
M  V30 3272 H 312.785 0.653697 -0.340366 0
M  V30 3273 H 315.427 1.25389 -1.4275 0
M  V30 3274 H 313.577 3.71712 -1.12972 0
M  V30 3275 H 315.249 2.88173 -3.60214 0
M  V30 3276 H 313.492 2.65539 -3.43033 0
M  V30 3277 H 314.163 4.28854 -3.47546 0
M  V30 3278 H 316.639 3.8405 -1.60139 0
M  V30 3279 H 315.515 5.22053 -1.69564 0
M  V30 3280 H 315.776 4.41828 -0.154938 0
M  V30 3281 N 314.835 0.952656 1.25548 0
M  V30 3282 C 316.082 0.606373 1.93208 0
M  V30 3283 C 316.41 -0.85631 1.74636 0
M  V30 3284 O 315.665 -1.62951 1.08376 0
M  V30 3285 C 315.964 0.908818 3.45652 0
M  V30 3286 C 315.63 2.35722 3.84378 0
M  V30 3287 C 314.292 2.75312 3.9466 0
M  V30 3288 C 316.644 3.29793 4.03591 0
M  V30 3289 C 313.972 4.08047 4.21562 0
M  V30 3290 C 316.324 4.62138 4.31985 0
M  V30 3291 C 314.988 5.01528 4.40484 0
M  V30 3292 H 314.258 0.221888 0.706998 0
M  V30 3293 H 316.905 1.20132 1.49133 0
M  V30 3294 H 315.21 0.231456 3.91116 0
M  V30 3295 H 316.907 0.619498 3.96186 0
M  V30 3296 H 313.497 2.04017 3.76928 0
M  V30 3297 H 317.681 3.00397 3.95064 0
M  V30 3298 H 312.937 4.38212 4.26357 0
M  V30 3299 H 317.111 5.35012 4.45797 0
M  V30 3300 H 314.738 6.04406 4.61083 0
M  V30 3301 N 316.313 -1.40141 0.720998 0
M  V30 3302 C 317.263 -2.27949 0.0482544 0
M  V30 3303 C 318.247 -1.43538 -0.727021 0
M  V30 3304 O 319.439 -1.6658 -0.598332 0
M  V30 3305 C 316.568 -3.32126 -0.868729 0
M  V30 3306 C 315.654 -4.24008 -0.0883515 0
M  V30 3307 N 316.045 -4.97154 0.931226 0
M  V30 3308 C 314.343 -4.4485 -0.320105 0
M  V30 3309 C 315.044 -5.64587 1.4006 0
M  V30 3310 N 314.02 -5.38787 0.721752 0
M  V30 3311 H 317.822 -2.81948 0.829609 0
M  V30 3312 H 315.336 -1.52656 0.554067 0
M  V30 3313 H 317.333 -3.93884 -1.36605 0
M  V30 3314 H 315.993 -2.79687 -1.6494 0
M  V30 3315 H 317.004 -5.01 1.31222 0
M  V30 3316 H 313.681 -4.03378 -1.07668 0
M  V30 3317 H 315.071 -6.33175 2.24808 0
M  V30 3318 N 317.792 -0.46758 -1.50504 0
M  V30 3319 C 319.041 0.0902868 -2.01498 0
M  V30 3320 C 319.354 1.411 -1.35463 0
M  V30 3321 O 320.56 2.0536 -1.77594 0
M  V30 3322 C 319.016 0.21142 -3.59278 0
M  V30 3323 C 318.624 -1.10065 -4.34269 0
M  V30 3324 C 320.368 0.721433 -4.18325 0
M  V30 3325 C 318.275 -0.943505 -5.83825 0
M  V30 3326 H 317.205 0.037517 -0.753066 0
M  V30 3327 H 319.856 -0.601943 -1.73346 0
M  V30 3328 H 318.238 0.967352 -3.84003 0
M  V30 3329 H 319.412 -1.86726 -4.21272 0
M  V30 3330 H 317.727 -1.5415 -3.86816 0
M  V30 3331 H 320.324 0.85598 -5.27804 0
M  V30 3332 H 320.667 1.71186 -3.79475 0
M  V30 3333 H 321.2 0.0229843 -3.97793 0
M  V30 3334 H 317.939 -1.90719 -6.27141 0
M  V30 3335 H 317.459 -0.217213 -5.99407 0
M  V30 3336 H 319.138 -0.608715 -6.4413 0
M  V30 3337 N 319.27 1.56325 -0.20005 0
M  V30 3338 C 320.51 1.99619 0.439519 0
M  V30 3339 C 320.874 1.08423 1.58456 0
M  V30 3340 O 322.075 1.40973 2.28867 0
M  V30 3341 C 320.346 3.46314 0.883258 0
M  V30 3342 S 321.905 4.11634 1.51997 0
M  V30 3343 H 318.723 0.697007 0.140363 0
M  V30 3344 H 321.325 1.93118 -0.304282 0
M  V30 3345 H 320.029 4.10381 0.0398967 0
M  V30 3346 H 319.56 3.56643 1.6604 0
M  V30 3347 H 321.575 4.09049 2.8088 0
M  V30 3348 N 320.748 -0.0735177 1.57428 0
M  V30 3349 C 321.996 -0.771472 1.86796 0
M  V30 3350 C 322.317 -1.78201 0.791804 0
M  V30 3351 O 321.587 -1.95074 -0.179718 0
M  V30 3352 H 320.167 -0.28791 0.689287 0
M  V30 3353 H 322.829 -0.0500161 1.94836 0
M  V30 3354 H 321.925 -1.28874 2.8425 0
M  V30 3355 N 322.226 -1.5378 -0.344866 0
M  V30 3356 C 323.637 -1.62428 -0.920552 0
M  V30 3357 C 323.988 -0.504747 -1.89596 0
M  V30 3358 O 323.113 0.365711 -2.13287 0
M  V30 3359 C 323.708 -2.94419 -1.67639 0
M  V30 3360 C 322.267 -3.05333 -2.20111 0
M  V30 3361 C 321.414 -2.57866 -1.01982 0
M  V30 3362 H 324.365 -1.58222 -0.123042 0
M  V30 3363 H 324.386 -2.83384 -2.53917 0
M  V30 3364 H 323.898 -3.7588 -0.966224 0
M  V30 3365 H 321.999 -2.28502 -2.94308 0
M  V30 3366 H 322.112 -4.10778 -2.46573 0
M  V30 3367 H 320.476 -2.13241 -1.39285 0
M  V30 3368 H 321.259 -3.41765 -0.324308 0
M  V30 3369 N 323.704 0.605807 -1.45491 0
M  V30 3370 C 324.614 1.74466 -1.56839 0
M  V30 3371 C 325.63 1.68006 -0.452772 0
M  V30 3372 O 326.806 1.8833 -0.713708 0
M  V30 3373 C 323.871 3.10931 -1.53371 0
M  V30 3374 C 322.932 3.28832 -2.75986 0
M  V30 3375 C 322.165 4.58787 -2.72673 0
M  V30 3376 O 322.388 5.4122 -1.80102 0
M  V30 3377 O 321.322 4.79438 -3.63899 0
M  V30 3378 H 325.148 1.67843 -2.53106 0
M  V30 3379 H 322.733 0.770108 -1.28022 0
M  V30 3380 H 324.615 3.92233 -1.54051 0
M  V30 3381 H 323.29 3.18042 -0.602572 0
M  V30 3382 H 322.197 2.47112 -2.80867 0
M  V30 3383 H 323.53 3.26599 -3.68231 0
M  V30 3384 N 325.182 1.32811 0.848464 0
M  V30 3385 C 326.459 1.14334 1.58704 0
M  V30 3386 C 326.839 -0.293948 2.09043 0
M  V30 3387 O 326.187 -1.29153 1.88499 0
M  V30 3388 C 326.397 2.17626 2.72837 0
M  V30 3389 C 327.745 2.51282 3.42261 0
M  V30 3390 O 328.769 2.16219 2.83068 0
M  V30 3391 O 327.628 3.11413 4.49093 0
M  V30 3392 H 324.722 0.441601 0.699226 0
M  V30 3393 H 327.268 1.44362 0.892053 0
M  V30 3394 H 326.04 3.14211 2.3321 0
M  V30 3395 H 325.663 1.88628 3.50008 0
M  V30 3396 N 326.66 -1.06551 1.16123 0
M  V30 3397 C 327.906 -1.79567 0.94252 0
M  V30 3398 C 328.239 -1.86869 -0.528547 0
M  V30 3399 O 327.514 -1.35838 -1.39206 0
M  V30 3400 C 327.797 -3.24195 1.56747 0
M  V30 3401 C 327.65 -3.24989 3.10969 0
M  V30 3402 C 328.969 -4.21678 1.25998 0
M  V30 3403 H 326.088 -0.651883 0.343828 0
M  V30 3404 H 328.73 -1.2463 1.43413 0
M  V30 3405 H 326.88 -3.71107 1.14942 0
M  V30 3406 H 328.552 -2.86258 3.61737 0
M  V30 3407 H 326.795 -2.63716 3.44436 0
M  V30 3408 H 327.466 -4.27005 3.49815 0
M  V30 3409 H 329.942 -3.83196 1.62174 0
M  V30 3410 H 328.818 -5.21146 1.7233 0
M  V30 3411 H 329.079 -4.4174 0.178367 0
M  V30 3412 N 328.138 -0.959301 -1.25041 0
M  V30 3413 C 329.378 -0.624343 -1.94631 0
M  V30 3414 C 329.742 0.82403 -1.73418 0
M  V30 3415 O 330.943 1.26881 -2.3697 0
M  V30 3416 C 329.214 -0.978805 -3.43736 0
M  V30 3417 S 330.773 -0.757127 -4.32219 0
M  V30 3418 H 327.591 -0.229327 -0.673001 0
M  V30 3419 H 330.193 -1.23447 -1.51595 0
M  V30 3420 H 328.897 -2.02997 -3.56679 0
M  V30 3421 H 328.428 -0.359117 -3.91757 0
M  V30 3422 H 330.443 0.369759 -4.9482 0
M  V30 3423 N 329.616 1.39756 -0.72842 0
M  V30 3424 C 330.526 2.34444 -0.0855374 0
M  V30 3425 C 331.542 1.57976 0.729356 0
M  V30 3426 O 332.718 1.90301 0.659346 0
M  V30 3427 C 329.783 3.36965 0.815798 0
M  V30 3428 C 328.844 4.29299 -0.0105996 0
M  V30 3429 C 328.077 5.26923 0.84781 0
M  V30 3430 O 328.3 5.30859 2.08673 0
M  V30 3431 O 327.234 6.01249 0.279969 0
M  V30 3432 H 331.06 2.91065 -0.866892 0
M  V30 3433 H 328.645 1.4117 -0.48902 0
M  V30 3434 H 330.527 3.99804 1.33171 0
M  V30 3435 H 329.202 2.82739 1.57608 0
M  V30 3436 H 328.109 3.69703 -0.571877 0
M  V30 3437 H 329.442 4.86712 -0.73295 0
M  V30 3438 N 331.094 0.475555 1.50254 0
M  V30 3439 C 332.057 -0.305016 2.27161 0
M  V30 3440 C 333.057 -0.916519 1.32123 0
M  V30 3441 O 334.247 -0.785003 1.5551 0
M  V30 3442 C 331.379 -1.43496 3.09227 0
M  V30 3443 H 332.572 0.369511 2.97615 0
M  V30 3444 H 330.125 0.229747 1.54602 0
M  V30 3445 H 330.86 -2.14441 2.43281 0
M  V30 3446 H 330.645 -1.00223 3.79075 0
M  V30 3447 H 332.135 -1.98548 3.67381 0
M  V30 3448 N 332.573 -1.56217 0.208337 0
M  V30 3449 C 333.803 -2.02043 -0.431523 0
M  V30 3450 C 334.211 -1.08755 -1.54819 0
M  V30 3451 O 333.554 -0.0870009 -1.83494 0
M  V30 3452 C 333.616 -3.44239 -1.03633 0
M  V30 3453 C 333.28 -4.56965 -0.0567502 0
M  V30 3454 C 334.277 -5.14624 0.738773 0
M  V30 3455 C 331.962 -5.02266 0.0581736 0
M  V30 3456 C 333.956 -6.16045 1.63605 0
M  V30 3457 C 331.643 -6.03528 0.959001 0
M  V30 3458 C 332.641 -6.60293 1.7465 0
M  V30 3459 O 332.329 -7.59586 2.6322 0
M  V30 3460 H 332.061 -0.666772 -0.111313 0
M  V30 3461 H 334.615 -2.02919 0.318277 0
M  V30 3462 H 332.845 -3.40391 -1.83497 0
M  V30 3463 H 334.534 -3.73793 -1.58221 0
M  V30 3464 H 335.3 -4.80483 0.660364 0
M  V30 3465 H 331.179 -4.57771 -0.544633 0
M  V30 3466 H 334.723 -6.60279 2.25116 0
M  V30 3467 H 330.62 -6.37092 1.03848 0
M  V30 3468 H 331.388 -7.77057 2.57148 0
M  V30 3469 N 334.051 0.0651679 -1.57465 0
M  V30 3470 C 335.467 0.420105 -1.53972 0
M  V30 3471 C 335.667 1.78782 -0.929474 0
M  V30 3472 O 334.723 2.46771 -0.534839 0
M  V30 3473 C 336.036 0.355084 -2.98596 0
M  V30 3474 C 337.584 0.434792 -3.09965 0
M  V30 3475 C 338.059 0.399609 -4.56253 0
M  V30 3476 N 339.55 0.459488 -4.60915 0
M  V30 3477 C 340.285 0.454584 -5.71595 0
M  V30 3478 N 339.781 0.404102 -6.9162 0
M  V30 3479 N 341.574 0.501635 -5.59857 0
M  V30 3480 H 333.725 -0.830328 -1.95498 0
M  V30 3481 H 335.988 -0.312244 -0.895102 0
M  V30 3482 H 335.694 -0.583357 -3.46828 0
M  V30 3483 H 335.568 1.16275 -3.58831 0
M  V30 3484 H 337.955 1.36366 -2.61703 0
M  V30 3485 H 338.036 -0.40157 -2.52628 0
M  V30 3486 H 337.68 -0.525436 -5.05175 0
M  V30 3487 H 337.61 1.25359 -5.11461 0
M  V30 3488 H 340.101 0.502482 -3.74544 0
M  V30 3489 H 340.414 0.404468 -7.71741 0
M  V30 3490 H 338.759 0.37069 -6.94011 0
M  V30 3491 H 341.95 0.538812 -4.64989 0
M  V30 3492 H 342.123 0.494345 -6.46112 0
M  V30 3493 N 335.529 1.53961 0.336706 0
M  V30 3494 C 336.479 1.7881 1.41461 0
M  V30 3495 C 337.463 0.643561 1.47469 0
M  V30 3496 O 338.655 0.903166 1.52223 0
M  V30 3497 C 335.784 2.00722 2.78506 0
M  V30 3498 C 334.87 3.2126 2.76862 0
M  V30 3499 N 335.261 4.42588 2.44845 0
M  V30 3500 C 333.559 3.22568 3.08004 0
M  V30 3501 C 334.26 5.2447 2.51607 0
M  V30 3502 N 333.236 4.61344 2.87511 0
M  V30 3503 H 337.038 2.70205 1.15615 0
M  V30 3504 H 334.552 1.52978 0.545112 0
M  V30 3505 H 336.549 2.1666 3.5618 0
M  V30 3506 H 335.209 1.10573 3.05293 0
M  V30 3507 H 336.22 4.69819 2.17922 0
M  V30 3508 H 332.897 2.42409 3.39918 0
M  V30 3509 H 334.287 6.31324 2.29955 0
M  V30 3510 N 337.007 -0.598083 1.45811 0
M  V30 3511 C 338.253 -1.35882 1.50545 0
M  V30 3512 C 338.586 -1.93616 0.150445 0
M  V30 3513 O 337.861 -1.75604 -0.83628 0
M  V30 3514 C 338.144 -2.49966 2.59208 0
M  V30 3515 C 337.997 -1.97367 4.04186 0
M  V30 3516 C 339.316 -3.52068 2.64076 0
M  V30 3517 H 336.435 -0.492717 0.548087 0
M  V30 3518 H 339.077 -0.673319 1.77669 0
M  V30 3519 H 337.227 -3.08443 2.3621 0
M  V30 3520 H 338.899 -1.43466 4.38423 0
M  V30 3521 H 337.142 -1.283 4.14393 0
M  V30 3522 H 337.813 -2.79649 4.75921 0
M  V30 3523 H 340.289 -3.03448 2.84708 0
M  V30 3524 H 339.165 -4.2937 3.41954 0
M  V30 3525 H 339.426 -4.08304 1.69531 0
M  V30 3526 N 338.485 -1.33259 -0.841409 0
M  V30 3527 C 339.415 -1.25926 -1.96634 0
M  V30 3528 C 340.396 -0.140349 -1.6952 0
M  V30 3529 O 341.581 -0.329707 -1.91381 0
M  V30 3530 C 338.711 -0.99512 -3.32738 0
M  V30 3531 C 337.665 -2.0767 -3.74242 0
M  V30 3532 C 336.991 -1.66474 -5.08125 0
M  V30 3533 C 338.291 -3.49318 -3.88297 0
M  V30 3534 H 339.985 -2.20046 -2.03027 0
M  V30 3535 H 337.531 -1.05931 -0.975425 0
M  V30 3536 H 339.484 -0.930323 -4.11002 0
M  V30 3537 H 338.208 -0.0183004 -3.26595 0
M  V30 3538 H 336.867 -2.13187 -2.98239 0
M  V30 3539 H 336.515 -0.675012 -4.9845 0
M  V30 3540 H 336.215 -2.3885 -5.36865 0
M  V30 3541 H 337.739 -1.61455 -5.88867 0
M  V30 3542 H 339.153 -3.46316 -4.56879 0
M  V30 3543 H 337.55 -4.20158 -4.28471 0
M  V30 3544 H 338.62 -3.8801 -2.9082 0
M  V30 3545 N 339.963 1.05934 -1.16686 0
M  V30 3546 C 341.211 1.78447 -0.948744 0
M  V30 3547 C 341.532 1.87813 0.524523 0
M  V30 3548 O 340.802 1.38945 1.38098 0
M  V30 3549 H 339.382 0.660971 -0.348033 0
M  V30 3550 H 342.044 1.27947 -1.47022 0
M  V30 3551 H 341.14 2.80394 -1.37061 0
M  V30 3552 N 341.441 0.965919 1.2453 0
M  V30 3553 C 342.373 0.452465 2.2469 0
M  V30 3554 C 343.386 -0.437821 1.56802 0
M  V30 3555 O 344.575 -0.244283 1.76821 0
M  V30 3556 C 341.675 -0.366258 3.36915 0
M  V30 3557 C 340.848 0.513701 4.34373 0
M  V30 3558 C 339.907 -0.248716 5.25612 0
M  V30 3559 O 338.933 0.356745 5.68081 0
M  V30 3560 N 340.135 -1.53877 5.59734 0
M  V30 3561 H 342.9 1.31361 2.69378 0
M  V30 3562 H 340.461 0.837541 1.38553 0
M  V30 3563 H 342.453 -0.884297 3.94921 0
M  V30 3564 H 341.023 -1.12832 2.91526 0
M  V30 3565 H 340.243 1.21273 3.75082 0
M  V30 3566 H 341.531 1.11391 4.96457 0
M  V30 3567 H 340.929 -2.05243 5.27154 0
M  V30 3568 H 339.486 -2.00254 6.20275 0
M  V30 3569 N 342.919 -1.39368 0.735821 0
M  V30 3570 C 344.196 -1.94465 0.210395 0
M  V30 3571 C 344.576 -1.67254 -1.28799 0
M  V30 3572 O 343.924 -1.00123 -2.05396 0
M  V30 3573 C 344.134 -3.4472 0.544897 0
M  V30 3574 C 345.482 -4.21708 0.494689 0
M  V30 3575 O 346.506 -3.52922 0.482136 0
M  V30 3576 O 345.365 -5.44299 0.489947 0
M  V30 3577 H 342.459 -0.826096 0.0386666 0
M  V30 3578 H 345.005 -1.48863 0.814735 0
M  V30 3579 H 343.777 -3.57963 1.58045 0
M  V30 3580 H 343.4 -3.97502 -0.08837 0
M  V30 3581 N 344.397 -0.483516 -1.5 0
M  V30 3582 C 345.344 0.304164 -2.28787 0
M  V30 3583 C 346.314 0.976114 -1.34392 0
M  V30 3584 O 347.499 0.986156 -1.63339 0
M  V30 3585 C 344.639 1.37298 -3.16612 0
M  V30 3586 C 343.752 0.714561 -4.26049 0
M  V30 3587 C 342.887 1.76232 -5.01114 0
M  V30 3588 C 341.926 1.08483 -6.0241 0
M  V30 3589 N 341.063 2.076 -6.70706 0
M  V30 3590 H 345.903 -0.373981 -2.95644 0
M  V30 3591 H 343.44 -0.196275 -1.45785 0
M  V30 3592 H 345.398 2.00445 -3.65893 0
M  V30 3593 H 344.028 2.02012 -2.51776 0
M  V30 3594 H 343.08 -0.0297798 -3.80388 0
M  V30 3595 H 344.392 0.180383 -4.98474 0
M  V30 3596 H 343.546 2.46929 -5.54176 0
M  V30 3597 H 342.285 2.33033 -4.28424 0
M  V30 3598 H 341.29 0.363545 -5.48597 0
M  V30 3599 H 342.515 0.523551 -6.77079 0
M  V30 3600 H 340.461 2.63394 -6.00799 0
M  V30 3601 H 340.378 1.59201 -7.39047 0
M  V30 3602 H 341.646 2.77639 -7.2838 0
M  V30 3603 N 345.875 1.56104 -0.216619 0
M  V30 3604 C 347.121 1.98466 0.417033 0
M  V30 3605 C 347.454 1.10403 1.59765 0
M  V30 3606 O 346.729 0.160632 1.93836 0
M  V30 3607 C 347.012 3.49769 0.85637 0
M  V30 3608 C 346.865 4.48606 -0.327546 0
M  V30 3609 C 348.184 4.05339 1.7143 0
M  V30 3610 H 345.303 0.721551 0.150112 0
M  V30 3611 H 347.945 1.87423 -0.311864 0
M  V30 3612 H 346.095 3.5931 1.47745 0
M  V30 3613 H 347.767 4.5108 -0.965618 0
M  V30 3614 H 346.01 4.22682 -0.975805 0
M  V30 3615 H 346.681 5.51995 0.0227149 0
M  V30 3616 H 349.157 3.98712 1.19031 0
M  V30 3617 H 348.033 5.11533 1.99061 0
M  V30 3618 H 348.294 3.51918 2.67593 0
M  V30 3619 N 347.353 -0.0568162 1.57498 0
M  V30 3620 C 348.578 -0.769402 1.92601 0
M  V30 3621 C 349.003 -1.69559 0.814336 0
M  V30 3622 O 348.361 -1.79811 -0.231903 0
M  V30 3623 C 348.409 -1.52634 3.26704 0
M  V30 3624 O 347.513 -2.63797 3.16994 0
M  V30 3625 H 346.854 -0.208909 0.63028 0
M  V30 3626 H 349.384 -0.0205798 2.0459 0
M  V30 3627 H 349.394 -1.90234 3.60936 0
M  V30 3628 H 348.069 -0.846875 4.07186 0
M  V30 3629 H 346.646 -2.28943 2.94346 0
M  V30 3630 N 348.832 -1.54138 -0.328536 0
M  V30 3631 C 350.062 -1.75807 -1.08516 0
M  V30 3632 C 350.47 -0.50428 -1.82356 0
M  V30 3633 O 349.813 0.534451 -1.75754 0
M  V30 3634 C 349.875 -2.89423 -2.13248 0
M  V30 3635 C 349.539 -4.28504 -1.5885 0
M  V30 3636 C 350.536 -5.09536 -1.03289 0
M  V30 3637 C 348.221 -4.75034 -1.63243 0
M  V30 3638 C 350.215 -6.35206 -0.52845 0
M  V30 3639 C 347.902 -6.00672 -1.12411 0
M  V30 3640 C 348.9 -6.80592 -0.573062 0
M  V30 3641 O 348.588 -8.03867 -0.0723692 0
M  V30 3642 H 348.32 -0.590633 -0.328829 0
M  V30 3643 H 350.874 -2.01819 -0.381868 0
M  V30 3644 H 349.104 -2.5897 -2.87178 0
M  V30 3645 H 350.793 -2.98921 -2.74592 0
M  V30 3646 H 351.559 -4.74745 -0.99206 0
M  V30 3647 H 347.438 -4.12875 -2.05074 0
M  V30 3648 H 350.982 -6.97532 -0.0976774 0
M  V30 3649 H 346.879 -6.34955 -1.162 0
M  V30 3650 H 347.647 -8.18283 -0.188258 0
M  V30 3651 N 350.31 0.590341 -1.46126 0
M  V30 3652 C 351.22 1.72793 -1.58681 0
M  V30 3653 C 352.236 1.67516 -0.470566 0
M  V30 3654 O 353.412 1.87562 -0.733642 0
M  V30 3655 C 350.477 3.09287 -1.5666 0
M  V30 3656 C 349.538 3.25886 -2.79458 0
M  V30 3657 C 348.771 4.55869 -2.77524 0
M  V30 3658 O 348.994 5.3928 -1.85832 0
M  V30 3659 O 347.928 4.75552 -3.68964 0
M  V30 3660 H 351.754 1.65149 -2.54872 0
M  V30 3661 H 349.339 0.756486 -1.28832 0
M  V30 3662 H 351.221 3.90577 -1.58202 0
M  V30 3663 H 349.896 3.17385 -0.636271 0
M  V30 3664 H 348.803 2.44119 -2.83472 0
M  V30 3665 H 350.136 3.22675 -3.71674 0
M  V30 3666 N 351.788 1.33704 0.83433 0
M  V30 3667 C 353.034 1.25603 1.59222 0
M  V30 3668 C 353.367 -0.176659 1.93395 0
M  V30 3669 O 352.642 -1.11915 1.59076 0
M  V30 3670 C 352.925 2.13576 2.89926 0
M  V30 3671 C 352.778 3.65326 2.62406 0
M  V30 3672 C 354.097 2.01238 3.91397 0
M  V30 3673 H 351.216 0.457613 0.577719 0
M  V30 3674 H 353.858 1.63848 0.961972 0
M  V30 3675 H 352.008 1.8109 3.43713 0
M  V30 3676 H 353.68 4.08124 2.15017 0
M  V30 3677 H 351.923 3.8698 1.96033 0
M  V30 3678 H 352.594 4.22232 3.55562 0
M  V30 3679 H 355.07 2.29738 3.46929 0
M  V30 3680 H 353.946 2.65036 4.80673 0
M  V30 3681 H 354.207 0.985951 4.30966 0
M  V30 3682 N 353.266 -1.05314 1.17247 0
M  V30 3683 C 354.677 -1.59753 0.96623 0
M  V30 3684 C 355.028 -1.9005 -0.487378 0
M  V30 3685 O 354.153 -1.68126 -1.36245 0
M  V30 3686 C 354.748 -2.90249 1.74759 0
M  V30 3687 C 353.307 -3.41352 1.58606 0
M  V30 3688 C 352.454 -2.15103 1.75002 0
M  V30 3689 H 355.405 -0.881406 1.31973 0
M  V30 3690 H 355.426 -3.60097 1.22925 0
M  V30 3691 H 354.938 -2.68166 2.8055 0
M  V30 3692 H 353.039 -3.68474 0.552985 0
M  V30 3693 H 353.152 -4.16019 2.37624 0
M  V30 3694 H 351.516 -2.25804 1.17833 0
M  V30 3695 H 352.299 -1.95491 2.82202 0
M  V30 3696 N 354.744 -0.972509 -1.24016 0
M  V30 3697 C 356.16 -0.679827 -1.44397 0
M  V30 3698 C 356.36 0.756716 -1.86751 0
M  V30 3699 O 355.416 1.53007 -2.00861 0
M  V30 3700 C 356.729 -1.66803 -2.50195 0
M  V30 3701 C 358.277 -1.68119 -2.64017 0
M  V30 3702 C 358.752 -2.65748 -3.73017 0
M  V30 3703 N 360.243 -2.64219 -3.8045 0
M  V30 3704 C 360.978 -3.36433 -4.64328 0
M  V30 3705 N 360.474 -4.1818 -5.52356 0
M  V30 3706 N 362.267 -3.25235 -4.58453 0
M  V30 3707 H 354.418 -1.90059 -0.948228 0
M  V30 3708 H 356.681 -0.818527 -0.478245 0
M  V30 3709 H 356.387 -2.69498 -2.25973 0
M  V30 3710 H 356.261 -1.4446 -3.48441 0
M  V30 3711 H 358.648 -0.661319 -2.87594 0
M  V30 3712 H 358.729 -1.94525 -1.66113 0
M  V30 3713 H 358.373 -3.67872 -3.50189 0
M  V30 3714 H 358.303 -2.36619 -4.70446 0
M  V30 3715 H 360.794 -2.04887 -3.17537 0
M  V30 3716 H 361.107 -4.70157 -6.13329 0
M  V30 3717 H 359.452 -4.22273 -5.52006 0
M  V30 3718 H 362.643 -2.60829 -3.88698 0
M  V30 3719 H 362.816 -3.81776 -5.23594 0
M  V30 3720 N 356.222 1.38976 -0.743202 0
M  V30 3721 C 357.152 2.33171 -0.123873 0
M  V30 3722 C 358.133 1.54336 0.71516 0
M  V30 3723 O 359.318 1.82696 0.658467 0
M  V30 3724 C 356.448 3.38474 0.777978 0
M  V30 3725 C 355.402 4.27979 0.0424758 0
M  V30 3726 C 354.728 5.2405 1.06189 0
M  V30 3727 C 356.028 5.10155 -1.1198 0
M  V30 3728 H 357.722 2.85213 -0.910709 0
M  V30 3729 H 355.268 1.37133 -0.439388 0
M  V30 3730 H 357.221 4.03328 1.22084 0
M  V30 3731 H 355.945 2.84891 1.59702 0
M  V30 3732 H 354.604 3.64616 -0.380853 0
M  V30 3733 H 354.252 4.66758 1.87472 0
M  V30 3734 H 353.952 5.84785 0.574485 0
M  V30 3735 H 355.476 5.9178 1.50428 0
M  V30 3736 H 356.89 5.68307 -0.75499 0
M  V30 3737 H 355.287 5.80073 -1.53738 0
M  V30 3738 H 356.357 4.44504 -1.93764 0
M  V30 3739 N 357.7 0.491464 1.49741 0
M  V30 3740 C 358.65 -0.311086 2.25868 0
M  V30 3741 C 359.634 -0.943857 1.30308 0
M  V30 3742 O 360.826 -0.853035 1.55088 0
M  V30 3743 C 357.955 -1.38059 3.14316 0
M  V30 3744 C 357.041 -0.754541 4.17334 0
M  V30 3745 N 357.432 0.137216 5.05614 0
M  V30 3746 C 355.73 -1.01621 4.34269 0
M  V30 3747 C 356.431 0.494614 5.79593 0
M  V30 3748 N 355.407 -0.135169 5.43432 0
M  V30 3749 H 359.209 0.37555 2.91491 0
M  V30 3750 H 356.723 0.306917 1.59473 0
M  V30 3751 H 358.72 -1.96891 3.67477 0
M  V30 3752 H 357.38 -2.06901 2.50244 0
M  V30 3753 H 358.391 0.50741 5.15408 0
M  V30 3754 H 355.068 -1.69808 3.81407 0
M  V30 3755 H 356.458 1.2236 6.60665 0
M  V30 3756 N 359.178 -1.55987 0.224894 0
M  V30 3757 C 360.426 -1.97998 -0.405099 0
M  V30 3758 C 360.747 -1.11387 -1.60056 0
M  V30 3759 O 360.017 -0.191645 -1.9496 0
M  V30 3760 H 358.597 -0.731235 -0.152658 0
M  V30 3761 H 361.259 -1.92279 0.318567 0
M  V30 3762 H 360.355 -3.03463 -0.729167 0
M  V30 3763 N 360.656 0.0484629 -1.57525 0
M  V30 3764 C 361.933 0.777447 -1.79486 0
M  V30 3765 C 362.313 1.94597 -0.818251 0
M  V30 3766 O 361.661 2.28047 0.143767 0
M  V30 3767 C 361.871 1.22864 -3.26658 0
M  V30 3768 C 363.219 1.65251 -3.91123 0
M  V30 3769 O 364.243 1.32372 -3.3069 0
M  V30 3770 O 363.102 2.26207 -4.97486 0
M  V30 3771 H 360.196 0.374357 -0.737419 0
M  V30 3772 H 362.742 0.0267359 -1.69679 0
M  V30 3773 H 361.514 0.393589 -3.89316 0
M  V30 3774 H 361.137 2.03996 -3.41279 0
M  V30 3775 N 362.134 1.5431 0.320358 0
M  V30 3776 C 363.044 1.86946 1.41734 0
M  V30 3777 C 364.06 0.761689 1.56443 0
M  V30 3778 O 365.236 1.05629 1.71477 0
M  V30 3779 C 362.301 2.09293 2.76401 0
M  V30 3780 C 361.362 3.33082 2.70841 0
M  V30 3781 C 360.595 3.54353 3.99086 0
M  V30 3782 O 360.818 2.79002 4.97508 0
M  V30 3783 O 359.752 4.47838 4.0215 0
M  V30 3784 H 363.578 2.80232 1.17062 0
M  V30 3785 H 361.163 1.40255 0.514673 0
M  V30 3786 H 363.045 2.25303 3.56113 0
M  V30 3787 H 361.72 1.19194 3.00956 0
M  V30 3788 H 360.627 3.22454 1.89668 0
M  V30 3789 H 361.96 4.23249 2.5124 0
M  V30 3790 N 363.613 -0.582584 1.46437 0
M  V30 3791 C 364.523 -1.71949 1.59595 0
M  V30 3792 C 365.539 -1.67264 0.479443 0
M  V30 3793 O 366.715 -1.87171 0.743579 0
M  V30 3794 C 363.78 -3.08452 1.58298 0
M  V30 3795 C 362.841 -3.244 2.81182 0
M  V30 3796 C 362.074 -4.54391 2.79937 0
M  V30 3797 O 362.297 -5.38287 1.8869 0
M  V30 3798 O 361.231 -4.73588 3.71481 0
M  V30 3799 H 365.057 -1.63795 2.55744 0
M  V30 3800 H 362.642 -0.749643 1.29231 0
M  V30 3801 H 364.524 -3.89732 1.60271 0
M  V30 3802 H 363.199 -3.17043 0.653094 0
M  V30 3803 H 362.106 -2.42613 2.84763 0
M  V30 3804 H 363.439 -3.20699 3.7338 0
M  V30 3805 N 365.091 -1.34144 -0.827227 0
M  V30 3806 C 366.507 -1.13732 -1.11969 0
M  V30 3807 C 366.707 0.0640463 -2.01398 0
M  V30 3808 O 365.763 0.740856 -2.41387 0
M  V30 3809 C 367.076 -2.43047 -1.77055 0
M  V30 3810 C 368.624 -2.49063 -1.89569 0
M  V30 3811 C 369.099 -3.78369 -2.58072 0
M  V30 3812 N 370.59 -3.79505 -2.65575 0
M  V30 3813 C 371.325 -4.76274 -3.19297 0
M  V30 3814 N 370.821 -5.83424 -3.73616 0
M  V30 3815 N 372.614 -4.63735 -3.17658 0
M  V30 3816 H 364.765 -2.11126 -0.232296 0
M  V30 3817 H 367.028 -0.933424 -0.165602 0
M  V30 3818 H 366.734 -3.31025 -1.18807 0
M  V30 3819 H 366.608 -2.56066 -2.76966 0
M  V30 3820 H 368.995 -1.61527 -2.46968 0
M  V30 3821 H 369.076 -2.39975 -0.885745 0
M  V30 3822 H 368.72 -4.66293 -2.01329 0
M  V30 3823 H 368.65 -3.84737 -3.59562 0
M  V30 3824 H 371.141 -3.02074 -2.27068 0
M  V30 3825 H 371.454 -6.53282 -4.12846 0
M  V30 3826 H 369.799 -5.87143 -3.71871 0
M  V30 3827 H 372.99 -3.79177 -2.74486 0
M  V30 3828 H 373.163 -5.39318 -3.59221 0
M  V30 3829 N 366.569 1.04691 -1.17803 0
M  V30 3830 C 367.816 1.77782 -0.969532 0
M  V30 3831 C 368.144 1.87926 0.501401 0
M  V30 3832 O 367.399 1.37918 1.38842 0
M  V30 3833 C 367.698 3.21467 -1.56186 0
M  V30 3834 C 367.364 3.3137 -3.05786 0
M  V30 3835 C 366.026 3.3378 -3.46619 0
M  V30 3836 C 368.378 3.31976 -4.01797 0
M  V30 3837 C 365.706 3.34431 -4.82051 0
M  V30 3838 C 368.058 3.34167 -5.37136 0
M  V30 3839 C 366.722 3.34866 -5.77426 0
M  V30 3840 H 365.992 0.650549 -0.354777 0
M  V30 3841 H 368.639 1.23006 -1.46772 0
M  V30 3842 H 366.944 3.79203 -0.985515 0
M  V30 3843 H 368.641 3.76652 -1.37602 0
M  V30 3844 H 365.231 3.3021 -2.73238 0
M  V30 3845 H 369.415 3.29311 -3.71306 0
M  V30 3846 H 364.671 3.33285 -5.12573 0
M  V30 3847 H 368.845 3.33585 -6.11305 0
M  V30 3848 H 366.472 3.35124 -6.82346 0
M  V30 3849 N 368.047 0.979072 1.23499 0
M  V30 3850 C 369.294 0.647219 1.91878 0
M  V30 3851 C 369.622 -0.819074 1.76413 0
M  V30 3852 O 368.877 -1.60616 1.11808 0
M  V30 3853 C 369.176 0.981932 3.43646 0
M  V30 3854 C 368.842 2.43822 3.79291 0
M  V30 3855 C 367.504 2.83622 3.88731 0
M  V30 3856 C 369.856 3.3828 3.96505 0
M  V30 3857 C 367.184 4.16897 4.12812 0
M  V30 3858 C 369.536 4.71197 4.22085 0
M  V30 3859 C 368.2 5.10758 4.29747 0
M  V30 3860 H 367.47 0.236834 0.702133 0
M  V30 3861 H 370.117 1.23268 1.46551 0
M  V30 3862 H 368.422 0.314365 3.90537 0
M  V30 3863 H 370.119 0.703395 3.94783 0
M  V30 3864 H 366.709 2.11966 3.72516 0
M  V30 3865 H 370.893 3.0871 3.88603 0
M  V30 3866 H 366.149 4.47157 4.16966 0
M  V30 3867 H 370.323 5.44348 4.34348 0
M  V30 3868 H 367.95 6.1405 4.48159 0
M  V30 3869 N 369.525 -1.3858 0.750561 0
M  V30 3870 C 370.771 -2.00481 0.305825 0
M  V30 3871 C 371.104 -1.5944 -1.10872 0
M  V30 3872 O 370.379 -0.83052 -1.75877 0
M  V30 3873 C 370.662 -3.5758 0.425287 0
M  V30 3874 C 370.515 -4.08594 1.88072 0
M  V30 3875 C 371.834 -4.39719 -0.183122 0
M  V30 3876 H 368.953 -0.728348 0.112598 0
M  V30 3877 H 371.595 -1.64566 0.949638 0
M  V30 3878 H 369.745 -3.88306 -0.122828 0
M  V30 3879 H 371.417 -3.88523 2.48691 0
M  V30 3880 H 369.66 -3.61574 2.39681 0
M  V30 3881 H 370.331 -5.177 1.91548 0
M  V30 3882 H 372.807 -4.15128 0.284303 0
M  V30 3883 H 371.683 -5.48856 -0.0692757 0
M  V30 3884 H 371.944 -4.23434 -1.27106 0
M  V30 3885 N 371.003 -0.499398 -1.49478 0
M  V30 3886 C 371.913 0.284489 -2.32869 0
M  V30 3887 C 372.929 0.968885 -1.44529 0
M  V30 3888 O 374.105 0.95062 -1.77553 0
M  V30 3889 C 371.17 1.33594 -3.19928 0
M  V30 3890 C 370.231 0.665149 -4.24116 0
M  V30 3891 C 369.464 1.6665 -5.07014 0
M  V30 3892 O 369.687 2.89618 -4.91404 0
M  V30 3893 O 368.621 1.22271 -5.8935 0
M  V30 3894 H 372.447 -0.39802 -3.01081 0
M  V30 3895 H 370.032 -0.260758 -1.47107 0
M  V30 3896 H 371.914 1.94431 -3.73864 0
M  V30 3897 H 370.589 2.0014 -2.54412 0
M  V30 3898 H 369.496 0.0170769 -3.74096 0
M  V30 3899 H 370.829 0.0421555 -4.92182 0
M  V30 3900 N 372.481 1.55866 -0.233164 0
M  V30 3901 C 373.729 1.9821 0.394593 0
M  V30 3902 C 374.05 1.12234 1.59463 0
M  V30 3903 O 373.32 0.201981 1.94856 0
M  V30 3904 H 371.9 0.732034 0.148778 0
M  V30 3905 H 374.562 1.92107 -0.32876 0
M  V30 3906 H 373.658 3.03845 0.713063 0
M  V30 3907 N 373.959 -0.0401083 1.57549 0
M  V30 3908 C 374.889 -1.04384 2.08869 0
M  V30 3909 C 375.87 -1.38407 0.988817 0
M  V30 3910 O 377.055 -1.47483 1.26342 0
M  V30 3911 C 374.185 -2.34808 2.55895 0
M  V30 3912 C 373.139 -2.15057 3.70047 0
M  V30 3913 C 372.465 -3.51145 4.03239 0
M  V30 3914 C 373.765 -1.54576 4.98902 0
M  V30 3915 H 375.459 -0.616666 2.92981 0
M  V30 3916 H 373.005 -0.295184 1.40942 0
M  V30 3917 H 374.958 -3.05346 2.90417 0
M  V30 3918 H 373.682 -2.79565 1.68853 0
M  V30 3919 H 372.341 -1.46954 3.35857 0
M  V30 3920 H 371.989 -3.93529 3.13279 0
M  V30 3921 H 371.689 -3.38758 4.80122 0
M  V30 3922 H 373.213 -4.23062 4.40285 0
M  V30 3923 H 374.627 -2.15017 5.31451 0
M  V30 3924 H 373.024 -1.52796 5.80322 0
M  V30 3925 H 374.094 -0.51039 4.82206 0
M  V30 3926 N 375.437 -1.54477 -0.31217 0
M  V30 3927 C 376.662 -1.77526 -1.07235 0
M  V30 3928 C 377.087 -0.527775 -1.80544 0
M  V30 3929 O 376.445 0.52121 -1.73646 0
M  V30 3930 C 376.493 -2.97535 -2.03728 0
M  V30 3931 O 375.597 -2.69878 -3.11833 0
M  V30 3932 H 374.938 -0.58792 -0.30862 0
M  V30 3933 H 377.468 -2.01532 -0.352993 0
M  V30 3934 H 377.478 -3.25198 -2.46395 0
M  V30 3935 H 376.153 -3.87996 -1.49774 0
M  V30 3936 H 374.73 -2.53199 -2.7376 0
M  V30 3937 N 376.915 0.57481 -1.46744 0
M  V30 3938 C 378.162 1.33272 -1.52462 0
M  V30 3939 C 378.49 1.93669 -0.179572 0
M  V30 3940 O 377.745 1.7743 0.825664 0
M  V30 3941 C 378.044 2.476 -2.57738 0
M  V30 3942 C 377.71 2.05146 -4.01529 0
M  V30 3943 C 376.372 1.93284 -4.40676 0
M  V30 3944 C 378.724 1.72506 -4.91824 0
M  V30 3945 C 376.052 1.47049 -5.67973 0
M  V30 3946 C 378.404 1.27748 -6.19567 0
M  V30 3947 C 377.068 1.14468 -6.57612 0
M  V30 3948 H 376.338 0.487678 -0.557899 0
M  V30 3949 H 378.985 0.646456 -1.80259 0
M  V30 3950 H 377.29 3.21708 -2.23632 0
M  V30 3951 H 378.987 3.05807 -2.5939 0
M  V30 3952 H 375.577 2.15316 -3.7059 0
M  V30 3953 H 379.761 1.80552 -4.62293 0
M  V30 3954 H 375.017 1.35417 -5.96215 0
M  V30 3955 H 379.191 1.01547 -6.88957 0
M  V30 3956 H 376.818 0.78419 -7.56145 0
M  V30 3957 N 378.394 1.34581 0.820102 0
M  V30 3958 C 379.805 1.24298 1.39309 0
M  V30 3959 C 380.156 -0.130351 1.95767 0
M  V30 3960 O 379.281 -1.0308 1.90272 0
M  V30 3961 C 379.876 2.25054 2.53251 0
M  V30 3962 C 378.435 2.18552 3.0645 0
M  V30 3963 C 377.582 2.11503 1.79337 0
M  V30 3964 H 380.533 1.45906 0.624262 0
M  V30 3965 H 380.554 1.86917 3.31425 0
M  V30 3966 H 380.066 3.24996 2.1213 0
M  V30 3967 H 378.167 1.21976 3.52069 0
M  V30 3968 H 378.28 3.0993 3.65349 0
M  V30 3969 H 376.644 1.57268 2.00347 0
M  V30 3970 H 377.427 3.13284 1.40386 0
M  V30 3971 N 379.872 -1.04064 1.18357 0
M  V30 3972 C 381.149 -1.74252 0.888581 0
M  V30 3973 C 381.529 -2.02138 -0.60856 0
M  V30 3974 O 380.877 -1.66656 -1.56327 0
M  V30 3975 C 381.087 -3.0277 1.73584 0
M  V30 3976 C 382.435 -3.76506 1.96286 0
M  V30 3977 O 383.459 -3.12668 1.70637 0
M  V30 3978 O 382.318 -4.91243 2.39464 0
M  V30 3979 H 379.412 -0.758271 0.330082 0
M  V30 3980 H 381.958 -1.1013 1.2911 0
M  V30 3981 H 380.73 -2.78299 2.75073 0
M  V30 3982 H 380.353 -3.74631 1.33183 0
M  V30 3983 N 381.35 -0.985608 -1.22978 0
M  V30 3984 C 382.313 -0.535071 -2.22867 0
M  V30 3985 C 383.313 0.378123 -1.56291 0
M  V30 3986 O 384.503 0.171092 -1.73358 0
M  V30 3987 C 381.635 0.222702 -3.40172 0
M  V30 3988 H 382.828 -1.41835 -2.6424 0
M  V30 3989 H 380.381 -0.772042 -1.35901 0
M  V30 3990 H 381.116 1.12229 -3.04262 0
M  V30 3991 H 380.901 -0.43288 -3.89703 0
M  V30 3992 H 382.391 0.526335 -4.1427 0
M  V30 3993 N 382.828 1.3818 -0.7579 0
M  V30 3994 C 384.076 1.99624 -0.315361 0
M  V30 3995 C 384.397 1.60464 1.10799 0
M  V30 3996 O 383.667 0.863507 1.75842 0
M  V30 3997 H 382.247 0.73831 -0.113611 0
M  V30 3998 H 384.909 1.68878 -0.972952 0
M  V30 3999 H 384.005 3.09754 -0.381931 0
M  V30 4000 N 384.306 0.507319 1.49211 0
M  V30 4001 C 385.553 -0.0349529 2.0247 0
M  V30 4002 C 385.881 -1.36409 1.38647 0
M  V30 4003 O 385.136 -1.88841 0.513566 0
M  V30 4004 C 385.435 -0.229513 3.56662 0
M  V30 4005 C 385.101 1.02241 4.39156 0
M  V30 4006 C 383.763 1.36557 4.61417 0
M  V30 4007 C 386.115 1.85428 4.871 0
M  V30 4008 C 383.443 2.53999 5.28868 0
M  V30 4009 C 385.795 3.02028 5.55843 0
M  V30 4010 C 384.459 3.36717 5.76349 0
M  V30 4011 H 383.729 -0.0127902 0.74089 0
M  V30 4012 H 386.376 0.668756 1.79443 0
M  V30 4013 H 384.681 -1.0158 3.78403 0
M  V30 4014 H 386.378 -0.663641 3.9547 0
M  V30 4015 H 382.968 0.745124 4.22073 0
M  V30 4016 H 387.152 1.6023 4.69723 0
M  V30 4017 H 382.408 2.81105 5.42946 0
M  V30 4018 H 386.582 3.66808 5.91967 0
M  V30 4019 H 384.209 4.27821 6.28389 0
M  V30 4020 N 385.784 -1.5574 0.241426 0
M  V30 4021 C 387.012 -2.03208 -0.389134 0
M  V30 4022 C 387.427 -1.12082 -1.51931 0
M  V30 4023 O 386.784 -0.134183 -1.82006 0
M  V30 4024 C 386.835 -3.50064 -0.902087 0
M  V30 4025 O 386.556 -4.37717 0.18305 0
M  V30 4026 C 388.057 -4.13268 -1.60389 0
M  V30 4027 H 385.277 -0.664509 -0.0931053 0
M  V30 4028 H 387.821 -2.0124 0.36369 0
M  V30 4029 H 385.976 -3.52583 -1.60511 0
M  V30 4030 H 386.39 -5.24097 -0.205579 0
M  V30 4031 H 387.864 -5.17733 -1.91458 0
M  V30 4032 H 388.341 -3.59434 -2.52397 0
M  V30 4033 H 388.947 -4.14655 -0.945576 0
M  V30 4034 N 387.262 0.0317525 -1.57568 0
M  V30 4035 C 388.51 0.721676 -1.88776 0
M  V30 4036 C 388.831 1.76039 -0.838772 0
M  V30 4037 O 388.101 1.95482 0.127935 0
M  V30 4038 H 386.681 0.269534 -0.696678 0
M  V30 4039 H 389.343 -0.00165879 -1.949 0
M  V30 4040 H 388.439 1.21293 -2.87566 0
M  V30 4041 N 388.74 1.54641 0.303973 0
M  V30 4042 C 389.67 1.88386 1.3796 0
M  V30 4043 C 390.651 0.742485 1.5304 0
M  V30 4044 O 391.836 0.997959 1.66597 0
M  V30 4045 C 388.966 2.12854 2.74427 0
M  V30 4046 C 387.92 3.28702 2.74115 0
M  V30 4047 C 387.246 3.38582 4.13844 0
M  V30 4048 C 388.546 4.65881 2.3612 0
M  V30 4049 H 390.24 2.78474 1.09966 0
M  V30 4050 H 387.786 1.33988 0.527556 0
M  V30 4051 H 389.739 2.35047 3.49758 0
M  V30 4052 H 388.463 1.19535 3.03939 0
M  V30 4053 H 387.122 3.06428 2.0124 0
M  V30 4054 H 386.77 2.42784 4.40528 0
M  V30 4055 H 386.47 4.16453 4.14537 0
M  V30 4056 H 387.994 3.63031 4.90959 0
M  V30 4057 H 389.408 4.87823 3.01167 0
M  V30 4058 H 387.805 5.46444 2.48031 0
M  V30 4059 H 388.875 4.66799 1.3125 0
M  V30 4060 N 390.218 -0.567019 1.47046 0
M  V30 4061 C 391.467 -1.32091 1.5243 0
M  V30 4062 C 391.78 -1.94704 0.187021 0
M  V30 4063 O 392.986 -2.7124 0.118771 0
M  V30 4064 C 391.442 -2.39479 2.68659 0
M  V30 4065 C 391.05 -1.831 4.08874 0
M  V30 4066 C 392.794 -3.16111 2.83327 0
M  V30 4067 C 390.701 -2.8821 5.16419 0
M  V30 4068 H 389.631 -0.496629 0.56734 0
M  V30 4069 H 392.282 -0.603354 1.73297 0
M  V30 4070 H 390.664 -3.14105 2.41152 0
M  V30 4071 H 391.838 -1.14913 4.46242 0
M  V30 4072 H 390.153 -1.19085 3.99008 0
M  V30 4073 H 392.75 -3.94585 3.60842 0
M  V30 4074 H 393.093 -3.69686 1.91411 0
M  V30 4075 H 393.626 -2.48595 3.10556 0
M  V30 4076 H 390.365 -2.39504 6.10179 0
M  V30 4077 H 389.885 -3.54839 4.8358 0
M  V30 4078 H 391.564 -3.51881 5.42945 0
M  V30 4079 N 391.696 -1.35014 -0.812953 0
M  V30 4080 C 392.921 -1.31187 -1.60639 0
M  V30 4081 C 393.346 0.109382 -1.87782 0
M  V30 4082 O 392.704 1.07424 -1.46047 0
M  V30 4083 C 392.752 -2.11809 -2.91838 0
M  V30 4084 O 391.856 -1.49444 -3.8437 0
M  V30 4085 H 391.197 -0.450084 -0.488181 0
M  V30 4086 H 393.727 -1.77963 -1.00947 0
M  V30 4087 H 393.737 -2.23531 -3.41318 0
M  V30 4088 H 392.412 -3.15137 -2.71407 0
M  V30 4089 H 390.989 -1.46524 -3.42907 0
M  V30 4090 N 393.175 1.03435 -1.18907 0
M  V30 4091 C 394.422 1.76743 -0.988334 0
M  V30 4092 C 394.75 1.88447 0.481441 0
M  V30 4093 O 394.005 1.39383 1.37371 0
M  V30 4094 C 394.304 3.19792 -1.59586 0
M  V30 4095 C 393.97 3.28108 -3.09283 0
M  V30 4096 C 392.632 3.30084 -3.5014 0
M  V30 4097 C 394.984 3.27696 -4.05296 0
M  V30 4098 C 392.312 3.29299 -4.85571 0
M  V30 4099 C 394.664 3.28451 -5.4065 0
M  V30 4100 C 393.328 3.28723 -5.80946 0
M  V30 4101 H 392.598 0.64675 -0.361657 0
M  V30 4102 H 395.245 1.21442 -1.48068 0
M  V30 4103 H 393.55 3.78136 -1.02568 0
M  V30 4104 H 395.247 3.75171 -1.41589 0
M  V30 4105 H 391.837 3.27294 -2.76725 0
M  V30 4106 H 396.021 3.25354 -3.74778 0
M  V30 4107 H 391.277 3.2783 -5.16079 0
M  V30 4108 H 395.451 3.27082 -6.14809 0
M  V30 4109 H 393.078 3.27868 -6.85862 0
M  V30 4110 N 394.653 0.992116 1.22453 0
M  V30 4111 C 395.603 0.512969 2.22155 0
M  V30 4112 C 396.587 -0.418416 1.55364 0
M  V30 4113 O 397.779 -0.245363 1.75291 0
M  V30 4114 C 394.908 -0.171822 3.4287 0
M  V30 4115 C 393.994 0.779822 4.16869 0
M  V30 4116 N 394.385 1.92734 4.6764 0
M  V30 4117 C 392.683 0.59554 4.42006 0
M  V30 4118 C 393.384 2.52458 5.24061 0
M  V30 4119 N 392.36 1.80735 5.12675 0
M  V30 4120 H 396.162 1.38817 2.5905 0
M  V30 4121 H 393.676 0.854277 1.38115 0
M  V30 4122 H 395.673 -0.532469 4.13486 0
M  V30 4123 H 394.333 -1.04317 3.07487 0
M  V30 4124 H 395.344 2.30816 4.63621 0
M  V30 4125 H 392.021 -0.229805 4.16867 0
M  V30 4126 H 393.411 3.49433 5.73887 0
M  V30 4127 N 396.131 -1.37776 0.765217 0
M  V30 4128 C 397.377 -2.00145 0.327072 0
M  V30 4129 C 397.71 -1.60607 -1.09175 0
M  V30 4130 O 396.985 -0.849127 -1.74986 0
M  V30 4131 C 397.268 -3.57109 0.46319 0
M  V30 4132 C 397.121 -4.06576 1.92395 0
M  V30 4133 C 398.44 -4.39888 -0.136473 0
M  V30 4134 H 395.559 -0.727113 0.120316 0
M  V30 4135 H 398.201 -1.63549 0.967039 0
M  V30 4136 H 396.351 -3.88414 -0.0816358 0
M  V30 4137 H 398.023 -3.85864 2.52798 0
M  V30 4138 H 396.266 -3.59011 2.43503 0
M  V30 4139 H 396.937 -5.15639 1.97028 0
M  V30 4140 H 399.413 -4.14803 0.328317 0
M  V30 4141 H 398.289 -5.48899 -0.0110582 0
M  V30 4142 H 398.55 -4.24758 -1.22608 0
M  V30 4143 N 397.609 -0.515225 -1.4894 0
M  V30 4144 C 398.837 0.0206034 -2.0689 0
M  V30 4145 C 399.252 1.29514 -1.37374 0
M  V30 4146 O 398.609 1.76698 -0.456529 0
M  V30 4147 C 398.66 0.26351 -3.60538 0
M  V30 4148 O 398.381 -0.960517 -4.27441 0
M  V30 4149 C 399.882 0.841383 -4.35242 0
M  V30 4150 H 397.102 -0.0268608 -0.670462 0
M  V30 4151 H 399.646 -0.716651 -1.91532 0
M  V30 4152 H 397.801 0.950777 -3.75552 0
M  V30 4153 H 398.215 -0.73212 -5.19365 0
M  V30 4154 H 399.689 0.96085 -5.43573 0
M  V30 4155 H 400.166 1.8427 -3.98674 0
M  V30 4156 H 400.772 0.191143 -4.2487 0
M  V30 4157 N 399.087 1.5561 -0.249682 0
M  V30 4158 C 400.017 2.24477 0.642826 0
M  V30 4159 C 400.998 1.22601 1.17911 0
M  V30 4160 O 402.183 1.5126 1.21795 0
M  V30 4161 C 399.313 2.94638 1.83863 0
M  V30 4162 C 398.267 4.03227 1.435 0
M  V30 4163 C 397.593 4.60828 2.71186 0
M  V30 4164 C 398.893 5.18796 0.604002 0
M  V30 4165 H 400.587 2.99321 0.0685625 0
M  V30 4166 H 398.133 1.43965 0.0315363 0
M  V30 4167 H 400.086 3.41517 2.46868 0
M  V30 4168 H 398.81 2.17287 2.43832 0
M  V30 4169 H 397.469 3.57121 0.828275 0
M  V30 4170 H 397.117 3.80174 3.29358 0
M  V30 4171 H 396.817 5.34132 2.44901 0
M  V30 4172 H 398.341 5.10442 3.35084 0
M  V30 4173 H 399.755 5.61883 1.13842 0
M  V30 4174 H 398.152 5.98506 0.437097 0
M  V30 4175 H 399.222 4.83384 -0.383147 0
M  V30 4176 N 400.565 -0.0233959 1.57583 0
M  V30 4177 C 401.495 -1.02162 2.09965 0
M  V30 4178 C 402.476 -1.3735 1.00344 0
M  V30 4179 O 403.661 -1.46135 1.27899 0
M  V30 4180 C 400.791 -2.32081 2.58371 0
M  V30 4181 C 399.745 -2.1112 3.72307 0
M  V30 4182 C 399.071 -3.46848 4.06941 0
M  V30 4183 C 400.371 -1.49276 5.00514 0
M  V30 4184 H 402.065 -0.585557 2.93618 0
M  V30 4185 H 399.611 -0.280218 1.41247 0
M  V30 4186 H 401.564 -3.02249 2.93639 0
M  V30 4187 H 400.288 -2.77758 1.71808 0
M  V30 4188 H 398.947 -1.43384 3.37397 0
M  V30 4189 H 398.595 -3.90184 3.17436 0
M  V30 4190 H 398.295 -3.33646 4.83688 0
M  V30 4191 H 399.819 -4.18369 4.44747 0
M  V30 4192 H 401.233 -2.09368 5.33702 0
M  V30 4193 H 399.63 -1.46632 5.8191 0
M  V30 4194 H 400.7 -0.459217 4.82721 0
M  V30 4195 N 402.043 -1.548 -0.295768 0
M  V30 4196 C 403.32 -1.65014 -1.05023 0
M  V30 4197 C 403.7 -0.501805 -2.05049 0
M  V30 4198 O 403.048 0.500869 -2.22943 0
M  V30 4199 C 403.258 -3.03252 -1.72741 0
M  V30 4200 C 404.606 -3.60242 -2.24746 0
M  V30 4201 O 405.63 -3.05737 -1.82765 0
M  V30 4202 O 404.489 -4.55687 -3.01681 0
M  V30 4203 H 401.583 -0.669314 -0.485744 0
M  V30 4204 H 404.129 -1.67144 -0.293438 0
M  V30 4205 H 402.901 -3.7827 -1.00138 0
M  V30 4206 H 402.524 -3.04922 -2.55163 0
M  V30 4207 N 403.521 0.559213 -1.47345 0
M  V30 4208 C 404.798 1.31997 -1.44348 0
M  V30 4209 C 405.178 2.1064 -0.139358 0
M  V30 4210 O 404.526 2.1091 0.879153 0
M  V30 4211 C 404.736 2.22618 -2.68779 0
M  V30 4212 C 406.084 2.83701 -3.1591 0
M  V30 4213 O 407.108 2.32921 -2.69493 0
M  V30 4214 O 405.967 3.75993 -3.966 0
M  V30 4215 H 403.061 0.594251 -0.575147 0
M  V30 4216 H 405.607 0.578282 -1.59543 0
M  V30 4217 H 404.379 1.64093 -3.55231 0
M  V30 4218 H 404.002 3.04085 -2.5616 0
M  V30 4219 N 404.999 1.35443 0.805782 0
M  V30 4220 C 406.224 1.32037 1.59941 0
M  V30 4221 C 406.649 -0.0994215 1.87837 0
M  V30 4222 O 406.007 -1.06648 1.46615 0
M  V30 4223 C 406.055 2.13354 2.90711 0
M  V30 4224 O 405.159 1.5148 3.83572 0
M  V30 4225 H 404.5 0.452666 0.485787 0
M  V30 4226 H 407.03 1.78496 1.00002 0
M  V30 4227 H 407.04 2.25338 3.40128 0
M  V30 4228 H 405.715 3.16572 2.69732 0
M  V30 4229 H 404.292 1.4834 3.42125 0
M  V30 4230 N 406.477 -1.02803 1.19454 0
M  V30 4231 C 407.425 -2.13213 0.929673 0
M  V30 4232 C 408.419 -1.69011 -0.114806 0
M  V30 4233 O 409.625 -1.79967 0.0345147 0
M  V30 4234 H 406 -0.69662 0.28324 0
M  V30 4235 H 407.971 -2.32744 1.86743 0
M  V30 4236 C 406.72 -3.4429 0.485797 0
M  V30 4237 H 406.043 -3.7872 1.28105 0
M  V30 4238 H 407.483 -4.22638 0.339582 0
M  V30 4239 C 405.942 -3.27258 -0.800244 0
M  V30 4240 O 406.472 -3.55967 -1.86146 0
M  V30 4241 N 404.678 -2.80545 -0.75781 0
M  V30 4242 H 404.225 -2.57382 0.106039 0
M  V30 4243 H 404.183 -2.6953 -1.61867 0
M  V30 4244 N 407.956 -0.998596 -1.21925 0
M  V30 4245 C 408.866 -0.562736 -2.27751 0
M  V30 4246 C 409.882 0.391203 -1.69545 0
M  V30 4247 O 411.058 0.256625 -1.99758 0
M  V30 4248 C 408.123 0.11012 -3.46525 0
M  V30 4249 C 407.184 -0.887495 -4.20026 0
M  V30 4250 C 406.417 -0.246654 -5.3313 0
M  V30 4251 O 406.64 0.958088 -5.62296 0
M  V30 4252 O 405.574 -0.954374 -5.94286 0
M  V30 4253 H 409.4 -1.44329 -2.67213 0
M  V30 4254 H 406.985 -0.767135 -1.28201 0
M  V30 4255 H 408.867 0.486756 -4.18579 0
M  V30 4256 H 407.542 0.965154 -3.08976 0
M  V30 4257 H 406.449 -1.31517 -3.5022 0
M  V30 4258 H 407.782 -1.71191 -4.6147 0
M  V30 4259 N 409.434 1.37368 -0.772513 0
M  V30 4260 C 410.711 1.93839 -0.26188 0
M  V30 4261 C 411.091 1.7061 1.24319 0
M  V30 4262 O 410.439 1.05534 2.02669 0
M  V30 4263 C 410.649 3.43154 -0.636102 0
M  V30 4264 C 411.997 4.20249 -0.606324 0
M  V30 4265 O 413.021 3.5152 -0.575538 0
M  V30 4266 O 411.88 5.42809 -0.634086 0
M  V30 4267 H 408.974 0.82478 -0.0605555 0
M  V30 4268 H 411.52 1.4665 -0.853917 0
M  V30 4269 H 410.292 3.53647 -1.6748 0
M  V30 4270 H 409.915 3.97596 -0.0170516 0
M  V30 4271 N 410.912 0.523116 1.48665 0
M  V30 4272 C 412.159 -0.0134763 2.02496 0
M  V30 4273 C 412.487 -1.3493 1.40086 0
M  V30 4274 O 411.742 -1.88286 0.533567 0
M  V30 4275 C 412.041 -0.191671 3.56886 0
M  V30 4276 C 411.707 1.06893 4.38046 0
M  V30 4277 C 410.369 1.41443 4.59943 0
M  V30 4278 C 412.721 1.90584 4.85106 0
M  V30 4279 C 410.049 2.59594 5.26144 0
M  V30 4280 C 412.401 3.07907 5.52609 0
M  V30 4281 C 411.065 3.42811 5.72745 0
M  V30 4282 H 410.335 -0.00493133 0.740984 0
M  V30 4283 H 412.982 0.687751 1.78724 0
M  V30 4284 H 411.287 -0.97561 3.79459 0
M  V30 4285 H 412.984 -0.621659 3.96152 0
M  V30 4286 H 409.574 0.789848 4.21259 0
M  V30 4287 H 413.758 1.65203 4.67997 0
M  V30 4288 H 409.014 2.86847 5.39934 0
M  V30 4289 H 413.188 3.73066 5.88043 0
M  V30 4290 H 410.815 4.34462 6.23816 0
M  V30 4291 N 412.39 -1.55475 0.257931 0
M  V30 4292 C 413.615 -2.04064 -0.370488 0
M  V30 4293 C 414.04 -1.13565 -1.49948 0
M  V30 4294 O 413.398 -0.130781 -1.80828 0
M  V30 4295 C 413.446 -3.50554 -0.845237 0
M  V30 4296 O 412.55 -3.63173 -1.95394 0
M  V30 4297 H 411.891 -0.659257 -0.0792243 0
M  V30 4298 H 414.421 -2.00903 0.387212 0
M  V30 4299 H 414.431 -3.91588 -1.14555 0
M  V30 4300 H 413.106 -4.15896 -0.0191259 0
M  V30 4301 H 411.683 -3.34039 -1.65748 0
M  V30 4302 N 413.868 0.0150385 -1.57593 0
M  V30 4303 C 414.831 0.995996 -2.06428 0
M  V30 4304 C 415.831 1.2818 -0.970903 0
M  V30 4305 O 417.021 1.22949 -1.23406 0
M  V30 4306 C 414.153 2.32506 -2.49307 0
M  V30 4307 H 415.346 0.573873 -2.94358 0
M  V30 4308 H 412.899 0.262186 -1.54085 0
M  V30 4309 H 413.634 2.79438 -1.64575 0
M  V30 4310 H 413.419 2.13087 -3.29145 0
M  V30 4311 H 414.909 3.02906 -2.87468 0
M  V30 4312 N 415.346 1.54954 0.287554 0
M  V30 4313 C 416.571 1.79209 1.04397 0
M  V30 4314 C 416.996 0.556431 1.79682 0
M  V30 4315 O 416.354 -0.493518 1.74454 0
M  V30 4316 C 416.402 3.00739 1.98969 0
M  V30 4317 O 415.506 2.74805 3.075 0
M  V30 4318 H 414.847 0.592755 0.299227 0
M  V30 4319 H 417.377 2.02068 0.320886 0
M  V30 4320 H 417.387 3.29077 2.4119 0
M  V30 4321 H 416.062 3.90329 1.43582 0
M  V30 4322 H 414.639 2.57523 2.69697 0
M  V30 4323 N 416.824 -0.551391 1.4764 0
M  V30 4324 C 418.235 -1.13349 1.48354 0
M  V30 4325 C 418.586 -1.94709 0.241432 0
M  V30 4326 O 417.711 -2.06306 -0.653205 0
M  V30 4327 C 418.306 -2.0623 2.68802 0
M  V30 4328 C 416.865 -2.597 2.72457 0
M  V30 4329 C 416.012 -1.36201 2.41546 0
M  V30 4330 H 418.963 -0.337698 1.55065 0
M  V30 4331 H 418.984 -2.90196 2.46103 0
M  V30 4332 H 418.496 -1.46987 3.59188 0
M  V30 4333 H 416.597 -3.22724 1.86225 0
M  V30 4334 H 416.71 -3.00296 3.73308 0
M  V30 4335 H 415.074 -1.67068 1.9225 0
M  V30 4336 H 415.857 -0.787425 3.34147 0
M  V30 4337 N 418.302 -1.35869 -0.798587 0
M  V30 4338 C 419.551 -1.28921 -1.5512 0
M  V30 4339 C 419.864 0.13208 -1.95154 0
M  V30 4340 O 421.07 0.323879 -2.69561 0
M  V30 4341 C 419.526 -2.26141 -2.79979 0
M  V30 4342 C 419.134 -3.73658 -2.47151 0
M  V30 4343 C 420.878 -2.28152 -3.57976 0
M  V30 4344 C 418.785 -4.62679 -3.6835 0
M  V30 4345 H 417.715 -0.479031 -0.582276 0
M  V30 4346 H 420.366 -1.61179 -0.877125 0
M  V30 4347 H 418.748 -1.86865 -3.49138 0
M  V30 4348 H 419.922 -4.21616 -1.85947 0
M  V30 4349 H 418.237 -3.74333 -1.82383 0
M  V30 4350 H 420.834 -2.91875 -4.4801 0
M  V30 4351 H 421.177 -1.28748 -3.95891 0
M  V30 4352 H 421.71 -2.65998 -2.95787 0
M  V30 4353 H 418.449 -5.63111 -3.35538 0
M  V30 4354 H 417.969 -4.19442 -4.28752 0
M  V30 4355 H 419.648 -4.78498 -4.35487 0
M  V30 4356 N 419.78 1.02168 -1.19998 0
M  V30 4357 C 421.027 1.75685 -1.00702 0
M  V30 4358 C 421.355 1.88947 0.461426 0
M  V30 4359 O 420.61 1.40832 1.35885 0
M  V30 4360 C 420.909 3.18081 -1.62969 0
M  V30 4361 C 420.575 3.24809 -3.12746 0
M  V30 4362 C 419.237 3.26352 -3.53621 0
M  V30 4363 C 421.589 3.23379 -4.08749 0
M  V30 4364 C 418.917 3.2413 -4.89036 0
M  V30 4365 C 421.269 3.22698 -5.44104 0
M  V30 4366 C 419.933 3.22542 -5.84399 0
M  V30 4367 H 419.203 0.642877 -0.368496 0
M  V30 4368 H 421.85 1.19865 -1.49348 0
M  V30 4369 H 420.155 3.77027 -1.06573 0
M  V30 4370 H 421.852 3.73648 -1.45561 0
M  V30 4371 H 418.442 3.2434 -2.80181 0
M  V30 4372 H 422.626 3.21361 -3.78207 0
M  V30 4373 H 417.882 3.22338 -5.19527 0
M  V30 4374 H 422.056 3.20543 -6.18244 0
M  V30 4375 H 419.683 3.20575 -6.89301 0
M  V30 4376 N 421.258 1.00505 1.21394 0
M  V30 4377 C 422.486 0.706609 1.9446 0
M  V30 4378 C 422.901 -0.73081 1.74082 0
M  V30 4379 O 422.258 -1.49446 1.04747 0
M  V30 4380 C 422.309 1.01824 3.46863 0
M  V30 4381 O 422.03 2.39919 3.66566 0
M  V30 4382 C 423.531 0.739216 4.37093 0
M  V30 4383 H 420.751 0.260394 0.618414 0
M  V30 4384 H 423.295 1.34311 1.54211 0
M  V30 4385 H 421.45 0.427343 3.85036 0
M  V30 4386 H 421.864 2.50784 4.6066 0
M  V30 4387 H 423.338 1.00744 5.42729 0
M  V30 4388 H 423.815 -0.326746 4.37983 0
M  V30 4389 H 424.421 1.31173 4.04566 0
M  V30 4390 N 422.737 -1.36956 0.779787 0
M  V30 4391 C 424.014 -1.93697 0.272156 0
M  V30 4392 C 424.394 -1.71267 -1.23413 0
M  V30 4393 O 423.742 -1.06607 -2.02107 0
M  V30 4394 C 423.952 -3.42812 0.654291 0
M  V30 4395 C 425.3 -4.19921 0.628602 0
M  V30 4396 O 426.324 -3.51209 0.594172 0
M  V30 4397 O 425.183 -5.42465 0.662864 0
M  V30 4398 H 422.277 -0.824447 0.0649286 0
M  V30 4399 H 424.823 -1.46196 0.861682 0
M  V30 4400 H 423.595 -3.52754 1.69353 0
M  V30 4401 H 423.218 -3.97582 0.0381369 0
M  V30 4402 N 424.215 -0.530993 -1.48385 0
M  V30 4403 C 425.443 -0.00134122 -2.069 0
M  V30 4404 C 425.858 1.2805 -1.3874 0
M  V30 4405 O 425.215 1.76204 -0.475244 0
M  V30 4406 C 425.266 0.225256 -3.60798 0
M  V30 4407 O 424.987 -1.0058 -4.26398 0
M  V30 4408 C 426.488 0.795172 -4.3611 0
M  V30 4409 H 423.708 -0.0339704 -0.67014 0
M  V30 4410 H 426.252 -0.736926 -1.90761 0
M  V30 4411 H 424.407 0.910891 -3.76539 0
M  V30 4412 H 424.821 -0.787165 -5.1856 0
M  V30 4413 H 426.295 0.903143 -5.44562 0
M  V30 4414 H 426.772 1.80031 -4.00606 0
M  V30 4415 H 427.378 0.146069 -4.25049 0
M  V30 4416 N 425.693 1.55336 -0.266172 0
M  V30 4417 C 426.939 1.99692 0.353681 0
M  V30 4418 C 427.272 1.1543 1.56172 0
M  V30 4419 O 426.547 0.222218 1.93226 0
M  V30 4420 C 426.83 3.52316 0.74466 0
M  V30 4421 C 426.683 4.47337 -0.470101 0
M  V30 4422 C 428.002 4.10588 1.58447 0
M  V30 4423 H 425.121 0.725961 0.12708 0
M  V30 4424 H 427.763 1.86336 -0.371333 0
M  V30 4425 H 425.913 3.63829 1.36239 0
M  V30 4426 H 427.585 4.4778 -1.10864 0
M  V30 4427 H 425.828 4.19364 -1.10978 0
M  V30 4428 H 426.499 5.51788 -0.15291 0
M  V30 4429 H 428.975 4.02297 1.06286 0
M  V30 4430 H 427.851 5.17607 1.82686 0
M  V30 4431 H 428.112 3.60253 2.56262 0
M  V30 4432 N 427.171 -0.0066808 1.57599 0
M  V30 4433 C 428.417 -0.693947 1.90558 0
M  V30 4434 C 428.75 -1.73792 0.866594 0
M  V30 4435 O 428.025 -1.94156 -0.115548 0
M  V30 4436 C 428.308 -1.34317 3.34112 0
M  V30 4437 C 428.161 -0.311189 4.48722 0
M  V30 4438 C 429.48 -2.27116 3.7697 0
M  V30 4439 H 426.599 -0.250803 0.693013 0
M  V30 4440 H 429.241 0.043242 1.89951 0
M  V30 4441 H 427.391 -1.9715 3.3476 0
M  V30 4442 H 429.063 0.316944 4.6021 0
M  V30 4443 H 427.306 0.367253 4.32243 0
M  V30 4444 H 427.977 -0.804366 5.46108 0
M  V30 4445 H 430.453 -1.74306 3.77831 0
M  V30 4446 H 429.329 -2.69511 4.78179 0
M  V30 4447 H 429.59 -3.14743 3.10466 0
M  V30 4448 N 428.649 -1.55105 -0.279332 0
M  V30 4449 C 429.896 -1.75412 -1.01177 0
M  V30 4450 C 430.224 -0.551728 -1.86511 0
M  V30 4451 O 429.479 0.465919 -1.90073 0
M  V30 4452 C 429.778 -3.0086 -1.92919 0
M  V30 4453 C 429.444 -4.33689 -1.23387 0
M  V30 4454 C 428.106 -4.69792 -1.04159 0
M  V30 4455 C 430.458 -5.15941 -0.738562 0
M  V30 4456 C 427.786 -5.85707 -0.341166 0
M  V30 4457 C 430.138 -6.32579 -0.0517636 0
M  V30 4458 C 428.802 -6.67326 0.152292 0
M  V30 4459 H 428.072 -0.641879 -0.370233 0
M  V30 4460 H 430.719 -1.89373 -0.284627 0
M  V30 4461 H 429.024 -2.81773 -2.72234 0
M  V30 4462 H 430.721 -3.13768 -2.49701 0
M  V30 4463 H 427.311 -4.05309 -1.39364 0
M  V30 4464 H 431.495 -4.8853 -0.874764 0
M  V30 4465 H 426.751 -6.11157 -0.172287 0
M  V30 4466 H 430.925 -6.9557 0.339828 0
M  V30 4467 H 428.552 -7.56998 0.697014 0
M  V30 4468 N 430.127 0.543554 -1.4793 0
M  V30 4469 C 431.543 0.870806 -1.3375 0
M  V30 4470 C 431.743 1.9864 -0.338261 0
M  V30 4471 O 430.799 2.51305 0.245371 0
M  V30 4472 C 432.112 1.25114 -2.73435 0
M  V30 4473 C 433.66 1.3618 -2.81823 0
M  V30 4474 C 434.135 1.77563 -4.22179 0
M  V30 4475 N 435.626 1.8469 -4.24787 0
M  V30 4476 C 436.361 2.18067 -5.30315 0
M  V30 4477 N 435.857 2.49963 -6.46135 0
M  V30 4478 N 437.65 2.18958 -5.17701 0
M  V30 4479 H 429.801 -0.19275 -2.11524 0
M  V30 4480 H 432.064 -0.0235777 -0.947707 0
M  V30 4481 H 431.77 0.50514 -3.48053 0
M  V30 4482 H 431.644 2.20431 -3.06088 0
M  V30 4483 H 434.031 2.09859 -2.07468 0
M  V30 4484 H 434.112 0.390169 -2.52807 0
M  V30 4485 H 433.756 1.04449 -4.97044 0
M  V30 4486 H 433.686 2.75753 -4.48629 0
M  V30 4487 H 436.177 1.62372 -3.41239 0
M  V30 4488 H 436.49 2.74497 -7.22406 0
M  V30 4489 H 434.835 2.47513 -6.49432 0
M  V30 4490 H 438.026 1.93488 -4.2624 0
M  V30 4491 H 438.199 2.44639 -6.00047 0
M  V30 4492 N 431.605 1.3629 0.791371 0
M  V30 4493 C 432.851 1.30605 1.55146 0
M  V30 4494 C 433.184 -0.115042 1.93859 0
M  V30 4495 O 432.459 -1.06798 1.62556 0
M  V30 4496 C 432.742 2.22692 2.82985 0
M  V30 4497 C 432.595 3.73489 2.50651 0
M  V30 4498 C 433.914 2.13588 3.84796 0
M  V30 4499 H 431.033 0.475761 0.562868 0
M  V30 4500 H 433.675 1.66825 0.909358 0
M  V30 4501 H 431.825 1.91933 3.37778 0
M  V30 4502 H 433.497 4.14758 2.01924 0
M  V30 4503 H 431.74 3.93021 1.83622 0
M  V30 4504 H 432.411 4.3333 3.41949 0
M  V30 4505 H 434.887 2.40659 3.39445 0
M  V30 4506 H 433.763 2.80195 4.71998 0
M  V30 4507 H 434.024 1.12256 4.27611 0
M  V30 4508 N 433.083 -1.0153 1.20538 0
M  V30 4509 C 434.046 -2.0826 0.957098 0
M  V30 4510 C 435.046 -1.60657 -0.0678655 0
M  V30 4511 O 436.236 -1.73385 0.168332 0
M  V30 4512 C 433.368 -3.38033 0.441188 0
M  V30 4513 H 434.561 -2.31719 1.90384 0
M  V30 4514 H 432.114 -1.1835 1.02093 0
M  V30 4515 H 432.849 -3.20249 -0.510961 0
M  V30 4516 H 432.634 -3.73911 1.18038 0
M  V30 4517 H 434.124 -4.16613 0.287009 0
M  V30 4518 N 434.561 -1.01147 -1.20859 0
M  V30 4519 C 435.972 -0.730205 -1.71828 0
M  V30 4520 C 436.323 0.751662 -1.8123 0
M  V30 4521 O 435.448 1.58686 -1.47132 0
M  V30 4522 C 436.043 -1.31885 -3.12077 0
M  V30 4523 C 434.602 -1.08656 -3.60376 0
M  V30 4524 C 433.749 -1.42769 -2.37723 0
M  V30 4525 H 436.7 -1.18158 -1.05945 0
M  V30 4526 H 436.721 -0.706793 -3.73878 0
M  V30 4527 H 436.233 -2.39737 -3.05201 0
M  V30 4528 H 434.334 -0.0254814 -3.72591 0
M  V30 4529 H 434.447 -1.76301 -4.45483 0
M  V30 4530 H 432.811 -0.846603 -2.40218 0
M  V30 4531 H 433.594 -2.51666 -2.33493 0
M  V30 4532 N 436.039 1.36541 -0.78704 0
M  V30 4533 C 437.285 2.00044 -0.367938 0
M  V30 4534 C 437.64 1.61345 1.04812 0
M  V30 4535 O 436.933 0.856936 1.71368 0
M  V30 4536 C 437.127 3.54343 -0.466485 0
M  V30 4537 C 436.956 4.08029 -1.89058 0
M  V30 4538 C 435.726 4.38284 -2.51466 0
M  V30 4539 C 437.924 4.27954 -2.85236 0
M  V30 4540 N 435.906 4.77778 -3.85488 0
M  V30 4541 C 437.277 4.70227 -4.04088 0
M  V30 4542 C 439.332 4.10119 -2.82324 0
M  V30 4543 C 438.035 4.96532 -5.20432 0
M  V30 4544 C 440.061 4.37569 -3.97854 0
M  V30 4545 C 439.423 4.80095 -5.15449 0
M  V30 4546 H 435.522 0.760525 -0.182004 0
M  V30 4547 H 438.106 1.65589 -1.02413 0
M  V30 4548 H 436.277 3.88072 0.159606 0
M  V30 4549 H 438.009 4.04693 -0.0238577 0
M  V30 4550 H 434.764 4.27905 -2.02965 0
M  V30 4551 H 435.188 5.01813 -4.54437 0
M  V30 4552 H 439.83 3.76399 -1.92571 0
M  V30 4553 H 437.548 5.29134 -6.10773 0
M  V30 4554 H 441.134 4.25341 -3.96958 0
M  V30 4555 H 440.014 5.00925 -6.0336 0
M  V30 4556 N 437.518 0.538854 1.48102 0
M  V30 4557 C 438.767 0.0059532 2.01699 0
M  V30 4558 C 439.08 -1.34476 1.42041 0
M  V30 4559 O 440.286 -1.96653 1.87189 0
M  V30 4560 C 438.742 -0.0397627 3.59878 0
M  V30 4561 C 438.35 1.30659 4.28523 0
M  V30 4562 C 440.094 -0.521024 4.2129 0
M  V30 4563 C 438.001 1.22098 5.78659 0
M  V30 4564 H 436.931 -0.00154456 0.753998 0
M  V30 4565 H 439.582 0.683963 1.70277 0
M  V30 4566 H 437.964 -0.783037 3.88181 0
M  V30 4567 H 439.138 2.06613 4.11883 0
M  V30 4568 H 437.453 1.7243 3.79021 0
M  V30 4569 H 440.05 -0.603184 5.31287 0
M  V30 4570 H 440.393 -1.52885 3.8721 0
M  V30 4571 H 440.926 0.166834 3.9745 0
M  V30 4572 H 437.665 2.20424 6.17328 0
M  V30 4573 H 437.185 0.50295 5.97688 0
M  V30 4574 H 438.864 0.915345 6.40492 0
M  V30 4575 N 438.996 -1.55193 0.274407 0
M  V30 4576 C 439.929 -2.18606 -0.654712 0
M  V30 4577 C 440.907 -1.14677 -1.15273 0
M  V30 4578 O 442.091 -1.43198 -1.22583 0
M  V30 4579 C 439.218 -2.80875 -1.89281 0
M  V30 4580 C 438.264 -3.981 -1.53032 0
M  V30 4581 S 439.097 -5.32025 -0.609107 0
M  V30 4582 C 440.253 -5.97761 -1.85559 0
M  V30 4583 H 440.486 -2.97074 -0.115894 0
M  V30 4584 H 438.019 -1.54288 0.05867 0
M  V30 4585 H 439.977 -3.17381 -2.60345 0
M  V30 4586 H 438.638 -2.02302 -2.40277 0
M  V30 4587 H 437.831 -4.40356 -2.45158 0
M  V30 4588 H 437.433 -3.63013 -0.899874 0
M  V30 4589 H 439.725 -6.16951 -2.7996 0
M  V30 4590 H 440.668 -6.92545 -1.47605 0
M  V30 4591 H 441.076 -5.27113 -2.02021 0
M  V30 4592 N 440.474 -0.00167713 -1.576 0
M  V30 4593 C 441.702 0.693759 -1.94922 0
M  V30 4594 C 442.117 1.67215 -0.876626 0
M  V30 4595 O 441.474 1.81929 0.144279 0
M  V30 4596 C 441.525 1.42416 -3.32265 0
M  V30 4597 O 441.246 0.485014 -4.35407 0
M  V30 4598 C 442.747 2.21395 -3.84056 0
M  V30 4599 H 439.967 0.193118 -0.642609 0
M  V30 4600 H 442.511 -0.0532952 -2.04431 0
M  V30 4601 H 440.666 2.12284 -3.24059 0
M  V30 4602 H 441.08 1.00053 -5.14868 0
M  V30 4603 H 442.554 2.67996 -4.82578 0
M  V30 4604 H 443.031 3.04142 -3.16851 0
M  V30 4605 H 443.637 1.56542 -3.95443 0
M  V30 4606 N 441.952 1.55251 0.271103 0
M  V30 4607 C 443.363 1.66635 0.842007 0
M  V30 4608 C 443.714 0.594631 1.86972 0
M  V30 4609 O 442.839 -0.263532 2.14789 0
M  V30 4610 C 443.434 3.02082 1.53401 0
M  V30 4611 C 441.993 3.15487 2.05293 0
M  V30 4612 C 441.14 2.62438 0.895631 0
M  V30 4613 H 444.091 1.58629 0.0474117 0
M  V30 4614 H 444.112 2.95176 2.40107 0
M  V30 4615 H 443.624 3.80062 0.785786 0
M  V30 4616 H 441.725 2.42284 2.83071 0
M  V30 4617 H 441.838 4.22075 2.26693 0
M  V30 4618 H 440.202 2.19644 1.28953 0
M  V30 4619 H 440.985 3.42923 0.160878 0
M  V30 4620 N 443.43 -0.535701 1.48216 0
M  V30 4621 C 444.655 -1.32149 1.59848 0
M  V30 4622 C 445.08 -1.86338 0.256842 0
M  V30 4623 O 444.438 -1.64107 -0.770632 0
M  V30 4624 C 444.486 -2.45224 2.64381 0
M  V30 4625 O 443.59 -3.48093 2.21144 0
M  V30 4626 H 442.931 -0.391634 0.536208 0
M  V30 4627 H 445.461 -0.645202 1.94161 0
M  V30 4628 H 445.471 -2.91491 2.85476 0
M  V30 4629 H 444.146 -2.05143 3.61786 0
M  V30 4630 H 442.723 -3.07984 2.10239 0
M  V30 4631 N 444.908 -1.36708 -0.784132 0
M  V30 4632 C 446.136 -1.34398 -1.57305 0
M  V30 4633 C 446.551 0.0735577 -1.88657 0
M  V30 4634 O 445.908 1.03193 -1.50524 0
M  V30 4635 C 445.959 -2.17053 -2.89085 0
M  V30 4636 O 445.68 -3.53281 -2.59083 0
M  V30 4637 C 447.181 -2.22583 -3.83369 0
M  V30 4638 H 444.401 -0.460819 -0.487736 0
M  V30 4639 H 446.945 -1.79879 -0.972819 0
M  V30 4640 H 445.1 -1.75113 -3.45564 0
M  V30 4641 H 445.514 -3.9647 -3.43383 0
M  V30 4642 H 446.988 -2.84763 -4.72878 0
M  V30 4643 H 447.465 -1.23075 -4.21603 0
M  V30 4644 H 448.071 -2.64781 -3.32823 0
M  V30 4645 N 446.386 1.0089 -1.21074 0
M  V30 4646 C 447.316 2.1145 -0.990523 0
M  V30 4647 C 448.297 1.69897 0.0831699 0
M  V30 4648 O 449.482 1.94052 -0.0758853 0
M  V30 4649 C 446.612 3.42914 -0.550177 0
M  V30 4650 C 445.566 3.98244 -1.56799 0
M  V30 4651 C 444.892 5.25568 -0.984013 0
M  V30 4652 C 446.192 4.30752 -2.95381 0
M  V30 4653 H 447.886 2.3013 -1.91521 0
M  V30 4654 H 445.432 1.10592 -0.92225 0
M  V30 4655 H 447.385 4.19653 -0.383305 0
M  V30 4656 H 446.109 3.24014 0.41015 0
M  V30 4657 H 444.768 3.23621 -1.72236 0
M  V30 4658 H 444.416 5.02998 -0.0155216 0
M  V30 4659 H 444.116 5.63551 -1.66384 0
M  V30 4660 H 445.64 6.04955 -0.828378 0
M  V30 4661 H 447.054 4.98349 -2.8341 0
M  V30 4662 H 445.451 4.79869 -3.60341 0
M  V30 4663 H 446.521 3.39192 -3.46521 0
M  V30 4664 N 447.864 1.01787 1.20321 0
M  V30 4665 C 449.275 0.739307 1.71438 0
M  V30 4666 C 449.626 -0.742041 1.81627 0
M  V30 4667 O 448.751 -1.57903 1.47971 0
M  V30 4668 C 449.346 1.33538 3.11373 0
M  V30 4669 C 447.905 1.10566 3.59795 0
M  V30 4670 C 447.052 1.44028 2.36962 0
M  V30 4671 H 450.003 1.18718 1.05317 0
M  V30 4672 H 450.024 0.726611 3.73498 0
M  V30 4673 H 449.536 2.41352 3.03926 0
M  V30 4674 H 447.637 0.0452405 3.72573 0
M  V30 4675 H 447.75 1.78661 4.44542 0
M  V30 4676 H 446.114 0.85933 2.39766 0
M  V30 4677 H 446.897 2.52901 2.32155 0
M  V30 4678 N 449.342 -1.36122 0.79427 0
M  V30 4679 C 450.753 -1.81646 0.431446 0
M  V30 4680 C 451.104 -1.66043 -1.04518 0
M  V30 4681 O 450.229 -1.1841 -1.8113 0
M  V30 4682 C 450.824 -3.29785 0.776341 0
M  V30 4683 C 449.383 -3.73501 0.466282 0
M  V30 4684 C 448.53 -2.58313 1.00844 0
M  V30 4685 H 451.481 -1.24274 0.986995 0
M  V30 4686 H 451.502 -3.80437 0.0692413 0
M  V30 4687 H 451.014 -3.4111 1.8511 0
M  V30 4688 H 449.115 -3.67733 -0.600245 0
M  V30 4689 H 449.228 -4.68754 0.990288 0
M  V30 4690 H 447.592 -2.5102 0.431406 0
M  V30 4691 H 448.375 -2.72421 2.08906 0
M  V30 4692 N 450.82 -0.546701 -1.47814 0
M  V30 4693 C 451.75 0.195317 -2.32682 0
M  V30 4694 C 452.731 0.918981 -1.43139 0
M  V30 4695 O 453.916 0.901501 -1.72008 0
M  V30 4696 C 451.046 1.23237 -3.247 0
M  V30 4697 C 450 0.625818 -4.234 0
M  V30 4698 C 449.326 1.76674 -5.04669 0
M  V30 4699 C 450.626 -0.413515 -5.2066 0
M  V30 4700 H 452.32 -0.513184 -2.94969 0
M  V30 4701 H 449.866 -0.248241 -1.41844 0
M  V30 4702 H 451.819 1.75955 -3.82907 0
M  V30 4703 H 450.543 1.97067 -2.60446 0
M  V30 4704 H 449.202 0.120023 -3.66403 0
M  V30 4705 H 448.85 2.49383 -4.36826 0
M  V30 4706 H 448.55 1.36673 -5.71484 0
M  V30 4707 H 450.074 2.29738 -5.65732 0
M  V30 4708 H 451.488 0.0272042 -5.73294 0
M  V30 4709 H 449.885 -0.731825 -5.95621 0
M  V30 4710 H 450.955 -1.31325 -4.66778 0
M  V30 4711 N 452.299 1.55045 -0.282633 0
M  V30 4712 C 453.209 2.26491 0.61147 0
M  V30 4713 C 454.225 1.29348 1.16384 0
M  V30 4714 O 455.401 1.62298 1.19253 0
M  V30 4715 C 452.466 2.97779 1.77563 0
M  V30 4716 C 451.527 4.10418 1.25919 0
M  V30 4717 C 450.76 4.78297 2.36786 0
M  V30 4718 O 450.983 4.45426 3.56303 0
M  V30 4719 O 449.917 5.66089 2.04517 0
M  V30 4720 H 453.743 3.03683 0.0324615 0
M  V30 4721 H 451.328 1.49317 -0.0497576 0
M  V30 4722 H 453.21 3.42554 2.45427 0
M  V30 4723 H 451.885 2.23498 2.34159 0
M  V30 4724 H 450.792 3.70082 0.546797 0
M  V30 4725 H 452.125 4.86622 0.738887 0
M  V30 4726 N 453.777 0.010035 1.57597 0
M  V30 4727 C 455.023 -0.673697 1.91283 0
M  V30 4728 C 455.356 -1.72863 0.884979 0
M  V30 4729 O 454.631 -1.94268 -0.0949487 0
M  V30 4730 C 454.914 -1.30766 3.35518 0
M  V30 4731 C 454.767 -0.263578 4.49027 0
M  V30 4732 C 456.086 -2.23105 3.79358 0
M  V30 4733 H 453.205 -0.243439 0.695634 0
M  V30 4734 H 455.847 0.0633864 1.89894 0
M  V30 4735 H 453.997 -1.93588 3.36832 0
M  V30 4736 H 455.669 0.365738 4.59848 0
M  V30 4737 H 453.912 0.413077 4.31829 0
M  V30 4738 H 454.583 -0.746398 5.4693 0
M  V30 4739 H 457.059 -1.70289 3.79659 0
M  V30 4740 H 455.935 -2.64424 4.81011 0
M  V30 4741 H 456.196 -3.11433 3.13787 0
M  V30 4742 N 455.255 -1.55392 -0.262866 0
M  V30 4743 C 456.485 -1.80251 -1.00961 0
M  V30 4744 C 456.893 -0.58117 -1.80053 0
M  V30 4745 O 456.236 0.459427 -1.77862 0
M  V30 4746 C 456.298 -2.98207 -2.00781 0
M  V30 4747 C 455.962 -4.34856 -1.40533 0
M  V30 4748 C 456.959 -5.13459 -0.815853 0
M  V30 4749 C 454.644 -4.8153 -1.42948 0
M  V30 4750 C 456.638 -6.36875 -0.258562 0
M  V30 4751 C 454.325 -6.04899 -0.868334 0
M  V30 4752 C 455.323 -6.8241 -0.283884 0
M  V30 4753 O 455.011 -8.03451 0.268644 0
M  V30 4754 H 454.743 -0.604049 -0.303482 0
M  V30 4755 H 457.297 -2.03257 -0.295926 0
M  V30 4756 H 455.527 -2.70917 -2.75936 0
M  V30 4757 H 457.216 -3.10299 -2.61667 0
M  V30 4758 H 457.982 -4.78526 -0.789812 0
M  V30 4759 H 453.861 -4.21201 -1.87378 0
M  V30 4760 H 457.405 -6.97318 0.198257 0
M  V30 4761 H 453.302 -6.39312 -0.891649 0
M  V30 4762 H 454.07 -8.18346 0.158974 0
M  V30 4763 N 456.733 0.527833 -1.48498 0
M  V30 4764 C 457.979 1.28545 -1.56857 0
M  V30 4765 C 458.312 1.92678 -0.242651 0
M  V30 4766 O 457.587 1.79394 0.751545 0
M  V30 4767 C 457.87 2.37314 -2.70839 0
M  V30 4768 C 457.723 1.77858 -4.13142 0
M  V30 4769 C 459.042 3.39068 -2.80573 0
M  V30 4770 H 456.161 0.466006 -0.570971 0
M  V30 4771 H 458.803 0.587784 -1.8068 0
M  V30 4772 H 456.953 2.96821 -2.50658 0
M  V30 4773 H 458.625 1.22385 -4.44769 0
M  V30 4774 H 456.868 1.08383 -4.20042 0
M  V30 4775 H 457.539 2.56624 -4.88721 0
M  V30 4776 H 460.015 2.89518 -2.98862 0
M  V30 4777 H 458.891 4.12566 -3.6205 0
M  V30 4778 H 459.152 3.9975 -1.88818 0
M  V30 4779 N 458.211 1.37122 0.776871 0
M  V30 4780 C 459.451 1.33441 1.54831 0
M  V30 4781 C 459.815 -0.0818963 1.91825 0
M  V30 4782 O 461.016 -0.24338 2.67696 0
M  V30 4783 C 459.287 2.24267 2.78279 0
M  V30 4784 S 460.846 2.38389 3.68397 0
M  V30 4785 H 457.664 0.473791 0.530135 0
M  V30 4786 H 460.266 1.7282 0.913968 0
M  V30 4787 H 458.97 3.261 2.49173 0
M  V30 4788 H 458.501 1.85953 3.46677 0
M  V30 4789 H 460.516 1.59068 4.70013 0
M  V30 4790 N 459.689 -1.00246 1.21608 0
M  V30 4791 C 461.105 -1.26435 0.973975 0
M  V30 4792 C 461.305 -1.98642 -0.338143 0
M  V30 4793 O 460.361 -2.29026 -1.06317 0
M  V30 4794 C 461.674 -2.08551 2.16626 0
M  V30 4795 C 463.222 -2.21769 2.20879 0
M  V30 4796 C 463.697 -3.07267 3.39633 0
M  V30 4797 N 465.188 -3.14855 3.39736 0
M  V30 4798 C 465.923 -3.81274 4.28273 0
M  V30 4799 N 465.419 -4.497 5.27012 0
M  V30 4800 N 467.212 -3.7794 4.16074 0
M  V30 4801 H 459.363 -0.518089 2.05984 0
M  V30 4802 H 461.626 -0.291368 0.902113 0
M  V30 4803 H 461.332 -1.62847 3.11727 0
M  V30 4804 H 461.206 -3.09303 2.15897 0
M  V30 4805 H 463.593 -2.66691 1.26332 0
M  V30 4806 H 463.674 -1.20478 2.25652 0
M  V30 4807 H 463.318 -2.63047 4.34475 0
M  V30 4808 H 463.248 -4.08678 3.321 0
M  V30 4809 H 465.739 -2.66147 2.6828 0
M  V30 4810 H 466.052 -4.98092 5.90867 0
M  V30 4811 H 464.397 -4.48479 5.30935 0
M  V30 4812 H 467.588 -3.23638 3.38195 0
M  V30 4813 H 467.761 -4.29424 4.85282 0
M  V30 4814 N 461.167 -1.02423 -1.1978 0
M  V30 4815 C 462.413 -0.719051 -1.89625 0
M  V30 4816 C 462.746 0.750083 -1.7913 0
M  V30 4817 O 462.021 1.54574 -1.18056 0
M  V30 4818 C 462.304 -1.16499 -3.40735 0
M  V30 4819 C 462.157 -2.695 -3.60125 0
M  V30 4820 C 463.476 -0.742166 -4.33797 0
M  V30 4821 H 460.595 -0.26269 -0.688595 0
M  V30 4822 H 463.237 -1.27333 -1.41018 0
M  V30 4823 H 461.387 -0.69341 -3.82262 0
M  V30 4824 H 463.059 -3.24569 -3.278 0
M  V30 4825 H 461.302 -3.10113 -3.03336 0
M  V30 4826 H 461.973 -2.95757 -4.66081 0
M  V30 4827 H 464.449 -1.1477 -3.99959 0
M  V30 4828 H 463.325 -1.08213 -5.38127 0
M  V30 4829 H 463.586 0.355747 -4.40666 0
M  V30 4830 N 462.645 1.35699 -0.801477 0
M  V30 4831 C 464.061 1.52065 -0.484596 0
M  V30 4832 C 464.261 1.75215 0.995084 0
M  V30 4833 O 463.317 1.79061 1.78026 0
M  V30 4834 C 464.63 2.69908 -1.32552 0
M  V30 4835 C 466.178 2.83784 -1.32044 0
M  V30 4836 C 466.653 4.04646 -2.14536 0
M  V30 4837 N 468.144 4.11814 -2.12046 0
M  V30 4838 C 468.879 5.04437 -2.72636 0
M  V30 4839 N 468.375 6.02426 -3.42133 0
M  V30 4840 N 470.168 4.97144 -2.62305 0
M  V30 4841 H 462.319 1.18928 -1.75983 0
M  V30 4842 H 464.582 0.581455 -0.748741 0
M  V30 4843 H 464.288 2.59363 -2.37537 0
M  V30 4844 H 464.162 3.64376 -0.975181 0
M  V30 4845 H 466.549 2.93783 -0.27846 0
M  V30 4846 H 466.63 1.90188 -1.71062 0
M  V30 4847 H 466.274 3.95407 -3.18772 0
M  V30 4848 H 466.204 4.97413 -1.72882 0
M  V30 4849 H 468.695 3.41664 -1.61476 0
M  V30 4850 H 469.008 6.69688 -3.85666 0
M  V30 4851 H 467.353 6.02615 -3.46237 0
M  V30 4852 H 470.544 4.19546 -2.07603 0
M  V30 4853 H 470.717 5.69138 -3.09815 0
M  V30 4854 N 464.123 0.554532 1.47522 0
M  V30 4855 C 465.071 -0.207765 2.3167 0
M  V30 4856 C 466.065 -0.911914 1.4276 0
M  V30 4857 O 467.271 -0.833504 1.59539 0
M  V30 4858 H 463.646 -0.0858726 0.747081 0
M  V30 4859 H 465.617 0.521178 2.93813 0
M  V30 4860 C 464.366 -1.2263 3.25357 0
M  V30 4861 H 463.689 -0.693887 3.93732 0
M  V30 4862 H 465.129 -1.73062 3.87073 0
M  V30 4863 C 463.588 -2.27278 2.4869 0
M  V30 4864 O 464.118 -3.34156 2.22941 0
M  V30 4865 N 462.324 -2.01134 2.09746 0
M  V30 4866 H 461.871 -1.14232 2.30887 0
M  V30 4867 H 461.829 -2.71369 1.58765 0
M  V30 4868 N 465.601 -1.54893 0.290851 0
M  V30 4869 C 466.549 -2.24579 -0.605576 0
M  V30 4870 C 467.543 -1.24824 -1.14522 0
M  V30 4871 O 468.749 -1.42706 -1.09704 0
M  V30 4872 H 465.124 -0.720946 -0.213872 0
M  V30 4873 H 467.095 -2.984 0.0048173 0
M  V30 4874 C 465.844 -2.99224 -1.77088 0
M  V30 4875 H 465.167 -3.75782 -1.36484 0
M  V30 4876 H 466.607 -3.51281 -2.3744 0
M  V30 4877 C 465.066 -2.05602 -2.66888 0
M  V30 4878 O 465.596 -1.61745 -3.67698 0
M  V30 4879 N 463.802 -1.71771 -2.34399 0
M  V30 4880 H 463.349 -2.07633 -1.52468 0
M  V30 4881 H 463.307 -1.09403 -2.94751 0
M  V30 4882 N 467.08 -0.0183926 -1.57589 0
M  V30 4883 C 468.308 0.673046 -1.95647 0
M  V30 4884 C 468.723 1.66275 -0.894312 0
M  V30 4885 O 468.08 1.82072 0.124975 0
M  V30 4886 C 468.131 1.38884 -3.33756 0
M  V30 4887 O 467.852 0.438806 -4.35897 0
M  V30 4888 C 469.353 2.1731 -3.86383 0
M  V30 4889 H 466.573 0.186292 -0.644621 0
M  V30 4890 H 469.117 -0.0749748 -2.04363 0
M  V30 4891 H 467.272 2.08835 -3.26293 0
M  V30 4892 H 467.686 0.945869 -5.15901 0
M  V30 4893 H 469.16 2.62863 -4.85394 0
M  V30 4894 H 469.637 3.00764 -3.20059 0
M  V30 4895 H 470.243 1.52339 -3.97081 0
M  V30 4896 N 468.558 1.5553 0.254621 0
M  V30 4897 C 469.798 1.7876 0.991179 0
M  V30 4898 C 470.162 0.586669 1.82817 0
M  V30 4899 O 471.363 0.697585 2.5959 0
M  V30 4900 C 469.634 3.06679 1.83529 0
M  V30 4901 S 471.193 3.511 2.632 0
M  V30 4902 H 468.011 0.627916 0.333531 0
M  V30 4903 H 470.613 1.93766 0.259778 0
M  V30 4904 H 469.317 3.92158 1.20996 0
M  V30 4905 H 468.848 2.94388 2.60958 0
M  V30 4906 H 470.863 3.11823 3.8598 0
M  V30 4907 N 470.036 -0.519951 1.48776 0
M  V30 4908 C 471.283 -1.27522 1.57303 0
M  V30 4909 C 471.611 -1.92869 0.251328 0
M  V30 4910 O 470.866 -1.80372 -0.759243 0
M  V30 4911 C 471.165 -2.37864 2.6675 0
M  V30 4912 C 470.831 -1.90103 4.08867 0
M  V30 4913 C 469.493 -1.76795 4.47546 0
M  V30 4914 C 471.845 -1.54133 4.97888 0
M  V30 4915 C 469.173 -1.25868 5.73039 0
M  V30 4916 C 471.525 -1.04665 6.23881 0
M  V30 4917 C 470.189 -0.899823 6.61407 0
M  V30 4918 H 469.459 -0.466636 0.575614 0
M  V30 4919 H 472.106 -0.579109 1.82534 0
M  V30 4920 H 470.411 -3.13186 2.35418 0
M  V30 4921 H 472.108 -2.95969 2.70561 0
M  V30 4922 H 468.698 -2.01414 3.78326 0
M  V30 4923 H 472.882 -1.6327 4.68675 0
M  V30 4924 H 468.138 -1.13196 6.0083 0
M  V30 4925 H 472.312 -0.759074 6.92251 0
M  V30 4926 H 469.939 -0.503011 7.58534 0
M  V30 4927 N 471.514 -1.37532 -0.769588 0
M  V30 4928 C 472.76 -1.33057 -1.53048 0
M  V30 4929 C 473.093 0.0841865 -1.94017 0
M  V30 4930 O 472.368 1.04198 -1.64235 0
M  V30 4931 C 472.651 -2.27166 -2.79406 0
M  V30 4932 C 472.504 -3.77429 -2.44677 0
M  V30 4933 C 473.823 -2.19683 -3.81349 0
M  V30 4934 H 470.942 -0.484655 -0.555228 0
M  V30 4935 H 473.584 -1.68251 -0.882702 0
M  V30 4936 H 471.734 -1.97283 -3.34682 0
M  V30 4937 H 473.406 -4.17918 -1.953 0
M  V30 4938 H 471.649 -3.95892 -1.77346 0
M  V30 4939 H 472.32 -4.38716 -3.35011 0
M  V30 4940 H 474.796 -2.46029 -3.35573 0
M  V30 4941 H 473.672 -2.87668 -4.67481 0
M  V30 4942 H 473.933 -1.19045 -4.25771 0
M  V30 4943 N 472.992 0.995999 -1.22138 0
M  V30 4944 C 474.269 1.70834 -0.952642 0
M  V30 4945 C 474.649 2.04257 0.533119 0
M  V30 4946 O 473.997 1.72343 1.50034 0
M  V30 4947 C 474.207 2.96119 -1.84701 0
M  V30 4948 C 475.555 3.68962 -2.10124 0
M  V30 4949 O 476.579 3.0612 -1.82124 0
M  V30 4950 O 475.438 4.82017 -2.57531 0
M  V30 4951 H 472.532 0.745498 -0.357997 0
M  V30 4952 H 475.078 1.05262 -1.33109 0
M  V30 4953 H 473.85 2.67898 -2.85213 0
M  V30 4954 H 473.473 3.6943 -1.46995 0
M  V30 4955 N 474.47 1.03057 1.19235 0
M  V30 4956 C 475.433 0.617418 2.20727 0
M  V30 4957 C 476.433 -0.319856 1.57587 0
M  V30 4958 O 477.623 -0.106633 1.73873 0
M  V30 4959 C 474.755 -0.096296 3.40764 0
M  V30 4960 H 475.948 1.51544 2.58794 0
M  V30 4961 H 473.501 0.821949 1.32942 0
M  V30 4962 H 474.236 -1.00859 3.08217 0
M  V30 4963 H 474.021 0.577217 3.87828 0
M  V30 4964 H 475.511 -0.372219 4.15938 0
M  V30 4965 N 475.948 -1.35272 0.808662 0
M  V30 4966 C 477.194 -1.99003 0.390581 0
M  V30 4967 C 477.527 -1.63999 -1.0401 0
M  V30 4968 O 476.802 -0.904368 -1.72196 0
M  V30 4969 C 477.085 -3.55454 0.576566 0
M  V30 4970 C 476.938 -4.00249 2.05233 0
M  V30 4971 C 478.257 -4.401 0.00354277 0
M  V30 4972 H 475.376 -0.722917 0.143388 0
M  V30 4973 H 478.018 -1.6039 1.01858 0
M  V30 4974 H 476.168 -3.88477 0.0419766 0
M  V30 4975 H 477.84 -3.77626 2.64946 0
M  V30 4976 H 476.083 -3.51082 2.54801 0
M  V30 4977 H 476.754 -5.0911 2.13333 0
M  V30 4978 H 479.23 -4.13548 0.460117 0
M  V30 4979 H 478.106 -5.48656 0.163575 0
M  V30 4980 H 478.367 -4.28444 -1.09032 0
M  V30 4981 N 477.426 -0.562348 -1.47226 0
M  V30 4982 C 478.389 0.172056 -2.28553 0
M  V30 4983 C 479.389 0.837928 -1.37242 0
M  V30 4984 O 480.579 0.693001 -1.59822 0
M  V30 4985 C 477.711 1.25223 -3.17068 0
M  V30 4986 H 478.904 -0.542401 -2.94954 0
M  V30 4987 H 476.457 -0.319493 -1.53 0
M  V30 4988 H 477.192 1.99892 -2.55369 0
M  V30 4989 H 476.977 0.779515 -3.84273 0
M  V30 4990 H 478.467 1.76791 -3.78332 0
M  V30 4991 N 478.904 1.54736 -0.299062 0
M  V30 4992 C 479.814 2.27127 0.587413 0
M  V30 4993 C 480.83 1.30575 1.15005 0
M  V30 4994 O 482.006 1.63554 1.17525 0
M  V30 4995 C 479.071 2.99645 1.74395 0
M  V30 4996 C 478.132 4.11731 1.21559 0
M  V30 4997 C 477.365 4.80781 2.317 0
M  V30 4998 O 477.588 4.4918 3.51558 0
M  V30 4999 O 476.522 5.68226 1.98501 0
M  V30 5000 H 480.348 3.037 0.000250109 0
M  V30 5001 H 477.933 1.49256 -0.0655919 0
M  V30 5002 H 479.815 3.45138 2.4178 0
M  V30 5003 H 478.49 2.25969 2.31775 0
M  V30 5004 H 477.397 3.70641 0.507514 0
M  V30 5005 H 478.73 4.87379 0.687233 0
M  V30 5006 N 480.382 0.0267497 1.57577 0
M  V30 5007 C 481.312 -0.954308 2.13108 0
M  V30 5008 C 482.293 -1.34088 1.04663 0
M  V30 5009 O 483.478 -1.41992 1.32484 0
M  V30 5010 C 480.608 -2.23744 2.65624 0
M  V30 5011 C 479.562 -1.99168 3.78835 0
M  V30 5012 C 478.888 -3.33726 4.17769 0
M  V30 5013 C 480.188 -1.33277 5.0501 0
M  V30 5014 H 481.882 -0.491848 2.95332 0
M  V30 5015 H 479.428 -0.23514 1.42067 0
M  V30 5016 H 481.381 -2.92754 3.03106 0
M  V30 5017 H 480.105 -2.72151 1.80558 0
M  V30 5018 H 478.764 -1.32577 3.41788 0
M  V30 5019 H 478.412 -3.79888 3.29688 0
M  V30 5020 H 478.112 -3.18089 4.94058 0
M  V30 5021 H 479.636 -4.04008 4.57832 0
M  V30 5022 H 481.05 -1.92283 5.40093 0
M  V30 5023 H 479.447 -1.28045 5.8628 0
M  V30 5024 H 480.517 -0.305411 4.83937 0
M  V30 5025 N 481.861 -1.55662 -0.24637 0
M  V30 5026 C 482.824 -1.89558 -1.28842 0
M  V30 5027 C 483.824 -0.772082 -1.41052 0
M  V30 5028 O 485.014 -1.04007 -1.39743 0
M  V30 5029 C 482.146 -2.12449 -2.66605 0
M  V30 5030 H 483.339 -2.82735 -1.00004 0
M  V30 5031 H 480.892 -1.48562 -0.485684 0
M  V30 5032 H 481.627 -1.21742 -3.00582 0
M  V30 5033 H 481.412 -2.94273 -2.59125 0
M  V30 5034 H 482.902 -2.39854 -3.41847 0
M  V30 5035 N 483.339 0.512053 -1.4905 0
M  V30 5036 C 484.755 0.84224 -1.35567 0
M  V30 5037 C 484.955 1.97878 -0.380319 0
M  V30 5038 O 484.011 2.51769 0.19201 0
M  V30 5039 C 485.324 1.19286 -2.76028 0
M  V30 5040 C 486.872 1.30171 -2.84648 0
M  V30 5041 C 487.347 1.68568 -4.25851 0
M  V30 5042 N 488.838 1.75638 -4.28609 0
M  V30 5043 C 489.573 2.06769 -5.34821 0
M  V30 5044 N 489.069 2.36201 -6.51292 0
M  V30 5045 N 490.862 2.07927 -5.22229 0
M  V30 5046 H 483.013 -0.237574 -2.11067 0
M  V30 5047 H 485.276 -0.0436747 -0.946993 0
M  V30 5048 H 484.982 0.431199 -3.49047 0
M  V30 5049 H 484.856 2.13889 -3.10695 0
M  V30 5050 H 487.243 2.05411 -2.11873 0
M  V30 5051 H 487.324 0.336457 -2.53578 0
M  V30 5052 H 486.968 0.938824 -4.99148 0
M  V30 5053 H 486.898 2.66174 -4.54377 0
M  V30 5054 H 489.389 1.55097 -3.44606 0
M  V30 5055 H 489.702 2.59112 -7.28066 0
M  V30 5056 H 488.047 2.33681 -6.54536 0
M  V30 5057 H 491.238 1.84403 -4.30248 0
M  V30 5058 H 491.411 2.31856 -6.05101 0
M  V30 5059 N 484.817 1.37938 0.762283 0
M  V30 5060 C 485.764 1.34467 1.87583 0
M  V30 5061 C 486.734 0.208633 1.64785 0
M  V30 5062 O 487.919 0.399494 1.86571 0
M  V30 5063 C 485.059 1.16692 3.24772 0
M  V30 5064 C 484.172 2.39608 3.59461 0
M  V30 5065 C 483.307 2.14631 4.85908 0
M  V30 5066 C 482.346 3.33364 5.13357 0
M  V30 5067 N 481.483 3.07877 6.30996 0
M  V30 5068 H 486.323 2.29669 1.89885 0
M  V30 5069 H 483.86 1.14116 0.928219 0
M  V30 5070 H 485.818 1.04405 4.03925 0
M  V30 5071 H 484.448 0.251333 3.2182 0
M  V30 5072 H 483.5 2.626 2.75219 0
M  V30 5073 H 484.812 3.28128 3.75678 0
M  V30 5074 H 483.966 1.99429 5.72986 0
M  V30 5075 H 482.705 1.23463 4.71814 0
M  V30 5076 H 481.71 3.49094 4.24751 0
M  V30 5077 H 482.935 4.25395 5.29354 0
M  V30 5078 H 480.881 2.19348 6.18241 0
M  V30 5079 H 480.798 3.89944 6.47673 0
M  V30 5080 H 482.066 2.96313 7.20985 0
M  V30 5081 N 486.295 -0.989507 1.22664 0
M  V30 5082 C 487.258 -2.06183 1.00106 0
M  V30 5083 C 488.258 -1.60765 -0.0337726 0
M  V30 5084 O 489.448 -1.72989 0.205072 0
M  V30 5085 C 486.58 -3.37021 0.51279 0
M  V30 5086 H 487.773 -2.27629 1.95256 0
M  V30 5087 H 485.326 -1.16158 1.0458 0
M  V30 5088 H 486.061 -3.21261 -0.442917 0
M  V30 5089 H 485.846 -3.71323 1.25942 0
M  V30 5090 H 487.336 -4.1591 0.375315 0
M  V30 5091 N 487.773 -1.03688 -1.18687 0
M  V30 5092 C 489.021 -0.736572 -1.88199 0
M  V30 5093 C 489.342 0.737665 -1.80509 0
M  V30 5094 O 488.612 1.53204 -1.22088 0
M  V30 5095 H 487.192 -0.269466 -0.696704 0
M  V30 5096 H 489.854 -1.31282 -1.44052 0
M  V30 5097 H 488.95 -1.03802 -2.94332 0
M  V30 5098 N 489.251 1.34841 -0.815825 0
M  V30 5099 C 490.491 2.00321 -0.406297 0
M  V30 5100 C 490.855 1.63293 1.00992 0
M  V30 5101 O 492.056 2.21563 1.52195 0
M  V30 5102 C 490.327 3.52421 -0.594469 0
M  V30 5103 S 491.886 4.37926 -0.276735 0
M  V30 5104 H 488.704 0.694155 -0.153848 0
M  V30 5105 H 491.306 1.64263 -1.06009 0
M  V30 5106 H 490.01 3.76858 -1.625 0
M  V30 5107 H 489.541 3.9333 0.0743157 0
M  V30 5108 H 491.556 4.87743 0.912215 0
M  V30 5109 N 490.729 0.570148 1.46925 0
M  V30 5110 C 491.676 -0.170257 2.30171 0
M  V30 5111 C 492.646 -0.896099 1.39855 0
M  V30 5112 O 493.831 -0.889248 1.68811 0
M  V30 5113 C 490.971 -1.18605 3.24079 0
M  V30 5114 C 490.084 -0.464947 4.29491 0
M  V30 5115 C 489.219 -1.46716 5.10537 0
M  V30 5116 C 488.258 -0.731758 6.0771 0
M  V30 5117 N 487.395 -1.68142 6.81669 0
M  V30 5118 H 492.235 0.545713 2.92961 0
M  V30 5119 H 489.772 0.280938 1.44392 0
M  V30 5120 H 491.73 -1.78771 3.76957 0
M  V30 5121 H 490.36 -1.86989 2.63125 0
M  V30 5122 H 489.412 0.251506 3.79568 0
M  V30 5123 H 490.724 0.110548 4.98677 0
M  V30 5124 H 489.878 -2.14199 5.6763 0
M  V30 5125 H 488.617 -2.07658 4.41282 0
M  V30 5126 H 487.622 -0.0430787 5.49783 0
M  V30 5127 H 488.847 -0.127904 6.7898 0
M  V30 5128 H 486.793 -2.27918 6.15134 0
M  V30 5129 H 486.71 -1.15841 7.47072 0
M  V30 5130 H 487.978 -2.347 7.43328 0
M  V30 5131 N 492.207 -1.54576 0.307264 0
M  V30 5132 C 493.137 -2.26708 -0.55907 0
M  V30 5133 C 494.118 -1.26893 -1.1328 0
M  V30 5134 O 495.303 -1.55677 -1.16097 0
M  V30 5135 C 492.433 -3.01259 -1.72801 0
M  V30 5136 C 491.387 -4.08275 -1.28435 0
M  V30 5137 C 490.713 -4.70575 -2.53895 0
M  V30 5138 C 492.013 -5.2068 -0.411038 0
M  V30 5139 H 493.707 -2.9937 0.042576 0
M  V30 5140 H 491.253 -1.43983 0.0219173 0
M  V30 5141 H 493.206 -3.50444 -2.34023 0
M  V30 5142 H 491.93 -2.26187 -2.356 0
M  V30 5143 H 490.589 -3.59949 -0.695161 0
M  V30 5144 H 490.237 -3.92136 -3.15021 0
M  V30 5145 H 489.937 -5.42854 -2.24908 0
M  V30 5146 H 491.461 -5.22527 -3.15908 0
M  V30 5147 H 492.875 -5.65721 -0.929097 0
M  V30 5148 H 491.272 -5.99716 -0.214664 0
M  V30 5149 H 492.342 -4.81629 0.562287 0
M  V30 5150 N 493.685 -0.035106 -1.57561 0
M  V30 5151 C 494.913 0.652258 -1.9635 0
M  V30 5152 C 495.328 1.65317 -0.911897 0
M  V30 5153 O 494.685 1.82194 0.105657 0
M  V30 5154 C 494.736 1.35337 -3.35211 0
M  V30 5155 O 494.457 0.392548 -4.36338 0
M  V30 5156 C 495.958 2.13199 -3.88666 0
M  V30 5157 H 493.178 0.179444 -0.646561 0
M  V30 5158 H 495.722 -0.0966459 -2.04271 0
M  V30 5159 H 493.877 2.05362 -3.28489 0
M  V30 5160 H 494.291 0.891097 -5.16875 0
M  V30 5161 H 495.765 2.577 -4.88154 0
M  V30 5162 H 496.242 2.97353 -3.23231 0
M  V30 5163 H 496.848 1.48118 -3.98674 0
M  V30 5164 N 495.163 1.55791 0.238111 0
M  V30 5165 C 496.412 1.77234 0.962868 0
M  V30 5166 C 496.725 0.600661 1.86149 0
M  V30 5167 O 497.931 0.698315 2.62366 0
M  V30 5168 C 496.387 3.13808 1.76218 0
M  V30 5169 C 495.995 4.3865 0.910518 0
M  V30 5170 C 497.739 3.44585 2.47914 0
M  V30 5171 C 495.646 5.66252 1.70623 0
M  V30 5172 H 494.576 0.660731 0.36325 0
M  V30 5173 H 497.227 1.8221 0.217242 0
M  V30 5174 H 495.609 3.02963 2.55009 0
M  V30 5175 H 496.783 4.60507 0.164316 0
M  V30 5176 H 495.098 4.15271 0.30647 0
M  V30 5177 H 497.695 4.3714 3.07917 0
M  V30 5178 H 498.038 2.66314 3.19973 0
M  V30 5179 H 498.571 3.56685 1.76127 0
M  V30 5180 H 495.31 6.47369 1.02923 0
M  V30 5181 H 494.83 5.48483 2.42748 0
M  V30 5182 H 496.509 6.05829 2.27114 0
M  V30 5183 N 496.642 -0.504142 1.49319 0
M  V30 5184 C 497.882 -1.26867 1.60263 0
M  V30 5185 C 498.246 -1.89924 0.281578 0
M  V30 5186 O 499.447 -2.67479 0.266176 0
M  V30 5187 C 497.718 -2.30956 2.72753 0
M  V30 5188 S 499.277 -3.1679 3.03628 0
M  V30 5189 H 496.095 -0.431198 0.565322 0
M  V30 5190 H 498.697 -0.571407 1.86963 0
M  V30 5191 H 497.401 -1.83156 3.67263 0
M  V30 5192 H 496.932 -3.05356 2.48035 0
M  V30 5193 H 498.947 -4.31549 2.44908 0
M  V30 5194 N 498.12 -1.38341 -0.754957 0
M  V30 5195 C 499.531 -1.30803 -1.3322 0
M  V30 5196 C 499.882 0.0368 -1.96165 0
M  V30 5197 O 499.007 0.938844 -1.94974 0
M  V30 5198 C 499.602 -2.3688 -2.42225 0
M  V30 5199 C 498.161 -2.32925 -2.95674 0
M  V30 5200 C 497.308 -2.19819 -1.69042 0
M  V30 5201 H 500.259 -1.48719 -0.553937 0
M  V30 5202 H 500.28 -2.02517 -3.22129 0
M  V30 5203 H 499.792 -3.34747 -1.96383 0
M  V30 5204 H 497.893 -1.38635 -3.45848 0
M  V30 5205 H 498.006 -3.27008 -3.50146 0
M  V30 5206 H 496.37 -1.66648 -1.92615 0
M  V30 5207 H 497.153 -3.19625 -1.25279 0
M  V30 5208 N 499.598 0.982988 -1.23187 0
M  V30 5209 C 500.53 2.07729 -0.968572 0
M  V30 5210 C 501.543 1.62702 0.0564821 0
M  V30 5211 O 502.732 1.77603 -0.178733 0
M  V30 5212 C 499.832 3.36071 -0.436974 0
M  V30 5213 C 499.005 4.10081 -1.52159 0
M  V30 5214 C 498.064 5.16701 -0.99532 0
M  V30 5215 O 497.09 5.43727 -1.68373 0
M  V30 5216 N 498.292 5.80226 0.178192 0
M  V30 5217 H 501.057 2.30894 -1.9107 0
M  V30 5218 H 498.618 1.14949 -1.1401 0
M  V30 5219 H 500.61 4.04639 -0.0700051 0
M  V30 5220 H 499.18 3.09893 0.410509 0
M  V30 5221 H 498.4 3.36004 -2.06144 0
M  V30 5222 H 499.688 4.56295 -2.25105 0
M  V30 5223 H 499.086 5.60651 0.754096 0
M  V30 5224 H 497.643 6.49982 0.486449 0
M  V30 5225 N 501.076 1.04316 1.18135 0
M  V30 5226 C 502.039 0.640794 2.2006 0
M  V30 5227 C 503.039 -0.303124 1.57917 0
M  V30 5228 O 504.229 -0.0881855 1.73977 0
M  V30 5229 C 501.361 -0.060148 3.40847 0
M  V30 5230 H 502.554 1.54281 2.57172 0
M  V30 5231 H 500.107 0.836004 1.32063 0
M  V30 5232 H 500.842 -0.975845 3.0927 0
M  V30 5233 H 500.627 0.618319 3.87194 0
M  V30 5234 H 502.117 -0.328082 4.16309 0
M  V30 5235 N 502.554 -1.34406 0.822964 0
M  V30 5236 C 503.464 -2.33298 0.246838 0
M  V30 5237 C 504.48 -1.62625 -0.618797 0
M  V30 5238 O 505.656 -1.94391 -0.526685 0
M  V30 5239 C 502.721 -3.41785 -0.581731 0
M  V30 5240 C 501.782 -4.28206 0.306309 0
M  V30 5241 C 501.015 -5.31512 -0.48281 0
M  V30 5242 O 501.238 -5.43973 -1.71607 0
M  V30 5243 O 500.172 -6.01749 0.134884 0
M  V30 5244 H 503.998 -2.84401 1.06534 0
M  V30 5245 H 501.583 -1.37466 0.585108 0
M  V30 5246 H 503.465 -4.08028 -1.05313 0
M  V30 5247 H 502.14 -2.92925 -1.37756 0
M  V30 5248 H 501.047 -3.64885 0.825199 0
M  V30 5249 H 502.38 -4.80507 1.06649 0
M  V30 5250 N 504.032 -0.577932 -1.46621 0
M  V30 5251 C 504.98 0.170882 -2.31971 0
M  V30 5252 C 505.974 0.889086 -1.44193 0
M  V30 5253 O 507.18 0.808017 -1.60845 0
M  V30 5254 H 503.555 0.0739763 -0.748353 0
M  V30 5255 H 505.526 -0.567856 -2.92947 0
M  V30 5256 C 504.275 1.17438 -3.27267 0
M  V30 5257 H 503.598 0.63116 -3.94787 0
M  V30 5258 H 505.038 1.66882 -3.89778 0
M  V30 5259 C 503.497 2.23292 -2.52274 0
M  V30 5260 O 504.027 3.30567 -2.28229 0
M  V30 5261 N 502.233 1.97772 -2.12919 0
M  V30 5262 H 501.78 1.10545 -2.32675 0
M  V30 5263 H 501.738 2.68809 -1.63062 0
M  V30 5264 N 505.51 1.54411 -0.315457 0
M  V30 5265 C 506.926 1.59556 0.037464 0
M  V30 5266 C 507.126 1.33217 1.5118 0
M  V30 5267 O 506.182 1.11264 2.26664 0
M  V30 5268 C 507.495 2.98372 -0.373477 0
M  V30 5269 C 509.043 3.11324 -0.323452 0
M  V30 5270 C 509.518 4.52472 -0.709433 0
M  V30 5271 N 511.009 4.58437 -0.662524 0
M  V30 5272 C 511.744 5.65751 -0.933474 0
M  V30 5273 N 511.24 6.81039 -1.27114 0
M  V30 5274 N 513.033 5.55489 -0.859573 0
M  V30 5275 H 505.184 1.6979 -1.27614 0
M  V30 5276 H 507.447 0.793732 -0.518356 0
M  V30 5277 H 507.153 3.22618 -1.40037 0
M  V30 5278 H 507.027 3.76264 0.265615 0
M  V30 5279 H 509.414 2.86818 0.694223 0
M  V30 5280 H 509.495 2.35555 -0.997367 0
M  V30 5281 H 509.139 4.7771 -1.72498 0
M  V30 5282 H 509.069 5.26598 -0.0132923 0
M  V30 5283 H 511.56 3.75636 -0.413065 0
M  V30 5284 H 511.873 7.58816 -1.46348 0
M  V30 5285 H 510.218 6.82555 -1.30932 0
M  V30 5286 H 513.409 4.64299 -0.595324 0
M  V30 5287 H 513.582 6.39036 -1.0741 0
M  V30 5288 N 506.988 0.0434614 1.5754 0
M  V30 5289 C 507.936 -0.951465 2.1225 0
M  V30 5290 C 508.93 -1.3274 1.05245 0
M  V30 5291 O 510.136 -1.30795 1.23663 0
M  V30 5292 H 506.511 -0.324667 0.678303 0
M  V30 5293 H 508.482 -0.464855 2.94757 0
M  V30 5294 C 507.231 -2.21972 2.67626 0
M  V30 5295 H 506.554 -1.93923 3.4962 0
M  V30 5296 H 507.994 -2.89765 3.09536 0
M  V30 5297 C 506.453 -2.95919 1.61038 0
M  V30 5298 O 506.983 -3.8857 1.01862 0
M  V30 5299 N 505.189 -2.58511 1.32741 0
M  V30 5300 H 504.736 -1.83244 1.81051 0
M  V30 5301 H 504.694 -3.08296 0.616531 0
M  V30 5302 N 508.466 -1.55915 -0.229846 0
M  V30 5303 C 509.743 -1.6932 -0.979295 0
M  V30 5304 C 510.123 -0.588321 -2.02736 0
M  V30 5305 O 509.471 0.40586 -2.24867 0
M  V30 5306 C 509.681 -3.10305 -1.59724 0
M  V30 5307 C 511.029 -3.6945 -2.09264 0
M  V30 5308 O 512.053 -3.13214 -1.69633 0
M  V30 5309 O 510.912 -4.68072 -2.82082 0
M  V30 5310 H 508.006 -0.689314 -0.456919 0
M  V30 5311 H 510.552 -1.68238 -0.222283 0
M  V30 5312 H 509.324 -3.82177 -0.840039 0
M  V30 5313 H 508.947 -3.1547 -2.42001 0
M  V30 5314 N 509.944 0.496216 -1.49584 0
M  V30 5315 C 511.36 0.827814 -1.36453 0
M  V30 5316 C 511.56 1.97464 -0.401285 0
M  V30 5317 O 510.616 2.51958 0.165296 0
M  V30 5318 C 511.929 1.16352 -2.77277 0
M  V30 5319 C 513.477 1.27145 -2.86013 0
M  V30 5320 C 513.952 1.64042 -4.27615 0
M  V30 5321 N 515.443 1.71082 -4.30448 0
M  V30 5322 C 516.178 2.01085 -5.36984 0
M  V30 5323 N 515.674 2.2928 -6.5376 0
M  V30 5324 N 517.467 2.02376 -5.24405 0
M  V30 5325 H 509.618 -0.259947 -2.10803 0
M  V30 5326 H 511.881 -0.0537163 -0.946477 0
M  V30 5327 H 511.587 0.394153 -3.49484 0
M  V30 5328 H 511.461 2.10582 -3.12946 0
M  V30 5329 H 513.848 2.03152 -2.1404 0
M  V30 5330 H 513.929 0.309542 -2.5392 0
M  V30 5331 H 513.573 0.88583 -5.00115 0
M  V30 5332 H 513.503 2.6134 -4.57175 0
M  V30 5333 H 515.994 1.51434 -3.46232 0
M  V30 5334 H 516.307 2.51376 -7.30774 0
M  V30 5335 H 514.652 2.26726 -6.56978 0
M  V30 5336 H 517.843 1.79829 -4.32179 0
M  V30 5337 H 518.016 2.25425 -6.07526 0
M  V30 5338 N 511.423 1.38739 0.74761 0
M  V30 5339 C 512.669 1.3648 1.50814 0
M  V30 5340 C 513.024 -0.0431982 1.92351 0
M  V30 5341 O 512.317 -1.0071 1.62997 0
M  V30 5342 C 512.511 2.25992 2.7688 0
M  V30 5343 C 512.34 3.75354 2.47668 0
M  V30 5344 C 511.11 4.44348 2.40589 0
M  V30 5345 C 513.308 4.67642 2.14046 0
M  V30 5346 N 511.29 5.79114 2.03715 0
M  V30 5347 C 512.661 5.90965 1.87512 0
M  V30 5348 C 514.716 4.55787 2.00407 0
M  V30 5349 C 513.419 7.03759 1.48714 0
M  V30 5350 C 515.445 5.68491 1.63011 0
M  V30 5351 C 514.807 6.90879 1.37353 0
M  V30 5352 H 510.906 0.554695 0.551214 0
M  V30 5353 H 513.49 1.7418 0.870033 0
M  V30 5354 H 511.661 1.9047 3.3849 0
M  V30 5355 H 513.393 2.14815 3.42982 0
M  V30 5356 H 510.148 3.97634 2.57262 0
M  V30 5357 H 510.572 6.504 1.87906 0
M  V30 5358 H 515.214 3.61712 2.18916 0
M  V30 5359 H 512.932 7.97746 1.28945 0
M  V30 5360 H 516.518 5.613 1.53081 0
M  V30 5361 H 515.398 7.76609 1.08848 0
M  V30 5362 N 512.901 -0.976442 1.23707 0
M  V30 5363 C 514.15 -1.71254 1.06559 0
M  V30 5364 C 514.463 -1.91528 -0.397024 0
M  V30 5365 O 515.669 -2.62625 -0.688518 0
M  V30 5366 C 514.125 -3.08207 1.8584 0
M  V30 5367 C 513.733 -2.95806 3.36456 0
M  V30 5368 C 515.477 -3.85749 1.77194 0
M  V30 5369 C 513.384 -4.28015 4.08114 0
M  V30 5370 H 512.314 -0.642171 0.395136 0
M  V30 5371 H 514.965 -1.08877 1.4771 0
M  V30 5372 H 513.347 -3.71363 1.37498 0
M  V30 5373 H 514.521 -2.41716 3.92314 0
M  V30 5374 H 512.836 -2.31736 3.45959 0
M  V30 5375 H 515.433 -4.83633 2.28041 0
M  V30 5376 H 515.776 -4.09752 0.735477 0
M  V30 5377 H 516.309 -3.29303 2.23169 0
M  V30 5378 H 513.048 -4.09208 5.12083 0
M  V30 5379 H 512.568 -4.81955 3.57043 0
M  V30 5380 H 514.247 -4.96681 4.14629 0
M  V30 5381 N 514.379 -1.04941 -1.1758 0
M  V30 5382 C 515.311 -0.606174 -2.21039 0
M  V30 5383 C 516.324 0.328763 -1.59446 0
M  V30 5384 O 517.513 0.121895 -1.78083 0
M  V30 5385 C 514.613 0.133294 -3.38638 0
M  V30 5386 C 513.786 -0.811711 -4.29802 0
M  V30 5387 C 512.845 -0.113958 -5.26077 0
M  V30 5388 O 511.871 -0.747237 -5.64274 0
M  V30 5389 N 513.073 1.14953 -5.69004 0
M  V30 5390 H 515.838 -1.49606 -2.59689 0
M  V30 5391 H 513.399 -0.930997 -1.32454 0
M  V30 5392 H 515.391 0.610144 -4.00074 0
M  V30 5393 H 513.961 0.924816 -2.98607 0
M  V30 5394 H 513.181 -1.46824 -3.65837 0
M  V30 5395 H 514.469 -1.45326 -4.87604 0
M  V30 5396 H 513.867 1.68441 -5.40041 0
M  V30 5397 H 512.424 1.57049 -6.32597 0
M  V30 5398 N 515.857 1.33968 -0.830081 0
M  V30 5399 C 517.134 1.92554 -0.343858 0
M  V30 5400 C 517.514 1.7573 1.16971 0
M  V30 5401 O 516.862 1.14035 1.98011 0
M  V30 5402 C 517.072 3.40147 -0.781073 0
M  V30 5403 C 518.42 4.17299 -0.78402 0
M  V30 5404 O 519.444 3.48762 -0.724112 0
M  V30 5405 O 518.303 5.39631 -0.863739 0
M  V30 5406 H 515.397 0.821469 -0.0954827 0
M  V30 5407 H 517.943 1.42897 -0.915348 0
M  V30 5408 H 516.715 3.46225 -1.82329 0
M  V30 5409 H 516.338 3.97166 -0.18567 0
M  V30 5410 N 517.335 0.585699 1.46312 0
M  V30 5411 C 518.245 -0.148236 2.34131 0
M  V30 5412 C 519.261 -0.882972 1.49932 0
M  V30 5413 O 520.437 -0.845484 1.82794 0
M  V30 5414 C 517.502 -1.14714 3.27172 0
M  V30 5415 C 516.563 -0.416746 4.27272 0
M  V30 5416 C 515.796 -1.36806 5.15868 0
M  V30 5417 O 516.019 -2.60475 5.07454 0
M  V30 5418 O 514.953 -0.877018 5.95476 0
M  V30 5419 H 518.779 0.572882 2.98248 0
M  V30 5420 H 516.364 0.346082 1.45336 0
M  V30 5421 H 518.246 -1.72303 3.84564 0
M  V30 5422 H 516.921 -1.84967 2.65648 0
M  V30 5423 H 515.828 0.201061 3.73559 0
M  V30 5424 H 517.161 0.244872 4.9159 0
M  V30 5425 N 518.813 -1.54241 0.323641 0
M  V30 5426 C 519.746 -2.20579 -0.584833 0
M  V30 5427 C 520.724 -1.18286 -1.11567 0
M  V30 5428 O 521.908 -1.47025 -1.17966 0
M  V30 5429 C 519.035 -2.86754 -1.80249 0
M  V30 5430 C 518.081 -4.02767 -1.4029 0
M  V30 5431 S 518.914 -5.33693 -0.439539 0
M  V30 5432 C 520.07 -6.03362 -1.66448 0
M  V30 5433 H 520.303 -2.97292 -0.0213238 0
M  V30 5434 H 517.836 -1.54024 0.107726 0
M  V30 5435 H 519.794 -3.25503 -2.50116 0
M  V30 5436 H 518.455 -2.09844 -2.33719 0
M  V30 5437 H 517.648 -4.47933 -2.31024 0
M  V30 5438 H 517.25 -3.65692 -0.783928 0
M  V30 5439 H 519.542 -6.25546 -2.6019 0
M  V30 5440 H 520.485 -6.9689 -1.25498 0
M  V30 5441 H 520.893 -5.33273 -1.85149 0
M  V30 5442 N 520.291 -0.0518155 -1.57515 0
M  V30 5443 C 521.201 0.937539 -2.15052 0
M  V30 5444 C 522.217 1.34121 -1.10849 0
M  V30 5445 O 523.393 1.418 -1.4302 0
M  V30 5446 C 520.458 2.19379 -2.68466 0
M  V30 5447 C 519.519 1.84841 -3.87469 0
M  V30 5448 C 518.752 3.04477 -4.38326 0
M  V30 5449 O 518.975 4.17868 -3.88256 0
M  V30 5450 O 517.909 2.85453 -5.29906 0
M  V30 5451 H 521.735 0.478201 -2.99912 0
M  V30 5452 H 519.32 0.17012 -1.48428 0
M  V30 5453 H 521.202 2.93084 -3.02787 0
M  V30 5454 H 519.877 2.64449 -1.86677 0
M  V30 5455 H 518.784 1.08449 -3.58036 0
M  V30 5456 H 520.117 1.44569 -4.7049 0
M  V30 5457 N 521.769 1.56035 0.221574 0
M  V30 5458 C 522.699 1.95434 1.2778 0
M  V30 5459 C 523.68 0.822564 1.48889 0
M  V30 5460 O 524.865 1.08486 1.61072 0
M  V30 5461 C 521.995 2.27102 2.62759 0
M  V30 5462 C 520.949 3.4277 2.56306 0
M  V30 5463 C 520.275 3.60043 3.95314 0
M  V30 5464 C 521.575 4.77742 2.11093 0
M  V30 5465 H 523.269 2.83912 0.950504 0
M  V30 5466 H 520.815 1.36596 0.455791 0
M  V30 5467 H 522.768 2.53256 3.36807 0
M  V30 5468 H 521.492 1.35478 2.97176 0
M  V30 5469 H 520.151 3.16664 1.84715 0
M  V30 5470 H 519.799 2.65794 4.27039 0
M  V30 5471 H 519.499 4.37841 3.91879 0
M  V30 5472 H 521.023 3.88545 4.71025 0
M  V30 5473 H 522.437 5.03102 2.74885 0
M  V30 5474 H 520.834 5.58823 2.18716 0
M  V30 5475 H 521.904 4.731 1.06321 0
M  V30 5476 N 523.247 -0.488276 1.49845 0
M  V30 5477 C 524.495 -1.23911 1.59657 0
M  V30 5478 C 524.816 -1.92816 0.291005 0
M  V30 5479 O 524.086 -1.83328 -0.690485 0
M  V30 5480 H 522.666 -0.460357 0.588286 0
M  V30 5481 H 525.328 -0.564794 1.86537 0
M  V30 5482 H 524.424 -1.99625 2.39909 0
M  V30 5483 N 524.725 -1.39134 -0.740242 0
M  V30 5484 C 525.955 -1.39132 -1.52728 0
M  V30 5485 C 526.363 0.0173133 -1.89192 0
M  V30 5486 O 525.706 0.997715 -1.54244 0
M  V30 5487 C 525.768 -2.1952 -2.84695 0
M  V30 5488 C 525.432 -3.68203 -2.70695 0
M  V30 5489 C 526.429 -4.61401 -2.39593 0
M  V30 5490 C 524.114 -4.11724 -2.8773 0
M  V30 5491 C 526.108 -5.96102 -2.25701 0
M  V30 5492 C 523.795 -5.46503 -2.73456 0
M  V30 5493 C 524.793 -6.38506 -2.42486 0
M  V30 5494 O 524.481 -7.70803 -2.28295 0
M  V30 5495 H 524.213 -0.477263 -0.478744 0
M  V30 5496 H 526.767 -1.83504 -0.922799 0
M  V30 5497 H 524.997 -1.69888 -3.47383 0
M  V30 5498 H 526.686 -2.1176 -3.46284 0
M  V30 5499 H 527.452 -4.29079 -2.26088 0
M  V30 5500 H 523.331 -3.4045 -3.10829 0
M  V30 5501 H 526.875 -6.6788 -2.0145 0
M  V30 5502 H 522.772 -5.78417 -2.86538 0
M  V30 5503 H 523.54 -7.8147 -2.43405 0
M  V30 5504 N 526.204 0.969867 -1.24223 0
M  V30 5505 C 527.45 1.7151 -1.08223 0
M  V30 5506 C 527.783 1.90478 0.37838 0
M  V30 5507 O 527.058 1.4647 1.27971 0
M  V30 5508 C 527.341 3.10714 -1.82013 0
M  V30 5509 C 527.194 2.9925 -3.35811 0
M  V30 5510 C 528.513 4.10332 -1.59108 0
M  V30 5511 H 525.632 0.622499 -0.394543 0
M  V30 5512 H 528.274 1.1284 -1.52863 0
M  V30 5513 H 526.424 3.608 -1.44068 0
M  V30 5514 H 528.096 2.56608 -3.83341 0
M  V30 5515 H 526.339 2.35512 -3.64303 0
M  V30 5516 H 527.01 3.97857 -3.82641 0
M  V30 5517 H 529.486 3.69097 -1.92111 0
M  V30 5518 H 528.362 5.05804 -2.13198 0
M  V30 5519 H 528.623 4.38926 -0.528832 0
M  V30 5520 N 527.682 1.05563 1.17022 0
M  V30 5521 C 528.614 0.617888 2.20714 0
M  V30 5522 C 529.627 -0.320303 1.59618 0
M  V30 5523 O 530.816 -0.112449 1.78145 0
M  V30 5524 C 527.916 -0.115333 3.38704 0
M  V30 5525 C 527.089 0.834493 4.29366 0
M  V30 5526 C 526.148 0.141855 5.26009 0
M  V30 5527 O 525.174 0.777151 5.6387 0
M  V30 5528 N 526.376 -1.11934 5.69606 0
M  V30 5529 H 529.141 1.50981 2.58892 0
M  V30 5530 H 526.702 0.938008 1.31958 0
M  V30 5531 H 528.694 -0.588918 4.00392 0
M  V30 5532 H 527.264 -0.908967 2.99093 0
M  V30 5533 H 526.484 1.48762 3.65053 0
M  V30 5534 H 527.772 1.4791 4.86827 0
M  V30 5535 H 527.17 -1.65574 5.40927 0
M  V30 5536 H 525.727 -1.53692 6.33421 0
M  V30 5537 N 529.16 -1.33526 0.837174 0
M  V30 5538 C 530.123 -2.27551 0.274421 0
M  V30 5539 C 531.123 -1.50886 -0.555881 0
M  V30 5540 O 532.313 -1.70227 -0.369918 0
M  V30 5541 C 529.445 -3.35332 -0.613605 0
M  V30 5542 H 530.638 -2.78837 1.10408 0
M  V30 5543 H 528.191 -1.439 0.610126 0
M  V30 5544 H 528.926 -2.89285 -1.46577 0
M  V30 5545 H 528.711 -3.92095 -0.0195341 0
M  V30 5546 H 530.201 -4.05433 -1.00068 0
M  V30 5547 N 530.638 -0.59345 -1.46 0
M  V30 5548 C 532.049 -0.169801 -1.85926 0
M  V30 5549 C 532.4 1.26984 -1.49565 0
M  V30 5550 O 531.525 1.96076 -0.915602 0
M  V30 5551 C 532.12 -0.301385 -3.37457 0
M  V30 5552 C 530.679 0.0674684 -3.7634 0
M  V30 5553 C 529.826 -0.632383 -2.69993 0
M  V30 5554 H 532.777 -0.801014 -1.37002 0
M  V30 5555 H 532.798 0.470331 -3.77582 0
M  V30 5556 H 532.31 -1.34927 -3.63891 0
M  V30 5557 H 530.411 1.11507 -3.55523 0
M  V30 5558 H 530.524 -0.316332 -4.78055 0
M  V30 5559 H 528.888 -0.0714961 -2.546 0
M  V30 5560 H 529.671 -1.68212 -2.99265 0
M  V30 5561 N 532.116 1.54067 -0.331816 0
M  V30 5562 C 533.066 2.21363 0.546101 0
M  V30 5563 C 534.05 1.19698 1.07523 0
M  V30 5564 O 535.242 1.45293 1.01088 0
M  V30 5565 C 532.371 2.98115 1.70242 0
M  V30 5566 C 531.457 4.07127 1.18779 0
M  V30 5567 N 531.848 5.04267 0.393465 0
M  V30 5568 C 530.146 4.21226 1.46576 0
M  V30 5569 C 530.847 5.81585 0.115572 0
M  V30 5570 N 529.823 5.39022 0.703987 0
M  V30 5571 H 533.625 2.93821 -0.0679751 0
M  V30 5572 H 531.139 1.61812 -0.138085 0
M  V30 5573 H 533.136 3.44818 2.34321 0
M  V30 5574 H 531.796 2.27181 2.31989 0
M  V30 5575 H 532.807 5.17888 0.0355757 0
M  V30 5576 H 529.484 3.61509 2.08848 0
M  V30 5577 H 530.874 6.6985 -0.524426 0
M  V30 5578 N 533.594 0.0601682 1.57485 0
M  V30 5579 C 534.541 -0.91112 2.12055 0
M  V30 5580 C 535.511 -1.30298 1.03013 0
M  V30 5581 O 536.696 -1.39087 1.30612 0
M  V30 5582 C 533.836 -2.1775 2.67729 0
M  V30 5583 C 532.949 -1.83933 3.90887 0
M  V30 5584 C 532.084 -3.05096 4.34845 0
M  V30 5585 C 531.123 -2.67241 5.5068 0
M  V30 5586 N 530.26 -3.81127 5.8965 0
M  V30 5587 H 535.1 -0.43888 2.9475 0
M  V30 5588 H 532.637 -0.204995 1.45665 0
M  V30 5589 H 534.595 -2.91866 2.98111 0
M  V30 5590 H 533.225 -2.62535 1.87816 0
M  V30 5591 H 532.277 -0.999287 3.6704 0
M  V30 5592 H 533.589 -1.52074 4.75052 0
M  V30 5593 H 532.743 -3.87502 4.66827 0
M  V30 5594 H 531.482 -3.40139 3.49509 0
M  V30 5595 H 530.487 -1.83254 5.18361 0
M  V30 5596 H 531.712 -2.3338 6.37738 0
M  V30 5597 H 529.658 -4.15954 5.07266 0
M  V30 5598 H 529.575 -3.52997 6.68528 0
M  V30 5599 H 530.843 -4.64145 6.2625 0
M  V30 5600 N 535.072 -1.5615 -0.213296 0
M  V30 5601 C 536.3 -1.83638 -0.953139 0
M  V30 5602 C 536.715 -0.640362 -1.77609 0
M  V30 5603 O 536.072 0.391071 -1.78261 0
M  V30 5604 C 536.123 -3.09735 -1.86405 0
M  V30 5605 O 535.844 -4.24723 -1.07435 0
M  V30 5606 C 537.345 -3.5027 -2.71709 0
M  V30 5607 H 534.565 -0.610263 -0.278962 0
M  V30 5608 H 537.109 -2.03247 -0.226035 0
M  V30 5609 H 535.264 -2.92077 -2.545 0
M  V30 5610 H 535.678 -4.9641 -1.69343 0
M  V30 5611 H 537.152 -4.41515 -3.31313 0
M  V30 5612 H 537.629 -2.72406 -3.44516 0
M  V30 5613 H 538.235 -3.70396 -2.09015 0
M  V30 5614 N 536.55 0.480323 -1.50102 0
M  V30 5615 C 537.48 1.58769 -1.71215 0
M  V30 5616 C 538.461 1.60583 -0.560997 0
M  V30 5617 O 539.646 1.76996 -0.799127 0
M  V30 5618 C 536.776 2.97148 -1.79778 0
M  V30 5619 C 535.73 3.10201 -2.94888 0
M  V30 5620 C 535.056 4.50137 -2.88584 0
M  V30 5621 C 536.356 2.88283 -4.35534 0
M  V30 5622 H 538.05 1.41354 -2.6393 0
M  V30 5623 H 535.596 0.678591 -1.27008 0
M  V30 5624 H 537.549 3.74536 -1.93133 0
M  V30 5625 H 536.273 3.15699 -0.836772 0
M  V30 5626 H 534.932 2.35244 -2.81169 0
M  V30 5627 H 534.58 4.65593 -1.90349 0
M  V30 5628 H 534.28 4.59808 -3.65856 0
M  V30 5629 H 535.804 5.29558 -3.03976 0
M  V30 5630 H 537.218 3.55427 -4.49827 0
M  V30 5631 H 535.615 3.09408 -5.14186 0
M  V30 5632 H 536.685 1.84219 -4.48544 0
M  V30 5633 N 538.028 1.39524 0.732853 0
M  V30 5634 C 539.439 1.32905 1.31122 0
M  V30 5635 C 539.79 -0.00558708 1.96199 0
M  V30 5636 O 538.915 -0.907706 1.96443 0
M  V30 5637 C 539.51 2.40704 2.38426 0
M  V30 5638 C 538.069 2.37599 2.91931 0
M  V30 5639 C 537.216 2.2248 1.65523 0
M  V30 5640 H 540.167 1.49581 0.530207 0
M  V30 5641 H 540.188 2.07616 3.18867 0
M  V30 5642 H 539.7 3.37829 1.91033 0
M  V30 5643 H 537.801 1.44119 3.43599 0
M  V30 5644 H 537.914 3.32538 3.44899 0
M  V30 5645 H 536.278 1.69691 1.8994 0
M  V30 5646 H 537.061 3.21577 1.20178 0
M  V30 5647 N 539.506 -0.963266 1.24736 0
M  V30 5648 C 540.752 -1.70933 1.09131 0
M  V30 5649 C 541.085 -1.90676 -0.368273 0
M  V30 5650 O 540.36 -1.47147 -1.27193 0
M  V30 5651 C 540.643 -3.09744 1.83658 0
M  V30 5652 C 540.496 -2.97465 3.37394 0
M  V30 5653 C 541.815 -4.09483 1.61282 0
M  V30 5654 H 538.934 -0.620398 0.397838 0
M  V30 5655 H 541.576 -1.12028 1.53459 0
M  V30 5656 H 539.726 -3.60031 1.4598 0
M  V30 5657 H 541.398 -2.54571 3.84696 0
M  V30 5658 H 539.641 -2.33576 3.65547 0
M  V30 5659 H 540.312 -3.95822 3.84745 0
M  V30 5660 H 542.788 -3.68073 1.94066 0
M  V30 5661 H 541.664 -5.04666 2.15878 0
M  V30 5662 H 541.925 -4.38639 0.552102 0
M  V30 5663 N 540.985 -1.06182 -1.16461 0
M  V30 5664 C 542.231 -0.779015 -1.87241 0
M  V30 5665 C 542.564 0.692715 -1.81425 0
M  V30 5666 O 541.839 1.5074 -1.22913 0
M  V30 5667 C 542.122 -1.2728 -3.36856 0
M  V30 5668 C 541.975 -2.80821 -3.51368 0
M  V30 5669 C 543.294 -0.879799 -4.31216 0
M  V30 5670 H 540.413 -0.284464 -0.679889 0
M  V30 5671 H 543.055 -1.31755 -1.36896 0
M  V30 5672 H 541.205 -0.814673 -3.79862 0
M  V30 5673 H 542.877 -3.34833 -3.17308 0
M  V30 5674 H 541.12 -3.19606 -2.93316 0
M  V30 5675 H 541.791 -3.10435 -4.56436 0
M  V30 5676 H 544.267 -1.27436 -3.96105 0
M  V30 5677 H 543.143 -1.25278 -5.34412 0
M  V30 5678 H 543.404 0.215372 -4.41575 0
M  V30 5679 N 542.463 1.3308 -0.844243 0
M  V30 5680 C 543.71 1.97605 -0.44255 0
M  V30 5681 C 544.038 1.66856 0.999458 0
M  V30 5682 O 543.293 0.943586 1.7145 0
M  V30 5683 C 543.592 3.52045 -0.616354 0
M  V30 5684 C 543.258 4.02757 -2.02726 0
M  V30 5685 C 541.92 4.16316 -2.41317 0
M  V30 5686 C 544.272 4.29776 -2.9486 0
M  V30 5687 C 541.6 4.54232 -3.71335 0
M  V30 5688 C 543.952 4.69146 -4.24364 0
M  V30 5689 C 542.616 4.80911 -4.62904 0
M  V30 5690 H 541.886 0.723088 -0.161941 0
M  V30 5691 H 544.533 1.58663 -1.0723 0
M  V30 5692 H 542.838 3.91681 0.0966812 0
M  V30 5693 H 544.535 3.99981 -0.285756 0
M  V30 5694 H 541.125 3.9268 -1.71756 0
M  V30 5695 H 545.309 4.18818 -2.6628 0
M  V30 5696 H 540.565 4.61535 -4.00993 0
M  V30 5697 H 544.739 4.89008 -4.95827 0
M  V30 5698 H 542.366 5.10048 -5.63698 0
M  V30 5699 N 543.941 0.601185 1.45683 0
M  V30 5700 C 545.218 0.0261659 1.95582 0
M  V30 5701 C 545.598 -1.4399 1.5437 0
M  V30 5702 O 544.946 -2.13919 0.80318 0
M  V30 5703 C 545.156 0.217557 3.48321 0
M  V30 5704 C 546.504 0.0950076 4.24494 0
M  V30 5705 O 547.528 0.147345 3.55895 0
M  V30 5706 O 546.387 -0.025261 5.46494 0
M  V30 5707 H 543.481 -0.0393688 0.826062 0
M  V30 5708 H 546.027 0.670798 1.55879 0
M  V30 5709 H 544.799 1.23601 3.71266 0
M  V30 5710 H 544.422 -0.46264 3.94899 0
M  V30 5711 N 545.419 -1.53889 0.339982 0
M  V30 5712 C 546.644 -2.05741 -0.261798 0
M  V30 5713 C 547.069 -1.21354 -1.43718 0
M  V30 5714 O 546.427 -0.22645 -1.7988 0
M  V30 5715 C 546.475 -3.54542 -0.658228 0
M  V30 5716 O 545.579 -3.7302 -1.75869 0
M  V30 5717 H 544.92 -0.662529 -0.0441672 0
M  V30 5718 H 547.45 -1.98568 0.493161 0
M  V30 5719 H 547.46 -3.9711 -0.936368 0
M  V30 5720 H 546.135 -4.15412 0.201358 0
M  V30 5721 H 544.712 -3.42355 -1.47809 0
M  V30 5722 N 546.897 -0.0685191 -1.57451 0
M  V30 5723 C 548.308 0.464634 -1.80826 0
M  V30 5724 C 548.659 1.69847 -0.982169 0
M  V30 5725 O 547.784 2.15439 -0.203734 0
M  V30 5726 C 548.379 0.849721 -3.27971 0
M  V30 5727 C 546.938 1.32776 -3.52204 0
M  V30 5728 C 546.085 0.311332 -2.75547 0
M  V30 5729 H 549.036 -0.294248 -1.55948 0
M  V30 5730 H 549.057 1.71138 -3.39841 0
M  V30 5731 H 548.569 -0.0484736 -3.8807 0
M  V30 5732 H 546.67 2.24456 -2.97406 0
M  V30 5733 H 546.783 1.30794 -4.60901 0
M  V30 5734 H 545.147 0.787915 -2.42206 0
M  V30 5735 H 545.93 -0.579078 -3.38381 0
M  V30 5736 N 548.375 1.56261 0.205012 0
M  V30 5737 C 549.791 1.49623 0.555433 0
M  V30 5738 C 549.991 0.766719 1.86343 0
M  V30 5739 O 549.047 0.313158 2.50551 0
M  V30 5740 C 550.36 2.94253 0.619347 0
M  V30 5741 C 551.908 3.04868 0.708855 0
M  V30 5742 C 552.383 4.50888 0.803969 0
M  V30 5743 N 553.874 4.54999 0.867758 0
M  V30 5744 C 554.609 5.65284 0.96135 0
M  V30 5745 N 554.105 6.85282 1.01786 0
M  V30 5746 N 555.898 5.53174 0.997771 0
M  V30 5747 H 548.049 2.0211 -0.653094 0
M  V30 5748 H 550.312 0.919333 -0.231366 0
M  V30 5749 H 550.018 3.50643 -0.272458 0
M  V30 5750 H 549.892 3.47063 1.47741 0
M  V30 5751 H 552.279 2.48532 1.5911 0
M  V30 5752 H 552.36 2.55199 -0.175205 0
M  V30 5753 H 552.004 5.07846 -0.0738798 0
M  V30 5754 H 551.934 4.98279 1.70369 0
M  V30 5755 H 554.425 3.68588 0.833735 0
M  V30 5756 H 554.738 7.65081 1.08951 0
M  V30 5757 H 553.083 6.8796 0.986706 0
M  V30 5758 H 556.274 4.5835 0.950392 0
M  V30 5759 H 556.447 6.39151 1.06725 0
M  V30 5760 N 549.853 -0.472356 1.50355 0
M  V30 5761 C 550.801 -1.59126 1.69651 0
M  V30 5762 C 551.795 -1.59793 0.56237 0
M  V30 5763 O 553.001 -1.63957 0.742832 0
M  V30 5764 H 549.376 -0.528008 0.535454 0
M  V30 5765 H 551.347 -1.40013 2.63513 0
M  V30 5766 C 550.096 -2.97075 1.8067 0
M  V30 5767 H 549.419 -2.9728 2.67329 0
M  V30 5768 H 550.859 -3.74825 1.98197 0
M  V30 5769 C 549.318 -3.32247 0.558016 0
M  V30 5770 O 549.848 -4.00553 -0.303399 0
M  V30 5771 N 548.054 -2.87659 0.412415 0
M  V30 5772 H 547.601 -2.32246 1.11443 0
M  V30 5773 H 547.559 -3.11556 -0.421908 0
M  V30 5774 N 551.331 -1.39911 -0.725443 0
M  V30 5775 C 552.579 -1.37382 -1.48224 0
M  V30 5776 C 552.9 0.0264107 -1.94982 0
M  V30 5777 O 552.17 0.979408 -1.6966 0
M  V30 5778 H 550.75 -0.505596 -0.549892 0
M  V30 5779 H 553.412 -1.7487 -0.860608 0
M  V30 5780 H 552.508 -2.04254 -2.3598 0
M  V30 5781 N 552.809 0.956637 -1.25245 0
M  V30 5782 C 553.719 2.0868 -1.0719 0
M  V30 5783 C 554.735 1.73997 -0.00959074 0
M  V30 5784 O 555.911 2.00301 -0.210104 0
M  V30 5785 C 552.976 3.39754 -0.690526 0
M  V30 5786 C 552.037 3.88316 -1.83055 0
M  V30 5787 C 551.27 5.13134 -1.46728 0
M  V30 5788 O 551.493 5.6925 -0.362029 0
M  V30 5789 O 550.427 5.56356 -2.29677 0
M  V30 5790 H 554.253 2.26813 -2.01965 0
M  V30 5791 H 551.838 1.07098 -1.04165 0
M  V30 5792 H 553.72 4.18543 -0.489871 0
M  V30 5793 H 552.395 3.22896 0.227981 0
M  V30 5794 H 551.302 3.1054 -2.08604 0
M  V30 5795 H 552.635 4.09669 -2.72822 0
M  V30 5796 N 554.287 1.06798 1.15896 0
M  V30 5797 C 555.217 0.704677 2.22613 0
M  V30 5798 C 556.198 -0.305252 1.67339 0
M  V30 5799 O 557.383 -0.179247 1.93371 0
M  V30 5800 C 554.513 0.0957325 3.47168 0
M  V30 5801 C 553.467 1.0322 4.15367 0
M  V30 5802 C 552.793 0.286293 5.33933 0
M  V30 5803 C 554.093 2.36341 4.65768 0
M  V30 5804 H 555.787 1.59688 2.53259 0
M  V30 5805 H 553.333 0.769257 1.21731 0
M  V30 5806 H 555.286 -0.170333 4.21056 0
M  V30 5807 H 554.01 -0.831516 3.15838 0
M  V30 5808 H 552.669 1.28309 3.43413 0
M  V30 5809 H 552.317 -0.644237 4.98857 0
M  V30 5810 H 552.017 0.910436 5.80504 0
M  V30 5811 H 553.541 0.0278938 6.10594 0
M  V30 5812 H 554.955 2.1561 5.31211 0
M  V30 5813 H 553.352 2.94299 5.2298 0
M  V30 5814 H 554.422 2.99047 3.81705 0
M  V30 5815 N 555.766 -1.3263 0.851289 0
M  V30 5816 C 556.698 -2.27824 0.250757 0
M  V30 5817 C 557.711 -1.52285 -0.575598 0
M  V30 5818 O 558.9 -1.73946 -0.400638 0
M  V30 5819 C 556 -3.3232 -0.664571 0
M  V30 5820 C 555.173 -4.37221 0.125187 0
M  V30 5821 C 554.232 -5.21314 -0.715385 0
M  V30 5822 O 553.258 -5.69002 -0.150111 0
M  V30 5823 N 554.46 -5.43823 -2.03069 0
M  V30 5824 H 557.225 -2.79997 1.06873 0
M  V30 5825 H 554.786 -1.45455 0.710943 0
M  V30 5826 H 556.778 -3.85486 -1.23216 0
M  V30 5827 H 555.348 -2.80331 -1.38323 0
M  V30 5828 H 554.568 -3.84384 0.874199 0
M  V30 5829 H 555.856 -5.04399 0.667774 0
M  V30 5830 H 555.254 -5.06803 -2.51332 0
M  V30 5831 H 553.811 -5.99998 -2.54648 0
M  V30 5832 N 557.244 -0.608902 -1.45362 0
M  V30 5833 C 558.521 -0.0365378 -1.95566 0
M  V30 5834 C 558.901 1.43169 -1.55131 0
M  V30 5835 O 558.249 2.1349 -0.814513 0
M  V30 5836 C 558.459 -0.236026 -3.48201 0
M  V30 5837 C 559.807 -0.117518 -4.24437 0
M  V30 5838 O 560.831 -0.166217 -3.55812 0
M  V30 5839 O 559.69 -0.00372127 -5.465 0
M  V30 5840 H 556.784 0.0349874 -0.82626 0
M  V30 5841 H 559.33 -0.679055 -1.55521 0
M  V30 5842 H 558.102 -1.25569 -3.70605 0
M  V30 5843 H 557.725 0.441691 -3.95139 0
M  V30 5844 N 558.722 1.53707 -0.348139 0
M  V30 5845 C 559.969 2.00988 0.246966 0
M  V30 5846 C 560.297 1.23586 1.50189 0
M  V30 5847 O 559.552 0.312817 1.93184 0
M  V30 5848 C 559.851 3.52292 0.602061 0
M  V30 5849 C 559.517 4.47453 -0.556509 0
M  V30 5850 C 558.179 4.73188 -0.874446 0
M  V30 5851 C 560.531 5.03851 -1.33354 0
M  V30 5852 C 557.859 5.52577 -1.9717 0
M  V30 5853 C 560.211 5.84437 -2.42108 0
M  V30 5854 C 558.875 6.08465 -2.74456 0
M  V30 5855 H 558.145 0.735469 0.0903712 0
M  V30 5856 H 560.792 1.85464 -0.477001 0
M  V30 5857 H 559.097 3.65672 1.40681 0
M  V30 5858 H 560.794 3.86337 1.07447 0
M  V30 5859 H 557.384 4.27558 -0.298652 0
M  V30 5860 H 561.568 4.8393 -1.10117 0
M  V30 5861 H 556.824 5.69418 -2.22651 0
M  V30 5862 H 560.998 6.27151 -3.02745 0
M  V30 5863 H 558.625 6.69768 -3.59604 0
M  V30 5864 N 560.2 0.0768682 1.57412 0
M  V30 5865 C 561.611 -0.455037 1.8107 0
M  V30 5866 C 561.962 -1.69323 0.991162 0
M  V30 5867 O 561.087 -2.15328 0.215156 0
M  V30 5868 C 561.682 -0.832316 3.28417 0
M  V30 5869 C 560.241 -1.30906 3.52903 0
M  V30 5870 C 559.388 -0.296714 2.75708 0
M  V30 5871 H 562.339 0.302514 1.5579 0
M  V30 5872 H 562.36 -1.69333 3.40744 0
M  V30 5873 H 561.872 0.0690532 3.88039 0
M  V30 5874 H 559.973 -2.22875 2.98592 0
M  V30 5875 H 560.086 -1.28348 4.61588 0
M  V30 5876 H 558.45 -0.775059 2.42621 0
M  V30 5877 H 559.233 0.597015 3.38069 0
M  V30 5878 N 561.678 -1.56367 -0.196722 0
M  V30 5879 C 562.908 -1.84371 -0.932254 0
M  V30 5880 C 563.316 -0.657013 -1.77426 0
M  V30 5881 O 562.659 0.383576 -1.79651 0
M  V30 5882 C 562.721 -3.06454 -1.87952 0
M  V30 5883 C 562.385 -4.40425 -1.21962 0
M  V30 5884 C 563.382 -5.16457 -0.597343 0
M  V30 5885 C 561.067 -4.8716 -1.22396 0
M  V30 5886 C 563.061 -6.37399 0.0117913 0
M  V30 5887 C 560.748 -6.08038 -0.610995 0
M  V30 5888 C 561.746 -6.83 0.00580487 0
M  V30 5889 O 561.434 -8.01589 0.609173 0
M  V30 5890 H 561.166 -0.616377 -0.277589 0
M  V30 5891 H 563.72 -2.04329 -0.209452 0
M  V30 5892 H 561.95 -2.82377 -2.64197 0
M  V30 5893 H 563.639 -3.21118 -2.48271 0
M  V30 5894 H 564.405 -4.81445 -0.586142 0
M  V30 5895 H 560.284 -4.2877 -1.69345 0
M  V30 5896 H 563.828 -6.9585 0.493836 0
M  V30 5897 H 559.725 -6.42519 -0.619693 0
M  V30 5898 H 560.493 -8.16935 0.505919 0
M  V30 5899 N 563.156 0.464375 -1.50603 0
M  V30 5900 C 564.103 1.56152 -1.69956 0
M  V30 5901 C 565.073 1.57046 -0.54091 0
M  V30 5902 O 566.258 1.74473 -0.772258 0
M  V30 5903 C 563.398 2.94079 -1.80586 0
M  V30 5904 C 562.511 3.02923 -3.07996 0
M  V30 5905 C 561.646 4.31806 -3.09382 0
M  V30 5906 C 560.685 4.34417 -4.31218 0
M  V30 5907 N 559.822 5.54782 -4.30304 0
M  V30 5908 H 564.662 1.38955 -2.6362 0
M  V30 5909 H 562.199 0.675482 -1.30674 0
M  V30 5910 H 564.157 3.74073 -1.8473 0
M  V30 5911 H 562.787 3.09896 -0.903556 0
M  V30 5912 H 561.839 2.1576 -3.13292 0
M  V30 5913 H 563.151 3.00712 -3.97962 0
M  V30 5914 H 562.305 5.20153 -3.12292 0
M  V30 5915 H 561.044 4.36636 -2.17257 0
M  V30 5916 H 560.049 3.44467 -4.28512 0
M  V30 5917 H 561.274 4.31273 -5.24576 0
M  V30 5918 H 559.22 5.60384 -3.41037 0
M  V30 5919 H 559.137 5.54339 -5.14047 0
M  V30 5920 H 560.405 6.45235 -4.3737 0
M  V30 5921 N 564.634 1.40294 0.718013 0
M  V30 5922 C 566.05 1.2227 1.02577 0
M  V30 5923 C 566.25 0.0961976 2.0127 0
M  V30 5924 O 565.306 -0.546695 2.46511 0
M  V30 5925 C 566.619 2.56348 1.57182 0
M  V30 5926 C 568.167 2.6334 1.69178 0
M  V30 5927 C 568.642 3.9768 2.27188 0
M  V30 5928 N 570.133 3.99409 2.34578 0
M  V30 5929 C 570.868 5.00141 2.8044 0
M  V30 5930 N 570.364 6.11268 3.26073 0
M  V30 5931 N 572.157 4.87511 2.79802 0
M  V30 5932 H 564.308 2.12304 0.0637899 0
M  V30 5933 H 566.571 0.943632 0.0909036 0
M  V30 5934 H 566.277 3.3942 0.921262 0
M  V30 5935 H 566.151 2.77266 2.55741 0
M  V30 5936 H 568.538 1.80641 2.33351 0
M  V30 5937 H 568.619 2.46255 0.692247 0
M  V30 5938 H 568.263 4.80817 1.63638 0
M  V30 5939 H 568.193 4.12093 3.27852 0
M  V30 5940 H 570.684 3.19162 2.02346 0
M  V30 5941 H 570.997 6.84023 3.59628 0
M  V30 5942 H 569.342 6.14837 3.24038 0
M  V30 5943 H 572.533 3.9979 2.43487 0
M  V30 5944 H 572.706 5.66158 3.15228 0
M  V30 5945 N 566.112 -0.949982 1.2575 0
M  V30 5946 C 567.361 -1.68956 1.10168 0
M  V30 5947 C 567.674 -1.92327 -0.356309 0
M  V30 5948 O 568.88 -2.64026 -0.632657 0
M  V30 5949 C 567.336 -3.04196 1.92336 0
M  V30 5950 C 566.944 -2.88603 3.42655 0
M  V30 5951 C 568.688 -3.81904 1.85336 0
M  V30 5952 C 566.595 -4.19262 4.17101 0
M  V30 5953 H 565.525 -0.633645 0.408668 0
M  V30 5954 H 568.176 -1.05719 1.49986 0
M  V30 5955 H 566.558 -3.68363 1.45344 0
M  V30 5956 H 567.732 -2.3334 3.97353 0
M  V30 5957 H 566.047 -2.24345 3.50796 0
M  V30 5958 H 568.644 -4.78688 2.38248 0
M  V30 5959 H 568.987 -4.08099 0.822226 0
M  V30 5960 H 569.52 -3.24495 2.30104 0
M  V30 5961 H 566.259 -3.98254 5.20648 0
M  V30 5962 H 565.779 -4.74273 3.67186 0
M  V30 5963 H 567.458 -4.87775 4.25071 0
M  V30 5964 N 567.59 -1.07411 -1.15328 0
M  V30 5965 C 568.52 -0.716472 -2.22236 0
M  V30 5966 C 569.501 0.296373 -1.67498 0
M  V30 5967 O 570.686 0.168989 -1.93463 0
M  V30 5968 C 567.816 -0.114142 -3.47112 0
M  V30 5969 C 566.77 -1.05421 -4.14814 0
M  V30 5970 C 566.096 -0.314604 -5.33774 0
M  V30 5971 C 567.396 -2.38808 -4.64508 0
M  V30 5972 H 569.09 -1.61029 -2.52408 0
M  V30 5973 H 566.636 -0.775702 -1.21321 0
M  V30 5974 H 568.589 0.148001 -4.2114 0
M  V30 5975 H 567.313 0.814755 -3.16274 0
M  V30 5976 H 565.972 -1.30128 -3.42728 0
M  V30 5977 H 565.62 0.617772 -4.99192 0
M  V30 5978 H 565.32 -0.941209 -5.80013 0
M  V30 5979 H 566.844 -0.0602747 -6.1057 0
M  V30 5980 H 568.258 -2.18424 -5.3006 0
M  V30 5981 H 566.655 -2.97069 -5.21412 0
M  V30 5982 H 567.725 -3.01067 -3.80114 0
M  V30 5983 N 569.068 1.32177 -0.85831 0
M  V30 5984 C 570.316 1.96735 -0.462568 0
M  V30 5985 C 570.637 1.6824 0.985911 0
M  V30 5986 O 569.907 0.991564 1.68952 0
M  V30 5987 H 568.487 0.727849 -0.168064 0
M  V30 5988 H 571.149 1.61195 -1.09554 0
M  V30 5989 H 570.245 3.06068 -0.610647 0
M  V30 5990 N 570.547 0.616602 1.45037 0
M  V30 5991 C 571.958 0.199359 1.85633 0
M  V30 5992 C 572.309 -1.24588 1.51566 0
M  V30 5993 O 571.434 -1.94594 0.94668 0
M  V30 5994 C 572.029 0.355033 3.36935 0
M  V30 5995 C 570.588 -0.00758748 3.76399 0
M  V30 5996 C 569.735 0.675256 2.68953 0
M  V30 5997 H 572.686 0.822708 1.3571 0
M  V30 5998 H 572.707 -0.410201 3.78282 0
M  V30 5999 H 572.219 1.40699 3.61698 0
M  V30 6000 H 570.32 -1.05837 3.57252 0
M  V30 6001 H 570.433 0.392346 4.77491 0
M  V30 6002 H 568.797 0.111992 2.54454 0
M  V30 6003 H 569.58 1.72952 2.96551 0
M  V30 6004 N 572.025 -1.5352 0.356285 0
M  V30 6005 C 573.302 -1.93405 -0.292223 0
M  V30 6006 C 573.682 -1.28901 -1.67176 0
M  V30 6007 O 573.03 -0.444632 -2.24132 0
M  V30 6008 C 573.24 -3.47223 -0.35175 0
M  V30 6009 C 574.588 -4.20389 -0.596534 0
M  V30 6010 O 575.612 -3.53554 -0.433344 0
M  V30 6011 O 574.471 -5.3881 -0.913589 0
M  V30 6012 H 571.565 -0.808666 -0.173172 0
M  V30 6013 H 574.111 -1.64713 0.408391 0
M  V30 6014 H 572.883 -3.86423 0.615841 0
M  V30 6015 H 572.506 -3.8212 -1.09864 0
M  V30 6016 N 573.503 -0.0852151 -1.57369 0
M  V30 6017 C 574.75 0.580806 -1.93992 0
M  V30 6018 C 575.078 1.68801 -0.966252 0
M  V30 6019 O 574.333 1.95694 0.0158649 0
M  V30 6020 C 574.632 1.18482 -3.3719 0
M  V30 6021 C 574.298 0.2024 -4.50446 0
M  V30 6022 C 572.96 -0.0678318 -4.81152 0
M  V30 6023 C 575.312 -0.46895 -5.19086 0
M  V30 6024 C 572.64 -1.01627 -5.77831 0
M  V30 6025 C 574.992 -1.4058 -6.16782 0
M  V30 6026 C 573.656 -1.68436 -6.45899 0
M  V30 6027 H 572.926 0.212532 -0.709867 0
M  V30 6028 H 575.573 -0.158947 -1.90839 0
M  V30 6029 H 573.878 2.0006 -3.36873 0
M  V30 6030 H 575.575 1.70767 -3.62822 0
M  V30 6031 H 572.165 0.423208 -4.26505 0
M  V30 6032 H 576.349 -0.273307 -4.95547 0
M  V30 6033 H 571.605 -1.2392 -5.9871 0
M  V30 6034 H 575.779 -1.93188 -6.69068 0
M  V30 6035 H 573.406 -2.42088 -7.20623 0
M  V30 6036 N 574.981 1.5647 0.188427 0
M  V30 6037 C 576.229 1.80655 0.905986 0
M  V30 6038 C 576.55 0.659391 1.83513 0
M  V30 6039 O 575.82 -0.321868 1.93238 0
M  V30 6040 H 574.4 0.666391 0.337538 0
M  V30 6041 H 577.062 1.93949 0.192339 0
M  V30 6042 H 576.158 2.74066 1.49313 0
M  V30 6043 N 576.459 -0.456382 1.50847 0
M  V30 6044 C 577.689 -1.22848 1.66108 0
M  V30 6045 C 578.097 -1.85936 0.349897 0
M  V30 6046 O 577.44 -1.70664 -0.679665 0
M  V30 6047 C 577.502 -2.36722 2.70561 0
M  V30 6048 C 577.166 -1.94154 4.13707 0
M  V30 6049 C 578.163 -1.4557 4.99105 0
M  V30 6050 C 575.848 -2.02426 4.59705 0
M  V30 6051 C 577.842 -1.0582 6.28555 0
M  V30 6052 C 575.529 -1.62287 5.89157 0
M  V30 6053 C 576.527 -1.14064 6.73408 0
M  V30 6054 O 576.215 -0.744873 8.00442 0
M  V30 6055 H 575.947 -0.377105 0.561042 0
M  V30 6056 H 578.501 -0.549431 1.97915 0
M  V30 6057 H 576.731 -3.07844 2.34027 0
M  V30 6058 H 578.42 -2.98646 2.74892 0
M  V30 6059 H 579.186 -1.38589 4.64777 0
M  V30 6060 H 575.065 -2.38908 3.94264 0
M  V30 6061 H 578.609 -0.6811 6.94267 0
M  V30 6062 H 574.506 -1.68932 6.23003 0
M  V30 6063 H 575.274 -0.87242 8.13837 0
M  V30 6064 N 577.937 -1.40673 -0.710563 0
M  V30 6065 C 579.183 -1.39428 -1.47267 0
M  V30 6066 C 579.516 0.00182129 -1.942 0
M  V30 6067 O 578.791 0.971387 -1.68506 0
M  V30 6068 C 579.074 -2.38812 -2.6952 0
M  V30 6069 C 578.927 -3.87467 -2.28449 0
M  V30 6070 C 580.246 -2.3566 -3.71689 0
M  V30 6071 H 577.365 -0.507768 -0.534173 0
M  V30 6072 H 580.007 -1.71843 -0.810547 0
M  V30 6073 H 578.157 -2.113 -3.26013 0
M  V30 6074 H 579.829 -4.25825 -1.77399 0
M  V30 6075 H 578.072 -4.03058 -1.60395 0
M  V30 6076 H 578.743 -4.5253 -3.16103 0
M  V30 6077 H 581.219 -2.6004 -3.24836 0
M  V30 6078 H 580.095 -3.07237 -4.54859 0
M  V30 6079 H 580.356 -1.36996 -4.20339 0
M  V30 6080 N 579.415 0.9433 -1.26252 0
M  V30 6081 C 580.643 1.72367 -1.14443 0
M  V30 6082 C 581.058 1.86392 0.300572 0
M  V30 6083 O 580.415 1.36978 1.20596 0
M  V30 6084 C 580.466 3.13155 -1.806 0
M  V30 6085 O 580.187 2.99803 -3.19452 0
M  V30 6086 C 581.688 4.07417 -1.74717 0
M  V30 6087 H 578.908 0.539758 -0.398626 0
M  V30 6088 H 581.452 1.18268 -1.66832 0
M  V30 6089 H 579.607 3.64162 -1.32154 0
M  V30 6090 H 580.021 3.88697 -3.52158 0
M  V30 6091 H 581.495 5.03773 -2.25647 0
M  V30 6092 H 581.972 4.3337 -0.713244 0
M  V30 6093 H 582.578 3.6233 -2.22704 0
M  V30 6094 N 580.893 1.08022 1.14757 0
M  V30 6095 C 582.309 0.807072 1.3769 0
M  V30 6096 C 582.509 -0.585504 1.92806 0
M  V30 6097 O 581.565 -1.34301 2.13821 0
M  V30 6098 C 582.878 1.88651 2.34161 0
M  V30 6099 C 584.426 1.91206 2.47809 0
M  V30 6100 C 584.901 2.98253 3.47576 0
M  V30 6101 N 586.392 2.974 3.55117 0
M  V30 6102 C 587.127 3.76872 4.32152 0
M  V30 6103 N 586.623 4.66212 5.12463 0
M  V30 6104 N 588.416 3.6519 4.27309 0
M  V30 6105 H 580.567 1.97824 0.77326 0
M  V30 6106 H 582.83 0.85826 0.402608 0
M  V30 6107 H 582.536 2.88749 2.00791 0
M  V30 6108 H 582.41 1.75244 3.3402 0
M  V30 6109 H 584.797 0.917564 2.80472 0
M  V30 6110 H 584.878 2.08691 1.47925 0
M  V30 6111 H 584.522 3.97907 3.15646 0
M  V30 6112 H 584.452 2.78014 4.47231 0
M  V30 6113 H 586.943 2.32643 2.97801 0
M  V30 6114 H 587.256 5.23468 5.68508 0
M  V30 6115 H 585.601 4.70257 5.11745 0
M  V30 6116 H 588.792 2.94765 3.63636 0
M  V30 6117 H 588.965 4.27366 4.87095 0
M  V30 6118 N 582.371 -1.3172 0.865308 0
M  V30 6119 C 583.281 -2.32394 0.320935 0
M  V30 6120 C 584.297 -1.64511 -0.566746 0
M  V30 6121 O 585.473 -1.95969 -0.464575 0
M  V30 6122 C 582.538 -3.43462 -0.472701 0
M  V30 6123 C 581.599 -4.27015 0.442385 0
M  V30 6124 C 580.832 -5.32779 -0.313469 0
M  V30 6125 O 581.055 -5.49158 -1.54214 0
M  V30 6126 O 579.989 -6.01015 0.326257 0
M  V30 6127 H 583.815 -2.80868 1.15528 0
M  V30 6128 H 581.4 -1.35535 0.628545 0
M  V30 6129 H 583.282 -4.11172 -0.922781 0
M  V30 6130 H 581.957 -2.97159 -1.28367 0
M  V30 6131 H 580.864 -3.62075 0.940866 0
M  V30 6132 H 582.197 -4.76871 1.21882 0
M  V30 6133 N 583.85 -0.624285 -1.44708 0
M  V30 6134 C 585.26 -0.2092 -1.85524 0
M  V30 6135 C 585.611 1.23783 -1.52225 0
M  V30 6136 O 584.736 1.94089 -0.956986 0
M  V30 6137 C 585.332 -0.372897 -3.36742 0
M  V30 6138 C 583.891 -0.012374 -3.76398 0
M  V30 6139 C 583.038 -0.68951 -2.68591 0
M  V30 6140 H 585.989 -0.829894 -1.35272 0
M  V30 6141 H 586.01 0.390134 -3.78495 0
M  V30 6142 H 585.522 -1.42615 -3.60947 0
M  V30 6143 H 583.623 1.03941 -3.57809 0
M  V30 6144 H 583.736 -0.417663 -4.77276 0
M  V30 6145 H 582.1 -0.125484 -2.54391 0
M  V30 6146 H 582.883 -1.74522 -2.9563 0
M  V30 6147 N 585.328 1.53329 -0.364422 0
M  V30 6148 C 586.744 1.59594 -0.0133165 0
M  V30 6149 C 586.944 1.37959 1.46865 0
M  V30 6150 O 586 1.18418 2.2301 0
M  V30 6151 C 587.313 2.97032 -0.468213 0
M  V30 6152 C 588.861 3.10138 -0.422334 0
M  V30 6153 C 589.336 4.49986 -0.853024 0
M  V30 6154 N 590.827 4.56098 -0.808037 0
M  V30 6155 C 591.562 5.62495 -1.11299 0
M  V30 6156 N 591.058 6.7665 -1.48717 0
M  V30 6157 N 592.851 5.52473 -1.03586 0
M  V30 6158 H 585.002 1.65644 -1.32951 0
M  V30 6159 H 587.265 0.77684 -0.543345 0
M  V30 6160 H 586.971 3.18 -1.5023 0
M  V30 6161 H 586.845 3.76918 0.145775 0
M  V30 6162 H 589.232 2.88881 0.602622 0
M  V30 6163 H 589.313 2.32263 -1.0718 0
M  V30 6164 H 588.957 4.7198 -1.87609 0
M  V30 6165 H 588.887 5.26289 -0.180819 0
M  V30 6166 H 591.378 3.74131 -0.532361 0
M  V30 6167 H 591.691 7.53776 -1.70415 0
M  V30 6168 H 590.036 6.78044 -1.52581 0
M  V30 6169 H 593.227 4.6217 -0.742736 0
M  V30 6170 H 593.4 6.35295 -1.27686 0
M  V30 6171 N 586.806 0.0935595 1.57322 0
M  V30 6172 C 588.083 -0.612692 1.85756 0
M  V30 6173 C 588.463 -1.86439 0.99013 0
M  V30 6174 O 587.811 -2.28416 0.0621362 0
M  V30 6175 C 588.021 -0.929547 3.36393 0
M  V30 6176 C 589.369 -1.29366 4.04413 0
M  V30 6177 O 590.393 -1.02061 3.41265 0
M  V30 6178 O 589.252 -1.80498 5.15832 0
M  V30 6179 H 586.346 -0.306444 0.768128 0
M  V30 6180 H 588.892 0.126141 1.69231 0
M  V30 6181 H 587.664 -0.0414766 3.91278 0
M  V30 6182 H 587.287 -1.72441 3.5826 0
M  V30 6183 N 588.284 -1.56567 -0.180126 0
M  V30 6184 C 589.7 -1.50488 -0.531559 0
M  V30 6185 C 589.9 -0.796267 -1.851 0
M  V30 6186 O 588.956 -0.352978 -2.50021 0
M  V30 6187 C 590.269 -2.95201 -0.572456 0
M  V30 6188 C 591.817 -3.05957 -0.660264 0
M  V30 6189 C 592.292 -4.5211 -0.732135 0
M  V30 6190 N 593.783 -4.56322 -0.795262 0
M  V30 6191 C 594.518 -5.66742 -0.871296 0
M  V30 6192 N 594.014 -6.86815 -0.908708 0
M  V30 6193 N 595.807 -5.54691 -0.909639 0
M  V30 6194 H 587.958 -2.01045 0.685165 0
M  V30 6195 H 590.221 -0.915536 0.245962 0
M  V30 6196 H 589.927 -3.50165 0.328208 0
M  V30 6197 H 589.801 -3.49369 -1.422 0
M  V30 6198 H 592.188 -2.51032 -1.55136 0
M  V30 6199 H 592.269 -2.54888 0.215783 0
M  V30 6200 H 591.913 -5.07664 0.154664 0
M  V30 6201 H 591.843 -5.00926 -1.6242 0
M  V30 6202 H 594.334 -3.69868 -0.77499 0
M  V30 6203 H 594.647 -7.66718 -0.967654 0
M  V30 6204 H 592.992 -6.89443 -0.877132 0
M  V30 6205 H 596.183 -4.59804 -0.877353 0
M  V30 6206 H 596.356 -6.40768 -0.965434 0
M  V30 6207 N 589.762 0.448376 -1.51087 0
M  V30 6208 C 590.987 1.22605 -1.6728 0
M  V30 6209 C 591.412 1.84524 -0.365045 0
M  V30 6210 O 590.77 1.6832 0.673642 0
M  V30 6211 C 590.818 2.29393 -2.78229 0
M  V30 6212 O 589.922 3.34608 -2.41063 0
M  V30 6213 H 589.263 0.359705 -0.558129 0
M  V30 6214 H 591.793 0.530903 -1.97592 0
M  V30 6215 H 591.803 2.74352 -3.01986 0
M  V30 6216 H 590.478 1.83701 -3.73131 0
M  V30 6217 H 589.055 2.95202 -2.27838 0
M  V30 6218 N 591.24 1.41047 0.703093 0
M  V30 6219 C 592.486 1.40207 1.46526 0
M  V30 6220 C 592.819 0.00847763 1.94198 0
M  V30 6221 O 592.094 -0.962437 1.69019 0
M  V30 6222 C 592.377 2.40238 2.6825 0
M  V30 6223 C 592.23 3.88674 2.26391 0
M  V30 6224 C 593.549 2.37627 3.70434 0
M  V30 6225 H 590.668 0.510594 0.531472 0
M  V30 6226 H 593.31 1.72271 0.801422 0
M  V30 6227 H 591.46 2.13026 3.24888 0
M  V30 6228 H 593.132 4.2676 1.75138 0
M  V30 6229 H 591.375 4.03903 1.58255 0
M  V30 6230 H 592.046 4.542 3.13698 0
M  V30 6231 H 594.522 2.61759 3.23452 0
M  V30 6232 H 593.398 3.09645 4.53223 0
M  V30 6233 H 593.659 1.39223 4.19606 0
M  V30 6234 N 592.718 -0.936591 1.26751 0
M  V30 6235 C 593.943 -1.72288 1.15462 0
M  V30 6236 C 594.368 -1.85915 -0.285887 0
M  V30 6237 O 593.726 -1.35272 -1.20711 0
M  V30 6238 C 593.774 -3.10503 1.83359 0
M  V30 6239 O 592.878 -3.96745 1.1255 0
M  V30 6240 H 592.219 -0.52843 0.402067 0
M  V30 6241 H 594.749 -1.17271 1.67656 0
M  V30 6242 H 594.759 -3.60867 1.90365 0
M  V30 6243 H 593.434 -2.99901 2.88153 0
M  V30 6244 H 592.011 -3.55191 1.13551 0
M  V30 6245 N 594.196 -1.08629 -1.14182 0
M  V30 6246 C 595.444 -0.815731 -1.84906 0
M  V30 6247 C 595.765 0.660441 -1.83475 0
M  V30 6248 O 595.035 1.47888 -1.28476 0
M  V30 6249 H 593.615 -0.298773 -0.684648 0
M  V30 6250 H 596.277 -1.37274 -1.38354 0
M  V30 6251 H 595.373 -1.16193 -2.89665 0
M  V30 6252 N 595.674 1.31259 -0.872281 0
M  V30 6253 C 596.604 2.30929 -0.345554 0
M  V30 6254 C 597.585 1.60449 0.5648 0
M  V30 6255 O 598.77 1.8814 0.481335 0
M  V30 6256 C 595.9 3.44348 0.451823 0
M  V30 6257 C 594.854 4.26435 -0.365641 0
M  V30 6258 C 594.18 5.31785 0.557562 0
M  V30 6259 C 595.48 4.97159 -1.60095 0
M  V30 6260 H 597.174 2.75234 -1.17841 0
M  V30 6261 H 594.72 1.3232 -0.568094 0
M  V30 6262 H 596.673 4.13128 0.830854 0
M  V30 6263 H 595.397 2.98816 1.31821 0
M  V30 6264 H 594.056 3.59326 -0.726649 0
M  V30 6265 H 593.704 4.82502 1.4213 0
M  V30 6266 H 593.404 5.87598 0.0144878 0
M  V30 6267 H 594.928 6.03424 0.933387 0
M  V30 6268 H 596.342 5.58523 -1.29323 0
M  V30 6269 H 594.739 5.62779 -2.08327 0
M  V30 6270 H 595.809 4.24012 -2.35249 0
M  V30 6271 N 597.152 0.631951 1.44375 0
M  V30 6272 C 598.429 0.067646 1.95483 0
M  V30 6273 C 598.809 -1.40683 1.57389 0
M  V30 6274 O 598.157 -2.12167 0.848375 0
M  V30 6275 C 598.367 0.291392 3.47781 0
M  V30 6276 C 599.715 0.185028 4.24197 0
M  V30 6277 O 600.739 0.222803 3.55503 0
M  V30 6278 O 599.598 0.0906642 5.46425 0
M  V30 6279 H 596.692 -0.0218379 0.826712 0
M  V30 6280 H 599.238 0.703711 1.54421 0
M  V30 6281 H 598.01 1.31449 3.68561 0
M  V30 6282 H 597.633 -0.378772 3.95792 0
M  V30 6283 N 598.631 -1.53133 0.372548 0
M  V30 6284 C 599.856 -2.0625 -0.218098 0
M  V30 6285 C 600.281 -1.24375 -1.41111 0
M  V30 6286 O 599.639 -0.264554 -1.79359 0
M  V30 6287 C 599.687 -3.55858 -0.582876 0
M  V30 6288 O 598.791 -3.76667 -1.67917 0
M  V30 6289 H 598.132 -0.663317 -0.030104 0
M  V30 6290 H 600.662 -1.97477 0.535169 0
M  V30 6291 H 600.672 -3.99007 -0.851925 0
M  V30 6292 H 599.347 -4.14892 0.289428 0
M  V30 6293 H 597.924 -3.45413 -1.40513 0
M  V30 6294 N 600.109 -0.101901 -1.5727 0
M  V30 6295 C 601.356 0.560197 -1.94597 0
M  V30 6296 C 601.684 1.67767 -0.984101 0
M  V30 6297 O 600.939 1.95699 -0.00489193 0
M  V30 6298 C 601.238 1.14898 -3.38427 0
M  V30 6299 C 600.904 0.154613 -4.50635 0
M  V30 6300 C 599.566 -0.118861 -4.81053 0
M  V30 6301 C 601.918 -0.523979 -5.18559 0
M  V30 6302 C 599.246 -1.0775 -5.76721 0
M  V30 6303 C 601.598 -1.47114 -6.15256 0
M  V30 6304 C 600.262 -1.75278 -6.44076 0
M  V30 6305 H 599.532 0.204991 -0.712081 0
M  V30 6306 H 602.179 -0.17918 -1.9066 0
M  V30 6307 H 600.484 1.96476 -3.38976 0
M  V30 6308 H 602.181 1.66909 -3.64613 0
M  V30 6309 H 598.771 0.377948 -4.2693 0
M  V30 6310 H 602.955 -0.325851 -4.95229 0
M  V30 6311 H 598.211 -1.30263 -5.97362 0
M  V30 6312 H 602.385 -2.00274 -6.66981 0
M  V30 6313 H 600.012 -2.49717 -7.18015 0
M  V30 6314 N 601.587 1.56661 0.17182 0
M  V30 6315 C 602.835 1.81606 0.886774 0
M  V30 6316 C 603.156 0.678818 1.82803 0
M  V30 6317 O 602.426 -0.301354 1.93568 0
M  V30 6318 H 601.006 0.669934 0.330451 0
M  V30 6319 H 603.668 1.94142 0.171757 0
M  V30 6320 H 602.764 2.75634 1.46398 0
M  V30 6321 N 603.065 -0.440357 1.51323 0
M  V30 6322 C 604.013 -1.55492 1.72988 0
M  V30 6323 C 605.007 -1.58564 0.596138 0
M  V30 6324 O 606.213 -1.62345 0.777443 0
M  V30 6325 H 602.588 -0.516532 0.546533 0
M  V30 6326 H 604.559 -1.34392 2.66423 0
M  V30 6327 C 603.308 -2.93176 1.86931 0
M  V30 6328 H 602.631 -2.91543 2.73574 0
M  V30 6329 H 604.071 -3.70537 2.06103 0
M  V30 6330 C 602.53 -3.30988 0.628365 0
M  V30 6331 O 603.06 -4.01106 -0.218367 0
M  V30 6332 N 601.266 -2.86719 0.473339 0
M  V30 6333 H 600.813 -2.2983 1.16345 0
M  V30 6334 H 600.771 -3.12381 -0.355727 0
M  V30 6335 N 604.543 -1.41418 -0.695603 0
M  V30 6336 C 605.473 -1.46035 -1.82197 0
M  V30 6337 C 606.454 -0.319025 -1.67082 0
M  V30 6338 O 607.639 -0.530462 -1.86815 0
M  V30 6339 C 604.769 -1.34179 -3.20333 0
M  V30 6340 C 603.723 -2.46123 -3.50154 0
M  V30 6341 C 603.049 -2.19332 -4.87645 0
M  V30 6342 C 604.349 -3.88463 -3.49133 0
M  V30 6343 H 606.043 -2.40303 -1.78591 0
M  V30 6344 H 603.589 -1.15663 -0.857797 0
M  V30 6345 H 605.542 -1.36021 -3.98844 0
M  V30 6346 H 604.266 -0.363952 -3.24566 0
M  V30 6347 H 602.925 -2.43563 -2.73994 0
M  V30 6348 H 602.573 -1.19891 -4.88503 0
M  V30 6349 H 602.273 -2.94344 -5.08562 0
M  V30 6350 H 603.797 -2.22889 -5.68465 0
M  V30 6351 H 605.211 -3.92738 -4.17648 0
M  V30 6352 H 603.608 -4.63158 -3.81582 0
M  V30 6353 H 604.678 -4.16617 -2.48109 0
M  V30 6354 N 606.021 0.929856 -1.27246 0
M  V30 6355 C 606.931 2.0636 -1.11592 0
M  V30 6356 C 607.947 1.73938 -0.046496 0
M  V30 6357 O 609.123 1.9981 -0.252544 0
M  V30 6358 C 606.188 3.38213 -0.762437 0
M  V30 6359 C 605.249 3.84346 -1.9125 0
M  V30 6360 C 604.482 5.09906 -1.57579 0
M  V30 6361 O 604.705 5.68354 -0.482694 0
M  V30 6362 O 603.639 5.51359 -2.41426 0
M  V30 6363 H 607.465 2.22478 -2.0673 0
M  V30 6364 H 605.05 1.04865 -1.06413 0
M  V30 6365 H 606.932 4.1741 -0.57854 0
M  V30 6366 H 605.607 3.23307 0.159439 0
M  V30 6367 H 604.514 3.06045 -2.15144 0
M  V30 6368 H 605.847 4.0379 -2.81451 0
M  V30 6369 N 607.499 1.09233 1.13605 0
M  V30 6370 C 608.745 0.828385 1.8511 0
M  V30 6371 C 609.078 -0.64437 1.83198 0
M  V30 6372 O 608.353 -1.47428 1.26867 0
M  V30 6373 C 608.636 1.36167 3.33363 0
M  V30 6374 C 608.489 2.90038 3.438 0
M  V30 6375 C 609.808 0.993819 4.28732 0
M  V30 6376 H 606.927 0.30239 0.672108 0
M  V30 6377 H 609.569 1.35339 1.33355 0
M  V30 6378 H 607.719 0.9151 3.77569 0
M  V30 6379 H 609.391 3.43128 3.08319 0
M  V30 6380 H 607.634 3.27271 2.84739 0
M  V30 6381 H 608.305 3.22428 4.48045 0
M  V30 6382 H 610.781 1.37893 3.92587 0
M  V30 6383 H 609.657 1.39403 5.30903 0
M  V30 6384 H 609.918 -0.0982206 4.41991 0
M  V30 6385 N 608.977 -1.30795 0.87923 0
M  V30 6386 C 610.202 -2.01063 0.508769 0
M  V30 6387 C 610.627 -1.65508 -0.893803 0
M  V30 6388 O 609.985 -0.868616 -1.59138 0
M  V30 6389 C 610.033 -3.54054 0.683991 0
M  V30 6390 O 609.137 -4.11498 -0.272654 0
M  V30 6391 H 608.478 -0.632786 0.201191 0
M  V30 6392 H 611.008 -1.66776 1.18519 0
M  V30 6393 H 611.018 -4.03845 0.580798 0
M  V30 6394 H 609.693 -3.79271 1.70665 0
M  V30 6395 H 608.27 -3.72695 -0.12364 0
M  V30 6396 N 610.455 -0.639598 -1.44038 0
M  V30 6397 C 611.866 -0.228866 -1.85292 0
M  V30 6398 C 612.217 1.22161 -1.53529 0
M  V30 6399 O 611.342 1.93064 -0.977518 0
M  V30 6400 C 611.937 -0.408592 -3.36327 0
M  V30 6401 C 610.496 -0.0522953 -3.76364 0
M  V30 6402 C 609.643 -0.717959 -2.67844 0
M  V30 6403 H 612.594 -0.844194 -1.34384 0
M  V30 6404 H 612.615 0.349968 -3.78887 0
M  V30 6405 H 612.127 -1.46435 -3.59414 0
M  V30 6406 H 610.228 1.0014 -3.58891 0
M  V30 6407 H 610.341 -0.468261 -4.76806 0
M  V30 6408 H 608.705 -0.152459 -2.54243 0
M  V30 6409 H 609.488 -1.77648 -2.93762 0
M  V30 6410 N 611.933 1.52934 -0.380664 0
M  V30 6411 C 613.344 1.86457 0.0952684 0
M  V30 6412 C 613.695 1.3007 1.46889 0
M  V30 6413 O 612.82 0.628636 2.07068 0
M  V30 6414 C 613.415 3.38323 0.179648 0
M  V30 6415 C 611.974 3.71589 0.599858 0
M  V30 6416 C 611.121 2.76228 -0.243572 0
M  V30 6417 H 614.072 1.46966 -0.59888 0
M  V30 6418 H 614.093 3.67113 1.00042 0
M  V30 6419 H 613.605 3.79333 -0.820228 0
M  V30 6420 H 611.706 3.36144 1.60742 0
M  V30 6421 H 611.819 4.77715 0.364003 0
M  V30 6422 H 610.183 2.53045 0.289855 0
M  V30 6423 H 610.966 3.20074 -1.24127 0
M  V30 6424 N 613.412 0.11024 1.57214 0
M  V30 6425 C 614.658 -0.550684 1.9518 0
M  V30 6426 C 614.991 -1.66885 0.993122 0
M  V30 6427 O 614.266 -1.94479 0.0287907 0
M  V30 6428 C 614.549 -1.09163 3.43155 0
M  V30 6429 C 614.402 0.0225198 4.49794 0
M  V30 6430 C 615.721 -1.98527 3.92778 0
M  V30 6431 H 612.84 -0.198706 0.709708 0
M  V30 6432 H 615.482 0.184024 1.89107 0
M  V30 6433 H 613.632 -1.71775 3.48462 0
M  V30 6434 H 615.304 0.657443 4.56591 0
M  V30 6435 H 613.547 0.686868 4.28328 0
M  V30 6436 H 614.218 -0.39706 5.5057 0
M  V30 6437 H 616.694 -1.458 3.8972 0
M  V30 6438 H 615.57 -2.33298 4.96853 0
M  V30 6439 H 615.831 -2.90846 3.32958 0
M  V30 6440 N 614.89 -1.56749 -0.16351 0
M  V30 6441 C 616.136 -1.82704 -0.880168 0
M  V30 6442 C 616.469 -0.689311 -1.81555 0
M  V30 6443 O 615.744 0.308224 -1.92042 0
M  V30 6444 C 616.027 -3.19084 -1.66905 0
M  V30 6445 C 615.88 -4.43397 -0.756269 0
M  V30 6446 C 617.199 -3.52493 -2.63509 0
M  V30 6447 H 614.318 -0.664608 -0.318535 0
M  V30 6448 H 616.96 -1.89438 -0.146036 0
M  V30 6449 H 615.11 -3.13475 -2.2949 0
M  V30 6450 H 616.782 -4.61079 -0.14269 0
M  V30 6451 H 615.025 -4.33752 -0.0647944 0
M  V30 6452 H 615.696 -5.3539 -1.34393 0
M  V30 6453 H 618.172 -3.58606 -2.11047 0
M  V30 6454 H 617.048 -4.48979 -3.15767 0
M  V30 6455 H 617.309 -2.77597 -3.44082 0
M  V30 6456 N 616.368 0.432326 -1.51554 0
M  V30 6457 C 617.331 1.50765 -1.72634 0
M  V30 6458 C 618.331 1.49334 -0.596314 0
M  V30 6459 O 619.521 1.51268 -0.863925 0
M  V30 6460 C 616.653 2.90284 -1.7874 0
M  V30 6461 H 617.846 1.33377 -2.68609 0
M  V30 6462 H 615.399 0.661329 -1.4162 0
M  V30 6463 H 616.134 3.13071 -0.845977 0
M  V30 6464 H 615.919 2.92727 -2.6087 0
M  V30 6465 H 617.409 3.68282 -1.96871 0
M  V30 6466 N 617.846 1.41785 0.688094 0
M  V30 6467 C 618.794 1.44436 1.82321 0
M  V30 6468 C 619.788 0.321544 1.6632 0
M  V30 6469 O 620.994 0.493931 1.73091 0
M  V30 6470 H 617.369 0.452084 0.600936 0
M  V30 6471 H 619.34 2.40087 1.77202 0
M  V30 6472 C 618.089 1.35071 3.20392 0
M  V30 6473 H 617.412 2.2076 3.33324 0
M  V30 6474 H 618.852 1.40988 3.99873 0
M  V30 6475 C 617.311 0.0639127 3.36839 0
M  V30 6476 O 617.841 -0.888495 3.91751 0
M  V30 6477 N 616.047 -0.0146114 2.90596 0
M  V30 6478 H 615.594 0.761191 2.46097 0
M  V30 6479 H 615.552 -0.874988 3.01979 0
M  V30 6480 N 619.324 -0.923095 1.27737 0
M  V30 6481 C 620.572 -1.66797 1.14119 0
M  V30 6482 C 620.893 -1.92479 -0.312541 0
M  V30 6483 O 620.163 -1.53432 -1.218 0
M  V30 6484 H 618.743 -0.618196 0.419336 0
M  V30 6485 H 621.405 -1.10815 1.60331 0
M  V30 6486 H 620.501 -2.63424 1.67374 0
M  V30 6487 N 620.802 -1.09834 -1.13024 0
M  V30 6488 C 621.749 -0.741522 -2.18564 0
M  V30 6489 C 622.719 0.279236 -1.63736 0
M  V30 6490 O 623.904 0.159923 -1.90129 0
M  V30 6491 C 621.044 -0.17277 -3.44667 0
M  V30 6492 C 620.157 -1.24808 -4.13578 0
M  V30 6493 C 619.292 -0.641631 -5.27311 0
M  V30 6494 C 618.331 -1.69795 -5.88078 0
M  V30 6495 N 617.468 -1.11223 -6.93234 0
M  V30 6496 H 622.308 -1.64576 -2.48432 0
M  V30 6497 H 619.845 -0.822174 -1.21978 0
M  V30 6498 H 621.803 0.17482 -4.16834 0
M  V30 6499 H 620.433 0.694725 -3.15235 0
M  V30 6500 H 619.485 -1.71288 -3.39653 0
M  V30 6501 H 620.797 -2.04795 -4.54819 0
M  V30 6502 H 619.951 -0.243128 -6.06213 0
M  V30 6503 H 618.69 0.189742 -4.87331 0
M  V30 6504 H 617.695 -2.10595 -5.07868 0
M  V30 6505 H 618.92 -2.53206 -6.3013 0
M  V30 6506 H 616.866 -0.302208 -6.55304 0
M  V30 6507 H 616.783 -1.84901 -7.3304 0
M  V30 6508 H 618.051 -0.740068 -7.75979 0
M  V30 6509 N 622.28 1.30327 -0.886154 0
M  V30 6510 C 623.19 2.31854 -0.357866 0
M  V30 6511 C 624.206 1.65392 0.540502 0
M  V30 6512 O 625.382 1.96683 0.433339 0
M  V30 6513 C 622.447 3.44171 0.417999 0
M  V30 6514 C 621.508 4.26257 -0.510263 0
M  V30 6515 C 620.741 5.3321 0.228669 0
M  V30 6516 O 620.964 5.51542 1.45458 0
M  V30 6517 O 619.898 6.0042 -0.421832 0
M  V30 6518 H 623.724 2.78995 -1.19982 0
M  V30 6519 H 621.309 1.34518 -0.650028 0
M  V30 6520 H 623.191 4.12588 0.857251 0
M  V30 6521 H 621.866 2.99164 1.23623 0
M  V30 6522 H 620.773 3.60533 -0.99835 0
M  V30 6523 H 622.106 4.74871 -1.29454 0
M  V30 6524 N 623.758 0.647228 1.43697 0
M  V30 6525 C 624.988 0.16551 2.05936 0
M  V30 6526 C 625.396 -1.17164 1.48557 0
M  V30 6527 O 624.739 -1.73307 0.60914 0
M  V30 6528 C 624.801 -0.00648082 3.59499 0
M  V30 6529 C 624.465 1.25503 4.39429 0
M  V30 6530 C 625.462 2.18241 4.71876 0
M  V30 6531 C 623.147 1.49494 4.79538 0
M  V30 6532 C 625.141 3.33268 5.43333 0
M  V30 6533 C 622.828 2.64815 5.50742 0
M  V30 6534 C 623.826 3.56528 5.82561 0
M  V30 6535 O 623.514 4.69836 6.52311 0
M  V30 6536 H 623.246 0.0844124 0.670709 0
M  V30 6537 H 625.8 0.88638 1.8529 0
M  V30 6538 H 624.03 -0.782661 3.78697 0
M  V30 6539 H 625.719 -0.444794 4.03456 0
M  V30 6540 H 626.485 2.00946 4.41413 0
M  V30 6541 H 622.364 0.789912 4.54182 0
M  V30 6542 H 625.908 4.04874 5.68087 0
M  V30 6543 H 621.805 2.82047 5.8062 0
M  V30 6544 H 622.573 4.69024 6.70789 0
M  V30 6545 N 625.236 -1.5273 0.388769 0
M  V30 6546 C 626.647 -1.86505 -0.0853788 0
M  V30 6547 C 626.998 -1.30847 -1.46197 0
M  V30 6548 O 626.123 -0.639609 -2.06732 0
M  V30 6549 C 626.718 -3.38414 -0.161703 0
M  V30 6550 C 625.277 -3.71902 -0.580144 0
M  V30 6551 C 624.424 -2.76095 0.258218 0
M  V30 6552 H 627.375 -1.46647 0.606665 0
M  V30 6553 H 627.396 -3.67638 -0.980936 0
M  V30 6554 H 626.908 -3.78893 0.840333 0
M  V30 6555 H 625.009 -3.36992 -1.58957 0
M  V30 6556 H 625.122 -4.77902 -0.338663 0
M  V30 6557 H 623.486 -2.53195 -0.276432 0
M  V30 6558 H 624.269 -3.19411 1.25822 0
M  V30 6559 N 626.714 -0.118576 -1.57153 0
M  V30 6560 C 627.644 0.828436 -2.1831 0
M  V30 6561 C 628.625 1.27758 -1.12303 0
M  V30 6562 O 629.81 1.34026 -1.40537 0
M  V30 6563 C 626.94 2.07876 -2.78217 0
M  V30 6564 C 625.894 1.76742 -3.89803 0
M  V30 6565 C 625.22 3.08801 -4.36516 0
M  V30 6566 C 626.52 1.03606 -5.11921 0
M  V30 6567 H 628.214 0.318824 -2.97698 0
M  V30 6568 H 625.76 0.151911 -1.43196 0
M  V30 6569 H 627.713 2.74584 -3.19659 0
M  V30 6570 H 626.437 2.61161 -1.96118 0
M  V30 6571 H 625.096 1.12424 -3.48936 0
M  V30 6572 H 624.744 3.6002 -3.51276 0
M  V30 6573 H 624.444 2.88743 -5.11763 0
M  V30 6574 H 625.968 3.76627 -4.80608 0
M  V30 6575 H 627.382 1.60467 -5.50385 0
M  V30 6576 H 625.779 0.936454 -5.92748 0
M  V30 6577 H 626.849 0.0227421 -4.84895 0
M  V30 6578 N 628.193 1.56834 0.155195 0
M  V30 6579 C 629.441 1.82536 0.867462 0
M  V30 6580 C 629.762 0.698168 1.82073 0
M  V30 6581 O 629.032 -0.280807 1.93877 0
M  V30 6582 H 627.612 0.673401 0.323327 0
M  V30 6583 H 630.274 1.94313 0.151156 0
M  V30 6584 H 629.37 2.77171 1.43466 0
M  V30 6585 N 629.671 -0.424282 1.51781 0
M  V30 6586 C 631.087 -0.761768 1.40247 0
M  V30 6587 C 631.287 -1.95324 0.495041 0
M  V30 6588 O 630.343 -2.5246 -0.0448949 0
M  V30 6589 C 631.656 -1.0299 2.82513 0
M  V30 6590 C 633.204 -1.13354 2.91753 0
M  V30 6591 C 633.679 -1.43453 4.34954 0
M  V30 6592 N 635.17 -1.5035 4.3812 0
M  V30 6593 C 635.905 -1.75236 5.45967 0
M  V30 6594 N 635.401 -1.97827 6.63955 0
M  V30 6595 N 637.194 -1.77126 5.33463 0
M  V30 6596 H 629.345 0.360228 2.09323 0
M  V30 6597 H 631.608 0.0988128 0.942836 0
M  V30 6598 H 631.314 -0.226961 3.50967 0
M  V30 6599 H 631.188 -1.95411 3.22637 0
M  V30 6600 H 633.575 -1.92709 2.23489 0
M  V30 6601 H 633.656 -0.188041 2.55108 0
M  V30 6602 H 633.3 -0.646209 5.03772 0
M  V30 6603 H 633.23 -2.3923 4.69123 0
M  V30 6604 H 635.721 -1.34742 3.53062 0
M  V30 6605 H 636.034 -2.16223 7.41935 0
M  V30 6606 H 634.379 -1.95123 6.67047 0
M  V30 6607 H 637.57 -1.59005 4.40267 0
M  V30 6608 H 637.743 -1.96182 6.17589 0
M  V30 6609 N 631.149 -1.42148 -0.680565 0
M  V30 6610 C 632.398 -1.41604 -1.43636 0
M  V30 6611 C 632.711 -0.0337887 -1.95571 0
M  V30 6612 O 633.917 0.0942588 -2.71336 0
M  V30 6613 C 632.373 -2.49056 -2.59806 0
M  V30 6614 C 631.981 -3.9326 -2.14594 0
M  V30 6615 C 633.725 -2.5767 -3.37352 0
M  V30 6616 C 631.632 -4.92232 -3.27813 0
M  V30 6617 H 630.562 -0.526656 -0.539583 0
M  V30 6618 H 633.213 -1.68033 -0.737369 0
M  V30 6619 H 631.595 -2.15782 -3.32045 0
M  V30 6620 H 632.769 -4.35858 -1.49546 0
M  V30 6621 H 631.084 -3.88443 -1.50002 0
M  V30 6622 H 633.681 -3.28794 -4.21662 0
M  V30 6623 H 634.024 -1.61837 -3.83555 0
M  V30 6624 H 634.557 -2.90109 -2.72179 0
M  V30 6625 H 631.296 -5.89522 -2.86607 0
M  V30 6626 H 630.816 -4.5427 -3.91661 0
M  V30 6627 H 632.495 -5.13684 -3.93367 0
M  V30 6628 N 632.627 0.916307 -1.28225 0
M  V30 6629 C 633.557 2.0352 -1.14464 0
M  V30 6630 C 634.538 1.70045 -0.0430844 0
M  V30 6631 O 635.723 1.92954 -0.219619 0
M  V30 6632 C 632.853 3.37889 -0.803027 0
M  V30 6633 C 631.807 3.85516 -1.85908 0
M  V30 6634 C 631.133 5.1682 -1.37116 0
M  V30 6635 C 632.433 4.07655 -3.26519 0
M  V30 6636 H 634.127 2.1529 -2.08064 0
M  V30 6637 H 631.673 1.03446 -1.00174 0
M  V30 6638 H 633.626 4.15654 -0.693537 0
M  V30 6639 H 632.35 3.26164 0.168674 0
M  V30 6640 H 631.009 3.09953 -1.95767 0
M  V30 6641 H 630.657 5.01497 -0.38859 0
M  V30 6642 H 630.357 5.49657 -2.07728 0
M  V30 6643 H 631.881 5.97143 -1.27484 0
M  V30 6644 H 633.295 4.75953 -3.19596 0
M  V30 6645 H 631.692 4.51818 -3.94943 0
M  V30 6646 H 632.762 3.12553 -3.70727 0
M  V30 6647 N 634.105 1.10431 1.1244 0
M  V30 6648 C 635.354 0.841539 1.83306 0
M  V30 6649 C 635.667 -0.634961 1.85007 0
M  V30 6650 O 636.873 -1.01363 2.51869 0
M  V30 6651 C 635.329 1.45565 3.29149 0
M  V30 6652 C 634.937 2.96544 3.35806 0
M  V30 6653 C 636.681 1.27227 4.04986 0
M  V30 6654 C 634.588 3.5099 4.75983 0
M  V30 6655 H 633.518 0.311156 0.686803 0
M  V30 6656 H 636.169 1.32829 1.26604 0
M  V30 6657 H 634.551 0.896574 3.85717 0
M  V30 6658 H 635.725 3.58766 2.89177 0
M  V30 6659 H 634.04 3.14036 2.73442 0
M  V30 6660 H 636.637 1.65348 5.08492 0
M  V30 6661 H 636.98 0.213834 4.1575 0
M  V30 6662 H 637.513 1.79941 3.54776 0
M  V30 6663 H 634.252 4.56499 4.70413 0
M  V30 6664 H 633.772 2.93535 5.23065 0
M  V30 6665 H 635.451 3.48808 5.44924 0
M  V30 6666 N 635.583 -1.29855 0.893053 0
M  V30 6667 C 636.831 -1.9544 0.514566 0
M  V30 6668 C 637.152 -1.70795 -0.940959 0
M  V30 6669 O 636.422 -1.03601 -1.66264 0
M  V30 6670 H 635.002 -0.723137 0.187302 0
M  V30 6671 H 637.664 -1.58234 1.13789 0
M  V30 6672 H 636.76 -3.04341 0.691581 0
M  V30 6673 N 637.061 -0.65484 -1.43351 0
M  V30 6674 C 638.309 -0.168559 -2.01396 0
M  V30 6675 C 638.63 1.22235 -1.51933 0
M  V30 6676 O 637.9 1.81685 -0.732627 0
M  V30 6677 H 636.48 -0.0593244 -0.744641 0
M  V30 6678 H 639.142 -0.846871 -1.75539 0
M  V30 6679 H 638.238 -0.154428 -3.11718 0
M  V30 6680 N 638.539 1.52521 -0.396863 0
M  V30 6681 C 639.487 2.28217 0.44943 0
M  V30 6682 C 640.481 1.32416 1.05652 0
M  V30 6683 O 641.687 1.49925 0.996124 0
M  V30 6684 H 638.062 0.733966 0.1637 0
M  V30 6685 H 640.033 2.97658 -0.210367 0
M  V30 6686 C 638.782 3.10713 1.56054 0
M  V30 6687 H 638.105 3.84291 1.10273 0
M  V30 6688 H 639.545 3.66803 2.12677 0
M  V30 6689 C 638.004 2.23499 2.52091 0
M  V30 6690 O 638.534 1.8669 3.55682 0
M  V30 6691 N 636.74 1.8751 2.2201 0
M  V30 6692 H 636.287 2.17643 1.37802 0
M  V30 6693 H 636.245 1.29448 2.86514 0
M  V30 6694 N 640.017 0.126909 1.57088 0
M  V30 6695 C 640.947 -0.816847 2.18746 0
M  V30 6696 C 641.928 -1.27161 1.12979 0
M  V30 6697 O 643.113 -1.33279 1.41246 0
M  V30 6698 C 640.243 -2.06398 2.79315 0
M  V30 6699 C 639.197 -1.74673 3.90735 0
M  V30 6700 C 638.523 -3.06482 4.38147 0
M  V30 6701 C 639.823 -1.0089 5.12463 0
M  V30 6702 H 641.517 -0.303032 2.97863 0
M  V30 6703 H 639.063 -0.144314 1.43275 0
M  V30 6704 H 641.016 -2.72885 3.2111 0
M  V30 6705 H 639.74 -2.60118 1.975 0
M  V30 6706 H 638.399 -1.10572 3.49527 0
M  V30 6707 H 638.047 -3.58152 3.5318 0
M  V30 6708 H 637.747 -2.86025 5.13287 0
M  V30 6709 H 639.271 -3.74073 4.82599 0
M  V30 6710 H 640.685 -1.57546 5.51228 0
M  V30 6711 H 639.082 -0.905006 5.93237 0
M  V30 6712 H 640.152 0.00297335 4.849 0
M  V30 6713 N 641.495 -1.56914 -0.146875 0
M  V30 6714 C 642.906 -1.72799 -0.706928 0
M  V30 6715 C 643.257 -0.741329 -1.81656 0
M  V30 6716 O 642.382 0.0920162 -2.16204 0
M  V30 6717 C 642.977 -3.13317 -1.28911 0
M  V30 6718 C 641.536 -3.30803 -1.79573 0
M  V30 6719 C 640.683 -2.68725 -0.684252 0
M  V30 6720 H 643.634 -1.58504 0.0787931 0
M  V30 6721 H 643.655 -3.13323 -2.15891 0
M  V30 6722 H 643.167 -3.85104 -0.481284 0
M  V30 6723 H 641.268 -2.64012 -2.62923 0
M  V30 6724 H 641.381 -4.38754 -1.92436 0
M  V30 6725 H 639.745 -2.29196 -1.11091 0
M  V30 6726 H 640.528 -3.43117 0.112134 0
M  V30 6727 N 642.974 0.416227 -1.52004 0
M  V30 6728 C 644.222 1.16153 -1.65387 0
M  V30 6729 C 644.543 1.91208 -0.382669 0
M  V30 6730 O 643.813 1.86413 0.602231 0
M  V30 6731 H 642.393 0.431765 -0.60958 0
M  V30 6732 H 645.055 0.475151 -1.89019 0
M  V30 6733 H 644.151 1.87952 -2.4916 0
M  V30 6734 N 644.452 1.42507 0.673017 0
M  V30 6735 C 645.677 1.4668 1.46627 0
M  V30 6736 C 646.102 0.080066 1.8793 0
M  V30 6737 O 645.46 -0.921879 1.56112 0
M  V30 6738 C 645.508 2.40091 2.69051 0
M  V30 6739 O 644.612 1.8735 3.67387 0
M  V30 6740 H 643.953 0.496908 0.44043 0
M  V30 6741 H 646.483 1.87215 0.825334 0
M  V30 6742 H 646.493 2.56731 3.17101 0
M  V30 6743 H 645.168 3.4084 2.3833 0
M  V30 6744 H 643.745 1.80274 3.26429 0
M  V30 6745 N 645.93 -0.909495 1.28709 0
M  V30 6746 C 647.155 -1.69801 1.1909 0
M  V30 6747 C 647.58 -1.86479 -0.246388 0
M  V30 6748 O 646.938 -1.37802 -1.17815 0
M  V30 6749 C 646.986 -3.06543 1.89904 0
M  V30 6750 O 646.09 -3.94268 1.2094 0
M  V30 6751 H 645.431 -0.519783 0.413185 0
M  V30 6752 H 647.961 -1.13689 1.70106 0
M  V30 6753 H 647.971 -3.56748 1.97977 0
M  V30 6754 H 646.646 -2.93722 2.94449 0
M  V30 6755 H 645.223 -3.52702 1.2106 0
M  V30 6756 N 647.408 -1.11026 -1.11852 0
M  V30 6757 C 648.656 -0.854769 -1.83134 0
M  V30 6758 C 648.977 0.621375 -1.84835 0
M  V30 6759 O 648.247 1.45129 -1.31584 0
M  V30 6760 H 646.827 -0.313229 -0.678157 0
M  V30 6761 H 649.489 -1.40178 -1.35411 0
M  V30 6762 H 648.585 -1.22311 -2.87135 0
M  V30 6763 N 648.886 1.2938 -0.899927 0
M  V30 6764 C 650.302 1.48052 -0.596059 0
M  V30 6765 C 650.502 1.82114 0.862372 0
M  V30 6766 O 649.558 1.91774 1.64253 0
M  V30 6767 C 650.871 2.59332 -1.52208 0
M  V30 6768 C 652.419 2.73208 -1.5273 0
M  V30 6769 C 652.894 3.87617 -2.43961 0
M  V30 6770 N 654.385 3.9495 -2.42009 0
M  V30 6771 C 655.12 4.82824 -3.09303 0
M  V30 6772 N 654.616 5.75387 -3.85877 0
M  V30 6773 N 656.409 4.76317 -2.98459 0
M  V30 6774 H 648.56 1.05546 -1.8432 0
M  V30 6775 H 650.823 0.524314 -0.78981 0
M  V30 6776 H 650.529 2.41029 -2.56121 0
M  V30 6777 H 650.403 3.56139 -1.24278 0
M  V30 6778 H 652.79 2.90908 -0.495614 0
M  V30 6779 H 652.871 1.76975 -1.84698 0
M  V30 6780 H 652.515 3.70672 -3.47224 0
M  V30 6781 H 652.445 4.83218 -2.09303 0
M  V30 6782 H 654.936 3.28744 -1.86375 0
M  V30 6783 H 655.249 6.39235 -4.34279 0
M  V30 6784 H 653.594 5.75272 -3.89984 0
M  V30 6785 H 656.785 4.0299 -2.38152 0
M  V30 6786 H 656.958 5.44589 -3.51179 0
M  V30 6787 N 650.364 0.662433 1.43002 0
M  V30 6788 C 651.78 0.330835 1.56133 0
M  V30 6789 C 651.98 -1.16454 1.64441 0
M  V30 6790 O 651.036 -1.94964 1.60453 0
M  V30 6791 C 652.349 1.05029 2.81761 0
M  V30 6792 C 653.897 1.03142 2.95518 0
M  V30 6793 C 654.372 1.73196 4.2399 0
M  V30 6794 N 655.863 1.70004 4.30875 0
M  V30 6795 C 656.598 2.21074 5.29069 0
M  V30 6796 N 656.094 2.80473 6.33488 0
M  V30 6797 N 657.887 2.1152 5.20784 0
M  V30 6798 H 650.038 1.63272 1.35853 0
M  V30 6799 H 652.301 0.687149 0.653092 0
M  V30 6800 H 652.007 2.10542 2.81718 0
M  V30 6801 H 651.881 0.607664 3.72273 0
M  V30 6802 H 654.268 -0.0153339 2.95096 0
M  V30 6803 H 654.349 1.51282 2.0627 0
M  V30 6804 H 653.993 2.77833 4.25172 0
M  V30 6805 H 653.923 1.22515 5.1215 0
M  V30 6806 H 656.414 1.26667 3.56039 0
M  V30 6807 H 656.727 3.17094 7.04749 0
M  V30 6808 H 655.072 2.84538 6.34085 0
M  V30 6809 H 658.263 1.64814 4.38126 0
M  V30 6810 H 658.436 2.51629 5.97149 0
M  V30 6811 N 651.842 -1.52309 0.404946 0
M  V30 6812 C 653.088 -2.02065 -0.172455 0
M  V30 6813 C 653.421 -1.29022 -1.45145 0
M  V30 6814 O 652.696 -0.395284 -1.90441 0
M  V30 6815 C 652.979 -3.5759 -0.424433 0
M  V30 6816 C 652.832 -4.41287 0.870945 0
M  V30 6817 C 654.151 -4.23186 -1.20837 0
M  V30 6818 H 651.27 -0.734454 -0.0612035 0
M  V30 6819 H 653.912 -1.82236 0.53759 0
M  V30 6820 H 652.062 -3.74617 -1.02929 0
M  V30 6821 H 653.734 -4.3598 1.50729 0
M  V30 6822 H 651.977 -4.07669 1.48284 0
M  V30 6823 H 652.648 -5.48171 0.649083 0
M  V30 6824 H 655.124 -4.10232 -0.696338 0
M  V30 6825 H 654 -5.31953 -1.35343 0
M  V30 6826 H 654.261 -3.81862 -2.22786 0
M  V30 6827 N 653.32 -0.135238 -1.57019 0
M  V30 6828 C 654.548 0.526066 -2.001 0
M  V30 6829 C 654.963 1.59184 -1.01519 0
M  V30 6830 O 654.32 1.82497 -0.0104258 0
M  V30 6831 C 654.371 1.13744 -3.43139 0
M  V30 6832 O 654.092 0.114259 -4.37951 0
M  V30 6833 C 655.593 1.8805 -4.01438 0
M  V30 6834 H 652.813 0.137962 -0.656664 0
M  V30 6835 H 655.357 -0.226359 -2.03243 0
M  V30 6836 H 653.512 1.84056 -3.40885 0
M  V30 6837 H 653.926 0.56058 -5.21496 0
M  V30 6838 H 655.4 2.26133 -5.03555 0
M  V30 6839 H 655.877 2.76194 -3.41487 0
M  V30 6840 H 656.483 1.22464 -4.07287 0
M  V30 6841 N 654.798 1.5699 0.138552 0
M  V30 6842 C 655.73 1.95515 1.1961 0
M  V30 6843 C 656.743 0.852002 1.38726 0
M  V30 6844 O 657.932 1.13038 1.38147 0
M  V30 6845 C 655.032 2.2213 2.55952 0
M  V30 6846 C 654.205 3.53424 2.57702 0
M  V30 6847 C 653.264 3.6848 3.75645 0
M  V30 6848 O 652.29 4.4079 3.60129 0
M  V30 6849 N 653.492 3.05777 4.93438 0
M  V30 6850 H 656.257 2.86838 0.868557 0
M  V30 6851 H 653.818 1.58542 0.328033 0
M  V30 6852 H 655.81 2.29435 3.33379 0
M  V30 6853 H 654.38 1.3703 2.80965 0
M  V30 6854 H 653.6 3.57484 1.6613 0
M  V30 6855 H 654.888 4.39759 2.55909 0
M  V30 6856 H 654.286 2.46961 5.08947 0
M  V30 6857 H 652.843 3.18631 5.6861 0
M  V30 6858 N 656.276 -0.40816 1.52223 0
M  V30 6859 C 657.522 -1.15673 1.66576 0
M  V30 6860 C 657.855 -1.90141 0.394996 0
M  V30 6861 O 657.13 -1.84798 -0.606613 0
M  V30 6862 C 657.413 -2.15042 2.88841 0
M  V30 6863 C 657.266 -1.44465 4.25969 0
M  V30 6864 C 658.585 -3.15699 3.0663 0
M  V30 6865 H 655.704 -0.41916 0.606196 0
M  V30 6866 H 658.346 -0.442348 1.84779 0
M  V30 6867 H 656.496 -2.75964 2.73452 0
M  V30 6868 H 658.168 -0.866544 4.53088 0
M  V30 6869 H 656.411 -0.746612 4.27327 0
M  V30 6870 H 657.082 -2.16976 5.07568 0
M  V30 6871 H 659.558 -2.64854 3.20923 0
M  V30 6872 H 658.434 -3.82491 3.9369 0
M  V30 6873 H 658.695 -3.83481 2.19987 0
M  V30 6874 N 657.755 -1.42862 -0.66545 0
M  V30 6875 C 659.001 -1.44043 -1.42757 0
M  V30 6876 C 659.334 -0.0599629 -1.94107 0
M  V30 6877 O 658.609 0.917286 -1.71511 0
M  V30 6878 C 658.892 -2.47266 -2.61786 0
M  V30 6879 C 658.745 -3.94539 -2.16007 0
M  V30 6880 C 660.064 -2.47365 -3.64003 0
M  V30 6881 H 657.183 -0.524506 -0.517748 0
M  V30 6882 H 659.825 -1.74335 -0.755466 0
M  V30 6883 H 657.975 -2.21565 -3.19126 0
M  V30 6884 H 659.647 -4.31254 -1.63762 0
M  V30 6885 H 657.89 -4.07957 -1.47491 0
M  V30 6886 H 658.561 -4.62357 -3.01546 0
M  V30 6887 H 661.037 -2.70243 -3.16399 0
M  V30 6888 H 659.913 -3.21552 -4.44854 0
M  V30 6889 H 660.174 -1.50299 -4.15767 0
M  V30 6890 N 659.233 0.902656 -1.29189 0
M  V30 6891 C 660.649 1.18296 -1.07137 0
M  V30 6892 C 660.849 2.00701 0.179223 0
M  V30 6893 O 659.905 2.3675 0.877812 0
M  V30 6894 C 661.218 1.90677 -2.32514 0
M  V30 6895 C 662.766 2.03515 -2.37804 0
M  V30 6896 C 663.241 2.79307 -3.62976 0
M  V30 6897 N 664.732 2.86862 -3.63681 0
M  V30 6898 C 665.467 3.46035 -4.57217 0
M  V30 6899 N 664.963 4.06399 -5.61081 0
M  V30 6900 N 666.756 3.43681 -4.44792 0
M  V30 6901 H 658.907 0.352765 -2.0945 0
M  V30 6902 H 661.17 0.21876 -0.922414 0
M  V30 6903 H 660.876 1.3756 -3.23682 0
M  V30 6904 H 660.75 2.91169 -2.39793 0
M  V30 6905 H 663.137 2.55809 -1.47125 0
M  V30 6906 H 663.218 1.02166 -2.34512 0
M  V30 6907 H 662.862 2.2769 -4.54004 0
M  V30 6908 H 662.792 3.80995 -3.63525 0
M  V30 6909 H 665.283 2.43987 -2.88581 0
M  V30 6910 H 665.596 4.49564 -6.2858 0
M  V30 6911 H 663.941 4.0487 -5.64894 0
M  V30 6912 H 667.132 2.9574 -3.62843 0
M  V30 6913 H 667.305 3.89503 -5.17872 0
M  V30 6914 N 660.711 1.11618 1.11262 0
M  V30 6915 C 661.988 0.777876 1.79467 0
M  V30 6916 C 662.368 -0.733774 1.97937 0
M  V30 6917 O 661.716 -1.66443 1.56554 0
M  V30 6918 C 661.926 1.5431 3.13032 0
M  V30 6919 C 663.274 1.72357 3.88044 0
M  V30 6920 O 664.298 1.5075 3.22727 0
M  V30 6921 O 663.157 2.08276 5.05256 0
M  V30 6922 H 660.251 0.282018 0.777428 0
M  V30 6923 H 662.797 1.21971 1.17988 0
M  V30 6924 H 661.569 2.57132 2.94956 0
M  V30 6925 H 661.192 1.09495 3.82226 0
M  V30 6926 N 662.189 -1.289 0.906776 0
M  V30 6927 C 663.436 -1.95269 0.536326 0
M  V30 6928 C 663.764 -1.71435 -0.918711 0
M  V30 6929 O 663.019 -1.02431 -1.66752 0
M  V30 6930 C 663.318 -3.48704 0.783617 0
M  V30 6931 C 662.984 -3.92626 2.21711 0
M  V30 6932 C 661.646 -4.04329 2.60906 0
M  V30 6933 C 663.998 -4.15218 3.15029 0
M  V30 6934 C 661.326 -4.35998 3.92584 0
M  V30 6935 C 663.678 -4.48365 4.46264 0
M  V30 6936 C 662.342 -4.58278 4.85322 0
M  V30 6937 H 661.612 -0.714538 0.196256 0
M  V30 6938 H 664.259 -1.53366 1.14678 0
M  V30 6939 H 662.564 -3.91696 0.0903048 0
M  V30 6940 H 664.261 -3.98162 0.476267 0
M  V30 6941 H 660.851 -3.84038 1.90296 0
M  V30 6942 H 665.035 -4.05636 2.8596 0
M  V30 6943 H 660.291 -4.41878 4.22557 0
M  V30 6944 H 664.465 -4.64795 5.18593 0
M  V30 6945 H 662.092 -4.82573 5.87391 0
M  V30 6946 N 663.667 -0.670007 -1.42649 0
M  V30 6947 C 664.597 -0.00258501 -2.335 0
M  V30 6948 C 665.578 0.794364 -1.50412 0
M  V30 6949 O 666.763 0.75248 -1.79029 0
M  V30 6950 C 663.893 0.952748 -3.33976 0
M  V30 6951 C 662.847 0.264733 -4.2718 0
M  V30 6952 C 662.173 1.33267 -5.17826 0
M  V30 6953 C 663.473 -0.853289 -5.15283 0
M  V30 6954 H 665.167 -0.761326 -2.89559 0
M  V30 6955 H 662.713 -0.367561 -1.3923 0
M  V30 6956 H 664.666 1.4287 -3.96442 0
M  V30 6957 H 663.39 1.74285 -2.7621 0
M  V30 6958 H 662.049 -0.190938 -3.66102 0
M  V30 6959 H 661.697 2.11464 -4.5639 0
M  V30 6960 H 661.397 0.877476 -5.81011 0
M  V30 6961 H 662.921 1.80965 -5.83167 0
M  V30 6962 H 664.335 -0.458763 -5.71462 0
M  V30 6963 H 662.732 -1.23398 -5.87276 0
M  V30 6964 H 663.802 -1.70412 -4.53969 0
M  V30 6965 N 665.145 1.52092 -0.413018 0
M  V30 6966 C 666.095 2.23947 0.427993 0
M  V30 6967 C 667.079 1.25229 1.01027 0
M  V30 6968 O 668.271 1.50448 0.932444 0
M  V30 6969 C 665.4 3.0672 1.542 0
M  V30 6970 C 664.486 4.12851 0.970307 0
M  V30 6971 N 664.877 5.05644 0.125611 0
M  V30 6972 C 663.175 4.28404 1.24042 0
M  V30 6973 C 663.876 5.8138 -0.192876 0
M  V30 6974 N 662.852 5.41996 0.417273 0
M  V30 6975 H 666.654 2.93048 -0.223628 0
M  V30 6976 H 664.168 1.60852 -0.223664 0
M  V30 6977 H 666.165 3.56754 2.15714 0
M  V30 6978 H 664.825 2.39159 2.19621 0
M  V30 6979 H 665.836 5.17348 -0.238995 0
M  V30 6980 H 662.513 3.72071 1.89391 0
M  V30 6981 H 663.903 6.66129 -0.878762 0
M  V30 6982 N 666.623 0.143563 1.56945 0
M  V30 6983 C 667.586 -0.783295 2.154 0
M  V30 6984 C 668.586 -1.17763 1.09492 0
M  V30 6985 O 669.776 -1.09912 1.35148 0
M  V30 6986 C 666.908 -2.06248 2.7143 0
M  V30 6987 H 668.101 -0.274863 2.98638 0
M  V30 6988 H 665.654 -0.105859 1.55941 0
M  V30 6989 H 666.389 -2.61466 1.91849 0
M  V30 6990 H 666.174 -1.78897 3.4891 0
M  V30 6991 H 667.664 -2.72453 3.16479 0
M  V30 6992 N 668.101 -1.57061 -0.130224 0
M  V30 6993 C 669.033 -1.96147 -1.18571 0
M  V30 6994 C 670.046 -0.859347 -1.38272 0
M  V30 6995 O 671.235 -1.13769 -1.37545 0
M  V30 6996 C 668.335 -2.23484 -2.54771 0
M  V30 6997 C 667.508 -3.54786 -2.55824 0
M  V30 6998 C 666.567 -3.70467 -3.73686 0
M  V30 6999 O 665.593 -4.42693 -3.57787 0
M  V30 7000 N 666.795 -3.08389 -4.91809 0
M  V30 7001 H 669.56 -2.87295 -0.853333 0
M  V30 7002 H 667.121 -1.58714 -0.319621 0
M  V30 7003 H 669.113 -2.312 -3.32158 0
M  V30 7004 H 667.683 -1.38518 -2.80235 0
M  V30 7005 H 666.903 -3.5836 -1.64232 0
M  V30 7006 H 668.191 -4.4111 -2.53573 0
M  V30 7007 H 667.589 -2.49656 -5.0763 0
M  V30 7008 H 666.146 -3.21642 -5.66912 0
M  V30 7009 N 669.579 0.400081 -1.52437 0
M  V30 7010 C 670.526 1.48803 -1.76426 0
M  V30 7011 C 671.496 1.5461 -0.607032 0
M  V30 7012 O 672.681 1.71041 -0.845563 0
M  V30 7013 C 669.821 2.86156 -1.92896 0
M  V30 7014 C 668.934 2.89587 -3.20567 0
M  V30 7015 C 668.069 4.18296 -3.27417 0
M  V30 7016 C 667.108 4.15736 -4.49255 0
M  V30 7017 N 666.245 5.36032 -4.53447 0
M  V30 7018 H 671.085 1.27649 -2.69276 0
M  V30 7019 H 668.622 0.619451 -1.33421 0
M  V30 7020 H 670.58 3.65901 -2.00429 0
M  V30 7021 H 669.21 3.05785 -1.03418 0
M  V30 7022 H 668.262 2.02278 -3.22161 0
M  V30 7023 H 669.574 2.83562 -4.10358 0
M  V30 7024 H 668.728 5.06439 -3.34072 0
M  V30 7025 H 667.467 4.27028 -2.35581 0
M  V30 7026 H 666.472 3.25982 -4.42737 0
M  V30 7027 H 667.697 4.08636 -5.42396 0
M  V30 7028 H 665.643 5.45415 -3.64498 0
M  V30 7029 H 665.56 5.32038 -5.37096 0
M  V30 7030 H 666.828 6.26104 -4.64343 0
M  V30 7031 N 671.057 1.43213 0.657864 0
M  V30 7032 C 672.303 1.44798 1.41991 0
M  V30 7033 C 672.636 0.070256 1.94073 0
M  V30 7034 O 671.911 -0.908177 1.71995 0
M  V30 7035 C 672.194 2.4865 2.60471 0
M  V30 7036 C 672.047 3.95679 2.13911 0
M  V30 7037 C 673.366 2.49292 3.62686 0
M  V30 7038 H 670.485 0.527244 0.514959 0
M  V30 7039 H 673.127 1.74733 0.74621 0
M  V30 7040 H 671.277 2.23254 3.17946 0
M  V30 7041 H 672.949 4.32116 1.61472 0
M  V30 7042 H 671.192 4.08733 1.45325 0
M  V30 7043 H 671.863 4.6395 2.99089 0
M  V30 7044 H 674.339 2.71917 3.14961 0
M  V30 7045 H 673.215 3.23907 4.43143 0
M  V30 7046 H 673.476 1.52502 4.14964 0
M  V30 7047 N 672.536 -0.895792 1.29666 0
M  V30 7048 C 673.468 -2.00563 1.10937 0
M  V30 7049 C 674.481 -1.62705 0.055734 0
M  V30 7050 O 675.67 -1.7595 0.300656 0
M  V30 7051 C 672.77 -3.32262 0.667448 0
M  V30 7052 C 671.943 -3.98625 1.80047 0
M  V30 7053 C 671.002 -5.08617 1.3489 0
M  V30 7054 O 670.028 -5.30837 2.05429 0
M  V30 7055 N 671.23 -5.80076 0.221937 0
M  V30 7056 H 673.995 -2.17184 2.06522 0
M  V30 7057 H 671.556 -1.06822 1.21658 0
M  V30 7058 H 673.548 -4.03196 0.348586 0
M  V30 7059 H 672.118 -3.11985 -0.196055 0
M  V30 7060 H 671.338 -3.21005 2.28801 0
M  V30 7061 H 672.626 -4.39704 2.56003 0
M  V30 7062 H 672.024 -5.64514 -0.366084 0
M  V30 7063 H 670.581 -6.51789 -0.0375346 0
M  V30 7064 N 674.014 -1.12206 -1.10668 0
M  V30 7065 C 675.425 -0.890657 -1.64086 0
M  V30 7066 C 675.776 0.575502 -1.8757 0
M  V30 7067 O 674.901 1.4394 -1.61587 0
M  V30 7068 C 675.496 -1.61029 -2.98085 0
M  V30 7069 C 674.055 -1.4251 -3.48379 0
M  V30 7070 C 673.202 -1.64778 -2.23033 0
M  V30 7071 H 676.153 -1.27718 -0.94201 0
M  V30 7072 H 676.174 -1.05993 -3.65439 0
M  V30 7073 H 675.686 -2.67735 -2.80962 0
M  V30 7074 H 673.787 -0.380497 -3.70652 0
M  V30 7075 H 673.9 -2.17959 -4.26651 0
M  V30 7076 H 672.264 -1.07171 -2.31055 0
M  V30 7077 H 673.047 -2.72776 -2.08443 0
M  V30 7078 N 675.492 1.28418 -0.913599 0
M  V30 7079 C 676.903 1.77024 -0.593237 0
M  V30 7080 C 677.254 1.74779 0.891441 0
M  V30 7081 O 676.379 1.34237 1.69733 0
M  V30 7082 C 676.974 3.21456 -1.07011 0
M  V30 7083 C 675.533 3.67786 -0.800664 0
M  V30 7084 C 674.68 2.48185 -1.23691 0
M  V30 7085 H 677.631 1.14883 -1.09487 0
M  V30 7086 H 677.652 3.78269 -0.411481 0
M  V30 7087 H 677.164 3.23058 -2.1507 0
M  V30 7088 H 675.265 3.71644 0.266725 0
M  V30 7089 H 675.378 4.57934 -1.4083 0
M  V30 7090 H 673.742 2.46116 -0.655655 0
M  V30 7091 H 674.525 2.52506 -2.32585 0
M  V30 7092 N 676.97 0.677563 1.42291 0
M  V30 7093 C 678.216 0.201272 2.01799 0
M  V30 7094 C 678.549 -1.19004 1.53465 0
M  V30 7095 O 677.824 -1.79953 0.738039 0
M  V30 7096 C 678.107 0.238968 3.59306 0
M  V30 7097 C 677.96 1.66594 4.17812 0
M  V30 7098 C 679.279 -0.411287 4.38174 0
M  V30 7099 H 676.398 0.0746114 0.733214 0
M  V30 7100 H 679.04 0.862872 1.69276 0
M  V30 7101 H 677.19 -0.324368 3.87144 0
M  V30 7102 H 678.862 2.28173 4.00917 0
M  V30 7103 H 677.105 2.20576 3.73536 0
M  V30 7104 H 677.776 1.64398 5.26951 0
M  V30 7105 H 680.252 0.0682804 4.16044 0
M  V30 7106 H 679.128 -0.354286 5.47755 0
M  V30 7107 H 679.389 -1.4893 4.1626 0
M  V30 7108 N 678.448 -1.51871 0.421078 0
M  V30 7109 C 679.358 -2.31077 -0.405069 0
M  V30 7110 C 680.374 -1.39301 -1.04265 0
M  V30 7111 O 681.55 -1.72376 -1.04157 0
M  V30 7112 C 678.615 -3.12556 -1.50032 0
M  V30 7113 C 677.676 -4.20088 -0.884559 0
M  V30 7114 C 676.909 -4.97673 -1.92762 0
M  V30 7115 O 677.132 -4.75696 -3.14753 0
M  V30 7116 O 676.066 -5.82203 -1.52719 0
M  V30 7117 H 679.892 -3.02742 0.241086 0
M  V30 7118 H 677.477 -1.48263 0.183991 0
M  V30 7119 H 679.359 -3.6326 -2.13589 0
M  V30 7120 H 678.034 -2.43672 -2.13086 0
M  V30 7121 H 676.941 -3.73502 -0.211379 0
M  V30 7122 H 678.274 -4.91298 -0.297763 0
M  V30 7123 N 679.926 -0.151884 -1.56866 0
M  V30 7124 C 680.856 0.781943 -2.20018 0
M  V30 7125 C 681.837 1.25347 -1.14987 0
M  V30 7126 O 683.022 1.31015 -1.43348 0
M  V30 7127 C 680.152 2.01928 -2.82564 0
M  V30 7128 C 679.106 1.68434 -3.93464 0
M  V30 7129 C 678.432 2.99472 -4.42968 0
M  V30 7130 C 679.732 0.927244 -5.14003 0
M  V30 7131 H 681.426 0.255607 -2.98307 0
M  V30 7132 H 678.972 0.121502 -1.43486 0
M  V30 7133 H 680.925 2.67741 -3.25411 0
M  V30 7134 H 679.649 2.56943 -2.01614 0
M  V30 7135 H 678.308 1.04998 -3.51242 0
M  V30 7136 H 677.956 3.52488 -3.58834 0
M  V30 7137 H 677.656 2.77823 -5.17772 0
M  V30 7138 H 679.18 3.66348 -4.88489 0
M  V30 7139 H 680.594 1.48756 -5.53665 0
M  V30 7140 H 678.991 0.810513 -5.94601 0
M  V30 7141 H 680.061 -0.0801163 -4.84834 0
M  V30 7142 N 681.404 1.57128 0.121893 0
M  V30 7143 C 682.651 1.847 0.830188 0
M  V30 7144 C 682.979 0.736543 1.80015 0
M  V30 7145 O 682.234 -0.272358 1.93796 0
M  V30 7146 C 682.533 3.1874 1.61677 0
M  V30 7147 C 682.199 4.43901 0.791361 0
M  V30 7148 C 680.861 4.77887 0.563731 0
M  V30 7149 C 683.213 5.20753 0.215823 0
M  V30 7150 C 680.541 5.86168 -0.249737 0
M  V30 7151 C 682.893 6.29891 -0.584821 0
M  V30 7152 C 681.557 6.6241 -0.822794 0
M  V30 7153 H 680.827 0.675866 0.303787 0
M  V30 7154 H 683.474 1.91276 0.0926894 0
M  V30 7155 H 681.779 3.07728 2.42509 0
M  V30 7156 H 683.476 3.37295 2.16872 0
M  V30 7157 H 680.066 4.17272 0.978867 0
M  V30 7158 H 684.25 4.94851 0.378907 0
M  V30 7159 H 679.506 6.0979 -0.44336 0
M  V30 7160 H 683.68 6.88624 -1.03779 0
M  V30 7161 H 681.307 7.46147 -1.45496 0
M  V30 7162 N 682.882 -0.391992 1.52647 0
M  V30 7163 C 684.128 -1.139 1.67793 0
M  V30 7164 C 684.461 -1.89711 0.41514 0
M  V30 7165 O 683.736 -1.85431 -0.586979 0
M  V30 7166 C 684.019 -2.11966 2.91105 0
M  V30 7167 C 683.872 -1.39939 4.27478 0
M  V30 7168 C 685.191 -3.1243 3.09961 0
M  V30 7169 H 682.31 -0.412707 0.610608 0
M  V30 7170 H 684.952 -0.422725 1.85238 0
M  V30 7171 H 683.102 -2.73048 2.76364 0
M  V30 7172 H 684.774 -0.818439 4.53982 0
M  V30 7173 H 683.017 -0.701246 4.28095 0
M  V30 7174 H 683.688 -2.1158 5.09841 0
M  V30 7175 H 686.164 -2.61435 3.23714 0
M  V30 7176 H 685.04 -3.78294 3.97725 0
M  V30 7177 H 685.301 -3.81127 2.24042 0
M  V30 7178 N 684.36 -1.4356 -0.65026 0
M  V30 7179 C 685.637 -1.35811 -1.40765 0
M  V30 7180 C 686.017 -0.00736379 -2.11099 0
M  V30 7181 O 685.365 1.00932 -2.05 0
M  V30 7182 C 685.575 -2.54332 -2.3899 0
M  V30 7183 C 686.923 -2.97551 -3.02901 0
M  V30 7184 O 687.947 -2.544 -2.49317 0
M  V30 7185 O 686.806 -3.72311 -4.00059 0
M  V30 7186 H 683.9 -0.536861 -0.629054 0
M  V30 7187 H 686.446 -1.55615 -0.676919 0
M  V30 7188 H 685.218 -3.44274 -1.85986 0
M  V30 7189 H 684.841 -2.36643 -3.19509 0
M  V30 7190 N 685.838 0.888903 -1.30139 0
M  V30 7191 C 687.084 1.64288 -1.19922 0
M  V30 7192 C 687.439 1.90839 0.244561 0
M  V30 7193 O 686.732 1.51544 1.17239 0
M  V30 7194 C 686.926 2.99041 -1.95728 0
M  V30 7195 C 686.755 2.85644 -3.47329 0
M  V30 7196 C 685.525 2.85836 -4.16685 0
M  V30 7197 C 687.723 2.6188 -4.42632 0
M  V30 7198 N 685.705 2.63289 -5.54574 0
M  V30 7199 C 687.076 2.48418 -5.68057 0
M  V30 7200 C 689.131 2.47073 -4.32272 0
M  V30 7201 C 687.834 2.21655 -6.84296 0
M  V30 7202 C 689.86 2.21695 -5.48275 0
M  V30 7203 C 689.222 2.09007 -6.72678 0
M  V30 7204 H 685.321 0.606315 -0.493868 0
M  V30 7205 H 687.905 1.0478 -1.64102 0
M  V30 7206 H 686.076 3.56589 -1.53945 0
M  V30 7207 H 687.808 3.63607 -1.77685 0
M  V30 7208 H 684.563 2.97521 -3.68481 0
M  V30 7209 H 684.987 2.55039 -6.27124 0
M  V30 7210 H 689.629 2.55621 -3.36776 0
M  V30 7211 H 687.347 2.11845 -7.79838 0
M  V30 7212 H 690.933 2.11067 -5.42164 0
M  V30 7213 H 689.813 1.89643 -7.60924 0
M  V30 7214 N 687.317 1.12792 1.10072 0
M  V30 7215 C 688.247 0.821688 2.18565 0
M  V30 7216 C 689.228 -0.21612 1.68721 0
M  V30 7217 O 690.413 -0.0764932 1.94049 0
M  V30 7218 C 687.543 0.279624 3.46172 0
M  V30 7219 C 686.497 1.25092 4.09312 0
M  V30 7220 C 685.823 0.568916 5.31665 0
M  V30 7221 C 687.123 2.60699 4.52585 0
M  V30 7222 H 688.817 1.72888 2.44438 0
M  V30 7223 H 686.363 0.832702 1.17482 0
M  V30 7224 H 688.316 0.053099 4.21367 0
M  V30 7225 H 687.04 -0.662929 3.19801 0
M  V30 7226 H 685.699 1.46332 3.36129 0
M  V30 7227 H 685.347 -0.378898 5.01571 0
M  V30 7228 H 685.047 1.21687 5.74862 0
M  V30 7229 H 686.571 0.351517 6.09587 0
M  V30 7230 H 687.985 2.43465 5.19035 0
M  V30 7231 H 686.382 3.21608 5.06644 0
M  V30 7232 H 687.452 3.1886 3.65317 0
M  V30 7233 N 688.795 -1.27931 0.920396 0
M  V30 7234 C 689.758 -2.25345 0.41858 0
M  V30 7235 C 690.758 -1.54116 -0.458798 0
M  V30 7236 O 691.948 -1.72235 -0.260912 0
M  V30 7237 C 689.08 -3.38556 -0.399104 0
M  V30 7238 H 690.273 -2.71251 1.27918 0
M  V30 7239 H 687.826 -1.39728 0.700406 0
M  V30 7240 H 688.561 -2.98021 -1.27882 0
M  V30 7241 H 688.346 -3.91426 0.229863 0
M  V30 7242 H 689.836 -4.10976 -0.740817 0
M  V30 7243 N 690.273 -0.685099 -1.4193 0
M  V30 7244 C 691.519 -0.211971 -2.01689 0
M  V30 7245 C 691.852 1.18189 -1.54094 0
M  V30 7246 O 691.127 1.79559 -0.747572 0
M  V30 7247 C 691.41 -0.258019 -3.59174 0
M  V30 7248 C 691.263 -1.68807 -4.16922 0
M  V30 7249 C 692.582 0.388044 -4.38386 0
M  V30 7250 H 689.701 -0.0784987 -0.732808 0
M  V30 7251 H 692.343 -0.871837 -1.68816 0
M  V30 7252 H 690.493 0.303832 -3.8731 0
M  V30 7253 H 692.165 -2.30296 -3.99702 0
M  V30 7254 H 690.408 -2.22553 -3.72361 0
M  V30 7255 H 691.079 -1.6719 -5.26072 0
M  V30 7256 H 693.555 -0.0903432 -4.16002 0
M  V30 7257 H 692.431 0.325232 -5.47936 0
M  V30 7258 H 692.692 1.4672 -4.17044 0
M  V30 7259 N 691.751 1.51645 -0.429126 0
M  V30 7260 C 692.999 2.01616 0.139802 0
M  V30 7261 C 693.32 1.31568 1.43927 0
M  V30 7262 O 692.59 0.447688 1.90716 0
M  V30 7263 H 691.17 0.744998 0.054654 0
M  V30 7264 H 693.832 1.8638 -0.569952 0
M  V30 7265 H 692.928 3.10439 0.321609 0
M  V30 7266 N 693.229 0.160201 1.56784 0
M  V30 7267 C 694.179 -0.786461 2.14007 0
M  V30 7268 C 695.163 -1.20046 1.07134 0
M  V30 7269 O 696.355 -1.16468 1.33283 0
M  V30 7270 C 693.484 -2.02024 2.77563 0
M  V30 7271 C 692.57 -1.62874 3.91578 0
M  V30 7272 N 692.961 -0.946176 4.96871 0
M  V30 7273 C 691.259 -1.92054 4.02531 0
M  V30 7274 C 691.96 -0.755084 5.76778 0
M  V30 7275 N 690.936 -1.29307 5.27997 0
M  V30 7276 H 694.738 -0.255879 2.92784 0
M  V30 7277 H 692.252 -0.0408778 1.62349 0
M  V30 7278 H 694.249 -2.70855 3.16928 0
M  V30 7279 H 692.909 -2.55587 2.00263 0
M  V30 7280 H 693.92 -0.605455 5.14349 0
M  V30 7281 H 690.597 -2.47374 3.36322 0
M  V30 7282 H 691.987 -0.216138 6.71552 0
M  V30 7283 N 694.707 -1.5719 -0.113559 0
M  V30 7284 C 695.953 -1.85412 -0.821597 0
M  V30 7285 C 696.286 -0.746722 -1.7927 0
M  V30 7286 O 695.561 0.246971 -1.92926 0
M  V30 7287 C 695.844 -3.24233 -1.56669 0
M  V30 7288 C 695.697 -4.45578 -0.614823 0
M  V30 7289 C 697.016 -3.60697 -2.52161 0
M  V30 7290 H 694.135 -0.674406 -0.29723 0
M  V30 7291 H 696.777 -1.89807 -0.085694 0
M  V30 7292 H 694.927 -3.20617 -2.19401 0
M  V30 7293 H 696.599 -4.613 0.00407137 0
M  V30 7294 H 694.842 -4.33738 0.0732332 0
M  V30 7295 H 695.513 -5.39395 -1.17292 0
M  V30 7296 H 697.989 -3.65139 -1.99532 0
M  V30 7297 H 696.865 -4.58798 -3.01323 0
M  V30 7298 H 697.126 -2.88403 -3.35076 0
M  V30 7299 N 696.185 0.383891 -1.52853 0
M  V30 7300 C 697.462 1.14296 -1.58732 0
M  V30 7301 C 697.842 2.07585 -0.383611 0
M  V30 7302 O 697.19 2.1971 0.627661 0
M  V30 7303 C 697.4 1.89816 -2.92867 0
M  V30 7304 C 698.748 2.44998 -3.46787 0
M  V30 7305 O 699.772 1.99966 -2.94774 0
M  V30 7306 O 698.631 3.2727 -4.37672 0
M  V30 7307 H 695.725 0.52326 -0.640413 0
M  V30 7308 H 698.271 0.388631 -1.6519 0
M  V30 7309 H 697.043 1.21626 -3.71918 0
M  V30 7310 H 696.666 2.72199 -2.89816 0
M  V30 7311 N 697.663 1.43903 0.642637 0
M  V30 7312 C 698.573 1.52349 1.78401 0
M  V30 7313 C 699.589 0.409869 1.69104 0
M  V30 7314 O 700.765 0.665548 1.90085 0
M  V30 7315 C 697.83 1.45408 3.14734 0
M  V30 7316 C 696.891 2.67528 3.35749 0
M  V30 7317 C 696.124 2.60909 4.65577 0
M  V30 7318 O 696.347 1.6627 5.45628 0
M  V30 7319 O 695.281 3.5158 4.88544 0
M  V30 7320 H 699.107 2.48752 1.7423 0
M  V30 7321 H 696.692 1.26021 0.802439 0
M  V30 7322 H 698.574 1.44019 3.96026 0
M  V30 7323 H 697.249 0.521437 3.19473 0
M  V30 7324 H 696.156 2.74487 2.5418 0
M  V30 7325 H 697.489 3.598 3.35864 0
M  V30 7326 N 699.141 -0.881989 1.30609 0
M  V30 7327 C 700.388 -1.63405 1.19604 0
M  V30 7328 C 700.716 -1.92905 -0.248574 0
M  V30 7329 O 699.971 -1.55062 -1.19391 0
M  V30 7330 C 700.27 -2.97999 1.97311 0
M  V30 7331 C 699.936 -2.88039 3.46907 0
M  V30 7332 C 698.598 -2.85029 3.877 0
M  V30 7333 C 700.95 -2.75948 4.42156 0
M  V30 7334 C 698.278 -2.67772 5.2203 0
M  V30 7335 C 700.63 -2.60228 5.76597 0
M  V30 7336 C 699.294 -2.55595 6.16626 0
M  V30 7337 H 698.564 -0.597941 0.437662 0
M  V30 7338 H 701.211 -1.02524 1.61744 0
M  V30 7339 H 699.516 -3.62847 1.47815 0
M  V30 7340 H 701.213 -3.55156 1.86186 0
M  V30 7341 H 697.803 -2.91192 3.14492 0
M  V30 7342 H 701.987 -2.77337 4.1158 0
M  V30 7343 H 697.243 -2.62601 5.52133 0
M  V30 7344 H 701.417 -2.49847 6.50038 0
M  V30 7345 H 699.044 -2.41981 7.20659 0
M  V30 7346 N 700.619 -1.13374 -1.09472 0
M  V30 7347 C 701.549 -0.833268 -2.18126 0
M  V30 7348 C 702.53 0.207169 -1.68834 0
M  V30 7349 O 703.715 0.0662012 -1.94087 0
M  V30 7350 C 700.845 -0.297979 -3.46019 0
M  V30 7351 C 699.799 -1.27261 -4.08642 0
M  V30 7352 C 699.125 -0.597104 -5.31356 0
M  V30 7353 C 700.425 -2.63095 -4.51197 0
M  V30 7354 H 702.119 -1.74182 -2.43518 0
M  V30 7355 H 699.665 -0.838921 -1.17039 0
M  V30 7356 H 701.618 -0.0754444 -4.21332 0
M  V30 7357 H 700.342 0.645959 -3.20148 0
M  V30 7358 H 699.001 -1.48113 -3.35348 0
M  V30 7359 H 698.649 0.352293 -5.01765 0
M  V30 7360 H 698.349 -1.24734 -5.74208 0
M  V30 7361 H 699.873 -0.38384 -6.09392 0
M  V30 7362 H 701.287 -2.46214 -5.17737 0
M  V30 7363 H 699.684 -3.2429 -5.04932 0
M  V30 7364 H 700.754 -3.20793 -3.6362 0
M  V30 7365 N 702.098 1.27442 -0.927168 0
M  V30 7366 C 703.323 1.99036 -0.583042 0
M  V30 7367 C 703.748 1.68711 0.83176 0
M  V30 7368 O 703.106 0.927081 1.55804 0
M  V30 7369 C 703.154 3.51271 -0.814925 0
M  V30 7370 O 702.258 4.12226 0.119742 0
M  V30 7371 H 701.599 0.624883 -0.224538 0
M  V30 7372 H 704.129 1.62263 -1.24628 0
M  V30 7373 H 704.139 4.01411 -0.730282 0
M  V30 7374 H 702.814 3.72676 -1.84623 0
M  V30 7375 H 701.391 3.72897 -0.0147688 0
M  V30 7376 N 703.576 0.692616 1.41565 0
M  V30 7377 C 704.823 0.222335 2.01276 0
M  V30 7378 C 705.151 -1.17706 1.5484 0
M  V30 7379 O 704.406 -1.80795 0.749118 0
M  V30 7380 C 704.705 0.225073 3.56691 0
M  V30 7381 C 704.371 1.57158 4.22625 0
M  V30 7382 C 703.033 1.94022 4.40351 0
M  V30 7383 C 705.385 2.45758 4.59622 0
M  V30 7384 C 702.713 3.19076 4.92349 0
M  V30 7385 C 705.065 3.70141 5.13009 0
M  V30 7386 C 703.729 4.07152 5.28946 0
M  V30 7387 H 702.999 0.0813581 0.73652 0
M  V30 7388 H 705.646 0.891123 1.69503 0
M  V30 7389 H 703.951 -0.527259 3.88236 0
M  V30 7390 H 705.648 -0.156283 4.00695 0
M  V30 7391 H 702.238 1.27486 4.09201 0
M  V30 7392 H 706.422 2.18558 4.45585 0
M  V30 7393 H 701.678 3.4775 5.02872 0
M  V30 7394 H 705.852 4.38983 5.40617 0
M  V30 7395 H 703.479 5.04125 5.69001 0
M  V30 7396 N 705.054 -1.51416 0.437162 0
M  V30 7397 C 706.3 -2.02386 -0.129555 0
M  V30 7398 C 706.633 -1.32071 -1.42376 0
M  V30 7399 O 705.908 -0.43559 -1.8956 0
M  V30 7400 C 706.191 -3.5841 -0.348487 0
M  V30 7401 C 706.044 -4.39341 0.964352 0
M  V30 7402 C 707.363 -4.25654 -1.11834 0
M  V30 7403 H 704.482 -0.735587 -0.0456109 0
M  V30 7404 H 707.124 -1.81055 0.576124 0
M  V30 7405 H 705.274 -3.76716 -0.949592 0
M  V30 7406 H 706.946 -4.32685 1.59942 0
M  V30 7407 H 705.189 -4.04432 1.56898 0
M  V30 7408 H 705.86 -5.4667 0.765212 0
M  V30 7409 H 708.336 -4.11617 -0.609165 0
M  V30 7410 H 707.212 -5.34704 -1.24029 0
M  V30 7411 H 707.473 -3.86502 -2.14636 0
M  V30 7412 N 706.532 -0.168513 -1.56696 0
M  V30 7413 C 707.943 0.348694 -1.83415 0
M  V30 7414 C 708.294 1.63257 -1.0882 0
M  V30 7415 O 707.419 2.13707 -0.340333 0
M  V30 7416 C 708.014 0.639423 -3.32711 0
M  V30 7417 C 706.573 1.10108 -3.59935 0
M  V30 7418 C 705.72 0.135464 -2.76969 0
M  V30 7419 H 708.671 -0.392829 -1.53761 0
M  V30 7420 H 708.692 1.49179 -3.50037 0
M  V30 7421 H 708.204 -0.295173 -3.86976 0
M  V30 7422 H 706.305 2.05088 -3.11079 0
M  V30 7423 H 706.418 1.01218 -4.68286 0
M  V30 7424 H 704.782 0.632286 -2.46727 0
M  V30 7425 H 705.565 -0.793104 -3.34013 0
M  V30 7426 N 708.01 1.57248 0.105221 0
M  V30 7427 C 708.973 2.00388 1.11252 0
M  V30 7428 C 709.973 0.89594 1.33527 0
M  V30 7429 O 711.163 1.16166 1.29811 0
M  V30 7430 C 708.295 2.35589 2.46395 0
M  V30 7431 H 709.488 2.90591 0.741424 0
M  V30 7432 H 707.041 1.52332 0.349956 0
M  V30 7433 H 707.776 1.4831 2.884 0
M  V30 7434 H 707.561 3.16408 2.31578 0
M  V30 7435 H 709.051 2.69658 3.18864 0
M  V30 7436 N 709.488 -0.375779 1.53054 0
M  V30 7437 C 710.899 -0.95309 1.6054 0
M  V30 7438 C 711.25 -1.90575 0.466446 0
M  V30 7439 O 710.375 -2.12507 -0.408609 0
M  V30 7440 C 710.97 -1.73537 2.90982 0
M  V30 7441 C 709.529 -2.26218 3.00836 0
M  V30 7442 C 708.676 -1.07157 2.55759 0
M  V30 7443 H 711.627 -0.154895 1.57942 0
M  V30 7444 H 711.648 -2.59574 2.78211 0
M  V30 7445 H 711.16 -1.04176 3.73857 0
M  V30 7446 H 709.261 -2.98852 2.22527 0
M  V30 7447 H 709.374 -2.54799 4.05727 0
M  V30 7448 H 707.738 -1.43553 2.10391 0
M  V30 7449 H 708.521 -0.393099 3.41042 0
M  V30 7450 N 710.966 -1.44241 -0.634997 0
M  V30 7451 C 712.243 -1.37296 -1.39317 0
M  V30 7452 C 712.623 -0.0297532 -2.11079 0
M  V30 7453 O 711.971 0.987524 -2.06059 0
M  V30 7454 C 712.181 -2.56853 -2.36279 0
M  V30 7455 C 713.529 -3.00747 -2.99728 0
M  V30 7456 O 714.553 -2.5703 -2.46605 0
M  V30 7457 O 713.412 -3.76533 -3.96087 0
M  V30 7458 H 710.506 -0.543503 -0.623325 0
M  V30 7459 H 713.052 -1.56324 -0.660376 0
M  V30 7460 H 711.824 -3.46228 -1.82324 0
M  V30 7461 H 711.447 -2.40019 -3.16981 0
M  V30 7462 N 712.444 0.87505 -1.31075 0
M  V30 7463 C 713.692 1.62447 -1.20231 0
M  V30 7464 C 714.013 1.93506 0.240888 0
M  V30 7465 O 713.283 1.57847 1.16022 0
M  V30 7466 H 711.863 0.602207 -0.441991 0
M  V30 7467 H 714.525 1.04788 -1.64334 0
M  V30 7468 H 713.621 2.57031 -1.77036 0
M  V30 7469 N 713.922 1.13953 1.08869 0
M  V30 7470 C 714.869 0.82213 2.15661 0
M  V30 7471 C 715.839 -0.218274 1.6466 0
M  V30 7472 O 717.024 -0.0892475 1.90591 0
M  V30 7473 C 714.164 0.300572 3.43789 0
M  V30 7474 C 713.277 1.40071 4.08661 0
M  V30 7475 C 712.412 0.836897 5.24566 0
M  V30 7476 C 711.451 1.91504 5.81371 0
M  V30 7477 N 710.588 1.36875 6.88629 0
M  V30 7478 H 715.428 1.73683 2.42153 0
M  V30 7479 H 712.965 0.866879 1.18843 0
M  V30 7480 H 714.923 -0.0199943 4.17195 0
M  V30 7481 H 713.553 -0.577248 3.17597 0
M  V30 7482 H 712.605 1.83776 3.33062 0
M  V30 7483 H 713.917 2.21534 4.46905 0
M  V30 7484 H 713.071 0.467953 6.04893 0
M  V30 7485 H 711.81 -0.00874207 4.87699 0
M  V30 7486 H 710.815 2.29299 4.99702 0
M  V30 7487 H 712.04 2.76419 6.20298 0
M  V30 7488 H 709.986 0.545211 6.5373 0
M  V30 7489 H 709.903 2.1198 7.25672 0
M  V30 7490 H 711.171 1.02756 7.72698 0
M  V30 7491 N 715.4 -1.26948 0.933913 0
M  V30 7492 C 716.648 -1.93704 0.576484 0
M  V30 7493 C 716.969 -1.73702 -0.886145 0
M  V30 7494 O 716.239 -1.08838 -1.62884 0
M  V30 7495 H 714.819 -0.716812 0.210214 0
M  V30 7496 H 717.481 -1.54534 1.18766 0
M  V30 7497 H 716.577 -3.01987 0.788055 0
M  V30 7498 N 716.879 -0.700114 -1.41195 0
M  V30 7499 C 718.126 -0.233006 -2.01155 0
M  V30 7500 C 718.454 1.16883 -1.55462 0
M  V30 7501 O 717.709 1.80395 -0.758695 0
M  V30 7502 C 718.008 -0.243986 -3.56566 0
M  V30 7503 C 717.674 -1.59397 -4.21786 0
M  V30 7504 C 716.336 -1.96355 -4.39316 0
M  V30 7505 C 718.688 -2.48192 -4.58312 0
M  V30 7506 C 716.016 -3.21683 -4.9065 0
M  V30 7507 C 718.368 -3.72857 -5.11039 0
M  V30 7508 C 717.032 -4.09951 -5.26779 0
M  V30 7509 H 716.302 -0.085263 -0.736078 0
M  V30 7510 H 718.949 -0.9001 -1.69028 0
M  V30 7511 H 717.254 0.506663 -3.8851 0
M  V30 7512 H 718.951 0.135031 -4.00773 0
M  V30 7513 H 715.541 -1.29654 -4.08519 0
M  V30 7514 H 719.725 -2.20918 -4.4442 0
M  V30 7515 H 714.981 -3.50412 -5.01021 0
M  V30 7516 H 719.155 -4.41844 -5.38282 0
M  V30 7517 H 716.782 -5.07136 -5.66319 0
M  V30 7518 N 718.357 1.51182 -0.445186 0
M  V30 7519 C 719.773 1.59299 -0.0978954 0
M  V30 7520 C 719.973 1.4555 1.39346 0
M  V30 7521 O 719.029 1.30073 2.16419 0
M  V30 7522 C 720.342 2.94133 -0.625005 0
M  V30 7523 C 721.89 3.07463 -0.586137 0
M  V30 7524 C 722.365 4.44832 -1.09035 0
M  V30 7525 N 723.856 4.51173 -1.04867 0
M  V30 7526 C 724.591 5.55804 -1.40959 0
M  V30 7527 N 724.087 6.67816 -1.84375 0
M  V30 7528 N 725.88 5.46205 -1.32726 0
M  V30 7529 H 718.031 1.58363 -1.41544 0
M  V30 7530 H 720.294 0.746946 -0.58376 0
M  V30 7531 H 720 3.09589 -1.66876 0
M  V30 7532 H 719.874 3.77161 -0.0542262 0
M  V30 7533 H 722.261 2.9167 0.448646 0
M  V30 7534 H 722.342 2.26255 -1.19341 0
M  V30 7535 H 721.986 4.61372 -2.12364 0
M  V30 7536 H 721.916 5.24591 -0.459539 0
M  V30 7537 H 724.407 3.70783 -0.729932 0
M  V30 7538 H 724.72 7.43683 -2.10131 0
M  V30 7539 H 723.065 6.69003 -1.88308 0
M  V30 7540 H 726.256 4.57583 -0.986678 0
M  V30 7541 H 726.429 6.27634 -1.61182 0
M  V30 7542 N 719.835 0.176821 1.56605 0
M  V30 7543 C 720.768 -0.790135 2.14084 0
M  V30 7544 C 721.746 -1.22219 1.07244 0
M  V30 7545 O 722.93 -1.31298 1.35252 0
M  V30 7546 C 720.057 -2.06475 2.68488 0
M  V30 7547 C 719.103 -1.77628 3.87751 0
M  V30 7548 S 719.936 -0.940612 5.27174 0
M  V30 7549 C 721.092 -2.22577 5.84988 0
M  V30 7550 H 721.325 -0.30144 2.95768 0
M  V30 7551 H 718.858 -0.0379279 1.54353 0
M  V30 7552 H 720.816 -2.79683 3.00479 0
M  V30 7553 H 719.477 -2.52457 1.8688 0
M  V30 7554 H 718.67 -2.72215 4.24164 0
M  V30 7555 H 718.272 -1.12512 3.56675 0
M  V30 7556 H 720.564 -3.17992 5.98237 0
M  V30 7557 H 721.507 -1.90624 6.81959 0
M  V30 7558 H 721.915 -2.34588 5.13448 0
M  V30 7559 N 721.313 -1.57302 -0.09688 0
M  V30 7560 C 722.243 -2.0497 -1.11846 0
M  V30 7561 C 723.224 -0.938278 -1.41882 0
M  V30 7562 O 724.409 -1.20943 -1.51942 0
M  V30 7563 C 721.539 -2.47264 -2.43881 0
M  V30 7564 C 720.493 -3.62053 -2.28257 0
M  V30 7565 C 719.819 -3.90318 -3.65453 0
M  V30 7566 C 721.119 -4.93005 -1.72461 0
M  V30 7567 H 722.813 -2.90567 -0.721888 0
M  V30 7568 H 720.359 -1.39786 -0.345803 0
M  V30 7569 H 722.312 -2.7922 -3.15617 0
M  V30 7570 H 721.036 -1.58664 -2.8547 0
M  V30 7571 H 719.695 -3.30341 -1.58967 0
M  V30 7572 H 719.343 -2.98889 -4.04567 0
M  V30 7573 H 719.043 -4.67597 -3.55846 0
M  V30 7574 H 720.567 -4.24747 -4.3866 0
M  V30 7575 H 721.981 -5.23354 -2.34036 0
M  V30 7576 H 720.378 -5.74436 -1.73618 0
M  V30 7577 H 721.448 -4.80053 -0.683898 0
M  V30 7578 N 722.791 0.367657 -1.53252 0
M  V30 7579 C 723.721 1.45632 -1.8252 0
M  V30 7580 C 724.702 1.55979 -0.678568 0
M  V30 7581 O 725.887 1.70581 -0.928217 0
M  V30 7582 C 723.017 2.82994 -2.01325 0
M  V30 7583 C 721.971 2.87473 -3.17086 0
M  V30 7584 C 721.297 4.2749 -3.21179 0
M  V30 7585 C 722.597 2.55182 -4.55719 0
M  V30 7586 H 724.291 1.21387 -2.73689 0
M  V30 7587 H 721.837 0.58251 -1.31692 0
M  V30 7588 H 723.79 3.59179 -2.20383 0
M  V30 7589 H 722.514 3.08622 -1.06864 0
M  V30 7590 H 721.173 2.13739 -2.97844 0
M  V30 7591 H 720.821 4.5019 -2.24361 0
M  V30 7592 H 720.521 4.31403 -3.98955 0
M  V30 7593 H 722.045 5.0555 -3.42419 0
M  V30 7594 H 723.459 3.21081 -4.74953 0
M  V30 7595 H 721.856 2.70414 -5.3572 0
M  V30 7596 H 722.926 1.5044 -4.60973 0
M  V30 7597 N 724.269 1.44576 0.627338 0
M  V30 7598 C 725.232 1.51372 1.72102 0
M  V30 7599 C 726.232 0.395329 1.55865 0
M  V30 7600 O 727.422 0.658094 1.61291 0
M  V30 7601 C 724.554 1.39129 3.11217 0
M  V30 7602 H 725.747 2.48798 1.6745 0
M  V30 7603 H 723.3 1.31724 0.841336 0
M  V30 7604 H 724.035 0.428114 3.21462 0
M  V30 7605 H 723.82 2.20229 3.24409 0
M  V30 7606 H 725.31 1.46874 3.90919 0
M  V30 7607 N 725.747 -0.868086 1.31537 0
M  V30 7608 C 726.972 -1.65926 1.24432 0
M  V30 7609 C 727.397 -1.87169 -0.186936 0
M  V30 7610 O 726.755 -1.4148 -1.13371 0
M  V30 7611 C 726.803 -3.00347 1.9956 0
M  V30 7612 O 725.907 -3.90221 1.33422 0
M  V30 7613 H 725.248 -0.506375 0.429512 0
M  V30 7614 H 727.778 -1.0822 1.73637 0
M  V30 7615 H 727.788 -3.50269 2.09226 0
M  V30 7616 H 726.463 -2.84205 3.03645 0
M  V30 7617 H 725.04 -3.48672 1.32219 0
M  V30 7618 N 727.225 -1.14528 -1.08264 0
M  V30 7619 C 728.636 -0.925261 -1.6216 0
M  V30 7620 C 728.987 0.535587 -1.88748 0
M  V30 7621 O 728.112 1.4048 -1.64604 0
M  V30 7622 C 728.707 -1.67316 -2.94603 0
M  V30 7623 C 727.266 -1.49868 -3.45278 0
M  V30 7624 C 726.413 -1.69471 -2.19487 0
M  V30 7625 H 729.364 -1.29687 -0.914707 0
M  V30 7626 H 729.385 -1.13721 -3.63109 0
M  V30 7627 H 728.897 -2.73635 -2.75219 0
M  V30 7628 H 726.998 -0.459032 -3.69762 0
M  V30 7629 H 727.111 -2.2696 -4.21931 0
M  V30 7630 H 725.475 -1.12048 -2.2873 0
M  V30 7631 H 726.258 -2.77136 -2.0261 0
M  V30 7632 N 728.703 1.26451 -0.940633 0
M  V30 7633 C 729.951 1.93395 -0.586748 0
M  V30 7634 C 730.272 1.7417 0.876921 0
M  V30 7635 O 729.542 1.097 1.62304 0
M  V30 7636 H 728.122 0.715687 -0.214012 0
M  V30 7637 H 730.784 1.53902 -1.19584 0
M  V30 7638 H 729.88 3.01565 -0.804059 0
M  V30 7639 N 730.181 0.707592 1.40822 0
M  V30 7640 C 731.144 0.0587224 2.29125 0
M  V30 7641 C 732.144 -0.695624 1.44975 0
M  V30 7642 O 733.334 -0.528718 1.65983 0
M  V30 7643 C 730.466 -0.926939 3.28056 0
M  V30 7644 H 731.659 0.836349 2.88002 0
M  V30 7645 H 729.212 0.471778 1.4901 0
M  V30 7646 H 729.947 -1.7319 2.74182 0
M  V30 7647 H 729.732 -0.389015 3.90165 0
M  V30 7648 H 731.222 -1.37837 3.94196 0
M  V30 7649 N 731.66 -1.50943 0.453197 0
M  V30 7650 C 732.9 -2.0412 -0.106894 0
M  V30 7651 C 733.264 -1.32895 -1.38575 0
M  V30 7652 O 734.465 -1.76529 -2.02709 0
M  V30 7653 C 732.736 -3.561 -0.304565 0
M  V30 7654 S 734.295 -4.3096 -0.825784 0
M  V30 7655 H 731.113 -0.710581 -0.0243969 0
M  V30 7656 H 733.715 -1.85534 0.616239 0
M  V30 7657 H 732.419 -4.055 0.632277 0
M  V30 7658 H 731.95 -3.79009 -1.05433 0
M  V30 7659 H 733.965 -4.49503 -2.10147 0
M  V30 7660 N 733.138 -0.185124 -1.56509 0
M  V30 7661 C 734.385 0.456258 -1.97293 0
M  V30 7662 C 734.713 1.62314 -1.07165 0
M  V30 7663 O 733.968 1.95398 -0.108621 0
M  V30 7664 C 734.267 0.967977 -3.44042 0
M  V30 7665 C 733.933 -0.084476 -4.50821 0
M  V30 7666 C 732.595 -0.373689 -4.79747 0
M  V30 7667 C 734.947 -0.79812 -5.15053 0
M  V30 7668 C 732.275 -1.3817 -5.70198 0
M  V30 7669 C 734.627 -1.79521 -6.06593 0
M  V30 7670 C 733.291 -2.09172 -6.3388 0
M  V30 7671 H 732.561 0.166957 -0.721946 0
M  V30 7672 H 735.208 -0.279992 -1.89442 0
M  V30 7673 H 733.513 1.78231 -3.48914 0
M  V30 7674 H 735.21 1.47347 -3.72948 0
M  V30 7675 H 731.8 0.15111 -4.28334 0
M  V30 7676 H 735.984 -0.587903 -4.92806 0
M  V30 7677 H 731.24 -1.61745 -5.89617 0
M  V30 7678 H 735.414 -2.35347 -6.55427 0
M  V30 7679 H 733.041 -2.87427 -7.03768 0
M  V30 7680 N 734.616 1.57351 0.0885366 0
M  V30 7681 C 735.563 2.02523 1.10693 0
M  V30 7682 C 736.533 0.902736 1.39427 0
M  V30 7683 O 737.718 1.16921 1.50779 0
M  V30 7684 C 734.858 2.46013 2.42016 0
M  V30 7685 C 733.971 3.7181 2.19957 0
M  V30 7686 C 733.106 4.04152 3.44724 0
M  V30 7687 C 732.145 5.2304 3.17956 0
M  V30 7688 N 731.282 5.51102 4.35007 0
M  V30 7689 H 736.122 2.89302 0.714742 0
M  V30 7690 H 733.659 1.43084 0.341378 0
M  V30 7691 H 735.617 2.69274 3.18665 0
M  V30 7692 H 734.247 1.62235 2.79069 0
M  V30 7693 H 733.299 3.55987 1.34079 0
M  V30 7694 H 734.611 4.58604 1.96173 0
M  V30 7695 H 733.765 4.28225 4.29777 0
M  V30 7696 H 732.504 3.15893 3.71568 0
M  V30 7697 H 731.509 4.98781 2.31296 0
M  V30 7698 H 732.734 6.12902 2.92451 0
M  V30 7699 H 730.68 4.65802 4.61914 0
M  V30 7700 H 730.597 6.3228 4.14437 0
M  V30 7701 H 731.865 5.79714 5.21106 0
M  V30 7702 N 736.094 -0.359525 1.53444 0
M  V30 7703 C 737.024 -1.44662 1.8329 0
M  V30 7704 C 738.005 -1.55617 0.68683 0
M  V30 7705 O 739.19 -1.70086 0.93725 0
M  V30 7706 C 736.32 -2.81923 2.02822 0
M  V30 7707 C 735.274 -2.85787 3.18606 0
M  V30 7708 C 734.6 -4.25781 3.23442 0
M  V30 7709 C 735.9 -2.52762 4.57065 0
M  V30 7710 H 737.594 -1.19934 2.74329 0
M  V30 7711 H 735.14 -0.575517 1.31999 0
M  V30 7712 H 737.093 -3.58005 2.22285 0
M  V30 7713 H 735.817 -3.08051 1.085 0
M  V30 7714 H 734.476 -2.12157 2.98973 0
M  V30 7715 H 734.124 -4.48994 2.26745 0
M  V30 7716 H 733.824 -4.29281 4.01238 0
M  V30 7717 H 735.348 -5.03727 3.45096 0
M  V30 7718 H 736.762 -3.18557 4.76649 0
M  V30 7719 H 735.159 -2.67569 5.37147 0
M  V30 7720 H 736.229 -1.47993 4.61764 0
M  V30 7721 N 737.572 -1.44907 -0.619662 0
M  V30 7722 C 738.819 -1.48292 -1.37898 0
M  V30 7723 C 739.147 -0.119933 -1.9413 0
M  V30 7724 O 738.402 0.879834 -1.74807 0
M  V30 7725 C 738.701 -2.50002 -2.55409 0
M  V30 7726 C 738.367 -3.95031 -2.17397 0
M  V30 7727 C 737.029 -4.34524 -2.06743 0
M  V30 7728 C 739.381 -4.86287 -1.87548 0
M  V30 7729 C 736.709 -5.63183 -1.64445 0
M  V30 7730 C 739.061 -6.15346 -1.4674 0
M  V30 7731 C 737.725 -6.53781 -1.34636 0
M  V30 7732 H 736.995 -0.542638 -0.504603 0
M  V30 7733 H 739.642 -1.78186 -0.701581 0
M  V30 7734 H 737.947 -2.13634 -3.28433 0
M  V30 7735 H 739.644 -2.49864 -3.13639 0
M  V30 7736 H 736.234 -3.63793 -2.26611 0
M  V30 7737 H 740.418 -4.56522 -1.94682 0
M  V30 7738 H 735.674 -5.91769 -1.53687 0
M  V30 7739 H 739.848 -6.85508 -1.22685 0
M  V30 7740 H 737.475 -7.53375 -1.01634 0
M  V30 7741 N 739.05 0.861098 -1.31996 0
M  V30 7742 C 739.982 1.97551 -1.16216 0
M  V30 7743 C 740.995 1.625 -0.0988527 0
M  V30 7744 O 742.184 1.75091 -0.3472 0
M  V30 7745 C 739.284 3.30376 -0.755307 0
M  V30 7746 C 738.457 3.93711 -1.90552 0
M  V30 7747 C 737.516 5.04862 -1.48328 0
M  V30 7748 O 736.542 5.25204 -2.19431 0
M  V30 7749 N 737.744 5.79283 -0.375656 0
M  V30 7750 H 740.509 2.11632 -2.12208 0
M  V30 7751 H 738.07 1.03559 -1.24448 0
M  V30 7752 H 740.062 4.0213 -0.455364 0
M  V30 7753 H 738.632 3.12395 0.113269 0
M  V30 7754 H 737.852 3.14825 -2.37231 0
M  V30 7755 H 739.14 4.32762 -2.67571 0
M  V30 7756 H 738.538 5.65286 0.216284 0
M  V30 7757 H 737.095 6.5166 -0.135289 0
M  V30 7758 N 740.528 1.15101 1.07655 0
M  V30 7759 C 741.438 0.858869 2.18313 0
M  V30 7760 C 742.454 -0.163641 1.73229 0
M  V30 7761 O 743.63 0.00969541 2.01398 0
M  V30 7762 C 740.695 0.34893 3.4494 0
M  V30 7763 C 739.756 1.43495 4.04608 0
M  V30 7764 C 738.989 0.949253 5.2519 0
M  V30 7765 O 739.212 -0.20636 5.70027 0
M  V30 7766 O 738.146 1.73161 5.76454 0
M  V30 7767 H 741.972 1.78386 2.45788 0
M  V30 7768 H 739.557 0.929876 1.16934 0
M  V30 7769 H 741.439 0.070851 4.2134 0
M  V30 7770 H 740.114 -0.548237 3.19024 0
M  V30 7771 H 739.021 1.7666 3.29761 0
M  V30 7772 H 740.354 2.30692 4.3479 0
M  V30 7773 N 742.006 -1.2595 0.947325 0
M  V30 7774 C 742.953 -2.26159 0.460497 0
M  V30 7775 C 743.923 -1.58919 -0.483125 0
M  V30 7776 O 745.108 -1.86603 -0.397983 0
M  V30 7777 C 742.248 -3.441 -0.26247 0
M  V30 7778 C 741.361 -4.25999 0.717539 0
M  V30 7779 C 740.496 -5.31193 -0.0272486 0
M  V30 7780 C 739.535 -6.04774 0.944177 0
M  V30 7781 N 738.672 -7.01721 0.230741 0
M  V30 7782 H 743.512 -2.67173 1.31995 0
M  V30 7783 H 741.049 -1.31358 0.662088 0
M  V30 7784 H 743.007 -4.11317 -0.698137 0
M  V30 7785 H 741.637 -3.03983 -1.08602 0
M  V30 7786 H 740.689 -3.58513 1.27171 0
M  V30 7787 H 742.001 -4.76981 1.45913 0
M  V30 7788 H 741.155 -6.04451 -0.521903 0
M  V30 7789 H 739.894 -4.81066 -0.801682 0
M  V30 7790 H 738.899 -5.30338 1.4499 0
M  V30 7791 H 740.124 -6.56991 1.71872 0
M  V30 7792 H 738.07 -6.53895 -0.525088 0
M  V30 7793 H 737.987 -7.50484 0.911556 0
M  V30 7794 H 739.255 -7.79122 -0.242616 0
M  V30 7795 N 743.484 -0.715051 -1.40445 0
M  V30 7796 C 744.416 -0.0227516 -2.29189 0
M  V30 7797 C 745.429 0.724313 -1.458 0
M  V30 7798 O 746.618 0.571781 -1.69094 0
M  V30 7799 C 743.718 0.992038 -3.24055 0
M  V30 7800 C 742.891 0.310613 -4.36296 0
M  V30 7801 C 741.95 1.23071 -5.11605 0
M  V30 7802 O 740.976 0.71571 -5.64682 0
M  V30 7803 N 742.178 2.56188 -5.2091 0
M  V30 7804 H 744.943 -0.78473 -2.89244 0
M  V30 7805 H 742.504 -0.562637 -1.51809 0
M  V30 7806 H 744.496 1.60973 -3.71308 0
M  V30 7807 H 743.066 1.65538 -2.65171 0
M  V30 7808 H 742.286 -0.487269 -3.91177 0
M  V30 7809 H 743.574 -0.162415 -5.08541 0
M  V30 7810 H 742.972 3.00527 -4.7927 0
M  V30 7811 H 741.529 3.13103 -5.71673 0
M  V30 7812 N 744.962 1.50701 -0.461195 0
M  V30 7813 C 745.909 2.2831 0.338094 0
M  V30 7814 C 746.879 1.32928 0.995957 0
M  V30 7815 O 748.064 1.61857 1.0103 0
M  V30 7816 C 745.204 3.14539 1.41983 0
M  V30 7817 C 744.317 4.24942 0.77773 0
M  V30 7818 C 743.452 4.98443 1.83652 0
M  V30 7819 C 742.491 6.00733 1.17413 0
M  V30 7820 N 741.628 6.6755 2.17533 0
M  V30 7821 H 746.468 2.96167 -0.330051 0
M  V30 7822 H 744.005 1.4606 -0.174611 0
M  V30 7823 H 745.963 3.62877 2.05855 0
M  V30 7824 H 744.593 2.48749 2.05727 0
M  V30 7825 H 743.645 3.80391 0.0266924 0
M  V30 7826 H 744.957 4.98151 0.254362 0
M  V30 7827 H 744.111 5.50449 2.55129 0
M  V30 7828 H 742.85 4.24917 2.39367 0
M  V30 7829 H 741.855 5.47997 0.444944 0
M  V30 7830 H 743.08 6.76227 0.624006 0
M  V30 7831 H 741.026 5.96823 2.72284 0
M  V30 7832 H 740.943 7.36603 1.70154 0
M  V30 7833 H 742.211 7.24178 2.88421 0
M  V30 7834 N 746.441 0.193421 1.56409 0
M  V30 7835 C 747.681 -0.447977 1.9943 0
M  V30 7836 C 748.045 -1.58915 1.07751 0
M  V30 7837 O 749.246 -2.29462 1.40002 0
M  V30 7838 C 747.517 -0.89793 3.45936 0
M  V30 7839 S 749.076 -1.5374 4.10986 0
M  V30 7840 H 745.894 -0.143316 0.696406 0
M  V30 7841 H 748.496 0.296093 1.93245 0
M  V30 7842 H 747.2 -0.0572927 4.1036 0
M  V30 7843 H 746.731 -1.67551 3.55936 0
M  V30 7844 H 748.746 -2.82612 4.07854 0
M  V30 7845 N 747.919 -1.57396 -0.0801906 0
M  V30 7846 C 749.167 -1.86467 -0.779384 0
M  V30 7847 C 749.488 -0.784243 -1.78535 0
M  V30 7848 O 748.758 0.187986 -1.94996 0
M  V30 7849 H 747.338 -0.68806 -0.29083 0
M  V30 7850 H 750 -1.94813 -0.0582749 0
M  V30 7851 H 749.096 -2.83701 -1.30078 0
M  V30 7852 N 749.397 0.351382 -1.53633 0
M  V30 7853 C 750.347 1.4316 -1.77452 0
M  V30 7854 C 751.331 1.48076 -0.62946 0
M  V30 7855 O 752.523 1.53078 -0.888599 0
M  V30 7856 C 749.652 2.80409 -1.98055 0
M  V30 7857 C 748.738 2.79915 -3.18604 0
M  V30 7858 N 749.129 2.49057 -4.40232 0
M  V30 7859 C 747.427 3.11067 -3.19614 0
M  V30 7860 C 748.128 2.566 -5.22045 0
M  V30 7861 N 747.104 2.919 -4.5858 0
M  V30 7862 H 750.906 1.18188 -2.69089 0
M  V30 7863 H 748.42 0.559684 -1.52451 0
M  V30 7864 H 750.417 3.58231 -2.13251 0
M  V30 7865 H 749.077 3.06334 -1.07655 0
M  V30 7866 H 750.088 2.22395 -4.67719 0
M  V30 7867 H 746.765 3.42215 -2.39154 0
M  V30 7868 H 748.155 2.35968 -6.29101 0
M  V30 7869 N 750.875 1.45233 0.611969 0
M  V30 7870 C 752.123 1.48727 1.36838 0
M  V30 7871 C 752.444 0.128616 1.94575 0
M  V30 7872 O 751.714 -0.84149 1.76906 0
M  V30 7873 H 750.294 0.547695 0.507976 0
M  V30 7874 H 752.956 1.81156 0.718925 0
M  V30 7875 H 752.052 2.2236 2.19003 0
M  V30 7876 N 752.353 -0.854086 1.3245 0
M  V30 7877 C 753.769 -1.14238 1.11453 0
M  V30 7878 C 753.969 -2.01228 -0.10461 0
M  V30 7879 O 753.025 -2.39845 -0.789339 0
M  V30 7880 C 754.338 -1.81916 2.39431 0
M  V30 7881 C 755.886 -1.94549 2.45193 0
M  V30 7882 C 756.361 -2.65642 3.73093 0
M  V30 7883 N 757.852 -2.73167 3.74078 0
M  V30 7884 C 758.587 -3.28828 4.69744 0
M  V30 7885 N 758.083 -3.85295 5.75778 0
M  V30 7886 N 759.876 -3.26936 4.57241 0
M  V30 7887 H 752.027 -0.274786 2.10615 0
M  V30 7888 H 754.29 -0.184375 0.929898 0
M  V30 7889 H 753.996 -1.25452 3.28565 0
M  V30 7890 H 753.87 -2.82068 2.50434 0
M  V30 7891 H 756.257 -2.50172 1.56518 0
M  V30 7892 H 756.338 -0.933914 2.38142 0
M  V30 7893 H 755.982 -2.10683 4.62142 0
M  V30 7894 H 755.912 -3.6724 3.77415 0
M  V30 7895 H 758.403 -2.33108 2.97438 0
M  V30 7896 H 758.716 -4.25925 6.44832 0
M  V30 7897 H 757.061 -3.83625 5.79531 0
M  V30 7898 H 760.252 -2.8207 3.7357 0
M  V30 7899 H 760.425 -3.70014 5.31971 0
M  V30 7900 N 753.831 -1.1567 -1.07043 0
M  V30 7901 C 754.794 -0.858906 -2.12498 0
M  V30 7902 C 755.794 0.142735 -1.60165 0
M  V30 7903 O 756.984 -0.0872678 -1.73981 0
M  V30 7904 C 754.116 -0.283021 -3.39723 0
M  V30 7905 H 755.309 -1.79368 -2.40348 0
M  V30 7906 H 752.862 -0.964608 -1.22984 0
M  V30 7907 H 753.597 0.659796 -3.17517 0
M  V30 7908 H 753.382 -1.00467 -3.7901 0
M  V30 7909 H 754.872 -0.0923543 -4.17498 0
M  V30 7910 N 755.309 1.25446 -0.953992 0
M  V30 7911 C 756.239 2.28264 -0.491717 0
M  V30 7912 C 757.22 1.63717 0.461617 0
M  V30 7913 O 758.405 1.90821 0.36071 0
M  V30 7914 C 755.535 3.46525 0.231915 0
M  V30 7915 C 754.489 4.23247 -0.636098 0
M  V30 7916 C 753.815 5.34254 0.218238 0
M  V30 7917 C 755.115 4.85971 -1.91389 0
M  V30 7918 H 756.809 2.67183 -1.35106 0
M  V30 7919 H 754.355 1.2844 -0.651095 0
M  V30 7920 H 756.308 4.17576 0.566439 0
M  V30 7921 H 755.032 3.06594 1.12551 0
M  V30 7922 H 753.691 3.53978 -0.953696 0
M  V30 7923 H 753.339 4.90564 1.11156 0
M  V30 7924 H 753.039 5.86501 -0.359232 0
M  V30 7925 H 754.563 6.08138 0.547743 0
M  V30 7926 H 755.977 5.49168 -1.64581 0
M  V30 7927 H 754.374 5.48391 -2.43696 0
M  V30 7928 H 755.444 4.08192 -2.61738 0
M  V30 7929 N 756.787 0.722489 1.40064 0
M  V30 7930 C 757.717 0.0892452 2.33329 0
M  V30 7931 C 758.698 -0.737992 1.53257 0
M  V30 7932 O 759.883 -0.685516 1.81698 0
M  V30 7933 C 757.013 -0.828139 3.37282 0
M  V30 7934 C 755.967 -0.106005 4.27869 0
M  V30 7935 C 755.293 -1.13957 5.22415 0
M  V30 7936 C 756.593 1.04395 5.11761 0
M  V30 7937 H 758.287 0.868269 2.86534 0
M  V30 7938 H 755.833 0.418982 1.3777 0
M  V30 7939 H 757.786 -1.28058 4.01471 0
M  V30 7940 H 756.51 -1.63914 2.82489 0
M  V30 7941 H 755.169 0.326683 3.65142 0
M  V30 7942 H 754.817 -1.9438 4.63924 0
M  V30 7943 H 754.517 -0.661233 5.83868 0
M  V30 7944 H 756.041 -1.59197 5.89482 0
M  V30 7945 H 757.455 0.670541 5.69365 0
M  V30 7946 H 755.852 1.4511 5.82291 0
M  V30 7947 H 756.922 1.87144 4.47331 0
M  V30 7948 N 758.265 -1.50454 0.469181 0
M  V30 7949 C 759.512 -2.02315 -0.086469 0
M  V30 7950 C 759.84 -1.3513 -1.39893 0
M  V30 7951 O 759.095 -0.465341 -1.90087 0
M  V30 7952 C 759.394 -3.55963 -0.320207 0
M  V30 7953 C 759.06 -4.41615 0.910318 0
M  V30 7954 C 757.722 -4.64743 1.2477 0
M  V30 7955 C 760.074 -4.91661 1.72971 0
M  V30 7956 C 757.402 -5.35161 2.40457 0
M  V30 7957 C 759.754 -5.6335 2.87785 0
M  V30 7958 C 758.418 -5.84732 3.2194 0
M  V30 7959 H 757.688 -0.740324 -0.0316412 0
M  V30 7960 H 760.335 -1.81087 0.622872 0
M  V30 7961 H 758.64 -3.75695 -1.11177 0
M  V30 7962 H 760.337 -3.93653 -0.764071 0
M  V30 7963 H 756.927 -4.23833 0.637467 0
M  V30 7964 H 761.111 -4.73649 1.48224 0
M  V30 7965 H 756.367 -5.49924 2.67196 0
M  V30 7966 H 760.541 -6.0111 3.51624 0
M  V30 7967 H 758.168 -6.39074 4.1169 0
M  V30 7968 N 759.743 -0.201713 -1.56304 0
M  V30 7969 C 760.675 0.748466 -2.16635 0
M  V30 7970 C 761.688 1.172 -1.12996 0
M  V30 7971 O 762.877 1.10658 -1.40061 0
M  V30 7972 C 759.977 2.02296 -2.719 0
M  V30 7973 C 759.15 1.75818 -4.00508 0
M  V30 7974 C 758.209 2.87779 -4.40533 0
M  V30 7975 O 757.235 2.57101 -5.07826 0
M  V30 7976 N 758.437 4.16287 -4.04581 0
M  V30 7977 H 761.202 0.232505 -2.98797 0
M  V30 7978 H 758.763 -0.0199822 -1.61888 0
M  V30 7979 H 760.755 2.7635 -2.95657 0
M  V30 7980 H 759.325 2.44996 -1.94154 0
M  V30 7981 H 758.545 0.855095 -3.84814 0
M  V30 7982 H 759.833 1.55532 -4.84445 0
M  V30 7983 H 759.231 4.44061 -3.50466 0
M  V30 7984 H 757.788 4.86946 -4.33274 0
M  V30 7985 N 761.222 1.57436 0.0718424 0
M  V30 7986 C 762.47 1.86878 0.769484 0
M  V30 7987 C 762.791 0.7937 1.78116 0
M  V30 7988 O 762.061 -0.177642 1.95093 0
M  V30 7989 H 760.641 0.689593 0.287177 0
M  V30 7990 H 763.303 1.94841 0.0479427 0
M  V30 7991 H 762.399 2.84387 1.28572 0
M  V30 7992 N 762.7 -0.34323 1.53817 0
M  V30 7993 C 763.946 -1.08504 1.71332 0
M  V30 7994 C 764.279 -1.88294 0.475285 0
M  V30 7995 O 763.554 -1.87205 -0.527688 0
M  V30 7996 C 763.837 -2.02597 2.97702 0
M  V30 7997 C 763.69 -1.26268 4.31713 0
M  V30 7998 C 765.009 -3.0241 3.19744 0
M  V30 7999 H 762.128 -0.393072 0.623429 0
M  V30 8000 H 764.77 -0.363579 1.86489 0
M  V30 8001 H 762.92 -2.64118 2.8491 0
M  V30 8002 H 764.592 -0.673594 4.56356 0
M  V30 8003 H 762.835 -0.564696 4.30109 0
M  V30 8004 H 763.506 -1.95253 5.16314 0
M  V30 8005 H 765.982 -2.51004 3.31868 0
M  V30 8006 H 764.858 -3.65449 4.09558 0
M  V30 8007 H 765.119 -3.73806 2.36054 0
M  V30 8008 N 764.178 -1.45556 -0.604258 0
M  V30 8009 C 765.424 -1.49968 -1.36519 0
M  V30 8010 C 765.757 -0.142236 -1.93678 0
M  V30 8011 O 765.032 0.843717 -1.75247 0
M  V30 8012 C 765.315 -2.58146 -2.51063 0
M  V30 8013 C 765.168 -4.03346 -1.99078 0
M  V30 8014 C 766.487 -2.62581 -3.53184 0
M  V30 8015 H 763.606 -0.545993 -0.495036 0
M  V30 8016 H 766.248 -1.77382 -0.680845 0
M  V30 8017 H 764.398 -2.34901 -3.09441 0
M  V30 8018 H 766.07 -4.37811 -1.45323 0
M  V30 8019 H 764.313 -4.13845 -1.30055 0
M  V30 8020 H 764.984 -4.74731 -2.81664 0
M  V30 8021 H 767.46 -2.83419 -3.04652 0
M  V30 8022 H 766.336 -3.40131 -4.30816 0
M  V30 8023 H 766.597 -1.67798 -4.09019 0
M  V30 8024 N 765.656 0.84705 -1.32902 0
M  V30 8025 C 766.933 1.58583 -1.14503 0
M  V30 8026 C 767.313 2.09075 0.291724 0
M  V30 8027 O 766.661 1.88636 1.28952 0
M  V30 8028 C 766.871 2.72605 -2.17916 0
M  V30 8029 C 768.219 3.41993 -2.51646 0
M  V30 8030 O 769.243 2.82838 -2.1652 0
M  V30 8031 O 768.102 4.48761 -3.1189 0
M  V30 8032 H 765.196 0.698756 -0.442345 0
M  V30 8033 H 767.742 0.890516 -1.44457 0
M  V30 8034 H 766.514 2.32876 -3.14459 0
M  V30 8035 H 766.137 3.49807 -1.89 0
M  V30 8036 N 767.134 1.16236 1.06428 0
M  V30 8037 C 768.411 0.853294 1.76006 0
M  V30 8038 C 768.791 -0.649162 2.00871 0
M  V30 8039 O 768.139 -1.59653 1.63472 0
M  V30 8040 C 768.349 1.67448 3.06206 0
M  V30 8041 C 769.697 1.8866 3.80385 0
M  V30 8042 O 770.721 1.64303 3.16043 0
M  V30 8043 O 769.58 2.29518 4.95968 0
M  V30 8044 H 766.674 0.314737 0.764767 0
M  V30 8045 H 769.22 1.26865 1.12709 0
M  V30 8046 H 767.992 2.69411 2.83784 0
M  V30 8047 H 767.615 1.25608 3.77238 0
M  V30 8048 N 768.612 -1.24939 0.960631 0
M  V30 8049 C 769.522 -2.29374 0.492435 0
M  V30 8050 C 770.538 -1.68262 -0.443154 0
M  V30 8051 O 771.714 -1.98875 -0.31793 0
M  V30 8052 C 768.779 -3.46023 -0.216626 0
M  V30 8053 C 767.84 -4.22557 0.757915 0
M  V30 8054 C 767.073 -5.33636 0.0825969 0
M  V30 8055 O 767.296 -5.59084 -1.13054 0
M  V30 8056 O 766.23 -5.96939 0.771177 0
M  V30 8057 H 770.056 -2.71525 1.36044 0
M  V30 8058 H 767.641 -1.30499 0.72735 0
M  V30 8059 H 769.523 -4.16885 -0.615241 0
M  V30 8060 H 768.198 -3.05862 -1.05971 0
M  V30 8061 H 767.105 -3.54099 1.20685 0
M  V30 8062 H 768.438 -4.66516 1.5692 0
M  V30 8063 N 770.09 -0.729906 -1.39679 0
M  V30 8064 C 771.022 -0.0470588 -2.29152 0
M  V30 8065 C 772.035 0.708808 -1.4656 0
M  V30 8066 O 773.224 0.553815 -1.69691 0
M  V30 8067 C 770.324 0.957612 -3.25089 0
M  V30 8068 C 769.497 0.264321 -4.36601 0
M  V30 8069 C 768.556 1.17638 -5.12882 0
M  V30 8070 O 767.582 0.655777 -5.6541 0
M  V30 8071 N 768.784 2.50649 -5.23598 0
M  V30 8072 H 771.549 -0.815364 -2.88395 0
M  V30 8073 H 769.11 -0.578707 -1.51204 0
M  V30 8074 H 771.102 1.57026 -3.72995 0
M  V30 8075 H 769.672 1.62716 -2.66912 0
M  V30 8076 H 768.892 -0.528732 -3.90638 0
M  V30 8077 H 770.18 -0.216344 -5.0834 0
M  V30 8078 H 769.578 2.95427 -4.82431 0
M  V30 8079 H 768.135 3.07022 -5.74961 0
M  V30 8080 N 771.568 1.50203 -0.477153 0
M  V30 8081 C 772.814 2.02658 0.0758507 0
M  V30 8082 C 773.147 1.358 1.38824 0
M  V30 8083 O 772.422 0.485696 1.88338 0
M  V30 8084 C 772.705 3.59208 0.253339 0
M  V30 8085 C 772.558 4.36629 -1.0805 0
M  V30 8086 C 773.877 4.28469 1.00509 0
M  V30 8087 H 770.996 0.736538 0.0260921 0
M  V30 8088 H 773.638 1.79464 -0.623925 0
M  V30 8089 H 771.788 3.79101 0.849378 0
M  V30 8090 H 773.46 4.28292 -1.71358 0
M  V30 8091 H 771.703 4.0013 -1.67566 0
M  V30 8092 H 772.374 5.44449 -0.909883 0
M  V30 8093 H 774.85 4.13087 0.499818 0
M  V30 8094 H 773.726 5.37804 1.09808 0
M  V30 8095 H 773.987 3.92057 2.04314 0
M  V30 8096 N 773.046 0.209999 1.56195 0
M  V30 8097 C 773.993 -0.704854 2.19774 0
M  V30 8098 C 774.963 -1.19886 1.14964 0
M  V30 8099 O 776.148 -1.26005 1.43274 0
M  V30 8100 C 773.288 -1.91241 2.87265 0
M  V30 8101 C 772.401 -1.45838 4.06639 0
M  V30 8102 C 771.536 -2.6226 4.61945 0
M  V30 8103 C 770.575 -2.13537 5.73645 0
M  V30 8104 N 769.712 -3.2319 6.23292 0
M  V30 8105 H 774.552 -0.155944 2.97592 0
M  V30 8106 H 772.089 -0.0652235 1.46955 0
M  V30 8107 H 774.047 -2.62123 3.24573 0
M  V30 8108 H 772.677 -2.43439 2.11985 0
M  V30 8109 H 771.729 -0.644897 3.74894 0
M  V30 8110 H 773.041 -1.06103 4.87384 0
M  V30 8111 H 772.195 -3.41243 5.01636 0
M  V30 8112 H 770.934 -3.05278 3.80338 0
M  V30 8113 H 769.939 -1.33013 5.33468 0
M  V30 8114 H 771.164 -1.71533 6.57079 0
M  V30 8115 H 769.11 -3.65711 5.44602 0
M  V30 8116 H 769.027 -2.8767 6.99129 0
M  V30 8117 H 770.295 -4.02342 6.67639 0
M  V30 8118 N 774.524 -1.57472 -0.0634922 0
M  V30 8119 C 775.752 -1.91887 -0.773767 0
M  V30 8120 C 776.167 -0.806733 -1.70696 0
M  V30 8121 O 775.524 0.219383 -1.81177 0
M  V30 8122 C 775.575 -3.26092 -1.56034 0
M  V30 8123 O 775.296 -4.33029 -0.66464 0
M  V30 8124 C 776.797 -3.74573 -2.37087 0
M  V30 8125 H 774.017 -0.634074 -0.219525 0
M  V30 8126 H 776.561 -2.04476 -0.0312828 0
M  V30 8127 H 774.716 -3.15004 -2.25502 0
M  V30 8128 H 775.13 -5.10291 -1.21258 0
M  V30 8129 H 776.604 -4.71084 -2.87722 0
M  V30 8130 H 777.081 -3.04003 -3.16984 0
M  V30 8131 H 777.687 -3.88631 -1.72759 0
M  V30 8132 N 776.003 0.335068 -1.53997 0
M  V30 8133 C 777.252 1.07182 -1.70865 0
M  V30 8134 C 777.565 1.89541 -0.483078 0
M  V30 8135 O 778.771 2.66219 -0.532879 0
M  V30 8136 C 777.227 1.95497 -3.02174 0
M  V30 8137 C 776.835 1.18304 -4.32097 0
M  V30 8138 C 778.579 2.68978 -3.28407 0
M  V30 8139 C 776.486 2.05699 -5.54474 0
M  V30 8140 H 775.416 0.403857 -0.636722 0
M  V30 8141 H 778.067 0.33076 -1.80494 0
M  V30 8142 H 776.449 2.73456 -2.86423 0
M  V30 8143 H 777.623 0.451969 -4.58578 0
M  V30 8144 H 775.938 0.565556 -4.12541 0
M  V30 8145 H 778.535 3.34651 -4.17029 0
M  V30 8146 H 778.878 3.36 -2.45784 0
M  V30 8147 H 779.411 1.98087 -3.44973 0
M  V30 8148 H 776.15 1.43204 -6.39666 0
M  V30 8149 H 775.67 2.76572 -5.32229 0
M  V30 8150 H 777.349 2.64554 -5.90441 0
M  V30 8151 N 777.481 1.45874 0.596531 0
M  V30 8152 C 778.706 1.54247 1.38646 0
M  V30 8153 C 779.131 0.179571 1.87241 0
M  V30 8154 O 778.489 -0.837831 1.6078 0
M  V30 8155 C 778.537 2.54015 2.55946 0
M  V30 8156 O 777.641 2.06561 3.5694 0
M  V30 8157 H 776.982 0.519555 0.413471 0
M  V30 8158 H 779.512 1.91327 0.724936 0
M  V30 8159 H 779.522 2.73179 3.03047 0
M  V30 8160 H 778.197 3.52994 2.19928 0
M  V30 8161 H 776.774 1.97324 3.16414 0
M  V30 8162 N 778.959 -0.83999 1.33349 0
M  V30 8163 C 780.208 -1.59011 1.2409 0
M  V30 8164 C 780.521 -1.94655 -0.192029 0
M  V30 8165 O 781.727 -2.68438 -0.406617 0
M  V30 8166 C 780.183 -2.86801 2.17425 0
M  V30 8167 C 779.791 -2.58525 3.65881 0
M  V30 8168 C 781.535 -3.64823 2.17036 0
M  V30 8169 C 779.442 -3.82404 4.51133 0
M  V30 8170 H 778.372 -0.596731 0.460899 0
M  V30 8171 H 781.023 -0.926274 1.58406 0
M  V30 8172 H 779.405 -3.54719 1.7604 0
M  V30 8173 H 780.579 -1.98824 4.15699 0
M  V30 8174 H 778.894 -1.93808 3.68548 0
M  V30 8175 H 781.491 -4.56774 2.7796 0
M  V30 8176 H 781.834 -3.99663 1.16513 0
M  V30 8177 H 782.367 -3.03826 2.56777 0
M  V30 8178 H 779.106 -3.52696 5.52527 0
M  V30 8179 H 778.626 -4.41447 4.0606 0
M  V30 8180 H 780.305 -4.49995 4.6488 0
M  V30 8181 N 780.437 -1.16799 -1.0581 0
M  V30 8182 C 781.385 -0.875111 -2.1551 0
M  V30 8183 C 782.379 0.157781 -1.68664 0
M  V30 8184 O 783.585 0.011297 -1.79996 0
M  V30 8185 H 779.96 -0.26542 -0.703602 0
M  V30 8186 H 781.931 -1.8076 -2.37421 0
M  V30 8187 C 780.68 -0.39802 -3.45414 0
M  V30 8188 H 780.003 -1.18425 -3.81858 0
M  V30 8189 H 781.443 -0.231913 -4.23365 0
M  V30 8190 C 779.902 0.88327 -3.25115 0
M  V30 8191 O 780.432 1.95145 -3.51114 0
M  V30 8192 N 778.638 0.828961 -2.78526 0
M  V30 8193 H 778.185 -0.0405029 -2.57568 0
M  V30 8194 H 778.143 1.68673 -2.65324 0
M  V30 8195 N 781.915 1.24427 -0.967243 0
M  V30 8196 C 782.847 2.24641 -0.454856 0
M  V30 8197 C 783.86 1.56849 0.436152 0
M  V30 8198 O 785.049 1.76846 0.242401 0
M  V30 8199 C 782.149 3.36954 0.362672 0
M  V30 8200 C 781.322 4.34318 -0.518324 0
M  V30 8201 C 780.381 5.25638 0.243122 0
M  V30 8202 O 779.407 5.68043 -0.362791 0
M  V30 8203 N 780.609 5.59897 1.53282 0
M  V30 8204 H 783.374 2.69238 -1.31648 0
M  V30 8205 H 780.935 1.38464 -0.839015 0
M  V30 8206 H 782.927 3.95014 0.880094 0
M  V30 8207 H 781.497 2.91646 1.12522 0
M  V30 8208 H 780.717 3.74953 -1.21672 0
M  V30 8209 H 782.005 4.96338 -1.11919 0
M  V30 8210 H 781.403 5.27373 2.04682 0
M  V30 8211 H 779.96 6.20488 1.99594 0
M  V30 8212 N 783.393 0.737304 1.3929 0
M  V30 8213 C 784.639 0.286681 2.00763 0
M  V30 8214 C 784.972 -1.12388 1.58375 0
M  V30 8215 O 784.247 -1.76661 0.813699 0
M  V30 8216 C 784.53 0.391147 3.57969 0
M  V30 8217 C 784.383 1.84165 4.1037 0
M  V30 8218 C 785.702 -0.225072 4.39524 0
M  V30 8219 H 782.821 0.105642 0.729389 0
M  V30 8220 H 785.463 0.933892 1.65464 0
M  V30 8221 H 783.613 -0.159875 3.88171 0
M  V30 8222 H 785.285 2.44972 3.90879 0
M  V30 8223 H 783.528 2.3622 3.63844 0
M  V30 8224 H 784.199 1.866 5.19504 0
M  V30 8225 H 786.675 0.244677 4.1538 0
M  V30 8226 H 785.551 -0.121646 5.48765 0
M  V30 8227 H 785.812 -1.31141 4.22202 0
M  V30 8228 N 784.871 -1.49948 0.485112 0
M  V30 8229 C 785.801 -2.31675 -0.291364 0
M  V30 8230 C 786.782 -1.39216 -0.977383 0
M  V30 8231 O 787.967 -1.68133 -0.971855 0
M  V30 8232 C 785.097 -3.19326 -1.36558 0
M  V30 8233 C 784.051 -4.2045 -0.800359 0
M  V30 8234 C 783.377 -4.96931 -1.97391 0
M  V30 8235 C 784.677 -5.21925 0.197867 0
M  V30 8236 H 786.371 -2.96839 0.390775 0
M  V30 8237 H 783.917 -1.42749 0.189375 0
M  V30 8238 H 785.87 -3.75304 -1.91638 0
M  V30 8239 H 784.594 -2.52074 -2.07668 0
M  V30 8240 H 783.253 -3.65594 -0.271428 0
M  V30 8241 H 782.901 -4.26141 -2.67232 0
M  V30 8242 H 782.601 -5.65344 -1.60187 0
M  V30 8243 H 784.125 -5.55749 -2.52935 0
M  V30 8244 H 785.539 -5.72691 -0.264239 0
M  V30 8245 H 783.936 -5.98138 0.484908 0
M  V30 8246 H 785.006 -4.71809 1.11912 0
M  V30 8247 N 786.349 -0.21828 -1.56081 0
M  V30 8248 C 787.574 0.422302 -2.03055 0
M  V30 8249 C 787.999 1.5279 -1.09713 0
M  V30 8250 O 787.357 1.81102 -0.0847187 0
M  V30 8251 C 787.405 0.934177 -3.48289 0
M  V30 8252 O 786.509 2.04574 -3.58083 0
M  V30 8253 H 785.85 0.0959764 -0.657027 0
M  V30 8254 H 788.38 -0.335958 -2.01823 0
M  V30 8255 H 788.39 1.24484 -3.88546 0
M  V30 8256 H 787.065 0.124963 -4.15712 0
M  V30 8257 H 785.642 1.74196 -3.29712 0
M  V30 8258 N 787.827 1.57504 0.0551401 0
M  V30 8259 C 788.775 2.05884 1.08233 0
M  V30 8260 C 789.769 0.967383 1.39061 0
M  V30 8261 O 790.975 1.15242 1.38273 0
M  V30 8262 H 787.35 0.656673 0.366449 0
M  V30 8263 H 789.321 2.91273 0.648269 0
M  V30 8264 C 788.07 2.53221 2.38273 0
M  V30 8265 H 787.393 3.36809 2.15406 0
M  V30 8266 H 788.833 2.9081 3.08554 0
M  V30 8267 C 787.292 1.42218 3.05411 0
M  V30 8268 O 787.822 0.773638 3.9418 0
M  V30 8269 N 786.028 1.16316 2.66306 0
M  V30 8270 H 785.575 1.69237 1.94207 0
M  V30 8271 H 785.533 0.422534 3.11548 0
M  V30 8272 N 789.305 -0.326896 1.54172 0
M  V30 8273 C 790.252 -1.40216 1.83325 0
M  V30 8274 C 791.222 -1.51538 0.680107 0
M  V30 8275 O 792.407 -1.66811 0.926206 0
M  V30 8276 C 789.547 -2.76626 2.0633 0
M  V30 8277 C 788.66 -2.73963 3.34019 0
M  V30 8278 C 787.795 -4.02198 3.47002 0
M  V30 8279 C 786.834 -3.93828 4.68578 0
M  V30 8280 N 785.971 -5.13787 4.78506 0
M  V30 8281 H 790.811 -1.14656 2.7506 0
M  V30 8282 H 788.348 -0.555089 1.36225 0
M  V30 8283 H 790.306 -3.55922 2.17659 0
M  V30 8284 H 788.936 -3.00503 1.1789 0
M  V30 8285 H 787.988 -1.86677 3.31445 0
M  V30 8286 H 789.3 -2.6366 4.2342 0
M  V30 8287 H 788.454 -4.89923 3.57855 0
M  V30 8288 H 787.193 -4.15302 2.55687 0
M  V30 8289 H 786.198 -3.04487 4.57786 0
M  V30 8290 H 787.423 -3.82292 5.61275 0
M  V30 8291 H 785.369 -5.27403 3.90105 0
M  V30 8292 H 785.286 -5.05807 5.61868 0
M  V30 8293 H 786.554 -6.03236 4.93686 0
M  V30 8294 N 790.784 -1.46188 -0.588786 0
M  V30 8295 C 792.061 -1.41659 -1.34878 0
M  V30 8296 C 792.441 -0.0968913 -2.10878 0
M  V30 8297 O 791.789 0.921468 -2.09096 0
M  V30 8298 C 791.999 -2.6424 -2.27988 0
M  V30 8299 C 793.347 -3.1013 -2.90008 0
M  V30 8300 O 794.371 -2.64745 -2.38303 0
M  V30 8301 O 793.23 -3.88944 -3.83908 0
M  V30 8302 H 790.324 -0.563058 -0.605718 0
M  V30 8303 H 792.87 -1.58346 -0.610309 0
M  V30 8304 H 791.642 -3.51853 -1.71217 0
M  V30 8305 H 791.265 -2.49982 -3.09184 0
M  V30 8306 N 792.262 0.832906 -1.33792 0
M  V30 8307 C 793.192 1.95828 -1.27176 0
M  V30 8308 C 794.173 1.69427 -0.15114 0
M  V30 8309 O 795.358 1.91167 -0.341886 0
M  V30 8310 C 792.488 3.32098 -1.01629 0
M  V30 8311 C 791.442 3.72912 -2.10049 0
M  V30 8312 C 790.768 5.07054 -1.69706 0
M  V30 8313 C 792.068 3.86064 -3.51783 0
M  V30 8314 H 793.762 2.01622 -2.21334 0
M  V30 8315 H 791.308 0.96866 -1.0655 0
M  V30 8316 H 793.261 4.10402 -0.956474 0
M  V30 8317 H 791.985 3.26577 -0.0390956 0
M  V30 8318 H 790.644 2.96876 -2.15082 0
M  V30 8319 H 790.292 4.9801 -0.706737 0
M  V30 8320 H 789.992 5.35333 -2.42264 0
M  V30 8321 H 791.516 5.87827 -1.65202 0
M  V30 8322 H 792.93 4.54665 -3.49218 0
M  V30 8323 H 791.327 4.25787 -4.22878 0
M  V30 8324 H 792.397 2.88344 -3.89854 0
M  V30 8325 N 793.74 1.17359 1.05189 0
M  V30 8326 C 794.989 0.956412 1.77583 0
M  V30 8327 C 795.302 -0.516018 1.88671 0
M  V30 8328 O 796.508 -0.851401 2.57805 0
M  V30 8329 C 794.964 1.66203 3.19225 0
M  V30 8330 C 794.572 3.17299 3.16267 0
M  V30 8331 C 796.316 1.52725 3.96075 0
M  V30 8332 C 794.223 3.8055 4.52698 0
M  V30 8333 H 793.153 0.354204 0.665624 0
M  V30 8334 H 795.804 1.40612 1.17901 0
M  V30 8335 H 794.186 1.14006 3.79234 0
M  V30 8336 H 795.36 3.76431 2.65776 0
M  V30 8337 H 793.675 3.3079 2.52917 0
M  V30 8338 H 796.272 1.97351 4.96947 0
M  V30 8339 H 796.615 0.477803 4.13549 0
M  V30 8340 H 797.148 2.02139 3.42614 0
M  V30 8341 H 793.887 4.85492 4.4043 0
M  V30 8342 H 793.407 3.26206 5.03339 0
M  V30 8343 H 795.086 3.82757 5.21638 0
M  V30 8344 N 795.218 -1.23913 0.973828 0
M  V30 8345 C 796.166 -2.27141 0.50098 0
M  V30 8346 C 797.16 -1.63623 -0.438631 0
M  V30 8347 O 798.366 -1.77253 -0.313247 0
M  V30 8348 H 794.741 -0.73817 0.14356 0
M  V30 8349 H 796.712 -2.64392 1.38346 0
M  V30 8350 C 795.461 -3.47195 -0.187377 0
M  V30 8351 H 794.784 -3.96318 0.526535 0
M  V30 8352 H 796.224 -4.21252 -0.481962 0
M  V30 8353 C 794.683 -3.05678 -1.41642 0
M  V30 8354 O 795.213 -3.1338 -2.51309 0
M  V30 8355 N 793.419 -2.60661 -1.28469 0
M  V30 8356 H 792.966 -2.54594 -0.39238 0
M  V30 8357 H 792.924 -2.33249 -2.10813 0
M  V30 8358 N 796.696 -0.74468 -1.38897 0
M  V30 8359 C 797.926 -0.306982 -2.04307 0
M  V30 8360 C 798.334 1.06652 -1.56275 0
M  V30 8361 O 797.677 1.68699 -0.72708 0
M  V30 8362 C 797.739 -0.241186 -3.5869 0
M  V30 8363 C 797.403 -1.55476 -4.2974 0
M  V30 8364 C 798.4 -2.50229 -4.55721 0
M  V30 8365 C 796.085 -1.82173 -4.68101 0
M  V30 8366 C 798.079 -3.69905 -5.19085 0
M  V30 8367 C 795.766 -3.02125 -5.31191 0
M  V30 8368 C 796.764 -3.95812 -5.56616 0
M  V30 8369 O 796.452 -5.13656 -6.18395 0
M  V30 8370 H 796.184 -0.130416 -0.663301 0
M  V30 8371 H 798.738 -1.01192 -1.78744 0
M  V30 8372 H 796.968 0.519925 -3.83189 0
M  V30 8373 H 798.657 0.165806 -4.05561 0
M  V30 8374 H 799.423 -2.30877 -4.26522 0
M  V30 8375 H 795.302 -1.10091 -4.47662 0
M  V30 8376 H 798.846 -4.43047 -5.38846 0
M  V30 8377 H 794.743 -3.21374 -5.59811 0
M  V30 8378 H 795.511 -5.14119 -6.36886 0
M  V30 8379 N 798.174 1.49689 -0.493057 0
M  V30 8380 C 799.122 2.30613 0.303383 0
M  V30 8381 C 800.116 1.38867 0.970165 0
M  V30 8382 O 801.322 1.55956 0.898761 0
M  V30 8383 H 797.697 0.742891 0.116691 0
M  V30 8384 H 799.668 2.95717 -0.39924 0
M  V30 8385 C 798.417 3.20008 1.35978 0
M  V30 8386 H 797.74 3.90526 0.856103 0
M  V30 8387 H 799.18 3.79586 1.88919 0
M  V30 8388 C 797.639 2.39079 2.37367 0
M  V30 8389 O 798.169 2.08933 3.43089 0
M  V30 8390 N 796.375 2.0125 2.09635 0
M  V30 8391 H 795.922 2.25966 1.23682 0
M  V30 8392 H 795.88 1.47408 2.77702 0
M  V30 8393 N 799.652 0.226554 1.55963 0
M  V30 8394 C 800.599 -0.681504 2.20509 0
M  V30 8395 C 801.569 -1.1866 1.16229 0
M  V30 8396 O 802.754 -1.24478 1.44602 0
M  V30 8397 C 799.894 -1.88183 2.89277 0
M  V30 8398 C 799.007 -1.41517 4.08163 0
M  V30 8399 C 798.142 -2.57346 4.647 0
M  V30 8400 C 797.181 -2.07441 5.75877 0
M  V30 8401 N 796.318 -3.16561 6.26685 0
M  V30 8402 H 801.158 -0.124372 2.9774 0
M  V30 8403 H 798.695 -0.0496333 1.47016 0
M  V30 8404 H 800.653 -2.58666 3.27335 0
M  V30 8405 H 799.283 -2.41177 2.14555 0
M  V30 8406 H 798.335 -0.605099 3.75557 0
M  V30 8407 H 799.647 -1.00928 4.88482 0
M  V30 8408 H 798.801 -3.35903 5.05227 0
M  V30 8409 H 797.54 -3.01227 3.83554 0
M  V30 8410 H 796.545 -1.27347 5.34848 0
M  V30 8411 H 797.77 -1.64554 6.58862 0
M  V30 8412 H 795.716 -3.59914 5.48451 0
M  V30 8413 H 795.633 -2.80239 7.02141 0
M  V30 8414 H 796.901 -3.95238 6.71868 0
M  V30 8415 N 801.13 -1.57531 -0.0467866 0
M  V30 8416 C 802.377 -1.88451 -0.74112 0
M  V30 8417 C 802.705 -0.821592 -1.76296 0
M  V30 8418 O 801.96 0.179585 -1.94874 0
M  V30 8419 C 802.259 -3.26091 -1.46285 0
M  V30 8420 C 801.925 -4.47171 -0.578669 0
M  V30 8421 C 800.587 -4.80032 -0.335083 0
M  V30 8422 C 802.939 -5.2119 0.0328809 0
M  V30 8423 C 800.267 -5.84309 0.529121 0
M  V30 8424 C 802.619 -6.26383 0.884684 0
M  V30 8425 C 801.283 -6.57729 1.1379 0
M  V30 8426 H 800.553 -0.68959 -0.271195 0
M  V30 8427 H 803.2 -1.915 -0.00132378 0
M  V30 8428 H 801.505 -3.18948 -2.27551 0
M  V30 8429 H 803.202 -3.47258 -2.00532 0
M  V30 8430 H 799.792 -4.21467 -0.778666 0
M  V30 8431 H 803.976 -4.96096 -0.142375 0
M  V30 8432 H 799.232 -6.06981 0.733794 0
M  V30 8433 H 803.406 -6.82888 1.36516 0
M  V30 8434 H 801.033 -7.38355 1.80929 0
M  V30 8435 N 802.608 0.318715 -1.54344 0
M  V30 8436 C 803.854 1.05765 -1.73037 0
M  V30 8437 C 804.187 1.87514 -0.505181 0
M  V30 8438 O 803.462 1.88021 0.497838 0
M  V30 8439 C 803.745 1.97836 -3.00887 0
M  V30 8440 C 803.598 1.19384 -4.33668 0
M  V30 8441 C 804.917 2.97285 -3.24514 0
M  V30 8442 H 802.036 0.383104 -0.629603 0
M  V30 8443 H 804.678 0.333864 -1.87044 0
M  V30 8444 H 802.828 2.59552 -2.89076 0
M  V30 8445 H 804.5 0.600906 -4.57369 0
M  V30 8446 H 802.743 0.496198 -4.30953 0
M  V30 8447 H 803.414 1.87014 -5.19355 0
M  V30 8448 H 805.89 2.45693 -3.35819 0
M  V30 8449 H 804.766 3.58887 -4.15321 0
M  V30 8450 H 805.027 3.70003 -2.41971 0
M  V30 8451 N 804.086 1.46499 0.581025 0
M  V30 8452 C 805.018 1.53225 1.70455 0
M  V30 8453 C 806.031 0.420443 1.57277 0
M  V30 8454 O 807.22 0.688888 1.64671 0
M  V30 8455 C 804.32 1.39803 3.08721 0
M  V30 8456 C 803.493 2.65132 3.47884 0
M  V30 8457 C 802.552 2.45886 4.65217 0
M  V30 8458 O 801.578 3.19615 4.70993 0
M  V30 8459 N 802.78 1.5216 5.60203 0
M  V30 8460 H 805.545 2.50098 1.65139 0
M  V30 8461 H 803.106 1.42576 0.76705 0
M  V30 8462 H 805.098 1.24697 3.8501 0
M  V30 8463 H 803.668 0.51104 3.08394 0
M  V30 8464 H 802.888 2.95169 2.61284 0
M  V30 8465 H 804.176 3.48385 3.70817 0
M  V30 8466 H 803.574 0.913646 5.58273 0
M  V30 8467 H 802.131 1.43017 6.35916 0
M  V30 8468 N 805.565 -0.825799 1.34232 0
M  V30 8469 C 806.79 -1.61883 1.29648 0
M  V30 8470 C 807.215 -1.87669 -0.127295 0
M  V30 8471 O 806.573 -1.45016 -1.08813 0
M  V30 8472 C 806.621 -2.93846 2.09014 0
M  V30 8473 O 805.725 -3.85778 1.4577 0
M  V30 8474 H 805.066 -0.492454 0.445405 0
M  V30 8475 H 807.596 -1.02641 1.76992 0
M  V30 8476 H 807.606 -3.43435 2.20264 0
M  V30 8477 H 806.281 -2.74401 3.12533 0
M  V30 8478 H 804.858 -3.4429 1.43245 0
M  V30 8479 N 807.043 -1.17915 -1.04565 0
M  V30 8480 C 808.283 -0.982331 -1.79247 0
M  V30 8481 C 808.647 0.47998 -1.85904 0
M  V30 8482 O 809.848 0.796078 -2.56741 0
M  V30 8483 C 808.119 -1.61329 -3.18916 0
M  V30 8484 S 809.678 -1.56355 -4.09998 0
M  V30 8485 H 806.496 -0.352869 -0.617256 0
M  V30 8486 H 809.098 -1.49971 -1.25415 0
M  V30 8487 H 807.802 -2.66993 -3.11678 0
M  V30 8488 H 807.333 -1.09599 -3.77825 0
M  V30 8489 H 809.348 -0.57593 -4.92846 0
M  V30 8490 N 808.521 1.23394 -0.980386 0
M  V30 8491 C 809.77 1.91116 -0.644785 0
M  V30 8492 C 810.083 1.77333 0.825367 0
M  V30 8493 O 811.289 2.39858 1.27203 0
M  V30 8494 C 809.745 3.42592 -1.10266 0
M  V30 8495 C 809.353 3.65037 -2.59715 0
M  V30 8496 C 811.097 4.1609 -0.8408 0
M  V30 8497 C 809.004 5.10148 -2.9917 0
M  V30 8498 H 807.934 0.715632 -0.23746 0
M  V30 8499 H 810.585 1.39829 -1.18828 0
M  V30 8500 H 808.967 3.92989 -0.487372 0
M  V30 8501 H 810.141 3.25186 -3.26482 0
M  V30 8502 H 808.456 3.04849 -2.83647 0
M  V30 8503 H 811.053 5.23021 -1.11143 0
M  V30 8504 H 811.396 4.15702 0.223085 0
M  V30 8505 H 811.929 3.71681 -1.41767 0
M  V30 8506 H 808.668 5.15668 -4.04682 0
M  V30 8507 H 808.188 5.50949 -2.37097 0
M  V30 8508 H 809.867 5.7848 -2.89775 0
M  V30 8509 N 809.999 0.752036 1.385 0
M  V30 8510 C 811.276 0.233075 1.94206 0
M  V30 8511 C 811.656 -1.26838 1.68746 0
M  V30 8512 O 811.004 -2.04214 1.02513 0
M  V30 8513 C 811.214 0.58509 3.44061 0
M  V30 8514 C 812.562 0.543871 4.21102 0
M  V30 8515 O 813.586 0.523291 3.52335 0
M  V30 8516 O 812.445 0.553436 5.4369 0
M  V30 8517 H 809.539 0.0483049 0.825588 0
M  V30 8518 H 812.085 0.832053 1.47902 0
M  V30 8519 H 810.857 1.62212 3.56094 0
M  V30 8520 H 810.48 -0.0419738 3.97578 0
M  V30 8521 N 811.477 -1.49425 0.500989 0
M  V30 8522 C 812.723 -2.03369 -0.0355945 0
M  V30 8523 C 813.078 -1.37387 -1.34694 0
M  V30 8524 O 812.371 -0.500516 -1.84947 0
M  V30 8525 C 812.565 -3.56562 -0.24463 0
M  V30 8526 C 812.394 -4.37392 1.04491 0
M  V30 8527 C 811.164 -4.7941 1.59669 0
M  V30 8528 C 813.362 -4.75974 1.94817 0
M  V30 8529 N 811.344 -5.44668 2.83214 0
M  V30 8530 C 812.715 -5.4095 3.0294 0
M  V30 8531 C 814.77 -4.57915 1.95495 0
M  V30 8532 C 813.473 -5.89779 4.11768 0
M  V30 8533 C 815.499 -5.07705 3.03298 0
M  V30 8534 C 814.861 -5.72682 4.1014 0
M  V30 8535 H 810.96 -0.781507 0.0277547 0
M  V30 8536 H 813.544 -1.82594 0.675844 0
M  V30 8537 H 811.715 -3.77221 -0.925126 0
M  V30 8538 H 813.447 -3.97147 -0.778219 0
M  V30 8539 H 810.202 -4.59629 1.14185 0
M  V30 8540 H 810.626 -5.81884 3.46035 0
M  V30 8541 H 815.268 -4.07085 1.14199 0
M  V30 8542 H 812.986 -6.3963 4.93862 0
M  V30 8543 H 816.572 -4.95542 3.04843 0
M  V30 8544 H 815.452 -6.10512 4.92184 0
M  V30 8545 N 812.955 -0.234822 -1.55841 0
M  V30 8546 C 813.903 0.686145 -2.22249 0
M  V30 8547 C 814.897 1.18948 -1.20614 0
M  V30 8548 O 816.103 1.14777 -1.38659 0
M  V30 8549 H 812.478 0.239724 -0.712767 0
M  V30 8550 H 814.449 0.102762 -2.98223 0
M  V30 8551 C 813.198 1.8776 -2.92646 0
M  V30 8552 H 812.521 1.49943 -3.70617 0
M  V30 8553 H 813.961 2.4995 -3.42493 0
M  V30 8554 C 812.42 2.74127 -1.95847 0
M  V30 8555 O 812.95 3.7329 -1.48384 0
M  V30 8556 N 811.156 2.4044 -1.63209 0
M  V30 8557 H 810.703 1.59854 -2.02001 0
M  V30 8558 H 810.661 2.98504 -0.987063 0
M  V30 8559 N 814.433 1.57553 0.0384317 0
M  V30 8560 C 815.849 1.54663 0.39391 0
M  V30 8561 C 816.049 0.959685 1.77179 0
M  V30 8562 O 815.105 0.576647 2.45827 0
M  V30 8563 C 816.418 2.99156 0.304352 0
M  V30 8564 C 817.966 3.10659 0.382119 0
M  V30 8565 C 818.441 4.56866 0.322111 0
M  V30 8566 N 819.932 4.61629 0.38119 0
M  V30 8567 C 820.667 5.72284 0.357501 0
M  V30 8568 N 820.163 6.92207 0.286654 0
M  V30 8569 N 821.956 5.60628 0.406538 0
M  V30 8570 H 814.107 1.9406 -0.86339 0
M  V30 8571 H 816.37 0.889673 -0.327392 0
M  V30 8572 H 816.076 3.45788 -0.642141 0
M  V30 8573 H 815.95 3.60753 1.10168 0
M  V30 8574 H 818.337 2.6398 1.31904 0
M  V30 8575 H 818.418 2.5191 -0.444391 0
M  V30 8576 H 818.062 5.0421 -0.611104 0
M  V30 8577 H 817.992 5.13515 1.1666 0
M  V30 8578 H 820.483 3.75343 0.438838 0
M  V30 8579 H 820.796 7.72316 0.273421 0
M  V30 8580 H 819.141 6.9454 0.252841 0
M  V30 8581 H 822.332 4.65836 0.459812 0
M  V30 8582 H 822.505 6.46858 0.384608 0
M  V30 8583 N 815.911 -0.310526 1.54511 0
M  V30 8584 C 816.821 -1.4054 1.87844 0
M  V30 8585 C 817.837 -1.55954 0.771635 0
M  V30 8586 O 819.013 -1.70801 1.06719 0
M  V30 8587 C 816.078 -2.75063 2.11048 0
M  V30 8588 C 815.139 -2.68715 3.348 0
M  V30 8589 C 814.372 -3.96821 3.56887 0
M  V30 8590 O 814.595 -4.95721 2.82165 0
M  V30 8591 O 813.529 -3.99291 4.50389 0
M  V30 8592 H 817.355 -1.15275 2.80972 0
M  V30 8593 H 814.94 -0.505732 1.4058 0
M  V30 8594 H 816.822 -3.54671 2.27566 0
M  V30 8595 H 815.497 -3.00191 1.21108 0
M  V30 8596 H 814.404 -1.87611 3.23655 0
M  V30 8597 H 815.737 -2.4854 4.2484 0
M  V30 8598 N 817.389 -1.46805 -0.573248 0
M  V30 8599 C 818.635 -1.5283 -1.33307 0
M  V30 8600 C 818.968 -0.183287 -1.93333 0
M  V30 8601 O 818.243 0.806354 -1.76998 0
M  V30 8602 C 818.526 -2.63414 -2.45531 0
M  V30 8603 C 818.379 -4.07478 -1.90478 0
M  V30 8604 C 819.698 -2.70014 -3.47535 0
M  V30 8605 H 816.817 -0.556371 -0.483343 0
M  V30 8606 H 819.459 -1.78787 -0.643066 0
M  V30 8607 H 817.609 -2.41412 -3.04389 0
M  V30 8608 H 819.281 -4.40795 -1.36004 0
M  V30 8609 H 817.524 -4.16511 -1.21248 0
M  V30 8610 H 818.195 -4.80598 -2.71531 0
M  V30 8611 H 820.671 -2.89817 -2.98572 0
M  V30 8612 H 819.547 -3.49192 -4.23504 0
M  V30 8613 H 819.808 -1.76436 -4.05367 0
M  V30 8614 N 818.867 0.818669 -1.34668 0
M  V30 8615 C 819.797 1.94468 -1.29245 0
M  V30 8616 C 820.778 1.69257 -0.169101 0
M  V30 8617 O 821.963 1.90794 -0.362143 0
M  V30 8618 C 819.093 3.31001 -1.05145 0
M  V30 8619 C 818.047 3.70663 -2.13992 0
M  V30 8620 C 817.373 5.05226 -1.75074 0
M  V30 8621 C 818.673 3.82312 -3.55858 0
M  V30 8622 H 820.367 1.99263 -2.2346 0
M  V30 8623 H 817.913 0.957304 -1.07572 0
M  V30 8624 H 819.866 4.09364 -0.999949 0
M  V30 8625 H 818.59 3.26517 -0.0737312 0
M  V30 8626 H 817.249 2.94578 -2.18219 0
M  V30 8627 H 816.897 4.97233 -0.759518 0
M  V30 8628 H 816.597 5.32734 -2.47928 0
M  V30 8629 H 818.121 5.86042 -1.71427 0
M  V30 8630 H 819.535 4.50935 -3.5402 0
M  V30 8631 H 817.932 4.21278 -4.2737 0
M  V30 8632 H 819.002 2.84193 -3.9289 0
M  V30 8633 N 820.346 1.18468 1.03938 0
M  V30 8634 C 821.293 0.912859 2.1198 0
M  V30 8635 C 822.263 -0.14824 1.65437 0
M  V30 8636 O 823.448 -0.008331 1.90798 0
M  V30 8637 C 820.588 0.446114 3.42204 0
M  V30 8638 C 819.701 1.57278 4.02353 0
M  V30 8639 C 818.836 1.05863 5.20544 0
M  V30 8640 C 817.875 2.1599 5.72726 0
M  V30 8641 N 817.012 1.65959 6.82204 0
M  V30 8642 H 821.852 1.83798 2.34569 0
M  V30 8643 H 819.389 0.916504 1.15059 0
M  V30 8644 H 821.347 0.15697 4.16905 0
M  V30 8645 H 819.977 -0.442025 3.19759 0
M  V30 8646 H 819.029 1.97737 3.24968 0
M  V30 8647 H 820.341 2.40289 4.37107 0
M  V30 8648 H 819.495 0.724087 6.02364 0
M  V30 8649 H 818.234 0.198116 4.87297 0
M  V30 8650 H 817.239 2.50287 4.89527 0
M  V30 8651 H 818.464 3.02479 6.08016 0
M  V30 8652 H 816.41 0.82199 6.5083 0
M  V30 8653 H 816.327 2.42567 7.16029 0
M  V30 8654 H 817.595 1.35436 7.67644 0
M  V30 8655 N 821.824 -1.22873 0.986916 0
M  V30 8656 C 823.24 -1.43594 0.696633 0
M  V30 8657 C 823.44 -1.87622 -0.734869 0
M  V30 8658 O 822.496 -2.02633 -1.50652 0
M  V30 8659 C 823.809 -2.48231 1.69711 0
M  V30 8660 C 825.357 -2.62037 1.71188 0
M  V30 8661 C 825.832 -3.6989 2.70084 0
M  V30 8662 N 827.323 -3.77341 2.68641 0
M  V30 8663 C 828.058 -4.6037 3.41829 0
M  V30 8664 N 827.554 -5.47438 4.24598 0
M  V30 8665 N 829.347 -4.54626 3.30563 0
M  V30 8666 H 821.498 -0.925982 1.91153 0
M  V30 8667 H 823.761 -0.46866 0.824052 0
M  V30 8668 H 823.467 -2.22812 2.72117 0
M  V30 8669 H 823.341 -3.46731 1.48516 0
M  V30 8670 H 825.728 -2.86803 0.694837 0
M  V30 8671 H 825.809 -1.63831 1.96451 0
M  V30 8672 H 825.453 -3.45872 3.71934 0
M  V30 8673 H 825.383 -4.67652 2.42093 0
M  V30 8674 H 827.874 -3.15124 2.08578 0
M  V30 8675 H 828.187 -6.078 4.77283 0
M  V30 8676 H 826.532 -5.4704 4.28687 0
M  V30 8677 H 829.723 -3.85627 2.65347 0
M  V30 8678 H 829.896 -5.19103 3.8786 0
M  V30 8679 N 823.302 -0.75937 -1.38099 0
M  V30 8680 C 824.212 -0.13774 -2.34195 0
M  V30 8681 C 825.228 0.693985 -1.59561 0
M  V30 8682 O 826.404 0.616792 -1.91723 0
M  V30 8683 C 823.469 0.740535 -3.38699 0
M  V30 8684 C 822.53 -0.106225 -4.29169 0
M  V30 8685 C 821.763 0.730225 -5.28681 0
M  V30 8686 O 821.986 1.96796 -5.35376 0
M  V30 8687 O 820.92 0.145969 -6.01723 0
M  V30 8688 H 824.746 -0.931512 -2.89061 0
M  V30 8689 H 822.331 -0.520345 -1.40046 0
M  V30 8690 H 824.213 1.24232 -4.02672 0
M  V30 8691 H 822.888 1.51271 -2.8618 0
M  V30 8692 H 821.795 -0.654088 -3.68337 0
M  V30 8693 H 823.128 -0.841186 -4.84959 0
M  V30 8694 N 824.78 1.49157 -0.508906 0
M  V30 8695 C 825.71 2.32109 0.254469 0
M  V30 8696 C 826.691 1.40754 0.955111 0
M  V30 8697 O 827.876 1.69658 0.944983 0
M  V30 8698 C 825.006 3.21458 1.3146 0
M  V30 8699 C 823.96 4.2167 0.733368 0
M  V30 8700 C 823.286 5.00009 1.8946 0
M  V30 8701 C 824.586 5.21544 -0.280875 0
M  V30 8702 H 826.28 2.9618 -0.43795 0
M  V30 8703 H 823.826 1.4243 -0.212062 0
M  V30 8704 H 825.779 3.78305 1.85643 0
M  V30 8705 H 824.503 2.55346 2.03632 0
M  V30 8706 H 823.162 3.65979 0.213231 0
M  V30 8707 H 822.81 4.30338 2.60419 0
M  V30 8708 H 822.51 5.67821 1.51173 0
M  V30 8709 H 824.034 5.59702 2.44061 0
M  V30 8710 H 825.448 5.73039 0.173095 0
M  V30 8711 H 823.845 5.97291 -0.580006 0
M  V30 8712 H 824.915 4.69969 -1.19404 0
M  V30 8713 N 826.258 0.243083 1.55714 0
M  V30 8714 C 827.506 -0.381964 1.98458 0
M  V30 8715 C 827.827 -1.58745 1.13247 0
M  V30 8716 O 827.097 -1.94723 0.214384 0
M  V30 8717 H 825.677 -0.144114 0.732967 0
M  V30 8718 H 828.339 0.340985 1.91894 0
M  V30 8719 H 827.435 -0.693702 3.04293 0
M  V30 8720 N 827.736 -1.57571 -0.0300757 0
M  V30 8721 C 828.666 -2.0953 -1.03051 0
M  V30 8722 C 829.647 -0.99761 -1.37774 0
M  V30 8723 O 830.832 -1.27279 -1.46676 0
M  V30 8724 C 827.962 -2.57385 -2.33174 0
M  V30 8725 C 826.916 -3.71409 -2.12696 0
M  V30 8726 C 826.242 -4.05467 -3.4857 0
M  V30 8727 C 827.542 -4.99877 -1.51396 0
M  V30 8728 H 829.236 -2.93367 -0.597999 0
M  V30 8729 H 826.782 -1.41127 -0.286203 0
M  V30 8730 H 828.735 -2.92355 -3.03491 0
M  V30 8731 H 827.459 -1.70629 -2.78484 0
M  V30 8732 H 826.118 -3.36786 -1.44813 0
M  V30 8733 H 825.766 -3.15779 -3.91526 0
M  V30 8734 H 825.466 -4.82269 -3.35694 0
M  V30 8735 H 826.99 -4.4297 -4.2025 0
M  V30 8736 H 828.404 -5.3281 -2.11629 0
M  V30 8737 H 826.801 -5.81283 -1.49098 0
M  V30 8738 H 827.871 -4.82522 -0.479676 0
M  V30 8739 N 829.214 0.302327 -1.54673 0
M  V30 8740 C 830.177 1.35592 -1.8479 0
M  V30 8741 C 831.177 1.43743 -0.72073 0
M  V30 8742 O 832.367 1.43402 -0.989017 0
M  V30 8743 C 829.499 2.74091 -2.02699 0
M  V30 8744 H 830.692 1.10132 -2.78946 0
M  V30 8745 H 828.245 0.538926 -1.46715 0
M  V30 8746 H 828.98 3.04775 -1.10826 0
M  V30 8747 H 828.765 2.69565 -2.8474 0
M  V30 8748 H 830.255 3.50272 -2.27374 0
M  V30 8749 N 830.692 1.47107 0.565454 0
M  V30 8750 C 831.602 1.61591 1.70075 0
M  V30 8751 C 832.618 0.498931 1.66693 0
M  V30 8752 O 833.794 0.765372 1.8629 0
M  V30 8753 C 830.859 1.61887 3.06583 0
M  V30 8754 C 829.92 2.84949 3.21096 0
M  V30 8755 C 829.153 2.85221 4.51093 0
M  V30 8756 O 829.376 1.94959 5.36048 0
M  V30 8757 O 828.31 3.76982 4.69221 0
M  V30 8758 H 832.136 2.57638 1.60799 0
M  V30 8759 H 829.721 1.30097 0.73451 0
M  V30 8760 H 831.603 1.64809 3.87835 0
M  V30 8761 H 830.278 0.69005 3.16259 0
M  V30 8762 H 829.185 2.87575 2.39273 0
M  V30 8763 H 830.518 3.77098 3.1632 0
M  V30 8764 N 832.17 -0.811516 1.35101 0
M  V30 8765 C 833.41 -1.58177 1.29458 0
M  V30 8766 C 833.774 -1.91555 -0.130688 0
M  V30 8767 O 834.975 -2.6699 -0.311428 0
M  V30 8768 C 833.246 -2.83896 2.17112 0
M  V30 8769 S 834.805 -3.74344 2.28936 0
M  V30 8770 H 831.623 -0.542021 0.460146 0
M  V30 8771 H 834.225 -0.957653 1.70438 0
M  V30 8772 H 832.929 -2.57391 3.19653 0
M  V30 8773 H 832.46 -3.51297 1.7707 0
M  V30 8774 H 834.475 -4.73909 1.47054 0
M  V30 8775 N 833.648 -1.19017 -1.03309 0
M  V30 8776 C 834.925 -0.899659 -1.73682 0
M  V30 8777 C 835.305 0.595677 -2.02521 0
M  V30 8778 O 834.653 1.55263 -1.67648 0
M  V30 8779 C 834.863 -1.75508 -3.01659 0
M  V30 8780 C 836.211 -1.98679 -3.75249 0
M  V30 8781 O 837.235 -1.72624 -3.11576 0
M  V30 8782 O 836.094 -2.42587 -4.89708 0
M  V30 8783 H 833.188 -0.334903 -0.756154 0
M  V30 8784 H 835.734 -1.29809 -1.09305 0
M  V30 8785 H 834.506 -2.7684 -2.76542 0
M  V30 8786 H 834.129 -1.35565 -3.73775 0
M  V30 8787 N 835.127 1.22348 -0.993418 0
M  V30 8788 C 836.376 1.90422 -0.665019 0
M  V30 8789 C 836.689 1.78199 0.806512 0
M  V30 8790 O 837.895 2.41193 1.24652 0
M  V30 8791 C 836.351 3.41403 -1.13893 0
M  V30 8792 C 835.959 3.62262 -2.63572 0
M  V30 8793 C 837.703 4.15175 -0.884884 0
M  V30 8794 C 835.61 5.06947 -3.04564 0
M  V30 8795 H 834.54 0.713073 -0.245037 0
M  V30 8796 H 837.191 1.3856 -1.20305 0
M  V30 8797 H 835.573 3.9245 -0.529027 0
M  V30 8798 H 836.747 3.21705 -3.29913 0
M  V30 8799 H 835.062 3.01824 -2.86865 0
M  V30 8800 H 837.659 5.21813 -1.16684 0
M  V30 8801 H 838.002 4.15915 0.178982 0
M  V30 8802 H 838.535 3.70157 -1.45701 0
M  V30 8803 H 835.274 5.11346 -4.10128 0
M  V30 8804 H 834.794 5.48404 -2.42927 0
M  V30 8805 H 836.473 5.75374 -2.95894 0
M  V30 8806 N 836.605 0.766683 1.37694 0
M  V30 8807 C 837.854 0.325425 1.99057 0
M  V30 8808 C 838.167 -1.10275 1.61551 0
M  V30 8809 O 839.373 -1.64513 2.1598 0
M  V30 8810 C 837.829 0.530886 3.55963 0
M  V30 8811 C 837.437 1.96899 4.02411 0
M  V30 8812 C 839.181 0.152997 4.24224 0
M  V30 8813 C 837.088 2.12232 5.52007 0
M  V30 8814 H 836.018 0.117929 0.744721 0
M  V30 8815 H 838.669 0.945091 1.5729 0
M  V30 8816 H 837.051 -0.158162 3.95684 0
M  V30 8817 H 838.225 2.69258 3.73948 0
M  V30 8818 H 836.54 2.303 3.46916 0
M  V30 8819 H 839.137 0.24614 5.34133 0
M  V30 8820 H 839.48 -0.896096 4.06541 0
M  V30 8821 H 840.013 0.794398 3.89787 0
M  V30 8822 H 836.752 3.15442 5.7461 0
M  V30 8823 H 836.272 1.4435 5.82171 0
M  V30 8824 H 837.951 1.9185 6.17902 0
M  V30 8825 N 838.083 -1.48885 0.516809 0
M  V30 8826 C 839.36 -1.95412 -0.0858293 0
M  V30 8827 C 839.74 -1.45875 -1.5259 0
M  V30 8828 O 839.088 -0.679415 -2.18166 0
M  V30 8829 C 839.298 -3.48995 0.0178194 0
M  V30 8830 C 840.646 -4.24342 -0.14813 0
M  V30 8831 O 841.67 -3.56155 -0.0566125 0
M  V30 8832 O 840.529 -5.45454 -0.338035 0
M  V30 8833 H 837.623 -0.822455 -0.0865884 0
M  V30 8834 H 840.169 -1.59464 0.580472 0
M  V30 8835 H 838.941 -3.77732 1.02147 0
M  V30 8836 H 838.564 -3.91604 -0.687924 0
M  V30 8837 N 839.561 -0.251338 -1.55583 0
M  V30 8838 C 840.81 0.372681 -1.98227 0
M  V30 8839 C 841.123 1.58743 -1.1428 0
M  V30 8840 O 842.329 2.28289 -1.46957 0
M  V30 8841 C 840.785 0.714439 -3.52738 0
M  V30 8842 C 840.393 -0.479168 -4.4543 0
M  V30 8843 C 842.137 1.3024 -4.04027 0
M  V30 8844 C 840.044 -0.113318 -5.91291 0
M  V30 8845 H 838.974 0.14302 -0.740312 0
M  V30 8846 H 841.625 -0.352253 -1.80087 0
M  V30 8847 H 840.007 1.49762 -3.66589 0
M  V30 8848 H 841.181 -1.25644 -4.4334 0
M  V30 8849 H 839.496 -0.982359 -4.04646 0
M  V30 8850 H 842.093 1.58953 -5.10527 0
M  V30 8851 H 842.436 2.22837 -3.51638 0
M  V30 8852 H 842.969 0.582024 -3.93519 0
M  V30 8853 H 839.708 -1.00654 -6.47726 0
M  V30 8854 H 839.228 0.627666 -5.96507 0
M  V30 8855 H 840.907 0.30293 -6.4629 0
M  V30 8856 N 841.039 1.57585 0.0217189 0
M  V30 8857 C 842.45 1.7787 0.567377 0
M  V30 8858 C 842.801 0.883337 1.7519 0
M  V30 8859 O 841.926 0.0800819 2.16252 0
M  V30 8860 C 842.521 3.2257 1.03606 0
M  V30 8861 C 841.08 3.44026 1.52718 0
M  V30 8862 C 840.227 2.73313 0.468545 0
M  V30 8863 H 843.178 1.57377 -0.2045 0
M  V30 8864 H 843.199 3.29488 1.9031 0
M  V30 8865 H 842.711 3.87711 0.173739 0
M  V30 8866 H 840.812 2.8407 2.41111 0
M  V30 8867 H 840.925 4.52659 1.56962 0
M  V30 8868 H 839.289 2.37299 0.925263 0
M  V30 8869 H 840.072 3.41141 -0.384438 0
M  V30 8870 N 842.517 -0.29412 1.54831 0
M  V30 8871 C 843.449 -1.38476 1.82639 0
M  V30 8872 C 844.462 -1.46517 0.709694 0
M  V30 8873 O 845.651 -1.48712 0.987269 0
M  V30 8874 C 842.751 -2.76791 1.95551 0
M  V30 8875 C 841.924 -2.91599 3.26019 0
M  V30 8876 C 840.983 -4.10456 3.29261 0
M  V30 8877 O 840.009 -4.02214 4.02756 0
M  V30 8878 N 841.211 -5.21422 2.55145 0
M  V30 8879 H 843.976 -1.14974 2.76769 0
M  V30 8880 H 841.537 -0.484206 1.5449 0
M  V30 8881 H 843.529 -3.5456 1.95113 0
M  V30 8882 H 842.099 -2.93209 1.08384 0
M  V30 8883 H 841.319 -2.00886 3.39173 0
M  V30 8884 H 842.607 -2.98409 4.12104 0
M  V30 8885 H 842.005 -5.31 1.95078 0
M  V30 8886 H 840.562 -5.97501 2.60454 0
M  V30 8887 N 843.995 -1.47404 -0.557645 0
M  V30 8888 C 844.925 -1.62736 -1.67449 0
M  V30 8889 C 845.906 -0.476824 -1.6328 0
M  V30 8890 O 847.091 -0.706108 -1.80908 0
M  V30 8891 C 844.221 -1.641 -3.06086 0
M  V30 8892 C 843.175 -2.78377 -3.25101 0
M  V30 8893 C 842.501 -2.64812 -4.6452 0
M  V30 8894 C 843.801 -4.19971 -3.10518 0
M  V30 8895 H 845.495 -2.56232 -1.54873 0
M  V30 8896 H 843.041 -1.23312 -0.743649 0
M  V30 8897 H 844.994 -1.73417 -3.84063 0
M  V30 8898 H 843.718 -0.671652 -3.19619 0
M  V30 8899 H 842.377 -2.6857 -2.49531 0
M  V30 8900 H 842.025 -1.65906 -4.74852 0
M  V30 8901 H 841.725 -3.41477 -4.78191 0
M  V30 8902 H 843.249 -2.76057 -5.44633 0
M  V30 8903 H 844.663 -4.30757 -3.78313 0
M  V30 8904 H 843.06 -4.97419 -3.35699 0
M  V30 8905 H 844.13 -4.38369 -2.0727 0
M  V30 8906 N 845.473 0.80434 -1.35529 0
M  V30 8907 C 846.72 1.56154 -1.28927 0
M  V30 8908 C 847.048 1.94026 0.135682 0
M  V30 8909 O 846.303 1.61759 1.10148 0
M  V30 8910 C 846.602 2.85988 -2.14349 0
M  V30 8911 C 846.268 2.67323 -3.6311 0
M  V30 8912 C 844.93 2.61941 -4.03659 0
M  V30 8913 C 847.282 2.49699 -4.57493 0
M  V30 8914 C 844.61 2.3688 -5.36754 0
M  V30 8915 C 846.962 2.26168 -5.90788 0
M  V30 8916 C 845.626 2.19209 -6.30479 0
M  V30 8917 H 844.896 0.571407 -0.471779 0
M  V30 8918 H 847.543 0.929193 -1.67446 0
M  V30 8919 H 845.848 3.53612 -1.68718 0
M  V30 8920 H 847.545 3.43697 -2.06576 0
M  V30 8921 H 844.135 2.72361 -3.30934 0
M  V30 8922 H 848.319 2.52869 -4.27049 0
M  V30 8923 H 843.575 2.29964 -5.66504 0
M  V30 8924 H 847.749 2.11522 -6.63499 0
M  V30 8925 H 845.376 1.99553 -7.33541 0
M  V30 8926 N 846.951 1.19563 1.02676 0
M  V30 8927 C 847.898 0.935291 2.11 0
M  V30 8928 C 848.868 -0.130685 1.65585 0
M  V30 8929 O 850.053 0.0119062 1.90796 0
M  V30 8930 C 847.193 0.482384 3.41712 0
M  V30 8931 C 846.306 1.61537 4.00662 0
M  V30 8932 C 845.441 1.11378 5.19392 0
M  V30 8933 C 844.48 2.22052 5.70403 0
M  V30 8934 N 843.617 1.73185 6.80405 0
M  V30 8935 H 848.457 1.86275 2.32606 0
M  V30 8936 H 845.994 0.928656 1.14081 0
M  V30 8937 H 847.952 0.20118 4.16715 0
M  V30 8938 H 846.582 -0.408086 3.2021 0
M  V30 8939 H 845.634 2.01173 3.22852 0
M  V30 8940 H 846.946 2.44912 4.34534 0
M  V30 8941 H 846.1 0.787935 6.01562 0
M  V30 8942 H 844.839 0.249789 4.8706 0
M  V30 8943 H 843.844 2.55465 4.86845 0
M  V30 8944 H 845.069 3.08911 6.04774 0
M  V30 8945 H 843.015 0.890973 6.49921 0
M  V30 8946 H 842.932 2.50148 7.13416 0
M  V30 8947 H 844.2 1.4357 7.66164 0
M  V30 8948 N 848.429 -1.21819 0.999893 0
M  V30 8949 C 849.657 -1.94758 0.698359 0
M  V30 8950 C 850.072 -1.73771 -0.738183 0
M  V30 8951 O 849.429 -1.04113 -1.49889 0
M  V30 8952 C 849.48 -3.47292 1.00353 0
M  V30 8953 O 849.201 -3.67579 2.38363 0
M  V30 8954 C 850.702 -4.37403 0.72068 0
M  V30 8955 H 847.922 -0.619512 0.257771 0
M  V30 8956 H 850.466 -1.54778 1.33656 0
M  V30 8957 H 848.621 -3.85213 0.411018 0
M  V30 8958 H 849.035 -4.61719 2.48829 0
M  V30 8959 H 850.509 -5.43151 0.984422 0
M  V30 8960 H 850.986 -4.3784 -0.345309 0
M  V30 8961 H 851.592 -4.05119 1.29456 0
M  V30 8962 N 849.908 -0.773975 -1.37286 0
M  V30 8963 C 850.818 -0.162571 -2.34036 0
M  V30 8964 C 851.834 0.677022 -1.60289 0
M  V30 8965 O 853.01 0.596423 -1.92366 0
M  V30 8966 C 850.075 0.70457 -3.39465 0
M  V30 8967 C 849.136 -0.151738 -4.29032 0
M  V30 8968 C 848.369 0.674111 -5.29426 0
M  V30 8969 O 848.592 1.91107 -5.37433 0
M  V30 8970 O 847.526 0.0821398 -6.01844 0
M  V30 8971 H 851.352 -0.962119 -2.88057 0
M  V30 8972 H 848.937 -0.53517 -1.39486 0
M  V30 8973 H 850.819 1.19954 -4.03967 0
M  V30 8974 H 849.494 1.48227 -2.87768 0
M  V30 8975 H 848.401 -0.693118 -3.67623 0
M  V30 8976 H 849.734 -0.892575 -4.84039 0
M  V30 8977 N 851.386 1.48609 -0.524698 0
M  V30 8978 C 852.802 1.58557 -0.182199 0
M  V30 8979 C 853.002 1.52732 1.31435 0
M  V30 8980 O 852.058 1.41362 2.0922 0
M  V30 8981 C 853.371 2.90406 -0.78004 0
M  V30 8982 C 854.919 3.03924 -0.748293 0
M  V30 8983 C 855.394 4.38427 -1.32462 0
M  V30 8984 N 856.885 4.4498 -1.28635 0
M  V30 8985 C 857.62 5.47551 -1.70223 0
M  V30 8986 N 857.116 6.57103 -2.19515 0
M  V30 8987 N 858.909 5.38402 -1.61493 0
M  V30 8988 H 851.06 1.50638 -1.4974 0
M  V30 8989 H 853.323 0.714952 -0.622533 0
M  V30 8990 H 853.029 3.00308 -1.83052 0
M  V30 8991 H 852.903 3.76343 -0.254075 0
M  V30 8992 H 855.29 2.93638 0.293407 0
M  V30 8993 H 855.371 2.19611 -1.31167 0
M  V30 8994 H 855.015 4.49466 -2.36522 0
M  V30 8995 H 854.945 5.21418 -0.736967 0
M  V30 8996 H 857.436 3.66393 -0.92545 0
M  V30 8997 H 857.749 7.31499 -2.49257 0
M  V30 8998 H 856.094 6.58081 -2.23506 0
M  V30 8999 H 859.285 4.5171 -1.22785 0
M  V30 9000 H 859.458 6.18208 -1.94225 0
M  V30 9001 N 852.864 0.259585 1.55447 0
M  V30 9002 C 853.811 -0.634578 2.21905 0
M  V30 9003 C 854.781 -1.16168 1.18719 0
M  V30 9004 O 855.966 -1.21383 1.4721 0
M  V30 9005 C 853.106 -1.82005 2.93203 0
M  V30 9006 C 852.219 -1.32828 4.11073 0
M  V30 9007 C 851.354 -2.47431 4.70055 0
M  V30 9008 C 850.393 -1.95179 5.80148 0
M  V30 9009 N 849.53 -3.03197 6.33258 0
M  V30 9010 H 854.37 -0.0611886 2.97937 0
M  V30 9011 H 851.907 -0.0184378 1.47088 0
M  V30 9012 H 853.865 -2.51664 3.32748 0
M  V30 9013 H 852.495 -2.36571 2.19622 0
M  V30 9014 H 851.547 -0.525301 3.76756 0
M  V30 9015 H 852.859 -0.905435 4.90513 0
M  V30 9016 H 852.013 -3.25111 5.12238 0
M  V30 9017 H 850.752 -2.93023 3.89857 0
M  V30 9018 H 849.757 -1.15974 5.37429 0
M  V30 9019 H 850.982 -1.50541 6.62204 0
M  V30 9020 H 848.928 -3.48199 5.55961 0
M  V30 9021 H 848.845 -2.65282 7.07928 0
M  V30 9022 H 850.113 -3.80898 6.80101 0
M  V30 9023 N 854.342 -1.57594 -0.0133615 0
M  V30 9024 C 855.289 -2.07574 -1.00905 0
M  V30 9025 C 856.259 -0.968231 -1.34961 0
M  V30 9026 O 857.444 -1.23981 -1.45028 0
M  V30 9027 C 854.584 -2.5728 -2.30002 0
M  V30 9028 C 853.697 -3.81881 -2.01967 0
M  V30 9029 C 852.832 -4.20139 -3.25049 0
M  V30 9030 C 851.871 -5.37614 -2.92639 0
M  V30 9031 N 851.008 -5.71229 -4.08218 0
M  V30 9032 H 855.848 -2.92382 -0.575899 0
M  V30 9033 H 853.385 -1.4455 -0.272722 0
M  V30 9034 H 855.343 -2.84171 -3.05454 0
M  V30 9035 H 853.973 -1.75365 -2.71011 0
M  V30 9036 H 853.025 -3.61979 -1.16942 0
M  V30 9037 H 854.337 -4.67441 -1.74069 0
M  V30 9038 H 853.491 -4.48242 -4.08857 0
M  V30 9039 H 852.23 -3.33262 -3.56073 0
M  V30 9040 H 851.235 -5.09248 -2.07235 0
M  V30 9041 H 852.46 -6.26157 -2.62876 0
M  V30 9042 H 850.406 -4.8731 -4.39164 0
M  V30 9043 H 850.323 -6.51333 -3.83799 0
M  V30 9044 H 851.591 -6.03917 -4.92854 0
M  V30 9045 N 855.82 0.285905 -1.54985 0
M  V30 9046 C 856.783 1.33625 -1.86218 0
M  V30 9047 C 857.783 1.42971 -0.735936 0
M  V30 9048 O 858.973 1.42345 -1.00417 0
M  V30 9049 C 856.105 2.71926 -2.05595 0
M  V30 9050 H 857.298 1.07167 -2.80099 0
M  V30 9051 H 854.851 0.523335 -1.47278 0
M  V30 9052 H 855.586 3.03583 -1.14053 0
M  V30 9053 H 855.371 2.6653 -2.87583 0
M  V30 9054 H 856.861 3.47841 -2.31077 0
M  V30 9055 N 857.298 1.47698 0.54982 0
M  V30 9056 C 858.526 1.5833 1.33188 0
M  V30 9057 C 858.941 0.236193 1.87317 0
M  V30 9058 O 858.298 -0.77167 1.65383 0
M  V30 9059 C 858.349 2.61438 2.49664 0
M  V30 9060 O 858.07 3.9092 1.97771 0
M  V30 9061 C 859.571 2.82324 3.41772 0
M  V30 9062 H 856.791 0.53443 0.405741 0
M  V30 9063 H 859.335 1.93375 0.665309 0
M  V30 9064 H 857.49 2.29307 3.12245 0
M  V30 9065 H 857.904 4.47323 2.73866 0
M  V30 9066 H 859.378 3.58316 4.19897 0
M  V30 9067 H 859.855 1.90416 3.95776 0
M  V30 9068 H 860.461 3.15682 2.85 0
M  V30 9069 N 858.776 -0.797141 1.35954 0
M  V30 9070 C 859.739 -1.89104 1.29508 0
M  V30 9071 C 860.739 -1.59495 0.204444 0
M  V30 9072 O 861.929 -1.68051 0.458746 0
M  V30 9073 C 859.061 -3.25726 1.00576 0
M  V30 9074 H 860.254 -1.96237 2.26785 0
M  V30 9075 H 857.807 -0.994075 1.20614 0
M  V30 9076 H 858.542 -3.24279 0.0372519 0
M  V30 9077 H 858.327 -3.48604 1.79492 0
M  V30 9078 H 859.817 -4.0578 0.986508 0
M  V30 9079 N 860.254 -1.20106 -1.0204 0
M  V30 9080 C 861.501 -1.00889 -1.75578 0
M  V30 9081 C 861.829 0.459415 -1.88996 0
M  V30 9082 O 861.084 1.35735 -1.40977 0
M  V30 9083 C 861.383 -1.63308 -3.17908 0
M  V30 9084 C 861.049 -3.13091 -3.24476 0
M  V30 9085 C 859.711 -3.53968 -3.25976 0
M  V30 9086 C 862.063 -4.09093 -3.22944 0
M  V30 9087 C 859.391 -4.89381 -3.2361 0
M  V30 9088 C 861.743 -5.44447 -3.22119 0
M  V30 9089 C 860.407 -5.84742 -3.2192 0
M  V30 9090 H 859.677 -0.36918 -0.642485 0
M  V30 9091 H 862.324 -1.49475 -1.19706 0
M  V30 9092 H 860.629 -1.06974 -3.76914 0
M  V30 9093 H 862.326 -1.45958 -3.73493 0
M  V30 9094 H 858.916 -2.80526 -3.24042 0
M  V30 9095 H 863.1 -3.78549 -3.20958 0
M  V30 9096 H 858.356 -5.1987 -3.21785 0
M  V30 9097 H 862.53 -6.18584 -3.19885 0
M  V30 9098 H 860.157 -6.89642 -3.19841 0
M  V30 9099 N 861.732 1.21287 -1.00634 0
M  V30 9100 C 862.979 1.90389 -0.6898 0
M  V30 9101 C 863.307 1.78193 0.779574 0
M  V30 9102 O 862.562 1.15358 1.58085 0
M  V30 9103 C 862.861 3.41374 -1.05824 0
M  V30 9104 C 862.527 3.73766 -2.5221 0
M  V30 9105 C 861.189 3.82317 -2.92211 0
M  V30 9106 C 863.541 3.88871 -3.47028 0
M  V30 9107 C 860.869 4.03423 -4.2599 0
M  V30 9108 C 863.221 4.11484 -4.80483 0
M  V30 9109 C 861.885 4.18263 -5.20204 0
M  V30 9110 H 861.155 0.696683 -0.252416 0
M  V30 9111 H 863.802 1.43769 -1.26502 0
M  V30 9112 H 862.107 3.8974 -0.401281 0
M  V30 9113 H 863.804 3.93118 -0.79116 0
M  V30 9114 H 860.394 3.67702 -2.20212 0
M  V30 9115 H 864.578 3.8163 -3.17289 0
M  V30 9116 H 859.834 4.06902 -4.56334 0
M  V30 9117 H 864.008 4.22115 -5.53888 0
M  V30 9118 H 861.635 4.34369 -6.23881 0
M  V30 9119 N 863.21 0.781244 1.36873 0
M  V30 9120 C 864.621 0.414093 1.8205 0
M  V30 9121 C 864.972 -1.06098 1.65039 0
M  V30 9122 O 864.097 -1.82251 1.16677 0
M  V30 9123 C 864.692 0.744837 3.30511 0
M  V30 9124 C 863.251 0.430621 3.73929 0
M  V30 9125 C 862.398 0.983746 2.59264 0
M  V30 9126 H 865.349 0.975091 1.2521 0
M  V30 9127 H 865.37 0.032936 3.80486 0
M  V30 9128 H 864.882 1.81847 3.42861 0
M  V30 9129 H 862.983 -0.635308 3.67144 0
M  V30 9130 H 863.096 0.945514 4.69677 0
M  V30 9131 H 861.46 0.407433 2.5142 0
M  V30 9132 H 862.243 2.06297 2.74402 0
M  V30 9133 N 864.689 -1.48329 0.532571 0
M  V30 9134 C 865.966 -1.95492 -0.0650985 0
M  V30 9135 C 866.346 -1.47485 -1.51034 0
M  V30 9136 O 865.694 -0.702516 -2.17433 0
M  V30 9137 C 865.904 -3.48957 0.0548341 0
M  V30 9138 C 867.252 -4.24475 -0.103115 0
M  V30 9139 O 868.276 -3.56195 -0.0188343 0
M  V30 9140 O 867.135 -5.45781 -0.280164 0
M  V30 9141 H 864.229 -0.823327 -0.0778603 0
M  V30 9142 H 866.775 -1.58839 0.597353 0
M  V30 9143 H 865.547 -3.76628 1.06148 0
M  V30 9144 H 865.17 -3.92311 -0.64635 0
M  V30 9145 N 866.167 -0.267825 -1.55308 0
M  V30 9146 C 867.097 0.616585 -2.25212 0
M  V30 9147 C 868.078 1.16472 -1.23969 0
M  V30 9148 O 869.263 1.20021 -1.52672 0
M  V30 9149 C 866.393 1.80412 -2.96764 0
M  V30 9150 C 865.347 1.38784 -4.04874 0
M  V30 9151 C 864.673 2.65789 -4.63961 0
M  V30 9152 C 865.973 0.543415 -5.19465 0
M  V30 9153 H 867.667 0.0336257 -2.99381 0
M  V30 9154 H 865.213 0.0147328 -1.43992 0
M  V30 9155 H 867.166 2.42866 -3.44375 0
M  V30 9156 H 865.89 2.4128 -2.20118 0
M  V30 9157 H 864.549 0.786541 -3.58063 0
M  V30 9158 H 864.197 3.24899 -3.83992 0
M  V30 9159 H 863.897 2.38651 -5.36954 0
M  V30 9160 H 865.421 3.29104 -5.14318 0
M  V30 9161 H 866.835 1.07277 -5.63174 0
M  V30 9162 H 865.232 0.367219 -5.98975 0
M  V30 9163 H 866.302 -0.439534 -4.82904 0
M  V30 9164 N 867.645 1.57599 0.00500368 0
M  V30 9165 C 868.891 1.90631 0.691919 0
M  V30 9166 C 869.224 0.868443 1.737 0
M  V30 9167 O 868.499 -0.113482 1.94169 0
M  V30 9168 C 868.782 3.34255 1.33961 0
M  V30 9169 C 868.635 4.48755 0.306413 0
M  V30 9170 C 869.954 3.77211 2.26715 0
M  V30 9171 H 867.073 0.693279 0.250066 0
M  V30 9172 H 869.715 1.89946 -0.0452634 0
M  V30 9173 H 867.865 3.3497 1.96793 0
M  V30 9174 H 869.537 4.60176 -0.321841 0
M  V30 9175 H 867.78 4.32203 -0.371852 0
M  V30 9176 H 868.451 5.46193 0.798554 0
M  V30 9177 H 870.927 3.78017 1.73904 0
M  V30 9178 H 869.803 4.78466 2.69002 0
M  V30 9179 H 870.064 3.10801 3.14413 0
M  V30 9180 N 869.123 -0.277682 1.55134 0
M  V30 9181 C 870.071 -1.36305 1.88478 0
M  V30 9182 C 871.065 -1.51362 0.760654 0
M  V30 9183 O 872.271 -1.53202 0.944943 0
M  V30 9184 H 868.646 -0.45577 0.598146 0
M  V30 9185 H 870.617 -1.05431 2.79154 0
M  V30 9186 C 869.366 -2.71739 2.16918 0
M  V30 9187 H 868.689 -2.60942 3.02901 0
M  V30 9188 H 870.129 -3.46635 2.44172 0
M  V30 9189 C 868.588 -3.22476 0.975239 0
M  V30 9190 O 869.118 -4.01164 0.207497 0
M  V30 9191 N 867.324 -2.80097 0.774219 0
M  V30 9192 H 866.871 -2.16221 1.40022 0
M  V30 9193 H 866.829 -3.14392 -0.023021 0
M  V30 9194 N 870.601 -1.47988 -0.541979 0
M  V30 9195 C 871.534 -1.56172 -1.66389 0
M  V30 9196 C 872.512 -0.412879 -1.57271 0
M  V30 9197 O 873.696 -0.622816 -1.77914 0
M  V30 9198 C 870.823 -1.47851 -3.04726 0
M  V30 9199 C 869.869 -2.67428 -3.32242 0
M  V30 9200 S 870.702 -4.29502 -3.19825 0
M  V30 9201 C 871.858 -4.2376 -4.60628 0
M  V30 9202 H 872.091 -2.51086 -1.59195 0
M  V30 9203 H 869.624 -1.36373 -0.724005 0
M  V30 9204 H 871.582 -1.43738 -3.84512 0
M  V30 9205 H 870.243 -0.542958 -3.09372 0
M  V30 9206 H 869.436 -2.57711 -4.33129 0
M  V30 9207 H 869.038 -2.68743 -2.60103 0
M  V30 9208 H 871.33 -3.92953 -5.51901 0
M  V30 9209 H 872.273 -5.24786 -4.75401 0
M  V30 9210 H 872.681 -3.54398 -4.39389 0
M  V30 9211 N 872.079 0.78992 -1.36375 0
M  V30 9212 C 873.009 1.91683 -1.33341 0
M  V30 9213 C 873.99 1.68861 -0.204965 0
M  V30 9214 O 875.175 1.89982 -0.402531 0
M  V30 9215 C 872.305 3.28696 -1.12143 0
M  V30 9216 C 871.259 3.66041 -2.21806 0
M  V30 9217 C 870.585 5.01399 -1.85751 0
M  V30 9218 C 871.885 3.74677 -3.63888 0
M  V30 9219 H 873.579 1.94478 -2.27637 0
M  V30 9220 H 871.125 0.934271 -1.09578 0
M  V30 9221 H 873.078 4.07151 -1.08656 0
M  V30 9222 H 871.802 3.26287 -0.142974 0
M  V30 9223 H 870.461 2.89883 -2.24418 0
M  V30 9224 H 870.109 4.9551 -0.864817 0
M  V30 9225 H 869.809 5.27355 -2.59173 0
M  V30 9226 H 871.333 5.82274 -1.83819 0
M  V30 9227 H 872.747 4.43324 -3.63506 0
M  V30 9228 H 871.144 4.12118 -4.3621 0
M  V30 9229 H 872.214 2.75795 -3.9883 0
M  V30 9230 N 873.557 1.20646 1.01402 0
M  V30 9231 C 874.803 1.0197 1.753 0
M  V30 9232 C 875.136 -0.446803 1.8899 0
M  V30 9233 O 874.411 -1.33169 1.41762 0
M  V30 9234 C 874.694 1.70693 3.17074 0
M  V30 9235 C 874.547 3.24805 3.11162 0
M  V30 9236 C 875.866 1.44212 4.15802 0
M  V30 9237 H 872.985 0.371844 0.636318 0
M  V30 9238 H 875.627 1.48696 1.18277 0
M  V30 9239 H 873.777 1.30968 3.65759 0
M  V30 9240 H 875.449 3.73841 2.70261 0
M  V30 9241 H 873.692 3.55576 2.48492 0
M  V30 9242 H 874.363 3.68049 4.11393 0
M  V30 9243 H 876.839 1.7868 3.75783 0
M  V30 9244 H 875.715 1.94825 5.13161 0
M  V30 9245 H 875.976 0.370252 4.40547 0
M  V30 9246 N 875.035 -1.20752 1.01276 0
M  V30 9247 C 875.965 -2.25658 0.600064 0
M  V30 9248 C 876.946 -1.65733 -0.38298 0
M  V30 9249 O 878.131 -1.92324 -0.269256 0
M  V30 9250 C 875.261 -3.47237 -0.0663197 0
M  V30 9251 C 874.215 -4.1973 0.83731 0
M  V30 9252 C 873.541 -5.34687 0.0369102 0
M  V30 9253 C 874.841 -4.76286 2.14357 0
M  V30 9254 H 876.535 -2.60432 1.477 0
M  V30 9255 H 874.081 -1.25187 0.711634 0
M  V30 9256 H 876.034 -4.19803 -0.366563 0
M  V30 9257 H 874.758 -3.11615 -0.977944 0
M  V30 9258 H 873.417 -3.49024 1.1215 0
M  V30 9259 H 873.065 -4.95309 -0.876244 0
M  V30 9260 H 872.765 -5.84119 0.63865 0
M  V30 9261 H 874.289 -6.10059 -0.256968 0
M  V30 9262 H 875.703 -5.40691 1.90595 0
M  V30 9263 H 874.1 -5.36139 2.69583 0
M  V30 9264 H 875.17 -3.9524 2.80916 0
M  V30 9265 N 876.513 -0.788492 -1.36457 0
M  V30 9266 C 877.761 -0.359749 -1.98872 0
M  V30 9267 C 878.082 1.07197 -1.62892 0
M  V30 9268 O 877.352 1.73875 -0.902463 0
M  V30 9269 H 875.932 -0.130029 -0.735596 0
M  V30 9270 H 878.594 -1.01033 -1.66668 0
M  V30 9271 H 877.69 -0.450835 -3.08827 0
M  V30 9272 N 877.991 1.48044 -0.54043 0
M  V30 9273 C 878.938 2.29781 0.216597 0
M  V30 9274 C 879.908 1.38021 0.924094 0
M  V30 9275 O 881.093 1.66985 0.923078 0
M  V30 9276 C 878.233 3.21623 1.2511 0
M  V30 9277 C 877.346 4.28467 0.551384 0
M  V30 9278 C 876.481 5.07477 1.56972 0
M  V30 9279 C 875.52 6.06113 0.854048 0
M  V30 9280 N 874.657 6.78143 1.81842 0
M  V30 9281 H 879.497 2.94001 -0.486578 0
M  V30 9282 H 877.034 1.44929 -0.251789 0
M  V30 9283 H 878.992 3.73279 1.8633 0
M  V30 9284 H 877.622 2.59305 1.92252 0
M  V30 9285 H 876.674 3.79997 -0.174982 0
M  V30 9286 H 877.986 4.98799 -0.0100542 0
M  V30 9287 H 877.14 5.63199 2.25592 0
M  V30 9288 H 875.879 4.37008 2.16507 0
M  V30 9289 H 874.884 5.49585 0.153838 0
M  V30 9290 H 876.109 6.78584 0.264675 0
M  V30 9291 H 874.055 6.10417 2.40265 0
M  V30 9292 H 873.972 7.44587 1.3087 0
M  V30 9293 H 875.24 7.38448 2.49628 0
M  V30 9294 N 879.47 0.276058 1.55163 0
M  V30 9295 C 880.42 -0.625549 2.19251 0
M  V30 9296 C 881.404 -1.11769 1.15744 0
M  V30 9297 O 882.596 -1.0626 1.41555 0
M  V30 9298 C 879.725 -1.80879 2.91784 0
M  V30 9299 C 878.811 -1.33379 4.0258 0
M  V30 9300 N 879.202 -0.575002 5.02521 0
M  V30 9301 C 877.5 -1.61666 4.15668 0
M  V30 9302 C 878.201 -0.325164 5.8079 0
M  V30 9303 N 877.177 -0.897851 5.36134 0
M  V30 9304 H 880.979 -0.0379943 2.93875 0
M  V30 9305 H 878.493 0.079661 1.62205 0
M  V30 9306 H 880.49 -2.466 3.36146 0
M  V30 9307 H 879.15 -2.40028 2.1867 0
M  V30 9308 H 880.161 -0.222256 5.17423 0
M  V30 9309 H 876.838 -2.21745 3.53745 0
M  V30 9310 H 878.228 0.282598 6.71305 0
M  V30 9311 N 880.948 -1.576 0.00335426 0
M  V30 9312 C 881.878 -2.11668 -0.985839 0
M  V30 9313 C 882.859 -1.02661 -1.35627 0
M  V30 9314 O 884.044 -1.30361 -1.43943 0
M  V30 9315 C 881.174 -2.62273 -2.27662 0
M  V30 9316 C 880.128 -3.75837 -2.0477 0
M  V30 9317 C 879.454 -4.12769 -3.39891 0
M  V30 9318 C 880.754 -5.02975 -1.40759 0
M  V30 9319 H 882.448 -2.9457 -0.535637 0
M  V30 9320 H 879.994 -1.41702 -0.256204 0
M  V30 9321 H 881.947 -2.98727 -2.97221 0
M  V30 9322 H 880.671 -1.76498 -2.74802 0
M  V30 9323 H 879.33 -3.39782 -1.37636 0
M  V30 9324 H 878.978 -3.24013 -3.8474 0
M  V30 9325 H 878.678 -4.89281 -3.25389 0
M  V30 9326 H 880.202 -4.51784 -4.1076 0
M  V30 9327 H 881.616 -5.37179 -2.00279 0
M  V30 9328 H 880.013 -5.84315 -1.36734 0
M  V30 9329 H 881.083 -4.83431 -0.377218 0
M  V30 9330 N 882.426 0.269451 -1.5528 0
M  V30 9331 C 883.674 0.998604 -1.75705 0
M  V30 9332 C 883.995 1.86691 -0.563175 0
M  V30 9333 O 883.265 1.91305 0.421811 0
M  V30 9334 H 881.845 0.371698 -0.647958 0
M  V30 9335 H 884.507 0.292826 -1.92688 0
M  V30 9336 H 883.603 1.63348 -2.6594 0
M  V30 9337 N 883.904 1.48273 0.534124 0
M  V30 9338 C 885.153 1.55334 1.28663 0
M  V30 9339 C 885.466 0.230345 1.94239 0
M  V30 9340 O 886.672 0.179161 2.70908 0
M  V30 9341 C 885.128 2.73927 2.33435 0
M  V30 9342 C 884.736 4.12852 1.73947 0
M  V30 9343 C 886.48 2.90298 3.09722 0
M  V30 9344 C 884.387 5.22711 2.76636 0
M  V30 9345 H 883.317 0.578262 0.483869 0
M  V30 9346 H 885.968 1.74598 0.564602 0
M  V30 9347 H 884.35 2.48089 3.08655 0
M  V30 9348 H 885.524 4.48691 1.04944 0
M  V30 9349 H 883.839 4.01562 1.10167 0
M  V30 9350 H 886.436 3.69542 3.86449 0
M  V30 9351 H 886.779 1.99598 3.6533 0
M  V30 9352 H 887.312 3.16017 2.41616 0
M  V30 9353 H 884.051 6.15362 2.25852 0
M  V30 9354 H 883.571 4.91364 3.43979 0
M  V30 9355 H 885.25 5.50648 3.39699 0
M  V30 9356 N 885.382 -0.782676 1.36792 0
M  V30 9357 C 886.793 -1.35828 1.28092 0
M  V30 9358 C 887.144 -1.96052 -0.076315 0
M  V30 9359 O 886.269 -1.93042 -0.977935 0
M  V30 9360 C 886.864 -2.46949 2.31952 0
M  V30 9361 C 885.423 -3.00307 2.2692 0
M  V30 9362 C 884.57 -1.73436 2.16368 0
M  V30 9363 H 887.521 -0.583788 1.47572 0
M  V30 9364 H 887.542 -3.26144 1.95986 0
M  V30 9365 H 887.054 -2.03087 3.30722 0
M  V30 9366 H 885.155 -3.48571 1.31639 0
M  V30 9367 H 885.268 -3.56663 3.19887 0
M  V30 9368 H 883.632 -1.95934 1.62733 0
M  V30 9369 H 884.415 -1.31693 3.17036 0
M  V30 9370 N 886.86 -1.21182 -1.00761 0
M  V30 9371 C 887.807 -0.968741 -2.09485 0
M  V30 9372 C 888.777 0.104325 -1.65772 0
M  V30 9373 O 889.962 -0.0422587 -1.90753 0
M  V30 9374 C 887.102 -0.536686 -3.40901 0
M  V30 9375 C 886.215 -1.6789 -3.98041 0
M  V30 9376 C 885.35 -1.19627 -5.17555 0
M  V30 9377 C 884.389 -2.31099 -5.66798 0
M  V30 9378 N 883.526 -1.83988 -6.77564 0
M  V30 9379 H 888.366 -1.89952 -2.29613 0
M  V30 9380 H 885.903 -0.946688 -1.12589 0
M  V30 9381 H 887.861 -0.26745 -4.16342 0
M  V30 9382 H 886.491 0.357092 -3.20819 0
M  V30 9383 H 885.543 -2.06284 -3.19611 0
M  V30 9384 H 886.855 -2.51794 -4.30582 0
M  V30 9385 H 886.009 -0.883539 -6.00232 0
M  V30 9386 H 884.748 -0.327244 -4.86601 0
M  V30 9387 H 883.753 -2.63178 -4.82719 0
M  V30 9388 H 884.978 -3.18493 -5.99782 0
M  V30 9389 H 882.924 -0.994257 -6.48422 0
M  V30 9390 H 882.841 -2.61466 -7.09346 0
M  V30 9391 H 884.109 -1.55741 -7.63783 0
M  V30 9392 N 888.338 1.20213 -1.01915 0
M  V30 9393 C 889.749 1.7136 -0.741131 0
M  V30 9394 C 890.1 1.81705 0.740107 0
M  V30 9395 O 889.225 1.48139 1.57746 0
M  V30 9396 C 889.82 3.11231 -1.33869 0
M  V30 9397 C 888.379 3.59677 -1.10948 0
M  V30 9398 C 887.526 2.36809 -1.4428 0
M  V30 9399 H 890.477 1.05191 -1.1883 0
M  V30 9400 H 890.498 3.7342 -0.730585 0
M  V30 9401 H 890.01 3.03669 -2.41675 0
M  V30 9402 H 888.111 3.72568 -0.0492052 0
M  V30 9403 H 888.224 4.44351 -1.79134 0
M  V30 9404 H 886.588 2.39674 -0.861881 0
M  V30 9405 H 887.371 2.31886 -2.53148 0
M  V30 9406 N 889.816 0.795718 1.36037 0
M  V30 9407 C 891.063 0.371024 1.99072 0
M  V30 9408 C 891.391 -1.05896 1.63145 0
M  V30 9409 O 890.646 -1.7474 0.881163 0
M  V30 9410 C 890.945 0.489038 3.54038 0
M  V30 9411 C 890.611 1.88075 4.09803 0
M  V30 9412 C 889.273 2.26152 4.24745 0
M  V30 9413 C 891.625 2.79174 4.40126 0
M  V30 9414 C 888.953 3.54718 4.67324 0
M  V30 9415 C 891.305 4.07175 4.8414 0
M  V30 9416 C 889.969 4.45266 4.97287 0
M  V30 9417 H 889.239 0.135767 0.728456 0
M  V30 9418 H 891.886 1.0144 1.62426 0
M  V30 9419 H 890.191 -0.237823 3.91078 0
M  V30 9420 H 891.888 0.141374 4.00751 0
M  V30 9421 H 888.478 1.57488 3.98617 0
M  V30 9422 H 892.662 2.51009 4.28145 0
M  V30 9423 H 887.918 3.84093 4.75691 0
M  V30 9424 H 892.092 4.77875 5.06565 0
M  V30 9425 H 889.719 5.44943 5.30038 0
M  V30 9426 N 891.294 -1.47756 0.548274 0
M  V30 9427 C 892.542 -2.02089 0.0208542 0
M  V30 9428 C 892.863 -1.42589 -1.33017 0
M  V30 9429 O 892.133 -0.597825 -1.86555 0
M  V30 9430 H 890.713 -0.746985 0.00472023 0
M  V30 9431 H 893.375 -1.81262 0.716257 0
M  V30 9432 H 892.471 -3.12012 -0.0739016 0
M  V30 9433 N 892.772 -0.284283 -1.55015 0
M  V30 9434 C 894.183 0.211681 -1.85496 0
M  V30 9435 C 894.534 1.54735 -1.2063 0
M  V30 9436 O 893.659 2.10594 -0.497918 0
M  V30 9437 C 894.254 0.390864 -3.36538 0
M  V30 9438 C 892.813 0.831055 -3.67111 0
M  V30 9439 C 891.96 -0.0703581 -2.77211 0
M  V30 9440 H 894.911 -0.505803 -1.50424 0
M  V30 9441 H 894.932 1.22803 -3.60138 0
M  V30 9442 H 894.444 -0.581409 -3.8372 0
M  V30 9443 H 892.545 1.81447 -3.25434 0
M  V30 9444 H 892.658 0.662026 -4.74504 0
M  V30 9445 H 891.022 0.447528 -2.50737 0
M  V30 9446 H 891.805 -1.03868 -3.2721 0
M  V30 9447 N 894.251 1.57596 -0.0117121 0
M  V30 9448 C 895.5 1.9025 0.669921 0
M  V30 9449 C 895.813 0.887986 1.74282 0
M  V30 9450 O 897.019 1.10516 2.47989 0
M  V30 9451 C 895.475 3.37762 1.24277 0
M  V30 9452 C 895.083 4.47535 0.204076 0
M  V30 9453 C 896.827 3.79509 1.90192 0
M  V30 9454 C 894.734 5.86132 0.787577 0
M  V30 9455 H 893.664 0.709935 0.253984 0
M  V30 9456 H 896.315 1.8335 -0.0741718 0
M  V30 9457 H 894.697 3.39537 2.03791 0
M  V30 9458 H 895.871 4.57294 -0.56733 0
M  V30 9459 H 894.186 4.14881 -0.355305 0
M  V30 9460 H 896.783 4.80402 2.34773 0
M  V30 9461 H 897.126 3.13643 2.7374 0
M  V30 9462 H 897.659 3.80084 1.17394 0
M  V30 9463 H 894.398 6.55499 -0.00938418 0
M  V30 9464 H 893.918 5.80014 1.52787 0
M  V30 9465 H 895.597 6.34158 1.28265 0
M  V30 9466 N 895.729 -0.261212 1.5542 0
M  V30 9467 C 896.978 -0.989072 1.75785 0
M  V30 9468 C 897.291 -1.8702 0.572961 0
M  V30 9469 O 898.497 -2.63374 0.659289 0
M  V30 9470 C 896.953 -1.80857 3.11157 0
M  V30 9471 C 896.561 -0.975535 4.3725 0
M  V30 9472 C 898.305 -2.53003 3.40866 0
M  V30 9473 C 896.212 -1.7901 5.63657 0
M  V30 9474 H 895.142 -0.373019 0.655266 0
M  V30 9475 H 897.793 -0.244267 1.81867 0
M  V30 9476 H 896.175 -2.59479 2.99144 0
M  V30 9477 H 897.349 -0.232661 4.60212 0
M  V30 9478 H 895.664 -0.368083 4.1477 0
M  V30 9479 H 898.261 -3.14372 4.32521 0
M  V30 9480 H 898.604 -3.23891 2.61535 0
M  V30 9481 H 899.137 -1.81403 3.54031 0
M  V30 9482 H 895.876 -1.12522 6.4577 0
M  V30 9483 H 895.396 -2.50863 5.44819 0
M  V30 9484 H 897.075 -2.36082 6.0239 0
M  V30 9485 N 897.207 -1.48554 -0.526253 0
M  V30 9486 C 898.155 -1.63804 -1.65139 0
M  V30 9487 C 899.149 -0.504398 -1.61716 0
M  V30 9488 O 900.355 -0.683241 -1.66529 0
M  V30 9489 H 896.73 -0.516071 -0.546969 0
M  V30 9490 H 898.701 -2.58294 -1.49421 0
M  V30 9491 C 897.45 -1.69843 -3.03395 0
M  V30 9492 H 896.773 -2.56438 -3.06724 0
M  V30 9493 H 898.213 -1.84555 -3.81727 0
M  V30 9494 C 896.672 -0.437875 -3.34042 0
M  V30 9495 O 897.202 0.447604 -3.99198 0
M  V30 9496 N 895.408 -0.308444 -2.88958 0
M  V30 9497 H 894.955 -1.02998 -2.36112 0
M  V30 9498 H 894.913 0.533952 -3.09833 0
M  V30 9499 N 898.685 0.775411 -1.37205 0
M  V30 9500 C 899.933 1.53081 -1.3195 0
M  V30 9501 C 900.254 1.9476 0.0966864 0
M  V30 9502 O 899.524 1.66019 1.03993 0
M  V30 9503 H 898.104 0.567762 -0.485444 0
M  V30 9504 H 900.766 0.92309 -1.71654 0
M  V30 9505 H 899.862 2.4319 -1.95614 0
M  V30 9506 N 900.163 1.21714 1.00117 0
M  V30 9507 C 901.403 1.04818 1.75478 0
M  V30 9508 C 901.767 -0.410653 1.87557 0
M  V30 9509 O 902.968 -0.700241 2.59519 0
M  V30 9510 C 901.239 1.73055 3.12709 0
M  V30 9511 S 902.798 1.71464 4.03913 0
M  V30 9512 H 899.616 0.375534 0.603734 0
M  V30 9513 H 902.218 1.54522 1.19763 0
M  V30 9514 H 900.922 2.78376 3.01554 0
M  V30 9515 H 900.453 1.23546 3.73497 0
M  V30 9516 H 902.468 0.75845 4.90369 0
M  V30 9517 N 901.641 -1.19671 1.02551 0
M  V30 9518 C 902.881 -1.90971 0.728668 0
M  V30 9519 C 903.245 -1.7762 -0.729057 0
M  V30 9520 O 904.446 -2.43484 -1.13882 0
M  V30 9521 C 902.717 -3.3794 1.16323 0
M  V30 9522 S 904.276 -4.27493 0.989722 0
M  V30 9523 H 901.094 -0.659617 0.265381 0
M  V30 9524 H 903.696 -1.44698 1.31463 0
M  V30 9525 H 902.4 -3.45181 2.21986 0
M  V30 9526 H 901.931 -3.89243 0.570417 0
M  V30 9527 H 903.946 -4.96096 -0.101666 0
M  V30 9528 N 903.119 -0.802921 -1.35613 0
M  V30 9529 C 904.359 -0.387163 -2.007 0
M  V30 9530 C 904.723 1.02546 -1.62322 0
M  V30 9531 O 905.924 1.54303 -2.201 0
M  V30 9532 C 904.195 -0.560813 -3.52973 0
M  V30 9533 S 905.754 -0.234935 -4.38171 0
M  V30 9534 H 902.572 -0.147218 -0.695592 0
M  V30 9535 H 905.174 -1.04437 -1.65267 0
M  V30 9536 H 903.878 -1.58897 -3.78391 0
M  V30 9537 H 903.409 0.111845 -3.93241 0
M  V30 9538 H 905.424 0.958715 -4.8685 0
M  V30 9539 N 904.597 1.47463 -0.556102 0
M  V30 9540 C 905.527 2.32801 0.180497 0
M  V30 9541 C 906.508 1.43721 0.909848 0
M  V30 9542 O 907.693 1.72578 0.89053 0
M  V30 9543 C 904.823 3.25478 1.21167 0
M  V30 9544 C 903.777 4.2379 0.598846 0
M  V30 9545 C 903.103 5.05783 1.73457 0
M  V30 9546 C 904.403 5.20387 -0.446659 0
M  V30 9547 H 906.097 2.94636 -0.531956 0
M  V30 9548 H 903.643 1.41683 -0.257267 0
M  V30 9549 H 905.596 3.8402 1.73513 0
M  V30 9550 H 904.32 2.61695 1.95405 0
M  V30 9551 H 902.979 3.66472 0.0966897 0
M  V30 9552 H 902.627 4.38405 2.46596 0
M  V30 9553 H 902.327 5.72343 1.33031 0
M  V30 9554 H 903.851 5.67183 2.26131 0
M  V30 9555 H 905.265 5.73299 -0.00930019 0
M  V30 9556 H 903.662 5.95143 -0.769735 0
M  V30 9557 H 904.732 4.65932 -1.34295 0
M  V30 9558 N 906.075 0.2925 1.54862 0
M  V30 9559 C 906.985 -0.597036 2.26876 0
M  V30 9560 C 908.001 -1.15558 1.30086 0
M  V30 9561 O 909.177 -1.18217 1.63054 0
M  V30 9562 C 906.242 -1.75664 2.98903 0
M  V30 9563 C 905.303 -1.23303 4.11212 0
M  V30 9564 C 904.536 -2.33736 4.79795 0
M  V30 9565 O 904.759 -3.53459 4.47686 0
M  V30 9566 O 903.693 -2.00908 5.67379 0
M  V30 9567 H 907.519 -0.0131242 3.03697 0
M  V30 9568 H 905.104 0.0592642 1.49282 0
M  V30 9569 H 906.986 -2.43241 3.4411 0
M  V30 9570 H 905.661 -2.32731 2.24984 0
M  V30 9571 H 904.568 -0.523222 3.70423 0
M  V30 9572 H 905.901 -0.707887 4.87083 0
M  V30 9573 N 907.553 -1.57587 0.0200696 0
M  V30 9574 C 908.463 -2.13119 -0.980676 0
M  V30 9575 C 909.479 -1.08124 -1.36328 0
M  V30 9576 O 910.655 -1.40134 -1.44653 0
M  V30 9577 C 907.72 -2.63991 -2.24743 0
M  V30 9578 C 906.781 -3.83667 -1.9261 0
M  V30 9579 C 906.014 -4.32103 -3.13246 0
M  V30 9580 O 906.237 -3.79758 -4.25606 0
M  V30 9581 O 905.171 -5.24047 -2.96072 0
M  V30 9582 H 908.997 -2.98887 -0.538528 0
M  V30 9583 H 906.582 -1.48055 -0.19999 0
M  V30 9584 H 908.464 -2.9682 -2.99125 0
M  V30 9585 H 907.139 -1.81311 -2.68157 0
M  V30 9586 H 906.046 -3.55778 -1.15641 0
M  V30 9587 H 907.379 -4.67482 -1.54019 0
M  V30 9588 N 909.032 0.252966 -1.55557 0
M  V30 9589 C 909.979 1.3131 -1.89806 0
M  V30 9590 C 910.949 1.48121 -0.751633 0
M  V30 9591 O 912.134 1.62202 -1.00474 0
M  V30 9592 C 909.274 2.66467 -2.19293 0
M  V30 9593 C 908.387 2.57714 -3.46709 0
M  V30 9594 C 907.522 3.85184 -3.65796 0
M  V30 9595 C 906.561 3.71023 -4.86835 0
M  V30 9596 N 905.698 4.90371 -5.02474 0
M  V30 9597 H 910.538 1.01402 -2.80217 0
M  V30 9598 H 908.075 0.489462 -1.38718 0
M  V30 9599 H 910.033 3.45132 -2.34392 0
M  V30 9600 H 908.663 2.94536 -1.32093 0
M  V30 9601 H 907.715 1.70651 -3.39974 0
M  V30 9602 H 909.027 2.43158 -4.35517 0
M  V30 9603 H 908.181 4.72292 -3.80822 0
M  V30 9604 H 906.92 4.0263 -2.7521 0
M  V30 9605 H 905.925 2.82299 -4.71792 0
M  V30 9606 H 907.15 3.55078 -5.78875 0
M  V30 9607 H 905.096 5.0819 -4.14824 0
M  V30 9608 H 905.013 4.78423 -5.85361 0
M  V30 9609 H 906.281 5.78995 -5.21905 0
M  V30 9610 N 910.51 1.48831 0.518367 0
M  V30 9611 C 911.756 1.57672 1.27543 0
M  V30 9612 C 912.089 0.254915 1.9252 0
M  V30 9613 O 911.364 -0.740107 1.79868 0
M  V30 9614 C 911.647 2.72345 2.35585 0
M  V30 9615 C 911.5 4.14267 1.75224 0
M  V30 9616 C 912.819 2.82726 3.37274 0
M  V30 9617 H 909.938 0.573926 0.462361 0
M  V30 9618 H 912.58 1.8105 0.576267 0
M  V30 9619 H 910.73 2.52543 2.95219 0
M  V30 9620 H 912.402 4.45539 1.19551 0
M  V30 9621 H 910.645 4.20724 1.05706 0
M  V30 9622 H 911.316 4.90345 2.53507 0
M  V30 9623 H 913.792 3.00699 2.8761 0
M  V30 9624 H 912.668 3.6467 4.10252 0
M  V30 9625 H 912.929 1.9136 3.9854 0
M  V30 9626 N 911.988 -0.768124 1.37614 0
M  V30 9627 C 913.404 -1.06919 1.18493 0
M  V30 9628 C 913.604 -2.01486 0.0235753 0
M  V30 9629 O 912.66 -2.4438 -0.635209 0
M  V30 9630 C 913.973 -1.66321 2.50515 0
M  V30 9631 C 915.521 -1.78562 2.57069 0
M  V30 9632 C 915.996 -2.41377 3.89231 0
M  V30 9633 N 917.487 -2.48824 3.90693 0
M  V30 9634 C 918.222 -2.98288 4.89706 0
M  V30 9635 N 917.718 -3.47897 5.99115 0
M  V30 9636 N 919.511 -2.97196 4.77107 0
M  V30 9637 H 911.662 -0.140286 2.11936 0
M  V30 9638 H 913.925 -0.124863 0.939741 0
M  V30 9639 H 913.631 -1.04303 3.35878 0
M  V30 9640 H 913.505 -2.65571 2.67866 0
M  V30 9641 H 915.892 -2.39712 1.72111 0
M  V30 9642 H 915.973 -0.780574 2.43599 0
M  V30 9643 H 915.617 -1.80866 4.74605 0
M  V30 9644 H 915.547 -3.42495 4.00006 0
M  V30 9645 H 918.038 -2.1372 3.1166 0
M  V30 9646 H 918.351 -3.84053 6.70614 0
M  V30 9647 H 916.696 -3.45993 6.02755 0
M  V30 9648 H 919.887 -2.57741 3.90752 0
M  V30 9649 H 920.06 -3.35434 5.54426 0
M  V30 9650 N 913.466 -1.22244 -0.994698 0
M  V30 9651 C 914.691 -1.07299 -1.77487 0
M  V30 9652 C 915.116 0.372302 -1.84379 0
M  V30 9653 O 914.474 1.2689 -1.29494 0
M  V30 9654 C 914.522 -1.68675 -3.18718 0
M  V30 9655 O 913.626 -0.939202 -4.01563 0
M  V30 9656 H 912.967 -0.376979 -0.546611 0
M  V30 9657 H 915.497 -1.62003 -1.24965 0
M  V30 9658 H 915.507 -1.73324 -3.69354 0
M  V30 9659 H 914.182 -2.73849 -3.13017 0
M  V30 9660 H 912.759 -0.968583 -3.60101 0
M  V30 9661 N 914.944 1.19125 -1.03184 0
M  V30 9662 C 915.874 2.24675 -0.635889 0
M  V30 9663 C 916.855 1.66321 0.356565 0
M  V30 9664 O 918.04 1.92728 0.238625 0
M  V30 9665 C 915.17 3.47298 0.011069 0
M  V30 9666 C 914.124 4.18345 -0.903979 0
M  V30 9667 C 913.45 5.34561 -0.12197 0
M  V30 9668 C 914.75 4.72816 -2.21907 0
M  V30 9669 H 916.444 2.5805 -1.51825 0
M  V30 9670 H 913.99 1.24039 -0.73146 0
M  V30 9671 H 915.943 4.20333 0.299729 0
M  V30 9672 H 914.667 3.13131 0.928245 0
M  V30 9673 H 913.326 3.47196 -1.17688 0
M  V30 9674 H 912.974 4.9664 0.797334 0
M  V30 9675 H 912.674 5.83029 -0.731498 0
M  V30 9676 H 914.198 6.10391 0.159881 0
M  V30 9677 H 915.612 5.3759 -1.99173 0
M  V30 9678 H 914.009 5.31782 -2.78078 0
M  V30 9679 H 915.079 3.9072 -2.87168 0
M  V30 9680 N 916.422 0.810101 1.35185 0
M  V30 9681 C 917.352 0.237453 2.32289 0
M  V30 9682 C 918.333 -0.639032 1.5764 0
M  V30 9683 O 919.518 -0.568575 1.8569 0
M  V30 9684 C 916.648 -0.611964 3.41866 0
M  V30 9685 C 915.602 0.166318 4.27677 0
M  V30 9686 C 914.928 -0.805024 5.28605 0
M  V30 9687 C 916.228 1.36729 5.04086 0
M  V30 9688 H 917.922 1.04874 2.80432 0
M  V30 9689 H 915.468 0.505751 1.34826 0
M  V30 9690 H 917.421 -1.02267 4.08802 0
M  V30 9691 H 916.145 -1.45617 2.92341 0
M  V30 9692 H 914.804 0.558238 3.62325 0
M  V30 9693 H 914.452 -1.64483 4.75347 0
M  V30 9694 H 914.152 -0.288577 5.86891 0
M  V30 9695 H 915.676 -1.21386 5.98413 0
M  V30 9696 H 917.09 1.03128 5.63948 0
M  V30 9697 H 915.487 1.81848 5.71884 0
M  V30 9698 H 916.557 2.15214 4.34524 0
M  V30 9699 N 917.9 -1.47166 0.563914 0
M  V30 9700 C 918.81 -2.33885 -0.182977 0
M  V30 9701 C 919.826 -1.48605 -0.905132 0
M  V30 9702 O 921.002 -1.81518 -0.872527 0
M  V30 9703 C 918.067 -3.25433 -1.19558 0
M  V30 9704 C 917.128 -4.26607 -0.480129 0
M  V30 9705 C 916.361 -5.1378 -1.44449 0
M  V30 9706 O 916.584 -5.03531 -2.67979 0
M  V30 9707 O 915.518 -5.94109 -0.965321 0
M  V30 9708 H 919.344 -2.99065 0.528544 0
M  V30 9709 H 916.929 -1.45834 0.324468 0
M  V30 9710 H 918.811 -3.81964 -1.77993 0
M  V30 9711 H 917.486 -2.62873 -1.8889 0
M  V30 9712 H 916.393 -3.73817 0.145583 0
M  V30 9713 H 917.726 -4.919 0.171868 0
M  V30 9714 N 919.378 -0.300708 -1.54705 0
M  V30 9715 C 920.789 0.191995 -1.8571 0
M  V30 9716 C 921.14 1.53447 -1.22264 0
M  V30 9717 O 920.265 2.10054 -0.520226 0
M  V30 9718 C 920.86 0.355148 -3.36933 0
M  V30 9719 C 919.419 0.792071 -3.67972 0
M  V30 9720 C 918.566 -0.099756 -2.77121 0
M  V30 9721 H 921.517 -0.521729 -1.49879 0
M  V30 9722 H 921.538 1.18977 -3.61421 0
M  V30 9723 H 921.05 -0.622075 -3.83082 0
M  V30 9724 H 919.151 1.77986 -3.27341 0
M  V30 9725 H 919.264 0.611661 -4.75179 0
M  V30 9726 H 917.628 0.420909 -2.51198 0
M  V30 9727 H 918.411 -1.07333 -3.2609 0
M  V30 9728 N 920.856 1.57574 -0.0284266 0
M  V30 9729 C 921.786 2.1321 0.952039 0
M  V30 9730 C 922.767 1.04806 1.33977 0
M  V30 9731 O 923.952 1.32635 1.41851 0
M  V30 9732 C 921.082 2.65862 2.23461 0
M  V30 9733 C 920.036 3.79047 1.98765 0
M  V30 9734 C 919.362 4.18124 3.33281 0
M  V30 9735 C 920.662 5.05151 1.32739 0
M  V30 9736 H 922.356 2.95385 0.488705 0
M  V30 9737 H 919.902 1.42092 0.233628 0
M  V30 9738 H 921.855 3.03417 2.92431 0
M  V30 9739 H 920.579 1.80848 2.71959 0
M  V30 9740 H 919.238 3.41929 1.32213 0
M  V30 9741 H 918.886 3.30092 3.79537 0
M  V30 9742 H 918.586 4.94396 3.17563 0
M  V30 9743 H 920.11 4.58262 4.0352 0
M  V30 9744 H 921.524 5.40297 1.91708 0
M  V30 9745 H 919.921 5.86416 1.27421 0
M  V30 9746 H 920.991 4.83969 0.300261 0
M  V30 9747 N 922.334 -0.244713 1.55689 0
M  V30 9748 C 923.582 -0.970525 1.77272 0
M  V30 9749 C 923.903 -1.85771 0.592804 0
M  V30 9750 O 923.173 -1.91952 -0.391323 0
M  V30 9751 H 921.753 -0.361342 0.653789 0
M  V30 9752 H 924.415 -0.262134 1.93129 0
M  V30 9753 H 923.511 -1.59096 2.68505 0
M  V30 9754 N 923.813 -1.49104 -0.510467 0
M  V30 9755 C 924.743 -1.67981 -1.62187 0
M  V30 9756 C 925.724 -0.528529 -1.6168 0
M  V30 9757 O 926.909 -0.763305 -1.7857 0
M  V30 9758 C 924.039 -1.73755 -3.0071 0
M  V30 9759 C 922.993 -2.88579 -3.1608 0
M  V30 9760 C 922.319 -2.79457 -4.5586 0
M  V30 9761 C 923.619 -4.29638 -2.97 0
M  V30 9762 H 925.313 -2.61029 -1.46643 0
M  V30 9763 H 922.859 -1.25615 -0.704042 0
M  V30 9764 H 924.812 -1.85548 -3.78352 0
M  V30 9765 H 923.536 -0.772996 -3.17321 0
M  V30 9766 H 922.195 -2.76372 -2.40861 0
M  V30 9767 H 921.843 -1.80929 -4.69333 0
M  V30 9768 H 921.543 -3.56518 -4.67086 0
M  V30 9769 H 923.067 -2.93245 -5.35574 0
M  V30 9770 H 924.481 -4.42575 -3.64418 0
M  V30 9771 H 922.878 -5.07847 -3.19704 0
M  V30 9772 H 923.948 -4.44741 -1.93219 0
M  V30 9773 N 925.291 0.760815 -1.38019 0
M  V30 9774 C 926.241 1.86487 -1.31174 0
M  V30 9775 C 927.225 1.59684 -0.197414 0
M  V30 9776 O 928.417 1.71628 -0.432764 0
M  V30 9777 C 925.546 3.24103 -1.13192 0
M  V30 9778 C 924.632 3.5682 -2.29216 0
M  V30 9779 N 925.023 3.60644 -3.5464 0
M  V30 9780 C 923.321 3.87047 -2.2161 0
M  V30 9781 C 924.022 3.90423 -4.31214 0
M  V30 9782 N 922.998 4.06883 -3.60482 0
M  V30 9783 H 926.8 1.87711 -2.26146 0
M  V30 9784 H 924.314 0.957811 -1.31148 0
M  V30 9785 H 926.311 4.03101 -1.06372 0
M  V30 9786 H 924.971 3.24135 -0.191473 0
M  V30 9787 H 925.982 3.42581 -3.88405 0
M  V30 9788 H 922.659 3.94837 -1.35684 0
M  V30 9789 H 924.049 4.00065 -5.39812 0
M  V30 9790 N 926.769 1.22769 0.988202 0
M  V30 9791 C 928.009 1.06673 1.74356 0
M  V30 9792 C 928.373 -0.390737 1.87982 0
M  V30 9793 O 929.574 -0.672677 2.60247 0
M  V30 9794 C 927.845 1.76361 3.10856 0
M  V30 9795 S 929.404 1.75738 4.02071 0
M  V30 9796 H 926.222 0.381917 0.599717 0
M  V30 9797 H 928.824 1.55784 1.18117 0
M  V30 9798 H 927.528 2.81559 2.98584 0
M  V30 9799 H 927.059 1.27501 3.72165 0
M  V30 9800 H 929.074 0.810418 4.89537 0
M  V30 9801 N 928.247 -1.18576 1.03814 0
M  V30 9802 C 929.475 -1.92437 0.759966 0
M  V30 9803 C 929.89 -1.76031 -0.682526 0
M  V30 9804 O 929.247 -1.08829 -1.46501 0
M  V30 9805 C 929.298 -3.43923 1.11351 0
M  V30 9806 O 929.019 -3.5981 2.49937 0
M  V30 9807 C 930.52 -4.34888 0.859472 0
M  V30 9808 H 927.74 -0.610998 0.277349 0
M  V30 9809 H 930.284 -1.50448 1.38512 0
M  V30 9810 H 928.439 -3.83711 0.533362 0
M  V30 9811 H 928.853 -4.53569 2.63393 0
M  V30 9812 H 930.327 -5.39744 1.15672 0
M  V30 9813 H 930.804 -4.38717 -0.205839 0
M  V30 9814 H 931.41 -4.00795 1.42279 0
M  V30 9815 N 929.725 -0.817259 -1.34754 0
M  V30 9816 C 930.972 -0.402648 -1.98457 0
M  V30 9817 C 931.3 1.03287 -1.64809 0
M  V30 9818 O 930.555 1.73316 -0.908851 0
M  V30 9819 C 930.854 -0.5453 -3.53216 0
M  V30 9820 C 930.52 -1.9457 -4.06759 0
M  V30 9821 C 929.182 -2.32881 -4.21094 0
M  V30 9822 C 931.534 -2.86141 -4.35629 0
M  V30 9823 C 928.862 -3.62108 -4.61622 0
M  V30 9824 C 931.214 -4.14826 -4.776 0
M  V30 9825 C 929.878 -4.53121 -4.9014 0
M  V30 9826 H 929.148 -0.147339 -0.726204 0
M  V30 9827 H 931.795 -1.04011 -1.60791 0
M  V30 9828 H 930.1 0.175576 -3.91406 0
M  V30 9829 H 931.797 -0.205112 -4.00475 0
M  V30 9830 H 928.387 -1.6381 -3.96061 0
M  V30 9831 H 932.571 -2.57788 -4.24098 0
M  V30 9832 H 927.827 -3.91613 -4.69521 0
M  V30 9833 H 932.001 -4.85874 -4.98899 0
M  V30 9834 H 929.628 -5.53307 -5.21302 0
M  V30 9835 N 931.203 1.46865 -0.571711 0
M  V30 9836 C 932.452 2.01636 -0.050881 0
M  V30 9837 C 932.765 1.45001 1.31279 0
M  V30 9838 O 933.971 1.91523 1.92435 0
M  V30 9839 C 932.427 3.59877 -0.0404114 0
M  V30 9840 C 932.035 4.25506 -1.40172 0
M  V30 9841 C 933.779 4.22346 0.42705 0
M  V30 9842 C 931.686 5.75795 -1.34958 0
M  V30 9843 H 930.616 0.753846 -0.0152514 0
M  V30 9844 H 933.267 1.68711 -0.721723 0
M  V30 9845 H 931.649 3.89829 0.696374 0
M  V30 9846 H 932.823 4.07178 -2.15737 0
M  V30 9847 H 931.138 3.75086 -1.8083 0
M  V30 9848 H 933.735 5.32499 0.484688 0
M  V30 9849 H 934.078 3.9052 1.44222 0
M  V30 9850 H 934.611 3.9698 -0.255326 0
M  V30 9851 H 931.35 6.12265 -2.3412 0
M  V30 9852 H 930.87 5.96419 -0.635962 0
M  V30 9853 H 932.549 6.38294 -1.05779 0
M  V30 9854 N 932.681 0.308908 1.54543 0
M  V30 9855 C 933.958 -0.351558 1.92415 0
M  V30 9856 C 934.338 -1.71061 1.23699 0
M  V30 9857 O 933.686 -2.25394 0.3755 0
M  V30 9858 C 933.896 -0.458357 3.45977 0
M  V30 9859 C 935.244 -0.725524 4.18355 0
M  V30 9860 O 936.268 -0.541859 3.52054 0
M  V30 9861 O 935.127 -1.07884 5.35745 0
M  V30 9862 H 932.221 -0.197957 0.802958 0
M  V30 9863 H 934.767 0.357548 1.65891 0
M  V30 9864 H 933.539 0.496723 3.88134 0
M  V30 9865 H 933.162 -1.21562 3.78561 0
M  V30 9866 N 934.159 -1.57557 0.0367827 0
M  V30 9867 C 935.436 -1.83427 -0.679261 0
M  V30 9868 C 935.816 -0.922274 -1.89888 0
M  V30 9869 O 935.164 0.02025 -2.28491 0
M  V30 9870 C 935.374 -3.32823 -1.05022 0
M  V30 9871 C 936.722 -3.99486 -1.43861 0
M  V30 9872 O 937.746 -3.37364 -1.14297 0
M  V30 9873 O 936.605 -5.0899 -1.98977 0
M  V30 9874 H 933.699 -0.756581 -0.333936 0
M  V30 9875 H 936.245 -1.69575 0.0650494 0
M  V30 9876 H 935.017 -3.90874 -0.182509 0
M  V30 9877 H 934.64 -3.5181 -1.85244 0
M  V30 9878 N 935.637 0.236453 -1.55816 0
M  V30 9879 C 936.884 0.963012 -1.78136 0
M  V30 9880 C 937.212 1.84918 -0.602952 0
M  V30 9881 O 936.467 1.91285 0.413325 0
M  V30 9882 C 936.766 1.84549 -3.06066 0
M  V30 9883 C 936.432 1.11381 -4.36927 0
M  V30 9884 C 935.094 0.911635 -4.72486 0
M  V30 9885 C 937.446 0.596 -5.17781 0
M  V30 9886 C 934.774 0.179515 -5.86425 0
M  V30 9887 C 937.126 -0.122702 -6.32481 0
M  V30 9888 C 935.79 -0.336263 -6.66652 0
M  V30 9889 H 935.06 0.352391 -0.651845 0
M  V30 9890 H 937.707 0.232295 -1.90086 0
M  V30 9891 H 936.012 2.6436 -2.89173 0
M  V30 9892 H 937.709 2.40953 -3.20535 0
M  V30 9893 H 934.299 1.28134 -4.08998 0
M  V30 9894 H 938.483 0.73971 -4.90757 0
M  V30 9895 H 933.739 0.00368224 -6.114 0
M  V30 9896 H 937.913 -0.531516 -6.94369 0
M  V30 9897 H 935.54 -0.905507 -7.54788 0
M  V30 9898 N 937.115 1.49373 0.502552 0
M  V30 9899 C 938.343 1.62488 1.28084 0
M  V30 9900 C 938.758 0.295667 1.86471 0
M  V30 9901 O 938.115 -0.718664 1.67754 0
M  V30 9902 C 938.166 2.69249 2.4122 0
M  V30 9903 O 937.887 3.97014 1.85234 0
M  V30 9904 C 939.388 2.93054 3.32617 0
M  V30 9905 H 936.608 0.547068 0.388533 0
M  V30 9906 H 939.152 1.95394 0.603452 0
M  V30 9907 H 937.307 2.39125 3.04792 0
M  V30 9908 H 937.721 4.55809 2.59496 0
M  V30 9909 H 939.195 3.71493 4.08285 0
M  V30 9910 H 939.672 2.02911 3.89517 0
M  V30 9911 H 940.278 3.24589 2.74813 0
M  V30 9912 N 938.594 -0.753485 1.38421 0
M  V30 9913 C 940.005 -1.33081 1.30944 0
M  V30 9914 C 940.356 -1.96169 -0.0347124 0
M  V30 9915 O 939.481 -1.95073 -0.936768 0
M  V30 9916 C 940.076 -2.41973 2.37138 0
M  V30 9917 C 938.635 -2.95426 2.33239 0
M  V30 9918 C 937.782 -1.68808 2.19998 0
M  V30 9919 H 940.733 -0.552354 1.48777 0
M  V30 9920 H 940.754 -3.21913 2.02859 0
M  V30 9921 H 940.266 -1.96027 3.34956 0
M  V30 9922 H 938.367 -3.45701 1.39003 0
M  V30 9923 H 938.48 -3.49798 3.27381 0
M  V30 9924 H 936.844 -1.92438 1.66852 0
M  V30 9925 H 937.627 -1.24939 3.19758 0
M  V30 9926 N 940.072 -1.23292 -0.981677 0
M  V30 9927 C 941.302 -1.0893 -1.7555 0
M  V30 9928 C 941.71 0.362219 -1.857 0
M  V30 9929 O 941.053 1.2624 -1.33451 0
M  V30 9930 C 941.115 -1.6389 -3.19969 0
M  V30 9931 C 940.779 -3.12632 -3.33332 0
M  V30 9932 C 941.776 -4.0994 -3.19758 0
M  V30 9933 C 939.461 -3.52314 -3.58022 0
M  V30 9934 C 941.455 -5.44915 -3.30676 0
M  V30 9935 C 939.142 -4.87434 -3.6858 0
M  V30 9936 C 940.14 -5.83544 -3.54916 0
M  V30 9937 O 939.828 -7.16209 -3.65102 0
M  V30 9938 H 939.56 -0.381901 -0.557788 0
M  V30 9939 H 942.114 -1.63586 -1.24213 0
M  V30 9940 H 940.344 -1.03653 -3.72549 0
M  V30 9941 H 942.033 -1.45023 -3.79108 0
M  V30 9942 H 942.799 -3.80625 -3.00582 0
M  V30 9943 H 938.678 -2.78022 -3.67729 0
M  V30 9944 H 942.222 -6.19913 -3.19928 0
M  V30 9945 H 938.119 -5.16426 -3.87265 0
M  V30 9946 H 938.887 -7.23941 -3.81905 0
M  V30 9947 N 941.55 1.18024 -1.04442 0
M  V30 9948 C 942.5 2.19714 -0.609069 0
M  V30 9949 C 943.484 1.57037 0.350473 0
M  V30 9950 O 944.676 1.76192 0.16892 0
M  V30 9951 C 941.805 3.43293 0.0225911 0
M  V30 9952 C 940.891 4.13084 -0.960325 0
M  V30 9953 N 941.282 4.58819 -2.12883 0
M  V30 9954 C 939.58 4.38999 -0.787146 0
M  V30 9955 C 940.281 5.12589 -2.75004 0
M  V30 9956 N 939.257 5.04333 -2.02853 0
M  V30 9957 H 943.059 2.5277 -1.49948 0
M  V30 9958 H 940.573 1.34271 -0.913517 0
M  V30 9959 H 942.57 4.1541 0.352196 0
M  V30 9960 H 941.23 3.11731 0.908495 0
M  V30 9961 H 942.241 4.53148 -2.50754 0
M  V30 9962 H 938.918 4.17472 0.048348 0
M  V30 9963 H 940.308 5.58152 -3.74053 0
M  V30 9964 N 943.028 0.824394 1.34319 0
M  V30 9965 C 943.961 0.192544 2.27386 0
M  V30 9966 C 944.939 -0.651901 1.4896 0
M  V30 9967 O 946.123 -0.615321 1.78174 0
M  V30 9968 C 943.25 -0.730958 3.30718 0
M  V30 9969 C 942.296 0.0361484 4.26485 0
M  V30 9970 S 943.129 1.3843 5.17298 0
M  V30 9971 C 944.285 0.465713 6.24165 0
M  V30 9972 H 944.518 0.981573 2.80629 0
M  V30 9973 H 942.051 0.620371 1.41389 0
M  V30 9974 H 944.009 -1.25822 3.90742 0
M  V30 9975 H 942.67 -1.49352 2.7632 0
M  V30 9976 H 941.863 -0.665969 4.99581 0
M  V30 9977 H 941.465 0.494011 3.70723 0
M  V30 9978 H 943.757 -0.342157 6.76635 0
M  V30 9979 H 944.7 1.16639 6.98427 0
M  V30 9980 H 945.108 0.0534895 5.64475 0
M  V30 9981 N 944.506 -1.46559 0.579492 0
M  V30 9982 C 945.436 -2.33059 -0.143437 0
M  V30 9983 C 946.417 -1.4515 -0.886868 0
M  V30 9984 O 947.602 -1.73973 -0.862961 0
M  V30 9985 C 944.732 -3.27364 -1.15973 0
M  V30 9986 C 943.686 -4.24689 -0.531348 0
M  V30 9987 C 943.012 -5.08479 -1.65388 0
M  V30 9988 C 944.312 -5.1961 0.529391 0
M  V30 9989 H 946.006 -2.93753 0.578762 0
M  V30 9990 H 943.552 -1.41256 0.279775 0
M  V30 9991 H 945.505 -3.86732 -1.67382 0
M  V30 9992 H 944.229 -2.64771 -1.91217 0
M  V30 9993 H 942.888 -3.6658 -0.0383749 0
M  V30 9994 H 942.536 -4.42273 -2.3959 0
M  V30 9995 H 942.236 -5.74387 -1.23909 0
M  V30 9996 H 943.76 -5.70709 -2.17079 0
M  V30 9997 H 945.174 -5.73212 0.100506 0
M  V30 9998 H 943.571 -5.93843 0.86432 0
M  V30 9999 H 944.641 -4.63737 1.4169 0
M  V30 10000 N 945.984 -0.3171 -1.54377 0
M  V30 10001 C 946.934 0.567199 -2.20832 0
M  V30 10002 C 947.918 1.08661 -1.18666 0
M  V30 10003 O 949.11 1.0247 -1.44322 0
M  V30 10004 C 946.239 1.73079 -2.96477 0
M  V30 10005 C 945.325 1.22658 -4.05975 0
M  V30 10006 N 945.716 0.441565 -5.03869 0
M  V30 10007 C 944.014 1.50589 -4.19808 0
M  V30 10008 C 944.715 0.171063 -5.81448 0
M  V30 10009 N 943.691 0.755389 -5.38326 0
M  V30 10010 H 947.493 -0.0399349 -2.93873 0
M  V30 10011 H 945.007 -0.122639 -1.61936 0
M  V30 10012 H 947.004 2.37601 -3.42566 0
M  V30 10013 H 945.664 2.34146 -2.24957 0
M  V30 10014 H 946.675 0.0849921 -5.1783 0
M  V30 10015 H 943.352 2.12288 -3.595 0
M  V30 10016 H 944.742 -0.460484 -6.7032 0
M  V30 10017 N 947.462 1.57535 -0.0451378 0
M  V30 10018 C 948.71 1.92071 0.628743 0
M  V30 10019 C 949.031 0.923635 1.71738 0
M  V30 10020 O 948.301 -0.0324376 1.95873 0
M  V30 10021 H 946.881 0.708995 0.235233 0
M  V30 10022 H 949.543 1.9466 -0.0967177 0
M  V30 10023 H 948.639 2.9314 1.07123 0
M  V30 10024 N 948.94 -0.228186 1.55939 0
M  V30 10025 C 949.85 -1.30386 1.9503 0
M  V30 10026 C 950.866 -1.51645 0.853218 0
M  V30 10027 O 952.042 -1.64904 1.15623 0
M  V30 10028 C 949.107 -2.63489 2.25332 0
M  V30 10029 C 948.168 -2.5059 3.48573 0
M  V30 10030 C 947.401 -3.77345 3.7742 0
M  V30 10031 O 947.624 -4.80067 3.08045 0
M  V30 10032 O 946.558 -3.74855 4.70922 0
M  V30 10033 H 950.384 -1.0022 2.86687 0
M  V30 10034 H 947.969 -0.430503 1.43063 0
M  V30 10035 H 949.851 -3.4211 2.46046 0
M  V30 10036 H 948.526 -2.93349 1.3685 0
M  V30 10037 H 947.433 -1.70191 3.33145 0
M  V30 10038 H 948.766 -2.2567 4.37417 0
M  V30 10039 N 950.418 -1.49637 -0.494624 0
M  V30 10040 C 951.664 -1.59681 -1.25019 0
M  V30 10041 C 951.997 -0.285511 -1.9209 0
M  V30 10042 O 951.272 0.711398 -1.81023 0
M  V30 10043 C 951.555 -2.76058 -2.31222 0
M  V30 10044 C 951.408 -4.17002 -1.68611 0
M  V30 10045 C 952.727 -2.88056 -3.32734 0
M  V30 10046 H 949.846 -0.581209 -0.453172 0
M  V30 10047 H 952.488 -1.81944 -0.547391 0
M  V30 10048 H 950.638 -2.57207 -2.91164 0
M  V30 10049 H 952.31 -4.47385 -1.12447 0
M  V30 10050 H 950.553 -4.22352 -0.989991 0
M  V30 10051 H 951.224 -4.94316 -2.45674 0
M  V30 10052 H 953.7 -3.05237 -2.82789 0
M  V30 10053 H 952.576 -3.71151 -4.04399 0
M  V30 10054 H 952.837 -1.97676 -3.95445 0
M  V30 10055 N 951.896 0.746133 -1.38819 0
M  V30 10056 C 952.846 1.85085 -1.33145 0
M  V30 10057 C 953.83 1.59466 -0.214339 0
M  V30 10058 O 955.022 1.71159 -0.450943 0
M  V30 10059 C 952.151 3.22884 -1.16623 0
M  V30 10060 C 951.237 3.54369 -2.32988 0
M  V30 10061 N 951.628 3.56863 -3.58445 0
M  V30 10062 C 949.926 3.84674 -2.25703 0
M  V30 10063 C 950.627 3.85827 -4.3533 0
M  V30 10064 N 949.603 4.03037 -3.64777 0
M  V30 10065 H 953.405 1.85301 -2.28124 0
M  V30 10066 H 950.919 0.943847 -1.32156 0
M  V30 10067 H 952.916 4.0195 -1.10642 0
M  V30 10068 H 951.576 3.23914 -0.225841 0
M  V30 10069 H 952.587 3.38443 -3.92017 0
M  V30 10070 H 949.264 3.93375 -1.39864 0
M  V30 10071 H 950.654 3.94317 -5.44025 0
M  V30 10072 N 953.375 1.23811 0.975125 0
M  V30 10073 C 954.615 1.08517 1.73215 0
M  V30 10074 C 954.979 -0.370777 1.88386 0
M  V30 10075 O 956.18 -0.645036 2.60946 0
M  V30 10076 C 954.451 1.79649 3.08968 0
M  V30 10077 S 956.01 1.79993 4.00185 0
M  V30 10078 H 952.828 0.388256 0.595633 0
M  V30 10079 H 955.43 1.57028 1.16458 0
M  V30 10080 H 954.134 2.8471 2.95581 0
M  V30 10081 H 953.665 1.31441 3.70792 0
M  V30 10082 H 955.68 0.862294 4.8865 0
M  V30 10083 N 954.853 -1.17469 1.05066 0
M  V30 10084 C 956.101 -1.87327 0.758485 0
M  V30 10085 C 956.422 -1.81358 -0.716549 0
M  V30 10086 O 955.692 -1.23868 -1.51768 0
M  V30 10087 H 954.272 -0.693512 0.277579 0
M  V30 10088 H 956.934 -1.4251 1.32954 0
M  V30 10089 H 956.03 -2.93101 1.0723 0
M  V30 10090 N 956.331 -0.831506 -1.3388 0
M  V30 10091 C 957.559 -0.436925 -2.02234 0
M  V30 10092 C 957.974 0.959689 -1.6259 0
M  V30 10093 O 957.331 1.62248 -0.835576 0
M  V30 10094 C 957.382 -0.539429 -3.57453 0
M  V30 10095 O 957.103 -1.88101 -3.95664 0
M  V30 10096 C 958.604 -0.140852 -4.43076 0
M  V30 10097 H 955.824 -0.174302 -0.647966 0
M  V30 10098 H 958.368 -1.12204 -1.70969 0
M  V30 10099 H 956.523 0.0976959 -3.87277 0
M  V30 10100 H 956.937 -1.86131 -4.90363 0
M  V30 10101 H 958.411 -0.26364 -5.5137 0
M  V30 10102 H 958.888 0.916505 -4.29531 0
M  V30 10103 H 959.494 -0.752117 -4.18597 0
M  V30 10104 N 957.809 1.4625 -0.587256 0
M  V30 10105 C 958.757 2.32076 0.156108 0
M  V30 10106 C 959.751 1.44756 0.879887 0
M  V30 10107 O 960.957 1.61356 0.797759 0
M  V30 10108 H 957.332 0.748808 0.0692098 0
M  V30 10109 H 959.303 2.9258 -0.586497 0
M  V30 10110 C 958.052 3.28008 1.15352 0
M  V30 10111 H 957.375 3.9518 0.60601 0
M  V30 10112 H 958.815 3.90832 1.64396 0
M  V30 10113 C 957.274 2.53691 2.21681 0
M  V30 10114 O 957.804 2.30329 3.29107 0
M  V30 10115 N 956.01 2.14174 1.96412 0
M  V30 10116 H 955.557 2.33374 1.09061 0
M  V30 10117 H 955.515 1.6477 2.67765 0
M  V30 10118 N 959.287 0.325282 1.54207 0
M  V30 10119 C 960.533 -0.277185 2.00897 0
M  V30 10120 C 960.866 -1.51651 1.21308 0
M  V30 10121 O 960.141 -1.92237 0.295825 0
M  V30 10122 C 960.424 -0.60961 3.54902 0
M  V30 10123 C 960.277 0.640542 4.45216 0
M  V30 10124 C 961.596 -1.42656 4.16338 0
M  V30 10125 H 958.715 -0.0992722 0.730284 0
M  V30 10126 H 961.357 0.442201 1.84783 0
M  V30 10127 H 959.507 -1.22249 3.68765 0
M  V30 10128 H 961.179 1.27878 4.43221 0
M  V30 10129 H 959.422 1.26908 4.14821 0
M  V30 10130 H 960.093 0.363459 5.50802 0
M  V30 10131 H 962.569 -0.908494 4.06061 0
M  V30 10132 H 961.445 -1.62792 5.24204 0
M  V30 10133 H 961.706 -2.42321 3.69774 0
M  V30 10134 N 960.765 -1.57509 0.0534917 0
M  V30 10135 C 962.005 -1.94654 -0.623641 0
M  V30 10136 C 962.369 -0.93184 -1.67871 0
M  V30 10137 O 963.57 -1.19031 -2.41009 0
M  V30 10138 C 961.841 -3.36575 -1.20216 0
M  V30 10139 S 963.4 -3.95677 -1.89697 0
M  V30 10140 H 960.218 -0.680893 -0.20471 0
M  V30 10141 H 962.82 -1.95113 0.122982 0
M  V30 10142 H 961.524 -4.08223 -0.422177 0
M  V30 10143 H 961.055 -3.39617 -1.98555 0
M  V30 10144 H 963.07 -3.81092 -3.17779 0
M  V30 10145 N 962.243 0.219913 -1.56058 0
M  V30 10146 C 963.659 0.569685 -1.49086 0
M  V30 10147 C 963.859 1.87066 -0.748903 0
M  V30 10148 O 962.915 2.50838 -0.289235 0
M  V30 10149 C 964.228 0.647397 -2.93648 0
M  V30 10150 C 965.776 0.737914 -3.04177 0
M  V30 10151 C 966.251 0.846957 -4.50101 0
M  V30 10152 N 967.742 0.911136 -4.5415 0
M  V30 10153 C 968.477 1.01525 -5.64341 0
M  V30 10154 N 967.973 1.0832 -6.8428 0
M  V30 10155 N 969.766 1.05051 -5.52196 0
M  V30 10156 H 961.917 -0.633778 -2.02724 0
M  V30 10157 H 964.18 -0.222583 -0.921499 0
M  V30 10158 H 963.886 -0.238987 -3.50887 0
M  V30 10159 H 963.76 1.51046 -3.45637 0
M  V30 10160 H 966.147 1.61474 -2.47002 0
M  V30 10161 H 966.228 -0.150845 -2.55355 0
M  V30 10162 H 965.872 -0.0254166 -5.07894 0
M  V30 10163 H 965.802 1.75116 -4.96631 0
M  V30 10164 H 968.293 0.868869 -3.67776 0
M  V30 10165 H 968.606 1.16247 -7.64007 0
M  V30 10166 H 966.951 1.05231 -6.86987 0
M  V30 10167 H 970.142 0.994086 -4.57423 0
M  V30 10168 H 970.315 1.12819 -6.38103 0
M  V30 10169 N 963.721 1.49897 0.486681 0
M  V30 10170 C 964.668 1.67619 1.58658 0
M  V30 10171 C 965.638 0.517537 1.57831 0
M  V30 10172 O 966.823 0.746272 1.756 0
M  V30 10173 C 963.963 1.762 2.96728 0
M  V30 10174 C 963.076 3.03465 3.07462 0
M  V30 10175 C 962.211 3.02937 4.36351 0
M  V30 10176 C 961.25 4.24721 4.4077 0
M  V30 10177 N 960.387 4.22021 5.61108 0
M  V30 10178 H 965.227 2.61528 1.42853 0
M  V30 10179 H 962.764 1.29657 0.694807 0
M  V30 10180 H 964.722 1.79156 3.76774 0
M  V30 10181 H 963.352 0.857452 3.11203 0
M  V30 10182 H 962.404 3.10054 2.20387 0
M  V30 10183 H 963.716 3.93454 3.06586 0
M  V30 10184 H 962.87 3.04536 5.24731 0
M  V30 10185 H 961.609 2.10751 4.39813 0
M  V30 10186 H 960.614 4.23352 3.5079 0
M  V30 10187 H 961.839 5.18116 4.39013 0
M  V30 10188 H 959.785 3.3268 5.65385 0
M  V30 10189 H 959.702 5.05761 5.61909 0
M  V30 10190 H 960.97 4.27743 6.51656 0
M  V30 10191 N 965.199 -0.738761 1.39212 0
M  V30 10192 C 966.61 -1.31684 1.32348 0
M  V30 10193 C 966.961 -1.96195 -0.0139041 0
M  V30 10194 O 966.086 -1.96056 -0.916025 0
M  V30 10195 C 966.681 -2.39444 2.39691 0
M  V30 10196 C 965.24 -2.92935 2.36359 0
M  V30 10197 C 964.387 -1.66465 2.21776 0
M  V30 10198 H 967.338 -0.536543 1.49355 0
M  V30 10199 H 967.359 -3.19744 2.06262 0
M  V30 10200 H 966.871 -1.92463 3.37016 0
M  V30 10201 H 964.972 -3.44207 1.42662 0
M  V30 10202 H 965.085 -3.46306 3.31073 0
M  V30 10203 H 963.449 -1.90657 1.68884 0
M  V30 10204 H 964.232 -1.21541 3.21065 0
M  V30 10205 N 966.677 -1.24326 -0.968545 0
M  V30 10206 C 967.924 -1.08245 -1.71141 0
M  V30 10207 C 968.252 0.378842 -1.90775 0
M  V30 10208 O 967.507 1.29634 -1.46607 0
M  V30 10209 C 967.806 -1.76644 -3.10695 0
M  V30 10210 C 967.472 -3.26572 -3.10905 0
M  V30 10211 C 966.134 -3.67475 -3.10669 0
M  V30 10212 C 968.486 -4.22422 -3.05302 0
M  V30 10213 C 965.814 -5.02666 -3.02562 0
M  V30 10214 C 968.166 -5.57619 -2.98737 0
M  V30 10215 C 966.83 -5.9787 -2.9683 0
M  V30 10216 H 966.1 -0.396098 -0.626249 0
M  V30 10217 H 968.747 -1.54418 -1.13258 0
M  V30 10218 H 967.052 -1.22864 -3.72037 0
M  V30 10219 H 968.749 -1.61668 -3.66967 0
M  V30 10220 H 965.339 -2.94017 -3.11852 0
M  V30 10221 H 969.523 -3.91821 -3.04614 0
M  V30 10222 H 964.779 -5.3305 -2.99446 0
M  V30 10223 H 968.953 -6.31595 -2.93361 0
M  V30 10224 H 966.58 -7.02587 -2.90303 0
M  V30 10225 N 968.156 1.1691 -1.05688 0
M  V30 10226 C 969.381 1.91745 -0.790478 0
M  V30 10227 C 969.806 1.76568 0.648478 0
M  V30 10228 O 969.164 1.08682 1.45114 0
M  V30 10229 C 969.212 3.4067 -1.18222 0
M  V30 10230 O 968.316 4.11177 -0.317341 0
M  V30 10231 H 967.657 0.5976 -0.28943 0
M  V30 10232 H 970.187 1.48157 -1.41105 0
M  V30 10233 H 970.197 3.91424 -1.15114 0
M  V30 10234 H 968.872 3.51036 -2.2304 0
M  V30 10235 H 967.449 3.70645 -0.409459 0
M  V30 10236 N 969.634 0.838594 1.33437 0
M  V30 10237 C 970.881 0.434169 1.97791 0
M  V30 10238 C 971.209 -1.00652 1.66431 0
M  V30 10239 O 970.464 -1.71848 0.936309 0
M  V30 10240 C 970.763 0.601425 3.52303 0
M  V30 10241 C 970.429 2.01017 4.03612 0
M  V30 10242 C 969.091 2.39551 4.17336 0
M  V30 10243 C 971.443 2.93035 4.31022 0
M  V30 10244 C 968.771 3.69406 4.55802 0
M  V30 10245 C 971.123 4.22372 4.7094 0
M  V30 10246 C 969.787 4.60862 4.82869 0
M  V30 10247 H 969.057 0.158874 0.723768 0
M  V30 10248 H 971.704 1.06556 1.59116 0
M  V30 10249 H 970.009 -0.113284 3.91636 0
M  V30 10250 H 971.706 0.268798 4.00098 0
M  V30 10251 H 968.296 1.7009 3.93405 0
M  V30 10252 H 972.48 2.64503 4.19943 0
M  V30 10253 H 967.736 3.99033 4.63231 0
M  V30 10254 H 971.91 4.93749 4.91106 0
M  V30 10255 H 969.537 5.6153 5.12433 0
M  V30 10256 N 971.112 -1.45937 0.595003 0
M  V30 10257 C 972.059 -2.30427 -0.131165 0
M  V30 10258 C 973.029 -1.41355 -0.872232 0
M  V30 10259 O 974.214 -1.70296 -0.860467 0
M  V30 10260 C 971.354 -3.26045 -1.13087 0
M  V30 10261 C 970.467 -4.30218 -0.391982 0
M  V30 10262 C 969.602 -5.12953 -1.3803 0
M  V30 10263 C 968.641 -6.08865 -0.628505 0
M  V30 10264 N 967.778 -6.84425 -1.56548 0
M  V30 10265 H 972.618 -2.91992 0.595359 0
M  V30 10266 H 970.155 -1.43895 0.305405 0
M  V30 10267 H 972.113 -3.79937 -1.72348 0
M  V30 10268 H 970.743 -2.66261 -1.82496 0
M  V30 10269 H 969.795 -3.79086 0.315895 0
M  V30 10270 H 971.107 -4.98418 0.195173 0
M  V30 10271 H 970.261 -5.71184 -2.04534 0
M  V30 10272 H 969 -4.44743 -2.00138 0
M  V30 10273 H 968.005 -5.49777 0.0502431 0
M  V30 10274 H 969.23 -6.79099 -0.012641 0
M  V30 10275 H 967.176 -6.18913 -2.17444 0
M  V30 10276 H 967.093 -7.48931 -1.03145 0
M  V30 10277 H 968.361 -7.47204 -2.22049 0
M  V30 10278 N 972.59 -0.333456 -1.54032 0
M  V30 10279 C 973.836 0.259248 -2.01741 0
M  V30 10280 C 974.191 1.48999 -1.21725 0
M  V30 10281 O 973.484 1.89333 -0.293882 0
M  V30 10282 C 973.678 0.63565 -3.51702 0
M  V30 10283 C 973.507 -0.55707 -4.46236 0
M  V30 10284 C 972.277 -1.05925 -4.94073 0
M  V30 10285 C 974.475 -1.41237 -4.94527 0
M  V30 10286 N 972.457 -2.21535 -5.72534 0
M  V30 10287 C 973.828 -2.41551 -5.71011 0
M  V30 10288 C 975.883 -1.43899 -4.76652 0
M  V30 10289 C 974.586 -3.44342 -6.31523 0
M  V30 10290 C 976.612 -2.45567 -5.38006 0
M  V30 10291 C 975.974 -3.44606 -6.1435 0
M  V30 10292 H 972.073 0.0584431 -0.779813 0
M  V30 10293 H 974.657 -0.470736 -1.88924 0
M  V30 10294 H 972.828 1.33475 -3.64745 0
M  V30 10295 H 974.56 1.21067 -3.86167 0
M  V30 10296 H 971.315 -0.628947 -4.69405 0
M  V30 10297 H 971.739 -2.79878 -6.16439 0
M  V30 10298 H 976.381 -0.686929 -4.17182 0
M  V30 10299 H 974.099 -4.20449 -6.90107 0
M  V30 10300 H 977.685 -2.4844 -5.26088 0
M  V30 10301 H 976.565 -4.21987 -6.60982 0
M  V30 10302 N 974.068 1.57479 -0.061844 0
M  V30 10303 C 975.314 1.9421 0.604485 0
M  V30 10304 C 975.669 0.941011 1.67818 0
M  V30 10305 O 974.962 -0.0382264 1.91562 0
M  V30 10306 C 975.156 3.35394 1.23474 0
M  V30 10307 C 974.985 4.49144 0.223628 0
M  V30 10308 C 973.755 5.04949 -0.188187 0
M  V30 10309 C 975.953 5.11508 -0.535193 0
M  V30 10310 N 973.935 6.02235 -1.19105 0
M  V30 10311 C 975.306 6.04199 -1.39082 0
M  V30 10312 C 977.361 4.94364 -0.592346 0
M  V30 10313 C 976.064 6.81587 -2.2985 0
M  V30 10314 C 978.09 5.72388 -1.48749 0
M  V30 10315 C 977.452 6.6472 -2.33082 0
M  V30 10316 H 973.551 0.757931 0.192522 0
M  V30 10317 H 976.135 1.9422 -0.136667 0
M  V30 10318 H 974.306 3.36141 1.94587 0
M  V30 10319 H 976.038 3.59387 1.86073 0
M  V30 10320 H 972.793 4.73207 0.192933 0
M  V30 10321 H 973.217 6.55575 -1.68969 0
M  V30 10322 H 977.859 4.22776 0.045445 0
M  V30 10323 H 975.577 7.5246 -2.94669 0
M  V30 10324 H 979.163 5.61146 -1.53642 0
M  V30 10325 H 978.043 7.2404 -3.01225 0
M  V30 10326 N 975.546 -0.211634 1.56173 0
M  V30 10327 C 976.494 -1.28188 1.94089 0
M  V30 10328 C 977.488 -1.47999 0.824167 0
M  V30 10329 O 978.694 -1.49056 1.00907 0
M  V30 10330 H 975.069 -0.42999 0.616938 0
M  V30 10331 H 977.04 -0.934962 2.83374 0
M  V30 10332 C 975.789 -2.62294 2.28248 0
M  V30 10333 H 975.112 -2.4786 3.13696 0
M  V30 10334 H 976.552 -3.35967 2.58655 0
M  V30 10335 C 975.011 -3.18049 1.11113 0
M  V30 10336 O 975.541 -3.99923 0.377458 0
M  V30 10337 N 973.747 -2.76561 0.892321 0
M  V30 10338 H 973.294 -2.10088 1.49067 0
M  V30 10339 H 973.252 -3.14206 0.110344 0
M  V30 10340 N 977.024 -1.50153 -0.478725 0
M  V30 10341 C 977.957 -1.63089 -1.59616 0
M  V30 10342 C 978.935 -0.479211 -1.55378 0
M  V30 10343 O 980.119 -0.697715 -1.75112 0
M  V30 10344 C 977.246 -1.60643 -2.9818 0
M  V30 10345 C 976.292 -2.81279 -3.206 0
M  V30 10346 S 977.125 -4.42681 -3.0132 0
M  V30 10347 C 978.281 -4.42915 -4.42241 0
M  V30 10348 H 978.514 -2.57612 -1.48402 0
M  V30 10349 H 976.047 -1.39321 -0.665513 0
M  V30 10350 H 978.005 -1.59917 -3.7807 0
M  V30 10351 H 976.666 -0.673684 -3.0679 0
M  V30 10352 H 975.859 -2.7585 -4.21809 0
M  V30 10353 H 975.461 -2.79533 -2.4847 0
M  V30 10354 H 977.753 -4.16007 -5.34737 0
M  V30 10355 H 978.696 -5.44477 -4.52715 0
M  V30 10356 H 979.104 -3.72715 -4.23962 0
M  V30 10357 N 978.502 0.731368 -1.39602 0
M  V30 10358 C 979.748 1.49321 -1.37227 0
M  V30 10359 C 980.081 1.94176 0.0306502 0
M  V30 10360 O 979.356 1.67046 0.996294 0
M  V30 10361 C 979.639 2.73035 -2.34784 0
M  V30 10362 C 979.492 2.34176 -3.84033 0
M  V30 10363 C 980.811 3.75146 -2.30116 0
M  V30 10364 H 977.93 0.541652 -0.499783 0
M  V30 10365 H 980.572 0.835968 -1.70621 0
M  V30 10366 H 978.722 3.29114 -2.06437 0
M  V30 10367 H 980.394 1.83701 -4.23145 0
M  V30 10368 H 978.637 1.66361 -4.00633 0
M  V30 10369 H 979.308 3.22786 -4.47787 0
M  V30 10370 H 981.784 3.28661 -2.55189 0
M  V30 10371 H 980.66 4.5937 -3.00451 0
M  V30 10372 H 980.921 4.22326 -1.30741 0
M  V30 10373 N 979.98 1.24838 0.961938 0
M  V30 10374 C 981.391 1.08369 1.5203 0
M  V30 10375 C 981.742 -0.343005 1.93178 0
M  V30 10376 O 980.867 -1.2321 1.779 0
M  V30 10377 C 981.462 1.96102 2.76278 0
M  V30 10378 C 980.021 1.8384 3.28451 0
M  V30 10379 C 979.168 1.9069 2.01327 0
M  V30 10380 H 982.119 1.38231 0.779613 0
M  V30 10381 H 982.14 1.4967 3.49827 0
M  V30 10382 H 981.652 2.99931 2.46298 0
M  V30 10383 H 979.753 0.828653 3.63269 0
M  V30 10384 H 979.866 2.68251 3.96961 0
M  V30 10385 H 978.23 1.34488 2.16299 0
M  V30 10386 H 979.013 2.96111 1.73705 0
M  V30 10387 O 981.497 -1.0946 1.18747 0
M  V30 10388 H 982.188 -1.69795 0.932163 0
M  V30 END ATOM
M  V30 BEGIN BOND
M  V30 END BOND
M  V30 END CTAB
M  END
$$$$
