drugbank_target|Q8ILK3 60S ribosomal protein L21 (DB11638)
 OpenBabel12092121123D

  0  0  0     0  0            999 V3000
M  V30 BEGIN CTAB
M  V30 COUNTS 2716 2742 0 0 0
M  V30 BEGIN ATOM
M  V30 1 H -0.908 1.98254 -0.117106 0
M  V30 2 N 0 1.576 0 0
M  V30 3 C 0.933 2.03868 1.02534 0
M  V30 4 C 1.911 0.928543 1.3348 0
M  V30 5 O 3.095 1.19667 1.45644 0
M  V30 6 C 0.222 2.43627 2.35294 0
M  V30 7 C -0.732 3.65373 2.2001 0
M  V30 8 S 0.101 5.13292 1.52614 0
M  V30 9 C 1.257 5.56322 2.86805 0
M  V30 10 H 1.49 2.90518 0.631377 0
M  V30 11 H -0.977 1.52953 0.210867 0
M  V30 12 H 0.981 2.67203 3.11629 0
M  V30 13 H -0.358 1.57376 2.7183 0
M  V30 14 H -1.165 3.90944 3.18086 0
M  V30 15 H -1.563 3.418 1.51819 0
M  V30 16 H 0.729 5.58782 3.83104 0
M  V30 17 H 1.672 6.56266 2.65933 0
M  V30 18 H 2.08 4.83886 2.90714 0
M  V30 19 N 1.4781 -0.272755 1.55222 0
M  V30 20 C 2.7261 -1.00234 1.75492 0
M  V30 21 C 3.0471 -1.8681 0.5592 0
M  V30 22 O 2.3171 -1.91215 -0.425882 0
M  V30 23 H 0.8971 -0.373076 0.647166 0
M  V30 24 H 3.5591 -0.296926 1.92625 0
M  V30 25 H 2.6551 -1.63913 2.65592 0
M  V30 26 N 2.9562 -1.48159 -0.537278 0
M  V30 27 C 4.2042 -1.55497 -1.29094 0
M  V30 28 C 4.5252 -0.227454 -1.93669 0
M  V30 29 O 3.7952 0.750386 -1.80959 0
M  V30 30 H 2.3752 -0.572832 -0.47945 0
M  V30 31 H 5.0372 -1.84579 -0.625818 0
M  V30 32 H 4.1332 -2.33216 -2.07405 0
M  V30 33 N 4.4343 0.785586 -1.36625 0
M  V30 34 C 5.3813 1.89838 -1.31264 0
M  V30 35 C 6.3513 1.65115 -0.180633 0
M  V30 36 O 7.5363 1.87222 -0.36777 0
M  V30 37 C 4.6763 3.26706 -1.11163 0
M  V30 38 C 3.7893 3.63476 -2.33472 0
M  V30 39 C 2.9243 4.89481 -2.06353 0
M  V30 40 C 1.9633 5.18941 -3.24602 0
M  V30 41 N 1.1003 6.36131 -2.97123 0
M  V30 42 H 5.9403 1.93756 -2.26413 0
M  V30 43 H 3.4773 0.947454 -1.12524 0
M  V30 44 H 5.4353 4.05639 -0.975337 0
M  V30 45 H 4.0653 3.222 -0.196674 0
M  V30 46 H 3.1173 2.79636 -2.57891 0
M  V30 47 H 4.4293 3.81193 -3.21704 0
M  V30 48 H 3.5833 5.76288 -1.89675 0
M  V30 49 H 2.3223 4.73841 -1.15437 0
M  V30 50 H 1.3273 4.30615 -3.41834 0
M  V30 51 H 2.5523 5.36498 -4.16349 0
M  V30 52 H 0.4983 6.21875 -2.08823 0
M  V30 53 H 0.4153 6.54198 -3.78894 0
M  V30 54 H 1.6833 7.2591 -2.84033 0
M  V30 55 N 5.9124 1.20967 1.01018 0
M  V30 56 C 7.1374 1.0503 1.78839 0
M  V30 57 C 7.5624 -0.395752 1.8389 0
M  V30 58 O 6.9204 -1.28529 1.27867 0
M  V30 59 C 6.9684 1.64602 3.2084 0
M  V30 60 O 6.0724 0.887988 4.02726 0
M  V30 61 H 5.4134 0.369987 0.551367 0
M  V30 62 H 7.9434 1.60399 1.27018 0
M  V30 63 H 7.9534 1.68607 3.71532 0
M  V30 64 H 6.6284 2.69841 3.16479 0
M  V30 65 H 5.2054 0.922648 3.61305 0
M  V30 66 N 7.3905 -1.2043 1.01659 0
M  V30 67 C 8.8065 -1.41852 0.731442 0
M  V30 68 C 9.0065 -1.89358 -0.688898 0
M  V30 69 O 8.0625 -2.06247 -1.45666 0
M  V30 70 C 9.3755 -2.44019 1.75714 0
M  V30 71 C 10.9235 -2.57785 1.77527 0
M  V30 72 C 11.3985 -3.63194 2.79023 0
M  V30 73 N 12.8895 -3.70678 2.77763 0
M  V30 74 C 13.6245 -4.51897 3.52954 0
M  V30 75 N 13.1205 -5.36921 4.37821 0
M  V30 76 N 14.9135 -4.4643 3.41551 0
M  V30 77 H 7.0645 -0.879093 1.93354 0
M  V30 78 H 9.3275 -0.448425 0.835236 0
M  V30 79 H 9.0335 -2.1611 2.77469 0
M  V30 80 H 8.9075 -3.43007 1.56927 0
M  V30 81 H 11.2945 -2.85023 0.764569 0
M  V30 82 H 11.3755 -1.58992 2.00387 0
M  V30 83 H 11.0195 -3.36699 3.80258 0
M  V30 84 H 10.9495 -4.61609 2.53425 0
M  V30 85 H 13.4405 -3.09944 2.16201 0
M  V30 86 H 13.7535 -5.95981 4.91962 0
M  V30 87 H 12.0985 -5.36424 4.41899 0
M  V30 88 H 15.2895 -3.79042 2.74672 0
M  V30 89 H 15.4625 -5.09491 4.00404 0
M  V30 90 N 8.8686 -0.792821 -1.36206 0
M  V30 91 C 10.1166 -0.366062 -1.98757 0
M  V30 92 C 10.4376 1.0668 -1.63231 0
M  V30 93 O 9.7076 1.73587 -0.907978 0
M  V30 94 H 8.2876 -0.132364 -0.735179 0
M  V30 95 H 10.9496 -1.01562 -1.66347 0
M  V30 96 H 10.0456 -0.460638 -3.08682 0
M  V30 97 N 10.3467 1.47872 -0.545128 0
M  V30 98 C 11.2937 2.29849 0.2093 0
M  V30 99 C 12.2637 1.38313 0.919707 0
M  V30 100 O 13.4487 1.67277 0.917772 0
M  V30 101 C 10.5887 3.22019 1.24088 0
M  V30 102 C 9.7017 4.2864 0.537778 0
M  V30 103 C 8.8367 5.07973 1.5536 0
M  V30 104 C 7.8757 6.06381 0.8348 0
M  V30 105 N 7.0127 6.78717 1.79688 0
M  V30 106 H 11.8527 2.93845 -0.49591 0
M  V30 107 H 9.3897 1.44848 -0.256389 0
M  V30 108 H 11.3477 3.73868 1.85144 0
M  V30 109 H 9.9777 2.59914 1.91428 0
M  V30 110 H 9.0297 3.7994 -0.187046 0
M  V30 111 H 10.3417 4.98793 -0.0258907 0
M  V30 112 H 9.4957 5.63912 2.23803 0
M  V30 113 H 8.2347 4.37693 2.15118 0
M  V30 114 H 7.2397 5.49631 0.136388 0
M  V30 115 H 8.4647 6.78665 0.24313 0
M  V30 116 H 6.4107 6.11177 2.38326 0
M  V30 117 H 6.3277 7.44998 1.28505 0
M  V30 118 H 7.5957 7.39237 2.47282 0
M  V30 119 N 11.8248 0.280983 1.55075 0
M  V30 120 C 13.2408 -0.0729964 1.59433 0
M  V30 121 C 13.4408 -1.5411 1.29817 0
M  V30 122 O 12.4968 -2.29086 1.06187 0
M  V30 123 C 13.8098 0.306921 2.9913 0
M  V30 124 C 15.3578 0.254023 3.11968 0
M  V30 125 C 15.8328 0.608467 4.5394 0
M  V30 126 N 17.3238 0.560241 4.59799 0
M  V30 127 C 18.0588 0.80722 5.6769 0
M  V30 128 N 17.5548 1.11912 6.83701 0
M  V30 129 N 19.3478 0.735623 5.57266 0
M  V30 130 H 11.4988 1.238 1.7259 0
M  V30 131 H 13.7618 0.500547 0.805082 0
M  V30 132 H 13.4678 1.32816 3.25657 0
M  V30 133 H 13.3418 -0.349363 3.75579 0
M  V30 134 H 15.7288 -0.75794 2.852 0
M  V30 135 H 15.8098 0.944649 2.37718 0
M  V30 136 H 15.4538 1.61814 4.81434 0
M  V30 137 H 15.3838 -0.104013 5.26497 0
M  V30 138 H 17.8748 0.329288 3.76463 0
M  V30 139 H 18.1878 1.29409 7.61888 0
M  V30 140 H 16.5328 1.15695 6.85303 0
M  V30 141 H 19.7238 0.491752 4.6551 0
M  V30 142 H 19.8968 0.931482 6.4127 0
M  V30 143 N 13.3029 -1.57598 0.00835791 0
M  V30 144 C 14.5279 -1.95617 -0.689103 0
M  V30 145 C 14.9529 -0.883753 -1.66046 0
M  V30 146 O 14.3109 0.157352 -1.80616 0
M  V30 147 C 14.3589 -3.32736 -1.38994 0
M  V30 148 O 13.4629 -3.27631 -2.50463 0
M  V30 149 H 12.8039 -0.638379 -0.182668 0
M  V30 150 H 15.3339 -2.045 0.064036 0
M  V30 151 H 15.3439 -3.68494 -1.75147 0
M  V30 152 H 14.0189 -4.1034 -0.677778 0
M  V30 153 H 12.5959 -3.03561 -2.16576 0
M  V30 154 N 14.781 0.264519 -1.55364 0
M  V30 155 C 16.029 0.993021 -1.76021 0
M  V30 156 C 16.35 1.86511 -0.569099 0
M  V30 157 O 15.62 1.91438 0.415735 0
M  V30 158 H 14.2 0.369639 -0.649135 0
M  V30 159 H 16.862 0.286707 -1.9278 0
M  V30 160 H 15.958 1.62502 -2.66457 0
M  V30 161 N 16.2591 1.48442 0.529413 0
M  V30 162 C 17.4871 1.60151 1.30994 0
M  V30 163 C 17.9021 0.261985 1.86973 0
M  V30 164 O 17.2591 -0.748805 1.66431 0
M  V30 165 C 17.3101 2.64854 2.46038 0
M  V30 166 O 17.0311 3.93608 1.92365 0
M  V30 167 C 18.5321 2.87007 3.37849 0
M  V30 168 H 15.7521 0.539971 0.398338 0
M  V30 169 H 18.2961 1.94273 0.638597 0
M  V30 170 H 16.4511 2.33589 3.09055 0
M  V30 171 H 16.8651 4.51055 2.67675 0
M  V30 172 H 18.3391 3.64068 4.14919 0
M  V30 173 H 18.8161 1.95852 3.93114 0
M  V30 174 H 19.4221 3.19579 2.80623 0
M  V30 175 N 17.7372 -0.778329 1.37039 0
M  V30 176 C 19.1532 -1.07796 1.17695 0
M  V30 177 C 19.3532 -2.01498 0.00860115 0
M  V30 178 O 18.4092 -2.43901 -0.653352 0
M  V30 179 C 19.7222 -1.68178 2.49272 0
M  V30 180 C 21.2702 -1.80467 2.55735 0
M  V30 181 C 21.7452 -2.44263 3.87427 0
M  V30 182 N 23.2362 -2.51721 3.88833 0
M  V30 183 C 23.9712 -3.01919 4.87476 0
M  V30 184 N 23.4672 -3.5234 5.96513 0
M  V30 185 N 25.2602 -3.00733 4.74885 0
M  V30 186 H 17.4112 -0.156032 2.11826 0
M  V30 187 H 19.6742 -0.131844 0.938787 0
M  V30 188 H 19.3802 -1.06796 3.35093 0
M  V30 189 H 19.2542 -2.67554 2.65885 0
M  V30 190 H 21.6412 -2.40984 1.70325 0
M  V30 191 H 21.7222 -0.798656 2.43013 0
M  V30 192 H 21.3662 -1.84388 4.73248 0
M  V30 193 H 21.2962 -3.45458 3.9745 0
M  V30 194 H 23.7872 -2.1603 3.10063 0
M  V30 195 H 24.1002 -3.89027 6.67741 0
M  V30 196 H 22.4452 -3.50462 6.00168 0
M  V30 197 H 25.6362 -2.60638 3.88826 0
M  V30 198 H 25.8092 -3.39545 5.51918 0
M  V30 199 N 19.2153 -1.21501 -1.00376 0
M  V30 200 C 20.4453 -1.05746 -1.77486 0
M  V30 201 C 20.8533 0.395655 -1.85017 0
M  V30 202 O 20.1963 1.28626 -1.31152 0
M  V30 203 C 20.2583 -1.58092 -3.22873 0
M  V30 204 C 19.9223 -3.06568 -3.38917 0
M  V30 205 C 20.9193 -4.04106 -3.271 0
M  V30 206 C 18.6043 -3.45799 -3.64319 0
M  V30 207 C 20.5983 -5.38862 -3.40451 0
M  V30 208 C 18.2853 -4.80707 -3.77311 0
M  V30 209 C 19.2833 -5.77047 -3.65384 0
M  V30 210 O 18.9713 -7.09507 -3.77961 0
M  V30 211 H 18.7033 -0.371778 -0.564586 0
M  V30 212 H 21.2573 -1.61319 -1.27143 0
M  V30 213 H 19.4873 -0.969163 -3.74358 0
M  V30 214 H 21.1763 -1.38162 -3.81662 0
M  V30 215 H 21.9423 -3.75141 -3.07399 0
M  V30 216 H 17.8213 -2.71344 -3.72684 0
M  V30 217 H 21.3653 -6.14041 -3.31058 0
M  V30 218 H 17.2623 -5.09357 -3.96517 0
M  V30 219 H 18.0303 -7.16935 -3.94901 0
M  V30 220 N 20.6934 1.19889 -1.02296 0
M  V30 221 C 21.6404 2.22901 -0.598651 0
M  V30 222 C 22.6104 1.61588 0.384521 0
M  V30 223 O 23.7954 1.88697 0.282522 0
M  V30 224 C 20.9354 3.45063 0.0504476 0
M  V30 225 C 20.0484 4.20783 -0.978053 0
M  V30 226 C 19.1834 5.30356 -0.299338 0
M  V30 227 C 18.2224 5.97826 -1.31416 0
M  V30 228 N 17.3594 6.98975 -0.661667 0
M  V30 229 H 22.1994 2.58554 -1.48169 0
M  V30 230 H 19.7364 1.27039 -0.741584 0
M  V30 231 H 21.6944 4.14831 0.443971 0
M  V30 232 H 20.3244 3.10084 0.897097 0
M  V30 233 H 19.3764 3.50018 -1.48969 0
M  V30 234 H 20.6884 4.67109 -1.74958 0
M  V30 235 H 19.8424 6.06516 0.149347 0
M  V30 236 H 18.5814 4.85084 0.504445 0
M  V30 237 H 17.5864 5.20422 -1.77317 0
M  V30 238 H 18.8114 6.45183 -2.11933 0
M  V30 239 H 16.7574 6.55886 0.122132 0
M  V30 240 H 16.6744 7.43461 -1.37117 0
M  V30 241 H 17.9424 7.7914 -0.236785 0
M  V30 242 N 22.1715 0.800033 1.35784 0
M  V30 243 C 23.4185 0.377342 1.98953 0
M  V30 244 C 23.7465 -1.05378 1.6348 0
M  V30 245 O 23.0015 -1.74459 0.886707 0
M  V30 246 C 23.3005 0.500276 3.53881 0
M  V30 247 C 22.9665 1.89375 4.09204 0
M  V30 248 C 21.6285 2.27499 4.24025 0
M  V30 249 C 23.9805 2.8057 4.39238 0
M  V30 250 C 21.3085 3.562 4.66195 0
M  V30 251 C 23.6605 4.0871 4.82844 0
M  V30 252 C 22.3245 4.46843 4.95871 0
M  V30 253 H 21.5945 0.138079 0.728021 0
M  V30 254 H 24.2415 1.01955 1.62103 0
M  V30 255 H 22.5465 -0.225405 3.91151 0
M  V30 256 H 24.2435 0.154097 4.00704 0
M  V30 257 H 20.8335 1.58753 3.98115 0
M  V30 258 H 25.0175 2.52367 4.27346 0
M  V30 259 H 20.2735 3.85602 4.74469 0
M  V30 260 H 24.4475 4.79481 5.05046 0
M  V30 261 H 22.0745 5.46623 5.28306 0
M  V30 262 N 23.6496 -1.47581 0.552962 0
M  V30 263 C 24.8746 -2.07378 0.0300593 0
M  V30 264 C 25.2996 -1.40355 -1.25229 0
M  V30 265 O 24.6576 -0.477099 -1.7491 0
M  V30 266 C 24.7056 -3.60274 -0.153231 0
M  V30 267 O 23.8096 -3.94041 -1.21678 0
M  V30 268 H 23.1506 -0.662158 0.0494182 0
M  V30 269 H 25.6806 -1.89662 0.767434 0
M  V30 270 H 25.6906 -4.0633 -0.368761 0
M  V30 271 H 24.3656 -4.08455 0.783397 0
M  V30 272 H 22.9426 -3.59735 -0.982079 0
M  V30 273 N 25.1277 -0.289203 -1.54924 0
M  V30 274 C 26.0747 0.592115 -2.23075 0
M  V30 275 C 27.0447 1.13881 -1.20915 0
M  V30 276 O 28.2297 1.18551 -1.495 0
M  V30 277 C 25.3697 1.76376 -2.96623 0
M  V30 278 C 24.4827 1.24959 -4.13533 0
M  V30 279 C 23.6177 2.38416 -4.74691 0
M  V30 280 C 22.6567 1.84072 -5.83767 0
M  V30 281 N 21.7937 2.91057 -6.38929 0
M  V30 282 H 26.6337 0.00432038 -2.98 0
M  V30 283 H 24.1707 -0.00963529 -1.47097 0
M  V30 284 H 26.1287 2.45268 -3.3749 0
M  V30 285 H 24.7587 2.32337 -2.24097 0
M  V30 286 H 23.8107 0.453307 -3.77689 0
M  V30 287 H 25.1227 0.811662 -4.92152 0
M  V30 288 H 24.2767 3.15276 -5.18349 0
M  V30 289 H 23.0157 2.8553 -3.95378 0
M  V30 290 H 22.0207 1.05697 -5.39545 0
M  V30 291 H 23.2457 1.37877 -6.64956 0
M  V30 292 H 21.1917 3.37526 -5.62505 0
M  V30 293 H 21.1087 2.51724 -7.12861 0
M  V30 294 H 22.3767 3.6785 -6.87246 0
M  V30 295 N 26.6058 1.57591 -0.0167156 0
M  V30 296 C 27.5528 2.09462 0.969251 0
M  V30 297 C 28.5228 0.99381 1.33089 0
M  V30 298 O 29.7078 1.26726 1.42636 0
M  V30 299 C 26.8478 2.61622 2.25051 0
M  V30 300 C 25.9608 3.85666 1.94642 0
M  V30 301 C 25.0958 4.26266 3.16972 0
M  V30 302 C 24.1348 5.43101 2.82326 0
M  V30 303 N 23.2718 5.78915 3.97243 0
M  V30 304 H 28.1118 2.93428 0.519997 0
M  V30 305 H 25.6488 1.45044 0.245087 0
M  V30 306 H 27.6068 2.89949 2.99976 0
M  V30 307 H 26.2368 1.80505 2.67615 0
M  V30 308 H 25.2888 3.64145 1.10013 0
M  V30 309 H 26.6008 4.70678 1.65117 0
M  V30 310 H 25.7548 4.55963 4.00228 0
M  V30 311 H 24.4938 3.39996 3.49648 0
M  V30 312 H 23.4988 5.1311 1.97479 0
M  V30 313 H 24.7238 6.3106 2.50879 0
M  V30 314 H 22.6698 4.95602 4.29785 0
M  V30 315 H 22.5868 6.58539 3.71299 0
M  V30 316 H 23.8548 6.13212 4.81239 0
M  V30 317 N 28.0839 -0.256276 1.55502 0
M  V30 318 C 29.3309 -0.985619 1.76895 0
M  V30 319 C 29.6589 -1.85671 0.579355 0
M  V30 320 O 28.9139 -1.90744 -0.437651 0
M  V30 321 C 29.2129 -1.88432 3.03691 0
M  V30 322 C 28.8789 -1.16936 4.35473 0
M  V30 323 C 27.5409 -0.97173 4.71286 0
M  V30 324 C 29.8929 -0.661889 5.1698 0
M  V30 325 C 27.2209 -0.254179 5.86149 0
M  V30 326 C 29.5729 0.042149 6.32586 0
M  V30 327 C 28.2369 0.25134 6.67027 0
M  V30 328 H 27.5069 -0.360663 0.647304 0
M  V30 329 H 30.1539 -0.256483 1.89775 0
M  V30 330 H 28.4589 -2.68021 2.85783 0
M  V30 331 H 30.1559 -2.45015 3.1744 0
M  V30 332 H 26.7459 -1.33332 4.07333 0
M  V30 333 H 30.9299 -0.802145 4.89775 0
M  V30 334 H 26.1859 -0.0815408 6.11346 0
M  V30 335 H 30.3599 0.443049 6.94989 0
M  V30 336 H 27.9869 0.809314 7.5588 0
M  V30 337 N 29.562 -1.4872 -0.521534 0
M  V30 338 C 30.978 -1.35028 -0.850855 0
M  V30 339 C 31.178 -0.367712 -1.98116 0
M  V30 340 O 30.234 0.208037 -2.51642 0
M  V30 341 C 31.547 -2.75263 -1.21041 0
M  V30 342 C 33.095 -2.83813 -1.31981 0
M  V30 343 C 33.57 -4.24769 -1.71276 0
M  V30 344 N 35.061 -4.27482 -1.78363 0
M  V30 345 C 35.796 -5.33494 -2.1017 0
M  V30 346 N 35.292 -6.49775 -2.40343 0
M  V30 347 N 37.085 -5.20894 -2.11248 0
M  V30 348 H 29.236 -2.11214 0.22413 0
M  V30 349 H 31.499 -0.947252 0.0376439 0
M  V30 350 H 31.205 -3.48765 -0.453415 0
M  V30 351 H 31.079 -3.09327 -2.15863 0
M  V30 352 H 33.466 -2.10561 -2.06756 0
M  V30 353 H 33.547 -2.53358 -0.352596 0
M  V30 354 H 33.191 -4.9854 -0.970588 0
M  V30 355 H 33.121 -4.52673 -2.69062 0
M  V30 356 H 35.612 -3.43611 -1.57288 0
M  V30 357 H 35.925 -7.26402 -2.63743 0
M  V30 358 H 34.27 -6.53035 -2.37844 0
M  V30 359 H 37.461 -4.29065 -1.87139 0
M  V30 360 H 37.634 -6.03612 -2.35704 0
M  V30 361 N 31.0401 0.771051 -1.3745 0
M  V30 362 C 31.9871 1.88435 -1.3327 0
M  V30 363 C 32.9571 1.64914 -0.198136 0
M  V30 364 O 34.1421 1.86821 -0.387606 0
M  V30 365 C 31.2821 3.25509 -1.14622 0
M  V30 366 C 30.3951 3.60979 -2.37314 0
M  V30 367 C 29.5301 4.87265 -2.11533 0
M  V30 368 C 28.5691 5.15469 -3.30088 0
M  V30 369 N 27.7061 6.32944 -3.03853 0
M  V30 370 H 32.5461 1.91344 -2.28455 0
M  V30 371 H 30.0831 0.935466 -1.13523 0
M  V30 372 H 32.0411 4.04582 -1.01831 0
M  V30 373 H 30.6711 3.21974 -0.230837 0
M  V30 374 H 29.7231 2.76885 -2.60842 0
M  V30 375 H 31.0351 3.77759 -3.25729 0
M  V30 376 H 30.1891 5.74244 -1.95777 0
M  V30 377 H 28.9281 4.7259 -1.20457 0
M  V30 378 H 27.9331 4.26966 -3.46382 0
M  V30 379 H 29.1581 5.32052 -4.22016 0
M  V30 380 H 27.1041 6.19625 -2.15407 0
M  V30 381 H 27.0211 6.50143 -3.85812 0
M  V30 382 H 28.2891 7.22857 -2.91716 0
M  V30 383 N 32.5182 1.22032 0.997298 0
M  V30 384 C 33.4682 0.953838 2.07089 0
M  V30 385 C 34.4522 -0.0938669 1.60626 0
M  V30 386 O 35.6442 0.116078 1.76619 0
M  V30 387 C 32.7732 0.528726 3.39204 0
M  V30 388 C 31.8592 1.61092 3.92314 0
M  V30 389 N 32.2502 2.83768 4.18699 0
M  V30 390 C 30.5482 1.48158 4.20672 0
M  V30 391 C 31.2492 3.53715 4.61802 0
M  V30 392 N 30.2252 2.81174 4.65233 0
M  V30 393 H 34.0272 1.88577 2.25424 0
M  V30 394 H 31.5412 1.11719 1.17867 0
M  V30 395 H 33.5382 0.31915 4.15677 0
M  V30 396 H 32.1982 -0.39635 3.22272 0
M  V30 397 H 33.2092 3.20238 4.07023 0
M  V30 398 H 29.8862 0.622369 4.12835 0
M  V30 399 H 31.2762 4.58793 4.90875 0
M  V30 400 N 33.9963 -1.19345 1.0293 0
M  V30 401 C 35.2443 -1.88665 0.724574 0
M  V30 402 C 35.5653 -1.80036 -0.749144 0
M  V30 403 O 34.8353 -1.2111 -1.53978 0
M  V30 404 H 33.4153 -0.698406 0.265025 0
M  V30 405 H 36.0773 -1.44885 1.30362 0
M  V30 406 H 35.1733 -2.94987 1.01926 0
M  V30 407 N 35.4744 -0.807222 -1.35358 0
M  V30 408 C 36.3844 -0.219594 -2.3357 0
M  V30 409 C 37.4004 0.637734 -1.61892 0
M  V30 410 O 38.5764 0.549336 -1.93763 0
M  V30 411 C 35.6414 0.62158 -3.41083 0
M  V30 412 C 34.7024 -0.256315 -4.28534 0
M  V30 413 C 33.9354 0.544807 -5.30912 0
M  V30 414 O 34.1584 1.77944 -5.41934 0
M  V30 415 O 33.0924 -0.0646478 -6.01865 0
M  V30 416 H 36.9184 -1.03208 -2.85625 0
M  V30 417 H 34.5034 -0.569025 -1.38139 0
M  V30 418 H 36.3854 1.10067 -4.06772 0
M  V30 419 H 35.0604 1.41165 -2.91297 0
M  V30 420 H 33.9674 -0.782559 -3.65823 0
M  V30 421 H 35.3004 -1.01034 -4.81719 0
M  V30 422 N 36.9525 1.47285 -0.560781 0
M  V30 423 C 38.1925 2.0436 -0.0404627 0
M  V30 424 C 38.5565 1.42534 1.28639 0
M  V30 425 O 39.7575 1.90677 1.89462 0
M  V30 426 C 38.0285 3.57369 0.0471856 0
M  V30 427 S 39.5875 4.3579 0.513109 0
M  V30 428 H 36.4055 0.710492 -0.0268674 0
M  V30 429 H 39.0075 1.80611 -0.748323 0
M  V30 430 H 37.7115 3.9989 -0.922817 0
M  V30 431 H 37.2425 3.8562 0.778491 0
M  V30 432 H 39.2575 4.63476 1.77212 0
M  V30 433 N 38.4306 0.297415 1.54768 0
M  V30 434 C 39.6586 -0.315623 2.04478 0
M  V30 435 C 40.0736 -1.47792 1.17486 0
M  V30 436 O 39.4306 -1.81404 0.19971 0
M  V30 437 C 39.4816 -0.7753 3.53088 0
M  V30 438 O 39.2026 0.340732 4.36773 0
M  V30 439 C 40.7036 -1.45386 4.18781 0
M  V30 440 H 37.9236 -0.0690887 0.667434 0
M  V30 441 H 40.4676 0.436003 1.99798 0
M  V30 442 H 38.6226 -1.47696 3.58141 0
M  V30 443 H 39.0366 -0.0165035 5.24497 0
M  V30 444 H 40.5106 -1.72669 5.24299 0
M  V30 445 H 40.9876 -2.39275 3.68299 0
M  V30 446 H 41.5936 -0.795475 4.17795 0
M  V30 447 N 39.9087 -1.5758 0.0250728 0
M  V30 448 C 40.8717 -2.08896 -0.943139 0
M  V30 449 C 41.8717 -1.00321 -1.25668 0
M  V30 450 O 43.0617 -1.26495 -1.19769 0
M  V30 451 C 40.1937 -2.55143 -2.26086 0
M  V30 452 H 41.3867 -2.95723 -0.498775 0
M  V30 453 H 38.9397 -1.54703 -0.222888 0
M  V30 454 H 39.6747 -1.71633 -2.75159 0
M  V30 455 H 39.4597 -3.34461 -2.04641 0
M  V30 456 H 40.9497 -2.95083 -2.95492 0
M  V30 457 N 41.3868 0.248026 -1.55636 0
M  V30 458 C 42.3348 1.32683 -1.91045 0
M  V30 459 C 43.3288 1.49883 -0.789401 0
M  V30 460 O 44.5348 1.51371 -0.974007 0
M  V30 461 H 40.9098 0.444272 -0.606734 0
M  V30 462 H 42.8808 1.00085 -2.81115 0
M  V30 463 C 41.6298 2.6755 -2.22064 0
M  V30 464 H 40.9528 2.55114 -3.07826 0
M  V30 465 H 42.3928 3.41912 -2.50743 0
M  V30 466 C 40.8518 3.20556 -1.0366 0
M  V30 467 O 41.3818 4.00695 -0.284016 0
M  V30 468 N 39.5878 2.78568 -0.82753 0
M  V30 469 H 39.1348 2.1351 -1.44123 0
M  V30 470 H 39.0928 3.14378 -0.0369803 0
M  V30 471 N 42.8649 1.48995 0.513639 0
M  V30 472 C 43.8119 1.6473 1.61656 0
M  V30 473 C 44.7819 0.488984 1.58739 0
M  V30 474 O 45.9669 0.714478 1.76918 0
M  V30 475 C 43.1069 1.7082 2.99858 0
M  V30 476 C 42.2199 2.9787 3.12885 0
M  V30 477 C 41.3549 2.95017 4.41744 0
M  V30 478 C 40.3939 4.16702 4.48359 0
M  V30 479 N 39.5309 4.11832 5.68629 0
M  V30 480 H 44.3709 2.58909 1.47547 0
M  V30 481 H 41.9079 1.28382 0.71808 0
M  V30 482 H 43.8659 1.72331 3.79944 0
M  V30 483 H 42.4959 0.801181 3.12699 0
M  V30 484 H 41.5479 3.06029 2.25944 0
M  V30 485 H 42.8599 3.8786 3.13633 0
M  V30 486 H 42.0139 2.95021 5.30139 0
M  V30 487 H 40.7529 2.02784 4.43542 0
M  V30 488 H 39.7579 4.16955 3.58369 0
M  V30 489 H 40.9829 5.10113 4.48287 0
M  V30 490 H 38.9289 3.22428 5.71293 0
M  V30 491 H 38.8459 4.95543 5.7094 0
M  V30 492 H 40.1139 4.1592 6.59266 0
M  V30 493 N 44.343 -0.763751 1.37857 0
M  V30 494 C 45.573 -1.55067 1.3652 0
M  V30 495 C 45.981 -1.89135 -0.0494227 0
M  V30 496 O 45.324 -1.52529 -1.02375 0
M  V30 497 C 45.386 -2.8838 2.14656 0
M  V30 498 C 45.05 -2.76905 3.63555 0
M  V30 499 C 46.047 -2.4739 4.57268 0
M  V30 500 C 43.732 -2.94676 4.06781 0
M  V30 501 C 45.726 -2.35786 5.92186 0
M  V30 502 C 43.413 -2.82692 5.41782 0
M  V30 503 C 44.411 -2.53289 6.34298 0
M  V30 504 O 44.099 -2.41345 7.66817 0
M  V30 505 H 43.831 -0.486776 0.469069 0
M  V30 506 H 46.385 -0.953812 1.81911 0
M  V30 507 H 44.615 -3.50217 1.63967 0
M  V30 508 H 46.304 -3.49828 2.05852 0
M  V30 509 H 47.07 -2.33339 4.2518 0
M  V30 510 H 42.949 -3.16563 3.35126 0
M  V30 511 H 46.493 -2.12757 6.64365 0
M  V30 512 H 42.39 -2.96314 5.7347 0
M  V30 513 H 43.158 -2.56634 7.77226 0
M  V30 514 N 45.8211 -1.22559 -0.990812 0
M  V30 515 C 46.7511 -1.0218 -2.09956 0
M  V30 516 C 47.7321 0.0579394 -1.70001 0
M  V30 517 O 48.9171 -0.104684 -1.93918 0
M  V30 518 C 46.0471 -0.601023 -3.4206 0
M  V30 519 C 45.0011 -1.62694 -3.95872 0
M  V30 520 C 44.3271 -1.06193 -5.24049 0
M  V30 521 C 45.6271 -3.01743 -4.2632 0
M  V30 522 H 47.3211 -1.94916 -2.27262 0
M  V30 523 H 44.8671 -0.938566 -1.09211 0
M  V30 524 H 46.8201 -0.445561 -4.19038 0
M  V30 525 H 45.5441 0.362005 -3.24588 0
M  V30 526 H 44.2031 -1.77021 -3.21028 0
M  V30 527 H 43.8511 -0.0901903 -5.02919 0
M  V30 528 H 43.5511 -1.74732 -5.61019 0
M  V30 529 H 45.0751 -0.918092 -6.03658 0
M  V30 530 H 46.4891 -2.90777 -4.94087 0
M  V30 531 H 44.8861 -3.67425 -4.74467 0
M  V30 532 H 45.9561 -3.51518 -3.34011 0
M  V30 533 N 47.2992 1.18797 -1.03562 0
M  V30 534 C 48.2092 2.25913 -0.632505 0
M  V30 535 C 49.2252 1.70668 0.338882 0
M  V30 536 O 50.4012 2.00453 0.195076 0
M  V30 537 C 47.4662 3.467 0.00350942 0
M  V30 538 C 46.5272 4.17098 -1.01624 0
M  V30 539 C 45.7602 5.32119 -0.410478 0
M  V30 540 O 45.9832 5.64976 0.784725 0
M  V30 541 O 44.9172 5.9107 -1.13667 0
M  V30 542 H 48.7432 2.62648 -1.52478 0
M  V30 543 H 46.3282 1.25781 -0.806195 0
M  V30 544 H 48.2102 4.19878 0.35781 0
M  V30 545 H 46.8852 3.11798 0.869686 0
M  V30 546 H 45.7922 3.4601 -1.42224 0
M  V30 547 H 47.1252 4.55987 -1.85301 0
M  V30 548 N 48.7773 0.814389 1.34928 0
M  V30 549 C 49.7243 0.22822 2.29669 0
M  V30 550 C 50.6943 -0.642164 1.53184 0
M  V30 551 O 51.8793 -0.585605 1.81591 0
M  V30 552 C 49.0193 -0.61089 3.3965 0
M  V30 553 C 48.1323 0.280792 4.31086 0
M  V30 554 C 47.2673 -0.567067 5.28165 0
M  V30 555 C 46.3063 0.324531 6.11239 0
M  V30 556 N 45.4433 -0.483756 7.00431 0
M  V30 557 H 50.2833 1.04153 2.79206 0
M  V30 558 H 47.8203 0.525133 1.37407 0
M  V30 559 H 49.7783 -1.11263 4.0209 0
M  V30 560 H 48.4083 -1.38939 2.91369 0
M  V30 561 H 47.4603 0.900688 3.69583 0
M  V30 562 H 48.7723 0.966723 4.89342 0
M  V30 563 H 47.9263 -1.13363 5.96015 0
M  V30 564 H 46.6653 -1.28654 4.70425 0
M  V30 565 H 45.6703 0.903298 5.42329 0
M  V30 566 H 46.8953 1.04198 6.71059 0
M  V30 567 H 44.8413 -1.18706 6.45171 0
M  V30 568 H 44.7583 0.143965 7.55863 0
M  V30 569 H 46.0263 -1.03334 7.7262 0
M  V30 570 N 50.2554 -1.46986 0.568584 0
M  V30 571 C 51.1854 -2.32946 -0.160753 0
M  V30 572 C 52.1664 -1.44487 -0.897631 0
M  V30 573 O 53.3514 -1.73327 -0.875867 0
M  V30 574 C 50.4814 -3.26494 -1.18403 0
M  V30 575 C 49.4354 -4.24282 -0.562895 0
M  V30 576 C 48.7614 -5.07236 -1.69163 0
M  V30 577 C 50.0614 -5.19989 0.490761 0
M  V30 578 H 51.7554 -2.94175 0.556916 0
M  V30 579 H 49.3014 -1.4146 0.26927 0
M  V30 580 H 51.2544 -3.85477 -1.70251 0
M  V30 581 H 49.9784 -2.63343 -1.93179 0
M  V30 582 H 48.6374 -3.66541 -0.0656164 0
M  V30 583 H 48.2854 -4.4048 -2.42871 0
M  V30 584 H 47.9854 -5.7345 -1.28174 0
M  V30 585 H 49.5094 -5.6908 -2.21314 0
M  V30 586 H 50.9234 -5.73271 0.0579047 0
M  V30 587 H 49.3204 -5.94469 0.820165 0
M  V30 588 H 50.3904 -4.64777 1.3824 0
M  V30 589 N 51.7335 -0.305618 -1.54608 0
M  V30 590 C 52.6815 0.584119 -2.25146 0
M  V30 591 C 53.6755 1.13326 -1.25911 0
M  V30 592 O 54.8815 1.08337 -1.43747 0
M  V30 593 H 51.2565 0.206983 -0.722954 0
M  V30 594 H 53.2275 -0.033291 -2.98381 0
M  V30 595 C 51.9765 1.74225 -3.009 0
M  V30 596 H 51.2995 1.32892 -3.77067 0
M  V30 597 H 52.7395 2.34077 -3.53531 0
M  V30 598 C 51.1985 2.64914 -2.0814 0
M  V30 599 O 51.7285 3.66137 -1.65246 0
M  V30 600 N 49.9345 2.3275 -1.74 0
M  V30 601 H 49.4815 1.50479 -2.09078 0
M  V30 602 H 49.4395 2.93694 -1.12211 0
M  V30 603 N 53.2116 1.57565 -0.0334293 0
M  V30 604 C 54.4416 1.95996 0.653398 0
M  V30 605 C 54.8496 0.908749 1.65947 0
M  V30 606 O 54.1926 -0.117471 1.83324 0
M  V30 607 C 54.2546 3.30589 1.41249 0
M  V30 608 C 53.9186 4.53503 0.564263 0
M  V30 609 C 54.9156 5.19647 -0.16225 0
M  V30 610 C 52.6006 4.99801 0.500398 0
M  V30 611 C 54.5946 6.30412 -0.941255 0
M  V30 612 C 52.2816 6.10448 -0.282308 0
M  V30 613 C 53.2796 6.75612 -1.00184 0
M  V30 614 O 52.9676 7.84134 -1.77171 0
M  V30 615 H 52.6996 0.65027 0.184728 0
M  V30 616 H 55.2536 2.05199 -0.0907841 0
M  V30 617 H 53.4836 3.17888 2.20191 0
M  V30 618 H 55.1726 3.53892 1.98784 0
M  V30 619 H 55.9386 4.84846 -0.12227 0
M  V30 620 H 51.8176 4.48883 1.05002 0
M  V30 621 H 55.3616 6.81208 -1.50339 0
M  V30 622 H 51.2586 6.44686 -0.323989 0
M  V30 623 H 52.0266 8.00822 -1.69194 0
M  V30 624 N 54.6897 -0.239769 1.55765 0
M  V30 625 C 55.9377 -0.964892 1.77579 0
M  V30 626 C 56.2587 -1.85582 0.598699 0
M  V30 627 O 55.5287 -1.92075 -0.385226 0
M  V30 628 H 54.1087 -0.359265 0.654933 0
M  V30 629 H 56.7707 -0.256001 1.93211 0
M  V30 630 H 55.8667 -1.58243 2.69009 0
M  V30 631 N 56.1678 -1.49265 -0.50573 0
M  V30 632 C 57.4448 -1.49012 -1.26707 0
M  V30 633 C 57.8248 -0.215205 -2.1 0
M  V30 634 O 57.1728 0.802547 -2.13943 0
M  V30 635 C 57.3828 -2.7663 -2.12783 0
M  V30 636 C 58.7308 -3.25932 -2.72127 0
M  V30 637 O 59.7548 -2.77715 -2.23054 0
M  V30 638 O 58.6138 -4.09897 -3.61451 0
M  V30 639 H 55.7078 -0.596197 -0.57313 0
M  V30 640 H 58.2538 -1.61524 -0.52039 0
M  V30 641 H 57.0258 -3.60916 -1.5118 0
M  V30 642 H 56.6488 -2.66956 -2.94653 0
M  V30 643 N 57.6459 0.756429 -1.3826 0
M  V30 644 C 58.8759 1.54341 -1.3734 0
M  V30 645 C 59.2839 1.89159 0.0393917 0
M  V30 646 O 58.6269 1.5307 1.01565 0
M  V30 647 C 58.6889 2.87238 -2.16182 0
M  V30 648 C 58.3529 2.74973 -3.65019 0
M  V30 649 C 59.3499 2.44962 -4.58574 0
M  V30 650 C 57.0349 2.92515 -4.08338 0
M  V30 651 C 59.0289 2.32642 -5.93428 0
M  V30 652 C 56.7159 2.79815 -5.43274 0
M  V30 653 C 57.7139 2.49921 -6.35632 0
M  V30 654 O 57.4019 2.37275 -7.68086 0
M  V30 655 H 57.1339 0.484281 -0.471643 0
M  V30 656 H 59.6879 0.944152 -1.82414 0
M  V30 657 H 57.9179 3.49342 -1.65822 0
M  V30 658 H 59.6069 3.48731 -2.07705 0
M  V30 659 H 60.3729 2.31081 -4.26412 0
M  V30 660 H 56.2519 3.14781 -3.368 0
M  V30 661 H 59.7959 2.0923 -6.65484 0
M  V30 662 H 55.6929 2.93269 -5.75034 0
M  V30 663 H 56.4609 2.52509 -7.78577 0
M  V30 664 N 59.124 1.23083 0.984299 0
M  V30 665 C 60.37 1.06214 1.72761 0
M  V30 666 C 60.703 -0.400584 1.90024 0
M  V30 667 O 59.978 -1.29672 1.44967 0
M  V30 668 C 60.261 1.78375 3.12817 0
M  V30 669 C 60.114 3.32296 3.03149 0
M  V30 670 C 61.433 1.54309 4.12161 0
M  V30 671 H 58.552 0.387251 0.627061 0
M  V30 672 H 61.194 1.51536 1.14616 0
M  V30 673 H 59.344 1.39848 3.62457 0
M  V30 674 H 61.016 3.8032 2.61064 0
M  V30 675 H 59.259 3.6153 2.39747 0
M  V30 676 H 59.93 3.77972 4.02295 0
M  V30 677 H 62.406 1.87791 3.71314 0
M  V30 678 H 61.282 2.07281 5.08258 0
M  V30 679 H 61.543 0.477572 4.39513 0
M  V30 680 N 60.6021 -1.18246 1.0419 0
M  V30 681 C 61.8791 -1.84121 0.660208 0
M  V30 682 C 62.2591 -1.92778 -0.860221 0
M  V30 683 O 61.6071 -1.45464 -1.76217 0
M  V30 684 C 61.8171 -3.22355 1.33747 0
M  V30 685 C 63.1651 -3.98376 1.46906 0
M  V30 686 O 64.1891 -3.31799 1.29568 0
M  V30 687 O 63.0481 -5.17665 1.75171 0
M  V30 688 H 60.1421 -0.794036 0.231161 0
M  V30 689 H 62.6881 -1.25628 1.14087 0
M  V30 690 H 61.4601 -3.10964 2.37522 0
M  V30 691 H 61.0831 -3.88506 0.845515 0
M  V30 692 N 62.0802 -0.821533 -1.34494 0
M  V30 693 C 63.3292 -0.405355 -1.97585 0
M  V30 694 C 63.6422 1.03677 -1.65863 0
M  V30 695 O 64.8482 1.55679 -2.22433 0
M  V30 696 C 63.3042 -0.673861 -3.53535 0
M  V30 697 C 62.9122 -2.12951 -3.94152 0
M  V30 698 C 64.6562 -0.32378 -4.23263 0
M  V30 699 C 62.5632 -2.34298 -5.43009 0
M  V30 700 H 61.4932 -0.147836 -0.739365 0
M  V30 701 H 64.1442 -1.00769 -1.53355 0
M  V30 702 H 62.5262 -0.00137554 -3.96 0
M  V30 703 H 63.7002 -2.84104 -3.62797 0
M  V30 704 H 62.0152 -2.44089 -3.37356 0
M  V30 705 H 64.6122 -0.461126 -5.32708 0
M  V30 706 H 64.9552 0.731586 -4.09821 0
M  V30 707 H 65.4882 -0.950786 -3.8627 0
M  V30 708 H 62.2272 -3.38335 -5.61435 0
M  V30 709 H 61.7472 -1.67687 -5.75883 0
M  V30 710 H 63.4262 -2.16588 -6.09671 0
M  V30 711 N 63.5583 1.46682 -0.576371 0
M  V30 712 C 64.8043 2.02712 -0.0596221 0
M  V30 713 C 65.1373 1.44765 1.29448 0
M  V30 714 O 64.4123 0.610355 1.84675 0
M  V30 715 C 64.6953 3.60098 0.0129503 0
M  V30 716 C 64.5483 4.28441 -1.3696 0
M  V30 717 C 65.8673 4.34224 0.71678 0
M  V30 718 H 62.9863 0.736637 -0.0231407 0
M  V30 719 H 65.6283 1.74898 -0.742351 0
M  V30 720 H 63.7783 3.83926 0.594378 0
M  V30 721 H 65.4503 4.15896 -1.9957 0
M  V30 722 H 63.6933 3.8805 -1.93907 0
M  V30 723 H 64.3643 5.3716 -1.27135 0
M  V30 724 H 66.8403 4.15503 0.222908 0
M  V30 725 H 65.7163 5.43936 0.73657 0
M  V30 726 H 65.9773 4.04823 1.77682 0
M  V30 727 N 65.0364 0.313813 1.54444 0
M  V30 728 C 66.2764 -0.292389 2.02298 0
M  V30 729 C 66.6404 -1.50105 1.19719 0
M  V30 730 O 67.8414 -2.17947 1.5733 0
M  V30 731 C 66.1124 -0.627682 3.51845 0
M  V30 732 S 67.6714 -1.21493 4.21646 0
M  V30 733 H 64.4894 -0.0890247 0.705405 0
M  V30 734 H 67.0914 0.444668 1.90376 0
M  V30 735 H 65.7954 0.260265 4.09574 0
M  V30 736 H 65.3264 -1.39519 3.67829 0
M  V30 737 H 67.3414 -2.5022 4.28491 0
M  V30 738 N 66.5145 -1.57545 0.0417849 0
M  V30 739 C 67.7915 -1.83642 -0.673433 0
M  V30 740 C 68.1715 -0.928298 -1.89594 0
M  V30 741 O 67.5195 0.0129955 -2.28496 0
M  V30 742 C 67.7295 -3.33155 -1.03964 0
M  V30 743 C 69.0775 -3.99941 -1.42592 0
M  V30 744 O 70.1015 -3.37725 -1.13226 0
M  V30 745 O 68.9605 -5.09619 -1.9736 0
M  V30 746 H 66.0545 -0.757638 -0.331533 0
M  V30 747 H 68.6005 -1.69554 0.070433 0
M  V30 748 H 67.3725 -3.9093 -0.170098 0
M  V30 749 H 66.9955 -3.52396 -1.84126 0
M  V30 750 N 67.9926 0.231505 -1.5589 0
M  V30 751 C 69.2176 0.978689 -1.82856 0
M  V30 752 C 69.6426 1.77559 -0.620846 0
M  V30 753 O 69.0006 1.76119 0.430305 0
M  V30 754 C 69.0486 1.87997 -3.07716 0
M  V30 755 O 68.1526 2.97393 -2.85712 0
M  V30 756 H 67.4936 0.277663 -0.603158 0
M  V30 757 H 70.0236 0.24783 -2.03093 0
M  V30 758 H 70.0336 2.2917 -3.37558 0
M  V30 759 H 68.7086 1.29417 -3.95252 0
M  V30 760 H 67.2856 2.60238 -2.67078 0
M  V30 761 N 69.4707 1.49531 0.497807 0
M  V30 762 C 70.6987 1.62893 1.27567 0
M  V30 763 C 71.1137 0.301585 1.86376 0
M  V30 764 O 70.4707 -0.713335 1.67982 0
M  V30 765 C 70.5217 2.70013 2.40364 0
M  V30 766 O 70.2427 3.976 1.83972 0
M  V30 767 C 71.7437 2.94109 3.31685 0
M  V30 768 H 68.9637 0.548298 0.386794 0
M  V30 769 H 71.5077 1.95584 0.597245 0
M  V30 770 H 69.6627 2.40092 3.04031 0
M  V30 771 H 70.0767 4.56631 2.58047 0
M  V30 772 H 71.5507 3.72788 4.07104 0
M  V30 773 H 72.0277 2.04147 3.88871 0
M  V30 774 H 72.6337 3.2546 2.73781 0
M  V30 775 N 70.9488 -0.749086 1.3866 0
M  V30 776 C 71.8808 -1.87273 1.32142 0
M  V30 777 C 72.8938 -1.61127 0.232787 0
M  V30 778 O 74.0828 -1.71623 0.49069 0
M  V30 779 C 71.1828 -3.23005 1.02571 0
M  V30 780 C 70.3558 -3.7662 2.22433 0
M  V30 781 C 69.4148 -4.90879 1.89537 0
M  V30 782 O 68.4408 -5.05276 2.62078 0
M  V30 783 N 69.6428 -5.74198 0.853031 0
M  V30 784 H 72.4078 -1.93373 2.28969 0
M  V30 785 H 69.9688 -0.929216 1.32579 0
M  V30 786 H 71.9608 -3.96992 0.786085 0
M  V30 787 H 70.5308 -3.12262 0.145249 0
M  V30 788 H 69.7508 -2.94147 2.62434 0
M  V30 789 H 71.0388 -4.09173 3.02415 0
M  V30 790 H 70.4368 -5.6514 0.25155 0
M  V30 791 H 68.9938 -6.48313 0.67329 0
M  V30 792 N 72.4269 -1.23603 -0.977757 0
M  V30 793 C 73.3589 -0.977369 -2.07317 0
M  V30 794 C 74.3719 0.0495845 -1.62724 0
M  V30 795 O 75.5609 -0.186261 -1.77526 0
M  V30 796 C 72.6609 -0.451216 -3.35883 0
M  V30 797 C 71.8339 -1.53896 -4.09432 0
M  V30 798 C 70.8929 -1.01721 -5.16274 0
M  V30 799 O 69.9189 -1.70676 -5.43009 0
M  V30 800 N 71.1209 0.153594 -5.80297 0
M  V30 801 H 73.8859 -1.92047 -2.30082 0
M  V30 802 H 71.4469 -1.14497 -1.14465 0
M  V30 803 H 73.4389 -0.0871574 -4.04606 0
M  V30 804 H 72.0089 0.397368 -3.10064 0
M  V30 805 H 71.2289 -2.07566 -3.35127 0
M  V30 806 H 72.5169 -2.27037 -4.55337 0
M  V30 807 H 71.9149 0.730323 -5.60966 0
M  V30 808 H 70.4719 0.458892 -6.50183 0
M  V30 809 N 73.905 1.17692 -1.04816 0
M  V30 810 C 74.852 2.21581 -0.645797 0
M  V30 811 C 75.822 1.62367 0.350159 0
M  V30 812 O 77.007 1.89254 0.242433 0
M  V30 813 C 74.147 3.45092 -0.0227568 0
M  V30 814 C 73.26 4.18613 -1.06709 0
M  V30 815 C 72.395 5.29602 -0.411767 0
M  V30 816 C 71.434 5.94904 -1.44067 0
M  V30 817 N 70.571 6.97414 -0.809781 0
M  V30 818 H 75.411 2.55353 -1.5362 0
M  V30 819 H 72.948 1.25438 -0.768364 0
M  V30 820 H 74.906 4.15679 0.35588 0
M  V30 821 H 73.536 3.11917 0.831122 0
M  V30 822 H 72.588 3.46779 -1.5636 0
M  V30 823 H 73.9 4.63293 -1.84827 0
M  V30 824 H 73.054 6.06696 0.0206623 0
M  V30 825 H 71.793 4.86045 0.401438 0
M  V30 826 H 70.798 5.16544 -1.88316 0
M  V30 827 H 72.023 6.40542 -2.25571 0
M  V30 828 H 69.969 6.55998 -0.0170186 0
M  V30 829 H 69.886 7.40386 -1.52856 0
M  V30 830 H 71.154 7.78463 -0.401999 0
M  V30 831 N 75.3831 0.828654 1.34056 0
M  V30 832 C 76.6311 0.41863 1.97717 0
M  V30 833 C 76.9521 -1.02314 1.66002 0
M  V30 834 O 76.2221 -1.71119 0.953683 0
M  V30 835 H 74.8021 0.151809 0.731412 0
M  V30 836 H 77.4641 1.05936 1.63596 0
M  V30 837 H 76.5601 0.542318 3.07352 0
M  V30 838 N 76.8612 -1.46375 0.584142 0
M  V30 839 C 77.7942 -2.27351 -0.196676 0
M  V30 840 C 78.7722 -1.35715 -0.895561 0
M  V30 841 O 79.9562 -1.65126 -0.90916 0
M  V30 842 C 77.0832 -3.13486 -1.28235 0
M  V30 843 C 76.1292 -4.20896 -0.689145 0
M  V30 844 S 76.9622 -5.33299 0.48507 0
M  V30 845 C 78.1182 -6.23 -0.601767 0
M  V30 846 H 78.3512 -2.93228 0.490395 0
M  V30 847 H 75.8842 -1.49875 0.371071 0
M  V30 848 H 77.8422 -3.63676 -1.90395 0
M  V30 849 H 76.5032 -2.4692 -1.94138 0
M  V30 850 H 75.6962 -4.80997 -1.50527 0
M  V30 851 H 75.2982 -3.73726 -0.143181 0
M  V30 852 H 77.5902 -6.60979 -1.48705 0
M  V30 853 H 78.5332 -7.0809 -0.0374799 0
M  V30 854 H 78.9412 -5.57173 -0.906557 0
M  V30 855 N 78.3393 -0.321999 -1.54275 0
M  V30 856 C 79.7503 0.166384 -1.85957 0
M  V30 857 C 80.1013 1.51747 -1.24367 0
M  V30 858 O 79.2263 2.09317 -0.549124 0
M  V30 859 C 79.8213 0.308681 -3.37391 0
M  V30 860 C 78.3803 0.741286 -3.69028 0
M  V30 861 C 77.5273 -0.137937 -2.76957 0
M  V30 862 H 80.4783 -0.542335 -1.49146 0
M  V30 863 H 80.4993 1.13984 -3.63026 0
M  V30 864 H 80.0113 -0.674809 -3.82188 0
M  V30 865 H 78.1123 1.73458 -3.29762 0
M  V30 866 H 78.2253 0.546118 -4.75977 0
M  V30 867 H 76.5893 0.386251 -2.51754 0
M  V30 868 H 77.3723 -1.11816 -3.2458 0
M  V30 869 N 79.8174 1.5752 -0.0501392 0
M  V30 870 C 81.0644 1.9265 0.623874 0
M  V30 871 C 81.3924 0.928411 1.70912 0
M  V30 872 O 80.6474 -0.0594525 1.9561 0
M  V30 873 C 80.9464 3.34467 1.25963 0
M  V30 874 C 80.6124 4.49883 0.302689 0
M  V30 875 C 79.2744 4.81184 0.0393636 0
M  V30 876 C 81.6264 5.20002 -0.353205 0
M  V30 877 C 78.9544 5.79951 -0.887308 0
M  V30 878 C 81.3064 6.1976 -1.26806 0
M  V30 879 C 79.9704 6.49491 -1.54007 0
M  V30 880 H 79.2404 0.704957 0.228292 0
M  V30 881 H 81.8874 1.91146 -0.116398 0
M  V30 882 H 80.1924 3.32333 2.07514 0
M  V30 883 H 81.8894 3.58928 1.78806 0
M  V30 884 H 78.4794 4.25457 0.518109 0
M  V30 885 H 82.6634 4.96033 -0.162854 0
M  V30 886 H 77.9194 6.01322 -1.10553 0
M  V30 887 H 82.0934 6.73205 -1.78236 0
M  V30 888 H 79.7204 7.25837 -2.25976 0
M  V30 889 N 81.2955 -0.223234 1.56011 0
M  V30 890 C 82.2435 -1.29627 1.93131 0
M  V30 891 C 83.2375 -1.48608 0.813146 0
M  V30 892 O 84.4435 -1.49802 0.997966 0
M  V30 893 H 80.8185 -0.434563 0.613726 0
M  V30 894 H 82.7895 -0.955995 2.82672 0
M  V30 895 C 81.5385 -2.63983 2.26292 0
M  V30 896 H 80.8615 -2.50185 3.11846 0
M  V30 897 H 82.3015 -3.3788 2.56151 0
M  V30 898 C 80.7605 -3.18866 1.08747 0
M  V30 899 O 81.2905 -4.00192 0.347727 0
M  V30 900 N 79.4965 -2.77217 0.871743 0
M  V30 901 H 79.0435 -2.1119 1.47501 0
M  V30 902 H 79.0015 -3.1428 0.0869905 0
M  V30 903 N 82.7736 -1.49793 -0.48987 0
M  V30 904 C 84.0036 -1.6333 -1.26518 0
M  V30 905 C 84.4116 -0.308392 -1.8667 0
M  V30 906 O 83.7546 0.717512 -1.69108 0
M  V30 907 C 83.8166 -2.6522 -2.4269 0
M  V30 908 C 83.4806 -4.09279 -2.03321 0
M  V30 909 C 84.4776 -4.95738 -1.56652 0
M  V30 910 C 82.1626 -4.55082 -2.12616 0
M  V30 911 C 84.1566 -6.26041 -1.19795 0
M  V30 912 C 81.8436 -5.85396 -1.75371 0
M  V30 913 C 82.8416 -6.707 -1.29036 0
M  V30 914 O 82.5296 -7.98584 -0.92299 0
M  V30 915 H 82.2616 -0.552502 -0.389509 0
M  V30 916 H 84.8156 -1.96642 -0.593381 0
M  V30 917 H 83.0456 -2.27112 -3.12981 0
M  V30 918 H 84.7346 -2.68171 -3.04695 0
M  V30 919 H 85.5006 -4.61575 -1.48908 0
M  V30 920 H 81.3796 -3.88844 -2.47631 0
M  V30 921 H 84.9236 -6.92578 -0.835582 0
M  V30 922 H 80.8206 -6.19085 -1.82768 0
M  V30 923 H 81.5886 -8.11692 -1.05349 0
M  V30 924 N 84.2517 0.741722 -1.39055 0
M  V30 925 C 85.4817 1.52876 -1.3897 0
M  V30 926 C 85.8897 1.8919 0.0193266 0
M  V30 927 O 85.2327 1.54138 0.999356 0
M  V30 928 C 85.2947 2.84929 -2.19216 0
M  V30 929 C 84.9587 2.71086 -3.67915 0
M  V30 930 C 85.9557 2.40084 -4.61146 0
M  V30 931 C 83.6407 2.88168 -4.11418 0
M  V30 932 C 85.6347 2.26335 -5.95862 0
M  V30 933 C 83.3217 2.74037 -5.46211 0
M  V30 934 C 84.3197 2.43166 -6.38247 0
M  V30 935 O 84.0077 2.29115 -7.70559 0
M  V30 936 H 83.7397 0.479252 -0.476753 0
M  V30 937 H 86.2937 0.924751 -1.83405 0
M  V30 938 H 84.5237 3.47564 -1.69518 0
M  V30 939 H 86.2127 3.46509 -2.11392 0
M  V30 940 H 86.9787 2.26545 -4.28838 0
M  V30 941 H 82.8577 3.11191 -3.40119 0
M  V30 942 H 86.4017 2.0216 -6.67665 0
M  V30 943 H 82.2987 2.87153 -5.78112 0
M  V30 944 H 83.0667 2.44237 -7.81211 0
M  V30 945 N 85.7298 1.2412 0.971189 0
M  V30 946 C 86.6798 0.997551 2.05019 0
M  V30 947 C 87.6638 -0.0597747 1.60789 0
M  V30 948 O 88.8558 0.153516 1.76333 0
M  V30 949 C 85.9848 0.600557 3.38006 0
M  V30 950 C 85.0708 1.69377 3.88809 0
M  V30 951 N 85.4618 2.92586 4.12586 0
M  V30 952 C 83.7598 1.57048 4.17435 0
M  V30 953 C 84.4608 3.63431 4.54195 0
M  V30 954 N 83.4368 2.90979 4.59165 0
M  V30 955 H 87.2388 1.93316 2.21374 0
M  V30 956 H 84.7528 1.14194 1.1547 0
M  V30 957 H 86.7498 0.40725 4.14906 0
M  V30 958 H 85.4098 -0.327903 3.2304 0
M  V30 959 H 86.4208 3.288 4.00139 0
M  V30 960 H 83.0978 0.709798 4.11422 0
M  V30 961 H 84.4878 4.69102 4.81033 0
M  V30 962 N 87.2079 -1.17134 1.05439 0
M  V30 963 C 88.4559 -1.87085 0.764429 0
M  V30 964 C 88.7769 -1.81584 -0.710787 0
M  V30 965 O 88.0469 -1.24349 -1.51374 0
M  V30 966 H 86.6269 -0.692627 0.279779 0
M  V30 967 H 89.2889 -1.42087 1.33406 0
M  V30 968 H 88.3849 -2.92759 1.0816 0
M  V30 969 N 88.686 -0.835752 -1.33615 0
M  V30 970 C 89.633 -0.26473 -2.29277 0
M  V30 971 C 90.603 0.617712 -1.54187 0
M  V30 972 O 91.788 0.556641 -1.825 0
M  V30 973 C 88.928 0.556777 -3.40579 0
M  V30 974 C 88.041 -0.349339 -4.30585 0
M  V30 975 C 87.176 0.482969 -5.29 0
M  V30 976 C 86.215 -0.421732 -6.10645 0
M  V30 977 N 85.352 0.372262 -7.01112 0
M  V30 978 H 90.192 -1.08582 -2.77514 0
M  V30 979 H 87.729 -0.546927 -1.36554 0
M  V30 980 H 89.687 1.04852 -4.03809 0
M  V30 981 H 88.317 1.34286 -2.93542 0
M  V30 982 H 87.369 -0.959372 -3.68104 0
M  V30 983 H 88.681 -1.04445 -4.87742 0
M  V30 984 H 87.835 1.03866 -5.97743 0
M  V30 985 H 86.574 1.21153 -4.72412 0
M  V30 986 H 85.579 -0.989464 -5.40823 0
M  V30 987 H 86.804 -1.14861 -6.69316 0
M  V30 988 H 84.75 1.08426 -6.46977 0
M  V30 989 H 84.667 -0.264198 -7.55538 0
M  V30 990 H 85.935 0.910293 -7.74167 0
M  V30 991 N 90.1641 1.46063 -0.591896 0
M  V30 992 C 91.3921 2.06717 -0.0868936 0
M  V30 993 C 91.8071 1.43916 1.22203 0
M  V30 994 O 91.1641 0.547698 1.74088 0
M  V30 995 C 91.2151 3.6142 0.0758725 0
M  V30 996 O 90.9361 4.21874 -1.18126 0
M  V30 997 C 92.4371 4.39025 0.61416 0
M  V30 998 H 89.6571 0.668162 -0.0616518 0
M  V30 999 H 92.2011 1.8755 -0.815175 0
M  V30 1000 H 90.3561 3.79983 0.754413 0
M  V30 1001 H 90.7701 5.14861 -1.00092 0
M  V30 1002 H 92.2441 5.4783 0.677193 0
M  V30 1003 H 92.7211 4.07708 1.63312 0
M  V30 1004 H 93.3271 4.2529 -0.0298142 0
M  V30 1005 N 91.6422 0.330177 1.54103 0
M  V30 1006 C 92.8902 -0.269871 2.0029 0
M  V30 1007 C 93.2112 -1.52133 1.21986 0
M  V30 1008 O 92.4812 -1.93212 0.323438 0
M  V30 1009 H 91.0612 -0.10271 0.739905 0
M  V30 1010 H 93.7232 0.448249 1.89675 0
M  V30 1011 H 92.8192 -0.52166 3.07709 0
M  V30 1012 N 93.1203 -1.57491 0.0584922 0
M  V30 1013 C 94.0673 -2.11958 -0.913376 0
M  V30 1014 C 95.0373 -1.02875 -1.30407 0
M  V30 1015 O 96.2223 -1.30464 -1.39226 0
M  V30 1016 C 93.3623 -2.67497 -2.18035 0
M  V30 1017 C 92.4753 -3.90691 -1.84349 0
M  V30 1018 C 91.6103 -4.3452 -3.05559 0
M  V30 1019 C 90.6493 -5.50395 -2.67827 0
M  V30 1020 N 89.7863 -5.89244 -3.81754 0
M  V30 1021 H 94.6263 -2.94704 -0.442017 0
M  V30 1022 H 92.1633 -1.45643 -0.206545 0
M  V30 1023 H 94.1213 -2.978 -2.92183 0
M  V30 1024 H 92.7513 -1.87537 -2.62735 0
M  V30 1025 H 91.8033 -3.66934 -1.00319 0
M  V30 1026 H 93.1153 -4.7489 -1.5258 0
M  V30 1027 H 92.2693 -4.66414 -3.87998 0
M  V30 1028 H 91.0083 -3.49147 -3.40511 0
M  V30 1029 H 90.0133 -5.18165 -1.83806 0
M  V30 1030 H 91.2383 -6.3749 -2.34059 0
M  V30 1031 H 89.1843 -5.06823 -4.16493 0
M  V30 1032 H 89.1013 -6.68151 -3.53708 0
M  V30 1033 H 90.3693 -6.25756 -4.64811 0
M  V30 1034 N 94.5984 0.214957 -1.56127 0
M  V30 1035 C 95.8474 0.936451 -1.78643 0
M  V30 1036 C 96.1604 1.85237 -0.628229 0
M  V30 1037 O 97.3664 2.613 -0.737186 0
M  V30 1038 C 95.8224 1.7154 -3.16389 0
M  V30 1039 C 95.4304 0.845299 -4.39953 0
M  V30 1040 C 97.1744 2.42772 -3.48227 0
M  V30 1041 C 95.0814 1.62198 -5.68723 0
M  V30 1042 H 94.0114 0.353401 -0.666051 0
M  V30 1043 H 96.6624 0.190169 -1.82512 0
M  V30 1044 H 95.0444 2.50484 -3.06715 0
M  V30 1045 H 96.2184 0.0959353 -4.607 0
M  V30 1046 H 94.5334 0.244789 -4.1568 0
M  V30 1047 H 97.1304 3.01394 -4.41663 0
M  V30 1048 H 97.4734 3.15984 -2.71035 0
M  V30 1049 H 98.0064 1.70813 -3.5926 0
M  V30 1050 H 94.7454 0.933011 -6.48826 0
M  V30 1051 H 94.2654 2.34579 -5.52026 0
M  V30 1052 H 95.9444 2.18095 -6.09133 0
M  V30 1053 N 96.0765 1.50051 0.48192 0
M  V30 1054 C 97.3235 1.60498 1.23477 0
M  V30 1055 C 97.6515 0.300331 1.92167 0
M  V30 1056 O 96.9065 -0.713094 1.82246 0
M  V30 1057 C 97.2055 2.72717 2.30998 0
M  V30 1058 C 96.8715 4.13572 1.79636 0
M  V30 1059 C 95.5335 4.519 1.65348 0
M  V30 1060 C 97.8855 5.01649 1.41412 0
M  V30 1061 C 95.2135 5.76057 1.11244 0
M  V30 1062 C 97.5655 6.26343 0.887538 0
M  V30 1063 C 96.2295 6.63483 0.731207 0
M  V30 1064 H 95.4995 0.587303 0.451836 0
M  V30 1065 H 98.1465 1.83948 0.532468 0
M  V30 1066 H 96.4515 2.43312 3.07094 0
M  V30 1067 H 98.1485 2.78006 2.88988 0
M  V30 1068 H 94.7385 3.83329 1.91721 0
M  V30 1069 H 98.9225 4.72679 1.51289 0
M  V30 1070 H 94.1785 6.03516 0.978686 0
M  V30 1071 H 98.3525 6.93958 0.582654 0
M  V30 1072 H 95.9795 7.59568 0.309806 0
M  V30 1073 N 97.5546 -0.734337 1.39446 0
M  V30 1074 C 98.5046 -1.83949 1.34709 0
M  V30 1075 C 99.4886 -1.59279 0.227851 0
M  V30 1076 O 100.681 -1.70771 0.465438 0
M  V30 1077 C 97.8096 -3.21884 1.19356 0
M  V30 1078 C 96.8956 -3.52381 2.35984 0
M  V30 1079 N 97.2866 -3.53811 3.61457 0
M  V30 1080 C 95.5846 -3.82747 2.28956 0
M  V30 1081 C 96.2856 -3.82122 4.38586 0
M  V30 1082 N 95.2616 -3.9993 3.68181 0
M  V30 1083 H 99.0636 -1.83361 2.29687 0
M  V30 1084 H 96.5776 -0.932609 1.32952 0
M  V30 1085 H 98.5746 -4.00998 1.14046 0
M  V30 1086 H 97.2346 -3.23711 0.253295 0
M  V30 1087 H 98.2456 -3.35107 3.94872 0
M  V30 1088 H 94.9226 -3.92175 1.43194 0
M  V30 1089 H 96.3126 -3.89691 5.47349 0
M  V30 1090 N 99.0327 -1.24633 -0.964593 0
M  V30 1091 C 100.282 -1.08188 -1.7023 0
M  V30 1092 C 100.595 0.37873 -1.91898 0
M  V30 1093 O 101.801 0.663427 -2.6327 0
M  V30 1094 C 100.257 -1.88773 -3.06419 0
M  V30 1095 C 99.8647 -3.39263 -2.92582 0
M  V30 1096 C 101.609 -1.80867 -3.84041 0
M  V30 1097 C 99.5157 -4.1218 -4.24101 0
M  V30 1098 H 98.4457 -0.401245 -0.638372 0
M  V30 1099 H 101.097 -1.48742 -1.07462 0
M  V30 1100 H 99.4787 -1.41035 -3.70034 0
M  V30 1101 H 100.653 -3.94603 -2.37961 0
M  V30 1102 H 98.9677 -3.48154 -2.28424 0
M  V30 1103 H 101.565 -2.32646 -4.81435 0
M  V30 1104 H 101.908 -0.774543 -4.09031 0
M  V30 1105 H 102.441 -2.26301 -3.27159 0
M  V30 1106 H 99.1797 -5.15965 -4.04303 0
M  V30 1107 H 98.6997 -3.61626 -4.78526 0
M  V30 1108 H 100.379 -4.19349 -4.92702 0
M  V30 1109 N 100.511 1.16574 -1.06058 0
M  V30 1110 C 101.739 1.90952 -0.796552 0
M  V30 1111 C 102.154 1.77302 0.648808 0
M  V30 1112 O 101.511 1.11605 1.44397 0
M  V30 1113 C 101.562 3.41736 -1.17894 0
M  V30 1114 O 101.283 3.54975 -2.56758 0
M  V30 1115 C 102.784 4.33169 -0.942308 0
M  V30 1116 H 100.004 0.605594 -0.288959 0
M  V30 1117 H 102.548 1.47777 -1.41358 0
M  V30 1118 H 100.703 3.82623 -0.606491 0
M  V30 1119 H 101.117 4.4846 -2.72 0
M  V30 1120 H 102.591 5.37439 -1.25952 0
M  V30 1121 H 103.068 4.3903 0.122078 0
M  V30 1122 H 103.674 3.98007 -1.49902 0
M  V30 1123 N 101.989 0.842826 1.3317 0
M  V30 1124 C 102.936 0.276885 2.29133 0
M  V30 1125 C 103.906 -0.609527 1.54512 0
M  V30 1126 O 105.091 -0.546955 1.82792 0
M  V30 1127 C 102.231 -0.538707 3.40869 0
M  V30 1128 C 101.344 0.372169 4.30394 0
M  V30 1129 C 100.479 -0.454908 5.29249 0
M  V30 1130 C 99.5179 0.45411 6.10413 0
M  V30 1131 N 98.6549 -0.335075 7.013 0
M  V30 1132 H 103.495 1.10052 2.76934 0
M  V30 1133 H 101.032 0.554161 1.36262 0
M  V30 1134 H 102.99 -1.02709 4.0436 0
M  V30 1135 H 101.62 -1.32727 2.9425 0
M  V30 1136 H 100.672 0.97888 3.6759 0
M  V30 1137 H 101.984 1.0703 4.87182 0
M  V30 1138 H 101.138 -1.00695 5.98285 0
M  V30 1139 H 99.8769 -1.18646 4.73048 0
M  V30 1140 H 98.8819 1.01813 5.40291 0
M  V30 1141 H 100.107 1.18409 6.68697 0
M  V30 1142 H 98.0529 -1.04994 6.47543 0
M  V30 1143 H 97.9699 0.304262 7.55387 0
M  V30 1144 H 99.2379 -0.869224 7.74638 0
M  V30 1145 N 103.467 -1.45747 0.599634 0
M  V30 1146 C 104.883 -1.57424 0.26264 0
M  V30 1147 C 105.083 -1.59222 -1.23493 0
M  V30 1148 O 104.139 -1.51825 -2.01756 0
M  V30 1149 C 105.452 -2.86061 0.926795 0
M  V30 1150 C 107 -2.99722 0.901967 0
M  V30 1151 C 107.475 -4.31119 1.54598 0
M  V30 1152 N 108.966 -4.37858 1.5111 0
M  V30 1153 C 109.701 -5.3818 1.97863 0
M  V30 1154 N 109.197 -6.45083 2.52666 0
M  V30 1155 N 110.99 -5.29487 1.88679 0
M  V30 1156 H 103.141 -1.42823 1.57211 0
M  V30 1157 H 105.404 -0.68235 0.658105 0
M  V30 1158 H 105.11 -2.90605 1.98095 0
M  V30 1159 H 104.984 -3.74563 0.445238 0
M  V30 1160 H 107.371 -2.9475 -0.143617 0
M  V30 1161 H 107.452 -2.12652 1.42171 0
M  V30 1162 H 107.096 -4.36849 2.59085 0
M  V30 1163 H 107.026 -5.16992 1.00132 0
M  V30 1164 H 109.517 -3.61209 1.11068 0
M  V30 1165 H 109.83 -7.17869 2.86155 0
M  V30 1166 H 108.175 -6.45856 2.56701 0
M  V30 1167 H 111.366 -4.44877 1.4561 0
M  V30 1168 H 111.539 -6.07524 2.25429 0
M  V30 1169 N 104.945 -0.338344 -1.53925 0
M  V30 1170 C 106.193 0.259245 -2.0043 0
M  V30 1171 C 106.514 1.51484 -1.22791 0
M  V30 1172 O 105.784 1.93037 -0.33368 0
M  V30 1173 H 104.364 0.0987845 -0.740439 0
M  V30 1174 H 107.026 -0.458302 -1.89435 0
M  V30 1175 H 106.122 0.505334 -3.07982 0
M  V30 1176 N 106.423 1.57458 -0.0668435 0
M  V30 1177 C 107.669 1.93587 0.6043 0
M  V30 1178 C 108.002 0.946722 1.69561 0
M  V30 1179 O 107.277 -0.0248516 1.94484 0
M  V30 1180 C 107.56 3.40014 1.18585 0
M  V30 1181 C 107.413 4.49685 0.101529 0
M  V30 1182 C 108.732 3.87154 2.09284 0
M  V30 1183 H 105.851 0.703958 0.218202 0
M  V30 1184 H 108.493 1.89542 -0.131804 0
M  V30 1185 H 106.643 3.43592 1.81319 0
M  V30 1186 H 108.315 4.5823 -0.531279 0
M  V30 1187 H 106.558 4.30059 -0.568487 0
M  V30 1188 H 107.229 5.49266 0.54874 0
M  V30 1189 H 109.705 3.85551 1.56491 0
M  V30 1190 H 108.581 4.90231 2.46911 0
M  V30 1191 H 108.842 3.2481 2.99918 0
M  V30 1192 N 107.901 -0.206675 1.56239 0
M  V30 1193 C 109.149 -0.927007 1.79586 0
M  V30 1194 C 109.47 -1.8427 0.637929 0
M  V30 1195 O 108.74 -1.92849 -0.344398 0
M  V30 1196 H 107.32 -0.345292 0.662407 0
M  V30 1197 H 109.982 -0.21496 1.93711 0
M  V30 1198 H 109.078 -1.52501 2.72305 0
M  V30 1199 N 109.379 -1.50304 -0.473955 0
M  V30 1200 C 110.625 -1.61389 -1.22806 0
M  V30 1201 C 110.958 -0.311955 -1.91678 0
M  V30 1202 O 110.233 0.686384 -1.81986 0
M  V30 1203 C 110.516 -2.79219 -2.27396 0
M  V30 1204 C 110.369 -4.19286 -1.62848 0
M  V30 1205 C 111.688 -2.92614 -3.28732 0
M  V30 1206 H 108.807 -0.587399 -0.445119 0
M  V30 1207 H 111.449 -1.82681 -0.522265 0
M  V30 1208 H 109.599 -2.61195 -2.87592 0
M  V30 1209 H 111.271 -4.48892 -1.06271 0
M  V30 1210 H 109.514 -4.23677 -0.931693 0
M  V30 1211 H 110.185 -4.97655 -2.38838 0
M  V30 1212 H 112.661 -3.09105 -2.78556 0
M  V30 1213 H 111.537 -3.76688 -3.99246 0
M  V30 1214 H 111.798 -2.03107 -3.92683 0
M  V30 1215 N 110.857 0.726932 -1.39834 0
M  V30 1216 C 111.787 1.85405 -1.41941 0
M  V30 1217 C 112.768 1.67751 -0.281728 0
M  V30 1218 O 113.953 1.8795 -0.488717 0
M  V30 1219 C 111.083 3.23243 -1.2701 0
M  V30 1220 C 110.037 3.55549 -2.38262 0
M  V30 1221 C 109.363 4.9241 -2.08415 0
M  V30 1222 C 110.663 3.577 -3.80589 0
M  V30 1223 H 112.357 1.83899 -2.36266 0
M  V30 1224 H 109.903 0.883349 -1.13723 0
M  V30 1225 H 111.856 4.01775 -1.27103 0
M  V30 1226 H 110.58 3.25296 -0.291564 0
M  V30 1227 H 109.239 2.79351 -2.37399 0
M  V30 1228 H 108.887 4.91052 -1.0898 0
M  V30 1229 H 108.587 5.14992 -2.82943 0
M  V30 1230 H 110.111 5.73289 -2.10171 0
M  V30 1231 H 111.525 4.26293 -3.83337 0
M  V30 1232 H 109.922 3.91804 -4.54543 0
M  V30 1233 H 110.992 2.57328 -4.10987 0
M  V30 1234 N 112.336 1.25143 0.95797 0
M  V30 1235 C 113.582 1.09855 1.70469 0
M  V30 1236 C 113.915 -0.360187 1.90831 0
M  V30 1237 O 113.19 -1.26568 1.47685 0
M  V30 1238 C 113.473 1.8497 3.08963 0
M  V30 1239 C 113.326 3.38652 2.96032 0
M  V30 1240 C 114.645 1.63016 4.08795 0
M  V30 1241 H 111.764 0.400465 0.618706 0
M  V30 1242 H 114.406 1.53933 1.11376 0
M  V30 1243 H 112.556 1.47505 3.59409 0
M  V30 1244 H 114.228 3.85772 2.52938 0
M  V30 1245 H 112.471 3.66534 2.32025 0
M  V30 1246 H 113.142 3.8642 3.94187 0
M  V30 1247 H 115.618 1.95625 3.67247 0
M  V30 1248 H 114.494 2.18015 5.03747 0
M  V30 1249 H 114.755 0.570692 4.38401 0
M  V30 1250 N 113.814 -1.1601 1.06675 0
M  V30 1251 C 114.762 -2.22586 0.675157 0
M  V30 1252 C 115.756 -1.66525 -0.310766 0
M  V30 1253 O 116.962 -1.79145 -0.175215 0
M  V30 1254 H 113.337 -0.724855 0.200223 0
M  V30 1255 H 115.308 -2.52899 1.58381 0
M  V30 1256 C 114.057 -3.47604 0.0817162 0
M  V30 1257 H 113.38 -3.91058 0.831484 0
M  V30 1258 H 114.82 -4.23718 -0.154708 0
M  V30 1259 C 113.279 -3.15718 -1.17576 0
M  V30 1260 O 113.809 -3.31878 -2.26318 0
M  V30 1261 N 112.015 -2.69816 -1.07923 0
M  V30 1262 H 111.562 -2.56866 -0.194293 0
M  V30 1263 H 111.52 -2.48855 -1.92141 0
M  V30 1264 N 115.292 -0.849877 -1.32721 0
M  V30 1265 C 116.239 -0.289033 -2.28983 0
M  V30 1266 C 117.209 0.601324 -1.54833 0
M  V30 1267 O 118.394 0.537253 -1.8308 0
M  V30 1268 C 115.534 0.520623 -3.4115 0
M  V30 1269 C 114.647 -0.394989 -4.3019 0
M  V30 1270 C 113.782 0.426834 -5.29482 0
M  V30 1271 C 112.821 -0.486476 -6.10164 0
M  V30 1272 N 111.958 0.297879 -7.01468 0
M  V30 1273 H 116.798 -1.11519 -2.76347 0
M  V30 1274 H 114.335 -0.56138 -1.35967 0
M  V30 1275 H 116.293 1.00563 -4.04899 0
M  V30 1276 H 114.923 1.31165 -2.9495 0
M  V30 1277 H 113.975 -0.99836 -3.67065 0
M  V30 1278 H 115.287 -1.09612 -4.86607 0
M  V30 1279 H 114.441 0.975205 -5.98811 0
M  V30 1280 H 113.18 1.16136 -4.73671 0
M  V30 1281 H 112.185 -1.04677 -5.39743 0
M  V30 1282 H 113.41 -1.21953 -6.6806 0
M  V30 1283 H 111.356 1.01558 -6.48091 0
M  V30 1284 H 111.273 -0.344318 -7.55216 0
M  V30 1285 H 112.541 0.828131 -7.75089 0
M  V30 1286 N 116.77 1.45427 -0.607355 0
M  V30 1287 C 118.186 1.57283 -0.270985 0
M  V30 1288 C 118.386 1.59875 1.22647 0
M  V30 1289 O 117.442 1.52893 2.00948 0
M  V30 1290 C 118.755 2.85566 -0.941952 0
M  V30 1291 C 120.303 2.9924 -0.917849 0
M  V30 1292 C 120.778 4.30293 -1.56882 0
M  V30 1293 N 122.269 4.37051 -1.5343 0
M  V30 1294 C 123.004 5.37123 -2.00715 0
M  V30 1295 N 122.5 6.43734 -2.56084 0
M  V30 1296 N 124.293 5.28479 -1.91484 0
M  V30 1297 H 116.444 1.41988 -1.57966 0
M  V30 1298 H 118.707 0.67885 -0.661715 0
M  V30 1299 H 118.413 2.8955 -1.99633 0
M  V30 1300 H 118.287 3.74322 -0.465096 0
M  V30 1301 H 120.674 2.94822 0.127984 0
M  V30 1302 H 120.755 2.11895 -1.43297 0
M  V30 1303 H 120.399 4.35469 -2.61398 0
M  V30 1304 H 120.329 5.16454 -1.02873 0
M  V30 1305 H 122.82 3.60615 -1.12982 0
M  V30 1306 H 123.133 7.16341 -2.89958 0
M  V30 1307 H 121.478 6.44485 -2.60122 0
M  V30 1308 H 124.669 4.44098 -1.47967 0
M  V30 1309 H 124.842 6.0632 -2.28648 0
M  V30 1310 N 118.248 0.346503 1.53744 0
M  V30 1311 C 119.494 -0.249473 2.0126 0
M  V30 1312 C 119.827 -1.49965 1.23386 0
M  V30 1313 O 119.102 -1.91811 0.32229 0
M  V30 1314 C 119.385 -0.560643 3.55709 0
M  V30 1315 C 119.238 0.701836 4.44291 0
M  V30 1316 C 120.557 -1.36905 4.18264 0
M  V30 1317 H 117.676 -0.0891987 0.731582 0
M  V30 1318 H 120.318 0.467624 1.84156 0
M  V30 1319 H 118.468 -1.17156 3.70414 0
M  V30 1320 H 120.14 1.33974 4.41417 0
M  V30 1321 H 118.383 1.32612 4.13033 0
M  V30 1322 H 119.054 0.43933 5.50249 0
M  V30 1323 H 121.53 -0.852448 4.07275 0
M  V30 1324 H 120.406 -1.55553 5.26398 0
M  V30 1325 H 120.667 -2.37203 3.73078 0
M  V30 1326 N 119.726 -1.57421 0.075193 0
M  V30 1327 C 120.673 -2.12915 -0.890843 0
M  V30 1328 C 121.643 -1.04252 -1.29309 0
M  V30 1329 O 122.828 -1.31933 -1.37834 0
M  V30 1330 C 119.968 -2.69795 -2.15186 0
M  V30 1331 C 119.081 -3.92624 -1.80194 0
M  V30 1332 C 118.216 -4.37736 -3.00933 0
M  V30 1333 C 117.255 -5.53205 -2.61974 0
M  V30 1334 N 116.392 -5.9326 -3.75483 0
M  V30 1335 H 121.232 -2.95156 -0.410735 0
M  V30 1336 H 118.769 -1.45854 -0.191086 0
M  V30 1337 H 120.727 -3.00883 -2.89008 0
M  V30 1338 H 119.357 -1.90313 -2.60731 0
M  V30 1339 H 118.409 -3.67977 -0.964218 0
M  V30 1340 H 119.721 -4.76482 -1.47534 0
M  V30 1341 H 118.875 -4.70503 -3.8303 0
M  V30 1342 H 117.614 -3.52739 -3.36789 0
M  V30 1343 H 116.619 -5.20086 -1.783 0
M  V30 1344 H 117.844 -6.39936 -2.27284 0
M  V30 1345 H 115.79 -5.11212 -4.11094 0
M  V30 1346 H 115.707 -6.71865 -3.46602 0
M  V30 1347 H 116.975 -6.30651 -4.58148 0
M  V30 1348 N 121.204 0.198386 -1.56346 0
M  V30 1349 C 122.154 1.2499 -1.90687 0
M  V30 1350 C 123.138 1.41158 -0.772217 0
M  V30 1351 O 124.33 1.43584 -1.03502 0
M  V30 1352 C 121.459 2.59542 -2.24706 0
M  V30 1353 C 120.545 2.47181 -3.44619 0
M  V30 1354 N 120.936 2.04495 -4.62618 0
M  V30 1355 C 119.234 2.78082 -3.48692 0
M  V30 1356 C 119.935 2.03945 -5.44776 0
M  V30 1357 N 118.911 2.45323 -4.85095 0
M  V30 1358 H 122.713 0.911149 -2.7942 0
M  V30 1359 H 120.227 0.40684 -1.57221 0
M  V30 1360 H 122.224 3.3549 -2.47491 0
M  V30 1361 H 120.884 2.94244 -1.37298 0
M  V30 1362 H 121.895 1.75256 -4.87345 0
M  V30 1363 H 118.572 3.17002 -2.71691 0
M  V30 1364 H 119.962 1.72872 -6.4928 0
M  V30 1365 N 122.682 1.50554 0.465978 0
M  V30 1366 C 124.098 1.38093 0.800154 0
M  V30 1367 C 124.298 0.440988 1.96615 0
M  V30 1368 O 123.354 -0.114499 2.5224 0
M  V30 1369 C 124.667 2.79565 1.10742 0
M  V30 1370 C 126.215 2.88516 1.21357 0
M  V30 1371 C 126.69 4.30833 1.55393 0
M  V30 1372 N 128.181 4.33807 1.62375 0
M  V30 1373 C 128.916 5.40927 1.90225 0
M  V30 1374 N 128.412 6.58247 2.16062 0
M  V30 1375 N 130.205 5.28376 1.9177 0
M  V30 1376 H 122.356 2.10237 -0.302366 0
M  V30 1377 H 124.619 0.945203 -0.0727746 0
M  V30 1378 H 124.325 3.50208 0.323661 0
M  V30 1379 H 124.199 3.17125 2.04234 0
M  V30 1380 H 126.586 2.1809 1.98799 0
M  V30 1381 H 126.667 2.54492 0.258321 0
M  V30 1382 H 126.311 5.01799 0.784889 0
M  V30 1383 H 126.241 4.62347 2.52076 0
M  V30 1384 H 128.732 3.49212 1.44427 0
M  V30 1385 H 129.045 7.3569 2.36601 0
M  V30 1386 H 127.39 6.61413 2.13444 0
M  V30 1387 H 130.581 4.35715 1.71085 0
M  V30 1388 H 130.754 6.11944 2.13139 0
M  V30 1389 N 124.16 -0.719506 1.40217 0
M  V30 1390 C 125.409 -1.47486 1.37589 0
M  V30 1391 C 125.722 -1.9559 -0.0201568 0
M  V30 1392 O 126.928 -2.70973 -0.169049 0
M  V30 1393 C 125.384 -2.66575 2.41796 0
M  V30 1394 C 124.992 -2.25358 3.87192 0
M  V30 1395 C 126.736 -3.4433 2.48269 0
M  V30 1396 C 124.643 -3.41262 4.83005 0
M  V30 1397 H 123.573 -0.553901 0.511576 0
M  V30 1398 H 126.224 -0.783427 1.65936 0
M  V30 1399 H 124.606 -3.3787 2.06543 0
M  V30 1400 H 125.78 -1.61509 4.31569 0
M  V30 1401 H 124.095 -1.60657 3.84159 0
M  V30 1402 H 126.692 -4.30569 3.17041 0
M  V30 1403 H 127.035 -3.87872 1.51198 0
M  V30 1404 H 127.568 -2.80076 2.82493 0
M  V30 1405 H 124.307 -3.02755 5.81394 0
M  V30 1406 H 123.827 -4.0404 4.43297 0
M  V30 1407 H 125.506 -4.07383 5.02641 0
M  V30 1408 N 125.638 -1.25649 -0.95132 0
M  V30 1409 C 126.548 -1.08073 -2.08224 0
M  V30 1410 C 127.564 -0.0169666 -1.73992 0
M  V30 1411 O 128.74 -0.218593 -2.0021 0
M  V30 1412 C 125.805 -0.704922 -3.39458 0
M  V30 1413 C 124.866 -1.84699 -3.87537 0
M  V30 1414 C 124.099 -1.48902 -5.12508 0
M  V30 1415 O 124.322 -0.386156 -5.69091 0
M  V30 1416 O 123.256 -2.32033 -5.55378 0
M  V30 1417 H 127.082 -2.02924 -2.25954 0
M  V30 1418 H 124.667 -1.04618 -1.06656 0
M  V30 1419 H 126.549 -0.507609 -4.18332 0
M  V30 1420 H 125.224 0.214291 -3.2299 0
M  V30 1421 H 124.131 -2.09919 -3.09653 0
M  V30 1422 H 125.464 -2.74557 -4.08509 0
M  V30 1423 N 127.117 1.15442 -1.07289 0
M  V30 1424 C 128.049 2.19773 -0.650585 0
M  V30 1425 C 129.062 1.60076 0.296572 0
M  V30 1426 O 130.251 1.78293 0.0859905 0
M  V30 1427 C 127.351 3.38838 0.0650398 0
M  V30 1428 C 126.524 4.2808 -0.898141 0
M  V30 1429 C 125.583 5.2574 -0.219926 0
M  V30 1430 O 124.609 5.62654 -0.860773 0
M  V30 1431 N 125.811 5.71205 1.03466 0
M  V30 1432 H 128.576 2.56622 -1.54808 0
M  V30 1433 H 126.137 1.30551 -0.957494 0
M  V30 1434 H 128.129 4.01222 0.529415 0
M  V30 1435 H 126.699 3.00409 0.864466 0
M  V30 1436 H 125.919 3.62804 -1.54165 0
M  V30 1437 H 127.207 4.84577 -1.5512 0
M  V30 1438 H 126.605 5.43325 1.57526 0
M  V30 1439 H 125.162 6.35633 1.44272 0
M  V30 1440 N 128.595 0.856903 1.32268 0
M  V30 1441 C 129.542 0.301172 2.28827 0
M  V30 1442 C 130.512 -0.593104 1.5515 0
M  V30 1443 O 131.697 -0.527537 1.83362 0
M  V30 1444 C 128.837 -0.502523 3.41422 0
M  V30 1445 C 127.95 0.417797 4.29975 0
M  V30 1446 C 127.085 -0.398749 5.29701 0
M  V30 1447 C 126.124 0.518827 6.09897 0
M  V30 1448 N 125.261 -0.260674 7.01616 0
M  V30 1449 H 130.101 1.12983 2.75751 0
M  V30 1450 H 127.638 0.568582 1.35667 0
M  V30 1451 H 129.596 -0.984141 4.05426 0
M  V30 1452 H 128.226 -1.29599 2.95642 0
M  V30 1453 H 127.278 1.01781 3.66531 0
M  V30 1454 H 128.59 1.12191 4.86019 0
M  V30 1455 H 127.744 -0.943435 5.9932 0
M  V30 1456 H 126.483 -1.13622 4.7428 0
M  V30 1457 H 125.488 1.07538 5.39181 0
M  V30 1458 H 126.713 1.25495 6.67404 0
M  V30 1459 H 124.659 -0.981198 6.4862 0
M  V30 1460 H 124.576 0.384364 7.55022 0
M  V30 1461 H 125.844 -0.787014 7.75517 0
M  V30 1462 N 130.073 -1.45103 0.615059 0
M  V30 1463 C 131.02 -2.30586 -0.0993978 0
M  V30 1464 C 131.99 -1.42544 -0.852669 0
M  V30 1465 O 133.175 -1.71465 -0.836917 0
M  V30 1466 C 130.315 -3.27572 -1.08583 0
M  V30 1467 C 129.428 -4.30717 -0.332656 0
M  V30 1468 C 128.563 -5.14807 -1.30947 0
M  V30 1469 C 127.602 -6.09673 -0.544538 0
M  V30 1470 N 126.739 -6.86517 -1.47101 0
M  V30 1471 H 131.579 -2.91144 0.635542 0
M  V30 1472 H 129.116 -1.4346 0.325206 0
M  V30 1473 H 131.074 -3.82276 -1.67095 0
M  V30 1474 H 129.704 -2.68751 -1.78809 0
M  V30 1475 H 128.756 -3.78615 0.368107 0
M  V30 1476 H 130.068 -4.98102 0.263842 0
M  V30 1477 H 129.222 -5.73948 -1.96643 0
M  V30 1478 H 127.961 -4.47458 -1.9399 0
M  V30 1479 H 126.966 -5.49656 0.126003 0
M  V30 1480 H 128.191 -6.79052 0.080947 0
M  V30 1481 H 126.137 -6.21851 -2.08895 0
M  V30 1482 H 126.054 -7.50281 -0.928137 0
M  V30 1483 H 127.322 -7.50194 -2.11731 0
M  V30 1484 N 131.551 -0.354651 -1.53558 0
M  V30 1485 C 132.797 0.238797 -2.01389 0
M  V30 1486 C 133.13 1.49309 -1.2418 0
M  V30 1487 O 132.405 1.91638 -0.332457 0
M  V30 1488 C 132.688 0.541771 -3.56001 0
M  V30 1489 C 132.541 -0.725388 -4.43912 0
M  V30 1490 C 133.86 1.34685 -4.18984 0
M  V30 1491 H 130.979 0.0853177 -0.732045 0
M  V30 1492 H 133.621 -0.477384 -1.83905 0
M  V30 1493 H 131.771 1.15189 -3.71031 0
M  V30 1494 H 133.443 -1.36313 -4.407 0
M  V30 1495 H 131.686 -1.34801 -4.12324 0
M  V30 1496 H 132.357 -0.468505 -5.50008 0
M  V30 1497 H 134.833 0.830837 -4.07721 0
M  V30 1498 H 133.709 1.52759 -5.27215 0
M  V30 1499 H 133.97 2.35221 -3.74331 0
M  V30 1500 N 133.029 1.57378 -0.0835403 0
M  V30 1501 C 134.269 1.95808 0.586381 0
M  V30 1502 C 134.633 0.963706 1.66062 0
M  V30 1503 O 135.834 1.23608 2.38693 0
M  V30 1504 C 134.105 3.38808 1.13771 0
M  V30 1505 S 135.664 3.99225 1.82112 0
M  V30 1506 H 132.482 0.684675 0.191679 0
M  V30 1507 H 135.084 1.94843 -0.160194 0
M  V30 1508 H 133.788 4.08954 0.344197 0
M  V30 1509 H 133.319 3.43344 1.92038 0
M  V30 1510 H 135.334 3.87087 3.10449 0
M  V30 1511 N 134.507 -0.190092 1.56449 0
M  V30 1512 C 135.753 -0.911052 1.81184 0
M  V30 1513 C 136.086 -1.82699 0.658396 0
M  V30 1514 O 135.361 -1.91491 -0.340775 0
M  V30 1515 C 135.644 -1.72297 3.16205 0
M  V30 1516 C 135.497 -0.831419 4.42049 0
M  V30 1517 C 136.816 -2.69454 3.47969 0
M  V30 1518 H 133.935 -0.32977 0.659106 0
M  V30 1519 H 136.577 -0.178169 1.89163 0
M  V30 1520 H 134.727 -2.34778 3.09534 0
M  V30 1521 H 136.399 -0.220929 4.60771 0
M  V30 1522 H 134.642 -0.138406 4.33579 0
M  V30 1523 H 135.313 -1.43461 5.33032 0
M  V30 1524 H 137.789 -2.17104 3.54972 0
M  V30 1525 H 136.665 -3.23342 4.43555 0
M  V30 1526 H 136.926 -3.48744 2.71717 0
M  V30 1527 N 135.985 -1.50799 -0.457987 0
M  V30 1528 C 137.401 -1.38515 -0.792819 0
M  V30 1529 C 137.601 -0.451409 -1.96379 0
M  V30 1530 O 136.657 0.10112 -2.52297 0
M  V30 1531 C 137.97 -2.80149 -1.09258 0
M  V30 1532 C 139.518 -2.89156 -1.19825 0
M  V30 1533 C 139.993 -4.31651 -1.53106 0
M  V30 1534 N 141.484 -4.34662 -1.60072 0
M  V30 1535 C 142.219 -5.41928 -1.87354 0
M  V30 1536 N 141.715 -6.59384 -2.12568 0
M  V30 1537 N 143.508 -5.29385 -1.88965 0
M  V30 1538 H 135.659 -2.10073 0.313511 0
M  V30 1539 H 137.922 -0.944803 0.0777862 0
M  V30 1540 H 137.628 -3.50374 -0.305084 0
M  V30 1541 H 137.502 -3.18204 -2.02549 0
M  V30 1542 H 139.889 -2.19141 -1.97639 0
M  V30 1543 H 139.97 -2.54626 -0.244821 0
M  V30 1544 H 139.614 -5.02208 -0.758266 0
M  V30 1545 H 139.544 -4.63678 -2.49621 0
M  V30 1546 H 142.035 -3.49973 -1.42573 0
M  V30 1547 H 142.348 -7.36934 -2.32696 0
M  V30 1548 H 140.693 -6.62535 -2.09933 0
M  V30 1549 H 143.884 -4.36616 -1.68772 0
M  V30 1550 H 144.057 -6.13066 -2.09891 0
M  V30 1551 N 137.463 0.71206 -1.40597 0
M  V30 1552 C 138.712 1.46754 -1.38369 0
M  V30 1553 C 139.025 1.95598 0.0097839 0
M  V30 1554 O 140.231 2.71059 0.154677 0
M  V30 1555 C 138.687 2.65289 -2.43207 0
M  V30 1556 C 138.295 2.23301 -3.88382 0
M  V30 1557 C 140.039 3.43008 -2.50091 0
M  V30 1558 C 137.946 3.38696 -4.84808 0
M  V30 1559 H 136.876 0.55118 -0.514506 0
M  V30 1560 H 139.527 0.774616 -1.66349 0
M  V30 1561 H 137.909 3.36769 -2.08332 0
M  V30 1562 H 139.083 1.59218 -4.32419 0
M  V30 1563 H 137.398 1.58618 -3.85006 0
M  V30 1564 H 139.995 4.28881 -3.1932 0
M  V30 1565 H 140.338 3.87065 -1.53253 0
M  V30 1566 H 140.871 2.78574 -2.83974 0
M  V30 1567 H 137.61 2.99668 -5.82992 0
M  V30 1568 H 137.13 4.01683 -4.45433 0
M  V30 1569 H 138.809 4.04712 -5.04794 0
M  V30 1570 N 138.941 1.26152 0.944643 0
M  V30 1571 C 139.851 1.09176 2.07648 0
M  V30 1572 C 140.867 0.0261935 1.7398 0
M  V30 1573 O 142.043 0.229208 2.00091 0
M  V30 1574 C 139.108 0.722915 3.39079 0
M  V30 1575 C 138.169 1.86752 3.86552 0
M  V30 1576 C 137.402 1.51617 5.11711 0
M  V30 1577 O 137.625 0.416331 5.68879 0
M  V30 1578 O 136.559 2.34975 5.54139 0
M  V30 1579 H 140.385 2.0412 2.24875 0
M  V30 1580 H 137.97 1.05182 1.061 0
M  V30 1581 H 139.852 0.529787 4.18056 0
M  V30 1582 H 138.527 -0.197159 3.23099 0
M  V30 1583 H 137.434 2.11558 3.08535 0
M  V30 1584 H 138.767 2.76719 4.07047 0
M  V30 1585 N 140.419 -1.14872 1.07899 0
M  V30 1586 C 141.369 -2.17809 0.674027 0
M  V30 1587 C 142.353 -1.58008 -0.303699 0
M  V30 1588 O 143.545 -1.76616 -0.11654 0
M  V30 1589 C 140.674 -3.43208 0.0793318 0
M  V30 1590 C 139.76 -4.10051 1.08253 0
M  V30 1591 N 140.151 -4.52296 2.2641 0
M  V30 1592 C 138.449 -4.36469 0.917124 0
M  V30 1593 C 139.15 -5.04199 2.901 0
M  V30 1594 N 138.126 -4.98088 2.17736 0
M  V30 1595 H 141.928 -2.48207 1.57386 0
M  V30 1596 H 139.442 -1.315 0.952976 0
M  V30 1597 H 141.439 -4.16272 -0.228719 0
M  V30 1598 H 140.099 -3.14291 -0.815551 0
M  V30 1599 H 141.11 -4.45504 2.64096 0
M  V30 1600 H 137.787 -4.17432 0.0756078 0
M  V30 1601 H 139.177 -5.46802 3.90458 0
M  V30 1602 N 141.898 -0.863906 -1.31812 0
M  V30 1603 C 143.144 -0.472535 -1.97218 0
M  V30 1604 C 143.477 0.971394 -1.68159 0
M  V30 1605 O 142.752 1.68309 -0.974798 0
M  V30 1606 C 143.035 -0.723054 -3.52766 0
M  V30 1607 C 142.888 -2.21608 -3.91421 0
M  V30 1608 C 144.207 -0.185522 -4.39709 0
M  V30 1609 H 141.326 -0.173158 -0.71637 0
M  V30 1610 H 143.968 -1.08403 -1.56041 0
M  V30 1611 H 142.118 -0.202577 -3.87971 0
M  V30 1612 H 143.79 -2.80334 -3.66347 0
M  V30 1613 H 142.033 -2.691 -3.40246 0
M  V30 1614 H 142.704 -2.34203 -4.99853 0
M  V30 1615 H 145.18 -0.630726 -4.11292 0
M  V30 1616 H 144.056 -0.390306 -5.47511 0
M  V30 1617 H 144.317 0.912229 -4.32586 0
M  V30 1618 N 143.376 1.44774 -0.622745 0
M  V30 1619 C 144.792 1.56986 -0.287652 0
M  V30 1620 C 144.992 1.61167 1.20944 0
M  V30 1621 O 144.048 1.55015 1.99315 0
M  V30 1622 C 145.361 2.84551 -0.972188 0
M  V30 1623 C 146.909 2.9825 -0.949536 0
M  V30 1624 C 147.384 4.28605 -1.61437 0
M  V30 1625 N 148.875 4.35399 -1.58057 0
M  V30 1626 C 149.61 5.34964 -2.064 0
M  V30 1627 N 149.106 6.40981 -2.62897 0
M  V30 1628 N 150.899 5.26419 -1.97078 0
M  V30 1629 H 143.05 1.40304 -1.59463 0
M  V30 1630 H 145.313 0.671794 -0.668878 0
M  V30 1631 H 145.019 2.87417 -2.02693 0
M  V30 1632 H 144.893 3.73807 -0.504771 0
M  V30 1633 H 147.28 2.94941 0.0967067 0
M  V30 1634 H 147.361 2.10364 -1.45536 0
M  V30 1635 H 147.005 4.32672 -2.66002 0
M  V30 1636 H 146.935 5.15334 -1.08344 0
M  V30 1637 H 149.426 3.59397 -1.16801 0
M  V30 1638 H 149.739 7.13225 -2.97539 0
M  V30 1639 H 148.084 6.4169 -2.66943 0
M  V30 1640 H 151.275 4.42504 -1.52669 0
M  V30 1641 H 151.448 6.03861 -2.35066 0
M  V30 1642 N 144.854 0.36279 1.53368 0
M  V30 1643 C 145.801 -0.485008 2.25646 0
M  V30 1644 C 146.771 -1.07982 1.2621 0
M  V30 1645 O 147.956 -1.11284 1.54986 0
M  V30 1646 C 145.096 -1.62023 3.04701 0
M  V30 1647 C 144.209 -1.05086 4.19024 0
M  V30 1648 C 143.344 -2.15496 4.85525 0
M  V30 1649 C 142.383 -1.5601 5.91884 0
M  V30 1650 N 141.52 -2.60241 6.52088 0
M  V30 1651 H 146.36 0.137864 2.97681 0
M  V30 1652 H 143.897 0.0798061 1.46883 0
M  V30 1653 H 145.855 -2.28887 3.48807 0
M  V30 1654 H 144.485 -2.2138 2.34927 0
M  V30 1655 H 143.537 -0.27259 3.79422 0
M  V30 1656 H 144.849 -0.575926 4.95464 0
M  V30 1657 H 144.003 -2.90186 5.32801 0
M  V30 1658 H 142.742 -2.66341 4.08551 0
M  V30 1659 H 141.747 -0.798338 5.43973 0
M  V30 1660 H 142.972 -1.05994 6.70777 0
M  V30 1661 H 140.918 -3.10304 5.77968 0
M  V30 1662 H 140.835 -2.17426 7.24059 0
M  V30 1663 H 142.103 -3.34641 7.04014 0
M  V30 1664 N 146.332 -1.57332 0.0918853 0
M  V30 1665 C 147.557 -1.98995 -0.584442 0
M  V30 1666 C 147.982 -0.970528 -1.61128 0
M  V30 1667 O 147.34 0.0613904 -1.81196 0
M  V30 1668 C 147.388 -3.39636 -1.21161 0
M  V30 1669 O 146.492 -3.40447 -2.32744 0
M  V30 1670 H 145.833 -0.647165 -0.148572 0
M  V30 1671 H 148.363 -2.03873 0.172347 0
M  V30 1672 H 148.373 -3.7726 -1.55367 0
M  V30 1673 H 147.048 -4.13356 -0.459313 0
M  V30 1674 H 145.625 -3.14614 -2.0018 0
M  V30 1675 N 147.81 0.181792 -1.56548 0
M  V30 1676 C 149.226 0.53316 -1.50431 0
M  V30 1677 C 149.426 1.85184 -0.794297 0
M  V30 1678 O 148.482 2.50058 -0.350318 0
M  V30 1679 C 149.795 0.575597 -2.9514 0
M  V30 1680 C 151.343 0.663519 -3.05886 0
M  V30 1681 C 151.818 0.736946 -4.52032 0
M  V30 1682 N 153.309 0.800118 -4.56237 0
M  V30 1683 C 154.044 0.877327 -5.66649 0
M  V30 1684 N 153.54 0.916016 -6.86718 0
M  V30 1685 N 155.333 0.915542 -5.54594 0
M  V30 1686 H 147.484 -0.683025 -2.01118 0
M  V30 1687 H 149.747 -0.244988 -0.915797 0
M  V30 1688 H 149.453 -0.324482 -3.502 0
M  V30 1689 H 149.327 1.42572 -3.49218 0
M  V30 1690 H 151.714 1.55403 -2.50867 0
M  V30 1691 H 151.795 -0.21307 -2.54911 0
M  V30 1692 H 151.439 -0.149262 -5.07681 0
M  V30 1693 H 151.369 1.62953 -5.00753 0
M  V30 1694 H 153.86 0.778926 -3.69785 0
M  V30 1695 H 154.173 0.975813 -7.66614 0
M  V30 1696 H 152.518 0.884469 -6.89349 0
M  V30 1697 H 155.709 0.882245 -4.59711 0
M  V30 1698 H 155.882 0.972253 -6.40665 0
M  V30 1699 N 149.288 1.51039 0.449983 0
M  V30 1700 C 150.528 1.64732 1.21007 0
M  V30 1701 C 150.892 0.349865 1.88785 0
M  V30 1702 O 152.093 0.362431 2.66345 0
M  V30 1703 C 150.364 2.80902 2.20973 0
M  V30 1704 S 151.923 3.14851 3.05638 0
M  V30 1705 H 148.741 0.5805 0.410538 0
M  V30 1706 H 151.343 1.88901 0.503634 0
M  V30 1707 H 150.047 3.73627 1.69796 0
M  V30 1708 H 149.578 2.58882 2.96215 0
M  V30 1709 H 151.593 2.60306 4.22439 0
M  V30 1710 N 150.766 -0.704594 1.40972 0
M  V30 1711 C 151.714 -1.83994 1.42299 0
M  V30 1712 C 152.708 -1.66684 0.302111 0
M  V30 1713 O 153.914 -1.73655 0.473697 0
M  V30 1714 H 150.289 -0.606171 0.44504 0
M  V30 1715 H 152.26 -1.79992 2.38003 0
M  V30 1716 C 151.009 -3.21946 1.31323 0
M  V30 1717 H 150.332 -3.35878 2.16855 0
M  V30 1718 H 151.772 -4.01491 1.36311 0
M  V30 1719 C 150.231 -3.36891 0.0245977 0
M  V30 1720 O 150.761 -3.90687 -0.934153 0
M  V30 1721 N 148.967 -2.90559 -0.0485243 0
M  V30 1722 H 148.514 -2.46968 0.732419 0
M  V30 1723 H 148.472 -3.00937 -0.910171 0
M  V30 1724 N 152.244 -1.26651 -0.937939 0
M  V30 1725 C 153.154 -1.10276 -2.07066 0
M  V30 1726 C 154.17 -0.0354197 -1.73964 0
M  V30 1727 O 155.346 -0.239816 -1.99967 0
M  V30 1728 C 152.411 -0.740887 -3.38691 0
M  V30 1729 C 151.472 -1.88799 -3.85556 0
M  V30 1730 C 150.705 -1.54329 -5.10899 0
M  V30 1731 O 150.928 -0.446494 -5.6865 0
M  V30 1732 O 149.862 -2.37911 -5.52885 0
M  V30 1733 H 153.688 -2.05309 -2.23789 0
M  V30 1734 H 151.273 -1.05743 -1.0554 0
M  V30 1735 H 153.155 -0.55195 -4.1777 0
M  V30 1736 H 151.83 0.180022 -3.23199 0
M  V30 1737 H 150.737 -2.13191 -3.07409 0
M  V30 1738 H 152.07 -2.78874 -4.05574 0
M  V30 1739 N 153.722 1.14298 -1.08507 0
M  V30 1740 C 154.999 1.81544 -0.728088 0
M  V30 1741 C 155.379 1.95838 0.78808 0
M  V30 1742 O 154.727 1.51904 1.70697 0
M  V30 1743 C 154.937 3.17169 -1.45619 0
M  V30 1744 C 156.285 3.9265 -1.61591 0
M  V30 1745 O 157.309 3.26762 -1.41793 0
M  V30 1746 O 156.168 5.10807 -1.94263 0
M  V30 1747 H 153.262 0.78491 -0.260471 0
M  V30 1748 H 155.808 1.21307 -1.18671 0
M  V30 1749 H 154.58 3.01934 -2.489 0
M  V30 1750 H 154.203 3.851 -0.989124 0
M  V30 1751 N 155.201 0.870884 1.31352 0
M  V30 1752 C 156.448 0.482273 1.96673 0
M  V30 1753 C 156.776 -0.965638 1.68836 0
M  V30 1754 O 156.031 -1.69514 0.977937 0
M  V30 1755 C 156.33 0.687157 3.50732 0
M  V30 1756 C 155.996 2.108 3.9859 0
M  V30 1757 C 154.658 2.49656 4.1137 0
M  V30 1758 C 157.01 3.03459 4.23748 0
M  V30 1759 C 154.338 3.80412 4.46659 0
M  V30 1760 C 156.69 4.3373 4.60501 0
M  V30 1761 C 155.354 4.725 4.71487 0
M  V30 1762 H 154.624 0.176476 0.719679 0
M  V30 1763 H 157.271 1.10405 1.56471 0
M  V30 1764 H 155.576 -0.0177476 3.91796 0
M  V30 1765 H 157.273 0.366284 3.99324 0
M  V30 1766 H 153.863 1.79633 3.8914 0
M  V30 1767 H 158.047 2.74665 4.13368 0
M  V30 1768 H 153.303 4.1021 4.53362 0
M  V30 1769 H 157.477 5.05578 4.78919 0
M  V30 1770 H 155.104 5.73859 4.98588 0
M  V30 1771 N 156.679 -1.44442 0.630414 0
M  V30 1772 C 157.609 -2.33418 -0.0618083 0
M  V30 1773 C 158.59 -1.48165 -0.835541 0
M  V30 1774 O 159.775 -1.76886 -0.801564 0
M  V30 1775 C 156.905 -3.31222 -1.04449 0
M  V30 1776 C 155.859 -4.26288 -0.382436 0
M  V30 1777 C 155.185 -5.13954 -1.47497 0
M  V30 1778 C 156.485 -5.1744 0.710865 0
M  V30 1779 H 158.179 -2.91548 0.681184 0
M  V30 1780 H 155.725 -1.40191 0.329026 0
M  V30 1781 H 157.678 -3.92351 -1.53748 0
M  V30 1782 H 156.402 -2.71299 -1.81836 0
M  V30 1783 H 155.061 -3.6649 0.0899054 0
M  V30 1784 H 154.709 -4.50385 -2.2397 0
M  V30 1785 H 154.409 -5.7837 -1.03737 0
M  V30 1786 H 155.933 -5.77955 -1.96979 0
M  V30 1787 H 157.347 -5.72509 0.300996 0
M  V30 1788 H 155.744 -5.90455 1.07156 0
M  V30 1789 H 156.814 -4.58496 1.57829 0
M  V30 1790 N 158.157 -0.370918 -1.53173 0
M  V30 1791 C 159.087 0.464847 -2.28826 0
M  V30 1792 C 160.068 1.07936 -1.31468 0
M  V30 1793 O 161.253 1.0956 -1.60344 0
M  V30 1794 C 158.383 1.60196 -3.08147 0
M  V30 1795 C 157.337 1.11443 -4.13237 0
M  V30 1796 C 156.663 2.3422 -4.80672 0
M  V30 1797 C 157.963 0.195384 -5.21934 0
M  V30 1798 H 159.657 -0.166329 -2.98938 0
M  V30 1799 H 157.203 -0.0814359 -1.4377 0
M  V30 1800 H 159.156 2.19332 -3.59822 0
M  V30 1801 H 157.88 2.26045 -2.35735 0
M  V30 1802 H 156.539 0.545727 -3.62515 0
M  V30 1803 H 156.187 2.98537 -4.04827 0
M  V30 1804 H 155.887 2.02269 -5.51689 0
M  V30 1805 H 157.411 2.94032 -5.35143 0
M  V30 1806 H 158.825 0.694375 -5.69079 0
M  V30 1807 H 157.222 -0.0335027 -6.00091 0
M  V30 1808 H 158.292 -0.760961 -4.78892 0
M  V30 1809 N 159.635 1.57281 -0.100228 0
M  V30 1810 C 161.051 1.57527 0.256416 0
M  V30 1811 C 161.251 1.11173 1.68056 0
M  V30 1812 O 160.307 0.79053 2.39806 0
M  V30 1813 C 161.62 3.00673 0.0401747 0
M  V30 1814 C 163.168 3.12815 0.107528 0
M  V30 1815 C 163.643 4.57929 -0.0807834 0
M  V30 1816 N 165.134 4.63193 -0.0261207 0
M  V30 1817 C 165.869 5.73212 -0.146999 0
M  V30 1818 N 165.365 6.92047 -0.322999 0
M  V30 1819 N 167.158 5.62031 -0.0879044 0
M  V30 1820 H 159.309 1.85718 -1.03065 0
M  V30 1821 H 161.572 0.857446 -0.404339 0
M  V30 1822 H 161.278 3.38804 -0.943649 0
M  V30 1823 H 161.152 3.69042 0.780262 0
M  V30 1824 H 163.539 2.74554 1.08186 0
M  V30 1825 H 163.62 2.47028 -0.664134 0
M  V30 1826 H 163.264 4.96886 -1.05201 0
M  V30 1827 H 163.194 5.21783 0.710635 0
M  V30 1828 H 165.685 3.77748 0.107161 0
M  V30 1829 H 165.998 7.7173 -0.406608 0
M  V30 1830 H 164.343 6.94074 -0.358733 0
M  V30 1831 H 167.534 4.68075 0.048498 0
M  V30 1832 H 167.707 6.47734 -0.185557 0
M  V30 1833 N 161.113 -0.173488 1.56642 0
M  V30 1834 C 162.06 -1.21482 1.96242 0
M  V30 1835 C 163.03 -1.44104 0.826027 0
M  V30 1836 O 164.215 -1.5688 1.08597 0
M  V30 1837 C 161.355 -2.54964 2.32567 0
M  V30 1838 C 160.468 -2.39739 3.59373 0
M  V30 1839 C 159.603 -3.66072 3.84921 0
M  V30 1840 C 158.642 -3.45771 5.05083 0
M  V30 1841 N 157.779 -4.64169 5.26775 0
M  V30 1842 H 162.619 -0.870123 2.85014 0
M  V30 1843 H 160.156 -0.418245 1.41029 0
M  V30 1844 H 162.114 -3.32758 2.5165 0
M  V30 1845 H 160.744 -2.87433 1.46908 0
M  V30 1846 H 159.796 -1.53131 3.48217 0
M  V30 1847 H 161.108 -2.20683 4.47326 0
M  V30 1848 H 160.262 -4.52303 4.0436 0
M  V30 1849 H 159.001 -3.88105 2.9534 0
M  V30 1850 H 158.006 -2.57927 4.85545 0
M  V30 1851 H 159.231 -3.25163 5.96193 0
M  V30 1852 H 157.177 -4.86425 4.40144 0
M  V30 1853 H 157.094 -4.48019 6.08946 0
M  V30 1854 H 158.362 -5.51689 5.5069 0
M  V30 1855 N 162.591 -1.51276 -0.441967 0
M  V30 1856 C 163.84 -1.6295 -1.18871 0
M  V30 1857 C 164.153 -0.349312 -1.92456 0
M  V30 1858 O 165.359 -0.345355 -2.69295 0
M  V30 1859 C 163.815 -2.87759 -2.16155 0
M  V30 1860 C 163.423 -4.22764 -1.48239 0
M  V30 1861 C 165.167 -3.08788 -2.91291 0
M  V30 1862 C 163.074 -5.38728 -2.4398 0
M  V30 1863 H 162.004 -0.606913 -0.447406 0
M  V30 1864 H 164.655 -1.77739 -0.456205 0
M  V30 1865 H 163.037 -2.66593 -2.92821 0
M  V30 1866 H 164.211 -4.54293 -0.771635 0
M  V30 1867 H 162.526 -4.07575 -0.852741 0
M  V30 1868 H 165.123 -3.92599 -3.63002 0
M  V30 1869 H 165.466 -2.21679 -3.5237 0
M  V30 1870 H 165.999 -3.30272 -2.21733 0
M  V30 1871 H 162.738 -6.28082 -1.87598 0
M  V30 1872 H 162.258 -5.1158 -3.13123 0
M  V30 1873 H 163.937 -5.70489 -3.05207 0
M  V30 1874 N 164.069 0.697108 -1.41344 0
M  V30 1875 C 165.016 1.81106 -1.43071 0
M  V30 1876 C 165.986 1.63632 -0.285275 0
M  V30 1877 O 167.171 1.84504 -0.486091 0
M  V30 1878 C 164.311 3.18975 -1.31715 0
M  V30 1879 C 163.424 3.47892 -2.56115 0
M  V30 1880 C 162.559 4.75367 -2.37064 0
M  V30 1881 C 161.598 4.97247 -3.56948 0
M  V30 1882 N 160.735 6.15947 -3.36977 0
M  V30 1883 H 165.575 1.78965 -2.38276 0
M  V30 1884 H 163.112 0.873975 -1.18322 0
M  V30 1885 H 165.07 3.98615 -1.23133 0
M  V30 1886 H 163.7 3.20297 -0.401183 0
M  V30 1887 H 162.752 2.62669 -2.75153 0
M  V30 1888 H 164.064 3.59962 -3.45295 0
M  V30 1889 H 163.218 5.63059 -2.25941 0
M  V30 1890 H 161.957 4.65541 -1.45338 0
M  V30 1891 H 160.962 4.08004 -3.68527 0
M  V30 1892 H 162.187 5.08934 -4.49626 0
M  V30 1893 H 160.133 6.07336 -2.47949 0
M  V30 1894 H 160.05 6.28777 -4.19732 0
M  V30 1895 H 161.318 7.06377 -3.29623 0
M  V30 1896 N 165.547 1.27147 0.931209 0
M  V30 1897 C 166.495 1.09398 2.05268 0
M  V30 1898 C 167.489 0.0180591 1.6939 0
M  V30 1899 O 168.695 0.17551 1.79142 0
M  V30 1900 H 165.07 0.336986 0.672268 0
M  V30 1901 H 167.041 2.04416 2.17386 0
M  V30 1902 C 165.79 0.75424 3.39421 0
M  V30 1903 H 165.113 1.57404 3.67511 0
M  V30 1904 H 166.553 0.669903 4.18674 0
M  V30 1905 C 165.012 -0.541197 3.32525 0
M  V30 1906 O 165.542 -1.57664 3.69466 0
M  V30 1907 N 163.748 -0.535517 2.85623 0
M  V30 1908 H 163.295 0.307511 2.55758 0
M  V30 1909 H 163.253 -1.40236 2.81392 0
M  V30 1910 N 167.025 -1.13721 1.09112 0
M  V30 1911 C 167.988 -2.17222 0.731241 0
M  V30 1912 C 168.988 -1.59035 -0.237566 0
M  V30 1913 O 170.178 -1.74192 -0.0161704 0
M  V30 1914 C 167.31 -3.40804 0.0808443 0
M  V30 1915 H 168.503 -2.50573 1.64783 0
M  V30 1916 H 166.056 -1.28493 0.889897 0
M  V30 1917 H 166.791 -3.1304 -0.847127 0
M  V30 1918 H 166.576 -3.84306 0.777896 0
M  V30 1919 H 168.066 -4.1731 -0.155657 0
M  V30 1920 N 168.503 -0.877838 -1.30888 0
M  V30 1921 C 169.413 -0.343096 -2.32078 0
M  V30 1922 C 170.429 0.551022 -1.65045 0
M  V30 1923 O 171.605 0.445854 -1.96403 0
M  V30 1924 C 168.67 0.439905 -3.43898 0
M  V30 1925 C 167.731 -0.483111 -4.26573 0
M  V30 1926 C 166.964 0.262616 -5.33053 0
M  V30 1927 O 167.187 1.48967 -5.50604 0
M  V30 1928 O 166.121 -0.383593 -6.00676 0
M  V30 1929 H 169.947 -1.18203 -2.79753 0
M  V30 1930 H 167.532 -0.64145 -1.34929 0
M  V30 1931 H 169.414 0.883504 -4.12034 0
M  V30 1932 H 168.089 1.25526 -2.98371 0
M  V30 1933 H 166.996 -0.975374 -3.61161 0
M  V30 1934 H 168.329 -1.26427 -4.75686 0
M  V30 1935 N 169.982 1.44106 -0.638065 0
M  V30 1936 C 170.912 2.33448 0.0494287 0
M  V30 1937 C 171.893 1.48606 0.827672 0
M  V30 1938 O 173.078 1.77308 0.792173 0
M  V30 1939 C 170.208 3.31771 1.02691 0
M  V30 1940 C 169.162 4.26485 0.359823 0
M  V30 1941 C 168.488 5.14729 1.44769 0
M  V30 1942 C 169.788 5.17056 -0.738296 0
M  V30 1943 H 171.482 2.91183 -0.696636 0
M  V30 1944 H 169.028 1.40014 -0.336456 0
M  V30 1945 H 170.981 3.93161 1.51666 0
M  V30 1946 H 169.705 2.7226 1.80395 0
M  V30 1947 H 168.364 3.66437 -0.10934 0
M  V30 1948 H 168.012 4.51566 2.21578 0
M  V30 1949 H 167.712 5.78913 1.00668 0
M  V30 1950 H 169.236 5.78991 1.93911 0
M  V30 1951 H 170.65 5.72342 -0.331354 0
M  V30 1952 H 169.047 5.89879 -1.10286 0
M  V30 1953 H 170.117 4.57652 -1.60258 0
M  V30 1954 N 171.46 0.379036 1.52974 0
M  V30 1955 C 172.709 -0.207612 2.00629 0
M  V30 1956 C 173.022 -1.48758 1.27006 0
M  V30 1957 O 174.228 -2.15365 1.65318 0
M  V30 1958 C 172.684 -0.42053 3.57435 0
M  V30 1959 C 172.292 0.845587 4.39948 0
M  V30 1960 C 174.036 -0.964102 4.13407 0
M  V30 1961 C 171.943 0.601513 5.88333 0
M  V30 1962 H 170.873 -0.0813591 0.749598 0
M  V30 1963 H 173.524 0.499853 1.76561 0
M  V30 1964 H 171.906 -1.18959 3.7771 0
M  V30 1965 H 173.08 1.61848 4.31442 0
M  V30 1966 H 171.395 1.31336 3.95145 0
M  V30 1967 H 173.992 -1.16225 5.21916 0
M  V30 1968 H 174.335 -1.93019 3.68849 0
M  V30 1969 H 174.868 -0.25487 3.96983 0
M  V30 1970 H 171.607 1.53831 6.37194 0
M  V30 1971 H 171.127 -0.132628 5.99653 0
M  V30 1972 H 172.806 0.232134 6.46583 0
M  V30 1973 N 172.938 -1.57226 0.108567 0
M  V30 1974 C 173.885 -2.14756 -0.845481 0
M  V30 1975 C 174.855 -1.06971 -1.27068 0
M  V30 1976 O 176.04 -1.34827 -1.35005 0
M  V30 1977 C 173.18 -2.74298 -2.09415 0
M  V30 1978 C 172.293 -3.96358 -1.71826 0
M  V30 1979 C 171.428 -4.44021 -2.9158 0
M  V30 1980 C 170.467 -5.58637 -2.50181 0
M  V30 1981 N 169.604 -6.01091 -3.62814 0
M  V30 1982 H 174.444 -2.95961 -0.348035 0
M  V30 1983 H 171.981 -1.46226 -0.160106 0
M  V30 1984 H 173.939 -3.06945 -2.82561 0
M  V30 1985 H 172.569 -1.95801 -2.56636 0
M  V30 1986 H 171.621 -3.69939 -0.885947 0
M  V30 1987 H 172.933 -4.79504 -1.37394 0
M  V30 1988 H 172.087 -4.78522 -3.72963 0
M  V30 1989 H 170.826 -3.59803 -3.29231 0
M  V30 1990 H 169.831 -5.23751 -1.67228 0
M  V30 1991 H 171.056 -6.44613 -2.13659 0
M  V30 1992 H 169.002 -5.19817 -4.00158 0
M  V30 1993 H 168.919 -6.79066 -3.32273 0
M  V30 1994 H 170.187 -6.40227 -4.44668 0
M  V30 1995 N 174.416 0.165178 -1.56732 0
M  V30 1996 C 175.326 1.22423 -2.00125 0
M  V30 1997 C 176.342 1.48084 -0.913619 0
M  V30 1998 O 177.518 1.60112 -1.22172 0
M  V30 1999 C 174.583 2.54197 -2.35764 0
M  V30 2000 C 173.644 2.36343 -3.58386 0
M  V30 2001 C 172.877 3.61834 -3.92316 0
M  V30 2002 O 173.1 4.67267 -3.27135 0
M  V30 2003 O 172.034 3.55579 -4.85641 0
M  V30 2004 H 175.86 0.885886 -2.90492 0
M  V30 2005 H 173.445 0.372518 -1.44681 0
M  V30 2006 H 175.327 3.3192 -2.59629 0
M  V30 2007 H 174.002 2.87598 -1.48557 0
M  V30 2008 H 172.909 1.56632 -3.39731 0
M  V30 2009 H 174.242 2.07865 -4.46154 0
M  V30 2010 N 175.894 1.51508 0.433938 0
M  V30 2011 C 176.857 1.72473 1.50949 0
M  V30 2012 C 177.857 0.594725 1.49398 0
M  V30 2013 O 179.047 0.862315 1.5136 0
M  V30 2014 C 176.179 1.78431 2.90474 0
M  V30 2015 H 177.372 2.68467 1.33662 0
M  V30 2016 H 174.925 1.41549 0.662836 0
M  V30 2017 H 175.66 0.842645 3.13161 0
M  V30 2018 H 175.445 2.60558 2.93005 0
M  V30 2019 H 176.935 1.96479 3.68491 0
M  V30 2020 N 177.372 -0.689602 1.41712 0
M  V30 2021 C 178.319 -1.80345 1.44029 0
M  V30 2022 C 179.289 -1.63478 0.293948 0
M  V30 2023 O 180.474 -1.84244 0.495869 0
M  V30 2024 C 177.614 -3.18272 1.33405 0
M  V30 2025 C 176.727 -3.46529 2.57956 0
M  V30 2026 C 175.862 -4.74103 2.39582 0
M  V30 2027 C 174.901 -4.95347 3.5958 0
M  V30 2028 N 174.038 -6.14151 3.40239 0
M  V30 2029 H 178.878 -1.77698 2.39222 0
M  V30 2030 H 176.415 -0.867688 1.18784 0
M  V30 2031 H 178.373 -3.97956 1.25246 0
M  V30 2032 H 177.003 -3.2008 0.418164 0
M  V30 2033 H 176.055 -2.61207 2.76542 0
M  V30 2034 H 177.367 -3.58126 3.47199 0
M  V30 2035 H 176.521 -5.61853 2.28924 0
M  V30 2036 H 175.26 -4.64763 1.47805 0
M  V30 2037 H 174.265 -4.06044 3.70686 0
M  V30 2038 H 175.49 -5.06542 4.52318 0
M  V30 2039 H 173.436 -6.06013 2.51167 0
M  V30 2040 H 173.353 -6.26543 4.23061 0
M  V30 2041 H 174.621 -7.04619 3.33365 0
M  V30 2042 N 178.85 -1.27639 -0.924453 0
M  V30 2043 C 179.78 -1.13166 -2.04244 0
M  V30 2044 C 180.761 -0.032256 -1.70069 0
M  V30 2045 O 181.946 -0.207328 -1.9309 0
M  V30 2046 C 179.076 -0.781496 -3.38393 0
M  V30 2047 C 178.03 -1.83449 -3.86692 0
M  V30 2048 C 177.356 -1.33822 -5.17683 0
M  V30 2049 C 178.656 -3.23917 -4.09726 0
M  V30 2050 H 180.35 -2.06689 -2.1661 0
M  V30 2051 H 177.896 -0.995136 -1.04082 0
M  V30 2052 H 179.849 -0.667057 -4.16087 0
M  V30 2053 H 178.573 0.189439 -3.2605 0
M  V30 2054 H 177.232 -1.93789 -3.11193 0
M  V30 2055 H 176.88 -0.35665 -5.01734 0
M  V30 2056 H 176.58 -2.04224 -5.50968 0
M  V30 2057 H 178.104 -1.23679 -5.97943 0
M  V30 2058 H 179.518 -3.16559 -4.77978 0
M  V30 2059 H 177.915 -3.92059 -4.54324 0
M  V30 2060 H 178.985 -3.68729 -3.14908 0
M  V30 2061 N 180.328 1.1314 -1.09713 0
M  V30 2062 C 181.275 2.18642 -0.739196 0
M  V30 2063 C 182.245 1.63706 0.280978 0
M  V30 2064 O 183.43 1.90111 0.161946 0
M  V30 2065 C 180.57 3.44685 -0.169102 0
M  V30 2066 C 179.683 4.13711 -1.24367 0
M  V30 2067 C 178.818 5.27379 -0.636019 0
M  V30 2068 C 177.857 5.88259 -1.69169 0
M  V30 2069 N 176.994 6.93352 -1.10485 0
M  V30 2070 H 181.834 2.48607 -1.64312 0
M  V30 2071 H 179.371 1.22066 -0.820875 0
M  V30 2072 H 181.329 4.16815 0.179256 0
M  V30 2073 H 179.959 3.15161 0.698079 0
M  V30 2074 H 179.011 3.39835 -1.70927 0
M  V30 2075 H 180.323 4.55037 -2.04311 0
M  V30 2076 H 179.477 6.06238 -0.236677 0
M  V30 2077 H 178.216 4.8731 0.194928 0
M  V30 2078 H 177.221 5.08092 -2.10055 0
M  V30 2079 H 178.446 6.30399 -2.52536 0
M  V30 2080 H 176.392 6.55335 -0.295234 0
M  V30 2081 H 176.309 7.33236 -1.84121 0
M  V30 2082 H 177.577 7.76057 -0.73181 0
M  V30 2083 N 181.806 0.884767 1.30421 0
M  V30 2084 C 182.754 0.340869 2.30089 0
M  V30 2085 C 183.748 -0.55201 1.60154 0
M  V30 2086 O 184.954 -0.436467 1.74628 0
M  V30 2087 H 181.329 0.0915739 0.746404 0
M  V30 2088 H 183.3 1.19513 2.73421 0
M  V30 2089 C 182.049 -0.429779 3.45034 0
M  V30 2090 H 181.372 0.248024 3.9903 0
M  V30 2091 H 182.812 -0.775445 4.16849 0
M  V30 2092 C 181.271 -1.62677 2.95022 0
M  V30 2093 O 181.801 -2.72614 2.95033 0
M  V30 2094 N 180.007 -1.46387 2.51036 0
M  V30 2095 H 179.554 -0.569506 2.51226 0
M  V30 2096 H 179.512 -2.26612 2.17932 0
M  V30 2097 N 183.284 -1.43765 0.645699 0
M  V30 2098 C 184.194 -2.34544 -0.0512957 0
M  V30 2099 C 185.21 -1.53455 -0.82022 0
M  V30 2100 O 186.386 -1.86133 -0.769176 0
M  V30 2101 C 183.451 -3.31636 -1.01087 0
M  V30 2102 C 182.512 -4.2863 -0.239712 0
M  V30 2103 C 181.745 -5.21084 -1.15358 0
M  V30 2104 O 181.968 -5.1779 -2.39269 0
M  V30 2105 O 180.902 -5.98593 -0.630038 0
M  V30 2106 H 184.728 -2.95624 0.695718 0
M  V30 2107 H 182.313 -1.43781 0.405882 0
M  V30 2108 H 184.195 -3.9136 -1.56254 0
M  V30 2109 H 182.87 -2.73069 -1.73824 0
M  V30 2110 H 181.777 -3.72408 0.355356 0
M  V30 2111 H 183.11 -4.90157 0.447936 0
M  V30 2112 N 184.763 -0.387143 -1.52771 0
M  V30 2113 C 185.713 0.465942 -2.23188 0
M  V30 2114 C 186.697 1.03138 -1.23496 0
M  V30 2115 O 187.889 0.957845 -1.48843 0
M  V30 2116 C 185.018 1.59384 -3.04059 0
M  V30 2117 C 184.104 1.04024 -4.11144 0
M  V30 2118 N 184.495 0.211416 -5.05358 0
M  V30 2119 C 182.793 1.31295 -4.26237 0
M  V30 2120 C 183.494 -0.0941698 -5.81624 0
M  V30 2121 N 182.47 0.509207 -5.4121 0
M  V30 2122 H 186.272 -0.173856 -2.93385 0
M  V30 2123 H 183.786 -0.19633 -1.61209 0
M  V30 2124 H 185.783 2.21738 -3.53041 0
M  V30 2125 H 184.443 2.23648 -2.35397 0
M  V30 2126 H 185.454 -0.151151 -5.17679 0
M  V30 2127 H 182.131 1.95679 -3.68803 0
M  V30 2128 H 183.521 -0.765572 -6.67524 0
M  V30 2129 N 186.241 1.57166 -0.116904 0
M  V30 2130 C 187.49 1.94298 0.541407 0
M  V30 2131 C 187.803 1.00236 1.67964 0
M  V30 2132 O 189.009 1.26826 2.40057 0
M  V30 2133 C 187.465 3.45306 1.01449 0
M  V30 2134 C 187.073 4.47899 -0.0951738 0
M  V30 2135 C 188.817 3.91361 1.6443 0
M  V30 2136 C 186.724 5.90083 0.394491 0
M  V30 2137 H 185.654 0.725308 0.206019 0
M  V30 2138 H 188.305 1.82446 -0.196419 0
M  V30 2139 H 186.687 3.52385 1.80667 0
M  V30 2140 H 187.861 4.52486 -0.871374 0
M  V30 2141 H 186.176 4.11583 -0.631505 0
M  V30 2142 H 188.773 4.95004 2.02176 0
M  V30 2143 H 189.116 3.3122 2.52189 0
M  V30 2144 H 189.649 3.87073 0.917559 0
M  V30 2145 H 186.388 6.53974 -0.447004 0
M  V30 2146 H 185.908 5.88921 1.13722 0
M  V30 2147 H 187.587 6.41307 0.856399 0
M  V30 2148 N 187.719 -0.156864 1.56817 0
M  V30 2149 C 188.667 -1.21319 1.98455 0
M  V30 2150 C 189.661 -1.45025 0.875444 0
M  V30 2151 O 190.867 -1.45435 1.0606 0
M  V30 2152 H 187.242 -0.408142 0.631605 0
M  V30 2153 H 189.213 -0.835244 2.86472 0
M  V30 2154 C 187.962 -2.54148 2.37285 0
M  V30 2155 H 187.285 -2.36733 3.22176 0
M  V30 2156 H 188.725 -3.26712 2.70251 0
M  V30 2157 C 187.184 -3.13967 1.22173 0
M  V30 2158 O 187.714 -3.98357 0.517149 0
M  V30 2159 N 185.92 -2.7327 0.988536 0
M  V30 2160 H 185.467 -2.04744 1.56326 0
M  V30 2161 H 185.425 -3.13628 0.220209 0
M  V30 2162 N 189.197 -1.51736 -0.425897 0
M  V30 2163 C 190.446 -1.64201 -1.17136 0
M  V30 2164 C 190.759 -0.369705 -1.92074 0
M  V30 2165 O 191.965 -0.373898 -2.68913 0
M  V30 2166 C 190.421 -2.90035 -2.13091 0
M  V30 2167 C 190.029 -4.24312 -1.43747 0
M  V30 2168 C 191.773 -3.1186 -2.87999 0
M  V30 2169 C 189.68 -5.41285 -2.38253 0
M  V30 2170 H 188.61 -0.611624 -0.440944 0
M  V30 2171 H 191.261 -1.78212 -0.437328 0
M  V30 2172 H 189.643 -2.69684 -2.89977 0
M  V30 2173 H 190.817 -4.55086 -0.723408 0
M  V30 2174 H 189.132 -4.08456 -0.809465 0
M  V30 2175 H 191.729 -3.96427 -3.58817 0
M  V30 2176 H 192.072 -2.25403 -3.49999 0
M  V30 2177 H 192.605 -3.32605 -2.18217 0
M  V30 2178 H 189.344 -6.30037 -1.80925 0
M  V30 2179 H 188.864 -5.14872 -3.0768 0
M  V30 2180 H 190.543 -5.73694 -2.99139 0
M  V30 2181 N 190.675 0.682077 -1.42076 0
M  V30 2182 C 191.622 1.79578 -1.44984 0
M  V30 2183 C 192.592 1.6332 -0.302614 0
M  V30 2184 O 193.777 1.83978 -0.505633 0
M  V30 2185 C 190.917 3.1756 -1.35091 0
M  V30 2186 C 190.03 3.45156 -2.59791 0
M  V30 2187 C 189.165 4.72826 -2.42093 0
M  V30 2188 C 188.204 4.93433 -3.62202 0
M  V30 2189 N 187.341 6.12338 -3.43491 0
M  V30 2190 H 192.181 1.76427 -2.40161 0
M  V30 2191 H 189.718 0.861376 -1.19242 0
M  V30 2192 H 191.676 3.97287 -1.27354 0
M  V30 2193 H 190.306 3.19854 -0.435133 0
M  V30 2194 H 189.358 2.59736 -2.77923 0
M  V30 2195 H 190.67 3.5628 -3.49094 0
M  V30 2196 H 189.824 5.60631 -2.319 0
M  V30 2197 H 188.563 4.63973 -1.50268 0
M  V30 2198 H 187.568 4.04073 -3.72834 0
M  V30 2199 H 188.793 5.04136 -4.54998 0
M  V30 2200 H 186.739 6.04672 -2.54377 0
M  V30 2201 H 186.656 6.2429 -4.26377 0
M  V30 2202 H 187.924 7.02841 -3.37097 0
M  V30 2203 N 192.153 1.28127 0.917671 0
M  V30 2204 C 193.569 1.05749 1.19538 0
M  V30 2205 C 193.769 -0.202633 2.00479 0
M  V30 2206 O 192.825 -0.905382 2.3571 0
M  V30 2207 C 194.138 2.30273 1.93378 0
M  V30 2208 C 195.686 2.35412 2.06277 0
M  V30 2209 C 196.161 3.59692 2.83524 0
M  V30 2210 N 197.652 3.60309 2.91087 0
M  V30 2211 C 198.387 4.53147 3.51348 0
M  V30 2212 N 197.883 5.563 4.12919 0
M  V30 2213 N 199.676 4.40751 3.48849 0
M  V30 2214 H 191.827 2.09024 0.377184 0
M  V30 2215 H 194.09 0.919798 0.22951 0
M  V30 2216 H 193.796 3.22055 1.41328 0
M  V30 2217 H 193.67 2.36378 2.93947 0
M  V30 2218 H 196.057 1.4413 2.57508 0
M  V30 2219 H 196.138 2.33304 1.04895 0
M  V30 2220 H 195.782 4.51316 2.32973 0
M  V30 2221 H 195.712 3.59054 3.85211 0
M  V30 2222 H 198.203 2.85714 2.47338 0
M  V30 2223 H 198.516 6.2329 4.56869 0
M  V30 2224 H 196.861 5.60131 4.11435 0
M  V30 2225 H 200.052 3.59367 2.99955 0
M  V30 2226 H 200.225 5.13291 3.9552 0
M  V30 2227 N 193.631 -1.12557 1.10312 0
M  V30 2228 C 194.578 -2.18247 0.750781 0
M  V30 2229 C 195.548 -1.63853 -0.272293 0
M  V30 2230 O 196.733 -1.90195 -0.151862 0
M  V30 2231 C 193.873 -3.44591 0.187379 0
M  V30 2232 C 192.986 -4.13046 1.2656 0
M  V30 2233 C 192.121 -5.27034 0.663978 0
M  V30 2234 C 191.16 -5.87353 1.72287 0
M  V30 2235 N 190.297 -6.92757 1.1416 0
M  V30 2236 H 195.137 -2.47732 1.65628 0
M  V30 2237 H 192.674 -1.21629 0.827337 0
M  V30 2238 H 194.632 -4.16904 -0.157148 0
M  V30 2239 H 193.262 -3.15527 -0.681355 0
M  V30 2240 H 192.314 -3.38924 1.72727 0
M  V30 2241 H 193.626 -4.53947 2.06721 0
M  V30 2242 H 192.78 -6.06104 0.268824 0
M  V30 2243 H 191.519 -4.87407 -0.169082 0
M  V30 2244 H 190.524 -5.06971 2.12746 0
M  V30 2245 H 191.749 -6.29051 2.55875 0
M  V30 2246 H 189.695 -6.5517 0.329984 0
M  V30 2247 H 189.612 -7.3225 1.88007 0
M  V30 2248 H 190.88 -7.75658 0.772956 0
M  V30 2249 N 195.109 -0.891671 -1.2995 0
M  V30 2250 C 196.337 -0.52866 -2.00032 0
M  V30 2251 C 196.752 0.884574 -1.66795 0
M  V30 2252 O 196.109 1.5827 -0.908669 0
M  V30 2253 C 196.16 -0.701814 -3.54622 0
M  V30 2254 O 195.881 -2.05942 -3.86678 0
M  V30 2255 C 197.382 -0.342683 -4.41973 0
M  V30 2256 H 194.602 -0.203659 -0.639347 0
M  V30 2257 H 197.146 -1.19881 -1.65677 0
M  V30 2258 H 195.301 -0.0789468 -3.8732 0
M  V30 2259 H 195.715 -2.08291 -4.81368 0
M  V30 2260 H 197.189 -0.514709 -5.49595 0
M  V30 2261 H 197.666 0.71975 -4.33262 0
M  V30 2262 H 198.272 -0.942154 -4.14733 0
M  V30 2263 N 196.587 1.43421 -0.653314 0
M  V30 2264 C 197.497 2.34568 0.0388565 0
M  V30 2265 C 198.513 1.53888 0.81207 0
M  V30 2266 O 199.689 1.86539 0.759294 0
M  V30 2267 C 196.754 3.32167 0.993269 0
M  V30 2268 C 195.815 4.28751 0.216977 0
M  V30 2269 C 195.048 5.21688 1.12593 0
M  V30 2270 O 195.271 5.19052 2.36519 0
M  V30 2271 O 194.205 5.98919 0.598284 0
M  V30 2272 H 198.031 2.95251 -0.711386 0
M  V30 2273 H 195.616 1.43564 -0.413502 0
M  V30 2274 H 197.498 3.92183 1.54176 0
M  V30 2275 H 196.173 2.73987 1.72374 0
M  V30 2276 H 195.08 3.72215 -0.375101 0
M  V30 2277 H 196.413 4.89913 -0.473924 0
M  V30 2278 N 198.065 0.39524 1.52563 0
M  V30 2279 C 199.313 -0.184678 2.01254 0
M  V30 2280 C 199.634 -1.46822 1.28329 0
M  V30 2281 O 198.904 -1.91666 0.405094 0
M  V30 2282 H 197.484 -0.0712355 0.743596 0
M  V30 2283 H 200.146 0.528293 1.87603 0
M  V30 2284 H 199.242 -0.390681 3.09645 0
M  V30 2285 N 199.544 -1.57102 0.125237 0
M  V30 2286 C 200.955 -1.82384 -0.399142 0
M  V30 2287 C 201.306 -1.04276 -1.66195 0
M  V30 2288 O 200.431 -0.281269 -2.14564 0
M  V30 2289 C 201.026 -3.30821 -0.730932 0
M  V30 2290 C 199.585 -3.56762 -1.19992 0
M  V30 2291 C 198.732 -2.7649 -0.211792 0
M  V30 2292 H 201.683 -1.54786 0.350277 0
M  V30 2293 H 201.704 -3.4579 -1.58775 0
M  V30 2294 H 201.216 -3.87643 0.188345 0
M  V30 2295 H 199.317 -3.05305 -2.13588 0
M  V30 2296 H 199.43 -4.65317 -1.14093 0
M  V30 2297 H 197.794 -2.4489 -0.700085 0
M  V30 2298 H 198.577 -3.36073 0.700691 0
M  V30 2299 N 201.022 0.148545 -1.56898 0
M  V30 2300 C 201.969 1.18345 -1.98149 0
M  V30 2301 C 202.939 1.42772 -0.848848 0
M  V30 2302 O 204.124 1.55132 -1.11079 0
M  V30 2303 C 201.264 2.51231 -2.36594 0
M  V30 2304 C 200.377 2.33991 -3.63142 0
M  V30 2305 C 199.512 3.59902 -3.90697 0
M  V30 2306 C 198.551 3.37692 -5.1052 0
M  V30 2307 N 197.688 4.5573 -5.34092 0
M  V30 2308 H 202.528 0.82467 -2.86362 0
M  V30 2309 H 200.065 0.395756 -1.41676 0
M  V30 2310 H 202.023 3.28713 -2.56912 0
M  V30 2311 H 200.653 2.85059 -1.51463 0
M  V30 2312 H 199.705 1.47572 -3.50609 0
M  V30 2313 H 201.017 2.13539 -4.5078 0
M  V30 2314 H 200.171 4.45813 -4.11505 0
M  V30 2315 H 198.91 3.83357 -3.01477 0
M  V30 2316 H 197.915 2.5017 -4.89587 0
M  V30 2317 H 199.14 3.15637 -6.0129 0
M  V30 2318 H 197.086 4.79361 -4.47827 0
M  V30 2319 H 197.003 4.38274 -6.15996 0
M  V30 2320 H 198.271 5.42858 -5.59397 0
M  V30 2321 N 202.5 1.5196 0.417844 0
M  V30 2322 C 203.911 1.57851 0.997 0
M  V30 2323 C 204.262 0.413714 1.91789 0
M  V30 2324 O 203.387 -0.467057 2.113 0
M  V30 2325 C 203.982 2.86085 1.81496 0
M  V30 2326 C 202.541 2.94483 2.34428 0
M  V30 2327 C 201.688 2.52707 1.14169 0
M  V30 2328 H 204.639 1.57455 0.198392 0
M  V30 2329 H 204.66 2.70947 2.67148 0
M  V30 2330 H 204.172 3.70842 1.14446 0
M  V30 2331 H 202.273 2.142 3.04875 0
M  V30 2332 H 202.386 3.98546 2.65891 0
M  V30 2333 H 200.75 2.06353 1.49301 0
M  V30 2334 H 201.533 3.39828 0.486999 0
M  V30 2335 N 203.978 -0.674533 1.42435 0
M  V30 2336 C 204.941 -1.76986 1.45632 0
M  V30 2337 C 205.941 -1.5708 0.343871 0
M  V30 2338 O 207.131 -1.63367 0.604709 0
M  V30 2339 C 204.263 -3.15623 1.28822 0
M  V30 2340 H 205.456 -1.75539 2.43158 0
M  V30 2341 H 203.009 -0.884189 1.28887 0
M  V30 2342 H 203.744 -3.22696 0.322193 0
M  V30 2343 H 203.529 -3.31475 2.09444 0
M  V30 2344 H 205.019 -3.95537 1.33942 0
M  V30 2345 N 205.456 -1.28612 -0.910864 0
M  V30 2346 C 206.419 -1.12803 -1.9952 0
M  V30 2347 C 207.419 -0.0668264 -1.60661 0
M  V30 2348 O 208.609 -0.312847 -1.71368 0
M  V30 2349 C 205.741 -0.72254 -3.33155 0
M  V30 2350 H 206.934 -2.09109 -2.14973 0
M  V30 2351 H 204.487 -1.11639 -1.09391 0
M  V30 2352 H 205.222 0.241152 -3.23402 0
M  V30 2353 H 205.007 -1.48916 -3.62721 0
M  V30 2354 H 206.497 -0.634666 -4.12749 0
M  V30 2355 N 206.934 1.1197 -1.10907 0
M  V30 2356 C 207.867 2.16998 -0.706192 0
M  V30 2357 C 208.845 1.59903 0.294897 0
M  V30 2358 O 210.029 1.87513 0.192636 0
M  V30 2359 C 207.156 3.38673 -0.0427664 0
M  V30 2360 C 206.202 4.14414 -1.00811 0
M  V30 2361 S 207.035 4.72079 -2.52789 0
M  V30 2362 C 208.191 5.97083 -1.87731 0
M  V30 2363 H 208.424 2.50837 -1.59587 0
M  V30 2364 H 205.957 1.23508 -0.926555 0
M  V30 2365 H 207.915 4.09142 0.333668 0
M  V30 2366 H 206.576 3.03105 0.823788 0
M  V30 2367 H 205.769 5.016 -0.491259 0
M  V30 2368 H 205.371 3.49678 -1.3267 0
M  V30 2369 H 207.663 6.66599 -1.21044 0
M  V30 2370 H 208.606 6.53403 -2.72892 0
M  V30 2371 H 209.014 5.4837 -1.33979 0
M  V30 2372 N 208.412 0.89855 1.29475 0
M  V30 2373 C 209.661 0.519863 1.94885 0
M  V30 2374 C 209.974 -0.9383 1.71625 0
M  V30 2375 O 211.18 -1.42445 2.31131 0
M  V30 2376 C 209.636 0.878836 3.49005 0
M  V30 2377 C 209.244 2.35569 3.81066 0
M  V30 2378 C 210.988 0.570004 4.20656 0
M  V30 2379 C 208.895 2.65558 5.28425 0
M  V30 2380 H 207.825 0.190692 0.729488 0
M  V30 2381 H 210.476 1.09539 1.47219 0
M  V30 2382 H 208.858 0.232253 3.95318 0
M  V30 2383 H 210.032 3.04773 3.45616 0
M  V30 2384 H 208.347 2.63343 3.22552 0
M  V30 2385 H 210.944 0.770925 5.29113 0
M  V30 2386 H 211.287 -0.491404 4.1339 0
M  V30 2387 H 211.82 1.17438 3.8007 0
M  V30 2388 H 208.559 3.70493 5.40754 0
M  V30 2389 H 208.079 2.00977 5.65127 0
M  V30 2390 H 209.758 2.51765 5.96006 0
M  V30 2391 N 209.89 -1.43072 0.660911 0
M  V30 2392 C 210.837 -2.30785 -0.0259884 0
M  V30 2393 C 211.807 -1.45184 -0.806888 0
M  V30 2394 O 212.992 -1.74041 -0.781943 0
M  V30 2395 C 210.132 -3.30861 -0.981067 0
M  V30 2396 C 209.245 -4.31558 -0.195458 0
M  V30 2397 C 208.38 -5.18712 -1.14503 0
M  V30 2398 C 207.419 -6.11097 -0.350299 0
M  V30 2399 N 206.556 -6.90849 -1.25186 0
M  V30 2400 H 211.396 -2.88975 0.727846 0
M  V30 2401 H 208.933 -1.42353 0.370682 0
M  V30 2402 H 210.891 -3.87399 -1.54849 0
M  V30 2403 H 209.521 -2.74304 -1.70169 0
M  V30 2404 H 208.573 -3.77252 0.488374 0
M  V30 2405 H 209.885 -4.9701 0.422176 0
M  V30 2406 H 209.039 -5.79914 -1.78284 0
M  V30 2407 H 207.778 -4.53404 -1.79656 0
M  V30 2408 H 206.783 -5.48976 0.300808 0
M  V30 2409 H 208.008 -6.7845 0.296941 0
M  V30 2410 H 205.954 -6.28182 -1.89005 0
M  V30 2411 H 205.871 -7.52854 -0.688971 0
M  V30 2412 H 207.139 -7.5655 -1.87757 0
M  V30 2413 N 211.368 -0.403325 -1.52352 0
M  V30 2414 C 212.614 0.174605 -2.02047 0
M  V30 2415 C 212.947 1.45282 -1.28867 0
M  V30 2416 O 212.222 1.90483 -0.393257 0
M  V30 2417 C 212.505 0.428238 -3.57545 0
M  V30 2418 C 212.358 -0.866248 -4.4138 0
M  V30 2419 C 213.677 1.21287 -4.23057 0
M  V30 2420 H 210.796 0.0619851 -0.734389 0
M  V30 2421 H 213.438 -0.53565 -1.82293 0
M  V30 2422 H 211.588 1.03327 -3.74507 0
M  V30 2423 H 213.26 -1.50265 -4.3614 0
M  V30 2424 H 211.503 -1.47851 -4.07827 0
M  V30 2425 H 212.174 -0.643249 -5.48239 0
M  V30 2426 H 214.65 0.700703 -4.10158 0
M  V30 2427 H 213.526 1.35909 -5.31808 0
M  V30 2428 H 213.787 2.23193 -3.81625 0
M  V30 2429 N 212.846 1.57033 -0.133567 0
M  V30 2430 C 214.257 1.82593 0.389464 0
M  V30 2431 C 214.608 1.05156 1.6564 0
M  V30 2432 O 213.733 0.292644 2.14412 0
M  V30 2433 C 214.328 3.31204 0.713377 0
M  V30 2434 C 212.887 3.57393 1.18098 0
M  V30 2435 C 212.034 2.76598 0.197126 0
M  V30 2436 H 214.985 1.54598 -0.358481 0
M  V30 2437 H 215.006 3.46627 1.56939 0
M  V30 2438 H 214.518 3.87537 -0.2089 0
M  V30 2439 H 212.619 3.06433 2.11966 0
M  V30 2440 H 212.732 4.65915 1.11624 0
M  V30 2441 H 211.096 2.45257 0.687088 0
M  V30 2442 H 211.879 3.35697 -0.718504 0
M  V30 2443 N 214.325 -0.140222 1.56975 0
M  V30 2444 C 215.736 -0.699596 1.73097 0
M  V30 2445 C 216.087 -1.8134 0.749022 0
M  V30 2446 O 215.212 -2.16241 -0.0828503 0
M  V30 2447 C 215.807 -1.27582 3.1386 0
M  V30 2448 C 214.366 -1.78169 3.31561 0
M  V30 2449 C 213.513 -0.672855 2.69013 0
M  V30 2450 H 216.464 0.0855115 1.58469 0
M  V30 2451 H 216.485 -2.14561 3.14235 0
M  V30 2452 H 215.997 -0.464955 3.85305 0
M  V30 2453 H 214.098 -2.61801 2.65124 0
M  V30 2454 H 214.211 -1.90574 4.39566 0
M  V30 2455 H 212.575 -1.10118 2.29665 0
M  V30 2456 H 213.358 0.126679 3.43066 0
M  V30 2457 N 215.803 -1.52179 -0.40978 0
M  V30 2458 C 217.028 -1.70347 -1.18308 0
M  V30 2459 C 217.453 -0.411887 -1.83535 0
M  V30 2460 O 216.811 0.630587 -1.6998 0
M  V30 2461 C 216.859 -2.83977 -2.22238 0
M  V30 2462 O 215.963 -2.495 -3.28365 0
M  V30 2463 H 215.304 -0.567103 -0.345384 0
M  V30 2464 H 217.834 -1.98879 -0.480445 0
M  V30 2465 H 217.844 -3.0887 -2.66577 0
M  V30 2466 H 216.519 -3.77685 -1.74146 0
M  V30 2467 H 215.096 -2.35277 -2.89308 0
M  V30 2468 N 217.281 0.66697 -1.42791 0
M  V30 2469 C 218.228 1.7803 -1.4688 0
M  V30 2470 C 219.198 1.6299 -0.319919 0
M  V30 2471 O 220.383 1.83432 -0.525118 0
M  V30 2472 C 217.523 3.1611 -1.38451 0
M  V30 2473 C 216.636 3.42381 -2.63437 0
M  V30 2474 C 215.771 4.70232 -2.47094 0
M  V30 2475 C 214.81 4.89564 -3.67415 0
M  V30 2476 N 213.947 6.08661 -3.49966 0
M  V30 2477 H 218.787 1.7387 -2.42019 0
M  V30 2478 H 216.324 0.84868 -1.20149 0
M  V30 2479 H 218.282 3.95914 -1.31561 0
M  V30 2480 H 216.912 3.19374 -0.469033 0
M  V30 2481 H 215.964 2.56774 -2.80662 0
M  V30 2482 H 217.276 3.52557 -3.52853 0
M  V30 2483 H 216.43 5.5814 -2.37834 0
M  V30 2484 H 215.169 4.62353 -1.5518 0
M  V30 2485 H 214.174 4.00096 -3.77099 0
M  V30 2486 H 215.399 4.99282 -4.6032 0
M  V30 2487 H 213.345 6.0194 -2.60776 0
M  V30 2488 H 213.262 6.19733 -4.32975 0
M  V30 2489 H 214.53 6.99226 -3.44532 0
M  V30 2490 N 218.759 1.29093 0.90403 0
M  V30 2491 C 220.008 1.16187 1.64874 0
M  V30 2492 C 220.321 -0.286742 1.93487 0
M  V30 2493 O 221.527 -0.537062 2.66135 0
M  V30 2494 C 219.983 2.03177 2.97064 0
M  V30 2495 C 219.591 3.52836 2.76062 0
M  V30 2496 C 221.335 1.98984 3.74974 0
M  V30 2497 C 219.242 4.31945 4.03952 0
M  V30 2498 H 218.172 0.431246 0.618501 0
M  V30 2499 H 220.823 1.53699 1.00243 0
M  V30 2500 H 219.205 1.5853 3.62883 0
M  V30 2501 H 220.379 4.05507 2.18863 0
M  V30 2502 H 218.694 3.58656 2.11553 0
M  V30 2503 H 221.291 2.55351 4.69787 0
M  V30 2504 H 221.634 0.968815 4.0487 0
M  V30 2505 H 222.167 2.41652 3.15989 0
M  V30 2506 H 218.906 5.34667 3.79225 0
M  V30 2507 H 218.426 3.84045 4.60727 0
M  V30 2508 H 220.105 4.42379 4.72133 0
M  V30 2509 N 220.237 -1.11381 1.11499 0
M  V30 2510 C 221.486 -1.82494 0.858993 0
M  V30 2511 C 221.799 -1.85605 -0.617278 0
M  V30 2512 O 223.005 -2.52824 -0.989552 0
M  V30 2513 C 221.461 -3.27745 1.48699 0
M  V30 2514 C 221.069 -3.32961 2.99735 0
M  V30 2515 C 222.813 -4.03754 1.31085 0
M  V30 2516 C 220.72 -4.72612 3.55516 0
M  V30 2517 H 219.65 -0.683802 0.317696 0
M  V30 2518 H 222.301 -1.25331 1.34031 0
M  V30 2519 H 220.683 -3.84844 0.933339 0
M  V30 2520 H 221.857 -2.85741 3.61509 0
M  V30 2521 H 220.172 -2.70433 3.16631 0
M  V30 2522 H 222.769 -5.06891 1.70192 0
M  V30 2523 H 223.112 -4.15527 0.253496 0
M  V30 2524 H 223.645 -3.53043 1.83318 0
M  V30 2525 H 220.384 -4.66036 4.60967 0
M  V30 2526 H 219.904 -5.2024 2.98513 0
M  V30 2527 H 221.583 -5.4157 3.53992 0
M  V30 2528 N 221.715 -0.905404 -1.28997 0
M  V30 2529 C 222.943 -0.549846 -1.9946 0
M  V30 2530 C 223.358 0.866834 -1.67724 0
M  V30 2531 O 222.715 1.57298 -0.925404 0
M  V30 2532 C 222.766 -0.739387 -3.53858 0
M  V30 2533 O 222.487 -2.10031 -3.84472 0
M  V30 2534 C 223.988 -0.389541 -4.41585 0
M  V30 2535 H 221.208 -0.210429 -0.637151 0
M  V30 2536 H 223.752 -1.21632 -1.64396 0
M  V30 2537 H 221.907 -0.120023 -3.87214 0
M  V30 2538 H 222.321 -2.13385 -4.79132 0
M  V30 2539 H 223.795 -0.572972 -5.49018 0
M  V30 2540 H 224.272 0.673756 -4.34001 0
M  V30 2541 H 224.878 -0.986089 -4.1371 0
M  V30 2542 N 223.193 1.4272 -0.668489 0
M  V30 2543 C 224.442 2.00846 -0.185389 0
M  V30 2544 C 224.755 1.53442 1.21305 0
M  V30 2545 O 225.961 2.03944 1.79218 0
M  V30 2546 C 224.417 3.58805 -0.280591 0
M  V30 2547 C 224.025 4.15198 -1.68268 0
M  V30 2548 C 225.769 4.24255 0.14412 0
M  V30 2549 C 223.676 5.655 -1.73099 0
M  V30 2550 H 222.606 0.751145 -0.0655475 0
M  V30 2551 H 225.257 1.63516 -0.832752 0
M  V30 2552 H 223.639 3.93608 0.434553 0
M  V30 2553 H 224.813 3.91866 -2.42441 0
M  V30 2554 H 223.128 3.62176 -2.05469 0
M  V30 2555 H 225.725 5.34547 0.128086 0
M  V30 2556 H 226.068 3.99277 1.17827 0
M  V30 2557 H 226.601 3.94389 -0.519798 0
M  V30 2558 H 223.34 5.95268 -2.74475 0
M  V30 2559 H 222.86 5.90842 -1.03274 0
M  V30 2560 H 224.539 6.29808 -1.48158 0
M  V30 2561 N 224.671 0.411399 1.52136 0
M  V30 2562 C 225.581 -0.419774 2.30814 0
M  V30 2563 C 226.597 -1.0515 1.38634 0
M  V30 2564 O 227.773 -1.05252 1.71709 0
M  V30 2565 C 224.838 -1.52019 3.11594 0
M  V30 2566 C 223.899 -0.91129 4.19516 0
M  V30 2567 C 223.132 -1.95927 4.96436 0
M  V30 2568 O 223.355 -3.17775 4.73683 0
M  V30 2569 O 222.289 -1.56423 5.81219 0
M  V30 2570 H 226.115 0.221805 3.02889 0
M  V30 2571 H 223.7 0.174547 1.48377 0
M  V30 2572 H 225.582 -2.15898 3.61892 0
M  V30 2573 H 224.257 -2.14633 2.42311 0
M  V30 2574 H 223.164 -0.235157 3.7336 0
M  V30 2575 H 224.497 -0.32904 4.91099 0
M  V30 2576 N 226.149 -1.5696 0.141893 0
M  V30 2577 C 227.56 -1.82797 -0.379776 0
M  V30 2578 C 227.911 -1.06033 -1.6508 0
M  V30 2579 O 227.036 -0.304011 -2.14254 0
M  V30 2580 C 227.631 -3.31578 -0.695802 0
M  V30 2581 C 226.19 -3.58014 -1.16201 0
M  V30 2582 C 225.337 -2.76699 -0.182455 0
M  V30 2583 H 228.288 -1.54406 0.366675 0
M  V30 2584 H 228.309 -3.47454 -1.55099 0
M  V30 2585 H 227.821 -3.87421 0.229449 0
M  V30 2586 H 225.922 -3.07553 -2.10338 0
M  V30 2587 H 226.035 -4.66501 -1.09151 0
M  V30 2588 H 224.399 -2.45618 -0.674072 0
M  V30 2589 H 225.182 -3.35311 0.736297 0
M  V30 2590 N 227.627 0.131896 -1.57047 0
M  V30 2591 C 228.557 1.16384 -2.02428 0
M  V30 2592 C 229.538 1.43936 -0.90644 0
M  V30 2593 O 230.723 1.54599 -1.17528 0
M  V30 2594 C 227.853 2.49328 -2.4177 0
M  V30 2595 C 226.807 2.36266 -3.56879 0
M  V30 2596 C 226.133 3.74057 -3.8208 0
M  V30 2597 C 227.433 1.834 -4.89042 0
M  V30 2598 H 229.127 0.786433 -2.88887 0
M  V30 2599 H 226.673 0.376855 -1.38981 0
M  V30 2600 H 228.626 3.21759 -2.7212 0
M  V30 2601 H 227.35 2.88934 -1.52266 0
M  V30 2602 H 226.009 1.66286 -3.26718 0
M  V30 2603 H 225.657 4.11125 -2.89803 0
M  V30 2604 H 225.357 3.66174 -4.59554 0
M  V30 2605 H 226.881 4.48012 -4.1487 0
M  V30 2606 H 228.295 2.45636 -5.18011 0
M  V30 2607 H 226.692 1.8637 -5.70426 0
M  V30 2608 H 227.762 0.790662 -4.7841 0
M  V30 2609 N 229.106 1.52395 0.401703 0
M  V30 2610 C 230.517 1.58899 0.980202 0
M  V30 2611 C 230.868 0.434032 1.91339 0
M  V30 2612 O 229.993 -0.444619 2.11783 0
M  V30 2613 C 230.588 2.87994 1.78451 0
M  V30 2614 C 229.147 2.96953 2.31292 0
M  V30 2615 C 228.294 2.53903 1.11483 0
M  V30 2616 H 231.245 1.57657 0.18168 0
M  V30 2617 H 231.266 2.73765 2.64259 0
M  V30 2618 H 230.778 3.72035 1.10506 0
M  V30 2619 H 228.879 2.17422 3.02586 0
M  V30 2620 H 228.992 4.01344 2.61649 0
M  V30 2621 H 227.356 2.07925 1.47104 0
M  V30 2622 H 228.139 3.40326 0.450928 0
M  V30 2623 N 230.584 -0.659388 1.43143 0
M  V30 2624 C 231.831 -1.41935 1.44433 0
M  V30 2625 C 232.159 -1.94387 0.0663522 0
M  V30 2626 O 231.414 -1.72314 -0.927706 0
M  V30 2627 C 231.713 -2.62206 2.42864 0
M  V30 2628 C 231.379 -2.28208 3.88886 0
M  V30 2629 C 230.041 -2.18647 4.28657 0
M  V30 2630 C 232.393 -2.00887 4.8093 0
M  V30 2631 C 229.721 -1.79914 5.58433 0
M  V30 2632 C 232.073 -1.63653 6.11065 0
M  V30 2633 C 230.737 -1.52614 6.49819 0
M  V30 2634 H 230.007 -0.519376 0.528517 0
M  V30 2635 H 232.654 -0.750453 1.76183 0
M  V30 2636 H 230.959 -3.34199 2.04495 0
M  V30 2637 H 232.656 -3.2041 2.41119 0
M  V30 2638 H 229.246 -2.36557 3.57406 0
M  V30 2639 H 233.43 -2.07198 4.5098 0
M  V30 2640 H 228.686 -1.69948 5.87305 0
M  V30 2641 H 232.86 -1.41543 6.81864 0
M  V30 2642 H 230.487 -1.22371 7.50286 0
M  V30 2643 N 232.062 -1.29571 -0.897171 0
M  V30 2644 C 233.292 -1.20408 -1.67886 0
M  V30 2645 C 233.7 0.237429 -1.87704 0
M  V30 2646 O 233.043 1.17048 -1.41582 0
M  V30 2647 C 233.105 -1.84887 -3.08314 0
M  V30 2648 C 232.769 -3.34189 -3.11716 0
M  V30 2649 C 233.766 -4.30374 -2.91675 0
M  V30 2650 C 231.451 -3.75431 -3.33701 0
M  V30 2651 C 233.445 -5.65776 -2.93557 0
M  V30 2652 C 231.132 -5.10955 -3.35214 0
M  V30 2653 C 232.13 -6.05938 -3.15164 0
M  V30 2654 O 231.818 -7.38987 -3.1647 0
M  V30 2655 H 231.55 -0.418289 -0.531046 0
M  V30 2656 H 234.104 -1.71514 -1.13014 0
M  V30 2657 H 232.334 -1.28295 -3.64798 0
M  V30 2658 H 234.023 -1.70011 -3.6858 0
M  V30 2659 H 234.789 -3.99844 -2.74499 0
M  V30 2660 H 230.668 -3.01953 -3.48347 0
M  V30 2661 H 234.212 -6.39889 -2.77826 0
M  V30 2662 H 230.109 -5.4113 -3.51922 0
M  V30 2663 H 230.877 -7.47823 -3.3272 0
M  V30 2664 N 233.54 1.10788 -1.12088 0
M  V30 2665 C 234.45 2.20599 -0.798338 0
M  V30 2666 C 235.466 1.72712 0.21135 0
M  V30 2667 O 236.642 2.01348 0.0458477 0
M  V30 2668 C 233.707 3.45771 -0.253674 0
M  V30 2669 C 232.768 4.08411 -1.32283 0
M  V30 2670 C 232.001 5.27608 -0.80406 0
M  V30 2671 O 232.224 5.69241 0.363478 0
M  V30 2672 O 231.158 5.8101 -1.57198 0
M  V30 2673 H 234.984 2.50614 -1.7154 0
M  V30 2674 H 232.569 1.19454 -0.897275 0
M  V30 2675 H 234.451 4.21376 0.0453691 0
M  V30 2676 H 233.126 3.1739 0.636005 0
M  V30 2677 H 232.033 3.34507 -1.67499 0
M  V30 2678 H 233.366 4.40986 -2.18614 0
M  V30 2679 N 235.018 0.912232 1.28515 0
M  V30 2680 C 235.928 0.404506 2.31086 0
M  V30 2681 C 236.944 -0.50707 1.66448 0
M  V30 2682 O 238.12 -0.393624 1.97516 0
M  V30 2683 C 235.185 -0.348572 3.44943 0
M  V30 2684 C 234.246 0.59604 4.25142 0
M  V30 2685 C 233.479 -0.121194 5.33562 0
M  V30 2686 O 233.702 -1.34317 5.5436 0
M  V30 2687 O 232.636 0.542716 5.99448 0
M  V30 2688 H 236.462 1.25579 2.76521 0
M  V30 2689 H 234.047 0.676998 1.33181 0
M  V30 2690 H 235.929 -0.77395 4.14232 0
M  V30 2691 H 234.604 -1.17571 3.01594 0
M  V30 2692 H 233.511 1.07079 3.58448 0
M  V30 2693 H 234.844 1.38995 4.72167 0
M  V30 2694 N 236.496 -1.42363 0.676048 0
M  V30 2695 C 237.726 -2.05561 0.206967 0
M  V30 2696 C 238.134 -1.50887 -1.14148 0
M  V30 2697 O 237.477 -0.643933 -1.72044 0
M  V30 2698 C 237.539 -3.5944 0.0659508 0
M  V30 2699 C 237.203 -4.36812 1.34331 0
M  V30 2700 C 238.2 -4.67383 2.27704 0
M  V30 2701 C 235.885 -4.76429 1.59125 0
M  V30 2702 C 237.879 -5.36509 3.44147 0
M  V30 2703 C 235.566 -5.45294 2.75857 0
M  V30 2704 C 236.564 -5.75259 3.68193 0
M  V30 2705 O 236.252 -6.42712 4.82883 0
M  V30 2706 H 235.984 -0.668872 0.0979084 0
M  V30 2707 H 238.538 -1.83467 0.923531 0
M  V30 2708 H 236.768 -3.80197 -0.706204 0
M  V30 2709 H 238.457 -4.0427 -0.363418 0
M  V30 2710 H 239.223 -4.37275 2.09799 0
M  V30 2711 H 235.102 -4.52498 0.881258 0
M  V30 2712 H 238.646 -5.59814 4.16238 0
M  V30 2713 H 234.543 -5.7482 2.93688 0
M  V30 2714 H 235.311 -6.61204 4.82444 0
M  V30 2715 O 238.013 -0.561574 -1.51422 0
M  V30 2716 H 238.704 -0.0603133 -1.93606 0
M  V30 END ATOM
M  V30 BEGIN BOND
M  V30 END BOND
M  V30 END CTAB
M  END
$$$$
