drugbank_target|O00187 Mannan-binding lectin serine protease 2 (DB04527)
 OpenBabel12092120563D

  0  0  0     0  0            999 V3000
M  V30 BEGIN CTAB
M  V30 COUNTS 10427 10579 0 0 0
M  V30 BEGIN ATOM
M  V30 1 H -0.908 1.98254 -0.117106 0
M  V30 2 N 0 1.576 0 0
M  V30 3 C 0.933 2.03868 1.02534 0
M  V30 4 C 1.911 0.928543 1.3348 0
M  V30 5 O 3.095 1.19667 1.45644 0
M  V30 6 C 0.222 2.43627 2.35294 0
M  V30 7 C -0.732 3.65373 2.2001 0
M  V30 8 S 0.101 5.13292 1.52614 0
M  V30 9 C 1.257 5.56322 2.86805 0
M  V30 10 H 1.49 2.90518 0.631377 0
M  V30 11 H -0.977 1.52953 0.210867 0
M  V30 12 H 0.981 2.67203 3.11629 0
M  V30 13 H -0.358 1.57376 2.7183 0
M  V30 14 H -1.165 3.90944 3.18086 0
M  V30 15 H -1.563 3.418 1.51819 0
M  V30 16 H 0.729 5.58782 3.83104 0
M  V30 17 H 1.672 6.56266 2.65933 0
M  V30 18 H 2.08 4.83886 2.90714 0
M  V30 19 N 1.4781 -0.272755 1.55222 0
M  V30 20 C 2.8941 -0.619959 1.47067 0
M  V30 21 C 3.0941 -1.895 0.684978 0
M  V30 22 O 2.1501 -2.51675 0.203931 0
M  V30 23 C 3.4631 -0.746693 2.91282 0
M  V30 24 C 5.0111 -0.840731 3.01497 0
M  V30 25 C 5.4861 -0.99924 4.46967 0
M  V30 26 N 6.9771 -1.06476 4.50796 0
M  V30 27 C 7.7121 -1.20621 5.6057 0
M  V30 28 N 7.2081 -1.31483 6.80209 0
M  V30 29 N 9.0011 -1.23733 5.48312 0
M  V30 30 H 1.1521 0.564606 2.04758 0
M  V30 31 H 3.4151 0.191177 0.928523 0
M  V30 32 H 3.1211 0.119753 3.51496 0
M  V30 33 H 2.9951 -1.6269 3.40311 0
M  V30 34 H 5.3821 -1.69764 2.41379 0
M  V30 35 H 5.4631 0.0640874 2.5572 0
M  V30 36 H 5.1071 -0.146984 5.07687 0
M  V30 37 H 5.0371 -1.91871 4.90401 0
M  V30 38 H 7.5281 -0.993196 3.64615 0
M  V30 39 H 7.8411 -1.42111 7.59621 0
M  V30 40 H 6.1861 -1.28487 6.8302 0
M  V30 41 H 9.3771 -1.14877 4.53785 0
M  V30 42 H 9.5501 -1.34412 6.33906 0
M  V30 43 N 2.9562 -1.48159 -0.537278 0
M  V30 44 C 3.8862 -1.65029 -1.6519 0
M  V30 45 C 4.8672 -0.499281 -1.62607 0
M  V30 46 O 6.0522 -0.730972 -1.79918 0
M  V30 47 C 3.1822 -1.68303 -3.03795 0
M  V30 48 C 2.1362 -2.8283 -3.21234 0
M  V30 49 C 1.4622 -2.71189 -4.60826 0
M  V30 50 C 2.7622 -4.24211 -3.04701 0
M  V30 51 H 4.4562 -2.58341 -1.51328 0
M  V30 52 H 2.0022 -1.24325 -0.726585 0
M  V30 53 H 3.9552 -1.78693 -3.81637 0
M  V30 54 H 2.6792 -0.715635 -3.18663 0
M  V30 55 H 1.3382 -2.71983 -2.45807 0
M  V30 56 H 0.9862 -1.72435 -4.7252 0
M  V30 57 H 0.6862 -3.48035 -4.7344 0
M  V30 58 H 2.2102 -2.83537 -5.40777 0
M  V30 59 H 3.6242 -4.3593 -3.72341 0
M  V30 60 H 2.0212 -5.01998 -3.28813 0
M  V30 61 H 3.0912 -4.41184 -2.01209 0
M  V30 62 N 4.4343 0.785586 -1.36625 0
M  V30 63 C 5.3643 1.91259 -1.33949 0
M  V30 64 C 6.3453 1.68795 -0.210325 0
M  V30 65 O 7.5303 1.89854 -0.408561 0
M  V30 66 C 4.6603 3.28339 -1.13186 0
M  V30 67 C 3.6143 3.65335 -2.22967 0
M  V30 68 C 2.9403 5.00806 -1.87342 0
M  V30 69 C 4.2403 3.7352 -3.65075 0
M  V30 70 H 5.9343 1.93755 -2.28253 0
M  V30 71 H 3.4803 0.930788 -1.09874 0
M  V30 72 H 5.4333 4.06804 -1.09948 0
M  V30 73 H 4.1573 3.2624 -0.153332 0
M  V30 74 H 2.8163 2.89169 -2.25337 0
M  V30 75 H 2.4643 4.95233 -0.880545 0
M  V30 76 H 2.1643 5.26529 -2.60846 0
M  V30 77 H 3.6883 5.81687 -1.85667 0
M  V30 78 H 5.1023 4.42168 -3.64911 0
M  V30 79 H 3.4993 4.10731 -4.37516 0
M  V30 80 H 4.5693 2.74527 -3.99703 0
M  V30 81 N 5.9124 1.20967 1.01018 0
M  V30 82 C 7.1404 1.04956 1.78303 0
M  V30 83 C 7.5554 -0.400915 1.84494 0
M  V30 84 O 6.9124 -1.27826 1.30257 0
M  V30 85 C 6.9634 1.63403 3.22462 0
M  V30 86 O 6.6844 3.02775 3.16637 0
M  V30 87 C 8.1854 1.52432 4.16268 0
M  V30 88 H 5.4054 0.368858 0.560522 0
M  V30 89 H 7.9494 1.60193 1.27116 0
M  V30 90 H 6.1044 1.1227 3.70775 0
M  V30 91 H 6.5184 3.30626 4.07169 0
M  V30 92 H 7.9924 1.98078 5.15237 0
M  V30 93 H 8.4694 0.477875 4.36592 0
M  V30 94 H 9.0754 2.02787 3.73841 0
M  V30 95 N 7.3905 -1.2043 1.01659 0
M  V30 96 C 8.3205 -2.25466 0.607226 0
M  V30 97 C 9.3015 -1.65853 -0.377716 0
M  V30 98 O 10.4865 -1.92409 -0.263149 0
M  V30 99 C 7.6165 -3.47256 -0.0552949 0
M  V30 100 C 6.5705 -4.19462 0.850632 0
M  V30 101 C 5.8965 -5.34673 0.0538859 0
M  V30 102 C 7.1965 -4.75603 2.15868 0
M  V30 103 H 8.8905 -2.59962 1.48526 0
M  V30 104 H 6.4365 -1.2496 0.715605 0
M  V30 105 H 8.3895 -4.19917 -0.353233 0
M  V30 106 H 7.1135 -3.11924 -0.968045 0
M  V30 107 H 5.7725 -3.48667 1.13257 0
M  V30 108 H 5.4205 -4.95585 -0.860514 0
M  V30 109 H 5.1205 -5.83913 0.657192 0
M  V30 110 H 6.6445 -6.10138 -0.237598 0
M  V30 111 H 8.0585 -5.40083 1.92311 0
M  V30 112 H 6.4555 -5.3528 2.71284 0
M  V30 113 H 7.5255 -3.94346 2.82169 0
M  V30 114 N 8.8686 -0.792821 -1.36206 0
M  V30 115 C 9.7986 -0.207853 -2.32573 0
M  V30 116 C 10.7796 0.659055 -1.56813 0
M  V30 117 O 11.9646 0.592176 -1.84951 0
M  V30 118 C 9.0946 0.655449 -3.41059 0
M  V30 119 C 8.0486 -0.111842 -4.27854 0
M  V30 120 C 7.3746 0.872274 -5.27537 0
M  V30 121 C 8.6746 -1.30299 -5.05786 0
M  V30 122 H 10.3686 -1.01294 -2.81744 0
M  V30 123 H 7.9146 -0.48854 -1.3546 0
M  V30 124 H 9.8676 1.07464 -4.07467 0
M  V30 125 H 8.5916 1.49328 -2.90463 0
M  V30 126 H 7.2506 -0.512053 -3.63006 0
M  V30 127 H 6.8986 1.70523 -4.73214 0
M  V30 128 H 6.5986 0.363291 -5.86476 0
M  V30 129 H 8.1226 1.28996 -5.96818 0
M  V30 130 H 9.5366 -0.959379 -5.65216 0
M  V30 131 H 7.9336 -1.7455 -5.74154 0
M  V30 132 H 9.0036 -2.09663 -4.37229 0
M  V30 133 N 10.3467 1.47872 -0.545128 0
M  V30 134 C 11.5947 2.02093 -0.016553 0
M  V30 135 C 11.9157 1.42305 1.3332 0
M  V30 136 O 11.1857 0.593853 1.86682 0
M  V30 137 H 9.7657 0.746993 -0.00313038 0
M  V30 138 H 12.4277 1.81414 -0.712397 0
M  V30 139 H 11.5237 3.11996 0.0805422 0
M  V30 140 N 11.8248 0.280983 1.55075 0
M  V30 141 C 12.7548 -0.597469 2.25727 0
M  V30 142 C 13.7358 -1.15417 1.24952 0
M  V30 143 O 14.9208 -1.18722 1.53684 0
M  V30 144 C 12.0508 -1.7789 2.98283 0
M  V30 145 C 11.0048 -1.35347 4.06036 0
M  V30 146 C 10.3308 -2.61846 4.66198 0
M  V30 147 C 11.6308 -0.499354 5.19907 0
M  V30 148 H 13.3248 -0.00824265 2.99399 0
M  V30 149 H 10.8708 -0.0025244 1.44 0
M  V30 150 H 12.8238 -2.39937 3.46422 0
M  V30 151 H 11.5478 -2.39405 2.22155 0
M  V30 152 H 10.2068 -0.756156 3.58717 0
M  V30 153 H 9.8548 -3.21632 3.86732 0
M  V30 154 H 9.5548 -2.3409 5.38958 0
M  V30 155 H 11.0788 -3.24732 5.1709 0
M  V30 156 H 12.4928 -1.02498 5.64063 0
M  V30 157 H 10.8898 -0.316424 5.99265 0
M  V30 158 H 11.9598 0.480459 4.82514 0
M  V30 159 N 13.3029 -1.57598 0.00835791 0
M  V30 160 C 14.2329 -2.1198 -0.979113 0
M  V30 161 C 15.2139 -1.03091 -1.35301 0
M  V30 162 O 16.3989 -1.30818 -1.43528 0
M  V30 163 C 13.5289 -2.62995 -2.26828 0
M  V30 164 C 12.4829 -3.76485 -2.03576 0
M  V30 165 C 11.8089 -4.13846 -3.38579 0
M  V30 166 C 13.1089 -5.0342 -1.39161 0
M  V30 167 H 14.8029 -2.94738 -0.526281 0
M  V30 168 H 12.3489 -1.41783 -0.251704 0
M  V30 169 H 14.3019 -2.99669 -2.96271 0
M  V30 170 H 13.0259 -1.7737 -2.7424 0
M  V30 171 H 11.6849 -3.40217 -1.36557 0
M  V30 172 H 11.3329 -3.25232 -3.83709 0
M  V30 173 H 11.0329 -4.90312 -3.23834 0
M  V30 174 H 12.5569 -4.53086 -4.09323 0
M  V30 175 H 13.9709 -5.37812 -1.98573 0
M  V30 176 H 12.3679 -5.84746 -1.34878 0
M  V30 177 H 13.4379 -4.83548 -0.361868 0
M  V30 178 N 14.781 0.264519 -1.55364 0
M  V30 179 C 16.021 1.00254 -1.78125 0
M  V30 180 C 16.385 1.83187 -0.575017 0
M  V30 181 O 17.586 2.60029 -0.681042 0
M  V30 182 C 15.857 1.85478 -3.05504 0
M  V30 183 S 17.416 2.6543 -3.49417 0
M  V30 184 H 14.234 0.337522 -0.625779 0
M  V30 185 H 16.836 0.272111 -1.93597 0
M  V30 186 H 15.54 1.23491 -3.9138 0
M  V30 187 H 15.071 2.62827 -2.92721 0
M  V30 188 H 17.086 3.87958 -3.09359 0
M  V30 189 N 16.2591 1.48442 0.529413 0
M  V30 190 C 17.5071 1.56179 1.28267 0
M  V30 191 C 17.8281 0.237721 1.93546 0
M  V30 192 O 17.0981 -0.740779 1.81354 0
M  V30 193 H 15.6781 0.575367 0.476405 0
M  V30 194 H 18.3401 1.84909 0.61602 0
M  V30 195 H 17.4361 2.34312 2.06165 0
M  V30 196 N 17.7372 -0.778329 1.37039 0
M  V30 197 C 18.9622 -1.57248 1.35233 0
M  V30 198 C 19.3872 -1.87999 -0.0615568 0
M  V30 199 O 18.7452 -1.48734 -1.03672 0
M  V30 200 C 18.7932 -2.86353 2.19167 0
M  V30 201 O 17.8972 -3.80442 1.59178 0
M  V30 202 H 17.2382 -0.476569 0.462362 0
M  V30 203 H 19.7682 -0.963853 1.80474 0
M  V30 204 H 19.7782 -3.35519 2.32145 0
M  V30 205 H 18.4532 -2.63299 3.21942 0
M  V30 206 H 17.0302 -3.39067 1.55203 0
M  V30 207 N 19.2153 -1.21501 -1.00376 0
M  V30 208 C 20.4613 -1.03452 -1.74429 0
M  V30 209 C 20.7943 0.430764 -1.89362 0
M  V30 210 O 20.0693 1.31962 -1.42886 0
M  V30 211 C 20.3523 -1.73375 -3.15615 0
M  V30 212 C 20.2053 -3.27431 -3.08397 0
M  V30 213 C 21.5243 -1.47732 -4.14564 0
M  V30 214 H 18.6433 -0.377226 -0.633143 0
M  V30 215 H 21.2853 -1.49693 -1.17013 0
M  V30 216 H 19.4353 -1.34064 -3.64636 0
M  V30 217 H 21.1073 -3.76119 -2.67081 0
M  V30 218 H 19.3503 -3.5767 -2.45468 0
M  V30 219 H 20.0213 -3.71524 -4.08258 0
M  V30 220 H 22.4973 -1.8186 -3.74254 0
M  V30 221 H 21.3733 -1.99169 -5.11491 0
M  V30 222 H 21.6343 -0.407589 -4.40217 0
M  V30 223 N 20.6934 1.19889 -1.02296 0
M  V30 224 C 21.6564 2.21116 -0.603351 0
M  V30 225 C 22.6564 1.5738 0.329884 0
M  V30 226 O 23.8464 1.73802 0.117702 0
M  V30 227 C 20.9784 3.40696 0.117992 0
M  V30 228 H 22.1714 2.59754 -1.49893 0
M  V30 229 H 19.7244 1.33463 -0.813468 0
M  V30 230 H 20.4594 3.07569 1.0282 0
M  V30 231 H 20.2444 3.88188 -0.552511 0
M  V30 232 H 21.7344 4.15692 0.398696 0
M  V30 233 N 22.1715 0.800033 1.35784 0
M  V30 234 C 23.3995 0.389606 2.03199 0
M  V30 235 C 23.8145 -0.997375 1.60306 0
M  V30 236 O 23.1715 -1.64154 0.797481 0
M  V30 237 C 23.2225 0.455855 3.58614 0
M  V30 238 O 22.9435 1.78815 3.99946 0
M  V30 239 C 24.4445 0.0374032 4.43284 0
M  V30 240 H 21.6645 0.159132 0.651857 0
M  V30 241 H 24.2085 1.08183 1.73541 0
M  V30 242 H 22.3635 -0.188057 3.86943 0
M  V30 243 H 22.7775 1.74636 4.94573 0
M  V30 244 H 24.2515 0.134882 5.51835 0
M  V30 245 H 24.7285 -1.01651 4.27275 0
M  V30 246 H 25.3345 0.654215 4.20238 0
M  V30 247 N 23.6496 -1.47581 0.552962 0
M  V30 248 C 25.0606 -1.86324 0.118463 0
M  V30 249 C 25.4116 -1.46006 -1.3106 0
M  V30 250 O 24.5366 -0.861182 -1.98526 0
M  V30 251 C 25.1316 -3.3816 0.20821 0
M  V30 252 C 23.6906 -3.7601 -0.171226 0
M  V30 253 C 22.8376 -2.71634 0.557686 0
M  V30 254 H 25.7886 -1.39159 0.762928 0
M  V30 255 H 25.8096 -3.76141 -0.574278 0
M  V30 256 H 25.3216 -3.67473 1.24841 0
M  V30 257 H 23.4226 -3.52313 -1.21269 0
M  V30 258 H 23.5356 -4.78745 0.184379 0
M  V30 259 H 21.8996 -2.547 0.00125792 0
M  V30 260 H 22.6826 -3.0379 1.59896 0
M  V30 261 N 25.1277 -0.289203 -1.54924 0
M  V30 262 C 26.0577 0.58549 -2.2604 0
M  V30 263 C 27.0387 1.14753 -1.25562 0
M  V30 264 O 28.2237 1.17906 -1.54311 0
M  V30 265 C 25.3537 1.76305 -2.99222 0
M  V30 266 C 24.3077 1.33191 -4.06748 0
M  V30 267 C 23.6337 2.5937 -4.6758 0
M  V30 268 C 24.9337 0.471775 -5.20165 0
M  V30 269 H 26.6277 -0.00763532 -2.99399 0
M  V30 270 H 24.1737 -0.00511229 -1.43999 0
M  V30 271 H 26.1267 2.38097 -3.47689 0
M  V30 272 H 24.8507 2.38223 -2.23422 0
M  V30 273 H 23.5097 0.737121 -3.59113 0
M  V30 274 H 23.1577 3.19576 -3.88433 0
M  V30 275 H 22.8577 2.31228 -5.40192 0
M  V30 276 H 24.3817 3.21985 -5.18804 0
M  V30 277 H 25.7957 0.995056 -5.64599 0
M  V30 278 H 24.1927 0.284639 -5.99425 0
M  V30 279 H 25.2627 -0.506041 -4.82252 0
M  V30 280 N 26.6058 1.57591 -0.0167156 0
M  V30 281 C 27.8538 1.90906 0.663285 0
M  V30 282 C 28.1748 0.892509 1.73376 0
M  V30 283 O 27.4448 -0.0677623 1.95783 0
M  V30 284 H 26.0248 0.704637 0.247983 0
M  V30 285 H 28.6868 1.94803 -0.0615909 0
M  V30 286 H 27.7828 2.9116 1.12393 0
M  V30 287 N 28.0839 -0.256276 1.55502 0
M  V30 288 C 29.4949 -0.826068 1.67431 0
M  V30 289 C 29.8459 -1.86396 0.612446 0
M  V30 290 O 28.9709 -2.15031 -0.243025 0
M  V30 291 C 29.5659 -1.50512 3.03532 0
M  V30 292 C 28.1249 -2.02273 3.17431 0
M  V30 293 C 27.2719 -0.870548 2.63281 0
M  V30 294 H 30.2229 -0.0322728 1.58667 0
M  V30 295 H 30.2439 -2.37279 2.97454 0
M  V30 296 H 29.7559 -0.749484 3.80794 0
M  V30 297 H 27.8569 -2.80746 2.44974 0
M  V30 298 H 27.9699 -2.22655 4.24219 0
M  V30 299 H 26.3339 -1.26851 2.20864 0
M  V30 300 H 27.1169 -0.128149 3.43061 0
M  V30 301 N 29.562 -1.4872 -0.521534 0
M  V30 302 C 30.509 -1.63871 -1.62527 0
M  V30 303 C 31.479 -0.480559 -1.58996 0
M  V30 304 O 32.664 -0.705085 -1.77294 0
M  V30 305 C 29.804 -1.69227 -3.00759 0
M  V30 306 C 28.917 -2.96207 -3.14461 0
M  V30 307 C 28.052 -2.92671 -4.43303 0
M  V30 308 C 27.091 -4.14318 -4.50563 0
M  V30 309 N 26.228 -4.0881 -5.70805 0
M  V30 310 H 31.068 -2.58123 -1.48918 0
M  V30 311 H 28.605 -1.28 -0.724878 0
M  V30 312 H 30.563 -1.70314 -3.80853 0
M  V30 313 H 29.193 -0.784586 -3.1312 0
M  V30 314 H 28.245 -3.04826 -2.27564 0
M  V30 315 H 29.557 -3.86192 -3.15686 0
M  V30 316 H 28.711 -2.92206 -5.31696 0
M  V30 317 H 27.45 -2.00429 -4.44612 0
M  V30 318 H 26.455 -4.15049 -3.60575 0
M  V30 319 H 27.68 -5.07729 -4.50986 0
M  V30 320 H 25.626 -3.19394 -5.72995 0
M  V30 321 H 25.543 -4.92509 -5.7356 0
M  V30 322 H 26.811 -4.12418 -6.61462 0
M  V30 323 N 31.0401 0.771051 -1.3745 0
M  V30 324 C 32.2861 1.53109 -1.339 0
M  V30 325 C 32.6411 1.9225 0.0758401 0
M  V30 326 O 31.9341 1.61264 1.03463 0
M  V30 327 C 32.1281 2.80676 -2.2126 0
M  V30 328 C 31.9571 2.54003 -3.71096 0
M  V30 329 C 30.7271 2.48097 -4.402 0
M  V30 330 C 32.9251 2.21953 -4.63941 0
M  V30 331 N 30.9071 2.13515 -5.75573 0
M  V30 332 C 32.2781 1.97516 -5.87697 0
M  V30 333 C 34.3331 2.08114 -4.5232 0
M  V30 334 C 33.0361 1.60638 -7.01133 0
M  V30 335 C 35.0621 1.72636 -5.65642 0
M  V30 336 C 34.4241 1.4906 -6.88448 0
M  V30 337 H 30.5231 0.56055 -0.54526 0
M  V30 338 H 33.1071 0.899472 -1.72678 0
M  V30 339 H 31.2781 3.41674 -1.84698 0
M  V30 340 H 33.0101 3.46578 -2.08963 0
M  V30 341 H 29.7651 2.63974 -3.93211 0
M  V30 342 H 30.1891 1.98919 -6.47117 0
M  V30 343 H 34.8311 2.25024 -3.57944 0
M  V30 344 H 32.5491 1.42467 -7.95443 0
M  V30 345 H 36.1351 1.62586 -5.58621 0
M  V30 346 H 35.0151 1.22014 -7.7465 0
M  V30 347 N 32.5182 1.22032 0.997298 0
M  V30 348 C 33.9292 1.0397 1.55071 0
M  V30 349 C 34.2802 -0.398192 1.92117 0
M  V30 350 O 33.4052 -1.28254 1.74298 0
M  V30 351 C 34.0002 1.88109 2.81781 0
M  V30 352 C 32.5592 1.74357 3.33581 0
M  V30 353 C 31.7062 1.84846 2.06706 0
M  V30 354 H 34.6572 1.35941 0.818883 0
M  V30 355 H 34.6782 1.39589 3.53971 0
M  V30 356 H 34.1902 2.92754 2.54787 0
M  V30 357 H 32.2912 0.72427 3.65493 0
M  V30 358 H 32.4042 2.56772 4.04481 0
M  V30 359 H 30.7682 1.28238 2.20062 0
M  V30 360 H 31.5512 2.91014 1.82114 0
M  V30 361 N 33.9963 -1.19345 1.0293 0
M  V30 362 C 34.9063 -2.26245 0.620515 0
M  V30 363 C 35.9223 -1.70486 -0.347928 0
M  V30 364 O 37.0983 -2.00347 -0.205704 0
M  V30 365 C 34.1633 -3.46693 -0.0218957 0
M  V30 366 C 33.2243 -4.17632 0.994102 0
M  V30 367 C 32.4573 -5.32329 0.382253 0
M  V30 368 O 32.6803 -5.64552 -0.814676 0
M  V30 369 O 31.6143 -5.91664 1.10531 0
M  V30 370 H 35.4403 -2.63453 1.51083 0
M  V30 371 H 33.0253 -1.26207 0.799513 0
M  V30 372 H 34.9073 -4.19683 -0.380072 0
M  V30 373 H 33.5823 -3.11333 -0.886209 0
M  V30 374 H 32.4893 -3.4676 1.40387 0
M  V30 375 H 33.8223 -4.56964 1.8288 0
M  V30 376 N 35.4744 -0.807222 -1.35358 0
M  V30 377 C 36.8854 -0.44876 -1.81226 0
M  V30 378 C 37.2364 1.02929 -1.67033 0
M  V30 379 O 36.3614 1.79991 -1.20133 0
M  V30 380 C 36.9564 -0.807774 -3.2903 0
M  V30 381 C 35.5154 -0.501901 -3.73039 0
M  V30 382 C 34.6624 -1.03304 -2.57339 0
M  V30 383 H 37.6134 -0.998808 -1.23327 0
M  V30 384 H 37.6344 -0.10554 -3.80354 0
M  V30 385 H 37.1464 -1.88357 -3.39328 0
M  V30 386 H 35.2474 0.565128 -3.68289 0
M  V30 387 H 35.3604 -1.03497 -4.67787 0
M  V30 388 H 33.7244 -0.455339 -2.50597 0
M  V30 389 H 34.5074 -2.11496 -2.70415 0
M  V30 390 N 36.9525 1.47285 -0.560781 0
M  V30 391 C 38.1985 2.02764 -0.0381184 0
M  V30 392 C 38.5315 1.43384 1.30976 0
M  V30 393 O 37.8065 0.590733 1.85312 0
M  V30 394 C 38.0895 3.60064 0.0511427 0
M  V30 395 C 37.9425 4.2987 -1.32408 0
M  V30 396 C 39.2615 4.33439 0.762795 0
M  V30 397 H 36.3805 0.736841 -0.0153264 0
M  V30 398 H 39.0225 1.75675 -0.723759 0
M  V30 399 H 37.1725 3.83274 0.635065 0
M  V30 400 H 38.8445 4.17989 -1.95148 0
M  V30 401 H 37.0875 3.90085 -1.8978 0
M  V30 402 H 37.7585 5.38478 -1.21431 0
M  V30 403 H 40.2345 4.15243 0.266965 0
M  V30 404 H 39.1105 5.43124 0.794221 0
M  V30 405 H 39.3715 4.02915 1.81966 0
M  V30 406 N 38.4306 0.297415 1.54768 0
M  V30 407 C 39.6776 -0.312913 2.00068 0
M  V30 408 C 40.0056 -1.54171 1.18582 0
M  V30 409 O 39.2606 -1.94108 0.249133 0
M  V30 410 C 39.5596 -0.717561 3.50123 0
M  V30 411 C 39.2256 0.409095 4.4904 0
M  V30 412 C 37.8876 0.718399 4.75807 0
M  V30 413 C 40.2396 1.16717 5.07963 0
M  V30 414 C 37.5676 1.78896 5.5876 0
M  V30 415 C 39.9196 2.22762 5.92081 0
M  V30 416 C 38.5836 2.54303 6.1716 0
M  V30 417 H 37.8536 -0.114503 0.7321 0
M  V30 418 H 40.5006 0.415767 1.86932 0
M  V30 419 H 38.8056 -1.52627 3.60849 0
M  V30 420 H 40.5026 -1.20091 3.82595 0
M  V30 421 H 37.0926 0.157918 4.28309 0
M  V30 422 H 41.2766 0.941466 4.87289 0
M  V30 423 H 36.5326 2.0381 5.7643 0
M  V30 424 H 40.7066 2.81962 6.36765 0
M  V30 425 H 38.3336 3.3739 6.81229 0
M  V30 426 N 39.9087 -1.5758 0.0250728 0
M  V30 427 C 41.1567 -1.91255 -0.653151 0
M  V30 428 C 41.4777 -0.901691 -1.729 0
M  V30 429 O 40.7477 0.0573785 -1.95816 0
M  V30 430 H 39.3277 -0.705942 -0.244243 0
M  V30 431 H 41.9897 -1.94767 0.0719209 0
M  V30 432 H 41.0857 -2.91752 -1.10847 0
M  V30 433 N 41.3868 0.248026 -1.55636 0
M  V30 434 C 42.8028 0.596483 -1.48035 0
M  V30 435 C 43.0028 1.88386 -0.715039 0
M  V30 436 O 42.0588 2.51319 -0.243944 0
M  V30 437 C 43.3718 0.700258 -2.92433 0
M  V30 438 C 44.9198 0.792659 -3.02797 0
M  V30 439 C 45.3948 0.928005 -4.485 0
M  V30 440 N 46.8858 0.992903 -4.52433 0
M  V30 441 C 47.6208 1.11687 -5.62418 0
M  V30 442 N 47.1168 1.20645 -6.82214 0
M  V30 443 N 48.9098 1.14994 -5.50212 0
M  V30 444 H 41.0608 -0.597109 -2.03834 0
M  V30 445 H 43.3238 -0.205925 -0.925364 0
M  V30 446 H 43.0298 -0.175658 -3.51261 0
M  V30 447 H 42.9038 1.57255 -3.42857 0
M  V30 448 H 45.2908 1.65903 -2.4405 0
M  V30 449 H 45.3718 -0.104762 -2.55585 0
M  V30 450 H 45.0158 0.0661971 -5.07857 0
M  V30 451 H 44.9458 1.84045 -4.93391 0
M  V30 452 H 47.4368 0.935064 -3.66149 0
M  V30 453 H 47.7498 1.30008 -7.61786 0
M  V30 454 H 46.0948 1.17605 -6.84977 0
M  V30 455 H 49.2858 1.07643 -4.55555 0
M  V30 456 H 49.4588 1.24311 -6.35965 0
M  V30 457 N 42.8649 1.48995 0.513639 0
M  V30 458 C 43.7949 1.67636 1.62544 0
M  V30 459 C 44.7759 0.525087 1.61793 0
M  V30 460 O 45.9609 0.759502 1.78732 0
M  V30 461 C 43.0909 1.73114 3.01079 0
M  V30 462 C 42.0449 2.87905 3.16693 0
M  V30 463 C 41.3709 2.78486 4.56453 0
M  V30 464 C 42.6709 4.29005 2.97913 0
M  V30 465 H 44.3649 2.60716 1.47198 0
M  V30 466 H 41.9109 1.25465 0.706714 0
M  V30 467 H 43.8639 1.84742 3.78746 0
M  V30 468 H 42.5879 0.766241 3.17484 0
M  V30 469 H 41.2469 2.75859 2.41448 0
M  V30 470 H 40.8949 1.7993 4.69717 0
M  V30 471 H 40.5949 3.55523 4.67843 0
M  V30 472 H 42.1189 2.92104 5.36197 0
M  V30 473 H 43.5329 4.41798 3.65359 0
M  V30 474 H 41.9299 5.07166 3.20785 0
M  V30 475 H 42.9999 4.44329 1.94165 0
M  V30 476 N 44.343 -0.763751 1.37857 0
M  V30 477 C 45.306 -1.85889 1.34081 0
M  V30 478 C 46.306 -1.58949 0.243277 0
M  V30 479 O 47.496 -1.66882 0.499589 0
M  V30 480 C 44.628 -3.23176 1.08489 0
M  V30 481 H 45.821 -1.90648 2.31502 0
M  V30 482 H 43.374 -0.964367 1.23003 0
M  V30 483 H 44.109 -3.24091 0.116318 0
M  V30 484 H 43.894 -3.44124 1.8794 0
M  V30 485 H 45.384 -4.03254 1.08517 0
M  V30 486 N 45.8211 -1.22559 -0.990812 0
M  V30 487 C 47.0461 -1.07862 -1.77145 0
M  V30 488 C 47.4711 0.366447 -1.84496 0
M  V30 489 O 46.8291 1.26478 -1.29896 0
M  V30 490 C 46.8771 -1.69686 -3.18181 0
M  V30 491 O 45.9811 -0.951946 -4.01263 0
M  V30 492 H 45.3221 -0.378712 -0.545411 0
M  V30 493 H 47.8521 -1.62399 -1.2445 0
M  V30 494 H 47.8621 -1.74496 -3.68802 0
M  V30 495 H 46.5371 -2.74841 -3.12146 0
M  V30 496 H 45.1141 -0.980011 -3.59792 0
M  V30 497 N 47.2992 1.18797 -1.03562 0
M  V30 498 C 48.7102 1.70322 -0.764676 0
M  V30 499 C 49.0612 1.82708 0.714996 0
M  V30 500 O 48.1862 1.50299 1.55689 0
M  V30 501 C 48.7812 3.09356 -1.38145 0
M  V30 502 C 47.3402 3.58114 -1.15895 0
M  V30 503 C 46.4872 2.34798 -1.4753 0
M  V30 504 H 49.4382 1.03543 -1.20268 0
M  V30 505 H 49.4592 3.72378 -0.781977 0
M  V30 506 H 48.9712 3.00309 -2.45837 0
M  V30 507 H 47.0722 3.72464 -0.100544 0
M  V30 508 H 47.1852 4.4184 -1.8524 0
M  V30 509 H 45.5492 2.38464 -0.894829 0
M  V30 510 H 46.3322 2.28375 -2.56319 0
M  V30 511 N 48.7773 0.814389 1.34928 0
M  V30 512 C 50.0253 0.397636 1.9815 0
M  V30 513 C 50.3463 -1.04069 1.64908 0
M  V30 514 O 49.6163 -1.72121 0.93548 0
M  V30 515 H 48.1963 0.144043 0.732981 0
M  V30 516 H 50.8583 1.04195 1.6471 0
M  V30 517 H 49.9543 0.509688 3.0791 0
M  V30 518 N 50.2554 -1.46986 0.568584 0
M  V30 519 C 51.5024 -2.02441 0.0487986 0
M  V30 520 C 51.8304 -1.44169 -1.30559 0
M  V30 521 O 51.0854 -0.591213 -1.86556 0
M  V30 522 C 51.3844 -3.57306 -0.081836 0
M  V30 523 C 51.0504 -4.34552 1.20313 0
M  V30 524 C 49.7124 -4.55376 1.5552 0
M  V30 525 C 52.0644 -4.79016 2.05411 0
M  V30 526 C 49.3924 -5.17913 2.7565 0
M  V30 527 C 51.7444 -5.42879 3.24754 0
M  V30 528 C 50.4084 -5.61933 3.60261 0
M  V30 529 H 49.6784 -0.740785 0.0178567 0
M  V30 530 H 52.3254 -1.76525 0.742384 0
M  V30 531 H 50.6304 -3.8228 -0.858463 0
M  V30 532 H 52.3274 -3.97876 -0.499546 0
M  V30 533 H 48.9174 -4.18631 0.919014 0
M  V30 534 H 53.1014 -4.62696 1.79516 0
M  V30 535 H 48.3574 -5.30858 3.03315 0
M  V30 536 H 52.5314 -5.76293 3.90973 0
M  V30 537 H 50.1584 -6.10161 4.53439 0
M  V30 538 N 51.7335 -0.305618 -1.54608 0
M  V30 539 C 53.1445 0.186098 -1.8577 0
M  V30 540 C 53.4955 1.53058 -1.22751 0
M  V30 541 O 52.6205 2.09888 -0.526893 0
M  V30 542 C 53.2155 0.344449 -3.37044 0
M  V30 543 C 51.7745 0.780384 -3.68221 0
M  V30 544 C 50.9215 -0.108554 -2.77087 0
M  V30 545 H 53.8725 -0.526485 -1.49712 0
M  V30 546 H 53.8935 1.17828 -3.61796 0
M  V30 547 H 53.4055 -0.634235 -3.82883 0
M  V30 548 H 51.5065 1.76945 -3.27904 0
M  V30 549 H 51.6195 0.596572 -4.75371 0
M  V30 550 H 49.9835 0.412931 -2.5133 0
M  V30 551 H 50.7665 -1.08368 -3.25747 0
M  V30 552 N 53.2116 1.57565 -0.0334293 0
M  V30 553 C 54.4596 1.91598 0.642999 0
M  V30 554 C 54.7806 0.910847 1.7242 0
M  V30 555 O 54.0506 -0.0469931 1.95844 0
M  V30 556 H 52.6306 0.707228 0.240496 0
M  V30 557 H 55.2926 1.94726 -0.0822488 0
M  V30 558 H 54.3886 2.92336 1.09298 0
M  V30 559 N 54.6897 -0.239769 1.55765 0
M  V30 560 C 55.5997 -1.31831 1.94056 0
M  V30 561 C 56.6157 -1.52275 0.841925 0
M  V30 562 O 57.7917 -1.65759 1.14394 0
M  V30 563 C 54.8567 -2.65156 2.23368 0
M  V30 564 C 53.9177 -2.53173 3.46701 0
M  V30 565 C 53.1507 -3.8014 3.74606 0
M  V30 566 O 53.3737 -4.82343 3.04469 0
M  V30 567 O 52.3077 -3.78344 4.68123 0
M  V30 568 H 56.1337 -1.02347 2.85935 0
M  V30 569 H 53.7187 -0.441123 1.42739 0
M  V30 570 H 55.6007 -3.43929 2.43497 0
M  V30 571 H 54.2757 -2.94358 1.34666 0
M  V30 572 H 53.1827 -1.72662 3.31871 0
M  V30 573 H 54.5157 -2.28915 4.35728 0
M  V30 574 N 56.1678 -1.49265 -0.50573 0
M  V30 575 C 57.3978 -1.61979 -1.28243 0
M  V30 576 C 57.8058 -0.288576 -1.86986 0
M  V30 577 O 57.1488 0.735408 -1.68337 0
M  V30 578 C 57.2108 -2.62632 -2.45489 0
M  V30 579 C 56.8748 -4.071 -2.07651 0
M  V30 580 C 57.8718 -4.94049 -1.61901 0
M  V30 581 C 55.5568 -4.52801 -2.17431 0
M  V30 582 C 57.5508 -6.24736 -1.26428 0
M  V30 583 C 55.2378 -5.83503 -1.8157 0
M  V30 584 C 56.2358 -6.69294 -1.36142 0
M  V30 585 O 55.9238 -7.9756 -1.00764 0
M  V30 586 H 55.6558 -0.54834 -0.395347 0
M  V30 587 H 58.2098 -1.96002 -0.614204 0
M  V30 588 H 56.4398 -2.2378 -3.15372 0
M  V30 589 H 58.1288 -2.64925 -3.07522 0
M  V30 590 H 58.8948 -4.5997 -1.53795 0
M  V30 591 H 54.7738 -3.86196 -2.51742 0
M  V30 592 H 58.3178 -6.91652 -0.908992 0
M  V30 593 H 54.2148 -6.17112 -1.89324 0
M  V30 594 H 54.9828 -8.10529 -1.13952 0
M  V30 595 N 57.6459 0.756429 -1.3826 0
M  V30 596 C 58.6089 1.85176 -1.35065 0
M  V30 597 C 59.6089 1.58818 -0.251703 0
M  V30 598 O 60.7989 1.66615 -0.508433 0
M  V30 599 C 57.9309 3.22596 -1.10201 0
M  V30 600 H 59.1239 1.89417 -2.3251 0
M  V30 601 H 56.6769 0.95783 -1.23512 0
M  V30 602 H 57.4119 3.24025 -0.133504 0
M  V30 603 H 57.1969 3.43122 -1.89762 0
M  V30 604 H 58.6869 4.02673 -1.10654 0
M  V30 605 N 59.124 1.23083 0.984299 0
M  V30 606 C 60.072 1.00593 2.09723 0
M  V30 607 C 61.066 -0.0538014 1.69315 0
M  V30 608 O 62.272 0.0993719 1.79725 0
M  V30 609 H 58.647 0.30817 0.685956 0
M  V30 610 H 60.618 1.95012 2.2586 0
M  V30 611 C 59.367 0.609601 3.42314 0
M  V30 612 H 58.69 1.41675 3.73856 0
M  V30 613 H 60.13 0.491726 4.21139 0
M  V30 614 C 58.589 -0.681745 3.2993 0
M  V30 615 O 59.119 -1.73192 3.62446 0
M  V30 616 N 57.325 -0.656178 2.83095 0
M  V30 617 H 56.872 0.198759 2.56832 0
M  V30 618 H 56.83 -1.52044 2.75191 0
M  V30 619 N 60.6021 -1.18246 1.0419 0
M  V30 620 C 61.8791 -1.84121 0.660208 0
M  V30 621 C 62.2591 -1.92778 -0.860221 0
M  V30 622 O 61.6071 -1.45464 -1.76217 0
M  V30 623 C 61.8171 -3.22355 1.33747 0
M  V30 624 C 63.1651 -3.98376 1.46906 0
M  V30 625 O 64.1891 -3.31799 1.29568 0
M  V30 626 O 63.0481 -5.17665 1.75171 0
M  V30 627 H 60.1421 -0.794036 0.231161 0
M  V30 628 H 62.6881 -1.25628 1.14087 0
M  V30 629 H 61.4601 -3.10964 2.37522 0
M  V30 630 H 61.0831 -3.88506 0.845515 0
M  V30 631 N 62.0802 -0.821533 -1.34494 0
M  V30 632 C 63.0122 -0.199946 -2.28326 0
M  V30 633 C 64.0252 0.609377 -1.50965 0
M  V30 634 O 65.2142 0.439285 -1.7301 0
M  V30 635 C 62.3142 0.738431 -3.30757 0
M  V30 636 C 61.4872 -0.0277632 -4.37391 0
M  V30 637 C 60.5462 0.831332 -5.19591 0
M  V30 638 O 59.5722 0.276822 -5.68526 0
M  V30 639 N 60.7742 2.15132 -5.39165 0
M  V30 640 H 63.5392 -1.00609 -2.82308 0
M  V30 641 H 61.1002 -0.678366 -1.47003 0
M  V30 642 H 63.0922 1.31773 -3.82646 0
M  V30 643 H 61.6622 1.44533 -2.7718 0
M  V30 644 H 60.8822 -0.788359 -3.86236 0
M  V30 645 H 62.1702 -0.555251 -5.05761 0
M  V30 646 H 61.5682 2.62559 -5.01078 0
M  V30 647 H 60.1252 2.6795 -5.94177 0
M  V30 648 N 63.5583 1.46682 -0.576371 0
M  V30 649 C 64.4683 2.34032 0.163141 0
M  V30 650 C 65.4843 1.49367 0.892501 0
M  V30 651 O 66.6603 1.82252 0.857106 0
M  V30 652 C 63.7253 3.26435 1.16795 0
M  V30 653 C 62.7863 4.26998 0.443944 0
M  V30 654 C 62.0193 5.14986 1.40088 0
M  V30 655 O 62.2423 5.05785 2.637 0
M  V30 656 O 61.1763 5.94906 0.914917 0
M  V30 657 H 65.0023 2.98607 -0.55388 0
M  V30 658 H 62.5873 1.45554 -0.336821 0
M  V30 659 H 64.4693 3.83459 1.74748 0
M  V30 660 H 63.1443 2.64465 1.86655 0
M  V30 661 H 62.0513 3.7368 -0.177271 0
M  V30 662 H 63.3843 4.91736 -0.213566 0
M  V30 663 N 65.0364 0.313813 1.54444 0
M  V30 664 C 66.4524 -0.0391619 1.59552 0
M  V30 665 C 66.6524 -1.51322 1.33056 0
M  V30 666 O 65.7084 -2.26782 1.11022 0
M  V30 667 C 67.0214 0.370302 2.98411 0
M  V30 668 C 68.5694 0.320139 3.11358 0
M  V30 669 C 69.0444 0.704617 4.52547 0
M  V30 670 N 70.5354 0.657645 4.58508 0
M  V30 671 C 71.2704 0.927453 5.6585 0
M  V30 672 N 70.7664 1.26389 6.81174 0
M  V30 673 N 72.5594 0.853662 5.5558 0
M  V30 674 H 64.7104 1.27433 1.69925 0
M  V30 675 H 66.9734 0.517511 0.794284 0
M  V30 676 H 66.6794 1.39694 3.22767 0
M  V30 677 H 66.5534 -0.269619 3.76235 0
M  V30 678 H 68.9404 -0.697275 2.86744 0
M  V30 679 H 69.0214 0.99486 2.35661 0
M  V30 680 H 68.6654 1.7199 4.77893 0
M  V30 681 H 68.5954 0.00768843 5.26599 0
M  V30 682 H 71.0864 0.409067 3.75679 0
M  V30 683 H 71.3994 1.4554 7.58972 0
M  V30 684 H 69.7444 1.30206 6.82694 0
M  V30 685 H 72.9354 0.590383 4.64362 0
M  V30 686 H 73.1084 1.0673 6.3915 0
M  V30 687 N 66.5145 -1.57545 0.0417849 0
M  V30 688 C 67.9305 -1.56467 -0.314704 0
M  V30 689 C 68.1305 -1.04859 -1.72066 0
M  V30 690 O 67.1865 -0.700983 -2.42575 0
M  V30 691 C 68.4995 -3.00317 -0.15174 0
M  V30 692 C 70.0475 -3.12201 -0.223553 0
M  V30 693 C 70.5225 -4.57913 -0.0892295 0
M  V30 694 N 72.0135 -4.6297 -0.145808 0
M  V30 695 C 72.7485 -5.73362 -0.0658459 0
M  V30 696 N 72.2445 -6.92769 0.0659282 0
M  V30 697 N 74.0375 -5.6197 -0.12075 0
M  V30 698 H 66.1885 -1.89416 0.961014 0
M  V30 699 H 68.4515 -0.871862 0.372237 0
M  V30 700 H 68.1575 -3.42073 0.817254 0
M  V30 701 H 68.0315 -3.65892 -0.916692 0
M  V30 702 H 70.4185 -2.70349 -1.18301 0
M  V30 703 H 70.4995 -2.49323 0.571994 0
M  V30 704 H 70.1435 -5.00448 0.866867 0
M  V30 705 H 70.0735 -5.18786 -0.903802 0
M  V30 706 H 72.5645 -3.7709 -0.247286 0
M  V30 707 H 72.8775 -7.72707 0.119905 0
M  V30 708 H 71.2225 -6.94927 0.100885 0
M  V30 709 H 74.4135 -4.67572 -0.222187 0
M  V30 710 H 74.5865 -6.47977 -0.0549735 0
M  V30 711 N 67.9926 0.231505 -1.5589 0
M  V30 712 C 69.2386 0.954429 -1.79617 0
M  V30 713 C 69.5936 1.82367 -0.613199 0
M  V30 714 O 68.8866 1.87524 0.393094 0
M  V30 715 C 69.0806 1.83577 -3.0665 0
M  V30 716 C 68.9096 1.05334 -4.3719 0
M  V30 717 C 67.6796 0.75225 -4.99669 0
M  V30 718 C 69.8776 0.423444 -5.12554 0
M  V30 719 N 67.8596 -0.052627 -6.13877 0
M  V30 720 C 69.2306 -0.245287 -6.19515 0
M  V30 721 C 71.2856 0.335466 -4.96769 0
M  V30 722 C 69.9886 -0.993566 -7.12405 0
M  V30 723 C 72.0146 -0.399321 -5.9005 0
M  V30 724 C 71.3766 -1.05663 -6.9643 0
M  V30 725 H 67.4756 0.329846 -0.709031 0
M  V30 726 H 70.0596 0.226172 -1.93382 0
M  V30 727 H 68.2306 2.53592 -2.94186 0
M  V30 728 H 69.9626 2.49541 -3.18608 0
M  V30 729 H 66.7176 1.06783 -4.61405 0
M  V30 730 H 67.1416 -0.443609 -6.75545 0
M  V30 731 H 71.7836 0.829311 -4.14587 0
M  V30 732 H 69.5016 -1.49896 -7.94076 0
M  V30 733 H 73.0876 -0.468265 -5.79913 0
M  V30 734 H 71.9676 -1.61612 -7.67366 0
M  V30 735 N 69.4707 1.49531 0.497807 0
M  V30 736 C 70.6987 1.62893 1.27567 0
M  V30 737 C 71.1137 0.301585 1.86376 0
M  V30 738 O 70.4707 -0.713335 1.67982 0
M  V30 739 C 70.5217 2.70013 2.40364 0
M  V30 740 O 70.2427 3.976 1.83972 0
M  V30 741 C 71.7437 2.94109 3.31685 0
M  V30 742 H 68.9637 0.548298 0.386794 0
M  V30 743 H 71.5077 1.95584 0.597245 0
M  V30 744 H 69.6627 2.40092 3.04031 0
M  V30 745 H 70.0767 4.56631 2.58047 0
M  V30 746 H 71.5507 3.72788 4.07104 0
M  V30 747 H 72.0277 2.04147 3.88871 0
M  V30 748 H 72.6337 3.2546 2.73781 0
M  V30 749 N 70.9488 -0.749086 1.3866 0
M  V30 750 C 71.8788 -1.8764 1.38973 0
M  V30 751 C 72.8598 -1.68178 0.255004 0
M  V30 752 O 74.0448 -1.88704 0.458754 0
M  V30 753 C 71.1748 -3.25222 1.21851 0
M  V30 754 C 70.1288 -3.59295 2.32575 0
M  V30 755 C 69.4548 -4.95663 2.00555 0
M  V30 756 C 70.7548 -3.63709 3.7485 0
M  V30 757 H 72.4488 -1.87635 2.3331 0
M  V30 758 H 69.9948 -0.901329 1.12303 0
M  V30 759 H 71.9478 -4.03746 1.20695 0
M  V30 760 H 70.6718 -3.25719 0.239775 0
M  V30 761 H 69.3308 -2.83093 2.32925 0
M  V30 762 H 68.9788 -4.92724 1.01154 0
M  V30 763 H 68.6788 -5.19429 2.74714 0
M  V30 764 H 70.2028 -5.7656 2.01024 0
M  V30 765 H 71.6168 -4.32338 3.76506 0
M  V30 766 H 70.0138 -3.98986 4.48252 0
M  V30 767 H 71.0838 -2.63834 4.06841 0
M  V30 768 N 72.4269 -1.23603 -0.977757 0
M  V30 769 C 73.6549 -1.09646 -1.75458 0
M  V30 770 C 74.0699 0.351859 -1.85492 0
M  V30 771 O 73.4269 1.24327 -1.336 0
M  V30 772 C 73.4779 -1.71895 -3.18016 0
M  V30 773 O 73.1989 -3.11063 -3.08498 0
M  V30 774 C 74.6999 -1.63415 -4.12081 0
M  V30 775 H 71.9199 -0.38359 -0.550545 0
M  V30 776 H 74.4639 -1.63507 -1.22824 0
M  V30 777 H 72.6189 -1.22061 -3.67668 0
M  V30 778 H 73.0329 -3.41305 -3.9826 0
M  V30 779 H 74.5069 -2.11669 -5.09804 0
M  V30 780 H 74.9839 -0.593462 -4.35172 0
M  V30 781 H 75.5899 -2.12628 -3.68334 0
M  V30 782 N 73.905 1.17692 -1.04816 0
M  V30 783 C 74.868 2.19787 -0.650117 0
M  V30 784 C 75.868 1.58044 0.296427 0
M  V30 785 O 77.058 1.74012 0.0808097 0
M  V30 786 C 74.19 3.40869 0.0456987 0
M  V30 787 H 75.383 2.56516 -1.5537 0
M  V30 788 H 72.936 1.31708 -0.841594 0
M  V30 789 H 73.671 3.09681 0.962726 0
M  V30 790 H 73.456 3.86928 -0.634727 0
M  V30 791 H 74.946 4.16445 0.310432 0
M  V30 792 N 75.3831 0.828654 1.34056 0
M  V30 793 C 76.7941 0.477534 1.8049 0
M  V30 794 C 77.1451 -1.00258 1.6865 0
M  V30 795 O 76.2701 -1.78057 1.22982 0
M  V30 796 C 76.8651 0.860018 3.27703 0
M  V30 797 C 75.4241 0.561185 3.72193 0
M  V30 798 C 74.5711 1.07385 2.55663 0
M  V30 799 H 77.5221 1.0183 1.21722 0
M  V30 800 H 77.5431 0.166038 3.80138 0
M  V30 801 H 77.0551 1.93731 3.36288 0
M  V30 802 H 75.1561 -0.506465 3.69142 0
M  V30 803 H 75.2691 1.10926 4.66082 0
M  V30 804 H 73.6331 0.495149 2.49841 0
M  V30 805 H 74.4161 2.15771 2.67016 0
M  V30 806 N 76.8612 -1.46375 0.584142 0
M  V30 807 C 78.2722 -1.86031 0.157959 0
M  V30 808 C 78.6232 -1.48753 -1.27933 0
M  V30 809 O 77.7482 -0.903098 -1.96655 0
M  V30 810 C 78.3432 -3.37642 0.279892 0
M  V30 811 C 76.9022 -3.76289 -0.09143 0
M  V30 812 C 76.0492 -2.7039 0.615178 0
M  V30 813 H 79.0002 -1.37509 0.792274 0
M  V30 814 H 79.0212 -3.77275 -0.494364 0
M  V30 815 H 78.5332 -3.64742 1.32607 0
M  V30 816 H 76.6342 -3.54806 -1.13769 0
M  V30 817 H 76.7472 -4.78246 0.285886 0
M  V30 818 H 75.1112 -2.5464 0.0552833 0
M  V30 819 H 75.8942 -3.0033 1.66303 0
M  V30 820 N 78.3393 -0.321999 -1.54275 0
M  V30 821 C 79.5873 0.280489 -2.00144 0
M  V30 822 C 79.9083 1.52777 -1.21178 0
M  V30 823 O 79.1783 1.9338 -0.313187 0
M  V30 824 H 77.7583 0.106632 -0.73935 0
M  V30 825 H 80.4203 -0.438184 -1.8991 0
M  V30 826 H 79.5163 0.537972 -3.07428 0
M  V30 827 N 79.8174 1.5752 -0.0501392 0
M  V30 828 C 81.0474 1.96678 0.632573 0
M  V30 829 C 81.4554 0.926298 1.64974 0
M  V30 830 O 80.7984 -0.09802 1.83438 0
M  V30 831 C 80.8604 3.32068 1.37735 0
M  V30 832 C 80.5244 4.54076 0.516131 0
M  V30 833 C 81.5214 5.19445 -0.217357 0
M  V30 834 C 79.2064 5.00304 0.44736 0
M  V30 835 C 81.2004 6.29378 -1.00807 0
M  V30 836 C 78.8874 6.10114 -0.347038 0
M  V30 837 C 79.8854 6.74512 -1.07344 0
M  V30 838 O 79.5734 7.82211 -1.85477 0
M  V30 839 H 79.3054 0.652193 0.177821 0
M  V30 840 H 81.8594 2.05091 -0.112543 0
M  V30 841 H 80.0894 3.20206 2.16807 0
M  V30 842 H 81.7784 3.55981 1.95019 0
M  V30 843 H 82.5444 4.84689 -0.173688 0
M  V30 844 H 78.4234 4.49971 1.00235 0
M  V30 845 H 81.9674 6.79575 -1.57556 0
M  V30 846 H 77.8644 6.44307 -0.392349 0
M  V30 847 H 78.6324 7.98982 -1.77678 0
M  V30 848 N 81.2955 -0.223234 1.56011 0
M  V30 849 C 82.7115 -0.572856 1.48965 0
M  V30 850 C 82.9115 -1.87225 0.74492 0
M  V30 851 O 81.9675 -2.50899 0.283896 0
M  V30 852 C 83.2805 -0.653646 2.9351 0
M  V30 853 C 84.8285 -0.744386 3.0402 0
M  V30 854 C 85.3035 -0.856535 4.49919 0
M  V30 855 N 86.7945 -0.9208 4.53955 0
M  V30 856 C 87.5295 -1.02726 5.64123 0
M  V30 857 N 87.0255 -1.09777 6.84047 0
M  V30 858 N 88.8185 -1.06226 5.51971 0
M  V30 859 H 80.9695 0.629462 2.02858 0
M  V30 860 H 83.2325 0.220621 0.921971 0
M  V30 861 H 82.9385 0.231518 3.50937 0
M  V30 862 H 82.8125 -1.51781 3.45315 0
M  V30 863 H 85.1995 -1.61999 2.46658 0
M  V30 864 H 85.2805 0.14541 2.55386 0
M  V30 865 H 84.9245 0.0146069 5.07898 0
M  V30 866 H 84.8545 -1.76172 4.96257 0
M  V30 867 H 87.3455 -0.876694 3.6759 0
M  V30 868 H 87.6585 -1.17872 7.63758 0
M  V30 869 H 86.0035 -1.06693 6.86762 0
M  V30 870 H 89.1945 -1.00382 4.5721 0
M  V30 871 H 89.3675 -1.14177 6.37862 0
M  V30 872 N 82.7736 -1.49793 -0.48987 0
M  V30 873 C 83.7036 -1.70201 -1.59856 0
M  V30 874 C 84.6846 -0.55076 -1.60937 0
M  V30 875 O 85.8696 -0.787841 -1.77501 0
M  V30 876 C 82.9996 -1.77882 -2.98287 0
M  V30 877 C 81.9536 -2.92907 -3.12073 0
M  V30 878 C 81.2796 -2.85712 -4.51965 0
M  V30 879 C 82.5796 -4.3369 -2.91051 0
M  V30 880 H 84.2736 -2.63025 -1.43032 0
M  V30 881 H 81.8196 -1.26574 -0.686664 0
M  V30 882 H 83.7726 -1.90744 -3.75759 0
M  V30 883 H 82.4966 -0.816653 -3.16225 0
M  V30 884 H 81.1556 -2.79665 -2.37029 0
M  V30 885 H 80.8036 -1.8738 -4.66795 0
M  V30 886 H 80.5036 -3.62921 -4.62128 0
M  V30 887 H 82.0276 -3.00598 -5.31482 0
M  V30 888 H 83.4416 -4.47555 -3.58284 0
M  V30 889 H 81.8386 -5.12205 -3.12675 0
M  V30 890 H 82.9086 -4.47362 -1.87071 0
M  V30 891 N 84.2517 0.741722 -1.39055 0
M  V30 892 C 85.6677 1.04638 -1.20512 0
M  V30 893 C 85.8677 2.01405 -0.0620218 0
M  V30 894 O 84.9237 2.45547 0.588457 0
M  V30 895 C 86.2367 1.6151 -2.53643 0
M  V30 896 C 87.7847 1.73623 -2.6043 0
M  V30 897 C 88.2597 2.33906 -3.93767 0
M  V30 898 N 89.7507 2.41323 -3.9537 0
M  V30 899 C 90.4857 2.88888 -4.95309 0
M  V30 900 N 89.9817 3.36401 -6.05645 0
M  V30 901 N 91.7747 2.88037 -4.82692 0
M  V30 902 H 83.9257 0.0998155 -2.12165 0
M  V30 903 H 86.1887 0.106907 -0.941953 0
M  V30 904 H 85.8947 0.978739 -3.37807 0
M  V30 905 H 85.7687 2.60411 -2.72885 0
M  V30 906 H 88.1557 2.36384 -1.76655 0
M  V30 907 H 88.2367 0.733945 -2.45045 0
M  V30 908 H 87.8807 1.71776 -4.7797 0
M  V30 909 H 87.8107 3.34799 -4.06469 0
M  V30 910 H 90.3017 2.07734 -3.15682 0
M  V30 911 H 90.6147 3.71186 -6.77821 0
M  V30 912 H 88.9597 3.34427 -6.09248 0
M  V30 913 H 92.1507 2.50237 -3.95599 0
M  V30 914 H 92.3237 3.24792 -5.60726 0
M  V30 915 N 85.7298 1.2412 0.971189 0
M  V30 916 C 86.6598 1.05508 2.08304 0
M  V30 917 C 87.6408 -0.0308864 1.70072 0
M  V30 918 O 88.8258 0.135521 1.93727 0
M  V30 919 C 85.9558 0.655365 3.4106 0
M  V30 920 C 84.9098 1.68971 3.93234 0
M  V30 921 C 84.2358 1.14516 5.22293 0
M  V30 922 C 85.5358 3.08487 4.21465 0
M  V30 923 H 87.2298 1.98507 2.24132 0
M  V30 924 H 84.7758 0.955821 1.07704 0
M  V30 925 H 86.7288 0.51217 4.18276 0
M  V30 926 H 85.4528 -0.31032 3.25122 0
M  V30 927 H 84.1118 1.82106 3.18171 0
M  V30 928 H 83.7598 0.170189 5.02712 0
M  V30 929 H 83.4598 1.83635 5.58168 0
M  V30 930 H 84.9838 1.01401 6.02121 0
M  V30 931 H 86.3978 2.98601 4.89398 0
M  V30 932 H 84.7948 3.74926 4.68562 0
M  V30 933 H 85.8648 3.56787 3.28376 0
M  V30 934 N 87.2079 -1.17134 1.05439 0
M  V30 935 C 88.4379 -1.91094 0.785274 0
M  V30 936 C 88.8459 -1.77198 -0.663142 0
M  V30 937 O 88.1889 -1.10835 -1.46497 0
M  V30 938 C 88.2509 -3.42594 1.08949 0
M  V30 939 C 87.9149 -3.80274 2.53458 0
M  V30 940 C 88.9119 -3.82912 3.51673 0
M  V30 941 C 86.5969 -4.11162 2.88532 0
M  V30 942 C 88.5909 -4.15913 4.83006 0
M  V30 943 C 86.2779 -4.43831 4.20068 0
M  V30 944 C 87.2759 -4.46185 5.17115 0
M  V30 945 O 86.9639 -4.78083 6.46291 0
M  V30 946 H 86.6959 -0.613073 0.284811 0
M  V30 947 H 89.2499 -1.49461 1.40893 0
M  V30 948 H 87.4799 -3.84534 0.408741 0
M  V30 949 H 89.1689 -3.97817 0.805991 0
M  V30 950 H 89.9349 -3.5917 3.25917 0
M  V30 951 H 85.8139 -4.085 2.13656 0
M  V30 952 H 89.3579 -4.17665 5.5875 0
M  V30 953 H 85.2549 -4.67037 4.45586 0
M  V30 954 H 86.0229 -4.9593 6.51149 0
M  V30 955 N 88.686 -0.835752 -1.33615 0
M  V30 956 C 89.933 -0.429959 -1.97883 0
M  V30 957 C 90.261 1.01006 -1.66217 0
M  V30 958 O 89.516 1.72047 -0.93265 0
M  V30 959 C 89.815 -0.593925 -3.52431 0
M  V30 960 C 89.481 -2.00158 -4.04039 0
M  V30 961 C 88.143 -2.38662 -4.17844 0
M  V30 962 C 90.495 -2.92117 -4.31644 0
M  V30 963 C 87.823 -3.68435 -4.56588 0
M  V30 964 C 90.175 -4.21368 -4.71838 0
M  V30 965 C 88.839 -4.59833 -4.83849 0
M  V30 966 H 88.109 -0.157333 -0.724104 0
M  V30 967 H 90.756 -1.06217 -1.59343 0
M  V30 968 H 89.061 0.121619 -3.91611 0
M  V30 969 H 90.758 -0.260282 -4.00154 0
M  V30 970 H 87.348 -1.69252 -3.93766 0
M  V30 971 H 91.532 -2.63608 -4.20505 0
M  V30 972 H 86.788 -3.98046 -4.64079 0
M  V30 973 H 90.962 -4.92703 -4.92155 0
M  V30 974 H 88.589 -5.60438 -5.13627 0
M  V30 975 N 90.1641 1.46063 -0.591896 0
M  V30 976 C 91.3921 2.06717 -0.0868936 0
M  V30 977 C 91.8071 1.43916 1.22203 0
M  V30 978 O 91.1641 0.547698 1.74088 0
M  V30 979 C 91.2151 3.6142 0.0758725 0
M  V30 980 O 90.9361 4.21874 -1.18126 0
M  V30 981 C 92.4371 4.39025 0.61416 0
M  V30 982 H 89.6571 0.668162 -0.0616518 0
M  V30 983 H 92.2011 1.8755 -0.815175 0
M  V30 984 H 90.3561 3.79983 0.754413 0
M  V30 985 H 90.7701 5.14861 -1.00092 0
M  V30 986 H 92.2441 5.4783 0.677193 0
M  V30 987 H 92.7211 4.07708 1.63312 0
M  V30 988 H 93.3271 4.2529 -0.0298142 0
M  V30 989 N 91.6422 0.330177 1.54103 0
M  V30 990 C 92.5922 -0.548456 2.21305 0
M  V30 991 C 93.5762 -1.07651 1.19583 0
M  V30 992 O 94.7682 -1.01243 1.45186 0
M  V30 993 C 91.8972 -1.70559 2.97934 0
M  V30 994 C 90.9832 -1.19212 4.07 0
M  V30 995 N 91.3742 -0.398831 5.04225 0
M  V30 996 C 89.6722 -1.47024 4.2107 0
M  V30 997 C 90.3732 -0.121761 5.81573 0
M  V30 998 N 89.3492 -0.709722 5.38947 0
M  V30 999 H 93.1512 0.0648483 2.93828 0
M  V30 1000 H 90.6652 0.136363 1.61826 0
M  V30 1001 H 92.6622 -2.34688 3.44568 0
M  V30 1002 H 91.3222 -2.32231 2.26934 0
M  V30 1003 H 92.3332 -0.0410869 5.17884 0
M  V30 1004 H 89.0102 -2.09232 3.61287 0
M  V30 1005 H 90.4002 0.517298 6.69906 0
M  V30 1006 N 93.1203 -1.57491 0.0584922 0
M  V30 1007 C 94.3673 -1.92978 -0.613648 0
M  V30 1008 C 94.6953 -0.937461 -1.70417 0
M  V30 1009 O 93.9503 0.049078 -1.95638 0
M  V30 1010 C 94.2493 -3.3513 -1.24188 0
M  V30 1011 C 93.9153 -4.50037 -0.278826 0
M  V30 1012 C 92.5773 -4.81198 -0.0138447 0
M  V30 1013 C 94.9293 -5.19807 0.380777 0
M  V30 1014 C 92.2573 -5.79473 0.918052 0
M  V30 1015 C 94.6093 -6.19079 1.30091 0
M  V30 1016 C 93.2733 -6.48665 1.57449 0
M  V30 1017 H 92.5433 -0.706157 -0.22455 0
M  V30 1018 H 95.1903 -1.91082 0.126533 0
M  V30 1019 H 93.4953 -3.33429 -2.05749 0
M  V30 1020 H 95.1923 -3.59871 -1.769 0
M  V30 1021 H 91.7823 -4.25726 -0.495539 0
M  V30 1022 H 95.9663 -4.95939 0.189158 0
M  V30 1023 H 91.2223 -6.00727 1.1374 0
M  V30 1024 H 95.3963 -6.7225 1.81804 0
M  V30 1025 H 93.0233 -7.24628 2.29822 0
M  V30 1026 N 94.5984 0.214957 -1.56127 0
M  V30 1027 C 95.8754 0.963093 -1.70247 0
M  V30 1028 C 96.2554 2.02166 -0.60764 0
M  V30 1029 O 95.6034 2.25244 0.384385 0
M  V30 1030 C 95.8134 1.56756 -3.11815 0
M  V30 1031 C 97.1614 2.0573 -3.7143 0
M  V30 1032 O 98.1854 1.66637 -3.14818 0
M  V30 1033 O 97.0444 2.77603 -4.70743 0
M  V30 1034 H 94.1384 0.450321 -0.693643 0
M  V30 1035 H 96.6844 0.206219 -1.68442 0
M  V30 1036 H 95.4564 0.803533 -3.82961 0
M  V30 1037 H 95.0794 2.3898 -3.17765 0
M  V30 1038 N 96.0765 1.50051 0.48192 0
M  V30 1039 C 97.0065 1.71046 1.58951 0
M  V30 1040 C 97.9875 0.559288 1.60642 0
M  V30 1041 O 99.1725 0.797243 1.77081 0
M  V30 1042 C 96.3025 1.79462 2.97339 0
M  V30 1043 C 95.2565 2.94558 3.10515 0
M  V30 1044 C 94.5825 2.88105 4.50444 0
M  V30 1045 C 95.8825 4.35227 2.88747 0
M  V30 1046 H 97.5765 2.6378 1.41635 0
M  V30 1047 H 95.1225 1.26936 0.679942 0
M  V30 1048 H 97.0755 1.92734 3.74742 0
M  V30 1049 H 95.7995 0.833412 3.15788 0
M  V30 1050 H 94.4585 2.80918 2.35543 0
M  V30 1051 H 94.1065 1.89853 4.65795 0
M  V30 1052 H 93.8065 3.65366 4.60197 0
M  V30 1053 H 95.3305 3.03412 5.29881 0
M  V30 1054 H 96.7445 4.49449 3.55905 0
M  V30 1055 H 95.1415 5.13856 3.09955 0
M  V30 1056 H 96.2115 4.48347 1.84696 0
M  V30 1057 N 97.5546 -0.734337 1.39446 0
M  V30 1058 C 98.4646 -1.87879 1.40495 0
M  V30 1059 C 99.4806 -1.714 0.299672 0
M  V30 1060 O 100.657 -1.93991 0.541249 0
M  V30 1061 C 97.7216 -3.23477 1.24754 0
M  V30 1062 C 96.7826 -3.52344 2.45259 0
M  V30 1063 C 96.0156 -4.81473 2.30259 0
M  V30 1064 O 96.2386 -5.55237 1.30643 0
M  V30 1065 O 95.1726 -5.10254 3.19256 0
M  V30 1066 H 98.9986 -1.89949 2.36966 0
M  V30 1067 H 96.5836 -0.882243 1.20569 0
M  V30 1068 H 98.4656 -4.04509 1.18111 0
M  V30 1069 H 97.1406 -3.22176 0.313781 0
M  V30 1070 H 96.0476 -2.71396 2.57478 0
M  V30 1071 H 97.3806 -3.58426 3.37331 0
M  V30 1072 N 99.0327 -1.24633 -0.964593 0
M  V30 1073 C 99.9627 -1.06611 -2.07741 0
M  V30 1074 C 100.944 0.0218666 -1.70086 0
M  V30 1075 O 102.129 -0.145793 -1.93652 0
M  V30 1076 C 99.2587 -0.673444 -3.40708 0
M  V30 1077 C 98.2127 -1.71054 -3.92332 0
M  V30 1078 C 97.5387 -1.17285 -5.21678 0
M  V30 1079 C 98.8387 -3.10718 -4.19824 0
M  V30 1080 H 100.533 -1.99693 -2.23076 0
M  V30 1081 H 98.0787 -0.96152 -1.07195 0
M  V30 1082 H 100.032 -0.534345 -4.17998 0
M  V30 1083 H 98.7557 0.293073 -3.25282 0
M  V30 1084 H 97.4147 -1.83791 -3.17201 0
M  V30 1085 H 97.0627 -0.196847 -5.02615 0
M  V30 1086 H 96.7627 -1.86592 -5.57187 0
M  V30 1087 H 98.2867 -1.04593 -6.01575 0
M  V30 1088 H 99.7007 -3.01192 -4.87808 0
M  V30 1089 H 98.0977 -3.77406 -4.66567 0
M  V30 1090 H 99.1677 -3.58524 -3.26479 0
M  V30 1091 N 100.511 1.16574 -1.06058 0
M  V30 1092 C 101.736 1.91493 -0.796562 0
M  V30 1093 C 102.161 1.76773 0.642868 0
M  V30 1094 O 101.519 1.09142 1.44768 0
M  V30 1095 C 101.567 3.40293 -1.19303 0
M  V30 1096 O 100.671 4.11074 -0.330394 0
M  V30 1097 H 100.012 0.596678 -0.291326 0
M  V30 1098 H 102.542 1.47708 -1.41575 0
M  V30 1099 H 102.552 3.91057 -1.16356 0
M  V30 1100 H 101.227 3.50326 -2.24153 0
M  V30 1101 H 99.8038 3.70513 -0.421225 0
M  V30 1102 N 101.989 0.842826 1.3317 0
M  V30 1103 C 102.939 0.250877 2.26616 0
M  V30 1104 C 103.923 -0.596427 1.49437 0
M  V30 1105 O 105.115 -0.447747 1.71243 0
M  V30 1106 C 102.244 -0.569779 3.38539 0
M  V30 1107 C 101.33 0.289254 4.23112 0
M  V30 1108 N 101.721 1.36987 4.86897 0
M  V30 1109 C 100.019 0.0769631 4.45934 0
M  V30 1110 C 100.72 1.89737 5.49886 0
M  V30 1111 N 99.6959 1.19827 5.30229 0
M  V30 1112 H 103.498 1.07718 2.73448 0
M  V30 1113 H 101.012 0.687693 1.47121 0
M  V30 1114 H 103.009 -1.01018 4.04476 0
M  V30 1115 H 101.669 -1.39401 2.93253 0
M  V30 1116 H 102.68 1.75277 4.87338 0
M  V30 1117 H 99.3569 -0.713507 4.11358 0
M  V30 1118 H 100.747 2.80253 6.10662 0
M  V30 1119 N 103.467 -1.45747 0.599634 0
M  V30 1120 C 104.397 -2.33235 -0.111306 0
M  V30 1121 C 105.378 -1.46359 -0.866781 0
M  V30 1122 O 106.563 -1.75146 -0.838904 0
M  V30 1123 C 103.693 -3.28932 -1.11451 0
M  V30 1124 C 102.647 -4.25381 -0.472772 0
M  V30 1125 C 101.973 -5.1071 -1.58365 0
M  V30 1126 C 103.273 -5.18831 0.600948 0
M  V30 1127 H 104.967 -2.92927 0.61919 0
M  V30 1128 H 102.513 -1.40857 0.299215 0
M  V30 1129 H 104.466 -3.89002 -1.62036 0
M  V30 1130 H 103.19 -2.67381 -1.8755 0
M  V30 1131 H 101.849 -3.66598 0.0121472 0
M  V30 1132 H 101.497 -4.45533 -2.33473 0
M  V30 1133 H 101.197 -5.7604 -1.15982 0
M  V30 1134 H 102.721 -5.73647 -2.09194 0
M  V30 1135 H 104.135 -5.73019 0.179491 0
M  V30 1136 H 102.532 -5.92595 0.946076 0
M  V30 1137 H 103.602 -4.6174 1.48068 0
M  V30 1138 N 104.945 -0.338344 -1.53925 0
M  V30 1139 C 106.185 0.260168 -2.02737 0
M  V30 1140 C 106.549 1.48181 -1.22092 0
M  V30 1141 O 107.75 2.15416 -1.60777 0
M  V30 1142 C 106.021 0.571627 -3.52799 0
M  V30 1143 S 107.58 1.14769 -4.23525 0
M  V30 1144 H 104.398 0.077791 -0.706732 0
M  V30 1145 H 107 -0.474899 -1.89644 0
M  V30 1146 H 105.704 -0.325392 -4.09108 0
M  V30 1147 H 105.235 1.3365 -3.70002 0
M  V30 1148 H 107.25 2.43372 -4.32417 0
M  V30 1149 N 106.423 1.57458 -0.0668435 0
M  V30 1150 C 107.333 2.15937 0.916975 0
M  V30 1151 C 108.349 1.12123 1.33058 0
M  V30 1152 O 109.525 1.44366 1.40429 0
M  V30 1153 C 106.59 2.70547 2.16807 0
M  V30 1154 C 105.651 3.89215 1.81135 0
M  V30 1155 C 104.884 4.41211 3.0028 0
M  V30 1156 O 105.107 3.92225 4.14144 0
M  V30 1157 O 104.041 5.32605 2.80384 0
M  V30 1158 H 107.867 3.00354 0.449561 0
M  V30 1159 H 105.452 1.48584 0.155949 0
M  V30 1160 H 107.334 3.0557 2.90181 0
M  V30 1161 H 106.009 1.89192 2.62656 0
M  V30 1162 H 104.916 3.59054 1.05028 0
M  V30 1163 H 106.249 4.71848 1.40073 0
M  V30 1164 N 107.901 -0.206675 1.56239 0
M  V30 1165 C 109.131 -0.943975 1.83773 0
M  V30 1166 C 109.539 -1.77841 0.645703 0
M  V30 1167 O 108.882 -1.79403 -0.395008 0
M  V30 1168 C 108.944 -1.899 3.05251 0
M  V30 1169 C 108.608 -1.24764 4.39639 0
M  V30 1170 C 109.605 -0.630216 5.16066 0
M  V30 1171 C 107.29 -1.25496 4.8637 0
M  V30 1172 C 109.284 -0.0287946 6.37393 0
M  V30 1173 C 106.971 -0.649698 6.07637 0
M  V30 1174 C 107.969 -0.0376845 6.8299 0
M  V30 1175 O 107.657 0.55812 8.0196 0
M  V30 1176 H 107.389 -0.281508 0.614597 0
M  V30 1177 H 109.943 -0.222458 2.04192 0
M  V30 1178 H 108.173 -2.6599 2.80689 0
M  V30 1179 H 109.862 -2.5031 3.1953 0
M  V30 1180 H 110.628 -0.616785 4.81062 0
M  V30 1181 H 106.507 -1.72072 4.27683 0
M  V30 1182 H 110.051 0.449518 6.9615 0
M  V30 1183 H 105.948 -0.660592 6.42111 0
M  V30 1184 H 106.716 0.453891 8.17241 0
M  V30 1185 N 109.379 -1.50304 -0.473955 0
M  V30 1186 C 110.656 -1.51667 -1.23518 0
M  V30 1187 C 111.036 -0.259701 -2.09496 0
M  V30 1188 O 110.384 0.756986 -2.15597 0
M  V30 1189 C 110.594 -2.81082 -2.06868 0
M  V30 1190 C 111.942 -3.31631 -2.65153 0
M  V30 1191 O 112.966 -2.82384 -2.17113 0
M  V30 1192 O 111.825 -4.17471 -3.52675 0
M  V30 1193 H 108.919 -0.60822 -0.560355 0
M  V30 1194 H 111.465 -1.62592 -0.486011 0
M  V30 1195 H 110.237 -3.64041 -1.4349 0
M  V30 1196 H 109.86 -2.73146 -2.88924 0
M  V30 1197 N 110.857 0.726932 -1.39834 0
M  V30 1198 C 112.104 1.48664 -1.37496 0
M  V30 1199 C 112.432 1.94482 0.0264678 0
M  V30 1200 O 111.687 1.67692 1.00886 0
M  V30 1201 C 111.986 2.73495 -2.30077 0
M  V30 1202 C 111.652 2.46502 -3.77555 0
M  V30 1203 C 110.314 2.3885 -4.17737 0
M  V30 1204 C 112.666 2.23604 -4.70798 0
M  V30 1205 C 109.994 2.06352 -5.49214 0
M  V30 1206 C 112.346 1.92622 -6.02561 0
M  V30 1207 C 111.01 1.83444 -6.41798 0
M  V30 1208 H 110.28 0.544001 -0.503135 0
M  V30 1209 H 112.927 0.833657 -1.72402 0
M  V30 1210 H 111.232 3.43575 -1.88317 0
M  V30 1211 H 112.929 3.31549 -2.25558 0
M  V30 1212 H 109.519 2.5334 -3.45712 0
M  V30 1213 H 113.703 2.28479 -4.40581 0
M  V30 1214 H 108.959 1.97776 -5.78528 0
M  V30 1215 H 113.133 1.73914 -6.74334 0
M  V30 1216 H 110.76 1.58029 -7.43593 0
M  V30 1217 N 112.336 1.25143 0.95797 0
M  V30 1218 C 113.582 1.09855 1.70469 0
M  V30 1219 C 113.915 -0.360187 1.90831 0
M  V30 1220 O 113.19 -1.26568 1.47685 0
M  V30 1221 C 113.473 1.8497 3.08963 0
M  V30 1222 C 113.326 3.38652 2.96032 0
M  V30 1223 C 114.645 1.63016 4.08795 0
M  V30 1224 H 111.764 0.400465 0.618706 0
M  V30 1225 H 114.406 1.53933 1.11376 0
M  V30 1226 H 112.556 1.47505 3.59409 0
M  V30 1227 H 114.228 3.85772 2.52938 0
M  V30 1228 H 112.471 3.66534 2.32025 0
M  V30 1229 H 113.142 3.8642 3.94187 0
M  V30 1230 H 115.618 1.95625 3.67247 0
M  V30 1231 H 114.494 2.18015 5.03747 0
M  V30 1232 H 114.755 0.570692 4.38401 0
M  V30 1233 N 113.814 -1.1601 1.06675 0
M  V30 1234 C 114.761 -2.20525 0.680967 0
M  V30 1235 C 115.731 -1.62904 -0.324283 0
M  V30 1236 O 116.916 -1.89615 -0.212294 0
M  V30 1237 C 114.056 -3.45013 0.0776551 0
M  V30 1238 C 113.169 -4.16863 1.13355 0
M  V30 1239 C 112.304 -5.2888 0.49597 0
M  V30 1240 C 111.343 -5.92537 1.53513 0
M  V30 1241 N 110.48 -6.96038 0.920631 0
M  V30 1242 H 115.32 -2.52876 1.57663 0
M  V30 1243 H 112.857 -1.24199 0.788223 0
M  V30 1244 H 114.815 -4.16193 -0.289704 0
M  V30 1245 H 113.445 -3.132 -0.781393 0
M  V30 1246 H 112.497 -3.44248 1.61857 0
M  V30 1247 H 113.809 -4.60294 1.92174 0
M  V30 1248 H 112.963 -6.06653 0.0758604 0
M  V30 1249 H 111.702 -4.86622 -0.324062 0
M  V30 1250 H 110.707 -5.13482 1.9651 0
M  V30 1251 H 111.932 -6.36873 2.35733 0
M  V30 1252 H 109.878 -6.55888 0.12138 0
M  V30 1253 H 109.795 -7.3786 1.64616 0
M  V30 1254 H 111.063 -7.77725 0.525795 0
M  V30 1255 N 115.292 -0.849877 -1.32721 0
M  V30 1256 C 116.222 -0.306308 -2.31482 0
M  V30 1257 C 117.203 0.591952 -1.59468 0
M  V30 1258 O 118.388 0.513199 -1.87296 0
M  V30 1259 C 115.518 0.510204 -3.43532 0
M  V30 1260 C 114.472 -0.293209 -4.26994 0
M  V30 1261 C 113.798 0.647743 -5.30762 0
M  V30 1262 C 115.098 -1.51634 -4.99804 0
M  V30 1263 H 116.792 -1.13153 -2.77195 0
M  V30 1264 H 114.338 -0.545553 -1.33266 0
M  V30 1265 H 116.291 0.900856 -4.11658 0
M  V30 1266 H 115.015 1.36874 -2.96535 0
M  V30 1267 H 113.674 -0.665555 -3.60508 0
M  V30 1268 H 113.322 1.50299 -4.8002 0
M  V30 1269 H 113.022 0.11422 -5.87489 0
M  V30 1270 H 114.546 1.03567 -6.01753 0
M  V30 1271 H 115.96 -1.19824 -5.60638 0
M  V30 1272 H 114.357 -1.98745 -5.66234 0
M  V30 1273 H 115.427 -2.28018 -4.27943 0
M  V30 1274 N 116.77 1.45427 -0.607355 0
M  V30 1275 C 117.995 2.07124 -0.107006 0
M  V30 1276 C 118.42 1.44906 1.19933 0
M  V30 1277 O 117.778 0.541687 1.73019 0
M  V30 1278 C 117.826 3.60595 0.0194119 0
M  V30 1279 O 116.93 3.98285 1.0697 0
M  V30 1280 H 116.271 0.659868 -0.0739597 0
M  V30 1281 H 118.801 1.86683 -0.837297 0
M  V30 1282 H 118.811 4.07419 0.2177 0
M  V30 1283 H 117.486 4.05266 -0.934453 0
M  V30 1284 H 116.063 3.63133 0.847889 0
M  V30 1285 N 118.248 0.346503 1.53744 0
M  V30 1286 C 119.473 -0.253074 2.0585 0
M  V30 1287 C 119.898 -1.43202 1.21962 0
M  V30 1288 O 119.256 -1.79783 0.234073 0
M  V30 1289 C 119.304 -0.643193 3.54817 0
M  V30 1290 O 118.408 -1.74286 3.73762 0
M  V30 1291 H 117.749 -0.0413583 0.662711 0
M  V30 1292 H 120.279 0.501574 1.98357 0
M  V30 1293 H 120.289 -0.919526 3.97503 0
M  V30 1294 H 118.964 0.218966 4.15323 0
M  V30 1295 H 117.541 -1.46356 3.42979 0
M  V30 1296 N 119.726 -1.57421 0.075193 0
M  V30 1297 C 120.974 -1.93236 -0.591974 0
M  V30 1298 C 121.295 -0.956241 -1.69944 0
M  V30 1299 O 120.565 -0.00494792 -1.95899 0
M  V30 1300 H 119.145 -0.713355 -0.22166 0
M  V30 1301 H 121.807 -1.9444 0.133848 0
M  V30 1302 H 120.903 -2.95131 -1.01509 0
M  V30 1303 N 121.204 0.198386 -1.56346 0
M  V30 1304 C 122.167 1.22952 -1.93431 0
M  V30 1305 C 123.167 1.38611 -0.815092 0
M  V30 1306 O 124.357 1.36479 -1.08255 0
M  V30 1307 C 121.489 2.59946 -2.20546 0
M  V30 1308 H 122.682 0.912626 -2.85677 0
M  V30 1309 H 120.235 0.43977 -1.49986 0
M  V30 1310 H 120.97 2.96696 -1.30927 0
M  V30 1311 H 120.755 2.49953 -3.02102 0
M  V30 1312 H 122.245 3.3431 -2.50253 0
M  V30 1313 N 122.682 1.50554 0.465978 0
M  V30 1314 C 123.629 1.6979 1.56333 0
M  V30 1315 C 124.599 0.539239 1.57103 0
M  V30 1316 O 125.784 0.770401 1.74555 0
M  V30 1317 C 122.924 1.80273 2.94271 0
M  V30 1318 C 122.037 3.07674 3.0325 0
M  V30 1319 C 121.172 3.08922 4.32135 0
M  V30 1320 C 120.211 4.30755 4.34875 0
M  V30 1321 N 119.348 4.29714 5.55239 0
M  V30 1322 H 124.188 2.63472 1.39235 0
M  V30 1323 H 121.725 1.30602 0.676873 0
M  V30 1324 H 123.683 1.84332 3.74269 0
M  V30 1325 H 122.313 0.900258 3.09992 0
M  V30 1326 H 121.365 3.13062 2.16094 0
M  V30 1327 H 122.677 3.97642 3.01135 0
M  V30 1328 H 121.831 3.11738 5.20485 0
M  V30 1329 H 120.57 2.16792 4.36866 0
M  V30 1330 H 119.575 4.28146 3.44922 0
M  V30 1331 H 120.8 5.24117 4.31831 0
M  V30 1332 H 118.746 3.4044 5.60746 0
M  V30 1333 H 118.663 5.13456 5.54886 0
M  V30 1334 H 119.931 4.36683 6.457 0
M  V30 1335 N 124.16 -0.719506 1.40217 0
M  V30 1336 C 125.406 -1.48152 1.38488 0
M  V30 1337 C 125.739 -1.94195 -0.0141867 0
M  V30 1338 O 125.014 -1.67884 -0.982096 0
M  V30 1339 C 125.297 -2.71035 2.37091 0
M  V30 1340 C 125.15 -2.30912 3.86005 0
M  V30 1341 C 126.469 -3.73182 2.33288 0
M  V30 1342 H 123.588 -0.537395 0.504357 0
M  V30 1343 H 126.23 -0.821472 1.71324 0
M  V30 1344 H 124.38 -3.27352 2.0922 0
M  V30 1345 H 126.052 -1.80107 4.24687 0
M  V30 1346 H 124.295 -1.62958 4.02029 0
M  V30 1347 H 124.966 -3.18978 4.50508 0
M  V30 1348 H 127.442 -3.26485 2.57966 0
M  V30 1349 H 126.318 -4.56806 3.04334 0
M  V30 1350 H 126.579 -4.21202 1.34317 0
M  V30 1351 N 125.638 -1.25649 -0.95132 0
M  V30 1352 C 126.568 -1.08808 -2.06599 0
M  V30 1353 C 127.549 0.00382547 -1.701 0
M  V30 1354 O 128.734 -0.166325 -1.93486 0
M  V30 1355 C 125.864 -0.709542 -3.39975 0
M  V30 1356 C 124.818 -1.75206 -3.90496 0
M  V30 1357 C 124.144 -1.22811 -5.20405 0
M  V30 1358 C 125.444 -3.15153 -4.16504 0
M  V30 1359 H 127.138 -2.02048 -2.20946 0
M  V30 1360 H 124.684 -0.972835 -1.06169 0
M  V30 1361 H 126.637 -0.578649 -4.17408 0
M  V30 1362 H 125.361 0.258556 -3.25575 0
M  V30 1363 H 124.02 -1.87145 -3.15234 0
M  V30 1364 H 123.668 -0.250145 -5.02378 0
M  V30 1365 H 123.368 -1.92492 -5.55176 0
M  V30 1366 H 124.892 -1.10968 -6.00432 0
M  V30 1367 H 126.306 -3.06349 -4.84586 0
M  V30 1368 H 124.703 -3.82333 -4.62538 0
M  V30 1369 H 125.773 -3.61966 -3.22658 0
M  V30 1370 N 127.117 1.15442 -1.07289 0
M  V30 1371 C 128.08 2.18358 -0.696591 0
M  V30 1372 C 129.08 1.58637 0.262837 0
M  V30 1373 O 130.27 1.74145 0.0438809 0
M  V30 1374 C 127.402 3.4089 -0.0266151 0
M  V30 1375 H 128.595 2.53162 -1.60776 0
M  V30 1376 H 126.148 1.29893 -0.869342 0
M  V30 1377 H 126.883 3.11653 0.896822 0
M  V30 1378 H 126.668 3.85495 -0.716657 0
M  V30 1379 H 128.158 4.17009 0.222028 0
M  V30 1380 N 128.595 0.856903 1.32268 0
M  V30 1381 C 129.823 0.475439 2.01363 0
M  V30 1382 C 130.238 -0.928486 1.64392 0
M  V30 1383 O 129.595 -1.60624 0.866387 0
M  V30 1384 C 129.646 0.607545 3.56358 0
M  V30 1385 O 129.367 1.95617 3.92002 0
M  V30 1386 C 130.868 0.225382 4.42727 0
M  V30 1387 H 128.088 0.186636 0.644521 0
M  V30 1388 H 130.632 1.15446 1.68797 0
M  V30 1389 H 128.787 -0.0237719 3.87393 0
M  V30 1390 H 129.201 1.95455 4.86721 0
M  V30 1391 H 130.675 0.368813 5.50767 0
M  V30 1392 H 131.152 -0.834369 4.31202 0
M  V30 1393 H 131.758 0.831864 4.17085 0
M  V30 1394 N 130.073 -1.45103 0.615059 0
M  V30 1395 C 131.003 -2.33339 -0.0865619 0
M  V30 1396 C 131.984 -1.4727 -0.851209 0
M  V30 1397 O 133.169 -1.76026 -0.820281 0
M  V30 1398 C 130.299 -3.30095 -1.07956 0
M  V30 1399 C 129.253 -4.25858 -0.427628 0
M  V30 1400 C 128.579 -5.12361 -1.5294 0
M  V30 1401 C 129.879 -5.18165 0.655944 0
M  V30 1402 H 131.573 -2.92254 0.650224 0
M  V30 1403 H 129.119 -1.40532 0.314138 0
M  V30 1404 H 131.072 -3.90698 -1.57901 0
M  V30 1405 H 129.796 -2.69355 -1.84703 0
M  V30 1406 H 128.455 -3.66564 0.0510292 0
M  V30 1407 H 128.103 -4.47984 -2.28734 0
M  V30 1408 H 127.803 -5.77238 -1.09865 0
M  V30 1409 H 129.327 -5.75833 -2.03098 0
M  V30 1410 H 130.741 -5.72796 0.240257 0
M  V30 1411 H 129.138 -5.91559 1.00888 0
M  V30 1412 H 130.208 -4.60144 1.52957 0
M  V30 1413 N 131.551 -0.354651 -1.53558 0
M  V30 1414 C 132.791 0.238651 -2.03002 0
M  V30 1415 C 133.155 1.46878 -1.23656 0
M  V30 1416 O 134.356 2.13699 -1.63053 0
M  V30 1417 C 132.627 0.534175 -3.53386 0
M  V30 1418 S 134.186 1.10271 -4.24719 0
M  V30 1419 H 131.004 0.0702908 -0.707517 0
M  V30 1420 H 133.606 -0.494987 -1.8913 0
M  V30 1421 H 132.31 -0.368765 -4.0874 0
M  V30 1422 H 131.841 1.29718 -3.71398 0
M  V30 1423 H 133.856 2.38772 -4.34974 0
M  V30 1424 N 133.029 1.57378 -0.0835403 0
M  V30 1425 C 134.277 1.93547 0.581718 0
M  V30 1426 C 134.598 0.96524 1.69435 0
M  V30 1427 O 133.868 0.0153369 1.95894 0
M  V30 1428 H 132.448 0.714521 0.217874 0
M  V30 1429 H 135.11 1.94366 -0.144158 0
M  V30 1430 H 134.206 2.95665 0.999423 0
M  V30 1431 N 134.507 -0.190092 1.56449 0
M  V30 1432 C 135.439 -1.25973 1.91477 0
M  V30 1433 C 136.452 -1.41452 0.805931 0
M  V30 1434 O 137.641 -1.41789 1.08435 0
M  V30 1435 C 134.741 -2.63117 2.13594 0
M  V30 1436 C 133.914 -2.69182 3.4476 0
M  V30 1437 C 132.973 -3.87557 3.5593 0
M  V30 1438 O 131.999 -3.74427 4.28711 0
M  V30 1439 N 133.201 -5.03224 2.89388 0
M  V30 1440 H 135.966 -0.962394 2.83828 0
M  V30 1441 H 133.527 -0.379981 1.57378 0
M  V30 1442 H 135.519 -3.40742 2.1835 0
M  V30 1443 H 134.089 -2.85319 1.27719 0
M  V30 1444 H 133.309 -1.77793 3.51828 0
M  V30 1445 H 134.597 -2.70229 4.31107 0
M  V30 1446 H 133.995 -5.16791 2.30094 0
M  V30 1447 H 132.552 -5.78778 2.99764 0
M  V30 1448 N 135.985 -1.50799 -0.457987 0
M  V30 1449 C 136.895 -1.73426 -1.57989 0
M  V30 1450 C 137.911 -0.617745 -1.62665 0
M  V30 1451 O 139.087 -0.897614 -1.80291 0
M  V30 1452 C 136.152 -1.83557 -2.94122 0
M  V30 1453 C 135.213 -3.07345 -2.99729 0
M  V30 1454 C 134.446 -3.16983 -4.29368 0
M  V30 1455 O 134.669 -2.33077 -5.20607 0
M  V30 1456 O 133.603 -4.09812 -4.40837 0
M  V30 1457 H 137.429 -2.68555 -1.41817 0
M  V30 1458 H 135.014 -1.35052 -0.638859 0
M  V30 1459 H 136.896 -1.92326 -3.74952 0
M  V30 1460 H 135.571 -0.916137 -3.10465 0
M  V30 1461 H 134.478 -3.04068 -2.1793 0
M  V30 1462 H 135.811 -3.9891 -2.88326 0
M  V30 1463 N 137.463 0.71206 -1.40597 0
M  V30 1464 C 138.688 1.50617 -1.42581 0
M  V30 1465 C 139.113 1.88079 -0.0282102 0
M  V30 1466 O 138.471 1.53511 0.964579 0
M  V30 1467 C 138.519 2.7557 -2.3258 0
M  V30 1468 O 137.623 3.72414 -1.77148 0
M  V30 1469 H 136.964 0.453966 -0.484573 0
M  V30 1470 H 139.494 0.876649 -1.84868 0
M  V30 1471 H 139.504 3.2406 -2.47889 0
M  V30 1472 H 138.179 2.47639 -3.34138 0
M  V30 1473 H 136.756 3.31276 -1.71204 0
M  V30 1474 N 138.941 1.26152 0.944643 0
M  V30 1475 C 140.169 1.14259 1.72489 0
M  V30 1476 C 140.584 -0.302555 1.8636 0
M  V30 1477 O 139.941 -1.20741 1.36849 0
M  V30 1478 C 139.992 1.80266 3.13347 0
M  V30 1479 O 139.713 3.19133 3.00143 0
M  V30 1480 C 141.214 1.74283 4.07603 0
M  V30 1481 H 138.434 0.398051 0.540181 0
M  V30 1482 H 140.978 1.66706 1.18446 0
M  V30 1483 H 139.133 1.31766 3.64303 0
M  V30 1484 H 139.547 3.51744 3.89071 0
M  V30 1485 H 141.021 2.25111 5.04013 0
M  V30 1486 H 141.498 0.708631 4.33446 0
M  V30 1487 H 142.104 2.22319 3.62567 0
M  V30 1488 N 140.419 -1.14872 1.07899 0
M  V30 1489 C 141.696 -1.81928 0.71845 0
M  V30 1490 C 142.076 -1.95417 -0.798455 0
M  V30 1491 O 141.424 -1.50997 -1.715 0
M  V30 1492 C 141.634 -3.17937 1.43935 0
M  V30 1493 C 142.982 -3.93501 1.59506 0
M  V30 1494 O 144.006 -3.27509 1.40058 0
M  V30 1495 O 142.865 -5.1183 1.91551 0
M  V30 1496 H 139.959 -0.78628 0.256305 0
M  V30 1497 H 142.505 -1.21934 1.18026 0
M  V30 1498 H 141.277 -3.0325 2.47295 0
M  V30 1499 H 140.9 -3.85619 0.968687 0
M  V30 1500 N 141.898 -0.863906 -1.31812 0
M  V30 1501 C 143.126 -0.486111 -2.01108 0
M  V30 1502 C 143.541 0.919755 -1.64882 0
M  V30 1503 O 142.898 1.60162 -0.874893 0
M  V30 1504 C 142.949 -0.626435 -3.56031 0
M  V30 1505 O 142.67 -1.97693 -3.90959 0
M  V30 1506 C 144.171 -0.248857 -4.42601 0
M  V30 1507 H 141.391 -0.190052 -0.643523 0
M  V30 1508 H 143.935 -1.1634 -1.68182 0
M  V30 1509 H 142.09 0.00322717 -3.874 0
M  V30 1510 H 142.504 -1.98034 -4.85678 0
M  V30 1511 H 143.978 -0.398016 -5.50563 0
M  V30 1512 H 144.455 0.811489 -4.31638 0
M  V30 1513 H 145.061 -0.853971 -4.16638 0
M  V30 1514 N 143.376 1.44774 -0.622745 0
M  V30 1515 C 144.286 2.34433 0.0886031 0
M  V30 1516 C 145.302 1.52131 0.844529 0
M  V30 1517 O 146.478 1.84886 0.798691 0
M  V30 1518 C 143.543 3.29986 1.0635 0
M  V30 1519 C 142.604 4.28195 0.307873 0
M  V30 1520 C 141.837 5.19183 1.23633 0
M  V30 1521 O 142.06 5.13918 2.47476 0
M  V30 1522 O 140.994 5.97515 0.725189 0
M  V30 1523 H 144.82 2.96693 -0.648599 0
M  V30 1524 H 142.405 1.44408 -0.382957 0
M  V30 1525 H 144.287 3.88825 1.6246 0
M  V30 1526 H 142.962 2.70269 1.78146 0
M  V30 1527 H 141.869 3.72927 -0.296064 0
M  V30 1528 H 143.202 4.90808 -0.3699 0
M  V30 1529 N 144.854 0.36279 1.53368 0
M  V30 1530 C 146.27 0.0116182 1.59596 0
M  V30 1531 C 146.47 -1.47012 1.37803 0
M  V30 1532 O 145.526 -2.23136 1.18181 0
M  V30 1533 C 146.839 0.465052 2.97082 0
M  V30 1534 C 148.387 0.419033 3.10182 0
M  V30 1535 C 148.862 0.848235 4.50077 0
M  V30 1536 N 150.353 0.803183 4.56183 0
M  V30 1537 C 151.088 1.107 5.62613 0
M  V30 1538 N 150.584 1.47996 6.76808 0
M  V30 1539 N 152.377 1.02998 5.52583 0
M  V30 1540 H 144.528 1.32775 1.65785 0
M  V30 1541 H 146.791 0.542518 0.777417 0
M  V30 1542 H 146.497 1.49892 3.18159 0
M  V30 1543 H 146.371 -0.149786 3.76902 0
M  V30 1544 H 148.758 -0.605696 2.88817 0
M  V30 1545 H 148.839 1.06933 2.32377 0
M  V30 1546 H 148.483 1.87107 4.7218 0
M  V30 1547 H 148.413 0.175218 5.26308 0
M  V30 1548 H 150.904 0.52838 3.74188 0
M  V30 1549 H 151.217 1.69613 7.53957 0
M  V30 1550 H 149.562 1.51859 6.78206 0
M  V30 1551 H 152.753 0.737817 4.62249 0
M  V30 1552 H 152.926 1.2701 6.35431 0
M  V30 1553 N 146.332 -1.57332 0.0918853 0
M  V30 1554 C 147.295 -2.12708 -0.85369 0
M  V30 1555 C 148.295 -1.05561 -1.213 0
M  V30 1556 O 149.485 -1.31461 -1.14296 0
M  V30 1557 C 146.617 -2.64503 -2.15061 0
M  V30 1558 H 147.81 -2.97573 -0.3729 0
M  V30 1559 H 145.363 -1.55509 -0.157072 0
M  V30 1560 H 146.098 -1.83149 -2.67632 0
M  V30 1561 H 145.883 -3.4284 -1.90272 0
M  V30 1562 H 147.373 -3.07351 -2.82711 0
M  V30 1563 N 147.81 0.181792 -1.56548 0
M  V30 1564 C 149.221 0.745244 -1.71181 0
M  V30 1565 C 149.572 1.83262 -0.70068 0
M  V30 1566 O 148.697 2.15946 0.140154 0
M  V30 1567 C 149.292 1.35859 -3.10367 0
M  V30 1568 C 147.851 1.86898 -3.2672 0
M  V30 1569 C 146.998 0.743942 -2.67134 0
M  V30 1570 H 149.949 -0.0434661 -1.5864 0
M  V30 1571 H 149.97 2.22817 -3.08436 0
M  V30 1572 H 149.482 0.566948 -3.83937 0
M  V30 1573 H 147.583 2.68738 -2.5809 0
M  V30 1574 H 147.696 2.02162 -4.34359 0
M  V30 1575 H 146.06 1.16169 -2.26665 0
M  V30 1576 H 146.843 -0.035676 -3.43281 0
M  V30 1577 N 149.288 1.51039 0.449983 0
M  V30 1578 C 150.536 1.62759 1.19808 0
M  V30 1579 C 150.857 0.339981 1.92013 0
M  V30 1580 O 150.127 -0.643606 1.85026 0
M  V30 1581 H 148.707 0.599811 0.445237 0
M  V30 1582 H 151.369 1.87914 0.517138 0
M  V30 1583 H 150.465 2.44911 1.93455 0
M  V30 1584 N 150.766 -0.704594 1.40972 0
M  V30 1585 C 151.713 -1.81862 1.42109 0
M  V30 1586 C 152.683 -1.63781 0.276593 0
M  V30 1587 O 153.868 -1.84759 0.4763 0
M  V30 1588 C 151.008 -3.19669 1.30022 0
M  V30 1589 C 150.121 -3.49246 2.54267 0
M  V30 1590 C 149.256 -4.76618 2.3454 0
M  V30 1591 C 148.295 -4.99133 3.54306 0
M  V30 1592 N 147.432 -6.17726 3.33706 0
M  V30 1593 H 152.272 -1.80226 2.37324 0
M  V30 1594 H 149.809 -0.880238 1.17857 0
M  V30 1595 H 151.767 -3.99263 1.21018 0
M  V30 1596 H 150.397 -3.20506 0.384192 0
M  V30 1597 H 149.449 -2.64125 2.73756 0
M  V30 1598 H 150.761 -3.61788 3.43381 0
M  V30 1599 H 149.915 -5.64249 2.22952 0
M  V30 1600 H 148.654 -4.66305 1.42867 0
M  V30 1601 H 147.659 -4.09953 3.66359 0
M  V30 1602 H 148.884 -5.11311 4.4692 0
M  V30 1603 H 146.83 -6.08642 2.44725 0
M  V30 1604 H 146.747 -6.30995 4.16391 0
M  V30 1605 H 148.015 -7.08115 3.25873 0
M  V30 1606 N 152.244 -1.26651 -0.937939 0
M  V30 1607 C 153.521 -1.0313 -1.66204 0
M  V30 1608 C 153.901 0.437256 -2.06522 0
M  V30 1609 O 153.249 1.41831 -1.79154 0
M  V30 1610 C 153.459 -1.98314 -2.87181 0
M  V30 1611 C 154.807 -2.27107 -3.58758 0
M  V30 1612 O 155.831 -1.96205 -2.97291 0
M  V30 1613 O 154.69 -2.79736 -4.69479 0
M  V30 1614 H 151.784 -0.392384 -0.727986 0
M  V30 1615 H 154.33 -1.37874 -0.989382 0
M  V30 1616 H 153.102 -2.97399 -2.54302 0
M  V30 1617 H 152.725 -1.64068 -3.6217 0
M  V30 1618 N 153.722 1.14298 -1.08507 0
M  V30 1619 C 154.95 1.89219 -0.836876 0
M  V30 1620 C 155.365 1.78638 0.611054 0
M  V30 1621 O 154.722 1.14643 1.41998 0
M  V30 1622 C 154.773 3.39158 -1.25116 0
M  V30 1623 O 154.494 3.49449 -2.64229 0
M  V30 1624 C 155.995 4.31073 -1.03398 0
M  V30 1625 H 153.215 0.599328 -0.301739 0
M  V30 1626 H 155.759 1.44746 -1.44461 0
M  V30 1627 H 153.914 3.81251 -0.687514 0
M  V30 1628 H 154.328 4.42589 -2.81452 0
M  V30 1629 H 155.802 5.34646 -1.37323 0
M  V30 1630 H 156.279 4.3919 0.0289259 0
M  V30 1631 H 156.885 3.94738 -1.58311 0
M  V30 1632 N 155.201 0.870884 1.31352 0
M  V30 1633 C 156.448 0.482273 1.96673 0
M  V30 1634 C 156.776 -0.965638 1.68836 0
M  V30 1635 O 156.031 -1.69514 0.977937 0
M  V30 1636 C 156.33 0.687157 3.50732 0
M  V30 1637 C 155.996 2.108 3.9859 0
M  V30 1638 C 154.658 2.49656 4.1137 0
M  V30 1639 C 157.01 3.03459 4.23748 0
M  V30 1640 C 154.338 3.80412 4.46659 0
M  V30 1641 C 156.69 4.3373 4.60501 0
M  V30 1642 C 155.354 4.725 4.71487 0
M  V30 1643 H 154.624 0.176476 0.719679 0
M  V30 1644 H 157.271 1.10405 1.56471 0
M  V30 1645 H 155.576 -0.0177476 3.91796 0
M  V30 1646 H 157.273 0.366284 3.99324 0
M  V30 1647 H 153.863 1.79633 3.8914 0
M  V30 1648 H 158.047 2.74665 4.13368 0
M  V30 1649 H 153.303 4.1021 4.53362 0
M  V30 1650 H 157.477 5.05578 4.78919 0
M  V30 1651 H 155.104 5.73859 4.98588 0
M  V30 1652 N 156.679 -1.44442 0.630414 0
M  V30 1653 C 157.909 -2.06115 0.141465 0
M  V30 1654 C 158.317 -1.47179 -1.1889 0
M  V30 1655 O 157.66 -0.588873 -1.74006 0
M  V30 1656 C 157.722 -3.59467 -0.0484355 0
M  V30 1657 C 157.386 -4.40864 1.20366 0
M  V30 1658 C 158.383 -4.74391 2.12719 0
M  V30 1659 C 156.068 -4.8125 1.43887 0
M  V30 1660 C 158.062 -5.47186 3.26904 0
M  V30 1661 C 155.749 -5.53795 2.5837 0
M  V30 1662 C 156.747 -5.86682 3.49705 0
M  V30 1663 O 156.435 -6.57749 4.62191 0
M  V30 1664 H 156.167 -0.671648 0.0765792 0
M  V30 1665 H 158.721 -1.86312 0.864695 0
M  V30 1666 H 156.951 -3.77758 -0.826803 0
M  V30 1667 H 158.64 -4.02909 -0.491849 0
M  V30 1668 H 159.406 -4.43728 1.95781 0
M  V30 1669 H 155.285 -4.55073 0.736853 0
M  V30 1670 H 158.829 -5.72773 3.98217 0
M  V30 1671 H 154.726 -5.83872 2.75251 0
M  V30 1672 H 155.494 -6.76217 4.61164 0
M  V30 1673 N 158.157 -0.370918 -1.53173 0
M  V30 1674 C 159.382 0.220293 -2.06227 0
M  V30 1675 C 159.807 1.41243 -1.24225 0
M  V30 1676 O 159.165 1.79387 -0.262645 0
M  V30 1677 C 159.213 0.586663 -3.55796 0
M  V30 1678 O 158.317 1.68317 -3.76488 0
M  V30 1679 H 157.658 0.0308099 -0.663285 0
M  V30 1680 H 160.188 -0.533068 -1.97534 0
M  V30 1681 H 160.198 0.85617 -3.98916 0
M  V30 1682 H 158.873 -0.285013 -4.14922 0
M  V30 1683 H 157.45 1.40881 -3.45264 0
M  V30 1684 N 159.635 1.57281 -0.100228 0
M  V30 1685 C 160.565 2.17328 0.853857 0
M  V30 1686 C 161.546 1.10804 1.2906 0
M  V30 1687 O 162.731 1.38963 1.35657 0
M  V30 1688 C 159.861 2.75772 2.11109 0
M  V30 1689 C 158.815 3.87713 1.81279 0
M  V30 1690 C 158.141 4.32882 3.13874 0
M  V30 1691 C 159.441 5.10677 1.09574 0
M  V30 1692 H 161.135 2.97305 0.353545 0
M  V30 1693 H 158.681 1.43009 0.168612 0
M  V30 1694 H 160.634 3.16433 2.78296 0
M  V30 1695 H 159.358 1.93057 2.63432 0
M  V30 1696 H 158.017 3.476 1.16489 0
M  V30 1697 H 157.665 3.47051 3.64095 0
M  V30 1698 H 157.365 5.08358 2.94696 0
M  V30 1699 H 158.889 4.7618 3.82211 0
M  V30 1700 H 160.303 5.48474 1.66879 0
M  V30 1701 H 158.7 5.91615 1.00557 0
M  V30 1702 H 159.77 4.84835 0.0793299 0
M  V30 1703 N 161.113 -0.173488 1.56642 0
M  V30 1704 C 162.361 -0.888706 1.81512 0
M  V30 1705 C 162.682 -1.82875 0.676872 0
M  V30 1706 O 161.952 -1.93536 -0.303414 0
M  V30 1707 H 160.532 -0.331164 0.669582 0
M  V30 1708 H 163.194 -0.173823 1.94123 0
M  V30 1709 H 162.29 -1.46691 2.75478 0
M  V30 1710 N 162.591 -1.51276 -0.441967 0
M  V30 1711 C 163.816 -1.67799 -1.21895 0
M  V30 1712 C 164.241 -0.372864 -1.84367 0
M  V30 1713 O 163.599 0.666501 -1.68604 0
M  V30 1714 C 163.647 -2.79199 -2.28211 0
M  V30 1715 O 162.751 -2.42479 -3.33583 0
M  V30 1716 H 162.092 -0.559649 -0.357336 0
M  V30 1717 H 164.622 -1.97815 -0.522522 0
M  V30 1718 H 164.632 -3.03146 -2.73069 0
M  V30 1719 H 163.307 -3.73906 -1.82118 0
M  V30 1720 H 161.884 -2.29087 -2.94234 0
M  V30 1721 N 164.069 0.697108 -1.41344 0
M  V30 1722 C 165.294 1.49096 -1.44171 0
M  V30 1723 C 165.719 1.88038 -0.0481568 0
M  V30 1724 O 165.077 1.54525 0.948243 0
M  V30 1725 C 165.125 2.73088 -2.3549 0
M  V30 1726 O 164.229 3.70514 -1.81088 0
M  V30 1727 H 163.57 0.448801 -0.489361 0
M  V30 1728 H 166.1 0.856992 -1.85787 0
M  V30 1729 H 166.11 3.21413 -2.51312 0
M  V30 1730 H 164.785 2.44081 -3.36745 0
M  V30 1731 H 163.362 3.29441 -1.74708 0
M  V30 1732 N 165.547 1.27147 0.931209 0
M  V30 1733 C 166.477 1.12081 2.04842 0
M  V30 1734 C 167.458 0.0232364 1.70084 0
M  V30 1735 O 168.643 0.197085 1.93197 0
M  V30 1736 C 165.773 0.76354 3.38803 0
M  V30 1737 C 164.727 1.81396 3.87659 0
M  V30 1738 C 164.053 1.31075 5.18385 0
M  V30 1739 C 165.353 3.21739 4.11438 0
M  V30 1740 H 167.047 2.05537 2.17703 0
M  V30 1741 H 164.593 0.989603 1.04608 0
M  V30 1742 H 166.546 0.644982 4.16435 0
M  V30 1743 H 165.27 -0.206727 3.25945 0
M  V30 1744 H 163.929 1.92136 3.12217 0
M  V30 1745 H 163.577 0.330037 5.01916 0
M  V30 1746 H 163.277 2.013 5.52044 0
M  V30 1747 H 164.801 1.20506 5.98591 0
M  V30 1748 H 166.215 3.14019 4.79651 0
M  V30 1749 H 164.612 3.89644 4.56397 0
M  V30 1750 H 165.682 3.67054 3.16859 0
M  V30 1751 N 167.025 -1.13721 1.09112 0
M  V30 1752 C 168.302 -1.81155 0.737706 0
M  V30 1753 C 168.682 -1.96253 -0.777683 0
M  V30 1754 O 168.03 -1.52807 -1.69889 0
M  V30 1755 C 168.24 -3.16392 1.47299 0
M  V30 1756 C 169.588 -3.91787 1.63671 0
M  V30 1757 O 170.612 -3.26005 1.43524 0
M  V30 1758 O 169.471 -5.0977 1.96969 0
M  V30 1759 H 166.565 -0.783518 0.26463 0
M  V30 1760 H 169.111 -1.20676 1.19312 0
M  V30 1761 H 167.883 -3.0061 2.50498 0
M  V30 1762 H 167.506 -3.8457 1.00953 0
M  V30 1763 N 168.503 -0.877838 -1.30888 0
M  V30 1764 C 169.752 -0.488793 -1.95688 0
M  V30 1765 C 170.065 0.965485 -1.70111 0
M  V30 1766 O 171.271 1.46104 -2.28836 0
M  V30 1767 C 169.727 -0.823201 -3.50359 0
M  V30 1768 C 169.335 -2.29477 -3.84765 0
M  V30 1769 C 171.079 -0.503009 -4.21509 0
M  V30 1770 C 168.986 -2.57118 -5.32583 0
M  V30 1771 H 167.916 -0.179062 -0.732429 0
M  V30 1772 H 170.567 -1.07183 -1.48943 0
M  V30 1773 H 168.949 -0.169331 -3.95638 0
M  V30 1774 H 170.123 -2.99236 -3.5042 0
M  V30 1775 H 168.438 -2.58178 -3.267 0
M  V30 1776 H 171.035 -0.68665 -5.30273 0
M  V30 1777 H 171.378 0.557109 -4.12555 0
M  V30 1778 H 171.911 -1.11376 -3.8189 0
M  V30 1779 H 168.65 -3.61843 -5.4658 0
M  V30 1780 H 168.17 -1.91961 -5.68253 0
M  V30 1781 H 169.849 -2.42251 -5.99936 0
M  V30 1782 N 169.982 1.44106 -0.638065 0
M  V30 1783 C 171.21 2.06336 -0.152615 0
M  V30 1784 C 171.625 1.47731 1.17563 0
M  V30 1785 O 170.982 0.602806 1.72257 0
M  V30 1786 C 171.033 3.61479 -0.0391491 0
M  V30 1787 O 170.754 4.17903 -1.31487 0
M  V30 1788 C 172.255 4.40757 0.474176 0
M  V30 1789 H 169.475 0.665862 -0.0828776 0
M  V30 1790 H 172.019 1.84862 -0.87443 0
M  V30 1791 H 170.174 3.82191 0.633142 0
M  V30 1792 H 170.588 5.11416 -1.16421 0
M  V30 1793 H 172.062 5.49707 0.502562 0
M  V30 1794 H 172.539 4.12697 1.50258 0
M  V30 1795 H 173.145 4.24979 -0.165102 0
M  V30 1796 N 171.46 0.379036 1.52974 0
M  V30 1797 C 172.707 -0.206421 2.01445 0
M  V30 1798 C 173.035 -1.47668 1.26587 0
M  V30 1799 O 172.29 -1.92514 0.351675 0
M  V30 1800 C 172.589 -0.53096 3.53434 0
M  V30 1801 C 172.255 0.646546 4.46241 0
M  V30 1802 C 170.917 0.969604 4.7133 0
M  V30 1803 C 173.269 1.43479 5.01062 0
M  V30 1804 C 170.597 2.08263 5.48492 0
M  V30 1805 C 172.949 2.53834 5.7944 0
M  V30 1806 C 171.613 2.86659 6.02812 0
M  V30 1807 H 170.883 -0.0755349 0.73714 0
M  V30 1808 H 173.53 0.514271 1.84465 0
M  V30 1809 H 171.835 -1.33285 3.68432 0
M  V30 1810 H 173.532 -0.996417 3.88423 0
M  V30 1811 H 170.122 0.384734 4.2687 0
M  V30 1812 H 174.306 1.19844 4.81613 0
M  V30 1813 H 169.562 2.34078 5.64816 0
M  V30 1814 H 173.736 3.15319 6.20924 0
M  V30 1815 H 171.363 3.73026 6.62387 0
M  V30 1816 N 172.938 -1.57226 0.108567 0
M  V30 1817 C 174.354 -1.5766 -0.248058 0
M  V30 1818 C 174.554 -1.12063 -1.67464 0
M  V30 1819 O 173.61 -0.803236 -2.39383 0
M  V30 1820 C 174.923 -3.0069 -0.0242287 0
M  V30 1821 C 176.471 -3.12868 -0.0909372 0
M  V30 1822 C 176.946 -4.57879 0.105067 0
M  V30 1823 N 178.437 -4.63172 0.0506846 0
M  V30 1824 C 179.172 -5.73126 0.177396 0
M  V30 1825 N 178.668 -6.91866 0.359696 0
M  V30 1826 N 180.461 -5.61977 0.117709 0
M  V30 1827 H 172.612 -1.85169 1.04049 0
M  V30 1828 H 174.875 -0.85529 0.40888 0
M  V30 1829 H 174.581 -3.38299 0.961604 0
M  V30 1830 H 174.455 -3.6945 -0.76068 0
M  V30 1831 H 176.842 -2.75124 -1.06729 0
M  V30 1832 H 176.923 -2.46672 0.677225 0
M  V30 1833 H 176.567 -4.96321 1.07834 0
M  V30 1834 H 176.497 -5.22153 -0.682954 0
M  V30 1835 H 178.988 -3.778 -0.0871266 0
M  V30 1836 H 179.301 -7.71503 0.447529 0
M  V30 1837 H 177.646 -6.93874 0.395536 0
M  V30 1838 H 180.837 -4.68094 -0.0236741 0
M  V30 1839 H 181.01 -6.47627 0.219905 0
M  V30 1840 N 174.416 0.165178 -1.56732 0
M  V30 1841 C 175.641 0.900253 -1.86843 0
M  V30 1842 C 176.066 1.74766 -0.695596 0
M  V30 1843 O 175.424 1.77786 0.35522 0
M  V30 1844 C 175.472 1.74777 -3.15413 0
M  V30 1845 O 174.576 2.85007 -2.98068 0
M  V30 1846 H 173.917 0.251832 -0.614391 0
M  V30 1847 H 176.447 0.161468 -2.03962 0
M  V30 1848 H 176.457 2.14646 -3.46974 0
M  V30 1849 H 175.132 1.12537 -4.00385 0
M  V30 1850 H 173.709 2.48676 -2.77875 0
M  V30 1851 N 175.894 1.51508 0.433938 0
M  V30 1852 C 177.171 1.54888 1.19453 0
M  V30 1853 C 177.551 0.315154 2.08734 0
M  V30 1854 O 176.899 -0.699558 2.17528 0
M  V30 1855 C 177.109 2.86467 1.99342 0
M  V30 1856 C 178.457 3.38545 2.56267 0
M  V30 1857 O 179.481 2.88041 2.0955 0
M  V30 1858 O 178.34 4.26675 3.41483 0
M  V30 1859 H 175.434 0.622863 0.544032 0
M  V30 1860 H 177.98 1.63823 0.442732 0
M  V30 1861 H 176.752 3.67718 1.33788 0
M  V30 1862 H 176.375 2.8071 2.8158 0
M  V30 1863 N 177.372 -0.689602 1.41712 0
M  V30 1864 C 178.602 -1.47613 1.44548 0
M  V30 1865 C 179.01 -1.89132 0.0509034 0
M  V30 1866 O 178.353 -1.57741 -0.94146 0
M  V30 1867 C 178.415 -2.76596 2.2964 0
M  V30 1868 C 178.079 -2.57245 3.77722 0
M  V30 1869 C 179.076 -2.22804 4.69739 0
M  V30 1870 C 176.761 -2.727 4.2183 0
M  V30 1871 C 178.755 -2.04064 6.03851 0
M  V30 1872 C 176.442 -2.53576 5.56006 0
M  V30 1873 C 177.44 -2.1931 6.46832 0
M  V30 1874 O 177.128 -2.00359 7.78532 0
M  V30 1875 H 176.86 -0.461227 0.494212 0
M  V30 1876 H 179.414 -0.856045 1.86711 0
M  V30 1877 H 177.644 -3.41033 1.82301 0
M  V30 1878 H 179.333 -3.38424 2.24107 0
M  V30 1879 H 180.099 -2.10473 4.36951 0
M  V30 1880 H 175.978 -2.98353 3.51435 0
M  V30 1881 H 179.522 -1.77241 6.74708 0
M  V30 1882 H 175.419 -2.65499 5.88371 0
M  V30 1883 H 176.187 -2.15075 7.89737 0
M  V30 1884 N 178.85 -1.27639 -0.924453 0
M  V30 1885 C 180.075 -1.17101 -1.71179 0
M  V30 1886 C 180.5 0.268134 -1.86179 0
M  V30 1887 O 179.858 1.19415 -1.36418 0
M  V30 1888 C 179.906 -1.86313 -3.08739 0
M  V30 1889 O 179.01 -1.16331 -3.95652 0
M  V30 1890 H 178.351 -0.407091 -0.524569 0
M  V30 1891 H 180.881 -1.68767 -1.15666 0
M  V30 1892 H 180.891 -1.938 -3.59034 0
M  V30 1893 H 179.566 -2.91001 -2.97138 0
M  V30 1894 H 178.143 -1.16935 -3.54091 0
M  V30 1895 N 180.328 1.1314 -1.09713 0
M  V30 1896 C 181.276 2.20717 -0.733934 0
M  V30 1897 C 182.27 1.6729 0.266506 0
M  V30 1898 O 183.476 1.79547 0.127656 0
M  V30 1899 H 179.851 0.719292 -0.21937 0
M  V30 1900 H 181.822 2.48611 -1.6503 0
M  V30 1901 C 180.571 3.47265 -0.173849 0
M  V30 1902 H 179.894 3.88716 -0.934873 0
M  V30 1903 H 181.334 4.23979 0.0423126 0
M  V30 1904 C 179.793 3.18724 1.09164 0
M  V30 1905 O 180.323 3.37762 2.17439 0
M  V30 1906 N 178.529 2.72583 1.00732 0
M  V30 1907 H 178.076 2.57291 0.126121 0
M  V30 1908 H 178.034 2.53862 1.85476 0
M  V30 1909 N 181.806 0.884767 1.30421 0
M  V30 1910 C 182.716 0.355398 2.31892 0
M  V30 1911 C 183.732 -0.542261 1.65335 0
M  V30 1912 O 184.908 -0.435432 1.96637 0
M  V30 1913 C 181.973 -0.421661 3.44126 0
M  V30 1914 C 181.034 0.505727 4.26311 0
M  V30 1915 C 180.267 -0.234343 5.33185 0
M  V30 1916 O 180.49 -1.46045 5.51386 0
M  V30 1917 O 179.424 0.415443 6.00465 0
M  V30 1918 H 183.25 1.19685 2.79122 0
M  V30 1919 H 180.835 0.648596 1.34587 0
M  V30 1920 H 182.717 -0.861641 4.12497 0
M  V30 1921 H 181.392 -1.23942 2.99032 0
M  V30 1922 H 180.299 0.994513 3.60639 0
M  V30 1923 H 181.632 1.28948 4.75009 0
M  V30 1924 N 183.284 -1.43765 0.645699 0
M  V30 1925 C 184.231 -2.30745 -0.0504648 0
M  V30 1926 C 185.201 -1.4432 -0.822241 0
M  V30 1927 O 186.386 -1.73202 -0.800358 0
M  V30 1928 C 183.526 -3.29802 -1.0161 0
M  V30 1929 C 182.639 -4.31326 -0.241219 0
M  V30 1930 C 181.774 -5.17469 -1.19998 0
M  V30 1931 C 180.813 -6.10691 -0.415094 0
M  V30 1932 N 179.95 -6.89483 -1.32506 0
M  V30 1933 H 184.79 -2.8973 0.697155 0
M  V30 1934 H 182.327 -1.42738 0.355563 0
M  V30 1935 H 184.285 -3.85734 -1.58949 0
M  V30 1936 H 182.915 -2.72483 -1.73069 0
M  V30 1937 H 181.967 -3.77749 0.448334 0
M  V30 1938 H 183.279 -4.9743 0.369437 0
M  V30 1939 H 182.433 -5.7799 -1.84424 0
M  V30 1940 H 181.172 -4.51473 -1.84455 0
M  V30 1941 H 180.177 -5.49265 0.242565 0
M  V30 1942 H 181.402 -6.78727 0.224966 0
M  V30 1943 H 179.348 -6.26142 -1.95657 0
M  V30 1944 H 179.265 -7.52081 -0.768783 0
M  V30 1945 H 180.533 -7.54516 -1.9577 0
M  V30 1946 N 184.763 -0.387143 -1.52771 0
M  V30 1947 C 186.174 0.0873634 -1.86495 0
M  V30 1948 C 186.525 1.46336 -1.30691 0
M  V30 1949 O 185.65 2.068 -0.637409 0
M  V30 1950 C 186.245 0.165305 -3.38396 0
M  V30 1951 C 184.804 0.584101 -3.7184 0
M  V30 1952 C 183.951 -0.255279 -2.76122 0
M  V30 1953 H 186.902 -0.605104 -1.46711 0
M  V30 1954 H 186.923 0.984848 -3.67534 0
M  V30 1955 H 186.435 -0.836301 -3.78982 0
M  V30 1956 H 184.536 1.59315 -3.36823 0
M  V30 1957 H 184.649 0.343749 -4.77865 0
M  V30 1958 H 183.013 0.279126 -2.53166 0
M  V30 1959 H 183.796 -1.25482 -3.19545 0
M  V30 1960 N 186.241 1.57166 -0.116904 0
M  V30 1961 C 187.488 1.95123 0.541603 0
M  V30 1962 C 187.816 1.00006 1.6682 0
M  V30 1963 O 187.071 0.0235658 1.95686 0
M  V30 1964 C 187.37 3.39508 1.11664 0
M  V30 1965 C 187.036 4.50762 0.111606 0
M  V30 1966 C 185.698 4.80918 -0.164758 0
M  V30 1967 C 188.05 5.18036 -0.573438 0
M  V30 1968 C 185.378 5.75666 -1.13249 0
M  V30 1969 C 187.73 6.13824 -1.52978 0
M  V30 1970 C 186.394 6.42374 -1.81415 0
M  V30 1971 H 185.664 0.714005 0.198187 0
M  V30 1972 H 188.311 1.9048 -0.197365 0
M  V30 1973 H 186.616 3.40835 1.93232 0
M  V30 1974 H 188.313 3.66189 1.63422 0
M  V30 1975 H 184.903 4.27272 0.337192 0
M  V30 1976 H 189.087 4.94896 -0.373092 0
M  V30 1977 H 184.343 5.96092 -1.35958 0
M  V30 1978 H 188.517 6.65039 -2.06629 0
M  V30 1979 H 186.144 7.15599 -2.56557 0
M  V30 1980 N 187.719 -0.156864 1.56817 0
M  V30 1981 C 188.947 -0.886316 1.86955 0
M  V30 1982 C 189.362 -1.75185 0.703975 0
M  V30 1983 O 188.719 -1.79555 -0.326552 0
M  V30 1984 C 188.77 -1.75117 3.16253 0
M  V30 1985 O 188.491 -0.920537 4.2832 0
M  V30 1986 C 189.992 -2.58905 3.59837 0
M  V30 1987 H 187.212 -0.25678 0.619923 0
M  V30 1988 H 189.756 -0.152615 2.0393 0
M  V30 1989 H 187.911 -2.43805 3.01062 0
M  V30 1990 H 188.325 -1.51337 5.02192 0
M  V30 1991 H 189.799 -3.1518 4.53172 0
M  V30 1992 H 190.276 -3.34472 2.84649 0
M  V30 1993 H 190.882 -1.95526 3.7769 0
M  V30 1994 N 189.197 -1.51736 -0.425897 0
M  V30 1995 C 190.445 -1.64644 -1.17204 0
M  V30 1996 C 190.766 -0.370486 -1.91448 0
M  V30 1997 O 190.036 0.614088 -1.86026 0
M  V30 1998 H 188.616 -0.606819 -0.435638 0
M  V30 1999 H 191.278 -1.88713 -0.487177 0
M  V30 2000 H 190.374 -2.47958 -1.89534 0
M  V30 2001 N 190.675 0.682077 -1.42076 0
M  V30 2002 C 191.922 1.44215 -1.42156 0
M  V30 2003 C 192.25 1.94468 -0.0354186 0
M  V30 2004 O 191.505 1.70816 0.955002 0
M  V30 2005 C 191.804 2.66036 -2.38662 0
M  V30 2006 C 191.47 2.34366 -3.85206 0
M  V30 2007 C 190.132 2.25439 -4.25124 0
M  V30 2008 C 192.484 2.08513 -4.77673 0
M  V30 2009 C 189.812 1.88775 -5.55501 0
M  V30 2010 C 192.164 1.73354 -6.08384 0
M  V30 2011 C 190.828 1.62933 -6.47309 0
M  V30 2012 H 190.098 0.527718 -0.520187 0
M  V30 2013 H 192.745 0.778387 -1.74967 0
M  V30 2014 H 191.05 3.3741 -1.99152 0
M  V30 2015 H 192.747 3.24205 -2.35991 0
M  V30 2016 H 189.337 2.42213 -3.53597 0
M  V30 2017 H 193.521 2.14346 -4.47626 0
M  V30 2018 H 188.777 1.7927 -5.84527 0
M  V30 2019 H 192.951 1.52373 -6.79526 0
M  V30 2020 H 190.578 1.34292 -7.48244 0
M  V30 2021 N 192.153 1.28127 0.917671 0
M  V30 2022 C 193.063 1.13556 2.05286 0
M  V30 2023 C 194.079 0.0630914 1.73886 0
M  V30 2024 O 195.255 0.271598 1.9956 0
M  V30 2025 C 192.32 0.794676 3.3747 0
M  V30 2026 C 191.381 1.94909 3.82504 0
M  V30 2027 C 190.614 1.62437 5.0838 0
M  V30 2028 O 190.837 0.536905 5.67867 0
M  V30 2029 O 189.771 2.46677 5.4903 0
M  V30 2030 H 193.597 2.08844 2.20495 0
M  V30 2031 H 191.182 1.07409 1.03845 0
M  V30 2032 H 193.064 0.618344 4.16839 0
M  V30 2033 H 191.739 -0.128581 3.23445 0
M  V30 2034 H 190.646 2.18055 3.03978 0
M  V30 2035 H 191.979 2.85291 4.01086 0
M  V30 2036 N 193.631 -1.12557 1.10312 0
M  V30 2037 C 194.594 -2.16434 0.75424 0
M  V30 2038 C 195.594 -1.59278 -0.220685 0
M  V30 2039 O 196.784 -1.742 0.00230591 0
M  V30 2040 C 193.916 -3.40699 0.116987 0
M  V30 2041 H 195.109 -2.48811 1.67431 0
M  V30 2042 H 192.662 -1.27542 0.903475 0
M  V30 2043 H 193.397 -3.13921 -0.813877 0
M  V30 2044 H 193.182 -3.83459 0.818613 0
M  V30 2045 H 194.672 -4.17451 -0.111387 0
M  V30 2046 N 195.109 -0.891671 -1.2995 0
M  V30 2047 C 196.356 -0.513501 -1.95881 0
M  V30 2048 C 196.684 0.938655 -1.70351 0
M  V30 2049 O 195.939 1.67936 -1.00478 0
M  V30 2050 C 196.238 -0.742868 -3.49594 0
M  V30 2051 C 195.904 -2.17114 -3.95186 0
M  V30 2052 C 194.566 -2.56169 -4.07346 0
M  V30 2053 C 196.918 -3.10162 -4.18866 0
M  V30 2054 C 194.246 -3.87469 -4.4055 0
M  V30 2055 C 196.598 -4.41001 -4.53542 0
M  V30 2056 C 195.262 -4.79941 -4.63911 0
M  V30 2057 H 194.532 -0.187903 -0.71678 0
M  V30 2058 H 197.179 -1.1288 -1.54694 0
M  V30 2059 H 195.484 -0.044586 -3.91775 0
M  V30 2060 H 197.181 -0.429767 -3.9869 0
M  V30 2061 H 193.771 -1.85801 -3.86233 0
M  V30 2062 H 197.955 -2.81206 -4.08946 0
M  V30 2063 H 193.211 -4.17371 -4.46779 0
M  V30 2064 H 197.385 -5.13133 -4.70815 0
M  V30 2065 H 195.012 -5.81719 -4.89395 0
M  V30 2066 N 196.587 1.43421 -0.653314 0
M  V30 2067 C 197.817 2.05864 -0.174238 0
M  V30 2068 C 198.225 1.49052 1.16534 0
M  V30 2069 O 197.568 0.616481 1.73047 0
M  V30 2070 C 197.63 3.59499 -0.00875873 0
M  V30 2071 C 197.294 4.38893 -1.27364 0
M  V30 2072 C 198.291 4.70947 -2.20239 0
M  V30 2073 C 195.976 4.789 -1.51525 0
M  V30 2074 C 197.97 5.41916 -3.35568 0
M  V30 2075 C 195.657 5.49614 -2.67147 0
M  V30 2076 C 196.655 5.81044 -3.58994 0
M  V30 2077 O 196.343 6.50313 -4.72597 0
M  V30 2078 H 196.075 0.670345 -0.0872549 0
M  V30 2079 H 198.629 1.84913 -0.894226 0
M  V30 2080 H 196.859 3.79025 0.7666 0
M  V30 2081 H 198.548 4.0364 0.427687 0
M  V30 2082 H 199.314 4.40558 -2.02815 0
M  V30 2083 H 195.193 4.53843 -0.809158 0
M  V30 2084 H 198.737 5.66365 -4.07279 0
M  V30 2085 H 194.634 5.79419 -2.84505 0
M  V30 2086 H 195.402 6.68795 -4.71864 0
M  V30 2087 N 198.065 0.39524 1.52563 0
M  V30 2088 C 199.028 -0.425001 2.25225 0
M  V30 2089 C 200.028 -0.985266 1.27079 0
M  V30 2090 O 201.218 -0.866332 1.5113 0
M  V30 2091 C 198.35 -1.59686 3.01186 0
M  V30 2092 H 199.543 0.211233 2.99155 0
M  V30 2093 H 197.096 0.147472 1.55603 0
M  V30 2094 H 197.831 -2.27035 2.31572 0
M  V30 2095 H 197.616 -1.20176 3.73229 0
M  V30 2096 H 199.106 -2.17743 3.5634 0
M  V30 2097 N 199.544 -1.57102 0.125237 0
M  V30 2098 C 200.507 -2.14471 -0.80838 0
M  V30 2099 C 201.507 -1.0811 -1.19033 0
M  V30 2100 O 202.697 -1.33856 -1.11482 0
M  V30 2101 C 199.829 -2.69005 -2.09402 0
M  V30 2102 H 201.022 -2.98297 -0.309696 0
M  V30 2103 H 198.575 -1.55807 -0.124051 0
M  V30 2104 H 199.31 -1.88785 -2.63687 0
M  V30 2105 H 199.095 -3.46799 -1.82957 0
M  V30 2106 H 200.585 -3.13278 -2.76128 0
M  V30 2107 N 201.022 0.148545 -1.56898 0
M  V30 2108 C 201.932 1.20293 -2.01412 0
M  V30 2109 C 202.948 1.47107 -0.929273 0
M  V30 2110 O 204.124 1.58807 -1.23863 0
M  V30 2111 C 201.189 2.51682 -2.38447 0
M  V30 2112 C 200.25 2.32529 -3.60872 0
M  V30 2113 C 199.483 3.57653 -3.96132 0
M  V30 2114 O 199.706 4.63771 -3.32073 0
M  V30 2115 O 198.64 3.50408 -4.89385 0
M  V30 2116 H 202.466 0.855025 -2.91416 0
M  V30 2117 H 200.051 0.357151 -1.45068 0
M  V30 2118 H 201.933 3.29147 -2.63135 0
M  V30 2119 H 200.608 2.86006 -1.51599 0
M  V30 2120 H 199.515 1.53019 -3.41373 0
M  V30 2121 H 200.848 2.03121 -4.48333 0
M  V30 2122 N 202.5 1.5196 0.417844 0
M  V30 2123 C 203.777 1.56146 1.17803 0
M  V30 2124 C 204.157 0.337275 2.08388 0
M  V30 2125 O 203.505 -0.676447 2.18258 0
M  V30 2126 C 203.715 2.88566 1.96293 0
M  V30 2127 C 205.063 3.41244 2.52662 0
M  V30 2128 O 206.087 2.90247 2.06483 0
M  V30 2129 O 204.946 4.30273 3.36938 0
M  V30 2130 H 202.04 0.628598 0.537395 0
M  V30 2131 H 204.586 1.64283 0.425331 0
M  V30 2132 H 203.358 3.69116 1.2988 0
M  V30 2133 H 202.981 2.83681 2.78587 0
M  V30 2134 N 203.978 -0.674533 1.42435 0
M  V30 2135 C 205.227 -1.43034 1.42212 0
M  V30 2136 C 205.54 -1.95555 0.0420788 0
M  V30 2137 O 206.746 -2.71374 -0.0827558 0
M  V30 2138 C 205.202 -2.58748 2.50155 0
M  V30 2139 C 204.81 -2.12925 3.94166 0
M  V30 2140 C 206.554 -3.36257 2.59098 0
M  V30 2141 C 204.461 -3.25723 4.93618 0
M  V30 2142 H 203.391 -0.537345 0.528939 0
M  V30 2143 H 206.042 -0.73024 1.68344 0
M  V30 2144 H 204.424 -3.31128 2.17188 0
M  V30 2145 H 205.598 -1.47697 4.36488 0
M  V30 2146 H 203.913 -1.48354 3.89076 0
M  V30 2147 H 206.51 -4.20264 3.30578 0
M  V30 2148 H 206.853 -3.82866 1.63461 0
M  V30 2149 H 207.386 -2.70947 2.9126 0
M  V30 2150 H 204.125 -2.84105 5.90732 0
M  V30 2151 H 203.645 -3.89732 4.55926 0
M  V30 2152 H 205.324 -3.91186 5.15347 0
M  V30 2153 N 205.456 -1.28612 -0.910864 0
M  V30 2154 C 206.733 -1.06632 -1.63979 0
M  V30 2155 C 207.113 0.393351 -2.07403 0
M  V30 2156 O 206.461 1.37999 -1.82122 0
M  V30 2157 C 206.671 -2.0436 -2.8291 0
M  V30 2158 C 208.019 -2.34666 -3.5386 0
M  V30 2159 O 209.043 -2.02467 -2.93062 0
M  V30 2160 O 207.902 -2.89631 -4.63439 0
M  V30 2161 H 204.996 -0.407737 -0.7195 0
M  V30 2162 H 207.542 -1.39942 -0.959914 0
M  V30 2163 H 206.314 -3.02727 -2.47936 0
M  V30 2164 H 205.937 -1.71714 -3.58609 0
M  V30 2165 N 206.934 1.1197 -1.10907 0
M  V30 2166 C 207.844 2.21433 -0.774896 0
M  V30 2167 C 208.86 1.72478 0.229657 0
M  V30 2168 O 210.036 2.01288 0.0672008 0
M  V30 2169 C 207.101 3.4602 -0.216986 0
M  V30 2170 C 206.162 4.09791 -1.27944 0
M  V30 2171 C 205.395 5.28431 -0.748055 0
M  V30 2172 O 205.618 5.68823 0.423833 0
M  V30 2173 O 204.552 5.82644 -1.51027 0
M  V30 2174 H 208.378 2.5242 -1.68873 0
M  V30 2175 H 205.963 1.20399 -0.884555 0
M  V30 2176 H 207.845 4.21304 0.090059 0
M  V30 2177 H 206.52 3.16698 0.669633 0
M  V30 2178 H 205.427 3.36265 -1.63941 0
M  V30 2179 H 206.76 4.4328 -2.13925 0
M  V30 2180 N 208.412 0.89855 1.29475 0
M  V30 2181 C 209.652 0.530771 1.97388 0
M  V30 2182 C 210.016 -0.905832 1.69289 0
M  V30 2183 O 211.217 -1.38042 2.30646 0
M  V30 2184 C 209.488 0.81369 3.48014 0
M  V30 2185 S 211.047 0.550048 4.35339 0
M  V30 2186 H 207.865 0.196956 0.683176 0
M  V30 2187 H 210.467 1.16074 1.57312 0
M  V30 2188 H 209.171 1.85749 3.65958 0
M  V30 2189 H 208.702 0.171795 3.93025 0
M  V30 2190 H 210.717 -0.605423 4.92493 0
M  V30 2191 N 209.89 -1.43072 0.660911 0
M  V30 2192 C 210.822 -2.29108 -0.0647641 0
M  V30 2193 C 211.835 -1.42928 -0.779448 0
M  V30 2194 O 213.024 -1.66788 -0.635921 0
M  V30 2195 C 210.124 -3.20032 -1.11503 0
M  V30 2196 C 209.297 -4.34792 -0.476955 0
M  V30 2197 C 208.356 -5.06534 -1.42513 0
M  V30 2198 O 207.382 -5.61538 -0.930771 0
M  V30 2199 N 208.584 -5.1075 -2.75889 0
M  V30 2200 H 211.349 -2.92029 0.673731 0
M  V30 2201 H 208.91 -1.53846 0.50427 0
M  V30 2202 H 210.902 -3.64892 -1.75032 0
M  V30 2203 H 209.472 -2.58658 -1.75541 0
M  V30 2204 H 208.692 -3.92752 0.337572 0
M  V30 2205 H 209.98 -5.0879 -0.0318525 0
M  V30 2206 H 209.378 -4.67447 -3.18606 0
M  V30 2207 H 207.935 -5.59302 -3.347 0
M  V30 2208 N 211.368 -0.403325 -1.52352 0
M  V30 2209 C 212.614 0.174605 -2.02047 0
M  V30 2210 C 212.947 1.45282 -1.28867 0
M  V30 2211 O 212.222 1.90483 -0.393257 0
M  V30 2212 C 212.505 0.428238 -3.57545 0
M  V30 2213 C 212.358 -0.866248 -4.4138 0
M  V30 2214 C 213.677 1.21287 -4.23057 0
M  V30 2215 H 210.796 0.0619851 -0.734389 0
M  V30 2216 H 213.438 -0.53565 -1.82293 0
M  V30 2217 H 211.588 1.03327 -3.74507 0
M  V30 2218 H 213.26 -1.50265 -4.3614 0
M  V30 2219 H 211.503 -1.47851 -4.07827 0
M  V30 2220 H 212.174 -0.643249 -5.48239 0
M  V30 2221 H 214.65 0.700703 -4.10158 0
M  V30 2222 H 213.526 1.35909 -5.31808 0
M  V30 2223 H 213.787 2.23193 -3.81625 0
M  V30 2224 N 212.846 1.57033 -0.133567 0
M  V30 2225 C 213.809 2.14897 0.796995 0
M  V30 2226 C 214.809 1.0874 1.18458 0
M  V30 2227 O 215.999 1.34446 1.1077 0
M  V30 2228 C 213.131 2.70112 2.07973 0
M  V30 2229 H 214.324 2.98457 0.293873 0
M  V30 2230 H 211.877 1.55871 0.115787 0
M  V30 2231 H 212.612 1.9018 2.62682 0
M  V30 2232 H 212.397 3.47764 1.81115 0
M  V30 2233 H 213.887 3.14738 2.74462 0
M  V30 2234 N 214.325 -0.140222 1.56975 0
M  V30 2235 C 215.736 -0.699596 1.73097 0
M  V30 2236 C 216.087 -1.8134 0.749022 0
M  V30 2237 O 215.212 -2.16241 -0.0828503 0
M  V30 2238 C 215.807 -1.27582 3.1386 0
M  V30 2239 C 214.366 -1.78169 3.31561 0
M  V30 2240 C 213.513 -0.672855 2.69013 0
M  V30 2241 H 216.464 0.0855115 1.58469 0
M  V30 2242 H 216.485 -2.14561 3.14235 0
M  V30 2243 H 215.997 -0.464955 3.85305 0
M  V30 2244 H 214.098 -2.61801 2.65124 0
M  V30 2245 H 214.211 -1.90574 4.39566 0
M  V30 2246 H 212.575 -1.10118 2.29665 0
M  V30 2247 H 213.358 0.126679 3.43066 0
M  V30 2248 N 215.803 -1.52179 -0.40978 0
M  V30 2249 C 217.051 -1.65878 -1.15451 0
M  V30 2250 C 217.372 -0.390771 -1.91044 0
M  V30 2251 O 216.642 0.594323 -1.86667 0
M  V30 2252 H 215.222 -0.611405 -0.429177 0
M  V30 2253 H 217.884 -1.89219 -0.467134 0
M  V30 2254 H 216.98 -2.49954 -1.86894 0
M  V30 2255 N 217.281 0.66697 -1.42791 0
M  V30 2256 C 218.191 1.80962 -1.49299 0
M  V30 2257 C 219.207 1.69775 -0.381108 0
M  V30 2258 O 220.383 1.91188 -0.633188 0
M  V30 2259 C 217.448 3.17156 -1.40045 0
M  V30 2260 C 216.509 3.40242 -2.6179 0
M  V30 2261 C 215.742 4.69939 -2.52969 0
M  V30 2262 O 215.965 5.48372 -1.56985 0
M  V30 2263 O 214.899 4.94441 -3.43237 0
M  V30 2264 H 218.725 1.78427 -2.45759 0
M  V30 2265 H 216.31 0.823713 -1.24641 0
M  V30 2266 H 218.192 3.98413 -1.37276 0
M  V30 2267 H 216.867 3.20312 -0.467138 0
M  V30 2268 H 215.774 2.58802 -2.70134 0
M  V30 2269 H 217.107 3.41923 -3.54047 0
M  V30 2270 N 218.759 1.29093 0.90403 0
M  V30 2271 C 219.722 1.1386 1.98919 0
M  V30 2272 C 220.722 0.0753457 1.60623 0
M  V30 2273 O 221.912 0.321931 1.71199 0
M  V30 2274 C 219.044 0.740198 3.32767 0
M  V30 2275 H 220.237 2.10246 2.13861 0
M  V30 2276 H 217.79 1.12218 1.08797 0
M  V30 2277 H 218.525 -0.223997 3.23525 0
M  V30 2278 H 218.31 1.50838 3.61926 0
M  V30 2279 H 219.8 0.656546 4.12407 0
M  V30 2280 N 220.237 -1.11381 1.11499 0
M  V30 2281 C 221.648 -1.6465 0.880191 0
M  V30 2282 C 221.999 -1.87199 -0.587434 0
M  V30 2283 O 221.124 -1.60667 -1.44966 0
M  V30 2284 C 221.719 -2.99105 1.59128 0
M  V30 2285 C 220.278 -3.49279 1.40289 0
M  V30 2286 C 219.425 -2.24077 1.63354 0
M  V30 2287 H 222.376 -0.950123 1.27116 0
M  V30 2288 H 222.397 -3.66107 1.03664 0
M  V30 2289 H 221.909 -2.82661 2.65941 0
M  V30 2290 H 220.01 -3.70887 0.356888 0
M  V30 2291 H 220.123 -4.2803 2.15238 0
M  V30 2292 H 218.487 -2.31733 1.05698 0
M  V30 2293 H 219.27 -2.10175 2.71443 0
M  V30 2294 N 221.715 -0.905404 -1.28997 0
M  V30 2295 C 222.943 -0.549846 -1.9946 0
M  V30 2296 C 223.358 0.866834 -1.67724 0
M  V30 2297 O 222.715 1.57298 -0.925404 0
M  V30 2298 C 222.766 -0.739387 -3.53858 0
M  V30 2299 O 222.487 -2.10031 -3.84472 0
M  V30 2300 C 223.988 -0.389541 -4.41585 0
M  V30 2301 H 221.208 -0.210429 -0.637151 0
M  V30 2302 H 223.752 -1.21632 -1.64396 0
M  V30 2303 H 221.907 -0.120023 -3.87214 0
M  V30 2304 H 222.321 -2.13385 -4.79132 0
M  V30 2305 H 223.795 -0.572972 -5.49018 0
M  V30 2306 H 224.272 0.673756 -4.34001 0
M  V30 2307 H 224.878 -0.986089 -4.1371 0
M  V30 2308 N 223.193 1.4272 -0.668489 0
M  V30 2309 C 224.433 2.03497 -0.19194 0
M  V30 2310 C 224.797 1.51684 1.17712 0
M  V30 2311 O 225.998 2.04205 1.74796 0
M  V30 2312 C 224.269 3.56734 -0.218032 0
M  V30 2313 S 225.828 4.38395 0.188438 0
M  V30 2314 H 222.646 0.706542 -0.0794959 0
M  V30 2315 H 225.248 1.74563 -0.880235 0
M  V30 2316 H 223.952 3.91943 -1.2169 0
M  V30 2317 H 223.483 3.90333 0.490303 0
M  V30 2318 H 225.498 4.75345 1.42345 0
M  V30 2319 N 224.671 0.411399 1.52136 0
M  V30 2320 C 225.948 -0.222308 1.94333 0
M  V30 2321 C 226.328 -1.6242 1.34844 0
M  V30 2322 O 225.676 -2.22384 0.525145 0
M  V30 2323 C 225.886 -0.226345 3.48265 0
M  V30 2324 C 227.234 -0.444592 4.22266 0
M  V30 2325 O 228.258 -0.305602 3.54887 0
M  V30 2326 O 227.117 -0.718749 5.41753 0
M  V30 2327 H 224.211 -0.143907 0.814383 0
M  V30 2328 H 226.757 0.467506 1.63133 0
M  V30 2329 H 225.529 0.75475 3.83952 0
M  V30 2330 H 225.152 -0.960163 3.85832 0
M  V30 2331 N 226.149 -1.5696 0.141893 0
M  V30 2332 C 227.099 -2.13074 -0.811383 0
M  V30 2333 C 228.083 -1.05726 -1.21288 0
M  V30 2334 O 229.275 -1.31914 -1.18015 0
M  V30 2335 C 226.404 -2.75186 -2.0525 0
M  V30 2336 C 225.49 -3.8965 -1.67432 0
M  V30 2337 N 225.881 -4.95733 -1.0041 0
M  V30 2338 C 224.179 -4.00262 -1.96739 0
M  V30 2339 C 224.88 -5.75858 -0.822345 0
M  V30 2340 N 223.856 -5.26452 -1.3546 0
M  V30 2341 H 227.658 -2.92465 -0.290031 0
M  V30 2342 H 225.172 -1.6229 -0.0598218 0
M  V30 2343 H 227.169 -3.13745 -2.74535 0
M  V30 2344 H 225.829 -1.97266 -2.57907 0
M  V30 2345 H 226.84 -5.13607 -0.665441 0
M  V30 2346 H 223.517 -3.33412 -2.51282 0
M  V30 2347 H 224.907 -6.71254 -0.294496 0
M  V30 2348 N 227.627 0.131896 -1.57047 0
M  V30 2349 C 228.577 1.1679 -1.95816 0
M  V30 2350 C 229.561 1.37756 -0.831393 0
M  V30 2351 O 230.753 1.39065 -1.09499 0
M  V30 2352 C 227.882 2.49778 -2.35512 0
M  V30 2353 C 226.968 2.32342 -3.54793 0
M  V30 2354 N 227.359 1.8469 -4.70875 0
M  V30 2355 C 225.657 2.63043 -3.60173 0
M  V30 2356 C 226.358 1.80656 -5.52936 0
M  V30 2357 N 225.334 2.24528 -4.95064 0
M  V30 2358 H 229.136 0.791818 -2.83033 0
M  V30 2359 H 226.65 0.339791 -1.58805 0
M  V30 2360 H 228.647 3.24692 -2.61498 0
M  V30 2361 H 227.307 2.88156 -1.49654 0
M  V30 2362 H 228.318 1.54429 -4.9434 0
M  V30 2363 H 224.995 3.05193 -2.84892 0
M  V30 2364 H 226.385 1.45178 -6.56028 0
M  V30 2365 N 229.106 1.52395 0.401703 0
M  V30 2366 C 230.346 1.68498 1.15705 0
M  V30 2367 C 230.71 0.409748 1.87577 0
M  V30 2368 O 231.911 0.446983 2.65058 0
M  V30 2369 C 230.182 2.87789 2.11924 0
M  V30 2370 S 231.741 3.24415 2.95466 0
M  V30 2371 H 228.559 0.593267 0.391862 0
M  V30 2372 H 231.161 1.90408 0.443282 0
M  V30 2373 H 229.865 3.7884 1.57824 0
M  V30 2374 H 229.396 2.68175 2.87829 0
M  V30 2375 H 231.411 2.73614 4.13944 0
M  V30 2376 N 230.584 -0.659388 1.43143 0
M  V30 2377 C 231.534 -1.7655 1.44271 0
M  V30 2378 C 232.518 -1.57847 0.311961 0
M  V30 2379 O 233.71 -1.68064 0.555306 0
M  V30 2380 C 230.839 -3.15104 1.36251 0
M  V30 2381 C 229.925 -3.39377 2.54331 0
M  V30 2382 N 230.316 -3.34153 3.79704 0
M  V30 2383 C 228.614 -3.70072 2.48922 0
M  V30 2384 C 229.315 -3.58337 4.58225 0
M  V30 2385 N 228.291 -3.79851 3.88863 0
M  V30 2386 H 232.093 -1.70928 2.39083 0
M  V30 2387 H 229.607 -0.860823 1.37708 0
M  V30 2388 H 231.604 -3.94389 1.35141 0
M  V30 2389 H 230.264 -3.21913 0.424531 0
M  V30 2390 H 231.275 -3.13704 4.1208 0
M  V30 2391 H 227.952 -3.84034 1.63781 0
M  V30 2392 H 229.342 -3.60129 5.67236 0
M  V30 2393 N 232.062 -1.29571 -0.897171 0
M  V30 2394 C 233.01 -1.14802 -2.02295 0
M  V30 2395 C 234.004 -0.0629637 -1.69283 0
M  V30 2396 O 235.21 -0.222945 -1.78614 0
M  V30 2397 H 231.585 -0.354692 -0.663097 0
M  V30 2398 H 233.556 -2.10108 -2.11889 0
M  V30 2399 C 232.305 -0.843966 -3.37302 0
M  V30 2400 H 231.628 -1.67093 -3.63208 0
M  V30 2401 H 233.068 -0.780672 -4.16751 0
M  V30 2402 C 231.527 0.452843 -3.33843 0
M  V30 2403 O 232.057 1.47813 -3.73516 0
M  V30 2404 N 230.263 0.459601 -2.86943 0
M  V30 2405 H 229.81 -0.375213 -2.54853 0
M  V30 2406 H 229.768 1.32726 -2.85011 0
M  V30 2407 N 233.54 1.10788 -1.12088 0
M  V30 2408 C 234.49 2.15158 -0.754401 0
M  V30 2409 C 235.474 1.59026 0.244846 0
M  V30 2410 O 236.666 1.76927 0.0509097 0
M  V30 2411 C 233.795 3.42677 -0.206657 0
M  V30 2412 C 232.881 4.05751 -1.23398 0
M  V30 2413 N 233.272 4.43582 -2.43041 0
M  V30 2414 C 231.57 4.32764 -1.07848 0
M  V30 2415 C 232.271 4.93085 -3.08613 0
M  V30 2416 N 231.247 4.89664 -2.36072 0
M  V30 2417 H 235.049 2.42195 -1.6649 0
M  V30 2418 H 232.563 1.27872 -1.00112 0
M  V30 2419 H 234.56 4.16834 0.0740646 0
M  V30 2420 H 233.22 3.17101 0.698342 0
M  V30 2421 H 234.231 4.35395 -2.80449 0
M  V30 2422 H 230.908 4.16863 -0.230483 0
M  V30 2423 H 232.298 5.31933 -4.10483 0
M  V30 2424 N 235.018 0.912232 1.28515 0
M  V30 2425 C 235.948 0.416403 2.29757 0
M  V30 2426 C 236.929 -0.515194 1.6211 0
M  V30 2427 O 238.114 -0.423253 1.89532 0
M  V30 2428 C 235.244 -0.34572 3.45575 0
M  V30 2429 C 234.198 0.496599 4.25109 0
M  V30 2430 C 233.524 -0.393771 5.33248 0
M  V30 2431 C 234.824 1.75307 4.92001 0
M  V30 2432 H 236.518 1.26249 2.7148 0
M  V30 2433 H 234.064 0.608515 1.30511 0
M  V30 2434 H 236.017 -0.703422 4.15488 0
M  V30 2435 H 234.741 -1.2257 3.02728 0
M  V30 2436 H 233.4 0.8368 3.56922 0
M  V30 2437 H 233.048 -1.27225 4.86644 0
M  V30 2438 H 232.748 0.166209 5.87365 0
M  V30 2439 H 234.272 -0.747389 6.06009 0
M  V30 2440 H 235.686 1.46437 5.54283 0
M  V30 2441 H 234.083 2.25534 5.56106 0
M  V30 2442 H 235.153 2.48176 4.16577 0
M  V30 2443 N 236.496 -1.42363 0.676048 0
M  V30 2444 C 237.744 -2.01123 0.198437 0
M  V30 2445 C 238.065 -1.53731 -1.19966 0
M  V30 2446 O 237.335 -0.759518 -1.80577 0
M  V30 2447 H 235.915 -0.743678 0.0703721 0
M  V30 2448 H 238.577 -1.74263 0.872837 0
M  V30 2449 H 237.673 -3.11454 0.200686 0
M  V30 2450 N 237.974 -0.419461 -1.51915 0
M  V30 2451 C 239.222 0.152637 -2.01523 0
M  V30 2452 C 239.543 1.44762 -1.30649 0
M  V30 2453 O 238.813 1.90997 -0.435535 0
M  V30 2454 H 237.393 0.0593966 -0.744635 0
M  V30 2455 H 240.055 -0.558073 -1.86739 0
M  V30 2456 H 239.151 0.341369 -3.10227 0
M  V30 2457 N 239.452 1.56882 -0.150215 0
M  V30 2458 C 240.699 1.96228 0.500093 0
M  V30 2459 C 241.027 1.03522 1.64661 0
M  V30 2460 O 240.282 0.0650683 1.95592 0
M  V30 2461 C 240.581 3.41801 1.04437 0
M  V30 2462 C 240.247 4.50897 0.0159671 0
M  V30 2463 C 238.909 4.8046 -0.266731 0
M  V30 2464 C 241.261 5.16703 -0.683192 0
M  V30 2465 C 238.589 5.73135 -1.25434 0
M  V30 2466 C 240.941 6.10441 -1.65964 0
M  V30 2467 C 239.605 6.38382 -1.95 0
M  V30 2468 H 238.875 0.718048 0.182997 0
M  V30 2469 H 241.522 1.90019 -0.237724 0
M  V30 2470 H 239.827 3.44857 1.85959 0
M  V30 2471 H 241.524 3.69573 1.55618 0
M  V30 2472 H 238.114 4.27891 0.246485 0
M  V30 2473 H 242.298 4.93993 -0.477983 0
M  V30 2474 H 237.554 5.93074 -1.48571 0
M  V30 2475 H 241.728 6.60507 -2.20689 0
M  V30 2476 H 239.355 7.09996 -2.71679 0
M  V30 2477 N 240.93 -0.123565 1.57115 0
M  V30 2478 C 242.16 -0.845233 1.88519 0
M  V30 2479 C 242.568 -1.74168 0.739064 0
M  V30 2480 O 241.911 -1.81244 -0.299355 0
M  V30 2481 C 241.973 -1.73452 3.14888 0
M  V30 2482 C 241.637 -1.01285 4.45635 0
M  V30 2483 C 242.634 -0.355774 5.18681 0
M  V30 2484 C 240.319 -0.99538 4.92339 0
M  V30 2485 C 242.313 0.309114 6.3665 0
M  V30 2486 C 240 -0.32669 6.10226 0
M  V30 2487 C 240.998 0.324406 6.82229 0
M  V30 2488 O 240.686 0.982437 7.97874 0
M  V30 2489 H 240.418 -0.248534 0.628655 0
M  V30 2490 H 242.972 -0.113907 2.05084 0
M  V30 2491 H 241.202 -2.50737 2.94394 0
M  V30 2492 H 242.891 -2.33021 3.32349 0
M  V30 2493 H 243.657 -0.360918 4.83655 0
M  V30 2494 H 239.536 -1.49159 4.36202 0
M  V30 2495 H 243.08 0.8179 6.92789 0
M  V30 2496 H 238.977 -0.319294 6.4471 0
M  V30 2497 H 239.745 0.886454 8.13686 0
M  V30 2498 N 242.408 -1.52605 -0.393616 0
M  V30 2499 C 243.648 -1.6911 -1.1481 0
M  V30 2500 C 244.012 -0.41969 -1.87357 0
M  V30 2501 O 245.213 -0.461034 -2.64817 0
M  V30 2502 C 243.484 -2.88909 -2.10395 0
M  V30 2503 S 245.043 -3.25977 -2.93742 0
M  V30 2504 H 241.861 -0.595337 -0.38871 0
M  V30 2505 H 244.463 -1.90641 -0.433178 0
M  V30 2506 H 243.167 -3.79672 -1.55812 0
M  V30 2507 H 242.698 -2.69698 -2.86403 0
M  V30 2508 H 244.713 -2.75806 -4.12487 0
M  V30 2509 N 243.887 0.651787 -1.4349 0
M  V30 2510 C 245.112 1.44434 -1.48841 0
M  V30 2511 C 245.537 1.8779 -0.107955 0
M  V30 2512 O 244.895 1.57464 0.898602 0
M  V30 2513 C 244.943 2.65458 -2.44059 0
M  V30 2514 O 244.047 3.64566 -1.92784 0
M  V30 2515 H 243.388 0.433005 -0.503391 0
M  V30 2516 H 245.918 0.797451 -1.88419 0
M  V30 2517 H 245.928 3.13255 -2.6141 0
M  V30 2518 H 244.603 2.33244 -3.4434 0
M  V30 2519 H 243.18 3.23716 -1.851 0
M  V30 2520 N 245.365 1.30045 0.890287 0
M  V30 2521 C 246.605 1.19839 1.65584 0
M  V30 2522 C 246.969 -0.244175 1.90441 0
M  V30 2523 O 248.17 -0.469378 2.6467 0
M  V30 2524 C 246.441 1.99876 2.96284 0
M  V30 2525 S 248 2.06309 3.87275 0
M  V30 2526 H 244.818 0.427157 0.568382 0
M  V30 2527 H 247.42 1.64453 1.05715 0
M  V30 2528 H 246.124 3.03809 2.75913 0
M  V30 2529 H 245.655 1.55903 3.61189 0
M  V30 2530 H 247.67 1.18661 4.81803 0
M  V30 2531 N 246.843 -1.10192 1.12674 0
M  V30 2532 C 248.259 -1.34235 0.863317 0
M  V30 2533 C 248.459 -1.95062 -0.505277 0
M  V30 2534 O 247.515 -2.19192 -1.25345 0
M  V30 2535 C 248.828 -2.2616 1.98172 0
M  V30 2536 C 250.376 -2.3969 2.0129 0
M  V30 2537 C 250.851 -3.34946 3.1237 0
M  V30 2538 N 252.342 -3.42515 3.11829 0
M  V30 2539 C 253.077 -4.16199 3.94419 0
M  V30 2540 N 252.573 -4.92747 4.87004 0
M  V30 2541 N 254.366 -4.11843 3.82547 0
M  V30 2542 H 246.517 -0.690798 2.00853 0
M  V30 2543 H 248.78 -0.366774 0.874174 0
M  V30 2544 H 248.486 -1.8868 2.96804 0
M  V30 2545 H 248.36 -3.26488 1.88906 0
M  V30 2546 H 250.747 -2.76438 1.03276 0
M  V30 2547 H 250.828 -1.39169 2.14629 0
M  V30 2548 H 250.472 -2.98923 4.10619 0
M  V30 2549 H 250.402 -4.35353 2.96269 0
M  V30 2550 H 252.893 -2.87926 2.44759 0
M  V30 2551 H 253.206 -5.46376 5.46528 0
M  V30 2552 H 251.551 -4.91862 4.91016 0
M  V30 2553 H 254.742 -3.51136 3.0955 0
M  V30 2554 H 254.915 -4.69007 4.47142 0
M  V30 2555 N 248.321 -0.919034 -1.28029 0
M  V30 2556 C 249.284 -0.416182 -2.2539 0
M  V30 2557 C 250.284 0.460438 -1.54067 0
M  V30 2558 O 251.474 0.262744 -1.72207 0
M  V30 2559 C 248.606 0.402707 -3.38513 0
M  V30 2560 H 249.799 -1.27629 -2.71387 0
M  V30 2561 H 247.352 -0.698919 -1.39803 0
M  V30 2562 H 248.087 1.282 -2.97885 0
M  V30 2563 H 247.872 -0.225698 -3.9145 0
M  V30 2564 H 249.362 0.745191 -4.10897 0
M  V30 2565 N 249.799 1.42003 -0.683588 0
M  V30 2566 C 251.047 2.01015 -0.209101 0
M  V30 2567 C 251.368 1.54365 1.19149 0
M  V30 2568 O 250.638 0.769083 1.80172 0
M  V30 2569 H 249.218 0.743294 -0.074315 0
M  V30 2570 H 251.88 1.73798 -0.882066 0
M  V30 2571 H 250.976 3.11343 -0.2172 0
M  V30 2572 N 251.277 0.427512 1.51691 0
M  V30 2573 C 252.507 -0.140986 2.06118 0
M  V30 2574 C 252.915 -1.37854 1.29588 0
M  V30 2575 O 252.258 -1.80411 0.346036 0
M  V30 2576 C 252.32 -0.538276 3.55447 0
M  V30 2577 C 251.984 0.591095 4.53161 0
M  V30 2578 C 252.981 1.46027 4.98971 0
M  V30 2579 C 250.666 0.769028 4.96378 0
M  V30 2580 C 252.66 2.49216 5.8666 0
M  V30 2581 C 250.347 1.80421 5.83859 0
M  V30 2582 C 251.345 2.66417 6.28897 0
M  V30 2583 O 251.033 3.68159 7.14643 0
M  V30 2584 H 250.765 -0.0157455 0.675817 0
M  V30 2585 H 253.319 0.602495 1.96365 0
M  V30 2586 H 251.549 -1.33432 3.6295 0
M  V30 2587 H 253.238 -1.0368 3.92435 0
M  V30 2588 H 254.004 1.33429 4.66285 0
M  V30 2589 H 249.883 0.109273 4.6087 0
M  V30 2590 H 253.427 3.16372 6.21735 0
M  V30 2591 H 249.324 1.93042 6.15959 0
M  V30 2592 H 250.092 3.64622 7.32798 0
M  V30 2593 N 252.755 -1.56801 0.158532 0
M  V30 2594 C 254.001 -1.96781 -0.490405 0
M  V30 2595 C 254.334 -1.04397 -1.63753 0
M  V30 2596 O 253.609 -0.0885805 -1.94298 0
M  V30 2597 C 253.892 -3.4635 -0.985594 0
M  V30 2598 C 253.745 -4.49512 0.160824 0
M  V30 2599 C 255.064 -3.98697 -1.86355 0
M  V30 2600 H 252.183 -0.715482 -0.176788 0
M  V30 2601 H 254.825 -1.88451 0.242088 0
M  V30 2602 H 252.975 -3.53579 -1.60978 0
M  V30 2603 H 254.647 -4.54353 0.797537 0
M  V30 2604 H 252.89 -4.26013 0.818256 0
M  V30 2605 H 253.561 -5.51531 -0.227569 0
M  V30 2606 H 256.037 -3.94019 -1.33746 0
M  V30 2607 H 254.913 -5.03792 -2.17909 0
M  V30 2608 H 255.174 -3.41744 -2.8047 0
M  V30 2609 N 254.233 0.115231 -1.57178 0
M  V30 2610 C 255.163 1.1423 -2.03651 0
M  V30 2611 C 256.144 1.42967 -0.921655 0
M  V30 2612 O 257.329 1.53343 -1.19162 0
M  V30 2613 C 254.459 2.4675 -2.44401 0
M  V30 2614 C 253.413 2.32467 -3.59365 0
M  V30 2615 C 252.739 3.69984 -3.86026 0
M  V30 2616 C 254.039 1.78203 -4.90959 0
M  V30 2617 H 255.733 0.755749 -2.89705 0
M  V30 2618 H 253.279 0.362093 -1.39373 0
M  V30 2619 H 255.232 3.18854 -2.75517 0
M  V30 2620 H 253.956 2.87302 -1.55322 0
M  V30 2621 H 252.615 1.62811 -3.28463 0
M  V30 2622 H 252.263 4.08028 -2.94147 0
M  V30 2623 H 251.963 3.61279 -4.63412 0
M  V30 2624 H 253.487 4.43587 -4.19599 0
M  V30 2625 H 254.901 2.40128 -5.20587 0
M  V30 2626 H 253.298 1.8031 -5.72371 0
M  V30 2627 H 254.368 0.739876 -4.79222 0
M  V30 2628 N 255.711 1.52812 0.385517 0
M  V30 2629 C 256.661 1.74219 1.47078 0
M  V30 2630 C 257.645 0.59632 1.49442 0
M  V30 2631 O 258.837 0.85428 1.5502 0
M  V30 2632 C 255.966 1.9176 2.84751 0
M  V30 2633 C 255.052 3.12289 2.86943 0
M  V30 2634 N 255.443 4.34575 2.58802 0
M  V30 2635 C 253.741 3.12605 3.1811 0
M  V30 2636 C 254.442 5.162 2.68166 0
M  V30 2637 N 253.418 4.51964 3.02043 0
M  V30 2638 H 257.22 2.6639 1.24152 0
M  V30 2639 H 254.734 1.51166 0.593504 0
M  V30 2640 H 256.731 2.05218 3.62893 0
M  V30 2641 H 255.391 1.00805 3.08656 0
M  V30 2642 H 256.402 4.62649 2.32759 0
M  V30 2643 H 253.079 2.31472 3.47458 0
M  V30 2644 H 254.469 6.23689 2.49923 0
M  V30 2645 N 257.189 -0.644168 1.43834 0
M  V30 2646 C 258.605 -0.960875 1.27434 0
M  V30 2647 C 258.805 -2.00499 0.200618 0
M  V30 2648 O 257.861 -2.49018 -0.417906 0
M  V30 2649 C 259.174 -1.43653 2.64167 0
M  V30 2650 C 260.722 -1.55271 2.71772 0
M  V30 2651 C 261.197 -2.06224 4.08944 0
M  V30 2652 N 262.688 -2.13513 4.11055 0
M  V30 2653 C 263.423 -2.54081 5.14033 0
M  V30 2654 N 262.919 -2.9388 6.27381 0
M  V30 2655 N 264.712 -2.54101 5.01387 0
M  V30 2656 H 256.863 0.0465779 2.12349 0
M  V30 2657 H 259.126 -0.0417638 0.94708 0
M  V30 2658 H 258.832 -0.743706 3.43747 0
M  V30 2659 H 258.706 -2.40993 2.90176 0
M  V30 2660 H 261.093 -2.23653 1.92519 0
M  V30 2661 H 261.174 -0.563395 2.49519 0
M  V30 2662 H 260.818 -1.38441 4.88668 0
M  V30 2663 H 260.748 -3.06003 4.28567 0
M  V30 2664 H 263.239 -1.85493 3.29242 0
M  V30 2665 H 263.552 -3.2361 7.01781 0
M  V30 2666 H 261.897 -2.91663 6.30839 0
M  V30 2667 H 265.088 -2.22391 4.11898 0
M  V30 2668 H 265.261 -2.85394 5.81768 0
M  V30 2669 N 258.668 -1.30515 -0.883378 0
M  V30 2670 C 259.616 -1.16941 -2.01066 0
M  V30 2671 C 260.61 -0.0809148 -1.69207 0
M  V30 2672 O 261.816 -0.241877 -1.78367 0
M  V30 2673 H 258.191 -0.361705 -0.659298 0
M  V30 2674 H 260.162 -2.12344 -2.09649 0
M  V30 2675 C 258.911 -0.879694 -3.36388 0
M  V30 2676 H 258.234 -1.70936 -3.61415 0
M  V30 2677 H 259.674 -0.82483 -4.159 0
M  V30 2678 C 258.133 0.417409 -3.34304 0
M  V30 2679 O 258.663 1.43843 -3.75063 0
M  V30 2680 N 256.869 0.429141 -2.87414 0
M  V30 2681 H 256.416 -0.402222 -2.5444 0
M  V30 2682 H 256.374 1.29696 -2.86403 0
M  V30 2683 N 260.146 1.09593 -1.13257 0
M  V30 2684 C 261.093 2.1618 -0.808381 0
M  V30 2685 C 262.063 1.64517 0.228754 0
M  V30 2686 O 263.248 1.9053 0.101381 0
M  V30 2687 C 260.388 3.43973 -0.278675 0
M  V30 2688 C 259.501 4.09545 -1.37466 0
M  V30 2689 C 258.636 5.25088 -0.803479 0
M  V30 2690 C 257.675 5.82579 -1.87799 0
M  V30 2691 N 256.812 6.89486 -1.32488 0
M  V30 2692 H 261.652 2.43254 -1.72138 0
M  V30 2693 H 259.189 1.19392 -0.859294 0
M  V30 2694 H 261.147 4.17174 0.0465583 0
M  V30 2695 H 259.777 3.17223 0.597459 0
M  V30 2696 H 258.829 3.34226 -1.81652 0
M  V30 2697 H 260.141 4.48307 -2.18684 0
M  V30 2698 H 259.295 6.05178 -0.429427 0
M  V30 2699 H 258.034 4.87684 0.0397956 0
M  V30 2700 H 257.039 5.01152 -2.26113 0
M  V30 2701 H 258.264 6.22045 -2.72463 0
M  V30 2702 H 256.21 6.54064 -0.503575 0
M  V30 2703 H 256.127 7.27007 -2.07355 0
M  V30 2704 H 257.395 7.73336 -0.978336 0
M  V30 2705 N 261.624 0.925811 1.2754 0
M  V30 2706 C 263.04 0.625767 1.46821 0
M  V30 2707 C 263.24 -0.825506 1.83814 0
M  V30 2708 O 262.296 -1.60356 1.95044 0
M  V30 2709 C 263.609 1.57402 2.56213 0
M  V30 2710 C 265.157 1.58204 2.70075 0
M  V30 2711 C 265.632 2.51721 3.82623 0
M  V30 2712 N 267.123 2.49917 3.89994 0
M  V30 2713 C 267.858 3.18968 4.76494 0
M  V30 2714 N 267.354 3.97391 5.67496 0
M  V30 2715 N 269.147 3.07996 4.70208 0
M  V30 2716 H 261.298 1.86409 1.01811 0
M  V30 2717 H 263.561 0.800213 0.508295 0
M  V30 2718 H 263.267 2.60925 2.35819 0
M  V30 2719 H 263.141 1.31428 3.53563 0
M  V30 2720 H 265.528 0.554124 2.89851 0
M  V30 2721 H 265.609 1.88226 1.73218 0
M  V30 2722 H 265.253 3.54622 3.63601 0
M  V30 2723 H 265.183 2.18996 4.78903 0
M  V30 2724 H 267.674 1.9296 3.24923 0
M  V30 2725 H 267.987 4.4707 6.30356 0
M  V30 2726 H 266.332 4.01495 5.67298 0
M  V30 2727 H 269.523 2.46223 3.9811 0
M  V30 2728 H 269.696 3.6208 5.37403 0
M  V30 2729 N 263.102 -1.41638 0.69111 0
M  V30 2730 C 264.33 -2.05628 0.22909 0
M  V30 2731 C 264.745 -1.51992 -1.11999 0
M  V30 2732 O 264.102 -0.666322 -1.69901 0
M  V30 2733 C 264.153 -3.61084 0.173283 0
M  V30 2734 O 263.874 -4.12735 1.46907 0
M  V30 2735 C 265.375 -4.42213 -0.310266 0
M  V30 2736 H 262.595 -0.662327 0.107534 0
M  V30 2737 H 265.139 -1.81489 0.942438 0
M  V30 2738 H 263.294 -3.84278 -0.490858 0
M  V30 2739 H 263.708 -5.06743 1.35322 0
M  V30 2740 H 265.182 -5.51194 -0.298196 0
M  V30 2741 H 265.659 -4.1799 -1.34838 0
M  V30 2742 H 266.265 -4.24074 0.322716 0
M  V30 2743 N 264.58 -0.43555 -1.51462 0
M  V30 2744 C 265.82 0.130708 -2.03982 0
M  V30 2745 C 266.184 1.40117 -1.31268 0
M  V30 2746 O 267.385 2.04755 -1.74152 0
M  V30 2747 C 265.656 0.346102 -3.5572 0
M  V30 2748 S 267.215 0.876022 -4.29967 0
M  V30 2749 H 264.033 0.0326881 -0.710248 0
M  V30 2750 H 266.635 -0.594544 -1.8624 0
M  V30 2751 H 265.339 -0.584911 -4.0621 0
M  V30 2752 H 264.87 1.09849 -3.77752 0
M  V30 2753 H 266.885 2.15379 -4.47019 0
M  V30 2754 N 266.058 1.56714 -0.166846 0
M  V30 2755 C 267.283 2.01557 0.488833 0
M  V30 2756 C 267.708 1.0463 1.56314 0
M  V30 2757 O 267.066 0.0251304 1.81283 0
M  V30 2758 C 267.114 3.4503 1.04818 0
M  V30 2759 O 266.218 3.51163 2.16236 0
M  V30 2760 H 265.559 0.653516 0.117526 0
M  V30 2761 H 268.089 2.02818 -0.269421 0
M  V30 2762 H 268.099 3.84243 1.37191 0
M  V30 2763 H 266.774 4.15077 0.261572 0
M  V30 2764 H 265.351 3.23807 1.84942 0
M  V30 2765 N 267.536 -0.106894 1.57237 0
M  V30 2766 C 268.499 -1.11466 2.0027 0
M  V30 2767 C 269.499 -1.33623 0.894519 0
M  V30 2768 O 270.689 -1.29935 1.16028 0
M  V30 2769 C 267.821 -2.46646 2.35327 0
M  V30 2770 H 269.014 -0.744516 2.90512 0
M  V30 2771 H 266.567 -0.351576 1.52295 0
M  V30 2772 H 267.302 -2.88558 1.48003 0
M  V30 2773 H 267.087 -2.31915 3.16161 0
M  V30 2774 H 268.577 -3.19151 2.69318 0
M  V30 2775 N 269.014 -1.53014 -0.377408 0
M  V30 2776 C 269.944 -1.81589 -1.46791 0
M  V30 2777 C 270.925 -0.668622 -1.56408 0
M  V30 2778 O 272.11 -0.917337 -1.71168 0
M  V30 2779 C 269.24 -1.99519 -2.8427 0
M  V30 2780 C 268.194 -3.15249 -2.89486 0
M  V30 2781 C 267.52 -3.18451 -4.29527 0
M  V30 2782 C 268.82 -4.54084 -2.58079 0
M  V30 2783 H 270.514 -2.7291 -1.23127 0
M  V30 2784 H 268.06 -1.31319 -0.590883 0
M  V30 2785 H 270.013 -2.18092 -3.60575 0
M  V30 2786 H 268.737 -1.04897 -3.09296 0
M  V30 2787 H 267.396 -2.96477 -2.15631 0
M  V30 2788 H 267.044 -2.2149 -4.5161 0
M  V30 2789 H 266.744 -3.962 -4.33934 0
M  V30 2790 H 268.268 -3.39193 -5.07721 0
M  V30 2791 H 269.682 -4.72899 -3.24098 0
M  V30 2792 H 268.079 -5.33987 -2.7382 0
M  V30 2793 H 269.149 -4.60006 -1.53372 0
M  V30 2794 N 270.492 0.636531 -1.44174 0
M  V30 2795 C 271.732 1.40781 -1.48189 0
M  V30 2796 C 272.096 1.91688 -0.10944 0
M  V30 2797 O 273.297 2.68789 -0.0242741 0
M  V30 2798 C 271.568 2.54575 -2.50851 0
M  V30 2799 S 273.127 3.4284 -2.73873 0
M  V30 2800 H 269.945 0.480345 -0.524204 0
M  V30 2801 H 272.547 0.737416 -1.81059 0
M  V30 2802 H 271.251 2.15478 -3.49281 0
M  V30 2803 H 270.782 3.26447 -2.19536 0
M  V30 2804 H 272.797 4.51846 -2.05059 0
M  V30 2805 N 271.97 1.30982 0.876444 0
M  V30 2806 C 273.195 1.23373 1.66715 0
M  V30 2807 C 273.62 -0.19885 1.87046 0
M  V30 2808 O 272.978 -1.1427 1.40756 0
M  V30 2809 C 273.026 1.97644 3.01611 0
M  V30 2810 O 272.13 1.30935 3.91062 0
M  V30 2811 H 271.471 0.426279 0.509099 0
M  V30 2812 H 274.001 1.72944 1.09323 0
M  V30 2813 H 274.011 2.06992 3.51594 0
M  V30 2814 H 272.686 3.01829 2.86133 0
M  V30 2815 H 271.263 1.29996 3.49507 0
M  V30 2816 N 273.449 -1.08991 1.13837 0
M  V30 2817 C 274.697 -1.80899 0.901098 0
M  V30 2818 C 275.018 -1.86356 -0.574134 0
M  V30 2819 O 274.288 -1.35235 -1.41733 0
M  V30 2820 H 272.868 -0.669966 0.330386 0
M  V30 2821 H 275.53 -1.318 1.43578 0
M  V30 2822 H 274.626 -2.83929 1.29578 0
M  V30 2823 N 274.927 -0.932562 -1.27047 0
M  V30 2824 C 275.859 -0.392734 -2.2581 0
M  V30 2825 C 276.872 0.479241 -1.55586 0
M  V30 2826 O 278.061 0.291078 -1.76111 0
M  V30 2827 C 275.161 0.455456 -3.35826 0
M  V30 2828 C 274.334 -0.398355 -4.35582 0
M  V30 2829 C 273.393 0.387985 -5.24768 0
M  V30 2830 O 272.419 -0.206003 -5.68827 0
M  V30 2831 N 273.621 1.68664 -5.55457 0
M  V30 2832 H 276.386 -1.24173 -2.72766 0
M  V30 2833 H 273.947 -0.800511 -1.40725 0
M  V30 2834 H 275.939 0.988692 -3.92437 0
M  V30 2835 H 274.509 1.20522 -2.88432 0
M  V30 2836 H 273.729 -1.11286 -3.78165 0
M  V30 2837 H 275.017 -0.981889 -4.99236 0
M  V30 2838 H 274.415 2.19147 -5.21528 0
M  V30 2839 H 272.972 2.1663 -6.14748 0
M  V30 2840 N 276.405 1.4127 -0.698611 0
M  V30 2841 C 277.651 2.01478 -0.231207 0
M  V30 2842 C 277.984 1.55215 1.16713 0
M  V30 2843 O 277.259 0.764672 1.78838 0
M  V30 2844 C 277.542 3.58912 -0.292281 0
M  V30 2845 C 277.395 4.15293 -1.72778 0
M  V30 2846 C 278.714 4.38736 0.346194 0
M  V30 2847 H 275.833 0.732025 -0.0854878 0
M  V30 2848 H 278.475 1.67977 -0.887906 0
M  V30 2849 H 276.625 3.87582 0.26686 0
M  V30 2850 H 278.297 3.97486 -2.341 0
M  V30 2851 H 276.54 3.7022 -2.26096 0
M  V30 2852 H 277.211 5.24452 -1.72202 0
M  V30 2853 H 279.687 4.15897 -0.130035 0
M  V30 2854 H 278.563 5.48221 0.272932 0
M  V30 2855 H 278.824 4.18425 1.42734 0
M  V30 2856 N 277.883 0.443576 1.51229 0
M  V30 2857 C 279.13 -0.120796 2.02139 0
M  V30 2858 C 279.458 -1.42166 1.32736 0
M  V30 2859 O 278.713 -1.90849 0.43301 0
M  V30 2860 C 279.012 -0.380579 3.55368 0
M  V30 2861 C 278.678 0.83523 4.43097 0
M  V30 2862 C 277.34 1.16864 4.66794 0
M  V30 2863 C 279.692 1.64601 4.94526 0
M  V30 2864 C 277.02 2.31339 5.39165 0
M  V30 2865 C 279.372 2.78181 5.68153 0
M  V30 2866 C 278.036 3.11969 5.90112 0
M  V30 2867 H 277.306 -0.0442023 0.73968 0
M  V30 2868 H 279.953 0.592046 1.82118 0
M  V30 2869 H 278.258 -1.17538 3.73754 0
M  V30 2870 H 279.955 -0.830777 3.923 0
M  V30 2871 H 276.545 0.565437 4.24854 0
M  V30 2872 H 280.729 1.40163 4.76097 0
M  V30 2873 H 275.985 2.57823 5.5438 0
M  V30 2874 H 280.159 3.41371 6.06992 0
M  V30 2875 H 277.786 4.00784 6.45969 0
M  V30 2876 N 279.361 -1.56624 0.175154 0
M  V30 2877 C 280.589 -2.01374 -0.474971 0
M  V30 2878 C 281.004 -1.05537 -1.56548 0
M  V30 2879 O 280.361 -0.0568668 -1.82411 0
M  V30 2880 C 280.412 -3.45923 -1.04975 0
M  V30 2881 O 280.133 -4.381 -0.00276605 0
M  V30 2882 C 281.634 -4.06093 -1.77773 0
M  V30 2883 H 278.854 -0.659962 -0.121206 0
M  V30 2884 H 281.398 -2.02601 0.27801 0
M  V30 2885 H 279.553 -3.45458 -1.75321 0
M  V30 2886 H 279.967 -5.22753 -0.427681 0
M  V30 2887 H 281.441 -5.09147 -2.13245 0
M  V30 2888 H 281.918 -3.48405 -2.67414 0
M  V30 2889 H 282.524 -4.10272 -1.12059 0
M  V30 2890 N 280.839 0.0985539 -1.57292 0
M  V30 2891 C 281.771 1.14595 -1.98496 0
M  V30 2892 C 282.784 1.36512 -0.887031 0
M  V30 2893 O 283.973 1.35225 -1.16518 0
M  V30 2894 C 281.073 2.50216 -2.28572 0
M  V30 2895 C 280.246 2.48624 -3.59868 0
M  V30 2896 C 279.305 3.66146 -3.7792 0
M  V30 2897 O 278.331 3.48795 -4.49812 0
M  V30 2898 N 279.533 4.85496 -3.18235 0
M  V30 2899 H 282.298 0.795277 -2.88956 0
M  V30 2900 H 279.859 0.287579 -1.59325 0
M  V30 2901 H 281.851 3.27432 -2.37845 0
M  V30 2902 H 280.421 2.77387 -1.44136 0
M  V30 2903 H 279.641 1.56978 -3.61596 0
M  V30 2904 H 280.929 2.44635 -4.46129 0
M  V30 2905 H 280.327 5.02497 -2.59833 0
M  V30 2906 H 278.884 5.60317 -3.32999 0
M  V30 2907 N 282.317 1.53212 0.369288 0
M  V30 2908 C 283.733 1.42902 0.710712 0
M  V30 2909 C 283.933 0.565135 1.93413 0
M  V30 2910 O 282.989 0.0461484 2.52458 0
M  V30 2911 C 284.302 2.86042 0.927382 0
M  V30 2912 C 285.85 2.9565 1.02762 0
M  V30 2913 C 286.325 4.39843 1.27679 0
M  V30 2914 N 287.816 4.43256 1.34457 0
M  V30 2915 C 288.551 5.51929 1.55439 0
M  V30 2916 N 288.047 6.70655 1.73762 0
M  V30 2917 N 289.84 5.39502 1.57779 0
M  V30 2918 H 281.991 2.07888 -0.435457 0
M  V30 2919 H 284.254 0.938661 -0.132739 0
M  V30 2920 H 283.96 3.51557 0.100287 0
M  V30 2921 H 283.834 3.29472 1.83653 0
M  V30 2922 H 286.221 2.30291 1.84527 0
M  V30 2923 H 286.302 2.5562 0.0959504 0
M  V30 2924 H 285.946 5.05774 0.464175 0
M  V30 2925 H 285.876 4.77443 2.22162 0
M  V30 2926 H 288.367 3.5769 1.21926 0
M  V30 2927 H 288.68 7.49248 1.89335 0
M  V30 2928 H 287.025 6.73648 1.70948 0
M  V30 2929 H 290.216 4.45713 1.43029 0
M  V30 2930 H 290.389 6.2426 1.7379 0
M  V30 2931 N 283.795 -0.628877 1.44509 0
M  V30 2932 C 285.02 -1.42048 1.5112 0
M  V30 2933 C 285.445 -1.87594 0.137818 0
M  V30 2934 O 284.803 -1.58873 -0.873437 0
M  V30 2935 C 284.851 -2.61541 2.48251 0
M  V30 2936 O 283.955 -3.61453 1.98559 0
M  V30 2937 H 283.296 -0.424942 0.510216 0
M  V30 2938 H 285.826 -0.767374 1.89664 0
M  V30 2939 H 285.836 -3.09057 2.66361 0
M  V30 2940 H 284.511 -2.27736 3.48007 0
M  V30 2941 H 283.088 -3.20731 1.90227 0
M  V30 2942 N 285.273 -1.31445 -0.869486 0
M  V30 2943 C 286.521 -1.20918 -1.61936 0
M  V30 2944 C 286.842 0.232683 -1.93607 0
M  V30 2945 O 286.112 1.15352 -1.58338 0
M  V30 2946 H 284.692 -0.44454 -0.600328 0
M  V30 2947 H 287.354 -1.64776 -1.0409 0
M  V30 2948 H 286.45 -1.78124 -2.56278 0
M  V30 2949 N 286.751 1.08385 -1.14413 0
M  V30 2950 C 287.661 2.18856 -0.844951 0
M  V30 2951 C 288.677 1.73121 0.174668 0
M  V30 2952 O 289.853 2.014 0.00312857 0
M  V30 2953 C 286.918 3.45155 -0.32696 0
M  V30 2954 C 285.979 4.05513 -1.40916 0
M  V30 2955 C 285.212 5.25784 -0.915793 0
M  V30 2956 O 285.435 5.69884 0.242651 0
M  V30 2957 O 284.369 5.77545 -1.69487 0
M  V30 2958 H 288.195 2.46919 -1.76818 0
M  V30 2959 H 285.78 1.17524 -0.922411 0
M  V30 2960 H 287.662 4.21377 -0.0440211 0
M  V30 2961 H 286.337 3.18668 0.568539 0
M  V30 2962 H 285.244 3.30879 -1.74556 0
M  V30 2963 H 286.577 4.3625 -2.27919 0
M  V30 2964 N 288.23 0.939286 1.26551 0
M  V30 2965 C 289.16 0.465044 2.28822 0
M  V30 2966 C 290.141 -0.480692 1.63167 0
M  V30 2967 O 291.326 -0.382955 1.90387 0
M  V30 2968 C 288.456 -0.27234 3.46231 0
M  V30 2969 C 287.41 0.58666 4.2396 0
M  V30 2970 C 286.736 -0.280573 5.33963 0
M  V30 2971 C 288.036 1.85704 4.88171 0
M  V30 2972 H 289.73 1.31979 2.68741 0
M  V30 2973 H 287.276 0.636061 1.29191 0
M  V30 2974 H 289.229 -0.615133 4.16886 0
M  V30 2975 H 287.953 -1.16121 3.0526 0
M  V30 2976 H 286.612 0.91232 3.55067 0
M  V30 2977 H 286.26 -1.16874 4.89234 0
M  V30 2978 H 285.96 0.29076 5.8688 0
M  V30 2979 H 287.484 -0.618678 6.07458 0
M  V30 2980 H 288.898 1.58161 5.51052 0
M  V30 2981 H 287.295 2.37279 5.51197 0
M  V30 2982 H 288.365 2.56957 4.11219 0
M  V30 2983 N 289.708 -1.40897 0.706093 0
M  V30 2984 C 290.933 -2.05895 0.249435 0
M  V30 2985 C 291.358 -1.52823 -1.09666 0
M  V30 2986 O 290.716 -0.659589 -1.68876 0
M  V30 2987 C 290.764 -3.59872 0.22904 0
M  V30 2988 O 289.868 -4.04708 -0.792784 0
M  V30 2989 H 289.209 -0.653206 0.119241 0
M  V30 2990 H 291.739 -1.80471 0.96391 0
M  V30 2991 H 291.749 -4.07951 0.0634791 0
M  V30 2992 H 290.424 -3.97866 1.21141 0
M  V30 2993 H 289.001 -3.68111 -0.59572 0
M  V30 2994 N 291.186 -0.45159 -1.50991 0
M  V30 2995 C 292.411 0.110667 -2.07105 0
M  V30 2996 C 292.836 1.3446 -1.31538 0
M  V30 2997 O 292.194 1.77743 -0.357365 0
M  V30 2998 C 292.242 0.397238 -3.58405 0
M  V30 2999 O 291.346 1.48124 -3.84881 0
M  V30 3000 H 290.687 -0.00439271 -0.663985 0
M  V30 3001 H 293.217 -0.637026 -1.9443 0
M  V30 3002 H 293.227 0.64351 -4.02893 0
M  V30 3003 H 291.902 -0.504553 -4.12828 0
M  V30 3004 H 290.479 1.22381 -3.52246 0
M  V30 3005 N 292.664 1.56529 -0.183458 0
M  V30 3006 C 294.075 1.83739 0.331177 0
M  V30 3007 C 294.426 1.10373 1.62211 0
M  V30 3008 O 293.551 0.36071 2.13373 0
M  V30 3009 C 294.146 3.33306 0.607646 0
M  V30 3010 C 292.705 3.60969 1.06668 0
M  V30 3011 C 291.852 2.77086 0.109029 0
M  V30 3012 H 294.803 1.53379 -0.407484 0
M  V30 3013 H 294.824 3.51444 1.45832 0
M  V30 3014 H 294.336 3.86677 -0.332086 0
M  V30 3015 H 292.437 3.13021 2.0211 0
M  V30 3016 H 292.55 4.69231 0.967447 0
M  V30 3017 H 290.914 2.47319 0.608714 0
M  V30 3018 H 291.697 3.33241 -0.82494 0
M  V30 3019 N 294.142 -0.090211 1.57342 0
M  V30 3020 C 295.052 -1.12735 2.05738 0
M  V30 3021 C 296.068 -1.43557 0.983231 0
M  V30 3022 O 297.244 -1.54101 1.29672 0
M  V30 3023 C 294.309 -2.42659 2.47624 0
M  V30 3024 C 293.37 -2.18975 3.69254 0
M  V30 3025 C 292.603 -3.42704 4.09133 0
M  V30 3026 O 292.826 -4.51127 3.49057 0
M  V30 3027 O 291.76 -3.32003 5.02053 0
M  V30 3028 H 295.586 -0.746279 2.94388 0
M  V30 3029 H 293.171 -0.303064 1.46294 0
M  V30 3030 H 295.053 -3.19155 2.7517 0
M  V30 3031 H 293.728 -2.80182 1.62109 0
M  V30 3032 H 292.635 -1.40244 3.46818 0
M  V30 3033 H 293.968 -1.86342 4.55563 0
M  V30 3034 N 295.62 -1.53406 -0.361157 0
M  V30 3035 C 296.85 -1.73465 -1.1222 0
M  V30 3036 C 297.258 -0.465486 -1.83384 0
M  V30 3037 O 296.601 0.571611 -1.7458 0
M  V30 3038 C 296.663 -2.84834 -2.19339 0
M  V30 3039 C 296.327 -4.25038 -1.67903 0
M  V30 3040 C 297.324 -5.07231 -1.14074 0
M  V30 3041 C 295.009 -4.71464 -1.73282 0
M  V30 3042 C 297.003 -6.33942 -0.663068 0
M  V30 3043 C 294.69 -5.98153 -1.25127 0
M  V30 3044 C 295.688 -6.79223 -0.717296 0
M  V30 3045 O 295.376 -8.03533 -0.242865 0
M  V30 3046 H 295.108 -0.583526 -0.341283 0
M  V30 3047 H 297.662 -2.00964 -0.424591 0
M  V30 3048 H 295.892 -2.5282 -2.92607 0
M  V30 3049 H 297.581 -2.9303 -2.80871 0
M  V30 3050 H 298.347 -4.72534 -1.09254 0
M  V30 3051 H 294.226 -4.08432 -2.13786 0
M  V30 3052 H 297.77 -6.97167 -0.245612 0
M  V30 3053 H 293.667 -6.32347 -1.29642 0
M  V30 3054 H 294.435 -8.177 -0.361786 0
M  V30 3055 N 297.098 0.621204 -1.44841 0
M  V30 3056 C 298.509 1.20298 -1.42777 0
M  V30 3057 C 298.86 1.95639 -0.148259 0
M  V30 3058 O 297.985 2.02955 0.750892 0
M  V30 3059 C 298.58 2.1882 -2.58657 0
M  V30 3060 C 297.139 2.72403 -2.59756 0
M  V30 3061 C 296.286 1.4757 -2.34773 0
M  V30 3062 H 299.237 0.411297 -1.53278 0
M  V30 3063 H 299.258 3.01607 -2.31977 0
M  V30 3064 H 298.77 1.63957 -3.51766 0
M  V30 3065 H 296.871 3.31242 -1.70615 0
M  V30 3066 H 296.984 3.17765 -3.58556 0
M  V30 3067 H 295.348 1.76051 -1.8406 0
M  V30 3068 H 296.131 0.945954 -3.3001 0
M  V30 3069 N 298.576 1.31904 0.862503 0
M  V30 3070 C 299.992 1.10724 1.14945 0
M  V30 3071 C 300.192 -0.117421 2.01158 0
M  V30 3072 O 299.248 -0.804595 2.39338 0
M  V30 3073 C 300.561 2.38267 1.83437 0
M  V30 3074 C 302.109 2.43949 1.96106 0
M  V30 3075 C 302.584 3.71394 2.68013 0
M  V30 3076 N 304.075 3.72331 2.75543 0
M  V30 3077 C 304.81 4.67641 3.31812 0
M  V30 3078 N 304.306 5.73313 3.88953 0
M  V30 3079 N 306.099 4.5515 3.29841 0
M  V30 3080 H 298.25 2.10436 0.288191 0
M  V30 3081 H 300.513 0.928705 0.190292 0
M  V30 3082 H 300.219 3.27759 1.27542 0
M  V30 3083 H 300.093 2.48633 2.83657 0
M  V30 3084 H 302.48 1.54922 2.51164 0
M  V30 3085 H 302.561 2.37543 0.949059 0
M  V30 3086 H 302.205 4.60791 2.13621 0
M  V30 3087 H 302.135 3.75069 3.69636 0
M  V30 3088 H 304.626 2.95947 2.34997 0
M  V30 3089 H 304.939 6.42107 4.30022 0
M  V30 3090 H 303.284 5.77077 3.87308 0
M  V30 3091 H 306.475 3.71766 2.84443 0
M  V30 3092 H 306.648 5.29604 3.73394 0
M  V30 3093 N 300.054 -1.07777 1.14986 0
M  V30 3094 C 301.465 -1.61766 0.932127 0
M  V30 3095 C 301.816 -1.88974 -0.527581 0
M  V30 3096 O 300.941 -1.65198 -1.39781 0
M  V30 3097 C 301.536 -2.93891 1.68563 0
M  V30 3098 C 300.095 -3.44639 1.5133 0
M  V30 3099 C 299.242 -2.18767 1.704 0
M  V30 3100 H 302.193 -0.909201 1.30074 0
M  V30 3101 H 302.214 -3.62623 1.15259 0
M  V30 3102 H 301.726 -2.74057 2.74799 0
M  V30 3103 H 299.827 -3.69564 0.474702 0
M  V30 3104 H 299.94 -4.20966 2.28746 0
M  V30 3105 H 298.304 -2.28253 1.13016 0
M  V30 3106 H 299.087 -2.01433 2.77992 0
M  V30 3107 N 301.532 -0.945985 -1.26051 0
M  V30 3108 C 302.762 -0.612136 -1.97323 0
M  V30 3109 C 303.17 0.818171 -1.70595 0
M  V30 3110 O 302.513 1.55777 -0.973613 0
M  V30 3111 C 302.575 -0.780347 -3.50929 0
M  V30 3112 C 302.239 -2.18619 -4.01317 0
M  V30 3113 C 303.236 -3.16209 -4.12683 0
M  V30 3114 C 300.921 -2.50805 -4.35203 0
M  V30 3115 C 302.915 -4.44085 -4.57238 0
M  V30 3116 C 300.602 -3.78912 -4.79446 0
M  V30 3117 C 301.6 -4.75365 -4.90425 0
M  V30 3118 O 301.288 -6.01191 -5.3369 0
M  V30 3119 H 301.02 -0.229134 -0.635982 0
M  V30 3120 H 303.574 -1.27036 -1.61404 0
M  V30 3121 H 301.804 -0.0649864 -3.86645 0
M  V30 3122 H 303.493 -0.448842 -4.03411 0
M  V30 3123 H 304.259 -2.92668 -3.86744 0
M  V30 3124 H 300.138 -1.76463 -4.2589 0
M  V30 3125 H 303.682 -5.19373 -4.65723 0
M  V30 3126 H 299.579 -4.02265 -5.0483 0
M  V30 3127 H 300.347 -6.04442 -5.51899 0
M  V30 3128 N 303.011 1.40521 -0.713556 0
M  V30 3129 C 304.422 1.83853 -0.324807 0
M  V30 3130 C 304.773 1.59667 1.14021 0
M  V30 3131 O 303.898 1.07649 1.87725 0
M  V30 3132 C 304.493 3.33751 -0.582746 0
M  V30 3133 C 303.052 3.75584 -0.247727 0
M  V30 3134 C 302.199 2.63753 -0.856121 0
M  V30 3135 H 305.15 1.29817 -0.91286 0
M  V30 3136 H 305.171 3.80194 0.152682 0
M  V30 3137 H 304.683 3.51322 -1.64908 0
M  V30 3138 H 302.784 3.63608 0.813624 0
M  V30 3139 H 302.897 4.7373 -0.715307 0
M  V30 3140 H 301.261 2.53108 -0.28432 0
M  V30 3141 H 302.044 2.84137 -1.92668 0
M  V30 3142 N 304.489 0.459591 1.5075 0
M  V30 3143 C 305.436 -0.340524 2.28274 0
M  V30 3144 C 306.406 -0.997371 1.32822 0
M  V30 3145 O 307.591 -1.01202 1.61749 0
M  V30 3146 C 304.731 -1.42317 3.14388 0
M  V30 3147 C 303.844 -0.782251 4.24859 0
M  V30 3148 C 302.979 -1.84182 4.98247 0
M  V30 3149 C 302.018 -1.18053 6.00608 0
M  V30 3150 N 301.155 -2.18244 6.67319 0
M  V30 3151 H 305.995 0.326899 2.96202 0
M  V30 3152 H 303.532 0.173057 1.46078 0
M  V30 3153 H 305.49 -2.06241 3.62658 0
M  V30 3154 H 304.12 -2.05992 2.4853 0
M  V30 3155 H 303.172 -0.0307404 3.80388 0
M  V30 3156 H 304.484 -0.259663 4.98124 0
M  V30 3157 H 303.638 -2.55714 5.50177 0
M  V30 3158 H 302.377 -2.39819 4.24662 0
M  V30 3159 H 301.382 -0.450776 5.47949 0
M  V30 3160 H 302.607 -0.631202 6.7616 0
M  V30 3161 H 300.553 -2.72919 5.96533 0
M  V30 3162 H 300.47 -1.70938 7.36421 0
M  V30 3163 H 301.738 -2.89191 7.23871 0
M  V30 3164 N 305.967 -1.56429 0.191757 0
M  V30 3165 C 306.897 -2.21937 -0.725696 0
M  V30 3166 C 307.878 -1.1814 -1.2238 0
M  V30 3167 O 309.063 -1.46636 -1.27325 0
M  V30 3168 C 306.193 -2.87611 -1.94672 0
M  V30 3169 C 305.147 -3.97623 -1.58366 0
M  V30 3170 C 304.473 -4.50446 -2.88102 0
M  V30 3171 C 305.773 -5.16197 -0.796133 0
M  V30 3172 H 307.467 -2.98861 -0.179606 0
M  V30 3173 H 305.013 -1.43749 -0.0849464 0
M  V30 3174 H 306.966 -3.3212 -2.59373 0
M  V30 3175 H 305.69 -2.08087 -2.51728 0
M  V30 3176 H 304.349 -3.53801 -0.960247 0
M  V30 3177 H 303.997 -3.67688 -3.43241 0
M  V30 3178 H 303.697 -5.24675 -2.64556 0
M  V30 3179 H 305.221 -4.97654 -3.53798 0
M  V30 3180 H 306.635 -5.57271 -1.34618 0
M  V30 3181 H 305.032 -5.96471 -0.658928 0
M  V30 3182 H 306.102 -4.84473 0.203478 0
M  V30 3183 N 307.445 0.0818655 -1.57387 0
M  V30 3184 C 308.67 0.799946 -1.91352 0
M  V30 3185 C 309.095 1.70833 -0.787258 0
M  V30 3186 O 308.453 1.79419 0.26048 0
M  V30 3187 C 308.501 1.57812 -3.24234 0
M  V30 3188 O 307.605 2.68806 -3.12757 0
M  V30 3189 H 306.946 0.21891 -0.626877 0
M  V30 3190 H 309.476 0.0531256 -2.04531 0
M  V30 3191 H 309.486 1.95952 -3.57864 0
M  V30 3192 H 308.161 0.911548 -4.05788 0
M  V30 3193 H 306.738 2.33597 -2.90666 0
M  V30 3194 N 308.923 1.53595 0.353017 0
M  V30 3195 C 310.148 1.7462 1.11904 0
M  V30 3196 C 310.573 0.479721 1.8188 0
M  V30 3197 O 309.931 -0.567066 1.72204 0
M  V30 3198 C 309.979 2.92029 2.11545 0
M  V30 3199 O 309.083 2.61516 3.18878 0
M  V30 3200 H 308.424 0.579531 0.324099 0
M  V30 3201 H 310.954 2.00525 0.406301 0
M  V30 3202 H 310.964 3.18551 2.5493 0
M  V30 3203 H 309.639 3.83888 1.60008 0
M  V30 3204 H 308.216 2.45852 2.80377 0
M  V30 3205 N 310.401 -0.613514 1.45168 0
M  V30 3206 C 311.641 -1.38405 1.5041 0
M  V30 3207 C 312.005 -1.91489 0.139922 0
M  V30 3208 O 313.206 -2.68716 0.067033 0
M  V30 3209 C 311.477 -2.50552 2.5487 0
M  V30 3210 S 313.036 -3.38439 2.79292 0
M  V30 3211 H 309.854 -0.471945 0.531779 0
M  V30 3212 H 312.456 -0.708518 1.82209 0
M  V30 3213 H 311.16 -2.09894 3.52665 0
M  V30 3214 H 310.691 -3.22913 2.24701 0
M  V30 3215 H 312.706 -4.48527 2.12222 0
M  V30 3216 N 311.879 -1.3236 -0.855495 0
M  V30 3217 C 313.107 -1.2587 -1.64208 0
M  V30 3218 C 313.522 0.173457 -1.88002 0
M  V30 3219 O 312.879 1.11027 -1.44842 0
M  V30 3220 C 312.93 -2.01424 -3.00184 0
M  V30 3221 O 312.651 -3.39051 -2.77445 0
M  V30 3222 C 314.152 -2.01948 -3.94629 0
M  V30 3223 H 311.372 -0.434318 -0.511477 0
M  V30 3224 H 313.916 -1.74469 -1.0668 0
M  V30 3225 H 312.071 -1.56549 -3.5436 0
M  V30 3226 H 312.485 -3.77711 -3.63916 0
M  V30 3227 H 313.959 -2.59297 -4.87308 0
M  V30 3228 H 314.436 -1.00554 -4.27534 0
M  V30 3229 H 315.042 -2.46767 -3.4639 0
M  V30 3230 N 313.357 1.07166 -1.15556 0
M  V30 3231 C 314.587 1.83248 -0.954133 0
M  V30 3232 C 314.995 1.82449 0.500911 0
M  V30 3233 O 314.338 1.23575 1.35923 0
M  V30 3234 C 314.4 3.31393 -1.39351 0
M  V30 3235 C 314.064 3.5591 -2.86666 0
M  V30 3236 C 315.061 3.49695 -3.8472 0
M  V30 3237 C 312.746 3.83515 -3.24379 0
M  V30 3238 C 314.74 3.70737 -5.18491 0
M  V30 3239 C 312.427 4.04209 -4.58321 0
M  V30 3240 C 313.425 3.97815 -5.55186 0
M  V30 3241 O 313.113 4.17954 -6.86709 0
M  V30 3242 H 312.845 0.584941 -0.338851 0
M  V30 3243 H 315.399 1.36169 -1.53777 0
M  V30 3244 H 313.629 3.79292 -0.75329 0
M  V30 3245 H 315.318 3.88945 -1.16089 0
M  V30 3246 H 316.084 3.28368 -3.56931 0
M  V30 3247 H 311.963 3.87605 -2.49567 0
M  V30 3248 H 315.507 3.65663 -5.94085 0
M  V30 3249 H 311.404 4.25023 -4.85825 0
M  V30 3250 H 312.172 4.35291 -6.93155 0
M  V30 3251 N 314.835 0.952656 1.25548 0
M  V30 3252 C 316.06 0.623025 1.97821 0
M  V30 3253 C 316.485 -0.7976 1.70352 0
M  V30 3254 O 315.843 -1.53905 0.958283 0
M  V30 3255 C 315.891 0.885532 3.49558 0
M  V30 3256 O 314.995 -0.0366641 4.12384 0
M  V30 3257 H 314.336 0.237082 0.620232 0
M  V30 3258 H 316.866 1.27871 1.59719 0
M  V30 3259 H 316.876 0.811009 3.99858 0
M  V30 3260 H 315.551 1.92094 3.6888 0
M  V30 3261 H 314.128 0.0898954 3.72792 0
M  V30 3262 N 316.313 -1.40141 0.720998 0
M  V30 3263 C 317.562 -2.0002 0.259804 0
M  V30 3264 C 317.875 -1.57839 -1.15526 0
M  V30 3265 O 319.081 -2.10455 -1.71525 0
M  V30 3266 C 317.537 -3.57516 0.413566 0
M  V30 3267 C 317.145 -4.08667 1.83562 0
M  V30 3268 C 318.889 -4.24498 0.0134387 0
M  V30 3269 C 316.796 -5.58686 1.93968 0
M  V30 3270 H 315.726 -0.748195 0.0933806 0
M  V30 3271 H 318.377 -1.60313 0.892866 0
M  V30 3272 H 316.759 -3.9495 -0.288169 0
M  V30 3273 H 317.933 -3.82598 2.56817 0
M  V30 3274 H 316.248 -3.543 2.1877 0
M  V30 3275 H 318.845 -5.34654 0.0703954 0
M  V30 3276 H 319.188 -4.03375 -1.02927 0
M  V30 3277 H 319.721 -3.92188 0.665815 0
M  V30 3278 H 316.46 -5.8467 2.96379 0
M  V30 3279 H 315.98 -5.86602 1.25131 0
M  V30 3280 H 317.659 -6.23875 1.71431 0
M  V30 3281 N 317.792 -0.46758 -1.50504 0
M  V30 3282 C 319.017 0.0886943 -2.0721 0
M  V30 3283 C 319.442 1.33057 -1.32956 0
M  V30 3284 O 318.8 1.77354 -0.376197 0
M  V30 3285 C 318.848 0.359202 -3.58806 0
M  V30 3286 O 317.952 1.44034 -3.8643 0
M  V30 3287 H 317.293 -0.0114349 -0.663902 0
M  V30 3288 H 319.823 -0.657613 -1.93744 0
M  V30 3289 H 319.833 0.600742 -4.03553 0
M  V30 3290 H 318.508 -0.548311 -4.1227 0
M  V30 3291 H 317.085 1.18638 -3.53524 0
M  V30 3292 N 319.27 1.56325 -0.20005 0
M  V30 3293 C 320.2 2.22318 0.713916 0
M  V30 3294 C 321.181 1.18788 1.21752 0
M  V30 3295 O 322.366 1.47309 1.26545 0
M  V30 3296 C 319.496 2.88639 1.93144 0
M  V30 3297 C 318.45 3.98457 1.56255 0
M  V30 3298 C 317.776 4.51967 2.85709 0
M  V30 3299 C 319.076 5.16612 0.768747 0
M  V30 3300 H 320.77 2.98952 0.163755 0
M  V30 3301 H 318.316 1.43792 0.0773219 0
M  V30 3302 H 320.269 3.33491 2.57608 0
M  V30 3303 H 318.993 2.09419 2.50621 0
M  V30 3304 H 317.652 3.54305 0.941471 0
M  V30 3305 H 317.3 3.69503 3.41287 0
M  V30 3306 H 317 5.26071 2.6177 0
M  V30 3307 H 318.524 4.99523 3.51154 0
M  V30 3308 H 319.938 5.57977 1.3166 0
M  V30 3309 H 318.335 5.96812 0.627286 0
M  V30 3310 H 319.405 4.84358 -0.229168 0
M  V30 3311 N 320.748 -0.0735177 1.57428 0
M  V30 3312 C 321.658 -1.10547 2.06922 0
M  V30 3313 C 322.674 -1.42506 0.998402 0
M  V30 3314 O 323.85 -1.52717 1.31299 0
M  V30 3315 C 320.915 -2.40019 2.50184 0
M  V30 3316 C 319.976 -2.15046 3.71556 0
M  V30 3317 C 319.209 -3.38345 4.12745 0
M  V30 3318 O 319.432 -4.47399 3.53822 0
M  V30 3319 O 318.366 -3.2666 5.05546 0
M  V30 3320 H 322.192 -0.715013 2.95163 0
M  V30 3321 H 319.777 -0.287531 1.46607 0
M  V30 3322 H 321.659 -3.16218 2.78539 0
M  V30 3323 H 320.334 -2.78447 1.65072 0
M  V30 3324 H 319.241 -1.36558 3.48285 0
M  V30 3325 H 320.574 -1.81499 4.57514 0
M  V30 3326 N 322.226 -1.5378 -0.344866 0
M  V30 3327 C 323.136 -1.84667 -1.4469 0
M  V30 3328 C 324.152 -0.736704 -1.57635 0
M  V30 3329 O 325.328 -1.02888 -1.73136 0
M  V30 3330 C 322.393 -2.04869 -2.79696 0
M  V30 3331 C 321.454 -3.28731 -2.76106 0
M  V30 3332 C 320.687 -3.4796 -4.04673 0
M  V30 3333 O 320.91 -2.71052 -5.01883 0
M  V30 3334 O 319.844 -4.41383 -4.09224 0
M  V30 3335 H 323.67 -2.78334 -1.21506 0
M  V30 3336 H 321.255 -1.39418 -0.536921 0
M  V30 3337 H 323.137 -2.19609 -3.59652 0
M  V30 3338 H 321.812 -1.14391 -3.02814 0
M  V30 3339 H 320.719 -3.19396 -1.94774 0
M  V30 3340 H 322.052 -4.19198 -2.57941 0
M  V30 3341 N 323.704 0.605807 -1.45491 0
M  V30 3342 C 324.952 1.36207 -1.49305 0
M  V30 3343 C 325.273 1.94519 -0.136863 0
M  V30 3344 O 324.543 1.77261 0.833983 0
M  V30 3345 H 323.123 0.50565 -0.549843 0
M  V30 3346 H 325.785 0.711239 -1.81459 0
M  V30 3347 H 324.881 2.18058 -2.23287 0
M  V30 3348 N 325.182 1.32811 0.848464 0
M  V30 3349 C 326.429 1.23724 1.60308 0
M  V30 3350 C 326.757 -0.1994 1.93475 0
M  V30 3351 O 326.012 -1.15406 1.5805 0
M  V30 3352 C 326.311 2.04831 2.92881 0
M  V30 3353 C 325.977 3.54125 2.79117 0
M  V30 3354 C 324.639 3.94829 2.7507 0
M  V30 3355 C 326.991 4.49036 2.64606 0
M  V30 3356 C 324.319 5.28675 2.544 0
M  V30 3357 C 326.671 5.83033 2.4547 0
M  V30 3358 C 325.335 6.22931 2.39819 0
M  V30 3359 H 324.605 0.452737 0.586609 0
M  V30 3360 H 327.252 1.64301 0.983743 0
M  V30 3361 H 325.557 1.57001 3.58968 0
M  V30 3362 H 327.254 1.95164 3.50303 0
M  V30 3363 H 323.844 3.21801 2.83094 0
M  V30 3364 H 328.028 4.18505 2.66772 0
M  V30 3365 H 323.284 5.58637 2.48465 0
M  V30 3366 H 327.458 6.56186 2.33222 0
M  V30 3367 H 325.085 7.26584 2.23562 0
M  V30 3368 N 326.66 -1.06551 1.16123 0
M  V30 3369 C 327.885 -1.83544 0.965735 0
M  V30 3370 C 328.31 -1.81843 -0.481102 0
M  V30 3371 O 327.668 -1.21732 -1.34354 0
M  V30 3372 C 327.716 -3.28169 1.49457 0
M  V30 3373 O 326.82 -4.0643 0.699157 0
M  V30 3374 H 326.161 -0.568026 0.343864 0
M  V30 3375 H 328.691 -1.34362 1.54299 0
M  V30 3376 H 328.701 -3.78992 1.51092 0
M  V30 3377 H 327.376 -3.28722 2.54784 0
M  V30 3378 H 325.953 -3.65216 0.7531 0
M  V30 3379 N 328.138 -0.959301 -1.25041 0
M  V30 3380 C 329.384 -0.617525 -1.9317 0
M  V30 3381 C 329.717 0.843981 -1.74902 0
M  V30 3382 O 328.992 1.60615 -1.09696 0
M  V30 3383 C 329.275 -0.982736 -3.46431 0
M  V30 3384 C 329.128 -2.50032 -3.73904 0
M  V30 3385 C 330.447 -0.511176 -4.37121 0
M  V30 3386 H 327.566 -0.22582 -0.701552 0
M  V30 3387 H 330.208 -1.19679 -1.4757 0
M  V30 3388 H 328.358 -0.489806 -3.854 0
M  V30 3389 H 330.03 -3.06737 -3.44544 0
M  V30 3390 H 328.273 -2.93598 -3.19348 0
M  V30 3391 H 328.944 -2.70635 -4.81103 0
M  V30 3392 H 331.42 -0.934075 -4.0548 0
M  V30 3393 H 330.296 -0.795361 -5.43107 0
M  V30 3394 H 330.557 0.588834 -4.38161 0
M  V30 3395 N 329.616 1.39756 -0.72842 0
M  V30 3396 C 330.865 1.99879 -0.270407 0
M  V30 3397 C 331.178 1.58449 1.14688 0
M  V30 3398 O 332.384 2.11362 1.70407 0
M  V30 3399 C 330.84 3.57292 -0.43252 0
M  V30 3400 C 330.448 4.07688 -1.85727 0
M  V30 3401 C 332.192 4.24485 -0.0359507 0
M  V30 3402 C 330.099 5.5765 -1.96928 0
M  V30 3403 H 329.029 0.747689 -0.0973472 0
M  V30 3404 H 331.68 1.59837 -0.901355 0
M  V30 3405 H 330.062 3.95097 0.267219 0
M  V30 3406 H 331.236 3.81231 -2.58843 0
M  V30 3407 H 329.551 3.53135 -2.20646 0
M  V30 3408 H 332.148 5.34609 -0.0987484 0
M  V30 3409 H 332.491 4.03915 1.00787 0
M  V30 3410 H 333.024 3.9183 -0.686604 0
M  V30 3411 H 329.763 5.8309 -2.99476 0
M  V30 3412 H 329.283 5.8593 -1.28241 0
M  V30 3413 H 330.962 6.22957 -1.74737 0
M  V30 3414 N 331.094 0.475555 1.50254 0
M  V30 3415 C 332.024 -0.30611 2.31485 0
M  V30 3416 C 333.005 -0.986228 1.38591 0
M  V30 3417 O 334.19 -0.982541 1.67511 0
M  V30 3418 C 331.32 -1.38588 3.1845 0
M  V30 3419 C 330.274 -0.827115 4.19932 0
M  V30 3420 C 329.6 -2.00551 4.95665 0
M  V30 3421 C 330.9 0.16463 5.2204 0
M  V30 3422 H 332.594 0.371866 2.97082 0
M  V30 3423 H 330.14 0.180282 1.42867 0
M  V30 3424 H 332.093 -1.94023 3.74076 0
M  V30 3425 H 330.817 -2.09269 2.50747 0
M  V30 3426 H 329.476 -0.294702 3.65414 0
M  V30 3427 H 329.124 -2.6994 4.2443 0
M  V30 3428 H 328.824 -1.63784 5.64313 0
M  V30 3429 H 330.348 -2.56468 5.54127 0
M  V30 3430 H 331.762 -0.300699 5.72511 0
M  V30 3431 H 330.159 0.446813 5.98434 0
M  V30 3432 H 331.229 1.08905 4.72512 0
M  V30 3433 N 332.573 -1.56217 0.208337 0
M  V30 3434 C 333.85 -1.89739 -0.475234 0
M  V30 3435 C 334.23 -1.1238 -1.78701 0
M  V30 3436 O 333.578 -0.228979 -2.2735 0
M  V30 3437 C 333.788 -3.42289 -0.681101 0
M  V30 3438 C 335.136 -4.12789 -0.994507 0
M  V30 3439 O 336.16 -3.47814 -0.768357 0
M  V30 3440 O 335.019 -5.27649 -1.42299 0
M  V30 3441 H 332.113 -0.788478 -0.249461 0
M  V30 3442 H 334.659 -1.67855 0.249538 0
M  V30 3443 H 333.431 -3.90534 0.244722 0
M  V30 3444 H 333.054 -3.69909 -1.45785 0
M  V30 3445 N 334.051 0.0651679 -1.57465 0
M  V30 3446 C 335.298 0.763063 -1.87573 0
M  V30 3447 C 335.626 1.77242 -0.800961 0
M  V30 3448 O 334.881 1.94651 0.202316 0
M  V30 3449 C 335.18 1.50081 -3.24362 0
M  V30 3450 C 334.846 0.630816 -4.46466 0
M  V30 3451 C 333.508 0.391082 -4.79608 0
M  V30 3452 C 335.86 0.0279465 -5.21193 0
M  V30 3453 C 333.188 -0.460894 -5.84887 0
M  V30 3454 C 335.54 -0.811522 -6.27373 0
M  V30 3455 C 334.204 -1.06106 -6.59013 0
M  V30 3456 H 333.474 0.279224 -0.686378 0
M  V30 3457 H 336.121 0.0236726 -1.91485 0
M  V30 3458 H 334.426 2.31258 -3.16271 0
M  V30 3459 H 336.123 2.04571 -3.44894 0
M  V30 3460 H 332.713 0.8278 -4.2053 0
M  V30 3461 H 336.897 0.200262 -4.95896 0
M  V30 3462 H 332.153 -0.662907 -6.07796 0
M  V30 3463 H 336.327 -1.28537 -6.84435 0
M  V30 3464 H 333.954 -1.723 -7.40417 0
M  V30 3465 N 335.529 1.53961 0.336706 0
M  V30 3466 C 336.775 1.7179 1.07777 0
M  V30 3467 C 337.108 0.483263 1.88091 0
M  V30 3468 O 336.383 -0.519747 1.87427 0
M  V30 3469 C 336.666 2.98558 2.01334 0
M  V30 3470 C 336.519 4.32245 1.24437 0
M  V30 3471 C 337.838 3.21023 3.01052 0
M  V30 3472 H 334.957 0.625089 0.390426 0
M  V30 3473 H 337.599 1.86641 0.35567 0
M  V30 3474 H 335.749 2.86028 2.62908 0
M  V30 3475 H 337.421 4.56637 0.654243 0
M  V30 3476 H 335.664 4.30344 0.546458 0
M  V30 3477 H 336.335 5.17137 1.93063 0
M  V30 3478 H 338.811 3.32929 2.49595 0
M  V30 3479 H 337.687 4.11104 3.6371 0
M  V30 3480 H 337.948 2.37637 3.72802 0
M  V30 3481 N 337.007 -0.598083 1.45811 0
M  V30 3482 C 337.917 -1.73632 1.57763 0
M  V30 3483 C 338.933 -1.67763 0.461676 0
M  V30 3484 O 340.109 -1.87949 0.723685 0
M  V30 3485 C 337.174 -3.10114 1.55018 0
M  V30 3486 C 336.235 -3.27364 2.77726 0
M  V30 3487 C 335.468 -4.57334 2.75102 0
M  V30 3488 O 335.691 -5.40258 1.8297 0
M  V30 3489 O 334.625 -4.77502 3.66437 0
M  V30 3490 H 338.451 -1.66498 2.53992 0
M  V30 3491 H 336.036 -0.763308 1.28429 0
M  V30 3492 H 337.918 -3.9141 1.56129 0
M  V30 3493 H 336.593 -3.17718 0.619431 0
M  V30 3494 H 335.5 -2.45619 2.82174 0
M  V30 3495 H 336.833 -3.24641 3.69958 0
M  V30 3496 N 338.485 -1.33259 -0.841409 0
M  V30 3497 C 339.71 -1.2775 -1.63385 0
M  V30 3498 C 340.135 0.149188 -1.87507 0
M  V30 3499 O 339.493 1.10498 -1.43736 0
M  V30 3500 C 339.541 -2.05571 -2.96265 0
M  V30 3501 O 338.645 -1.41257 -3.87453 0
M  V30 3502 H 337.986 -0.439627 -0.497618 0
M  V30 3503 H 340.516 -1.75782 -1.04699 0
M  V30 3504 H 340.526 -2.16241 -3.45982 0
M  V30 3505 H 339.201 -3.09309 -2.7803 0
M  V30 3506 H 337.778 -1.39217 -3.45938 0
M  V30 3507 N 339.963 1.05934 -1.16686 0
M  V30 3508 C 341.21 1.788 -0.950622 0
M  V30 3509 C 341.538 1.87384 0.521305 0
M  V30 3510 O 340.793 1.36438 1.40297 0
M  V30 3511 C 341.092 3.23105 -1.52767 0
M  V30 3512 C 340.758 3.34594 -3.02254 0
M  V30 3513 C 339.42 3.37437 -3.43059 0
M  V30 3514 C 341.772 3.36219 -3.98254 0
M  V30 3515 C 339.1 3.39525 -4.78477 0
M  V30 3516 C 341.452 3.39845 -5.33562 0
M  V30 3517 C 340.116 3.40971 -5.73842 0
M  V30 3518 H 339.386 0.654275 -0.347857 0
M  V30 3519 H 342.033 1.24555 -1.45459 0
M  V30 3520 H 340.338 3.80227 -0.94524 0
M  V30 3521 H 342.035 3.7809 -1.336 0
M  V30 3522 H 338.625 3.3309 -2.6972 0
M  V30 3523 H 342.809 3.33231 -3.67792 0
M  V30 3524 H 338.065 3.38703 -5.09009 0
M  V30 3525 H 342.239 3.4005 -6.07733 0
M  V30 3526 H 339.866 3.42342 -6.78753 0
M  V30 3527 N 341.441 0.965919 1.2453 0
M  V30 3528 C 342.718 0.543777 1.87889 0
M  V30 3529 C 343.098 -0.97909 1.87021 0
M  V30 3530 O 342.446 -1.84969 1.3416 0
M  V30 3531 C 342.656 1.13327 3.30088 0
M  V30 3532 C 344.004 1.21707 4.06783 0
M  V30 3533 O 345.028 1.08566 3.39252 0
M  V30 3534 O 343.887 1.42456 5.27606 0
M  V30 3535 H 340.981 0.181054 0.806938 0
M  V30 3536 H 343.527 1.06007 1.32516 0
M  V30 3537 H 342.299 2.17612 3.25209 0
M  V30 3538 H 341.922 0.600911 3.93033 0
M  V30 3539 N 342.919 -1.39368 0.735821 0
M  V30 3540 C 344.165 -2.00794 0.284544 0
M  V30 3541 C 344.498 -1.58255 -1.12557 0
M  V30 3542 O 343.773 -0.811819 -1.76748 0
M  V30 3543 C 344.056 -3.58011 0.387337 0
M  V30 3544 C 343.909 -4.10566 1.83728 0
M  V30 3545 C 345.228 -4.395 -0.22975 0
M  V30 3546 H 342.347 -0.729501 0.104866 0
M  V30 3547 H 344.989 -1.65564 0.93213 0
M  V30 3548 H 343.139 -3.88154 -0.164006 0
M  V30 3549 H 344.811 -3.91139 2.44556 0
M  V30 3550 H 343.054 -3.64095 2.35833 0
M  V30 3551 H 343.725 -5.19702 1.86047 0
M  V30 3552 H 346.201 -4.15406 0.240257 0
M  V30 3553 H 345.077 -5.48752 -0.127485 0
M  V30 3554 H 345.338 -4.22062 -1.3159 0
M  V30 3555 N 344.397 -0.483516 -1.5 0
M  V30 3556 C 345.307 0.309172 -2.32554 0
M  V30 3557 C 346.323 0.984159 -1.43493 0
M  V30 3558 O 347.499 0.969399 -1.76535 0
M  V30 3559 C 344.564 1.36979 -3.18493 0
M  V30 3560 C 343.625 0.710095 -4.23387 0
M  V30 3561 C 342.858 1.72018 -5.05218 0
M  V30 3562 O 343.081 2.94813 -4.88305 0
M  V30 3563 O 342.015 1.28515 -5.8802 0
M  V30 3564 H 345.841 -0.366064 -3.01486 0
M  V30 3565 H 343.426 -0.24514 -1.47375 0
M  V30 3566 H 345.308 1.98385 -3.71781 0
M  V30 3567 H 343.983 2.02828 -2.52275 0
M  V30 3568 H 342.89 0.0567539 -3.74057 0
M  V30 3569 H 344.223 0.0943557 -4.9211 0
M  V30 3570 N 345.875 1.56104 -0.216619 0
M  V30 3571 C 347.103 2.02563 0.421413 0
M  V30 3572 C 347.518 1.0965 1.53695 0
M  V30 3573 O 346.875 0.10521 1.82196 0
M  V30 3574 C 346.926 3.48584 0.957665 0
M  V30 3575 O 346.647 4.37953 -0.113389 0
M  V30 3576 C 348.148 4.10664 1.66943 0
M  V30 3577 H 345.368 0.662944 0.103665 0
M  V30 3578 H 347.912 2.01793 -0.331629 0
M  V30 3579 H 346.067 3.49985 1.661 0
M  V30 3580 H 346.481 5.23704 0.288932 0
M  V30 3581 H 347.955 5.14622 1.99671 0
M  V30 3582 H 348.432 3.55373 2.58083 0
M  V30 3583 H 349.038 4.13098 1.01142 0
M  V30 3584 N 347.353 -0.0568162 1.57498 0
M  V30 3585 C 348.303 -1.07315 2.01166 0
M  V30 3586 C 349.287 -1.33632 0.896171 0
M  V30 3587 O 350.479 -1.33682 1.16009 0
M  V30 3588 C 347.608 -2.38257 2.47161 0
M  V30 3589 C 346.694 -2.1515 3.65474 0
M  V30 3590 N 347.085 -1.62014 4.7915 0
M  V30 3591 C 345.383 -2.45559 3.72313 0
M  V30 3592 C 346.084 -1.54069 5.60926 0
M  V30 3593 N 345.06 -2.00652 5.05213 0
M  V30 3594 H 348.862 -0.655878 2.86488 0
M  V30 3595 H 346.376 -0.263635 1.60246 0
M  V30 3596 H 348.373 -3.11845 2.76691 0
M  V30 3597 H 347.033 -2.80687 1.63232 0
M  V30 3598 H 348.044 -1.30667 5.01145 0
M  V30 3599 H 344.721 -2.91253 2.99129 0
M  V30 3600 H 346.111 -1.13712 6.62208 0
M  V30 3601 N 348.832 -1.54138 -0.328536 0
M  V30 3602 C 350.243 -1.63395 -0.903272 0
M  V30 3603 C 350.594 -0.524828 -1.8905 0
M  V30 3604 O 349.719 0.343068 -2.13663 0
M  V30 3605 C 350.314 -2.9618 -1.64507 0
M  V30 3606 C 348.873 -3.0765 -2.1686 0
M  V30 3607 C 348.02 -2.58933 -0.992416 0
M  V30 3608 H 350.971 -1.58344 -0.106253 0
M  V30 3609 H 350.992 -2.86061 -2.50897 0
M  V30 3610 H 350.504 -3.76884 -0.926302 0
M  V30 3611 H 348.605 -2.31611 -2.91868 0
M  V30 3612 H 348.718 -4.1337 -2.42202 0
M  V30 3613 H 347.082 -2.14706 -1.37016 0
M  V30 3614 H 347.865 -3.42089 -0.288041 0
M  V30 3615 N 350.31 0.590341 -1.46126 0
M  V30 3616 C 351.22 1.72793 -1.58681 0
M  V30 3617 C 352.236 1.67516 -0.470566 0
M  V30 3618 O 353.412 1.87562 -0.733642 0
M  V30 3619 C 350.477 3.09287 -1.5666 0
M  V30 3620 C 349.538 3.25886 -2.79458 0
M  V30 3621 C 348.771 4.55869 -2.77524 0
M  V30 3622 O 348.994 5.3928 -1.85832 0
M  V30 3623 O 347.928 4.75552 -3.68964 0
M  V30 3624 H 351.754 1.65149 -2.54872 0
M  V30 3625 H 349.339 0.756486 -1.28832 0
M  V30 3626 H 351.221 3.90577 -1.58202 0
M  V30 3627 H 349.896 3.17385 -0.636271 0
M  V30 3628 H 348.803 2.44119 -2.83472 0
M  V30 3629 H 350.136 3.22675 -3.71674 0
M  V30 3630 N 351.788 1.33704 0.83433 0
M  V30 3631 C 353.016 1.28467 1.62185 0
M  V30 3632 C 353.431 -0.143526 1.88254 0
M  V30 3633 O 352.788 -1.08709 1.4659 0
M  V30 3634 C 352.839 2.06174 2.96942 0
M  V30 3635 O 352.56 3.43422 2.72016 0
M  V30 3636 C 354.061 2.08201 3.91366 0
M  V30 3637 H 351.281 0.4424 0.504503 0
M  V30 3638 H 353.825 1.76145 1.03891 0
M  V30 3639 H 351.98 1.62167 3.51825 0
M  V30 3640 H 352.394 3.83453 3.57861 0
M  V30 3641 H 353.868 2.67017 4.83121 0
M  V30 3642 H 354.345 1.07343 4.2588 0
M  V30 3643 H 354.951 2.52246 3.42421 0
M  V30 3644 N 353.266 -1.05314 1.17247 0
M  V30 3645 C 354.196 -2.1498 0.911362 0
M  V30 3646 C 355.177 -1.69471 -0.146169 0
M  V30 3647 O 356.362 -1.942 0.003812 0
M  V30 3648 C 353.492 -3.4472 0.422528 0
M  V30 3649 C 352.446 -4.03789 1.4191 0
M  V30 3650 C 351.772 -5.28858 0.788274 0
M  V30 3651 C 353.072 -4.41418 2.7919 0
M  V30 3652 H 354.766 -2.3708 1.82848 0
M  V30 3653 H 352.312 -1.13938 0.880569 0
M  V30 3654 H 354.265 -4.20787 0.227289 0
M  V30 3655 H 352.989 -3.22269 -0.530123 0
M  V30 3656 H 351.648 -3.2979 1.60106 0
M  V30 3657 H 351.296 -5.02709 -0.171173 0
M  V30 3658 H 350.996 -5.69338 1.45353 0
M  V30 3659 H 352.52 -6.07612 0.603282 0
M  V30 3660 H 353.934 -5.08524 2.64719 0
M  V30 3661 H 352.331 -4.92913 3.42282 0
M  V30 3662 H 353.401 -3.51819 3.33693 0
M  V30 3663 N 354.744 -0.972509 -1.24016 0
M  V30 3664 C 355.984 -0.644951 -1.93958 0
M  V30 3665 C 356.348 0.80559 -1.74282 0
M  V30 3666 O 357.549 1.2436 -2.38302 0
M  V30 3667 C 355.82 -1.01521 -3.42678 0
M  V30 3668 S 357.379 -0.802927 -4.31391 0
M  V30 3669 H 354.197 -0.236452 -0.670531 0
M  V30 3670 H 356.799 -1.25048 -1.50277 0
M  V30 3671 H 355.503 -2.06769 -3.54506 0
M  V30 3672 H 355.034 -0.400648 -3.91355 0
M  V30 3673 H 357.049 0.317256 -4.95185 0
M  V30 3674 N 356.222 1.38976 -0.743202 0
M  V30 3675 C 357.633 1.83123 -0.363732 0
M  V30 3676 C 357.984 1.6205 1.10609 0
M  V30 3677 O 357.109 1.11606 1.854 0
M  V30 3678 C 357.704 3.32439 -0.653408 0
M  V30 3679 C 356.263 3.74974 -0.327338 0
M  V30 3680 C 355.41 2.61878 -0.911875 0
M  V30 3681 H 358.361 1.27852 -0.940191 0
M  V30 3682 H 358.382 3.80432 0.0720031 0
M  V30 3683 H 357.894 3.47745 -1.72323 0
M  V30 3684 H 355.995 3.65252 0.736314 0
M  V30 3685 H 356.108 4.72106 -0.815631 0
M  V30 3686 H 354.472 2.52448 -0.337944 0
M  V30 3687 H 355.255 2.79987 -1.98651 0
M  V30 3688 N 357.7 0.491464 1.49741 0
M  V30 3689 C 358.93 -0.0534375 2.06531 0
M  V30 3690 C 359.338 -1.32233 1.35318 0
M  V30 3691 O 358.681 -1.78781 0.422243 0
M  V30 3692 C 358.743 -0.387034 3.57411 0
M  V30 3693 C 358.407 0.782764 4.50246 0
M  V30 3694 C 359.404 1.67059 4.92329 0
M  V30 3695 C 357.089 0.978866 4.9267 0
M  V30 3696 C 359.083 2.73874 5.75562 0
M  V30 3697 C 356.77 2.05022 5.75682 0
M  V30 3698 C 357.768 2.92851 6.17031 0
M  V30 3699 O 357.456 3.98138 6.98385 0
M  V30 3700 H 357.188 0.0129324 0.675876 0
M  V30 3701 H 359.742 0.685238 1.93633 0
M  V30 3702 H 357.972 -1.17918 3.68283 0
M  V30 3703 H 359.661 -0.869419 3.96479 0
M  V30 3704 H 360.427 1.53086 4.60206 0
M  V30 3705 H 356.306 0.304646 4.59992 0
M  V30 3706 H 359.85 3.42458 6.07757 0
M  V30 3707 H 355.747 2.18993 6.07217 0
M  V30 3708 H 356.515 3.95374 7.16674 0
M  V30 3709 N 359.178 -1.55987 0.224894 0
M  V30 3710 C 360.455 -1.90232 -0.455083 0
M  V30 3711 C 360.835 -1.14269 -1.77499 0
M  V30 3712 O 360.183 -0.253079 -2.27094 0
M  V30 3713 C 360.393 -3.42993 -0.644758 0
M  V30 3714 C 361.741 -4.13821 -0.950669 0
M  V30 3715 O 362.765 -3.4861 -0.731423 0
M  V30 3716 O 361.624 -5.29128 -1.36695 0
M  V30 3717 H 358.718 -0.79108 -0.241084 0
M  V30 3718 H 361.264 -1.67581 0.267327 0
M  V30 3719 H 360.036 -3.90252 0.28613 0
M  V30 3720 H 359.659 -3.71434 -1.41853 0
M  V30 3721 N 360.656 0.0484629 -1.57525 0
M  V30 3722 C 361.903 0.743125 -1.88372 0
M  V30 3723 C 362.231 1.76383 -0.819715 0
M  V30 3724 O 361.486 1.94855 0.181659 0
M  V30 3725 C 361.785 1.46632 -3.25935 0
M  V30 3726 C 361.451 0.583427 -4.4711 0
M  V30 3727 C 360.113 0.340191 -4.79996 0
M  V30 3728 C 362.465 -0.0273345 -5.21193 0
M  V30 3729 C 359.793 -0.522903 -5.84365 0
M  V30 3730 C 362.145 -0.878017 -6.26477 0
M  V30 3731 C 360.809 -1.1309 -6.5785 0
M  V30 3732 H 360.079 0.271929 -0.689301 0
M  V30 3733 H 362.726 0.00336166 -1.915 0
M  V30 3734 H 361.031 2.2789 -3.18706 0
M  V30 3735 H 362.728 2.00902 -3.47044 0
M  V30 3736 H 359.318 0.783151 -4.21384 0
M  V30 3737 H 363.502 0.147654 -4.9608 0
M  V30 3738 H 358.758 -0.727335 -6.07058 0
M  V30 3739 H 362.932 -1.35789 -6.83033 0
M  V30 3740 H 360.559 -1.80144 -7.38547 0
M  V30 3741 N 362.134 1.5431 0.320358 0
M  V30 3742 C 363.064 1.86912 1.3995 0
M  V30 3743 C 364.045 0.726211 1.53819 0
M  V30 3744 O 365.23 0.980233 1.67646 0
M  V30 3745 C 362.36 2.09932 2.7667 0
M  V30 3746 C 361.314 3.25776 2.77586 0
M  V30 3747 C 360.64 3.34173 4.17412 0
M  V30 3748 C 361.94 4.6335 2.41048 0
M  V30 3749 H 363.634 2.77292 1.12914 0
M  V30 3750 H 361.18 1.33421 0.541738 0
M  V30 3751 H 363.133 2.31324 3.52232 0
M  V30 3752 H 361.857 1.16304 3.0519 0
M  V30 3753 H 360.516 3.04276 2.04479 0
M  V30 3754 H 360.164 2.38098 4.43078 0
M  V30 3755 H 359.864 4.12033 4.18931 0
M  V30 3756 H 361.388 3.57803 4.94782 0
M  V30 3757 H 362.802 4.84602 3.06324 0
M  V30 3758 H 361.199 5.43782 2.53813 0
M  V30 3759 H 362.269 4.65381 1.36193 0
M  V30 3760 N 363.613 -0.582584 1.46437 0
M  V30 3761 C 364.56 -1.69164 1.5701 0
M  V30 3762 C 365.53 -1.60847 0.414403 0
M  V30 3763 O 366.715 -1.80058 0.631171 0
M  V30 3764 C 363.855 -3.075 1.56646 0
M  V30 3765 C 362.968 -3.2644 2.82951 0
M  V30 3766 C 362.103 -4.55026 2.7409 0
M  V30 3767 C 361.142 -4.6731 3.95333 0
M  V30 3768 N 360.279 -5.87221 3.84858 0
M  V30 3769 H 365.119 -1.59464 2.51744 0
M  V30 3770 H 362.656 -0.777186 1.24893 0
M  V30 3771 H 364.614 -3.8757 1.5442 0
M  V30 3772 H 363.244 -3.16096 0.654439 0
M  V30 3773 H 362.296 -2.39974 2.95155 0
M  V30 3774 H 363.608 -3.31385 3.72808 0
M  V30 3775 H 362.762 -5.43324 2.6997 0
M  V30 3776 H 361.501 -4.52519 1.81873 0
M  V30 3777 H 360.506 -3.77429 3.99784 0
M  V30 3778 H 361.731 -4.71595 4.88646 0
M  V30 3779 H 359.677 -5.85712 2.95427 0
M  V30 3780 H 359.594 -5.93435 4.6837 0
M  V30 3781 H 360.862 -6.7795 3.84713 0
M  V30 3782 N 365.091 -1.34144 -0.827227 0
M  V30 3783 C 366.34 -1.25602 -1.5782 0
M  V30 3784 C 366.653 0.173445 -1.94829 0
M  V30 3785 O 367.859 0.380984 -2.68814 0
M  V30 3786 C 366.315 -2.20151 -2.84713 0
M  V30 3787 C 365.923 -3.68331 -2.55021 0
M  V30 3788 C 367.667 -2.20508 -3.62735 0
M  V30 3789 C 365.574 -4.54762 -3.78082 0
M  V30 3790 H 364.504 -0.466573 -0.592306 0
M  V30 3791 H 367.155 -1.59283 -0.911116 0
M  V30 3792 H 365.537 -1.79417 -3.53023 0
M  V30 3793 H 366.711 -4.17577 -1.94849 0
M  V30 3794 H 365.026 -3.7038 -1.90283 0
M  V30 3795 H 367.623 -2.82306 -4.54101 0
M  V30 3796 H 367.966 -1.20322 -3.98533 0
M  V30 3797 H 368.499 -2.59664 -3.01362 0
M  V30 3798 H 365.238 -5.55867 -3.47407 0
M  V30 3799 H 364.758 -4.10254 -4.37552 0
M  V30 3800 H 366.437 -4.69153 -4.45538 0
M  V30 3801 N 366.569 1.04691 -1.17803 0
M  V30 3802 C 367.501 2.12571 -0.857097 0
M  V30 3803 C 368.514 1.62174 0.142647 0
M  V30 3804 O 369.703 1.78301 -0.0843387 0
M  V30 3805 C 366.803 3.37915 -0.258216 0
M  V30 3806 C 365.976 4.1757 -1.30207 0
M  V30 3807 C 365.035 5.2125 -0.720029 0
M  V30 3808 O 364.061 5.51888 -1.39314 0
M  V30 3809 N 365.263 5.78466 0.485507 0
M  V30 3810 H 368.028 2.40698 -1.78562 0
M  V30 3811 H 365.589 1.20831 -1.07757 0
M  V30 3812 H 367.581 4.04442 0.144584 0
M  V30 3813 H 366.151 3.07281 0.574199 0
M  V30 3814 H 365.371 3.46458 -1.88043 0
M  V30 3815 H 366.659 4.67586 -2.00601 0
M  V30 3816 H 366.057 5.55866 1.05022 0
M  V30 3817 H 364.614 6.4649 0.830307 0
M  V30 3818 N 368.047 0.979072 1.23499 0
M  V30 3819 C 369.275 0.665202 1.95915 0
M  V30 3820 C 369.69 -0.767571 1.72493 0
M  V30 3821 O 369.047 -1.51635 1.01554 0
M  V30 3822 C 369.098 0.944438 3.48945 0
M  V30 3823 O 368.819 2.3209 3.71572 0
M  V30 3824 C 370.32 0.646336 4.38563 0
M  V30 3825 H 367.54 0.247218 0.623798 0
M  V30 3826 H 370.084 1.31009 1.57025 0
M  V30 3827 H 368.239 0.345575 3.85856 0
M  V30 3828 H 368.653 2.40957 4.65876 0
M  V30 3829 H 370.127 0.892091 5.44744 0
M  V30 3830 H 370.604 -0.419575 4.37191 0
M  V30 3831 H 371.21 1.22562 4.07258 0
M  V30 3832 N 369.525 -1.3858 0.750561 0
M  V30 3833 C 370.802 -1.94231 0.231009 0
M  V30 3834 C 371.182 -1.68611 -1.27018 0
M  V30 3835 O 370.53 -1.02296 -2.04323 0
M  V30 3836 C 370.74 -3.44123 0.581428 0
M  V30 3837 C 372.088 -4.2116 0.539389 0
M  V30 3838 O 373.112 -3.52391 0.519541 0
M  V30 3839 O 371.971 -5.43749 0.54765 0
M  V30 3840 H 369.065 -0.825639 0.0474263 0
M  V30 3841 H 371.611 -1.4799 0.830478 0
M  V30 3842 H 370.383 -3.56267 1.61833 0
M  V30 3843 H 370.006 -3.97573 -0.0462047 0
M  V30 3844 N 371.003 -0.499398 -1.49478 0
M  V30 3845 C 372.419 -0.155261 -1.58843 0
M  V30 3846 C 372.619 1.34008 -1.50479 0
M  V30 3847 O 371.675 2.11589 -1.37791 0
M  V30 3848 C 372.988 -0.730636 -2.91689 0
M  V30 3849 C 374.536 -0.696599 -3.0515 0
M  V30 3850 C 375.011 -1.25001 -4.40612 0
M  V30 3851 N 376.502 -1.21064 -4.47099 0
M  V30 3852 C 377.237 -1.60905 -5.50361 0
M  V30 3853 N 376.733 -2.08331 -6.60735 0
M  V30 3854 N 378.526 -1.52331 -5.41065 0
M  V30 3855 H 370.677 -1.47162 -1.53158 0
M  V30 3856 H 372.94 -0.610309 -0.725415 0
M  V30 3857 H 372.646 -1.77928 -3.03372 0
M  V30 3858 H 372.52 -0.190161 -3.7672 0
M  V30 3859 H 374.907 0.343204 -2.93097 0
M  V30 3860 H 374.988 -1.2742 -2.21806 0
M  V30 3861 H 374.632 -2.28859 -4.53416 0
M  V30 3862 H 374.562 -0.64836 -5.22593 0
M  V30 3863 H 377.053 -0.863128 -3.67911 0
M  V30 3864 H 377.366 -2.36805 -7.35624 0
M  V30 3865 H 375.711 -2.12304 -6.6178 0
M  V30 3866 H 378.902 -1.151 -4.53729 0
M  V30 3867 H 379.075 -1.83704 -6.21415 0
M  V30 3868 N 372.481 1.55866 -0.233164 0
M  V30 3869 C 373.391 2.24431 0.683217 0
M  V30 3870 C 374.407 1.2558 1.2044 0
M  V30 3871 O 375.583 1.58422 1.24356 0
M  V30 3872 C 372.648 2.91979 1.86947 0
M  V30 3873 C 371.709 4.06204 1.38912 0
M  V30 3874 C 370.942 4.70522 2.51883 0
M  V30 3875 O 371.165 4.33865 3.70293 0
M  V30 3876 O 370.099 5.59296 2.22423 0
M  V30 3877 H 373.925 3.03426 0.129059 0
M  V30 3878 H 371.51 1.494 -0.0022283 0
M  V30 3879 H 373.392 3.34573 2.56201 0
M  V30 3880 H 372.067 2.15935 2.41151 0
M  V30 3881 H 370.974 3.68155 0.664259 0
M  V30 3882 H 372.307 4.84025 0.893328 0
M  V30 3883 N 373.959 -0.0401083 1.57549 0
M  V30 3884 C 374.869 -1.06133 2.0922 0
M  V30 3885 C 375.885 -1.40356 1.0284 0
M  V30 3886 O 377.061 -1.49897 1.34509 0
M  V30 3887 C 374.126 -2.34658 2.55218 0
M  V30 3888 C 373.187 -2.07117 3.76033 0
M  V30 3889 C 372.42 -3.29514 4.19829 0
M  V30 3890 O 372.643 -4.39794 3.63232 0
M  V30 3891 O 371.577 -3.15863 5.12362 0
M  V30 3892 H 375.403 -0.652244 2.96613 0
M  V30 3893 H 372.988 -0.256368 1.47184 0
M  V30 3894 H 374.87 -3.10239 2.85184 0
M  V30 3895 H 373.545 -2.74883 1.70941 0
M  V30 3896 H 372.452 -1.29139 3.51104 0
M  V30 3897 H 373.785 -1.71754 4.61261 0
M  V30 3898 N 375.437 -1.54477 -0.31217 0
M  V30 3899 C 376.387 -1.81037 -1.38598 0
M  V30 3900 C 377.371 -0.666941 -1.46426 0
M  V30 3901 O 378.563 -0.927269 -1.50767 0
M  V30 3902 C 375.692 -2.05127 -2.75277 0
M  V30 3903 C 374.778 -3.25624 -2.71716 0
M  V30 3904 N 375.169 -4.46428 -2.37773 0
M  V30 3905 C 373.467 -3.27427 -3.02833 0
M  V30 3906 C 374.168 -5.28406 -2.43232 0
M  V30 3907 N 373.144 -4.6586 -2.80135 0
M  V30 3908 H 376.946 -2.7201 -1.11301 0
M  V30 3909 H 374.46 -1.53826 -0.520705 0
M  V30 3910 H 376.457 -2.22299 -3.52688 0
M  V30 3911 H 375.117 -1.15416 -3.03495 0
M  V30 3912 H 376.128 -4.73227 -2.1042 0
M  V30 3913 H 372.805 -2.47786 -3.36018 0
M  V30 3914 H 374.195 -6.34903 -2.19882 0
M  V30 3915 N 376.915 0.57481 -1.46744 0
M  V30 3916 C 378.163 1.33009 -1.52161 0
M  V30 3917 C 378.484 1.94185 -0.178092 0
M  V30 3918 O 377.754 1.7899 0.796196 0
M  V30 3919 H 376.334 0.493873 -0.560445 0
M  V30 3920 H 378.996 0.672589 -1.82927 0
M  V30 3921 H 378.092 2.13273 -2.27862 0
M  V30 3922 N 378.394 1.34581 0.820102 0
M  V30 3923 C 379.805 1.24298 1.39309 0
M  V30 3924 C 380.156 -0.130351 1.95767 0
M  V30 3925 O 379.281 -1.0308 1.90272 0
M  V30 3926 C 379.876 2.25054 2.53251 0
M  V30 3927 C 378.435 2.18552 3.0645 0
M  V30 3928 C 377.582 2.11503 1.79337 0
M  V30 3929 H 380.533 1.45906 0.624262 0
M  V30 3930 H 380.554 1.86917 3.31425 0
M  V30 3931 H 380.066 3.24996 2.1213 0
M  V30 3932 H 378.167 1.21976 3.52069 0
M  V30 3933 H 378.28 3.0993 3.65349 0
M  V30 3934 H 376.644 1.57268 2.00347 0
M  V30 3935 H 377.427 3.13284 1.40386 0
M  V30 3936 N 379.872 -1.04064 1.18357 0
M  V30 3937 C 381.119 -1.77265 0.978947 0
M  V30 3938 C 381.447 -1.88189 -0.491428 0
M  V30 3939 O 380.702 -1.38653 -1.38108 0
M  V30 3940 C 381.001 -3.20634 1.57888 0
M  V30 3941 C 380.667 -3.29743 3.07539 0
M  V30 3942 C 379.329 -3.31937 3.48384 0
M  V30 3943 C 381.681 -3.29841 4.03552 0
M  V30 3944 C 379.009 -3.3187 4.83818 0
M  V30 3945 C 381.361 -3.31313 5.38901 0
M  V30 3946 C 380.025 -3.31799 5.79194 0
M  V30 3947 H 379.295 -0.648659 0.358222 0
M  V30 3948 H 381.942 -1.22225 1.47422 0
M  V30 3949 H 380.247 -3.78675 1.00561 0
M  V30 3950 H 381.944 -3.75917 1.39598 0
M  V30 3951 H 378.534 -3.28757 2.74986 0
M  V30 3952 H 382.718 -3.27337 3.73047 0
M  V30 3953 H 377.974 -3.30562 5.14333 0
M  V30 3954 H 382.148 -3.30338 6.13066 0
M  V30 3955 H 379.775 -3.315 6.84114 0
M  V30 3956 N 381.35 -0.985608 -1.22978 0
M  V30 3957 C 382.59 -0.665487 -1.93263 0
M  V30 3958 C 382.954 0.78706 -1.75127 0
M  V30 3959 O 384.155 1.21826 -2.39608 0
M  V30 3960 C 382.426 -1.0515 -3.41582 0
M  V30 3961 S 383.985 -0.848637 -4.30516 0
M  V30 3962 H 380.803 -0.24355 -0.667985 0
M  V30 3963 H 383.405 -1.26635 -1.48942 0
M  V30 3964 H 382.109 -2.10517 -3.52293 0
M  V30 3965 H 381.64 -0.442134 -3.90908 0
M  V30 3966 H 383.655 0.264717 -4.95493 0
M  V30 3967 N 382.828 1.3818 -0.7579 0
M  V30 3968 C 384.076 1.99624 -0.315361 0
M  V30 3969 C 384.397 1.60464 1.10799 0
M  V30 3970 O 383.667 0.863507 1.75842 0
M  V30 3971 H 382.247 0.73831 -0.113611 0
M  V30 3972 H 384.909 1.68878 -0.972952 0
M  V30 3973 H 384.005 3.09754 -0.381931 0
M  V30 3974 N 384.306 0.507319 1.49211 0
M  V30 3975 C 385.253 -0.267728 2.29242 0
M  V30 3976 C 386.223 -0.954609 1.35928 0
M  V30 3977 O 387.408 -0.960046 1.64887 0
M  V30 3978 C 384.548 -1.32243 3.18756 0
M  V30 3979 C 383.661 -0.64669 4.27132 0
M  V30 3980 C 382.796 -1.68238 5.03855 0
M  V30 3981 C 381.835 -0.98885 6.0406 0
M  V30 3982 N 380.972 -1.96903 6.73924 0
M  V30 3983 H 385.812 0.420968 2.95012 0
M  V30 3984 H 383.349 0.219443 1.45454 0
M  V30 3985 H 385.307 -1.94599 3.69036 0
M  V30 3986 H 383.937 -1.97981 2.54958 0
M  V30 3987 H 382.989 0.0902926 3.80293 0
M  V30 3988 H 384.301 -0.101058 4.98698 0
M  V30 3989 H 383.455 -2.38081 5.58034 0
M  V30 3990 H 382.194 -2.26187 4.32077 0
M  V30 3991 H 381.199 -0.276222 5.49106 0
M  V30 3992 H 382.424 -0.415767 6.77826 0
M  V30 3993 H 380.37 -2.53803 6.04913 0
M  V30 3994 H 380.287 -1.47423 7.41487 0
M  V30 3995 H 381.555 -2.66015 7.32705 0
M  V30 3996 N 385.784 -1.5574 0.241426 0
M  V30 3997 C 387.012 -2.03208 -0.389134 0
M  V30 3998 C 387.427 -1.12082 -1.51931 0
M  V30 3999 O 386.784 -0.134183 -1.82006 0
M  V30 4000 C 386.835 -3.50064 -0.902087 0
M  V30 4001 O 386.556 -4.37717 0.18305 0
M  V30 4002 C 388.057 -4.13268 -1.60389 0
M  V30 4003 H 385.277 -0.664509 -0.0931053 0
M  V30 4004 H 387.821 -2.0124 0.36369 0
M  V30 4005 H 385.976 -3.52583 -1.60511 0
M  V30 4006 H 386.39 -5.24097 -0.205579 0
M  V30 4007 H 387.864 -5.17733 -1.91458 0
M  V30 4008 H 388.341 -3.59434 -2.52397 0
M  V30 4009 H 388.947 -4.14655 -0.945576 0
M  V30 4010 N 387.262 0.0317525 -1.57568 0
M  V30 4011 C 388.192 1.03274 -2.0942 0
M  V30 4012 C 389.173 1.3788 -0.996143 0
M  V30 4013 O 390.358 1.46811 -1.27122 0
M  V30 4014 C 387.488 2.33448 -2.57137 0
M  V30 4015 C 386.442 2.13091 -3.71182 0
M  V30 4016 C 385.768 3.49001 -4.05095 0
M  V30 4017 C 387.068 1.51928 -4.99715 0
M  V30 4018 H 388.762 0.60112 -2.93303 0
M  V30 4019 H 386.308 0.287705 -1.41097 0
M  V30 4020 H 388.261 3.03802 -2.92032 0
M  V30 4021 H 386.985 2.78665 -1.70333 0
M  V30 4022 H 385.644 1.45171 -3.36632 0
M  V30 4023 H 385.292 3.91862 -3.15362 0
M  V30 4024 H 384.992 3.36207 -4.81911 0
M  V30 4025 H 386.516 4.20721 -4.42522 0
M  V30 4026 H 387.93 2.12196 -5.32584 0
M  V30 4027 H 386.327 1.49716 -5.81124 0
M  V30 4028 H 387.397 0.484811 -4.8247 0
M  V30 4029 N 388.74 1.54641 0.303973 0
M  V30 4030 C 390.151 1.64811 0.877163 0
M  V30 4031 C 390.502 0.554838 1.88191 0
M  V30 4032 O 389.627 -0.309033 2.14182 0
M  V30 4033 C 390.222 2.9876 1.59775 0
M  V30 4034 C 388.781 3.11061 2.11938 0
M  V30 4035 C 387.928 2.60479 0.951097 0
M  V30 4036 H 390.879 1.58493 0.0810486 0
M  V30 4037 H 390.9 2.90017 2.46314 0
M  V30 4038 H 390.412 3.7831 0.866226 0
M  V30 4039 H 388.513 2.36225 2.88146 0
M  V30 4040 H 388.626 4.17171 2.35595 0
M  V30 4041 H 386.99 2.16859 1.33583 0
M  V30 4042 H 387.773 3.42504 0.233581 0
M  V30 4043 N 390.218 -0.567019 1.47046 0
M  V30 4044 C 391.168 -1.67018 1.55207 0
M  V30 4045 C 392.152 -1.55543 0.411714 0
M  V30 4046 O 393.344 -1.64192 0.661064 0
M  V30 4047 C 390.473 -3.05801 1.56014 0
M  V30 4048 C 389.559 -3.22515 2.75399 0
M  V30 4049 N 389.95 -3.09329 4.00186 0
M  V30 4050 C 388.248 -3.53493 2.71954 0
M  V30 4051 C 388.949 -3.2847 4.80086 0
M  V30 4052 N 387.925 -3.54352 4.12233 0
M  V30 4053 H 391.727 -1.55377 2.4947 0
M  V30 4054 H 389.241 -0.771503 1.42904 0
M  V30 4055 H 391.238 -3.84996 1.59949 0
M  V30 4056 H 389.898 -3.18561 0.628396 0
M  V30 4057 H 390.909 -2.86863 4.31196 0
M  V30 4058 H 387.586 -3.7284 1.87873 0
M  V30 4059 H 388.976 -3.23326 5.88991 0
M  V30 4060 N 391.696 -1.35014 -0.812953 0
M  V30 4061 C 393.112 -1.14914 -1.10757 0
M  V30 4062 C 393.312 0.0426818 -2.01455 0
M  V30 4063 O 392.368 0.715212 -2.42159 0
M  V30 4064 C 393.681 -2.44911 -1.74468 0
M  V30 4065 C 395.229 -2.5106 -1.86917 0
M  V30 4066 C 395.704 -3.81085 -2.54044 0
M  V30 4067 N 397.195 -3.82301 -2.61535 0
M  V30 4068 C 397.93 -4.79634 -3.14227 0
M  V30 4069 N 397.426 -5.87353 -3.67407 0
M  V30 4070 N 399.219 -4.67078 -3.12721 0
M  V30 4071 H 391.37 -2.1136 -0.20989 0
M  V30 4072 H 393.633 -0.935128 -0.155692 0
M  V30 4073 H 393.339 -3.32267 -1.15289 0
M  V30 4074 H 393.213 -2.58989 -2.74234 0
M  V30 4075 H 395.6 -1.64137 -2.45241 0
M  V30 4076 H 395.681 -2.40901 -0.860242 0
M  V30 4077 H 395.325 -4.68402 -1.96372 0
M  V30 4078 H 395.255 -3.88529 -3.55461 0
M  V30 4079 H 397.746 -3.04465 -2.23851 0
M  V30 4080 H 398.059 -6.57624 -4.05894 0
M  V30 4081 H 396.404 -5.91054 -3.65623 0
M  V30 4082 H 399.595 -3.82067 -2.70449 0
M  V30 4083 H 399.768 -5.43098 -3.53481 0
M  V30 4084 N 393.175 1.03435 -1.18907 0
M  V30 4085 C 394.424 1.76143 -0.982669 0
M  V30 4086 C 394.737 1.89416 0.487953 0
M  V30 4087 O 395.943 2.59041 0.813036 0
M  V30 4088 C 394.399 3.16722 -1.70924 0
M  V30 4089 C 394.007 3.11522 -3.21959 0
M  V30 4090 C 395.751 3.93764 -1.58588 0
M  V30 4091 C 393.658 4.46999 -3.87228 0
M  V30 4092 H 392.588 0.660292 -0.364047 0
M  V30 4093 H 395.239 1.158 -1.42347 0
M  V30 4094 H 393.621 3.775 -1.19623 0
M  V30 4095 H 394.795 2.60158 -3.80335 0
M  V30 4096 H 393.11 2.47978 -3.34508 0
M  V30 4097 H 395.707 4.93963 -2.04707 0
M  V30 4098 H 396.05 4.12794 -0.539142 0
M  V30 4099 H 396.583 3.39576 -2.07203 0
M  V30 4100 H 393.322 4.33174 -4.91976 0
M  V30 4101 H 392.842 4.98441 -3.33642 0
M  V30 4102 H 394.521 5.15898 -3.90459 0
M  V30 4103 N 394.653 0.992116 1.22453 0
M  V30 4104 C 395.563 0.55065 2.28046 0
M  V30 4105 C 396.579 -0.400189 1.69335 0
M  V30 4106 O 397.755 -0.267215 1.99619 0
M  V30 4107 C 394.82 -0.128496 3.46462 0
M  V30 4108 C 393.881 0.865208 4.20491 0
M  V30 4109 C 393.114 0.218377 5.33253 0
M  V30 4110 O 393.337 -0.987894 5.6178 0
M  V30 4111 O 392.271 0.922845 5.94783 0
M  V30 4112 H 396.097 1.4291 2.67975 0
M  V30 4113 H 393.682 0.760326 1.28606 0
M  V30 4114 H 395.564 -0.508947 4.18315 0
M  V30 4115 H 394.239 -0.981526 3.0846 0
M  V30 4116 H 393.146 1.29658 3.50913 0
M  V30 4117 H 394.479 1.68741 4.62371 0
M  V30 4118 N 396.131 -1.37776 0.765217 0
M  V30 4119 C 397.359 -2.04124 0.337767 0
M  V30 4120 C 397.774 -1.57715 -1.03785 0
M  V30 4121 O 397.131 -0.755447 -1.6613 0
M  V30 4122 C 397.182 -3.59658 0.364442 0
M  V30 4123 O 396.903 -4.04367 1.68579 0
M  V30 4124 C 398.404 -4.43236 -0.0754221 0
M  V30 4125 H 395.624 -0.655696 0.142491 0
M  V30 4126 H 398.168 -1.76238 1.03732 0
M  V30 4127 H 396.323 -3.86339 -0.286471 0
M  V30 4128 H 396.737 -4.98857 1.61993 0
M  V30 4129 H 398.211 -5.52 -0.00560067 0
M  V30 4130 H 398.688 -4.2455 -1.12491 0
M  V30 4131 H 399.294 -4.21767 0.547055 0
M  V30 4132 N 397.609 -0.515225 -1.4894 0
M  V30 4133 C 398.556 0.255567 -2.29381 0
M  V30 4134 C 399.526 0.947387 -1.36432 0
M  V30 4135 O 400.711 0.951288 -1.65394 0
M  V30 4136 C 397.851 1.30551 -3.19453 0
M  V30 4137 C 396.964 0.624029 -4.27469 0
M  V30 4138 C 396.099 1.65563 -5.0474 0
M  V30 4139 C 395.138 0.956802 -6.04576 0
M  V30 4140 N 394.275 1.93326 -6.74959 0
M  V30 4141 H 399.115 -0.436607 -2.94784 0
M  V30 4142 H 396.652 -0.227154 -1.45336 0
M  V30 4143 H 398.61 1.92639 -3.70062 0
M  V30 4144 H 397.24 1.96626 -2.56004 0
M  V30 4145 H 396.292 -0.110459 -3.8024 0
M  V30 4146 H 397.604 0.0746092 -4.98744 0
M  V30 4147 H 396.758 2.35119 -5.59289 0
M  V30 4148 H 395.497 2.23893 -4.3327 0
M  V30 4149 H 394.502 0.247097 -5.49244 0
M  V30 4150 H 395.727 0.379814 -6.78037 0
M  V30 4151 H 393.673 2.50591 -6.06251 0
M  V30 4152 H 393.59 1.43489 -7.42258 0
M  V30 4153 H 394.858 2.62126 -7.34105 0
M  V30 4154 N 399.087 1.5561 -0.249682 0
M  V30 4155 C 400.312 2.03865 0.381305 0
M  V30 4156 C 400.737 1.12769 1.50548 0
M  V30 4157 O 400.095 0.121189 1.80895 0
M  V30 4158 C 400.143 3.50101 0.863816 0
M  V30 4159 O 399.247 3.62132 1.97318 0
M  V30 4160 H 398.588 0.658827 0.0827194 0
M  V30 4161 H 401.118 2.01105 -0.376552 0
M  V30 4162 H 401.128 3.90975 1.1663 0
M  V30 4163 H 399.803 4.1588 0.0411816 0
M  V30 4164 H 398.38 3.33155 1.67517 0
M  V30 4165 N 400.565 -0.0233959 1.57583 0
M  V30 4166 C 401.513 -1.04063 2.08023 0
M  V30 4167 C 402.507 -1.37084 0.995204 0
M  V30 4168 O 403.713 -1.35923 1.18004 0
M  V30 4169 H 400.088 -0.353144 0.663922 0
M  V30 4170 H 402.059 -0.589453 2.9252 0
M  V30 4171 C 400.808 -2.33123 2.57971 0
M  V30 4172 H 400.131 -2.08577 3.4108 0
M  V30 4173 H 401.571 -3.02632 2.96967 0
M  V30 4174 C 400.03 -3.02483 1.48342 0
M  V30 4175 O 400.56 -3.92541 0.852898 0
M  V30 4176 N 398.766 -2.63909 1.21658 0
M  V30 4177 H 398.313 -1.90758 1.73116 0
M  V30 4178 H 398.271 -3.10633 0.485218 0
M  V30 4179 N 402.043 -1.548 -0.295768 0
M  V30 4180 C 403.271 -1.78327 -1.04914 0
M  V30 4181 C 403.686 -0.545316 -1.80753 0
M  V30 4182 O 403.043 0.485013 -1.75937 0
M  V30 4183 C 403.094 -2.99418 -2.02561 0
M  V30 4184 O 402.815 -4.18431 -1.29798 0
M  V30 4185 C 404.316 -3.35375 -2.89895 0
M  V30 4186 H 401.536 -0.594618 -0.310918 0
M  V30 4187 H 404.08 -2.01763 -0.333454 0
M  V30 4188 H 402.235 -2.78175 -2.69624 0
M  V30 4189 H 402.649 -4.86736 -1.95419 0
M  V30 4190 H 404.123 -4.23332 -3.54251 0
M  V30 4191 H 404.6 -2.53761 -3.58472 0
M  V30 4192 H 405.206 -3.58796 -2.28355 0
M  V30 4193 N 403.521 0.559213 -1.47345 0
M  V30 4194 C 404.767 1.31843 -1.54095 0
M  V30 4195 C 405.1 1.93149 -0.201726 0
M  V30 4196 O 404.375 1.77759 0.789428 0
M  V30 4197 C 404.658 2.43006 -2.65744 0
M  V30 4198 C 404.511 1.86581 -4.09277 0
M  V30 4199 C 405.83 3.44943 -2.73318 0
M  V30 4200 H 402.949 0.478012 -0.560957 0
M  V30 4201 H 405.591 0.625977 -1.79392 0
M  V30 4202 H 403.741 3.02072 -2.44305 0
M  V30 4203 H 405.413 1.31792 -4.42073 0
M  V30 4204 H 403.656 1.17268 -4.17649 0
M  V30 4205 H 404.327 2.66933 -4.83168 0
M  V30 4206 H 406.803 2.95793 -2.92653 0
M  V30 4207 H 405.679 4.20153 -3.53218 0
M  V30 4208 H 405.94 4.03665 -1.80296 0
M  V30 4209 N 404.999 1.35443 0.805782 0
M  V30 4210 C 406.227 1.31878 1.59423 0
M  V30 4211 C 406.642 -0.103562 1.88516 0
M  V30 4212 O 405.999 -1.05575 1.48863 0
M  V30 4213 C 406.05 2.12426 2.92502 0
M  V30 4214 O 405.771 3.49115 2.6467 0
M  V30 4215 C 407.272 2.16455 3.86862 0
M  V30 4216 H 404.492 0.453002 0.495005 0
M  V30 4217 H 407.036 1.78309 1.00131 0
M  V30 4218 H 405.191 1.69593 3.48306 0
M  V30 4219 H 405.605 3.90957 3.49647 0
M  V30 4220 H 407.079 2.77204 4.77349 0
M  V30 4221 H 407.556 1.16352 4.23508 0
M  V30 4222 H 408.162 2.59453 3.36993 0
M  V30 4223 N 406.477 -1.02803 1.19454 0
M  V30 4224 C 407.726 -1.7562 0.991996 0
M  V30 4225 C 408.039 -1.89672 -0.477901 0
M  V30 4226 O 409.245 -2.59468 -0.799287 0
M  V30 4227 C 407.701 -3.15812 1.72601 0
M  V30 4228 C 407.309 -3.0981 3.23607 0
M  V30 4229 C 409.053 -3.92918 1.60674 0
M  V30 4230 C 406.96 -4.44939 3.89594 0
M  V30 4231 H 405.89 -0.658352 0.367543 0
M  V30 4232 H 408.541 -1.15044 1.42959 0
M  V30 4233 H 406.923 -3.7686 1.21624 0
M  V30 4234 H 408.097 -2.58138 3.81709 0
M  V30 4235 H 406.412 -2.46201 3.35819 0
M  V30 4236 H 409.009 -4.9287 2.07323 0
M  V30 4237 H 409.352 -4.12502 0.561025 0
M  V30 4238 H 409.885 -3.38472 2.09001 0
M  V30 4239 H 406.624 -4.30559 4.94267 0
M  V30 4240 H 406.144 -4.96664 3.36281 0
M  V30 4241 H 407.823 -5.1382 3.93189 0
M  V30 4242 N 407.956 -0.998596 -1.21925 0
M  V30 4243 C 409.184 -0.696286 -1.94832 0
M  V30 4244 C 409.599 0.740032 -1.73692 0
M  V30 4245 O 408.956 1.5 -1.03953 0
M  V30 4246 C 409.007 -0.999833 -3.47398 0
M  V30 4247 O 408.728 -2.37972 -3.67833 0
M  V30 4248 C 410.229 -0.716025 -4.37479 0
M  V30 4249 H 407.449 -0.257111 -0.619786 0
M  V30 4250 H 409.993 -1.33491 -1.54921 0
M  V30 4251 H 408.148 -0.406918 -3.85257 0
M  V30 4252 H 408.562 -2.48338 -4.61983 0
M  V30 4253 H 410.036 -0.978642 -5.43256 0
M  V30 4254 H 410.513 0.349968 -4.37803 0
M  V30 4255 H 411.119 -1.29025 -4.05256 0
M  V30 4256 N 409.434 1.37368 -0.772513 0
M  V30 4257 C 410.681 1.99673 -0.337182 0
M  V30 4258 C 411.009 1.61324 1.0865 0
M  V30 4259 O 410.264 0.851377 1.7621 0
M  V30 4260 C 410.563 3.54817 -0.428876 0
M  V30 4261 C 410.229 4.12936 -1.81092 0
M  V30 4262 C 408.891 4.28523 -2.1891 0
M  V30 4263 C 411.243 4.44801 -2.71664 0
M  V30 4264 C 408.571 4.73277 -3.46735 0
M  V30 4265 C 410.923 4.90981 -3.98899 0
M  V30 4266 C 409.587 5.04773 -4.36761 0
M  V30 4267 H 408.857 0.730656 -0.123384 0
M  V30 4268 H 411.504 1.64124 -0.986686 0
M  V30 4269 H 409.809 3.90618 0.304167 0
M  V30 4270 H 411.506 4.00933 -0.0733334 0
M  V30 4271 H 408.096 4.01233 -1.50699 0
M  V30 4272 H 412.28 4.32344 -2.43706 0
M  V30 4273 H 407.536 4.82142 -3.75964 0
M  V30 4274 H 411.71 5.14603 -4.69208 0
M  V30 4275 H 409.337 5.39211 -5.35868 0
M  V30 4276 N 410.912 0.523116 1.48665 0
M  V30 4277 C 412.158 -0.0134963 2.02796 0
M  V30 4278 C 412.491 -1.34582 1.40004 0
M  V30 4279 O 411.766 -1.86756 0.543381 0
M  V30 4280 C 412.049 -0.14276 3.59817 0
M  V30 4281 C 411.902 1.21425 4.331 0
M  V30 4282 C 413.221 -0.872856 4.31357 0
M  V30 4283 H 410.34 -0.00343074 0.736992 0
M  V30 4284 H 412.982 0.678816 1.7746 0
M  V30 4285 H 411.132 -0.732401 3.81534 0
M  V30 4286 H 412.804 1.84447 4.2282 0
M  V30 4287 H 411.047 1.79791 3.94788 0
M  V30 4288 H 411.718 1.07687 5.41394 0
M  V30 4289 H 414.194 -0.372555 4.14429 0
M  V30 4290 H 413.07 -0.932185 5.40927 0
M  V30 4291 H 413.331 -1.92161 3.98154 0
M  V30 4292 N 412.39 -1.55475 0.257931 0
M  V30 4293 C 413.618 -2.03609 -0.367559 0
M  V30 4294 C 414.033 -1.13687 -1.50734 0
M  V30 4295 O 413.39 -0.153479 -1.81853 0
M  V30 4296 C 413.441 -3.51001 -0.864908 0
M  V30 4297 O 413.162 -4.37499 0.229465 0
M  V30 4298 C 414.663 -4.14946 -1.55997 0
M  V30 4299 H 411.883 -0.665459 -0.0860521 0
M  V30 4300 H 414.427 -2.00843 0.385014 0
M  V30 4301 H 412.582 -3.54266 -1.56762 0
M  V30 4302 H 412.996 -5.24286 -0.14998 0
M  V30 4303 H 414.47 -5.19735 -1.85956 0
M  V30 4304 H 414.947 -3.6209 -2.4857 0
M  V30 4305 H 415.553 -4.15635 -0.901543 0
M  V30 4306 N 413.868 0.0150385 -1.57593 0
M  V30 4307 C 415.145 0.7392 -1.81094 0
M  V30 4308 C 415.525 1.92817 -0.859344 0
M  V30 4309 O 414.873 2.28301 0.095362 0
M  V30 4310 C 415.083 1.15907 -3.29191 0
M  V30 4311 C 416.431 1.56918 -3.9454 0
M  V30 4312 O 417.455 1.25328 -3.33424 0
M  V30 4313 O 416.314 2.15604 -5.02173 0
M  V30 4314 H 413.408 0.358631 -0.745193 0
M  V30 4315 H 415.954 -0.00926156 -1.69697 0
M  V30 4316 H 414.726 0.310921 -3.90063 0
M  V30 4317 H 414.349 1.96711 -3.45529 0
M  V30 4318 N 415.346 1.54954 0.287554 0
M  V30 4319 C 416.256 1.8991 1.37736 0
M  V30 4320 C 417.272 0.794701 1.54792 0
M  V30 4321 O 418.448 1.09243 1.69198 0
M  V30 4322 C 415.513 2.15108 2.71899 0
M  V30 4323 C 414.574 3.38752 2.63715 0
M  V30 4324 C 413.807 3.62739 3.91479 0
M  V30 4325 O 414.03 2.89492 4.91478 0
M  V30 4326 O 412.964 4.56267 3.92561 0
M  V30 4327 H 416.79 2.82652 1.11092 0
M  V30 4328 H 414.375 1.41315 0.484807 0
M  V30 4329 H 416.257 2.32806 3.51254 0
M  V30 4330 H 414.932 1.25551 2.9836 0
M  V30 4331 H 413.839 3.26405 1.82786 0
M  V30 4332 H 415.172 4.28483 2.42205 0
M  V30 4333 N 416.824 -0.551391 1.4764 0
M  V30 4334 C 418.049 -1.33837 1.58437 0
M  V30 4335 C 418.474 -1.866 0.237063 0
M  V30 4336 O 417.832 -1.6328 -0.787994 0
M  V30 4337 C 417.88 -2.48014 2.61766 0
M  V30 4338 O 416.984 -3.50419 2.1744 0
M  V30 4339 H 416.325 -0.397299 0.532024 0
M  V30 4340 H 418.855 -0.665759 1.93465 0
M  V30 4341 H 418.865 -2.94503 2.82369 0
M  V30 4342 H 417.54 -2.08969 3.5959 0
M  V30 4343 H 416.117 -3.10196 2.06961 0
M  V30 4344 N 418.302 -1.35869 -0.798587 0
M  V30 4345 C 419.55 -1.29332 -1.55298 0
M  V30 4346 C 419.871 0.129729 -1.94568 0
M  V30 4347 O 419.141 1.06796 -1.6423 0
M  V30 4348 H 417.721 -0.475737 -0.57592 0
M  V30 4349 H 420.383 -1.70062 -0.952093 0
M  V30 4350 H 419.479 -1.91458 -2.46476 0
M  V30 4351 N 419.78 1.02168 -1.19998 0
M  V30 4352 C 421.057 1.72816 -0.916191 0
M  V30 4353 C 421.437 2.03081 0.576325 0
M  V30 4354 O 420.785 1.69122 1.53656 0
M  V30 4355 C 420.995 2.9997 -1.78378 0
M  V30 4356 C 422.343 3.73336 -2.02251 0
M  V30 4357 O 423.367 3.09914 -1.75589 0
M  V30 4358 O 422.226 4.87371 -2.47249 0
M  V30 4359 H 419.32 0.752924 -0.342103 0
M  V30 4360 H 421.866 1.08062 -1.30846 0
M  V30 4361 H 420.638 2.73888 -2.79466 0
M  V30 4362 H 420.261 3.72464 -1.39126 0
M  V30 4363 N 421.258 1.00505 1.21394 0
M  V30 4364 C 422.208 0.536503 2.21598 0
M  V30 4365 C 423.192 -0.401914 1.55799 0
M  V30 4366 O 424.384 -0.226757 1.75541 0
M  V30 4367 C 421.513 -0.135446 3.43033 0
M  V30 4368 C 420.599 0.823992 4.16018 0
M  V30 4369 N 420.99 1.97683 4.6557 0
M  V30 4370 C 419.288 0.642387 4.4135 0
M  V30 4371 C 419.989 2.58003 5.21354 0
M  V30 4372 N 418.965 1.86162 5.1073 0
M  V30 4373 H 422.767 1.41557 2.57563 0
M  V30 4374 H 420.281 0.868878 1.37202 0
M  V30 4375 H 422.278 -0.488584 4.14027 0
M  V30 4376 H 420.938 -1.01049 3.08576 0
M  V30 4377 H 421.949 2.3572 4.61147 0
M  V30 4378 H 418.626 -0.185578 4.17087 0
M  V30 4379 H 420.016 3.555 5.70149 0
M  V30 4380 N 422.737 -1.36956 0.779787 0
M  V30 4381 C 423.965 -2.03755 0.359398 0
M  V30 4382 C 424.38 -1.58807 -1.02106 0
M  V30 4383 O 423.737 -0.773024 -1.6532 0
M  V30 4384 C 423.788 -3.59251 0.402568 0
M  V30 4385 O 423.509 -4.02557 1.72858 0
M  V30 4386 C 425.01 -4.43291 -0.0284068 0
M  V30 4387 H 422.23 -0.654148 0.149437 0
M  V30 4388 H 424.774 -1.75128 1.05595 0
M  V30 4389 H 422.929 -3.86621 -0.245478 0
M  V30 4390 H 423.343 -4.97111 1.67275 0
M  V30 4391 H 424.817 -5.51975 0.0529466 0
M  V30 4392 H 425.294 -4.25719 -1.07982 0
M  V30 4393 H 425.9 -4.21163 0.591758 0
M  V30 4394 N 424.215 -0.530993 -1.48385 0
M  V30 4395 C 425.463 0.00273189 -2.021 0
M  V30 4396 C 425.784 1.34672 -1.41027 0
M  V30 4397 O 425.054 1.8724 -0.576012 0
M  V30 4398 H 423.634 0.00399774 -0.746989 0
M  V30 4399 H 426.296 -0.695054 -1.82085 0
M  V30 4400 H 425.392 0.11031 -3.11905 0
M  V30 4401 N 425.693 1.55336 -0.266172 0
M  V30 4402 C 426.939 2.00423 0.346714 0
M  V30 4403 C 427.294 1.15132 1.54151 0
M  V30 4404 O 426.587 0.211289 1.90431 0
M  V30 4405 C 426.781 3.48606 0.787957 0
M  V30 4406 C 426.61 4.48236 -0.362535 0
M  V30 4407 C 425.38 4.98211 -0.843445 0
M  V30 4408 C 427.578 5.00199 -1.19603 0
M  V30 4409 N 425.56 5.81625 -1.96434 0
M  V30 4410 C 426.931 5.80973 -2.16497 0
M  V30 4411 C 428.986 4.82458 -1.2304 0
M  V30 4412 C 427.689 6.45896 -3.1656 0
M  V30 4413 C 429.715 5.48174 -2.21944 0
M  V30 4414 C 429.077 6.28751 -3.17571 0
M  V30 4415 H 425.176 0.776535 0.0922914 0
M  V30 4416 H 427.76 1.90792 -0.388154 0
M  V30 4417 H 425.931 3.58597 1.49207 0
M  V30 4418 H 427.663 3.80538 1.37742 0
M  V30 4419 H 424.418 4.71696 -0.424271 0
M  V30 4420 H 424.842 6.28025 -2.52813 0
M  V30 4421 H 429.484 4.19774 -0.504903 0
M  V30 4422 H 427.202 7.07734 -3.90048 0
M  V30 4423 H 430.788 5.36392 -2.25333 0
M  V30 4424 H 429.668 6.78703 -3.92851 0
M  V30 4425 N 427.171 -0.0066808 1.57599 0
M  V30 4426 C 428.118 -1.00024 2.08 0
M  V30 4427 C 429.088 -1.34549 0.973943 0
M  V30 4428 O 430.273 -1.44502 1.24595 0
M  V30 4429 C 427.413 -2.2891 2.58252 0
M  V30 4430 C 426.526 -2.00346 3.82734 0
M  V30 4431 C 425.661 -3.23265 4.21513 0
M  V30 4432 C 424.7 -2.90357 5.3885 0
M  V30 4433 N 423.837 -4.05793 5.72954 0
M  V30 4434 H 428.677 -0.563499 2.92624 0
M  V30 4435 H 426.214 -0.266592 1.44664 0
M  V30 4436 H 428.172 -3.04247 2.85464 0
M  V30 4437 H 426.802 -2.70265 1.76512 0
M  V30 4438 H 425.854 -1.15406 3.62471 0
M  V30 4439 H 427.166 -1.72086 4.68175 0
M  V30 4440 H 426.32 -4.06953 4.49971 0
M  V30 4441 H 425.059 -3.54657 3.34768 0
M  V30 4442 H 424.064 -2.05075 5.10122 0
M  V30 4443 H 425.289 -2.60219 6.27266 0
M  V30 4444 H 423.235 -4.37094 4.89167 0
M  V30 4445 H 423.152 -3.81034 6.52954 0
M  V30 4446 H 424.42 -4.90289 6.06001 0
M  V30 4447 N 428.649 -1.55105 -0.279332 0
M  V30 4448 C 429.898 -1.74618 -1.00952 0
M  V30 4449 C 430.211 -0.551096 -1.87676 0
M  V30 4450 O 431.417 -0.628507 -2.64125 0
M  V30 4451 C 429.873 -3.09025 -1.84476 0
M  V30 4452 C 429.481 -4.36081 -1.0265 0
M  V30 4453 C 431.225 -3.37891 -2.56963 0
M  V30 4454 C 429.132 -5.6153 -1.85576 0
M  V30 4455 H 428.062 -0.650868 -0.38064 0
M  V30 4456 H 430.713 -1.81569 -0.265475 0
M  V30 4457 H 429.095 -2.96095 -2.62952 0
M  V30 4458 H 430.269 -4.59909 -0.286354 0
M  V30 4459 H 428.584 -4.14312 -0.416464 0
M  V30 4460 H 431.181 -4.28822 -3.19399 0
M  V30 4461 H 431.524 -2.57737 -3.26921 0
M  V30 4462 H 432.057 -3.5189 -1.85522 0
M  V30 4463 H 428.796 -6.44413 -1.2005 0
M  V30 4464 H 428.316 -5.41854 -2.57204 0
M  V30 4465 H 429.995 -5.99594 -2.43096 0
M  V30 4466 N 430.127 0.543554 -1.4793 0
M  V30 4467 C 431.077 1.64527 -1.57844 0
M  V30 4468 C 432.061 1.54869 -0.436408 0
M  V30 4469 O 433.253 1.63119 -0.687101 0
M  V30 4470 C 430.382 3.03281 -1.6086 0
M  V30 4471 C 429.468 3.18093 -2.80495 0
M  V30 4472 N 429.859 3.02923 -4.05057 0
M  V30 4473 C 428.157 3.49121 -2.77543 0
M  V30 4474 C 428.858 3.20791 -4.85251 0
M  V30 4475 N 427.834 3.47749 -4.17818 0
M  V30 4476 H 431.636 1.51388 -2.5191 0
M  V30 4477 H 429.15 0.748671 -1.44113 0
M  V30 4478 H 431.147 3.82403 -1.66054 0
M  V30 4479 H 429.807 3.17521 -0.678996 0
M  V30 4480 H 430.818 2.79966 -4.35705 0
M  V30 4481 H 427.495 3.69804 -1.93781 0
M  V30 4482 H 428.885 3.13915 -5.9406 0
M  V30 4483 N 431.605 1.3629 0.791371 0
M  V30 4484 C 432.835 1.33368 1.57786 0
M  V30 4485 C 433.243 -0.0875188 1.88997 0
M  V30 4486 O 432.586 -1.05427 1.50435 0
M  V30 4487 C 432.648 2.08802 2.92646 0
M  V30 4488 C 432.312 3.57903 2.84174 0
M  V30 4489 C 433.309 4.52191 2.56553 0
M  V30 4490 C 430.994 4.00762 3.02812 0
M  V30 4491 C 432.988 5.87315 2.47669 0
M  V30 4492 C 430.675 5.35977 2.93551 0
M  V30 4493 C 431.673 6.29066 2.66017 0
M  V30 4494 O 431.361 7.61798 2.56746 0
M  V30 4495 H 431.093 0.459166 0.496128 0
M  V30 4496 H 433.647 1.79952 0.990269 0
M  V30 4497 H 431.877 1.56878 3.53449 0
M  V30 4498 H 433.566 1.98762 3.53904 0
M  V30 4499 H 434.332 4.20393 2.41858 0
M  V30 4500 H 430.211 3.2868 3.2325 0
M  V30 4501 H 433.755 6.59943 2.26099 0
M  V30 4502 H 429.652 5.67384 3.07808 0
M  V30 4503 H 430.42 7.71898 2.72242 0
M  V30 4504 N 433.083 -1.0153 1.20538 0
M  V30 4505 C 434.311 -1.78746 1.04199 0
M  V30 4506 C 434.726 -1.84323 -0.408733 0
M  V30 4507 O 434.083 -1.29714 -1.28377 0
M  V30 4508 C 434.134 -3.23152 1.62035 0
M  V30 4509 O 433.855 -3.17918 3.0143 0
M  V30 4510 C 435.356 -4.16911 1.50666 0
M  V30 4511 H 432.576 -0.56208 0.366479 0
M  V30 4512 H 435.12 -1.27794 1.59653 0
M  V30 4513 H 433.275 -3.71248 1.10697 0
M  V30 4514 H 433.689 -4.08567 3.28897 0
M  V30 4515 H 435.163 -5.16072 1.95892 0
M  V30 4516 H 435.64 -4.36791 0.459363 0
M  V30 4517 H 436.246 -3.74698 2.01201 0
M  V30 4518 N 434.561 -1.01147 -1.20859 0
M  V30 4519 C 435.786 -0.716698 -1.94623 0
M  V30 4520 C 436.211 0.715415 -1.73964 0
M  V30 4521 O 435.569 1.49157 -1.03062 0
M  V30 4522 C 435.617 -1.0513 -3.44935 0
M  V30 4523 O 434.721 -0.160131 -4.12089 0
M  V30 4524 H 434.062 -0.266404 -0.608214 0
M  V30 4525 H 436.592 -1.35346 -1.53436 0
M  V30 4526 H 436.602 -1.00086 -3.95533 0
M  V30 4527 H 435.277 -2.09475 -3.59295 0
M  V30 4528 H 433.854 -0.267657 -3.71938 0
M  V30 4529 N 436.039 1.36541 -0.78704 0
M  V30 4530 C 437.267 2.03561 -0.370199 0
M  V30 4531 C 437.682 1.59347 1.01263 0
M  V30 4532 O 437.039 0.781781 1.64907 0
M  V30 4533 C 437.09 3.59033 -0.421614 0
M  V30 4534 O 436.811 4.01634 -1.7499 0
M  V30 4535 C 438.312 4.433 0.00489763 0
M  V30 4536 H 435.532 0.653346 -0.152904 0
M  V30 4537 H 438.076 1.74566 -1.06522 0
M  V30 4538 H 436.231 3.86746 0.224971 0
M  V30 4539 H 436.645 4.96217 -1.69909 0
M  V30 4540 H 438.119 5.51939 -0.0822184 0
M  V30 4541 H 438.596 4.26285 1.05723 0
M  V30 4542 H 439.202 4.20843 -0.614085 0
M  V30 4543 N 437.518 0.538854 1.48102 0
M  V30 4544 C 438.481 -0.208395 2.28251 0
M  V30 4545 C 439.481 -0.859656 1.35892 0
M  V30 4546 O 440.671 -0.71834 1.58699 0
M  V30 4547 C 437.803 -1.30252 3.15035 0
M  V30 4548 H 438.996 0.495407 2.9578 0
M  V30 4549 H 436.549 0.295112 1.53489 0
M  V30 4550 H 437.284 -2.0393 2.52157 0
M  V30 4551 H 437.069 -0.840551 3.82985 0
M  V30 4552 H 438.559 -1.82787 3.75471 0
M  V30 4553 N 438.996 -1.55193 0.274407 0
M  V30 4554 C 439.928 -2.1989 -0.646595 0
M  V30 4555 C 440.941 -1.1834 -1.11801 0
M  V30 4556 O 442.13 -1.4507 -1.04004 0
M  V30 4557 C 439.23 -2.8104 -1.89393 0
M  V30 4558 C 438.403 -4.08274 -1.56943 0
M  V30 4559 C 437.462 -4.53478 -2.66916 0
M  V30 4560 O 436.488 -5.19267 -2.33132 0
M  V30 4561 N 437.69 -4.2356 -3.9696 0
M  V30 4562 H 440.455 -2.99556 -0.0928686 0
M  V30 4563 H 438.016 -1.61618 0.0954783 0
M  V30 4564 H 440.008 -3.08226 -2.62257 0
M  V30 4565 H 438.578 -2.05372 -2.35672 0
M  V30 4566 H 437.798 -3.88384 -0.674655 0
M  V30 4567 H 439.086 -4.91173 -1.32764 0
M  V30 4568 H 438.484 -3.70799 -4.27229 0
M  V30 4569 H 437.041 -4.55518 -4.66205 0
M  V30 4570 N 440.474 -0.00167713 -1.576 0
M  V30 4571 C 441.885 0.54091 -1.78693 0
M  V30 4572 C 442.236 1.7386 -0.909247 0
M  V30 4573 O 441.361 2.16109 -0.112176 0
M  V30 4574 C 441.956 0.98806 -3.24072 0
M  V30 4575 C 440.515 1.47594 -3.46256 0
M  V30 4576 C 439.662 0.42792 -2.73978 0
M  V30 4577 H 442.613 -0.22784 -1.57056 0
M  V30 4578 H 442.634 1.85398 -3.32277 0
M  V30 4579 H 442.146 0.116164 -3.87926 0
M  V30 4580 H 440.247 2.36868 -2.87618 0
M  V30 4581 H 440.36 1.50225 -4.54939 0
M  V30 4582 H 438.724 0.889934 -2.38647 0
M  V30 4583 H 439.507 -0.435038 -3.40532 0
M  V30 4584 N 441.952 1.55251 0.271103 0
M  V30 4585 C 443.192 1.77698 1.01008 0
M  V30 4586 C 443.556 0.567246 1.83429 0
M  V30 4587 O 444.757 0.670013 2.60316 0
M  V30 4588 C 443.028 3.04715 1.86772 0
M  V30 4589 S 444.587 3.48289 2.66909 0
M  V30 4590 H 441.405 0.624343 0.340172 0
M  V30 4591 H 444.007 1.9348 0.280315 0
M  V30 4592 H 442.711 3.90853 1.25149 0
M  V30 4593 H 442.242 2.91604 2.64066 0
M  V30 4594 H 444.257 3.07712 3.89266 0
M  V30 4595 N 443.43 -0.535701 1.48216 0
M  V30 4596 C 444.841 -1.11769 1.49548 0
M  V30 4597 C 445.192 -1.94442 0.26207 0
M  V30 4598 O 444.317 -2.06987 -0.631287 0
M  V30 4599 C 444.912 -2.03367 2.70975 0
M  V30 4600 C 443.471 -2.56795 2.75196 0
M  V30 4601 C 442.618 -1.33631 2.42977 0
M  V30 4602 H 445.569 -0.321232 1.55415 0
M  V30 4603 H 445.59 -2.87569 2.49167 0
M  V30 4604 H 445.102 -1.43169 3.60727 0
M  V30 4605 H 443.203 -3.20731 1.89638 0
M  V30 4606 H 443.316 -2.9632 3.76472 0
M  V30 4607 H 441.68 -1.6502 1.94012 0
M  V30 4608 H 442.463 -0.75194 3.34964 0
M  V30 4609 N 444.908 -1.36708 -0.784132 0
M  V30 4610 C 446.138 -1.34203 -1.57077 0
M  V30 4611 C 446.546 0.0774945 -1.89041 0
M  V30 4612 O 445.889 1.04628 -1.50992 0
M  V30 4613 C 445.951 -2.10351 -2.91535 0
M  V30 4614 C 445.615 -3.59405 -2.82272 0
M  V30 4615 C 446.612 -4.53545 -2.54151 0
M  V30 4616 C 444.297 -4.02362 -3.00683 0
M  V30 4617 C 446.291 -5.8862 -2.44551 0
M  V30 4618 C 443.978 -5.37526 -2.90704 0
M  V30 4619 C 444.976 -6.30468 -2.62677 0
M  V30 4620 O 444.664 -7.63149 -2.52702 0
M  V30 4621 H 444.396 -0.461791 -0.493685 0
M  V30 4622 H 446.95 -1.80475 -0.980712 0
M  V30 4623 H 445.18 -1.5875 -3.52612 0
M  V30 4624 H 446.869 -2.00636 -3.52845 0
M  V30 4625 H 447.635 -4.21669 -2.39625 0
M  V30 4626 H 443.514 -3.30389 -3.21503 0
M  V30 4627 H 447.058 -6.61133 -2.22596 0
M  V30 4628 H 442.955 -5.69008 -3.04795 0
M  V30 4629 H 443.723 -7.73331 -2.68144 0
M  V30 4630 N 446.386 1.0089 -1.21074 0
M  V30 4631 C 447.797 1.56056 -1.02486 0
M  V30 4632 C 448.148 1.91728 0.416506 0
M  V30 4633 O 447.273 1.73066 1.29912 0
M  V30 4634 C 447.868 2.83563 -1.85411 0
M  V30 4635 C 446.427 3.3523 -1.71166 0
M  V30 4636 C 445.574 2.0846 -1.82865 0
M  V30 4637 H 448.525 0.831818 -1.35154 0
M  V30 4638 H 448.546 3.55286 -1.36205 0
M  V30 4639 H 448.058 2.57569 -2.9031 0
M  V30 4640 H 446.159 3.66167 -0.689361 0
M  V30 4641 H 446.272 4.06913 -2.52901 0
M  V30 4642 H 444.636 2.21275 -1.26132 0
M  V30 4643 H 445.419 1.84883 -2.89263 0
M  V30 4644 N 447.864 1.01787 1.20321 0
M  V30 4645 C 448.797 0.533882 2.21867 0
M  V30 4646 C 449.775 -0.419361 1.57099 0
M  V30 4647 O 450.959 -0.339062 1.85426 0
M  V30 4648 C 448.086 -0.222899 3.37966 0
M  V30 4649 C 447.132 0.680091 4.21043 0
M  V30 4650 S 447.965 2.14997 4.90445 0
M  V30 4651 C 449.121 1.40339 6.09964 0
M  V30 4652 H 449.354 1.39429 2.62577 0
M  V30 4653 H 446.887 0.826867 1.30393 0
M  V30 4654 H 448.845 -0.653425 4.05266 0
M  V30 4655 H 447.506 -1.0589 2.95713 0
M  V30 4656 H 446.699 0.0964704 5.03908 0
M  V30 4657 H 446.301 1.04845 3.59004 0
M  V30 4658 H 448.593 0.68407 6.74038 0
M  V30 4659 H 449.536 2.20823 6.72787 0
M  V30 4660 H 449.944 0.905716 5.57187 0
M  V30 4661 N 449.342 -1.36122 0.79427 0
M  V30 4662 C 450.305 -2.28309 0.201889 0
M  V30 4663 C 451.305 -1.49041 -0.603603 0
M  V30 4664 O 452.495 -1.68964 -0.423888 0
M  V30 4665 C 449.627 -3.3321 -0.719978 0
M  V30 4666 H 450.82 -2.82208 1.01481 0
M  V30 4667 H 448.373 -1.45768 0.564037 0
M  V30 4668 H 449.108 -2.84475 -1.55706 0
M  V30 4669 H 448.893 -3.91835 -0.144266 0
M  V30 4670 H 450.383 -4.02044 -1.12916 0
M  V30 4671 N 450.82 -0.546701 -1.47814 0
M  V30 4672 C 452.231 -0.110564 -1.86372 0
M  V30 4673 C 452.582 1.31678 -1.45449 0
M  V30 4674 O 451.707 1.98889 -0.852758 0
M  V30 4675 C 452.302 -0.193873 -3.38245 0
M  V30 4676 C 450.861 0.187164 -3.75934 0
M  V30 4677 C 450.008 -0.546166 -2.71868 0
M  V30 4678 H 452.959 -0.757022 -1.39481 0
M  V30 4679 H 452.98 0.590218 -3.75895 0
M  V30 4680 H 452.492 -1.23282 -3.67999 0
M  V30 4681 H 450.593 1.22762 -3.51796 0
M  V30 4682 H 450.706 -0.164083 -4.78819 0
M  V30 4683 H 449.07 0.00953904 -2.54698 0
M  V30 4684 H 449.853 -1.58606 -3.04465 0
M  V30 4685 N 452.299 1.55045 -0.282633 0
M  V30 4686 C 453.71 1.85473 0.213655 0
M  V30 4687 C 454.061 1.20465 1.54863 0
M  V30 4688 O 453.186 0.495676 2.10647 0
M  V30 4689 C 453.781 3.36496 0.394445 0
M  V30 4690 C 452.34 3.67022 0.834961 0
M  V30 4691 C 451.487 2.77218 -0.0674081 0
M  V30 4692 H 454.438 1.50478 -0.504202 0
M  V30 4693 H 454.459 3.60007 1.23186 0
M  V30 4694 H 453.971 3.83782 -0.577326 0
M  V30 4695 H 452.072 3.25241 1.81794 0
M  V30 4696 H 452.185 4.74433 0.667075 0
M  V30 4697 H 450.549 2.5069 0.450196 0
M  V30 4698 H 451.332 3.2732 -1.0352 0
M  V30 4699 N 453.777 0.010035 1.57597 0
M  V30 4700 C 454.725 -0.996272 2.10184 0
M  V30 4701 C 455.719 -1.34942 1.02406 0
M  V30 4702 O 456.925 -1.33389 1.20861 0
M  V30 4703 H 453.3 -0.338982 0.671264 0
M  V30 4704 H 455.271 -0.527272 2.93705 0
M  V30 4705 C 454.02 -2.27599 2.62857 0
M  V30 4706 H 453.343 -2.01295 3.45428 0
M  V30 4707 H 454.783 -2.96265 3.0332 0
M  V30 4708 C 453.242 -2.99269 1.54725 0
M  V30 4709 O 453.772 -3.90644 0.93597 0
M  V30 4710 N 451.978 -2.61269 1.27228 0
M  V30 4711 H 451.525 -1.87043 1.77123 0
M  V30 4712 H 451.483 -3.09534 0.550999 0
M  V30 4713 N 455.255 -1.55392 -0.262866 0
M  V30 4714 C 456.503 -1.76127 -0.991147 0
M  V30 4715 C 456.824 -0.571083 -1.8645 0
M  V30 4716 O 456.094 0.413698 -1.91482 0
M  V30 4717 H 454.674 -0.649528 -0.368948 0
M  V30 4718 H 457.336 -1.9281 -0.284655 0
M  V30 4719 H 456.432 -2.6663 -1.62219 0
M  V30 4720 N 456.733 0.527833 -1.48498 0
M  V30 4721 C 457.683 1.62844 -1.5958 0
M  V30 4722 C 458.667 1.54397 -0.452809 0
M  V30 4723 O 459.859 1.62381 -0.704364 0
M  V30 4724 C 456.988 3.01557 -1.64067 0
M  V30 4725 C 456.074 3.151 -2.83853 0
M  V30 4726 N 456.465 2.9861 -4.08247 0
M  V30 4727 C 454.763 3.46158 -2.8123 0
M  V30 4728 C 455.464 3.15626 -4.88626 0
M  V30 4729 N 454.44 3.43298 -4.21483 0
M  V30 4730 H 458.242 1.48708 -2.53502 0
M  V30 4731 H 455.756 0.733343 -1.44899 0
M  V30 4732 H 457.753 3.8062 -1.70101 0
M  V30 4733 H 456.413 3.16783 -0.712636 0
M  V30 4734 H 457.424 2.75329 -4.3865 0
M  V30 4735 H 454.101 3.67728 -1.97692 0
M  V30 4736 H 455.491 3.07596 -5.97356 0
M  V30 4737 N 458.211 1.37122 0.776871 0
M  V30 4738 C 459.457 1.32243 1.53752 0
M  V30 4739 C 459.79 -0.0944745 1.9397 0
M  V30 4740 O 459.065 -1.05068 1.6368 0
M  V30 4741 C 459.348 2.25681 2.80607 0
M  V30 4742 C 459.201 3.76127 2.46676 0
M  V30 4743 C 460.52 2.17657 3.82509 0
M  V30 4744 H 457.639 0.481704 0.557791 0
M  V30 4745 H 460.281 1.6778 0.891612 0
M  V30 4746 H 458.431 1.95505 3.35723 0
M  V30 4747 H 460.103 4.16877 1.97513 0
M  V30 4748 H 458.346 3.94946 1.79443 0
M  V30 4749 H 459.017 4.36933 3.37333 0
M  V30 4750 H 461.493 2.44245 3.36873 0
M  V30 4751 H 460.369 2.85185 4.69 0
M  V30 4752 H 460.63 1.16785 4.26396 0
M  V30 4753 N 459.689 -1.00246 1.21608 0
M  V30 4754 C 460.914 -1.78167 1.06167 0
M  V30 4755 C 461.339 -1.84138 -0.384035 0
M  V30 4756 O 460.697 -1.28683 -1.27712 0
M  V30 4757 C 460.745 -3.19786 1.66642 0
M  V30 4758 O 459.849 -4.02153 0.913613 0
M  V30 4759 H 459.19 -0.549 0.37349 0
M  V30 4760 H 461.72 -1.25994 1.61204 0
M  V30 4761 H 461.73 -3.70451 1.70969 0
M  V30 4762 H 460.405 -3.14754 2.7185 0
M  V30 4763 H 458.982 -3.60711 0.945635 0
M  V30 4764 N 461.167 -1.02423 -1.1978 0
M  V30 4765 C 462.578 -0.748389 -1.71044 0
M  V30 4766 C 462.929 0.732398 -1.82017 0
M  V30 4767 O 462.054 1.57116 -1.48807 0
M  V30 4768 C 462.649 -1.35187 -3.1066 0
M  V30 4769 C 461.208 -1.12472 -3.59203 0
M  V30 4770 C 460.355 -1.45283 -2.36195 0
M  V30 4771 H 463.306 -1.19275 -1.04686 0
M  V30 4772 H 463.327 -0.746408 -3.73107 0
M  V30 4773 H 462.839 -2.4296 -3.02642 0
M  V30 4774 H 460.94 -0.0649983 -3.72543 0
M  V30 4775 H 461.053 -1.81016 -4.43588 0
M  V30 4776 H 459.417 -0.872034 -2.39307 0
M  V30 4777 H 460.2 -2.54129 -2.30811 0
M  V30 4778 N 462.645 1.35699 -0.801477 0
M  V30 4779 C 463.891 1.99208 -0.380022 0
M  V30 4780 C 464.224 1.63445 1.04878 0
M  V30 4781 O 463.499 0.895223 1.72673 0
M  V30 4782 C 463.782 3.55755 -0.557708 0
M  V30 4783 C 463.635 4.01332 -2.03107 0
M  V30 4784 C 464.954 4.40096 0.0197968 0
M  V30 4785 H 462.073 0.723667 -0.139552 0
M  V30 4786 H 464.715 1.60928 -1.01006 0
M  V30 4787 H 462.865 3.88494 -0.0213741 0
M  V30 4788 H 464.537 3.79026 -2.62939 0
M  V30 4789 H 462.78 3.52429 -2.52936 0
M  V30 4790 H 463.451 5.10234 -2.1063 0
M  V30 4791 H 465.927 4.13786 -0.438179 0
M  V30 4792 H 464.803 5.48735 -0.134477 0
M  V30 4793 H 465.064 4.2786 1.11303 0
M  V30 4794 N 464.123 0.554532 1.47522 0
M  V30 4795 C 465.055 -0.232106 2.28022 0
M  V30 4796 C 466.068 -0.881865 1.36847 0
M  V30 4797 O 467.257 -0.756168 1.61692 0
M  V30 4798 C 464.357 -1.34604 3.11022 0
M  V30 4799 C 463.53 -0.793582 4.30141 0
M  V30 4800 C 462.589 -1.79168 4.94758 0
M  V30 4801 O 461.615 -1.33886 5.5323 0
M  V30 4802 N 462.817 -3.12495 4.89211 0
M  V30 4803 H 465.582 0.458407 2.96173 0
M  V30 4804 H 463.143 0.390433 1.57122 0
M  V30 4805 H 465.135 -2.01243 3.51118 0
M  V30 4806 H 463.705 -1.93983 2.45131 0
M  V30 4807 H 462.925 0.0495025 3.94169 0
M  V30 4808 H 464.213 -0.403776 5.07195 0
M  V30 4809 H 463.611 -3.51931 4.42901 0
M  V30 4810 H 462.168 -3.74698 5.33333 0
M  V30 4811 N 465.601 -1.54893 0.290851 0
M  V30 4812 C 466.564 -2.21824 -0.576784 0
M  V30 4813 C 467.564 -1.20104 -1.06919 0
M  V30 4814 O 468.754 -1.44906 -0.966843 0
M  V30 4815 C 465.886 -2.89662 -1.79747 0
M  V30 4816 H 467.079 -2.99899 0.00784051 0
M  V30 4817 H 464.632 -1.56245 0.0415934 0
M  V30 4818 H 465.367 -2.15639 -2.42219 0
M  V30 4819 H 465.152 -3.64219 -1.45214 0
M  V30 4820 H 466.642 -3.4075 -2.4141 0
M  V30 4821 N 467.08 -0.0183926 -1.57589 0
M  V30 4822 C 468.027 0.967022 -2.09565 0
M  V30 4823 C 468.997 1.32983 -0.995225 0
M  V30 4824 O 470.182 1.42501 -1.26878 0
M  V30 4825 C 467.322 2.24772 -2.61861 0
M  V30 4826 C 466.435 1.94232 -3.85873 0
M  V30 4827 C 465.57 3.16518 -4.26603 0
M  V30 4828 C 464.609 2.81748 -5.43401 0
M  V30 4829 N 463.746 3.96626 -5.79338 0
M  V30 4830 H 468.586 0.516874 -2.93483 0
M  V30 4831 H 466.123 0.243544 -1.4507 0
M  V30 4832 H 468.081 2.99667 -2.90268 0
M  V30 4833 H 466.711 2.67423 -1.8079 0
M  V30 4834 H 465.763 1.09625 -3.64262 0
M  V30 4835 H 467.075 1.64616 -4.70853 0
M  V30 4836 H 466.229 3.99743 -4.56389 0
M  V30 4837 H 464.968 3.49286 -3.40368 0
M  V30 4838 H 463.973 1.96933 -5.1332 0
M  V30 4839 H 465.198 2.50207 -6.31327 0
M  V30 4840 H 463.144 4.29257 -4.96059 0
M  V30 4841 H 463.061 3.70598 -6.58933 0
M  V30 4842 H 464.329 4.80586 -6.13724 0
M  V30 4843 N 468.558 1.5553 0.254621 0
M  V30 4844 C 469.788 1.80784 1.00004 0
M  V30 4845 C 470.196 0.59071 1.79742 0
M  V30 4846 O 469.539 -0.449988 1.78103 0
M  V30 4847 C 469.601 2.99268 1.99196 0
M  V30 4848 C 469.265 4.35595 1.38224 0
M  V30 4849 C 470.262 5.13884 0.788611 0
M  V30 4850 C 467.947 4.82281 1.40393 0
M  V30 4851 C 469.941 6.37004 0.224783 0
M  V30 4852 C 467.628 6.05351 0.836243 0
M  V30 4853 C 468.626 6.82551 0.24769 0
M  V30 4854 O 468.314 8.03297 -0.311249 0
M  V30 4855 H 468.046 0.60565 0.300274 0
M  V30 4856 H 470.6 2.03411 0.285143 0
M  V30 4857 H 468.83 2.72377 2.74496 0
M  V30 4858 H 470.519 3.11682 2.60018 0
M  V30 4859 H 471.285 4.78938 0.764423 0
M  V30 4860 H 467.164 4.22189 1.85142 0
M  V30 4861 H 470.708 6.97203 -0.235235 0
M  V30 4862 H 466.605 6.39776 0.857733 0
M  V30 4863 H 467.373 8.1825 -0.20237 0
M  V30 4864 N 470.036 -0.519951 1.48776 0
M  V30 4865 C 471.285 -1.27175 1.56555 0
M  V30 4866 C 471.598 -1.9401 0.248869 0
M  V30 4867 O 472.804 -2.70725 0.205004 0
M  V30 4868 C 471.26 -2.30811 2.76142 0
M  V30 4869 C 470.868 -1.7 4.14493 0
M  V30 4870 C 472.612 -3.06937 2.9324 0
M  V30 4871 C 470.519 -2.71635 5.25327 0
M  V30 4872 H 469.449 -0.478329 0.582853 0
M  V30 4873 H 472.1 -0.547916 1.75129 0
M  V30 4874 H 470.482 -3.06274 2.51023 0
M  V30 4875 H 471.656 -1.00658 4.49672 0
M  V30 4876 H 469.971 -1.06331 4.02595 0
M  V30 4877 H 472.568 -3.82905 3.73213 0
M  V30 4878 H 472.911 -3.63409 2.03075 0
M  V30 4879 H 473.444 -2.38589 3.18308 0
M  V30 4880 H 470.183 -2.1997 6.1749 0
M  V30 4881 H 469.703 -3.39275 4.94624 0
M  V30 4882 H 471.382 -3.34429 5.53865 0
M  V30 4883 N 471.514 -1.37532 -0.769588 0
M  V30 4884 C 472.444 -1.36172 -1.89682 0
M  V30 4885 C 473.425 -0.23001 -1.68538 0
M  V30 4886 O 474.61 -0.43069 -1.89364 0
M  V30 4887 C 471.74 -1.1701 -3.26995 0
M  V30 4888 C 470.694 -2.27216 -3.62708 0
M  V30 4889 C 470.02 -1.93174 -4.98586 0
M  V30 4890 C 471.32 -3.6941 -3.69234 0
M  V30 4891 H 473.014 -2.30499 -1.91078 0
M  V30 4892 H 470.56 -1.10953 -0.917902 0
M  V30 4893 H 472.513 -1.14688 -4.05493 0
M  V30 4894 H 471.237 -0.191395 -3.26039 0
M  V30 4895 H 469.896 -2.28697 -2.86519 0
M  V30 4896 H 469.544 -0.938281 -4.94171 0
M  V30 4897 H 469.244 -2.66973 -5.23449 0
M  V30 4898 H 470.768 -1.92443 -5.79481 0
M  V30 4899 H 472.182 -3.70047 -4.37879 0
M  V30 4900 H 470.579 -4.4228 -4.05597 0
M  V30 4901 H 471.649 -4.0288 -2.69844 0
M  V30 4902 N 472.992 0.995999 -1.22138 0
M  V30 4903 C 473.939 2.08551 -0.988687 0
M  V30 4904 C 474.909 1.65864 0.0885021 0
M  V30 4905 O 476.094 1.90704 -0.0604589 0
M  V30 4906 C 473.234 3.40374 -0.569191 0
M  V30 4907 C 472.347 3.96421 -1.71681 0
M  V30 4908 C 471.482 5.1639 -1.2456 0
M  V30 4909 C 470.521 5.64567 -2.36497 0
M  V30 4910 N 469.658 6.75777 -1.90445 0
M  V30 4911 H 474.498 2.2779 -1.92135 0
M  V30 4912 H 472.035 1.1168 -0.957388 0
M  V30 4913 H 473.993 4.16068 -0.307166 0
M  V30 4914 H 472.623 3.21145 0.326462 0
M  V30 4915 H 471.675 3.17628 -2.09324 0
M  V30 4916 H 472.987 4.2816 -2.55891 0
M  V30 4917 H 472.141 5.99362 -0.940774 0
M  V30 4918 H 470.88 4.86266 -0.373662 0
M  V30 4919 H 469.885 4.80185 -2.67772 0
M  V30 4920 H 471.11 5.96716 -3.24202 0
M  V30 4921 H 469.056 6.47443 -1.05609 0
M  V30 4922 H 468.973 7.06818 -2.68223 0
M  V30 4923 H 470.241 7.62262 -1.63022 0
M  V30 4924 N 474.47 1.03057 1.19235 0
M  V30 4925 C 475.747 0.642608 1.84743 0
M  V30 4926 C 476.127 -0.878577 1.91948 0
M  V30 4927 O 475.475 -1.77597 1.43776 0
M  V30 4928 C 475.685 1.30665 3.23616 0
M  V30 4929 C 477.033 1.43098 3.9976 0
M  V30 4930 O 478.057 1.26396 3.3302 0
M  V30 4931 O 476.916 1.70223 5.19313 0
M  V30 4932 H 474.01 0.223573 0.796206 0
M  V30 4933 H 476.556 1.12883 1.26711 0
M  V30 4934 H 475.328 2.34544 3.13217 0
M  V30 4935 H 474.951 0.808405 3.89295 0
M  V30 4936 N 475.948 -1.35272 0.808662 0
M  V30 4937 C 477.173 -2.03477 0.401475 0
M  V30 4938 C 477.598 -1.60537 -0.980279 0
M  V30 4939 O 476.956 -0.78304 -1.63518 0
M  V30 4940 C 477.004 -3.57181 0.495354 0
M  V30 4941 O 476.108 -4.09474 -0.490397 0
M  V30 4942 H 475.449 -0.642561 0.167366 0
M  V30 4943 H 477.979 -1.72824 1.09512 0
M  V30 4944 H 477.989 -4.06356 0.365912 0
M  V30 4945 H 476.664 -3.87784 1.5032 0
M  V30 4946 H 475.241 -3.71516 -0.321023 0
M  V30 4947 N 477.426 -0.562348 -1.47226 0
M  V30 4948 C 478.673 -0.0402165 -2.0246 0
M  V30 4949 C 479.001 1.31169 -1.43614 0
M  V30 4950 O 478.256 1.86805 -0.5833 0
M  V30 4951 C 478.555 0.0969817 -3.57268 0
M  V30 4952 C 478.221 -1.1847 -4.35058 0
M  V30 4953 C 476.883 -1.53588 -4.56031 0
M  V30 4954 C 479.235 -2.03378 -4.79882 0
M  V30 4955 C 476.563 -2.73452 -5.19077 0
M  V30 4956 C 478.915 -3.2245 -5.44251 0
M  V30 4957 C 477.579 -3.57876 -5.63455 0
M  V30 4958 H 476.849 -0.0147163 -0.740854 0
M  V30 4959 H 479.496 -0.734895 -1.76838 0
M  V30 4960 H 477.801 0.87466 -3.81912 0
M  V30 4961 H 479.498 0.516408 -3.97661 0
M  V30 4962 H 476.088 -0.90126 -4.19017 0
M  V30 4963 H 480.272 -1.77553 -4.63453 0
M  V30 4964 H 475.528 -3.01062 -5.32139 0
M  V30 4965 H 479.702 -3.88526 -5.77945 0
M  V30 4966 H 477.329 -4.50849 -6.12078 0
M  V30 4967 N 478.904 1.54736 -0.299062 0
M  V30 4968 C 480.129 2.04975 0.316254 0
M  V30 4969 C 480.554 1.17501 1.46885 0
M  V30 4970 O 479.912 0.178678 1.80417 0
M  V30 4971 C 479.96 3.52672 0.751997 0
M  V30 4972 O 479.064 3.68226 1.85697 0
M  V30 4973 H 478.405 0.661126 0.0617175 0
M  V30 4974 H 480.935 1.99805 -0.440341 0
M  V30 4975 H 480.945 3.94488 1.04133 0
M  V30 4976 H 479.62 4.158 -0.0911482 0
M  V30 4977 H 478.197 3.38316 1.56834 0
M  V30 4978 N 480.382 0.0267497 1.57577 0
M  V30 4979 C 481.631 -0.651736 1.9088 0
M  V30 4980 C 481.944 -1.73427 0.904576 0
M  V30 4981 O 483.15 -2.46923 1.12877 0
M  V30 4982 C 481.606 -1.21048 3.38933 0
M  V30 4983 C 481.214 -0.161362 4.47709 0
M  V30 4984 C 482.958 -1.86562 3.81307 0
M  V30 4985 C 480.865 -0.731611 5.86857 0
M  V30 4986 H 479.795 -0.247198 0.712326 0
M  V30 4987 H 482.446 0.0916641 1.83271 0
M  V30 4988 H 480.828 -2.00542 3.41466 0
M  V30 4989 H 482.002 0.61094 4.56732 0
M  V30 4990 H 480.317 0.394877 4.14523 0
M  V30 4991 H 482.914 -2.30178 4.8262 0
M  V30 4992 H 483.257 -2.70735 3.16241 0
M  V30 4993 H 483.79 -1.13762 3.81186 0
M  V30 4994 H 480.529 0.0719329 6.55461 0
M  V30 4995 H 480.049 -1.47245 5.81445 0
M  V30 4996 H 481.728 -1.22208 6.35354 0
M  V30 4997 N 481.861 -1.55662 -0.24637 0
M  V30 4998 C 483.108 -1.77519 -0.974335 0
M  V30 4999 C 483.436 -0.591165 -1.85298 0
M  V30 5000 O 482.691 0.425497 -1.91018 0
M  V30 5001 C 482.99 -3.04885 -1.86494 0
M  V30 5002 C 482.656 -4.36209 -1.14161 0
M  V30 5003 C 481.318 -4.71896 -0.941701 0
M  V30 5004 C 483.67 -5.17391 -0.628957 0
M  V30 5005 C 480.998 -5.86299 -0.216852 0
M  V30 5006 C 483.35 -6.32546 0.0824273 0
M  V30 5007 C 482.014 -6.66853 0.293807 0
M  V30 5008 H 481.284 -0.649588 -0.356535 0
M  V30 5009 H 483.931 -1.89934 -0.244394 0
M  V30 5010 H 482.236 -2.87484 -2.66196 0
M  V30 5011 H 483.933 -3.18994 -2.42989 0
M  V30 5012 H 480.523 -4.08174 -1.30736 0
M  V30 5013 H 484.707 -4.90276 -0.770943 0
M  V30 5014 H 479.963 -6.11385 -0.0426124 0
M  V30 5015 H 484.137 -6.94693 0.487292 0
M  V30 5016 H 481.764 -7.55349 0.857428 0
M  V30 5017 N 483.339 0.512053 -1.4905 0
M  V30 5018 C 484.579 1.27715 -1.59588 0
M  V30 5019 C 484.943 1.90071 -0.271502 0
M  V30 5020 O 486.144 2.67616 -0.251987 0
M  V30 5021 C 484.415 2.32399 -2.71524 0
M  V30 5022 S 485.974 3.18396 -3.01943 0
M  V30 5023 H 482.792 0.43419 -0.563027 0
M  V30 5024 H 485.394 0.581315 -1.86657 0
M  V30 5025 H 484.098 1.85101 -3.66287 0
M  V30 5026 H 483.629 3.06667 -2.46412 0
M  V30 5027 H 485.644 4.32842 -2.42616 0
M  V30 5028 N 484.817 1.37938 0.762283 0
M  V30 5029 C 485.727 1.36681 1.90671 0
M  V30 5030 C 486.743 0.265078 1.71969 0
M  V30 5031 O 487.919 0.502055 1.95042 0
M  V30 5032 C 484.984 1.18211 3.25925 0
M  V30 5033 C 484.045 2.3811 3.57214 0
M  V30 5034 C 483.278 2.20512 4.86014 0
M  V30 5035 O 483.501 1.19429 5.57757 0
M  V30 5036 O 482.435 3.08911 5.16583 0
M  V30 5037 H 486.261 2.33091 1.94685 0
M  V30 5038 H 483.846 1.18767 0.906356 0
M  V30 5039 H 485.728 1.09937 4.06807 0
M  V30 5040 H 484.403 0.248807 3.22742 0
M  V30 5041 H 483.31 2.51958 2.76529 0
M  V30 5042 H 484.643 3.30041 3.65149 0
M  V30 5043 N 486.295 -0.989507 1.22664 0
M  V30 5044 C 487.523 -1.76496 1.07967 0
M  V30 5045 C 487.938 -1.85148 -0.369543 0
M  V30 5046 O 487.295 -1.32408 -1.25596 0
M  V30 5047 C 487.346 -3.19642 1.68853 0
M  V30 5048 O 487.067 -3.11453 3.08105 0
M  V30 5049 C 488.568 -4.13621 1.59475 0
M  V30 5050 H 485.788 -0.55418 0.378319 0
M  V30 5051 H 488.332 -1.24378 1.62328 0
M  V30 5052 H 486.487 -3.68816 1.18547 0
M  V30 5053 H 486.901 -4.01499 3.37489 0
M  V30 5054 H 488.375 -5.11801 2.06795 0
M  V30 5055 H 488.852 -4.35718 0.55191 0
M  V30 5056 H 489.458 -3.70346 2.09103 0
M  V30 5057 N 487.773 -1.03688 -1.18687 0
M  V30 5058 C 489.021 -0.736572 -1.88199 0
M  V30 5059 C 489.342 0.737665 -1.80509 0
M  V30 5060 O 488.612 1.53204 -1.22088 0
M  V30 5061 H 487.192 -0.269466 -0.696704 0
M  V30 5062 H 489.854 -1.31282 -1.44052 0
M  V30 5063 H 488.95 -1.03802 -2.94332 0
M  V30 5064 N 489.251 1.34841 -0.815825 0
M  V30 5065 C 490.481 2.02436 -0.412695 0
M  V30 5066 C 490.889 1.61604 0.983906 0
M  V30 5067 O 490.232 0.813729 1.64694 0
M  V30 5068 C 490.294 3.56953 -0.427182 0
M  V30 5069 C 489.958 4.21083 -1.77589 0
M  V30 5070 C 490.955 4.42107 -2.73564 0
M  V30 5071 C 488.64 4.58006 -2.06243 0
M  V30 5072 C 490.634 4.99169 -3.9637 0
M  V30 5073 C 488.321 5.1478 -3.2931 0
M  V30 5074 C 489.319 5.35304 -4.24191 0
M  V30 5075 O 489.007 5.90878 -5.45086 0
M  V30 5076 H 488.739 0.655631 -0.164695 0
M  V30 5077 H 491.293 1.73246 -1.1034 0
M  V30 5078 H 489.523 3.85372 0.320175 0
M  V30 5079 H 491.212 4.05875 -0.0450875 0
M  V30 5080 H 491.978 4.13953 -2.52721 0
M  V30 5081 H 487.857 4.41339 -1.33196 0
M  V30 5082 H 491.401 5.15105 -4.70439 0
M  V30 5083 H 487.298 5.42362 -3.5002 0
M  V30 5084 H 488.066 6.0932 -5.46508 0
M  V30 5085 N 490.729 0.570148 1.46925 0
M  V30 5086 C 491.639 -0.173061 2.33961 0
M  V30 5087 C 492.655 -0.898825 1.48987 0
M  V30 5088 O 493.831 -0.864825 1.81887 0
M  V30 5089 C 490.896 -1.18177 3.25937 0
M  V30 5090 C 489.957 -0.462041 4.26806 0
M  V30 5091 C 489.19 -1.4227 5.14388 0
M  V30 5092 O 489.413 -2.65842 5.04662 0
M  V30 5093 O 488.347 -0.940127 5.94513 0
M  V30 5094 H 492.173 0.541216 2.98839 0
M  V30 5095 H 489.758 0.330647 1.45695 0
M  V30 5096 H 491.64 -1.76372 3.82715 0
M  V30 5097 H 490.315 -1.87774 2.63671 0
M  V30 5098 H 489.222 0.161429 3.73752 0
M  V30 5099 H 490.555 0.192719 4.91823 0
M  V30 5100 N 492.207 -1.54576 0.307264 0
M  V30 5101 C 493.137 -2.26708 -0.55907 0
M  V30 5102 C 494.118 -1.26893 -1.1328 0
M  V30 5103 O 495.303 -1.55677 -1.16097 0
M  V30 5104 C 492.433 -3.01259 -1.72801 0
M  V30 5105 C 491.387 -4.08275 -1.28435 0
M  V30 5106 C 490.713 -4.70575 -2.53895 0
M  V30 5107 C 492.013 -5.2068 -0.411038 0
M  V30 5108 H 493.707 -2.9937 0.042576 0
M  V30 5109 H 491.253 -1.43983 0.0219173 0
M  V30 5110 H 493.206 -3.50444 -2.34023 0
M  V30 5111 H 491.93 -2.26187 -2.356 0
M  V30 5112 H 490.589 -3.59949 -0.695161 0
M  V30 5113 H 490.237 -3.92136 -3.15021 0
M  V30 5114 H 489.937 -5.42854 -2.24908 0
M  V30 5115 H 491.461 -5.22527 -3.15908 0
M  V30 5116 H 492.875 -5.65721 -0.929097 0
M  V30 5117 H 491.272 -5.99716 -0.214664 0
M  V30 5118 H 492.342 -4.81629 0.562287 0
M  V30 5119 N 493.685 -0.035106 -1.57561 0
M  V30 5120 C 494.615 0.942993 -2.13612 0
M  V30 5121 C 495.596 1.33531 -1.05373 0
M  V30 5122 O 496.781 1.41287 -1.33235 0
M  V30 5123 C 493.911 2.22332 -2.66807 0
M  V30 5124 C 492.865 1.97156 -3.79886 0
M  V30 5125 C 492.191 3.31506 -4.19533 0
M  V30 5126 C 493.491 1.30596 -5.05709 0
M  V30 5127 H 495.185 0.476179 -2.95589 0
M  V30 5128 H 492.731 0.227602 -1.4219 0
M  V30 5129 H 494.684 2.91142 -3.04654 0
M  V30 5130 H 493.408 2.7119 -1.81999 0
M  V30 5131 H 492.067 1.30763 -3.42486 0
M  V30 5132 H 491.715 3.78134 -3.31698 0
M  V30 5133 H 491.415 3.15465 -4.95738 0
M  V30 5134 H 492.939 4.01574 -4.59968 0
M  V30 5135 H 494.353 1.89416 -5.41105 0
M  V30 5136 H 492.75 1.24934 -5.86951 0
M  V30 5137 H 493.82 0.279742 -4.84092 0
M  V30 5138 N 495.163 1.55791 0.238111 0
M  V30 5139 C 496.095 1.87513 1.31802 0
M  V30 5140 C 497.108 0.762053 1.43863 0
M  V30 5141 O 498.297 1.04024 1.45056 0
M  V30 5142 C 495.397 2.05402 2.69561 0
M  V30 5143 C 494.57 3.3632 2.79656 0
M  V30 5144 C 493.629 3.43844 3.98319 0
M  V30 5145 O 492.655 4.16994 3.87433 0
M  V30 5146 N 493.857 2.73777 5.11885 0
M  V30 5147 H 496.622 2.80734 1.04922 0
M  V30 5148 H 494.183 1.56135 0.428196 0
M  V30 5149 H 496.175 2.07769 3.47296 0
M  V30 5150 H 494.745 1.18884 2.89111 0
M  V30 5151 H 493.965 3.46195 1.88528 0
M  V30 5152 H 495.253 4.22594 2.83358 0
M  V30 5153 H 494.651 2.14094 5.23622 0
M  V30 5154 H 493.208 2.81825 5.87723 0
M  V30 5155 N 496.642 -0.504142 1.49319 0
M  V30 5156 C 497.89 -1.25598 1.58334 0
M  V30 5157 C 498.211 -1.93114 0.270538 0
M  V30 5158 O 497.481 -1.82585 -0.709891 0
M  V30 5159 H 496.061 -0.466571 0.58337 0
M  V30 5160 H 498.723 -0.584547 1.85928 0
M  V30 5161 H 497.819 -2.02159 2.37778 0
M  V30 5162 N 498.12 -1.38341 -0.754957 0
M  V30 5163 C 499.07 -1.31964 -1.85929 0
M  V30 5164 C 500.054 -0.204181 -1.59599 0
M  V30 5165 O 501.246 -0.440036 -1.71443 0
M  V30 5166 C 498.375 -1.14565 -3.2362 0
M  V30 5167 C 497.461 -2.30727 -3.55846 0
M  V30 5168 N 497.852 -3.56165 -3.59138 0
M  V30 5169 C 496.15 -2.23249 -3.86104 0
M  V30 5170 C 496.851 -4.32865 -3.88591 0
M  V30 5171 N 495.827 -3.62203 -4.05351 0
M  V30 5172 H 499.629 -2.2694 -1.8675 0
M  V30 5173 H 497.143 -1.31553 -0.952243 0
M  V30 5174 H 499.14 -1.0808 -4.02647 0
M  V30 5175 H 497.8 -0.205212 -3.24051 0
M  V30 5176 H 498.811 -3.89854 -3.40932 0
M  V30 5177 H 495.488 -1.37357 -3.94258 0
M  V30 5178 H 496.878 -5.41504 -3.97773 0
M  V30 5179 N 499.598 0.982988 -1.23187 0
M  V30 5180 C 500.528 2.09301 -1.03515 0
M  V30 5181 C 501.509 1.70035 0.0471136 0
M  V30 5182 O 502.694 1.93847 -0.117029 0
M  V30 5183 C 499.824 3.4167 -0.622791 0
M  V30 5184 C 498.778 3.94828 -1.65211 0
M  V30 5185 C 498.104 5.23362 -1.09527 0
M  V30 5186 C 499.404 4.2439 -3.04451 0
M  V30 5187 H 501.098 2.26016 -1.96359 0
M  V30 5188 H 498.644 1.08611 -0.945501 0
M  V30 5189 H 500.597 4.18746 -0.472233 0
M  V30 5190 H 499.321 3.24811 0.341329 0
M  V30 5191 H 497.98 3.19895 -1.79061 0
M  V30 5192 H 497.628 5.02852 -0.122211 0
M  V30 5193 H 497.328 5.59895 -1.783 0
M  V30 5194 H 498.852 6.03062 -0.956511 0
M  V30 5195 H 500.266 4.92225 -2.93917 0
M  V30 5196 H 498.663 4.72118 -3.70438 0
M  V30 5197 H 499.733 3.31765 -3.53638 0
M  V30 5198 N 501.076 1.04316 1.18135 0
M  V30 5199 C 502.487 0.775505 1.69832 0
M  V30 5200 C 502.838 -0.703348 1.8316 0
M  V30 5201 O 501.963 -1.54729 1.51287 0
M  V30 5202 C 502.558 1.40112 3.0847 0
M  V30 5203 C 501.117 1.18172 3.57368 0
M  V30 5204 C 500.264 1.49022 2.33854 0
M  V30 5205 H 503.215 1.20925 1.02775 0
M  V30 5206 H 503.236 0.805672 3.71873 0
M  V30 5207 H 502.748 2.47744 2.98738 0
M  V30 5208 H 500.849 0.124258 3.72393 0
M  V30 5209 H 500.962 1.8805 4.40652 0
M  V30 5210 H 499.326 0.909995 2.37889 0
M  V30 5211 H 500.109 2.57768 2.26738 0
M  V30 5212 N 502.554 -1.34406 0.822964 0
M  V30 5213 C 503.484 -2.32052 0.259608 0
M  V30 5214 C 504.465 -1.58243 -0.623961 0
M  V30 5215 O 505.65 -1.86224 -0.55083 0
M  V30 5216 C 502.78 -3.42434 -0.579314 0
M  V30 5217 C 501.734 -4.27499 0.20712 0
M  V30 5218 C 501.06 -5.29349 -0.754547 0
M  V30 5219 C 502.36 -5.02758 1.41533 0
M  V30 5220 H 504.054 -2.79418 1.07545 0
M  V30 5221 H 501.6 -1.34338 0.518593 0
M  V30 5222 H 503.553 -4.0976 -0.983612 0
M  V30 5223 H 502.277 -2.93717 -1.4282 0
M  V30 5224 H 500.936 -3.61776 0.592787 0
M  V30 5225 H 500.584 -4.76895 -1.59939 0
M  V30 5226 H 500.284 -5.8714 -0.232561 0
M  V30 5227 H 501.808 -5.99544 -1.1567 0
M  V30 5228 H 503.222 -5.62938 1.08504 0
M  V30 5229 H 501.619 -5.70123 1.87296 0
M  V30 5230 H 502.689 -4.32451 2.1935 0
M  V30 5231 N 504.032 -0.577932 -1.46621 0
M  V30 5232 C 504.979 0.158048 -2.30258 0
M  V30 5233 C 505.949 0.888669 -1.40328 0
M  V30 5234 O 507.134 0.880283 -1.6928 0
M  V30 5235 C 504.274 1.16884 -3.24703 0
M  V30 5236 C 503.387 0.442163 -4.29731 0
M  V30 5237 C 502.522 1.44007 -5.11308 0
M  V30 5238 C 501.561 0.69952 -6.0809 0
M  V30 5239 N 500.698 1.64525 -6.82551 0
M  V30 5240 H 505.538 -0.561242 -2.92667 0
M  V30 5241 H 503.075 -0.288591 -1.44241 0
M  V30 5242 H 505.033 1.7677 -3.779 0
M  V30 5243 H 503.663 1.85591 -2.64113 0
M  V30 5244 H 502.715 -0.271632 -3.79429 0
M  V30 5245 H 504.027 -0.136992 -4.98612 0
M  V30 5246 H 503.181 2.11186 -5.68758 0
M  V30 5247 H 501.92 2.05315 -4.42377 0
M  V30 5248 H 500.925 0.0139217 -5.49798 0
M  V30 5249 H 502.15 0.091894 -6.79038 0
M  V30 5250 H 500.096 2.24653 -6.16334 0
M  V30 5251 H 500.013 1.11878 -7.47676 0
M  V30 5252 H 501.281 2.30754 -7.44562 0
M  V30 5253 N 505.51 1.54411 -0.315457 0
M  V30 5254 C 506.735 2.05299 0.294496 0
M  V30 5255 C 507.16 1.19052 1.4563 0
M  V30 5256 O 506.518 0.197804 1.80218 0
M  V30 5257 C 506.566 3.5345 0.714549 0
M  V30 5258 O 505.67 3.70175 1.81781 0
M  V30 5259 H 505.011 0.661743 0.0547019 0
M  V30 5260 H 507.541 1.99327 -0.461508 0
M  V30 5261 H 507.551 3.9557 0.999426 0
M  V30 5262 H 506.226 4.1568 -0.135244 0
M  V30 5263 H 504.803 3.3996 1.53236 0
M  V30 5264 N 506.988 0.0434614 1.5754 0
M  V30 5265 C 508.235 -0.632035 1.92384 0
M  V30 5266 C 508.563 -1.71304 0.921157 0
M  V30 5267 O 507.818 -1.95583 -0.067744 0
M  V30 5268 C 508.117 -1.2738 3.3393 0
M  V30 5269 C 507.783 -0.321757 4.49751 0
M  V30 5270 C 506.445 -0.0597611 4.81163 0
M  V30 5271 C 508.797 0.331158 5.20147 0
M  V30 5272 C 506.125 0.862715 5.80322 0
M  V30 5273 C 508.477 1.24178 6.20292 0
M  V30 5274 C 507.141 1.51252 6.50138 0
M  V30 5275 H 506.411 -0.231278 0.703983 0
M  V30 5276 H 509.058 0.108294 1.91194 0
M  V30 5277 H 507.363 -2.08921 3.3145 0
M  V30 5278 H 509.06 -1.80326 3.58167 0
M  V30 5279 H 505.65 -0.53614 4.25233 0
M  V30 5280 H 509.834 0.141826 4.96097 0
M  V30 5281 H 505.09 1.08003 6.01785 0
M  V30 5282 H 509.264 1.75381 6.73954 0
M  V30 5283 H 506.891 2.22897 7.26788 0
M  V30 5284 N 508.466 -1.55915 -0.229846 0
M  V30 5285 C 509.694 -1.82617 -0.972562 0
M  V30 5286 C 510.109 -0.621488 -1.78278 0
M  V30 5287 O 509.466 0.409956 -1.77836 0
M  V30 5288 C 509.517 -3.0774 -1.89679 0
M  V30 5289 O 509.238 -4.23559 -1.11934 0
M  V30 5290 C 510.739 -3.47368 -2.75409 0
M  V30 5291 H 507.959 -0.60727 -0.285419 0
M  V30 5292 H 510.503 -2.02996 -0.247579 0
M  V30 5293 H 508.658 -2.89361 -2.57583 0
M  V30 5294 H 509.072 -4.94586 -1.74599 0
M  V30 5295 H 510.546 -4.37977 -3.35977 0
M  V30 5296 H 511.023 -2.68737 -3.47386 0
M  V30 5297 H 511.629 -3.68158 -2.12931 0
M  V30 5298 N 509.944 0.496216 -1.49584 0
M  V30 5299 C 510.907 1.57952 -1.66084 0
M  V30 5300 C 511.907 1.51729 -0.53244 0
M  V30 5301 O 513.097 1.54796 -0.79899 0
M  V30 5302 C 510.229 2.97604 -1.66268 0
M  V30 5303 H 511.422 1.44649 -2.6271 0
M  V30 5304 H 508.975 0.7208 -1.38687 0
M  V30 5305 H 509.71 3.16378 -0.712432 0
M  V30 5306 H 509.495 3.03528 -2.4822 0
M  V30 5307 H 510.985 3.76301 -1.81073 0
M  V30 5308 N 511.423 1.38739 0.74761 0
M  V30 5309 C 512.669 1.35475 1.50912 0
M  V30 5310 C 513.002 -0.0533093 1.94127 0
M  V30 5311 O 512.277 -1.01572 1.65871 0
M  V30 5312 C 512.56 2.31582 2.75757 0
M  V30 5313 C 512.413 3.81274 2.38642 0
M  V30 5314 C 513.732 2.25722 3.77806 0
M  V30 5315 H 510.851 0.493427 0.547447 0
M  V30 5316 H 513.493 1.69634 0.855823 0
M  V30 5317 H 511.643 2.02582 3.31501 0
M  V30 5318 H 513.315 4.20972 1.88626 0
M  V30 5319 H 511.558 3.98664 1.71025 0
M  V30 5320 H 512.229 4.4399 3.27989 0
M  V30 5321 H 514.705 2.51336 3.31616 0
M  V30 5322 H 513.581 2.95069 4.62845 0
M  V30 5323 H 513.842 1.25803 4.23823 0
M  V30 5324 N 512.901 -0.976442 1.23707 0
M  V30 5325 C 514.141 -1.73331 1.08332 0
M  V30 5326 C 514.505 -1.88346 -0.372781 0
M  V30 5327 O 515.706 -2.60877 -0.647813 0
M  V30 5328 C 513.977 -3.09159 1.7932 0
M  V30 5329 S 515.536 -4.00376 1.79567 0
M  V30 5330 H 512.354 -0.596045 0.387622 0
M  V30 5331 H 514.956 -1.16625 1.56904 0
M  V30 5332 H 513.66 -2.95884 2.84395 0
M  V30 5333 H 513.191 -3.70932 1.31046 0
M  V30 5334 H 515.206 -4.88742 0.857094 0
M  V30 5335 N 514.379 -1.04941 -1.1758 0
M  V30 5336 C 515.311 -0.606174 -2.21039 0
M  V30 5337 C 516.324 0.328763 -1.59446 0
M  V30 5338 O 517.513 0.121895 -1.78083 0
M  V30 5339 C 514.613 0.133294 -3.38638 0
M  V30 5340 C 513.786 -0.811711 -4.29802 0
M  V30 5341 C 512.845 -0.113958 -5.26077 0
M  V30 5342 O 511.871 -0.747237 -5.64274 0
M  V30 5343 N 513.073 1.14953 -5.69004 0
M  V30 5344 H 515.838 -1.49606 -2.59689 0
M  V30 5345 H 513.399 -0.930997 -1.32454 0
M  V30 5346 H 515.391 0.610144 -4.00074 0
M  V30 5347 H 513.961 0.924816 -2.98607 0
M  V30 5348 H 513.181 -1.46824 -3.65837 0
M  V30 5349 H 514.469 -1.45326 -4.87604 0
M  V30 5350 H 513.867 1.68441 -5.40041 0
M  V30 5351 H 512.424 1.57049 -6.32597 0
M  V30 5352 N 515.857 1.33968 -0.830081 0
M  V30 5353 C 516.804 2.29387 -0.255008 0
M  V30 5354 C 517.774 1.53923 0.624243 0
M  V30 5355 O 518.959 1.82262 0.564372 0
M  V30 5356 C 516.099 3.4034 0.571209 0
M  V30 5357 C 515.212 4.30729 -0.331083 0
M  V30 5358 C 514.347 5.2879 0.505389 0
M  V30 5359 C 513.386 6.10819 -0.395843 0
M  V30 5360 N 512.523 7.00948 0.401979 0
M  V30 5361 H 517.363 2.77972 -1.07404 0
M  V30 5362 H 514.9 1.36785 -0.541133 0
M  V30 5363 H 516.858 4.03361 1.06562 0
M  V30 5364 H 515.488 2.9297 1.35529 0
M  V30 5365 H 514.54 3.68507 -0.943759 0
M  V30 5366 H 515.852 4.88181 -1.02377 0
M  V30 5367 H 515.006 5.97297 1.06399 0
M  V30 5368 H 513.745 4.71894 1.23155 0
M  V30 5369 H 512.75 5.41238 -0.966529 0
M  V30 5370 H 513.975 6.69797 -1.12023 0
M  V30 5371 H 511.921 6.46512 1.11168 0
M  V30 5372 H 511.838 7.55643 -0.232167 0
M  V30 5373 H 513.106 7.73774 0.943102 0
M  V30 5374 N 517.335 0.585699 1.46312 0
M  V30 5375 C 518.612 0.00542031 1.95599 0
M  V30 5376 C 518.992 -1.45619 1.52834 0
M  V30 5377 O 518.34 -2.14759 0.780446 0
M  V30 5378 C 518.55 0.180601 3.48532 0
M  V30 5379 C 519.898 0.049979 4.24571 0
M  V30 5380 O 520.922 0.109589 3.56031 0
M  V30 5381 O 519.781 -0.0832226 5.46437 0
M  V30 5382 H 516.875 -0.0481281 0.825598 0
M  V30 5383 H 519.421 0.654227 1.56582 0
M  V30 5384 H 518.193 1.19657 3.72556 0
M  V30 5385 H 517.816 -0.504498 3.94386 0
M  V30 5386 N 518.813 -1.54241 0.323641 0
M  V30 5387 C 520.061 -2.00174 -0.278359 0
M  V30 5388 C 520.382 -1.2134 -1.52648 0
M  V30 5389 O 519.652 -0.315244 -1.93347 0
M  V30 5390 H 518.232 -0.739463 -0.105845 0
M  V30 5391 H 520.894 -1.89864 0.440204 0
M  V30 5392 H 519.99 -3.07486 -0.5347 0
M  V30 5393 N 520.291 -0.0518155 -1.57515 0
M  V30 5394 C 521.516 0.634896 -1.97443 0
M  V30 5395 C 521.941 1.63546 -0.929207 0
M  V30 5396 O 521.299 1.80981 0.107484 0
M  V30 5397 C 521.347 1.29765 -3.36442 0
M  V30 5398 O 520.451 2.41333 -3.34413 0
M  V30 5399 H 519.792 0.164994 -0.643174 0
M  V30 5400 H 522.322 -0.120407 -2.04245 0
M  V30 5401 H 522.332 1.64918 -3.73184 0
M  V30 5402 H 521.007 0.564361 -4.12053 0
M  V30 5403 H 519.584 2.08122 -3.09418 0
M  V30 5404 N 521.769 1.56035 0.221574 0
M  V30 5405 C 523.015 1.80221 0.942973 0
M  V30 5406 C 523.37 0.624799 1.81973 0
M  V30 5407 O 522.663 -0.381145 1.87771 0
M  V30 5408 C 522.857 3.07813 1.8162 0
M  V30 5409 C 522.686 4.37852 1.02548 0
M  V30 5410 C 521.456 5.00138 0.720418 0
M  V30 5411 C 523.654 5.12813 0.390799 0
M  V30 5412 N 521.636 6.13831 -0.0917139 0
M  V30 5413 C 523.007 6.19346 -0.284728 0
M  V30 5414 C 525.062 4.96972 0.303828 0
M  V30 5415 C 523.765 7.11758 -1.03891 0
M  V30 5416 C 525.791 5.89784 -0.436883 0
M  V30 5417 C 525.153 6.95743 -1.10095 0
M  V30 5418 H 521.252 0.711117 0.325325 0
M  V30 5419 H 523.836 1.93522 0.213854 0
M  V30 5420 H 522.007 2.95795 2.51714 0
M  V30 5421 H 523.739 3.20191 2.47508 0
M  V30 5422 H 520.494 4.62075 1.03843 0
M  V30 5423 H 520.918 6.75249 -0.486615 0
M  V30 5424 H 525.56 4.15107 0.802896 0
M  V30 5425 H 523.278 7.93105 -1.54949 0
M  V30 5426 H 526.864 5.79603 -0.505181 0
M  V30 5427 H 525.744 7.66322 -1.66495 0
M  V30 5428 N 523.247 -0.488276 1.49845 0
M  V30 5429 C 524.524 -1.24959 1.50481 0
M  V30 5430 C 524.904 -2.09735 0.239698 0
M  V30 5431 O 524.252 -2.14865 -0.777524 0
M  V30 5432 C 524.462 -2.0954 2.79095 0
M  V30 5433 C 525.81 -2.68305 3.29086 0
M  V30 5434 O 526.834 -2.19797 2.80299 0
M  V30 5435 O 525.693 -3.56643 4.14087 0
M  V30 5436 H 522.787 -0.566133 0.602845 0
M  V30 5437 H 525.333 -0.501504 1.6212 0
M  V30 5438 H 524.105 -1.46958 3.62656 0
M  V30 5439 H 523.728 -2.91517 2.70377 0
M  V30 5440 N 524.725 -1.39134 -0.740242 0
M  V30 5441 C 526.141 -1.20623 -1.0451 0
M  V30 5442 C 526.341 -0.0641651 -2.01398 0
M  V30 5443 O 525.397 0.585843 -2.4561 0
M  V30 5444 C 526.71 -2.53815 -1.6124 0
M  V30 5445 C 528.258 -2.60615 -1.73346 0
M  V30 5446 C 528.733 -3.94015 -2.33486 0
M  V30 5447 N 530.224 -3.95627 -2.40902 0
M  V30 5448 C 530.959 -4.95616 -2.88361 0
M  V30 5449 N 530.455 -6.06003 -3.35756 0
M  V30 5450 N 532.248 -4.82998 -2.87523 0
M  V30 5451 H 524.399 -2.12176 -0.0975576 0
M  V30 5452 H 526.662 -0.942066 -0.105904 0
M  V30 5453 H 526.368 -3.37911 -0.975144 0
M  V30 5454 H 526.242 -2.73162 -2.6012 0
M  V30 5455 H 528.629 -1.76906 -2.36195 0
M  V30 5456 H 528.71 -2.45123 -0.731336 0
M  V30 5457 H 528.354 -4.78153 -1.71267 0
M  V30 5458 H 528.284 -4.06825 -3.34366 0
M  V30 5459 H 530.775 -3.15903 -2.07398 0
M  V30 5460 H 531.088 -6.78215 -3.70464 0
M  V30 5461 H 529.433 -6.09604 -3.33778 0
M  V30 5462 H 532.624 -3.95866 -2.49816 0
M  V30 5463 H 532.797 -5.61072 -3.24196 0
M  V30 5464 N 526.204 0.969867 -1.24223 0
M  V30 5465 C 527.615 1.52717 -1.07399 0
M  V30 5466 C 527.966 1.92956 0.355298 0
M  V30 5467 O 527.091 1.77112 1.2434 0
M  V30 5468 C 527.686 2.77521 -1.94339 0
M  V30 5469 C 526.245 3.29615 -1.81744 0
M  V30 5470 C 525.392 2.02537 -1.89405 0
M  V30 5471 H 528.343 0.788399 -1.37732 0
M  V30 5472 H 528.364 3.50773 -1.47439 0
M  V30 5473 H 527.876 2.48203 -2.98357 0
M  V30 5474 H 525.977 3.63789 -0.805505 0
M  V30 5475 H 526.09 3.98661 -2.65718 0
M  V30 5476 H 524.454 2.17151 -1.33108 0
M  V30 5477 H 525.237 1.75587 -2.94999 0
M  V30 5478 N 527.682 1.05563 1.17022 0
M  V30 5479 C 528.615 0.604197 2.20056 0
M  V30 5480 C 529.593 -0.369169 1.58354 0
M  V30 5481 O 530.777 -0.279898 1.8641 0
M  V30 5482 C 527.904 -0.115265 3.38504 0
M  V30 5483 C 526.95 0.813698 4.18666 0
M  V30 5484 S 527.783 2.30492 4.83357 0
M  V30 5485 C 528.939 1.59674 6.0519 0
M  V30 5486 H 529.172 1.47713 2.58008 0
M  V30 5487 H 526.705 0.867932 1.27696 0
M  V30 5488 H 528.663 -0.524162 4.0714 0
M  V30 5489 H 527.324 -0.964284 2.98932 0
M  V30 5490 H 526.517 0.256736 5.03346 0
M  V30 5491 H 526.119 1.16213 3.55486 0
M  V30 5492 H 528.411 0.898164 6.7152 0
M  V30 5493 H 529.354 2.42115 6.65422 0
M  V30 5494 H 529.762 1.08252 5.54023 0
M  V30 5495 N 529.16 -1.33526 0.837174 0
M  V30 5496 C 530.571 -1.80182 0.489017 0
M  V30 5497 C 530.922 -1.69285 -0.991826 0
M  V30 5498 O 530.047 -1.24113 -1.77271 0
M  V30 5499 C 530.642 -3.27149 0.880866 0
M  V30 5500 C 529.201 -3.71828 0.584872 0
M  V30 5501 C 528.348 -2.54974 1.09011 0
M  V30 5502 H 531.299 -1.21071 1.02603 0
M  V30 5503 H 531.32 -3.80024 0.190239 0
M  V30 5504 H 530.832 -3.35048 1.95869 0
M  V30 5505 H 528.933 -3.69457 -0.48295 0
M  V30 5506 H 529.046 -4.65366 1.13892 0
M  V30 5507 H 527.41 -2.4952 0.511047 0
M  V30 5508 H 528.193 -2.65637 2.17467 0
M  V30 5509 N 530.638 -0.59345 -1.46 0
M  V30 5510 C 531.601 0.123538 -2.28867 0
M  V30 5511 C 532.601 0.808628 -1.38989 0
M  V30 5512 O 533.791 0.658945 -1.61256 0
M  V30 5513 C 530.923 1.1847 -3.19653 0
M  V30 5514 H 532.116 -0.604843 -2.93737 0
M  V30 5515 H 529.669 -0.351875 -1.52288 0
M  V30 5516 H 530.404 1.94431 -2.59552 0
M  V30 5517 H 530.189 0.69783 -3.8584 0
M  V30 5518 H 531.679 1.68726 -3.81997 0
M  V30 5519 N 532.116 1.54067 -0.331816 0
M  V30 5520 C 533.356 2.02625 0.26876 0
M  V30 5521 C 533.72 1.21462 1.48697 0
M  V30 5522 O 534.921 1.59863 2.16096 0
M  V30 5523 C 533.192 3.52554 0.586577 0
M  V30 5524 S 534.751 4.23035 1.16563 0
M  V30 5525 H 531.569 0.706395 0.0807862 0
M  V30 5526 H 534.171 1.89844 -0.466856 0
M  V30 5527 H 532.875 4.09242 -0.308046 0
M  V30 5528 H 532.406 3.69432 1.35217 0
M  V30 5529 H 534.421 4.31382 2.45203 0
M  V30 5530 N 533.594 0.0601682 1.57485 0
M  V30 5531 C 534.819 -0.624416 1.97777 0
M  V30 5532 C 535.244 -1.63051 0.937867 0
M  V30 5533 O 534.602 -1.81036 -0.0978845 0
M  V30 5534 C 534.65 -1.27979 3.37126 0
M  V30 5535 O 533.754 -2.39556 3.35688 0
M  V30 5536 H 533.095 -0.161581 0.64404 0
M  V30 5537 H 535.625 0.131237 2.04179 0
M  V30 5538 H 535.635 -1.62937 3.74053 0
M  V30 5539 H 534.31 -0.542501 4.12347 0
M  V30 5540 H 532.887 -2.06478 3.10517 0
M  V30 5541 N 535.072 -1.5615 -0.213296 0
M  V30 5542 C 536.321 -1.78743 -0.93455 0
M  V30 5543 C 536.634 -0.630199 -1.8517 0
M  V30 5544 O 537.84 -0.739966 -2.61222 0
M  V30 5545 C 536.296 -3.16571 -1.71203 0
M  V30 5546 C 535.904 -4.40043 -0.840617 0
M  V30 5547 C 537.648 -3.48485 -2.42401 0
M  V30 5548 C 535.555 -5.68895 -1.61592 0
M  V30 5549 H 534.485 -0.666426 -0.352692 0
M  V30 5550 H 537.136 -1.82532 -0.188227 0
M  V30 5551 H 535.518 -3.06981 -2.50157 0
M  V30 5552 H 536.692 -4.6071 -0.0910326 0
M  V30 5553 H 535.007 -4.15706 -0.240365 0
M  V30 5554 H 537.604 -4.41983 -3.00924 0
M  V30 5555 H 537.947 -2.71371 -3.15695 0
M  V30 5556 H 538.48 -3.59442 -1.7043 0
M  V30 5557 H 535.219 -6.48925 -0.926106 0
M  V30 5558 H 534.739 -5.52275 -2.33991 0
M  V30 5559 H 536.418 -6.09365 -2.17447 0
M  V30 5560 N 536.55 0.480323 -1.50102 0
M  V30 5561 C 537.796 1.23489 -1.60867 0
M  V30 5562 C 538.129 1.91809 -0.303827 0
M  V30 5563 O 537.404 1.81694 0.694092 0
M  V30 5564 C 537.687 2.28578 -2.78252 0
M  V30 5565 C 537.54 1.64624 -4.18592 0
M  V30 5566 C 538.859 3.2997 -2.91218 0
M  V30 5567 H 535.978 0.447605 -0.585507 0
M  V30 5568 H 538.62 0.530005 -1.82458 0
M  V30 5569 H 536.77 2.88697 -2.59974 0
M  V30 5570 H 538.442 1.08173 -4.48438 0
M  V30 5571 H 536.685 0.949645 -4.23278 0
M  V30 5572 H 537.356 2.40946 -4.96638 0
M  V30 5573 H 539.832 2.79864 -3.07921 0
M  V30 5574 H 538.708 4.00839 -3.74993 0
M  V30 5575 H 538.969 3.93541 -2.0144 0
M  V30 5576 N 538.028 1.39524 0.732853 0
M  V30 5577 C 539.305 1.27373 1.48444 0
M  V30 5578 C 539.685 -0.115725 2.10783 0
M  V30 5579 O 539.033 -1.12713 1.98766 0
M  V30 5580 C 539.243 2.39966 2.53412 0
M  V30 5581 C 540.591 2.79384 3.19733 0
M  V30 5582 O 541.615 2.39431 2.63725 0
M  V30 5583 O 540.474 3.48353 4.21085 0
M  V30 5584 H 537.568 0.499272 0.659285 0
M  V30 5585 H 540.114 1.51403 0.766496 0
M  V30 5586 H 538.886 3.32845 2.05742 0
M  V30 5587 H 538.509 2.17612 3.32762 0
M  V30 5588 N 539.506 -0.963266 1.24736 0
M  V30 5589 C 540.746 -1.72172 1.10165 0
M  V30 5590 C 541.11 -1.88731 -0.352784 0
M  V30 5591 O 542.311 -2.61549 -0.620107 0
M  V30 5592 C 540.582 -3.0724 1.82589 0
M  V30 5593 S 542.141 -3.98449 1.83803 0
M  V30 5594 H 538.959 -0.591901 0.393922 0
M  V30 5595 H 541.561 -1.14955 1.58132 0
M  V30 5596 H 540.265 -2.92851 2.87518 0
M  V30 5597 H 539.796 -3.69521 1.34973 0
M  V30 5598 H 541.811 -4.87805 0.908883 0
M  V30 5599 N 540.985 -1.06182 -1.16461 0
M  V30 5600 C 542.233 -0.776326 -1.86595 0
M  V30 5601 C 542.554 0.69921 -1.82033 0
M  V30 5602 O 541.824 1.50579 -1.2531 0
M  V30 5603 H 540.404 -0.284184 -0.690832 0
M  V30 5604 H 543.066 -1.34308 -1.41235 0
M  V30 5605 H 542.162 -1.10022 -2.92064 0
M  V30 5606 N 542.463 1.3308 -0.844243 0
M  V30 5607 C 543.874 1.7992 -0.498566 0
M  V30 5608 C 544.225 1.69808 0.982834 0
M  V30 5609 O 543.35 1.25051 1.7661 0
M  V30 5610 C 543.945 3.26677 -0.898204 0
M  V30 5611 C 542.504 3.71513 -0.604583 0
M  V30 5612 C 541.651 2.54393 -1.10362 0
M  V30 5613 H 544.602 1.20526 -1.03244 0
M  V30 5614 H 544.623 3.79918 -0.21039 0
M  V30 5615 H 544.135 3.34004 -1.97643 0
M  V30 5616 H 542.236 3.69708 0.46335 0
M  V30 5617 H 542.349 4.64755 -1.16358 0
M  V30 5618 H 540.713 2.49246 -0.524273 0
M  V30 5619 H 541.496 2.6448 -2.18873 0
M  V30 5620 N 543.941 0.601185 1.45683 0
M  V30 5621 C 545.352 0.179659 1.85834 0
M  V30 5622 C 545.703 -1.26189 1.50236 0
M  V30 5623 O 544.828 -1.95587 0.925987 0
M  V30 5624 C 545.423 0.319277 3.37292 0
M  V30 5625 C 543.982 -0.0475092 3.7637 0
M  V30 5626 C 543.129 0.646692 2.69654 0
M  V30 5627 H 546.08 0.808268 1.36575 0
M  V30 5628 H 546.101 -0.4503 3.77826 0
M  V30 5629 H 545.613 1.36855 3.6317 0
M  V30 5630 H 543.714 -1.0962 3.5611 0
M  V30 5631 H 543.827 0.34168 4.7788 0
M  V30 5632 H 542.191 0.0849971 2.54558 0
M  V30 5633 H 542.974 1.69797 2.98369 0
M  V30 5634 N 545.419 -1.53889 0.339982 0
M  V30 5635 C 546.696 -1.93084 -0.312719 0
M  V30 5636 C 547.076 -1.2712 -1.68534 0
M  V30 5637 O 546.424 -0.420835 -2.24591 0
M  V30 5638 C 546.634 -3.4683 -0.388558 0
M  V30 5639 C 547.982 -4.19732 -0.641088 0
M  V30 5640 O 549.006 -3.53075 -0.470818 0
M  V30 5641 O 547.865 -5.3781 -0.970685 0
M  V30 5642 H 544.959 -0.806784 -0.18174 0
M  V30 5643 H 547.505 -1.65137 0.390898 0
M  V30 5644 H 546.277 -3.87055 0.574821 0
M  V30 5645 H 545.9 -3.80933 -1.1391 0
M  V30 5646 N 546.897 -0.0685191 -1.57451 0
M  V30 5647 C 548.174 0.642167 -1.84758 0
M  V30 5648 C 548.554 1.87991 -0.960344 0
M  V30 5649 O 547.902 2.28485 -0.0257894 0
M  V30 5650 C 548.112 0.982946 -3.34872 0
M  V30 5651 C 549.46 1.35784 -4.02303 0
M  V30 5652 O 550.484 1.07477 -3.39598 0
M  V30 5653 O 549.343 1.88681 -5.12895 0
M  V30 5654 H 546.437 0.318625 -0.763156 0
M  V30 5655 H 548.983 -0.0992015 -1.6941 0
M  V30 5656 H 547.755 0.10372 -3.91163 0
M  V30 5657 H 547.378 1.78119 -3.55471 0
M  V30 5658 N 548.375 1.56261 0.205012 0
M  V30 5659 C 549.305 1.96779 1.257 0
M  V30 5660 C 550.286 0.838309 1.48008 0
M  V30 5661 O 551.471 1.10189 1.59913 0
M  V30 5662 C 548.601 2.29876 2.60335 0
M  V30 5663 C 547.555 3.45469 2.52656 0
M  V30 5664 C 546.881 3.64215 3.91473 0
M  V30 5665 C 548.181 4.79954 2.06014 0
M  V30 5666 H 549.875 2.84904 0.920338 0
M  V30 5667 H 547.421 1.37072 0.441277 0
M  V30 5668 H 549.374 2.56814 3.34102 0
M  V30 5669 H 548.098 1.38622 2.95722 0
M  V30 5670 H 546.757 3.18605 1.81345 0
M  V30 5671 H 546.405 2.70309 4.24196 0
M  V30 5672 H 546.105 4.41973 3.87213 0
M  V30 5673 H 547.629 3.93519 4.66878 0
M  V30 5674 H 549.043 5.05989 2.69533 0
M  V30 5675 H 547.44 5.61111 2.12777 0
M  V30 5676 H 548.51 4.74201 1.01297 0
M  V30 5677 N 549.853 -0.472356 1.50355 0
M  V30 5678 C 551.264 -1.05326 1.54154 0
M  V30 5679 C 551.615 -1.93155 0.344303 0
M  V30 5680 O 550.74 -2.09479 -0.542928 0
M  V30 5681 C 551.335 -1.91691 2.79356 0
M  V30 5682 C 549.894 -2.44892 2.8584 0
M  V30 5683 C 549.041 -1.23205 2.48426 0
M  V30 5684 H 551.992 -0.255027 1.56637 0
M  V30 5685 H 552.013 -2.76742 2.6114 0
M  V30 5686 H 551.525 -1.27741 3.66475 0
M  V30 5687 H 549.626 -3.12399 2.0307 0
M  V30 5688 H 549.739 -2.80086 3.88701 0
M  V30 5689 H 548.103 -1.56643 2.00836 0
M  V30 5690 H 548.886 -0.609194 3.37852 0
M  V30 5691 N 551.331 -1.39911 -0.725443 0
M  V30 5692 C 552.556 -1.41137 -1.5197 0
M  V30 5693 C 552.981 -0.010262 -1.88097 0
M  V30 5694 O 552.339 0.979184 -1.52583 0
M  V30 5695 C 552.387 -2.2994 -2.77777 0
M  V30 5696 O 551.491 -1.73586 -3.74088 0
M  V30 5697 H 550.832 -0.480219 -0.458569 0
M  V30 5698 H 553.362 -1.84023 -0.894249 0
M  V30 5699 H 553.372 -2.44785 -3.26411 0
M  V30 5700 H 552.047 -3.31759 -2.50816 0
M  V30 5701 H 550.624 -1.68035 -3.32894 0
M  V30 5702 N 552.809 0.956637 -1.25245 0
M  V30 5703 C 554.057 1.69764 -1.09657 0
M  V30 5704 C 554.378 1.91583 0.363464 0
M  V30 5705 O 553.648 1.50149 1.25825 0
M  V30 5706 H 552.228 0.629097 -0.402798 0
M  V30 5707 H 554.89 1.15026 -1.57337 0
M  V30 5708 H 553.986 2.67769 -1.60331 0
M  V30 5709 N 554.287 1.06798 1.15896 0
M  V30 5710 C 555.703 0.792423 1.38538 0
M  V30 5711 C 555.903 -0.60592 1.92174 0
M  V30 5712 O 554.959 -1.36561 2.12385 0
M  V30 5713 C 556.272 1.86157 2.36149 0
M  V30 5714 C 557.82 1.88567 2.49823 0
M  V30 5715 C 558.295 2.9455 3.5072 0
M  V30 5716 N 559.786 2.93616 3.58251 0
M  V30 5717 C 560.521 3.72267 4.36125 0
M  V30 5718 N 560.017 4.60751 5.17379 0
M  V30 5719 N 561.81 3.60637 4.31158 0
M  V30 5720 H 553.961 1.96993 0.794198 0
M  V30 5721 H 556.224 0.853942 0.411688 0
M  V30 5722 H 555.93 2.86603 2.03843 0
M  V30 5723 H 555.804 1.71692 3.3586 0
M  V30 5724 H 558.191 0.887765 2.8143 0
M  V30 5725 H 558.272 2.0711 1.5013 0
M  V30 5726 H 557.916 3.94537 3.19849 0
M  V30 5727 H 557.846 2.73255 4.50155 0
M  V30 5728 H 560.337 2.29472 3.00252 0
M  V30 5729 H 560.65 5.17408 5.74028 0
M  V30 5730 H 558.995 4.64803 5.16704 0
M  V30 5731 H 562.186 2.90892 3.66742 0
M  V30 5732 H 562.359 4.22176 4.91601 0
M  V30 5733 N 555.766 -1.3263 0.851289 0
M  V30 5734 C 557.012 -1.9766 0.453694 0
M  V30 5735 C 557.345 -1.67225 -0.987396 0
M  V30 5736 O 556.62 -0.958693 -1.69232 0
M  V30 5737 C 556.903 -3.5344 0.68936 0
M  V30 5738 C 556.756 -3.93517 2.17862 0
M  V30 5739 C 558.075 -4.39866 0.143555 0
M  V30 5740 H 555.194 -0.717989 0.166314 0
M  V30 5741 H 557.836 -1.57068 1.06909 0
M  V30 5742 H 555.986 -3.88147 0.165546 0
M  V30 5743 H 557.658 -3.69006 2.76826 0
M  V30 5744 H 555.901 -3.42798 2.65841 0
M  V30 5745 H 556.572 -5.02065 2.29422 0
M  V30 5746 H 559.048 -4.11875 0.591451 0
M  V30 5747 H 557.924 -5.47858 0.338043 0
M  V30 5748 H 558.185 -4.31696 -0.953466 0
M  V30 5749 N 557.244 -0.608902 -1.45362 0
M  V30 5750 C 558.154 0.110969 -2.34337 0
M  V30 5751 C 559.17 0.859007 -1.51318 0
M  V30 5752 O 560.346 0.816296 -1.84116 0
M  V30 5753 C 557.411 1.09494 -3.28956 0
M  V30 5754 C 556.472 0.348718 -4.27881 0
M  V30 5755 C 555.705 1.28582 -5.17979 0
M  V30 5756 O 555.928 2.52369 -5.11533 0
M  V30 5757 O 554.862 0.782172 -5.96796 0
M  V30 5758 H 558.688 -0.620258 -2.97299 0
M  V30 5759 H 556.273 -0.36916 -1.44767 0
M  V30 5760 H 558.155 1.66163 -3.87257 0
M  V30 5761 H 556.83 1.80717 -2.68557 0
M  V30 5762 H 555.737 -0.260465 -3.73192 0
M  V30 5763 H 557.07 -0.323049 -4.91139 0
M  V30 5764 N 558.722 1.53707 -0.348139 0
M  V30 5765 C 559.952 2.05108 0.247864 0
M  V30 5766 C 560.36 1.22252 1.44399 0
M  V30 5767 O 559.703 0.251853 1.81965 0
M  V30 5768 C 559.765 3.52171 0.722187 0
M  V30 5769 C 559.429 4.5562 -0.354902 0
M  V30 5770 C 560.426 5.05883 -1.19911 0
M  V30 5771 C 558.111 4.99703 -0.510145 0
M  V30 5772 C 560.105 5.98814 -2.18406 0
M  V30 5773 C 557.792 5.92443 -1.49848 0
M  V30 5774 C 558.79 6.41887 -2.33389 0
M  V30 5775 O 558.478 7.32802 -3.3054 0
M  V30 5776 H 558.21 0.674086 0.0508296 0
M  V30 5777 H 560.764 1.99229 -0.49968 0
M  V30 5778 H 558.994 3.55529 1.52105 0
M  V30 5779 H 560.683 3.8652 1.23925 0
M  V30 5780 H 561.449 4.72586 -1.09028 0
M  V30 5781 H 557.328 4.60816 0.130274 0
M  V30 5782 H 560.872 6.3733 -2.83649 0
M  V30 5783 H 556.769 6.25155 -1.60786 0
M  V30 5784 H 557.537 7.50749 -3.26064 0
M  V30 5785 N 560.2 0.0768682 1.57412 0
M  V30 5786 C 561.449 -0.590679 1.92857 0
M  V30 5787 C 561.762 -1.70461 0.959293 0
M  V30 5788 O 562.968 -2.43207 1.20675 0
M  V30 5789 C 561.424 -1.10204 3.42612 0
M  V30 5790 C 561.032 -0.0188447 4.47996 0
M  V30 5791 C 562.776 -1.74336 3.87049 0
M  V30 5792 C 560.683 -0.544536 5.88888 0
M  V30 5793 H 559.613 -0.224411 0.71983 0
M  V30 5794 H 562.264 0.149924 1.82887 0
M  V30 5795 H 560.646 -1.89577 3.47673 0
M  V30 5796 H 561.82 0.755936 4.54557 0
M  V30 5797 H 560.135 0.526555 4.13057 0
M  V30 5798 H 562.732 -2.14708 4.89699 0
M  V30 5799 H 563.075 -2.60537 3.24694 0
M  V30 5800 H 563.608 -1.01577 3.84613 0
M  V30 5801 H 560.347 0.280426 6.549 0
M  V30 5802 H 559.867 -1.28673 5.85836 0
M  V30 5803 H 561.546 -1.01933 6.3892 0
M  V30 5804 N 561.678 -1.56367 -0.196722 0
M  V30 5805 C 562.906 -1.84639 -0.933608 0
M  V30 5806 C 563.321 -0.659164 -1.76919 0
M  V30 5807 O 562.678 0.372142 -1.78665 0
M  V30 5808 C 562.729 -3.11694 -1.83109 0
M  V30 5809 O 562.45 -4.25838 -1.02924 0
M  V30 5810 C 563.951 -3.53132 -2.67979 0
M  V30 5811 H 561.171 -0.613188 -0.272473 0
M  V30 5812 H 563.715 -2.03475 -0.204465 0
M  V30 5813 H 561.87 -2.94759 -2.51387 0
M  V30 5814 H 562.284 -4.98178 -1.64069 0
M  V30 5815 H 563.758 -4.45005 -3.26611 0
M  V30 5816 H 564.235 -2.76045 -3.41608 0
M  V30 5817 H 564.841 -3.72592 -2.05074 0
M  V30 5818 N 563.156 0.464375 -1.50603 0
M  V30 5819 C 564.404 1.21356 -1.61608 0
M  V30 5820 C 564.725 1.92329 -0.321643 0
M  V30 5821 O 563.995 1.84403 0.661232 0
M  V30 5822 H 562.575 0.45094 -0.595535 0
M  V30 5823 H 565.237 0.535046 -1.87412 0
M  V30 5824 H 564.333 1.95783 -2.43054 0
M  V30 5825 N 564.634 1.40294 0.718013 0
M  V30 5826 C 566.045 1.34289 1.29705 0
M  V30 5827 C 566.396 0.0152228 1.96194 0
M  V30 5828 O 565.521 -0.88682 1.97394 0
M  V30 5829 C 566.116 2.43219 2.3586 0
M  V30 5830 C 564.675 2.40682 2.89394 0
M  V30 5831 C 563.822 2.24223 1.63154 0
M  V30 5832 H 566.773 1.50135 0.514312 0
M  V30 5833 H 566.794 2.10986 3.16647 0
M  V30 5834 H 566.306 3.39836 1.87439 0
M  V30 5835 H 564.407 1.47756 3.42051 0
M  V30 5836 H 564.52 3.36177 3.41353 0
M  V30 5837 H 562.884 1.71696 1.88129 0
M  V30 5838 H 563.667 3.22834 1.16761 0
M  V30 5839 N 566.112 -0.949982 1.2575 0
M  V30 5840 C 567.36 -1.6918 1.10555 0
M  V30 5841 C 567.681 -1.91773 -0.353298 0
M  V30 5842 O 566.951 -1.50814 -1.25027 0
M  V30 5843 H 565.531 -0.626952 0.406129 0
M  V30 5844 H 568.193 -1.1419 1.57945 0
M  V30 5845 H 567.289 -2.66915 1.61749 0
M  V30 5846 N 567.59 -1.07411 -1.15328 0
M  V30 5847 C 568.836 -0.798831 -1.86404 0
M  V30 5848 C 569.169 0.673433 -1.8215 0
M  V30 5849 O 568.444 1.49428 -1.24505 0
M  V30 5850 C 568.727 -1.30846 -3.35487 0
M  V30 5851 C 568.58 -2.84532 -3.4837 0
M  V30 5852 C 569.899 -0.925486 -4.30259 0
M  V30 5853 H 567.018 -0.291659 -0.676834 0
M  V30 5854 H 569.66 -1.332 -1.35491 0
M  V30 5855 H 567.81 -0.854916 -3.78977 0
M  V30 5856 H 569.482 -3.3818 -3.13739 0
M  V30 5857 H 567.725 -3.22699 -2.8991 0
M  V30 5858 H 568.396 -3.15259 -4.53118 0
M  V30 5859 H 570.872 -1.3163 -3.94731 0
M  V30 5860 H 569.748 -1.3094 -5.33053 0
M  V30 5861 H 570.009 0.168525 -4.41779 0
M  V30 5862 N 569.068 1.32177 -0.85831 0
M  V30 5863 C 570.296 2.01313 -0.477582 0
M  V30 5864 C 570.711 1.6449 0.926736 0
M  V30 5865 O 570.068 0.868096 1.60531 0
M  V30 5866 C 570.119 3.56293 -0.611337 0
M  V30 5867 O 569.84 3.91794 -1.96034 0
M  V30 5868 C 571.341 4.42702 -0.230093 0
M  V30 5869 H 568.561 0.644323 -0.187322 0
M  V30 5870 H 571.105 1.68674 -1.15626 0
M  V30 5871 H 569.26 3.87395 0.0196494 0
M  V30 5872 H 569.674 4.86513 -1.95973 0
M  V30 5873 H 571.148 5.50727 -0.374674 0
M  V30 5874 H 571.625 4.3129 0.829779 0
M  V30 5875 H 572.231 4.16997 -0.836302 0
M  V30 5876 N 570.547 0.616602 1.45037 0
M  V30 5877 C 571.775 0.121968 2.0654 0
M  V30 5878 C 572.19 -1.19743 1.45969 0
M  V30 5879 O 571.547 -1.73133 0.577168 0
M  V30 5880 C 571.598 -0.0145171 3.61497 0
M  V30 5881 O 571.319 1.25269 4.19809 0
M  V30 5882 C 572.82 -0.539555 4.40004 0
M  V30 5883 H 570.04 0.0729837 0.667019 0
M  V30 5884 H 572.584 0.846891 1.8614 0
M  V30 5885 H 570.739 -0.689809 3.81209 0
M  V30 5886 H 571.153 1.08816 5.13088 0
M  V30 5887 H 572.627 -0.584112 5.48901 0
M  V30 5888 H 573.104 -1.56368 4.10421 0
M  V30 5889 H 573.71 0.101995 4.25178 0
M  V30 5890 N 572.025 -1.5352 0.356285 0
M  V30 5891 C 573.255 -2.05236 -0.236983 0
M  V30 5892 C 573.663 -1.23016 -1.43749 0
M  V30 5893 O 573.006 -0.2615 -1.81829 0
M  V30 5894 C 573.068 -3.52549 -0.7035 0
M  V30 5895 C 572.732 -4.55425 0.379059 0
M  V30 5896 C 573.729 -5.0524 1.22592 0
M  V30 5897 C 571.414 -4.99425 0.536638 0
M  V30 5898 C 573.408 -5.97647 2.21578 0
M  V30 5899 C 571.095 -5.9164 1.52988 0
M  V30 5900 C 572.093 -6.4064 2.3679 0
M  V30 5901 O 571.781 -7.31039 3.34421 0
M  V30 5902 H 571.513 -0.674346 -0.047254 0
M  V30 5903 H 574.067 -1.98962 0.510238 0
M  V30 5904 H 572.297 -3.56331 -1.50217 0
M  V30 5905 H 573.986 -3.87171 -1.21873 0
M  V30 5906 H 574.752 -4.72002 1.11532 0
M  V30 5907 H 570.631 -4.60879 -0.105834 0
M  V30 5908 H 574.175 -6.35816 2.87025 0
M  V30 5909 H 570.072 -6.24293 1.64099 0
M  V30 5910 H 570.84 -7.49009 3.30041 0
M  V30 5911 N 573.503 -0.0852151 -1.57369 0
M  V30 5912 C 574.45 0.877268 -2.13478 0
M  V30 5913 C 575.42 1.28642 -1.05073 0
M  V30 5914 O 576.605 1.36992 -1.32808 0
M  V30 5915 C 573.745 2.13464 -2.71159 0
M  V30 5916 C 572.858 1.77691 -3.93764 0
M  V30 5917 C 571.993 2.98139 -4.39643 0
M  V30 5918 C 571.032 2.58447 -5.54862 0
M  V30 5919 N 570.169 3.71698 -5.95639 0
M  V30 5920 H 575.009 0.391933 -2.95411 0
M  V30 5921 H 572.546 0.181796 -1.45972 0
M  V30 5922 H 574.504 2.87086 -3.02717 0
M  V30 5923 H 573.134 2.59514 -1.91969 0
M  V30 5924 H 572.186 0.940768 -3.68583 0
M  V30 5925 H 573.498 1.44497 -4.77412 0
M  V30 5926 H 572.652 3.80026 -4.72933 0
M  V30 5927 H 571.391 3.34536 -3.54876 0
M  V30 5928 H 570.396 1.74984 -5.21211 0
M  V30 5929 H 571.621 2.23205 -6.41371 0
M  V30 5930 H 569.567 4.07831 -5.13819 0
M  V30 5931 H 569.484 3.42317 -6.74059 0
M  V30 5932 H 570.752 4.54123 -6.33555 0
M  V30 5933 N 574.981 1.5647 0.188427 0
M  V30 5934 C 575.944 1.9421 1.21718 0
M  V30 5935 C 576.944 0.823901 1.38089 0
M  V30 5936 O 578.134 1.09122 1.35787 0
M  V30 5937 C 575.266 2.22197 2.58537 0
M  V30 5938 H 576.459 2.86252 0.894418 0
M  V30 5939 H 574.012 1.50263 0.430211 0
M  V30 5940 H 574.747 1.32814 2.95856 0
M  V30 5941 H 574.532 3.03688 2.48025 0
M  V30 5942 H 576.022 2.52376 3.3271 0
M  V30 5943 N 576.459 -0.456382 1.50847 0
M  V30 5944 C 577.705 -1.20914 1.62811 0
M  V30 5945 C 578.038 -1.91301 0.334304 0
M  V30 5946 O 577.313 -1.82775 -0.665098 0
M  V30 5947 C 577.596 -2.24122 2.81853 0
M  V30 5948 C 577.449 -1.57944 4.21158 0
M  V30 5949 C 578.768 -3.25295 2.96431 0
M  V30 5950 H 575.887 -0.438233 0.592554 0
M  V30 5951 H 578.529 -0.50091 1.83278 0
M  V30 5952 H 576.679 -2.84524 2.64534 0
M  V30 5953 H 578.351 -1.01025 4.50102 0
M  V30 5954 H 576.594 -0.882185 4.24735 0
M  V30 5955 H 577.265 -2.33014 5.00408 0
M  V30 5956 H 579.741 -2.7493 3.12335 0
M  V30 5957 H 578.617 -3.94822 3.81322 0
M  V30 5958 H 578.878 -3.90286 2.07676 0
M  V30 5959 N 577.937 -1.40673 -0.710563 0
M  V30 5960 C 579.186 -1.38525 -1.46607 0
M  V30 5961 C 579.499 0.0077024 -1.95598 0
M  V30 5962 O 580.705 0.151792 -2.71075 0
M  V30 5963 C 579.161 -2.43489 -2.6503 0
M  V30 5964 C 578.769 -3.88619 -2.22888 0
M  V30 5965 C 580.513 -2.50456 -3.42742 0
M  V30 5966 C 578.42 -4.85168 -3.3818 0
M  V30 5967 H 577.35 -0.515092 -0.550632 0
M  V30 5968 H 580.001 -1.66431 -0.772846 0
M  V30 5969 H 578.383 -2.0869 -3.36548 0
M  V30 5970 H 579.557 -4.32588 -1.58758 0
M  V30 5971 H 577.872 -3.85174 -1.58208 0
M  V30 5972 H 580.469 -3.19776 -4.28541 0
M  V30 5973 H 580.812 -1.53665 -3.86902 0
M  V30 5974 H 581.345 -2.84271 -2.78271 0
M  V30 5975 H 578.084 -5.8331 -2.99047 0
M  V30 5976 H 577.604 -4.4586 -4.01209 0
M  V30 5977 H 579.283 -5.05225 -4.04174 0
M  V30 5978 N 579.415 0.9433 -1.26252 0
M  V30 5979 C 580.347 2.04542 -1.03417 0
M  V30 5980 C 581.36 1.62799 0.0046911 0
M  V30 5981 O 582.549 1.76944 -0.235146 0
M  V30 5982 C 579.649 3.34511 -0.543671 0
M  V30 5983 C 578.822 4.05033 -1.65128 0
M  V30 5984 C 577.881 5.13273 -1.1592 0
M  V30 5985 O 576.907 5.38095 -1.85586 0
M  V30 5986 N 578.109 5.805 -0.00649279 0
M  V30 5987 H 580.874 2.24699 -1.98319 0
M  V30 5988 H 578.435 1.11264 -1.1761 0
M  V30 5989 H 580.427 4.04212 -0.198703 0
M  V30 5990 H 578.997 3.11042 0.311711 0
M  V30 5991 H 578.217 3.29275 -2.16729 0
M  V30 5992 H 579.505 4.48903 -2.39508 0
M  V30 5993 H 578.903 5.62767 0.575347 0
M  V30 5994 H 577.46 6.51201 0.279416 0
M  V30 5995 N 580.893 1.08022 1.14757 0
M  V30 5996 C 582.123 0.827646 1.89298 0
M  V30 5997 C 582.531 -0.623506 1.78631 0
M  V30 5998 O 581.874 -1.43991 1.14071 0
M  V30 5999 C 581.936 1.16553 3.40082 0
M  V30 6000 C 581.6 2.61866 3.74533 0
M  V30 6001 C 582.597 3.60116 3.74984 0
M  V30 6002 C 580.282 2.97619 4.04633 0
M  V30 6003 C 582.276 4.92151 4.05051 0
M  V30 6004 C 579.963 4.2985 4.34364 0
M  V30 6005 C 580.961 5.26926 4.34555 0
M  V30 6006 O 580.649 6.5678 4.63568 0
M  V30 6007 H 580.381 0.298396 0.606577 0
M  V30 6008 H 582.935 1.44187 1.46285 0
M  V30 6009 H 581.165 0.494296 3.83528 0
M  V30 6010 H 582.854 0.894407 3.95923 0
M  V30 6011 H 583.62 3.33837 3.51821 0
M  V30 6012 H 579.499 2.22702 4.03639 0
M  V30 6013 H 583.043 5.67915 4.05115 0
M  V30 6014 H 578.94 4.55879 4.56995 0
M  V30 6015 H 579.708 6.62035 4.81303 0
M  V30 6016 N 582.371 -1.3172 0.865308 0
M  V30 6017 C 583.596 -2.01591 0.487415 0
M  V30 6018 C 584.021 -1.6455 -0.911307 0
M  V30 6019 O 583.379 -0.851689 -1.6005 0
M  V30 6020 C 583.427 -3.54759 0.646401 0
M  V30 6021 O 582.531 -4.11185 -0.316284 0
M  V30 6022 H 581.872 -0.634884 0.194468 0
M  V30 6023 H 584.402 -1.68024 1.16744 0
M  V30 6024 H 584.412 -4.04438 0.537932 0
M  V30 6025 H 583.087 -3.8106 1.66632 0
M  V30 6026 H 581.664 -3.72543 -0.163162 0
M  V30 6027 N 583.85 -0.624285 -1.44708 0
M  V30 6028 C 585.09 -0.129273 -2.03991 0
M  V30 6029 C 585.454 1.22321 -1.47992 0
M  V30 6030 O 586.654 1.80993 -1.98734 0
M  V30 6031 C 584.926 -0.108231 -3.57236 0
M  V30 6032 S 586.485 0.323158 -4.37608 0
M  V30 6033 H 583.303 -0.0577318 -0.708652 0
M  V30 6034 H 585.904 -0.826139 -1.77187 0
M  V30 6035 H 584.609 -1.0958 -3.955 0
M  V30 6036 H 584.139 0.610101 -3.8864 0
M  V30 6037 H 586.154 1.56894 -4.70743 0
M  V30 6038 N 585.328 1.53329 -0.364422 0
M  V30 6039 C 586.238 2.29414 0.490552 0
M  V30 6040 C 587.254 1.35335 1.09363 0
M  V30 6041 O 588.43 1.68391 1.10483 0
M  V30 6042 C 585.495 3.06772 1.61529 0
M  V30 6043 C 584.556 4.16516 1.03986 0
M  V30 6044 C 583.789 4.90176 2.111 0
M  V30 6045 O 584.012 4.63687 3.32191 0
M  V30 6046 O 582.946 5.76134 1.74222 0
M  V30 6047 H 586.772 3.03428 -0.12856 0
M  V30 6048 H 584.357 1.48843 -0.128837 0
M  V30 6049 H 586.239 3.55082 2.26924 0
M  V30 6050 H 584.914 2.35596 2.21983 0
M  V30 6051 H 583.821 3.7246 0.349856 0
M  V30 6052 H 585.154 4.89855 0.4799 0
M  V30 6053 N 586.806 0.0935595 1.57322 0
M  V30 6054 C 587.716 -0.880192 2.17462 0
M  V30 6055 C 588.732 -1.31135 1.14366 0
M  V30 6056 O 589.908 -1.37958 1.46729 0
M  V30 6057 C 586.973 -2.12184 2.74188 0
M  V30 6058 C 586.034 -1.74503 3.92234 0
M  V30 6059 C 585.267 -2.92748 4.46245 0
M  V30 6060 O 585.49 -4.07427 3.99198 0
M  V30 6061 O 584.424 -2.71303 5.37288 0
M  V30 6062 H 588.25 -0.398516 3.01074 0
M  V30 6063 H 585.835 -0.130707 1.48827 0
M  V30 6064 H 587.717 -2.84953 3.10451 0
M  V30 6065 H 586.392 -2.59407 1.93623 0
M  V30 6066 H 585.299 -0.989186 3.60785 0
M  V30 6067 H 586.632 -1.32044 4.74157 0
M  V30 6068 N 588.284 -1.56567 -0.180126 0
M  V30 6069 C 589.512 -1.85618 -0.913972 0
M  V30 6070 C 589.927 -0.677892 -1.7621 0
M  V30 6071 O 589.284 0.353171 -1.7905 0
M  V30 6072 C 589.335 -3.13619 -1.79793 0
M  V30 6073 O 589.056 -4.26906 -0.98402 0
M  V30 6074 C 590.557 -3.55954 -2.64219 0
M  V30 6075 H 587.777 -0.616043 -0.265954 0
M  V30 6076 H 590.321 -2.03681 -0.182872 0
M  V30 6077 H 588.476 -2.97409 -2.48247 0
M  V30 6078 H 588.89 -4.9989 -1.58776 0
M  V30 6079 H 590.364 -4.48444 -3.21873 0
M  V30 6080 H 590.841 -2.79653 -3.38661 0
M  V30 6081 H 591.447 -3.74746 -2.01111 0
M  V30 6082 N 589.762 0.448376 -1.51087 0
M  V30 6083 C 591.009 1.19872 -1.63209 0
M  V30 6084 C 591.337 1.91451 -0.343062 0
M  V30 6085 O 590.592 1.83789 0.672321 0
M  V30 6086 C 590.891 2.24866 -2.77795 0
M  V30 6087 C 590.557 1.70378 -4.17471 0
M  V30 6088 C 589.219 1.55241 -4.55471 0
M  V30 6089 C 591.571 1.30203 -5.04675 0
M  V30 6090 C 588.899 0.983844 -5.78392 0
M  V30 6091 C 591.251 0.747798 -6.28165 0
M  V30 6092 C 589.915 0.583233 -6.64947 0
M  V30 6093 H 589.185 0.438642 -0.597222 0
M  V30 6094 H 591.832 0.49136 -1.85089 0
M  V30 6095 H 590.137 3.01598 -2.50092 0
M  V30 6096 H 591.834 2.82723 -2.84374 0
M  V30 6097 H 588.424 1.83134 -3.87505 0
M  V30 6098 H 592.608 1.40723 -4.75932 0
M  V30 6099 H 587.864 0.844007 -6.05546 0
M  V30 6100 H 592.038 0.427927 -6.95084 0
M  V30 6101 H 589.665 0.140532 -7.6007 0
M  V30 6102 N 591.24 1.41047 0.703093 0
M  V30 6103 C 592.47 1.43133 1.48985 0
M  V30 6104 C 592.878 0.0328537 1.89171 0
M  V30 6105 O 592.221 -0.956469 1.56835 0
M  V30 6106 C 592.283 2.26991 2.78775 0
M  V30 6107 C 591.947 3.7525 2.60837 0
M  V30 6108 C 592.944 4.67591 2.27276 0
M  V30 6109 C 590.629 4.19208 2.76712 0
M  V30 6110 C 592.623 6.01877 2.09817 0
M  V30 6111 C 590.31 5.53561 2.5887 0
M  V30 6112 C 591.308 6.4471 2.25472 0
M  V30 6113 O 590.996 7.76584 2.07778 0
M  V30 6114 H 590.728 0.489788 0.465922 0
M  V30 6115 H 593.282 1.85886 0.873822 0
M  V30 6116 H 591.512 1.79038 3.42757 0
M  V30 6117 H 593.201 2.20867 3.40547 0
M  V30 6118 H 593.967 4.34923 2.14633 0
M  V30 6119 H 589.846 3.48572 3.01693 0
M  V30 6120 H 593.39 6.72986 1.83671 0
M  V30 6121 H 589.287 5.85811 2.71102 0
M  V30 6122 H 590.055 7.87649 2.22601 0
M  V30 6123 N 592.718 -0.936591 1.26751 0
M  V30 6124 C 593.946 -1.71758 1.15355 0
M  V30 6125 C 594.361 -1.86549 -0.290683 0
M  V30 6126 O 593.718 -1.37616 -1.19868 0
M  V30 6127 C 593.769 -3.12193 1.82258 0
M  V30 6128 O 593.49 -2.98105 3.21038 0
M  V30 6129 C 594.991 -4.06485 1.76875 0
M  V30 6130 H 592.211 -0.537636 0.401483 0
M  V30 6131 H 594.755 -1.17382 1.67457 0
M  V30 6132 H 592.91 -3.63456 1.34083 0
M  V30 6133 H 593.324 -3.86824 3.54214 0
M  V30 6134 H 594.798 -5.02569 2.28316 0
M  V30 6135 H 595.275 -4.32986 0.736216 0
M  V30 6136 H 595.881 -3.61144 2.24623 0
M  V30 6137 N 594.196 -1.08629 -1.14182 0
M  V30 6138 C 595.129 -0.662329 -2.18377 0
M  V30 6139 C 596.107 0.327054 -1.59277 0
M  V30 6140 O 597.291 0.230376 -1.87087 0
M  V30 6141 C 594.418 0.0254765 -3.3869 0
M  V30 6142 C 593.464 -0.924414 -4.16361 0
M  V30 6143 S 594.297 -2.43226 -4.77076 0
M  V30 6144 C 595.453 -1.75663 -6.00744 0
M  V30 6145 H 595.686 -1.54501 -2.54001 0
M  V30 6146 H 593.219 -0.901484 -1.2535 0
M  V30 6147 H 595.177 0.416032 -4.08386 0
M  V30 6148 H 593.838 0.884689 -3.01384 0
M  V30 6149 H 593.031 -0.390099 -5.02488 0
M  V30 6150 H 592.633 -1.25598 -3.5228 0
M  V30 6151 H 594.925 -1.07589 -6.68903 0
M  V30 6152 H 595.868 -2.59673 -6.58768 0
M  V30 6153 H 596.276 -1.22903 -5.50958 0
M  V30 6154 N 595.674 1.31259 -0.872281 0
M  V30 6155 C 596.621 2.28459 -0.327857 0
M  V30 6156 C 597.591 1.55831 0.574957 0
M  V30 6157 O 598.776 1.83965 0.506101 0
M  V30 6158 C 595.916 3.41985 0.462644 0
M  V30 6159 C 595.029 4.29458 -0.467949 0
M  V30 6160 C 594.164 5.30131 0.336903 0
M  V30 6161 C 593.203 6.0925 -0.58997 0
M  V30 6162 N 592.34 7.01872 0.178775 0
M  V30 6163 H 597.18 2.74414 -1.16193 0
M  V30 6164 H 594.717 1.34994 -0.584376 0
M  V30 6165 H 596.675 4.06547 0.936759 0
M  V30 6166 H 595.305 2.97134 1.2614 0
M  V30 6167 H 594.357 3.65318 -1.06052 0
M  V30 6168 H 595.669 4.84677 -1.17856 0
M  V30 6169 H 594.823 6.0038 0.873427 0
M  V30 6170 H 593.562 4.75573 1.08079 0
M  V30 6171 H 592.567 5.37889 -1.13823 0
M  V30 6172 H 593.792 6.65894 -1.33275 0
M  V30 6173 H 591.738 6.49721 0.905435 0
M  V30 6174 H 591.655 7.54522 -0.472452 0
M  V30 6175 H 592.923 7.76382 0.696454 0
M  V30 6176 N 597.152 0.631951 1.44375 0
M  V30 6177 C 598.398 0.13697 2.02337 0
M  V30 6178 C 598.731 -1.23826 1.49602 0
M  V30 6179 O 598.006 -1.8221 0.680415 0
M  V30 6180 C 598.289 0.124536 3.59885 0
M  V30 6181 C 598.142 1.53217 4.229 0
M  V30 6182 C 599.461 -0.550481 4.36644 0
M  V30 6183 H 596.58 0.051247 0.735216 0
M  V30 6184 H 599.222 0.808581 1.71936 0
M  V30 6185 H 597.372 -0.44737 3.85916 0
M  V30 6186 H 599.044 2.15303 4.07973 0
M  V30 6187 H 597.287 2.0858 3.80364 0
M  V30 6188 H 597.958 1.4755 5.31914 0
M  V30 6189 H 600.434 -0.0641154 4.16051 0
M  V30 6190 H 599.31 -0.528371 5.46351 0
M  V30 6191 H 599.571 -1.62097 4.11311 0
M  V30 6192 N 598.631 -1.53133 0.372548 0
M  V30 6193 C 599.579 -2.27473 -0.485681 0
M  V30 6194 C 600.573 -1.30719 -1.07745 0
M  V30 6195 O 601.779 -1.48321 -1.01985 0
M  V30 6196 H 598.154 -0.731269 -0.175356 0
M  V30 6197 H 600.125 -2.97955 0.162986 0
M  V30 6198 C 598.874 -3.08191 -1.60978 0
M  V30 6199 H 598.197 -3.82488 -1.16373 0
M  V30 6200 H 599.637 -3.63373 -2.18485 0
M  V30 6201 C 598.096 -2.19461 -2.55614 0
M  V30 6202 O 598.626 -1.81008 -3.58607 0
M  V30 6203 N 596.832 -1.83955 -2.24965 0
M  V30 6204 H 596.379 -2.15423 -1.41247 0
M  V30 6205 H 596.337 -1.24874 -2.88538 0
M  V30 6206 N 600.109 -0.101901 -1.5727 0
M  V30 6207 C 601.386 0.602832 -1.86079 0
M  V30 6208 C 601.766 1.85912 -1 0
M  V30 6209 O 601.114 2.28379 -0.0742488 0
M  V30 6210 C 601.324 0.911694 -3.36881 0
M  V30 6211 C 602.672 1.2722 -4.05093 0
M  V30 6212 O 603.696 1.0025 -3.41802 0
M  V30 6213 O 602.555 1.7776 -5.16782 0
M  V30 6214 H 599.649 0.302366 -0.769743 0
M  V30 6215 H 602.195 -0.135113 -1.69161 0
M  V30 6216 H 600.967 0.0207256 -3.91295 0
M  V30 6217 H 600.59 1.70538 -3.59169 0
M  V30 6218 N 601.587 1.56661 0.17182 0
M  V30 6219 C 602.835 1.81606 0.886774 0
M  V30 6220 C 603.156 0.678818 1.82803 0
M  V30 6221 O 602.426 -0.301354 1.93568 0
M  V30 6222 H 601.006 0.669934 0.330451 0
M  V30 6223 H 603.668 1.94142 0.171757 0
M  V30 6224 H 602.764 2.75634 1.46398 0
M  V30 6225 N 603.065 -0.440357 1.51323 0
M  V30 6226 C 604.012 -1.53429 1.72419 0
M  V30 6227 C 604.982 -1.56165 0.565826 0
M  V30 6228 O 606.167 -1.73222 0.799917 0
M  V30 6229 C 603.307 -2.91169 1.85242 0
M  V30 6230 C 602.42 -2.97985 3.12777 0
M  V30 6231 C 601.555 -4.26829 3.16212 0
M  V30 6232 C 600.594 -4.27501 4.38074 0
M  V30 6233 N 599.731 -5.47866 4.39076 0
M  V30 6234 H 604.571 -1.34743 2.65797 0
M  V30 6235 H 602.108 -0.654608 1.31732 0
M  V30 6236 H 604.066 -3.71087 1.90658 0
M  V30 6237 H 602.696 -3.0842 0.952744 0
M  V30 6238 H 601.748 -2.10749 3.16685 0
M  V30 6239 H 603.06 -2.94342 4.02696 0
M  V30 6240 H 602.214 -5.15118 3.20527 0
M  V30 6241 H 600.953 -4.33124 2.24176 0
M  V30 6242 H 599.958 -3.37606 4.33938 0
M  V30 6243 H 601.183 -4.22873 5.31371 0
M  V30 6244 H 599.129 -5.54887 3.49909 0
M  V30 6245 H 599.046 -5.46091 5.22801 0
M  V30 6246 H 600.314 -6.38195 4.4758 0
M  V30 6247 N 604.543 -1.41418 -0.695603 0
M  V30 6248 C 605.773 -1.43921 -1.48224 0
M  V30 6249 C 606.181 -0.0428855 -1.89151 0
M  V30 6250 O 605.524 0.948138 -1.5734 0
M  V30 6251 C 605.586 -2.28466 -2.77567 0
M  V30 6252 C 605.25 -3.76629 -2.58844 0
M  V30 6253 C 606.247 -4.6879 -2.24793 0
M  V30 6254 C 603.932 -4.2067 -2.74485 0
M  V30 6255 C 605.926 -6.02981 -2.06622 0
M  V30 6256 C 603.613 -5.54926 -2.55931 0
M  V30 6257 C 604.611 -6.45897 -2.2205 0
M  V30 6258 O 604.299 -7.77675 -2.03657 0
M  V30 6259 H 604.031 -0.492252 -0.463318 0
M  V30 6260 H 606.585 -1.86347 -0.863952 0
M  V30 6261 H 604.815 -1.80853 -3.41802 0
M  V30 6262 H 606.504 -2.2267 -3.39371 0
M  V30 6263 H 607.27 -4.36055 -2.12323 0
M  V30 6264 H 603.149 -3.50167 -2.9984 0
M  V30 6265 H 606.693 -6.73951 -1.80099 0
M  V30 6266 H 602.59 -5.8724 -2.67991 0
M  V30 6267 H 603.358 -7.88819 -2.1842 0
M  V30 6268 N 606.021 0.929856 -1.27246 0
M  V30 6269 C 607.267 1.6798 -1.13625 0
M  V30 6270 C 607.6 1.91586 0.317589 0
M  V30 6271 O 606.875 1.50467 1.23247 0
M  V30 6272 C 607.158 3.04766 -1.91806 0
M  V30 6273 C 607.011 2.88415 -3.45162 0
M  V30 6274 C 608.33 4.05063 -1.72082 0
M  V30 6275 H 605.449 0.609632 -0.414147 0
M  V30 6276 H 608.091 1.0792 -1.56376 0
M  V30 6277 H 606.241 3.56034 -1.55474 0
M  V30 6278 H 607.913 2.44282 -3.91311 0
M  V30 6279 H 606.156 2.23802 -3.71611 0
M  V30 6280 H 606.827 3.85482 -3.95105 0
M  V30 6281 H 609.303 3.62798 -2.03757 0
M  V30 6282 H 608.179 4.98765 -2.29182 0
M  V30 6283 H 608.44 4.37021 -0.668206 0
M  V30 6284 N 607.499 1.09233 1.13605 0
M  V30 6285 C 608.739 0.836786 1.86487 0
M  V30 6286 C 609.103 -0.626191 1.81502 0
M  V30 6287 O 610.304 -0.99758 2.49603 0
M  V30 6288 C 608.575 1.35476 3.30728 0
M  V30 6289 S 610.134 1.2328 4.21126 0
M  V30 6290 H 606.952 0.302702 0.643345 0
M  V30 6291 H 609.554 1.3953 1.36936 0
M  V30 6292 H 608.258 2.41381 3.31909 0
M  V30 6293 H 607.789 0.792286 3.85339 0
M  V30 6294 H 609.804 0.182468 4.95864 0
M  V30 6295 N 608.977 -1.30795 0.87923 0
M  V30 6296 C 609.887 -2.32041 0.345565 0
M  V30 6297 C 610.903 -1.65103 -0.549265 0
M  V30 6298 O 612.079 -1.9645 -0.443763 0
M  V30 6299 C 609.144 -3.43944 -0.436245 0
M  V30 6300 C 608.205 -4.26521 0.48765 0
M  V30 6301 C 607.438 -5.33081 -0.256943 0
M  V30 6302 O 607.661 -5.50762 -1.48381 0
M  V30 6303 O 606.595 -6.00635 0.389985 0
M  V30 6304 H 610.421 -2.79627 1.18501 0
M  V30 6305 H 608.006 -1.3486 0.642885 0
M  V30 6306 H 609.888 -4.12128 -0.879119 0
M  V30 6307 H 608.563 -2.98504 -1.25208 0
M  V30 6308 H 607.47 -3.61057 0.979216 0
M  V30 6309 H 608.803 -4.75551 1.26933 0
M  V30 6310 N 610.455 -0.639598 -1.44038 0
M  V30 6311 C 611.418 0.0506628 -2.29144 0
M  V30 6312 C 612.418 0.764001 -1.41491 0
M  V30 6313 O 613.608 0.607309 -1.63271 0
M  V30 6314 C 610.74 1.0824 -3.2326 0
M  V30 6315 H 611.933 -0.697987 -2.91664 0
M  V30 6316 H 609.486 -0.400146 -1.51091 0
M  V30 6317 H 610.221 1.86075 -2.65606 0
M  V30 6318 H 610.006 0.574725 -3.87865 0
M  V30 6319 H 611.496 1.56487 -3.87171 0
M  V30 6320 N 611.933 1.52934 -0.380664 0
M  V30 6321 C 613.21 1.93845 0.261417 0
M  V30 6322 C 613.59 1.31544 1.65104 0
M  V30 6323 O 612.938 0.480234 2.23397 0
M  V30 6324 C 613.148 3.47739 0.296466 0
M  V30 6325 C 614.496 4.21284 0.529578 0
M  V30 6326 O 615.52 3.54199 0.377041 0
M  V30 6327 O 614.379 5.40195 0.827753 0
M  V30 6328 H 611.473 0.811318 0.160285 0
M  V30 6329 H 614.019 1.64042 -0.434544 0
M  V30 6330 H 612.791 3.85395 -0.67724 0
M  V30 6331 H 612.414 3.8382 1.0377 0
M  V30 6332 N 613.412 0.11024 1.57214 0
M  V30 6333 C 614.66 -0.548783 1.94506 0
M  V30 6334 C 614.981 -1.67772 0.99386 0
M  V30 6335 O 614.251 -1.9584 0.0485841 0
M  V30 6336 H 612.831 -0.205715 0.718116 0
M  V30 6337 H 615.493 0.177127 1.94093 0
M  V30 6338 H 614.589 -0.949096 2.97319 0
M  V30 6339 N 614.89 -1.56749 -0.16351 0
M  V30 6340 C 616.137 -1.82434 -0.878866 0
M  V30 6341 C 616.465 -0.688557 -1.81904 0
M  V30 6342 O 615.72 0.323644 -1.93005 0
M  V30 6343 C 616.019 -3.14342 -1.70071 0
M  V30 6344 C 615.685 -4.41647 -0.908775 0
M  V30 6345 C 614.347 -4.76224 -0.690236 0
M  V30 6346 C 616.699 -5.19998 -0.353815 0
M  V30 6347 C 614.027 -5.86624 0.0942374 0
M  V30 6348 C 616.379 -6.3122 0.41761 0
M  V30 6349 C 615.043 -6.64358 0.646879 0
M  V30 6350 H 614.313 -0.667574 -0.3216 0
M  V30 6351 H 616.96 -1.90963 -0.14337 0
M  V30 6352 H 615.265 -3.0119 -2.50583 0
M  V30 6353 H 616.962 -3.31426 -2.25738 0
M  V30 6354 H 613.552 -4.1453 -1.08916 0
M  V30 6355 H 617.736 -4.93673 -0.509975 0
M  V30 6356 H 612.992 -6.10751 0.281529 0
M  V30 6357 H 617.166 -6.91133 0.854849 0
M  V30 6358 H 614.793 -7.49742 1.25662 0
M  V30 6359 N 616.368 0.432326 -1.51554 0
M  V30 6360 C 617.614 1.17997 -1.65675 0
M  V30 6361 C 617.969 1.88794 -0.37076 0
M  V30 6362 O 617.262 1.80817 0.633692 0
M  V30 6363 C 617.456 2.21907 -2.80164 0
M  V30 6364 C 617.285 1.6131 -4.19773 0
M  V30 6365 C 616.055 1.39585 -4.85638 0
M  V30 6366 C 618.253 1.08659 -5.0269 0
M  V30 6367 N 616.235 0.746374 -6.09346 0
M  V30 6368 C 617.606 0.562685 -6.17441 0
M  V30 6369 C 619.661 0.978831 -4.88184 0
M  V30 6370 C 618.364 -0.0584015 -7.19276 0
M  V30 6371 C 620.39 0.371631 -5.90231 0
M  V30 6372 C 619.752 -0.141711 -7.04257 0
M  V30 6373 H 615.851 0.419277 -0.660099 0
M  V30 6374 H 618.435 0.475809 -1.88797 0
M  V30 6375 H 616.606 2.89706 -2.58698 0
M  V30 6376 H 618.338 2.88867 -2.8344 0
M  V30 6377 H 615.093 1.65897 -4.43593 0
M  V30 6378 H 615.517 0.438934 -6.75576 0
M  V30 6379 H 620.159 1.36157 -4.00276 0
M  V30 6380 H 617.877 -0.453262 -8.06828 0
M  V30 6381 H 621.463 0.290086 -5.81076 0
M  V30 6382 H 620.343 -0.60417 -7.81869 0
M  V30 6383 N 617.846 1.41785 0.688094 0
M  V30 6384 C 619.074 1.44915 1.47673 0
M  V30 6385 C 619.489 0.0565786 1.88715 0
M  V30 6386 O 618.846 -0.92579 1.57275 0
M  V30 6387 C 618.897 2.36452 2.73446 0
M  V30 6388 O 618.618 3.7029 2.34131 0
M  V30 6389 C 620.119 2.48463 3.67125 0
M  V30 6390 H 617.339 0.493324 0.454832 0
M  V30 6391 H 619.883 1.86153 0.846594 0
M  V30 6392 H 618.038 1.98502 3.3268 0
M  V30 6393 H 618.452 4.19183 3.15255 0
M  V30 6394 H 619.926 3.16662 4.52138 0
M  V30 6395 H 620.403 1.51826 4.12123 0
M  V30 6396 H 621.009 2.8708 3.13792 0
M  V30 6397 N 619.324 -0.923095 1.27737 0
M  V30 6398 C 620.549 -1.71054 1.17283 0
M  V30 6399 C 620.974 -1.86208 -0.266153 0
M  V30 6400 O 620.332 -1.36545 -1.1927 0
M  V30 6401 C 620.38 -3.0854 1.86642 0
M  V30 6402 O 619.484 -3.95528 1.16752 0
M  V30 6403 H 618.825 -0.524136 0.407649 0
M  V30 6404 H 621.355 -1.15487 1.6889 0
M  V30 6405 H 621.365 -3.58828 1.94182 0
M  V30 6406 H 620.04 -2.96828 2.91317 0
M  V30 6407 H 618.617 -3.53967 1.17312 0
M  V30 6408 N 620.802 -1.09834 -1.13024 0
M  V30 6409 C 622.027 -0.85909 -1.88771 0
M  V30 6410 C 622.452 0.584402 -1.78791 0
M  V30 6411 O 621.81 1.41101 -1.13842 0
M  V30 6412 C 621.858 -1.30427 -3.36186 0
M  V30 6413 O 620.962 -0.465368 -4.09766 0
M  V30 6414 H 620.303 -0.310786 -0.586778 0
M  V30 6415 H 622.833 -1.46355 -1.42973 0
M  V30 6416 H 622.843 -1.2915 -3.8702 0
M  V30 6417 H 621.518 -2.3555 -3.42767 0
M  V30 6418 H 620.095 -0.542814 -3.68928 0
M  V30 6419 N 622.28 1.30327 -0.886154 0
M  V30 6420 C 623.227 2.28099 -0.352069 0
M  V30 6421 C 624.197 1.56433 0.558397 0
M  V30 6422 O 625.382 1.84492 0.486561 0
M  V30 6423 C 622.522 3.42456 0.426346 0
M  V30 6424 C 621.635 4.28938 -0.513472 0
M  V30 6425 C 620.77 5.30458 0.280657 0
M  V30 6426 C 619.809 6.0859 -0.654556 0
M  V30 6427 N 618.946 7.02022 0.104322 0
M  V30 6428 H 623.786 2.73166 -1.19097 0
M  V30 6429 H 621.323 1.34367 -0.598662 0
M  V30 6430 H 623.281 4.07518 0.893587 0
M  V30 6431 H 621.911 2.98455 1.22981 0
M  V30 6432 H 620.963 3.64173 -1.09921 0
M  V30 6433 H 622.275 4.83399 -1.2299 0
M  V30 6434 H 621.429 6.01273 0.8097 0
M  V30 6435 H 620.168 4.76693 1.03029 0
M  V30 6436 H 619.173 5.36651 -1.19522 0
M  V30 6437 H 620.398 6.64443 -1.4033 0
M  V30 6438 H 618.344 6.50645 0.836472 0
M  V30 6439 H 618.261 7.53979 -0.552453 0
M  V30 6440 H 619.529 7.77077 0.614069 0
M  V30 6441 N 623.758 0.647228 1.43697 0
M  V30 6442 C 625.006 0.157876 2.01482 0
M  V30 6443 C 625.327 -1.23039 1.51282 0
M  V30 6444 O 624.597 -1.82071 0.722982 0
M  V30 6445 H 623.177 0.0553745 0.744945 0
M  V30 6446 H 625.839 0.83755 1.75986 0
M  V30 6447 H 624.935 0.137895 3.11795 0
M  V30 6448 N 625.236 -1.5273 0.388769 0
M  V30 6449 C 626.146 -2.30165 -0.453993 0
M  V30 6450 C 627.162 -1.37058 -1.07197 0
M  V30 6451 O 628.338 -1.70127 -1.0779 0
M  V30 6452 C 625.403 -3.09303 -1.56628 0
M  V30 6453 C 624.464 -4.18117 -0.973467 0
M  V30 6454 C 623.697 -4.93472 -2.03275 0
M  V30 6455 O 623.92 -4.68913 -3.24772 0
M  V30 6456 O 622.854 -5.78833 -1.65034 0
M  V30 6457 H 626.68 -3.03185 0.176816 0
M  V30 6458 H 624.265 -1.4862 0.152501 0
M  V30 6459 H 626.147 -3.58648 -2.21246 0
M  V30 6460 H 624.822 -2.39098 -2.18206 0
M  V30 6461 H 623.729 -3.7297 -0.290556 0
M  V30 6462 H 625.062 -4.90556 -0.401908 0
M  V30 6463 N 626.714 -0.118576 -1.57153 0
M  V30 6464 C 627.661 0.831789 -2.1529 0
M  V30 6465 C 628.631 1.26385 -1.07778 0
M  V30 6466 O 629.816 1.34144 -1.35684 0
M  V30 6467 C 626.956 2.07664 -2.75626 0
M  V30 6468 C 626.069 1.69298 -3.97444 0
M  V30 6469 C 625.204 2.88747 -4.45868 0
M  V30 6470 C 624.243 2.46619 -5.60219 0
M  V30 6471 N 623.38 3.5898 -6.03389 0
M  V30 6472 H 628.22 0.329183 -2.96176 0
M  V30 6473 H 625.757 0.150792 -1.46325 0
M  V30 6474 H 627.715 2.80601 -3.08738 0
M  V30 6475 H 626.345 2.55384 -1.97431 0
M  V30 6476 H 625.397 0.862374 -3.70496 0
M  V30 6477 H 626.709 1.34338 -4.80369 0
M  V30 6478 H 625.863 3.69909 -4.80887 0
M  V30 6479 H 624.602 3.26933 -3.61892 0
M  V30 6480 H 623.607 1.63889 -5.24805 0
M  V30 6481 H 624.832 2.0955 -6.45961 0
M  V30 6482 H 622.778 3.9684 -5.22354 0
M  V30 6483 H 622.695 3.27942 -6.81168 0
M  V30 6484 H 623.963 4.40583 -6.43045 0
M  V30 6485 N 628.193 1.56834 0.155195 0
M  V30 6486 C 629.418 1.87412 0.888337 0
M  V30 6487 C 629.843 0.70671 1.74319 0
M  V30 6488 O 629.201 -0.343892 1.78009 0
M  V30 6489 C 629.249 3.1652 1.72765 0
M  V30 6490 O 628.353 2.99877 2.83103 0
M  V30 6491 H 627.694 0.615983 0.247914 0
M  V30 6492 H 630.224 2.04061 0.148478 0
M  V30 6493 H 630.234 3.48334 2.12433 0
M  V30 6494 H 628.909 4.01094 1.09985 0
M  V30 6495 H 627.486 2.79453 2.46902 0
M  V30 6496 N 629.671 -0.424282 1.51781 0
M  V30 6497 C 630.601 -1.52305 1.7699 0
M  V30 6498 C 631.582 -1.5839 0.620209 0
M  V30 6499 O 632.767 -1.73908 0.864268 0
M  V30 6500 C 629.897 -2.90271 1.90683 0
M  V30 6501 C 628.851 -2.99043 3.06198 0
M  V30 6502 C 628.177 -4.39116 3.05092 0
M  V30 6503 C 629.477 -2.7192 4.45934 0
M  V30 6504 H 631.171 -1.31461 2.68995 0
M  V30 6505 H 628.717 -0.630985 1.29439 0
M  V30 6506 H 630.67 -3.6711 2.06901 0
M  V30 6507 H 629.394 -3.12376 0.953365 0
M  V30 6508 H 628.053 -2.24646 2.89706 0
M  V30 6509 H 627.701 -4.58207 2.07498 0
M  V30 6510 H 627.401 -4.45912 3.82669 0
M  V30 6511 H 628.925 -5.17911 3.2342 0
M  V30 6512 H 630.339 -3.38487 4.62709 0
M  V30 6513 H 628.736 -2.90111 5.25315 0
M  V30 6514 H 629.806 -1.67445 4.55072 0
M  V30 6515 N 631.149 -1.42148 -0.680565 0
M  V30 6516 C 632.56 -1.3768 -1.26099 0
M  V30 6517 C 632.911 -0.0672348 -1.96085 0
M  V30 6518 O 632.036 0.834172 -1.99676 0
M  V30 6519 C 632.631 -2.49387 -2.29328 0
M  V30 6520 C 631.19 -2.4827 -2.82911 0
M  V30 6521 C 630.337 -2.2847 -1.57152 0
M  V30 6522 H 633.288 -1.51446 -0.474326 0
M  V30 6523 H 633.309 -2.19307 -3.10941 0
M  V30 6524 H 632.821 -3.44686 -1.78363 0
M  V30 6525 H 630.922 -1.56773 -3.38013 0
M  V30 6526 H 631.035 -3.45109 -3.3232 0
M  V30 6527 H 629.399 -1.76623 -1.83511 0
M  V30 6528 H 630.182 -3.25816 -1.0816 0
M  V30 6529 N 632.627 0.916307 -1.28225 0
M  V30 6530 C 633.873 1.66765 -1.154 0
M  V30 6531 C 634.206 1.91912 0.297251 0
M  V30 6532 O 633.481 1.51766 1.21644 0
M  V30 6533 C 633.764 3.02715 -1.95028 0
M  V30 6534 C 633.617 2.84738 -3.48201 0
M  V30 6535 C 634.936 4.03215 -1.76369 0
M  V30 6536 H 632.055 0.605205 -0.42059 0
M  V30 6537 H 634.697 1.06255 -1.57512 0
M  V30 6538 H 632.847 3.54365 -1.59242 0
M  V30 6539 H 634.519 2.40118 -3.9388 0
M  V30 6540 H 632.762 2.19848 -3.73964 0
M  V30 6541 H 633.433 3.8127 -3.99171 0
M  V30 6542 H 635.909 3.60617 -2.07593 0
M  V30 6543 H 634.785 4.96306 -2.34459 0
M  V30 6544 H 635.046 4.36288 -0.71452 0
M  V30 6545 N 634.105 1.10431 1.1244 0
M  V30 6546 C 635.345 0.856518 1.85589 0
M  V30 6547 C 635.709 -0.606905 1.82156 0
M  V30 6548 O 636.91 -0.97105 2.50647 0
M  V30 6549 C 635.181 1.38977 3.29272 0
M  V30 6550 S 636.74 1.27739 4.19795 0
M  V30 6551 H 633.558 0.309509 0.640098 0
M  V30 6552 H 636.16 1.40975 1.35449 0
M  V30 6553 H 634.864 2.44887 3.2933 0
M  V30 6554 H 634.395 0.833112 3.84477 0
M  V30 6555 H 636.41 0.235051 4.95643 0
M  V30 6556 N 635.583 -1.29855 0.893053 0
M  V30 6557 C 636.493 -2.31661 0.370157 0
M  V30 6558 C 637.509 -1.65677 -0.531723 0
M  V30 6559 O 638.685 -1.9691 -0.422902 0
M  V30 6560 C 635.75 -3.44388 -0.399741 0
M  V30 6561 C 634.811 -4.2598 0.532861 0
M  V30 6562 C 634.044 -5.33324 -0.200388 0
M  V30 6563 O 634.267 -5.52305 -1.42531 0
M  V30 6564 O 633.201 -6.00188 0.453668 0
M  V30 6565 H 637.027 -2.78354 1.2146 0
M  V30 6566 H 634.612 -1.34171 0.657153 0
M  V30 6567 H 636.494 -4.13037 -0.835358 0
M  V30 6568 H 635.169 -2.99815 -1.22035 0
M  V30 6569 H 634.076 -3.59998 1.01746 0
M  V30 6570 H 635.409 -4.74178 1.3197 0
M  V30 6571 N 637.061 -0.65484 -1.43351 0
M  V30 6572 C 638.472 -0.248506 -1.85039 0
M  V30 6573 C 638.823 1.20526 -1.54816 0
M  V30 6574 O 637.948 1.92016 -0.99794 0
M  V30 6575 C 638.543 -0.444241 -3.35875 0
M  V30 6576 C 637.102 -0.0922108 -3.76287 0
M  V30 6577 C 636.249 -0.746327 -2.67068 0
M  V30 6578 H 639.2 -0.8584 -1.33481 0
M  V30 6579 H 639.221 0.309762 -3.79237 0
M  V30 6580 H 638.733 -1.50239 -3.5784 0
M  V30 6581 H 636.834 0.96328 -3.59933 0
M  V30 6582 H 636.947 -0.518807 -4.76283 0
M  V30 6583 H 635.311 -0.179416 -2.54067 0
M  V30 6584 H 636.094 -1.80754 -2.91861 0
M  V30 6585 N 638.539 1.52521 -0.396863 0
M  V30 6586 C 639.785 2.01971 0.183169 0
M  V30 6587 C 640.118 1.2825 1.45827 0
M  V30 6588 O 639.393 0.385179 1.90648 0
M  V30 6589 C 639.676 3.5736 0.443391 0
M  V30 6590 C 639.529 4.41743 -0.84753 0
M  V30 6591 C 640.848 4.22539 1.2308 0
M  V30 6592 H 637.967 0.734119 0.0650976 0
M  V30 6593 H 640.609 1.82519 -0.527918 0
M  V30 6594 H 638.759 3.74066 1.04914 0
M  V30 6595 H 640.431 4.36773 -1.48414 0
M  V30 6596 H 638.674 4.0845 -1.4612 0
M  V30 6597 H 639.345 5.48507 -0.620003 0
M  V30 6598 H 641.821 4.09857 0.718084 0
M  V30 6599 H 640.697 5.31227 1.38162 0
M  V30 6600 H 640.958 3.80675 2.24808 0
M  V30 6601 N 640.017 0.126909 1.57088 0
M  V30 6602 C 641.257 -0.53216 1.97351 0
M  V30 6603 C 641.621 -1.63342 1.00913 0
M  V30 6604 O 642.822 -2.35194 1.30144 0
M  V30 6605 C 641.093 -1.04385 3.41817 0
M  V30 6606 S 642.652 -1.71033 4.04095 0
M  V30 6607 H 639.47 -0.172724 0.689701 0
M  V30 6608 H 642.072 0.213865 1.94327 0
M  V30 6609 H 640.776 -0.231289 4.09748 0
M  V30 6610 H 640.307 -1.82496 3.48509 0
M  V30 6611 H 642.322 -2.99656 3.95501 0
M  V30 6612 N 641.495 -1.56914 -0.146875 0
M  V30 6613 C 642.743 -1.82994 -0.85777 0
M  V30 6614 C 643.064 -0.707814 -1.817 0
M  V30 6615 O 642.334 0.270521 -1.94023 0
M  V30 6616 H 640.914 -0.675106 -0.319751 0
M  V30 6617 H 643.576 -1.9439 -0.140849 0
M  V30 6618 H 642.672 -2.77928 -1.41994 0
M  V30 6619 N 642.974 0.416227 -1.52004 0
M  V30 6620 C 643.904 1.51365 -1.77795 0
M  V30 6621 C 644.885 1.58059 -0.628601 0
M  V30 6622 O 646.07 1.73447 -0.873478 0
M  V30 6623 C 643.2 2.89256 -1.92219 0
M  V30 6624 C 642.154 2.97415 -3.0778 0
M  V30 6625 C 641.48 4.37492 -3.07417 0
M  V30 6626 C 642.78 2.69551 -4.47369 0
M  V30 6627 H 644.474 1.30033 -2.69688 0
M  V30 6628 H 642.02 0.624112 -1.29772 0
M  V30 6629 H 643.973 3.66008 -2.08845 0
M  V30 6630 H 642.697 3.11866 -0.969917 0
M  V30 6631 H 641.356 2.23107 -2.90893 0
M  V30 6632 H 641.004 4.571 -2.09925 0
M  V30 6633 H 640.704 4.43877 -3.85029 0
M  V30 6634 H 642.228 5.16188 -3.26162 0
M  V30 6635 H 643.642 3.36028 -4.64497 0
M  V30 6636 H 642.039 2.87321 -5.26846 0
M  V30 6637 H 643.109 1.65029 -4.55953 0
M  V30 6638 N 644.452 1.42507 0.673017 0
M  V30 6639 C 645.677 1.4668 1.46627 0
M  V30 6640 C 646.102 0.080066 1.8793 0
M  V30 6641 O 645.46 -0.921879 1.56112 0
M  V30 6642 C 645.508 2.40091 2.69051 0
M  V30 6643 O 644.612 1.8735 3.67387 0
M  V30 6644 H 643.953 0.496908 0.44043 0
M  V30 6645 H 646.483 1.87215 0.825334 0
M  V30 6646 H 646.493 2.56731 3.17101 0
M  V30 6647 H 645.168 3.4084 2.3833 0
M  V30 6648 H 643.745 1.80274 3.26429 0
M  V30 6649 N 645.93 -0.909495 1.28709 0
M  V30 6650 C 646.893 -1.99399 1.13016 0
M  V30 6651 C 647.893 -1.60654 0.068536 0
M  V30 6652 O 649.083 -1.71334 0.314671 0
M  V30 6653 C 646.215 -3.33078 0.726085 0
M  V30 6654 H 647.408 -2.14751 2.09338 0
M  V30 6655 H 644.961 -1.09272 1.11756 0
M  V30 6656 H 645.696 -3.23428 -0.23771 0
M  V30 6657 H 645.481 -3.62562 1.49302 0
M  V30 6658 H 646.971 -4.12681 0.639058 0
M  V30 6659 N 647.408 -1.11026 -1.11852 0
M  V30 6660 C 648.824 -0.843294 -1.35502 0
M  V30 6661 C 649.024 0.534179 -1.9429 0
M  V30 6662 O 648.08 1.28585 -2.17307 0
M  V30 6663 C 649.393 -1.94793 -2.29077 0
M  V30 6664 C 650.941 -1.97709 -2.42652 0
M  V30 6665 C 651.416 -3.07364 -3.39546 0
M  V30 6666 N 652.907 -3.0671 -3.47107 0
M  V30 6667 C 653.642 -3.88197 -4.22008 0
M  V30 6668 N 653.138 -4.79635 -4.99922 0
M  V30 6669 N 654.931 -3.76391 -4.17476 0
M  V30 6670 H 647.082 -1.99805 -0.720538 0
M  V30 6671 H 649.345 -0.868633 -0.379711 0
M  V30 6672 H 649.051 -2.93971 -1.93065 0
M  V30 6673 H 648.925 -1.84039 -3.29256 0
M  V30 6674 H 651.312 -0.991604 -2.77941 0
M  V30 6675 H 651.393 -2.1254 -1.4234 0
M  V30 6676 H 651.037 -4.06136 -3.04985 0
M  V30 6677 H 650.967 -2.89774 -4.39703 0
M  V30 6678 H 653.458 -2.40457 -2.91528 0
M  V30 6679 H 653.771 -5.38357 -5.54429 0
M  V30 6680 H 652.116 -4.8366 -4.99097 0
M  V30 6681 H 655.307 -3.04303 -3.55693 0
M  V30 6682 H 655.48 -4.40131 -4.75593 0
M  V30 6683 N 648.886 1.2938 -0.899927 0
M  V30 6684 C 650.114 1.99691 -0.541386 0
M  V30 6685 C 650.529 1.67355 0.873936 0
M  V30 6686 O 649.886 0.918728 1.57688 0
M  V30 6687 C 649.937 3.54168 -0.72438 0
M  V30 6688 O 649.658 3.85359 -2.08399 0
M  V30 6689 C 651.159 4.41746 -0.370819 0
M  V30 6690 H 648.379 0.638037 -0.207726 0
M  V30 6691 H 650.923 1.6491 -1.20934 0
M  V30 6692 H 649.078 3.87261 -0.103607 0
M  V30 6693 H 649.492 4.80032 -2.11352 0
M  V30 6694 H 650.966 5.49256 -0.549693 0
M  V30 6695 H 651.443 4.33712 0.692148 0
M  V30 6696 H 652.049 4.14125 -0.968543 0
M  V30 6697 N 650.364 0.662433 1.43002 0
M  V30 6698 C 651.592 0.187615 2.06048 0
M  V30 6699 C 652.007 -1.15039 1.49705 0
M  V30 6700 O 651.364 -1.71209 0.631956 0
M  V30 6701 C 651.415 0.100498 3.6136 0
M  V30 6702 O 651.136 1.38562 4.15611 0
M  V30 6703 C 652.637 -0.399298 4.41498 0
M  V30 6704 H 649.857 0.0941675 0.664359 0
M  V30 6705 H 652.401 0.905681 1.83351 0
M  V30 6706 H 650.556 -0.568181 3.83211 0
M  V30 6707 H 650.97 1.25084 5.09366 0
M  V30 6708 H 652.444 -0.409187 5.50481 0
M  V30 6709 H 652.921 -1.43232 4.15188 0
M  V30 6710 H 653.527 0.23721 4.24638 0
M  V30 6711 N 651.842 -1.52309 0.404946 0
M  V30 6712 C 653.09 -2.01368 -0.17186 0
M  V30 6713 C 653.411 -1.29261 -1.46002 0
M  V30 6714 O 652.681 -0.41729 -1.91404 0
M  V30 6715 H 651.261 -0.744034 -0.0664993 0
M  V30 6716 H 653.923 -1.87263 0.540228 0
M  V30 6717 H 653.019 -3.09888 -0.370957 0
M  V30 6718 N 653.32 -0.135238 -1.57019 0
M  V30 6719 C 654.568 0.51777 -1.95355 0
M  V30 6720 C 654.889 1.6617 -1.02042 0
M  V30 6721 O 654.159 1.95738 -0.0797343 0
M  V30 6722 H 652.739 0.194264 -0.721298 0
M  V30 6723 H 655.401 -0.207983 -1.93787 0
M  V30 6724 H 654.497 0.901675 -2.98791 0
M  V30 6725 N 654.798 1.5699 0.138552 0
M  V30 6726 C 656.214 1.51844 0.491472 0
M  V30 6727 C 656.414 0.845063 1.82923 0
M  V30 6728 O 655.47 0.419143 2.48997 0
M  V30 6729 C 656.783 2.96615 0.493987 0
M  V30 6730 C 658.331 3.076 0.578913 0
M  V30 6731 C 658.806 4.53893 0.612009 0
M  V30 6732 N 660.297 4.5827 0.673997 0
M  V30 6733 C 661.032 5.68852 0.720729 0
M  V30 6734 N 660.528 6.88982 0.726292 0
M  V30 6735 N 662.321 5.56908 0.762253 0
M  V30 6736 H 654.472 1.99158 -0.738228 0
M  V30 6737 H 656.735 0.908693 -0.270149 0
M  V30 6738 H 656.441 3.49172 -0.420933 0
M  V30 6739 H 656.315 3.53017 1.32887 0
M  V30 6740 H 658.702 2.55057 1.48425 0
M  V30 6741 H 658.783 2.54227 -0.283286 0
M  V30 6742 H 658.427 5.07076 -0.289208 0
M  V30 6743 H 658.357 5.05057 1.49082 0
M  V30 6744 H 660.848 3.71793 0.676654 0
M  V30 6745 H 661.161 7.69014 0.764032 0
M  V30 6746 H 659.506 6.91526 0.69403 0
M  V30 6747 H 662.697 4.61969 0.755135 0
M  V30 6748 H 662.87 6.43102 0.795207 0
M  V30 6749 N 656.276 -0.40816 1.52223 0
M  V30 6750 C 657.525 -1.15212 1.65557 0
M  V30 6751 C 657.838 -1.9163 0.392096 0
M  V30 6752 O 659.044 -2.68458 0.405256 0
M  V30 6753 C 657.5 -2.09691 2.92502 0
M  V30 6754 C 657.108 -1.38785 4.25961 0
M  V30 6755 C 658.852 -2.8434 3.152 0
M  V30 6756 C 656.759 -2.31919 5.44029 0
M  V30 6757 H 655.689 -0.433776 0.616729 0
M  V30 6758 H 658.34 -0.4165 1.78711 0
M  V30 6759 H 656.722 -2.8681 2.7305 0
M  V30 6760 H 657.896 -0.670248 4.55899 0
M  V30 6761 H 656.211 -0.761741 4.09373 0
M  V30 6762 H 658.808 -3.54166 4.00587 0
M  V30 6763 H 659.151 -3.47344 2.29473 0
M  V30 6764 H 659.684 -2.14321 3.35129 0
M  V30 6765 H 656.423 -1.7356 6.32105 0
M  V30 6766 H 655.943 -3.0165 5.18428 0
M  V30 6767 H 657.622 -2.92424 5.77146 0
M  V30 6768 N 657.755 -1.42862 -0.66545 0
M  V30 6769 C 658.985 -1.47032 -1.45138 0
M  V30 6770 C 659.393 -0.0829977 -1.89018 0
M  V30 6771 O 658.736 0.914551 -1.59316 0
M  V30 6772 C 658.798 -2.34302 -2.72659 0
M  V30 6773 C 658.462 -3.82034 -2.50796 0
M  V30 6774 C 659.459 -4.73453 -2.14799 0
M  V30 6775 C 657.144 -4.26397 -2.655 0
M  V30 6776 C 659.138 -6.07228 -1.93785 0
M  V30 6777 C 656.825 -5.6023 -2.44103 0
M  V30 6778 C 657.823 -6.50462 -2.08299 0
M  V30 6779 O 657.511 -7.8182 -1.87116 0
M  V30 6780 H 657.243 -0.501969 -0.452772 0
M  V30 6781 H 659.797 -1.88137 -0.82423 0
M  V30 6782 H 658.027 -1.88063 -3.37889 0
M  V30 6783 H 659.716 -2.29818 -3.34572 0
M  V30 6784 H 660.482 -4.4046 -2.03026 0
M  V30 6785 H 656.361 -3.56448 -2.92345 0
M  V30 6786 H 659.905 -6.7762 -1.65763 0
M  V30 6787 H 655.802 -5.92793 -2.55475 0
M  V30 6788 H 656.57 -7.93274 -2.01639 0
M  V30 6789 N 659.233 0.902656 -1.29189 0
M  V30 6790 C 660.481 1.6496 -1.16758 0
M  V30 6791 C 660.802 1.92952 0.28188 0
M  V30 6792 O 660.072 1.55351 1.19344 0
M  V30 6793 H 658.652 0.611447 -0.429118 0
M  V30 6794 H 661.314 1.0825 -1.62074 0
M  V30 6795 H 660.41 2.60728 -1.71544 0
M  V30 6796 N 660.711 1.11618 1.11262 0
M  V30 6797 C 661.959 0.864469 1.82678 0
M  V30 6798 C 662.28 -0.611564 1.85162 0
M  V30 6799 O 661.55 -1.44429 1.32352 0
M  V30 6800 H 660.13 0.316821 0.676486 0
M  V30 6801 H 662.792 1.40894 1.34666 0
M  V30 6802 H 661.888 1.23832 2.86482 0
M  V30 6803 N 662.189 -1.289 0.906776 0
M  V30 6804 C 663.121 -2.26556 0.347159 0
M  V30 6805 C 664.134 -1.54589 -0.51049 0
M  V30 6806 O 665.323 -1.75489 -0.326501 0
M  V30 6807 C 662.423 -3.3484 -0.523024 0
M  V30 6808 C 661.596 -4.36296 0.310515 0
M  V30 6809 C 660.655 -5.23879 -0.493634 0
M  V30 6810 O 659.681 -5.69127 0.0913569 0
M  V30 6811 N 660.883 -5.51946 -1.7982 0
M  V30 6812 H 663.648 -2.75212 1.18652 0
M  V30 6813 H 661.209 -1.42309 0.771996 0
M  V30 6814 H 663.201 -3.90366 -1.06756 0
M  V30 6815 H 661.771 -2.85946 -1.26309 0
M  V30 6816 H 660.991 -3.80331 1.03644 0
M  V30 6817 H 662.279 -5.01113 0.881106 0
M  V30 6818 H 661.677 -5.17006 -2.2961 0
M  V30 6819 H 660.234 -6.10258 -2.28971 0
M  V30 6820 N 663.667 -0.670007 -1.42649 0
M  V30 6821 C 664.614 0.0112928 -2.30797 0
M  V30 6822 C 665.584 0.797627 -1.45695 0
M  V30 6823 O 666.769 0.770845 -1.74535 0
M  V30 6824 C 663.909 0.95998 -3.31479 0
M  V30 6825 C 663.022 0.167975 -4.31673 0
M  V30 6826 C 662.157 1.11198 -5.19431 0
M  V30 6827 C 661.196 0.311381 -6.11307 0
M  V30 6828 N 660.333 1.20784 -6.91633 0
M  V30 6829 H 665.173 -0.746231 -2.88505 0
M  V30 6830 H 662.71 -0.379739 -1.42114 0
M  V30 6831 H 664.668 1.52379 -3.88377 0
M  V30 6832 H 663.298 1.68419 -2.75382 0
M  V30 6833 H 662.35 -0.512385 -3.76933 0
M  V30 6834 H 663.662 -0.453814 -4.96731 0
M  V30 6835 H 662.816 1.74587 -5.81037 0
M  V30 6836 H 661.555 1.76766 -4.54538 0
M  V30 6837 H 660.56 -0.335758 -5.48774 0
M  V30 6838 H 661.785 -0.340135 -6.78248 0
M  V30 6839 H 659.731 1.85001 -6.29373 0
M  V30 6840 H 659.648 0.64102 -7.53277 0
M  V30 6841 H 660.916 1.82936 -7.5773 0
M  V30 6842 N 665.145 1.52092 -0.413018 0
M  V30 6843 C 666.108 2.25706 0.398687 0
M  V30 6844 C 667.108 1.28221 0.970368 0
M  V30 6845 O 668.298 1.52131 0.848635 0
M  V30 6846 C 665.43 3.03029 1.5616 0
M  V30 6847 H 666.623 2.98888 -0.246131 0
M  V30 6848 H 664.176 1.5542 -0.165622 0
M  V30 6849 H 664.911 2.34205 2.24317 0
M  V30 6850 H 664.696 3.74606 1.15812 0
M  V30 6851 H 666.186 3.58857 2.13569 0
M  V30 6852 N 666.623 0.143563 1.56945 0
M  V30 6853 C 667.57 -0.797433 2.16586 0
M  V30 6854 C 668.54 -1.24654 1.09775 0
M  V30 6855 O 669.725 -1.31968 1.37801 0
M  V30 6856 C 666.865 -2.03253 2.78895 0
M  V30 6857 C 665.978 -1.62954 4.00087 0
M  V30 6858 C 665.113 -2.81617 4.50406 0
M  V30 6859 C 664.152 -2.37675 5.64072 0
M  V30 6860 N 663.289 -3.49335 6.09023 0
M  V30 6861 H 668.129 -0.282023 2.96662 0
M  V30 6862 H 665.666 -0.127494 1.46546 0
M  V30 6863 H 667.624 -2.75653 3.13163 0
M  V30 6864 H 666.254 -2.52211 2.01469 0
M  V30 6865 H 665.306 -0.803322 3.71821 0
M  V30 6866 H 666.618 -1.26679 4.82446 0
M  V30 6867 H 665.772 -3.62212 4.86711 0
M  V30 6868 H 664.511 -3.21134 3.67048 0
M  V30 6869 H 663.516 -1.55519 5.27346 0
M  V30 6870 H 664.741 -1.99247 6.49213 0
M  V30 6871 H 662.687 -3.8848 5.28601 0
M  V30 6872 H 662.604 -3.17064 6.86299 0
M  V30 6873 H 663.872 -4.30297 6.49973 0
M  V30 6874 N 668.101 -1.57061 -0.130224 0
M  V30 6875 C 669.512 -1.73539 -0.68856 0
M  V30 6876 C 669.863 -0.760554 -1.80859 0
M  V30 6877 O 668.988 0.0690796 -2.1629 0
M  V30 6878 C 669.583 -3.14666 -1.25581 0
M  V30 6879 C 668.142 -3.32689 -1.76055 0
M  V30 6880 C 667.289 -2.69436 -0.655712 0
M  V30 6881 H 670.24 -1.58412 0.0956002 0
M  V30 6882 H 670.261 -3.15595 -2.12556 0
M  V30 6883 H 669.773 -3.85593 -0.440412 0
M  V30 6884 H 667.874 -2.66786 -2.60108 0
M  V30 6885 H 667.987 -4.4077 -1.87772 0
M  V30 6886 H 666.351 -2.30362 -1.08654 0
M  V30 6887 H 667.134 -3.42979 0.14852 0
M  V30 6888 N 669.579 0.400081 -1.52437 0
M  V30 6889 C 670.827 1.14392 -1.6661 0
M  V30 6890 C 671.148 1.90792 -0.402927 0
M  V30 6891 O 670.418 1.87042 0.582425 0
M  V30 6892 H 668.998 0.425275 -0.614125 0
M  V30 6893 H 671.66 0.455076 -1.89513 0
M  V30 6894 H 670.756 1.85298 -2.51139 0
M  V30 6895 N 671.057 1.43213 0.657864 0
M  V30 6896 C 672.334 1.35063 1.41483 0
M  V30 6897 C 672.714 -0.0038314 2.111 0
M  V30 6898 O 672.062 -1.02018 2.04462 0
M  V30 6899 C 672.272 2.53061 2.40335 0
M  V30 6900 C 673.62 2.9594 3.04474 0
M  V30 6901 O 674.644 2.53074 2.50663 0
M  V30 6902 O 673.503 3.70184 4.02027 0
M  V30 6903 H 670.597 0.533517 0.631893 0
M  V30 6904 H 673.143 1.55253 0.685162 0
M  V30 6905 H 671.915 3.43283 1.87809 0
M  V30 6906 H 671.538 2.34945 3.20759 0
M  V30 6907 N 672.536 -0.895792 1.29666 0
M  V30 6908 C 673.783 -1.64664 1.17864 0
M  V30 6909 C 674.111 -1.92631 -0.26902 0
M  V30 6910 O 673.366 -1.53787 -1.21029 0
M  V30 6911 C 673.665 -3.00075 1.94139 0
M  V30 6912 C 673.331 -2.91702 3.43833 0
M  V30 6913 C 671.993 -2.89126 3.84656 0
M  V30 6914 C 674.345 -2.80622 4.39205 0
M  V30 6915 C 671.673 -2.73293 5.1916 0
M  V30 6916 C 674.025 -2.66329 5.73805 0
M  V30 6917 C 672.689 -2.62121 6.1388 0
M  V30 6918 H 671.959 -0.602549 0.431295 0
M  V30 6919 H 674.606 -1.04234 1.60648 0
M  V30 6920 H 672.911 -3.64394 1.43958 0
M  V30 6921 H 674.608 -3.57111 1.82408 0
M  V30 6922 H 671.198 -2.94511 3.11386 0
M  V30 6923 H 675.382 -2.81686 4.08615 0
M  V30 6924 H 670.638 -2.68443 5.49316 0
M  V30 6925 H 674.812 -2.56727 6.47352 0
M  V30 6926 H 672.439 -2.49611 7.18052 0
M  V30 6927 N 674.014 -1.12206 -1.10668 0
M  V30 6928 C 675.425 -0.890657 -1.64086 0
M  V30 6929 C 675.776 0.575502 -1.8757 0
M  V30 6930 O 674.901 1.4394 -1.61587 0
M  V30 6931 C 675.496 -1.61029 -2.98085 0
M  V30 6932 C 674.055 -1.4251 -3.48379 0
M  V30 6933 C 673.202 -1.64778 -2.23033 0
M  V30 6934 H 676.153 -1.27718 -0.94201 0
M  V30 6935 H 676.174 -1.05993 -3.65439 0
M  V30 6936 H 675.686 -2.67735 -2.80962 0
M  V30 6937 H 673.787 -0.380497 -3.70652 0
M  V30 6938 H 673.9 -2.17959 -4.26651 0
M  V30 6939 H 672.264 -1.07171 -2.31055 0
M  V30 6940 H 673.047 -2.72776 -2.08443 0
M  V30 6941 N 675.492 1.28418 -0.913599 0
M  V30 6942 C 676.738 1.95627 -0.556933 0
M  V30 6943 C 677.093 1.706 0.889565 0
M  V30 6944 O 676.386 1.01637 1.6242 0
M  V30 6945 C 676.58 3.48283 -0.802099 0
M  V30 6946 C 676.409 3.88151 -2.27088 0
M  V30 6947 C 675.179 4.1232 -2.92096 0
M  V30 6948 C 677.377 3.98819 -3.24728 0
M  V30 6949 N 675.359 4.3886 -4.29272 0
M  V30 6950 C 676.73 4.29571 -4.47067 0
M  V30 6951 C 678.785 3.81342 -3.20129 0
M  V30 6952 C 677.488 4.44667 -5.65388 0
M  V30 6953 C 679.514 3.97656 -4.37749 0
M  V30 6954 C 678.876 4.2878 -5.58862 0
M  V30 6955 H 674.975 0.739715 -0.253664 0
M  V30 6956 H 677.559 1.55074 -1.1773 0
M  V30 6957 H 675.73 3.87826 -0.211007 0
M  V30 6958 H 677.462 4.02623 -0.409478 0
M  V30 6959 H 674.217 4.06611 -2.42826 0
M  V30 6960 H 674.641 4.56214 -5.00198 0
M  V30 6961 H 679.283 3.56331 -2.2757 0
M  V30 6962 H 677.001 4.68509 -6.58426 0
M  V30 6963 H 680.587 3.85569 -4.35692 0
M  V30 6964 H 679.467 4.41136 -6.48359 0
M  V30 6965 N 676.97 0.677563 1.42291 0
M  V30 6966 C 677.902 -0.0380218 2.29168 0
M  V30 6967 C 678.915 -0.762714 1.43828 0
M  V30 6968 O 680.104 -0.616413 1.67519 0
M  V30 6969 C 677.204 -1.07761 3.21311 0
M  V30 6970 C 676.377 -0.42618 4.35319 0
M  V30 6971 C 675.436 -1.36592 5.08162 0
M  V30 6972 O 674.462 -0.865174 5.62586 0
M  V30 6973 N 675.664 -2.69909 5.13935 0
M  V30 6974 H 678.429 0.707766 2.91223 0
M  V30 6975 H 675.99 0.52219 1.53247 0
M  V30 6976 H 677.982 -1.70761 3.6691 0
M  V30 6977 H 676.552 -1.72511 2.60689 0
M  V30 6978 H 675.772 0.383385 3.92331 0
M  V30 6979 H 677.06 0.0275277 5.08793 0
M  V30 6980 H 676.458 -3.13129 4.71134 0
M  V30 6981 H 675.015 -3.2815 5.6317 0
M  V30 6982 N 678.448 -1.51871 0.421078 0
M  V30 6983 C 679.694 -2.02237 -0.151014 0
M  V30 6984 C 680.027 -1.30554 -1.43768 0
M  V30 6985 O 679.302 -0.41546 -1.90011 0
M  V30 6986 C 679.585 -3.5802 -0.386482 0
M  V30 6987 C 679.438 -4.40339 0.9177 0
M  V30 6988 C 680.757 -4.24444 -1.16342 0
M  V30 6989 H 677.876 -0.735062 -0.0534102 0
M  V30 6990 H 680.518 -1.81656 0.556888 0
M  V30 6991 H 678.668 -3.75688 -0.989494 0
M  V30 6992 H 680.34 -4.34357 1.55344 0
M  V30 6993 H 678.583 -4.06073 1.526 0
M  V30 6994 H 679.254 -5.47451 0.707187 0
M  V30 6995 H 681.73 -4.10948 -0.652788 0
M  V30 6996 H 680.606 -5.33358 -1.29693 0
M  V30 6997 H 680.867 -3.84204 -2.18724 0
M  V30 6998 N 679.926 -0.151884 -1.56866 0
M  V30 6999 C 680.856 0.781943 -2.20018 0
M  V30 7000 C 681.837 1.25347 -1.14987 0
M  V30 7001 O 683.022 1.31015 -1.43348 0
M  V30 7002 C 680.152 2.01928 -2.82564 0
M  V30 7003 C 679.106 1.68434 -3.93464 0
M  V30 7004 C 678.432 2.99472 -4.42968 0
M  V30 7005 C 679.732 0.927244 -5.14003 0
M  V30 7006 H 681.426 0.255607 -2.98307 0
M  V30 7007 H 678.972 0.121502 -1.43486 0
M  V30 7008 H 680.925 2.67741 -3.25411 0
M  V30 7009 H 679.649 2.56943 -2.01614 0
M  V30 7010 H 678.308 1.04998 -3.51242 0
M  V30 7011 H 677.956 3.52488 -3.58834 0
M  V30 7012 H 677.656 2.77823 -5.17772 0
M  V30 7013 H 679.18 3.66348 -4.88489 0
M  V30 7014 H 680.594 1.48756 -5.53665 0
M  V30 7015 H 678.991 0.810513 -5.94601 0
M  V30 7016 H 680.061 -0.0801163 -4.84834 0
M  V30 7017 N 681.404 1.57128 0.121893 0
M  V30 7018 C 682.653 1.83888 0.828748 0
M  V30 7019 C 682.966 0.737087 1.81181 0
M  V30 7020 O 684.172 0.891007 2.56463 0
M  V30 7021 C 682.628 3.26014 1.52455 0
M  V30 7022 C 682.236 4.44195 0.58263 0
M  V30 7023 C 683.98 3.62025 2.21671 0
M  V30 7024 C 681.887 5.77349 1.28149 0
M  V30 7025 H 680.817 0.685856 0.313238 0
M  V30 7026 H 683.468 1.83319 0.0814851 0
M  V30 7027 H 681.85 3.21044 2.31834 0
M  V30 7028 H 683.024 4.60457 -0.177729 0
M  V30 7029 H 681.339 4.164 -0.00241228 0
M  V30 7030 H 683.936 4.58776 2.74643 0
M  V30 7031 H 684.279 2.89315 2.99337 0
M  V30 7032 H 684.812 3.68767 1.49184 0
M  V30 7033 H 681.551 6.53221 0.546189 0
M  V30 7034 H 681.071 5.64978 2.01394 0
M  V30 7035 H 682.75 6.21006 1.81549 0
M  V30 7036 N 682.882 -0.391992 1.52647 0
M  V30 7037 C 683.812 -1.48517 1.8018 0
M  V30 7038 C 684.793 -1.57039 0.653667 0
M  V30 7039 O 685.978 -1.72036 0.900962 0
M  V30 7040 C 683.108 -2.86161 1.96797 0
M  V30 7041 C 682.062 -2.92481 3.12472 0
M  V30 7042 C 681.388 -4.32546 3.14338 0
M  V30 7043 C 682.688 -2.624 4.51601 0
M  V30 7044 H 684.382 -1.25726 2.71723 0
M  V30 7045 H 681.928 -0.603387 1.30749 0
M  V30 7046 H 683.881 -3.62639 2.14641 0
M  V30 7047 H 682.605 -3.10283 1.01941 0
M  V30 7048 H 681.264 -2.18451 2.94406 0
M  V30 7049 H 680.912 -4.53703 2.1717 0
M  V30 7050 H 680.612 -4.37695 3.92042 0
M  V30 7051 H 682.136 -5.10934 3.34333 0
M  V30 7052 H 683.55 -3.28596 4.69785 0
M  V30 7053 H 681.947 -2.78903 5.3135 0
M  V30 7054 H 683.017 -1.57754 4.58521 0
M  V30 7055 N 684.36 -1.4356 -0.65026 0
M  V30 7056 C 685.608 -1.45046 -1.40734 0
M  V30 7057 C 685.929 -0.0769822 -1.94848 0
M  V30 7058 O 685.199 0.888098 -1.74613 0
M  V30 7059 H 683.779 -0.534034 -0.522318 0
M  V30 7060 H 686.441 -1.79186 -0.766703 0
M  V30 7061 H 685.537 -2.16476 -2.24822 0
M  V30 7062 N 685.838 0.888903 -1.30139 0
M  V30 7063 C 687.086 1.63713 -1.18501 0
M  V30 7064 C 687.407 1.9324 0.261399 0
M  V30 7065 O 686.677 1.56608 1.17689 0
M  V30 7066 H 685.257 0.606861 -0.435579 0
M  V30 7067 H 687.919 1.06525 -1.63213 0
M  V30 7068 H 687.015 2.58894 -1.743 0
M  V30 7069 N 687.317 1.12792 1.10072 0
M  V30 7070 C 688.545 0.908506 1.85886 0
M  V30 7071 C 688.96 -0.542408 1.80841 0
M  V30 7072 O 688.317 -1.37517 1.1998 0
M  V30 7073 C 688.368 1.37973 3.34134 0
M  V30 7074 O 688.089 2.77378 3.39106 0
M  V30 7075 C 689.59 1.1978 4.26811 0
M  V30 7076 H 686.81 0.3244 0.587372 0
M  V30 7077 H 689.354 1.49882 1.39125 0
M  V30 7078 H 687.509 0.832566 3.78348 0
M  V30 7079 H 687.923 2.98144 4.31521 0
M  V30 7080 H 689.397 1.57635 5.29014 0
M  V30 7081 H 689.874 0.138768 4.38981 0
M  V30 7082 H 690.48 1.73266 3.88406 0
M  V30 7083 N 688.795 -1.27931 0.920396 0
M  V30 7084 C 690.023 -1.98805 0.573087 0
M  V30 7085 C 690.438 -1.68724 -0.847201 0
M  V30 7086 O 689.795 -0.943699 -1.56207 0
M  V30 7087 C 689.846 -3.52971 0.780633 0
M  V30 7088 O 689.567 -3.81994 2.14504 0
M  V30 7089 C 691.068 -4.411 0.44105 0
M  V30 7090 H 688.288 -0.634651 0.21785 0
M  V30 7091 H 690.832 -1.62965 1.23542 0
M  V30 7092 H 688.987 -3.87048 0.165204 0
M  V30 7093 H 689.401 -4.76609 2.18962 0
M  V30 7094 H 690.875 -5.48312 0.637006 0
M  V30 7095 H 691.352 -4.34758 -0.62306 0
M  V30 7096 H 691.958 -4.12532 1.0343 0
M  V30 7097 N 690.273 -0.685099 -1.4193 0
M  V30 7098 C 691.236 -0.0222632 -2.29189 0
M  V30 7099 C 692.236 0.7186 -1.4385 0
M  V30 7100 O 693.426 0.555058 -1.6512 0
M  V30 7101 C 690.558 0.979013 -3.2654 0
M  V30 7102 H 691.751 -0.790424 -2.89296 0
M  V30 7103 H 689.304 -0.448012 -1.49742 0
M  V30 7104 H 690.039 1.77531 -2.71392 0
M  V30 7105 H 689.824 0.451037 -3.89497 0
M  V30 7106 H 691.314 1.44091 -3.91954 0
M  V30 7107 N 691.751 1.51645 -0.429126 0
M  V30 7108 C 692.714 2.26116 0.374726 0
M  V30 7109 C 693.714 1.29242 0.956714 0
M  V30 7110 O 694.904 1.53022 0.832452 0
M  V30 7111 C 692.036 3.04669 1.52937 0
M  V30 7112 H 693.229 2.9861 -0.277818 0
M  V30 7113 H 690.782 1.55236 -0.182097 0
M  V30 7114 H 691.517 2.36571 2.21821 0
M  V30 7115 H 691.302 3.75814 1.11833 0
M  V30 7116 H 692.792 3.61102 2.09751 0
M  V30 7117 N 693.229 0.160201 1.56784 0
M  V30 7118 C 694.477 -0.486625 1.96154 0
M  V30 7119 C 694.798 -1.64525 1.04673 0
M  V30 7120 O 694.068 -1.95586 0.110864 0
M  V30 7121 H 692.648 -0.182764 0.724297 0
M  V30 7122 H 695.31 0.238787 1.93432 0
M  V30 7123 H 694.406 -0.854025 3.00188 0
M  V30 7124 N 694.707 -1.5719 -0.113559 0
M  V30 7125 C 695.67 -1.99796 -1.12314 0
M  V30 7126 C 696.67 -0.888847 -1.34001 0
M  V30 7127 O 697.86 -1.15476 -1.30426 0
M  V30 7128 C 694.992 -2.34279 -2.47641 0
M  V30 7129 H 696.185 -2.90193 -0.756825 0
M  V30 7130 H 693.738 -1.52144 -0.358029 0
M  V30 7131 H 694.473 -1.46778 -2.89183 0
M  V30 7132 H 694.258 -3.15175 -2.33253 0
M  V30 7133 H 695.748 -2.67963 -3.2029 0
M  V30 7134 N 696.185 0.383891 -1.52853 0
M  V30 7135 C 697.115 1.47559 -1.80965 0
M  V30 7136 C 698.096 1.5669 -0.661986 0
M  V30 7137 O 699.281 1.71556 -0.910072 0
M  V30 7138 C 696.411 2.85114 -1.98312 0
M  V30 7139 C 695.365 2.9082 -3.14019 0
M  V30 7140 C 694.691 4.30873 -3.16627 0
M  V30 7141 C 695.991 2.60001 -4.52986 0
M  V30 7142 H 697.685 1.24283 -2.72386 0
M  V30 7143 H 695.231 0.596445 -1.31067 0
M  V30 7144 H 697.184 3.61496 -2.16561 0
M  V30 7145 H 695.908 3.09738 -1.03585 0
M  V30 7146 H 694.567 2.16886 -2.9556 0
M  V30 7147 H 694.215 4.52545 -2.19573 0
M  V30 7148 H 693.915 4.3561 -3.94357 0
M  V30 7149 H 695.439 5.09154 -3.37038 0
M  V30 7150 H 696.853 3.261 -4.71521 0
M  V30 7151 H 695.25 2.76081 -5.32822 0
M  V30 7152 H 696.32 1.5532 -4.59351 0
M  V30 7153 N 697.663 1.43903 0.642637 0
M  V30 7154 C 698.593 1.52697 1.76652 0
M  V30 7155 C 699.574 0.380816 1.65782 0
M  V30 7156 O 700.759 0.599432 1.84717 0
M  V30 7157 C 697.889 1.45975 3.15133 0
M  V30 7158 C 696.843 2.58949 3.40778 0
M  V30 7159 C 696.169 2.37279 4.79169 0
M  V30 7160 C 697.469 4.01153 3.34475 0
M  V30 7161 H 699.163 2.46766 1.69549 0
M  V30 7162 H 696.709 1.18767 0.814279 0
M  V30 7163 H 698.662 1.5073 3.93521 0
M  V30 7164 H 697.386 0.484162 3.22991 0
M  V30 7165 H 696.045 2.53564 2.64765 0
M  V30 7166 H 695.693 1.37939 4.83717 0
M  V30 7167 H 695.393 3.13016 4.97287 0
M  V30 7168 H 696.917 2.43834 5.59801 0
M  V30 7169 H 698.331 4.07968 4.02784 0
M  V30 7170 H 696.728 4.77001 3.64129 0
M  V30 7171 H 697.798 4.25539 2.32475 0
M  V30 7172 N 699.141 -0.881989 1.30609 0
M  V30 7173 C 700.371 -1.66469 1.22359 0
M  V30 7174 C 700.779 -1.87969 -0.215507 0
M  V30 7175 O 700.122 -1.42938 -1.15388 0
M  V30 7176 C 700.184 -3.06135 1.88472 0
M  V30 7177 C 699.848 -3.07795 3.37804 0
M  V30 7178 C 700.845 -2.86633 4.33749 0
M  V30 7179 C 698.53 -3.29297 3.793 0
M  V30 7180 C 700.524 -2.86934 5.69164 0
M  V30 7181 C 698.211 -3.29228 5.14832 0
M  V30 7182 C 699.209 -3.08071 6.09574 0
M  V30 7183 O 698.897 -3.07824 7.4263 0
M  V30 7184 H 698.629 -0.526129 0.424458 0
M  V30 7185 H 701.183 -1.11004 1.72821 0
M  V30 7186 H 699.413 -3.63276 1.32543 0
M  V30 7187 H 701.102 -3.66571 1.74301 0
M  V30 7188 H 701.868 -2.69814 4.0302 0
M  V30 7189 H 697.747 -3.44799 3.05998 0
M  V30 7190 H 701.291 -2.70339 6.43088 0
M  V30 7191 H 697.188 -3.45583 5.452 0
M  V30 7192 H 697.956 -3.2397 7.51656 0
M  V30 7193 N 700.619 -1.13374 -1.09472 0
M  V30 7194 C 701.896 -0.806329 -1.78207 0
M  V30 7195 C 702.276 0.702191 -1.99079 0
M  V30 7196 O 701.624 1.63931 -1.59182 0
M  V30 7197 C 701.834 -1.59271 -3.10538 0
M  V30 7198 C 703.182 -1.78509 -3.85253 0
M  V30 7199 O 704.206 -1.55866 -3.20288 0
M  V30 7200 O 703.065 -2.16287 -5.01879 0
M  V30 7201 H 700.159 -0.29435 -0.772843 0
M  V30 7202 H 702.705 -1.23833 -1.16033 0
M  V30 7203 H 701.477 -2.61792 -2.90828 0
M  V30 7204 H 701.1 -1.15562 -3.80436 0
M  V30 7205 N 702.098 1.27442 -0.927168 0
M  V30 7206 C 703.046 2.28844 -0.416333 0
M  V30 7207 C 704.04 1.61882 0.499057 0
M  V30 7208 O 705.246 1.75969 0.378817 0
M  V30 7209 H 701.621 0.742989 -0.116065 0
M  V30 7210 H 703.592 2.69344 -1.28438 0
M  V30 7211 C 702.341 3.4626 0.316107 0
M  V30 7212 H 701.664 3.97999 -0.379082 0
M  V30 7213 H 703.104 4.19173 0.637975 0
M  V30 7214 C 701.563 3.00211 1.5289 0
M  V30 7215 O 702.093 3.03837 2.62766 0
M  V30 7216 N 700.299 2.55713 1.38054 0
M  V30 7217 H 699.846 2.52962 0.4866 0
M  V30 7218 H 699.804 2.25264 2.19325 0
M  V30 7219 N 703.576 0.692616 1.41565 0
M  V30 7220 C 704.822 0.231408 2.02079 0
M  V30 7221 C 705.177 -1.15514 1.53864 0
M  V30 7222 O 704.47 -1.76786 0.73873 0
M  V30 7223 C 704.664 0.225073 3.56691 0
M  V30 7224 C 704.493 1.60947 4.19912 0
M  V30 7225 C 703.263 2.2116 4.54331 0
M  V30 7226 C 705.461 2.55553 4.46315 0
M  V30 7227 N 703.443 3.52195 5.02824 0
M  V30 7228 C 704.814 3.71263 4.96552 0
M  V30 7229 C 706.869 2.53857 4.28323 0
M  V30 7230 C 705.572 4.85555 5.30687 0
M  V30 7231 C 707.598 3.67259 4.63546 0
M  V30 7232 C 706.96 4.81699 5.13951 0
M  V30 7233 H 703.059 0.130001 0.771119 0
M  V30 7234 H 705.643 0.909459 1.72154 0
M  V30 7235 H 703.814 -0.422453 3.86096 0
M  V30 7236 H 705.546 -0.250685 4.03923 0
M  V30 7237 H 702.301 1.73474 4.40685 0
M  V30 7238 H 702.725 4.19354 5.3148 0
M  V30 7239 H 707.367 1.66598 3.88594 0
M  V30 7240 H 705.085 5.73477 5.69341 0
M  V30 7241 H 708.671 3.67195 4.51286 0
M  V30 7242 H 707.551 5.67995 5.40695 0
M  V30 7243 N 705.054 -1.51416 0.437162 0
M  V30 7244 C 706.3 -2.02386 -0.129555 0
M  V30 7245 C 706.633 -1.32071 -1.42376 0
M  V30 7246 O 705.908 -0.43559 -1.8956 0
M  V30 7247 C 706.191 -3.5841 -0.348487 0
M  V30 7248 C 706.044 -4.39341 0.964352 0
M  V30 7249 C 707.363 -4.25654 -1.11834 0
M  V30 7250 H 704.482 -0.735587 -0.0456109 0
M  V30 7251 H 707.124 -1.81055 0.576124 0
M  V30 7252 H 705.274 -3.76716 -0.949592 0
M  V30 7253 H 706.946 -4.32685 1.59942 0
M  V30 7254 H 705.189 -4.04432 1.56898 0
M  V30 7255 H 705.86 -5.4667 0.765212 0
M  V30 7256 H 708.336 -4.11617 -0.609165 0
M  V30 7257 H 707.212 -5.34704 -1.24029 0
M  V30 7258 H 707.473 -3.86502 -2.14636 0
M  V30 7259 N 706.532 -0.168513 -1.56696 0
M  V30 7260 C 707.462 0.758563 -2.20835 0
M  V30 7261 C 708.443 1.24121 -1.1631 0
M  V30 7262 O 709.628 1.29487 -1.4473 0
M  V30 7263 C 706.758 1.9892 -2.8469 0
M  V30 7264 C 705.712 1.64252 -3.95228 0
M  V30 7265 C 705.038 2.94757 -4.46119 0
M  V30 7266 C 706.338 0.872675 -5.14958 0
M  V30 7267 H 708.032 0.223953 -2.98561 0
M  V30 7268 H 705.578 0.106277 -1.43607 0
M  V30 7269 H 707.531 2.64275 -3.28233 0
M  V30 7270 H 706.255 2.5479 -2.04327 0
M  V30 7271 H 704.914 1.01266 -3.52336 0
M  V30 7272 H 704.562 3.48662 -3.62552 0
M  V30 7273 H 704.262 2.72316 -5.2069 0
M  V30 7274 H 705.786 3.61147 -4.92347 0
M  V30 7275 H 707.2 1.42875 -5.55211 0
M  V30 7276 H 705.597 0.747402 -5.95428 0
M  V30 7277 H 706.667 -0.131535 -4.84722 0
M  V30 7278 N 708.01 1.57248 0.105221 0
M  V30 7279 C 709.238 1.89768 0.82437 0
M  V30 7280 C 709.653 0.761192 1.72775 0
M  V30 7281 O 709.01 -0.267342 1.80531 0
M  V30 7282 C 709.061 3.2184 1.64625 0
M  V30 7283 O 708.782 4.31115 0.779217 0
M  V30 7284 C 710.283 3.68155 2.46935 0
M  V30 7285 H 707.503 0.628031 0.236259 0
M  V30 7286 H 710.047 2.04321 0.085485 0
M  V30 7287 H 708.202 3.08915 2.33775 0
M  V30 7288 H 708.616 5.06897 1.34745 0
M  V30 7289 H 710.09 4.6329 3.00111 0
M  V30 7290 H 710.567 2.95492 3.24932 0
M  V30 7291 H 711.173 3.83914 1.83002 0
M  V30 7292 N 709.488 -0.375779 1.53054 0
M  V30 7293 C 710.451 -1.44254 1.7811 0
M  V30 7294 C 711.451 -1.47018 0.651328 0
M  V30 7295 O 712.641 -1.47957 0.919472 0
M  V30 7296 C 709.773 -2.8345 1.89391 0
M  V30 7297 H 710.966 -1.23316 2.73374 0
M  V30 7298 H 708.519 -0.608312 1.43977 0
M  V30 7299 H 709.254 -3.09716 0.961589 0
M  V30 7300 H 709.039 -2.82844 2.71555 0
M  V30 7301 H 710.529 -3.60722 2.10404 0
M  V30 7302 N 710.966 -1.44241 -0.634997 0
M  V30 7303 C 711.929 -1.50457 -1.72903 0
M  V30 7304 C 712.929 -0.387058 -1.56072 0
M  V30 7305 O 714.119 -0.649531 -1.61638 0
M  V30 7306 C 711.251 -1.37477 -3.1195 0
M  V30 7307 H 712.444 -2.47907 -1.68767 0
M  V30 7308 H 709.997 -1.31276 -0.84831 0
M  V30 7309 H 710.732 -0.41106 -3.21684 0
M  V30 7310 H 710.517 -2.18506 -3.25573 0
M  V30 7311 H 712.007 -1.44799 -3.91692 0
M  V30 7312 N 712.444 0.87505 -1.31075 0
M  V30 7313 C 713.394 1.96933 -1.14898 0
M  V30 7314 C 714.378 1.60783 -0.0613703 0
M  V30 7315 O 715.57 1.74678 -0.285751 0
M  V30 7316 C 712.699 3.3253 -0.853166 0
M  V30 7317 C 711.785 3.74963 -1.98151 0
M  V30 7318 N 712.176 3.89403 -3.22799 0
M  V30 7319 C 710.474 4.04436 -1.8801 0
M  V30 7320 C 711.175 4.25563 -3.96574 0
M  V30 7321 N 710.151 4.3597 -3.24701 0
M  V30 7322 H 713.953 2.06201 -2.09424 0
M  V30 7323 H 711.467 1.06551 -1.22558 0
M  V30 7324 H 713.464 4.10666 -0.718266 0
M  V30 7325 H 712.124 3.24592 0.0839218 0
M  V30 7326 H 713.135 3.74266 -3.57974 0
M  V30 7327 H 709.812 4.04915 -1.01733 0
M  V30 7328 H 711.202 4.44375 -5.03965 0
M  V30 7329 N 713.922 1.13953 1.08869 0
M  V30 7330 C 714.885 0.824991 2.13838 0
M  V30 7331 C 715.885 -0.168198 1.59918 0
M  V30 7332 O 717.075 0.0595778 1.74098 0
M  V30 7333 C 714.207 0.228938 3.4013 0
M  V30 7334 H 715.4 1.75521 2.43171 0
M  V30 7335 H 712.953 0.94492 1.24503 0
M  V30 7336 H 713.688 -0.710227 3.16427 0
M  V30 7337 H 713.473 0.944243 3.80561 0
M  V30 7338 H 714.963 0.0259223 4.17592 0
M  V30 7339 N 715.4 -1.26948 0.933913 0
M  V30 7340 C 716.646 -1.94374 0.57848 0
M  V30 7341 C 716.979 -1.73166 -0.879048 0
M  V30 7342 O 716.254 -1.06438 -1.62792 0
M  V30 7343 C 716.537 -3.4834 0.912739 0
M  V30 7344 C 716.39 -3.78866 2.42448 0
M  V30 7345 C 717.709 -4.38062 0.423003 0
M  V30 7346 H 714.828 -0.705959 0.211639 0
M  V30 7347 H 717.47 -1.49951 1.16682 0
M  V30 7348 H 715.62 -3.86309 0.412058 0
M  V30 7349 H 717.292 -3.50654 2.99733 0
M  V30 7350 H 715.535 -3.25198 2.87104 0
M  V30 7351 H 716.206 -4.86458 2.60887 0
M  V30 7352 H 718.682 -4.0728 0.852191 0
M  V30 7353 H 717.558 -5.44599 0.685776 0
M  V30 7354 H 717.819 -4.36886 -0.676994 0
M  V30 7355 N 716.879 -0.700114 -1.41195 0
M  V30 7356 C 718.109 -0.241828 -2.0518 0
M  V30 7357 C 718.517 1.1157 -1.52803 0
M  V30 7358 O 717.86 1.70926 -0.673042 0
M  V30 7359 C 717.922 -0.12695 -3.59276 0
M  V30 7360 C 717.586 -1.41725 -4.34469 0
M  V30 7361 C 718.583 -2.35604 -4.63451 0
M  V30 7362 C 716.268 -1.67189 -4.73659 0
M  V30 7363 C 718.262 -3.53204 -5.3059 0
M  V30 7364 C 715.949 -2.85073 -5.40534 0
M  V30 7365 C 716.947 -3.77904 -5.68927 0
M  V30 7366 O 716.635 -4.93723 -6.34424 0
M  V30 7367 H 716.367 -0.109247 -0.667114 0
M  V30 7368 H 718.921 -0.954538 -1.81873 0
M  V30 7369 H 717.151 0.641571 -3.81341 0
M  V30 7370 H 718.84 0.294748 -4.04828 0
M  V30 7371 H 719.606 -2.1719 -4.33651 0
M  V30 7372 H 715.485 -0.957935 -4.50937 0
M  V30 7373 H 719.029 -4.25679 -5.52669 0
M  V30 7374 H 714.926 -3.03402 -5.69752 0
M  V30 7375 H 715.694 -4.93597 -6.5292 0
M  V30 7376 N 718.357 1.51182 -0.445186 0
M  V30 7377 C 719.267 2.31692 0.368255 0
M  V30 7378 C 720.283 1.40942 1.02036 0
M  V30 7379 O 721.459 1.74011 1.01401 0
M  V30 7380 C 718.524 3.14903 1.45041 0
M  V30 7381 C 717.585 4.21442 0.817615 0
M  V30 7382 C 716.818 5.00677 1.8482 0
M  V30 7383 O 717.041 4.80644 3.07145 0
M  V30 7384 O 715.975 5.84559 1.43438 0
M  V30 7385 H 719.801 3.0232 -0.289219 0
M  V30 7386 H 717.386 1.47951 -0.207555 0
M  V30 7387 H 719.268 3.66612 2.07783 0
M  V30 7388 H 717.943 2.47031 2.09182 0
M  V30 7389 H 716.85 3.73791 0.151931 0
M  V30 7390 H 718.183 4.9171 0.219564 0
M  V30 7391 N 719.835 0.176821 1.56605 0
M  V30 7392 C 720.767 -0.782836 2.15417 0
M  V30 7393 C 721.78 -1.18982 1.11117 0
M  V30 7394 O 722.969 -1.12872 1.38283 0
M  V30 7395 C 720.069 -2.06596 2.68647 0
M  V30 7396 C 719.242 -1.82167 3.9766 0
M  V30 7397 C 718.301 -2.94751 4.35899 0
M  V30 7398 O 717.327 -2.65148 5.03672 0
M  V30 7399 N 718.529 -4.2267 3.97907 0
M  V30 7400 H 721.294 -0.280012 2.98389 0
M  V30 7401 H 718.855 -0.00577529 1.61899 0
M  V30 7402 H 720.847 -2.81018 2.91223 0
M  V30 7403 H 719.417 -2.48054 1.90232 0
M  V30 7404 H 718.637 -0.916208 3.83405 0
M  V30 7405 H 719.925 -1.6322 4.81909 0
M  V30 7406 H 719.323 -4.4958 3.43357 0
M  V30 7407 H 717.88 -4.93778 4.25472 0
M  V30 7408 N 721.313 -1.57302 -0.09688 0
M  V30 7409 C 722.26 -2.01933 -1.11766 0
M  V30 7410 C 723.23 -0.895329 -1.39904 0
M  V30 7411 O 724.415 -1.16119 -1.51397 0
M  V30 7412 C 721.555 -2.44726 -2.43317 0
M  V30 7413 C 720.668 -3.70639 -2.21925 0
M  V30 7414 C 719.803 -4.02318 -3.46862 0
M  V30 7415 C 718.842 -5.21346 -3.20725 0
M  V30 7416 N 717.979 -5.48787 -4.37924 0
M  V30 7417 H 722.819 -2.88919 -0.730075 0
M  V30 7418 H 720.356 -1.42901 -0.348962 0
M  V30 7419 H 722.314 -2.6758 -3.20088 0
M  V30 7420 H 720.944 -1.60753 -2.79926 0
M  V30 7421 H 719.996 -3.55271 -1.35965 0
M  V30 7422 H 721.308 -4.57557 -1.98603 0
M  V30 7423 H 720.462 -4.25939 -4.32042 0
M  V30 7424 H 719.201 -3.13918 -3.73238 0
M  V30 7425 H 718.206 -4.97547 -2.33938 0
M  V30 7426 H 719.431 -6.11343 -2.95697 0
M  V30 7427 H 717.377 -4.63346 -4.64378 0
M  V30 7428 H 717.294 -6.30073 -4.17785 0
M  V30 7429 H 718.562 -5.76943 -5.24173 0
M  V30 7430 N 722.791 0.367657 -1.53252 0
M  V30 7431 C 723.741 1.45035 -1.75923 0
M  V30 7432 C 724.725 1.48736 -0.613719 0
M  V30 7433 O 725.917 1.54012 -0.872313 0
M  V30 7434 C 723.046 2.82493 -1.9507 0
M  V30 7435 C 722.132 2.83279 -3.15617 0
M  V30 7436 N 722.523 2.53712 -4.37566 0
M  V30 7437 C 720.821 3.1444 -3.16297 0
M  V30 7438 C 721.522 2.62123 -5.19294 0
M  V30 7439 N 720.498 2.96747 -4.55458 0
M  V30 7440 H 724.3 1.21035 -2.6782 0
M  V30 7441 H 721.814 0.575822 -1.51849 0
M  V30 7442 H 723.811 3.60473 -2.0944 0
M  V30 7443 H 722.471 3.07459 -1.044 0
M  V30 7444 H 723.482 2.27344 -4.65333 0
M  V30 7445 H 720.159 3.44733 -2.35511 0
M  V30 7446 H 721.549 2.42628 -6.26563 0
M  V30 7447 N 724.269 1.44576 0.627338 0
M  V30 7448 C 725.546 1.38033 1.38586 0
M  V30 7449 C 725.926 0.0409468 2.1106 0
M  V30 7450 O 725.274 -0.976582 2.0658 0
M  V30 7451 C 725.484 2.58102 2.34913 0
M  V30 7452 C 726.832 3.02332 2.98129 0
M  V30 7453 O 727.856 2.58334 2.45238 0
M  V30 7454 O 726.715 3.78628 3.94085 0
M  V30 7455 H 723.809 0.546801 0.620434 0
M  V30 7456 H 726.355 1.56672 0.652077 0
M  V30 7457 H 725.127 3.4719 1.80485 0
M  V30 7458 H 724.75 2.41696 3.15703 0
M  V30 7459 N 725.747 -0.868086 1.31537 0
M  V30 7460 C 726.71 -1.95703 1.19302 0
M  V30 7461 C 727.71 -1.60355 0.119612 0
M  V30 7462 O 728.9 -1.70247 0.36902 0
M  V30 7463 C 726.032 -3.30599 0.831684 0
M  V30 7464 H 727.225 -2.07982 2.16064 0
M  V30 7465 H 724.778 -1.05661 1.15176 0
M  V30 7466 H 725.513 -3.2402 -0.134694 0
M  V30 7467 H 725.298 -3.57629 1.60761 0
M  V30 7468 H 726.788 -4.10439 0.770026 0
M  V30 7469 N 727.225 -1.14528 -1.08264 0
M  V30 7470 C 728.45 -0.938381 -1.84957 0
M  V30 7471 C 728.875 0.508044 -1.81109 0
M  V30 7472 O 728.233 1.36146 -1.19724 0
M  V30 7473 C 728.281 -1.44568 -3.30352 0
M  V30 7474 O 727.385 -0.638745 -4.07423 0
M  V30 7475 H 726.726 -0.335394 -0.573068 0
M  V30 7476 H 729.256 -1.52287 -1.36637 0
M  V30 7477 H 729.266 -1.45449 -3.81194 0
M  V30 7478 H 727.941 -2.49876 -3.32468 0
M  V30 7479 H 726.518 -0.698801 -3.66294 0
M  V30 7480 N 728.703 1.26451 -0.940633 0
M  V30 7481 C 729.666 2.24651 -0.454378 0
M  V30 7482 C 730.666 1.54826 0.434222 0
M  V30 7483 O 731.856 1.72628 0.233477 0
M  V30 7484 C 728.988 3.39148 0.345192 0
M  V30 7485 H 730.181 2.69182 -1.32217 0
M  V30 7486 H 727.734 1.38596 -0.722547 0
M  V30 7487 H 728.469 3.00018 1.23125 0
M  V30 7488 H 728.254 3.9101 -0.292107 0
M  V30 7489 H 729.744 4.12103 0.675341 0
M  V30 7490 N 730.181 0.707592 1.40822 0
M  V30 7491 C 731.111 0.0644925 2.33411 0
M  V30 7492 C 732.092 -0.754205 1.52466 0
M  V30 7493 O 733.277 -0.704749 1.80961 0
M  V30 7494 C 730.407 -0.863865 3.36385 0
M  V30 7495 C 729.361 -0.15138 4.27732 0
M  V30 7496 C 728.687 -1.19491 5.21177 0
M  V30 7497 C 729.987 0.989607 5.12839 0
M  V30 7498 H 731.681 0.837829 2.87438 0
M  V30 7499 H 729.227 0.404346 1.38207 0
M  V30 7500 H 731.18 -1.32309 4.0009 0
M  V30 7501 H 729.904 -1.66901 2.80734 0
M  V30 7502 H 728.563 0.287937 3.65467 0
M  V30 7503 H 728.211 -1.9929 4.61836 0
M  V30 7504 H 727.911 -0.723123 5.83134 0
M  V30 7505 H 729.435 -1.6544 5.8776 0
M  V30 7506 H 730.849 0.610114 5.70044 0
M  V30 7507 H 729.246 1.38926 5.83798 0
M  V30 7508 H 730.316 1.82389 4.49291 0
M  V30 7509 N 731.66 -1.50943 0.453197 0
M  V30 7510 C 732.937 -1.94872 -0.168633 0
M  V30 7511 C 733.317 -1.39272 -1.5864 0
M  V30 7512 O 732.665 -0.586272 -2.20851 0
M  V30 7513 C 732.875 -3.48757 -0.130217 0
M  V30 7514 C 734.223 -4.23331 -0.327975 0
M  V30 7515 O 735.247 -3.55594 -0.207619 0
M  V30 7516 O 734.106 -5.43529 -0.569077 0
M  V30 7517 H 731.2 -0.818042 -0.121394 0
M  V30 7518 H 733.746 -1.61782 0.512316 0
M  V30 7519 H 732.518 -3.81725 0.860346 0
M  V30 7520 H 732.141 -3.88333 -0.853397 0
M  V30 7521 N 733.138 -0.185124 -1.56509 0
M  V30 7522 C 734.387 0.456421 -1.96468 0
M  V30 7523 C 734.7 1.63448 -1.07444 0
M  V30 7524 O 735.906 2.34316 -1.37143 0
M  V30 7525 C 734.362 0.863404 -3.4939 0
M  V30 7526 C 733.97 -0.289815 -4.47062 0
M  V30 7527 C 735.714 1.47259 -3.98139 0
M  V30 7528 C 733.621 0.137571 -5.9124 0
M  V30 7529 H 732.551 0.17429 -0.733579 0
M  V30 7530 H 735.202 -0.275554 -1.81419 0
M  V30 7531 H 733.584 1.65176 -3.59907 0
M  V30 7532 H 734.758 -1.06728 -4.4827 0
M  V30 7533 H 733.073 -0.809851 -4.08449 0
M  V30 7534 H 735.67 1.80463 -5.03326 0
M  V30 7535 H 736.013 2.3755 -3.41871 0
M  V30 7536 H 736.546 0.748405 -3.90696 0
M  V30 7537 H 733.285 -0.730907 -6.51412 0
M  V30 7538 H 732.805 0.8801 -5.93308 0
M  V30 7539 H 734.484 0.576771 -6.44424 0
M  V30 7540 N 734.616 1.57351 0.0885366 0
M  V30 7541 C 736.032 1.53331 0.442916 0
M  V30 7542 C 736.232 0.902831 1.80142 0
M  V30 7543 O 735.288 0.498147 2.47537 0
M  V30 7544 C 736.601 2.98036 0.399372 0
M  V30 7545 C 738.149 3.09286 0.480759 0
M  V30 7546 C 738.624 4.5561 0.467296 0
M  V30 7547 N 740.115 4.60182 0.52786 0
M  V30 7548 C 740.85 5.70857 0.539388 0
M  V30 7549 N 740.346 6.90944 0.506729 0
M  V30 7550 N 742.139 5.59051 0.584691 0
M  V30 7551 H 734.29 1.96709 -0.801215 0
M  V30 7552 H 736.553 0.899639 -0.298922 0
M  V30 7553 H 736.259 3.47656 -0.531806 0
M  V30 7554 H 736.133 3.57066 1.21589 0
M  V30 7555 H 738.52 2.5965 1.40236 0
M  V30 7556 H 738.601 2.53197 -0.364023 0
M  V30 7557 H 738.245 5.05899 -0.450384 0
M  V30 7558 H 738.175 5.09544 1.32938 0
M  V30 7559 H 740.666 3.73757 0.558028 0
M  V30 7560 H 740.979 7.71055 0.518989 0
M  V30 7561 H 739.324 6.93384 0.473675 0
M  V30 7562 H 742.515 4.64138 0.607781 0
M  V30 7563 H 742.688 6.45307 0.590206 0
M  V30 7564 N 736.094 -0.359525 1.53444 0
M  V30 7565 C 737.027 -1.46338 1.75101 0
M  V30 7566 C 738.005 -1.51142 0.599559 0
M  V30 7567 O 739.189 -1.69102 0.832862 0
M  V30 7568 C 736.316 -2.84667 1.83527 0
M  V30 7569 C 735.362 -2.9756 3.05549 0
M  V30 7570 S 736.195 -2.65685 4.64943 0
M  V30 7571 C 737.351 -4.06153 4.76225 0
M  V30 7572 H 737.584 -1.27747 2.68455 0
M  V30 7573 H 735.117 -0.554231 1.4411 0
M  V30 7574 H 737.075 -3.64368 1.89067 0
M  V30 7575 H 735.736 -3.00564 0.912147 0
M  V30 7576 H 734.929 -3.98883 3.08072 0
M  V30 7577 H 734.531 -2.25789 2.98153 0
M  V30 7578 H 736.823 -5.00475 4.56652 0
M  V30 7579 H 737.766 -4.08632 5.78295 0
M  V30 7580 H 738.174 -3.93435 4.04808 0
M  V30 7581 N 737.572 -1.44907 -0.619662 0
M  V30 7582 C 738.82 -1.47999 -1.37625 0
M  V30 7583 C 739.141 -0.118295 -1.94641 0
M  V30 7584 O 738.411 0.85086 -1.76457 0
M  V30 7585 H 736.991 -0.544993 -0.510873 0
M  V30 7586 H 739.653 -1.80772 -0.728522 0
M  V30 7587 H 738.749 -2.21196 -2.20179 0
M  V30 7588 N 739.05 0.861098 -1.31996 0
M  V30 7589 C 740.278 1.6474 -1.25173 0
M  V30 7590 C 740.693 1.87926 0.181425 0
M  V30 7591 O 740.05 1.4437 1.1164 0
M  V30 7592 C 740.101 3.01036 -2.0015 0
M  V30 7593 O 739.822 2.7888 -3.37872 0
M  V30 7594 C 741.323 3.95481 -2.00273 0
M  V30 7595 H 738.543 0.513314 -0.432146 0
M  V30 7596 H 741.087 1.07419 -1.74016 0
M  V30 7597 H 739.242 3.55021 -1.55046 0
M  V30 7598 H 739.656 3.65514 -3.76165 0
M  V30 7599 H 741.13 4.88403 -2.57229 0
M  V30 7600 H 741.607 4.27957 -0.987407 0
M  V30 7601 H 742.213 3.47433 -2.45296 0
M  V30 7602 N 740.528 1.15101 1.07655 0
M  V30 7603 C 741.458 0.867864 2.16773 0
M  V30 7604 C 742.439 -0.180283 1.69142 0
M  V30 7605 O 743.624 -0.0353152 1.94168 0
M  V30 7606 C 740.754 0.35299 3.45501 0
M  V30 7607 C 739.708 1.33746 4.06566 0
M  V30 7608 C 739.034 0.681562 5.30338 0
M  V30 7609 C 740.334 2.7024 4.46954 0
M  V30 7610 H 742.028 1.78034 2.40716 0
M  V30 7611 H 739.574 0.857435 1.15689 0
M  V30 7612 H 741.527 0.142465 4.21159 0
M  V30 7613 H 740.251 -0.594945 3.21135 0
M  V30 7614 H 738.91 1.53429 3.32949 0
M  V30 7615 H 738.558 -0.272422 5.02262 0
M  V30 7616 H 738.258 1.33853 5.72151 0
M  V30 7617 H 739.782 0.48074 6.08705 0
M  V30 7618 H 741.196 2.5442 5.13754 0
M  V30 7619 H 739.593 3.32282 4.99709 0
M  V30 7620 H 740.663 3.26537 3.58471 0
M  V30 7621 N 742.006 -1.2595 0.947325 0
M  V30 7622 C 742.953 -2.26159 0.460497 0
M  V30 7623 C 743.923 -1.58919 -0.483125 0
M  V30 7624 O 745.108 -1.86603 -0.397983 0
M  V30 7625 C 742.248 -3.441 -0.26247 0
M  V30 7626 C 741.361 -4.25999 0.717539 0
M  V30 7627 C 740.496 -5.31193 -0.0272486 0
M  V30 7628 C 739.535 -6.04774 0.944177 0
M  V30 7629 N 738.672 -7.01721 0.230741 0
M  V30 7630 H 743.512 -2.67173 1.31995 0
M  V30 7631 H 741.049 -1.31358 0.662088 0
M  V30 7632 H 743.007 -4.11317 -0.698137 0
M  V30 7633 H 741.637 -3.03983 -1.08602 0
M  V30 7634 H 740.689 -3.58513 1.27171 0
M  V30 7635 H 742.001 -4.76981 1.45913 0
M  V30 7636 H 741.155 -6.04451 -0.521903 0
M  V30 7637 H 739.894 -4.81066 -0.801682 0
M  V30 7638 H 738.899 -5.30338 1.4499 0
M  V30 7639 H 740.124 -6.56991 1.71872 0
M  V30 7640 H 738.07 -6.53895 -0.525088 0
M  V30 7641 H 737.987 -7.50484 0.911556 0
M  V30 7642 H 739.255 -7.79122 -0.242616 0
M  V30 7643 N 743.484 -0.715051 -1.40445 0
M  V30 7644 C 744.9 -0.388555 -1.54798 0
M  V30 7645 C 745.1 1.10271 -1.68649 0
M  V30 7646 O 744.156 1.88875 -1.67578 0
M  V30 7647 C 745.469 -1.15414 -2.77669 0
M  V30 7648 C 747.017 -1.14039 -2.91486 0
M  V30 7649 C 747.492 -1.88812 -4.1727 0
M  V30 7650 N 748.983 -1.85878 -4.24268 0
M  V30 7651 C 749.718 -2.40558 -5.20499 0
M  V30 7652 N 749.214 -3.03791 -6.22642 0
M  V30 7653 N 751.007 -2.30703 -5.12574 0
M  V30 7654 H 743.158 -1.68201 -1.297 0
M  V30 7655 H 745.421 -0.710915 -0.627139 0
M  V30 7656 H 745.127 -2.20853 -2.7371 0
M  V30 7657 H 745.001 -0.745412 -3.69761 0
M  V30 7658 H 747.388 -0.0941996 -2.9495 0
M  V30 7659 H 747.469 -1.58834 -2.00513 0
M  V30 7660 H 747.113 -2.93422 -4.14568 0
M  V30 7661 H 747.043 -1.41438 -5.0725 0
M  V30 7662 H 749.534 -1.39794 -3.51093 0
M  V30 7663 H 749.847 -3.43032 -6.92495 0
M  V30 7664 H 748.192 -3.07875 -6.23087 0
M  V30 7665 H 751.383 -1.80961 -4.31707 0
M  V30 7666 H 751.556 -2.73618 -5.87398 0
M  V30 7667 N 744.962 1.50701 -0.461195 0
M  V30 7668 C 745.892 2.31182 0.328184 0
M  V30 7669 C 746.873 1.37644 0.999408 0
M  V30 7670 O 748.058 1.66565 0.99848 0
M  V30 7671 C 745.188 3.17113 1.41621 0
M  V30 7672 C 744.142 4.19124 0.867148 0
M  V30 7673 C 743.468 4.93728 2.05272 0
M  V30 7674 C 744.768 5.22174 -0.114808 0
M  V30 7675 H 746.462 2.97423 -0.343501 0
M  V30 7676 H 744.008 1.43033 -0.166641 0
M  V30 7677 H 745.961 3.72208 1.97584 0
M  V30 7678 H 744.685 2.48739 2.11652 0
M  V30 7679 H 743.344 3.65116 0.329557 0
M  V30 7680 H 742.992 4.21835 2.73978 0
M  V30 7681 H 742.692 5.62724 1.69161 0
M  V30 7682 H 744.216 5.51654 2.61744 0
M  V30 7683 H 745.63 5.72198 0.355316 0
M  V30 7684 H 744.027 5.98833 -0.389689 0
M  V30 7685 H 745.097 4.7353 -1.04391 0
M  V30 7686 N 746.441 0.193421 1.56409 0
M  V30 7687 C 747.666 -0.454552 2.02358 0
M  V30 7688 C 748.091 -1.54516 1.07268 0
M  V30 7689 O 747.449 -1.81214 0.0558962 0
M  V30 7690 C 747.497 -0.989469 3.46759 0
M  V30 7691 O 746.601 -2.10244 3.54783 0
M  V30 7692 H 745.942 -0.106417 0.655417 0
M  V30 7693 H 748.472 0.303807 2.02332 0
M  V30 7694 H 748.482 -1.30649 3.86516 0
M  V30 7695 H 747.157 -0.191083 4.15461 0
M  V30 7696 H 745.734 -1.79419 3.26899 0
M  V30 7697 N 747.919 -1.57396 -0.0801906 0
M  V30 7698 C 749.33 -1.75642 -0.633002 0
M  V30 7699 C 749.681 -0.817708 -1.78348 0
M  V30 7700 O 748.806 0.000233743 -2.164 0
M  V30 7701 C 749.401 -3.18502 -1.15507 0
M  V30 7702 C 747.96 -3.38121 -1.65381 0
M  V30 7703 C 747.107 -2.71386 -0.569661 0
M  V30 7704 H 750.058 -1.58027 0.145949 0
M  V30 7705 H 750.079 -3.22198 -2.02408 0
M  V30 7706 H 749.591 -3.86799 -0.317515 0
M  V30 7707 H 747.692 -2.74926 -2.51488 0
M  V30 7708 H 747.805 -4.46521 -1.73654 0
M  V30 7709 H 746.169 -2.33702 -1.0127 0
M  V30 7710 H 746.952 -3.42332 0.257561 0
M  V30 7711 N 749.397 0.351382 -1.53633 0
M  V30 7712 C 750.347 1.4316 -1.77452 0
M  V30 7713 C 751.331 1.48076 -0.62946 0
M  V30 7714 O 752.523 1.53078 -0.888599 0
M  V30 7715 C 749.652 2.80409 -1.98055 0
M  V30 7716 C 748.738 2.79915 -3.18604 0
M  V30 7717 N 749.129 2.49057 -4.40232 0
M  V30 7718 C 747.427 3.11067 -3.19614 0
M  V30 7719 C 748.128 2.566 -5.22045 0
M  V30 7720 N 747.104 2.919 -4.5858 0
M  V30 7721 H 750.906 1.18188 -2.69089 0
M  V30 7722 H 748.42 0.559684 -1.52451 0
M  V30 7723 H 750.417 3.58231 -2.13251 0
M  V30 7724 H 749.077 3.06334 -1.07655 0
M  V30 7725 H 750.088 2.22395 -4.67719 0
M  V30 7726 H 746.765 3.42215 -2.39154 0
M  V30 7727 H 748.155 2.35968 -6.29101 0
M  V30 7728 N 750.875 1.45233 0.611969 0
M  V30 7729 C 752.105 1.52318 1.39581 0
M  V30 7730 C 752.513 0.153093 1.8858 0
M  V30 7731 O 751.856 -0.854792 1.62601 0
M  V30 7732 C 751.918 2.4426 2.63775 0
M  V30 7733 C 751.582 3.91079 2.36445 0
M  V30 7734 C 752.579 4.81099 1.97079 0
M  V30 7735 C 750.264 4.35958 2.49492 0
M  V30 7736 C 752.258 6.14002 1.71115 0
M  V30 7737 C 749.945 5.68903 2.23142 0
M  V30 7738 C 750.943 6.57744 1.84015 0
M  V30 7739 O 750.631 7.88226 1.5797 0
M  V30 7740 H 750.363 0.518428 0.43383 0
M  V30 7741 H 752.917 1.91067 0.753837 0
M  V30 7742 H 751.147 2.00474 3.30677 0
M  V30 7743 H 752.836 2.42077 3.25812 0
M  V30 7744 H 753.602 4.47692 1.86539 0
M  V30 7745 H 749.481 3.67053 2.78914 0
M  V30 7746 H 753.025 6.83305 1.405 0
M  V30 7747 H 748.922 6.01866 2.33297 0
M  V30 7748 H 749.69 8.00211 1.72058 0
M  V30 7749 N 752.353 -0.854086 1.3245 0
M  V30 7750 C 753.581 -1.64074 1.26045 0
M  V30 7751 C 753.996 -1.8802 -0.171456 0
M  V30 7752 O 753.353 -1.4496 -1.10873 0
M  V30 7753 C 753.404 -2.9997 2.01743 0
M  V30 7754 O 753.125 -2.77084 3.39346 0
M  V30 7755 C 754.626 -3.94414 2.02368 0
M  V30 7756 H 751.846 -0.511015 0.434862 0
M  V30 7757 H 754.39 -1.06494 1.74583 0
M  V30 7758 H 752.545 -3.54193 1.56926 0
M  V30 7759 H 752.959 -3.63514 3.78098 0
M  V30 7760 H 754.433 -4.87032 2.59815 0
M  V30 7761 H 754.91 -4.27427 1.01009 0
M  V30 7762 H 755.516 -3.46127 2.47135 0
M  V30 7763 N 753.831 -1.1567 -1.07043 0
M  V30 7764 C 754.763 -0.814095 -2.14255 0
M  V30 7765 C 755.776 0.175293 -1.61854 0
M  V30 7766 O 756.965 -0.0483984 -1.78434 0
M  V30 7767 C 754.065 -0.190082 -3.38367 0
M  V30 7768 C 753.238 -1.21768 -4.20109 0
M  V30 7769 C 752.297 -0.614863 -5.22595 0
M  V30 7770 O 751.323 -1.28167 -5.54583 0
M  V30 7771 N 752.525 0.601955 -5.77371 0
M  V30 7772 H 755.29 -1.73677 -2.44247 0
M  V30 7773 H 752.851 -1.05301 -1.22977 0
M  V30 7774 H 754.843 0.22604 -4.04068 0
M  V30 7775 H 753.413 0.635992 -3.06062 0
M  V30 7776 H 752.633 -1.81025 -3.50177 0
M  V30 7777 H 753.921 -1.9114 -4.71533 0
M  V30 7778 H 753.319 1.162 -5.53637 0
M  V30 7779 H 751.876 0.96039 -6.44686 0
M  V30 7780 N 755.309 1.25446 -0.953992 0
M  V30 7781 C 756.272 2.24156 -0.478179 0
M  V30 7782 C 757.272 1.55278 0.417776 0
M  V30 7783 O 758.462 1.72866 0.215155 0
M  V30 7784 C 755.594 3.39495 0.309202 0
M  V30 7785 H 756.787 2.67764 -1.35064 0
M  V30 7786 H 754.34 1.37822 -0.737206 0
M  V30 7787 H 755.075 3.01307 1.19936 0
M  V30 7788 H 754.86 3.90679 -0.333562 0
M  V30 7789 H 756.35 4.12796 0.631594 0
M  V30 7790 N 756.787 0.722489 1.40064 0
M  V30 7791 C 758.033 0.27422 2.01543 0
M  V30 7792 C 758.388 -1.12224 1.5628 0
M  V30 7793 O 757.681 -1.75179 0.776063 0
M  V30 7794 C 757.875 0.300682 3.56133 0
M  V30 7795 C 757.704 1.69818 4.16404 0
M  V30 7796 C 756.474 2.30747 4.49537 0
M  V30 7797 C 758.672 2.64962 4.40794 0
M  V30 7798 N 756.654 3.62781 4.9524 0
M  V30 7799 C 758.025 3.81712 4.88565 0
M  V30 7800 C 760.08 2.62885 4.22842 0
M  V30 7801 C 758.783 4.96703 5.20268 0
M  V30 7802 C 760.809 3.77009 4.55652 0
M  V30 7803 C 760.171 4.92492 5.03618 0
M  V30 7804 H 756.27 0.146328 0.768188 0
M  V30 7805 H 758.854 0.94577 1.70186 0
M  V30 7806 H 757.025 -0.340461 3.86905 0
M  V30 7807 H 758.757 -0.164951 4.04364 0
M  V30 7808 H 755.512 1.82783 4.36907 0
M  V30 7809 H 755.936 4.30533 5.22465 0
M  V30 7810 H 760.578 1.74803 3.84972 0
M  V30 7811 H 758.296 5.85425 5.57049 0
M  V30 7812 H 761.882 3.76685 4.43396 0
M  V30 7813 H 760.762 5.79336 5.28525 0
M  V30 7814 N 758.265 -1.50454 0.469181 0
M  V30 7815 C 759.49 -2.0722 -0.0864892 0
M  V30 7816 C 759.915 -1.33098 -1.32916 0
M  V30 7817 O 759.273 -0.378084 -1.77314 0
M  V30 7818 C 759.321 -3.58845 -0.355384 0
M  V30 7819 O 758.425 -3.86583 -1.43622 0
M  V30 7820 H 757.766 -0.663889 0.0121414 0
M  V30 7821 H 760.296 -1.93674 0.659674 0
M  V30 7822 H 760.306 -4.03617 -0.596447 0
M  V30 7823 H 758.981 -4.12211 0.552698 0
M  V30 7824 H 757.558 -3.5365 -1.18262 0
M  V30 7825 N 759.743 -0.201713 -1.56304 0
M  V30 7826 C 760.653 0.728296 -2.23009 0
M  V30 7827 C 761.669 1.22945 -1.23128 0
M  V30 7828 O 762.845 1.27523 -1.55884 0
M  V30 7829 C 759.91 1.92792 -2.88153 0
M  V30 7830 C 758.971 1.47068 -4.03323 0
M  V30 7831 C 758.204 2.61312 -4.65351 0
M  V30 7832 O 758.427 3.7896 -4.26317 0
M  V30 7833 O 757.361 2.33646 -5.54701 0
M  V30 7834 H 761.187 0.190166 -3.03104 0
M  V30 7835 H 758.772 0.0278725 -1.49374 0
M  V30 7836 H 760.654 2.6289 -3.29343 0
M  V30 7837 H 759.329 2.45452 -2.11033 0
M  V30 7838 H 758.236 0.738299 -3.66742 0
M  V30 7839 H 759.569 0.990666 -4.82127 0
M  V30 7840 N 761.222 1.57436 0.0718424 0
M  V30 7841 C 762.185 2.02703 1.06977 0
M  V30 7842 C 763.185 0.924062 1.31597 0
M  V30 7843 O 764.375 1.18894 1.27318 0
M  V30 7844 C 761.507 2.40763 2.41342 0
M  V30 7845 H 762.7 2.92098 0.679619 0
M  V30 7846 H 760.253 1.5304 0.317565 0
M  V30 7847 H 760.988 1.54394 2.8519 0
M  V30 7848 H 760.773 3.21249 2.24814 0
M  V30 7849 H 762.263 2.76361 3.13073 0
M  V30 7850 N 762.7 -0.34323 1.53817 0
M  V30 7851 C 763.946 -1.08504 1.71332 0
M  V30 7852 C 764.279 -1.88294 0.475285 0
M  V30 7853 O 763.554 -1.87205 -0.527688 0
M  V30 7854 C 763.837 -2.02597 2.97702 0
M  V30 7855 C 763.69 -1.26268 4.31713 0
M  V30 7856 C 765.009 -3.0241 3.19744 0
M  V30 7857 H 762.128 -0.393072 0.623429 0
M  V30 7858 H 764.77 -0.363579 1.86489 0
M  V30 7859 H 762.92 -2.64118 2.8491 0
M  V30 7860 H 764.592 -0.673594 4.56356 0
M  V30 7861 H 762.835 -0.564696 4.30109 0
M  V30 7862 H 763.506 -1.95253 5.16314 0
M  V30 7863 H 765.982 -2.51004 3.31868 0
M  V30 7864 H 764.858 -3.65449 4.09558 0
M  V30 7865 H 765.119 -3.73806 2.36054 0
M  V30 7866 N 764.178 -1.45556 -0.604258 0
M  V30 7867 C 765.425 -1.49746 -1.36317 0
M  V30 7868 C 765.753 -0.140516 -1.93992 0
M  V30 7869 O 765.008 0.861244 -1.7573 0
M  V30 7870 C 765.307 -2.52697 -2.52743 0
M  V30 7871 C 764.973 -3.97315 -2.13195 0
M  V30 7872 C 763.635 -4.36692 -2.02123 0
M  V30 7873 C 765.987 -4.88249 -1.8238 0
M  V30 7874 C 763.315 -5.64895 -1.58463 0
M  V30 7875 C 765.667 -6.16867 -1.40205 0
M  V30 7876 C 764.331 -6.55172 -1.27694 0
M  V30 7877 H 763.601 -0.54796 -0.49882 0
M  V30 7878 H 766.248 -1.7892 -0.682643 0
M  V30 7879 H 764.553 -2.17105 -3.26148 0
M  V30 7880 H 766.25 -2.53176 -3.10971 0
M  V30 7881 H 762.84 -3.66176 -2.22739 0
M  V30 7882 H 767.024 -4.58561 -1.89829 0
M  V30 7883 H 762.28 -5.93365 -1.47402 0
M  V30 7884 H 766.454 -6.86771 -1.15408 0
M  V30 7885 H 764.081 -7.54411 -0.936375 0
M  V30 7886 N 765.656 0.84705 -1.32902 0
M  V30 7887 C 766.905 1.59667 -1.23245 0
M  V30 7888 C 767.218 1.94551 0.202349 0
M  V30 7889 O 768.424 2.68218 0.420847 0
M  V30 7890 C 766.88 2.8795 -2.15901 0
M  V30 7891 C 766.488 2.60461 -3.64505 0
M  V30 7892 C 768.232 3.65968 -2.15098 0
M  V30 7893 C 766.139 3.84791 -4.49099 0
M  V30 7894 H 765.069 0.599167 -0.457728 0
M  V30 7895 H 767.72 0.934662 -1.57912 0
M  V30 7896 H 766.102 3.55648 -1.74157 0
M  V30 7897 H 767.276 2.01026 -4.14639 0
M  V30 7898 H 765.591 1.9576 -3.67515 0
M  V30 7899 H 768.188 4.58241 -2.75534 0
M  V30 7900 H 768.531 4.00275 -1.14392 0
M  V30 7901 H 769.064 3.05184 -2.55162 0
M  V30 7902 H 765.803 3.55621 -5.50649 0
M  V30 7903 H 765.323 4.43594 -4.03713 0
M  V30 7904 H 767.002 4.52454 -4.62487 0
M  V30 7905 N 767.134 1.16236 1.06428 0
M  V30 7906 C 768.084 0.835994 2.12121 0
M  V30 7907 C 769.068 -0.183955 1.59845 0
M  V30 7908 O 770.26 0.0166741 1.76992 0
M  V30 7909 C 767.389 0.337333 3.41639 0
M  V30 7910 C 766.475 1.38798 4.00744 0
M  V30 7911 N 766.866 2.59799 4.3398 0
M  V30 7912 C 765.164 1.24292 4.28331 0
M  V30 7913 C 765.865 3.27213 4.80943 0
M  V30 7914 N 764.841 2.54594 4.80294 0
M  V30 7915 H 768.643 1.75615 2.35662 0
M  V30 7916 H 766.157 1.04921 1.23957 0
M  V30 7917 H 768.154 0.0851274 4.16813 0
M  V30 7918 H 766.814 -0.57677 3.19536 0
M  V30 7919 H 767.825 2.96867 4.24371 0
M  V30 7920 H 764.502 0.389464 4.15679 0
M  V30 7921 H 765.892 4.30492 5.15874 0
M  V30 7922 N 768.612 -1.24939 0.960631 0
M  V30 7923 C 769.522 -2.29374 0.492435 0
M  V30 7924 C 770.538 -1.68262 -0.443154 0
M  V30 7925 O 771.714 -1.98875 -0.31793 0
M  V30 7926 C 768.779 -3.46023 -0.216626 0
M  V30 7927 C 767.84 -4.22557 0.757915 0
M  V30 7928 C 767.073 -5.33636 0.0825969 0
M  V30 7929 O 767.296 -5.59084 -1.13054 0
M  V30 7930 O 766.23 -5.96939 0.771177 0
M  V30 7931 H 770.056 -2.71525 1.36044 0
M  V30 7932 H 767.641 -1.30499 0.72735 0
M  V30 7933 H 769.523 -4.16885 -0.615241 0
M  V30 7934 H 768.198 -3.05862 -1.05971 0
M  V30 7935 H 767.105 -3.54099 1.20685 0
M  V30 7936 H 768.438 -4.66516 1.5692 0
M  V30 7937 N 770.09 -0.729906 -1.39679 0
M  V30 7938 C 771.338 -0.275077 -2.00219 0
M  V30 7939 C 771.659 1.1401 -1.58199 0
M  V30 7940 O 770.929 1.77546 -0.827904 0
M  V30 7941 H 769.509 -0.0987127 -0.740449 0
M  V30 7942 H 772.171 -0.93873 -1.70804 0
M  V30 7943 H 771.267 -0.319446 -3.10461 0
M  V30 7944 N 771.568 1.50203 -0.477153 0
M  V30 7945 C 772.798 2.0647 0.0731427 0
M  V30 7946 C 773.206 1.3405 1.33518 0
M  V30 7947 O 772.549 0.405164 1.79176 0
M  V30 7948 C 772.611 3.57025 0.421121 0
M  V30 7949 C 772.275 4.50973 -0.739765 0
M  V30 7950 C 773.272 4.939 -1.62353 0
M  V30 7951 C 770.957 4.93581 -0.93181 0
M  V30 7952 C 772.951 5.78149 -2.6837 0
M  V30 7953 C 770.638 5.77612 -1.99519 0
M  V30 7954 C 771.636 6.19798 -2.86949 0
M  V30 7955 O 771.324 7.02152 -3.91456 0
M  V30 7956 H 771.056 0.675969 -0.00648243 0
M  V30 7957 H 773.61 1.94278 -0.66673 0
M  V30 7958 H 771.84 3.67141 1.21426 0
M  V30 7959 H 773.529 3.95632 0.907213 0
M  V30 7960 H 774.295 4.61646 -1.48687 0
M  V30 7961 H 770.174 4.60262 -0.260739 0
M  V30 7962 H 773.718 6.10997 -3.36643 0
M  V30 7963 H 769.615 6.09279 -2.13189 0
M  V30 7964 H 770.383 7.20414 -3.88518 0
M  V30 7965 N 773.046 0.209999 1.56195 0
M  V30 7966 C 774.274 -0.429996 2.02382 0
M  V30 7967 C 774.689 -1.54159 1.08998 0
M  V30 7968 O 774.046 -1.82239 0.0974856 0
M  V30 7969 C 774.097 -0.972433 3.48175 0
M  V30 7970 O 773.818 0.0948231 4.37997 0
M  V30 7971 C 775.319 -1.68683 4.09952 0
M  V30 7972 H 772.539 -0.106475 0.662498 0
M  V30 7973 H 775.083 0.323072 2.01932 0
M  V30 7974 H 773.238 -1.67582 3.49278 0
M  V30 7975 H 773.652 -0.31113 5.23576 0
M  V30 7976 H 775.126 -2.01851 5.13771 0
M  V30 7977 H 775.603 -2.59587 3.54276 0
M  V30 7978 H 776.209 -1.02893 4.12666 0
M  V30 7979 N 774.524 -1.57472 -0.0634922 0
M  V30 7980 C 775.474 -2.00709 -1.08166 0
M  V30 7981 C 776.458 -0.890498 -1.34011 0
M  V30 7982 O 777.65 -1.15441 -1.34173 0
M  V30 7983 C 774.779 -2.46148 -2.39303 0
M  V30 7984 C 773.865 -3.64559 -2.16697 0
M  V30 7985 N 774.256 -4.78459 -1.64043 0
M  V30 7986 C 772.554 -3.71269 -2.47135 0
M  V30 7987 C 773.255 -5.60268 -1.56445 0
M  V30 7988 N 772.231 -5.04357 -2.02792 0
M  V30 7989 H 776.033 -2.86208 -0.668016 0
M  V30 7990 H 773.547 -1.60133 -0.270426 0
M  V30 7991 H 775.544 -2.75367 -3.13016 0
M  V30 7992 H 774.204 -1.62041 -2.81377 0
M  V30 7993 H 775.215 -5.00587 -1.32791 0
M  V30 7994 H 771.892 -2.97891 -2.92518 0
M  V30 7995 H 773.282 -6.6172 -1.16519 0
M  V30 7996 N 776.003 0.335068 -1.53997 0
M  V30 7997 C 777.28 1.09188 -1.62288 0
M  V30 7998 C 777.66 2.0626 -0.449458 0
M  V30 7999 O 777.008 2.21596 0.557444 0
M  V30 8000 C 777.218 1.80403 -2.98757 0
M  V30 8001 C 778.566 2.33841 -3.54406 0
M  V30 8002 O 779.59 1.90487 -3.00987 0
M  V30 8003 O 778.449 3.1318 -4.47862 0
M  V30 8004 H 775.543 0.502621 -0.656736 0
M  V30 8005 H 778.089 0.33588 -1.66343 0
M  V30 8006 H 776.861 1.09732 -3.75599 0
M  V30 8007 H 776.484 2.62841 -2.9833 0
M  V30 8008 N 777.481 1.45874 0.596531 0
M  V30 8009 C 778.444 1.54988 1.68853 0
M  V30 8010 C 779.444 0.428302 1.54991 0
M  V30 8011 O 780.634 0.692158 1.59859 0
M  V30 8012 C 777.766 1.457 3.08195 0
M  V30 8013 H 778.959 2.52294 1.62135 0
M  V30 8014 H 776.512 1.33479 0.813206 0
M  V30 8015 H 777.247 0.496204 3.20481 0
M  V30 8016 H 777.032 2.27061 3.19665 0
M  V30 8017 H 778.522 1.55133 3.87716 0
M  V30 8018 N 778.959 -0.83999 1.33349 0
M  V30 8019 C 780.207 -1.59202 1.24496 0
M  V30 8020 C 780.528 -1.94077 -0.189499 0
M  V30 8021 O 779.798 -1.60868 -1.11796 0
M  V30 8022 H 778.378 -0.590276 0.457802 0
M  V30 8023 H 781.04 -1.00394 1.67054 0
M  V30 8024 H 780.136 -2.52247 1.83788 0
M  V30 8025 N 780.437 -1.16799 -1.0581 0
M  V30 8026 C 781.684 -0.952524 -1.78699 0
M  V30 8027 C 782.012 0.51931 -1.87439 0
M  V30 8028 O 781.267 1.40151 -1.36587 0
M  V30 8029 C 781.566 -1.53111 -3.22942 0
M  V30 8030 C 781.232 -3.0261 -3.34273 0
M  V30 8031 C 779.894 -3.43418 -3.37072 0
M  V30 8032 C 782.246 -3.98611 -3.35795 0
M  V30 8033 C 779.574 -4.78838 -3.39015 0
M  V30 8034 C 781.926 -5.33923 -3.39277 0
M  V30 8035 C 780.59 -5.74205 -3.40361 0
M  V30 8036 H 779.86 -0.348553 -0.653905 0
M  V30 8037 H 782.507 -1.45591 -1.244 0
M  V30 8038 H 780.812 -0.949286 -3.80126 0
M  V30 8039 H 782.509 -1.34002 -3.77948 0
M  V30 8040 H 779.099 -2.70075 -3.32803 0
M  V30 8041 H 783.283 -3.68146 -3.32839 0
M  V30 8042 H 778.539 -5.09369 -3.38161 0
M  V30 8043 H 782.713 -6.08094 -3.39403 0
M  V30 8044 H 780.34 -6.79117 -3.4162 0
M  V30 8045 N 781.915 1.24427 -0.967243 0
M  V30 8046 C 783.192 1.87831 -0.545776 0
M  V30 8047 C 783.572 1.87126 0.977099 0
M  V30 8048 O 782.92 1.34357 1.84826 0
M  V30 8049 C 783.13 3.29967 -1.13679 0
M  V30 8050 C 784.478 4.06654 -1.22139 0
M  V30 8051 O 785.502 3.39136 -1.08926 0
M  V30 8052 O 784.361 5.27455 -1.43017 0
M  V30 8053 H 781.455 0.806745 -0.181912 0
M  V30 8054 H 784.001 1.32403 -1.06148 0
M  V30 8055 H 782.773 3.24977 -2.17958 0
M  V30 8056 H 782.396 3.92969 -0.605093 0
M  V30 8057 N 783.393 0.737304 1.3929 0
M  V30 8058 C 784.341 0.0879867 2.32434 0
M  V30 8059 C 785.335 -0.723324 1.53181 0
M  V30 8060 O 786.541 -0.624251 1.68829 0
M  V30 8061 H 782.916 0.00965277 0.751938 0
M  V30 8062 H 784.887 0.889915 2.84821 0
M  V30 8063 C 783.636 -0.803384 3.38291 0
M  V30 8064 H 782.959 -0.18849 3.99355 0
M  V30 8065 H 784.399 -1.22528 4.0591 0
M  V30 8066 C 782.858 -1.93872 2.75527 0
M  V30 8067 O 783.388 -3.03154 2.63553 0
M  V30 8068 N 781.594 -1.72883 2.3358 0
M  V30 8069 H 781.141 -0.840005 2.43519 0
M  V30 8070 H 781.099 -2.49021 1.91927 0
M  V30 8071 N 784.871 -1.49948 0.485112 0
M  V30 8072 C 786.148 -1.95186 -0.12726 0
M  V30 8073 C 786.528 -1.42605 -1.5565 0
M  V30 8074 O 785.876 -0.632986 -2.19558 0
M  V30 8075 C 786.086 -3.48955 -0.0562117 0
M  V30 8076 C 787.434 -4.23932 -0.238106 0
M  V30 8077 O 788.458 -3.55955 -0.132145 0
M  V30 8078 O 787.317 -5.44614 -0.453658 0
M  V30 8079 H 784.411 -0.820433 -0.104014 0
M  V30 8080 H 786.957 -1.60659 0.546517 0
M  V30 8081 H 785.729 -3.79814 0.941122 0
M  V30 8082 H 785.352 -3.90056 -0.770834 0
M  V30 8083 N 786.349 -0.21828 -1.56081 0
M  V30 8084 C 787.598 0.414644 -1.97392 0
M  V30 8085 C 787.911 1.61132 -1.10887 0
M  V30 8086 O 789.117 2.31355 -1.42082 0
M  V30 8087 C 787.573 0.789099 -3.51143 0
M  V30 8088 C 787.181 -0.384578 -4.46346 0
M  V30 8089 C 788.925 1.38781 -4.01173 0
M  V30 8090 C 786.832 0.0121288 -5.91399 0
M  V30 8091 H 785.762 0.158691 -0.737111 0
M  V30 8092 H 788.413 -0.313974 -1.80794 0
M  V30 8093 H 786.795 1.57505 -3.6333 0
M  V30 8094 H 787.969 -1.16212 -4.45905 0
M  V30 8095 H 786.284 -0.896306 -4.06639 0
M  V30 8096 H 788.881 1.69746 -5.07041 0
M  V30 8097 H 789.224 2.30245 -3.46833 0
M  V30 8098 H 789.757 0.665364 -3.92196 0
M  V30 8099 H 786.496 -0.868917 -6.49715 0
M  V30 8100 H 786.016 0.754053 -5.95041 0
M  V30 8101 H 787.695 0.439949 -6.45502 0
M  V30 8102 N 787.827 1.57504 0.0551401 0
M  V30 8103 C 788.79 2.03826 1.04821 0
M  V30 8104 C 789.79 0.937968 1.30609 0
M  V30 8105 O 790.98 1.20237 1.2605 0
M  V30 8106 C 788.112 2.43309 2.38775 0
M  V30 8107 H 789.305 2.92802 0.6486 0
M  V30 8108 H 786.858 1.53368 0.301315 0
M  V30 8109 H 787.593 1.5741 2.83536 0
M  V30 8110 H 787.378 3.23615 2.21395 0
M  V30 8111 H 788.868 2.79666 3.10124 0
M  V30 8112 N 789.305 -0.326896 1.54172 0
M  V30 8113 C 790.235 -1.40741 1.86317 0
M  V30 8114 C 791.216 -1.54125 0.719684 0
M  V30 8115 O 792.401 -1.6806 0.973117 0
M  V30 8116 C 789.531 -2.77557 2.08757 0
M  V30 8117 C 788.485 -2.78965 3.24596 0
M  V30 8118 C 787.811 -4.18824 3.32401 0
M  V30 8119 C 789.111 -2.4301 4.62324 0
M  V30 8120 H 790.805 -1.14088 2.76811 0
M  V30 8121 H 788.351 -0.547389 1.3319 0
M  V30 8122 H 790.304 -3.53209 2.29829 0
M  V30 8123 H 789.028 -3.0568 1.15009 0
M  V30 8124 H 787.687 -2.05767 3.03406 0
M  V30 8125 H 787.335 -4.44083 2.36218 0
M  V30 8126 H 787.035 -4.20673 4.10253 0
M  V30 8127 H 788.559 -4.96294 3.55703 0
M  V30 8128 H 789.973 -3.08375 4.83299 0
M  V30 8129 H 788.37 -2.56116 5.42701 0
M  V30 8130 H 789.44 -1.38165 4.64799 0
M  V30 8131 N 790.784 -1.46188 -0.588786 0
M  V30 8132 C 792.033 -1.50452 -1.34339 0
M  V30 8133 C 792.346 -0.158096 -1.9496 0
M  V30 8134 O 793.552 -0.0784918 -2.71387 0
M  V30 8135 C 792.008 -2.65074 -2.43441 0
M  V30 8136 C 791.616 -4.06111 -1.8915 0
M  V30 8137 C 793.36 -2.78603 -3.20282 0
M  V30 8138 C 791.267 -5.12084 -2.95845 0
M  V30 8139 H 790.197 -0.559905 -0.504997 0
M  V30 8140 H 792.848 -1.72382 -0.629014 0
M  V30 8141 H 791.23 -2.36462 -3.1765 0
M  V30 8142 H 792.404 -4.44487 -1.21524 0
M  V30 8143 H 790.719 -3.97197 -1.24995 0
M  V30 8144 H 793.316 -3.54944 -3.99898 0
M  V30 8145 H 793.659 -1.85902 -3.72486 0
M  V30 8146 H 794.192 -3.06832 -2.53178 0
M  V30 8147 H 790.931 -6.06556 -2.48535 0
M  V30 8148 H 790.451 -4.78259 -3.61979 0
M  V30 8149 H 792.13 -5.37661 -3.59902 0
M  V30 8150 N 792.262 0.832906 -1.33792 0
M  V30 8151 C 793.209 1.94314 -1.24541 0
M  V30 8152 C 794.179 1.65646 -0.122753 0
M  V30 8153 O 795.364 1.88394 -0.30204 0
M  V30 8154 C 792.504 3.30395 -0.996641 0
M  V30 8155 C 791.617 3.71422 -2.20612 0
M  V30 8156 C 790.752 4.96401 -1.89101 0
M  V30 8157 C 789.791 5.2998 -3.06247 0
M  V30 8158 N 788.928 6.46137 -2.74685 0
M  V30 8159 H 793.768 2.01559 -2.19495 0
M  V30 8160 H 791.305 0.986243 -1.09141 0
M  V30 8161 H 793.263 4.08803 -0.832817 0
M  V30 8162 H 791.893 3.22691 -0.0838242 0
M  V30 8163 H 790.945 2.88488 -2.47949 0
M  V30 8164 H 792.257 3.92215 -3.0817 0
M  V30 8165 H 791.411 5.82572 -1.69396 0
M  V30 8166 H 790.15 4.7759 -0.987882 0
M  V30 8167 H 789.155 4.42312 -3.26559 0
M  V30 8168 H 790.38 5.50737 -3.97323 0
M  V30 8169 H 788.326 6.28801 -1.86938 0
M  V30 8170 H 788.243 6.67054 -3.55774 0
M  V30 8171 H 789.511 7.35403 -2.58461 0
M  V30 8172 N 793.74 1.17359 1.05189 0
M  V30 8173 C 794.67 0.91365 2.14883 0
M  V30 8174 C 795.651 -0.144365 1.69486 0
M  V30 8175 O 796.836 0.00587861 1.94199 0
M  V30 8176 C 793.966 0.426196 3.44675 0
M  V30 8177 C 792.92 1.4234 4.03638 0
M  V30 8178 C 792.246 0.793902 5.28773 0
M  V30 8179 C 793.546 2.7966 4.41121 0
M  V30 8180 H 795.24 1.831 2.36885 0
M  V30 8181 H 792.786 0.881781 1.13845 0
M  V30 8182 H 794.739 0.231767 4.20762 0
M  V30 8183 H 793.463 -0.526693 3.22325 0
M  V30 8184 H 792.122 1.60457 3.2962 0
M  V30 8185 H 791.77 -0.165824 5.02727 0
M  V30 8186 H 791.47 1.45959 5.69183 0
M  V30 8187 H 792.994 0.609747 6.07548 0
M  V30 8188 H 794.408 2.6526 5.08242 0
M  V30 8189 H 792.805 3.42807 4.92548 0
M  V30 8190 H 793.875 3.34068 3.51464 0
M  V30 8191 N 795.218 -1.23913 0.973828 0
M  V30 8192 C 796.166 -2.27141 0.50098 0
M  V30 8193 C 797.16 -1.63623 -0.438631 0
M  V30 8194 O 798.366 -1.77253 -0.313247 0
M  V30 8195 H 794.741 -0.73817 0.14356 0
M  V30 8196 H 796.712 -2.64392 1.38346 0
M  V30 8197 C 795.461 -3.47195 -0.187377 0
M  V30 8198 H 794.784 -3.96318 0.526535 0
M  V30 8199 H 796.224 -4.21252 -0.481962 0
M  V30 8200 C 794.683 -3.05678 -1.41642 0
M  V30 8201 O 795.213 -3.1338 -2.51309 0
M  V30 8202 N 793.419 -2.60661 -1.28469 0
M  V30 8203 H 792.966 -2.54594 -0.39238 0
M  V30 8204 H 792.924 -2.33249 -2.10813 0
M  V30 8205 N 796.696 -0.74468 -1.38897 0
M  V30 8206 C 797.644 -0.100312 -2.32384 0
M  V30 8207 C 798.638 0.715191 -1.53562 0
M  V30 8208 O 799.844 0.615288 -1.69157 0
M  V30 8209 H 796.219 -0.0136403 -0.751876 0
M  V30 8210 H 798.19 -0.905007 -2.84345 0
M  V30 8211 C 796.939 0.785432 -3.38713 0
M  V30 8212 H 796.262 0.167308 -3.9945 0
M  V30 8213 H 797.702 1.20374 -4.06554 0
M  V30 8214 C 796.161 1.92408 -2.76552 0
M  V30 8215 O 796.691 3.01752 -2.65157 0
M  V30 8216 N 794.897 1.71642 -2.34494 0
M  V30 8217 H 794.444 0.827079 -2.43961 0
M  V30 8218 H 794.402 2.48 -1.93244 0
M  V30 8219 N 798.174 1.49689 -0.493057 0
M  V30 8220 C 799.121 2.28976 0.28959 0
M  V30 8221 C 800.091 1.35011 0.967536 0
M  V30 8222 O 801.276 1.63964 0.975736 0
M  V30 8223 C 798.416 3.1748 1.35279 0
M  V30 8224 C 797.529 4.26496 0.687418 0
M  V30 8225 C 796.664 5.02226 1.73038 0
M  V30 8226 C 795.703 6.03089 1.04645 0
M  V30 8227 N 794.84 6.72014 2.03325 0
M  V30 8228 H 799.68 2.954 -0.392798 0
M  V30 8229 H 797.217 1.45657 -0.205554 0
M  V30 8230 H 799.175 3.67162 1.98111 0
M  V30 8231 H 797.805 2.53057 2.00405 0
M  V30 8232 H 796.857 3.80362 -0.0540001 0
M  V30 8233 H 798.169 4.98578 0.14864 0
M  V30 8234 H 797.323 5.55737 2.43395 0
M  V30 8235 H 796.062 4.29899 2.303 0
M  V30 8236 H 795.067 5.48817 0.328606 0
M  V30 8237 H 796.292 6.77398 0.480428 0
M  V30 8238 H 794.238 6.02464 2.59564 0
M  V30 8239 H 794.155 7.40046 1.54492 0
M  V30 8240 H 795.423 7.30133 2.72995 0
M  V30 8241 N 799.652 0.226554 1.55963 0
M  V30 8242 C 800.898 -0.404387 1.98727 0
M  V30 8243 C 801.231 -1.59059 1.11418 0
M  V30 8244 O 800.506 -1.93729 0.172971 0
M  V30 8245 C 800.789 -0.834081 3.50307 0
M  V30 8246 C 800.642 0.356104 4.48388 0
M  V30 8247 C 801.961 -1.68845 4.06423 0
M  V30 8248 H 799.08 -0.145515 0.722492 0
M  V30 8249 H 801.722 0.323791 1.87221 0
M  V30 8250 H 799.872 -1.45454 3.60244 0
M  V30 8251 H 801.544 0.99432 4.50456 0
M  V30 8252 H 799.787 1.0027 4.22053 0
M  V30 8253 H 800.458 0.0124333 5.51999 0
M  V30 8254 H 802.934 -1.16489 3.99461 0
M  V30 8255 H 801.81 -1.958 5.1279 0
M  V30 8256 H 802.071 -2.65347 3.53615 0
M  V30 8257 N 801.13 -1.57531 -0.0467866 0
M  V30 8258 C 802.376 -1.8873 -0.742218 0
M  V30 8259 C 802.709 -0.822084 -1.75941 0
M  V30 8260 O 801.984 0.164922 -1.938 0
M  V30 8261 C 802.267 -3.30586 -1.42776 0
M  V30 8262 C 802.12 -4.47785 -0.425285 0
M  V30 8263 C 803.439 -3.71068 -2.36636 0
M  V30 8264 H 800.558 -0.686406 -0.268359 0
M  V30 8265 H 803.2 -1.89999 -0.00511341 0
M  V30 8266 H 801.35 -3.29634 -2.05605 0
M  V30 8267 H 803.022 -4.60867 0.199721 0
M  V30 8268 H 801.265 -4.33037 0.25713 0
M  V30 8269 H 801.936 -5.43884 -0.943086 0
M  V30 8270 H 804.412 -3.73273 -1.83866 0
M  V30 8271 H 803.288 -4.71165 -2.81593 0
M  V30 8272 H 803.549 -3.02355 -3.22542 0
M  V30 8273 N 802.608 0.318715 -1.54344 0
M  V30 8274 C 803.857 1.05363 -1.71993 0
M  V30 8275 C 804.17 1.89018 -0.503155 0
M  V30 8276 O 805.376 2.65639 -0.561085 0
M  V30 8277 C 803.832 1.92281 -3.0423 0
M  V30 8278 C 803.44 1.13715 -4.33328 0
M  V30 8279 C 805.184 2.65479 -3.31242 0
M  V30 8280 C 803.091 1.99806 -5.56625 0
M  V30 8281 H 802.021 0.397081 -0.64097 0
M  V30 8282 H 804.672 0.311598 -1.80835 0
M  V30 8283 H 803.054 2.70402 -2.89307 0
M  V30 8284 H 804.228 0.403305 -4.59032 0
M  V30 8285 H 802.543 0.521769 -4.13118 0
M  V30 8286 H 805.14 3.30209 -4.20555 0
M  V30 8287 H 805.483 3.33374 -2.49334 0
M  V30 8288 H 806.016 1.94417 -3.47054 0
M  V30 8289 H 802.755 1.36411 -6.41149 0
M  V30 8290 H 802.275 2.70911 -5.35133 0
M  V30 8291 H 803.954 2.58277 -5.93213 0
M  V30 8292 N 804.086 1.46499 0.581025 0
M  V30 8293 C 805.034 1.57562 1.71105 0
M  V30 8294 C 806.028 0.44403 1.63477 0
M  V30 8295 O 807.234 0.620964 1.6895 0
M  V30 8296 H 803.609 0.495415 0.565746 0
M  V30 8297 H 805.58 2.5257 1.58905 0
M  V30 8298 C 804.329 1.58465 3.0949 0
M  V30 8299 H 803.652 2.44877 3.16031 0
M  V30 8300 H 805.092 1.70261 3.88313 0
M  V30 8301 C 803.551 0.313596 3.35437 0
M  V30 8302 O 804.081 -0.595456 3.97262 0
M  V30 8303 N 802.287 0.200986 2.89904 0
M  V30 8304 H 801.834 0.941643 2.39773 0
M  V30 8305 H 801.792 -0.648577 3.07638 0
M  V30 8306 N 805.565 -0.825799 1.34232 0
M  V30 8307 C 806.79 -1.61883 1.29648 0
M  V30 8308 C 807.215 -1.87669 -0.127295 0
M  V30 8309 O 806.573 -1.45016 -1.08813 0
M  V30 8310 C 806.621 -2.93846 2.09014 0
M  V30 8311 O 805.725 -3.85778 1.4577 0
M  V30 8312 H 805.066 -0.492454 0.445405 0
M  V30 8313 H 807.596 -1.02641 1.76992 0
M  V30 8314 H 807.606 -3.43435 2.20264 0
M  V30 8315 H 806.281 -2.74401 3.12533 0
M  V30 8316 H 804.858 -3.4429 1.43245 0
M  V30 8317 N 807.043 -1.17915 -1.04565 0
M  V30 8318 C 807.991 -0.897919 -2.1457 0
M  V30 8319 C 808.985 0.139883 -1.68821 0
M  V30 8320 O 810.191 -0.00779463 -1.79998 0
M  V30 8321 H 806.566 -0.272867 -0.700748 0
M  V30 8322 H 808.537 -1.83268 -2.3549 0
M  V30 8323 C 807.286 -0.434634 -3.44973 0
M  V30 8324 H 806.609 -1.22469 -3.8058 0
M  V30 8325 H 808.049 -0.276804 -4.23095 0
M  V30 8326 C 806.508 0.848738 -3.26034 0
M  V30 8327 O 807.038 1.9141 -3.53164 0
M  V30 8328 N 805.244 0.799373 -2.79389 0
M  V30 8329 H 804.791 -0.0678192 -2.57511 0
M  V30 8330 H 804.749 1.6585 -2.67098 0
M  V30 8331 N 808.521 1.23394 -0.980386 0
M  V30 8332 C 809.77 1.91116 -0.644785 0
M  V30 8333 C 810.083 1.77333 0.825367 0
M  V30 8334 O 811.289 2.39858 1.27203 0
M  V30 8335 C 809.745 3.42592 -1.10266 0
M  V30 8336 C 809.353 3.65037 -2.59715 0
M  V30 8337 C 811.097 4.1609 -0.8408 0
M  V30 8338 C 809.004 5.10148 -2.9917 0
M  V30 8339 H 807.934 0.715632 -0.23746 0
M  V30 8340 H 810.585 1.39829 -1.18828 0
M  V30 8341 H 808.967 3.92989 -0.487372 0
M  V30 8342 H 810.141 3.25186 -3.26482 0
M  V30 8343 H 808.456 3.04849 -2.83647 0
M  V30 8344 H 811.053 5.23021 -1.11143 0
M  V30 8345 H 811.396 4.15702 0.223085 0
M  V30 8346 H 811.929 3.71681 -1.41767 0
M  V30 8347 H 808.668 5.15668 -4.04682 0
M  V30 8348 H 808.188 5.50949 -2.37097 0
M  V30 8349 H 809.867 5.7848 -2.89775 0
M  V30 8350 N 809.999 0.752036 1.385 0
M  V30 8351 C 811.227 0.318274 2.04437 0
M  V30 8352 C 811.642 -1.05285 1.56718 0
M  V30 8353 O 810.999 -1.66844 0.73956 0
M  V30 8354 C 811.05 0.330106 3.5999 0
M  V30 8355 O 810.771 1.64712 4.05957 0
M  V30 8356 C 812.272 -0.117713 4.43144 0
M  V30 8357 H 809.492 0.136228 0.657026 0
M  V30 8358 H 812.036 1.02045 1.7722 0
M  V30 8359 H 810.191 -0.323323 3.86048 0
M  V30 8360 H 810.605 1.57225 5.0038 0
M  V30 8361 H 812.079 -0.0582735 5.51969 0
M  V30 8362 H 812.556 -1.16538 4.23457 0
M  V30 8363 H 813.162 0.506784 4.2227 0
M  V30 8364 N 811.477 -1.49425 0.500989 0
M  V30 8365 C 812.888 -1.86624 0.0532011 0
M  V30 8366 C 813.239 -1.41331 -1.36088 0
M  V30 8367 O 812.364 -0.791195 -2.01418 0
M  V30 8368 C 812.959 -3.38681 0.0897693 0
M  V30 8369 C 811.518 -3.75181 -0.302677 0
M  V30 8370 C 810.665 -2.73419 0.462307 0
M  V30 8371 H 813.616 -1.41743 0.713773 0
M  V30 8372 H 813.637 -3.73902 -0.705528 0
M  V30 8373 H 813.149 -3.71616 1.11907 0
M  V30 8374 H 811.25 -3.47855 -1.33521 0
M  V30 8375 H 811.363 -4.79097 0.0167653 0
M  V30 8376 H 809.727 -2.54548 -0.0878557 0
M  V30 8377 H 810.51 -3.09198 1.49169 0
M  V30 8378 N 812.955 -0.234822 -1.55841 0
M  V30 8379 C 814.204 0.393685 -1.97821 0
M  V30 8380 C 814.517 1.59947 -1.1259 0
M  V30 8381 O 815.723 2.29835 -1.44528 0
M  V30 8382 C 814.179 0.751811 -3.5196 0
M  V30 8383 C 813.787 -0.431898 -4.45913 0
M  V30 8384 C 815.531 1.34518 -4.02623 0
M  V30 8385 C 813.438 -0.0505976 -5.91378 0
M  V30 8386 H 812.368 0.150864 -0.738753 0
M  V30 8387 H 815.019 -0.333132 -1.80451 0
M  V30 8388 H 813.401 1.53642 -3.6498 0
M  V30 8389 H 814.575 -1.20935 -4.44647 0
M  V30 8390 H 812.89 -0.939385 -4.05666 0
M  V30 8391 H 815.487 1.64359 -5.08813 0
M  V30 8392 H 815.83 2.26554 -3.49255 0
M  V30 8393 H 816.363 0.623729 -3.9288 0
M  V30 8394 H 813.102 -0.937779 -6.48757 0
M  V30 8395 H 812.622 0.690898 -5.95808 0
M  V30 8396 H 814.301 0.37146 -6.45933 0
M  V30 8397 N 814.433 1.57553 0.0384317 0
M  V30 8398 C 815.673 1.90687 0.736069 0
M  V30 8399 C 816.037 0.832381 1.73019 0
M  V30 8400 O 817.238 1.04777 2.47538 0
M  V30 8401 C 815.509 3.28994 1.39635 0
M  V30 8402 S 817.068 3.83944 2.12444 0
M  V30 8403 H 813.886 0.667799 0.244059 0
M  V30 8404 H 816.488 1.95498 -0.00901643 0
M  V30 8405 H 815.192 4.05067 0.659465 0
M  V30 8406 H 814.723 3.27463 2.18018 0
M  V30 8407 H 816.738 3.61916 3.39457 0
M  V30 8408 N 815.911 -0.310526 1.54511 0
M  V30 8409 C 816.841 -1.38757 1.878 0
M  V30 8410 C 817.822 -1.53353 0.735991 0
M  V30 8411 O 819.007 -1.67018 0.990887 0
M  V30 8412 C 816.137 -2.75327 2.11689 0
M  V30 8413 C 815.091 -2.75506 3.27537 0
M  V30 8414 C 814.417 -4.15275 3.36824 0
M  V30 8415 C 815.717 -2.38093 4.64875 0
M  V30 8416 H 817.411 -1.11146 2.78005 0
M  V30 8417 H 814.957 -0.533232 1.33763 0
M  V30 8418 H 816.91 -3.50752 2.33562 0
M  V30 8419 H 815.634 -3.04443 1.18245 0
M  V30 8420 H 814.293 -2.02538 3.05572 0
M  V30 8421 H 813.941 -4.41553 2.40915 0
M  V30 8422 H 813.641 -4.16299 4.14692 0
M  V30 8423 H 815.165 -4.92493 3.60947 0
M  V30 8424 H 816.579 -3.03232 4.86542 0
M  V30 8425 H 814.976 -2.50345 5.45387 0
M  V30 8426 H 816.046 -1.33227 4.66239 0
M  V30 8427 N 817.389 -1.46805 -0.573248 0
M  V30 8428 C 818.8 -1.46655 -1.15539 0
M  V30 8429 C 819.151 -0.2125 -1.95046 0
M  V30 8430 O 818.276 0.683759 -2.05314 0
M  V30 8431 C 818.871 -2.65711 -2.10198 0
M  V30 8432 C 817.43 -2.68572 -2.63716 0
M  V30 8433 C 816.577 -2.39498 -1.39772 0
M  V30 8434 H 819.528 -1.54547 -0.36068 0
M  V30 8435 H 819.549 -2.41768 -2.93817 0
M  V30 8436 H 819.061 -3.56967 -1.52303 0
M  V30 8437 H 817.162 -1.81414 -3.25453 0
M  V30 8438 H 817.275 -3.68809 -3.05805 0
M  V30 8439 H 815.639 -1.89749 -1.69904 0
M  V30 8440 H 816.422 -3.32942 -0.836943 0
M  V30 8441 N 818.867 0.818669 -1.34668 0
M  V30 8442 C 820.283 1.11243 -1.14443 0
M  V30 8443 C 820.483 2.01435 0.0512212 0
M  V30 8444 O 819.539 2.41854 0.725471 0
M  V30 8445 C 820.852 1.75504 -2.4417 0
M  V30 8446 C 822.4 1.8798 -2.50265 0
M  V30 8447 C 822.875 2.55657 -3.80004 0
M  V30 8448 N 824.366 2.63153 -3.81189 0
M  V30 8449 C 825.101 3.16258 -4.78298 0
M  V30 8450 N 824.597 3.69893 -5.85791 0
M  V30 8451 N 826.39 3.14698 -4.65748 0
M  V30 8452 H 818.541 0.218848 -2.1127 0
M  V30 8453 H 820.804 0.159655 -0.934459 0
M  V30 8454 H 820.51 1.16697 -3.31775 0
M  V30 8455 H 820.384 2.75329 -2.57825 0
M  V30 8456 H 822.771 2.45934 -1.63096 0
M  V30 8457 H 822.852 0.870447 -2.40535 0
M  V30 8458 H 822.496 1.98356 -4.67565 0
M  V30 8459 H 822.426 3.57105 -3.87019 0
M  V30 8460 H 824.917 2.2514 -3.03513 0
M  V30 8461 H 825.23 4.08678 -6.55898 0
M  V30 8462 H 823.575 3.68125 -5.89499 0
M  V30 8463 H 826.766 2.72066 -3.80917 0
M  V30 8464 H 826.939 3.5578 -5.41594 0
M  V30 8465 N 820.346 1.18468 1.03938 0
M  V30 8466 C 821.293 0.912859 2.1198 0
M  V30 8467 C 822.263 -0.14824 1.65437 0
M  V30 8468 O 823.448 -0.008331 1.90798 0
M  V30 8469 C 820.588 0.446114 3.42204 0
M  V30 8470 C 819.701 1.57278 4.02353 0
M  V30 8471 C 818.836 1.05863 5.20544 0
M  V30 8472 C 817.875 2.1599 5.72726 0
M  V30 8473 N 817.012 1.65959 6.82204 0
M  V30 8474 H 821.852 1.83798 2.34569 0
M  V30 8475 H 819.389 0.916504 1.15059 0
M  V30 8476 H 821.347 0.15697 4.16905 0
M  V30 8477 H 819.977 -0.442025 3.19759 0
M  V30 8478 H 819.029 1.97737 3.24968 0
M  V30 8479 H 820.341 2.40289 4.37107 0
M  V30 8480 H 819.495 0.724087 6.02364 0
M  V30 8481 H 818.234 0.198116 4.87297 0
M  V30 8482 H 817.239 2.50287 4.89527 0
M  V30 8483 H 818.464 3.02479 6.08016 0
M  V30 8484 H 816.41 0.82199 6.5083 0
M  V30 8485 H 816.327 2.42567 7.16029 0
M  V30 8486 H 817.595 1.35436 7.67644 0
M  V30 8487 N 821.824 -1.22873 0.986916 0
M  V30 8488 C 822.734 -2.28277 0.540978 0
M  V30 8489 C 823.75 -1.69164 -0.407363 0
M  V30 8490 O 824.926 -1.99504 -0.275674 0
M  V30 8491 C 821.991 -3.46404 -0.143181 0
M  V30 8492 C 821.052 -4.20854 0.847375 0
M  V30 8493 C 820.285 -5.33341 0.19577 0
M  V30 8494 O 820.508 -5.61356 -1.0117 0
M  V30 8495 O 819.442 -5.95169 0.897623 0
M  V30 8496 H 823.268 -2.68578 1.41773 0
M  V30 8497 H 820.853 -1.28927 0.754867 0
M  V30 8498 H 822.735 -4.18096 -0.526676 0
M  V30 8499 H 821.41 -3.08041 -0.994593 0
M  V30 8500 H 820.317 -3.51459 1.28169 0
M  V30 8501 H 821.65 -4.63082 1.6678 0
M  V30 8502 N 823.302 -0.75937 -1.38099 0
M  V30 8503 C 824.265 -0.14372 -2.28749 0
M  V30 8504 C 825.265 0.641338 -1.47457 0
M  V30 8505 O 826.455 0.466751 -1.67831 0
M  V30 8506 C 823.587 0.804545 -3.3127 0
M  V30 8507 H 824.78 -0.942663 -2.847 0
M  V30 8508 H 822.333 -0.526757 -1.47156 0
M  V30 8509 H 823.068 1.62895 -2.80421 0
M  V30 8510 H 822.853 0.243939 -3.9134 0
M  V30 8511 H 824.343 1.23111 -3.99041 0
M  V30 8512 N 824.78 1.49157 -0.508906 0
M  V30 8513 C 825.69 2.33045 0.269656 0
M  V30 8514 C 826.706 1.45143 0.959662 0
M  V30 8515 O 827.882 1.78155 0.939295 0
M  V30 8516 C 824.947 3.20772 1.31554 0
M  V30 8517 C 824.008 4.24531 0.638131 0
M  V30 8518 C 823.241 5.08065 1.63418 0
M  V30 8519 O 823.464 4.93238 2.86483 0
M  V30 8520 O 822.398 5.90117 1.18516 0
M  V30 8521 H 826.224 3.00821 -0.417183 0
M  V30 8522 H 823.809 1.46938 -0.270119 0
M  V30 8523 H 825.691 3.75095 1.92047 0
M  V30 8524 H 824.366 2.55681 1.98516 0
M  V30 8525 H 823.273 3.74099 -0.00674357 0
M  V30 8526 H 824.606 4.92199 0.0108155 0
M  V30 8527 N 826.258 0.243083 1.55714 0
M  V30 8528 C 827.483 -0.389944 2.03701 0
M  V30 8529 C 827.908 -1.51025 1.12129 0
M  V30 8530 O 827.266 -1.80944 0.11352 0
M  V30 8531 C 827.314 -0.878649 3.49731 0
M  V30 8532 O 826.418 -1.98851 3.61292 0
M  V30 8533 H 825.759 -0.0855115 0.658471 0
M  V30 8534 H 828.289 0.368023 2.01263 0
M  V30 8535 H 828.299 -1.18287 3.90477 0
M  V30 8536 H 826.974 -0.0588107 4.15858 0
M  V30 8537 H 825.551 -1.68928 3.32442 0
M  V30 8538 N 827.736 -1.57571 -0.0300757 0
M  V30 8539 C 828.983 -1.89226 -0.721091 0
M  V30 8540 C 829.311 -0.840244 -1.75414 0
M  V30 8541 O 828.566 0.158906 -1.95054 0
M  V30 8542 C 828.865 -3.27624 -1.42818 0
M  V30 8543 C 828.531 -4.4776 -0.531208 0
M  V30 8544 C 827.193 -4.8036 -0.28415 0
M  V30 8545 C 829.545 -5.21125 0.0881582 0
M  V30 8546 C 826.873 -5.83715 0.591065 0
M  V30 8547 C 829.225 -6.2541 0.95107 0
M  V30 8548 C 827.889 -6.56486 1.2076 0
M  V30 8549 H 827.159 -0.692428 -0.263866 0
M  V30 8550 H 829.806 -1.91491 0.0189874 0
M  V30 8551 H 828.111 -3.21343 -2.24155 0
M  V30 8552 H 829.808 -3.49365 -1.96838 0
M  V30 8553 H 826.398 -4.2227 -0.73392 0
M  V30 8554 H 830.582 -4.96219 -0.0897496 0
M  V30 8555 H 825.838 -6.06168 0.798132 0
M  V30 8556 H 830.012 -6.81402 1.43751 0
M  V30 8557 H 827.639 -7.36395 1.88751 0
M  V30 8558 N 829.214 0.302327 -1.54673 0
M  V30 8559 C 830.147 1.39738 -1.80412 0
M  V30 8560 C 831.125 1.48813 -0.655241 0
M  V30 8561 O 832.309 1.65895 -0.89505 0
M  V30 8562 C 829.436 2.7766 -1.93966 0
M  V30 8563 C 828.482 2.86014 -3.16383 0
M  V30 8564 S 829.315 2.48246 -4.74483 0
M  V30 8565 C 830.471 3.88198 -4.90971 0
M  V30 8566 H 830.704 1.17696 -2.73011 0
M  V30 8567 H 828.237 0.500364 -1.46068 0
M  V30 8568 H 830.195 3.571 -2.0246 0
M  V30 8569 H 828.856 2.96971 -1.02307 0
M  V30 8570 H 828.049 3.87174 -3.22664 0
M  V30 8571 H 827.651 2.14568 -3.06328 0
M  V30 8572 H 829.943 4.83181 -4.74913 0
M  V30 8573 H 830.886 3.86887 -5.93063 0
M  V30 8574 H 831.294 3.78139 -4.19131 0
M  V30 8575 N 830.692 1.47107 0.565454 0
M  V30 8576 C 832.108 1.32443 0.890566 0
M  V30 8577 C 832.308 0.308735 1.99121 0
M  V30 8578 O 831.364 -0.28265 2.50913 0
M  V30 8579 C 832.677 2.71548 1.2916 0
M  V30 8580 C 834.225 2.7977 1.40349 0
M  V30 8581 C 834.7 4.19497 1.83811 0
M  V30 8582 N 836.191 4.21998 1.90975 0
M  V30 8583 C 836.926 5.2702 2.25916 0
M  V30 8584 N 836.422 6.42353 2.59527 0
M  V30 8585 N 838.215 5.14393 2.26619 0
M  V30 8586 H 830.366 2.11786 -0.161328 0
M  V30 8587 H 832.629 0.947952 -0.00950631 0
M  V30 8588 H 832.335 3.47265 0.556753 0
M  V30 8589 H 832.209 3.02782 2.24951 0
M  V30 8590 H 834.596 2.0433 2.12916 0
M  V30 8591 H 834.677 2.522 0.427655 0
M  V30 8592 H 834.321 4.95439 1.11816 0
M  V30 8593 H 834.251 4.44486 2.82382 0
M  V30 8594 H 836.742 3.38791 1.6742 0
M  V30 8595 H 837.055 7.18252 2.85191 0
M  V30 8596 H 835.4 6.45687 2.57126 0
M  V30 8597 H 838.591 4.2332 1.99794 0
M  V30 8598 H 838.764 5.96349 2.5352 0
M  V30 8599 N 832.17 -0.811516 1.35101 0
M  V30 8600 C 833.398 -1.59981 1.31201 0
M  V30 8601 C 833.813 -1.8847 -0.111552 0
M  V30 8602 O 833.17 -1.48414 -1.06205 0
M  V30 8603 C 833.221 -2.934 2.11184 0
M  V30 8604 O 832.942 -2.66148 3.4799 0
M  V30 8605 C 834.443 -3.87776 2.14813 0
M  V30 8606 H 831.663 -0.496921 0.450899 0
M  V30 8607 H 834.207 -1.00886 1.77883 0
M  V30 8608 H 832.362 -3.49022 1.68115 0
M  V30 8609 H 832.776 -3.51301 3.89471 0
M  V30 8610 H 834.25 -4.7852 2.75178 0
M  V30 8611 H 834.727 -4.23997 1.14556 0
M  V30 8612 H 835.333 -3.3809 2.58022 0
M  V30 8613 N 833.648 -1.19017 -1.03309 0
M  V30 8614 C 834.925 -0.899659 -1.73682 0
M  V30 8615 C 835.305 0.595677 -2.02521 0
M  V30 8616 O 834.653 1.55263 -1.67648 0
M  V30 8617 C 834.863 -1.75508 -3.01659 0
M  V30 8618 C 836.211 -1.98679 -3.75249 0
M  V30 8619 O 837.235 -1.72624 -3.11576 0
M  V30 8620 O 836.094 -2.42587 -4.89708 0
M  V30 8621 H 833.188 -0.334903 -0.756154 0
M  V30 8622 H 835.734 -1.29809 -1.09305 0
M  V30 8623 H 834.506 -2.7684 -2.76542 0
M  V30 8624 H 834.129 -1.35565 -3.73775 0
M  V30 8625 N 835.127 1.22348 -0.993418 0
M  V30 8626 C 836.404 1.86632 -0.585495 0
M  V30 8627 C 836.784 1.89156 0.937187 0
M  V30 8628 O 836.132 1.38247 1.81934 0
M  V30 8629 C 836.342 3.27481 -1.20652 0
M  V30 8630 C 837.69 4.03971 -1.30738 0
M  V30 8631 O 838.714 3.3675 -1.16096 0
M  V30 8632 O 837.573 5.24302 -1.54173 0
M  V30 8633 H 834.667 0.802704 -0.198984 0
M  V30 8634 H 837.213 1.30122 -1.08933 0
M  V30 8635 H 835.985 3.20281 -2.24802 0
M  V30 8636 H 835.608 3.91597 -0.688312 0
M  V30 8637 N 836.605 0.766683 1.37694 0
M  V30 8638 C 837.854 0.325425 1.99057 0
M  V30 8639 C 838.167 -1.10275 1.61551 0
M  V30 8640 O 839.373 -1.64513 2.1598 0
M  V30 8641 C 837.829 0.530886 3.55963 0
M  V30 8642 C 837.437 1.96899 4.02411 0
M  V30 8643 C 839.181 0.152997 4.24224 0
M  V30 8644 C 837.088 2.12232 5.52007 0
M  V30 8645 H 836.018 0.117929 0.744721 0
M  V30 8646 H 838.669 0.945091 1.5729 0
M  V30 8647 H 837.051 -0.158162 3.95684 0
M  V30 8648 H 838.225 2.69258 3.73948 0
M  V30 8649 H 836.54 2.303 3.46916 0
M  V30 8650 H 839.137 0.24614 5.34133 0
M  V30 8651 H 839.48 -0.896096 4.06541 0
M  V30 8652 H 840.013 0.794398 3.89787 0
M  V30 8653 H 836.752 3.15442 5.7461 0
M  V30 8654 H 836.272 1.4435 5.82171 0
M  V30 8655 H 837.951 1.9185 6.17902 0
M  V30 8656 N 838.083 -1.48885 0.516809 0
M  V30 8657 C 839.331 -2.02088 -0.0220166 0
M  V30 8658 C 839.652 -1.39735 -1.36011 0
M  V30 8659 O 838.922 -0.558119 -1.87781 0
M  V30 8660 H 837.502 -0.746917 -0.0111255 0
M  V30 8661 H 840.164 -1.8274 0.677647 0
M  V30 8662 H 839.26 -3.11786 -0.140067 0
M  V30 8663 N 839.561 -0.251338 -1.55583 0
M  V30 8664 C 840.789 0.376187 -2.03451 0
M  V30 8665 C 841.204 1.51215 -1.13047 0
M  V30 8666 O 840.561 1.81917 -0.145769 0
M  V30 8667 C 840.612 0.879779 -3.50631 0
M  V30 8668 O 840.333 -0.210917 -4.37592 0
M  V30 8669 C 841.834 1.57754 -4.14281 0
M  V30 8670 H 839.054 0.0888722 -0.665089 0
M  V30 8671 H 841.598 -0.376497 -2.01004 0
M  V30 8672 H 839.753 1.58263 -3.53598 0
M  V30 8673 H 840.167 0.172203 -5.24217 0
M  V30 8674 H 841.641 1.88158 -5.18942 0
M  V30 8675 H 842.118 2.50103 -3.61034 0
M  V30 8676 H 842.724 0.919154 -4.15249 0
M  V30 8677 N 841.039 1.57585 0.0217189 0
M  V30 8678 C 842.002 2.06004 1.00474 0
M  V30 8679 C 843.002 0.965461 1.2859 0
M  V30 8680 O 844.192 1.22884 1.23471 0
M  V30 8681 C 841.324 2.48319 2.33561 0
M  V30 8682 H 842.517 2.94112 0.586346 0
M  V30 8683 H 840.07 1.53973 0.268716 0
M  V30 8684 H 840.805 1.63389 2.80133 0
M  V30 8685 H 840.59 3.28239 2.1448 0
M  V30 8686 H 842.08 2.86181 3.04122 0
M  V30 8687 N 842.517 -0.29412 1.54831 0
M  V30 8688 C 843.742 -1.05156 1.78765 0
M  V30 8689 C 844.167 -1.79916 0.548809 0
M  V30 8690 O 843.525 -1.74243 -0.500909 0
M  V30 8691 C 843.573 -2.00242 2.99893 0
M  V30 8692 O 842.677 -3.08662 2.73499 0
M  V30 8693 H 842.018 -0.301737 0.591482 0
M  V30 8694 H 844.548 -0.329449 2.0193 0
M  V30 8695 H 844.558 -2.42583 3.28051 0
M  V30 8696 H 843.233 -1.45235 3.89717 0
M  V30 8697 H 841.81 -2.70786 2.56377 0
M  V30 8698 N 843.995 -1.47404 -0.557645 0
M  V30 8699 C 845.243 -1.53703 -1.31224 0
M  V30 8700 C 845.564 -0.200742 -1.93964 0
M  V30 8701 O 844.834 0.775253 -1.79907 0
M  V30 8702 H 843.414 -0.566171 -0.487299 0
M  V30 8703 H 846.076 -1.83699 -0.651195 0
M  V30 8704 H 845.172 -2.30335 -2.10599 0
M  V30 8705 N 845.473 0.80434 -1.35529 0
M  V30 8706 C 846.719 1.56328 -1.30127 0
M  V30 8707 C 847.074 1.92008 0.122699 0
M  V30 8708 O 846.367 1.58693 1.07364 0
M  V30 8709 C 846.561 2.85988 -2.14349 0
M  V30 8710 C 846.39 2.62977 -3.64792 0
M  V30 8711 C 845.16 2.58757 -4.34019 0
M  V30 8712 C 847.358 2.332 -4.58391 0
M  V30 8713 N 845.34 2.27487 -5.70195 0
M  V30 8714 C 846.711 2.11788 -5.82706 0
M  V30 8715 C 848.766 2.19082 -4.4711 0
M  V30 8716 C 847.469 1.77688 -6.97008 0
M  V30 8717 C 849.495 1.86378 -5.61264 0
M  V30 8718 C 848.857 1.65804 -6.84608 0
M  V30 8719 H 844.956 0.57368 -0.531428 0
M  V30 8720 H 847.54 0.941313 -1.70433 0
M  V30 8721 H 845.711 3.46077 -1.76311 0
M  V30 8722 H 847.443 3.51571 -2.00449 0
M  V30 8723 H 844.198 2.73484 -3.86656 0
M  V30 8724 H 844.622 2.1464 -6.42074 0
M  V30 8725 H 849.264 2.33686 -3.5235 0
M  V30 8726 H 846.982 1.61822 -7.91732 0
M  V30 8727 H 850.568 1.7616 -5.5449 0
M  V30 8728 H 849.448 1.40868 -7.71444 0
M  V30 8729 N 846.951 1.19563 1.02676 0
M  V30 8730 C 848.199 0.997593 1.75763 0
M  V30 8731 C 848.52 -0.47253 1.89188 0
M  V30 8732 O 847.79 -1.34214 1.42701 0
M  V30 8733 H 846.37 0.366128 0.651122 0
M  V30 8734 H 849.032 1.50495 1.23844 0
M  V30 8735 H 848.128 1.44741 2.76508 0
M  V30 8736 N 848.429 -1.21819 0.999893 0
M  V30 8737 C 849.359 -2.26282 0.576096 0
M  V30 8738 C 850.34 -1.65317 -0.400537 0
M  V30 8739 O 851.525 -1.92028 -0.28964 0
M  V30 8740 C 848.655 -3.47147 -0.103145 0
M  V30 8741 C 847.609 -4.20594 0.792745 0
M  V30 8742 C 846.935 -5.34696 -0.0198026 0
M  V30 8743 C 848.235 -4.78533 2.09293 0
M  V30 8744 H 849.929 -2.61984 1.4493 0
M  V30 8745 H 847.475 -1.25935 0.698316 0
M  V30 8746 H 849.428 -4.1939 -0.411068 0
M  V30 8747 H 848.152 -3.1056 -1.01094 0
M  V30 8748 H 846.811 -3.50194 1.08442 0
M  V30 8749 H 846.459 -4.94352 -0.928729 0
M  V30 8750 H 846.159 -5.84764 0.576661 0
M  V30 8751 H 847.683 -6.09752 -0.321659 0
M  V30 8752 H 849.097 -5.42682 1.8485 0
M  V30 8753 H 847.494 -5.38968 2.63881 0
M  V30 8754 H 848.564 -3.98197 2.76708 0
M  V30 8755 N 849.908 -0.773975 -1.37286 0
M  V30 8756 C 851.136 -0.350758 -2.03905 0
M  V30 8757 C 851.551 1.02779 -1.58373 0
M  V30 8758 O 850.908 1.65646 -0.766009 0
M  V30 8759 C 850.959 -0.387335 -3.59419 0
M  V30 8760 O 850.68 -1.7115 -4.03286 0
M  V30 8761 C 852.181 0.047198 -4.43275 0
M  V30 8762 H 849.401 -0.146663 -0.654775 0
M  V30 8763 H 851.945 -1.04852 -1.75574 0
M  V30 8764 H 850.1 0.261865 -3.86514 0
M  V30 8765 H 850.514 -1.65166 -4.97816 0
M  V30 8766 H 851.988 -0.0295474 -5.51992 0
M  V30 8767 H 852.465 1.09786 -4.25257 0
M  V30 8768 H 853.071 -0.573899 -4.2141 0
M  V30 8769 N 851.386 1.48609 -0.524698 0
M  V30 8770 C 852.318 2.27508 0.278 0
M  V30 8771 C 853.331 1.35042 0.909258 0
M  V30 8772 O 854.52 1.60136 0.788592 0
M  V30 8773 C 851.62 3.08247 1.40843 0
M  V30 8774 C 850.793 4.28455 0.880083 0
M  V30 8775 C 849.852 4.91048 1.891 0
M  V30 8776 O 848.878 5.5042 1.45005 0
M  V30 8777 N 850.08 4.82816 3.22288 0
M  V30 8778 H 852.845 2.97037 -0.398642 0
M  V30 8779 H 850.406 1.57876 -0.358698 0
M  V30 8780 H 852.398 3.46992 2.08276 0
M  V30 8781 H 850.968 2.41173 1.98883 0
M  V30 8782 H 850.188 3.94189 0.0299228 0
M  V30 8783 H 851.476 5.06279 0.505881 0
M  V30 8784 H 850.874 4.3572 3.60783 0
M  V30 8785 H 849.431 5.25676 3.85368 0
M  V30 8786 N 852.864 0.259585 1.55447 0
M  V30 8787 C 854.28 -0.094961 1.59317 0
M  V30 8788 C 854.48 -1.55884 1.2768 0
M  V30 8789 O 853.536 -2.30528 1.0302 0
M  V30 8790 C 854.849 0.265669 2.99524 0
M  V30 8791 C 856.397 0.211007 3.12288 0
M  V30 8792 C 856.872 0.545851 4.54736 0
M  V30 8793 N 858.363 0.496823 4.60528 0
M  V30 8794 C 859.098 0.728909 5.68748 0
M  V30 8795 N 858.594 1.02479 6.85179 0
M  V30 8796 N 860.387 0.658756 5.58226 0
M  V30 8797 H 852.538 1.2141 1.7428 0
M  V30 8798 H 854.801 0.489404 0.811904 0
M  V30 8799 H 854.507 1.28316 3.27457 0
M  V30 8800 H 854.381 -0.401089 3.75061 0
M  V30 8801 H 856.768 -0.797172 2.84129 0
M  V30 8802 H 856.849 0.911799 2.38998 0
M  V30 8803 H 856.493 1.55164 4.83618 0
M  V30 8804 H 856.423 -0.17656 5.26304 0
M  V30 8805 H 858.914 0.277376 3.76881 0
M  V30 8806 H 859.227 1.18897 7.63599 0
M  V30 8807 H 857.572 1.0624 6.86832 0
M  V30 8808 H 860.763 0.427553 4.66143 0
M  V30 8809 H 860.936 0.84302 6.42493 0
M  V30 8810 N 854.342 -1.57594 -0.0133615 0
M  V30 8811 C 855.59 -1.89605 -0.699596 0
M  V30 8812 C 855.911 -0.85926 -1.75048 0
M  V30 8813 O 855.181 0.105112 -1.95618 0
M  V30 8814 H 853.761 -0.699776 -0.261385 0
M  V30 8815 H 856.423 -1.94885 0.0244044 0
M  V30 8816 H 855.519 -2.88962 -1.17928 0
M  V30 8817 N 855.82 0.285905 -1.54985 0
M  V30 8818 C 857.067 1.0192 -1.74982 0
M  V30 8819 C 857.395 1.86743 -0.543816 0
M  V30 8820 O 856.65 1.89874 0.473972 0
M  V30 8821 C 856.949 1.94193 -3.0004 0
M  V30 8822 C 856.615 1.25225 -4.33162 0
M  V30 8823 C 855.277 1.06149 -4.69346 0
M  V30 8824 C 857.629 0.760427 -5.15623 0
M  V30 8825 C 854.957 0.365991 -5.85557 0
M  V30 8826 C 857.309 0.0785787 -6.32551 0
M  V30 8827 C 855.973 -0.124002 -6.67385 0
M  V30 8828 H 855.243 0.372951 -0.640304 0
M  V30 8829 H 857.89 0.292652 -1.89251 0
M  V30 8830 H 856.195 2.73426 -2.80616 0
M  V30 8831 H 857.892 2.51029 -3.12707 0
M  V30 8832 H 854.482 1.41081 -4.04715 0
M  V30 8833 H 858.666 0.895466 -4.88155 0
M  V30 8834 H 853.922 0.198193 -6.11079 0
M  V30 8835 H 858.096 -0.310339 -6.95708 0
M  V30 8836 H 855.723 -0.664918 -7.57287 0
M  V30 8837 N 857.298 1.47698 0.54982 0
M  V30 8838 C 858.228 1.63622 1.66583 0
M  V30 8839 C 859.209 0.485477 1.63025 0
M  V30 8840 O 860.394 0.715692 1.80531 0
M  V30 8841 C 857.524 1.65721 3.05211 0
M  V30 8842 C 856.478 2.80097 3.2362 0
M  V30 8843 C 855.804 2.67272 4.63109 0
M  V30 8844 C 857.104 4.21612 3.08286 0
M  V30 8845 H 858.798 2.57049 1.53512 0
M  V30 8846 H 856.344 1.23705 0.737099 0
M  V30 8847 H 858.297 1.75451 3.83138 0
M  V30 8848 H 857.021 0.688593 3.19258 0
M  V30 8849 H 855.68 2.69889 2.48104 0
M  V30 8850 H 855.328 1.68422 4.73965 0
M  V30 8851 H 855.028 3.44008 4.76374 0
M  V30 8852 H 856.552 2.78942 5.43161 0
M  V30 8853 H 857.966 4.32758 3.76024 0
M  V30 8854 H 856.363 4.99193 3.33057 0
M  V30 8855 H 857.433 4.39462 2.04942 0
M  V30 8856 N 858.776 -0.797141 1.35954 0
M  V30 8857 C 859.739 -1.89104 1.29508 0
M  V30 8858 C 860.739 -1.59495 0.204444 0
M  V30 8859 O 861.929 -1.68051 0.458746 0
M  V30 8860 C 859.061 -3.25726 1.00576 0
M  V30 8861 H 860.254 -1.96237 2.26785 0
M  V30 8862 H 857.807 -0.994075 1.20614 0
M  V30 8863 H 858.542 -3.24279 0.0372519 0
M  V30 8864 H 858.327 -3.48604 1.79492 0
M  V30 8865 H 859.817 -4.0578 0.986508 0
M  V30 8866 N 860.254 -1.20106 -1.0204 0
M  V30 8867 C 861.67 -0.955099 -1.27867 0
M  V30 8868 C 861.87 0.367595 -1.98119 0
M  V30 8869 O 860.926 1.09705 -2.27423 0
M  V30 8870 C 862.239 -2.13507 -2.11744 0
M  V30 8871 C 863.787 -2.17563 -2.25023 0
M  V30 8872 C 864.262 -3.35035 -3.12275 0
M  V30 8873 N 865.753 -3.35024 -3.19864 0
M  V30 8874 C 866.488 -4.22566 -3.8759 0
M  V30 8875 N 865.984 -5.20278 -4.57474 0
M  V30 8876 N 867.777 -4.10418 -3.84075 0
M  V30 8877 H 859.928 -2.05193 -0.54861 0
M  V30 8878 H 862.191 -0.897689 -0.304728 0
M  V30 8879 H 861.897 -3.09275 -1.67456 0
M  V30 8880 H 861.771 -2.11281 -3.12474 0
M  V30 8881 H 864.158 -1.22359 -2.68537 0
M  V30 8882 H 864.239 -2.23838 -1.23815 0
M  V30 8883 H 863.883 -4.30522 -2.69468 0
M  V30 8884 H 863.813 -3.25996 -4.13563 0
M  V30 8885 H 866.304 -2.64299 -2.701 0
M  V30 8886 H 866.617 -5.83408 -5.06809 0
M  V30 8887 H 864.962 -5.24219 -4.56311 0
M  V30 8888 H 868.153 -3.33353 -3.28623 0
M  V30 8889 H 868.326 -4.78854 -4.36581 0
M  V30 8890 N 861.732 1.21287 -1.00634 0
M  V30 8891 C 862.68 2.25733 -0.561026 0
M  V30 8892 C 863.674 1.64728 0.395095 0
M  V30 8893 O 864.88 1.78022 0.266141 0
M  V30 8894 H 861.255 0.734104 -0.163081 0
M  V30 8895 H 863.226 2.60631 -1.45307 0
M  V30 8896 C 861.975 3.47569 0.0952587 0
M  V30 8897 H 861.298 3.94782 -0.631427 0
M  V30 8898 H 862.738 4.22382 0.370105 0
M  V30 8899 C 861.197 3.09326 1.33488 0
M  V30 8900 O 861.727 3.19933 2.42912 0
M  V30 8901 N 859.933 2.63976 1.21512 0
M  V30 8902 H 859.48 2.55545 0.324741 0
M  V30 8903 H 859.438 2.38757 2.04555 0
M  V30 8904 N 863.21 0.781244 1.36873 0
M  V30 8905 C 864.14 0.188128 2.32741 0
M  V30 8906 C 865.121 -0.672326 1.56249 0
M  V30 8907 O 866.306 -0.607835 1.84442 0
M  V30 8908 C 863.436 -0.684341 3.40491 0
M  V30 8909 C 862.39 0.0755641 4.27933 0
M  V30 8910 C 861.716 -0.916968 5.26779 0
M  V30 8911 C 863.016 1.26006 5.06873 0
M  V30 8912 H 864.71 0.989016 2.82593 0
M  V30 8913 H 862.256 0.477038 1.35869 0
M  V30 8914 H 864.209 -1.10915 4.06541 0
M  V30 8915 H 862.933 -1.51785 2.89187 0
M  V30 8916 H 861.592 0.481258 3.63427 0
M  V30 8917 H 861.24 -1.74528 4.71751 0
M  V30 8918 H 860.94 -0.413 5.86147 0
M  V30 8919 H 862.464 -1.34052 5.95703 0
M  V30 8920 H 863.878 0.911425 5.66009 0
M  V30 8921 H 862.275 1.69676 5.75613 0
M  V30 8922 H 863.345 2.05948 4.38991 0
M  V30 8923 N 864.689 -1.48329 0.532571 0
M  V30 8924 C 865.622 -2.26524 -0.2761 0
M  V30 8925 C 866.6 -1.32498 -0.942496 0
M  V30 8926 O 867.784 -1.61844 -0.966376 0
M  V30 8927 C 864.911 -3.08808 -1.39124 0
M  V30 8928 C 863.957 -4.18227 -0.835984 0
M  V30 8929 S 864.79 -5.34669 0.298186 0
M  V30 8930 C 865.946 -6.20514 -0.81937 0
M  V30 8931 H 866.179 -2.94764 0.387502 0
M  V30 8932 H 863.712 -1.51081 0.318407 0
M  V30 8933 H 865.67 -3.56792 -2.03002 0
M  V30 8934 H 864.331 -2.39976 -2.02658 0
M  V30 8935 H 863.524 -4.75435 -1.67264 0
M  V30 8936 H 863.126 -3.72996 -0.27385 0
M  V30 8937 H 865.418 -6.55371 -1.7174 0
M  V30 8938 H 866.361 -7.07525 -0.285199 0
M  V30 8939 H 866.769 -5.5366 -1.10094 0
M  V30 8940 N 866.167 -0.267825 -1.55308 0
M  V30 8941 C 867.397 0.354073 -2.03543 0
M  V30 8942 C 867.805 1.50554 -1.14586 0
M  V30 8943 O 867.148 1.83028 -0.156991 0
M  V30 8944 C 867.21 0.904148 -3.47945 0
M  V30 8945 C 866.874 -0.11775 -4.56848 0
M  V30 8946 C 867.871 -0.934707 -5.11429 0
M  V30 8947 C 865.556 -0.249885 -5.01678 0
M  V30 8948 C 867.55 -1.87005 -6.0935 0
M  V30 8949 C 865.237 -1.18872 -5.99427 0
M  V30 8950 C 866.235 -1.99731 -6.53144 0
M  V30 8951 O 865.923 -2.92028 -7.48983 0
M  V30 8952 H 865.655 0.0857765 -0.670536 0
M  V30 8953 H 868.209 -0.395515 -2.01556 0
M  V30 8954 H 866.439 1.70368 -3.47148 0
M  V30 8955 H 868.128 1.43835 -3.79561 0
M  V30 8956 H 868.894 -0.84332 -4.77612 0
M  V30 8957 H 864.773 0.369469 -4.59517 0
M  V30 8958 H 868.317 -2.5016 -6.51203 0
M  V30 8959 H 864.214 -1.28095 -6.32663 0
M  V30 8960 H 864.982 -2.86627 -7.66673 0
M  V30 8961 N 867.645 1.57599 0.00500368 0
M  V30 8962 C 868.891 1.90631 0.691919 0
M  V30 8963 C 869.224 0.868443 1.737 0
M  V30 8964 O 868.499 -0.113482 1.94169 0
M  V30 8965 C 868.782 3.34255 1.33961 0
M  V30 8966 C 868.635 4.48755 0.306413 0
M  V30 8967 C 869.954 3.77211 2.26715 0
M  V30 8968 H 867.073 0.693279 0.250066 0
M  V30 8969 H 869.715 1.89946 -0.0452634 0
M  V30 8970 H 867.865 3.3497 1.96793 0
M  V30 8971 H 869.537 4.60176 -0.321841 0
M  V30 8972 H 867.78 4.32203 -0.371852 0
M  V30 8973 H 868.451 5.46193 0.798554 0
M  V30 8974 H 870.927 3.78017 1.73904 0
M  V30 8975 H 869.803 4.78466 2.69002 0
M  V30 8976 H 870.064 3.10801 3.14413 0
M  V30 8977 N 869.123 -0.277682 1.55134 0
M  V30 8978 C 870.4 -1.0309 1.66228 0
M  V30 8979 C 870.78 -2.0445 0.525701 0
M  V30 8980 O 870.128 -2.23512 -0.474816 0
M  V30 8981 C 870.338 -1.6919 3.05247 0
M  V30 8982 C 871.686 -2.20526 3.62841 0
M  V30 8983 O 872.71 -1.79185 3.07849 0
M  V30 8984 O 871.569 -2.96342 4.59177 0
M  V30 8985 H 868.663 -0.4779 0.674937 0
M  V30 8986 H 871.209 -0.273912 1.67475 0
M  V30 8987 H 869.981 -0.957163 3.79413 0
M  V30 8988 H 869.604 -2.51587 3.07879 0
M  V30 8989 N 870.601 -1.47988 -0.541979 0
M  V30 8990 C 871.85 -1.5465 -1.29485 0
M  V30 8991 C 872.163 -0.220041 -1.94358 0
M  V30 8992 O 873.369 -0.164792 -2.70999 0
M  V30 8993 C 871.825 -2.72685 -2.34885 0
M  V30 8994 C 871.433 -4.11923 -1.76134 0
M  V30 8995 C 873.177 -2.88651 -3.11257 0
M  V30 8996 C 871.084 -5.21237 -2.79404 0
M  V30 8997 H 870.014 -0.575688 -0.486928 0
M  V30 8998 H 872.665 -1.74296 -0.573853 0
M  V30 8999 H 871.047 -2.46448 -3.09966 0
M  V30 9000 H 872.221 -4.48128 -1.07322 0
M  V30 9001 H 870.536 -4.00972 -1.12295 0
M  V30 9002 H 873.133 -3.67487 -3.88404 0
M  V30 9003 H 873.476 -1.97658 -3.66384 0
M  V30 9004 H 874.009 -3.14731 -2.43288 0
M  V30 9005 H 870.748 -6.14156 -2.29113 0
M  V30 9006 H 870.268 -4.89533 -3.4658 0
M  V30 9007 H 871.947 -5.48839 -3.42615 0
M  V30 9008 N 872.079 0.78992 -1.36375 0
M  V30 9009 C 873.49 1.36506 -1.2737 0
M  V30 9010 C 873.841 1.96008 0.086711 0
M  V30 9011 O 872.966 1.92521 0.988159 0
M  V30 9012 C 873.561 2.48175 -2.30639 0
M  V30 9013 C 872.12 3.01506 -2.25325 0
M  V30 9014 C 871.267 1.74581 -2.15445 0
M  V30 9015 H 874.218 0.591606 -1.47261 0
M  V30 9016 H 874.239 3.27179 -1.94253 0
M  V30 9017 H 873.751 2.04838 -3.2964 0
M  V30 9018 H 871.852 3.49265 -1.29788 0
M  V30 9019 H 871.965 3.58355 -3.17992 0
M  V30 9020 H 870.329 1.96794 -1.61692 0
M  V30 9021 H 871.112 1.33373 -3.16333 0
M  V30 9022 N 873.557 1.20646 1.01402 0
M  V30 9023 C 874.806 1.01242 1.7445 0
M  V30 9024 C 875.119 -0.455732 1.90217 0
M  V30 9025 O 876.325 -0.768951 2.60383 0
M  V30 9026 C 874.781 1.76275 3.13776 0
M  V30 9027 C 874.389 3.27201 3.06013 0
M  V30 9028 C 876.133 1.65248 3.91016 0
M  V30 9029 C 874.04 3.9476 4.40362 0
M  V30 9030 H 872.97 0.375202 0.654018 0
M  V30 9031 H 875.621 1.44292 1.13367 0
M  V30 9032 H 874.003 1.26013 3.75415 0
M  V30 9033 H 875.177 3.84695 2.53665 0
M  V30 9034 H 873.492 3.38669 2.42265 0
M  V30 9035 H 876.089 2.13061 4.90417 0
M  V30 9036 H 876.432 0.609128 4.1182 0
M  V30 9037 H 876.965 2.12937 3.3601 0
M  V30 9038 H 873.704 4.99258 4.24761 0
M  V30 9039 H 873.224 3.42054 4.92706 0
M  V30 9040 H 874.903 3.99159 5.09196 0
M  V30 9041 N 875.035 -1.20752 1.01276 0
M  V30 9042 C 876.281 -1.90302 0.700924 0
M  V30 9043 C 876.614 -1.78406 -0.767142 0
M  V30 9044 O 875.889 -1.16575 -1.55694 0
M  V30 9045 C 876.172 -3.41831 1.13242 0
M  V30 9046 C 876.025 -3.6268 2.66051 0
M  V30 9047 C 877.344 -4.34486 0.700738 0
M  V30 9048 H 874.463 -0.69107 0.256107 0
M  V30 9049 H 877.105 -1.42227 1.25982 0
M  V30 9050 H 875.255 -3.82906 0.656902 0
M  V30 9051 H 876.927 -3.30882 3.21426 0
M  V30 9052 H 875.17 -3.06281 3.07204 0
M  V30 9053 H 875.841 -4.68882 2.91296 0
M  V30 9054 H 878.317 -4.01036 1.10948 0
M  V30 9055 H 877.193 -5.39136 1.03073 0
M  V30 9056 H 877.454 -4.40307 -0.39778 0
M  V30 9057 N 876.513 -0.788492 -1.36457 0
M  V30 9058 C 877.79 -0.284484 -1.9352 0
M  V30 9059 C 878.17 1.2232 -1.7205 0
M  V30 9060 O 877.518 2.01424 -1.07892 0
M  V30 9061 C 877.728 -0.676106 -3.42388 0
M  V30 9062 C 879.076 -0.655327 -4.19512 0
M  V30 9063 O 880.1 -0.616523 -3.50824 0
M  V30 9064 O 878.959 -0.697391 -5.42032 0
M  V30 9065 H 876.053 -0.0701769 -0.824017 0
M  V30 9066 H 878.599 -0.870974 -1.45644 0
M  V30 9067 H 877.371 -1.71596 -3.51668 0
M  V30 9068 H 876.994 -0.0634517 -3.97549 0
M  V30 9069 N 877.991 1.48044 -0.54043 0
M  V30 9070 C 878.941 2.26768 0.236657 0
M  V30 9071 C 879.925 1.33341 0.900505 0
M  V30 9072 O 881.117 1.57809 0.801584 0
M  V30 9073 C 878.246 3.18685 1.27651 0
M  V30 9074 C 877.332 4.19589 0.616923 0
M  V30 9075 N 877.723 5.04889 -0.303377 0
M  V30 9076 C 876.021 4.37375 0.872879 0
M  V30 9077 C 876.722 5.77654 -0.684905 0
M  V30 9078 N 875.698 5.43583 -0.0435728 0
M  V30 9079 H 879.5 2.90098 -0.471183 0
M  V30 9080 H 877.014 1.58378 -0.359183 0
M  V30 9081 H 879.011 3.73752 1.84702 0
M  V30 9082 H 877.671 2.56911 1.98562 0
M  V30 9083 H 878.682 5.13461 -0.676591 0
M  V30 9084 H 875.359 3.86784 1.57177 0
M  V30 9085 H 876.749 6.56285 -1.44015 0
M  V30 9086 N 879.47 0.276058 1.55163 0
M  V30 9087 C 880.402 -0.644254 2.19959 0
M  V30 9088 C 881.415 -1.11675 1.18459 0
M  V30 9089 O 882.604 -1.0385 1.45181 0
M  V30 9090 C 879.704 -1.89093 2.81242 0
M  V30 9091 C 878.877 -1.56509 4.08441 0
M  V30 9092 C 877.936 -2.66433 4.53762 0
M  V30 9093 O 876.962 -2.32579 5.19515 0
M  V30 9094 N 878.164 -3.96509 4.23982 0
M  V30 9095 H 880.929 -0.0896808 2.99566 0
M  V30 9096 H 878.49 0.0971981 1.61608 0
M  V30 9097 H 880.482 -2.61929 3.08505 0
M  V30 9098 H 879.052 -2.35453 2.05622 0
M  V30 9099 H 878.272 -0.670522 3.88455 0
M  V30 9100 H 879.56 -1.32242 4.91314 0
M  V30 9101 H 878.958 -4.26834 3.71254 0
M  V30 9102 H 877.515 -4.6572 4.56014 0
M  V30 9103 N 880.948 -1.576 0.00335426 0
M  V30 9104 C 881.895 -2.08632 -0.986975 0
M  V30 9105 C 882.865 -0.982491 -1.33927 0
M  V30 9106 O 884.05 -1.25513 -1.43705 0
M  V30 9107 C 881.19 -2.59705 -2.27261 0
M  V30 9108 C 880.303 -3.84002 -1.97905 0
M  V30 9109 C 879.438 -4.23563 -3.20574 0
M  V30 9110 C 878.477 -5.40688 -2.8692 0
M  V30 9111 N 877.614 -5.75526 -4.02136 0
M  V30 9112 H 882.454 -2.92977 -0.544855 0
M  V30 9113 H 879.991 -1.44831 -0.257376 0
M  V30 9114 H 881.949 -2.87395 -3.02423 0
M  V30 9115 H 880.579 -1.7823 -2.69136 0
M  V30 9116 H 879.631 -3.63199 -1.13096 0
M  V30 9117 H 880.943 -4.69261 -1.69102 0
M  V30 9118 H 880.097 -4.52554 -4.04079 0
M  V30 9119 H 878.836 -3.37019 -3.52518 0
M  V30 9120 H 877.841 -5.11417 -2.01822 0
M  V30 9121 H 879.066 -6.2891 -2.5622 0
M  V30 9122 H 877.012 -4.9194 -4.33971 0
M  V30 9123 H 876.929 -6.55367 -3.76869 0
M  V30 9124 H 878.197 -6.0911 -4.8642 0
M  V30 9125 N 882.426 0.269451 -1.5528 0
M  V30 9126 C 883.666 1.00819 -1.77806 0
M  V30 9127 C 884.03 1.83369 -0.569198 0
M  V30 9128 O 885.231 2.60244 -0.672783 0
M  V30 9129 C 883.502 1.86447 -3.04913 0
M  V30 9130 S 885.061 2.66538 -3.48573 0
M  V30 9131 H 881.879 0.339508 -0.624704 0
M  V30 9132 H 884.481 0.278256 -1.9351 0
M  V30 9133 H 883.185 1.24733 -3.90986 0
M  V30 9134 H 882.716 2.63755 -2.91885 0
M  V30 9135 H 884.731 3.88938 -3.08126 0
M  V30 9136 N 883.904 1.48273 0.534124 0
M  V30 9137 C 885.132 1.59734 1.31501 0
M  V30 9138 C 885.547 0.256047 1.87056 0
M  V30 9139 O 884.904 -0.754086 1.66192 0
M  V30 9140 C 884.955 2.64072 2.46877 0
M  V30 9141 O 884.676 3.92995 1.93613 0
M  V30 9142 C 886.177 2.85933 3.38758 0
M  V30 9143 H 883.397 0.538703 0.40005 0
M  V30 9144 H 885.941 1.9407 0.644762 0
M  V30 9145 H 884.096 2.32606 3.09795 0
M  V30 9146 H 884.51 4.50203 2.69106 0
M  V30 9147 H 885.984 3.62749 4.16073 0
M  V30 9148 H 886.461 1.94603 3.93734 0
M  V30 9149 H 887.067 3.18687 2.81636 0
M  V30 9150 N 885.382 -0.782676 1.36792 0
M  V30 9151 C 886.345 -1.8772 1.31507 0
M  V30 9152 C 887.345 -1.59269 0.221349 0
M  V30 9153 O 888.535 -1.67555 0.476544 0
M  V30 9154 C 885.667 -3.24641 1.04025 0
M  V30 9155 H 886.86 -1.9382 2.28853 0
M  V30 9156 H 884.413 -0.981226 1.21662 0
M  V30 9157 H 885.148 -3.24221 0.0716439 0
M  V30 9158 H 884.933 -3.46681 1.8318 0
M  V30 9159 H 886.423 -4.04711 1.02949 0
M  V30 9160 N 886.86 -1.21182 -1.00761 0
M  V30 9161 C 887.823 -0.970339 -2.07646 0
M  V30 9162 C 888.823 0.0576345 -1.60697 0
M  V30 9163 O 890.013 -0.179369 -1.73274 0
M  V30 9164 C 887.145 -0.462703 -3.37745 0
M  V30 9165 H 888.338 -1.91856 -2.30502 0
M  V30 9166 H 885.891 -1.02844 -1.17698 0
M  V30 9167 H 886.626 0.490559 -3.20568 0
M  V30 9168 H 886.411 -1.20416 -3.73152 0
M  V30 9169 H 887.901 -0.313531 -4.16421 0
M  V30 9170 N 888.338 1.20213 -1.01915 0
M  V30 9171 C 889.568 1.93341 -0.728197 0
M  V30 9172 C 889.976 1.75151 0.715454 0
M  V30 9173 O 889.319 1.06437 1.49722 0
M  V30 9174 C 889.381 3.45677 -0.9873 0
M  V30 9175 C 889.045 3.8763 -2.42057 0
M  V30 9176 C 890.042 3.93184 -3.40151 0
M  V30 9177 C 887.727 4.19547 -2.76199 0
M  V30 9178 C 889.721 4.30069 -4.70446 0
M  V30 9179 C 887.408 4.56106 -4.06707 0
M  V30 9180 C 888.406 4.6134 -5.03641 0
M  V30 9181 O 888.094 4.97059 -6.31813 0
M  V30 9182 H 887.826 0.621258 -0.266485 0
M  V30 9183 H 890.38 1.53577 -1.36393 0
M  V30 9184 H 888.61 3.85578 -0.294405 0
M  V30 9185 H 890.299 4.00035 -0.687536 0
M  V30 9186 H 891.065 3.68687 -3.15111 0
M  V30 9187 H 886.944 4.14663 -2.01434 0
M  V30 9188 H 890.488 4.34069 -5.46105 0
M  V30 9189 H 886.385 4.80059 -4.31525 0
M  V30 9190 H 887.153 5.15043 -6.36139 0
M  V30 9191 N 889.816 0.795718 1.36037 0
M  V30 9192 C 890.726 0.199784 2.33748 0
M  V30 9193 C 891.742 -0.651436 1.61345 0
M  V30 9194 O 892.918 -0.565743 1.93291 0
M  V30 9195 C 889.983 -0.650475 3.40543 0
M  V30 9196 C 889.044 0.219974 4.28736 0
M  V30 9197 C 888.277 -0.589798 5.30431 0
M  V30 9198 O 888.5 -1.82532 5.40406 0
M  V30 9199 O 887.434 0.0136187 6.01898 0
M  V30 9200 H 891.26 1.00782 2.8649 0
M  V30 9201 H 888.845 0.557293 1.38617 0
M  V30 9202 H 890.727 -1.13512 4.05824 0
M  V30 9203 H 889.402 -1.4363 2.9009 0
M  V30 9204 H 888.309 0.751516 3.66474 0
M  V30 9205 H 889.642 0.969468 4.82558 0
M  V30 9206 N 891.294 -1.47756 0.548274 0
M  V30 9207 C 892.241 -2.29893 -0.204408 0
M  V30 9208 C 893.211 -1.38509 -0.916761 0
M  V30 9209 O 894.396 -1.67472 -0.91421 0
M  V30 9210 C 891.536 -3.22282 -1.23403 0
M  V30 9211 C 890.649 -4.28753 -0.528654 0
M  V30 9212 C 889.784 -5.08303 -1.54279 0
M  V30 9213 C 888.823 -6.06557 -0.821893 0
M  V30 9214 N 887.96 -6.79098 -1.78243 0
M  V30 9215 H 892.8 -2.93739 0.502163 0
M  V30 9216 H 890.337 -1.44793 0.259471 0
M  V30 9217 H 892.295 -3.74262 -1.84348 0
M  V30 9218 H 890.925 -2.6032 -1.90875 0
M  V30 9219 H 889.977 -3.79899 0.195132 0
M  V30 9220 H 891.289 -4.98787 0.0365066 0
M  V30 9221 H 890.443 -5.64388 -2.22602 0
M  V30 9222 H 889.182 -4.3815 -2.14186 0
M  V30 9223 H 888.187 -5.49659 -0.12469 0
M  V30 9224 H 889.412 -6.78715 -0.228685 0
M  V30 9225 H 887.358 -6.11682 -2.37025 0
M  V30 9226 H 887.275 -7.4527 -1.26919 0
M  V30 9227 H 888.543 -7.39762 -2.45709 0
M  V30 9228 N 892.772 -0.284283 -1.55015 0
M  V30 9229 C 894.183 0.211681 -1.85496 0
M  V30 9230 C 894.534 1.54735 -1.2063 0
M  V30 9231 O 893.659 2.10594 -0.497918 0
M  V30 9232 C 894.254 0.390864 -3.36538 0
M  V30 9233 C 892.813 0.831055 -3.67111 0
M  V30 9234 C 891.96 -0.0703581 -2.77211 0
M  V30 9235 H 894.911 -0.505803 -1.50424 0
M  V30 9236 H 894.932 1.22803 -3.60138 0
M  V30 9237 H 894.444 -0.581409 -3.8372 0
M  V30 9238 H 892.545 1.81447 -3.25434 0
M  V30 9239 H 892.658 0.662026 -4.74504 0
M  V30 9240 H 891.022 0.447528 -2.50737 0
M  V30 9241 H 891.805 -1.03868 -3.2721 0
M  V30 9242 N 894.251 1.57596 -0.0117121 0
M  V30 9243 C 895.662 1.79033 0.529521 0
M  V30 9244 C 896.013 0.920299 1.73277 0
M  V30 9245 O 895.138 0.125934 2.16033 0
M  V30 9246 C 895.733 3.24695 0.967405 0
M  V30 9247 C 894.292 3.47188 1.45387 0
M  V30 9248 C 893.439 2.74245 0.410466 0
M  V30 9249 H 896.39 1.56908 -0.237836 0
M  V30 9250 H 896.411 3.33451 1.83278 0
M  V30 9251 H 895.923 3.87992 0.0914605 0
M  V30 9252 H 894.024 2.89121 2.35032 0
M  V30 9253 H 894.137 4.55886 1.47325 0
M  V30 9254 H 892.501 2.39209 0.874721 0
M  V30 9255 H 893.284 3.40248 -0.456713 0
M  V30 9256 N 895.729 -0.261212 1.5542 0
M  V30 9257 C 896.959 -1.00769 1.80358 0
M  V30 9258 C 897.367 -1.79991 0.583085 0
M  V30 9259 O 896.71 -1.77911 -0.457534 0
M  V30 9260 C 896.772 -2.00463 2.9842 0
M  V30 9261 C 896.436 -1.4007 4.35005 0
M  V30 9262 C 897.433 -0.810388 5.13545 0
M  V30 9263 C 895.118 -1.42436 4.81682 0
M  V30 9264 C 897.112 -0.251784 6.36903 0
M  V30 9265 C 894.799 -0.861897 6.04991 0
M  V30 9266 C 895.797 -0.276622 6.8244 0
M  V30 9267 O 895.485 0.277194 8.03422 0
M  V30 9268 H 895.217 -0.302839 0.604371 0
M  V30 9269 H 897.771 -0.293763 2.03288 0
M  V30 9270 H 896.001 -2.75648 2.71211 0
M  V30 9271 H 897.69 -2.61336 3.10577 0
M  V30 9272 H 898.456 -0.784719 4.7861 0
M  V30 9273 H 894.335 -1.8693 4.214 0
M  V30 9274 H 897.879 0.205678 6.97297 0
M  V30 9275 H 893.776 -0.884846 6.39407 0
M  V30 9276 H 894.544 0.167682 8.18328 0
M  V30 9277 N 897.207 -1.48554 -0.526253 0
M  V30 9278 C 898.618 -1.50256 -1.10815 0
M  V30 9279 C 898.969 -0.274445 -1.94271 0
M  V30 9280 O 898.094 0.618094 -2.07385 0
M  V30 9281 C 898.689 -2.72264 -2.01638 0
M  V30 9282 C 897.248 -2.76826 -2.55038 0
M  V30 9283 C 896.395 -2.43823 -1.32081 0
M  V30 9284 H 899.346 -1.55616 -0.31133 0
M  V30 9285 H 899.367 -2.50993 -2.85977 0
M  V30 9286 H 898.879 -3.61632 -1.4087 0
M  V30 9287 H 896.98 -1.91676 -3.19517 0
M  V30 9288 H 897.093 -3.78351 -2.93917 0
M  V30 9289 H 895.457 -1.95058 -1.63781 0
M  V30 9290 H 896.24 -3.35436 -0.730596 0
M  V30 9291 N 898.685 0.775411 -1.37205 0
M  V30 9292 C 900.101 1.07546 -1.17924 0
M  V30 9293 C 900.301 2.01496 -0.0128897 0
M  V30 9294 O 899.357 2.44039 0.64816 0
M  V30 9295 C 900.67 1.67647 -2.49629 0
M  V30 9296 C 902.218 1.79923 -2.56119 0
M  V30 9297 C 902.693 2.43438 -3.87946 0
M  V30 9298 N 904.184 2.50893 -3.89368 0
M  V30 9299 C 904.919 3.00881 -4.88117 0
M  V30 9300 N 904.415 3.5107 -5.97262 0
M  V30 9301 N 906.208 2.99722 -4.75524 0
M  V30 9302 H 898.359 0.151524 -2.11859 0
M  V30 9303 H 900.622 0.129845 -0.939066 0
M  V30 9304 H 900.328 1.06082 -3.3532 0
M  V30 9305 H 900.202 2.66988 -2.66453 0
M  V30 9306 H 902.589 2.40621 -1.70838 0
M  V30 9307 H 902.67 0.793482 -2.43182 0
M  V30 9308 H 902.314 1.8338 -4.73639 0
M  V30 9309 H 902.244 3.44611 -3.98184 0
M  V30 9310 H 904.735 2.1537 -3.10522 0
M  V30 9311 H 905.048 3.87604 -6.68568 0
M  V30 9312 H 903.393 3.49184 -6.00912 0
M  V30 9313 H 906.584 2.5981 -3.8938 0
M  V30 9314 H 906.757 3.38369 -5.52639 0
M  V30 9315 N 900.163 1.21714 1.00117 0
M  V30 9316 C 901.411 1.03465 1.73607 0
M  V30 9317 C 901.732 -0.432295 1.90148 0
M  V30 9318 O 901.002 -1.31157 1.45515 0
M  V30 9319 H 899.582 0.379857 0.643209 0
M  V30 9320 H 902.244 1.53088 1.20624 0
M  V30 9321 H 901.34 1.50574 2.73375 0
M  V30 9322 N 901.641 -1.19671 1.02551 0
M  V30 9323 C 902.866 -1.93774 0.739363 0
M  V30 9324 C 903.291 -1.74787 -0.695064 0
M  V30 9325 O 902.649 -1.04796 -1.47944 0
M  V30 9326 C 902.697 -3.43684 1.09149 0
M  V30 9327 O 901.801 -4.11874 0.208213 0
M  V30 9328 H 901.142 -0.605064 0.273484 0
M  V30 9329 H 903.672 -1.51846 1.37128 0
M  V30 9330 H 903.682 -3.94339 1.04695 0
M  V30 9331 H 902.357 -3.56826 2.13654 0
M  V30 9332 H 900.934 -3.716 0.311045 0
M  V30 9333 N 903.119 -0.802921 -1.35613 0
M  V30 9334 C 904.365 -0.382141 -1.99167 0
M  V30 9335 C 904.698 1.04704 -1.63556 0
M  V30 9336 O 903.973 1.72578 -0.89706 0
M  V30 9337 C 904.256 -0.561493 -3.55695 0
M  V30 9338 C 904.109 -2.03534 -4.01116 0
M  V30 9339 C 905.428 0.0151135 -4.40097 0
M  V30 9340 H 902.547 -0.140322 -0.723518 0
M  V30 9341 H 905.189 -1.01177 -1.6082 0
M  V30 9342 H 903.339 -0.0255083 -3.88492 0
M  V30 9343 H 905.011 -2.63343 -3.78746 0
M  V30 9344 H 903.254 -2.5331 -3.52159 0
M  V30 9345 H 903.925 -2.11173 -5.1001 0
M  V30 9346 H 906.401 -0.442582 -4.1374 0
M  V30 9347 H 905.277 -0.140316 -5.48721 0
M  V30 9348 H 905.538 1.10848 -4.27978 0
M  V30 9349 N 904.597 1.47463 -0.556102 0
M  V30 9350 C 905.825 2.06868 -0.0364585 0
M  V30 9351 C 906.24 1.40893 1.25677 0
M  V30 9352 O 905.597 0.505083 1.75371 0
M  V30 9353 C 905.648 3.61128 0.163984 0
M  V30 9354 O 905.369 4.24629 -1.07803 0
M  V30 9355 C 906.87 4.37397 0.721036 0
M  V30 9356 H 904.09 0.669466 -0.0453399 0
M  V30 9357 H 906.634 1.89482 -0.769198 0
M  V30 9358 H 904.789 3.78031 0.84685 0
M  V30 9359 H 905.203 5.17149 -0.875067 0
M  V30 9360 H 906.677 5.46016 0.810584 0
M  V30 9361 H 907.154 4.03604 1.73206 0
M  V30 9362 H 907.76 4.25236 0.073904 0
M  V30 9363 N 906.075 0.2925 1.54862 0
M  V30 9364 C 907.038 -0.574423 2.21885 0
M  V30 9365 C 908.038 -1.06791 1.20218 0
M  V30 9366 O 909.228 -0.9653 1.45009 0
M  V30 9367 C 906.36 -1.79438 2.89853 0
M  V30 9368 H 907.553 0.0110319 2.99898 0
M  V30 9369 H 905.106 0.043256 1.5624 0
M  V30 9370 H 905.841 -2.4199 2.15897 0
M  V30 9371 H 905.626 -1.44827 3.64373 0
M  V30 9372 H 907.116 -2.41048 3.41007 0
M  V30 9373 N 907.553 -1.57587 0.0200696 0
M  V30 9374 C 908.501 -2.10814 -0.982868 0
M  V30 9375 C 909.495 -1.03263 -1.34287 0
M  V30 9376 O 910.701 -1.21708 -1.32617 0
M  V30 9377 H 907.076 -0.673409 -0.334701 0
M  V30 9378 H 909.047 -2.94034 -0.50856 0
M  V30 9379 C 907.796 -2.64301 -2.25921 0
M  V30 9380 H 907.119 -3.46703 -1.99091 0
M  V30 9381 H 908.559 -3.052 -2.94328 0
M  V30 9382 C 907.018 -1.56628 -2.98277 0
M  V30 9383 O 907.548 -0.960825 -3.9004 0
M  V30 9384 N 905.754 -1.28889 -2.60453 0
M  V30 9385 H 905.301 -1.7831 -1.85912 0
M  V30 9386 H 905.259 -0.570697 -3.09177 0
M  V30 9387 N 909.032 0.252966 -1.55557 0
M  V30 9388 C 909.965 1.33928 -1.84766 0
M  V30 9389 C 910.943 1.46653 -0.702254 0
M  V30 9390 O 912.127 1.62963 -0.947375 0
M  V30 9391 C 909.254 2.71348 -2.02701 0
M  V30 9392 C 908.3 2.75804 -3.25322 0
M  V30 9393 S 909.133 2.33025 -4.82141 0
M  V30 9394 C 910.289 3.72382 -5.03073 0
M  V30 9395 H 910.522 1.08951 -2.76617 0
M  V30 9396 H 908.055 0.45364 -1.47585 0
M  V30 9397 H 910.013 3.50478 -2.13718 0
M  V30 9398 H 908.674 2.93566 -1.11703 0
M  V30 9399 H 907.867 3.76713 -3.34819 0
M  V30 9400 H 907.469 2.04713 -3.12999 0
M  V30 9401 H 909.761 4.67828 -4.90044 0
M  V30 9402 H 910.704 3.67824 -6.05071 0
M  V30 9403 H 911.112 3.64614 -4.30949 0
M  V30 9404 N 910.51 1.48831 0.518367 0
M  V30 9405 C 911.44 1.67119 1.63075 0
M  V30 9406 C 912.421 0.519948 1.61958 0
M  V30 9407 O 913.606 0.753824 1.78972 0
M  V30 9408 C 910.736 1.72158 3.01627 0
M  V30 9409 C 909.69 2.86898 3.17606 0
M  V30 9410 C 909.016 2.77035 4.57335 0
M  V30 9411 C 910.316 4.28057 2.99274 0
M  V30 9412 H 912.01 2.60248 1.48025 0
M  V30 9413 H 909.556 1.2524 0.710694 0
M  V30 9414 H 911.509 1.83539 3.7933 0
M  V30 9415 H 910.233 0.756157 3.17726 0
M  V30 9416 H 908.892 2.75091 2.42323 0
M  V30 9417 H 908.54 1.78438 4.70286 0
M  V30 9418 H 908.24 3.54036 4.6897 0
M  V30 9419 H 909.764 2.904 5.37122 0
M  V30 9420 H 911.178 4.40636 3.6676 0
M  V30 9421 H 909.575 5.06145 3.22393 0
M  V30 9422 H 910.645 4.4371 1.95574 0
M  V30 9423 N 911.988 -0.768124 1.37614 0
M  V30 9424 C 913.228 -1.53979 1.34424 0
M  V30 9425 C 913.592 -1.91874 -0.0696803 0
M  V30 9426 O 914.793 -2.67845 -0.22633 0
M  V30 9427 C 913.064 -2.76845 2.26034 0
M  V30 9428 S 914.623 -3.66871 2.4073 0
M  V30 9429 H 911.441 -0.527108 0.477157 0
M  V30 9430 H 914.043 -0.902945 1.73399 0
M  V30 9431 H 912.747 -2.47091 3.2768 0
M  V30 9432 H 912.278 -3.45486 1.88157 0
M  V30 9433 H 914.293 -4.6899 1.62057 0
M  V30 9434 N 913.466 -1.22244 -0.994698 0
M  V30 9435 C 914.429 -0.992308 -2.06606 0
M  V30 9436 C 915.429 0.0405872 -1.60749 0
M  V30 9437 O 916.619 -0.197737 -1.73074 0
M  V30 9438 C 913.751 -0.498499 -3.37236 0
M  V30 9439 H 914.944 -1.9429 -2.28455 0
M  V30 9440 H 912.497 -1.04087 -1.166 0
M  V30 9441 H 913.232 0.456531 -3.21071 0
M  V30 9442 H 913.017 -1.24367 -3.71854 0
M  V30 9443 H 914.507 -0.35768 -4.16065 0
M  V30 9444 N 914.944 1.19125 -1.03184 0
M  V30 9445 C 916.192 1.8851 -0.728587 0
M  V30 9446 C 916.513 1.80195 0.74531 0
M  V30 9447 O 915.783 1.21437 1.5372 0
M  V30 9448 H 914.363 0.69784 -0.266511 0
M  V30 9449 H 917.025 1.44607 -1.3067 0
M  V30 9450 H 916.121 2.9477 -1.02554 0
M  V30 9451 N 916.422 0.810101 1.35185 0
M  V30 9452 C 917.352 0.237453 2.32289 0
M  V30 9453 C 918.333 -0.639032 1.5764 0
M  V30 9454 O 919.518 -0.568575 1.8569 0
M  V30 9455 C 916.648 -0.611964 3.41866 0
M  V30 9456 C 915.602 0.166318 4.27677 0
M  V30 9457 C 914.928 -0.805024 5.28605 0
M  V30 9458 C 916.228 1.36729 5.04086 0
M  V30 9459 H 917.922 1.04874 2.80432 0
M  V30 9460 H 915.468 0.505751 1.34826 0
M  V30 9461 H 917.421 -1.02267 4.08802 0
M  V30 9462 H 916.145 -1.45617 2.92341 0
M  V30 9463 H 914.804 0.558238 3.62325 0
M  V30 9464 H 914.452 -1.64483 4.75347 0
M  V30 9465 H 914.152 -0.288577 5.86891 0
M  V30 9466 H 915.676 -1.21386 5.98413 0
M  V30 9467 H 917.09 1.03128 5.63948 0
M  V30 9468 H 915.487 1.81848 5.71884 0
M  V30 9469 H 916.557 2.15214 4.34524 0
M  V30 9470 N 917.9 -1.47166 0.563914 0
M  V30 9471 C 918.81 -2.33885 -0.182977 0
M  V30 9472 C 919.826 -1.48605 -0.905132 0
M  V30 9473 O 921.002 -1.81518 -0.872527 0
M  V30 9474 C 918.067 -3.25433 -1.19558 0
M  V30 9475 C 917.128 -4.26607 -0.480129 0
M  V30 9476 C 916.361 -5.1378 -1.44449 0
M  V30 9477 O 916.584 -5.03531 -2.67979 0
M  V30 9478 O 915.518 -5.94109 -0.965321 0
M  V30 9479 H 919.344 -2.99065 0.528544 0
M  V30 9480 H 916.929 -1.45834 0.324468 0
M  V30 9481 H 918.811 -3.81964 -1.77993 0
M  V30 9482 H 917.486 -2.62873 -1.8889 0
M  V30 9483 H 916.393 -3.73817 0.145583 0
M  V30 9484 H 917.726 -4.919 0.171868 0
M  V30 9485 N 919.378 -0.300708 -1.54705 0
M  V30 9486 C 920.603 0.314073 -2.05008 0
M  V30 9487 C 921.028 1.46759 -1.17657 0
M  V30 9488 O 920.386 1.80398 -0.180598 0
M  V30 9489 C 920.434 0.748243 -3.52752 0
M  V30 9490 O 919.538 1.85305 -3.68424 0
M  V30 9491 H 918.879 0.0610139 -0.661191 0
M  V30 9492 H 921.409 -0.442467 -1.99758 0
M  V30 9493 H 921.419 1.03713 -3.94598 0
M  V30 9494 H 920.094 -0.095573 -4.1579 0
M  V30 9495 H 918.671 1.56473 -3.38483 0
M  V30 9496 N 920.856 1.57574 -0.0284266 0
M  V30 9497 C 922.104 1.91393 0.649079 0
M  V30 9498 C 922.425 0.905368 1.72708 0
M  V30 9499 O 921.695 -0.0532107 1.95828 0
M  V30 9500 H 920.275 0.70646 0.24274 0
M  V30 9501 H 922.937 1.94752 -0.076066 0
M  V30 9502 H 922.033 2.91988 1.10226 0
M  V30 9503 N 922.334 -0.244713 1.55689 0
M  V30 9504 C 923.582 -0.970525 1.77272 0
M  V30 9505 C 923.903 -1.85771 0.592804 0
M  V30 9506 O 923.173 -1.91952 -0.391323 0
M  V30 9507 H 921.753 -0.361342 0.653789 0
M  V30 9508 H 924.415 -0.262134 1.93129 0
M  V30 9509 H 923.511 -1.59096 2.68505 0
M  V30 9510 N 923.813 -1.49104 -0.510467 0
M  V30 9511 C 924.76 -1.65074 -1.61305 0
M  V30 9512 C 925.73 -0.492362 -1.58635 0
M  V30 9513 O 926.915 -0.718241 -1.76765 0
M  V30 9514 C 924.055 -1.71457 -2.99493 0
M  V30 9515 C 923.168 -2.98536 -3.12251 0
M  V30 9516 C 922.303 -2.95957 -4.41116 0
M  V30 9517 C 921.342 -4.17655 -4.47471 0
M  V30 9518 N 920.479 -4.13041 -5.67751 0
M  V30 9519 H 925.319 -2.59222 -1.46996 0
M  V30 9520 H 922.856 -1.28535 -0.715346 0
M  V30 9521 H 924.814 -1.7314 -3.79577 0
M  V30 9522 H 923.444 -0.807834 -3.12528 0
M  V30 9523 H 922.496 -3.06509 -2.25292 0
M  V30 9524 H 923.808 -3.88527 -3.12807 0
M  V30 9525 H 922.962 -2.96149 -5.2951 0
M  V30 9526 H 921.701 -2.03728 -4.4311 0
M  V30 9527 H 920.706 -4.17717 -3.57481 0
M  V30 9528 H 921.931 -5.11066 -4.472 0
M  V30 9529 H 919.877 -3.23643 -5.70606 0
M  V30 9530 H 919.794 -4.96757 -5.69884 0
M  V30 9531 H 921.062 -4.17322 -6.58379 0
M  V30 9532 N 925.291 0.760815 -1.38019 0
M  V30 9533 C 926.568 1.5098 -1.24356 0
M  V30 9534 C 926.948 2.10507 0.158169 0
M  V30 9535 O 926.296 1.96455 1.16695 0
M  V30 9536 C 926.506 2.58195 -2.34811 0
M  V30 9537 C 927.854 3.25297 -2.72886 0
M  V30 9538 O 928.878 2.68496 -2.34069 0
M  V30 9539 O 927.737 4.28018 -3.39799 0
M  V30 9540 H 924.831 0.66921 -0.485888 0
M  V30 9541 H 927.377 0.796844 -1.49828 0
M  V30 9542 H 926.149 2.12406 -3.28633 0
M  V30 9543 H 925.772 3.37079 -2.10864 0
M  V30 9544 N 926.769 1.22769 0.988202 0
M  V30 9545 C 927.994 1.08239 1.76915 0
M  V30 9546 C 928.419 -0.362519 1.84574 0
M  V30 9547 O 927.777 -1.26202 1.30165 0
M  V30 9548 C 927.825 1.70363 3.17819 0
M  V30 9549 O 926.929 0.960484 4.01059 0
M  V30 9550 H 926.27 0.379872 0.544604 0
M  V30 9551 H 928.8 1.62663 1.24104 0
M  V30 9552 H 928.81 1.7528 3.6843 0
M  V30 9553 H 927.485 2.75505 3.1156 0
M  V30 9554 H 926.062 0.987667 3.59582 0
M  V30 9555 N 928.247 -1.18576 1.03814 0
M  V30 9556 C 929.487 -1.90187 0.748882 0
M  V30 9557 C 929.851 -1.78383 -0.710177 0
M  V30 9558 O 931.052 -2.44678 -1.11293 0
M  V30 9559 C 929.323 -3.36688 1.19901 0
M  V30 9560 S 930.882 -4.26419 1.03501 0
M  V30 9561 H 927.7 -0.656765 0.272362 0
M  V30 9562 H 930.302 -1.43296 1.32991 0
M  V30 9563 H 929.006 -3.42808 2.25635 0
M  V30 9564 H 928.537 -3.88616 0.611669 0
M  V30 9565 H 930.552 -4.96176 -0.0490431 0
M  V30 9566 N 929.725 -0.817259 -1.34754 0
M  V30 9567 C 931.141 -0.502309 -1.51489 0
M  V30 9568 C 931.341 0.974568 -1.76364 0
M  V30 9569 O 930.397 1.75924 -1.81127 0
M  V30 9570 C 931.71 -1.35693 -2.68343 0
M  V30 9571 C 933.258 -1.35347 -2.82224 0
M  V30 9572 C 933.733 -2.19244 -4.02114 0
M  V30 9573 N 935.224 -2.16837 -4.09311 0
M  V30 9574 C 935.959 -2.78505 -5.01221 0
M  V30 9575 N 935.455 -3.4914 -5.98392 0
M  V30 9576 N 937.248 -2.68089 -4.94049 0
M  V30 9577 H 929.399 -1.77359 -1.16866 0
M  V30 9578 H 931.662 -0.755476 -0.572678 0
M  V30 9579 H 931.368 -2.40548 -2.56573 0
M  V30 9580 H 931.242 -1.01764 -3.63213 0
M  V30 9581 H 933.629 -0.312727 -2.93438 0
M  V30 9582 H 933.71 -1.7327 -1.88179 0
M  V30 9583 H 933.354 -3.23365 -3.9166 0
M  V30 9584 H 933.284 -1.78675 -4.95361 0
M  V30 9585 H 935.775 -1.65452 -3.39756 0
M  V30 9586 H 936.088 -3.93455 -6.65141 0
M  V30 9587 H 934.433 -3.53246 -5.98533 0
M  V30 9588 H 937.624 -2.12485 -4.17094 0
M  V30 9589 H 937.797 -3.16436 -5.65484 0
M  V30 9590 N 931.203 1.46865 -0.571711 0
M  V30 9591 C 932.451 2.0203 -0.0530022 0
M  V30 9592 C 932.772 1.44687 1.30731 0
M  V30 9593 O 932.042 0.627429 1.85581 0
M  V30 9594 H 930.622 0.746815 -0.0166035 0
M  V30 9595 H 933.284 1.80099 -0.745003 0
M  V30 9596 H 932.38 3.12091 0.0242538 0
M  V30 9597 N 932.681 0.308908 1.54543 0
M  V30 9598 C 933.958 -0.351558 1.92415 0
M  V30 9599 C 934.338 -1.71061 1.23699 0
M  V30 9600 O 933.686 -2.25394 0.3755 0
M  V30 9601 C 933.896 -0.458357 3.45977 0
M  V30 9602 C 935.244 -0.725524 4.18355 0
M  V30 9603 O 936.268 -0.541859 3.52054 0
M  V30 9604 O 935.127 -1.07884 5.35745 0
M  V30 9605 H 932.221 -0.197957 0.802958 0
M  V30 9606 H 934.767 0.357548 1.65891 0
M  V30 9607 H 933.539 0.496723 3.88134 0
M  V30 9608 H 933.162 -1.21562 3.78561 0
M  V30 9609 N 934.159 -1.57557 0.0367827 0
M  V30 9610 C 935.384 -1.96828 -0.653707 0
M  V30 9611 C 935.809 -0.913559 -1.64425 0
M  V30 9612 O 935.167 0.124749 -1.8087 0
M  V30 9613 C 935.215 -3.35189 -1.32969 0
M  V30 9614 O 934.319 -3.32095 -2.44513 0
M  V30 9615 H 933.66 -0.64157 -0.171124 0
M  V30 9616 H 936.19 -2.04351 0.100912 0
M  V30 9617 H 936.2 -3.71593 -1.68472 0
M  V30 9618 H 934.875 -4.11496 -0.603654 0
M  V30 9619 H 933.452 -3.07418 -2.11065 0
M  V30 9620 N 935.637 0.236453 -1.55816 0
M  V30 9621 C 936.885 0.96111 -1.77784 0
M  V30 9622 C 937.206 1.85454 -0.602648 0
M  V30 9623 O 936.476 1.92157 0.381137 0
M  V30 9624 H 935.056 0.35787 -0.655697 0
M  V30 9625 H 937.718 0.251888 -1.93265 0
M  V30 9626 H 936.814 1.5767 -2.69345 0
M  V30 9627 N 937.115 1.49373 0.502552 0
M  V30 9628 C 938.363 1.58467 1.25429 0
M  V30 9629 C 938.684 0.272593 1.93085 0
M  V30 9630 O 937.954 -0.707947 1.82661 0
M  V30 9631 H 936.534 0.583866 0.46595 0
M  V30 9632 H 939.196 1.8599 0.582568 0
M  V30 9633 H 938.292 2.37993 2.01906 0
M  V30 9634 N 938.594 -0.753485 1.38421 0
M  V30 9635 C 939.557 -1.84888 1.35459 0
M  V30 9636 C 940.557 -1.58764 0.255083 0
M  V30 9637 O 941.747 -1.66507 0.511978 0
M  V30 9638 C 938.879 -3.22361 1.10888 0
M  V30 9639 H 940.072 -1.88922 2.32913 0
M  V30 9640 H 937.625 -0.955199 1.23716 0
M  V30 9641 H 938.36 -3.23996 0.1404 0
M  V30 9642 H 938.145 -3.42717 1.90492 0
M  V30 9643 H 939.635 -4.02437 1.1151 0
M  V30 9644 N 940.072 -1.23292 -0.981677 0
M  V30 9645 C 941.002 -1.03738 -2.09191 0
M  V30 9646 C 941.983 0.0453041 -1.7004 0
M  V30 9647 O 943.168 -0.119092 -1.93834 0
M  V30 9648 C 940.298 -0.626426 -3.41604 0
M  V30 9649 C 939.252 -1.65631 -3.94652 0
M  V30 9650 C 938.578 -1.10084 -5.23245 0
M  V30 9651 C 939.878 -3.04903 -4.24066 0
M  V30 9652 H 941.572 -1.966 -2.25807 0
M  V30 9653 H 939.118 -0.946656 -1.0851 0
M  V30 9654 H 941.071 -0.476689 -4.18695 0
M  V30 9655 H 939.795 0.337873 -3.24848 0
M  V30 9656 H 938.454 -1.79402 -3.19704 0
M  V30 9657 H 938.102 -0.127562 -5.02838 0
M  V30 9658 H 937.802 -1.78896 -5.59705 0
M  V30 9659 H 939.326 -0.962928 -6.02959 0
M  V30 9660 H 940.74 -2.94441 -4.91912 0
M  V30 9661 H 939.137 -3.70941 -4.71724 0
M  V30 9662 H 940.207 -3.53991 -3.31389 0
M  V30 9663 N 941.55 1.18024 -1.04442 0
M  V30 9664 C 942.796 1.88377 -0.751133 0
M  V30 9665 C 943.129 1.80377 0.719571 0
M  V30 9666 O 942.404 1.20662 1.52548 0
M  V30 9667 C 942.687 3.38708 -1.22265 0
M  V30 9668 C 942.54 3.55499 -2.75574 0
M  V30 9669 C 943.859 4.32475 -0.815688 0
M  V30 9670 H 940.978 0.684037 -0.27434 0
M  V30 9671 H 943.62 1.38837 -1.29709 0
M  V30 9672 H 941.77 3.8103 -0.758192 0
M  V30 9673 H 943.442 3.22244 -3.30086 0
M  V30 9674 H 941.685 2.98028 -3.15217 0
M  V30 9675 H 942.356 4.60994 -3.03625 0
M  V30 9676 H 944.832 3.97953 -1.21542 0
M  V30 9677 H 943.708 5.36213 -1.17331 0
M  V30 9678 H 943.969 4.41207 0.280901 0
M  V30 9679 N 943.028 0.824394 1.34319 0
M  V30 9680 C 944.275 0.413167 1.9824 0
M  V30 9681 C 944.603 -1.02412 1.65354 0
M  V30 9682 O 943.858 -1.72831 0.91803 0
M  V30 9683 C 944.157 0.564024 3.52921 0
M  V30 9684 C 943.823 1.96725 4.05722 0
M  V30 9685 C 942.485 2.35111 4.19853 0
M  V30 9686 C 944.837 2.88447 4.34106 0
M  V30 9687 C 942.165 3.64551 4.59695 0
M  V30 9688 C 944.517 4.17353 4.75394 0
M  V30 9689 C 943.181 4.55714 4.8773 0
M  V30 9690 H 942.451 0.151188 0.725412 0
M  V30 9691 H 945.098 1.04863 1.60238 0
M  V30 9692 H 943.403 -0.154816 3.91494 0
M  V30 9693 H 945.1 0.226347 4.00361 0
M  V30 9694 H 941.69 1.65908 3.95187 0
M  V30 9695 H 945.874 2.60034 4.22725 0
M  V30 9696 H 941.13 3.94097 4.67437 0
M  V30 9697 H 945.304 4.88512 4.96315 0
M  V30 9698 H 942.931 5.56064 5.1836 0
M  V30 9699 N 944.506 -1.46559 0.579492 0
M  V30 9700 C 945.436 -2.33059 -0.143437 0
M  V30 9701 C 946.417 -1.4515 -0.886868 0
M  V30 9702 O 947.602 -1.73973 -0.862961 0
M  V30 9703 C 944.732 -3.27364 -1.15973 0
M  V30 9704 C 943.686 -4.24689 -0.531348 0
M  V30 9705 C 943.012 -5.08479 -1.65388 0
M  V30 9706 C 944.312 -5.1961 0.529391 0
M  V30 9707 H 946.006 -2.93753 0.578762 0
M  V30 9708 H 943.552 -1.41256 0.279775 0
M  V30 9709 H 945.505 -3.86732 -1.67382 0
M  V30 9710 H 944.229 -2.64771 -1.91217 0
M  V30 9711 H 942.888 -3.6658 -0.0383749 0
M  V30 9712 H 942.536 -4.42273 -2.3959 0
M  V30 9713 H 942.236 -5.74387 -1.23909 0
M  V30 9714 H 943.76 -5.70709 -2.17079 0
M  V30 9715 H 945.174 -5.73212 0.100506 0
M  V30 9716 H 943.571 -5.93843 0.86432 0
M  V30 9717 H 944.641 -4.63737 1.4169 0
M  V30 9718 N 945.984 -0.3171 -1.54377 0
M  V30 9719 C 947.261 0.341348 -1.92598 0
M  V30 9720 C 947.641 1.70402 -1.24605 0
M  V30 9721 O 946.989 2.25191 -0.387448 0
M  V30 9722 C 947.199 0.440003 -3.46215 0
M  V30 9723 C 948.547 0.703327 -4.18734 0
M  V30 9724 O 949.571 0.523181 -3.52337 0
M  V30 9725 O 948.43 1.05042 -5.3631 0
M  V30 9726 H 945.524 0.193696 -0.803997 0
M  V30 9727 H 948.07 -0.366341 -1.65699 0
M  V30 9728 H 946.842 -0.517299 -3.87866 0
M  V30 9729 H 946.465 1.19553 -3.792 0
M  V30 9730 N 947.462 1.57535 -0.0451378 0
M  V30 9731 C 948.687 1.97172 0.64326 0
M  V30 9732 C 949.112 0.922266 1.63939 0
M  V30 9733 O 948.47 -0.115155 1.80934 0
M  V30 9734 C 948.518 3.35889 1.3119 0
M  V30 9735 O 947.622 3.33387 2.42748 0
M  V30 9736 H 946.963 0.642469 0.167719 0
M  V30 9737 H 949.493 2.04295 -0.111747 0
M  V30 9738 H 949.503 3.72481 1.66499 0
M  V30 9739 H 948.178 4.1181 0.581823 0
M  V30 9740 H 946.755 3.08533 2.09432 0
M  V30 9741 N 948.94 -0.228186 1.55939 0
M  V30 9742 C 949.85 -1.30386 1.9503 0
M  V30 9743 C 950.866 -1.51645 0.853218 0
M  V30 9744 O 952.042 -1.64904 1.15623 0
M  V30 9745 C 949.107 -2.63489 2.25332 0
M  V30 9746 C 948.168 -2.5059 3.48573 0
M  V30 9747 C 947.401 -3.77345 3.7742 0
M  V30 9748 O 947.624 -4.80067 3.08045 0
M  V30 9749 O 946.558 -3.74855 4.70922 0
M  V30 9750 H 950.384 -1.0022 2.86687 0
M  V30 9751 H 947.969 -0.430503 1.43063 0
M  V30 9752 H 949.851 -3.4211 2.46046 0
M  V30 9753 H 948.526 -2.93349 1.3685 0
M  V30 9754 H 947.433 -1.70191 3.33145 0
M  V30 9755 H 948.766 -2.2567 4.37417 0
M  V30 9756 N 950.418 -1.49637 -0.494624 0
M  V30 9757 C 951.646 -1.63164 -1.2722 0
M  V30 9758 C 952.061 -0.305552 -1.86311 0
M  V30 9759 O 951.418 0.709758 -1.68133 0
M  V30 9760 C 951.469 -2.70524 -2.39789 0
M  V30 9761 O 951.19 -3.97991 -1.83126 0
M  V30 9762 C 952.691 -2.94814 -3.31058 0
M  V30 9763 H 949.911 -0.54912 -0.385627 0
M  V30 9764 H 952.455 -1.95711 -0.593081 0
M  V30 9765 H 950.61 -2.40738 -3.03519 0
M  V30 9766 H 951.024 -4.57179 -2.57075 0
M  V30 9767 H 952.498 -3.73653 -4.06309 0
M  V30 9768 H 952.975 -2.04974 -3.88436 0
M  V30 9769 H 953.581 -3.26042 -2.73088 0
M  V30 9770 N 951.896 0.746133 -1.38819 0
M  V30 9771 C 952.806 1.89063 -1.38897 0
M  V30 9772 C 953.822 1.71648 -0.28513 0
M  V30 9773 O 954.998 1.94443 -0.524783 0
M  V30 9774 C 952.063 3.24523 -1.22007 0
M  V30 9775 C 951.124 3.54411 -2.42263 0
M  V30 9776 C 950.357 4.83408 -2.26169 0
M  V30 9777 O 950.58 5.56325 -1.25931 0
M  V30 9778 O 949.514 5.12943 -3.14918 0
M  V30 9779 H 953.34 1.91951 -2.35347 0
M  V30 9780 H 950.925 0.892433 -1.19816 0
M  V30 9781 H 952.807 4.05496 -1.14677 0
M  V30 9782 H 951.482 3.2243 -0.286455 0
M  V30 9783 H 950.389 2.73569 -2.55168 0
M  V30 9784 H 951.722 3.61273 -3.3428 0
M  V30 9785 N 953.375 1.23811 0.975125 0
M  V30 9786 C 954.791 1.0019 1.24234 0
M  V30 9787 C 954.991 -0.293811 1.99346 0
M  V30 9788 O 954.047 -1.01189 2.31337 0
M  V30 9789 C 955.36 2.21218 2.03674 0
M  V30 9790 C 956.908 2.25764 2.16793 0
M  V30 9791 C 957.383 3.46394 2.99626 0
M  V30 9792 N 958.874 3.46665 3.07209 0
M  V30 9793 C 959.609 4.3666 3.71639 0
M  V30 9794 N 959.105 5.36899 4.37849 0
M  V30 9795 N 960.898 4.2439 3.68578 0
M  V30 9796 H 953.049 2.07087 0.472076 0
M  V30 9797 H 955.312 0.90838 0.271201 0
M  V30 9798 H 955.018 3.15277 1.55862 0
M  V30 9799 H 954.892 2.22733 3.04417 0
M  V30 9800 H 957.279 1.32242 2.63811 0
M  V30 9801 H 957.36 2.28279 1.15422 0
M  V30 9802 H 957.004 4.40227 2.53304 0
M  V30 9803 H 956.934 3.41121 4.01178 0
M  V30 9804 H 959.425 2.74142 2.60105 0
M  V30 9805 H 959.738 6.01816 4.84807 0
M  V30 9806 H 958.083 5.40793 4.36541 0
M  V30 9807 H 961.274 3.4532 3.16025 0
M  V30 9808 H 961.447 4.94727 4.18508 0
M  V30 9809 N 954.853 -1.17469 1.05066 0
M  V30 9810 C 956.099 -1.88225 0.7709 0
M  V30 9811 C 956.454 -1.7943 -0.694452 0
M  V30 9812 O 955.747 -1.19059 -1.50118 0
M  V30 9813 C 955.941 -3.37211 1.18421 0
M  V30 9814 C 955.77 -3.60508 2.68819 0
M  V30 9815 C 954.54 -3.77303 3.36111 0
M  V30 9816 C 956.738 -3.60258 3.6704 0
M  V30 9817 N 954.72 -3.88433 4.75387 0
M  V30 9818 C 956.091 -3.77223 4.92039 0
M  V30 9819 C 958.146 -3.43401 3.60527 0
M  V30 9820 C 956.849 -3.79075 6.11305 0
M  V30 9821 C 958.875 -3.46541 4.79232 0
M  V30 9822 C 958.237 -3.64013 6.03054 0
M  V30 9823 H 954.336 -0.706941 0.334303 0
M  V30 9824 H 956.92 -1.41029 1.34235 0
M  V30 9825 H 955.091 -3.83079 0.640724 0
M  V30 9826 H 956.823 -3.95578 0.854411 0
M  V30 9827 H 953.578 -3.77105 2.86512 0
M  V30 9828 H 954.002 -3.97797 5.47802 0
M  V30 9829 H 958.644 -3.28831 2.65762 0
M  V30 9830 H 956.362 -3.92431 7.06416 0
M  V30 9831 H 959.948 -3.34758 4.75845 0
M  V30 9832 H 958.828 -3.66345 6.93369 0
M  V30 9833 N 956.331 -0.831506 -1.3388 0
M  V30 9834 C 957.578 -0.423674 -1.98018 0
M  V30 9835 C 957.906 1.01533 -1.65895 0
M  V30 9836 O 957.161 1.72342 -0.927183 0
M  V30 9837 C 957.46 -0.582733 -3.52617 0
M  V30 9838 C 957.126 -1.98874 -4.04673 0
M  V30 9839 C 955.788 -2.37334 -4.186 0
M  V30 9840 C 958.14 -2.90745 -4.3257 0
M  V30 9841 C 955.468 -3.66984 -4.57755 0
M  V30 9842 C 957.82 -4.19868 -4.73174 0
M  V30 9843 C 956.484 -4.58294 -4.85307 0
M  V30 9844 H 955.754 -0.155033 -0.7246 0
M  V30 9845 H 958.401 -1.05711 -1.59679 0
M  V30 9846 H 956.706 0.134052 -3.91571 0
M  V30 9847 H 958.403 -0.247576 -4.00235 0
M  V30 9848 H 954.993 -1.68001 -3.94301 0
M  V30 9849 H 959.177 -2.62272 -4.2134 0
M  V30 9850 H 954.433 -3.9657 -4.65341 0
M  V30 9851 H 958.607 -4.91138 -4.93717 0
M  V30 9852 H 956.234 -5.58805 -5.15404 0
M  V30 9853 N 957.809 1.4625 -0.587256 0
M  V30 9854 C 959.055 2.02662 -0.0746851 0
M  V30 9855 C 959.388 1.45723 1.28368 0
M  V30 9856 O 958.663 0.624062 1.84216 0
M  V30 9857 C 958.946 3.60097 -0.0138109 0
M  V30 9858 C 958.799 4.27412 -1.4014 0
M  V30 9859 C 960.118 4.34744 0.684491 0
M  V30 9860 H 957.237 0.736444 -0.0286144 0
M  V30 9861 H 959.879 1.74341 -0.755328 0
M  V30 9862 H 958.029 3.84357 0.56583 0
M  V30 9863 H 959.701 4.14401 -2.02656 0
M  V30 9864 H 957.944 3.86598 -1.96785 0
M  V30 9865 H 958.615 5.362 -1.31124 0
M  V30 9866 H 961.091 4.15657 0.192023 0
M  V30 9867 H 959.967 5.44468 0.696127 0
M  V30 9868 H 960.228 4.06132 1.74669 0
M  V30 9869 N 959.287 0.325282 1.54207 0
M  V30 9870 C 960.535 -0.276229 2.00203 0
M  V30 9871 C 960.856 -1.52519 1.21503 0
M  V30 9872 O 960.126 -1.93313 0.317302 0
M  V30 9873 H 958.706 -0.105059 0.739575 0
M  V30 9874 H 961.368 0.442225 1.89817 0
M  V30 9875 H 960.464 -0.531427 3.07542 0
M  V30 9876 N 960.765 -1.57509 0.0534917 0
M  V30 9877 C 962.013 -1.92402 -0.618548 0
M  V30 9878 C 962.334 -0.93273 -1.71246 0
M  V30 9879 O 961.604 0.0220495 -1.95888 0
M  V30 9880 H 960.184 -0.710233 -0.23147 0
M  V30 9881 H 962.846 -1.94606 0.10704 0
M  V30 9882 H 961.942 -2.93704 -1.05566 0
M  V30 9883 N 962.243 0.219913 -1.56058 0
M  V30 9884 C 963.492 0.942119 -1.78345 0
M  V30 9885 C 963.805 1.85435 -0.622344 0
M  V30 9886 O 965.011 2.61533 -0.728886 0
M  V30 9887 C 963.467 1.72544 -3.15843 0
M  V30 9888 C 963.075 0.859263 -4.39682 0
M  V30 9889 C 964.819 2.43876 -3.47455 0
M  V30 9890 C 962.726 1.64003 -5.68205 0
M  V30 9891 H 961.656 0.355514 -0.664925 0
M  V30 9892 H 964.307 0.195963 -1.82451 0
M  V30 9893 H 962.689 2.51456 -3.05918 0
M  V30 9894 H 963.863 0.110562 -4.60667 0
M  V30 9895 H 962.178 0.257985 -4.156 0
M  V30 9896 H 964.775 3.02794 -4.40704 0
M  V30 9897 H 965.118 3.16843 -2.7003 0
M  V30 9898 H 965.651 1.71952 -3.58716 0
M  V30 9899 H 962.39 0.953606 -6.48526 0
M  V30 9900 H 961.91 2.3633 -5.51279 0
M  V30 9901 H 963.589 2.20028 -6.08438 0
M  V30 9902 N 963.721 1.49897 0.486681 0
M  V30 9903 C 964.967 1.60342 1.2417 0
M  V30 9904 C 965.3 0.295694 1.91936 0
M  V30 9905 O 964.575 -0.701788 1.81398 0
M  V30 9906 C 964.858 2.77281 2.29755 0
M  V30 9907 C 964.711 4.1789 1.66397 0
M  V30 9908 C 966.03 2.89817 3.31201 0
M  V30 9909 H 963.149 0.583605 0.450083 0
M  V30 9910 H 965.791 1.82232 0.537734 0
M  V30 9911 H 963.941 2.58748 2.89796 0
M  V30 9912 H 965.613 4.47975 1.10073 0
M  V30 9913 H 963.856 4.22872 0.967579 0
M  V30 9914 H 964.527 4.95612 2.43049 0
M  V30 9915 H 967.003 3.06732 2.81167 0
M  V30 9916 H 965.879 3.7329 4.02425 0
M  V30 9917 H 966.14 1.9977 3.94391 0
M  V30 9918 N 965.199 -0.738761 1.39212 0
M  V30 9919 C 966.424 -1.5331 1.39681 0
M  V30 9920 C 966.849 -1.88098 -0.00768715 0
M  V30 9921 O 966.207 -1.51642 -0.993699 0
M  V30 9922 C 966.255 -2.79958 2.27279 0
M  V30 9923 O 965.359 -3.75727 1.70008 0
M  V30 9924 H 964.7 -0.463131 0.475821 0
M  V30 9925 H 967.23 -0.911768 1.83161 0
M  V30 9926 H 967.24 -3.28732 2.41659 0
M  V30 9927 H 965.915 -2.5397 3.29351 0
M  V30 9928 H 964.492 -3.34483 1.64851 0
M  V30 9929 N 966.677 -1.24326 -0.968545 0
M  V30 9930 C 967.923 -1.09413 -1.71465 0
M  V30 9931 C 968.278 0.363422 -1.88937 0
M  V30 9932 O 967.571 1.26486 -1.43916 0
M  V30 9933 C 967.765 -1.76644 -3.10695 0
M  V30 9934 C 967.594 -3.28787 -3.06805 0
M  V30 9935 C 966.364 -3.97995 -3.11333 0
M  V30 9936 C 968.562 -4.25389 -2.89047 0
M  V30 9937 N 966.544 -5.37024 -2.97453 0
M  V30 9938 C 967.915 -5.51411 -2.83454 0
M  V30 9939 C 969.97 -4.15976 -2.73621 0
M  V30 9940 C 968.673 -6.69096 -2.64013 0
M  V30 9941 C 970.699 -5.33338 -2.55547 0
M  V30 9942 C 970.061 -6.58291 -2.50663 0
M  V30 9943 H 966.16 -0.454986 -0.636012 0
M  V30 9944 H 968.744 -1.57228 -1.14837 0
M  V30 9945 H 966.915 -1.31344 -3.65518 0
M  V30 9946 H 968.647 -1.54599 -3.74007 0
M  V30 9947 H 965.402 -3.49155 -3.19981 0
M  V30 9948 H 965.826 -6.09948 -2.93756 0
M  V30 9949 H 970.468 -3.20131 -2.76181 0
M  V30 9950 H 968.186 -7.65064 -2.60197 0
M  V30 9951 H 971.772 -5.27904 -2.44557 0
M  V30 9952 H 970.652 -7.47575 -2.36856 0
M  V30 9953 N 968.156 1.1691 -1.05688 0
M  V30 9954 C 969.404 1.86922 -0.768409 0
M  V30 9955 C 969.725 1.81735 0.706921 0
M  V30 9956 O 968.995 1.24671 1.51109 0
M  V30 9957 H 967.575 0.69203 -0.281253 0
M  V30 9958 H 970.237 1.41803 -1.33708 0
M  V30 9959 H 969.333 2.92528 -1.08783 0
M  V30 9960 N 969.634 0.838594 1.33437 0
M  V30 9961 C 970.859 0.446701 2.02532 0
M  V30 9962 C 971.284 -0.944275 1.62681 0
M  V30 9963 O 970.642 -1.61733 0.81927 0
M  V30 9964 C 970.69 0.574794 3.55989 0
M  V30 9965 O 969.794 -0.399063 4.10465 0
M  V30 9966 H 969.135 0.181637 0.638674 0
M  V30 9967 H 971.665 1.13335 1.70342 0
M  V30 9968 H 971.675 0.456339 4.0544 0
M  V30 9969 H 970.35 1.58921 3.8434 0
M  V30 9970 H 968.927 -0.238187 3.72139 0
M  V30 9971 N 971.112 -1.45937 0.595003 0
M  V30 9972 C 972.045 -2.27491 -0.179775 0
M  V30 9973 C 973.023 -1.36376 -0.88545 0
M  V30 9974 O 974.207 -1.65797 -0.896863 0
M  V30 9975 C 971.334 -3.1443 -1.25902 0
M  V30 9976 C 970.38 -4.21396 -0.657847 0
M  V30 9977 S 971.213 -5.32923 0.524689 0
M  V30 9978 C 972.369 -6.2343 -0.555452 0
M  V30 9979 H 972.602 -2.92855 0.512173 0
M  V30 9980 H 970.135 -1.49595 0.382199 0
M  V30 9981 H 972.093 -3.65081 -1.87687 0
M  V30 9982 H 970.754 -2.48356 -1.92297 0
M  V30 9983 H 969.947 -4.82102 -1.46948 0
M  V30 9984 H 969.549 -3.73822 -0.115403 0
M  V30 9985 H 971.841 -6.62066 -1.43789 0
M  V30 9986 H 972.784 -7.08098 0.0151431 0
M  V30 9987 H 973.192 -5.57831 -0.865125 0
M  V30 9988 N 972.59 -0.333456 -1.54032 0
M  V30 9989 C 973.538 0.543414 -2.26163 0
M  V30 9990 C 974.532 1.11037 -1.27934 0
M  V30 9991 O 975.738 1.05727 -1.45677 0
M  V30 9992 H 972.113 0.19391 -0.726569 0
M  V30 9993 H 974.084 -0.0871052 -2.98273 0
M  V30 9994 C 972.833 1.68769 -3.03994 0
M  V30 9995 H 972.156 1.26069 -3.79403 0
M  V30 9996 H 973.596 2.27662 -3.57695 0
M  V30 9997 C 972.055 2.61117 -2.12884 0
M  V30 9998 O 972.585 3.63097 -1.71823 0
M  V30 9999 N 970.791 2.29573 -1.7817 0
M  V30 10000 H 970.338 1.46684 -2.11759 0
M  V30 10001 H 970.296 2.91622 -1.1749 0
M  V30 10002 N 974.068 1.57479 -0.061844 0
M  V30 10003 C 975.308 1.94982 0.613309 0
M  V30 10004 C 975.672 0.940729 1.67375 0
M  V30 10005 O 976.873 1.20307 2.40374 0
M  V30 10006 C 975.144 3.37208 1.18429 0
M  V30 10007 S 976.703 3.96678 1.87596 0
M  V30 10008 H 973.521 0.681969 0.201096 0
M  V30 10009 H 976.123 1.95045 -0.133328 0
M  V30 10010 H 974.827 4.08441 0.400522 0
M  V30 10011 H 974.358 3.40665 1.96751 0
M  V30 10012 H 976.373 3.82772 3.15754 0
M  V30 10013 N 975.546 -0.211634 1.56173 0
M  V30 10014 C 976.794 -0.932704 1.7929 0
M  V30 10015 C 977.115 -1.84472 0.632076 0
M  V30 10016 O 976.385 -1.92739 -0.350519 0
M  V30 10017 H 974.965 -0.347393 0.661307 0
M  V30 10018 H 977.627 -0.22111 1.93642 0
M  V30 10019 H 976.723 -1.53365 2.71819 0
M  V30 10020 N 977.024 -1.50153 -0.478725 0
M  V30 10021 C 977.934 -1.71232 -1.60364 0
M  V30 10022 C 978.95 -0.595269 -1.63501 0
M  V30 10023 O 980.126 -0.872683 -1.81511 0
M  V30 10024 C 977.191 -1.79487 -2.96623 0
M  V30 10025 C 976.252 -3.03185 -3.03937 0
M  V30 10026 C 975.485 -3.11036 -4.33696 0
M  V30 10027 O 975.708 -2.2588 -5.23769 0
M  V30 10028 O 974.642 -4.03698 -4.46443 0
M  V30 10029 H 978.468 -2.66575 -1.45505 0
M  V30 10030 H 976.053 -1.34158 -0.65741 0
M  V30 10031 H 977.935 -1.8714 -3.77567 0
M  V30 10032 H 976.61 -0.873264 -3.11698 0
M  V30 10033 H 975.517 -3.01036 -2.22099 0
M  V30 10034 H 976.85 -3.94898 -2.93796 0
M  V30 10035 N 978.502 0.731368 -1.39602 0
M  V30 10036 C 979.465 1.8271 -1.38383 0
M  V30 10037 C 980.465 1.58338 -0.280309 0
M  V30 10038 O 981.655 1.65671 -0.538402 0
M  V30 10039 C 978.787 3.20556 -1.16002 0
M  V30 10040 H 979.98 1.85193 -2.35889 0
M  V30 10041 H 977.533 0.935396 -1.2522 0
M  V30 10042 H 978.268 3.23732 -0.191927 0
M  V30 10043 H 978.053 3.39643 -1.9592 0
M  V30 10044 H 979.543 4.00612 -1.17899 0
M  V30 10045 N 979.98 1.24838 0.961938 0
M  V30 10046 C 981.228 1.08936 1.70227 0
M  V30 10047 C 981.549 -0.371582 1.91427 0
M  V30 10048 O 980.819 -1.26461 1.49614 0
M  V30 10049 H 979.399 0.400128 0.630799 0
M  V30 10050 H 982.061 1.56848 1.15692 0
M  V30 10051 H 981.157 1.59195 2.68446 0
M  V30 10052 N 981.458 -1.16348 1.06306 0
M  V30 10053 C 982.39 -2.20316 0.631929 0
M  V30 10054 C 983.403 -1.59819 -0.310133 0
M  V30 10055 O 984.592 -1.78213 -0.101103 0
M  V30 10056 C 981.692 -3.3877 -0.0937645 0
M  V30 10057 C 980.865 -4.28826 0.861816 0
M  V30 10058 C 979.924 -5.25908 0.175346 0
M  V30 10059 O 978.95 -5.63363 0.813039 0
M  V30 10060 N 980.152 -5.70307 -1.08305 0
M  V30 10061 H 982.917 -2.57925 1.52626 0
M  V30 10062 H 980.478 -1.31358 0.946392 0
M  V30 10063 H 982.47 -4.00759 -0.563412 0
M  V30 10064 H 981.04 -2.99666 -0.889904 0
M  V30 10065 H 980.26 -3.64098 1.51083 0
M  V30 10066 H 981.548 -4.85875 1.51007 0
M  V30 10067 H 980.946 -5.4197 -1.62127 0
M  V30 10068 H 979.503 -6.34387 -1.49656 0
M  V30 10069 N 982.937 -0.845659 -1.3299 0
M  V30 10070 C 984.167 -0.457686 -2.01467 0
M  V30 10071 C 984.575 0.947664 -1.63756 0
M  V30 10072 O 983.918 1.62841 -0.850213 0
M  V30 10073 C 983.98 -0.506589 -3.55913 0
M  V30 10074 C 983.644 -1.86924 -4.17023 0
M  V30 10075 C 984.641 -2.83344 -4.35904 0
M  V30 10076 C 982.326 -2.16394 -4.53298 0
M  V30 10077 C 984.32 -4.07391 -4.90216 0
M  V30 10078 C 982.007 -3.40695 -5.07316 0
M  V30 10079 C 983.005 -4.3601 -5.25722 0
M  V30 10080 O 982.693 -5.58112 -5.7859 0
M  V30 10081 H 982.425 -0.179258 -0.651799 0
M  V30 10082 H 984.979 -1.14172 -1.70745 0
M  V30 10083 H 983.209 0.234253 -3.8599 0
M  V30 10084 H 984.898 -0.135487 -4.05674 0
M  V30 10085 H 985.664 -2.61879 -4.08221 0
M  V30 10086 H 981.543 -1.42994 -4.38262 0
M  V30 10087 H 985.087 -4.81796 -5.04498 0
M  V30 10088 H 980.984 -3.62014 -5.3443 0
M  V30 10089 H 981.752 -5.59946 -5.96995 0
M  V30 10090 N 984.415 1.45619 -0.602734 0
M  V30 10091 C 985.663 2.01873 -0.095844 0
M  V30 10092 C 985.984 1.47427 1.27633 0
M  V30 10093 O 985.254 0.666652 1.84208 0
M  V30 10094 H 983.834 0.746295 -0.0324408 0
M  V30 10095 H 986.496 1.78478 -0.783037 0
M  V30 10096 H 985.592 3.12072 -0.0419507 0
M  V30 10097 N 985.893 0.34162 1.53853 0
M  V30 10098 C 987.139 -0.255862 2.01179 0
M  V30 10099 C 987.472 -1.50356 1.22909 0
M  V30 10100 O 986.747 -1.91913 0.316198 0
M  V30 10101 C 987.03 -0.571934 3.55529 0
M  V30 10102 C 986.883 0.687727 4.44511 0
M  V30 10103 C 988.202 -1.38233 4.17827 0
M  V30 10104 H 985.321 -0.091521 0.731295 0
M  V30 10105 H 987.963 0.461775 1.84303 0
M  V30 10106 H 986.113 -1.18331 3.70041 0
M  V30 10107 H 987.785 1.32572 4.4184 0
M  V30 10108 H 986.028 1.313 4.13452 0
M  V30 10109 H 986.699 0.421858 5.50386 0
M  V30 10110 H 989.175 -0.865374 4.07002 0
M  V30 10111 H 988.051 -1.57223 5.25901 0
M  V30 10112 H 988.312 -2.38386 3.72323 0
M  V30 10113 N 987.371 -1.57444 0.0701946 0
M  V30 10114 C 988.601 -1.97467 -0.607476 0
M  V30 10115 C 989.009 -0.947232 -1.63781 0
M  V30 10116 O 988.352 0.074652 -1.83548 0
M  V30 10117 C 988.414 -3.33795 -1.33495 0
M  V30 10118 C 988.078 -4.54697 -0.458265 0
M  V30 10119 C 989.075 -5.19127 0.283488 0
M  V30 10120 C 986.76 -5.00833 -0.383612 0
M  V30 10121 C 988.754 -6.28043 1.08813 0
M  V30 10122 C 986.441 -6.09622 0.424705 0
M  V30 10123 C 987.439 -6.7309 1.15925 0
M  V30 10124 O 987.127 -7.79785 1.95423 0
M  V30 10125 H 986.859 -0.654405 -0.169501 0
M  V30 10126 H 989.413 -2.04931 0.138651 0
M  V30 10127 H 987.643 -3.22941 -2.12711 0
M  V30 10128 H 989.332 -3.58435 -1.9047 0
M  V30 10129 H 990.098 -4.84428 0.235397 0
M  V30 10130 H 985.977 -4.51211 -0.944968 0
M  V30 10131 H 989.521 -6.77513 1.66197 0
M  V30 10132 H 985.418 -6.43755 0.474366 0
M  V30 10133 H 986.186 -7.96655 1.87838 0
M  V30 10134 N 988.849 0.203349 -1.56283 0
M  V30 10135 C 990.077 0.941426 -1.84241 0
M  V30 10136 C 990.492 1.77197 -0.651658 0
M  V30 10137 O 989.849 1.78506 0.379713 0
M  V30 10138 C 989.9 1.84429 -3.10915 0
M  V30 10139 O 989.621 1.04729 -4.25398 0
M  V30 10140 C 991.122 2.69474 -3.51993 0
M  V30 10141 H 988.342 0.27507 -0.612027 0
M  V30 10142 H 990.886 0.213088 -2.03387 0
M  V30 10143 H 989.041 2.52635 -2.93691 0
M  V30 10144 H 989.455 1.66179 -4.97478 0
M  V30 10145 H 990.929 3.28495 -4.43616 0
M  V30 10146 H 991.406 3.42775 -2.74594 0
M  V30 10147 H 992.012 2.06652 -3.71719 0
M  V30 10148 N 990.327 1.50405 0.470755 0
M  V30 10149 C 991.274 1.69293 1.56871 0
M  V30 10150 C 992.244 0.534248 1.57274 0
M  V30 10151 O 993.429 0.764855 1.74799 0
M  V30 10152 C 990.569 1.79338 2.94842 0
M  V30 10153 C 989.682 3.06709 3.04226 0
M  V30 10154 C 988.817 3.07548 4.33114 0
M  V30 10155 C 987.856 4.29372 4.36241 0
M  V30 10156 N 986.993 4.27949 5.56601 0
M  V30 10157 H 991.833 2.63029 1.40071 0
M  V30 10158 H 989.37 1.30386 0.681016 0
M  V30 10159 H 991.328 1.83143 3.74853 0
M  V30 10160 H 989.958 0.890411 3.10277 0
M  V30 10161 H 989.01 3.12374 2.17086 0
M  V30 10162 H 990.322 3.96684 3.02396 0
M  V30 10163 H 989.476 3.10084 5.21472 0
M  V30 10164 H 988.215 2.15404 4.37553 0
M  V30 10165 H 987.22 4.27048 3.4628 0
M  V30 10166 H 988.445 5.22743 4.33493 0
M  V30 10167 H 986.391 3.38658 5.61824 0
M  V30 10168 H 986.308 5.11692 5.56513 0
M  V30 10169 H 987.576 4.34631 6.47083 0
M  V30 10170 N 991.805 -0.723954 1.39988 0
M  V30 10171 C 993.051 -1.48591 1.38017 0
M  V30 10172 C 993.384 -1.94189 -0.0203522 0
M  V30 10173 O 992.659 -1.67572 -0.987422 0
M  V30 10174 C 992.942 -2.71786 2.36229 0
M  V30 10175 C 992.795 -2.32136 3.8527 0
M  V30 10176 C 994.114 -3.73921 2.32102 0
M  V30 10177 H 991.233 -0.538993 0.502648 0
M  V30 10178 H 993.875 -0.826908 1.71062 0
M  V30 10179 H 992.025 -3.28015 2.0818 0
M  V30 10180 H 993.697 -1.81454 4.24113 0
M  V30 10181 H 991.94 -1.64234 4.01509 0
M  V30 10182 H 992.611 -3.20406 4.49493 0
M  V30 10183 H 995.087 -3.27303 2.56928 0
M  V30 10184 H 993.963 -4.5777 3.02882 0
M  V30 10185 H 994.224 -4.21627 1.32979 0
M  V30 10186 N 993.283 -1.25346 -0.955304 0
M  V30 10187 C 994.532 -1.0945 -1.69421 0
M  V30 10188 C 994.845 0.364459 -1.92175 0
M  V30 10189 O 996.051 0.643843 -2.63755 0
M  V30 10190 C 994.507 -1.91045 -3.05008 0
M  V30 10191 C 994.115 -3.41428 -2.90053 0
M  V30 10192 C 995.859 -1.83716 -3.82686 0
M  V30 10193 C 993.766 -4.1532 -4.21026 0
M  V30 10194 H 992.696 -0.405978 -0.635372 0
M  V30 10195 H 995.347 -1.49536 -1.06354 0
M  V30 10196 H 993.729 -1.43781 -3.68975 0
M  V30 10197 H 994.903 -3.9636 -2.35022 0
M  V30 10198 H 993.218 -3.49842 -2.25831 0
M  V30 10199 H 995.815 -2.36217 -4.79693 0
M  V30 10200 H 996.158 -0.804919 -4.08444 0
M  V30 10201 H 996.691 -2.28726 -3.25468 0
M  V30 10202 H 993.43 -5.18955 -4.00457 0
M  V30 10203 H 992.95 -3.65172 -4.75825 0
M  V30 10204 H 994.629 -4.22999 -4.89572 0
M  V30 10205 N 994.761 1.15782 -1.06922 0
M  V30 10206 C 995.709 2.22441 -0.679893 0
M  V30 10207 C 996.703 1.66591 0.307221 0
M  V30 10208 O 997.909 1.79182 0.171402 0
M  V30 10209 H 994.284 0.724427 -0.201765 0
M  V30 10210 H 996.255 2.52562 -1.58918 0
M  V30 10211 C 995.004 3.47586 -0.0891142 0
M  V30 10212 H 994.327 3.9088 -0.839805 0
M  V30 10213 H 995.767 4.2375 0.14569 0
M  V30 10214 C 994.226 3.15967 1.16903 0
M  V30 10215 O 994.756 3.32359 2.25611 0
M  V30 10216 N 992.962 2.70046 1.07349 0
M  V30 10217 H 992.509 2.56907 0.188825 0
M  V30 10218 H 992.467 2.49264 1.91611 0
M  V30 10219 N 996.239 0.8527 1.3254 0
M  V30 10220 C 997.469 0.468363 2.01221 0
M  V30 10221 C 997.877 -0.938966 1.64256 0
M  V30 10222 O 997.22 -1.62387 0.858837 0
M  V30 10223 C 997.282 0.525457 3.55639 0
M  V30 10224 C 996.946 1.89133 4.16026 0
M  V30 10225 C 997.943 2.85652 4.34395 0
M  V30 10226 C 995.628 2.18795 4.52144 0
M  V30 10227 C 997.622 4.09985 4.88048 0
M  V30 10228 C 995.309 3.43381 5.05502 0
M  V30 10229 C 996.307 4.38792 5.23403 0
M  V30 10230 O 995.995 5.61173 5.75622 0
M  V30 10231 H 995.727 0.182712 0.65084 0
M  V30 10232 H 998.281 1.15076 1.70138 0
M  V30 10233 H 996.511 -0.213779 3.86109 0
M  V30 10234 H 998.2 0.156999 4.05596 0
M  V30 10235 H 998.966 2.6404 4.06827 0
M  V30 10236 H 994.845 1.45317 4.37498 0
M  V30 10237 H 998.389 4.84465 5.01936 0
M  V30 10238 H 994.286 3.64844 5.32503 0
M  V30 10239 H 995.054 5.63104 5.94017 0
M  V30 10240 N 997.718 -1.45297 0.610449 0
M  V30 10241 C 998.967 -2.0143 0.104323 0
M  V30 10242 C 999.28 -1.48431 -1.27388 0
M  V30 10243 O 1000.49 -1.96558 -1.87289 0
M  V30 10244 C 998.942 -3.59644 0.135812 0
M  V30 10245 C 998.55 -4.2164 1.51405 0
M  V30 10246 C 1000.29 -4.2333 -0.314922 0
M  V30 10247 C 998.201 -5.72015 1.50176 0
M  V30 10248 H 997.131 -0.753176 0.035233 0
M  V30 10249 H 999.782 -1.66738 0.7662 0
M  V30 10250 H 998.164 -3.91538 -0.592773 0
M  V30 10251 H 999.338 -4.01315 2.26457 0
M  V30 10252 H 997.653 -3.70159 1.90712 0
M  V30 10253 H 1000.25 -5.33597 -0.343335 0
M  V30 10254 H 1000.59 -3.94206 -1.33817 0
M  V30 10255 H 1001.13 -3.96163 0.360489 0
M  V30 10256 H 997.865 -6.05842 2.50271 0
M  V30 10257 H 997.385 -5.94523 0.793869 0
M  V30 10258 H 999.064 -6.35266 1.22665 0
M  V30 10259 N 999.196 -0.349774 -1.5367 0
M  V30 10260 C 1000.61 0.132815 -1.86227 0
M  V30 10261 C 1000.96 1.49479 -1.27084 0
M  V30 10262 O 1000.08 2.08292 -0.58679 0
M  V30 10263 C 1000.68 0.247775 -3.37893 0
M  V30 10264 C 999.237 0.674603 -3.70305 0
M  V30 10265 C 998.384 -0.187869 -2.76663 0
M  V30 10266 H 1001.33 -0.569148 -1.48143 0
M  V30 10267 H 1001.36 1.07418 -3.65023 0
M  V30 10268 H 1000.87 -0.743635 -3.80909 0
M  V30 10269 H 998.969 1.67481 -3.32837 0
M  V30 10270 H 999.082 0.460177 -4.76885 0
M  V30 10271 H 997.446 0.340779 -2.5241 0
M  V30 10272 H 998.229 -1.17653 -3.2251 0
M  V30 10273 N 1000.67 1.57404 -0.0785433 0
M  V30 10274 C 1001.92 1.9484 0.583853 0
M  V30 10275 C 1002.27 0.958758 1.6681 0
M  V30 10276 O 1001.57 -0.0179065 1.91592 0
M  V30 10277 C 1001.76 3.36684 1.1991 0
M  V30 10278 C 1001.59 4.49356 0.175978 0
M  V30 10279 C 1000.36 5.04721 -0.241733 0
M  V30 10280 C 1002.56 5.10911 -0.589415 0
M  V30 10281 N 1000.54 6.00938 -1.25485 0
M  V30 10282 C 1001.91 6.0269 -1.45483 0
M  V30 10283 C 1003.97 4.93708 -0.644746 0
M  V30 10284 C 1002.67 6.79111 -2.37066 0
M  V30 10285 C 1004.7 5.70778 -1.54812 0
M  V30 10286 C 1004.06 6.6221 -2.40119 0
M  V30 10287 H 1000.16 0.75993 0.184472 0
M  V30 10288 H 1002.74 1.94064 -0.157259 0
M  V30 10289 H 1000.91 3.38186 1.91011 0
M  V30 10290 H 1002.64 3.6134 1.82251 0
M  V30 10291 H 999.399 4.73385 0.142732 0
M  V30 10292 H 999.823 6.53746 -1.75912 0
M  V30 10293 H 1004.46 4.228 0.000601434 0
M  V30 10294 H 1002.18 7.49292 -3.02634 0
M  V30 10295 H 1005.77 5.59485 -1.59586 0
M  V30 10296 H 1004.65 7.20804 -3.08887 0
M  V30 10297 N 1002.15 -0.195058 1.56388 0
M  V30 10298 C 1003.4 -0.913626 1.79821 0
M  V30 10299 C 1003.71 -1.84422 0.651767 0
M  V30 10300 O 1004.92 -2.6034 0.770402 0
M  V30 10301 C 1003.38 -1.67497 3.18548 0
M  V30 10302 C 1002.98 -0.789205 4.40994 0
M  V30 10303 C 1004.73 -2.38318 3.5129 0
M  V30 10304 C 1002.63 -1.54942 5.70742 0
M  V30 10305 H 1001.56 -0.344891 0.670497 0
M  V30 10306 H 1004.22 -0.166912 1.82739 0
M  V30 10307 H 1002.6 -2.46557 3.0988 0
M  V30 10308 H 1003.77 -0.0372595 4.60785 0
M  V30 10309 H 1002.09 -0.191834 4.15958 0
M  V30 10310 H 1004.68 -2.95745 4.45465 0
M  V30 10311 H 1005.03 -3.12507 2.75037 0
M  V30 10312 H 1005.56 -1.66224 3.61406 0
M  V30 10313 H 1002.3 -0.85031 6.49962 0
M  V30 10314 H 1001.82 -2.2753 5.54969 0
M  V30 10315 H 1003.5 -2.1032 6.11861 0
M  V30 10316 N 1003.63 -1.50653 -0.462772 0
M  V30 10317 C 1004.54 -1.72923 -1.58539 0
M  V30 10318 C 1005.56 -0.612577 -1.6286 0
M  V30 10319 O 1006.73 -0.891885 -1.80575 0
M  V30 10320 C 1003.8 -1.82623 -2.94703 0
M  V30 10321 C 1002.86 -3.06392 -3.00704 0
M  V30 10322 C 1002.09 -3.15618 -4.30373 0
M  V30 10323 O 1002.31 -2.31423 -5.21344 0
M  V30 10324 O 1001.25 -4.0841 -4.42136 0
M  V30 10325 H 1005.07 -2.68103 -1.42669 0
M  V30 10326 H 1002.66 -1.34848 -0.643144 0
M  V30 10327 H 1004.54 -1.91134 -3.7556 0
M  V30 10328 H 1003.22 -0.906275 -3.10754 0
M  V30 10329 H 1002.12 -3.03375 -2.18894 0
M  V30 10330 H 1003.46 -3.97992 -2.89591 0
M  V30 10331 N 1005.11 0.71652 -1.4037 0
M  V30 10332 C 1006.06 1.85194 -1.40734 0
M  V30 10333 C 1007.05 1.66934 -0.287969 0
M  V30 10334 O 1008.26 1.74051 -0.458957 0
M  V30 10335 H 1004.63 0.609922 -0.439885 0
M  V30 10336 H 1006.6 1.82003 -2.36468 0
M  V30 10337 C 1005.35 3.23048 -1.28589 0
M  V30 10338 H 1004.67 3.37704 -2.13999 0
M  V30 10339 H 1006.11 4.02633 -1.32902 0
M  V30 10340 C 1004.57 3.369 0.00396512 0
M  V30 10341 O 1005.1 3.89881 0.967243 0
M  V30 10342 N 1003.31 2.90508 0.0731565 0
M  V30 10343 H 1002.86 2.4758 -0.711454 0
M  V30 10344 H 1002.81 3.00155 0.935652 0
M  V30 10345 N 1006.59 1.25851 0.948643 0
M  V30 10346 C 1007.84 1.10347 1.68838 0
M  V30 10347 C 1008.15 -0.354262 1.92365 0
M  V30 10348 O 1009.35 -0.629847 2.64093 0
M  V30 10349 C 1007.81 1.92659 3.03991 0
M  V30 10350 C 1007.42 3.42962 2.88238 0
M  V30 10351 C 1009.16 1.85743 3.81707 0
M  V30 10352 C 1007.07 4.17547 4.18818 0
M  V30 10353 H 1006 0.409342 0.63321 0
M  V30 10354 H 1008.65 1.50098 1.05559 0
M  V30 10355 H 1007.03 1.45736 3.68208 0
M  V30 10356 H 1008.21 3.97601 2.32917 0
M  V30 10357 H 1006.52 3.51035 2.23972 0
M  V30 10358 H 1009.12 2.38758 4.78434 0
M  V30 10359 H 1009.46 0.826568 4.08012 0
M  V30 10360 H 1009.99 2.30449 3.2425 0
M  V30 10361 H 1006.73 5.21072 3.97699 0
M  V30 10362 H 1006.25 3.6769 4.73882 0
M  V30 10363 H 1007.93 4.25589 4.87322 0
M  V30 10364 N 1008.06 -1.15214 1.07534 0
M  V30 10365 C 1009.31 -1.85388 0.794617 0
M  V30 10366 C 1009.63 -1.83331 -0.681838 0
M  V30 10367 O 1010.83 -2.49207 -1.0774 0
M  V30 10368 C 1009.29 -3.32747 1.37141 0
M  V30 10369 C 1008.9 -3.43244 2.87902 0
M  V30 10370 C 1010.64 -4.08093 1.16879 0
M  V30 10371 C 1008.55 -4.84762 3.38763 0
M  V30 10372 H 1007.48 -0.694499 0.293577 0
M  V30 10373 H 1010.13 -1.29944 1.29564 0
M  V30 10374 H 1008.51 -3.87874 0.798121 0
M  V30 10375 H 1009.68 -2.98214 3.51291 0
M  V30 10376 H 1008 -2.81345 3.06975 0
M  V30 10377 H 1010.6 -5.12535 1.52353 0
M  V30 10378 H 1010.94 -4.1616 0.107958 0
M  V30 10379 H 1011.47 -3.59241 1.70854 0
M  V30 10380 H 1008.21 -4.81879 4.4438 0
M  V30 10381 H 1007.73 -5.30366 2.80128 0
M  V30 10382 H 1009.41 -5.53624 3.34827 0
M  V30 10383 N 1009.54 -0.859717 -1.32086 0
M  V30 10384 C 1010.77 -0.478865 -2.01796 0
M  V30 10385 C 1011.19 0.918274 -1.64163 0
M  V30 10386 O 1010.55 1.60409 -0.844896 0
M  V30 10387 C 1010.6 -0.631356 -3.5503 0
M  V30 10388 O 1009.7 0.333712 -4.11048 0
M  V30 10389 H 1009.04 -0.191775 -0.635703 0
M  V30 10390 H 1011.57 -1.16031 -1.68517 0
M  V30 10391 H 1011.58 -0.520783 -4.04663 0
M  V30 10392 H 1010.26 -1.65015 -3.81763 0
M  V30 10393 H 1008.84 0.178953 -3.7247 0
M  V30 10394 N 1011.02 1.44971 -0.618145 0
M  V30 10395 C 1012.3 1.95539 -0.0489895 0
M  V30 10396 C 1012.68 1.5604 1.42179 0
M  V30 10397 O 1012.03 0.82809 2.12967 0
M  V30 10398 C 1012.24 3.48044 -0.258193 0
M  V30 10399 C 1013.58 4.24354 -0.144541 0
M  V30 10400 O 1014.61 3.55699 -0.18887 0
M  V30 10401 O 1013.47 5.46486 -0.038519 0
M  V30 10402 H 1010.56 0.826466 0.0297256 0
M  V30 10403 H 1013.11 1.55086 -0.688944 0
M  V30 10404 H 1011.88 3.69798 -1.27926 0
M  V30 10405 H 1011.5 3.95412 0.416522 0
M  V30 10406 N 1012.5 0.357919 1.53482 0
M  V30 10407 C 1013.75 -0.234163 2.01142 0
M  V30 10408 C 1014.07 -1.49399 1.2454 0
M  V30 10409 O 1013.33 -1.92981 0.325111 0
M  V30 10410 C 1013.63 -0.579617 3.52669 0
M  V30 10411 C 1013.29 0.584988 4.47089 0
M  V30 10412 C 1011.96 0.904558 4.72622 0
M  V30 10413 C 1014.31 1.3656 5.02992 0
M  V30 10414 C 1011.64 2.00685 5.5131 0
M  V30 10415 C 1013.99 2.45824 5.82884 0
M  V30 10416 C 1012.65 2.78325 6.06706 0
M  V30 10417 H 1011.92 -0.0856863 0.736029 0
M  V30 10418 H 1014.57 0.488801 1.85157 0
M  V30 10419 H 1012.87 -1.38349 3.66561 0
M  V30 10420 H 1014.57 -1.04985 3.87013 0
M  V30 10421 H 1011.16 0.32587 4.27359 0
M  V30 10422 H 1015.34 1.13196 4.83219 0
M  V30 10423 H 1010.6 2.26272 5.67988 0
M  V30 10424 H 1014.77 3.06732 6.25211 0
M  V30 10425 H 1012.4 3.63862 6.67464 0
M  V30 10426 O 1014.02 -1.599 0.226803 0
M  V30 10427 H 1014.71 -1.90462 -0.352684 0
M  V30 END ATOM
M  V30 BEGIN BOND
M  V30 END BOND
M  V30 END CTAB
M  END
$$$$
