drugbank_target|P13922 Bifunctional dihydrofolate reductase-thymidylate synthase (DB00205; DB01131; DB01299)
 OpenBabel12092119343D

  0  0  0     0  0            999 V3000
M  V30 BEGIN CTAB
M  V30 COUNTS 10039 10153 0 0 0
M  V30 BEGIN ATOM
M  V30 1 H -0.908 1.98254 -0.117106 0
M  V30 2 N 0 1.576 0 0
M  V30 3 C 0.933 2.03868 1.02534 0
M  V30 4 C 1.911 0.928543 1.3348 0
M  V30 5 O 3.095 1.19667 1.45644 0
M  V30 6 C 0.222 2.43627 2.35294 0
M  V30 7 C -0.732 3.65373 2.2001 0
M  V30 8 S 0.101 5.13292 1.52614 0
M  V30 9 C 1.257 5.56322 2.86805 0
M  V30 10 H 1.49 2.90518 0.631377 0
M  V30 11 H -0.977 1.52953 0.210867 0
M  V30 12 H 0.981 2.67203 3.11629 0
M  V30 13 H -0.358 1.57376 2.7183 0
M  V30 14 H -1.165 3.90944 3.18086 0
M  V30 15 H -1.563 3.418 1.51819 0
M  V30 16 H 0.729 5.58782 3.83104 0
M  V30 17 H 1.672 6.56266 2.65933 0
M  V30 18 H 2.08 4.83886 2.90714 0
M  V30 19 N 1.4781 -0.272755 1.55222 0
M  V30 20 C 2.4111 -1.3627 1.83046 0
M  V30 21 C 3.3891 -1.47536 0.683521 0
M  V30 22 O 4.5731 -1.64157 0.926545 0
M  V30 23 C 1.7001 -2.73908 1.99229 0
M  V30 24 C 0.7461 -2.79925 3.21783 0
M  V30 25 S 1.5791 -2.39146 4.79134 0
M  V30 26 C 2.7351 -3.78758 4.9829 0
M  V30 27 H 2.9681 -1.12464 2.75207 0
M  V30 28 H 0.5011 -0.472398 1.46996 0
M  V30 29 H 2.4591 -3.53171 2.09238 0
M  V30 30 H 1.1201 -2.94965 1.07956 0
M  V30 31 H 0.3131 -3.80946 3.29994 0
M  V30 32 H -0.0849 -2.08683 3.10367 0
M  V30 33 H 2.2071 -4.7403 4.84047 0
M  V30 34 H 3.1501 -3.75499 6.00338 0
M  V30 35 H 3.5581 -3.70072 4.26271 0
M  V30 36 N 2.9562 -1.48159 -0.537278 0
M  V30 37 C 3.8662 -1.64807 -1.6696 0
M  V30 38 C 4.8822 -0.530651 -1.65711 0
M  V30 39 O 6.0582 -0.800784 -1.84796 0
M  V30 40 C 3.1232 -1.67708 -3.03438 0
M  V30 41 C 2.1842 -2.91025 -3.156 0
M  V30 42 C 1.4172 -2.93778 -4.45567 0
M  V30 43 O 1.6402 -2.05153 -5.3223 0
M  V30 44 O 0.5742 -3.85868 -4.61941 0
M  V30 45 H 4.4002 -2.6066 -1.55853 0
M  V30 46 H 1.9852 -1.31475 -0.709549 0
M  V30 47 H 3.8672 -1.7218 -3.84619 0
M  V30 48 H 2.5422 -0.750278 -3.14885 0
M  V30 49 H 1.4492 -2.92089 -2.33741 0
M  V30 50 H 2.7822 -3.83065 -3.09066 0
M  V30 51 N 4.4343 0.785586 -1.36625 0
M  V30 52 C 5.3663 1.90711 -1.2713 0
M  V30 53 C 6.3793 1.61688 -0.189986 0
M  V30 54 O 7.5683 1.72864 -0.445014 0
M  V30 55 C 4.6683 3.25611 -0.939713 0
M  V30 56 C 3.8413 3.82385 -2.12369 0
M  V30 57 C 2.9003 4.95732 -1.76456 0
M  V30 58 O 1.9263 5.12047 -2.48589 0
M  V30 59 N 3.1283 5.76258 -0.700492 0
M  V30 60 H 5.8933 1.99376 -2.23762 0
M  V30 61 H 3.4543 0.964041 -1.30069 0
M  V30 62 H 5.4463 3.98937 -0.680554 0
M  V30 63 H 4.0163 3.12538 -0.0624074 0
M  V30 64 H 3.2363 3.01001 -2.54543 0
M  V30 65 H 4.5243 4.17047 -2.9146 0
M  V30 66 H 3.9223 5.65609 -0.101624 0
M  V30 67 H 2.4793 6.4987 -0.501165 0
M  V30 68 N 5.9124 1.20967 1.01018 0
M  V30 69 C 7.1584 1.02526 1.74975 0
M  V30 70 C 7.4914 -0.4408 1.89131 0
M  V30 71 O 6.7664 -1.32718 1.42184 0
M  V30 72 C 7.0494 1.71699 3.1653 0
M  V30 73 C 6.9024 3.25791 3.10129 0
M  V30 74 C 8.2214 1.45531 4.15342 0
M  V30 75 H 5.3404 0.373863 0.635134 0
M  V30 76 H 7.9824 1.49071 1.17805 0
M  V30 77 H 6.1324 1.32128 3.65341 0
M  V30 78 H 7.8044 3.74697 2.69072 0
M  V30 79 H 6.0474 3.56363 2.47362 0
M  V30 80 H 6.7184 3.69353 4.10222 0
M  V30 81 H 9.1944 1.79872 3.75213 0
M  V30 82 H 8.0704 1.96453 5.1254 0
M  V30 83 H 8.3314 0.384237 4.40427 0
M  V30 84 N 7.3905 -1.2043 1.01659 0
M  V30 85 C 8.6305 -1.91507 0.714456 0
M  V30 86 C 8.9945 -1.77073 -0.742237 0
M  V30 87 O 10.1955 -2.42631 -1.15688 0
M  V30 88 C 8.4665 -3.38795 1.13809 0
M  V30 89 S 10.0255 -4.28216 0.957925 0
M  V30 90 H 6.8435 -0.661571 0.260471 0
M  V30 91 H 9.4455 -1.45671 1.30384 0
M  V30 92 H 8.1495 -3.46822 2.19415 0
M  V30 93 H 7.6805 -3.89656 0.541474 0
M  V30 94 H 9.6955 -4.96007 -0.138531 0
M  V30 95 N 8.8686 -0.792821 -1.36206 0
M  V30 96 C 10.1456 -0.290627 -1.93429 0
M  V30 97 C 10.5256 1.21773 -1.72437 0
M  V30 98 O 9.8736 2.0108 -1.08531 0
M  V30 99 C 10.0836 -0.686973 -3.42172 0
M  V30 100 C 11.4316 -0.668643 -4.19302 0
M  V30 101 O 12.4556 -0.627658 -3.50626 0
M  V30 102 O 11.3146 -0.714597 -5.41808 0
M  V30 103 H 8.4086 -0.0727927 -0.82379 0
M  V30 104 H 10.9546 -0.875593 -1.45367 0
M  V30 105 H 9.7266 -1.72711 -3.51122 0
M  V30 106 H 9.3496 -0.0760733 -3.97527 0
M  V30 107 N 10.3467 1.47872 -0.545128 0
M  V30 108 C 11.5927 2.02793 -0.0166104 0
M  V30 109 C 11.9257 1.41987 1.32489 0
M  V30 110 O 11.2007 0.571045 1.85928 0
M  V30 111 C 11.4837 3.59989 0.0893294 0
M  V30 112 C 11.3367 4.3125 -1.27841 0
M  V30 113 C 12.6557 4.32606 0.808724 0
M  V30 114 H 9.7747 0.736962 -0.00751035 0
M  V30 115 H 12.4167 1.76433 -0.705085 0
M  V30 116 H 10.5667 3.82579 0.675681 0
M  V30 117 H 12.2387 4.20035 -1.90704 0
M  V30 118 H 10.4817 3.92076 -1.85632 0
M  V30 119 H 11.1527 5.39736 -1.15713 0
M  V30 120 H 13.6287 4.14936 0.310992 0
M  V30 121 H 12.5047 5.42251 0.851782 0
M  V30 122 H 12.7657 4.00963 1.86229 0
M  V30 123 N 11.8248 0.280983 1.55075 0
M  V30 124 C 13.0718 -0.334115 1.99725 0
M  V30 125 C 13.3998 -1.5542 1.1694 0
M  V30 126 O 12.6548 -1.94361 0.228531 0
M  V30 127 C 12.9538 -0.754656 3.49342 0
M  V30 128 C 12.6198 0.361445 4.49449 0
M  V30 129 C 11.2818 0.667893 4.76542 0
M  V30 130 C 13.6338 1.11322 5.09173 0
M  V30 131 C 10.9618 1.7296 5.60626 0
M  V30 132 C 13.3138 2.1647 5.9441 0
M  V30 133 C 11.9778 2.47742 6.19822 0
M  V30 134 H 11.2478 -0.122261 0.730844 0
M  V30 135 H 13.8948 0.395917 1.87363 0
M  V30 136 H 12.1998 -1.56446 3.5921 0
M  V30 137 H 13.8968 -1.24142 3.813 0
M  V30 138 H 10.4868 0.112481 4.28452 0
M  V30 139 H 14.6708 0.88973 4.8826 0
M  V30 140 H 9.9268 1.97684 5.78559 0
M  V30 141 H 14.1008 2.75193 6.3972 0
M  V30 142 H 11.7278 3.30145 6.84769 0
M  V30 143 N 13.3029 -1.57598 0.00835791 0
M  V30 144 C 14.5799 -1.82172 -0.712235 0
M  V30 145 C 14.9599 -0.887873 -1.9152 0
M  V30 146 O 14.3079 0.06146 -2.28417 0
M  V30 147 C 14.5179 -3.30875 -1.11008 0
M  V30 148 C 15.8659 -3.96826 -1.51044 0
M  V30 149 O 16.8899 -3.35248 -1.20364 0
M  V30 150 O 15.7489 -5.05318 -2.08125 0
M  V30 151 H 12.8429 -0.750435 -0.347529 0
M  V30 152 H 15.3889 -1.69665 0.0344523 0
M  V30 153 H 14.1609 -3.90481 -0.252982 0
M  V30 154 H 13.7839 -3.48412 -1.9156 0
M  V30 155 N 14.781 0.264519 -1.55364 0
M  V30 156 C 16.03 0.992812 -1.75574 0
M  V30 157 C 16.343 1.87142 -0.568979 0
M  V30 158 O 17.549 2.63513 -0.653682 0
M  V30 159 C 16.005 1.81519 -3.10771 0
M  V30 160 C 15.613 0.984839 -4.37041 0
M  V30 161 C 17.357 2.53727 -3.40327 0
M  V30 162 C 15.264 1.80209 -5.63275 0
M  V30 163 H 14.194 0.374412 -0.65447 0
M  V30 164 H 16.845 0.248138 -1.81815 0
M  V30 165 H 15.227 2.60115 -2.98591 0
M  V30 166 H 16.401 0.242455 -4.60162 0
M  V30 167 H 14.716 0.37691 -4.14691 0
M  V30 168 H 17.313 3.15292 -4.3185 0
M  V30 169 H 17.656 3.24447 -2.60845 0
M  V30 170 H 18.189 1.82156 -3.53644 0
M  V30 171 H 14.928 1.13896 -6.45529 0
M  V30 172 H 14.448 2.52022 -5.44284 0
M  V30 173 H 16.127 2.37364 -6.01887 0
M  V30 174 N 16.2591 1.48442 0.529413 0
M  V30 175 C 17.4891 1.59919 1.30804 0
M  V30 176 C 17.8971 0.258792 1.87422 0
M  V30 177 O 17.2401 -0.762096 1.67146 0
M  V30 178 C 17.3021 2.58693 2.49636 0
M  V30 179 C 16.9661 4.03745 2.14101 0
M  V30 180 C 17.9631 4.9141 1.6974 0
M  V30 181 C 15.6481 4.49285 2.24607 0
M  V30 182 C 17.6421 6.22645 1.36351 0
M  V30 183 C 15.3291 5.8054 1.9083 0
M  V30 184 C 16.3271 6.67043 1.46773 0
M  V30 185 O 16.0151 7.95856 1.1344 0
M  V30 186 H 15.7471 0.541981 0.404021 0
M  V30 187 H 18.3011 1.95 0.645309 0
M  V30 188 H 16.5311 2.18734 3.18892 0
M  V30 189 H 18.2201 2.59999 3.11698 0
M  V30 190 H 18.9861 4.57465 1.61094 0
M  V30 191 H 14.8651 3.82142 2.57854 0
M  V30 192 H 18.4091 6.90119 1.01891 0
M  V30 193 H 14.3061 6.14022 1.99117 0
M  V30 194 H 15.0741 8.08613 1.26832 0
M  V30 195 N 17.7372 -0.778329 1.37039 0
M  V30 196 C 18.7002 -1.87301 1.32102 0
M  V30 197 C 19.7002 -1.59198 0.226405 0
M  V30 198 O 20.8902 -1.67403 0.481861 0
M  V30 199 C 18.0222 -3.24309 1.05055 0
M  V30 200 H 19.2152 -1.93093 2.29467 0
M  V30 201 H 16.7682 -0.977358 1.21973 0
M  V30 202 H 17.5032 -3.24196 0.0819373 0
M  V30 203 H 17.2882 -3.46098 1.84279 0
M  V30 204 H 18.7782 -4.04382 1.04234 0
M  V30 205 N 19.2153 -1.21501 -1.00376 0
M  V30 206 C 20.4643 -1.02718 -1.73586 0
M  V30 207 C 20.7773 0.439589 -1.90596 0
M  V30 208 O 21.9833 0.746848 -2.61026 0
M  V30 209 C 20.4393 -1.78929 -3.1227 0
M  V30 210 C 20.0473 -3.29783 -3.03228 0
M  V30 211 C 21.7913 -1.68557 -3.89601 0
M  V30 212 C 19.6983 -3.98479 -4.36999 0
M  V30 213 H 18.6283 -0.380733 -0.650814 0
M  V30 214 H 21.2793 -1.45248 -1.1214 0
M  V30 215 H 19.6613 -1.29192 -3.74333 0
M  V30 216 H 20.8353 -3.86832 -2.50395 0
M  V30 217 H 19.1503 -3.40711 -2.39385 0
M  V30 218 H 21.7473 -2.17211 -4.88593 0
M  V30 219 H 22.0903 -0.644021 -4.11288 0
M  V30 220 H 22.6233 -2.15778 -3.34193 0
M  V30 221 H 19.3623 -5.02841 -4.20513 0
M  V30 222 H 18.8823 -3.46219 -4.89788 0
M  V30 223 H 20.5613 -4.03462 -5.05794 0
M  V30 224 N 20.6934 1.19889 -1.02296 0
M  V30 225 C 21.9334 1.91125 -0.724602 0
M  V30 226 C 22.2974 1.77464 0.732835 0
M  V30 227 O 23.4984 2.43241 1.144 0
M  V30 228 C 21.7694 3.38187 -1.15604 0
M  V30 229 S 23.3284 4.27702 -0.980621 0
M  V30 230 H 20.1464 0.66018 -0.263976 0
M  V30 231 H 22.7484 1.44978 -1.31155 0
M  V30 232 H 21.4524 3.45653 -2.21251 0
M  V30 233 H 20.9834 3.89363 -0.562131 0
M  V30 234 H 22.9984 4.96073 0.112225 0
M  V30 235 N 22.1715 0.800033 1.35784 0
M  V30 236 C 23.1345 0.211565 2.28221 0
M  V30 237 C 24.1345 -0.59728 1.49296 0
M  V30 238 O 25.3245 -0.416721 1.69142 0
M  V30 239 C 22.4565 -0.705846 3.33513 0
M  V30 240 H 23.6495 1.02677 2.81776 0
M  V30 241 H 21.2025 0.570211 1.45528 0
M  V30 242 H 21.9375 -1.54498 2.85133 0
M  V30 243 H 21.7225 -0.127655 3.91892 0
M  V30 244 H 23.2125 -1.11211 4.02519 0
M  V30 245 N 23.6496 -1.47581 0.552962 0
M  V30 246 C 24.8896 -2.04379 0.0296245 0
M  V30 247 C 25.2536 -1.4185 -1.29393 0
M  V30 248 O 26.4546 -1.89669 -1.90471 0
M  V30 249 C 24.7256 -3.57339 -0.0661371 0
M  V30 250 S 26.2846 -4.35511 -0.536213 0
M  V30 251 H 23.1026 -0.710625 0.0230991 0
M  V30 252 H 25.7046 -1.81005 0.738734 0
M  V30 253 H 24.4086 -4.00374 0.901596 0
M  V30 254 H 23.9396 -3.85202 -0.798931 0
M  V30 255 H 25.9546 -4.6253 -1.79668 0
M  V30 256 N 25.1277 -0.289203 -1.54924 0
M  V30 257 C 26.3677 0.324536 -2.01807 0
M  V30 258 C 26.7317 1.5199 -1.17316 0
M  V30 259 O 27.9327 2.20422 -1.53843 0
M  V30 260 C 26.2037 0.683578 -3.50802 0
M  V30 261 S 27.7627 1.28185 -4.19659 0
M  V30 262 H 24.5807 0.100236 -0.703899 0
M  V30 263 H 27.1827 -0.414325 -1.91059 0
M  V30 264 H 25.8867 -0.195073 -4.09936 0
M  V30 265 H 25.4177 1.45354 -3.65562 0
M  V30 266 H 27.4327 2.57006 -4.24456 0
M  V30 267 N 26.6058 1.57591 -0.0167156 0
M  V30 268 C 27.5528 2.09462 0.969251 0
M  V30 269 C 28.5228 0.99381 1.33089 0
M  V30 270 O 29.7078 1.26726 1.42636 0
M  V30 271 C 26.8478 2.61622 2.25051 0
M  V30 272 C 25.9608 3.85666 1.94642 0
M  V30 273 C 25.0958 4.26266 3.16972 0
M  V30 274 C 24.1348 5.43101 2.82326 0
M  V30 275 N 23.2718 5.78915 3.97243 0
M  V30 276 H 28.1118 2.93428 0.519997 0
M  V30 277 H 25.6488 1.45044 0.245087 0
M  V30 278 H 27.6068 2.89949 2.99976 0
M  V30 279 H 26.2368 1.80505 2.67615 0
M  V30 280 H 25.2888 3.64145 1.10013 0
M  V30 281 H 26.6008 4.70678 1.65117 0
M  V30 282 H 25.7548 4.55963 4.00228 0
M  V30 283 H 24.4938 3.39996 3.49648 0
M  V30 284 H 23.4988 5.1311 1.97479 0
M  V30 285 H 24.7238 6.3106 2.50879 0
M  V30 286 H 22.6698 4.95602 4.29785 0
M  V30 287 H 22.5868 6.58539 3.71299 0
M  V30 288 H 23.8548 6.13212 4.81239 0
M  V30 289 N 28.0839 -0.256276 1.55502 0
M  V30 290 C 29.3299 -0.987079 1.77157 0
M  V30 291 C 29.6629 -1.85327 0.580315 0
M  V30 292 O 28.9379 -1.89874 -0.421686 0
M  V30 293 C 29.2209 -1.85553 3.08613 0
M  V30 294 C 29.0739 -1.01816 4.38125 0
M  V30 295 C 30.3929 -2.8397 3.36228 0
M  V30 296 H 27.5119 -0.357428 0.644526 0
M  V30 297 H 30.1539 -0.258239 1.88237 0
M  V30 298 H 28.3039 -2.47695 2.99298 0
M  V30 299 H 29.9759 -0.416159 4.59419 0
M  V30 300 H 28.2189 -0.322178 4.32602 0
M  V30 301 H 28.8899 -1.65939 5.26468 0
M  V30 302 H 31.3659 -2.31964 3.45445 0
M  V30 303 H 30.2419 -3.41864 4.29442 0
M  V30 304 H 30.5029 -3.59955 2.56681 0
M  V30 305 N 29.562 -1.4872 -0.521534 0
M  V30 306 C 30.472 -1.66569 -1.65203 0
M  V30 307 C 31.488 -0.548197 -1.65139 0
M  V30 308 O 32.664 -0.820339 -1.83936 0
M  V30 309 C 29.729 -1.70917 -3.01642 0
M  V30 310 C 28.79 -2.94356 -3.12495 0
M  V30 311 C 28.023 -2.98487 -4.42426 0
M  V30 312 O 28.246 -2.10786 -5.30024 0
M  V30 313 O 27.18 -3.90746 -4.57822 0
M  V30 314 H 31.006 -2.62298 -1.5308 0
M  V30 315 H 28.591 -1.3222 -0.695565 0
M  V30 316 H 30.473 -1.7625 -3.82771 0
M  V30 317 H 29.148 -0.783633 -3.14071 0
M  V30 318 H 28.055 -2.94552 -2.3063 0
M  V30 319 H 29.388 -3.86322 -3.04986 0
M  V30 320 N 31.0401 0.771051 -1.3745 0
M  V30 321 C 32.2651 1.56529 -1.36065 0
M  V30 322 C 32.6901 1.88029 0.0515859 0
M  V30 323 O 32.0481 1.49282 1.02882 0
M  V30 324 C 32.0961 2.85187 -2.20683 0
M  V30 325 O 31.2001 3.79593 -1.61193 0
M  V30 326 H 30.5411 0.47411 -0.464883 0
M  V30 327 H 33.0711 0.954269 -1.80983 0
M  V30 328 H 33.0811 3.34283 -2.33921 0
M  V30 329 H 31.7561 2.61588 -3.23334 0
M  V30 330 H 30.3331 3.38239 -1.56999 0
M  V30 331 N 32.5182 1.22032 0.997298 0
M  V30 332 C 33.4652 0.986467 2.08656 0
M  V30 333 C 34.4352 -0.0902671 1.65855 0
M  V30 334 O 35.6202 0.0584294 1.90711 0
M  V30 335 C 32.7602 0.565569 3.40434 0
M  V30 336 C 31.8732 1.71259 3.96604 0
M  V30 337 C 31.0082 1.24011 5.16522 0
M  V30 338 C 30.0472 2.35896 5.64818 0
M  V30 339 N 29.1842 1.89726 6.7598 0
M  V30 340 H 34.0242 1.91892 2.27994 0
M  V30 341 H 31.5612 0.956199 1.11782 0
M  V30 342 H 33.5192 0.302738 4.161 0
M  V30 343 H 32.1492 -0.329879 3.2111 0
M  V30 344 H 31.2012 2.08986 3.17851 0
M  V30 345 H 32.5132 2.55436 4.28432 0
M  V30 346 H 31.6672 0.934395 5.99461 0
M  V30 347 H 30.4062 0.368487 4.86306 0
M  V30 348 H 29.4112 2.67261 4.8047 0
M  V30 349 H 30.6362 3.23567 5.97061 0
M  V30 350 H 28.5822 1.0492 6.47555 0
M  V30 351 H 28.4992 2.67471 7.07103 0
M  V30 352 H 29.7672 1.62211 7.62435 0
M  V30 353 N 33.9963 -1.19345 1.0293 0
M  V30 354 C 34.9443 -2.24621 0.604001 0
M  V30 355 C 35.9383 -1.65452 -0.363587 0
M  V30 356 O 37.1443 -1.78497 -0.23212 0
M  V30 357 H 33.5193 -0.730858 0.177061 0
M  V30 358 H 35.4903 -2.5781 1.50255 0
M  V30 359 C 34.2393 -3.47688 -0.0289127 0
M  V30 360 H 33.5623 -3.93505 0.706651 0
M  V30 361 H 35.0023 -4.23011 -0.289432 0
M  V30 362 C 33.4613 -3.11817 -1.2756 0
M  V30 363 O 33.9913 -3.2451 -2.36762 0
M  V30 364 N 32.1973 -2.66246 -1.16453 0
M  V30 365 H 31.7443 -2.56118 -0.275914 0
M  V30 366 H 31.7023 -2.42617 -1.99961 0
M  V30 367 N 35.4744 -0.807222 -1.35358 0
M  V30 368 C 36.3844 -0.219594 -2.3357 0
M  V30 369 C 37.4004 0.637734 -1.61892 0
M  V30 370 O 38.5764 0.549336 -1.93763 0
M  V30 371 C 35.6414 0.62158 -3.41083 0
M  V30 372 C 34.7024 -0.256315 -4.28534 0
M  V30 373 C 33.9354 0.544807 -5.30912 0
M  V30 374 O 34.1584 1.77944 -5.41934 0
M  V30 375 O 33.0924 -0.0646478 -6.01865 0
M  V30 376 H 36.9184 -1.03208 -2.85625 0
M  V30 377 H 34.5034 -0.569025 -1.38139 0
M  V30 378 H 36.3854 1.10067 -4.06772 0
M  V30 379 H 35.0604 1.41165 -2.91297 0
M  V30 380 H 33.9674 -0.782559 -3.65823 0
M  V30 381 H 35.3004 -1.01034 -4.81719 0
M  V30 382 N 36.9525 1.47285 -0.560781 0
M  V30 383 C 38.2005 2.02064 -0.0379868 0
M  V30 384 C 38.5215 1.43711 1.31803 0
M  V30 385 O 37.7915 0.61362 1.86042 0
M  V30 386 H 36.3715 0.746918 -0.0110531 0
M  V30 387 H 39.0335 1.80648 -0.731598 0
M  V30 388 H 38.1295 3.12064 0.0474463 0
M  V30 389 N 38.4306 0.297415 1.54768 0
M  V30 390 C 39.3776 -0.580276 2.23386 0
M  V30 391 C 40.3476 -1.13238 1.21517 0
M  V30 392 O 41.5326 -1.17757 1.50126 0
M  V30 393 C 38.6726 -1.74801 2.97555 0
M  V30 394 C 37.7856 -1.22764 4.1419 0
M  V30 395 C 36.9206 -2.35895 4.75949 0
M  V30 396 C 35.9596 -1.80974 5.84735 0
M  V30 397 N 35.0966 -2.87664 6.40464 0
M  V30 398 H 39.9366 0.0114833 2.97998 0
M  V30 399 H 37.4736 0.0174361 1.4709 0
M  V30 400 H 39.4316 -2.43475 3.38786 0
M  V30 401 H 38.0616 -2.31145 2.25326 0
M  V30 402 H 37.1136 -0.433271 3.77924 0
M  V30 403 H 38.4256 -0.785551 4.92575 0
M  V30 404 H 37.5796 -3.12523 5.20014 0
M  V30 405 H 36.3186 -2.83429 3.96887 0
M  V30 406 H 35.3236 -1.02834 5.40097 0
M  V30 407 H 36.5486 -1.34348 6.65678 0
M  V30 408 H 34.4946 -3.34538 5.64287 0
M  V30 409 H 34.4116 -2.4794 7.14186 0
M  V30 410 H 35.6796 -3.642 6.89187 0
M  V30 411 N 39.9087 -1.5758 0.0250728 0
M  V30 412 C 40.8557 -2.09973 -0.958129 0
M  V30 413 C 41.8257 -1.00085 -1.3256 0
M  V30 414 O 43.0107 -1.27481 -1.41962 0
M  V30 415 C 40.1507 -2.62812 -2.2366 0
M  V30 416 C 39.2637 -3.86693 -1.92594 0
M  V30 417 C 38.3987 -4.27941 -3.14707 0
M  V30 418 C 37.4377 -5.44591 -2.79442 0
M  V30 419 N 36.5747 -5.81014 -3.94167 0
M  V30 420 H 41.4147 -2.937 -0.504428 0
M  V30 421 H 38.9517 -1.45172 -0.237392 0
M  V30 422 H 40.9097 -2.91536 -2.98434 0
M  V30 423 H 39.5397 -1.81922 -2.66654 0
M  V30 424 H 38.5917 -3.64723 -1.0808 0
M  V30 425 H 39.9037 -4.71547 -1.62619 0
M  V30 426 H 39.0577 -4.58079 -3.97804 0
M  V30 427 H 37.7967 -3.41845 -3.4784 0
M  V30 428 H 36.8017 -5.1415 -1.94755 0
M  V30 429 H 38.0267 -6.32382 -2.47528 0
M  V30 430 H 35.9727 -4.97874 -4.2715 0
M  V30 431 H 35.8897 -6.60498 -3.67801 0
M  V30 432 H 37.1577 -6.15756 -4.7798 0
M  V30 433 N 41.3868 0.248026 -1.55636 0
M  V30 434 C 42.3348 1.32683 -1.91045 0
M  V30 435 C 43.3288 1.49883 -0.789401 0
M  V30 436 O 44.5348 1.51371 -0.974007 0
M  V30 437 H 40.9098 0.444272 -0.606734 0
M  V30 438 H 42.8808 1.00085 -2.81115 0
M  V30 439 C 41.6298 2.6755 -2.22064 0
M  V30 440 H 40.9528 2.55114 -3.07826 0
M  V30 441 H 42.3928 3.41912 -2.50743 0
M  V30 442 C 40.8518 3.20556 -1.0366 0
M  V30 443 O 41.3818 4.00695 -0.284016 0
M  V30 444 N 39.5878 2.78568 -0.82753 0
M  V30 445 H 39.1348 2.1351 -1.44123 0
M  V30 446 H 39.0928 3.14378 -0.0369803 0
M  V30 447 N 42.8649 1.48995 0.513639 0
M  V30 448 C 43.7749 1.67443 1.64317 0
M  V30 449 C 44.7909 0.556947 1.64846 0
M  V30 450 O 45.9669 0.830082 1.83498 0
M  V30 451 C 43.0319 1.72515 3.00732 0
M  V30 452 C 42.0929 2.96009 3.1093 0
M  V30 453 C 41.3259 3.00829 4.40837 0
M  V30 454 O 41.5489 2.13594 5.28898 0
M  V30 455 O 40.4829 3.93168 4.55744 0
M  V30 456 H 44.3089 2.63106 1.51687 0
M  V30 457 H 41.8939 1.32588 0.688543 0
M  V30 458 H 43.7759 1.78277 3.81831 0
M  V30 459 H 42.4509 0.800278 3.13651 0
M  V30 460 H 41.3579 2.9577 2.29065 0
M  V30 461 H 42.6909 3.87934 3.02933 0
M  V30 462 N 44.343 -0.763751 1.37857 0
M  V30 463 C 45.589 -1.52483 1.33704 0
M  V30 464 C 45.922 -1.94051 -0.0759612 0
M  V30 465 O 45.197 -1.64675 -1.03501 0
M  V30 466 C 45.48 -2.78441 2.28348 0
M  V30 467 C 45.333 -2.43075 3.78463 0
M  V30 468 C 46.652 -3.80415 2.21298 0
M  V30 469 H 43.771 -0.553169 0.487005 0
M  V30 470 H 46.413 -0.875562 1.68624 0
M  V30 471 H 44.563 -3.33842 1.987 0
M  V30 472 H 46.235 -1.93527 4.18742 0
M  V30 473 H 44.478 -1.75666 3.96641 0
M  V30 474 H 45.149 -3.33149 4.40132 0
M  V30 475 H 47.625 -3.34527 2.47449 0
M  V30 476 H 46.501 -4.66257 2.89647 0
M  V30 477 H 46.762 -4.25262 1.20849 0
M  V30 478 N 45.8211 -1.22559 -0.990812 0
M  V30 479 C 47.0681 -1.05141 -1.73065 0
M  V30 480 C 47.3961 0.413191 -1.9006 0
M  V30 481 O 46.6511 1.32257 -1.44245 0
M  V30 482 C 46.9501 -1.71011 -3.13831 0
M  V30 483 C 46.6161 -3.20911 -3.16745 0
M  V30 484 C 45.2781 -3.61812 -3.17247 0
M  V30 485 C 47.6301 -4.16846 -3.12872 0
M  V30 486 C 44.9581 -4.97127 -3.1158 0
M  V30 487 C 47.3101 -5.5214 -3.08746 0
M  V30 488 C 45.9741 -5.92419 -3.07565 0
M  V30 489 H 45.2441 -0.384738 -0.633291 0
M  V30 490 H 47.8911 -1.5235 -1.16025 0
M  V30 491 H 46.1961 -1.16133 -3.74193 0
M  V30 492 H 47.8931 -1.55023 -3.69823 0
M  V30 493 H 44.4831 -2.88344 -3.17105 0
M  V30 494 H 48.6671 -3.86263 -3.11632 0
M  V30 495 H 43.9231 -5.27562 -3.09012 0
M  V30 496 H 48.0971 -6.26201 -3.04705 0
M  V30 497 H 45.7241 -6.97236 -3.02929 0
M  V30 498 N 47.2992 1.18797 -1.03562 0
M  V30 499 C 48.2472 2.24297 -0.615905 0
M  V30 500 C 49.2412 1.65643 0.354808 0
M  V30 501 O 50.4472 1.78618 0.22265 0
M  V30 502 H 46.8222 0.729909 -0.180934 0
M  V30 503 H 48.7932 2.5701 -1.5162 0
M  V30 504 C 47.5422 3.47698 0.0104735 0
M  V30 505 H 46.8652 3.93125 -0.727509 0
M  V30 506 H 48.3052 4.23159 0.266995 0
M  V30 507 C 46.7642 3.12489 1.25905 0
M  V30 508 O 47.2942 3.25761 2.35038 0
M  V30 509 N 45.5002 2.6686 1.15039 0
M  V30 510 H 45.0472 2.56261 0.262328 0
M  V30 511 H 45.0052 2.43674 1.98672 0
M  V30 512 N 48.7773 0.814389 1.34928 0
M  V30 513 C 49.7253 0.218424 2.31572 0
M  V30 514 C 50.7193 -0.636128 1.57002 0
M  V30 515 O 51.9253 -0.52842 1.72069 0
M  V30 516 H 48.3003 0.0518799 0.750208 0
M  V30 517 H 50.2713 1.04852 2.79372 0
M  V30 518 C 49.0203 -0.61207 3.4227 0
M  V30 519 H 48.3433 0.0361578 3.99784 0
M  V30 520 H 49.7833 -0.995317 4.12152 0
M  V30 521 C 48.2423 -1.78087 2.85984 0
M  V30 522 O 48.7723 -2.8787 2.80168 0
M  V30 523 N 46.9783 -1.59488 2.42924 0
M  V30 524 H 46.5253 -0.701874 2.47854 0
M  V30 525 H 46.4833 -2.37846 2.05613 0
M  V30 526 N 50.2554 -1.46986 0.568584 0
M  V30 527 C 51.4854 -2.0653 0.0539173 0
M  V30 528 C 51.8934 -1.42004 -1.25026 0
M  V30 529 O 51.2364 -0.514541 -1.76347 0
M  V30 530 C 51.2984 -3.58938 -0.200854 0
M  V30 531 C 50.9624 -4.45572 1.01559 0
M  V30 532 C 51.9594 -4.82986 1.92407 0
M  V30 533 C 49.6444 -4.8692 1.23346 0
M  V30 534 C 51.6384 -5.60559 3.03402 0
M  V30 535 C 49.3254 -5.64255 2.34649 0
M  V30 536 C 50.3234 -6.00986 3.24507 0
M  V30 537 O 50.0114 -6.76761 4.33878 0
M  V30 538 H 49.7434 -0.674292 0.0480234 0
M  V30 539 H 52.2974 -1.89812 0.784896 0
M  V30 540 H 50.5274 -3.73911 -0.986279 0
M  V30 541 H 52.2164 -4.0046 -0.662294 0
M  V30 542 H 52.9824 -4.51633 1.76785 0
M  V30 543 H 48.8614 -4.57789 0.543178 0
M  V30 544 H 52.4054 -5.89147 3.73565 0
M  V30 545 H 48.3024 -5.95021 2.5024 0
M  V30 546 H 49.0704 -6.95168 4.32068 0
M  V30 547 N 51.7335 -0.305618 -1.54608 0
M  V30 548 C 52.9615 0.304775 -2.04643 0
M  V30 549 C 53.3765 1.47167 -1.18268 0
M  V30 550 O 52.7335 1.81296 -0.209328 0
M  V30 551 C 52.7845 0.756564 -3.53495 0
M  V30 552 O 52.5055 -0.36389 -4.36586 0
M  V30 553 C 54.0065 1.43163 -4.19546 0
M  V30 554 H 51.2265 0.0655481 -0.667791 0
M  V30 555 H 53.7705 -0.446592 -1.99564 0
M  V30 556 H 51.9255 1.45794 -3.58919 0
M  V30 557 H 52.3395 -0.0113121 -5.24499 0
M  V30 558 H 53.8135 1.69886 -5.25207 0
M  V30 559 H 54.2905 2.37318 -3.69563 0
M  V30 560 H 54.8965 0.773307 -4.18211 0
M  V30 561 N 53.2116 1.57565 -0.0334293 0
M  V30 562 C 54.4586 1.91978 0.644272 0
M  V30 563 C 54.7866 0.910231 1.71887 0
M  V30 564 O 54.0416 -0.0801961 1.95536 0
M  V30 565 C 54.3406 3.33112 1.29504 0
M  V30 566 C 54.0066 4.49537 0.350388 0
M  V30 567 C 52.6686 4.81115 0.0903974 0
M  V30 568 C 55.0206 5.20347 -0.298032 0
M  V30 569 C 52.3486 5.8086 -0.825746 0
M  V30 570 C 54.7006 6.2107 -1.20226 0
M  V30 571 C 53.3646 6.51088 -1.4711 0
M  V30 572 H 52.6346 0.702496 0.235756 0
M  V30 573 H 55.2816 1.91259 -0.0961176 0
M  V30 574 H 53.5866 3.30113 2.11028 0
M  V30 575 H 55.2836 3.57011 1.82603 0
M  V30 576 H 51.8736 4.24883 0.563205 0
M  V30 577 H 56.0576 4.96178 -0.110234 0
M  V30 578 H 51.3136 6.02461 -1.04169 0
M  V30 579 H 55.4876 6.75057 -1.71086 0
M  V30 580 H 53.1146 7.28193 -2.18264 0
M  V30 581 N 54.6897 -0.239769 1.55765 0
M  V30 582 C 56.1057 -0.588624 1.48349 0
M  V30 583 C 56.3057 -1.88005 0.72502 0
M  V30 584 O 55.3617 -2.51186 0.257269 0
M  V30 585 C 56.6747 -0.68474 2.928 0
M  V30 586 C 58.2227 -0.77659 3.03213 0
M  V30 587 C 58.6977 -0.904207 4.48986 0
M  V30 588 N 60.1887 -0.968896 4.52953 0
M  V30 589 C 60.9237 -1.08703 5.63002 0
M  V30 590 N 60.4197 -1.17026 6.82845 0
M  V30 591 N 62.2127 -1.12074 5.50814 0
M  V30 592 H 54.3637 0.607911 2.03515 0
M  V30 593 H 56.6267 0.21083 0.924259 0
M  V30 594 H 56.3327 0.194284 3.51163 0
M  V30 595 H 56.2067 -1.55435 3.43686 0
M  V30 596 H 58.5937 -1.64606 2.44926 0
M  V30 597 H 58.6747 0.118315 2.55526 0
M  V30 598 H 58.3187 -0.0392633 5.07885 0
M  V30 599 H 58.2487 -1.81426 4.9436 0
M  V30 600 H 60.7397 -0.915633 3.6664 0
M  V30 601 H 61.0527 -1.25966 7.62465 0
M  V30 602 H 59.3977 -1.13971 6.85591 0
M  V30 603 H 62.5887 -1.05226 4.5612 0
M  V30 604 H 62.7617 -1.20936 6.36615 0
M  V30 605 N 56.1678 -1.49265 -0.50573 0
M  V30 606 C 57.4158 -1.582 -1.25766 0
M  V30 607 C 57.7368 -0.268482 -1.93143 0
M  V30 608 O 57.0068 0.711833 -1.8251 0
M  V30 609 H 55.5868 -0.582873 -0.467191 0
M  V30 610 H 58.2488 -1.85865 -0.586525 0
M  V30 611 H 57.3448 -2.37563 -2.02412 0
M  V30 612 N 57.6459 0.756429 -1.3826 0
M  V30 613 C 58.5759 1.88374 -1.37976 0
M  V30 614 C 59.5569 1.68311 -0.246082 0
M  V30 615 O 60.7419 1.88944 -0.44874 0
M  V30 616 C 57.8719 3.25864 -1.20125 0
M  V30 617 C 56.8259 3.60523 -2.30666 0
M  V30 618 C 56.1519 4.9672 -1.97923 0
M  V30 619 C 57.4519 3.65692 -3.72916 0
M  V30 620 H 59.1459 1.88869 -2.32312 0
M  V30 621 H 56.6919 0.907272 -1.11824 0
M  V30 622 H 58.6449 4.0438 -1.18552 0
M  V30 623 H 57.3689 3.25841 -0.222498 0
M  V30 624 H 56.0279 2.84324 -2.3142 0
M  V30 625 H 55.6759 4.93253 -0.985393 0
M  V30 626 H 55.3759 5.20878 -2.71955 0
M  V30 627 H 56.8999 5.77618 -1.97964 0
M  V30 628 H 58.3139 4.34328 -3.74208 0
M  V30 629 H 56.7109 4.01358 -4.4613 0
M  V30 630 H 57.7809 2.65987 -4.05436 0
M  V30 631 N 59.124 1.23083 0.984299 0
M  V30 632 C 60.372 1.05848 1.72165 0
M  V30 633 C 60.693 -0.406049 1.90726 0
M  V30 634 O 59.963 -1.29139 1.47309 0
M  V30 635 H 58.543 0.388685 0.637913 0
M  V30 636 H 61.205 1.54736 1.18503 0
M  V30 637 H 60.301 1.54327 2.71274 0
M  V30 638 N 60.6021 -1.18246 1.0419 0
M  V30 639 C 61.5501 -2.23968 0.627792 0
M  V30 640 C 62.5441 -1.65828 -0.346019 0
M  V30 641 O 63.7501 -1.78733 -0.213175 0
M  V30 642 H 60.1251 -0.728939 0.184802 0
M  V30 643 H 62.0961 -2.56202 1.52981 0
M  V30 644 C 60.8451 -3.47699 0.00796591 0
M  V30 645 H 60.1681 -3.92734 0.748347 0
M  V30 646 H 61.6081 -4.23294 -0.24455 0
M  V30 647 C 60.0671 -3.13153 -1.24246 0
M  V30 648 O 60.5971 -3.27003 -2.33307 0
M  V30 649 N 58.8031 -2.67467 -1.13622 0
M  V30 650 H 58.3501 -2.56396 -0.248734 0
M  V30 651 H 58.3081 -2.44724 -1.97377 0
M  V30 652 N 62.0802 -0.821533 -1.34494 0
M  V30 653 C 63.0272 -0.240397 -2.29545 0
M  V30 654 C 63.9972 0.634031 -1.53523 0
M  V30 655 O 65.1822 0.575966 -1.81899 0
M  V30 656 C 62.3222 0.592869 -3.39969 0
M  V30 657 C 61.4352 -0.30365 -4.30932 0
M  V30 658 C 60.5702 0.539049 -5.28458 0
M  V30 659 C 59.6092 -0.356942 -6.11058 0
M  V30 660 N 58.7462 0.446603 -7.00678 0
M  V30 661 H 63.5862 -1.05632 -2.7865 0
M  V30 662 H 61.1232 -0.532413 -1.37127 0
M  V30 663 H 63.0812 1.09129 -4.02675 0
M  V30 664 H 61.7112 1.37392 -2.92102 0
M  V30 665 H 60.7632 -0.920276 -3.691 0
M  V30 666 H 62.0752 -0.992661 -4.88823 0
M  V30 667 H 61.2292 1.102 -5.96608 0
M  V30 668 H 59.9682 1.26157 -4.71101 0
M  V30 669 H 58.9732 -0.932047 -5.41842 0
M  V30 670 H 60.1982 -1.07755 -6.70497 0
M  V30 671 H 58.1442 1.15282 -6.45791 0
M  V30 672 H 58.0612 -0.184048 -7.55776 0
M  V30 673 H 59.3292 0.992352 -7.73158 0
M  V30 674 N 63.5583 1.46682 -0.576371 0
M  V30 675 C 64.8063 2.02013 -0.0594163 0
M  V30 676 C 65.1273 1.45101 1.30271 0
M  V30 677 O 64.3973 0.633317 1.8538 0
M  V30 678 H 62.9773 0.746759 -0.0189745 0
M  V30 679 H 65.6393 1.79862 -0.750717 0
M  V30 680 H 64.7353 3.12097 0.014345 0
M  V30 681 N 65.0364 0.313813 1.54444 0
M  V30 682 C 66.2824 -0.292108 2.00685 0
M  V30 683 C 66.6154 -1.52548 1.20177 0
M  V30 684 O 65.8904 -1.92452 0.281531 0
M  V30 685 C 66.1734 -0.635968 3.5444 0
M  V30 686 C 66.0264 0.607437 4.4568 0
M  V30 687 C 67.3454 -1.45747 4.15266 0
M  V30 688 H 64.4644 -0.104697 0.729526 0
M  V30 689 H 67.1064 0.428457 1.85106 0
M  V30 690 H 65.2564 -1.24986 3.67846 0
M  V30 691 H 66.9284 1.24581 4.44159 0
M  V30 692 H 65.1714 1.23822 4.15753 0
M  V30 693 H 65.8424 0.322515 5.51057 0
M  V30 694 H 68.3184 -0.938645 4.05375 0
M  V30 695 H 67.1944 -1.66683 5.2298 0
M  V30 696 H 67.4554 -2.45063 3.67963 0
M  V30 697 N 66.5145 -1.57545 0.0417849 0
M  V30 698 C 67.4445 -2.14009 -0.933929 0
M  V30 699 C 68.4255 -1.05938 -1.33083 0
M  V30 700 O 69.6105 -1.33833 -1.40721 0
M  V30 701 C 66.7405 -2.67747 -2.21199 0
M  V30 702 C 65.6945 -3.80718 -1.95544 0
M  V30 703 C 65.0205 -4.20935 -3.29724 0
M  V30 704 C 66.3205 -5.06258 -1.28452 0
M  V30 705 H 68.0145 -2.95788 -0.463645 0
M  V30 706 H 65.5605 -1.42285 -0.221573 0
M  V30 707 H 67.5135 -3.05886 -2.89848 0
M  V30 708 H 66.2375 -1.83147 -2.70416 0
M  V30 709 H 64.8965 -3.43037 -1.2931 0
M  V30 710 H 64.5445 -3.33298 -3.76724 0
M  V30 711 H 64.2445 -4.9707 -3.13361 0
M  V30 712 H 65.7685 -4.61666 -3.9962 0
M  V30 713 H 67.1825 -5.41903 -1.8712 0
M  V30 714 H 65.5795 -5.87475 -1.22445 0
M  V30 715 H 66.6495 -4.84207 -0.259219 0
M  V30 716 N 67.9926 0.231505 -1.5589 0
M  V30 717 C 69.4036 0.799327 -1.68724 0
M  V30 718 C 69.7546 1.85398 -0.642022 0
M  V30 719 O 68.8796 2.1539 0.208784 0
M  V30 720 C 69.4746 1.45664 -3.05888 0
M  V30 721 C 68.0336 1.97197 -3.20609 0
M  V30 722 C 67.1806 0.828552 -2.64632 0
M  V30 723 H 70.1316 0.00702616 -1.58698 0
M  V30 724 H 70.1526 2.32517 -3.01191 0
M  V30 725 H 69.6646 0.688808 -3.81939 0
M  V30 726 H 67.7656 2.76813 -2.4941 0
M  V30 727 H 67.8786 2.15878 -4.27707 0
M  V30 728 H 66.2426 1.23321 -2.22854 0
M  V30 729 H 67.0256 0.0735544 -3.43221 0
M  V30 730 N 69.4707 1.49531 0.497807 0
M  V30 731 C 70.7167 1.60388 1.25089 0
M  V30 732 C 71.0717 0.288328 1.90227 0
M  V30 733 O 70.3647 -0.711706 1.77891 0
M  V30 734 C 70.5587 2.70252 2.33878 0
M  V30 735 C 70.3877 4.12363 1.79408 0
M  V30 736 C 69.1577 4.7911 1.60566 0
M  V30 737 C 71.3557 4.97491 1.30412 0
M  V30 738 N 69.3377 6.05525 1.01059 0
M  V30 739 C 70.7087 6.14411 0.830595 0
M  V30 740 C 72.7637 4.83466 1.19015 0
M  V30 741 C 71.4667 7.1885 0.254371 0
M  V30 742 C 73.4927 5.88057 0.627892 0
M  V30 743 C 72.8547 7.04208 0.16461 0
M  V30 744 H 68.9537 0.641246 0.447579 0
M  V30 745 H 71.5377 1.86549 0.557441 0
M  V30 746 H 69.7087 2.45858 3.0068 0
M  V30 747 H 71.4407 2.70613 3.00917 0
M  V30 748 H 68.1957 4.35961 1.85026 0
M  V30 749 H 68.6197 6.73028 0.732236 0
M  V30 750 H 73.2617 3.93978 1.53431 0
M  V30 751 H 70.9797 8.08036 -0.102052 0
M  V30 752 H 74.5657 5.79266 0.542444 0
M  V30 753 H 73.4457 7.83757 -0.263669 0
M  V30 754 N 70.9488 -0.749086 1.3866 0
M  V30 755 C 71.8958 -1.86291 1.36251 0
M  V30 756 C 72.8658 -1.64578 0.224347 0
M  V30 757 O 74.0508 -1.86181 0.417279 0
M  V30 758 C 71.1908 -3.23644 1.19786 0
M  V30 759 C 70.3038 -3.57158 2.43027 0
M  V30 760 C 69.4388 -4.83838 2.19258 0
M  V30 761 C 68.4778 -5.10152 3.38247 0
M  V30 762 N 67.6148 -6.28029 3.13884 0
M  V30 763 H 72.4548 -1.87685 2.3147 0
M  V30 764 H 69.9918 -0.917287 1.14997 0
M  V30 765 H 71.9498 -4.0291 1.08254 0
M  V30 766 H 70.5798 -3.21566 0.282031 0
M  V30 767 H 69.6318 -2.72701 2.65214 0
M  V30 768 H 70.9438 -3.7253 3.31697 0
M  V30 769 H 70.0978 -5.71057 2.04888 0
M  V30 770 H 68.8368 -4.70614 1.2796 0
M  V30 771 H 67.8418 -4.21401 3.53131 0
M  V30 772 H 69.0668 -5.25271 4.30427 0
M  V30 773 H 67.0128 -6.1612 2.25238 0
M  V30 774 H 66.9298 -6.43922 3.96106 0
M  V30 775 H 68.1978 -7.18124 3.03179 0
M  V30 776 N 72.4269 -1.23603 -0.977757 0
M  V30 777 C 73.6669 -1.08148 -1.73446 0
M  V30 778 C 74.0309 0.374785 -1.88307 0
M  V30 779 O 75.2319 0.650588 -2.60808 0
M  V30 780 C 73.5029 -1.78991 -3.0935 0
M  V30 781 S 75.0619 -1.79141 -4.00567 0
M  V30 782 H 71.8799 -0.386987 -0.596458 0
M  V30 783 H 74.4819 -1.5678 -1.16792 0
M  V30 784 H 73.1859 -2.8408 -2.96187 0
M  V30 785 H 72.7169 -1.30651 -3.71071 0
M  V30 786 H 74.7319 -0.851892 -4.88833 0
M  V30 787 N 73.905 1.17692 -1.04816 0
M  V30 788 C 74.853 2.23632 -0.63966 0
M  V30 789 C 75.847 1.6601 0.337219 0
M  V30 790 O 77.053 1.78844 0.203693 0
M  V30 791 H 73.428 0.727949 -0.188665 0
M  V30 792 H 75.399 2.55387 -1.54337 0
M  V30 793 C 74.148 3.4769 -0.0264051 0
M  V30 794 H 73.471 3.92331 -0.769164 0
M  V30 795 H 74.911 4.23418 0.222098 0
M  V30 796 C 73.37 3.13807 1.22584 0
M  V30 797 O 73.9 3.28236 2.31569 0
M  V30 798 N 72.106 2.68065 1.12202 0
M  V30 799 H 71.653 2.56525 0.235133 0
M  V30 800 H 71.611 2.45767 1.96076 0
M  V30 801 N 75.3831 0.828654 1.34056 0
M  V30 802 C 76.6081 0.431637 2.02859 0
M  V30 803 C 77.0331 -0.956339 1.61975 0
M  V30 804 O 76.3911 -1.62338 0.807228 0
M  V30 805 C 76.4391 0.548323 3.56407 0
M  V30 806 O 75.5431 -0.429556 4.10157 0
M  V30 807 H 74.8841 0.176886 0.640006 0
M  V30 808 H 77.4141 1.12066 1.71179 0
M  V30 809 H 77.4241 0.426196 4.05768 0
M  V30 810 H 76.0991 1.5606 3.8551 0
M  V30 811 H 74.6761 -0.265836 3.71951 0
M  V30 812 N 76.8612 -1.46375 0.584142 0
M  V30 813 C 77.7912 -2.33103 -0.136037 0
M  V30 814 C 78.7722 -1.45431 -0.882255 0
M  V30 815 O 79.9572 -1.74246 -0.857434 0
M  V30 816 C 77.0872 -3.27731 -1.14933 0
M  V30 817 C 76.0412 -4.24855 -0.517862 0
M  V30 818 C 75.3672 -5.09001 -1.63773 0
M  V30 819 C 76.6672 -5.19439 0.545886 0
M  V30 820 H 78.3612 -2.93568 0.588086 0
M  V30 821 H 75.9072 -1.41166 0.284259 0
M  V30 822 H 77.8602 -3.87261 -1.66153 0
M  V30 823 H 76.5842 -2.65377 -1.90375 0
M  V30 824 H 75.2432 -3.6659 -0.0267361 0
M  V30 825 H 74.8912 -4.43031 -2.38185 0
M  V30 826 H 74.5912 -5.74777 -1.22085 0
M  V30 827 H 76.1152 -5.71396 -2.15266 0
M  V30 828 H 77.5292 -5.73177 0.118704 0
M  V30 829 H 75.9262 -5.93566 0.88317 0
M  V30 830 H 76.9962 -4.63285 1.43162 0
M  V30 831 N 78.3393 -0.321999 -1.54275 0
M  V30 832 C 79.6163 0.335232 -1.92706 0
M  V30 833 C 79.9963 1.70006 -1.25145 0
M  V30 834 O 79.3443 2.25067 -0.394596 0
M  V30 835 C 79.5543 0.429008 -3.46353 0
M  V30 836 C 80.9023 0.690029 -4.18956 0
M  V30 837 O 81.9263 0.511992 -3.52501 0
M  V30 838 O 80.7853 1.03338 -5.36641 0
M  V30 839 H 77.8793 0.191143 -0.804608 0
M  V30 840 H 80.4253 -0.3716 -1.65581 0
M  V30 841 H 79.1973 -0.529611 -3.87699 0
M  V30 842 H 78.8203 1.18348 -3.79578 0
M  V30 843 N 79.8174 1.5752 -0.0501392 0
M  V30 844 C 80.7504 2.07026 0.959962 0
M  V30 845 C 81.7284 0.970539 1.30458 0
M  V30 846 O 82.9124 1.2424 1.41763 0
M  V30 847 C 80.0394 2.5099 2.27424 0
M  V30 848 C 79.0854 3.72188 2.08275 0
M  V30 849 S 79.9184 5.17888 1.36207 0
M  V30 850 C 81.0744 5.65165 2.6896 0
M  V30 851 H 81.3074 2.9238 0.538631 0
M  V30 852 H 78.8404 1.53547 0.162099 0
M  V30 853 H 80.7984 2.76982 3.02971 0
M  V30 854 H 79.4594 1.65944 2.66686 0
M  V30 855 H 78.6524 4.00866 3.05487 0
M  V30 856 H 78.2544 3.46457 1.40868 0
M  V30 857 H 80.5464 5.70687 3.65133 0
M  V30 858 H 81.4894 6.64394 2.4492 0
M  V30 859 H 81.8974 4.9289 2.75172 0
M  V30 860 N 81.2955 -0.223234 1.56011 0
M  V30 861 C 82.2425 -1.27664 1.92277 0
M  V30 862 C 83.2125 -1.46659 0.779763 0
M  V30 863 O 84.3975 -1.60256 1.03551 0
M  V30 864 C 81.5375 -2.62234 2.24338 0
M  V30 865 C 80.6505 -2.51051 3.51564 0
M  V30 866 C 79.7855 -3.78133 3.7308 0
M  V30 867 C 78.8245 -3.61665 4.93827 0
M  V30 868 N 77.9615 -4.80693 5.11741 0
M  V30 869 H 82.8015 -0.960358 2.82101 0
M  V30 870 H 80.3385 -0.462901 1.39627 0
M  V30 871 H 82.2965 -3.40596 2.40936 0
M  V30 872 H 80.9265 -2.91961 1.3769 0
M  V30 873 H 79.9785 -1.64132 3.43169 0
M  V30 874 H 81.2905 -2.34803 4.40079 0
M  V30 875 H 80.4445 -4.64938 3.89766 0
M  V30 876 H 79.1835 -3.97304 2.82844 0
M  V30 877 H 78.1885 -2.73244 4.77093 0
M  V30 878 H 79.4135 -3.43966 5.85546 0
M  V30 879 H 77.3595 -5.00181 4.24446 0
M  V30 880 H 77.2765 -4.67165 5.94384 0
M  V30 881 H 78.5445 -5.6893 5.3286 0
M  V30 882 N 82.7736 -1.49793 -0.48987 0
M  V30 883 C 84.0036 -1.6333 -1.26518 0
M  V30 884 C 84.4116 -0.308392 -1.8667 0
M  V30 885 O 83.7546 0.717512 -1.69108 0
M  V30 886 C 83.8166 -2.6522 -2.4269 0
M  V30 887 C 83.4806 -4.09279 -2.03321 0
M  V30 888 C 84.4776 -4.95738 -1.56652 0
M  V30 889 C 82.1626 -4.55082 -2.12616 0
M  V30 890 C 84.1566 -6.26041 -1.19795 0
M  V30 891 C 81.8436 -5.85396 -1.75371 0
M  V30 892 C 82.8416 -6.707 -1.29036 0
M  V30 893 O 82.5296 -7.98584 -0.92299 0
M  V30 894 H 82.2616 -0.552502 -0.389509 0
M  V30 895 H 84.8156 -1.96642 -0.593381 0
M  V30 896 H 83.0456 -2.27112 -3.12981 0
M  V30 897 H 84.7346 -2.68171 -3.04695 0
M  V30 898 H 85.5006 -4.61575 -1.48908 0
M  V30 899 H 81.3796 -3.88844 -2.47631 0
M  V30 900 H 84.9236 -6.92578 -0.835582 0
M  V30 901 H 80.8206 -6.19085 -1.82768 0
M  V30 902 H 81.5886 -8.11692 -1.05349 0
M  V30 903 N 84.2517 0.741722 -1.39055 0
M  V30 904 C 85.4987 1.50114 -1.35912 0
M  V30 905 C 85.8267 1.94443 0.0470937 0
M  V30 906 O 85.0817 1.66612 1.02659 0
M  V30 907 C 85.3807 2.7592 -2.27163 0
M  V30 908 C 85.0467 2.50493 -3.74919 0
M  V30 909 C 83.7087 2.43267 -4.1518 0
M  V30 910 C 86.0607 2.28585 -4.684 0
M  V30 911 C 83.3887 2.12166 -5.46994 0
M  V30 912 C 85.7407 1.99002 -6.00484 0
M  V30 913 C 84.4047 1.90241 -6.39816 0
M  V30 914 H 83.6747 0.549306 -0.497336 0
M  V30 915 H 86.3217 0.851896 -1.71508 0
M  V30 916 H 84.6267 3.45553 -1.84663 0
M  V30 917 H 86.3237 3.33923 -2.22028 0
M  V30 918 H 82.9137 2.56992 -3.43006 0
M  V30 919 H 87.0977 2.33139 -4.38132 0
M  V30 920 H 82.3537 2.03901 -5.76398 0
M  V30 921 H 86.5277 1.81057 -6.72452 0
M  V30 922 H 84.1547 1.65907 -7.41875 0
M  V30 923 N 85.7298 1.2412 0.971189 0
M  V30 924 C 87.1458 1.00584 1.23916 0
M  V30 925 C 87.3458 -0.287481 1.99439 0
M  V30 926 O 86.4018 -1.00454 2.31658 0
M  V30 927 C 87.7148 2.21864 2.0297 0
M  V30 928 C 89.2628 2.26452 2.16076 0
M  V30 929 C 89.7378 3.47343 2.98524 0
M  V30 930 N 91.2288 3.47639 3.06107 0
M  V30 931 C 91.9638 4.37837 3.70251 0
M  V30 932 N 91.4598 5.38286 4.36142 0
M  V30 933 N 93.2528 4.25558 3.67228 0
M  V30 934 H 85.4038 2.07236 0.465499 0
M  V30 935 H 87.6668 0.909236 0.268315 0
M  V30 936 H 87.3728 3.15771 1.54861 0
M  V30 937 H 87.2468 2.23698 3.03709 0
M  V30 938 H 89.6338 1.33078 2.6339 0
M  V30 939 H 89.7148 2.28645 1.14696 0
M  V30 940 H 89.3588 4.41029 2.51905 0
M  V30 941 H 89.2888 3.42393 4.00093 0
M  V30 942 H 91.7798 2.74966 2.59233 0
M  V30 943 H 92.0928 6.03352 4.82894 0
M  V30 944 H 90.4378 5.42176 4.34822 0
M  V30 945 H 93.6288 3.46322 3.14927 0
M  V30 946 H 93.8018 4.96054 4.16935 0
M  V30 947 N 87.2079 -1.17134 1.05439 0
M  V30 948 C 88.1709 -2.19439 0.661764 0
M  V30 949 C 89.1709 -1.58199 -0.288042 0
M  V30 950 O 90.3609 -1.74053 -0.0715803 0
M  V30 951 C 87.4929 -3.40889 -0.0276209 0
M  V30 952 H 88.6859 -2.55688 1.56728 0
M  V30 953 H 86.2389 -1.31259 0.848567 0
M  V30 954 H 86.9739 -3.10187 -0.94629 0
M  V30 955 H 86.7589 -3.86586 0.655238 0
M  V30 956 H 88.2489 -4.16603 -0.288342 0
M  V30 957 N 88.686 -0.835752 -1.33615 0
M  V30 958 C 89.932 -0.430596 -1.98176 0
M  V30 959 C 90.265 1.00684 -1.66061 0
M  V30 960 O 89.54 1.70339 -0.938877 0
M  V30 961 C 89.823 -0.648065 -3.5422 0
M  V30 962 C 89.676 -2.13255 -3.96033 0
M  V30 963 C 90.995 -0.0922113 -4.40003 0
M  V30 964 H 88.114 -0.157924 -0.719881 0
M  V30 965 H 90.756 -1.05069 -1.58305 0
M  V30 966 H 88.906 -0.120237 -3.88314 0
M  V30 967 H 90.578 -2.725 -3.72211 0
M  V30 968 H 88.821 -2.61823 -3.45878 0
M  V30 969 H 89.492 -2.23547 -5.04708 0
M  V30 970 H 91.968 -0.543343 -4.12537 0
M  V30 971 H 90.844 -0.274083 -5.48215 0
M  V30 972 H 91.105 1.00378 -4.30554 0
M  V30 973 N 90.1641 1.46063 -0.591896 0
M  V30 974 C 91.3921 2.06717 -0.0868936 0
M  V30 975 C 91.8071 1.43916 1.22203 0
M  V30 976 O 91.1641 0.547698 1.74088 0
M  V30 977 C 91.2151 3.6142 0.0758725 0
M  V30 978 O 90.9361 4.21874 -1.18126 0
M  V30 979 C 92.4371 4.39025 0.61416 0
M  V30 980 H 89.6571 0.668162 -0.0616518 0
M  V30 981 H 92.2011 1.8755 -0.815175 0
M  V30 982 H 90.3561 3.79983 0.754413 0
M  V30 983 H 90.7701 5.14861 -1.00092 0
M  V30 984 H 92.2441 5.4783 0.677193 0
M  V30 985 H 92.7211 4.07708 1.63312 0
M  V30 986 H 93.3271 4.2529 -0.0298142 0
M  V30 987 N 91.6422 0.330177 1.54103 0
M  V30 988 C 92.8702 -0.272179 2.05102 0
M  V30 989 C 93.2852 -1.45267 1.20595 0
M  V30 990 O 92.6422 -1.8094 0.238144 0
M  V30 991 C 92.6932 -0.70023 3.54653 0
M  V30 992 O 92.4142 0.433301 4.35952 0
M  V30 993 C 93.9152 -1.3647 4.21771 0
M  V30 994 H 91.1352 -0.0549159 0.668749 0
M  V30 995 H 93.6792 0.478285 1.98828 0
M  V30 996 H 91.8342 -1.40066 3.61193 0
M  V30 997 H 92.2482 0.0947539 5.24414 0
M  V30 998 H 93.7222 -1.61509 5.27843 0
M  V30 999 H 94.1992 -2.31409 3.73292 0
M  V30 1000 H 94.8052 -0.706675 4.19388 0
M  V30 1001 N 93.1203 -1.57491 0.0584922 0
M  V30 1002 C 94.3503 -1.9701 -0.622134 0
M  V30 1003 C 94.7583 -0.935034 -1.6448 0
M  V30 1004 O 94.1013 0.0882904 -1.83488 0
M  V30 1005 C 94.1633 -3.32794 -1.35972 0
M  V30 1006 C 93.8273 -4.54343 -0.492043 0
M  V30 1007 C 94.8243 -5.19323 0.244901 0
M  V30 1008 C 92.5093 -5.00534 -0.420821 0
M  V30 1009 C 94.5033 -6.28835 1.04143 0
M  V30 1010 C 92.1903 -6.09921 0.379389 0
M  V30 1011 C 93.1883 -6.73933 1.10919 0
M  V30 1012 O 92.8763 -7.81216 1.89623 0
M  V30 1013 H 92.6083 -0.653127 -0.174359 0
M  V30 1014 H 95.1623 -2.05029 0.123418 0
M  V30 1015 H 93.3923 -3.21351 -2.15105 0
M  V30 1016 H 95.0813 -3.5701 -1.93129 0
M  V30 1017 H 95.8473 -4.8459 0.19939 0
M  V30 1018 H 91.7263 -4.50496 -0.978474 0
M  V30 1019 H 95.2703 -6.7873 1.61157 0
M  V30 1020 H 91.1673 -6.44089 0.426512 0
M  V30 1021 H 91.9353 -7.98029 1.81913 0
M  V30 1022 N 94.5984 0.214957 -1.56127 0
M  V30 1023 C 95.8444 0.939762 -1.79712 0
M  V30 1024 C 96.1774 1.83723 -0.629247 0
M  V30 1025 O 95.4524 1.90925 0.371197 0
M  V30 1026 C 95.7354 1.77306 -3.13424 0
M  V30 1027 C 95.5884 0.90164 -4.40671 0
M  V30 1028 C 96.9074 2.74956 -3.43638 0
M  V30 1029 H 94.0264 0.340214 -0.653776 0
M  V30 1030 H 96.6684 0.20824 -1.88855 0
M  V30 1031 H 94.8184 2.39673 -3.0576 0
M  V30 1032 H 96.4904 0.294206 -4.60361 0
M  V30 1033 H 94.7334 0.207368 -4.33304 0
M  V30 1034 H 95.4044 1.51923 -5.30682 0
M  V30 1035 H 97.8804 2.22724 -3.51473 0
M  V30 1036 H 96.7564 3.30358 -4.38355 0
M  V30 1037 H 97.0174 3.53023 -2.66134 0
M  V30 1038 N 96.0765 1.50051 0.48192 0
M  V30 1039 C 97.0245 1.68635 1.60203 0
M  V30 1040 C 98.0185 0.552184 1.60148 0
M  V30 1041 O 99.2245 0.732377 1.64427 0
M  V30 1042 H 95.5995 0.532081 0.531407 0
M  V30 1043 H 97.5705 2.62616 1.41688 0
M  V30 1044 C 96.3195 1.78775 2.9822 0
M  V30 1045 H 95.6425 2.6543 2.98976 0
M  V30 1046 H 97.0825 1.95806 3.7608 0
M  V30 1047 C 95.5415 0.536849 3.32595 0
M  V30 1048 O 96.0715 -0.328897 4.00351 0
M  V30 1049 N 94.2775 0.394091 2.87915 0
M  V30 1050 H 93.8245 1.09962 2.32951 0
M  V30 1051 H 93.7825 -0.441737 3.11281 0
M  V30 1052 N 97.5546 -0.734337 1.39446 0
M  V30 1053 C 98.4646 -1.87879 1.40495 0
M  V30 1054 C 99.4806 -1.714 0.299672 0
M  V30 1055 O 100.657 -1.93991 0.541249 0
M  V30 1056 C 97.7216 -3.23477 1.24754 0
M  V30 1057 C 96.7826 -3.52344 2.45259 0
M  V30 1058 C 96.0156 -4.81473 2.30259 0
M  V30 1059 O 96.2386 -5.55237 1.30643 0
M  V30 1060 O 95.1726 -5.10254 3.19256 0
M  V30 1061 H 98.9986 -1.89949 2.36966 0
M  V30 1062 H 96.5836 -0.882243 1.20569 0
M  V30 1063 H 98.4656 -4.04509 1.18111 0
M  V30 1064 H 97.1406 -3.22176 0.313781 0
M  V30 1065 H 96.0476 -2.71396 2.57478 0
M  V30 1066 H 97.3806 -3.58426 3.37331 0
M  V30 1067 N 99.0327 -1.24633 -0.964593 0
M  V30 1068 C 100.258 -1.11596 -1.74818 0
M  V30 1069 C 100.683 0.32723 -1.85232 0
M  V30 1070 O 100.041 1.23695 -1.32549 0
M  V30 1071 C 100.089 -1.76397 -3.1451 0
M  V30 1072 O 99.1927 -1.03685 -3.99153 0
M  V30 1073 H 98.5337 -0.390196 -0.537255 0
M  V30 1074 H 101.064 -1.65002 -1.20977 0
M  V30 1075 H 101.074 -1.8228 -3.65018 0
M  V30 1076 H 99.7487 -2.81401 -3.06246 0
M  V30 1077 H 98.3257 -1.05611 -3.57632 0
M  V30 1078 N 100.511 1.16574 -1.06058 0
M  V30 1079 C 101.458 2.20883 -0.669263 0
M  V30 1080 C 102.428 1.62729 0.332918 0
M  V30 1081 O 103.613 1.895 0.222346 0
M  V30 1082 C 100.753 3.45049 -0.0593572 0
M  V30 1083 C 99.8658 4.17458 -1.11143 0
M  V30 1084 C 99.0008 5.29135 -0.467916 0
M  V30 1085 C 98.0398 5.93343 -1.50369 0
M  V30 1086 N 97.1768 6.96516 -0.883706 0
M  V30 1087 H 102.017 2.53709 -1.5632 0
M  V30 1088 H 99.5538 1.24616 -0.781625 0
M  V30 1089 H 101.512 4.16033 0.311771 0
M  V30 1090 H 100.142 3.12781 0.797992 0
M  V30 1091 H 99.1938 3.45101 -1.60029 0
M  V30 1092 H 100.506 4.61307 -1.89731 0
M  V30 1093 H 99.6598 6.06684 -0.0436871 0
M  V30 1094 H 98.3988 4.86443 0.349864 0
M  V30 1095 H 97.4038 5.14517 -1.93784 0
M  V30 1096 H 98.6288 6.38114 -2.32352 0
M  V30 1097 H 96.5748 6.55943 -0.086595 0
M  V30 1098 H 96.4918 7.38723 -1.607 0
M  V30 1099 H 97.7598 7.77993 -0.484543 0
M  V30 1100 N 101.989 0.842826 1.3317 0
M  V30 1101 C 103.219 0.453397 2.01564 0
M  V30 1102 C 103.627 -0.951147 1.63554 0
M  V30 1103 O 102.97 -1.63021 0.846746 0
M  V30 1104 C 103.032 0.499013 3.5602 0
M  V30 1105 C 102.696 1.86037 4.1742 0
M  V30 1106 C 103.693 2.82416 4.36506 0
M  V30 1107 C 101.378 2.15428 4.53757 0
M  V30 1108 C 103.372 4.06346 4.91082 0
M  V30 1109 C 101.059 3.39615 5.0804 0
M  V30 1110 C 102.057 4.3489 5.26649 0
M  V30 1111 O 101.745 5.5688 5.79776 0
M  V30 1112 H 101.477 0.177871 0.652179 0
M  V30 1113 H 104.031 1.13808 1.70988 0
M  V30 1114 H 102.261 -0.242467 3.85939 0
M  V30 1115 H 103.95 0.126852 4.05702 0
M  V30 1116 H 104.716 2.6101 4.08777 0
M  V30 1117 H 100.595 1.42061 4.38565 0
M  V30 1118 H 104.139 4.80722 5.05522 0
M  V30 1119 H 100.036 3.60876 5.352 0
M  V30 1120 H 100.804 5.58674 5.98185 0
M  V30 1121 N 103.467 -1.45747 0.599634 0
M  V30 1122 C 104.377 -2.34262 -0.125888 0
M  V30 1123 C 105.393 -1.50768 -0.868625 0
M  V30 1124 O 106.569 -1.83592 -0.828003 0
M  V30 1125 C 103.634 -3.28252 -1.11587 0
M  V30 1126 C 102.695 -4.27651 -0.375956 0
M  V30 1127 C 101.928 -5.1715 -1.31877 0
M  V30 1128 O 102.151 -5.09916 -2.55621 0
M  V30 1129 O 101.085 -5.96286 -0.820157 0
M  V30 1130 H 104.911 -2.97688 0.601315 0
M  V30 1131 H 102.496 -1.44999 0.359934 0
M  V30 1132 H 104.378 -3.86191 -1.68626 0
M  V30 1133 H 103.053 -2.67401 -1.82424 0
M  V30 1134 H 101.96 -3.7335 0.236698 0
M  V30 1135 H 103.293 -4.91334 0.29177 0
M  V30 1136 N 104.945 -0.338344 -1.53925 0
M  V30 1137 C 105.892 0.520845 -2.24846 0
M  V30 1138 C 106.862 1.09976 -1.24477 0
M  V30 1139 O 108.047 1.13735 -1.53196 0
M  V30 1140 C 105.187 1.6685 -3.02084 0
M  V30 1141 C 104.3 1.11739 -4.17299 0
M  V30 1142 C 103.435 2.23193 -4.82036 0
M  V30 1143 C 102.474 1.65407 -5.89328 0
M  V30 1144 N 101.611 2.70582 -6.47866 0
M  V30 1145 H 106.451 -0.0904881 -2.97863 0
M  V30 1146 H 103.988 -0.0564282 -1.46992 0
M  V30 1147 H 105.946 2.34407 -3.45122 0
M  V30 1148 H 104.576 2.2509 -2.31375 0
M  V30 1149 H 103.628 0.332919 -3.7894 0
M  V30 1150 H 104.94 0.654677 -4.94485 0
M  V30 1151 H 104.094 2.98626 -5.28117 0
M  V30 1152 H 102.833 2.72807 -4.04262 0
M  V30 1153 H 101.838 0.884779 -5.42634 0
M  V30 1154 H 103.063 1.16652 -6.69006 0
M  V30 1155 H 101.009 3.1946 -5.72959 0
M  V30 1156 H 100.926 2.28917 -7.20509 0
M  V30 1157 H 102.194 3.45799 -6.98601 0
M  V30 1158 N 106.423 1.57458 -0.0668435 0
M  V30 1159 C 107.353 2.15468 0.899764 0
M  V30 1160 C 108.334 1.08042 1.31381 0
M  V30 1161 O 109.519 1.36054 1.38574 0
M  V30 1162 C 106.649 2.71232 2.16911 0
M  V30 1163 C 105.603 3.83781 1.89463 0
M  V30 1164 C 104.929 4.26127 3.22986 0
M  V30 1165 C 106.229 5.08238 1.20381 0
M  V30 1166 H 107.923 2.96488 0.416529 0
M  V30 1167 H 105.469 1.4262 0.198908 0
M  V30 1168 H 107.422 3.10458 2.84945 0
M  V30 1169 H 106.146 1.87426 2.67468 0
M  V30 1170 H 104.805 3.45051 1.23836 0
M  V30 1171 H 104.453 3.39249 3.71374 0
M  V30 1172 H 104.153 5.01993 3.05413 0
M  V30 1173 H 105.677 4.67966 3.92225 0
M  V30 1174 H 107.091 5.44811 1.78475 0
M  V30 1175 H 105.488 5.89349 1.13083 0
M  V30 1176 H 106.558 4.84558 0.182153 0
M  V30 1177 N 107.901 -0.206675 1.56239 0
M  V30 1178 C 108.848 -1.25617 1.93621 0
M  V30 1179 C 109.818 -1.45824 0.795274 0
M  V30 1180 O 111.003 -1.59148 1.05245 0
M  V30 1181 C 108.143 -2.59839 2.27107 0
M  V30 1182 C 107.256 -2.47308 3.54207 0
M  V30 1183 C 106.391 -3.74155 3.7707 0
M  V30 1184 C 105.43 -3.56407 4.97635 0
M  V30 1185 N 104.567 -4.75238 5.1681 0
M  V30 1186 H 109.407 -0.930383 2.83104 0
M  V30 1187 H 106.944 -0.448065 1.4011 0
M  V30 1188 H 108.902 -3.38021 2.44535 0
M  V30 1189 H 107.532 -2.90485 1.40778 0
M  V30 1190 H 106.584 -1.60483 3.4489 0
M  V30 1191 H 107.896 -2.30122 4.42544 0
M  V30 1192 H 107.05 -4.60778 3.94675 0
M  V30 1193 H 105.789 -3.94282 2.87042 0
M  V30 1194 H 104.794 -2.68168 4.79964 0
M  V30 1195 H 106.019 -3.37736 5.89161 0
M  V30 1196 H 103.965 -4.95651 4.29728 0
M  V30 1197 H 103.882 -4.60835 5.99306 0
M  V30 1198 H 105.15 -5.63246 5.38864 0
M  V30 1199 N 109.379 -1.50304 -0.473955 0
M  V30 1200 C 110.609 -1.64663 -1.24778 0
M  V30 1201 C 111.017 -0.328174 -1.86332 0
M  V30 1202 O 110.36 0.699536 -1.69859 0
M  V30 1203 C 110.422 -2.6778 -2.39863 0
M  V30 1204 C 110.086 -4.11413 -1.98969 0
M  V30 1205 C 111.083 -4.97372 -1.51385 0
M  V30 1206 C 108.768 -4.57312 -2.07777 0
M  V30 1207 C 110.762 -6.27277 -1.13148 0
M  V30 1208 C 108.449 -5.87223 -1.69152 0
M  V30 1209 C 109.447 -6.72031 -1.21915 0
M  V30 1210 O 109.135 -7.99518 -0.838237 0
M  V30 1211 H 108.867 -0.556602 -0.383627 0
M  V30 1212 H 111.421 -1.9726 -0.572491 0
M  V30 1213 H 109.651 -2.30419 -3.10554 0
M  V30 1214 H 111.34 -2.71388 -3.01833 0
M  V30 1215 H 112.106 -4.63128 -1.44004 0
M  V30 1216 H 107.985 -3.91449 -2.43493 0
M  V30 1217 H 111.529 -6.93425 -0.762077 0
M  V30 1218 H 107.426 -6.20989 -1.76191 0
M  V30 1219 H 108.194 -8.12764 -0.967339 0
M  V30 1220 N 110.857 0.726932 -1.39834 0
M  V30 1221 C 111.804 1.841 -1.39197 0
M  V30 1222 C 112.774 1.642 -0.250502 0
M  V30 1223 O 113.959 1.85494 -0.446846 0
M  V30 1224 C 111.099 3.21697 -1.24919 0
M  V30 1225 C 110.212 3.53247 -2.48678 0
M  V30 1226 C 109.347 4.80289 -2.26928 0
M  V30 1227 C 108.386 5.04707 -3.4632 0
M  V30 1228 N 107.523 6.22956 -3.23836 0
M  V30 1229 H 112.363 1.83979 -2.34427 0
M  V30 1230 H 109.9 0.898876 -1.16442 0
M  V30 1231 H 111.858 4.01137 -1.1465 0
M  V30 1232 H 110.488 3.21076 -0.333153 0
M  V30 1233 H 109.54 2.68447 -2.69519 0
M  V30 1234 H 110.852 3.67205 -3.37582 0
M  V30 1235 H 110.006 5.67725 -2.13947 0
M  V30 1236 H 108.745 4.68519 -1.35431 0
M  V30 1237 H 107.75 4.1573 -3.5979 0
M  V30 1238 H 108.975 5.18357 -4.38729 0
M  V30 1239 H 106.921 6.12459 -2.35011 0
M  V30 1240 H 106.838 6.37539 -4.063 0
M  V30 1241 H 108.106 7.1321 -3.14566 0
M  V30 1242 N 112.336 1.25143 0.95797 0
M  V30 1243 C 113.752 1.01892 1.22842 0
M  V30 1244 C 113.952 -0.266311 1.99732 0
M  V30 1245 O 113.008 -0.979913 2.3271 0
M  V30 1246 C 114.321 2.24004 2.00606 0
M  V30 1247 C 115.869 2.28731 2.13662 0
M  V30 1248 C 116.344 3.5049 2.94823 0
M  V30 1249 N 117.835 3.50866 3.02403 0
M  V30 1250 C 118.57 4.4174 3.65586 0
M  V30 1251 N 118.066 5.42882 4.30408 0
M  V30 1252 N 119.859 4.29429 3.62694 0
M  V30 1253 H 112.01 2.07718 0.443493 0
M  V30 1254 H 114.273 0.912031 0.258657 0
M  V30 1255 H 113.979 3.17395 1.51503 0
M  V30 1256 H 113.853 2.26907 3.01319 0
M  V30 1257 H 116.24 1.35865 2.61963 0
M  V30 1258 H 116.321 2.29848 1.12265 0
M  V30 1259 H 115.965 4.43676 2.47213 0
M  V30 1260 H 115.895 3.46617 3.96439 0
M  V30 1261 H 118.386 2.777 2.56302 0
M  V30 1262 H 118.699 6.0844 4.76467 0
M  V30 1263 H 117.044 5.46758 4.29047 0
M  V30 1264 H 120.235 3.49643 3.11236 0
M  V30 1265 H 120.408 5.00448 4.1165 0
M  V30 1266 N 113.814 -1.1601 1.06675 0
M  V30 1267 C 115.054 -1.88304 0.795037 0
M  V30 1268 C 115.418 -1.80062 -0.666466 0
M  V30 1269 O 116.619 -2.47319 -1.05293 0
M  V30 1270 C 114.89 -3.33664 1.28076 0
M  V30 1271 S 116.449 -4.23768 1.13868 0
M  V30 1272 H 113.267 -0.649928 0.288296 0
M  V30 1273 H 115.869 -1.4001 1.36445 0
M  V30 1274 H 114.573 -3.37203 2.33927 0
M  V30 1275 H 114.104 -3.87009 0.706253 0
M  V30 1276 H 116.119 -4.96148 0.0719668 0
M  V30 1277 N 115.292 -0.849877 -1.32721 0
M  V30 1278 C 116.239 -0.289033 -2.28983 0
M  V30 1279 C 117.209 0.601324 -1.54833 0
M  V30 1280 O 118.394 0.537253 -1.8308 0
M  V30 1281 C 115.534 0.520623 -3.4115 0
M  V30 1282 C 114.647 -0.394989 -4.3019 0
M  V30 1283 C 113.782 0.426834 -5.29482 0
M  V30 1284 C 112.821 -0.486476 -6.10164 0
M  V30 1285 N 111.958 0.297879 -7.01468 0
M  V30 1286 H 116.798 -1.11519 -2.76347 0
M  V30 1287 H 114.335 -0.56138 -1.35967 0
M  V30 1288 H 116.293 1.00563 -4.04899 0
M  V30 1289 H 114.923 1.31165 -2.9495 0
M  V30 1290 H 113.975 -0.99836 -3.67065 0
M  V30 1291 H 115.287 -1.09612 -4.86607 0
M  V30 1292 H 114.441 0.975205 -5.98811 0
M  V30 1293 H 113.18 1.16136 -4.73671 0
M  V30 1294 H 112.185 -1.04677 -5.39743 0
M  V30 1295 H 113.41 -1.21953 -6.6806 0
M  V30 1296 H 111.356 1.01558 -6.48091 0
M  V30 1297 H 111.273 -0.344318 -7.55216 0
M  V30 1298 H 112.541 0.828131 -7.75089 0
M  V30 1299 N 116.77 1.45427 -0.607355 0
M  V30 1300 C 118 2.06314 -0.108656 0
M  V30 1301 C 118.408 1.45269 1.21217 0
M  V30 1302 O 117.751 0.561115 1.74921 0
M  V30 1303 C 117.813 3.59345 0.105618 0
M  V30 1304 C 117.477 4.42723 -1.13337 0
M  V30 1305 C 118.474 4.77715 -2.05145 0
M  V30 1306 C 116.159 4.83478 -1.36213 0
M  V30 1307 C 118.153 5.52317 -3.18158 0
M  V30 1308 C 115.84 5.57835 -2.49527 0
M  V30 1309 C 116.838 5.92171 -3.40327 0
M  V30 1310 O 116.526 6.65019 -4.51669 0
M  V30 1311 H 116.258 0.672782 -0.0658842 0
M  V30 1312 H 118.812 1.87664 -0.834945 0
M  V30 1313 H 117.042 3.76394 0.886796 0
M  V30 1314 H 118.731 4.02076 0.555886 0
M  V30 1315 H 119.497 4.46787 -1.88697 0
M  V30 1316 H 115.376 4.56188 -0.664362 0
M  V30 1317 H 118.92 5.79036 -3.89054 0
M  V30 1318 H 114.817 5.88177 -2.65928 0
M  V30 1319 H 115.585 6.83469 -4.50348 0
M  V30 1320 N 118.248 0.346503 1.53744 0
M  V30 1321 C 119.178 -0.501193 2.28058 0
M  V30 1322 C 120.159 -1.10014 1.29734 0
M  V30 1323 O 121.344 -1.12097 1.58581 0
M  V30 1324 C 118.474 -1.65078 3.05559 0
M  V30 1325 C 117.428 -1.18003 4.11411 0
M  V30 1326 C 116.754 -2.41837 4.76884 0
M  V30 1327 C 118.054 -0.278394 5.21558 0
M  V30 1328 H 119.748 0.11875 2.99164 0
M  V30 1329 H 117.294 0.0585531 1.43881 0
M  V30 1330 H 119.247 -2.25028 3.56287 0
M  V30 1331 H 117.971 -2.29767 2.32109 0
M  V30 1332 H 116.63 -0.603331 3.61601 0
M  V30 1333 H 116.278 -3.0494 4.00026 0
M  V30 1334 H 115.978 -2.1102 5.48402 0
M  V30 1335 H 117.502 -3.02508 5.30397 0
M  V30 1336 H 118.916 -0.784823 5.67903 0
M  V30 1337 H 117.313 -0.0619707 6.00068 0
M  V30 1338 H 118.383 0.684677 4.80042 0
M  V30 1339 N 119.726 -1.57421 0.075193 0
M  V30 1340 C 120.674 -2.14124 -0.908508 0
M  V30 1341 C 121.668 -1.07898 -1.30592 0
M  V30 1342 O 122.874 -1.26273 -1.28277 0
M  V30 1343 H 119.249 -0.684707 -0.310935 0
M  V30 1344 H 121.22 -2.95634 -0.405374 0
M  V30 1345 C 119.969 -2.72044 -2.16535 0
M  V30 1346 H 119.292 -3.53456 -1.86839 0
M  V30 1347 H 120.732 -3.15311 -2.83469 0
M  V30 1348 C 119.191 -1.66968 -2.92615 0
M  V30 1349 O 119.721 -1.0967 -3.86439 0
M  V30 1350 N 117.927 -1.37923 -2.55784 0
M  V30 1351 H 117.474 -1.84706 -1.79559 0
M  V30 1352 H 117.432 -0.67852 -3.06991 0
M  V30 1353 N 121.204 0.198386 -1.56346 0
M  V30 1354 C 122.151 1.24589 -1.94284 0
M  V30 1355 C 123.121 1.454 -0.802997 0
M  V30 1356 O 124.306 1.58588 -1.06087 0
M  V30 1357 C 121.446 2.58631 -2.28482 0
M  V30 1358 C 120.559 2.45426 -3.55514 0
M  V30 1359 C 119.694 3.7215 -3.79049 0
M  V30 1360 C 118.733 3.53763 -4.99518 0
M  V30 1361 N 117.87 4.72491 -5.19323 0
M  V30 1362 H 122.71 0.915356 -2.83593 0
M  V30 1363 H 120.247 0.440629 -1.40346 0
M  V30 1364 H 122.205 3.3672 -2.46324 0
M  V30 1365 H 120.835 2.89734 -1.42317 0
M  V30 1366 H 119.887 1.58652 -3.45737 0
M  V30 1367 H 121.199 2.27772 -4.43758 0
M  V30 1368 H 120.353 4.58679 -3.97113 0
M  V30 1369 H 119.092 3.92754 -2.89129 0
M  V30 1370 H 118.097 2.65619 -4.8138 0
M  V30 1371 H 119.322 3.34607 -5.90944 0
M  V30 1372 H 117.268 4.93365 -4.3235 0
M  V30 1373 H 117.185 4.5765 -6.01741 0
M  V30 1374 H 118.453 5.6038 -5.41843 0
M  V30 1375 N 122.682 1.50554 0.465978 0
M  V30 1376 C 123.592 1.72585 1.58907 0
M  V30 1377 C 124.608 0.60911 1.6299 0
M  V30 1378 O 125.784 0.88804 1.80765 0
M  V30 1379 C 122.849 1.81995 2.95091 0
M  V30 1380 C 121.91 3.05751 3.01355 0
M  V30 1381 C 121.143 3.14702 4.31043 0
M  V30 1382 O 121.366 2.30313 5.21835 0
M  V30 1383 O 120.3 4.07468 4.43005 0
M  V30 1384 H 124.126 2.67799 1.43239 0
M  V30 1385 H 121.711 1.34711 0.646013 0
M  V30 1386 H 123.593 1.90335 3.75966 0
M  V30 1387 H 122.268 0.899659 3.10947 0
M  V30 1388 H 121.175 3.02908 2.19539 0
M  V30 1389 H 122.508 3.97375 2.90437 0
M  V30 1390 N 124.16 -0.719506 1.40217 0
M  V30 1391 C 125.388 -1.50864 1.41589 0
M  V30 1392 C 125.803 -1.88794 0.0145275 0
M  V30 1393 O 125.16 -1.55174 -0.960594 0
M  V30 1394 C 125.211 -2.78646 2.30302 0
M  V30 1395 O 124.932 -2.42321 3.64983 0
M  V30 1396 C 126.433 -3.72569 2.40224 0
M  V30 1397 H 123.653 -0.465709 0.48307 0
M  V30 1398 H 126.197 -0.88785 1.84221 0
M  V30 1399 H 124.352 -3.37019 1.91042 0
M  V30 1400 H 124.766 -3.24514 4.12057 0
M  V30 1401 H 126.24 -4.5908 3.06512 0
M  V30 1402 H 126.717 -4.15403 1.42608 0
M  V30 1403 H 127.323 -3.20109 2.80019 0
M  V30 1404 N 125.638 -1.25649 -0.95132 0
M  V30 1405 C 126.884 -1.10757 -1.69884 0
M  V30 1406 C 127.217 0.350061 -1.91019 0
M  V30 1407 O 126.492 1.25783 -1.48354 0
M  V30 1408 C 126.775 -1.86606 -3.07978 0
M  V30 1409 C 126.628 -3.40217 -2.94232 0
M  V30 1410 C 127.947 -1.65182 -4.07925 0
M  V30 1411 H 125.066 -0.40374 -0.616574 0
M  V30 1412 H 127.708 -1.54521 -1.10558 0
M  V30 1413 H 125.858 -1.49409 -3.58621 0
M  V30 1414 H 127.53 -3.87108 -2.50889 0
M  V30 1415 H 125.773 -3.67759 -2.30078 0
M  V30 1416 H 126.444 -3.88505 -3.92133 0
M  V30 1417 H 128.92 -1.9757 -3.66204 0
M  V30 1418 H 127.796 -2.20683 -5.02583 0
M  V30 1419 H 128.057 -0.593933 -4.38092 0
M  V30 1420 N 127.117 1.15442 -1.07289 0
M  V30 1421 C 128.394 1.82306 -0.708792 0
M  V30 1422 C 128.774 1.94991 0.808807 0
M  V30 1423 O 128.122 1.50085 1.72298 0
M  V30 1424 C 128.332 3.18695 -1.42247 0
M  V30 1425 C 129.68 3.94341 -1.57417 0
M  V30 1426 O 130.704 3.28247 -1.38319 0
M  V30 1427 O 129.563 5.12839 -1.88834 0
M  V30 1428 H 126.657 0.787628 -0.252132 0
M  V30 1429 H 129.203 1.22559 -1.17377 0
M  V30 1430 H 127.975 3.04557 -2.45684 0
M  V30 1431 H 127.598 3.86128 -0.948223 0
M  V30 1432 N 128.595 0.856903 1.32268 0
M  V30 1433 C 129.543 0.291987 2.3076 0
M  V30 1434 C 130.537 -0.585857 1.58947 0
M  V30 1435 O 131.743 -0.47341 1.73663 0
M  V30 1436 H 128.118 0.075721 0.748178 0
M  V30 1437 H 130.089 1.13687 2.75895 0
M  V30 1438 C 128.838 -0.502869 3.44044 0
M  V30 1439 H 128.161 0.163328 3.99466 0
M  V30 1440 H 129.601 -0.863691 4.1511 0
M  V30 1441 C 128.06 -1.68898 2.91505 0
M  V30 1442 O 128.59 -2.78811 2.89184 0
M  V30 1443 N 126.796 -1.51679 2.47875 0
M  V30 1444 H 126.343 -0.622666 2.49961 0
M  V30 1445 H 126.301 -2.31184 2.13076 0
M  V30 1446 N 130.073 -1.45103 0.615059 0
M  V30 1447 C 131.319 -2.02483 0.113347 0
M  V30 1448 C 131.652 -1.48146 -1.25564 0
M  V30 1449 O 130.927 -0.659104 -1.82992 0
M  V30 1450 C 131.21 -3.60005 0.0825278 0
M  V30 1451 C 131.063 -4.2466 1.48271 0
M  V30 1452 C 132.382 -4.35972 -0.601401 0
M  V30 1453 H 129.501 -0.735764 0.0426632 0
M  V30 1454 H 132.143 -1.72868 0.788461 0
M  V30 1455 H 130.293 -3.85367 -0.492378 0
M  V30 1456 H 131.965 -4.10458 2.10527 0
M  V30 1457 H 130.208 -3.82772 2.04127 0
M  V30 1458 H 130.879 -5.336 1.41332 0
M  V30 1459 H 133.355 -4.15947 -0.112666 0
M  V30 1460 H 132.231 -5.45697 -0.592097 0
M  V30 1461 H 132.492 -4.09391 -1.66887 0
M  V30 1462 N 131.551 -0.354651 -1.53558 0
M  V30 1463 C 132.499 0.512195 -2.26891 0
M  V30 1464 C 133.493 1.09263 -1.29452 0
M  V30 1465 O 134.699 1.03709 -1.47121 0
M  V30 1466 H 131.074 0.183878 -0.729173 0
M  V30 1467 H 133.045 -0.128202 -2.98124 0
M  V30 1468 C 131.794 1.64563 -3.06291 0
M  V30 1469 H 131.117 1.20829 -3.81104 0
M  V30 1470 H 132.557 2.22711 -3.60799 0
M  V30 1471 C 131.016 2.58158 -2.16462 0
M  V30 1472 O 131.546 3.60695 -1.76811 0
M  V30 1473 N 129.752 2.27096 -1.81317 0
M  V30 1474 H 129.299 1.43751 -2.1376 0
M  V30 1475 H 129.257 2.89975 -1.21498 0
M  V30 1476 N 133.029 1.57378 -0.0835403 0
M  V30 1477 C 134.306 1.85363 0.624507 0
M  V30 1478 C 134.686 0.978239 1.87066 0
M  V30 1479 O 134.034 0.0475908 2.2845 0
M  V30 1480 C 134.244 3.35795 0.950947 0
M  V30 1481 C 135.592 4.03581 1.31939 0
M  V30 1482 O 136.616 3.40609 1.04232 0
M  V30 1483 O 135.475 5.14672 1.83779 0
M  V30 1484 H 132.569 0.766162 0.311329 0
M  V30 1485 H 135.115 1.69307 -0.115362 0
M  V30 1486 H 133.887 3.91244 0.0663899 0
M  V30 1487 H 133.51 3.57154 1.74719 0
M  V30 1488 N 134.507 -0.190092 1.56449 0
M  V30 1489 C 135.44 -1.26375 1.90012 0
M  V30 1490 C 136.418 -1.43705 0.760765 0
M  V30 1491 O 137.602 -1.59014 1.01226 0
M  V30 1492 C 134.729 -2.62962 2.13468 0
M  V30 1493 C 133.775 -2.62474 3.36169 0
M  V30 1494 S 134.608 -2.13412 4.91137 0
M  V30 1495 C 135.764 -3.51812 5.17667 0
M  V30 1496 H 135.997 -0.977181 2.80782 0
M  V30 1497 H 133.53 -0.393814 1.49293 0
M  V30 1498 H 135.488 -3.41583 2.27664 0
M  V30 1499 H 134.149 -2.88828 1.23439 0
M  V30 1500 H 133.342 -3.62918 3.49723 0
M  V30 1501 H 132.944 -1.91937 3.20992 0
M  V30 1502 H 135.236 -4.47706 5.08494 0
M  V30 1503 H 136.179 -3.43148 6.19399 0
M  V30 1504 H 136.587 -3.46956 4.45288 0
M  V30 1505 N 135.985 -1.50799 -0.457987 0
M  V30 1506 C 137.396 -1.55152 -1.0385 0
M  V30 1507 C 137.747 -0.362719 -1.92818 0
M  V30 1508 O 136.872 0.522915 -2.09987 0
M  V30 1509 C 137.467 -2.81173 -1.89017 0
M  V30 1510 C 136.026 -2.88164 -2.42154 0
M  V30 1511 C 135.173 -2.49591 -1.20829 0
M  V30 1512 H 138.124 -1.56874 -0.240068 0
M  V30 1513 H 138.145 -2.63769 -2.74238 0
M  V30 1514 H 137.657 -3.67677 -1.24238 0
M  V30 1515 H 135.758 -2.06042 -3.10447 0
M  V30 1516 H 135.871 -3.91356 -2.76364 0
M  V30 1517 H 134.235 -2.02322 -1.54719 0
M  V30 1518 H 135.018 -3.38418 -0.576927 0
M  V30 1519 N 137.463 0.71206 -1.40597 0
M  V30 1520 C 138.411 1.84746 -1.41321 0
M  V30 1521 C 139.405 1.66842 -0.293268 0
M  V30 1522 O 140.611 1.73904 -0.464481 0
M  V30 1523 H 136.986 0.608522 -0.441819 0
M  V30 1524 H 138.957 1.81252 -2.37045 0
M  V30 1525 C 137.706 3.22638 -1.29614 0
M  V30 1526 H 137.029 3.37023 -2.15071 0
M  V30 1527 H 138.469 4.02209 -1.3418 0
M  V30 1528 C 136.928 3.36899 -0.00673121 0
M  V30 1529 O 137.458 3.90186 0.954859 0
M  V30 1530 N 135.664 2.9053 0.0639327 0
M  V30 1531 H 135.211 2.47353 -0.719311 0
M  V30 1532 H 135.169 3.0045 0.926118 0
M  V30 1533 N 138.941 1.26152 0.944643 0
M  V30 1534 C 140.166 1.14363 1.7302 0
M  V30 1535 C 140.591 -0.29772 1.85729 0
M  V30 1536 O 139.949 -1.2157 1.34501 0
M  V30 1537 C 139.997 1.81378 3.11664 0
M  V30 1538 O 139.101 1.10022 3.97453 0
M  V30 1539 H 138.442 0.398694 0.53098 0
M  V30 1540 H 140.972 1.66906 1.18337 0
M  V30 1541 H 140.982 1.88064 3.62072 0
M  V30 1542 H 139.657 2.86237 3.0173 0
M  V30 1543 H 138.234 1.11287 3.55907 0
M  V30 1544 N 140.419 -1.14872 1.07899 0
M  V30 1545 C 141.366 -2.19791 0.704319 0
M  V30 1546 C 142.336 -1.63238 -0.306987 0
M  V30 1547 O 143.521 -1.8983 -0.192171 0
M  V30 1548 C 140.661 -3.44911 0.114244 0
M  V30 1549 C 139.774 -4.15637 1.1777 0
M  V30 1550 C 138.909 -5.28324 0.552037 0
M  V30 1551 C 137.948 -5.90875 1.59789 0
M  V30 1552 N 137.085 -6.95022 0.994404 0
M  V30 1553 H 141.925 -2.5119 1.60336 0
M  V30 1554 H 139.462 -1.23356 0.801352 0
M  V30 1555 H 141.42 -4.16477 -0.245544 0
M  V30 1556 H 140.05 -3.14011 -0.74813 0
M  V30 1557 H 139.102 -3.42512 1.65499 0
M  V30 1558 H 140.414 -4.5823 1.97046 0
M  V30 1559 H 139.568 -6.06538 0.1402 0
M  V30 1560 H 138.307 -4.86939 -0.272431 0
M  V30 1561 H 137.312 -5.11369 2.01945 0
M  V30 1562 H 138.537 -6.34337 2.42474 0
M  V30 1563 H 136.483 -6.55722 0.190939 0
M  V30 1564 H 136.4 -7.36073 1.72432 0
M  V30 1565 H 137.668 -7.77123 0.608253 0
M  V30 1566 N 141.898 -0.863906 -1.31812 0
M  V30 1567 C 142.845 -0.313303 -2.28664 0
M  V30 1568 C 143.815 0.584868 -1.55462 0
M  V30 1569 O 145 0.517805 -1.83639 0
M  V30 1570 C 142.14 0.48441 -3.41683 0
M  V30 1571 C 141.253 -0.440594 -4.29747 0
M  V30 1572 C 140.388 0.370652 -5.29905 0
M  V30 1573 C 139.427 -0.551164 -6.09613 0
M  V30 1574 N 138.564 0.223462 -7.01744 0
M  V30 1575 H 143.404 -1.14444 -2.75148 0
M  V30 1576 H 140.941 -0.575769 -1.35364 0
M  V30 1577 H 142.899 0.962627 -4.05943 0
M  V30 1578 H 141.529 1.28029 -2.96325 0
M  V30 1579 H 140.581 -1.03724 -3.65986 0
M  V30 1580 H 141.893 -1.14767 -4.85417 0
M  V30 1581 H 141.047 0.911638 -5.99812 0
M  V30 1582 H 139.786 1.11105 -4.74876 0
M  V30 1583 H 138.791 -1.10396 -5.38603 0
M  V30 1584 H 140.016 -1.29032 -6.66729 0
M  V30 1585 H 137.962 0.946787 -6.49132 0
M  V30 1586 H 137.879 -0.424399 -7.54808 0
M  V30 1587 H 139.147 0.745876 -7.75923 0
M  V30 1588 N 143.376 1.44774 -0.622745 0
M  V30 1589 C 144.306 2.33382 0.0741861 0
M  V30 1590 C 145.287 1.47719 0.843387 0
M  V30 1591 O 146.472 1.76458 0.810934 0
M  V30 1592 C 143.602 3.30663 1.06204 0
M  V30 1593 C 142.556 4.26079 0.405037 0
M  V30 1594 C 141.882 5.13165 1.5022 0
M  V30 1595 C 143.182 5.1781 -0.683414 0
M  V30 1596 H 144.876 2.91905 -0.665713 0
M  V30 1597 H 142.422 1.40363 -0.321587 0
M  V30 1598 H 144.375 3.9153 1.55827 0
M  V30 1599 H 143.099 2.70331 1.83272 0
M  V30 1600 H 141.758 3.66532 -0.0704683 0
M  V30 1601 H 141.406 4.49191 2.26355 0
M  V30 1602 H 141.106 5.77812 1.06803 0
M  V30 1603 H 142.63 5.76902 2.00041 0
M  V30 1604 H 144.044 5.72661 -0.270631 0
M  V30 1605 H 142.441 5.91015 -1.04023 0
M  V30 1606 H 143.511 4.59326 -1.55395 0
M  V30 1607 N 144.854 0.36279 1.53368 0
M  V30 1608 C 145.786 -0.519668 2.23231 0
M  V30 1609 C 146.799 -1.04844 1.24546 0
M  V30 1610 O 147.988 -0.955296 1.50786 0
M  V30 1611 C 145.088 -1.72995 2.9142 0
M  V30 1612 C 144.261 -1.33316 4.16588 0
M  V30 1613 C 143.32 -2.40521 4.68013 0
M  V30 1614 O 142.346 -2.03027 5.3176 0
M  V30 1615 N 143.548 -3.72065 4.45587 0
M  V30 1616 H 146.313 0.078751 2.99597 0
M  V30 1617 H 143.874 0.187833 1.60807 0
M  V30 1618 H 145.866 -2.44184 3.22733 0
M  V30 1619 H 144.436 -2.2353 2.18525 0
M  V30 1620 H 143.656 -0.451236 3.91609 0
M  V30 1621 H 144.944 -1.04432 4.97967 0
M  V30 1622 H 144.342 -4.05304 3.94646 0
M  V30 1623 H 142.899 -4.39366 4.81457 0
M  V30 1624 N 146.332 -1.57332 0.0918853 0
M  V30 1625 C 147.28 -2.15075 -0.885747 0
M  V30 1626 C 148.274 -1.09277 -1.29441 0
M  V30 1627 O 149.48 -1.27627 -1.26931 0
M  V30 1628 H 145.855 -0.687966 -0.303656 0
M  V30 1629 H 147.826 -2.96047 -0.373995 0
M  V30 1630 C 146.575 -2.74325 -2.13638 0
M  V30 1631 H 145.898 -3.55418 -1.8308 0
M  V30 1632 H 147.338 -3.183 -2.80109 0
M  V30 1633 C 145.797 -1.70062 -2.90827 0
M  V30 1634 O 146.327 -1.13763 -3.85254 0
M  V30 1635 N 144.533 -1.40628 -2.54307 0
M  V30 1636 H 144.08 -1.866 -1.7759 0
M  V30 1637 H 144.038 -0.711043 -3.06254 0
M  V30 1638 N 147.81 0.181792 -1.56548 0
M  V30 1639 C 149.056 0.901431 -1.81665 0
M  V30 1640 C 149.389 1.82347 -0.668075 0
M  V30 1641 O 148.664 1.91669 0.330615 0
M  V30 1642 C 148.947 1.70618 -3.17115 0
M  V30 1643 C 148.8 0.807964 -4.42484 0
M  V30 1644 C 150.119 2.67605 -3.49393 0
M  V30 1645 H 147.238 0.32627 -0.660846 0
M  V30 1646 H 149.88 0.168134 -1.89255 0
M  V30 1647 H 148.03 2.33133 -3.10775 0
M  V30 1648 H 149.702 0.19649 -4.60881 0
M  V30 1649 H 147.945 0.115411 -4.33646 0
M  V30 1650 H 148.616 1.40632 -5.33785 0
M  V30 1651 H 151.092 2.15218 -3.56118 0
M  V30 1652 H 149.968 3.20985 -4.45264 0
M  V30 1653 H 150.229 3.47298 -2.73563 0
M  V30 1654 N 149.288 1.51039 0.449983 0
M  V30 1655 C 150.534 1.63322 1.20223 0
M  V30 1656 C 150.867 0.34241 1.91158 0
M  V30 1657 O 150.142 -0.657344 1.83055 0
M  V30 1658 C 150.425 2.82801 2.22925 0
M  V30 1659 C 150.278 4.21823 1.56157 0
M  V30 1660 C 151.597 2.97807 3.24035 0
M  V30 1661 H 148.716 0.594407 0.435718 0
M  V30 1662 H 151.358 1.83489 0.493136 0
M  V30 1663 H 149.508 2.65738 2.834 0
M  V30 1664 H 151.18 4.50526 0.991162 0
M  V30 1665 H 149.423 4.25105 0.864172 0
M  V30 1666 H 150.094 5.01391 2.30891 0
M  V30 1667 H 152.57 3.13497 2.73603 0
M  V30 1668 H 151.446 3.82992 3.93202 0
M  V30 1669 H 151.707 2.09328 3.89402 0
M  V30 1670 N 150.766 -0.704594 1.40972 0
M  V30 1671 C 152.012 -1.46675 1.40051 0
M  V30 1672 C 152.345 -1.94199 0.00641102 0
M  V30 1673 O 151.62 -1.68916 -0.964235 0
M  V30 1674 C 151.903 -2.68505 2.39952 0
M  V30 1675 C 151.756 -2.26805 3.88432 0
M  V30 1676 C 153.075 -3.70686 2.37233 0
M  V30 1677 H 150.194 -0.532015 0.510028 0
M  V30 1678 H 152.836 -0.803255 1.72185 0
M  V30 1679 H 150.986 -3.25114 2.1268 0
M  V30 1680 H 152.658 -1.75592 4.26574 0
M  V30 1681 H 150.901 -1.58685 4.03734 0
M  V30 1682 H 151.572 -3.14181 4.53866 0
M  V30 1683 H 154.048 -3.23731 2.61415 0
M  V30 1684 H 152.924 -4.53553 3.09162 0
M  V30 1685 H 153.185 -4.19754 1.38777 0
M  V30 1686 N 152.244 -1.26651 -0.937939 0
M  V30 1687 C 153.177 -1.02811 -2.03728 0
M  V30 1688 C 154.155 0.0481915 -1.62529 0
M  V30 1689 O 155.339 -0.0948839 -1.88261 0
M  V30 1690 C 152.466 -0.557517 -3.3408 0
M  V30 1691 C 151.512 -1.62686 -3.94253 0
M  V30 1692 S 152.345 -3.21667 -4.28125 0
M  V30 1693 C 153.501 -2.76384 -5.61572 0
M  V30 1694 H 153.734 -1.95891 -2.23638 0
M  V30 1695 H 151.267 -1.10367 -1.07974 0
M  V30 1696 H 153.225 -0.292674 -4.09455 0
M  V30 1697 H 151.886 0.353062 -3.12109 0
M  V30 1698 H 151.079 -1.24866 -4.88287 0
M  V30 1699 H 150.681 -1.84324 -3.25424 0
M  V30 1700 H 152.973 -2.2105 -6.40424 0
M  V30 1701 H 153.916 -3.69123 -6.0428 0
M  V30 1702 H 154.324 -2.15847 -5.21604 0
M  V30 1703 N 153.722 1.14298 -1.08507 0
M  V30 1704 C 154.97 1.84993 -0.813763 0
M  V30 1705 C 155.291 1.83405 0.662393 0
M  V30 1706 O 154.561 1.28319 1.48024 0
M  V30 1707 H 153.141 0.684966 -0.298045 0
M  V30 1708 H 155.803 1.385 -1.37126 0
M  V30 1709 H 154.899 2.89788 -1.15884 0
M  V30 1710 N 155.201 0.870884 1.31352 0
M  V30 1711 C 156.617 0.562932 1.49343 0
M  V30 1712 C 156.817 -0.902725 1.80148 0
M  V30 1713 O 155.873 -1.68484 1.88067 0
M  V30 1714 C 157.186 1.46393 2.62659 0
M  V30 1715 C 158.734 1.46607 2.76542 0
M  V30 1716 C 159.209 2.35266 3.92955 0
M  V30 1717 N 160.7 2.33151 4.00243 0
M  V30 1718 C 161.435 2.98471 4.89594 0
M  V30 1719 N 160.931 3.72964 5.8384 0
M  V30 1720 N 162.724 2.87775 4.82848 0
M  V30 1721 H 154.875 1.81923 1.09626 0
M  V30 1722 H 157.138 0.777934 0.541777 0
M  V30 1723 H 156.844 2.50689 2.46674 0
M  V30 1724 H 156.718 1.16314 3.58819 0
M  V30 1725 H 159.105 0.43069 2.9194 0
M  V30 1726 H 159.186 1.8071 1.81046 0
M  V30 1727 H 158.83 3.38881 3.78315 0
M  V30 1728 H 158.76 1.98487 4.87761 0
M  V30 1729 H 161.251 1.79006 3.32814 0
M  V30 1730 H 161.564 4.19932 6.4875 0
M  V30 1731 H 159.909 3.77073 5.83816 0
M  V30 1732 H 163.1 2.29116 4.08195 0
M  V30 1733 H 163.273 3.38961 5.52277 0
M  V30 1734 N 156.679 -1.44442 0.630414 0
M  V30 1735 C 157.907 -2.06414 0.141671 0
M  V30 1736 C 158.322 -1.47105 -1.18345 0
M  V30 1737 O 157.679 -0.593662 -1.72574 0
M  V30 1738 C 157.73 -3.61494 0.0199784 0
M  V30 1739 O 157.451 -4.18594 1.29269 0
M  V30 1740 C 158.952 -4.40499 -0.497544 0
M  V30 1741 H 156.172 -0.666292 0.0793452 0
M  V30 1742 H 158.716 -1.85323 0.864614 0
M  V30 1743 H 156.871 -3.8185 -0.653402 0
M  V30 1744 H 157.285 -5.12026 1.13707 0
M  V30 1745 H 158.759 -5.49433 -0.531708 0
M  V30 1746 H 159.236 -4.11895 -1.52445 0
M  V30 1747 H 159.842 -4.25061 0.142562 0
M  V30 1748 N 158.157 -0.370918 -1.53173 0
M  V30 1749 C 159.105 0.488101 -2.27421 0
M  V30 1750 C 160.099 1.07884 -1.30604 0
M  V30 1751 O 161.305 1.02143 -1.48212 0
M  V30 1752 H 157.68 0.176134 -0.731082 0
M  V30 1753 H 159.651 -0.159815 -2.97972 0
M  V30 1754 C 158.4 1.61306 -3.08019 0
M  V30 1755 H 157.723 1.1678 -3.82364 0
M  V30 1756 H 159.163 2.18872 -3.63141 0
M  V30 1757 C 157.622 2.55848 -2.19188 0
M  V30 1758 O 158.152 3.58799 -1.80626 0
M  V30 1759 N 156.358 2.2516 -1.83715 0
M  V30 1760 H 155.905 1.41476 -2.15273 0
M  V30 1761 H 155.863 2.8867 -1.24567 0
M  V30 1762 N 159.635 1.57281 -0.100228 0
M  V30 1763 C 160.881 1.95626 0.556946 0
M  V30 1764 C 161.236 0.981655 1.65473 0
M  V30 1765 O 160.529 0.00849847 1.91598 0
M  V30 1766 C 160.723 3.38305 1.15259 0
M  V30 1767 C 160.552 4.49555 0.114035 0
M  V30 1768 C 159.322 5.0434 -0.311266 0
M  V30 1769 C 161.52 5.10051 -0.659768 0
M  V30 1770 N 159.502 5.99152 -1.33755 0
M  V30 1771 C 160.873 6.00628 -1.53774 0
M  V30 1772 C 162.928 4.92772 -0.712723 0
M  V30 1773 C 161.631 6.7578 -2.46403 0
M  V30 1774 C 163.657 5.6859 -1.62663 0
M  V30 1775 C 163.019 6.58838 -2.49222 0
M  V30 1776 H 159.118 0.7624 0.173982 0
M  V30 1777 H 161.702 1.93829 -0.183988 0
M  V30 1778 H 159.873 3.40786 1.86332 0
M  V30 1779 H 161.605 3.63817 1.77254 0
M  V30 1780 H 158.36 4.73537 0.0774812 0
M  V30 1781 H 158.784 6.5126 -1.84905 0
M  V30 1782 H 163.426 4.22761 -0.0576648 0
M  V30 1783 H 161.144 7.4505 -3.12931 0
M  V30 1784 H 164.73 5.57233 -1.67281 0
M  V30 1785 H 163.61 7.16479 -3.18791 0
M  V30 1786 N 161.113 -0.173488 1.56642 0
M  V30 1787 C 162.023 -1.23482 1.99473 0
M  V30 1788 C 163.039 -1.48567 0.905752 0
M  V30 1789 O 164.215 -1.60758 1.21321 0
M  V30 1790 C 161.28 -2.55444 2.34413 0
M  V30 1791 C 160.341 -2.38241 3.57127 0
M  V30 1792 C 159.574 -3.63909 3.90392 0
M  V30 1793 O 159.797 -4.68996 3.24653 0
M  V30 1794 O 158.731 -3.58149 4.83749 0
M  V30 1795 H 162.557 -0.901279 2.90018 0
M  V30 1796 H 160.142 -0.380185 1.44482 0
M  V30 1797 H 162.024 -3.33292 2.57865 0
M  V30 1798 H 160.699 -2.88382 1.4703 0
M  V30 1799 H 159.606 -1.58431 3.38896 0
M  V30 1800 H 160.939 -2.10228 4.45045 0
M  V30 1801 N 162.591 -1.51276 -0.441967 0
M  V30 1802 C 163.816 -1.67799 -1.21895 0
M  V30 1803 C 164.241 -0.372864 -1.84367 0
M  V30 1804 O 163.599 0.666501 -1.68604 0
M  V30 1805 C 163.647 -2.79199 -2.28211 0
M  V30 1806 O 162.751 -2.42479 -3.33583 0
M  V30 1807 H 162.092 -0.559649 -0.357336 0
M  V30 1808 H 164.622 -1.97815 -0.522522 0
M  V30 1809 H 164.632 -3.03146 -2.73069 0
M  V30 1810 H 163.307 -3.73906 -1.82118 0
M  V30 1811 H 161.884 -2.29087 -2.94234 0
M  V30 1812 N 164.069 0.697108 -1.41344 0
M  V30 1813 C 165.318 1.45279 -1.39918 0
M  V30 1814 C 165.631 1.95597 -0.0109624 0
M  V30 1815 O 166.837 2.71208 0.125919 0
M  V30 1816 C 165.293 2.62695 -2.46007 0
M  V30 1817 C 164.901 2.19169 -3.90729 0
M  V30 1818 C 166.645 3.40336 -2.53715 0
M  V30 1819 C 164.552 3.33535 -4.88373 0
M  V30 1820 H 163.482 0.545692 -0.520323 0
M  V30 1821 H 166.133 0.756929 -1.67161 0
M  V30 1822 H 164.515 3.34541 -2.11892 0
M  V30 1823 H 165.689 1.54623 -4.34083 0
M  V30 1824 H 164.004 1.54525 -3.86666 0
M  V30 1825 H 166.601 4.2547 -3.2385 0
M  V30 1826 H 166.944 3.85418 -1.5735 0
M  V30 1827 H 167.477 2.75546 -2.86913 0
M  V30 1828 H 164.216 2.93468 -5.86137 0
M  V30 1829 H 163.736 3.96936 -4.49668 0
M  V30 1830 H 165.415 3.99335 -5.09059 0
M  V30 1831 N 165.547 1.27147 0.931209 0
M  V30 1832 C 166.958 1.12044 1.49342 0
M  V30 1833 C 167.309 -0.295795 1.93957 0
M  V30 1834 O 166.434 -1.18835 1.80852 0
M  V30 1835 C 167.029 2.02781 2.71414 0
M  V30 1836 C 165.588 1.91794 3.2387 0
M  V30 1837 C 164.735 1.95543 1.96617 0
M  V30 1838 H 167.686 1.40091 0.745672 0
M  V30 1839 H 167.707 1.58156 3.46074 0
M  V30 1840 H 167.219 3.05848 2.38911 0
M  V30 1841 H 165.32 0.916992 3.6114 0
M  V30 1842 H 165.433 2.77852 3.90302 0
M  V30 1843 H 163.797 1.39722 2.12955 0
M  V30 1844 H 164.58 3.00259 1.66432 0
M  V30 1845 N 167.025 -1.13721 1.09112 0
M  V30 1846 C 167.972 -2.19031 0.727591 0
M  V30 1847 C 168.942 -1.63555 -0.289656 0
M  V30 1848 O 170.127 -1.90023 -0.172026 0
M  V30 1849 C 167.267 -3.4477 0.15082 0
M  V30 1850 C 166.38 -4.14365 1.22172 0
M  V30 1851 C 165.515 -5.27709 0.608042 0
M  V30 1852 C 164.554 -5.89147 1.66047 0
M  V30 1853 N 163.691 -6.93929 1.06806 0
M  V30 1854 H 168.531 -2.49475 1.62991 0
M  V30 1855 H 166.068 -1.22499 0.81439 0
M  V30 1856 H 168.026 -4.16714 -0.201358 0
M  V30 1857 H 166.656 -3.14787 -0.714783 0
M  V30 1858 H 165.708 -3.40737 1.69122 0
M  V30 1859 H 167.02 -4.56114 2.01895 0
M  V30 1860 H 166.174 -6.06355 0.204523 0
M  V30 1861 H 164.913 -4.872 -0.220769 0
M  V30 1862 H 163.918 -5.09198 2.07357 0
M  V30 1863 H 165.143 -6.31729 2.49189 0
M  V30 1864 H 163.089 -6.55483 0.260476 0
M  V30 1865 H 163.006 -7.34202 1.8023 0
M  V30 1866 H 164.274 -7.76434 0.690644 0
M  V30 1867 N 168.503 -0.877838 -1.30888 0
M  V30 1868 C 169.45 -0.337538 -2.28318 0
M  V30 1869 C 170.42 0.568346 -1.56074 0
M  V30 1870 O 171.605 0.498298 -1.84178 0
M  V30 1871 C 168.745 0.448142 -3.42178 0
M  V30 1872 C 167.858 -0.48615 -4.29256 0
M  V30 1873 C 166.993 0.314427 -5.30269 0
M  V30 1874 C 166.032 -0.615791 -6.08995 0
M  V30 1875 N 165.169 0.14902 -7.01942 0
M  V30 1876 H 170.009 -1.17356 -2.73919 0
M  V30 1877 H 167.546 -0.590094 -1.34745 0
M  V30 1878 H 169.504 0.919517 -4.06941 0
M  V30 1879 H 168.134 1.24879 -2.97666 0
M  V30 1880 H 167.186 -1.076 -3.64865 0
M  V30 1881 H 168.498 -1.19909 -4.84173 0
M  V30 1882 H 167.652 0.847969 -6.00745 0
M  V30 1883 H 166.391 1.06062 -4.76027 0
M  V30 1884 H 165.396 -1.16102 -5.37401 0
M  V30 1885 H 166.621 -1.36097 -6.65323 0
M  V30 1886 H 164.567 0.877884 -6.50099 0
M  V30 1887 H 164.484 -0.504433 -7.54315 0
M  V30 1888 H 165.752 0.663537 -7.76671 0
M  V30 1889 N 169.982 1.44106 -0.638065 0
M  V30 1890 C 171.229 2.01978 -0.14533 0
M  V30 1891 C 171.557 1.50234 1.23532 0
M  V30 1892 O 170.812 0.679548 1.83523 0
M  V30 1893 C 171.111 3.5729 -0.0887327 0
M  V30 1894 C 170.777 4.28317 -1.40909 0
M  V30 1895 C 169.439 4.47437 -1.77069 0
M  V30 1896 C 171.791 4.6867 -2.28031 0
M  V30 1897 C 169.119 5.04171 -3.00047 0
M  V30 1898 C 171.471 5.26766 -3.50286 0
M  V30 1899 C 170.135 5.44104 -3.86661 0
M  V30 1900 H 169.405 0.739089 -0.0531801 0
M  V30 1901 H 172.052 1.72781 -0.825761 0
M  V30 1902 H 170.357 3.8594 0.675095 0
M  V30 1903 H 172.054 3.99807 0.309145 0
M  V30 1904 H 168.644 4.1377 -1.1177 0
M  V30 1905 H 172.828 4.53604 -2.01388 0
M  V30 1906 H 168.084 5.15782 -3.28298 0
M  V30 1907 H 172.258 5.56983 -4.18023 0
M  V30 1908 H 169.885 5.87832 -4.82034 0
M  V30 1909 N 171.46 0.379036 1.52974 0
M  V30 1910 C 172.407 -0.461048 2.26148 0
M  V30 1911 C 173.377 -1.06637 1.27349 0
M  V30 1912 O 174.562 -1.09633 1.56157 0
M  V30 1913 C 171.702 -1.58782 3.06402 0
M  V30 1914 C 170.815 -1.00636 4.20115 0
M  V30 1915 C 169.95 -2.10334 4.87784 0
M  V30 1916 C 168.989 -1.49724 5.93506 0
M  V30 1917 N 168.126 -2.5331 6.54812 0
M  V30 1918 H 172.966 0.169429 2.97518 0
M  V30 1919 H 170.503 0.0953806 1.4679 0
M  V30 1920 H 172.461 -2.25174 3.51215 0
M  V30 1921 H 171.091 -2.18876 2.37261 0
M  V30 1922 H 170.143 -0.232332 3.7969 0
M  V30 1923 H 171.455 -0.523343 4.96047 0
M  V30 1924 H 170.609 -2.84519 5.35849 0
M  V30 1925 H 169.348 -2.61992 4.11353 0
M  V30 1926 H 168.353 -0.740598 5.44789 0
M  V30 1927 H 169.578 -0.988732 6.71864 0
M  V30 1928 H 167.524 -3.04156 5.81227 0
M  V30 1929 H 167.441 -2.09734 7.26325 0
M  V30 1930 H 168.709 -3.27155 7.07524 0
M  V30 1931 N 172.938 -1.57226 0.108567 0
M  V30 1932 C 174.349 -1.8195 -0.418464 0
M  V30 1933 C 174.7 -1.02508 -1.67292 0
M  V30 1934 O 173.825 -0.258496 -2.14851 0
M  V30 1935 C 174.42 -3.30028 -0.765979 0
M  V30 1936 C 172.979 -3.55469 -1.23769 0
M  V30 1937 C 172.126 -2.7625 -0.241106 0
M  V30 1938 H 175.077 -1.55149 0.33384 0
M  V30 1939 H 175.098 -3.44086 -1.62434 0
M  V30 1940 H 174.61 -3.87821 0.147219 0
M  V30 1941 H 172.711 -3.03022 -2.16814 0
M  V30 1942 H 172.824 -4.6408 -1.19022 0
M  V30 1943 H 171.188 -2.44133 -0.72602 0
M  V30 1944 H 171.971 -3.36797 0.665007 0
M  V30 1945 N 174.416 0.165178 -1.56732 0
M  V30 1946 C 175.346 1.20651 -1.99914 0
M  V30 1947 C 176.327 1.45827 -0.875705 0
M  V30 1948 O 177.512 1.57057 -1.14223 0
M  V30 1949 C 174.642 2.54401 -2.36427 0
M  V30 1950 C 173.596 2.43782 -3.51787 0
M  V30 1951 C 172.922 3.82078 -3.7406 0
M  V30 1952 C 174.222 1.93732 -4.85041 0
M  V30 1953 H 175.916 0.847534 -2.87154 0
M  V30 1954 H 173.462 0.40625 -1.38151 0
M  V30 1955 H 175.415 3.27458 -2.65234 0
M  V30 1956 H 174.139 2.92098 -1.46103 0
M  V30 1957 H 172.798 1.73178 -3.23117 0
M  V30 1958 H 172.446 4.17179 -2.81017 0
M  V30 1959 H 172.146 3.7584 -4.51684 0
M  V30 1960 H 173.67 4.56712 -4.05274 0
M  V30 1961 H 175.084 2.56569 -5.12684 0
M  V30 1962 H 173.481 1.98428 -5.66345 0
M  V30 1963 H 174.551 0.891962 -4.76626 0
M  V30 1964 N 175.894 1.51508 0.433938 0
M  V30 1965 C 177.119 1.68443 1.21003 0
M  V30 1966 C 177.544 0.382636 1.84167 0
M  V30 1967 O 176.902 -0.65755 1.68956 0
M  V30 1968 C 176.95 2.80405 2.26727 0
M  V30 1969 O 176.054 2.44245 3.32292 0
M  V30 1970 H 175.395 0.561536 0.354363 0
M  V30 1971 H 177.925 1.9809 0.512024 0
M  V30 1972 H 177.935 3.0459 2.71457 0
M  V30 1973 H 176.61 3.74867 1.80132 0
M  V30 1974 H 175.187 2.30644 2.93015 0
M  V30 1975 N 177.372 -0.689602 1.41712 0
M  V30 1976 C 178.32 -1.82475 1.44242 0
M  V30 1977 C 179.314 -1.66354 0.319774 0
M  V30 1978 O 180.52 -1.73143 0.492089 0
M  V30 1979 H 176.895 -0.601416 0.451445 0
M  V30 1980 H 178.866 -1.77458 2.39899 0
M  V30 1981 C 177.615 -3.20535 1.3473 0
M  V30 1982 H 176.938 -3.33559 2.20405 0
M  V30 1983 H 178.378 -4.00023 1.40562 0
M  V30 1984 C 176.837 -3.36846 0.0603281 0
M  V30 1985 O 177.367 -3.91656 -0.892663 0
M  V30 1986 N 175.573 -2.90595 -0.0177039 0
M  V30 1987 H 175.12 -2.46178 0.758572 0
M  V30 1988 H 175.078 -3.01886 -0.878201 0
M  V30 1989 N 178.85 -1.27639 -0.924453 0
M  V30 1990 C 180.266 -1.05113 -1.20097 0
M  V30 1991 C 180.466 0.213262 -2.00368 0
M  V30 1992 O 179.522 0.91787 -2.35226 0
M  V30 1993 C 180.835 -2.29244 -1.94596 0
M  V30 1994 C 182.383 -2.34315 -2.07522 0
M  V30 1995 C 182.858 -3.58183 -2.85427 0
M  V30 1996 N 184.349 -3.5876 -2.92994 0
M  V30 1997 C 185.084 -4.51277 -3.53746 0
M  V30 1998 N 184.58 -5.54102 -4.15863 0
M  V30 1999 N 186.373 -4.38894 -3.51181 0
M  V30 2000 H 178.524 -2.08821 -0.388264 0
M  V30 2001 H 180.787 -0.918568 -0.234385 0
M  V30 2002 H 180.493 -3.21301 -1.43034 0
M  V30 2003 H 180.367 -2.34816 -2.95197 0
M  V30 2004 H 182.754 -1.42762 -2.58269 0
M  V30 2005 H 182.835 -2.32744 -1.06131 0
M  V30 2006 H 182.479 -4.50074 -2.35363 0
M  V30 2007 H 182.409 -3.57006 -3.8711 0
M  V30 2008 H 184.9 -2.84398 -2.4885 0
M  V30 2009 H 185.213 -6.20859 -4.60168 0
M  V30 2010 H 183.558 -5.57941 -4.144 0
M  V30 2011 H 186.749 -3.57772 -3.01856 0
M  V30 2012 H 186.922 -5.11186 -3.98237 0
M  V30 2013 N 180.328 1.1314 -1.09713 0
M  V30 2014 C 181.577 1.83838 -0.829851 0
M  V30 2015 C 181.89 1.84599 0.646728 0
M  V30 2016 O 183.096 2.51218 1.02965 0
M  V30 2017 C 181.552 3.30069 -1.43466 0
M  V30 2018 C 181.16 3.37688 -2.94399 0
M  V30 2019 C 182.904 4.05788 -1.24645 0
M  V30 2020 C 180.811 4.78209 -3.47952 0
M  V30 2021 H 179.741 0.68877 -0.306777 0
M  V30 2022 H 182.392 1.27448 -1.3202 0
M  V30 2023 H 180.774 3.8628 -0.871996 0
M  V30 2024 H 181.948 2.91456 -3.56918 0
M  V30 2025 H 180.263 2.75436 -3.12289 0
M  V30 2026 H 182.86 5.09535 -1.62107 0
M  V30 2027 H 183.203 4.15878 -0.187357 0
M  V30 2028 H 183.736 3.55915 -1.77678 0
M  V30 2029 H 180.475 4.73311 -4.53495 0
M  V30 2030 H 179.995 5.24924 -2.90198 0
M  V30 2031 H 181.674 5.47133 -3.45332 0
M  V30 2032 N 181.806 0.884767 1.30421 0
M  V30 2033 C 182.754 0.340869 2.30089 0
M  V30 2034 C 183.748 -0.55201 1.60154 0
M  V30 2035 O 184.954 -0.436467 1.74628 0
M  V30 2036 H 181.329 0.0915739 0.746404 0
M  V30 2037 H 183.3 1.19513 2.73421 0
M  V30 2038 C 182.049 -0.429779 3.45034 0
M  V30 2039 H 181.372 0.248024 3.9903 0
M  V30 2040 H 182.812 -0.775445 4.16849 0
M  V30 2041 C 181.271 -1.62677 2.95022 0
M  V30 2042 O 181.801 -2.72614 2.95033 0
M  V30 2043 N 180.007 -1.46387 2.51036 0
M  V30 2044 H 179.554 -0.569506 2.51226 0
M  V30 2045 H 179.512 -2.26612 2.17932 0
M  V30 2046 N 183.284 -1.43765 0.645699 0
M  V30 2047 C 184.53 -2.02197 0.156271 0
M  V30 2048 C 184.863 -1.50776 -1.22393 0
M  V30 2049 O 184.138 -0.697771 -1.81553 0
M  V30 2050 C 184.421 -3.59749 0.158872 0
M  V30 2051 C 184.274 -4.21419 1.57245 0
M  V30 2052 C 185.593 -4.37149 -0.50879 0
M  V30 2053 H 182.712 -0.734694 0.0582602 0
M  V30 2054 H 185.354 -1.71157 0.824951 0
M  V30 2055 H 183.504 -3.86325 -0.410525 0
M  V30 2056 H 185.176 -4.059 2.19186 0
M  V30 2057 H 183.419 -3.78356 2.122 0
M  V30 2058 H 184.09 -5.30482 1.52619 0
M  V30 2059 H 186.566 -4.16093 -0.024412 0
M  V30 2060 H 185.442 -5.4683 -0.476213 0
M  V30 2061 H 185.703 -4.12839 -1.58165 0
M  V30 2062 N 184.763 -0.387143 -1.52771 0
M  V30 2063 C 186.012 0.19697 -2.00736 0
M  V30 2064 C 186.325 1.48082 -1.27793 0
M  V30 2065 O 187.531 2.14485 -1.66458 0
M  V30 2066 C 185.987 0.401568 -3.57653 0
M  V30 2067 C 185.595 -0.868907 -4.39493 0
M  V30 2068 C 187.339 0.942164 -4.13912 0
M  V30 2069 C 185.246 -0.632705 -5.88006 0
M  V30 2070 H 184.176 0.0773827 -0.750019 0
M  V30 2071 H 186.827 -0.50921 -1.76293 0
M  V30 2072 H 185.209 1.16954 -3.78335 0
M  V30 2073 H 186.383 -1.64133 -4.30577 0
M  V30 2074 H 184.698 -1.33429 -3.94443 0
M  V30 2075 H 187.295 1.13455 -5.22525 0
M  V30 2076 H 187.638 1.9106 -3.69867 0
M  V30 2077 H 188.171 0.233814 -3.97112 0
M  V30 2078 H 184.91 -1.57208 -6.36369 0
M  V30 2079 H 184.43 0.100825 -5.99715 0
M  V30 2080 H 186.109 -0.26642 -6.46451 0
M  V30 2081 N 186.241 1.57166 -0.116904 0
M  V30 2082 C 187.171 2.18222 0.830759 0
M  V30 2083 C 188.152 1.12167 1.27877 0
M  V30 2084 O 189.337 1.40394 1.34176 0
M  V30 2085 C 186.467 2.77996 2.08172 0
M  V30 2086 C 185.421 3.89614 1.77157 0
M  V30 2087 C 184.747 4.36187 3.09265 0
M  V30 2088 C 186.047 5.1181 1.04151 0
M  V30 2089 H 187.741 2.97664 0.321992 0
M  V30 2090 H 185.287 1.4318 0.153434 0
M  V30 2091 H 187.24 3.19366 2.74924 0
M  V30 2092 H 185.964 1.9584 2.6137 0
M  V30 2093 H 184.623 3.48816 1.12796 0
M  V30 2094 H 184.271 3.50893 3.60393 0
M  V30 2095 H 183.971 5.11455 2.89288 0
M  V30 2096 H 185.495 4.80207 3.77139 0
M  V30 2097 H 186.909 5.50214 1.61052 0
M  V30 2098 H 185.306 5.92648 0.942762 0
M  V30 2099 H 186.376 4.84892 0.0279022 0
M  V30 2100 N 187.719 -0.156864 1.56817 0
M  V30 2101 C 188.944 -0.890331 1.87318 0
M  V30 2102 C 189.369 -1.74394 0.704855 0
M  V30 2103 O 188.727 -1.77972 -0.345786 0
M  V30 2104 C 188.775 -1.73102 3.16336 0
M  V30 2105 O 187.879 -2.83422 2.99576 0
M  V30 2106 H 187.22 -0.24857 0.615718 0
M  V30 2107 H 189.75 -0.150649 2.04045 0
M  V30 2108 H 189.76 -2.12803 3.48107 0
M  V30 2109 H 188.435 -1.10412 4.00976 0
M  V30 2110 H 187.012 -2.47199 2.7919 0
M  V30 2111 N 189.197 -1.51736 -0.425897 0
M  V30 2112 C 190.613 -1.40166 -0.76326 0
M  V30 2113 C 190.813 -0.492962 -1.95377 0
M  V30 2114 O 189.869 0.0475815 -2.52455 0
M  V30 2115 C 191.182 -2.82403 -1.03291 0
M  V30 2116 C 192.73 -2.91632 -1.13665 0
M  V30 2117 C 193.205 -4.34801 -1.43916 0
M  V30 2118 N 194.696 -4.3796 -1.50816 0
M  V30 2119 C 195.431 -5.4578 -1.75817 0
M  V30 2120 N 194.927 -6.63744 -1.98534 0
M  V30 2121 N 196.72 -5.33274 -1.77694 0
M  V30 2122 H 188.871 -2.09361 0.358 0
M  V30 2123 H 191.134 -0.942941 0.0978094 0
M  V30 2124 H 190.84 -3.50943 -0.230696 0
M  V30 2125 H 190.714 -3.22428 -1.95754 0
M  V30 2126 H 193.101 -2.23284 -1.92947 0
M  V30 2127 H 193.182 -2.55088 -0.190756 0
M  V30 2128 H 192.826 -5.03703 -0.65157 0
M  V30 2129 H 192.756 -4.68868 -2.39729 0
M  V30 2130 H 195.247 -3.52919 -1.35118 0
M  V30 2131 H 195.56 -7.41704 -2.17013 0
M  V30 2132 H 193.905 -6.66839 -1.95832 0
M  V30 2133 H 197.096 -4.40098 -1.59473 0
M  V30 2134 H 197.269 -6.1738 -1.9684 0
M  V30 2135 N 190.675 0.682077 -1.42076 0
M  V30 2136 C 191.903 1.47057 -1.4554 0
M  V30 2137 C 192.318 1.8869 -0.0645779 0
M  V30 2138 O 191.675 1.57666 0.919115 0
M  V30 2139 C 191.726 2.72442 -2.37609 0
M  V30 2140 O 191.447 2.32559 -3.71279 0
M  V30 2141 C 192.948 3.66069 -2.50017 0
M  V30 2142 H 190.168 0.452737 -0.495248 0
M  V30 2143 H 192.712 0.838695 -1.8651 0
M  V30 2144 H 190.867 3.31835 -1.9991 0
M  V30 2145 H 191.281 3.13475 -4.20516 0
M  V30 2146 H 192.755 4.50792 -3.18576 0
M  V30 2147 H 193.232 4.11476 -1.53572 0
M  V30 2148 H 193.838 3.12572 -2.88407 0
M  V30 2149 N 192.153 1.28127 0.917671 0
M  V30 2150 C 193.083 1.14248 2.03641 0
M  V30 2151 C 194.064 0.0412748 1.7005 0
M  V30 2152 O 195.249 0.217566 1.92977 0
M  V30 2153 C 192.379 0.799431 3.37974 0
M  V30 2154 C 191.333 1.85497 3.85713 0
M  V30 2155 C 190.659 1.36565 5.16966 0
M  V30 2156 C 191.959 3.26085 4.08002 0
M  V30 2157 H 193.653 2.07835 2.15511 0
M  V30 2158 H 191.199 1.00064 1.03553 0
M  V30 2159 H 193.152 0.689114 4.15727 0
M  V30 2160 H 191.876 -0.172145 3.26146 0
M  V30 2161 H 190.535 1.95437 3.10161 0
M  V30 2162 H 190.183 0.383253 5.01538 0
M  V30 2163 H 189.883 2.07143 5.49878 0
M  V30 2164 H 191.407 1.26848 5.97279 0
M  V30 2165 H 192.821 3.19089 4.76293 0
M  V30 2166 H 191.218 3.94462 4.52238 0
M  V30 2167 H 192.288 3.70394 3.12948 0
M  V30 2168 N 193.631 -1.12557 1.10312 0
M  V30 2169 C 194.578 -2.18247 0.750781 0
M  V30 2170 C 195.548 -1.63853 -0.272293 0
M  V30 2171 O 196.733 -1.90195 -0.151862 0
M  V30 2172 C 193.873 -3.44591 0.187379 0
M  V30 2173 C 192.986 -4.13046 1.2656 0
M  V30 2174 C 192.121 -5.27034 0.663978 0
M  V30 2175 C 191.16 -5.87353 1.72287 0
M  V30 2176 N 190.297 -6.92757 1.1416 0
M  V30 2177 H 195.137 -2.47732 1.65628 0
M  V30 2178 H 192.674 -1.21629 0.827337 0
M  V30 2179 H 194.632 -4.16904 -0.157148 0
M  V30 2180 H 193.262 -3.15527 -0.681355 0
M  V30 2181 H 192.314 -3.38924 1.72727 0
M  V30 2182 H 193.626 -4.53947 2.06721 0
M  V30 2183 H 192.78 -6.06104 0.268824 0
M  V30 2184 H 191.519 -4.87407 -0.169082 0
M  V30 2185 H 190.524 -5.06971 2.12746 0
M  V30 2186 H 191.749 -6.29051 2.55875 0
M  V30 2187 H 189.695 -6.5517 0.329984 0
M  V30 2188 H 189.612 -7.3225 1.88007 0
M  V30 2189 H 190.88 -7.75658 0.772956 0
M  V30 2190 N 195.109 -0.891671 -1.2995 0
M  V30 2191 C 196.056 -0.361736 -2.27948 0
M  V30 2192 C 197.026 0.551761 -1.56668 0
M  V30 2193 O 198.211 0.478736 -1.84696 0
M  V30 2194 C 195.351 0.411825 -3.42634 0
M  V30 2195 C 194.464 -0.531651 -4.28716 0
M  V30 2196 C 193.599 0.258167 -5.30572 0
M  V30 2197 C 192.638 -0.680349 -6.08307 0
M  V30 2198 N 191.775 0.0745613 -7.0206 0
M  V30 2199 H 196.615 -1.20254 -2.72659 0
M  V30 2200 H 194.152 -0.604352 -1.34112 0
M  V30 2201 H 196.11 0.876304 -4.07893 0
M  V30 2202 H 194.74 1.21715 -2.98974 0
M  V30 2203 H 193.792 -1.11463 -3.63703 0
M  V30 2204 H 195.104 -1.25038 -4.82874 0
M  V30 2205 H 194.258 0.784204 -6.0161 0
M  V30 2206 H 192.997 1.01008 -4.77126 0
M  V30 2207 H 192.002 -1.21796 -5.3614 0
M  V30 2208 H 193.227 -1.43145 -6.63842 0
M  V30 2209 H 191.173 0.808883 -6.50994 0
M  V30 2210 H 191.09 -0.584409 -7.53738 0
M  V30 2211 H 192.358 0.581123 -7.77331 0
M  V30 2212 N 196.587 1.43421 -0.653314 0
M  V30 2213 C 197.497 2.34568 0.0388565 0
M  V30 2214 C 198.513 1.53888 0.81207 0
M  V30 2215 O 199.689 1.86539 0.759294 0
M  V30 2216 C 196.754 3.32167 0.993269 0
M  V30 2217 C 195.815 4.28751 0.216977 0
M  V30 2218 C 195.048 5.21688 1.12593 0
M  V30 2219 O 195.271 5.19052 2.36519 0
M  V30 2220 O 194.205 5.98919 0.598284 0
M  V30 2221 H 198.031 2.95251 -0.711386 0
M  V30 2222 H 195.616 1.43564 -0.413502 0
M  V30 2223 H 197.498 3.92183 1.54176 0
M  V30 2224 H 196.173 2.73987 1.72374 0
M  V30 2225 H 195.08 3.72215 -0.375101 0
M  V30 2226 H 196.413 4.89913 -0.473924 0
M  V30 2227 N 198.065 0.39524 1.52563 0
M  V30 2228 C 199.342 -0.242908 1.94086 0
M  V30 2229 C 199.722 -1.63841 1.33114 0
M  V30 2230 O 199.07 -2.22928 0.501529 0
M  V30 2231 C 199.28 -0.26327 3.48006 0
M  V30 2232 C 200.628 -0.489354 4.21771 0
M  V30 2233 O 201.652 -0.343226 3.54543 0
M  V30 2234 O 200.511 -0.776169 5.4096 0
M  V30 2235 H 197.605 -0.152536 0.812811 0
M  V30 2236 H 200.151 0.450178 1.6362 0
M  V30 2237 H 198.923 0.713985 3.84731 0
M  V30 2238 H 198.546 -1.00103 3.84792 0
M  V30 2239 N 199.544 -1.57102 0.125237 0
M  V30 2240 C 200.791 -1.95407 -0.531248 0
M  V30 2241 C 201.119 -1.0089 -1.66287 0
M  V30 2242 O 200.374 -0.0339431 -1.95671 0
M  V30 2243 C 200.673 -3.40096 -1.09862 0
M  V30 2244 C 200.339 -4.50815 -0.0876989 0
M  V30 2245 C 199.001 -4.80824 0.19026 0
M  V30 2246 C 201.353 -5.17724 0.600902 0
M  V30 2247 C 198.681 -5.75058 1.163 0
M  V30 2248 C 201.033 -6.13005 1.56231 0
M  V30 2249 C 199.697 -6.41403 1.8482 0
M  V30 2250 H 198.967 -0.715046 -0.194397 0
M  V30 2251 H 201.614 -1.90373 0.207463 0
M  V30 2252 H 199.919 -3.41855 -1.91422 0
M  V30 2253 H 201.616 -3.6705 -1.61478 0
M  V30 2254 H 198.206 -4.27444 -0.314528 0
M  V30 2255 H 202.39 -4.94691 0.399333 0
M  V30 2256 H 197.646 -5.95362 1.39117 0
M  V30 2257 H 201.82 -6.63934 2.10153 0
M  V30 2258 H 199.447 -7.14229 2.60349 0
M  V30 2259 N 201.022 0.148545 -1.56898 0
M  V30 2260 C 202.299 0.890019 -1.74178 0
M  V30 2261 C 202.679 1.99407 -0.692839 0
M  V30 2262 O 202.027 2.26671 0.288505 0
M  V30 2263 C 202.237 1.43389 -3.18183 0
M  V30 2264 C 203.585 1.89791 -3.79822 0
M  V30 2265 O 204.609 1.53134 -3.21603 0
M  V30 2266 O 203.468 2.57387 -4.82093 0
M  V30 2267 H 200.562 0.420496 -0.712118 0
M  V30 2268 H 203.108 0.134591 -1.69165 0
M  V30 2269 H 201.88 0.640383 -3.86024 0
M  V30 2270 H 201.503 2.25287 -3.27615 0
M  V30 2271 N 202.5 1.5196 0.417844 0
M  V30 2272 C 203.41 1.77554 1.53336 0
M  V30 2273 C 204.426 0.660655 1.6097 0
M  V30 2274 O 205.602 0.945099 1.77848 0
M  V30 2275 C 202.667 1.91291 2.89152 0
M  V30 2276 C 201.728 3.15183 2.91475 0
M  V30 2277 C 200.961 3.28256 4.20813 0
M  V30 2278 O 201.184 2.46798 5.14244 0
M  V30 2279 O 200.118 4.21356 4.29817 0
M  V30 2280 H 203.944 2.7222 1.34647 0
M  V30 2281 H 201.529 1.36698 0.602828 0
M  V30 2282 H 203.411 2.02199 3.69721 0
M  V30 2283 H 202.086 0.998129 3.07927 0
M  V30 2284 H 200.993 3.09739 2.09791 0
M  V30 2285 H 202.326 4.06414 2.77648 0
M  V30 2286 N 203.978 -0.674533 1.42435 0
M  V30 2287 C 205.255 -1.4305 1.33402 0
M  V30 2288 C 205.635 -2.11081 -0.0284674 0
M  V30 2289 O 204.983 -2.03257 -1.04397 0
M  V30 2290 C 205.193 -2.43272 2.50239 0
M  V30 2291 C 206.541 -3.07907 2.92367 0
M  V30 2292 O 207.565 -2.53599 2.50132 0
M  V30 2293 O 206.424 -4.0632 3.65467 0
M  V30 2294 H 203.518 -0.638076 0.526106 0
M  V30 2295 H 206.064 -0.703235 1.54443 0
M  V30 2296 H 204.836 -1.91803 3.41068 0
M  V30 2297 H 204.459 -3.23479 2.31186 0
M  V30 2298 N 205.456 -1.28612 -0.910864 0
M  V30 2299 C 206.702 -1.16106 -1.66274 0
M  V30 2300 C 207.035 0.289113 -1.92036 0
M  V30 2301 O 206.31 1.21 -1.52281 0
M  V30 2302 C 206.593 -1.96309 -3.01885 0
M  V30 2303 C 206.446 -3.49405 -2.8326 0
M  V30 2304 C 207.765 -1.78076 -4.02463 0
M  V30 2305 H 204.884 -0.423152 -0.603417 0
M  V30 2306 H 207.526 -1.57961 -1.05586 0
M  V30 2307 H 205.676 -1.60742 -3.53687 0
M  V30 2308 H 207.348 -3.94894 -2.38446 0
M  V30 2309 H 205.591 -3.74893 -2.18261 0
M  V30 2310 H 206.262 -4.00784 -3.79574 0
M  V30 2311 H 208.738 -2.0912 -3.59733 0
M  V30 2312 H 207.614 -2.36561 -4.95308 0
M  V30 2313 H 207.875 -0.733008 -4.35981 0
M  V30 2314 N 206.934 1.1197 -1.10907 0
M  V30 2315 C 208.164 1.8713 -0.875553 0
M  V30 2316 C 208.572 1.8016 0.577843 0
M  V30 2317 O 207.915 1.17699 1.41042 0
M  V30 2318 C 207.977 3.37005 -1.2517 0
M  V30 2319 C 207.641 3.67748 -2.71313 0
M  V30 2320 C 208.638 3.65698 -3.69542 0
M  V30 2321 C 206.323 3.96928 -3.07821 0
M  V30 2322 C 208.317 3.92395 -5.023 0
M  V30 2323 C 206.004 4.23284 -4.40765 0
M  V30 2324 C 207.002 4.21005 -5.37814 0
M  V30 2325 O 206.69 4.46704 -6.68364 0
M  V30 2326 H 206.422 0.598786 -0.313737 0
M  V30 2327 H 208.976 1.42568 -1.47863 0
M  V30 2328 H 207.206 3.82146 -0.591741 0
M  V30 2329 H 208.895 3.93519 -0.994877 0
M  V30 2330 H 209.661 3.43211 -3.42682 0
M  V30 2331 H 205.54 3.97841 -2.32902 0
M  V30 2332 H 209.084 3.90531 -5.78041 0
M  V30 2333 H 204.981 4.45246 -4.67361 0
M  V30 2334 H 205.749 4.64299 -6.74069 0
M  V30 2335 N 208.412 0.89855 1.29475 0
M  V30 2336 C 209.661 0.519863 1.94885 0
M  V30 2337 C 209.974 -0.9383 1.71625 0
M  V30 2338 O 211.18 -1.42445 2.31131 0
M  V30 2339 C 209.636 0.878836 3.49005 0
M  V30 2340 C 209.244 2.35569 3.81066 0
M  V30 2341 C 210.988 0.570004 4.20656 0
M  V30 2342 C 208.895 2.65558 5.28425 0
M  V30 2343 H 207.825 0.190692 0.729488 0
M  V30 2344 H 210.476 1.09539 1.47219 0
M  V30 2345 H 208.858 0.232253 3.95318 0
M  V30 2346 H 210.032 3.04773 3.45616 0
M  V30 2347 H 208.347 2.63343 3.22552 0
M  V30 2348 H 210.944 0.770925 5.29113 0
M  V30 2349 H 211.287 -0.491404 4.1339 0
M  V30 2350 H 211.82 1.17438 3.8007 0
M  V30 2351 H 208.559 3.70493 5.40754 0
M  V30 2352 H 208.079 2.00977 5.65127 0
M  V30 2353 H 209.758 2.51765 5.96006 0
M  V30 2354 N 209.89 -1.43072 0.660911 0
M  V30 2355 C 211.139 -2.00942 0.174735 0
M  V30 2356 C 211.452 -1.52797 -1.22117 0
M  V30 2357 O 212.658 -2.02991 -1.80297 0
M  V30 2358 C 211.114 -3.58948 0.261559 0
M  V30 2359 C 210.722 -4.16085 1.66064 0
M  V30 2360 C 212.466 -4.24173 -0.166617 0
M  V30 2361 C 210.373 -5.6641 1.70098 0
M  V30 2362 H 209.303 -0.751483 0.0615631 0
M  V30 2363 H 211.954 -1.63955 0.824069 0
M  V30 2364 H 210.336 -3.93372 -0.455421 0
M  V30 2365 H 211.51 -3.93147 2.40359 0
M  V30 2366 H 209.825 -3.6326 2.03546 0
M  V30 2367 H 212.422 -5.34471 -0.156433 0
M  V30 2368 H 212.765 -3.98647 -1.19943 0
M  V30 2369 H 213.298 -3.94659 0.498875 0
M  V30 2370 H 210.037 -5.96715 2.71315 0
M  V30 2371 H 209.557 -5.91382 1.00139 0
M  V30 2372 H 211.236 -6.30585 1.44816 0
M  V30 2373 N 211.368 -0.403325 -1.52352 0
M  V30 2374 C 212.316 0.439752 -2.28405 0
M  V30 2375 C 213.31 1.05089 -1.32863 0
M  V30 2376 O 214.516 0.989759 -1.50345 0
M  V30 2377 H 210.891 0.160587 -0.734653 0
M  V30 2378 H 212.862 -0.222983 -2.97566 0
M  V30 2379 C 211.611 1.54736 -3.11371 0
M  V30 2380 H 210.934 1.08643 -3.84755 0
M  V30 2381 H 212.374 2.1112 -3.67701 0
M  V30 2382 C 210.833 2.51141 -2.24566 0
M  V30 2383 O 211.363 3.54887 -1.88196 0
M  V30 2384 N 209.569 2.21213 -1.8845 0
M  V30 2385 H 209.116 1.36878 -2.18225 0
M  V30 2386 H 209.074 2.85963 -1.30662 0
M  V30 2387 N 212.846 1.57033 -0.133567 0
M  V30 2388 C 213.793 2.16074 0.811208 0
M  V30 2389 C 214.763 1.08979 1.2535 0
M  V30 2390 O 215.948 1.36958 1.32843 0
M  V30 2391 C 213.088 2.77595 2.05024 0
M  V30 2392 C 212.201 3.99042 1.65498 0
M  V30 2393 C 211.336 4.48603 2.84479 0
M  V30 2394 C 210.375 5.62547 2.41262 0
M  V30 2395 N 209.512 6.06787 3.53206 0
M  V30 2396 H 214.352 2.96477 0.300906 0
M  V30 2397 H 211.889 1.46462 0.136822 0
M  V30 2398 H 213.847 3.11402 2.77642 0
M  V30 2399 H 212.477 1.99859 2.53488 0
M  V30 2400 H 211.529 3.71302 0.826981 0
M  V30 2401 H 212.841 4.81629 1.29748 0
M  V30 2402 H 211.995 4.84395 3.65303 0
M  V30 2403 H 210.734 3.64995 3.23465 0
M  V30 2404 H 209.739 5.26345 1.58874 0
M  V30 2405 H 210.964 6.47931 2.03377 0
M  V30 2406 H 208.91 5.26117 3.91838 0
M  V30 2407 H 208.827 6.84266 3.21427 0
M  V30 2408 H 210.095 6.4722 4.34427 0
M  V30 2409 N 214.325 -0.140222 1.56975 0
M  V30 2410 C 215.571 -0.852949 1.83991 0
M  V30 2411 C 215.904 -1.80512 0.716187 0
M  V30 2412 O 215.179 -1.92479 -0.279681 0
M  V30 2413 C 215.462 -1.6215 3.21527 0
M  V30 2414 C 215.315 -0.690363 4.4447 0
M  V30 2415 C 216.634 -2.58247 3.56366 0
M  V30 2416 H 213.753 -0.308634 0.669264 0
M  V30 2417 H 216.395 -0.117898 1.89634 0
M  V30 2418 H 214.545 -2.24812 3.16847 0
M  V30 2419 H 216.217 -0.0742264 4.6124 0
M  V30 2420 H 214.46 -0.000396433 4.338 0
M  V30 2421 H 215.131 -1.2643 5.37326 0
M  V30 2422 H 217.607 -2.05701 3.61699 0
M  V30 2423 H 216.483 -3.09067 4.53617 0
M  V30 2424 H 216.744 -3.39923 2.82674 0
M  V30 2425 N 215.803 -1.52179 -0.40978 0
M  V30 2426 C 216.713 -1.78364 -1.52392 0
M  V30 2427 C 217.729 -0.669183 -1.60617 0
M  V30 2428 O 218.905 -0.954518 -1.77344 0
M  V30 2429 C 215.97 -1.92822 -2.88133 0
M  V30 2430 C 215.031 -3.16725 -2.898 0
M  V30 2431 C 214.264 -3.30483 -4.19067 0
M  V30 2432 O 214.487 -2.49522 -5.12928 0
M  V30 2433 O 213.421 -4.2363 -4.27576 0
M  V30 2434 H 217.247 -2.72931 -1.33201 0
M  V30 2435 H 214.832 -1.37016 -0.59557 0
M  V30 2436 H 216.714 -2.04157 -3.68643 0
M  V30 2437 H 215.389 -1.01444 -3.07393 0
M  V30 2438 H 214.296 -3.10848 -2.08146 0
M  V30 2439 H 215.629 -4.07881 -2.75489 0
M  V30 2440 N 217.281 0.66697 -1.42791 0
M  V30 2441 C 218.558 1.4234 -1.34159 0
M  V30 2442 C 218.938 2.11093 0.0172729 0
M  V30 2443 O 218.286 2.03808 1.03318 0
M  V30 2444 C 218.496 2.41942 -2.51526 0
M  V30 2445 C 219.844 3.06353 -2.93995 0
M  V30 2446 O 220.868 2.52269 -2.51473 0
M  V30 2447 O 219.727 4.04376 -3.67617 0
M  V30 2448 H 216.821 0.635277 -0.529483 0
M  V30 2449 H 219.367 0.695034 -1.54814 0
M  V30 2450 H 218.139 1.89991 -3.42081 0
M  V30 2451 H 217.762 3.22249 -2.32898 0
M  V30 2452 N 218.759 1.29093 0.90403 0
M  V30 2453 C 219.689 1.16401 2.02418 0
M  V30 2454 C 220.67 0.0593085 1.69997 0
M  V30 2455 O 221.855 0.238021 1.92736 0
M  V30 2456 C 218.985 0.835233 3.37107 0
M  V30 2457 C 217.939 1.89578 3.83724 0
M  V30 2458 C 217.265 1.42041 5.15489 0
M  V30 2459 C 218.565 3.30394 4.04521 0
M  V30 2460 H 220.259 2.10109 2.13295 0
M  V30 2461 H 217.805 1.01157 1.02486 0
M  V30 2462 H 219.758 0.733169 4.14973 0
M  V30 2463 H 218.482 -0.137543 3.2631 0
M  V30 2464 H 217.141 1.98715 3.08071 0
M  V30 2465 H 216.789 0.436426 5.01103 0
M  V30 2466 H 216.489 2.12964 5.4765 0
M  V30 2467 H 218.013 1.33176 5.959 0
M  V30 2468 H 219.427 3.24123 4.72882 0
M  V30 2469 H 217.824 3.99237 4.48029 0
M  V30 2470 H 218.894 3.73692 3.09002 0
M  V30 2471 N 220.237 -1.11381 1.11499 0
M  V30 2472 C 221.486 -1.82494 0.858993 0
M  V30 2473 C 221.799 -1.85605 -0.617278 0
M  V30 2474 O 223.005 -2.52824 -0.989552 0
M  V30 2475 C 221.461 -3.27745 1.48699 0
M  V30 2476 C 221.069 -3.32961 2.99735 0
M  V30 2477 C 222.813 -4.03754 1.31085 0
M  V30 2478 C 220.72 -4.72612 3.55516 0
M  V30 2479 H 219.65 -0.683802 0.317696 0
M  V30 2480 H 222.301 -1.25331 1.34031 0
M  V30 2481 H 220.683 -3.84844 0.933339 0
M  V30 2482 H 221.857 -2.85741 3.61509 0
M  V30 2483 H 220.172 -2.70433 3.16631 0
M  V30 2484 H 222.769 -5.06891 1.70192 0
M  V30 2485 H 223.112 -4.15527 0.253496 0
M  V30 2486 H 223.645 -3.53043 1.83318 0
M  V30 2487 H 220.384 -4.66036 4.60967 0
M  V30 2488 H 219.904 -5.2024 2.98513 0
M  V30 2489 H 221.583 -5.4157 3.53992 0
M  V30 2490 N 221.715 -0.905404 -1.28997 0
M  V30 2491 C 222.961 -0.535039 -1.95615 0
M  V30 2492 C 223.294 0.917404 -1.71165 0
M  V30 2493 O 222.569 1.65123 -1.02785 0
M  V30 2494 C 222.852 -0.834918 -3.50287 0
M  V30 2495 C 222.705 -2.33948 -3.84172 0
M  V30 2496 C 224.024 -0.325318 -4.38896 0
M  V30 2497 H 221.143 -0.195861 -0.710498 0
M  V30 2498 H 223.785 -1.13313 -1.52513 0
M  V30 2499 H 221.935 -0.325904 -3.87131 0
M  V30 2500 H 223.607 -2.91847 -3.57243 0
M  V30 2501 H 221.85 -2.79789 -3.31513 0
M  V30 2502 H 222.521 -2.49987 -4.92149 0
M  V30 2503 H 224.997 -0.761256 -4.09077 0
M  V30 2504 H 223.873 -0.564295 -5.45992 0
M  V30 2505 H 224.134 0.774144 -4.35269 0
M  V30 2506 N 223.193 1.4272 -0.668489 0
M  V30 2507 C 224.123 2.335 -0.000100175 0
M  V30 2508 C 225.104 1.50328 0.795964 0
M  V30 2509 O 226.289 1.78949 0.754385 0
M  V30 2510 C 223.419 3.33874 0.956302 0
M  V30 2511 C 222.373 4.27152 0.269278 0
M  V30 2512 C 221.699 5.17684 1.33818 0
M  V30 2513 C 222.999 5.15373 -0.847805 0
M  V30 2514 H 224.693 2.89639 -0.758244 0
M  V30 2515 H 222.239 1.39269 -0.366079 0
M  V30 2516 H 224.192 3.9629 1.43292 0
M  V30 2517 H 222.916 2.76025 1.74579 0
M  V30 2518 H 221.575 3.66123 -0.187042 0
M  V30 2519 H 221.223 4.56165 2.1195 0
M  V30 2520 H 220.923 5.80918 0.883659 0
M  V30 2521 H 222.447 5.82974 1.81586 0
M  V30 2522 H 223.861 5.7151 -0.452681 0
M  V30 2523 H 222.258 5.87407 -1.22773 0
M  V30 2524 H 223.328 4.5415 -1.69929 0
M  V30 2525 N 224.671 0.411399 1.52136 0
M  V30 2526 C 225.601 -0.404015 2.29978 0
M  V30 2527 C 226.582 -1.04412 1.34284 0
M  V30 2528 O 227.767 -1.0527 1.63192 0
M  V30 2529 C 224.897 -1.5197 3.12286 0
M  V30 2530 C 223.851 -1.00448 4.16046 0
M  V30 2531 C 223.177 -2.21393 4.86712 0
M  V30 2532 C 224.477 -0.0569336 5.22269 0
M  V30 2533 H 226.171 0.245529 2.98392 0
M  V30 2534 H 223.717 0.119525 1.43503 0
M  V30 2535 H 225.67 -2.09715 3.6551 0
M  V30 2536 H 224.394 -2.19716 2.41646 0
M  V30 2537 H 223.053 -0.449421 3.63835 0
M  V30 2538 H 222.701 -2.87699 4.12599 0
M  V30 2539 H 222.401 -1.87571 5.56858 0
M  V30 2540 H 223.925 -2.7974 5.4275 0
M  V30 2541 H 225.339 -0.54325 5.7072 0
M  V30 2542 H 223.736 0.192594 5.99791 0
M  V30 2543 H 224.806 0.887663 4.76706 0
M  V30 2544 N 226.149 -1.5696 0.141893 0
M  V30 2545 C 227.397 -1.95573 -0.509484 0
M  V30 2546 C 227.718 -1.02746 -1.65736 0
M  V30 2547 O 226.988 -0.0880311 -1.95702 0
M  V30 2548 H 225.568 -0.722115 -0.191205 0
M  V30 2549 H 228.23 -1.93697 0.216196 0
M  V30 2550 H 227.326 -2.99171 -0.889 0
M  V30 2551 N 227.627 0.131896 -1.57047 0
M  V30 2552 C 228.574 1.16236 -1.99393 0
M  V30 2553 C 229.544 1.41863 -0.863943 0
M  V30 2554 O 230.729 1.53946 -1.12718 0
M  V30 2555 C 227.869 2.48708 -2.39245 0
M  V30 2556 C 226.982 2.30127 -3.65603 0
M  V30 2557 C 226.117 3.55738 -3.94492 0
M  V30 2558 C 225.156 3.32259 -5.14073 0
M  V30 2559 N 224.293 4.50039 -5.38896 0
M  V30 2560 H 229.133 0.794251 -2.87221 0
M  V30 2561 H 226.67 0.380707 -1.42088 0
M  V30 2562 H 228.628 3.25969 -2.60384 0
M  V30 2563 H 227.258 2.83437 -1.54478 0
M  V30 2564 H 226.31 1.43845 -3.52154 0
M  V30 2565 H 227.622 2.08746 -4.5302 0
M  V30 2566 H 226.776 4.41423 -4.1621 0
M  V30 2567 H 225.515 3.80138 -3.05526 0
M  V30 2568 H 224.52 2.44963 -4.92212 0
M  V30 2569 H 225.745 3.09242 -6.04604 0
M  V30 2570 H 223.691 4.74584 -4.52886 0
M  V30 2571 H 223.608 4.31716 -6.2061 0
M  V30 2572 H 224.876 5.36895 -5.65123 0
M  V30 2573 N 229.106 1.52395 0.401703 0
M  V30 2574 C 230.036 1.79231 1.49661 0
M  V30 2575 C 231.017 0.643654 1.57452 0
M  V30 2576 O 232.202 0.889989 1.72606 0
M  V30 2577 C 229.332 1.94971 2.87409 0
M  V30 2578 C 228.286 3.10604 2.94465 0
M  V30 2579 C 227.612 3.11577 4.34538 0
M  V30 2580 C 228.912 4.49921 2.6527 0
M  V30 2581 H 230.606 2.70917 1.27454 0
M  V30 2582 H 228.152 1.30362 0.6117 0
M  V30 2583 H 230.105 2.12328 3.63999 0
M  V30 2584 H 228.829 0.999632 3.10926 0
M  V30 2585 H 227.488 2.93009 2.20321 0
M  V30 2586 H 227.136 2.14277 4.55076 0
M  V30 2587 H 226.836 3.89247 4.40183 0
M  V30 2588 H 228.36 3.31073 5.13053 0
M  V30 2589 H 229.774 4.67683 3.31581 0
M  V30 2590 H 228.171 5.29564 2.82281 0
M  V30 2591 H 229.241 4.57507 1.60671 0
M  V30 2592 N 230.584 -0.659388 1.43143 0
M  V30 2593 C 231.532 -1.79374 1.4808 0
M  V30 2594 C 232.526 -1.65639 0.354988 0
M  V30 2595 O 233.732 -1.7206 0.528704 0
M  V30 2596 H 230.107 -0.591705 0.4641 0
M  V30 2597 H 232.078 -1.72329 2.43609 0
M  V30 2598 C 230.827 -3.17606 1.41499 0
M  V30 2599 H 230.15 -3.28809 2.27431 0
M  V30 2600 H 231.59 -3.96951 1.49015 0
M  V30 2601 C 230.049 -3.36642 0.131765 0
M  V30 2602 O 230.579 -3.93461 -0.809386 0
M  V30 2603 N 228.785 -2.90567 0.0439396 0
M  V30 2604 H 228.332 -2.44513 0.810619 0
M  V30 2605 H 228.29 -3.03681 -0.813969 0
M  V30 2606 N 232.062 -1.29571 -0.897171 0
M  V30 2607 C 233.292 -1.20408 -1.67886 0
M  V30 2608 C 233.7 0.237429 -1.87704 0
M  V30 2609 O 233.043 1.17048 -1.41582 0
M  V30 2610 C 233.105 -1.84887 -3.08314 0
M  V30 2611 C 232.769 -3.34189 -3.11716 0
M  V30 2612 C 233.766 -4.30374 -2.91675 0
M  V30 2613 C 231.451 -3.75431 -3.33701 0
M  V30 2614 C 233.445 -5.65776 -2.93557 0
M  V30 2615 C 231.132 -5.10955 -3.35214 0
M  V30 2616 C 232.13 -6.05938 -3.15164 0
M  V30 2617 O 231.818 -7.38987 -3.1647 0
M  V30 2618 H 231.55 -0.418289 -0.531046 0
M  V30 2619 H 234.104 -1.71514 -1.13014 0
M  V30 2620 H 232.334 -1.28295 -3.64798 0
M  V30 2621 H 234.023 -1.70011 -3.6858 0
M  V30 2622 H 234.789 -3.99844 -2.74499 0
M  V30 2623 H 230.668 -3.01953 -3.48347 0
M  V30 2624 H 234.212 -6.39889 -2.77826 0
M  V30 2625 H 230.109 -5.4113 -3.51922 0
M  V30 2626 H 230.877 -7.47823 -3.3272 0
M  V30 2627 N 233.54 1.10788 -1.12088 0
M  V30 2628 C 234.77 1.86191 -0.895351 0
M  V30 2629 C 235.178 1.80763 0.558702 0
M  V30 2630 O 234.521 1.19188 1.39785 0
M  V30 2631 C 234.583 3.35659 -1.28737 0
M  V30 2632 C 234.247 3.64849 -2.75198 0
M  V30 2633 C 235.244 3.61757 -3.734 0
M  V30 2634 C 232.929 3.93641 -3.12013 0
M  V30 2635 C 234.923 3.87045 -5.06434 0
M  V30 2636 C 232.61 4.18585 -4.4523 0
M  V30 2637 C 233.608 4.15277 -5.42249 0
M  V30 2638 O 233.296 4.3959 -6.73065 0
M  V30 2639 H 233.028 0.595425 -0.32007 0
M  V30 2640 H 235.582 1.40992 -1.49367 0
M  V30 2641 H 233.812 3.81497 -0.63224 0
M  V30 2642 H 235.501 3.92441 -1.03656 0
M  V30 2643 H 236.267 3.39557 -3.46303 0
M  V30 2644 H 232.146 3.95348 -2.37109 0
M  V30 2645 H 235.69 3.84378 -5.82151 0
M  V30 2646 H 231.587 4.40264 -4.72057 0
M  V30 2647 H 232.355 4.57123 -6.78956 0
M  V30 2648 N 235.018 0.912232 1.28515 0
M  V30 2649 C 235.965 0.397954 2.27343 0
M  V30 2650 C 236.935 -0.526766 1.57526 0
M  V30 2651 O 238.12 -0.449292 1.85435 0
M  V30 2652 C 235.26 -0.357263 3.43246 0
M  V30 2653 C 234.373 0.599788 4.27816 0
M  V30 2654 C 233.508 -0.173725 5.30916 0
M  V30 2655 C 232.547 0.777039 6.07148 0
M  V30 2656 N 231.684 0.0371398 7.0209 0
M  V30 2657 H 236.524 1.24577 2.70711 0
M  V30 2658 H 234.061 0.625612 1.33133 0
M  V30 2659 H 236.019 -0.8113 4.09236 0
M  V30 2660 H 234.649 -1.16943 3.00872 0
M  V30 2661 H 233.701 1.17235 3.61884 0
M  V30 2662 H 235.013 1.32704 4.80823 0
M  V30 2663 H 234.167 -0.688394 6.02782 0
M  V30 2664 H 232.906 -0.934041 4.78672 0
M  V30 2665 H 231.911 1.3031 5.34134 0
M  V30 2666 H 233.136 1.53689 6.61481 0
M  V30 2667 H 231.082 -0.705213 6.52198 0
M  V30 2668 H 230.999 0.704249 7.52713 0
M  V30 2669 H 232.267 -0.457383 7.78157 0
M  V30 2670 N 236.496 -1.42363 0.676048 0
M  V30 2671 C 237.736 -2.03392 0.20273 0
M  V30 2672 C 238.1 -1.52306 -1.16906 0
M  V30 2673 O 239.301 -2.05129 -1.73711 0
M  V30 2674 C 237.572 -3.56614 0.236947 0
M  V30 2675 S 239.131 -4.38489 -0.165186 0
M  V30 2676 H 235.949 -0.70611 0.0832418 0
M  V30 2677 H 238.551 -1.74093 0.88948 0
M  V30 2678 H 237.255 -3.91293 1.23767 0
M  V30 2679 H 236.786 -3.90587 -0.469596 0
M  V30 2680 H 238.801 -4.76093 -1.39822 0
M  V30 2681 N 237.974 -0.419461 -1.51915 0
M  V30 2682 C 239.221 0.152939 -2.01922 0
M  V30 2683 C 239.549 1.4426 -1.30458 0
M  V30 2684 O 238.804 1.91514 -0.402593 0
M  V30 2685 C 239.103 0.437067 -3.54717 0
M  V30 2686 C 238.769 -0.764632 -4.44369 0
M  V30 2687 C 237.431 -1.09423 -4.68594 0
M  V30 2688 C 239.783 -1.56713 -4.97082 0
M  V30 2689 C 237.111 -2.22732 -5.42777 0
M  V30 2690 C 239.463 -2.69107 -5.72507 0
M  V30 2691 C 238.127 -3.02541 -5.95 0
M  V30 2692 H 237.397 0.0559644 -0.738884 0
M  V30 2693 H 240.044 -0.562998 -1.83037 0
M  V30 2694 H 238.349 1.23469 -3.71837 0
M  V30 2695 H 240.046 0.893083 -3.90928 0
M  V30 2696 H 236.636 -0.497775 -4.257 0
M  V30 2697 H 240.82 -1.32571 -4.78266 0
M  V30 2698 H 236.076 -2.48971 -5.58411 0
M  V30 2699 H 240.25 -3.31671 -6.12346 0
M  V30 2700 H 237.877 -3.90457 -6.52264 0
M  V30 2701 N 239.452 1.56882 -0.150215 0
M  V30 2702 C 240.701 1.95403 0.500071 0
M  V30 2703 C 241.014 1.03777 1.658 0
M  V30 2704 O 242.22 1.31889 2.37313 0
M  V30 2705 C 240.676 3.4738 0.941018 0
M  V30 2706 C 240.284 4.47596 -0.190158 0
M  V30 2707 C 242.028 3.9476 1.56091 0
M  V30 2708 C 239.935 5.90787 0.269237 0
M  V30 2709 H 238.865 0.729515 0.190588 0
M  V30 2710 H 241.516 1.81988 -0.235074 0
M  V30 2711 H 239.898 3.56138 1.73152 0
M  V30 2712 H 241.072 4.50536 -0.967157 0
M  V30 2713 H 239.387 4.10151 -0.718666 0
M  V30 2714 H 241.984 4.99181 1.9163 0
M  V30 2715 H 242.327 3.36494 2.45107 0
M  V30 2716 H 242.86 3.88932 0.835249 0
M  V30 2717 H 239.599 6.52879 -0.585621 0
M  V30 2718 H 239.119 5.912 1.01204 0
M  V30 2719 H 240.798 6.42979 0.720176 0
M  V30 2720 N 240.93 -0.123565 1.57115 0
M  V30 2721 C 242.179 -0.830704 1.83799 0
M  V30 2722 C 242.492 -1.81259 0.735158 0
M  V30 2723 O 243.698 -2.56558 0.888278 0
M  V30 2724 C 242.154 -1.52802 3.25852 0
M  V30 2725 C 241.762 -0.587356 4.44133 0
M  V30 2726 C 243.506 -2.22056 3.61789 0
M  V30 2727 C 241.413 -1.28764 5.77212 0
M  V30 2728 H 240.343 -0.313967 0.685522 0
M  V30 2729 H 242.994 -0.0834359 1.8331 0
M  V30 2730 H 241.376 -2.32175 3.20797 0
M  V30 2731 H 242.55 0.172829 4.60476 0
M  V30 2732 H 240.865 -0.00201892 4.164 0
M  V30 2733 H 243.462 -2.75131 4.58483 0
M  V30 2734 H 243.805 -2.99644 2.88997 0
M  V30 2735 H 244.338 -1.49576 3.68608 0
M  V30 2736 H 241.077 -0.55314 6.53162 0
M  V30 2737 H 240.597 -2.01995 5.64764 0
M  V30 2738 H 242.276 -1.8221 6.20813 0
M  V30 2739 N 242.408 -1.52605 -0.393616 0
M  V30 2740 C 243.656 -1.67093 -1.13685 0
M  V30 2741 C 243.977 -0.411011 -1.90619 0
M  V30 2742 O 243.247 0.574491 -1.87287 0
M  V30 2743 H 241.827 -0.615923 -0.422668 0
M  V30 2744 H 244.489 -1.89704 -0.447039 0
M  V30 2745 H 243.585 -2.51922 -1.84232 0
M  V30 2746 N 243.887 0.651787 -1.4349 0
M  V30 2747 C 245.135 1.40888 -1.44897 0
M  V30 2748 C 245.456 1.94856 -0.0749086 0
M  V30 2749 O 244.726 1.74518 0.889956 0
M  V30 2750 H 243.306 0.522887 -0.533478 0
M  V30 2751 H 245.968 0.768609 -1.79104 0
M  V30 2752 H 245.064 2.25052 -2.16236 0
M  V30 2753 N 245.365 1.30045 0.890287 0
M  V30 2754 C 246.59 1.21598 1.68014 0
M  V30 2755 C 247.015 -0.218678 1.86825 0
M  V30 2756 O 246.373 -1.15756 1.39536 0
M  V30 2757 C 246.421 1.94434 3.03691 0
M  V30 2758 O 245.525 1.2678 3.92429 0
M  V30 2759 H 244.866 0.420856 0.513592 0
M  V30 2760 H 247.396 1.71775 1.11151 0
M  V30 2761 H 247.406 2.03251 3.5377 0
M  V30 2762 H 246.081 2.98777 2.89318 0
M  V30 2763 H 244.658 1.26282 3.50866 0
M  V30 2764 N 246.843 -1.10192 1.12674 0
M  V30 2765 C 248.089 -1.82475 0.884915 0
M  V30 2766 C 248.422 -1.85093 -0.58773 0
M  V30 2767 O 247.697 -1.3134 -1.43457 0
M  V30 2768 C 247.98 -3.29018 1.46353 0
M  V30 2769 C 247.833 -3.34718 3.00473 0
M  V30 2770 C 249.152 -4.25473 1.12519 0
M  V30 2771 H 246.271 -0.662492 0.322915 0
M  V30 2772 H 248.913 -1.2913 1.39375 0
M  V30 2773 H 247.063 -3.74576 1.03077 0
M  V30 2774 H 248.735 -2.97622 3.52447 0
M  V30 2775 H 246.978 -2.74541 3.35872 0
M  V30 2776 H 247.649 -4.37918 3.36053 0
M  V30 2777 H 250.125 -3.88161 1.499 0
M  V30 2778 H 249.001 -5.26365 1.55663 0
M  V30 2779 H 249.262 -4.42084 0.0377407 0
M  V30 2780 N 248.321 -0.919034 -1.28029 0
M  V30 2781 C 249.567 -0.555757 -1.95036 0
M  V30 2782 C 249.9 0.899198 -1.72128 0
M  V30 2783 O 249.175 1.64023 -1.04531 0
M  V30 2784 C 249.458 -0.872024 -3.49382 0
M  V30 2785 C 249.311 -2.3801 -3.81669 0
M  V30 2786 C 250.63 -0.37185 -4.38526 0
M  V30 2787 H 247.749 -0.203386 -0.708381 0
M  V30 2788 H 250.391 -1.14924 -1.51303 0
M  V30 2789 H 248.541 -0.366946 -3.86763 0
M  V30 2790 H 250.213 -2.9562 -3.54128 0
M  V30 2791 H 248.456 -2.83289 -3.28526 0
M  V30 2792 H 249.127 -2.55192 -4.8947 0
M  V30 2793 H 251.603 -0.804602 -4.08247 0
M  V30 2794 H 250.479 -0.622173 -5.45362 0
M  V30 2795 H 250.74 0.727934 -4.36066 0
M  V30 2796 N 249.799 1.42003 -0.683588 0
M  V30 2797 C 251.029 2.05448 -0.217866 0
M  V30 2798 C 251.437 1.51491 1.13346 0
M  V30 2799 O 250.78 0.653048 1.717 0
M  V30 2800 C 250.842 3.59399 -0.0850118 0
M  V30 2801 C 250.506 4.36093 -1.36645 0
M  V30 2802 C 251.503 4.66169 -2.30179 0
M  V30 2803 C 249.188 4.75578 -1.61649 0
M  V30 2804 C 251.182 5.34676 -3.46988 0
M  V30 2805 C 248.869 5.43824 -2.78745 0
M  V30 2806 C 249.867 5.73299 -3.71238 0
M  V30 2807 O 249.555 6.40142 -4.86285 0
M  V30 2808 H 249.287 0.668344 -0.101454 0
M  V30 2809 H 251.841 1.82974 -0.933248 0
M  V30 2810 H 250.071 3.80566 0.686031 0
M  V30 2811 H 251.76 4.04457 0.341973 0
M  V30 2812 H 252.526 4.36156 -2.12115 0
M  V30 2813 H 248.405 4.52025 -0.905243 0
M  V30 2814 H 251.949 5.57599 -4.19201 0
M  V30 2815 H 247.846 5.73254 -2.96732 0
M  V30 2816 H 248.614 6.58636 -4.85944 0
M  V30 2817 N 251.277 0.427512 1.51691 0
M  V30 2818 C 252.209 -0.424521 2.25234 0
M  V30 2819 C 253.222 -0.994671 1.2888 0
M  V30 2820 O 254.411 -0.890483 1.54702 0
M  V30 2821 C 251.511 -1.60479 2.98496 0
M  V30 2822 C 250.684 -1.15527 4.21868 0
M  V30 2823 C 249.743 -2.20454 4.77793 0
M  V30 2824 O 248.769 -1.8029 5.39893 0
M  V30 2825 N 249.971 -3.52831 4.60967 0
M  V30 2826 H 252.736 0.205749 2.98993 0
M  V30 2827 H 250.297 0.255867 1.59865 0
M  V30 2828 H 252.289 -2.30276 3.32799 0
M  V30 2829 H 250.859 -2.14061 2.27809 0
M  V30 2830 H 250.079 -0.284736 3.9317 0
M  V30 2831 H 251.367 -0.832173 5.01949 0
M  V30 2832 H 250.765 -3.88201 4.11481 0
M  V30 2833 H 249.322 -4.18551 4.99658 0
M  V30 2834 N 252.755 -1.56801 0.158532 0
M  V30 2835 C 253.665 -2.20916 -0.789518 0
M  V30 2836 C 254.681 -1.1969 -1.26294 0
M  V30 2837 O 255.857 -1.52308 -1.31773 0
M  V30 2838 C 252.922 -2.82727 -2.00665 0
M  V30 2839 C 251.983 -3.99114 -1.58134 0
M  V30 2840 C 251.216 -4.57968 -2.74045 0
M  V30 2841 O 251.439 -4.15704 -3.90572 0
M  V30 2842 O 250.373 -5.48047 -2.48855 0
M  V30 2843 H 254.199 -3.02464 -0.273681 0
M  V30 2844 H 251.784 -1.4924 -0.0690548 0
M  V30 2845 H 253.666 -3.21968 -2.71872 0
M  V30 2846 H 252.341 -2.04184 -2.51179 0
M  V30 2847 H 251.248 -3.64567 -0.839155 0
M  V30 2848 H 252.581 -4.79212 -1.12325 0
M  V30 2849 N 254.233 0.115231 -1.57178 0
M  V30 2850 C 255.48 0.822351 -1.8505 0
M  V30 2851 C 255.808 1.79701 -0.744168 0
M  V30 2852 O 255.063 1.93909 0.26414 0
M  V30 2853 C 255.362 1.60324 -3.19423 0
M  V30 2854 C 255.028 0.772536 -4.44233 0
M  V30 2855 C 253.69 0.543468 -4.78121 0
M  V30 2856 C 256.042 0.193746 -5.2084 0
M  V30 2857 C 253.37 -0.274583 -5.86057 0
M  V30 2858 C 255.722 -0.611517 -6.29637 0
M  V30 2859 C 254.386 -0.850867 -6.62055 0
M  V30 2860 H 253.656 0.30092 -0.677147 0
M  V30 2861 H 256.303 0.0845802 -1.91313 0
M  V30 2862 H 254.608 2.41203 -3.08753 0
M  V30 2863 H 256.305 2.1544 -3.38211 0
M  V30 2864 H 252.895 0.96117 -4.17683 0
M  V30 2865 H 257.079 0.357926 -4.95008 0
M  V30 2866 H 252.335 -0.469206 -6.09597 0
M  V30 2867 H 256.509 -1.06697 -6.88178 0
M  V30 2868 H 254.136 -1.48657 -7.45523 0
M  V30 2869 N 255.711 1.52812 0.385517 0
M  V30 2870 C 256.641 1.80808 1.47752 0
M  V30 2871 C 257.622 0.660318 1.5676 0
M  V30 2872 O 258.807 0.908246 1.71652 0
M  V30 2873 C 255.937 1.98008 2.85324 0
M  V30 2874 C 254.891 3.13709 2.91154 0
M  V30 2875 C 254.217 3.16169 4.31209 0
M  V30 2876 C 255.517 4.52709 2.60483 0
M  V30 2877 H 257.211 2.72253 1.24573 0
M  V30 2878 H 254.757 1.31003 0.597839 0
M  V30 2879 H 256.71 2.16176 3.61726 0
M  V30 2880 H 255.434 1.03255 3.09848 0
M  V30 2881 H 254.093 2.95329 2.17201 0
M  V30 2882 H 253.741 2.19092 4.52778 0
M  V30 2883 H 253.441 3.93894 4.36029 0
M  V30 2884 H 254.965 3.36496 5.09512 0
M  V30 2885 H 256.379 4.71173 3.26602 0
M  V30 2886 H 254.776 5.32528 2.76648 0
M  V30 2887 H 255.846 4.59186 1.55809 0
M  V30 2888 N 257.189 -0.644168 1.43834 0
M  V30 2889 C 258.099 -1.78563 1.52159 0
M  V30 2890 C 259.115 -1.69147 0.408069 0
M  V30 2891 O 260.291 -1.90156 0.663524 0
M  V30 2892 C 257.356 -3.14888 1.45073 0
M  V30 2893 C 256.417 -3.36034 2.6717 0
M  V30 2894 C 255.65 -4.65855 2.60413 0
M  V30 2895 O 255.873 -5.45805 1.65689 0
M  V30 2896 O 254.807 -4.88918 3.5106 0
M  V30 2897 H 258.633 -1.74494 2.48567 0
M  V30 2898 H 256.218 -0.80378 1.25935 0
M  V30 2899 H 258.1 -3.96179 1.43597 0
M  V30 2900 H 256.775 -3.19528 0.518037 0
M  V30 2901 H 255.682 -2.54472 2.74217 0
M  V30 2902 H 257.015 -3.36247 3.59442 0
M  V30 2903 N 258.668 -1.30515 -0.883378 0
M  V30 2904 C 259.615 -1.17032 -1.98927 0
M  V30 2905 C 260.585 -0.0594241 -1.65994 0
M  V30 2906 O 261.77 -0.229895 -1.8941 0
M  V30 2907 C 258.91 -0.869777 -3.33959 0
M  V30 2908 C 258.023 -2.06271 -3.79574 0
M  V30 2909 C 257.158 -1.70011 -5.03259 0
M  V30 2910 C 256.197 -2.8579 -5.41286 0
M  V30 2911 N 255.334 -2.49816 -6.56153 0
M  V30 2912 H 260.174 -2.1164 -2.09792 0
M  V30 2913 H 257.711 -1.05296 -1.02719 0
M  V30 2914 H 259.669 -0.676138 -4.11685 0
M  V30 2915 H 258.299 0.0394332 -3.22776 0
M  V30 2916 H 257.351 -2.36755 -2.97744 0
M  V30 2917 H 258.663 -2.92971 -4.03694 0
M  V30 2918 H 257.817 -1.47032 -5.88614 0
M  V30 2919 H 256.556 -0.804829 -4.81013 0
M  V30 2920 H 255.561 -3.09434 -4.54456 0
M  V30 2921 H 256.786 -3.76008 -5.65504 0
M  V30 2922 H 254.732 -1.62795 -6.35479 0
M  V30 2923 H 254.649 -3.30048 -6.8015 0
M  V30 2924 H 255.917 -2.30197 -7.44735 0
M  V30 2925 N 260.146 1.09593 -1.13257 0
M  V30 2926 C 261.093 2.1618 -0.808381 0
M  V30 2927 C 262.063 1.64517 0.228754 0
M  V30 2928 O 263.248 1.9053 0.101381 0
M  V30 2929 C 260.388 3.43973 -0.278675 0
M  V30 2930 C 259.501 4.09545 -1.37466 0
M  V30 2931 C 258.636 5.25088 -0.803479 0
M  V30 2932 C 257.675 5.82579 -1.87799 0
M  V30 2933 N 256.812 6.89486 -1.32488 0
M  V30 2934 H 261.652 2.43254 -1.72138 0
M  V30 2935 H 259.189 1.19392 -0.859294 0
M  V30 2936 H 261.147 4.17174 0.0465583 0
M  V30 2937 H 259.777 3.17223 0.597459 0
M  V30 2938 H 258.829 3.34226 -1.81652 0
M  V30 2939 H 260.141 4.48307 -2.18684 0
M  V30 2940 H 259.295 6.05178 -0.429427 0
M  V30 2941 H 258.034 4.87684 0.0397956 0
M  V30 2942 H 257.039 5.01152 -2.26113 0
M  V30 2943 H 258.264 6.22045 -2.72463 0
M  V30 2944 H 256.21 6.54064 -0.503575 0
M  V30 2945 H 256.127 7.27007 -2.07355 0
M  V30 2946 H 257.395 7.73336 -0.978336 0
M  V30 2947 N 261.624 0.925811 1.2754 0
M  V30 2948 C 262.554 0.440748 2.29303 0
M  V30 2949 C 263.535 -0.497971 1.62648 0
M  V30 2950 O 264.72 -0.403126 1.8997 0
M  V30 2951 C 261.85 -0.309048 3.45922 0
M  V30 2952 C 260.804 0.54166 4.24559 0
M  V30 2953 C 260.13 -0.337191 5.33636 0
M  V30 2954 C 261.43 1.80516 4.90114 0
M  V30 2955 H 263.124 1.29121 2.70126 0
M  V30 2956 H 260.67 0.622323 1.29858 0
M  V30 2957 H 262.623 -0.659315 4.1621 0
M  V30 2958 H 261.347 -1.19352 3.04011 0
M  V30 2959 H 260.006 0.874609 3.56014 0
M  V30 2960 H 259.654 -1.22056 4.87966 0
M  V30 2961 H 259.354 0.228497 5.87156 0
M  V30 2962 H 260.878 -0.683072 6.06767 0
M  V30 2963 H 262.292 1.52307 5.52698 0
M  V30 2964 H 260.689 2.3142 5.53683 0
M  V30 2965 H 261.759 2.52581 4.13921 0
M  V30 2966 N 263.102 -1.41638 0.69111 0
M  V30 2967 C 264.351 -2.00526 0.217318 0
M  V30 2968 C 264.664 -1.55353 -1.18848 0
M  V30 2969 O 265.87 -2.06769 -1.75951 0
M  V30 2970 C 264.326 -3.58313 0.337639 0
M  V30 2971 C 263.934 -4.12469 1.74852 0
M  V30 2972 C 265.678 -4.24431 -0.0766066 0
M  V30 2973 C 263.585 -5.62675 1.82074 0
M  V30 2974 H 262.515 -0.750008 0.0774893 0
M  V30 2975 H 265.166 -1.6217 0.858661 0
M  V30 2976 H 263.548 -3.9425 -0.371879 0
M  V30 2977 H 264.722 -3.8796 2.48644 0
M  V30 2978 H 263.037 -3.58861 2.11205 0
M  V30 2979 H 265.634 -5.34683 -0.0430284 0
M  V30 2980 H 265.977 -4.01101 -1.1146 0
M  V30 2981 H 266.51 -3.93512 0.582476 0
M  V30 2982 H 263.249 -5.90826 2.83911 0
M  V30 2983 H 262.769 -5.89124 1.12661 0
M  V30 2984 H 264.448 -6.27371 1.58159 0
M  V30 2985 N 264.58 -0.43555 -1.51462 0
M  V30 2986 C 265.527 0.376797 -2.27703 0
M  V30 2987 C 266.497 1.01838 -1.31219 0
M  V30 2988 O 267.682 1.03762 -1.60119 0
M  V30 2989 C 264.822 1.47301 -3.12084 0
M  V30 2990 C 263.935 0.849744 -4.2356 0
M  V30 2991 C 263.07 1.92086 -4.95254 0
M  V30 2992 C 262.109 1.27593 -5.98654 0
M  V30 2993 N 261.246 2.28833 -6.63762 0
M  V30 2994 H 266.086 -0.279734 -2.96684 0
M  V30 2995 H 263.623 -0.149795 -1.46335 0
M  V30 2996 H 265.581 2.11984 -3.59331 0
M  V30 2997 H 264.211 2.0992 -2.45221 0
M  V30 2998 H 263.263 0.0912529 -3.80291 0
M  V30 2999 H 264.575 0.338878 -4.97648 0
M  V30 3000 H 263.729 2.64435 -5.46039 0
M  V30 3001 H 262.468 2.46545 -4.20793 0
M  V30 3002 H 261.473 0.537893 -5.47162 0
M  V30 3003 H 262.698 0.738693 -6.7507 0
M  V30 3004 H 260.644 2.82375 -5.92115 0
M  V30 3005 H 260.561 1.82632 -7.33608 0
M  V30 3006 H 261.829 3.00671 -7.19178 0
M  V30 3007 N 266.058 1.56714 -0.166846 0
M  V30 3008 C 267.005 2.17746 0.765193 0
M  V30 3009 C 267.975 1.11614 1.23011 0
M  V30 3010 O 269.16 1.39745 1.29908 0
M  V30 3011 C 266.3 2.81882 1.9909 0
M  V30 3012 C 265.413 4.02462 1.56997 0
M  V30 3013 C 264.548 4.54537 2.749 0
M  V30 3014 C 263.587 5.67538 2.29275 0
M  V30 3015 N 262.724 6.14142 3.40255 0
M  V30 3016 H 267.564 2.97048 0.237952 0
M  V30 3017 H 265.101 1.4672 0.105725 0
M  V30 3018 H 267.059 3.17221 2.70974 0
M  V30 3019 H 265.689 2.05191 2.49192 0
M  V30 3020 H 264.741 3.72973 0.748037 0
M  V30 3021 H 266.053 4.84273 1.19503 0
M  V30 3022 H 265.207 4.92035 3.54946 0
M  V30 3023 H 263.946 3.71774 3.1565 0
M  V30 3024 H 262.951 5.29597 1.47674 0
M  V30 3025 H 264.176 6.52099 1.89588 0
M  V30 3026 H 262.122 5.3431 3.8059 0
M  V30 3027 H 262.039 6.9093 3.06841 0
M  V30 3028 H 263.307 6.56289 4.206 0
M  V30 3029 N 267.536 -0.106894 1.57237 0
M  V30 3030 C 268.785 -0.811163 1.8467 0
M  V30 3031 C 269.098 -1.80469 0.754342 0
M  V30 3032 O 270.304 -2.55601 0.915439 0
M  V30 3033 C 268.76 -1.49337 3.27454 0
M  V30 3034 C 268.368 -0.540217 4.44731 0
M  V30 3035 C 270.112 -2.18206 3.64124 0
M  V30 3036 C 268.019 -1.22634 5.78545 0
M  V30 3037 H 266.949 -0.306679 0.688813 0
M  V30 3038 H 269.6 -0.0639887 1.83388 0
M  V30 3039 H 267.982 -2.2876 3.23241 0
M  V30 3040 H 269.156 0.221659 4.60267 0
M  V30 3041 H 267.471 0.042146 4.16379 0
M  V30 3042 H 270.068 -2.70253 4.61376 0
M  V30 3043 H 270.411 -2.96562 2.92158 0
M  V30 3044 H 270.944 -1.45658 3.70174 0
M  V30 3045 H 267.683 -0.483832 6.53712 0
M  V30 3046 H 267.203 -1.95993 5.66874 0
M  V30 3047 H 268.882 -1.75615 6.2271 0
M  V30 3048 N 269.014 -1.53014 -0.377408 0
M  V30 3049 C 270.244 -1.72265 -1.14054 0
M  V30 3050 C 270.652 -0.44601 -1.83868 0
M  V30 3051 O 269.995 0.590095 -1.73964 0
M  V30 3052 C 270.057 -2.82492 -2.22348 0
M  V30 3053 C 269.721 -4.23233 -1.72402 0
M  V30 3054 C 270.718 -5.05992 -1.19448 0
M  V30 3055 C 268.403 -4.696 -1.78273 0
M  V30 3056 C 270.397 -6.33203 -0.730268 0
M  V30 3057 C 268.084 -5.96792 -1.31464 0
M  V30 3058 C 269.082 -6.78424 -0.789297 0
M  V30 3059 O 268.77 -8.0323 -0.328077 0
M  V30 3060 H 268.502 -0.579873 -0.347453 0
M  V30 3061 H 271.056 -2.00502 -0.445882 0
M  V30 3062 H 269.286 -2.49702 -2.95272 0
M  V30 3063 H 270.975 -2.90034 -2.83963 0
M  V30 3064 H 271.741 -4.71349 -1.14259 0
M  V30 3065 H 267.62 -4.06142 -2.18106 0
M  V30 3066 H 271.164 -6.96868 -0.319542 0
M  V30 3067 H 267.061 -6.30937 -1.36342 0
M  V30 3068 H 267.829 -8.1727 -0.448493 0
M  V30 3069 N 270.492 0.636531 -1.44174 0
M  V30 3070 C 271.739 1.39619 -1.46672 0
M  V30 3071 C 272.067 1.94257 -0.0972691 0
M  V30 3072 O 271.322 1.73768 0.900175 0
M  V30 3073 C 271.621 2.58309 -2.47005 0
M  V30 3074 C 271.287 2.21992 -3.92467 0
M  V30 3075 C 269.949 2.118 -4.32081 0
M  V30 3076 C 272.301 1.9321 -4.84065 0
M  V30 3077 C 269.629 1.71007 -5.61225 0
M  V30 3078 C 271.981 1.53911 -6.13591 0
M  V30 3079 C 270.645 1.42257 -6.52165 0
M  V30 3080 H 269.915 0.510902 -0.536712 0
M  V30 3081 H 272.562 0.722328 -1.77355 0
M  V30 3082 H 270.867 3.30903 -2.09786 0
M  V30 3083 H 272.564 3.16533 -2.46186 0
M  V30 3084 H 269.154 2.30841 -3.61124 0
M  V30 3085 H 273.338 1.99997 -4.54219 0
M  V30 3086 H 268.594 1.60583 -5.89935 0
M  V30 3087 H 272.768 1.30677 -6.8403 0
M  V30 3088 H 270.395 1.10419 -7.52138 0
M  V30 3089 N 271.97 1.30982 0.876444 0
M  V30 3090 C 273.198 1.23242 1.6619 0
M  V30 3091 C 273.613 -0.203345 1.87702 0
M  V30 3092 O 272.97 -1.13317 1.43057 0
M  V30 3093 C 273.021 1.96623 3.03351 0
M  V30 3094 O 272.742 3.34594 2.82804 0
M  V30 3095 C 274.243 1.95644 3.97792 0
M  V30 3096 H 271.463 0.426126 0.518322 0
M  V30 3097 H 274.007 1.7275 1.09442 0
M  V30 3098 H 272.162 1.50892 3.56806 0
M  V30 3099 H 272.576 3.71873 3.69879 0
M  V30 3100 H 274.05 2.51511 4.91372 0
M  V30 3101 H 274.527 0.937395 4.2908 0
M  V30 3102 H 275.133 2.41225 3.50272 0
M  V30 3103 N 273.449 -1.08991 1.13837 0
M  V30 3104 C 274.865 -1.33312 0.877506 0
M  V30 3105 C 275.065 -1.95587 -0.48456 0
M  V30 3106 O 274.121 -2.20509 -1.23013 0
M  V30 3107 C 275.434 -2.24045 2.0056 0
M  V30 3108 C 276.982 -2.37542 2.03821 0
M  V30 3109 C 277.457 -3.31614 3.15905 0
M  V30 3110 N 278.948 -3.39189 3.15445 0
M  V30 3111 C 279.683 -4.11992 3.98811 0
M  V30 3112 N 279.179 -4.87553 4.92203 0
M  V30 3113 N 280.972 -4.07762 3.86894 0
M  V30 3114 H 273.123 -0.669456 2.01574 0
M  V30 3115 H 275.386 -0.357482 0.878015 0
M  V30 3116 H 275.092 -1.85521 2.98789 0
M  V30 3117 H 274.966 -3.24466 1.92359 0
M  V30 3118 H 277.353 -2.75327 1.06202 0
M  V30 3119 H 277.434 -1.36884 2.16093 0
M  V30 3120 H 277.078 -2.94551 4.13766 0
M  V30 3121 H 277.008 -4.32186 3.0087 0
M  V30 3122 H 279.499 -2.85314 2.47799 0
M  V30 3123 H 279.812 -5.40549 5.52292 0
M  V30 3124 H 278.157 -4.86627 4.96205 0
M  V30 3125 H 281.348 -3.47833 3.13257 0
M  V30 3126 H 281.521 -4.64238 4.52092 0
M  V30 3127 N 274.927 -0.932562 -1.27047 0
M  V30 3128 C 276.176 -0.571351 -1.93439 0
M  V30 3129 C 276.489 0.892467 -1.74053 0
M  V30 3130 O 277.695 1.36267 -2.34826 0
M  V30 3131 C 276.151 -0.97106 -3.46552 0
M  V30 3132 C 275.759 -2.4559 -3.74686 0
M  V30 3133 C 277.503 -0.681333 -4.18997 0
M  V30 3134 C 275.41 -2.79475 -5.21198 0
M  V30 3135 H 274.34 -0.209966 -0.724176 0
M  V30 3136 H 276.991 -1.13403 -1.44263 0
M  V30 3137 H 275.373 -0.336983 -3.94564 0
M  V30 3138 H 276.547 -3.13829 -3.37414 0
M  V30 3139 H 274.862 -2.71802 -3.15456 0
M  V30 3140 H 277.459 -0.910939 -5.26883 0
M  V30 3141 H 277.802 0.381628 -4.14547 0
M  V30 3142 H 278.335 -1.27473 -3.76823 0
M  V30 3143 H 275.074 -3.847 -5.30741 0
M  V30 3144 H 274.594 -2.1589 -5.596 0
M  V30 3145 H 276.273 -2.67478 -5.89122 0
M  V30 3146 N 276.405 1.4127 -0.698611 0
M  V30 3147 C 277.353 2.32588 -0.023855 0
M  V30 3148 C 278.347 1.51128 0.765292 0
M  V30 3149 O 279.553 1.67043 0.670571 0
M  V30 3150 H 275.928 0.751918 0.0110871 0
M  V30 3151 H 277.899 2.87167 -0.811031 0
M  V30 3152 C 276.648 3.35947 0.896369 0
M  V30 3153 H 275.971 3.98684 0.298548 0
M  V30 3154 H 277.411 4.02376 1.33676 0
M  V30 3155 C 275.87 2.70076 2.01396 0
M  V30 3156 O 276.4 2.55093 3.10307 0
M  V30 3157 N 274.606 2.28724 1.79259 0
M  V30 3158 H 274.153 2.4111 0.906841 0
M  V30 3159 H 274.111 1.84986 2.54219 0
M  V30 3160 N 277.883 0.443576 1.51229 0
M  V30 3161 C 279.108 -0.121648 2.07043 0
M  V30 3162 C 279.533 -1.35156 1.30823 0
M  V30 3163 O 278.891 -1.7793 0.347934 0
M  V30 3164 C 278.939 -0.41624 3.5819 0
M  V30 3165 O 278.043 -1.50163 3.8409 0
M  V30 3166 H 277.384 0.000871367 0.663999 0
M  V30 3167 H 279.914 0.626706 1.94765 0
M  V30 3168 H 279.924 -0.664867 4.02546 0
M  V30 3169 H 278.599 0.482653 4.1309 0
M  V30 3170 H 277.176 -1.24248 3.51592 0
M  V30 3171 N 279.361 -1.56624 0.175154 0
M  V30 3172 C 280.589 -2.01374 -0.474971 0
M  V30 3173 C 281.004 -1.05537 -1.56548 0
M  V30 3174 O 280.361 -0.0568668 -1.82411 0
M  V30 3175 C 280.412 -3.45923 -1.04975 0
M  V30 3176 O 280.133 -4.381 -0.00276605 0
M  V30 3177 C 281.634 -4.06093 -1.77773 0
M  V30 3178 H 278.854 -0.659962 -0.121206 0
M  V30 3179 H 281.398 -2.02601 0.27801 0
M  V30 3180 H 279.553 -3.45458 -1.75321 0
M  V30 3181 H 279.967 -5.22753 -0.427681 0
M  V30 3182 H 281.441 -5.09147 -2.13245 0
M  V30 3183 H 281.918 -3.48405 -2.67414 0
M  V30 3184 H 282.524 -4.10272 -1.12059 0
M  V30 3185 N 280.839 0.0985539 -1.57292 0
M  V30 3186 C 282.069 0.815135 -1.8984 0
M  V30 3187 C 282.477 1.7297 -0.766679 0
M  V30 3188 O 281.82 1.81698 0.270483 0
M  V30 3189 C 281.882 1.6842 -3.17608 0
M  V30 3190 C 281.546 0.94182 -4.4719 0
M  V30 3191 C 282.543 0.273212 -5.19182 0
M  V30 3192 C 280.228 0.916927 -4.9386 0
M  V30 3193 C 282.222 -0.410361 -6.36078 0
M  V30 3194 C 279.909 0.229567 -6.10669 0
M  V30 3195 C 280.907 -0.432902 -6.81627 0
M  V30 3196 O 280.595 -1.10925 -7.9621 0
M  V30 3197 H 280.327 0.238501 -0.632529 0
M  V30 3198 H 282.881 0.0812659 -2.05239 0
M  V30 3199 H 281.111 2.46022 -2.98345 0
M  V30 3200 H 282.8 2.27704 -3.36015 0
M  V30 3201 H 283.566 0.283927 -4.84168 0
M  V30 3202 H 279.445 1.42201 -4.3852 0
M  V30 3203 H 282.989 -0.928013 -6.914 0
M  V30 3204 H 278.886 0.216686 -6.45136 0
M  V30 3205 H 279.654 -1.01579 -8.12172 0
M  V30 3206 N 282.317 1.53212 0.369288 0
M  V30 3207 C 283.227 1.82342 1.47609 0
M  V30 3208 C 284.243 0.711532 1.58787 0
M  V30 3209 O 285.419 1.0012 1.74751 0
M  V30 3210 C 282.484 2.00393 2.8292 0
M  V30 3211 C 281.545 3.24297 2.81301 0
M  V30 3212 C 280.778 3.41478 4.10157 0
M  V30 3213 O 281.001 2.63033 5.06132 0
M  V30 3214 O 279.935 4.34817 4.16194 0
M  V30 3215 H 283.761 2.76366 1.25918 0
M  V30 3216 H 281.346 1.38547 0.559034 0
M  V30 3217 H 283.228 2.13859 3.63101 0
M  V30 3218 H 281.903 1.09559 3.04596 0
M  V30 3219 H 280.81 3.16257 1.99831 0
M  V30 3220 H 282.143 4.15041 2.64578 0
M  V30 3221 N 283.795 -0.628877 1.44509 0
M  V30 3222 C 285.035 -1.39993 1.48934 0
M  V30 3223 C 285.399 -1.91627 0.119604 0
M  V30 3224 O 286.6 -2.68772 0.0385283 0
M  V30 3225 C 284.871 -2.53241 2.52198 0
M  V30 3226 S 286.43 -3.41383 2.75687 0
M  V30 3227 H 283.248 -0.477558 0.526744 0
M  V30 3228 H 285.85 -0.727804 1.81448 0
M  V30 3229 H 284.554 -2.13622 3.50419 0
M  V30 3230 H 284.085 -3.25278 2.21264 0
M  V30 3231 H 286.1 -4.50752 2.07453 0
M  V30 3232 N 285.273 -1.31445 -0.869486 0
M  V30 3233 C 286.55 -1.11795 -1.60503 0
M  V30 3234 C 286.93 0.327168 -2.08549 0
M  V30 3235 O 286.278 1.32135 -1.8642 0
M  V30 3236 C 286.488 -2.13258 -2.76265 0
M  V30 3237 C 287.836 -2.45805 -3.46215 0
M  V30 3238 O 288.86 -2.11688 -2.86473 0
M  V30 3239 O 287.719 -3.04228 -4.5399 0
M  V30 3240 H 284.813 -0.430421 -0.706163 0
M  V30 3241 H 287.359 -1.42925 -0.914907 0
M  V30 3242 H 286.131 -3.10461 -2.3818 0
M  V30 3243 H 285.754 -1.83035 -3.52964 0
M  V30 3244 N 286.751 1.08385 -1.14413 0
M  V30 3245 C 287.997 1.81044 -0.913834 0
M  V30 3246 C 288.33 1.86004 0.558209 0
M  V30 3247 O 287.605 1.33606 1.4135 0
M  V30 3248 C 287.888 3.26648 -1.51569 0
M  V30 3249 C 287.741 3.29895 -3.0576 0
M  V30 3250 C 289.06 4.23629 -1.19273 0
M  V30 3251 H 286.179 0.65727 -0.333414 0
M  V30 3252 H 288.821 1.26896 -1.41412 0
M  V30 3253 H 286.971 3.72889 -1.09023 0
M  V30 3254 H 288.643 2.91977 -3.57137 0
M  V30 3255 H 286.886 2.69163 -3.40197 0
M  V30 3256 H 287.557 4.32516 -3.42977 0
M  V30 3257 H 290.033 3.85727 -1.56057 0
M  V30 3258 H 288.909 5.23822 -1.64017 0
M  V30 3259 H 289.17 4.41968 -0.108068 0
M  V30 3260 N 288.23 0.939286 1.26551 0
M  V30 3261 C 289.477 0.585847 1.9384 0
M  V30 3262 C 289.805 -0.874784 1.73718 0
M  V30 3263 O 289.06 -1.64092 1.06642 0
M  V30 3264 C 289.359 0.872106 3.46596 0
M  V30 3265 C 289.025 2.31632 3.86856 0
M  V30 3266 C 287.687 2.71111 3.97558 0
M  V30 3267 C 290.039 3.25494 4.07066 0
M  V30 3268 C 287.367 4.03553 4.25866 0
M  V30 3269 C 289.719 4.57531 4.36862 0
M  V30 3270 C 288.383 4.96828 4.45778 0
M  V30 3271 H 287.653 0.214377 0.709312 0
M  V30 3272 H 290.3 1.18544 1.50398 0
M  V30 3273 H 288.605 0.18996 3.91339 0
M  V30 3274 H 290.302 0.577442 3.96821 0
M  V30 3275 H 286.892 2.00008 3.79071 0
M  V30 3276 H 291.076 2.9619 3.98227 0
M  V30 3277 H 286.332 4.33665 4.30981 0
M  V30 3278 H 290.506 5.30254 4.51446 0
M  V30 3279 H 288.133 5.99482 4.67468 0
M  V30 3280 N 289.708 -1.40897 0.706093 0
M  V30 3281 C 290.955 -2.01054 0.241531 0
M  V30 3282 C 291.283 -1.55956 -1.16223 0
M  V30 3283 O 290.538 -0.766336 -1.80072 0
M  V30 3284 C 290.837 -3.5646 0.259099 0
M  V30 3285 C 290.503 -4.21106 1.61184 0
M  V30 3286 C 289.165 -4.38479 1.98216 0
M  V30 3287 C 291.517 -4.57256 2.50132 0
M  V30 3288 C 288.845 -4.89282 3.2376 0
M  V30 3289 C 291.197 -5.09454 3.7502 0
M  V30 3290 C 289.861 -5.25037 4.12181 0
M  V30 3291 H 289.131 -0.73571 0.0883825 0
M  V30 3292 H 291.778 -1.68645 0.907257 0
M  V30 3293 H 290.083 -3.88721 -0.490189 0
M  V30 3294 H 291.78 -4.00826 -0.11804 0
M  V30 3295 H 288.37 -4.07966 1.31384 0
M  V30 3296 H 292.554 -4.43479 2.228 0
M  V30 3297 H 287.81 -4.99531 3.52532 0
M  V30 3298 H 291.984 -5.36404 4.44121 0
M  V30 3299 H 289.611 -5.64164 5.09532 0
M  V30 3300 N 291.186 -0.45159 -1.50991 0
M  V30 3301 C 292.597 0.00818571 -1.86698 0
M  V30 3302 C 292.948 1.40661 -1.3678 0
M  V30 3303 O 292.073 2.0391 -0.724546 0
M  V30 3304 C 292.668 0.0216303 -3.38793 0
M  V30 3305 C 291.227 0.425865 -3.73983 0
M  V30 3306 C 290.374 -0.372163 -2.74791 0
M  V30 3307 H 293.325 -0.666785 -1.44013 0
M  V30 3308 H 293.346 0.828078 -3.7138 0
M  V30 3309 H 292.858 -0.996288 -3.75094 0
M  V30 3310 H 290.959 1.44886 -3.43277 0
M  V30 3311 H 291.072 0.140761 -4.78893 0
M  V30 3312 H 289.436 0.171498 -2.54122 0
M  V30 3313 H 290.219 -1.38922 -3.13935 0
M  V30 3314 N 292.664 1.56529 -0.183458 0
M  V30 3315 C 293.574 2.22144 0.754272 0
M  V30 3316 C 294.59 1.21684 1.24374 0
M  V30 3317 O 295.766 1.54385 1.29333 0
M  V30 3318 C 292.831 2.85884 1.96141 0
M  V30 3319 C 291.892 4.01579 1.51765 0
M  V30 3320 C 291.125 4.6227 2.66725 0
M  V30 3321 O 291.348 4.21865 3.83909 0
M  V30 3322 O 290.282 5.51936 2.40104 0
M  V30 3323 H 294.108 3.02861 0.225527 0
M  V30 3324 H 291.693 1.49331 0.0453032 0
M  V30 3325 H 293.575 3.26253 2.66715 0
M  V30 3326 H 292.25 2.08154 2.47899 0
M  V30 3327 H 291.157 3.65856 0.781049 0
M  V30 3328 H 292.49 4.80938 1.04686 0
M  V30 3329 N 294.142 -0.090211 1.57342 0
M  V30 3330 C 295.391 -0.791531 1.8552 0
M  V30 3331 C 295.704 -1.79659 0.773441 0
M  V30 3332 O 296.91 -2.54616 0.942497 0
M  V30 3333 C 295.366 -1.45856 3.2902 0
M  V30 3334 C 294.974 -0.493017 4.45279 0
M  V30 3335 C 296.718 -2.14332 3.66418 0
M  V30 3336 C 294.625 -1.16491 5.79814 0
M  V30 3337 H 293.555 -0.299356 0.692027 0
M  V30 3338 H 296.206 -0.0445343 1.83446 0
M  V30 3339 H 294.588 -2.25318 3.2565 0
M  V30 3340 H 295.762 0.270464 4.60006 0
M  V30 3341 H 294.077 0.0863061 4.16311 0
M  V30 3342 H 296.674 -2.65344 4.64216 0
M  V30 3343 H 297.017 -2.93447 2.95287 0
M  V30 3344 H 297.55 -1.41724 3.71698 0
M  V30 3345 H 294.289 -0.41447 6.54188 0
M  V30 3346 H 293.809 -1.8997 5.68921 0
M  V30 3347 H 295.488 -1.69001 6.24538 0
M  V30 3348 N 295.62 -1.53406 -0.361157 0
M  V30 3349 C 296.568 -1.80832 -1.46296 0
M  V30 3350 C 297.562 -0.677699 -1.55253 0
M  V30 3351 O 298.768 -0.860723 -1.58087 0
M  V30 3352 H 295.143 -0.572627 -0.487445 0
M  V30 3353 H 297.114 -2.73045 -1.20371 0
M  V30 3354 C 295.863 -2.01907 -2.8307 0
M  V30 3355 H 295.186 -2.88349 -2.76938 0
M  V30 3356 H 296.626 -2.25072 -3.59331 0
M  V30 3357 C 295.085 -0.799449 -3.27277 0
M  V30 3358 O 295.615 0.00971761 -4.01699 0
M  V30 3359 N 293.821 -0.621637 -2.83873 0
M  V30 3360 H 293.368 -1.28126 -2.23476 0
M  V30 3361 H 293.326 0.19298 -3.13807 0
M  V30 3362 N 297.098 0.621204 -1.44841 0
M  V30 3363 C 298.008 1.7612 -1.5498 0
M  V30 3364 C 299.024 1.68477 -0.434927 0
M  V30 3365 O 300.2 1.89076 -0.693693 0
M  V30 3366 C 297.265 3.1254 -1.50065 0
M  V30 3367 C 296.326 3.31741 -2.72482 0
M  V30 3368 C 295.559 4.61653 -2.67792 0
M  V30 3369 O 295.782 5.431 -1.74352 0
M  V30 3370 O 294.716 4.83271 -3.58794 0
M  V30 3371 H 298.542 1.70518 -2.51311 0
M  V30 3372 H 296.127 0.783643 -1.27198 0
M  V30 3373 H 298.009 3.93844 -1.49882 0
M  V30 3374 H 296.684 3.18663 -0.568806 0
M  V30 3375 H 295.591 2.50077 -2.7823 0
M  V30 3376 H 296.924 3.30486 -3.64746 0
M  V30 3377 N 298.576 1.31904 0.862503 0
M  V30 3378 C 299.524 1.20125 1.9918 0
M  V30 3379 C 300.518 0.107824 1.69056 0
M  V30 3380 O 301.724 0.270223 1.7796 0
M  V30 3381 H 298.099 0.372148 0.65346 0
M  V30 3382 H 300.07 2.15652 2.06244 0
M  V30 3383 C 298.819 0.933099 3.34946 0
M  V30 3384 H 298.142 1.76664 3.5865 0
M  V30 3385 H 299.582 0.890892 4.14535 0
M  V30 3386 C 298.041 -0.364172 3.34926 0
M  V30 3387 O 298.571 -1.37858 3.77304 0
M  V30 3388 N 296.777 -0.383362 2.8806 0
M  V30 3389 H 296.324 0.442651 2.53768 0
M  V30 3390 H 296.282 -1.25123 2.8843 0
M  V30 3391 N 300.054 -1.07777 1.14986 0
M  V30 3392 C 300.964 -2.18404 0.856546 0
M  V30 3393 C 301.98 -1.73211 -0.165485 0
M  V30 3394 O 303.156 -2.01399 0.00755219 0
M  V30 3395 C 300.221 -3.44977 0.34526 0
M  V30 3396 C 299.282 -4.0476 1.43065 0
M  V30 3397 C 298.515 -5.25291 0.943663 0
M  V30 3398 O 298.738 -5.70004 -0.212426 0
M  V30 3399 O 297.672 -5.76638 1.72547 0
M  V30 3400 H 301.498 -2.45978 1.78125 0
M  V30 3401 H 299.083 -1.17033 0.928631 0
M  V30 3402 H 300.965 -4.21348 0.0663671 0
M  V30 3403 H 299.64 -3.18965 -0.551631 0
M  V30 3404 H 298.547 -3.29949 1.76309 0
M  V30 3405 H 299.88 -4.35035 2.30229 0
M  V30 3406 N 301.532 -0.945985 -1.26051 0
M  V30 3407 C 302.762 -0.612136 -1.97323 0
M  V30 3408 C 303.17 0.818171 -1.70595 0
M  V30 3409 O 302.513 1.55777 -0.973613 0
M  V30 3410 C 302.575 -0.780347 -3.50929 0
M  V30 3411 C 302.239 -2.18619 -4.01317 0
M  V30 3412 C 303.236 -3.16209 -4.12683 0
M  V30 3413 C 300.921 -2.50805 -4.35203 0
M  V30 3414 C 302.915 -4.44085 -4.57238 0
M  V30 3415 C 300.602 -3.78912 -4.79446 0
M  V30 3416 C 301.6 -4.75365 -4.90425 0
M  V30 3417 O 301.288 -6.01191 -5.3369 0
M  V30 3418 H 301.02 -0.229134 -0.635982 0
M  V30 3419 H 303.574 -1.27036 -1.61404 0
M  V30 3420 H 301.804 -0.0649864 -3.86645 0
M  V30 3421 H 303.493 -0.448842 -4.03411 0
M  V30 3422 H 304.259 -2.92668 -3.86744 0
M  V30 3423 H 300.138 -1.76463 -4.2589 0
M  V30 3424 H 303.682 -5.19373 -4.65723 0
M  V30 3425 H 299.579 -4.02265 -5.0483 0
M  V30 3426 H 300.347 -6.04442 -5.51899 0
M  V30 3427 N 303.011 1.40521 -0.713556 0
M  V30 3428 C 303.943 2.29191 -0.0203126 0
M  V30 3429 C 304.956 1.45723 0.725864 0
M  V30 3430 O 306.145 1.69033 0.573581 0
M  V30 3431 C 303.245 3.2395 0.995486 0
M  V30 3432 C 302.418 4.36262 0.315256 0
M  V30 3433 C 301.477 5.11474 1.23616 0
M  V30 3434 O 300.503 5.64606 0.721719 0
M  V30 3435 N 301.705 5.20638 2.56743 0
M  V30 3436 H 304.47 2.89327 -0.781652 0
M  V30 3437 H 302.031 1.51869 -0.561022 0
M  V30 3438 H 304.023 3.71137 1.61368 0
M  V30 3439 H 302.593 2.64995 1.6582 0
M  V30 3440 H 301.813 3.91228 -0.483106 0
M  V30 3441 H 303.101 5.08558 -0.157004 0
M  V30 3442 H 302.499 4.7895 3.01037 0
M  V30 3443 H 301.056 5.71339 3.13712 0
M  V30 3444 N 304.489 0.459591 1.5075 0
M  V30 3445 C 305.738 -0.100971 2.01447 0
M  V30 3446 C 306.051 -1.41816 1.34713 0
M  V30 3447 O 307.257 -2.06299 1.76502 0
M  V30 3448 C 305.713 -0.23047 3.59161 0
M  V30 3449 C 305.321 1.0776 4.34847 0
M  V30 3450 C 307.065 -0.743608 4.17936 0
M  V30 3451 C 304.972 0.91253 5.84317 0
M  V30 3452 H 303.902 -0.0415102 0.752856 0
M  V30 3453 H 306.553 0.592742 1.73663 0
M  V30 3454 H 304.935 -0.987703 3.83485 0
M  V30 3455 H 306.109 1.8449 4.22256 0
M  V30 3456 H 304.424 1.52097 3.87628 0
M  V30 3457 H 307.021 -0.883959 5.27343 0
M  V30 3458 H 307.364 -1.73196 3.78562 0
M  V30 3459 H 307.897 -0.04408 3.97776 0
M  V30 3460 H 304.636 1.87391 6.28144 0
M  V30 3461 H 304.156 0.185422 5.99513 0
M  V30 3462 H 305.835 0.574547 6.44444 0
M  V30 3463 N 305.967 -1.56429 0.191757 0
M  V30 3464 C 307.216 -1.9666 -0.448088 0
M  V30 3465 C 307.529 -1.08136 -1.62991 0
M  V30 3466 O 308.735 -1.38135 -2.33733 0
M  V30 3467 C 307.191 -3.49753 -0.848585 0
M  V30 3468 C 306.799 -4.46935 0.308764 0
M  V30 3469 C 308.543 -3.9876 -1.4557 0
M  V30 3470 C 306.45 -5.91293 -0.112506 0
M  V30 3471 H 305.38 -0.734312 -0.171179 0
M  V30 3472 H 308.031 -1.81301 0.283242 0
M  V30 3473 H 306.413 -3.60604 -1.63649 0
M  V30 3474 H 307.587 -4.47813 1.08627 0
M  V30 3475 H 305.902 -4.08102 0.827158 0
M  V30 3476 H 308.499 -5.04086 -1.78328 0
M  V30 3477 H 308.842 -3.42875 -2.36099 0
M  V30 3478 H 309.375 -3.9101 -0.731836 0
M  V30 3479 H 306.114 -6.51097 0.758514 0
M  V30 3480 H 305.634 -5.93676 -0.854941 0
M  V30 3481 H 307.313 -6.44663 -0.549448 0
M  V30 3482 N 307.445 0.0818655 -1.57387 0
M  V30 3483 C 308.67 0.799946 -1.91352 0
M  V30 3484 C 309.095 1.70833 -0.787258 0
M  V30 3485 O 308.453 1.79419 0.26048 0
M  V30 3486 C 308.501 1.57812 -3.24234 0
M  V30 3487 O 307.605 2.68806 -3.12757 0
M  V30 3488 H 306.946 0.21891 -0.626877 0
M  V30 3489 H 309.476 0.0531256 -2.04531 0
M  V30 3490 H 309.486 1.95952 -3.57864 0
M  V30 3491 H 308.161 0.911548 -4.05788 0
M  V30 3492 H 306.738 2.33597 -2.90666 0
M  V30 3493 N 308.923 1.53595 0.353017 0
M  V30 3494 C 310.169 1.70638 1.09593 0
M  V30 3495 C 310.502 0.463286 1.88593 0
M  V30 3496 O 309.777 -0.539597 1.86865 0
M  V30 3497 C 310.06 2.96406 2.04489 0
M  V30 3498 C 309.913 4.30901 1.29014 0
M  V30 3499 C 311.232 3.17812 3.0444 0
M  V30 3500 H 308.351 0.620913 0.397034 0
M  V30 3501 H 310.993 1.86254 0.375446 0
M  V30 3502 H 309.143 2.83223 2.65927 0
M  V30 3503 H 310.815 4.55917 0.702638 0
M  V30 3504 H 309.058 4.29741 0.592071 0
M  V30 3505 H 309.729 5.1506 1.98537 0
M  V30 3506 H 312.205 3.30263 2.53112 0
M  V30 3507 H 311.081 4.07223 3.6805 0
M  V30 3508 H 311.342 2.33669 3.75301 0
M  V30 3509 N 310.401 -0.613514 1.45168 0
M  V30 3510 C 311.626 -1.40437 1.52618 0
M  V30 3511 C 312.051 -1.87438 0.157707 0
M  V30 3512 O 311.409 -1.59791 -0.856537 0
M  V30 3513 C 311.457 -2.58894 2.51011 0
M  V30 3514 O 310.561 -3.59326 2.02382 0
M  V30 3515 H 309.902 -0.419506 0.514695 0
M  V30 3516 H 312.432 -0.747215 1.90467 0
M  V30 3517 H 312.442 -3.06214 2.69624 0
M  V30 3518 H 311.117 -2.24032 3.50403 0
M  V30 3519 H 309.694 -3.18695 1.93618 0
M  V30 3520 N 311.879 -1.3236 -0.855495 0
M  V30 3521 C 313.156 -1.13491 -1.59309 0
M  V30 3522 C 313.536 0.30503 -2.08885 0
M  V30 3523 O 312.884 1.30151 -1.87811 0
M  V30 3524 C 313.094 -2.16176 -2.73987 0
M  V30 3525 C 314.442 -2.49463 -3.43589 0
M  V30 3526 O 315.466 -2.14715 -2.84211 0
M  V30 3527 O 314.325 -3.09027 -4.50738 0
M  V30 3528 H 311.419 -0.437887 -0.701559 0
M  V30 3529 H 313.965 -1.43887 -0.899696 0
M  V30 3530 H 312.737 -3.1297 -2.34873 0
M  V30 3531 H 312.36 -1.86769 -3.51003 0
M  V30 3532 N 313.357 1.07166 -1.15556 0
M  V30 3533 C 314.603 1.80065 -0.932984 0
M  V30 3534 C 314.936 1.86586 0.53845 0
M  V30 3535 O 314.211 1.35098 1.39924 0
M  V30 3536 C 314.494 3.25022 -1.55025 0
M  V30 3537 C 314.347 3.26634 -3.09242 0
M  V30 3538 C 315.666 4.22341 -1.2376 0
M  V30 3539 H 312.785 0.653697 -0.340366 0
M  V30 3540 H 315.427 1.25389 -1.4275 0
M  V30 3541 H 313.577 3.71712 -1.12972 0
M  V30 3542 H 315.249 2.88173 -3.60214 0
M  V30 3543 H 313.492 2.65539 -3.43033 0
M  V30 3544 H 314.163 4.28854 -3.47546 0
M  V30 3545 H 316.639 3.8405 -1.60139 0
M  V30 3546 H 315.515 5.22053 -1.69564 0
M  V30 3547 H 315.776 4.41828 -0.154938 0
M  V30 3548 N 314.835 0.952656 1.25548 0
M  V30 3549 C 316.065 0.622592 1.96996 0
M  V30 3550 C 316.473 -0.809112 1.71026 0
M  V30 3551 O 315.816 -1.55258 0.981861 0
M  V30 3552 C 315.878 0.798946 3.5051 0
M  V30 3553 C 315.542 2.20744 4.00151 0
M  V30 3554 C 316.539 3.18394 4.11001 0
M  V30 3555 C 314.224 2.5311 4.33867 0
M  V30 3556 C 316.218 4.46504 4.54877 0
M  V30 3557 C 313.905 3.8145 4.7743 0
M  V30 3558 C 314.903 4.77959 4.87897 0
M  V30 3559 O 314.591 6.04012 5.30494 0
M  V30 3560 H 314.323 0.232503 0.634758 0
M  V30 3561 H 316.877 1.2789 1.60728 0
M  V30 3562 H 315.107 0.0854903 3.86605 0
M  V30 3563 H 316.796 0.47023 4.03167 0
M  V30 3564 H 317.562 2.94715 3.85186 0
M  V30 3565 H 313.441 1.78719 4.24948 0
M  V30 3566 H 316.985 5.21835 4.62962 0
M  V30 3567 H 312.882 4.04936 5.0269 0
M  V30 3568 H 313.65 6.0736 5.48685 0
M  V30 3569 N 316.313 -1.40141 0.720998 0
M  V30 3570 C 317.541 -2.05096 0.272656 0
M  V30 3571 C 317.956 -1.54334 -1.0875 0
M  V30 3572 O 317.313 -0.702211 -1.6845 0
M  V30 3573 C 317.364 -3.60636 0.249835 0
M  V30 3574 O 317.085 -4.09526 1.55629 0
M  V30 3575 C 318.586 -4.42772 -0.216396 0
M  V30 3576 H 315.806 -0.659897 0.121558 0
M  V30 3577 H 318.35 -1.79449 0.980723 0
M  V30 3578 H 316.505 -3.85232 -0.409237 0
M  V30 3579 H 316.919 -5.03758 1.4604 0
M  V30 3580 H 318.393 -5.51702 -0.181212 0
M  V30 3581 H 318.87 -4.20756 -1.25941 0
M  V30 3582 H 319.476 -4.23294 0.412596 0
M  V30 3583 N 317.792 -0.46758 -1.50504 0
M  V30 3584 C 319.017 0.0886943 -2.0721 0
M  V30 3585 C 319.442 1.33057 -1.32956 0
M  V30 3586 O 318.8 1.77354 -0.376197 0
M  V30 3587 C 318.848 0.359202 -3.58806 0
M  V30 3588 O 317.952 1.44034 -3.8643 0
M  V30 3589 H 317.293 -0.0114349 -0.663902 0
M  V30 3590 H 319.823 -0.657613 -1.93744 0
M  V30 3591 H 319.833 0.600742 -4.03553 0
M  V30 3592 H 318.508 -0.548311 -4.1227 0
M  V30 3593 H 317.085 1.18638 -3.53524 0
M  V30 3594 N 319.27 1.56325 -0.20005 0
M  V30 3595 C 320.218 2.20666 0.735482 0
M  V30 3596 C 321.212 1.17934 1.21605 0
M  V30 3597 O 322.418 1.36068 1.17837 0
M  V30 3598 H 318.793 0.70725 0.255542 0
M  V30 3599 H 320.764 2.9792 0.169166 0
M  V30 3600 C 319.513 2.88391 1.94232 0
M  V30 3601 H 318.836 3.67185 1.58161 0
M  V30 3602 H 320.276 3.3684 2.57517 0
M  V30 3603 C 318.735 1.89692 2.78421 0
M  V30 3604 O 319.265 1.40032 3.76502 0
M  V30 3605 N 317.471 1.57813 2.44015 0
M  V30 3606 H 317.018 1.9839 1.64314 0
M  V30 3607 H 316.976 0.920325 3.00628 0
M  V30 3608 N 320.748 -0.0735177 1.57428 0
M  V30 3609 C 321.696 -1.10628 2.04607 0
M  V30 3610 C 322.69 -1.40181 0.951088 0
M  V30 3611 O 323.896 -1.39608 1.1362 0
M  V30 3612 H 320.271 -0.374088 0.652351 0
M  V30 3613 H 322.242 -0.682218 2.90497 0
M  V30 3614 C 320.991 -2.41212 2.50423 0
M  V30 3615 H 320.314 -2.19322 3.34272 0
M  V30 3616 H 321.754 -3.11927 2.87189 0
M  V30 3617 C 320.213 -3.0705 1.38644 0
M  V30 3618 O 320.743 -3.95056 0.727582 0
M  V30 3619 N 318.949 -2.67645 1.132 0
M  V30 3620 H 318.496 -1.96169 1.66959 0
M  V30 3621 H 318.454 -3.1202 0.386147 0
M  V30 3622 N 322.226 -1.5378 -0.344866 0
M  V30 3623 C 323.454 -1.74899 -1.10534 0
M  V30 3624 C 323.869 -0.487534 -1.82397 0
M  V30 3625 O 323.226 0.540741 -1.74305 0
M  V30 3626 C 323.277 -2.92822 -2.11984 0
M  V30 3627 O 322.998 -4.14089 -1.43044 0
M  V30 3628 C 324.499 -3.25982 -3.00417 0
M  V30 3629 H 321.719 -0.584426 -0.329678 0
M  V30 3630 H 324.263 -2.006 -0.397474 0
M  V30 3631 H 322.418 -2.69457 -2.78338 0
M  V30 3632 H 322.832 -4.80272 -2.10805 0
M  V30 3633 H 324.306 -4.11848 -3.67539 0
M  V30 3634 H 324.783 -2.42228 -3.66363 0
M  V30 3635 H 325.389 -3.51349 -2.39654 0
M  V30 3636 N 323.704 0.605807 -1.45491 0
M  V30 3637 C 324.932 1.39136 -1.5313 0
M  V30 3638 C 325.347 1.88082 -0.164507 0
M  V30 3639 O 324.704 1.62316 0.834247 0
M  V30 3640 C 324.755 2.59463 -2.51716 0
M  V30 3641 O 324.476 2.12551 -3.83084 0
M  V30 3642 C 325.977 3.52301 -2.6907 0
M  V30 3643 H 323.197 0.425849 -0.51855 0
M  V30 3644 H 325.741 0.73865 -1.90694 0
M  V30 3645 H 323.896 3.20772 -2.17219 0
M  V30 3646 H 324.31 2.90744 -4.36541 0
M  V30 3647 H 325.784 4.33271 -3.42024 0
M  V30 3648 H 326.261 4.02757 -1.75167 0
M  V30 3649 H 326.867 2.96845 -3.04571 0
M  V30 3650 N 325.182 1.32811 0.848464 0
M  V30 3651 C 326.112 1.24882 1.97299 0
M  V30 3652 C 327.093 0.131357 1.69592 0
M  V30 3653 O 328.278 0.319553 1.91553 0
M  V30 3654 C 325.408 0.97746 3.33261 0
M  V30 3655 C 324.362 2.05682 3.75338 0
M  V30 3656 C 323.688 1.63777 5.09 0
M  V30 3657 C 324.988 3.47254 3.90144 0
M  V30 3658 H 326.682 2.18966 2.04191 0
M  V30 3659 H 324.228 1.05413 0.981029 0
M  V30 3660 H 326.181 0.908513 4.1149 0
M  V30 3661 H 324.905 0.000980011 3.266 0
M  V30 3662 H 323.564 2.11603 2.99366 0
M  V30 3663 H 323.212 0.648569 4.98801 0
M  V30 3664 H 322.912 2.36 5.38124 0
M  V30 3665 H 324.436 1.5833 5.89715 0
M  V30 3666 H 325.85 3.43888 4.58709 0
M  V30 3667 H 324.247 4.1788 4.30693 0
M  V30 3668 H 325.317 3.86462 2.92874 0
M  V30 3669 N 326.66 -1.06551 1.16123 0
M  V30 3670 C 327.937 -1.76097 0.85142 0
M  V30 3671 C 328.317 -2.00802 -0.6513 0
M  V30 3672 O 327.665 -1.63302 -1.59827 0
M  V30 3673 C 327.875 -3.06384 1.67122 0
M  V30 3674 C 329.223 -3.80585 1.88255 0
M  V30 3675 O 330.247 -3.16218 1.63966 0
M  V30 3676 O 329.106 -4.96212 2.2899 0
M  V30 3677 H 326.2 -0.765102 0.313923 0
M  V30 3678 H 328.746 -1.12844 1.26745 0
M  V30 3679 H 327.518 -2.84071 2.69108 0
M  V30 3680 H 327.141 -3.77371 1.25206 0
M  V30 3681 N 328.138 -0.959301 -1.25041 0
M  V30 3682 C 329.385 -0.616611 -1.92884 0
M  V30 3683 C 329.713 0.847036 -1.75087 0
M  V30 3684 O 328.968 1.62374 -1.09239 0
M  V30 3685 C 329.267 -0.927136 -3.45165 0
M  V30 3686 C 328.933 -2.37757 -3.83122 0
M  V30 3687 C 327.595 -2.77402 -3.93194 0
M  V30 3688 C 329.947 -3.31929 -4.01836 0
M  V30 3689 C 327.275 -4.10277 -4.19392 0
M  V30 3690 C 329.627 -4.64423 -4.29528 0
M  V30 3691 C 328.291 -5.03857 -4.37818 0
M  V30 3692 H 327.561 -0.225634 -0.705812 0
M  V30 3693 H 330.208 -1.20921 -1.48493 0
M  V30 3694 H 328.513 -0.252195 -3.90987 0
M  V30 3695 H 330.21 -0.6405 -3.95852 0
M  V30 3696 H 326.8 -2.06013 -3.75841 0
M  V30 3697 H 330.984 -3.02488 -3.93465 0
M  V30 3698 H 326.24 -4.40467 -4.24027 0
M  V30 3699 H 330.414 -5.37369 -4.42953 0
M  V30 3700 H 328.041 -6.06843 -4.57871 0
M  V30 3701 N 329.616 1.39756 -0.72842 0
M  V30 3702 C 330.865 1.99879 -0.270407 0
M  V30 3703 C 331.178 1.58449 1.14688 0
M  V30 3704 O 332.384 2.11362 1.70407 0
M  V30 3705 C 330.84 3.57292 -0.43252 0
M  V30 3706 C 330.448 4.07688 -1.85727 0
M  V30 3707 C 332.192 4.24485 -0.0359507 0
M  V30 3708 C 330.099 5.5765 -1.96928 0
M  V30 3709 H 329.029 0.747689 -0.0973472 0
M  V30 3710 H 331.68 1.59837 -0.901355 0
M  V30 3711 H 330.062 3.95097 0.267219 0
M  V30 3712 H 331.236 3.81231 -2.58843 0
M  V30 3713 H 329.551 3.53135 -2.20646 0
M  V30 3714 H 332.148 5.34609 -0.0987484 0
M  V30 3715 H 332.491 4.03915 1.00787 0
M  V30 3716 H 333.024 3.9183 -0.686604 0
M  V30 3717 H 329.763 5.8309 -2.99476 0
M  V30 3718 H 329.283 5.8593 -1.28241 0
M  V30 3719 H 330.962 6.22957 -1.74737 0
M  V30 3720 N 331.094 0.475555 1.50254 0
M  V30 3721 C 332.343 -0.0795996 2.01543 0
M  V30 3722 C 332.656 -1.4038 1.36209 0
M  V30 3723 O 333.862 -2.04415 1.7868 0
M  V30 3724 C 332.318 -0.192363 3.59386 0
M  V30 3725 C 331.926 1.12367 4.33679 0
M  V30 3726 C 333.67 -0.699238 4.18701 0
M  V30 3727 C 331.577 0.974453 5.83317 0
M  V30 3728 H 330.507 -0.0335228 0.753254 0
M  V30 3729 H 333.158 0.611128 1.73025 0
M  V30 3730 H 331.54 -0.946974 3.84511 0
M  V30 3731 H 332.714 1.88958 4.20276 0
M  V30 3732 H 331.029 1.562 3.85993 0
M  V30 3733 H 333.626 -0.827978 5.28251 0
M  V30 3734 H 333.969 -1.69171 3.80377 0
M  V30 3735 H 334.502 -0.00188807 3.978 0
M  V30 3736 H 331.241 1.94042 6.26121 0
M  V30 3737 H 330.761 0.248998 5.99283 0
M  V30 3738 H 332.44 0.642867 6.43798 0
M  V30 3739 N 332.573 -1.56217 0.208337 0
M  V30 3740 C 333.803 -2.02043 -0.431523 0
M  V30 3741 C 334.211 -1.08755 -1.54819 0
M  V30 3742 O 333.554 -0.0870009 -1.83494 0
M  V30 3743 C 333.616 -3.44239 -1.03633 0
M  V30 3744 C 333.28 -4.56965 -0.0567502 0
M  V30 3745 C 334.277 -5.14624 0.738773 0
M  V30 3746 C 331.962 -5.02266 0.0581736 0
M  V30 3747 C 333.956 -6.16045 1.63605 0
M  V30 3748 C 331.643 -6.03528 0.959001 0
M  V30 3749 C 332.641 -6.60293 1.7465 0
M  V30 3750 O 332.329 -7.59586 2.6322 0
M  V30 3751 H 332.061 -0.666772 -0.111313 0
M  V30 3752 H 334.615 -2.02919 0.318277 0
M  V30 3753 H 332.845 -3.40391 -1.83497 0
M  V30 3754 H 334.534 -3.73793 -1.58221 0
M  V30 3755 H 335.3 -4.80483 0.660364 0
M  V30 3756 H 331.179 -4.57771 -0.544633 0
M  V30 3757 H 334.723 -6.60279 2.25116 0
M  V30 3758 H 330.62 -6.37092 1.03848 0
M  V30 3759 H 331.388 -7.77057 2.57148 0
M  V30 3760 N 334.051 0.0651679 -1.57465 0
M  V30 3761 C 334.998 1.07675 -2.04144 0
M  V30 3762 C 335.968 1.38071 -0.923335 0
M  V30 3763 O 337.153 1.49026 -1.19146 0
M  V30 3764 C 334.293 2.38337 -2.49579 0
M  V30 3765 C 333.406 2.14413 -3.75035 0
M  V30 3766 C 332.541 3.38686 -4.09225 0
M  V30 3767 C 331.58 3.10156 -5.27702 0
M  V30 3768 N 330.717 4.26778 -5.57499 0
M  V30 3769 H 335.557 0.671716 -2.90331 0
M  V30 3770 H 333.094 0.3201 -1.43575 0
M  V30 3771 H 335.052 3.14632 -2.73975 0
M  V30 3772 H 333.682 2.7663 -1.6636 0
M  V30 3773 H 332.734 1.2878 -3.57939 0
M  V30 3774 H 334.046 1.89344 -4.61466 0
M  V30 3775 H 333.2 4.23373 -4.34558 0
M  V30 3776 H 331.939 3.66837 -3.21374 0
M  V30 3777 H 330.944 2.23866 -5.02159 0
M  V30 3778 H 332.169 2.8332 -6.17176 0
M  V30 3779 H 330.115 4.54948 -4.72608 0
M  V30 3780 H 330.032 4.05005 -6.38362 0
M  V30 3781 H 331.3 5.12443 -5.87386 0
M  V30 3782 N 335.529 1.53961 0.336706 0
M  V30 3783 C 336.476 1.82428 1.41381 0
M  V30 3784 C 337.446 0.670444 1.51968 0
M  V30 3785 O 338.631 0.915565 1.67398 0
M  V30 3786 C 335.771 2.04564 2.77934 0
M  V30 3787 C 334.884 3.32267 2.76084 0
M  V30 3788 C 334.019 3.44434 4.04399 0
M  V30 3789 C 333.058 4.66061 3.96804 0
M  V30 3790 N 332.195 4.75224 5.16823 0
M  V30 3791 H 337.035 2.74324 1.16405 0
M  V30 3792 H 334.572 1.35869 0.563752 0
M  V30 3793 H 336.53 2.15388 3.57301 0
M  V30 3794 H 335.16 1.15974 3.01247 0
M  V30 3795 H 334.212 3.3025 1.88784 0
M  V30 3796 H 335.524 4.21733 2.66351 0
M  V30 3797 H 334.678 3.54728 4.92192 0
M  V30 3798 H 333.417 2.53037 4.16921 0
M  V30 3799 H 332.422 4.55838 3.07396 0
M  V30 3800 H 333.647 5.58829 3.85858 0
M  V30 3801 H 331.593 3.86739 5.29876 0
M  V30 3802 H 331.51 5.58636 5.09374 0
M  V30 3803 H 332.778 4.89835 6.06367 0
M  V30 3804 N 337.007 -0.598083 1.45811 0
M  V30 3805 C 338.235 -1.38322 1.53866 0
M  V30 3806 C 338.65 -1.87992 0.174479 0
M  V30 3807 O 338.007 -1.62756 -0.825627 0
M  V30 3808 C 338.058 -2.58125 2.53089 0
M  V30 3809 O 337.779 -2.10516 3.84206 0
M  V30 3810 C 339.28 -3.50869 2.70935 0
M  V30 3811 H 336.5 -0.423093 0.520801 0
M  V30 3812 H 339.044 -0.728527 1.91083 0
M  V30 3813 H 337.199 -3.19615 2.18917 0
M  V30 3814 H 337.613 -2.88425 4.38077 0
M  V30 3815 H 339.087 -4.31451 3.44317 0
M  V30 3816 H 339.564 -4.01822 1.77301 0
M  V30 3817 H 340.17 -2.95225 3.06141 0
M  V30 3818 N 338.485 -1.33259 -0.841409 0
M  V30 3819 C 339.433 -1.23279 -1.97244 0
M  V30 3820 C 340.427 -0.134706 -1.68864 0
M  V30 3821 O 341.633 -0.298501 -1.77508 0
M  V30 3822 H 338.008 -0.382497 -0.647457 0
M  V30 3823 H 339.979 -2.18906 -2.02787 0
M  V30 3824 C 338.728 -0.986268 -3.33419 0
M  V30 3825 H 338.051 -1.82347 -3.55794 0
M  V30 3826 H 339.491 -0.956728 -4.13065 0
M  V30 3827 C 337.95 0.310842 -3.35463 0
M  V30 3828 O 338.48 1.31838 -3.79449 0
M  V30 3829 N 336.686 0.337485 -2.88634 0
M  V30 3830 H 336.233 -0.482967 -2.53032 0
M  V30 3831 H 336.191 1.20518 -2.90384 0
M  V30 3832 N 339.963 1.05934 -1.16686 0
M  V30 3833 C 340.911 2.15603 -0.872817 0
M  V30 3834 C 341.905 1.68647 0.159576 0
M  V30 3835 O 343.111 1.79995 0.0132125 0
M  V30 3836 H 339.486 0.703885 -0.264671 0
M  V30 3837 H 341.457 2.37613 -1.80507 0
M  V30 3838 C 340.206 3.45457 -0.394344 0
M  V30 3839 H 339.529 3.81984 -1.18019 0
M  V30 3840 H 340.969 4.2339 -0.227408 0
M  V30 3841 C 339.428 3.25021 0.88673 0
M  V30 3842 O 339.958 3.50906 1.95519 0
M  V30 3843 N 338.164 2.78437 0.831925 0
M  V30 3844 H 337.711 2.57572 -0.0377619 0
M  V30 3845 H 337.669 2.65144 1.68956 0
M  V30 3846 N 341.441 0.965919 1.2453 0
M  V30 3847 C 342.388 0.49402 2.25451 0
M  V30 3848 C 343.358 -0.45948 1.59618 0
M  V30 3849 O 344.543 -0.370238 1.87173 0
M  V30 3850 C 341.683 -0.211359 3.44452 0
M  V30 3851 C 340.796 0.7807 4.24887 0
M  V30 3852 C 339.931 0.0516105 5.31175 0
M  V30 3853 C 338.97 1.03385 6.03306 0
M  V30 3854 N 338.107 0.334887 7.01301 0
M  V30 3855 H 342.947 1.35946 2.65184 0
M  V30 3856 H 340.484 0.681515 1.3036 0
M  V30 3857 H 342.442 -0.637 4.12308 0
M  V30 3858 H 341.072 -1.04077 3.05562 0
M  V30 3859 H 340.124 1.32479 3.56586 0
M  V30 3860 H 341.436 1.52978 4.74762 0
M  V30 3861 H 340.59 -0.432114 6.05159 0
M  V30 3862 H 339.329 -0.730179 4.82203 0
M  V30 3863 H 338.334 1.52847 5.28127 0
M  V30 3864 H 339.559 1.81606 6.54367 0
M  V30 3865 H 337.505 -0.427959 6.54603 0
M  V30 3866 H 337.422 1.02287 7.49048 0
M  V30 3867 H 338.69 -0.126928 7.79397 0
M  V30 3868 N 342.919 -1.39368 0.735821 0
M  V30 3869 C 343.852 -2.28155 0.0451175 0
M  V30 3870 C 344.83 -1.44433 -0.746852 0
M  V30 3871 O 346.014 -1.73823 -0.729237 0
M  V30 3872 C 343.141 -3.253 -0.943266 0
M  V30 3873 C 342.187 -4.25826 -0.239685 0
M  V30 3874 S 343.02 -5.25166 1.04693 0
M  V30 3875 C 344.176 -6.2587 0.0611639 0
M  V30 3876 H 344.409 -2.86388 0.79807 0
M  V30 3877 H 341.942 -1.45104 0.527653 0
M  V30 3878 H 343.9 -3.81789 -1.50824 0
M  V30 3879 H 342.561 -2.66085 -1.66906 0
M  V30 3880 H 341.754 -4.94229 -0.987596 0
M  V30 3881 H 341.356 -3.73141 0.253274 0
M  V30 3882 H 343.648 -6.73007 -0.778941 0
M  V30 3883 H 344.591 -7.04508 0.712362 0
M  V30 3884 H 344.999 -5.63639 -0.311602 0
M  V30 3885 N 344.397 -0.483516 -1.5 0
M  V30 3886 C 345.327 0.293829 -2.31644 0
M  V30 3887 C 346.308 0.978864 -1.39112 0
M  V30 3888 O 347.493 0.973644 -1.68029 0
M  V30 3889 C 344.623 1.36897 -3.19181 0
M  V30 3890 C 343.577 0.804833 -4.20365 0
M  V30 3891 C 342.903 1.9792 -4.96721 0
M  V30 3892 C 344.203 -0.192313 -5.21946 0
M  V30 3893 H 345.897 -0.387616 -2.9688 0
M  V30 3894 H 343.443 -0.187856 -1.42769 0
M  V30 3895 H 345.396 1.92037 -3.751 0
M  V30 3896 H 344.12 2.07936 -2.51853 0
M  V30 3897 H 342.779 0.275319 -3.65565 0
M  V30 3898 H 342.427 2.67686 -4.25856 0
M  V30 3899 H 342.127 1.60789 -5.65173 0
M  V30 3900 H 343.651 2.53526 -5.55479 0
M  V30 3901 H 345.065 0.270333 -5.72662 0
M  V30 3902 H 343.462 -0.478543 -5.98189 0
M  V30 3903 H 344.532 -1.11409 -4.71928 0
M  V30 3904 N 345.875 1.56104 -0.216619 0
M  V30 3905 C 346.823 2.21434 0.712036 0
M  V30 3906 C 347.817 1.19218 1.20348 0
M  V30 3907 O 349.023 1.3731 1.16387 0
M  V30 3908 H 345.398 0.70992 0.248026 0
M  V30 3909 H 347.369 2.98083 0.137558 0
M  V30 3910 C 346.118 2.90434 1.91163 0
M  V30 3911 H 345.441 3.68842 1.54258 0
M  V30 3912 H 346.881 3.39552 2.5393 0
M  V30 3913 C 345.34 1.92635 2.76394 0
M  V30 3914 O 345.87 1.44017 3.74996 0
M  V30 3915 N 344.076 1.60392 2.42328 0
M  V30 3916 H 343.623 2.00122 1.622 0
M  V30 3917 H 343.581 0.952159 2.99635 0
M  V30 3918 N 347.353 -0.0568162 1.57498 0
M  V30 3919 C 348.263 -1.08346 2.08083 0
M  V30 3920 C 349.279 -1.41439 1.01346 0
M  V30 3921 O 350.455 -1.51316 1.32912 0
M  V30 3922 C 347.52 -2.37352 2.52715 0
M  V30 3923 C 346.581 -2.11093 3.73816 0
M  V30 3924 C 345.814 -3.33949 4.1631 0
M  V30 3925 O 346.037 -4.43622 3.58547 0
M  V30 3926 O 344.971 -3.21279 5.08983 0
M  V30 3927 H 348.797 -0.683667 2.95905 0
M  V30 3928 H 346.382 -0.271965 1.46904 0
M  V30 3929 H 348.264 -3.13246 2.81877 0
M  V30 3930 H 346.939 -2.76681 1.68016 0
M  V30 3931 H 345.846 -1.32856 3.49714 0
M  V30 3932 H 347.179 -1.76637 4.59413 0
M  V30 3933 N 348.832 -1.54138 -0.328536 0
M  V30 3934 C 349.764 -1.79509 -1.4251 0
M  V30 3935 C 350.777 -0.67688 -1.48061 0
M  V30 3936 O 351.966 -0.953898 -1.50874 0
M  V30 3937 C 349.066 -1.89337 -2.81078 0
M  V30 3938 C 348.239 -3.19443 -2.98789 0
M  V30 3939 C 347.298 -3.20036 -4.17688 0
M  V30 3940 O 346.324 -3.93697 -4.11086 0
M  V30 3941 N 347.526 -2.43467 -5.26976 0
M  V30 3942 H 350.291 -2.74139 -1.21111 0
M  V30 3943 H 347.852 -1.53373 -0.518499 0
M  V30 3944 H 349.844 -1.87167 -3.58818 0
M  V30 3945 H 348.414 -1.01826 -2.95551 0
M  V30 3946 H 347.634 -3.34614 -2.08391 0
M  V30 3947 H 348.922 -4.05354 -3.07515 0
M  V30 3948 H 348.32 -1.83201 -5.35214 0
M  V30 3949 H 346.877 -2.4708 -6.03154 0
M  V30 3950 N 350.31 0.590341 -1.46126 0
M  V30 3951 C 351.258 1.72105 -1.5647 0
M  V30 3952 C 352.252 1.63756 -0.433612 0
M  V30 3953 O 353.458 1.69342 -0.610194 0
M  V30 3954 H 349.833 0.568889 -0.491802 0
M  V30 3955 H 351.804 1.6051 -2.51553 0
M  V30 3956 C 350.553 3.10493 -1.56491 0
M  V30 3957 H 349.876 3.17583 -2.4286 0
M  V30 3958 H 351.316 3.8939 -1.67785 0
M  V30 3959 C 349.775 3.3563 -0.292231 0
M  V30 3960 O 350.305 3.96875 0.620739 0
M  V30 3961 N 348.511 2.90026 -0.182523 0
M  V30 3962 H 348.058 2.40367 -0.926356 0
M  V30 3963 H 348.016 3.07218 0.668152 0
M  V30 3964 N 351.788 1.33704 0.83433 0
M  V30 3965 C 353.028 1.26754 1.60352 0
M  V30 3966 C 353.392 -0.163182 1.91305 0
M  V30 3967 O 354.593 -0.3567 2.66423 0
M  V30 3968 C 352.864 2.12262 2.8754 0
M  V30 3969 S 354.423 2.22549 3.78176 0
M  V30 3970 H 351.241 0.450879 0.549753 0
M  V30 3971 H 353.843 1.68788 0.986444 0
M  V30 3972 H 352.547 3.15238 2.62779 0
M  V30 3973 H 352.078 1.71082 3.54252 0
M  V30 3974 H 354.093 1.3899 4.76336 0
M  V30 3975 N 353.266 -1.05314 1.17247 0
M  V30 3976 C 354.515 -1.77685 0.954521 0
M  V30 3977 C 354.828 -1.88616 -0.518025 0
M  V30 3978 O 356.034 -2.57714 -0.854144 0
M  V30 3979 C 354.49 -3.19402 1.65863 0
M  V30 3980 C 354.098 -3.16605 3.16963 0
M  V30 3981 C 355.842 -3.96237 1.52303 0
M  V30 3982 C 353.749 -4.53103 3.80068 0
M  V30 3983 H 352.679 -0.666 0.353496 0
M  V30 3984 H 355.33 -1.1805 1.40486 0
M  V30 3985 H 353.712 -3.79355 1.13602 0
M  V30 3986 H 354.886 -2.66176 3.76148 0
M  V30 3987 H 353.201 -2.53268 3.30521 0
M  V30 3988 H 355.798 -4.97157 1.96822 0
M  V30 3989 H 356.141 -4.136 0.473401 0
M  V30 3990 H 356.674 -3.42829 2.01775 0
M  V30 3991 H 353.413 -4.40946 4.85023 0
M  V30 3992 H 352.933 -5.03686 3.2567 0
M  V30 3993 H 354.612 -5.22045 3.82202 0
M  V30 3994 N 354.744 -0.972509 -1.24016 0
M  V30 3995 C 355.691 -0.505969 -2.25186 0
M  V30 3996 C 356.661 0.451009 -1.5986 0
M  V30 3997 O 357.846 0.360307 -1.87367 0
M  V30 3998 C 354.986 0.193089 -3.44559 0
M  V30 3999 C 354.099 -0.803222 -4.24467 0
M  V30 4000 C 353.234 -0.0797793 -5.3114 0
M  V30 4001 C 352.273 -1.06583 -6.02749 0
M  V30 4002 N 351.41 -0.372074 -7.01113 0
M  V30 4003 H 356.25 -1.37351 -2.64459 0
M  V30 4004 H 353.787 -0.688419 -1.29997 0
M  V30 4005 H 355.745 0.615125 -4.1264 0
M  V30 4006 H 354.375 1.02455 -3.06109 0
M  V30 4007 H 353.427 -1.34368 -3.55878 0
M  V30 4008 H 354.739 -1.55494 -4.73944 0
M  V30 4009 H 353.893 0.400015 -6.0538 0
M  V30 4010 H 352.632 0.704597 -4.82583 0
M  V30 4011 H 351.637 -1.55645 -5.27309 0
M  V30 4012 H 352.862 -1.85074 -6.53395 0
M  V30 4013 H 350.808 0.393238 -6.5482 0
M  V30 4014 H 350.725 -1.06258 -7.48495 0
M  V30 4015 H 351.993 0.0855932 -7.79453 0
M  V30 4016 N 356.222 1.38976 -0.743202 0
M  V30 4017 C 357.47 1.99948 -0.29417 0
M  V30 4018 C 357.791 1.59279 1.12495 0
M  V30 4019 O 357.061 0.844808 1.76748 0
M  V30 4020 H 355.641 0.739473 -0.105774 0
M  V30 4021 H 358.303 1.699 -0.954986 0
M  V30 4022 H 357.399 3.10142 -0.349056 0
M  V30 4023 N 357.7 0.491464 1.49741 0
M  V30 4024 C 358.61 -0.296835 2.32715 0
M  V30 4025 C 359.626 -0.976536 1.44013 0
M  V30 4026 O 360.802 -0.960023 1.77047 0
M  V30 4027 C 357.867 -1.35288 3.19215 0
M  V30 4028 C 356.928 -0.687632 4.23757 0
M  V30 4029 C 356.161 -1.69336 5.06123 0
M  V30 4030 O 356.384 -2.92219 4.89861 0
M  V30 4031 O 355.318 -1.25394 5.88693 0
M  V30 4032 H 359.144 0.382048 3.01287 0
M  V30 4033 H 356.729 0.252953 1.47243 0
M  V30 4034 H 358.611 -1.96411 3.72828 0
M  V30 4035 H 357.286 -2.01487 2.53347 0
M  V30 4036 H 356.193 -0.0369159 3.74082 0
M  V30 4037 H 357.526 -0.0682566 4.92153 0
M  V30 4038 N 359.178 -1.55987 0.224894 0
M  V30 4039 C 360.088 -2.24066 -0.69511 0
M  V30 4040 C 361.104 -1.24939 -1.21104 0
M  V30 4041 O 362.28 -1.5776 -1.25195 0
M  V30 4042 C 359.345 -2.90983 -1.88493 0
M  V30 4043 C 358.406 -4.05462 -1.41064 0
M  V30 4044 C 357.639 -4.69179 -2.54375 0
M  V30 4045 O 357.862 -4.31895 -3.72589 0
M  V30 4046 O 356.796 -5.58108 -2.25386 0
M  V30 4047 H 360.622 -3.03353 -0.145149 0
M  V30 4048 H 358.207 -1.49399 -0.00569476 0
M  V30 4049 H 360.089 -3.33209 -2.57972 0
M  V30 4050 H 358.764 -2.14653 -2.42293 0
M  V30 4051 H 357.671 -3.67798 -0.683774 0
M  V30 4052 H 359.004 -4.83545 -0.918985 0
M  V30 4053 N 360.656 0.0484629 -1.57525 0
M  V30 4054 C 361.603 1.05504 -2.05275 0
M  V30 4055 C 362.573 1.37084 -0.937927 0
M  V30 4056 O 363.758 1.47754 -1.2072 0
M  V30 4057 C 360.898 2.35676 -2.52093 0
M  V30 4058 C 360.011 2.10423 -3.77288 0
M  V30 4059 C 359.146 3.34327 -4.12794 0
M  V30 4060 C 358.185 3.04542 -5.30962 0
M  V30 4061 N 357.322 4.20841 -5.61994 0
M  V30 4062 H 362.162 0.640885 -2.91027 0
M  V30 4063 H 359.699 0.304854 -1.43906 0
M  V30 4064 H 361.657 3.11709 -2.77297 0
M  V30 4065 H 360.287 2.7485 -1.69285 0
M  V30 4066 H 359.339 1.24976 -3.59284 0
M  V30 4067 H 360.651 1.84438 -4.63448 0
M  V30 4068 H 359.805 4.1874 -4.39024 0
M  V30 4069 H 358.544 3.63408 -3.25247 0
M  V30 4070 H 357.549 2.18528 -5.04505 0
M  V30 4071 H 358.774 2.76758 -6.20146 0
M  V30 4072 H 356.72 4.4991 -4.77406 0
M  V30 4073 H 356.637 3.98212 -6.42622 0
M  V30 4074 H 357.905 5.06184 -5.92789 0
M  V30 4075 N 362.134 1.5431 0.320358 0
M  V30 4076 C 363.082 1.84647 1.4145 0
M  V30 4077 C 364.076 0.718624 1.53402 0
M  V30 4078 O 365.282 0.902335 1.5575 0
M  V30 4079 H 361.657 0.585349 0.472091 0
M  V30 4080 H 363.628 2.7614 1.13089 0
M  V30 4081 C 362.377 2.09341 2.77617 0
M  V30 4082 H 361.7 2.9559 2.69196 0
M  V30 4083 H 363.14 2.3452 3.53237 0
M  V30 4084 C 361.599 0.885939 3.25043 0
M  V30 4085 O 362.129 0.0967891 4.01583 0
M  V30 4086 N 360.335 0.696682 2.82125 0
M  V30 4087 H 359.882 1.34006 2.2 0
M  V30 4088 H 359.84 -0.109712 3.14209 0
M  V30 4089 N 363.613 -0.582584 1.46437 0
M  V30 4090 C 364.561 -1.71272 1.5738 0
M  V30 4091 C 365.555 -1.63524 0.44229 0
M  V30 4092 O 366.761 -1.69016 0.619166 0
M  V30 4093 H 363.136 -0.566273 0.494813 0
M  V30 4094 H 365.107 -1.59174 2.52401 0
M  V30 4095 C 363.856 -3.09658 1.58136 0
M  V30 4096 H 363.179 -3.16291 2.44541 0
M  V30 4097 H 364.619 -3.88494 1.69847 0
M  V30 4098 C 363.078 -3.3547 0.310026 0
M  V30 4099 O 363.608 -3.97199 -0.599683 0
M  V30 4100 N 361.814 -2.89925 0.197901 0
M  V30 4101 H 361.361 -2.39873 0.93909 0
M  V30 4102 H 361.319 -3.07568 -0.65185 0
M  V30 4103 N 365.091 -1.34144 -0.827227 0
M  V30 4104 C 366.368 -1.16844 -1.56865 0
M  V30 4105 C 366.748 0.260654 -2.09485 0
M  V30 4106 O 366.096 1.26138 -1.9053 0
M  V30 4107 C 366.306 -2.21939 -2.6934 0
M  V30 4108 C 367.654 -2.56695 -3.3822 0
M  V30 4109 O 368.678 -2.20695 -2.79593 0
M  V30 4110 O 367.537 -3.18518 -4.44082 0
M  V30 4111 H 364.631 -0.452669 -0.692112 0
M  V30 4112 H 367.177 -1.45763 -0.868973 0
M  V30 4113 H 365.949 -3.17882 -2.28182 0
M  V30 4114 H 365.572 -1.94172 -3.46962 0
M  V30 4115 N 366.569 1.04691 -1.17803 0
M  V30 4116 C 367.502 2.12068 -0.842765 0
M  V30 4117 C 368.48 1.61455 0.192608 0
M  V30 4118 O 369.664 1.88359 0.072995 0
M  V30 4119 C 366.791 3.37715 -0.258063 0
M  V30 4120 C 365.837 4.07164 -1.26962 0
M  V30 4121 S 366.67 4.55047 -2.82299 0
M  V30 4122 C 367.826 5.83935 -2.25323 0
M  V30 4123 H 368.059 2.4018 -1.75217 0
M  V30 4124 H 365.592 1.17366 -1.00323 0
M  V30 4125 H 367.55 4.10435 0.0727935 0
M  V30 4126 H 366.211 3.0773 0.629357 0
M  V30 4127 H 365.404 4.9746 -0.809263 0
M  V30 4128 H 365.006 3.40533 -1.54639 0
M  V30 4129 H 367.298 6.57552 -1.63192 0
M  V30 4130 H 368.241 6.34725 -3.13894 0
M  V30 4131 H 368.649 5.3874 -1.68582 0
M  V30 4132 N 368.047 0.979072 1.23499 0
M  V30 4133 C 369.458 0.684391 1.73704 0
M  V30 4134 C 369.809 -0.799448 1.79174 0
M  V30 4135 O 368.934 -1.62531 1.42873 0
M  V30 4136 C 369.529 1.23564 3.15464 0
M  V30 4137 C 368.088 0.99063 3.6313 0
M  V30 4138 C 367.235 1.36416 2.41425 0
M  V30 4139 H 370.186 1.15307 1.09041 0
M  V30 4140 H 370.207 0.607417 3.7562 0
M  V30 4141 H 369.719 2.31561 3.1145 0
M  V30 4142 H 367.82 -0.0733136 3.72528 0
M  V30 4143 H 367.933 1.64427 4.5 0
M  V30 4144 H 366.297 0.782616 2.42378 0
M  V30 4145 H 367.08 2.45387 2.40083 0
M  V30 4146 N 369.525 -1.3858 0.750561 0
M  V30 4147 C 370.455 -2.33102 0.136237 0
M  V30 4148 C 371.436 -1.54713 -0.706965 0
M  V30 4149 O 372.621 -1.83043 -0.648769 0
M  V30 4150 C 369.751 -3.38882 -0.760017 0
M  V30 4151 C 368.705 -4.27995 -0.0197785 0
M  V30 4152 C 368.031 -5.24605 -1.03408 0
M  V30 4153 C 369.331 -5.09554 1.14684 0
M  V30 4154 H 371.025 -2.84726 0.925822 0
M  V30 4155 H 368.571 -1.36898 0.446654 0
M  V30 4156 H 370.524 -4.0397 -1.19943 0
M  V30 4157 H 369.248 -2.85734 -1.58189 0
M  V30 4158 H 367.907 -3.64409 0.400184 0
M  V30 4159 H 367.555 -4.67746 -1.84994 0
M  V30 4160 H 367.255 -5.85081 -0.543464 0
M  V30 4161 H 368.779 -5.9257 -1.47288 0
M  V30 4162 H 370.193 -5.67899 0.785118 0
M  V30 4163 H 368.59 -5.7925 1.56812 0
M  V30 4164 H 369.66 -4.4347 1.96118 0
M  V30 4165 N 371.003 -0.499398 -1.49478 0
M  V30 4166 C 371.95 0.279881 -2.29097 0
M  V30 4167 C 372.92 0.961805 -1.3542 0
M  V30 4168 O 374.105 0.968777 -1.64376 0
M  V30 4169 C 371.245 1.33932 -3.18051 0
M  V30 4170 C 370.358 0.669333 -4.26783 0
M  V30 4171 C 369.493 1.70907 -5.02955 0
M  V30 4172 C 368.532 1.02087 -6.03527 0
M  V30 4173 N 367.669 2.00474 -6.7287 0
M  V30 4174 H 372.509 -0.405317 -2.95231 0
M  V30 4175 H 370.046 -0.211726 -1.45568 0
M  V30 4176 H 372.004 1.96553 -3.67998 0
M  V30 4177 H 370.634 1.9933 -2.53904 0
M  V30 4178 H 369.686 -0.0701234 -3.80335 0
M  V30 4179 H 370.998 0.127503 -4.98637 0
M  V30 4180 H 370.152 2.41037 -5.56764 0
M  V30 4181 H 368.891 2.28476 -4.30871 0
M  V30 4182 H 367.896 0.305338 -5.48951 0
M  V30 4183 H 369.121 0.451708 -6.77596 0
M  V30 4184 H 367.067 2.57007 -6.03559 0
M  V30 4185 H 366.984 1.51353 -7.40694 0
M  V30 4186 H 368.252 2.69897 -7.31284 0
M  V30 4187 N 372.481 1.55866 -0.233164 0
M  V30 4188 C 373.429 2.22176 0.68851 0
M  V30 4189 C 374.423 1.20487 1.19076 0
M  V30 4190 O 375.629 1.38536 1.14925 0
M  V30 4191 H 372.004 0.712511 0.240483 0
M  V30 4192 H 373.975 2.98212 0.105935 0
M  V30 4193 C 372.724 2.92446 1.88071 0
M  V30 4194 H 372.047 3.70458 1.50337 0
M  V30 4195 H 373.487 3.42226 2.50314 0
M  V30 4196 C 371.946 1.95555 2.74335 0
M  V30 4197 O 372.476 1.47986 3.73447 0
M  V30 4198 N 370.682 1.62953 2.40613 0
M  V30 4199 H 370.229 2.01831 1.60069 0
M  V30 4200 H 370.187 0.983886 2.98609 0
M  V30 4201 N 373.959 -0.0401083 1.57549 0
M  V30 4202 C 375.236 -0.767917 1.79896 0
M  V30 4203 C 375.616 -1.9416 0.82856 0
M  V30 4204 O 374.964 -2.2812 -0.131671 0
M  V30 4205 C 375.174 -1.2113 3.27305 0
M  V30 4206 C 376.522 -1.63175 3.91994 0
M  V30 4207 O 377.546 -1.30616 3.31388 0
M  V30 4208 O 376.405 -2.23565 4.98679 0
M  V30 4209 H 373.499 -0.370441 0.739393 0
M  V30 4210 H 376.045 -0.017737 1.69691 0
M  V30 4211 H 374.817 -0.372937 3.89519 0
M  V30 4212 H 374.44 -2.02183 3.42356 0
M  V30 4213 N 375.437 -1.54477 -0.31217 0
M  V30 4214 C 376.714 -1.63891 -1.06767 0
M  V30 4215 C 377.094 -0.480028 -2.0557 0
M  V30 4216 O 376.442 0.524487 -2.22399 0
M  V30 4217 C 376.652 -3.01402 -1.75948 0
M  V30 4218 C 378 -3.57838 -2.28554 0
M  V30 4219 O 379.024 -3.03782 -1.85998 0
M  V30 4220 O 377.883 -4.52462 -3.06497 0
M  V30 4221 H 374.977 -0.664125 -0.492816 0
M  V30 4222 H 377.523 -1.66823 -0.311149 0
M  V30 4223 H 376.295 -3.77187 -1.04144 0
M  V30 4224 H 375.918 -3.02199 -2.58383 0
M  V30 4225 N 376.915 0.57481 -1.46744 0
M  V30 4226 C 377.862 1.68329 -1.57905 0
M  V30 4227 C 378.832 1.60625 -0.422927 0
M  V30 4228 O 380.017 1.79721 -0.640711 0
M  V30 4229 C 377.157 3.06665 -1.58274 0
M  V30 4230 C 376.27 3.24935 -2.84678 0
M  V30 4231 C 375.405 4.53566 -2.76499 0
M  V30 4232 C 374.444 4.65207 -3.97806 0
M  V30 4233 N 373.581 5.85172 -3.87967 0
M  V30 4234 H 378.421 1.58127 -2.52587 0
M  V30 4235 H 375.958 0.770552 -1.25303 0
M  V30 4236 H 377.916 3.86745 -1.56473 0
M  V30 4237 H 376.546 3.15745 -0.671194 0
M  V30 4238 H 375.598 2.38405 -2.96424 0
M  V30 4239 H 376.91 3.29403 -3.7456 0
M  V30 4240 H 376.064 5.41885 -2.72848 0
M  V30 4241 H 374.803 4.51548 -1.8427 0
M  V30 4242 H 373.808 3.75304 -4.0178 0
M  V30 4243 H 375.033 4.68997 -4.9114 0
M  V30 4244 H 372.979 5.84137 -2.98529 0
M  V30 4245 H 372.896 5.90943 -4.71511 0
M  V30 4246 H 374.164 6.759 -3.88303 0
M  V30 4247 N 378.394 1.34581 0.820102 0
M  V30 4248 C 379.671 1.17675 1.56244 0
M  V30 4249 C 380.051 -0.249541 2.0962 0
M  V30 4250 O 379.399 -1.25125 1.91196 0
M  V30 4251 C 379.609 2.23364 2.6816 0
M  V30 4252 C 380.957 2.58485 3.36854 0
M  V30 4253 O 381.981 2.22175 2.78418 0
M  V30 4254 O 380.84 3.20868 4.42386 0
M  V30 4255 H 377.934 0.456333 0.689702 0
M  V30 4256 H 380.48 1.46222 0.861231 0
M  V30 4257 H 379.252 3.19087 2.26493 0
M  V30 4258 H 378.875 1.96009 3.45928 0
M  V30 4259 N 379.872 -1.04064 1.18357 0
M  V30 4260 C 381.1 -1.80916 1.00384 0
M  V30 4261 C 381.515 -1.83414 -0.447738 0
M  V30 4262 O 380.872 -1.26962 -1.31099 0
M  V30 4263 C 380.923 -3.26516 1.55144 0
M  V30 4264 O 380.644 -3.2424 2.94618 0
M  V30 4265 C 382.145 -4.20013 1.41789 0
M  V30 4266 H 379.365 -0.569728 0.354474 0
M  V30 4267 H 381.909 -1.31151 1.56906 0
M  V30 4268 H 380.064 -3.73512 1.02798 0
M  V30 4269 H 380.478 -4.15452 3.20156 0
M  V30 4270 H 381.952 -5.20111 1.84901 0
M  V30 4271 H 382.429 -4.37667 0.36661 0
M  V30 4272 H 383.035 -3.78881 1.93207 0
M  V30 4273 N 381.35 -0.985608 -1.22978 0
M  V30 4274 C 382.59 -0.665487 -1.93263 0
M  V30 4275 C 382.954 0.78706 -1.75127 0
M  V30 4276 O 384.155 1.21826 -2.39608 0
M  V30 4277 C 382.426 -1.0515 -3.41582 0
M  V30 4278 S 383.985 -0.848637 -4.30516 0
M  V30 4279 H 380.803 -0.24355 -0.667985 0
M  V30 4280 H 383.405 -1.26635 -1.48942 0
M  V30 4281 H 382.109 -2.10517 -3.52293 0
M  V30 4282 H 381.64 -0.442134 -3.90908 0
M  V30 4283 H 383.655 0.264717 -4.95493 0
M  V30 4284 N 382.828 1.3818 -0.7579 0
M  V30 4285 C 383.778 2.27741 -0.108674 0
M  V30 4286 C 384.762 1.45415 0.688709 0
M  V30 4287 O 385.954 1.68108 0.553956 0
M  V30 4288 C 383.083 3.34313 0.780367 0
M  V30 4289 C 382.169 4.24093 -0.0240977 0
M  V30 4290 N 382.56 4.9451 -1.06271 0
M  V30 4291 C 380.858 4.45542 0.202049 0
M  V30 4292 C 381.559 5.60675 -1.54979 0
M  V30 4293 N 380.535 5.36684 -0.864348 0
M  V30 4294 H 384.337 2.79649 -0.904071 0
M  V30 4295 H 381.851 1.51133 -0.594346 0
M  V30 4296 H 383.848 3.97368 1.26114 0
M  V30 4297 H 382.508 2.83962 1.57467 0
M  V30 4298 H 383.519 4.97345 -1.44459 0
M  V30 4299 H 380.196 4.06091 0.96935 0
M  V30 4300 H 381.586 6.26992 -2.41517 0
M  V30 4301 N 384.306 0.507319 1.49211 0
M  V30 4302 C 385.239 -0.314509 2.26022 0
M  V30 4303 C 386.217 -0.964849 1.30879 0
M  V30 4304 O 387.401 -0.993707 1.6018 0
M  V30 4305 C 384.528 -1.44346 3.06402 0
M  V30 4306 C 383.574 -0.90685 4.16748 0
M  V30 4307 S 384.407 0.207392 5.35098 0
M  V30 4308 C 385.563 -0.924573 6.19033 0
M  V30 4309 H 385.796 0.337416 2.95379 0
M  V30 4310 H 383.329 0.292718 1.516 0
M  V30 4311 H 385.287 -2.09029 3.53295 0
M  V30 4312 H 383.948 -2.06702 2.36502 0
M  V30 4313 H 383.141 -1.75309 4.72528 0
M  V30 4314 H 382.743 -0.33712 3.72478 0
M  V30 4315 H 385.035 -1.82839 6.52362 0
M  V30 4316 H 385.978 -0.405248 7.06939 0
M  V30 4317 H 386.386 -1.19476 5.51712 0
M  V30 4318 N 385.784 -1.5574 0.241426 0
M  V30 4319 C 386.731 -2.21149 -0.660432 0
M  V30 4320 C 387.701 -1.17356 -1.17545 0
M  V30 4321 O 388.886 -1.45784 -1.23093 0
M  V30 4322 C 386.026 -2.91059 -1.85414 0
M  V30 4323 C 385.139 -4.09495 -1.37616 0
M  V30 4324 C 384.274 -4.67135 -2.529 0
M  V30 4325 C 383.313 -5.77831 -2.01936 0
M  V30 4326 N 382.45 -6.29677 -3.10566 0
M  V30 4327 H 387.29 -2.97845 -0.095955 0
M  V30 4328 H 384.827 -1.47057 -0.0356024 0
M  V30 4329 H 386.785 -3.29788 -2.5553 0
M  V30 4330 H 385.415 -2.16846 -2.39118 0
M  V30 4331 H 384.467 -3.76117 -0.569235 0
M  V30 4332 H 385.779 -4.89423 -0.962618 0
M  V30 4333 H 384.933 -5.08409 -3.31067 0
M  V30 4334 H 383.672 -3.86411 -2.97553 0
M  V30 4335 H 382.677 -5.36039 -1.22238 0
M  V30 4336 H 383.902 -6.60402 -1.58259 0
M  V30 4337 H 381.848 -5.5186 -3.54664 0
M  V30 4338 H 381.765 -7.04783 -2.73526 0
M  V30 4339 H 383.033 -6.75609 -3.88809 0
M  V30 4340 N 387.262 0.0317525 -1.57568 0
M  V30 4341 C 388.209 1.0332 -2.06382 0
M  V30 4342 C 389.179 1.36082 -0.952414 0
M  V30 4343 O 390.364 1.46466 -1.2228 0
M  V30 4344 C 387.504 2.32989 -2.54578 0
M  V30 4345 C 386.617 2.0641 -3.79498 0
M  V30 4346 C 385.752 3.2993 -4.16317 0
M  V30 4347 C 384.791 2.98893 -5.34162 0
M  V30 4348 N 383.928 4.14857 -5.66426 0
M  V30 4349 H 388.768 0.609982 -2.9169 0
M  V30 4350 H 386.305 0.289573 -1.44222 0
M  V30 4351 H 388.263 3.0875 -2.80587 0
M  V30 4352 H 386.893 2.73039 -1.7219 0
M  V30 4353 H 385.945 1.21158 -3.6059 0
M  V30 4354 H 387.257 1.79513 -4.65378 0
M  V30 4355 H 386.411 4.1406 -4.4344 0
M  V30 4356 H 385.15 3.59938 -3.29083 0
M  V30 4357 H 384.155 2.13164 -5.06795 0
M  V30 4358 H 385.38 2.70165 -6.23047 0
M  V30 4359 H 383.326 4.44821 -4.82151 0
M  V30 4360 H 383.243 3.91374 -6.4681 0
M  V30 4361 H 384.511 4.99868 -5.98124 0
M  V30 4362 N 388.74 1.54641 0.303973 0
M  V30 4363 C 389.67 1.88386 1.3796 0
M  V30 4364 C 390.651 0.742485 1.5304 0
M  V30 4365 O 391.836 0.997959 1.66597 0
M  V30 4366 C 388.966 2.12854 2.74427 0
M  V30 4367 C 387.92 3.28702 2.74115 0
M  V30 4368 C 387.246 3.38582 4.13844 0
M  V30 4369 C 388.546 4.65881 2.3612 0
M  V30 4370 H 390.24 2.78474 1.09966 0
M  V30 4371 H 387.786 1.33988 0.527556 0
M  V30 4372 H 389.739 2.35047 3.49758 0
M  V30 4373 H 388.463 1.19535 3.03939 0
M  V30 4374 H 387.122 3.06428 2.0124 0
M  V30 4375 H 386.77 2.42784 4.40528 0
M  V30 4376 H 386.47 4.16453 4.14537 0
M  V30 4377 H 387.994 3.63031 4.90959 0
M  V30 4378 H 389.408 4.87823 3.01167 0
M  V30 4379 H 387.805 5.46444 2.48031 0
M  V30 4380 H 388.875 4.66799 1.3125 0
M  V30 4381 N 390.218 -0.567019 1.47046 0
M  V30 4382 C 391.446 -1.35027 1.56765 0
M  V30 4383 C 391.861 -1.8758 0.214316 0
M  V30 4384 O 391.218 -1.64471 -0.790919 0
M  V30 4385 C 391.269 -2.52698 2.58507 0
M  V30 4386 O 390.99 -2.0232 3.88585 0
M  V30 4387 C 392.491 -3.45043 2.78316 0
M  V30 4388 H 389.711 -0.41195 0.529658 0
M  V30 4389 H 392.255 -0.687832 1.92585 0
M  V30 4390 H 390.41 -3.149 2.25648 0
M  V30 4391 H 390.824 -2.79068 4.44096 0
M  V30 4392 H 392.298 -4.2405 3.53391 0
M  V30 4393 H 392.775 -3.97971 1.85784 0
M  V30 4394 H 393.381 -2.88665 3.12334 0
M  V30 4395 N 391.696 -1.35014 -0.812953 0
M  V30 4396 C 392.606 -1.2951 -1.95613 0
M  V30 4397 C 393.622 -0.20107 -1.72834 0
M  V30 4398 O 394.798 -0.42932 -1.96771 0
M  V30 4399 C 391.863 -1.06033 -3.30088 0
M  V30 4400 C 390.924 -2.24688 -3.65805 0
M  V30 4401 C 390.157 -2.02322 -4.93864 0
M  V30 4402 O 390.38 -0.986464 -5.61805 0
M  V30 4403 O 389.314 -2.89525 -5.27692 0
M  V30 4404 H 393.14 -2.25705 -2.03202 0
M  V30 4405 H 390.725 -1.15321 -0.949811 0
M  V30 4406 H 392.607 -0.94763 -4.10607 0
M  V30 4407 H 391.282 -0.128852 -3.23443 0
M  V30 4408 H 390.189 -2.41521 -2.85689 0
M  V30 4409 H 391.522 -3.16261 -3.77147 0
M  V30 4410 N 393.175 1.03435 -1.18907 0
M  V30 4411 C 394.422 1.76743 -0.988334 0
M  V30 4412 C 394.75 1.88447 0.481441 0
M  V30 4413 O 394.005 1.39383 1.37371 0
M  V30 4414 C 394.304 3.19792 -1.59586 0
M  V30 4415 C 393.97 3.28108 -3.09283 0
M  V30 4416 C 392.632 3.30084 -3.5014 0
M  V30 4417 C 394.984 3.27696 -4.05296 0
M  V30 4418 C 392.312 3.29299 -4.85571 0
M  V30 4419 C 394.664 3.28451 -5.4065 0
M  V30 4420 C 393.328 3.28723 -5.80946 0
M  V30 4421 H 392.598 0.64675 -0.361657 0
M  V30 4422 H 395.245 1.21442 -1.48068 0
M  V30 4423 H 393.55 3.78136 -1.02568 0
M  V30 4424 H 395.247 3.75171 -1.41589 0
M  V30 4425 H 391.837 3.27294 -2.76725 0
M  V30 4426 H 396.021 3.25354 -3.74778 0
M  V30 4427 H 391.277 3.2783 -5.16079 0
M  V30 4428 H 395.451 3.27082 -6.14809 0
M  V30 4429 H 393.078 3.27868 -6.85862 0
M  V30 4430 N 394.653 0.992116 1.22453 0
M  V30 4431 C 395.883 0.684949 1.94915 0
M  V30 4432 C 396.291 -0.754292 1.73514 0
M  V30 4433 O 395.634 -1.52056 1.03076 0
M  V30 4434 C 395.696 0.910054 3.47791 0
M  V30 4435 C 395.36 2.33363 3.92926 0
M  V30 4436 C 396.357 3.31308 4.00663 0
M  V30 4437 C 394.042 2.66785 4.25595 0
M  V30 4438 C 396.036 4.6075 4.40441 0
M  V30 4439 C 393.723 3.96446 4.65053 0
M  V30 4440 C 394.721 4.9324 4.72444 0
M  V30 4441 O 394.409 6.20584 5.1101 0
M  V30 4442 H 394.141 0.25258 0.62704 0
M  V30 4443 H 396.695 1.32939 1.56577 0
M  V30 4444 H 394.925 0.208443 3.86138 0
M  V30 4445 H 396.614 0.598257 4.01467 0
M  V30 4446 H 397.38 3.0682 3.75615 0
M  V30 4447 H 393.259 1.92148 4.19047 0
M  V30 4448 H 396.803 5.363 4.46126 0
M  V30 4449 H 392.7 4.20724 4.89552 0
M  V30 4450 H 393.468 6.24509 5.29085 0
M  V30 4451 N 396.131 -1.37776 0.765217 0
M  V30 4452 C 397.078 -2.30342 0.145274 0
M  V30 4453 C 398.048 -1.5077 -0.696971 0
M  V30 4454 O 399.233 -1.79362 -0.650689 0
M  V30 4455 C 396.373 -3.37227 -0.732939 0
M  V30 4456 C 395.486 -4.31819 0.125199 0
M  V30 4457 C 394.621 -5.25777 -0.757107 0
M  V30 4458 C 393.66 -6.12012 0.103963 0
M  V30 4459 N 392.797 -6.98232 -0.735953 0
M  V30 4460 H 397.637 -2.8278 0.940195 0
M  V30 4461 H 395.174 -1.39211 0.475255 0
M  V30 4462 H 397.132 -3.97818 -1.25686 0
M  V30 4463 H 395.762 -2.86171 -1.49353 0
M  V30 4464 H 394.814 -3.7259 0.766865 0
M  V30 4465 H 396.126 -4.92509 0.789683 0
M  V30 4466 H 395.28 -5.91541 -1.34776 0
M  V30 4467 H 394.019 -4.65481 -1.45529 0
M  V30 4468 H 393.024 -5.45233 0.707197 0
M  V30 4469 H 394.249 -6.74379 0.799381 0
M  V30 4470 H 392.195 -6.40472 -1.41887 0
M  V30 4471 H 392.112 -7.55891 -0.128624 0
M  V30 4472 H 393.38 -7.68393 -1.31121 0
M  V30 4473 N 397.609 -0.515225 -1.4894 0
M  V30 4474 C 398.557 0.269115 -2.31038 0
M  V30 4475 C 399.551 0.949443 -1.40292 0
M  V30 4476 O 400.757 0.87551 -1.57273 0
M  V30 4477 H 397.132 0.10565 -0.744542 0
M  V30 4478 H 399.103 -0.443096 -2.95092 0
M  V30 4479 C 397.852 1.31213 -3.21991 0
M  V30 4480 H 397.175 0.798034 -3.91754 0
M  V30 4481 H 398.615 1.83263 -3.82349 0
M  V30 4482 C 397.074 2.33791 -2.42576 0
M  V30 4483 O 397.604 3.3995 -2.14003 0
M  V30 4484 N 395.81 2.06625 -2.0434 0
M  V30 4485 H 395.357 1.20314 -2.27777 0
M  V30 4486 H 395.315 2.75483 -1.51514 0
M  V30 4487 N 399.087 1.5561 -0.249682 0
M  V30 4488 C 400.333 1.99306 0.374841 0
M  V30 4489 C 400.666 1.13767 1.57387 0
M  V30 4490 O 399.941 0.201711 1.93451 0
M  V30 4491 C 400.224 3.51507 0.781986 0
M  V30 4492 C 400.077 4.4781 -0.422629 0
M  V30 4493 C 401.396 4.08884 1.62793 0
M  V30 4494 H 398.515 0.724572 0.134773 0
M  V30 4495 H 401.157 1.86719 -0.351549 0
M  V30 4496 H 399.307 3.62363 1.4009 0
M  V30 4497 H 400.979 4.48931 -1.06108 0
M  V30 4498 H 399.222 4.20518 -1.06524 0
M  V30 4499 H 399.893 5.51919 -0.0943766 0
M  V30 4500 H 402.369 4.01147 1.10547 0
M  V30 4501 H 401.245 5.1564 1.88166 0
M  V30 4502 H 401.506 3.57515 2.60068 0
M  V30 4503 N 400.565 -0.0233959 1.57583 0
M  V30 4504 C 401.842 -0.748794 1.807 0
M  V30 4505 C 402.222 -1.9327 0.849106 0
M  V30 4506 O 401.57 -2.28247 -0.107468 0
M  V30 4507 C 401.78 -1.17651 3.28571 0
M  V30 4508 C 403.128 -1.59008 3.93702 0
M  V30 4509 O 404.152 -1.27094 3.32755 0
M  V30 4510 O 403.011 -2.18264 5.01022 0
M  V30 4511 H 400.105 -0.362578 0.743281 0
M  V30 4512 H 402.651 0.000261958 1.697 0
M  V30 4513 H 401.423 -0.331603 3.89892 0
M  V30 4514 H 401.046 -1.98541 3.44481 0
M  V30 4515 N 402.043 -1.548 -0.295768 0
M  V30 4516 C 402.99 -1.86113 -1.36494 0
M  V30 4517 C 403.96 -0.7105 -1.50137 0
M  V30 4518 O 405.145 -0.959626 -1.64912 0
M  V30 4519 C 402.285 -2.11861 -2.72413 0
M  V30 4520 C 401.398 -3.39471 -2.67177 0
M  V30 4521 C 400.533 -3.55035 -3.95125 0
M  V30 4522 C 399.572 -4.76418 -3.84308 0
M  V30 4523 N 398.709 -4.8876 -5.04042 0
M  V30 4524 H 403.549 -2.77314 -1.09091 0
M  V30 4525 H 401.086 -1.37315 -0.52753 0
M  V30 4526 H 403.044 -2.24786 -3.51464 0
M  V30 4527 H 401.674 -1.2392 -2.98066 0
M  V30 4528 H 400.726 -3.35139 -1.79962 0
M  V30 4529 H 402.038 -4.28646 -2.55076 0
M  V30 4530 H 401.192 -3.67653 -4.82614 0
M  V30 4531 H 399.931 -2.64002 -4.10066 0
M  V30 4532 H 398.936 -4.63827 -2.95202 0
M  V30 4533 H 400.161 -5.68863 -3.70906 0
M  V30 4534 H 398.107 -4.00652 -5.19436 0
M  V30 4535 H 398.024 -5.71945 -4.94384 0
M  V30 4536 H 399.292 -5.0574 -5.93167 0
M  V30 4537 N 403.521 0.559213 -1.47345 0
M  V30 4538 C 404.751 1.33999 -1.57251 0
M  V30 4539 C 405.159 1.87905 -0.220978 0
M  V30 4540 O 404.502 1.65577 0.795617 0
M  V30 4541 C 404.564 2.54798 -2.53611 0
M  V30 4542 C 404.228 2.22192 -3.99349 0
M  V30 4543 C 405.225 1.79607 -4.87891 0
M  V30 4544 C 402.91 2.33613 -4.44669 0
M  V30 4545 C 404.904 1.48868 -6.19772 0
M  V30 4546 C 402.591 2.02487 -5.76578 0
M  V30 4547 C 403.589 1.60183 -6.63951 0
M  V30 4548 O 403.277 1.29451 -7.93409 0
M  V30 4549 H 403.009 0.414858 -0.533731 0
M  V30 4550 H 405.563 0.684465 -1.9366 0
M  V30 4551 H 403.793 3.23235 -2.12265 0
M  V30 4552 H 405.482 3.16873 -2.53666 0
M  V30 4553 H 406.248 1.70278 -4.54126 0
M  V30 4554 H 402.127 2.65501 -3.76869 0
M  V30 4555 H 405.671 1.15775 -6.87926 0
M  V30 4556 H 401.568 2.11448 -6.09885 0
M  V30 4557 H 402.336 1.43098 -8.05894 0
M  V30 4558 N 404.999 1.35443 0.805782 0
M  V30 4559 C 405.946 1.28431 1.91766 0
M  V30 4560 C 406.916 0.156102 1.65365 0
M  V30 4561 O 408.101 0.339936 1.87747 0
M  V30 4562 C 405.241 1.06301 3.2832 0
M  V30 4563 C 404.354 2.2805 3.66902 0
M  V30 4564 C 403.489 1.99064 4.92491 0
M  V30 4565 C 402.528 3.16863 5.23703 0
M  V30 4566 N 401.665 2.87647 6.40471 0
M  V30 4567 H 406.505 2.23511 1.97096 0
M  V30 4568 H 404.042 1.11105 0.964054 0
M  V30 4569 H 406 0.915012 4.07042 0
M  V30 4570 H 404.63 0.148822 3.22457 0
M  V30 4571 H 403.682 2.53711 2.83434 0
M  V30 4572 H 404.994 3.1601 3.85927 0
M  V30 4573 H 404.148 1.81099 5.7904 0
M  V30 4574 H 402.887 1.0839 4.75503 0
M  V30 4575 H 401.892 3.35404 4.35642 0
M  V30 4576 H 403.117 4.08339 5.4262 0
M  V30 4577 H 401.063 1.99568 6.24907 0
M  V30 4578 H 400.98 3.69141 6.59751 0
M  V30 4579 H 402.248 2.73226 7.30047 0
M  V30 4580 N 406.477 -1.02803 1.19454 0
M  V30 4581 C 407.726 -1.7562 0.991996 0
M  V30 4582 C 408.039 -1.89672 -0.477901 0
M  V30 4583 O 409.245 -2.59468 -0.799287 0
M  V30 4584 C 407.701 -3.15812 1.72601 0
M  V30 4585 C 407.309 -3.0981 3.23607 0
M  V30 4586 C 409.053 -3.92918 1.60674 0
M  V30 4587 C 406.96 -4.44939 3.89594 0
M  V30 4588 H 405.89 -0.658352 0.367543 0
M  V30 4589 H 408.541 -1.15044 1.42959 0
M  V30 4590 H 406.923 -3.7686 1.21624 0
M  V30 4591 H 408.097 -2.58138 3.81709 0
M  V30 4592 H 406.412 -2.46201 3.35819 0
M  V30 4593 H 409.009 -4.9287 2.07323 0
M  V30 4594 H 409.352 -4.12502 0.561025 0
M  V30 4595 H 409.885 -3.38472 2.09001 0
M  V30 4596 H 406.624 -4.30559 4.94267 0
M  V30 4597 H 406.144 -4.96664 3.36281 0
M  V30 4598 H 407.823 -5.1382 3.93189 0
M  V30 4599 N 407.956 -0.998596 -1.21925 0
M  V30 4600 C 408.904 -0.546641 -2.26085 0
M  V30 4601 C 409.898 0.405576 -1.64473 0
M  V30 4602 O 411.104 0.277471 -1.77849 0
M  V30 4603 H 407.479 -0.158403 -0.735127 0
M  V30 4604 H 409.45 -1.43645 -2.61551 0
M  V30 4605 C 408.199 0.117388 -3.47502 0
M  V30 4606 H 407.522 -0.606277 -3.95176 0
M  V30 4607 H 408.962 0.396993 -4.22137 0
M  V30 4608 C 407.421 1.35455 -3.0847 0
M  V30 4609 O 407.951 2.44944 -3.18379 0
M  V30 4610 N 406.157 1.23191 -2.63196 0
M  V30 4611 H 405.704 0.341006 -2.55333 0
M  V30 4612 H 405.662 2.06071 -2.37449 0
M  V30 4613 N 409.434 1.37368 -0.772513 0
M  V30 4614 C 410.664 2.03647 -0.348082 0
M  V30 4615 C 411.072 1.58392 1.03482 0
M  V30 4616 O 410.415 0.760921 1.672 0
M  V30 4617 C 410.477 3.58131 -0.313404 0
M  V30 4618 C 410.141 4.2652 -1.64102 0
M  V30 4619 C 411.138 4.50587 -2.5936 0
M  V30 4620 C 408.823 4.64335 -1.91567 0
M  V30 4621 C 410.817 5.11526 -3.80289 0
M  V30 4622 C 408.504 5.24996 -3.12766 0
M  V30 4623 C 409.502 5.48529 -4.06946 0
M  V30 4624 O 409.19 6.07921 -5.26011 0
M  V30 4625 H 408.922 0.660538 -0.143753 0
M  V30 4626 H 411.476 1.76669 -1.04772 0
M  V30 4627 H 409.706 3.84159 0.442617 0
M  V30 4628 H 411.395 4.05813 0.0840613 0
M  V30 4629 H 412.161 4.21784 -2.39423 0
M  V30 4630 H 408.04 4.45353 -1.19088 0
M  V30 4631 H 411.584 5.29811 -4.53813 0
M  V30 4632 H 407.481 5.53223 -3.32588 0
M  V30 4633 H 408.249 6.26398 -5.26847 0
M  V30 4634 N 410.912 0.523116 1.48665 0
M  V30 4635 C 411.822 -0.247406 2.33292 0
M  V30 4636 C 412.838 -0.945769 1.46052 0
M  V30 4637 O 414.014 -0.922253 1.79043 0
M  V30 4638 C 411.079 -1.28487 3.22012 0
M  V30 4639 C 410.14 -0.597592 4.2512 0
M  V30 4640 C 409.373 -1.58563 5.09601 0
M  V30 4641 O 409.596 -2.81763 4.95949 0
M  V30 4642 O 408.53 -1.12879 5.91221 0
M  V30 4643 H 412.356 0.445869 3.00409 0
M  V30 4644 H 409.941 0.284128 1.46673 0
M  V30 4645 H 411.823 -1.88459 3.7691 0
M  V30 4646 H 410.498 -1.96068 2.57564 0
M  V30 4647 H 409.405 0.0424407 3.74076 0
M  V30 4648 H 410.738 0.0361517 4.92187 0
M  V30 4649 N 412.39 -1.55475 0.257931 0
M  V30 4650 C 413.338 -2.23244 -0.653076 0
M  V30 4651 C 414.332 -1.22366 -1.17144 0
M  V30 4652 O 415.538 -1.40347 -1.12706 0
M  V30 4653 H 411.913 -0.716247 -0.229117 0
M  V30 4654 H 413.884 -2.98343 -0.0584788 0
M  V30 4655 C 412.633 -2.95401 -1.83395 0
M  V30 4656 H 411.956 -3.72802 -1.44424 0
M  V30 4657 H 413.396 -3.46165 -2.44838 0
M  V30 4658 C 411.855 -1.99895 -2.71189 0
M  V30 4659 O 412.385 -1.53909 -3.71046 0
M  V30 4660 N 410.591 -1.6676 -2.3799 0
M  V30 4661 H 410.138 -2.04352 -1.56837 0
M  V30 4662 H 410.096 -1.03127 -2.97005 0
M  V30 4663 N 413.868 0.0150385 -1.57593 0
M  V30 4664 C 415.145 0.7392 -1.81094 0
M  V30 4665 C 415.525 1.92817 -0.859344 0
M  V30 4666 O 414.873 2.28301 0.095362 0
M  V30 4667 C 415.083 1.15907 -3.29191 0
M  V30 4668 C 416.431 1.56918 -3.9454 0
M  V30 4669 O 417.455 1.25328 -3.33424 0
M  V30 4670 O 416.314 2.15604 -5.02173 0
M  V30 4671 H 413.408 0.358631 -0.745193 0
M  V30 4672 H 415.954 -0.00926156 -1.69697 0
M  V30 4673 H 414.726 0.310921 -3.90063 0
M  V30 4674 H 414.349 1.96711 -3.45529 0
M  V30 4675 N 415.346 1.54954 0.287554 0
M  V30 4676 C 416.623 1.65569 1.04146 0
M  V30 4677 C 417.003 0.512672 2.0478 0
M  V30 4678 O 416.351 -0.489038 2.23205 0
M  V30 4679 C 416.561 3.04163 1.71131 0
M  V30 4680 C 417.909 3.61429 2.22832 0
M  V30 4681 O 418.933 3.06702 1.81141 0
M  V30 4682 O 417.792 4.57281 2.9926 0
M  V30 4683 H 414.886 0.671881 0.482188 0
M  V30 4684 H 417.432 1.67297 0.28457 0
M  V30 4685 H 416.204 3.78796 0.981303 0
M  V30 4686 H 415.827 3.06271 2.53543 0
M  V30 4687 N 416.824 -0.551391 1.4764 0
M  V30 4688 C 418.101 -1.31229 1.45046 0
M  V30 4689 C 418.481 -2.10563 0.150527 0
M  V30 4690 O 417.829 -2.11374 -0.867956 0
M  V30 4691 C 418.039 -2.21189 2.69956 0
M  V30 4692 C 419.387 -2.82021 3.1741 0
M  V30 4693 O 420.411 -2.31488 2.70724 0
M  V30 4694 O 419.27 -3.73885 3.98588 0
M  V30 4695 H 416.364 -0.591193 0.578291 0
M  V30 4696 H 418.91 -0.569813 1.59847 0
M  V30 4697 H 417.682 -1.62207 3.56096 0
M  V30 4698 H 417.305 -3.02722 2.57769 0
M  V30 4699 N 418.302 -1.35869 -0.798587 0
M  V30 4700 C 419.579 -1.20145 -1.54352 0
M  V30 4701 C 419.959 0.216161 -2.0999 0
M  V30 4702 O 419.307 1.22068 -1.93162 0
M  V30 4703 C 419.517 -2.27602 -2.64572 0
M  V30 4704 C 420.865 -2.63811 -3.32699 0
M  V30 4705 O 421.889 -2.26576 -2.74849 0
M  V30 4706 O 420.748 -3.27866 -4.37226 0
M  V30 4707 H 417.842 -0.467248 -0.682355 0
M  V30 4708 H 420.388 -1.47574 -0.837859 0
M  V30 4709 H 419.16 -3.2265 -2.21388 0
M  V30 4710 H 418.783 -2.01488 -3.42766 0
M  V30 4711 N 419.78 1.02168 -1.19998 0
M  V30 4712 C 420.69 2.14069 -0.959774 0
M  V30 4713 C 421.706 1.73804 0.082655 0
M  V30 4714 O 422.882 2.01133 -0.103633 0
M  V30 4715 C 419.947 3.42936 -0.509459 0
M  V30 4716 C 419.008 3.97474 -1.62213 0
M  V30 4717 C 418.241 5.2019 -1.19321 0
M  V30 4718 O 418.464 5.70369 -0.0597726 0
M  V30 4719 O 417.398 5.67749 -1.99863 0
M  V30 4720 H 421.224 2.37199 -1.89658 0
M  V30 4721 H 418.809 1.12469 -0.983411 0
M  V30 4722 H 420.691 4.20551 -0.267322 0
M  V30 4723 H 419.366 3.21234 0.398821 0
M  V30 4724 H 418.273 3.21161 -1.9185 0
M  V30 4725 H 419.606 4.23555 -2.50723 0
M  V30 4726 N 421.258 1.00505 1.21394 0
M  V30 4727 C 422.168 0.574806 2.27449 0
M  V30 4728 C 423.184 -0.382206 1.6975 0
M  V30 4729 O 424.36 -0.246027 1.99892 0
M  V30 4730 C 421.425 -0.0917414 3.46579 0
M  V30 4731 C 420.486 0.909758 4.1955 0
M  V30 4732 C 419.719 0.274924 5.32991 0
M  V30 4733 O 419.942 -0.928254 5.62796 0
M  V30 4734 O 418.876 0.985877 5.93771 0
M  V30 4735 H 422.702 1.45744 2.66444 0
M  V30 4736 H 420.287 0.773923 1.27792 0
M  V30 4737 H 422.169 -0.464551 4.18832 0
M  V30 4738 H 420.844 -0.948755 3.09484 0
M  V30 4739 H 419.751 1.33372 3.49518 0
M  V30 4740 H 421.084 1.73636 4.60555 0
M  V30 4741 N 422.737 -1.36956 0.779787 0
M  V30 4742 C 423.647 -2.33965 0.172491 0
M  V30 4743 C 424.663 -1.60574 -0.670222 0
M  V30 4744 O 425.839 -1.92617 -0.588263 0
M  V30 4745 C 422.904 -3.39761 -0.690173 0
M  V30 4746 C 421.965 -4.28964 0.169924 0
M  V30 4747 C 421.198 -5.29707 -0.651662 0
M  V30 4748 O 421.421 -5.38238 -1.88827 0
M  V30 4749 O 420.355 -6.01873 -0.0566264 0
M  V30 4750 H 424.181 -2.87647 0.974321 0
M  V30 4751 H 421.766 -1.39258 0.541078 0
M  V30 4752 H 423.648 -4.04471 -1.1824 0
M  V30 4753 H 422.323 -2.88394 -1.47006 0
M  V30 4754 H 421.23 -3.67326 0.708696 0
M  V30 4755 H 422.563 -4.83656 0.913085 0
M  V30 4756 N 424.215 -0.530993 -1.48385 0
M  V30 4757 C 425.492 0.0671788 -1.95485 0
M  V30 4758 C 425.872 1.51191 -1.47324 0
M  V30 4759 O 425.22 2.17507 -0.700202 0
M  V30 4760 C 425.43 -0.0511206 -3.48963 0
M  V30 4761 C 426.778 0.107632 -4.24464 0
M  V30 4762 O 427.802 0.0226248 -3.56193 0
M  V30 4763 O 426.661 0.285972 -5.45751 0
M  V30 4764 H 423.755 0.0787365 -0.823243 0
M  V30 4765 H 426.301 -0.595662 -1.58902 0
M  V30 4766 H 425.073 -1.05747 -3.7674 0
M  V30 4767 H 424.696 0.650525 -3.92242 0
M  V30 4768 N 425.693 1.55336 -0.266172 0
M  V30 4769 C 426.97 1.91372 0.404486 0
M  V30 4770 C 427.35 1.18935 1.74407 0
M  V30 4771 O 426.698 0.3132 2.26343 0
M  V30 4772 C 426.908 3.44581 0.553593 0
M  V30 4773 C 428.256 4.16196 0.840618 0
M  V30 4774 O 429.28 3.50426 0.638739 0
M  V30 4775 O 428.139 5.32567 1.22618 0
M  V30 4776 H 425.233 0.797194 0.220025 0
M  V30 4777 H 427.779 1.66813 -0.311664 0
M  V30 4778 H 426.551 3.89357 -0.389498 0
M  V30 4779 H 426.174 3.75065 1.31955 0
M  V30 4780 N 427.171 -0.0066808 1.57599 0
M  V30 4781 C 428.418 -0.69292 1.90276 0
M  V30 4782 C 428.746 -1.74148 0.866192 0
M  V30 4783 O 428.001 -1.95268 -0.129933 0
M  V30 4784 C 428.3 -1.37939 3.29708 0
M  V30 4785 C 427.966 -0.464679 4.48499 0
M  V30 4786 C 426.628 -0.212809 4.80729 0
M  V30 4787 C 428.98 0.16551 5.20937 0
M  V30 4788 C 426.308 0.677653 5.82773 0
M  V30 4789 C 428.66 1.04381 6.23929 0
M  V30 4790 C 427.324 1.30492 6.54621 0
M  V30 4791 H 426.594 -0.253558 0.696268 0
M  V30 4792 H 429.241 0.0474123 1.91441 0
M  V30 4793 H 427.546 -2.1936 3.24636 0
M  V30 4794 H 429.243 -1.9163 3.52249 0
M  V30 4795 H 425.833 -0.671153 4.23313 0
M  V30 4796 H 430.017 -0.0160756 4.96297 0
M  V30 4797 H 425.273 0.88803 6.04917 0
M  V30 4798 H 429.447 1.53851 6.79193 0
M  V30 4799 H 427.074 1.99662 7.33512 0
M  V30 4800 N 428.649 -1.55105 -0.279332 0
M  V30 4801 C 429.895 -1.75672 -1.01327 0
M  V30 4802 C 430.228 -0.552739 -1.86168 0
M  V30 4803 O 429.503 0.449827 -1.89227 0
M  V30 4804 C 429.786 -3.05825 -1.90114 0
M  V30 4805 C 429.639 -4.36565 -1.08309 0
M  V30 4806 C 430.958 -3.31975 -2.8893 0
M  V30 4807 H 428.077 -0.639149 -0.366957 0
M  V30 4808 H 430.719 -1.87833 -0.286154 0
M  V30 4809 H 428.869 -2.95588 -2.52111 0
M  V30 4810 H 430.541 -4.58751 -0.484314 0
M  V30 4811 H 428.784 -4.32076 -0.386362 0
M  V30 4812 H 429.455 -5.23946 -1.73737 0
M  V30 4813 H 431.931 -3.41963 -2.37067 0
M  V30 4814 H 430.807 -4.2432 -3.48201 0
M  V30 4815 H 431.068 -2.51309 -3.63725 0
M  V30 4816 N 430.127 0.543554 -1.4793 0
M  V30 4817 C 431.357 1.32324 -1.58663 0
M  V30 4818 C 431.765 1.8766 -0.240896 0
M  V30 4819 O 431.108 1.66411 0.778011 0
M  V30 4820 C 431.17 2.52094 -2.56299 0
M  V30 4821 C 430.834 2.17944 -4.01683 0
M  V30 4822 C 431.831 1.74422 -4.89768 0
M  V30 4823 C 429.516 2.28884 -4.47121 0
M  V30 4824 C 431.51 1.42287 -6.21316 0
M  V30 4825 C 429.197 1.96361 -5.78693 0
M  V30 4826 C 430.195 1.53132 -6.65612 0
M  V30 4827 O 429.883 1.21029 -7.94737 0
M  V30 4828 H 429.615 0.409174 -0.538101 0
M  V30 4829 H 432.169 0.663887 -1.94375 0
M  V30 4830 H 430.399 3.20965 -2.15681 0
M  V30 4831 H 432.088 3.14165 -2.57012 0
M  V30 4832 H 432.854 1.65452 -4.55907 0
M  V30 4833 H 428.733 2.61488 -3.79664 0
M  V30 4834 H 432.277 1.08472 -6.89115 0
M  V30 4835 H 428.174 2.04967 -6.12094 0
M  V30 4836 H 428.942 1.34543 -8.07366 0
M  V30 4837 N 431.605 1.3629 0.791371 0
M  V30 4838 C 432.852 1.30412 1.54916 0
M  V30 4839 C 433.18 -0.117162 1.94147 0
M  V30 4840 O 432.435 -1.08599 1.62803 0
M  V30 4841 C 432.734 2.17068 2.8393 0
M  V30 4842 C 432.4 3.65645 2.63846 0
M  V30 4843 C 431.062 4.0614 2.58077 0
M  V30 4844 C 433.414 4.59855 2.45322 0
M  V30 4845 C 430.742 5.3899 2.31748 0
M  V30 4846 C 433.094 5.9292 2.2052 0
M  V30 4847 C 431.758 6.32542 2.13183 0
M  V30 4848 H 431.028 0.47721 0.566879 0
M  V30 4849 H 433.675 1.68325 0.913172 0
M  V30 4850 H 431.98 1.72085 3.51986 0
M  V30 4851 H 433.677 2.09846 3.4171 0
M  V30 4852 H 430.267 3.33518 2.69191 0
M  V30 4853 H 434.451 4.29443 2.48782 0
M  V30 4854 H 429.707 5.68672 2.24548 0
M  V30 4855 H 433.881 6.65487 2.05182 0
M  V30 4856 H 431.508 7.35412 1.92544 0
M  V30 4857 N 433.083 -1.0153 1.20538 0
M  V30 4858 C 434.031 -2.12215 0.952235 0
M  V30 4859 C 435.025 -1.69123 -0.0968735 0
M  V30 4860 O 436.231 -1.7992 0.0536006 0
M  V30 4861 H 432.606 -0.693576 0.290613 0
M  V30 4862 H 434.577 -2.3075 1.89201 0
M  V30 4863 C 433.326 -3.43755 0.522287 0
M  V30 4864 H 432.649 -3.7734 1.32115 0
M  V30 4865 H 434.089 -4.22254 0.384389 0
M  V30 4866 C 432.548 -3.28088 -0.765489 0
M  V30 4867 O 433.078 -3.57921 -1.8236 0
M  V30 4868 N 431.284 -2.81333 -0.728011 0
M  V30 4869 H 430.831 -2.57255 0.133332 0
M  V30 4870 H 430.789 -2.71232 -1.58999 0
M  V30 4871 N 434.561 -1.01147 -1.20859 0
M  V30 4872 C 435.808 -0.697865 -1.90095 0
M  V30 4873 C 436.136 0.772014 -1.78522 0
M  V30 4874 O 435.391 1.57595 -1.16027 0
M  V30 4875 C 435.69 -1.0727 -3.40922 0
M  V30 4876 C 435.356 -2.53792 -3.72693 0
M  V30 4877 C 434.018 -2.93829 -3.81075 0
M  V30 4878 C 436.37 -3.48674 -3.87397 0
M  V30 4879 C 433.698 -4.27696 -4.01613 0
M  V30 4880 C 436.05 -4.82223 -4.09444 0
M  V30 4881 C 434.714 -5.21973 -4.16054 0
M  V30 4882 H 433.984 -0.255367 -0.695607 0
M  V30 4883 H 436.631 -1.27111 -1.43231 0
M  V30 4884 H 434.936 -0.417799 -3.89566 0
M  V30 4885 H 436.633 -0.807818 -3.92779 0
M  V30 4886 H 433.223 -2.21768 -3.66765 0
M  V30 4887 H 437.407 -3.18904 -3.80281 0
M  V30 4888 H 432.663 -4.58055 -4.04964 0
M  V30 4889 H 436.837 -5.55672 -4.19763 0
M  V30 4890 H 434.464 -6.25717 -4.31721 0
M  V30 4891 N 436.039 1.36541 -0.78704 0
M  V30 4892 C 436.987 2.31965 -0.171724 0
M  V30 4893 C 437.981 1.55689 0.667631 0
M  V30 4894 O 439.187 1.70969 0.562981 0
M  V30 4895 H 435.562 0.751101 -0.0367545 0
M  V30 4896 H 437.533 2.81428 -0.992017 0
M  V30 4897 C 436.282 3.40968 0.680904 0
M  V30 4898 H 435.605 3.99775 0.0443961 0
M  V30 4899 H 437.045 4.10063 1.07815 0
M  V30 4900 C 435.504 2.82338 1.83813 0
M  V30 4901 O 436.034 2.74311 2.93456 0
M  V30 4902 N 434.24 2.39661 1.6435 0
M  V30 4903 H 433.787 2.46389 0.751668 0
M  V30 4904 H 433.745 2.00779 2.4194 0
M  V30 4905 N 437.518 0.538854 1.48102 0
M  V30 4906 C 438.465 -0.219042 2.29758 0
M  V30 4907 C 439.435 -0.925562 1.37922 0
M  V30 4908 O 440.62 -0.924855 1.66886 0
M  V30 4909 C 437.76 -1.25452 3.2149 0
M  V30 4910 C 436.873 -0.555943 4.28408 0
M  V30 4911 C 436.008 -1.57512 5.0731 0
M  V30 4912 C 435.047 -0.860498 6.06021 0
M  V30 4913 N 434.184 -1.82564 6.77949 0
M  V30 4914 H 439.024 0.483449 2.94052 0
M  V30 4915 H 436.561 0.250247 1.44956 0
M  V30 4916 H 438.519 -1.86727 3.7308 0
M  V30 4917 H 437.149 -1.92528 2.591 0
M  V30 4918 H 436.201 0.170938 3.80016 0
M  V30 4919 H 437.513 0.00474616 4.988 0
M  V30 4920 H 436.667 -2.26191 5.62959 0
M  V30 4921 H 435.406 -2.16972 4.36778 0
M  V30 4922 H 434.411 -0.159686 5.49568 0
M  V30 4923 H 435.636 -0.271897 6.78555 0
M  V30 4924 H 433.582 -2.40915 6.10161 0
M  V30 4925 H 433.499 -1.31662 7.44447 0
M  V30 4926 H 434.767 -2.50414 7.38182 0
M  V30 4927 N 438.996 -1.55193 0.274407 0
M  V30 4928 C 439.906 -2.26164 -0.623473 0
M  V30 4929 C 440.922 -1.28729 -1.17068 0
M  V30 4930 O 442.098 -1.61663 -1.20112 0
M  V30 4931 C 439.163 -2.96833 -1.7914 0
M  V30 4932 C 438.224 -4.09745 -1.28093 0
M  V30 4933 C 437.457 -4.77034 -2.3932 0
M  V30 4934 O 437.68 -4.4353 -3.5866 0
M  V30 4935 O 436.614 -5.64996 -2.07516 0
M  V30 4936 H 440.44 -3.03661 -0.0485661 0
M  V30 4937 H 438.025 -1.49341 0.0418382 0
M  V30 4938 H 439.907 -3.41248 -2.4724 0
M  V30 4939 H 438.582 -2.22253 -2.35341 0
M  V30 4940 H 437.489 -3.69787 -0.566416 0
M  V30 4941 H 438.822 -4.86224 -0.764683 0
M  V30 4942 N 440.474 -0.00167713 -1.576 0
M  V30 4943 C 441.421 0.989195 -2.08527 0
M  V30 4944 C 442.391 1.34031 -0.981065 0
M  V30 4945 O 443.576 1.43839 -1.2536 0
M  V30 4946 C 440.716 2.27537 -2.59463 0
M  V30 4947 C 439.829 1.98314 -3.83791 0
M  V30 4948 C 438.964 3.21025 -4.23222 0
M  V30 4949 C 438.003 2.87495 -5.40382 0
M  V30 4950 N 437.14 4.02749 -5.75098 0
M  V30 4951 H 441.98 0.547973 -2.92919 0
M  V30 4952 H 439.517 0.258917 -1.44803 0
M  V30 4953 H 441.475 3.02729 -2.87073 0
M  V30 4954 H 440.105 2.69325 -1.77943 0
M  V30 4955 H 439.157 1.13482 -3.63078 0
M  V30 4956 H 440.469 1.69601 -4.69081 0
M  V30 4957 H 439.623 4.04561 -4.52123 0
M  V30 4958 H 438.362 3.52877 -3.36644 0
M  V30 4959 H 437.367 2.02367 -5.11202 0
M  V30 4960 H 438.592 2.56889 -6.28637 0
M  V30 4961 H 436.538 4.34494 -4.91478 0
M  V30 4962 H 436.455 3.77566 -6.54966 0
M  V30 4963 H 437.723 4.87068 -6.08592 0
M  V30 4964 N 441.952 1.55251 0.271103 0
M  V30 4965 C 442.862 1.9136 1.35714 0
M  V30 4966 C 443.878 0.811075 1.5394 0
M  V30 4967 O 445.054 1.11031 1.6803 0
M  V30 4968 C 442.119 2.1798 2.69603 0
M  V30 4969 C 441.18 3.4153 2.60107 0
M  V30 4970 C 440.413 3.66871 3.8761 0
M  V30 4971 O 440.636 2.94689 4.8838 0
M  V30 4972 O 439.57 4.60405 3.87699 0
M  V30 4973 H 443.396 2.83815 1.08088 0
M  V30 4974 H 440.981 1.41821 0.469792 0
M  V30 4975 H 442.863 2.36518 3.48765 0
M  V30 4976 H 441.538 1.28708 2.97012 0
M  V30 4977 H 440.445 3.28325 1.79314 0
M  V30 4978 H 441.778 4.31027 2.37647 0
M  V30 4979 N 443.43 -0.535701 1.48216 0
M  V30 4980 C 444.34 -1.66785 1.64985 0
M  V30 4981 C 445.356 -1.65654 0.532414 0
M  V30 4982 O 446.532 -1.8471 0.80275 0
M  V30 4983 C 443.597 -3.0326 1.68031 0
M  V30 4984 C 442.658 -3.1529 2.9136 0
M  V30 4985 C 441.891 -4.45255 2.94252 0
M  V30 4986 O 442.114 -5.32011 2.05719 0
M  V30 4987 O 441.048 -4.6153 3.86359 0
M  V30 4988 H 444.874 -1.55576 2.60825 0
M  V30 4989 H 442.459 -0.70815 1.31551 0
M  V30 4990 H 444.341 -3.84436 1.72589 0
M  V30 4991 H 443.016 -3.14805 0.753628 0
M  V30 4992 H 441.923 -2.3343 2.92337 0
M  V30 4993 H 443.256 -3.08658 3.83394 0
M  V30 4994 N 444.908 -1.36708 -0.784132 0
M  V30 4995 C 445.855 -1.31466 -1.89698 0
M  V30 4996 C 446.825 -0.18239 -1.65096 0
M  V30 4997 O 448.01 -0.369762 -1.87183 0
M  V30 4998 C 445.15 -1.1151 -3.26588 0
M  V30 4999 C 444.263 -2.33859 -3.63227 0
M  V30 5000 C 443.398 -2.06873 -4.89262 0
M  V30 5001 C 442.437 -3.25154 -5.18595 0
M  V30 5002 N 441.574 -2.978 -6.35814 0
M  V30 5003 H 446.414 -2.26619 -1.93515 0
M  V30 5004 H 443.951 -1.12625 -0.946256 0
M  V30 5005 H 445.909 -0.979653 -4.05535 0
M  V30 5006 H 444.539 -0.200103 -3.22179 0
M  V30 5007 H 443.591 -2.58188 -2.79362 0
M  V30 5008 H 444.903 -3.22109 -3.8085 0
M  V30 5009 H 444.057 -1.90289 -5.76086 0
M  V30 5010 H 442.796 -1.15942 -4.73718 0
M  V30 5011 H 441.801 -3.42292 -4.30251 0
M  V30 5012 H 443.026 -4.1692 -5.36055 0
M  V30 5013 H 440.972 -2.09485 -6.21653 0
M  V30 5014 H 440.889 -3.7959 -6.53794 0
M  V30 5015 H 442.157 -2.84805 -7.25607 0
M  V30 5016 N 446.386 1.0089 -1.21074 0
M  V30 5017 C 447.334 2.11707 -0.963476 0
M  V30 5018 C 448.328 1.69172 0.0879032 0
M  V30 5019 O 449.534 1.79889 -0.0631415 0
M  V30 5020 H 445.909 0.692026 -0.294287 0
M  V30 5021 H 447.88 2.29743 -1.90422 0
M  V30 5022 C 446.629 3.43473 -0.540509 0
M  V30 5023 H 445.952 3.76634 -1.34114 0
M  V30 5024 H 447.392 4.22044 -0.406777 0
M  V30 5025 C 445.851 3.2849 0.748079 0
M  V30 5026 O 446.381 3.58883 1.8046 0
M  V30 5027 N 444.587 2.81715 0.713081 0
M  V30 5028 H 444.134 2.5718 -0.146973 0
M  V30 5029 H 444.092 2.72071 1.57558 0
M  V30 5030 N 447.864 1.01787 1.20321 0
M  V30 5031 C 448.811 0.589197 2.23153 0
M  V30 5032 C 449.781 -0.391367 1.61423 0
M  V30 5033 O 450.966 -0.290518 1.88575 0
M  V30 5034 C 448.106 -0.0650747 3.45039 0
M  V30 5035 C 447.219 0.960207 4.21194 0
M  V30 5036 C 446.354 0.276854 5.30478 0
M  V30 5037 C 445.393 1.2888 5.98378 0
M  V30 5038 N 444.53 0.632031 6.99249 0
M  V30 5039 H 449.37 1.47071 2.59179 0
M  V30 5040 H 446.907 0.736192 1.27352 0
M  V30 5041 H 448.865 -0.461552 4.14639 0
M  V30 5042 H 447.495 -0.910233 3.09701 0
M  V30 5043 H 446.547 1.47484 3.50646 0
M  V30 5044 H 447.859 1.72977 4.67847 0
M  V30 5045 H 447.013 -0.175056 6.06447 0
M  V30 5046 H 445.752 -0.525004 4.84866 0
M  V30 5047 H 444.757 1.75109 5.21169 0
M  V30 5048 H 445.982 2.09196 6.46076 0
M  V30 5049 H 443.928 -0.149935 6.55829 0
M  V30 5050 H 443.845 1.33964 7.44036 0
M  V30 5051 H 445.113 0.203755 7.79234 0
M  V30 5052 N 449.342 -1.36122 0.79427 0
M  V30 5053 C 450.29 -2.31871 0.184023 0
M  V30 5054 C 451.284 -1.56041 -0.659365 0
M  V30 5055 O 452.49 -1.71266 -0.553906 0
M  V30 5056 H 448.865 -0.750896 0.0407373 0
M  V30 5057 H 450.836 -2.80898 1.00693 0
M  V30 5058 C 449.585 -3.41324 -0.662813 0
M  V30 5059 H 448.908 -3.99793 -0.0231944 0
M  V30 5060 H 450.348 -4.10629 -1.05639 0
M  V30 5061 C 448.807 -2.83308 -1.82313 0
M  V30 5062 O 449.337 -2.75863 -2.91997 0
M  V30 5063 N 447.543 -2.40529 -1.63077 0
M  V30 5064 H 447.09 -2.46785 -0.738591 0
M  V30 5065 H 447.048 -2.02059 -2.40872 0
M  V30 5066 N 450.82 -0.546701 -1.47814 0
M  V30 5067 C 452.045 -0.021268 -2.07389 0
M  V30 5068 C 452.47 1.25822 -1.39822 0
M  V30 5069 O 451.828 1.75111 -0.46968 0
M  V30 5070 C 451.876 0.168502 -3.60206 0
M  V30 5071 O 450.98 1.23347 -3.93522 0
M  V30 5072 H 450.321 -0.0466108 -0.662362 0
M  V30 5073 H 452.851 -0.759387 -1.89985 0
M  V30 5074 H 452.861 0.385982 -4.0617 0
M  V30 5075 H 451.536 -0.766075 -4.08784 0
M  V30 5076 H 450.113 0.997319 -3.59316 0
M  V30 5077 N 452.299 1.55045 -0.282633 0
M  V30 5078 C 453.548 1.98938 0.332667 0
M  V30 5079 C 453.861 1.17455 1.56409 0
M  V30 5080 O 455.067 1.51527 2.25282 0
M  V30 5081 C 453.523 3.54105 0.643226 0
M  V30 5082 C 453.131 4.44374 -0.568814 0
M  V30 5083 C 454.875 4.06569 1.22074 0
M  V30 5084 C 452.782 5.90943 -0.232426 0
M  V30 5085 H 451.712 0.743043 0.128075 0
M  V30 5086 H 454.363 1.79341 -0.388464 0
M  V30 5087 H 452.745 3.69532 1.42346 0
M  V30 5088 H 453.919 4.40718 -1.34551 0
M  V30 5089 H 452.234 4.02585 -1.06369 0
M  V30 5090 H 454.831 5.13626 1.48635 0
M  V30 5091 H 455.174 3.56057 2.15707 0
M  V30 5092 H 455.707 3.94612 0.502621 0
M  V30 5093 H 452.446 6.45567 -1.13683 0
M  V30 5094 H 451.966 5.9765 0.507357 0
M  V30 5095 H 453.645 6.4677 0.172657 0
M  V30 5096 N 453.777 0.010035 1.57597 0
M  V30 5097 C 454.727 -0.986858 2.05536 0
M  V30 5098 C 455.711 -1.29711 0.952042 0
M  V30 5099 O 456.903 -1.28641 1.21575 0
M  V30 5100 C 454.032 -2.2756 2.57043 0
M  V30 5101 C 453.118 -1.99455 3.74271 0
M  V30 5102 N 453.509 -1.41546 4.85591 0
M  V30 5103 C 451.807 -2.29547 3.82393 0
M  V30 5104 C 452.508 -1.3014 5.66956 0
M  V30 5105 N 451.484 -1.79044 5.13268 0
M  V30 5106 H 455.286 -0.533778 2.89012 0
M  V30 5107 H 452.8 -0.195432 1.6122 0
M  V30 5108 H 454.797 -2.99829 2.89669 0
M  V30 5109 H 453.457 -2.73512 1.7499 0
M  V30 5110 H 454.468 -1.09294 5.06236 0
M  V30 5111 H 451.145 -2.78304 3.11213 0
M  V30 5112 H 452.535 -0.855237 6.66435 0
M  V30 5113 N 455.255 -1.55392 -0.262866 0
M  V30 5114 C 456.666 -1.67079 -0.833158 0
M  V30 5115 C 457.017 -0.604539 -1.86654 0
M  V30 5116 O 456.142 0.252138 -2.14926 0
M  V30 5117 C 456.737 -3.02891 -1.51797 0
M  V30 5118 C 455.296 -3.16571 -2.03617 0
M  V30 5119 C 454.443 -2.62909 -0.881701 0
M  V30 5120 H 457.394 -1.58652 -0.0389986 0
M  V30 5121 H 457.415 -2.96445 -2.38538 0
M  V30 5122 H 456.927 -3.80473 -0.765619 0
M  V30 5123 H 455.028 -2.43782 -2.81782 0
M  V30 5124 H 455.141 -4.23271 -2.24452 0
M  V30 5125 H 453.505 -2.20324 -1.27786 0
M  V30 5126 H 454.288 -3.43003 -0.14269 0
M  V30 5127 N 456.733 0.527833 -1.48498 0
M  V30 5128 C 457.681 1.65313 -1.63628 0
M  V30 5129 C 458.675 1.6177 -0.502676 0
M  V30 5130 O 459.881 1.66601 -0.681469 0
M  V30 5131 H 456.256 0.547518 -0.515488 0
M  V30 5132 H 458.227 1.49696 -2.58135 0
M  V30 5133 C 456.976 3.03576 -1.6952 0
M  V30 5134 H 456.299 3.06997 -2.56111 0
M  V30 5135 H 457.739 3.81923 -1.84149 0
M  V30 5136 C 456.198 3.34089 -0.43432 0
M  V30 5137 O 456.728 3.99151 0.451852 0
M  V30 5138 N 454.934 2.88991 -0.305368 0
M  V30 5139 H 454.481 2.36222 -1.02747 0
M  V30 5140 H 454.439 3.09776 0.537249 0
M  V30 5141 N 458.211 1.37122 0.776871 0
M  V30 5142 C 459.488 1.22586 1.52421 0
M  V30 5143 C 459.868 -0.182726 2.10308 0
M  V30 5144 O 459.216 -1.18979 1.9508 0
M  V30 5145 C 459.426 2.31782 2.60918 0
M  V30 5146 C 460.774 2.69071 3.2846 0
M  V30 5147 O 461.798 2.3092 2.71209 0
M  V30 5148 O 460.657 3.3478 4.31954 0
M  V30 5149 H 457.751 0.478045 0.674835 0
M  V30 5150 H 460.297 1.48888 0.814275 0
M  V30 5151 H 459.069 3.26131 2.16227 0
M  V30 5152 H 458.692 2.06916 3.39517 0
M  V30 5153 N 459.689 -1.00246 1.21608 0
M  V30 5154 C 460.936 -1.74061 1.03485 0
M  V30 5155 C 461.264 -1.89658 -0.431308 0
M  V30 5156 O 460.519 -1.42976 -1.33627 0
M  V30 5157 C 460.818 -3.15448 1.68009 0
M  V30 5158 C 460.484 -3.19792 3.17874 0
M  V30 5159 C 459.146 -3.20685 3.58768 0
M  V30 5160 C 461.498 -3.16835 4.13842 0
M  V30 5161 C 458.826 -3.16309 4.94131 0
M  V30 5162 C 461.178 -3.14001 5.49169 0
M  V30 5163 C 459.842 -3.13204 5.89457 0
M  V30 5164 H 459.112 -0.636934 0.378677 0
M  V30 5165 H 461.759 -1.17473 1.51236 0
M  V30 5166 H 460.064 -3.75284 1.12557 0
M  V30 5167 H 461.761 -3.71285 1.51487 0
M  V30 5168 H 458.351 -3.19842 2.85305 0
M  V30 5169 H 462.535 -3.15303 3.83272 0
M  V30 5170 H 457.791 -3.14032 5.24589 0
M  V30 5171 H 461.965 -3.10667 6.23265 0
M  V30 5172 H 459.592 -3.09568 6.94314 0
M  V30 5173 N 461.167 -1.02423 -1.1978 0
M  V30 5174 C 462.099 -0.559152 -2.22275 0
M  V30 5175 C 463.112 0.36251 -1.58713 0
M  V30 5176 O 464.301 0.159641 -1.77785 0
M  V30 5177 C 461.401 0.205094 -3.38279 0
M  V30 5178 C 460.574 -0.720361 -4.31427 0
M  V30 5179 C 459.633 -0.00234368 -5.262 0
M  V30 5180 O 458.659 -0.627378 -5.65732 0
M  V30 5181 N 459.861 1.26996 -5.66438 0
M  V30 5182 H 462.626 -1.44064 -2.62804 0
M  V30 5183 H 460.187 -0.902692 -1.34399 0
M  V30 5184 H 462.179 0.694868 -3.9869 0
M  V30 5185 H 460.749 0.987947 -2.96578 0
M  V30 5186 H 459.969 -1.39031 -3.68869 0
M  V30 5187 H 461.257 -1.3495 -4.90577 0
M  V30 5188 H 460.655 1.79858 -5.36347 0
M  V30 5189 H 459.212 1.70432 -6.29123 0
M  V30 5190 N 462.645 1.35699 -0.801477 0
M  V30 5191 C 463.894 1.98165 -0.375979 0
M  V30 5192 C 464.207 1.64306 1.06127 0
M  V30 5193 O 465.413 2.20097 1.58964 0
M  V30 5194 C 463.869 3.54497 -0.621305 0
M  V30 5195 C 463.477 3.9727 -2.07076 0
M  V30 5196 C 465.221 4.23697 -0.26091 0
M  V30 5197 C 463.128 5.46427 -2.26211 0
M  V30 5198 H 462.058 0.741478 -0.136844 0
M  V30 5199 H 464.709 1.54834 -0.984814 0
M  V30 5200 H 463.091 3.95958 0.0574112 0
M  V30 5201 H 464.265 3.66974 -2.78687 0
M  V30 5202 H 462.58 3.40943 -2.39054 0
M  V30 5203 H 465.177 5.33334 -0.381994 0
M  V30 5204 H 465.52 4.0869 0.792344 0
M  V30 5205 H 466.053 3.87639 -0.893339 0
M  V30 5206 H 462.792 5.66396 -3.29963 0
M  V30 5207 H 462.312 5.78309 -1.59119 0
M  V30 5208 H 463.991 6.12819 -2.07513 0
M  V30 5209 N 464.123 0.554532 1.47522 0
M  V30 5210 C 465.353 0.0342074 2.06572 0
M  V30 5211 C 465.761 -1.26375 1.40805 0
M  V30 5212 O 465.104 -1.7683 0.49769 0
M  V30 5213 C 465.166 -0.235096 3.5873 0
M  V30 5214 C 464.83 0.973024 4.46521 0
M  V30 5215 C 465.827 1.8779 4.848 0
M  V30 5216 C 463.512 1.18694 4.88075 0
M  V30 5217 C 465.506 2.98039 5.63428 0
M  V30 5218 C 463.193 2.29254 5.66468 0
M  V30 5219 C 464.191 3.18757 6.04055 0
M  V30 5220 O 463.879 4.27401 6.8087 0
M  V30 5221 H 463.611 0.041587 0.67472 0
M  V30 5222 H 466.165 0.766748 1.90552 0
M  V30 5223 H 464.395 -1.02191 3.72953 0
M  V30 5224 H 466.084 -0.700477 3.9981 0
M  V30 5225 H 466.85 1.72467 4.53299 0
M  V30 5226 H 462.729 0.49947 4.58286 0
M  V30 5227 H 466.273 3.67926 5.92685 0
M  V30 5228 H 462.17 2.4455 5.97382 0
M  V30 5229 H 462.938 4.25415 6.9926 0
M  V30 5230 N 465.601 -1.54893 0.290851 0
M  V30 5231 C 466.549 -2.24579 -0.605576 0
M  V30 5232 C 467.543 -1.24824 -1.14522 0
M  V30 5233 O 468.749 -1.42706 -1.09704 0
M  V30 5234 H 465.124 -0.720946 -0.213872 0
M  V30 5235 H 467.095 -2.984 0.0048173 0
M  V30 5236 C 465.844 -2.99224 -1.77088 0
M  V30 5237 H 465.167 -3.75782 -1.36484 0
M  V30 5238 H 466.607 -3.51281 -2.3744 0
M  V30 5239 C 465.066 -2.05602 -2.66888 0
M  V30 5240 O 465.596 -1.61745 -3.67698 0
M  V30 5241 N 463.802 -1.71771 -2.34399 0
M  V30 5242 H 463.349 -2.07633 -1.52468 0
M  V30 5243 H 463.307 -1.09403 -2.94751 0
M  V30 5244 N 467.08 -0.0183926 -1.57589 0
M  V30 5245 C 468.305 0.676634 -1.96052 0
M  V30 5246 C 468.73 1.6548 -0.894307 0
M  V30 5247 O 468.088 1.80712 0.145849 0
M  V30 5248 C 468.136 1.36872 -3.33614 0
M  V30 5249 O 467.24 2.48372 -3.29219 0
M  V30 5250 H 466.581 0.1786 -0.63953 0
M  V30 5251 H 469.111 -0.077056 -2.04455 0
M  V30 5252 H 469.121 1.72797 -3.69601 0
M  V30 5253 H 467.796 0.651636 -4.10763 0
M  V30 5254 H 466.373 2.14639 -3.04934 0
M  V30 5255 N 468.558 1.5553 0.254621 0
M  V30 5256 C 469.488 1.9268 1.31897 0
M  V30 5257 C 470.469 0.790797 1.506 0
M  V30 5258 O 471.654 1.05045 1.63337 0
M  V30 5259 C 468.784 2.21477 2.67517 0
M  V30 5260 C 467.738 3.37256 2.63519 0
M  V30 5261 C 467.064 3.51576 4.02862 0
M  V30 5262 C 468.364 4.73157 2.21179 0
M  V30 5263 H 470.058 2.81832 1.01051 0
M  V30 5264 H 467.604 1.35599 0.484662 0
M  V30 5265 H 469.557 2.46055 3.42104 0
M  V30 5266 H 468.281 1.29144 2.99982 0
M  V30 5267 H 466.94 3.12675 1.9139 0
M  V30 5268 H 466.588 2.56676 4.32581 0
M  V30 5269 H 466.288 4.2943 4.01078 0
M  V30 5270 H 467.812 3.78467 4.79161 0
M  V30 5271 H 469.226 4.97158 2.85494 0
M  V30 5272 H 467.623 5.54058 2.30521 0
M  V30 5273 H 468.693 4.70739 1.16332 0
M  V30 5274 N 470.036 -0.519951 1.48776 0
M  V30 5275 C 470.983 -1.62352 1.64044 0
M  V30 5276 C 471.953 -1.58945 0.482251 0
M  V30 5277 O 473.138 -1.77219 0.706971 0
M  V30 5278 C 470.278 -3.00579 1.69547 0
M  V30 5279 C 469.391 -3.14145 2.96541 0
M  V30 5280 C 468.526 -4.42991 2.93142 0
M  V30 5281 C 467.565 -4.50122 4.14797 0
M  V30 5282 N 466.702 -5.7037 4.09418 0
M  V30 5283 H 471.542 -1.48643 2.58281 0
M  V30 5284 H 469.079 -0.723516 1.28077 0
M  V30 5285 H 471.037 -3.80671 1.70719 0
M  V30 5286 H 469.667 -3.13036 0.787918 0
M  V30 5287 H 468.719 -2.27239 3.05068 0
M  V30 5288 H 470.031 -3.15275 3.86527 0
M  V30 5289 H 469.185 -5.31385 2.92772 0
M  V30 5290 H 467.924 -4.44398 2.00902 0
M  V30 5291 H 466.929 -3.60133 4.15433 0
M  V30 5292 H 468.154 -4.50445 5.08208 0
M  V30 5293 H 466.1 -5.72655 3.20004 0
M  V30 5294 H 466.017 -5.73036 4.93119 0
M  V30 5295 H 467.285 -6.61023 4.13121 0
M  V30 5296 N 471.514 -1.37532 -0.769588 0
M  V30 5297 C 472.744 -1.35861 -1.55645 0
M  V30 5298 C 473.152 0.0574398 -1.89113 0
M  V30 5299 O 472.495 1.03021 -1.52093 0
M  V30 5300 C 472.557 -2.13431 -2.89288 0
M  V30 5301 C 472.221 -3.62378 -2.78444 0
M  V30 5302 C 473.218 -4.56215 -2.49326 0
M  V30 5303 C 470.903 -4.05529 -2.96398 0
M  V30 5304 C 472.897 -5.91181 -2.38294 0
M  V30 5305 C 470.584 -5.40579 -2.84987 0
M  V30 5306 C 471.582 -6.33218 -2.55975 0
M  V30 5307 O 471.27 -7.65787 -2.44594 0
M  V30 5308 H 471.002 -0.467001 -0.48876 0
M  V30 5309 H 473.556 -1.81505 -0.961515 0
M  V30 5310 H 471.786 -1.62481 -3.50909 0
M  V30 5311 H 473.475 -2.04368 -3.50697 0
M  V30 5312 H 474.241 -4.24187 -2.35139 0
M  V30 5313 H 470.12 -3.33781 -3.1798 0
M  V30 5314 H 473.664 -6.63457 -2.15571 0
M  V30 5315 H 469.561 -5.72209 -2.98743 0
M  V30 5316 H 470.329 -7.76132 -2.59927 0
M  V30 5317 N 472.992 0.995999 -1.22138 0
M  V30 5318 C 473.939 2.08551 -0.988687 0
M  V30 5319 C 474.909 1.65864 0.0885021 0
M  V30 5320 O 476.094 1.90704 -0.0604589 0
M  V30 5321 C 473.234 3.40374 -0.569191 0
M  V30 5322 C 472.347 3.96421 -1.71681 0
M  V30 5323 C 471.482 5.1639 -1.2456 0
M  V30 5324 C 470.521 5.64567 -2.36497 0
M  V30 5325 N 469.658 6.75777 -1.90445 0
M  V30 5326 H 474.498 2.2779 -1.92135 0
M  V30 5327 H 472.035 1.1168 -0.957388 0
M  V30 5328 H 473.993 4.16068 -0.307166 0
M  V30 5329 H 472.623 3.21145 0.326462 0
M  V30 5330 H 471.675 3.17628 -2.09324 0
M  V30 5331 H 472.987 4.2816 -2.55891 0
M  V30 5332 H 472.141 5.99362 -0.940774 0
M  V30 5333 H 470.88 4.86266 -0.373662 0
M  V30 5334 H 469.885 4.80185 -2.67772 0
M  V30 5335 H 471.11 5.96716 -3.24202 0
M  V30 5336 H 469.056 6.47443 -1.05609 0
M  V30 5337 H 468.973 7.06818 -2.68223 0
M  V30 5338 H 470.241 7.62262 -1.63022 0
M  V30 5339 N 474.47 1.03057 1.19235 0
M  V30 5340 C 475.7 0.746613 1.92638 0
M  V30 5341 C 476.108 -0.698708 1.75826 0
M  V30 5342 O 475.451 -1.487 1.07861 0
M  V30 5343 C 475.513 1.02024 3.44719 0
M  V30 5344 C 475.177 2.45745 3.85303 0
M  V30 5345 C 476.174 3.43887 3.8992 0
M  V30 5346 C 473.859 2.8019 4.16892 0
M  V30 5347 C 475.853 4.74529 4.2556 0
M  V30 5348 C 473.54 4.1104 4.52205 0
M  V30 5349 C 474.538 5.0802 4.56513 0
M  V30 5350 O 474.226 6.36527 4.91008 0
M  V30 5351 H 473.958 0.272401 0.618687 0
M  V30 5352 H 476.512 1.37853 1.52269 0
M  V30 5353 H 474.742 0.331184 3.85279 0
M  V30 5354 H 476.431 0.725677 3.9936 0
M  V30 5355 H 477.197 3.18614 3.65664 0
M  V30 5356 H 473.076 2.05382 4.12722 0
M  V30 5357 H 476.62 5.50222 4.28838 0
M  V30 5358 H 472.517 4.36086 4.7592 0
M  V30 5359 H 473.285 6.41025 5.08949 0
M  V30 5360 N 475.948 -1.35272 0.808662 0
M  V30 5361 C 476.898 -2.27181 0.193124 0
M  V30 5362 C 477.882 -1.47871 -0.634265 0
M  V30 5363 O 479.074 -1.70048 -0.491182 0
M  V30 5364 C 476.203 -3.36979 -0.655751 0
M  V30 5365 C 475.289 -4.23712 0.181481 0
M  V30 5366 N 475.68 -4.90225 1.24551 0
M  V30 5367 C 473.978 -4.45985 -0.0365493 0
M  V30 5368 C 474.679 -5.54537 1.75682 0
M  V30 5369 N 473.655 -5.33107 1.06294 0
M  V30 5370 H 477.457 -2.76101 1.00724 0
M  V30 5371 H 474.971 -1.48823 0.650029 0
M  V30 5372 H 476.968 -4.01774 -1.11279 0
M  V30 5373 H 475.628 -2.89611 -1.46819 0
M  V30 5374 H 476.639 -4.91641 1.62818 0
M  V30 5375 H 473.316 -4.09409 -0.817964 0
M  V30 5376 H 474.706 -6.17597 2.64621 0
M  V30 5377 N 477.426 -0.562348 -1.47226 0
M  V30 5378 C 478.837 -0.130325 -1.86245 0
M  V30 5379 C 479.188 1.30128 -1.46838 0
M  V30 5380 O 478.313 1.97974 -0.873805 0
M  V30 5381 C 478.908 -0.229738 -3.3802 0
M  V30 5382 C 477.467 0.14728 -3.76112 0
M  V30 5383 C 476.614 -0.574971 -2.71274 0
M  V30 5384 H 479.565 -0.771773 -1.3867 0
M  V30 5385 H 479.586 0.550316 -3.76499 0
M  V30 5386 H 479.098 -1.27178 -3.66671 0
M  V30 5387 H 477.199 1.19023 -3.53078 0
M  V30 5388 H 477.312 -0.214858 -4.78618 0
M  V30 5389 H 475.676 -0.0174756 -2.54694 0
M  V30 5390 H 476.459 -1.61827 -3.02766 0
M  V30 5391 N 478.904 1.54736 -0.299062 0
M  V30 5392 C 479.814 2.27127 0.587413 0
M  V30 5393 C 480.83 1.30575 1.15005 0
M  V30 5394 O 482.006 1.63554 1.17525 0
M  V30 5395 C 479.071 2.99645 1.74395 0
M  V30 5396 C 478.132 4.11731 1.21559 0
M  V30 5397 C 477.365 4.80781 2.317 0
M  V30 5398 O 477.588 4.4918 3.51558 0
M  V30 5399 O 476.522 5.68226 1.98501 0
M  V30 5400 H 480.348 3.037 0.000250109 0
M  V30 5401 H 477.933 1.49256 -0.0655919 0
M  V30 5402 H 479.815 3.45138 2.4178 0
M  V30 5403 H 478.49 2.25969 2.31775 0
M  V30 5404 H 477.397 3.70641 0.507514 0
M  V30 5405 H 478.73 4.87379 0.687233 0
M  V30 5406 N 480.382 0.0267497 1.57577 0
M  V30 5407 C 481.612 -0.6617 1.95717 0
M  V30 5408 C 482.02 -1.66331 0.901706 0
M  V30 5409 O 481.363 -1.83273 -0.125241 0
M  V30 5410 C 481.425 -1.42649 3.29987 0
M  V30 5411 C 481.089 -0.583482 4.5326 0
M  V30 5412 C 482.086 0.140221 5.19711 0
M  V30 5413 C 479.771 -0.521581 4.99585 0
M  V30 5414 C 481.765 0.914523 6.30805 0
M  V30 5415 C 479.452 0.256428 6.10562 0
M  V30 5416 C 480.45 0.973189 6.76031 0
M  V30 5417 O 480.138 1.73845 7.84878 0
M  V30 5418 H 479.87 -0.187483 0.649481 0
M  V30 5419 H 482.424 0.0820847 2.05236 0
M  V30 5420 H 480.654 -2.21536 3.16952 0
M  V30 5421 H 482.343 -2.00282 3.53047 0
M  V30 5422 H 483.109 0.101716 4.84893 0
M  V30 5423 H 478.988 -1.06904 4.48433 0
M  V30 5424 H 482.532 1.4745 6.81839 0
M  V30 5425 H 478.429 0.296657 6.44818 0
M  V30 5426 H 479.197 1.65797 8.01532 0
M  V30 5427 N 481.861 -1.55662 -0.24637 0
M  V30 5428 C 482.793 -1.86811 -1.32794 0
M  V30 5429 C 483.806 -0.754413 -1.44265 0
M  V30 5430 O 484.995 -1.03253 -1.45606 0
M  V30 5431 C 482.095 -2.0397 -2.70646 0
M  V30 5432 C 481.268 -3.34832 -2.81436 0
M  V30 5433 C 480.327 -3.41727 -4.00136 0
M  V30 5434 O 479.353 -4.14934 -3.89639 0
M  V30 5435 N 480.555 -2.71058 -5.1333 0
M  V30 5436 H 483.32 -2.80174 -1.06409 0
M  V30 5437 H 480.881 -1.55906 -0.43647 0
M  V30 5438 H 482.873 -2.05924 -3.48393 0
M  V30 5439 H 481.443 -1.1735 -2.89738 0
M  V30 5440 H 480.663 -3.4519 -1.90361 0
M  V30 5441 H 481.951 -4.21085 -2.85595 0
M  V30 5442 H 481.349 -2.11314 -5.2475 0
M  V30 5443 H 479.906 -2.78704 -5.89209 0
M  V30 5444 N 483.339 0.512053 -1.4905 0
M  V30 5445 C 484.569 1.28928 -1.61434 0
M  V30 5446 C 484.977 1.87107 -0.280647 0
M  V30 5447 O 484.32 1.68024 0.742537 0
M  V30 5448 C 484.382 2.466 -2.61588 0
M  V30 5449 C 484.046 2.09375 -4.06216 0
M  V30 5450 C 485.043 1.63994 -4.93358 0
M  V30 5451 C 482.728 2.19348 -4.51876 0
M  V30 5452 C 484.722 1.29076 -6.24194 0
M  V30 5453 C 482.409 1.84041 -5.82728 0
M  V30 5454 C 483.407 1.38978 -6.68711 0
M  V30 5455 O 483.095 1.04144 -7.97126 0
M  V30 5456 H 482.827 0.397668 -0.546659 0
M  V30 5457 H 485.381 0.622507 -1.9574 0
M  V30 5458 H 483.611 3.16318 -2.22441 0
M  V30 5459 H 485.3 3.08642 -2.63619 0
M  V30 5460 H 486.066 1.55744 -4.59313 0
M  V30 5461 H 481.945 2.53376 -3.85125 0
M  V30 5462 H 485.489 0.938303 -6.91261 0
M  V30 5463 H 481.386 1.91938 -6.16304 0
M  V30 5464 H 482.154 1.17387 -8.10039 0
M  V30 5465 N 484.817 1.37938 0.762283 0
M  V30 5466 C 485.747 1.37176 1.88958 0
M  V30 5467 C 486.728 0.238945 1.68413 0
M  V30 5468 O 487.913 0.440726 1.89133 0
M  V30 5469 C 485.043 1.18742 3.2637 0
M  V30 5470 C 483.997 2.29136 3.61498 0
M  V30 5471 C 483.323 1.95816 4.97554 0
M  V30 5472 C 484.623 3.71363 3.6727 0
M  V30 5473 H 486.317 2.31509 1.89853 0
M  V30 5474 H 483.863 1.11438 0.912005 0
M  V30 5475 H 485.816 1.16837 4.04879 0
M  V30 5476 H 484.54 0.208683 3.25933 0
M  V30 5477 H 483.199 2.30213 2.85303 0
M  V30 5478 H 482.847 0.964475 4.93667 0
M  V30 5479 H 482.547 2.69745 5.22026 0
M  V30 5480 H 484.071 1.95513 5.78452 0
M  V30 5481 H 485.485 3.72364 4.35911 0
M  V30 5482 H 483.882 4.44425 4.03245 0
M  V30 5483 H 484.952 4.04305 2.67704 0
M  V30 5484 N 486.295 -0.989507 1.22664 0
M  V30 5485 C 487.243 -2.10148 0.997035 0
M  V30 5486 C 488.237 -1.6929 -0.0609783 0
M  V30 5487 O 489.443 -1.79766 0.0917523 0
M  V30 5488 H 485.818 -0.687256 0.305259 0
M  V30 5489 H 487.789 -2.26685 1.94053 0
M  V30 5490 C 486.538 -3.4257 0.595085 0
M  V30 5491 H 485.861 -3.74453 1.40089 0
M  V30 5492 H 487.301 -4.21344 0.473869 0
M  V30 5493 C 485.76 -3.29638 -0.695725 0
M  V30 5494 O 486.29 -3.61709 -1.74727 0
M  V30 5495 N 484.496 -2.82814 -0.668173 0
M  V30 5496 H 484.043 -2.56914 0.18787 0
M  V30 5497 H 484.001 -2.74544 -1.5321 0
M  V30 5498 N 487.773 -1.03688 -1.18687 0
M  V30 5499 C 489.022 -0.733235 -1.879 0
M  V30 5500 C 489.335 0.741745 -1.8099 0
M  V30 5501 O 490.541 1.15875 -2.4553 0
M  V30 5502 C 488.997 -1.26127 -3.37076 0
M  V30 5503 C 488.605 -2.76461 -3.52524 0
M  V30 5504 C 490.349 -1.03398 -4.11715 0
M  V30 5505 C 488.256 -3.22642 -4.95637 0
M  V30 5506 H 487.186 -0.270584 -0.703776 0
M  V30 5507 H 489.837 -1.25222 -1.34133 0
M  V30 5508 H 488.219 -0.670165 -3.90288 0
M  V30 5509 H 489.393 -3.41296 -3.09602 0
M  V30 5510 H 487.708 -2.97559 -2.91286 0
M  V30 5511 H 490.305 -1.3542 -5.17267 0
M  V30 5512 H 490.648 0.0289246 -4.1629 0
M  V30 5513 H 491.181 -1.5895 -3.64664 0
M  V30 5514 H 487.92 -4.28296 -4.96228 0
M  V30 5515 H 487.44 -2.62539 -5.39289 0
M  V30 5516 H 489.119 -3.16444 -5.64333 0
M  V30 5517 N 489.251 1.34841 -0.815825 0
M  V30 5518 C 490.5 1.97755 -0.396976 0
M  V30 5519 C 490.813 1.65422 1.04379 0
M  V30 5520 O 492.019 2.21771 1.5662 0
M  V30 5521 C 490.475 3.53818 -0.658869 0
M  V30 5522 C 490.083 3.95051 -2.11278 0
M  V30 5523 C 491.827 4.23397 -0.305834 0
M  V30 5524 C 489.734 5.43997 -2.31994 0
M  V30 5525 H 488.664 0.739985 -0.1447 0
M  V30 5526 H 491.315 1.53781 -1.00118 0
M  V30 5527 H 489.697 3.95997 0.0154112 0
M  V30 5528 H 490.871 3.63998 -2.82564 0
M  V30 5529 H 489.186 3.38388 -2.42657 0
M  V30 5530 H 491.783 5.32899 -0.43854 0
M  V30 5531 H 492.126 4.09508 0.748952 0
M  V30 5532 H 492.659 3.8667 -0.934403 0
M  V30 5533 H 489.398 5.62865 -3.35952 0
M  V30 5534 H 488.918 5.76589 -1.65244 0
M  V30 5535 H 490.597 6.10584 -2.14001 0
M  V30 5536 N 490.729 0.570148 1.46925 0
M  V30 5537 C 491.959 0.0561151 2.06524 0
M  V30 5538 C 492.367 -1.24874 1.42137 0
M  V30 5539 O 491.71 -1.76292 0.516417 0
M  V30 5540 C 491.772 -0.197035 3.5896 0
M  V30 5541 C 491.436 1.02033 4.45464 0
M  V30 5542 C 492.433 1.92921 4.82781 0
M  V30 5543 C 490.118 1.23864 4.86788 0
M  V30 5544 C 492.112 3.03999 5.60235 0
M  V30 5545 C 489.799 2.35249 5.64004 0
M  V30 5546 C 490.797 3.25146 6.0064 0
M  V30 5547 O 490.485 4.34598 6.76299 0
M  V30 5548 H 490.217 0.0487409 0.674241 0
M  V30 5549 H 492.771 0.786915 1.89728 0
M  V30 5550 H 491.001 -0.982299 3.74016 0
M  V30 5551 H 492.69 -0.658032 4.00531 0
M  V30 5552 H 493.456 1.77265 4.51444 0
M  V30 5553 H 489.335 0.54805 4.57731 0
M  V30 5554 H 492.879 3.74192 5.8875 0
M  V30 5555 H 488.776 2.50873 5.94755 0
M  V30 5556 H 489.544 4.32808 6.94708 0
M  V30 5557 N 492.207 -1.54576 0.307264 0
M  V30 5558 C 493.484 -1.92377 -0.353605 0
M  V30 5559 C 493.864 -1.23517 -1.71192 0
M  V30 5560 O 493.212 -0.373101 -2.25433 0
M  V30 5561 C 493.422 -3.45928 -0.462039 0
M  V30 5562 C 494.77 -4.18278 -0.729975 0
M  V30 5563 O 495.794 -3.51997 -0.545605 0
M  V30 5564 O 494.653 -5.3563 -1.08454 0
M  V30 5565 H 491.747 -0.802747 -0.198812 0
M  V30 5566 H 494.293 -1.65929 0.355783 0
M  V30 5567 H 493.065 -3.88187 0.492592 0
M  V30 5568 H 492.688 -3.78431 -1.21965 0
M  V30 5569 N 493.685 -0.035106 -1.57561 0
M  V30 5570 C 494.934 0.641604 -1.91223 0
M  V30 5571 C 495.247 1.72944 -0.913761 0
M  V30 5572 O 496.453 2.46321 -1.14185 0
M  V30 5573 C 494.909 1.19249 -3.3957 0
M  V30 5574 C 494.517 0.137616 -4.47789 0
M  V30 5575 C 496.261 1.84537 -3.82291 0
M  V30 5576 C 494.168 0.700478 -5.87237 0
M  V30 5577 H 493.098 0.243417 -0.713627 0
M  V30 5578 H 495.749 -0.101382 -1.8322 0
M  V30 5579 H 494.131 1.98728 -3.42525 0
M  V30 5580 H 495.305 -0.635153 -4.56402 0
M  V30 5581 H 493.62 -0.416855 -4.14308 0
M  V30 5582 H 496.217 2.27616 -4.83834 0
M  V30 5583 H 496.56 2.69054 -3.17672 0
M  V30 5584 H 497.093 1.11739 -3.81784 0
M  V30 5585 H 493.832 -0.106693 -6.55413 0
M  V30 5586 H 493.352 1.4416 -5.82218 0
M  V30 5587 H 495.031 1.18837 -6.35993 0
M  V30 5588 N 495.163 1.55791 0.238111 0
M  V30 5589 C 496.096 1.86036 1.32158 0
M  V30 5590 C 497.074 0.716216 1.45976 0
M  V30 5591 O 498.258 0.962882 1.62052 0
M  V30 5592 C 495.385 2.05281 2.69402 0
M  V30 5593 C 494.431 3.27939 2.72687 0
M  V30 5594 S 495.264 4.84342 2.28413 0
M  V30 5595 C 496.42 5.06604 3.67565 0
M  V30 5596 H 496.653 2.77644 1.06306 0
M  V30 5597 H 494.186 1.48012 0.439537 0
M  V30 5598 H 496.144 2.17053 3.48423 0
M  V30 5599 H 494.805 1.14499 2.92487 0
M  V30 5600 H 493.998 3.38398 3.73501 0
M  V30 5601 H 493.6 3.14938 2.01717 0
M  V30 5602 H 495.892 4.94486 4.6313 0
M  V30 5603 H 496.835 6.08554 3.62033 0
M  V30 5604 H 497.243 4.34409 3.60485 0
M  V30 5605 N 496.642 -0.504142 1.49319 0
M  V30 5606 C 497.575 -1.62361 1.60356 0
M  V30 5607 C 498.553 -1.56169 0.45277 0
M  V30 5608 O 499.737 -1.76271 0.667892 0
M  V30 5609 C 496.864 -3.00864 1.55559 0
M  V30 5610 C 495.91 -3.25328 2.75797 0
M  V30 5611 S 496.743 -3.08791 4.37503 0
M  V30 5612 C 497.899 -4.49695 4.35345 0
M  V30 5613 H 498.132 -1.52753 2.55056 0
M  V30 5614 H 495.665 -0.689065 1.38171 0
M  V30 5615 H 497.623 -3.8073 1.53477 0
M  V30 5616 H 496.284 -3.0789 0.621515 0
M  V30 5617 H 495.477 -4.2643 2.68651 0
M  V30 5618 H 495.079 -2.53179 2.75275 0
M  V30 5619 H 497.371 -5.41721 4.06871 0
M  V30 5620 H 498.314 -4.61891 5.36714 0
M  V30 5621 H 498.722 -4.30227 3.65465 0
M  V30 5622 N 498.12 -1.38341 -0.754957 0
M  V30 5623 C 499.068 -1.35573 -1.89005 0
M  V30 5624 C 500.062 -0.241824 -1.67665 0
M  V30 5625 O 501.268 -0.410785 -1.7525 0
M  V30 5626 H 497.643 -0.422898 -0.621821 0
M  V30 5627 H 499.614 -2.31359 -1.88455 0
M  V30 5628 C 498.363 -1.19631 -3.26471 0
M  V30 5629 H 497.686 -2.04605 -3.43477 0
M  V30 5630 H 499.126 -1.21748 -4.06144 0
M  V30 5631 C 497.585 0.0968705 -3.36761 0
M  V30 5632 O 498.115 1.07439 -3.87066 0
M  V30 5633 N 496.321 0.153242 -2.90196 0
M  V30 5634 H 495.868 -0.642908 -2.49448 0
M  V30 5635 H 495.826 1.01807 -2.9746 0
M  V30 5636 N 499.598 0.982988 -1.23187 0
M  V30 5637 C 500.846 1.72052 -1.06031 0
M  V30 5638 C 501.167 1.90769 0.404019 0
M  V30 5639 O 500.437 1.47446 1.28982 0
M  V30 5640 H 499.017 0.637499 -0.389363 0
M  V30 5641 H 501.679 1.18338 -1.54862 0
M  V30 5642 H 500.775 2.7111 -1.54615 0
M  V30 5643 N 501.076 1.04316 1.18135 0
M  V30 5644 C 502.024 0.630175 2.23901 0
M  V30 5645 C 503.018 -0.344254 1.65865 0
M  V30 5646 O 504.224 -0.211273 1.78756 0
M  V30 5647 H 500.599 0.185578 0.728742 0
M  V30 5648 H 502.57 1.53253 2.56039 0
M  V30 5649 C 501.319 0.011666 3.47698 0
M  V30 5650 H 500.642 0.752526 3.92654 0
M  V30 5651 H 502.082 -0.240046 4.2332 0
M  V30 5652 C 500.541 -1.23913 3.13285 0
M  V30 5653 O 501.071 -2.32959 3.27251 0
M  V30 5654 N 499.277 -1.13338 2.67587 0
M  V30 5655 H 498.824 -0.246006 2.56423 0
M  V30 5656 H 498.782 -1.97116 2.44934 0
M  V30 5657 N 502.554 -1.34406 0.822964 0
M  V30 5658 C 503.501 -2.29519 0.24284 0
M  V30 5659 C 504.471 -1.5359 -0.632397 0
M  V30 5660 O 505.656 -1.8196 -0.57403 0
M  V30 5661 C 502.796 -3.40032 -0.58925 0
M  V30 5662 C 501.909 -4.30899 0.308236 0
M  V30 5663 C 501.044 -5.28515 -0.533425 0
M  V30 5664 C 500.083 -6.1102 0.363444 0
M  V30 5665 N 499.22 -7.00725 -0.439147 0
M  V30 5666 H 504.06 -2.78537 1.05929 0
M  V30 5667 H 501.597 -1.3707 0.533872 0
M  V30 5668 H 503.555 -4.0279 -1.087 0
M  V30 5669 H 502.185 -2.92248 -1.37081 0
M  V30 5670 H 501.237 -3.69002 0.924203 0
M  V30 5671 H 502.549 -4.88717 0.997862 0
M  V30 5672 H 501.703 -5.96725 -1.09565 0
M  V30 5673 H 500.442 -4.71235 -1.25656 0
M  V30 5674 H 499.447 -5.41743 0.937812 0
M  V30 5675 H 500.672 -6.70381 1.08469 0
M  V30 5676 H 498.618 -6.45913 -1.14595 0
M  V30 5677 H 498.535 -7.55756 0.19209 0
M  V30 5678 H 499.803 -7.73263 -0.984124 0
M  V30 5679 N 504.032 -0.577932 -1.46621 0
M  V30 5680 C 504.964 0.195801 -2.28362 0
M  V30 5681 C 505.977 0.859983 -1.38232 0
M  V30 5682 O 507.166 0.730349 -1.62875 0
M  V30 5683 C 504.266 1.29639 -3.13124 0
M  V30 5684 C 503.439 0.725049 -4.31349 0
M  V30 5685 C 502.498 1.71274 -4.97546 0
M  V30 5686 O 501.524 1.25067 -5.5529 0
M  V30 5687 N 502.726 3.04672 -4.94121 0
M  V30 5688 H 505.491 -0.505468 -2.95407 0
M  V30 5689 H 503.052 -0.415381 -1.56481 0
M  V30 5690 H 505.044 1.95631 -3.54275 0
M  V30 5691 H 503.614 1.90059 -2.48186 0
M  V30 5692 H 502.834 -0.112205 -3.9404 0
M  V30 5693 H 504.122 0.323034 -5.07774 0
M  V30 5694 H 503.52 3.4484 -4.48444 0
M  V30 5695 H 502.077 3.66166 -5.39227 0
M  V30 5696 N 505.51 1.54411 -0.315457 0
M  V30 5697 C 506.735 2.05299 0.294496 0
M  V30 5698 C 507.16 1.19052 1.4563 0
M  V30 5699 O 506.518 0.197804 1.80218 0
M  V30 5700 C 506.566 3.5345 0.714549 0
M  V30 5701 O 505.67 3.70175 1.81781 0
M  V30 5702 H 505.011 0.661743 0.0547019 0
M  V30 5703 H 507.541 1.99327 -0.461508 0
M  V30 5704 H 507.551 3.9557 0.999426 0
M  V30 5705 H 506.226 4.1568 -0.135244 0
M  V30 5706 H 504.803 3.3996 1.53236 0
M  V30 5707 N 506.988 0.0434614 1.5754 0
M  V30 5708 C 508.265 -0.671479 1.83713 0
M  V30 5709 C 508.645 -1.89495 0.930315 0
M  V30 5710 O 507.993 -2.28498 -0.0105639 0
M  V30 5711 C 508.203 -1.0361 3.33266 0
M  V30 5712 C 509.551 -1.42167 4.00092 0
M  V30 5713 O 510.575 -1.12866 3.37846 0
M  V30 5714 O 509.434 -1.96817 5.09829 0
M  V30 5715 H 506.528 -0.330726 0.75799 0
M  V30 5716 H 509.074 0.0722373 1.69546 0
M  V30 5717 H 507.846 -0.165938 3.90948 0
M  V30 5718 H 507.469 -1.83751 3.52592 0
M  V30 5719 N 508.466 -1.55915 -0.229846 0
M  V30 5720 C 509.882 -1.48721 -0.579166 0
M  V30 5721 C 510.082 -0.736976 -1.87539 0
M  V30 5722 O 509.138 -0.273258 -2.51017 0
M  V30 5723 C 510.451 -2.9323 -0.666082 0
M  V30 5724 C 511.999 -3.03701 -0.757267 0
M  V30 5725 C 512.474 -4.49552 -0.8756 0
M  V30 5726 N 513.965 -4.53561 -0.940035 0
M  V30 5727 C 514.7 -5.63683 -1.05116 0
M  V30 5728 N 514.196 -6.83576 -1.12675 0
M  V30 5729 N 515.989 -5.51516 -1.08565 0
M  V30 5730 H 508.14 -2.03123 0.620857 0
M  V30 5731 H 510.403 -0.922898 0.21671 0
M  V30 5732 H 510.109 -3.51032 0.21664 0
M  V30 5733 H 509.983 -3.44668 -1.53243 0
M  V30 5734 H 512.37 -2.45969 -1.63043 0
M  V30 5735 H 512.451 -2.55446 0.134583 0
M  V30 5736 H 512.095 -5.079 -0.00692351 0
M  V30 5737 H 512.025 -4.95506 -1.78274 0
M  V30 5738 H 514.516 -3.67215 -0.892269 0
M  V30 5739 H 514.829 -7.63251 -1.21109 0
M  V30 5740 H 513.174 -6.86303 -1.09603 0
M  V30 5741 H 516.365 -4.5678 -1.02319 0
M  V30 5742 H 516.538 -6.37372 -1.1688 0
M  V30 5743 N 509.944 0.496216 -1.49584 0
M  V30 5744 C 511.172 1.27394 -1.63029 0
M  V30 5745 C 511.587 1.86344 -0.303569 0
M  V30 5746 O 510.944 1.68057 0.711547 0
M  V30 5747 C 510.995 2.40077 -2.70269 0
M  V30 5748 O 510.716 1.83549 -3.97796 0
M  V30 5749 C 512.217 3.31372 -2.94462 0
M  V30 5750 H 509.437 0.386211 -0.54871 0
M  V30 5751 H 511.981 0.595163 -1.95648 0
M  V30 5752 H 510.136 3.03775 -2.40415 0
M  V30 5753 H 510.55 2.57561 -4.56905 0
M  V30 5754 H 512.024 4.06707 -3.73221 0
M  V30 5755 H 512.501 3.88654 -2.0456 0
M  V30 5756 H 513.107 2.73435 -3.25751 0
M  V30 5757 N 511.423 1.38739 0.74761 0
M  V30 5758 C 512.671 1.35007 1.50391 0
M  V30 5759 C 512.992 -0.0574274 1.94915 0
M  V30 5760 O 512.262 -1.00628 1.6808 0
M  V30 5761 H 510.842 0.496784 0.557866 0
M  V30 5762 H 513.504 1.73479 0.888319 0
M  V30 5763 H 512.6 2.00474 2.392 0
M  V30 5764 N 512.901 -0.976442 1.23707 0
M  V30 5765 C 514.147 -1.72081 1.07312 0
M  V30 5766 C 514.48 -1.90275 -0.388476 0
M  V30 5767 O 513.755 -1.4579 -1.28746 0
M  V30 5768 C 514.038 -3.11675 1.80363 0
M  V30 5769 C 513.891 -3.01027 3.3422 0
M  V30 5770 C 515.21 -4.1117 1.5693 0
M  V30 5771 H 512.329 -0.624583 0.391236 0
M  V30 5772 H 514.971 -1.13649 1.52263 0
M  V30 5773 H 513.121 -3.61559 1.42153 0
M  V30 5774 H 514.793 -2.58637 3.81975 0
M  V30 5775 H 513.036 -2.3744 3.63049 0
M  V30 5776 H 513.707 -3.9988 3.80525 0
M  V30 5777 H 516.183 -3.7011 1.90151 0
M  V30 5778 H 515.059 -5.06928 2.10513 0
M  V30 5779 H 515.32 -4.392 0.505548 0
M  V30 5780 N 514.379 -1.04941 -1.1758 0
M  V30 5781 C 515.627 -0.756492 -1.87408 0
M  V30 5782 C 515.948 0.718478 -1.81281 0
M  V30 5783 O 515.218 1.519 -1.23706 0
M  V30 5784 H 513.798 -0.276841 -0.693807 0
M  V30 5785 H 516.46 -1.32803 -1.42652 0
M  V30 5786 H 515.556 -1.06918 -2.93215 0
M  V30 5787 N 515.857 1.33968 -0.830081 0
M  V30 5788 C 517.103 1.98357 -0.422191 0
M  V30 5789 C 517.436 1.65633 1.01387 0
M  V30 5790 O 516.711 0.931648 1.70735 0
M  V30 5791 C 516.994 3.54492 -0.633043 0
M  V30 5792 C 516.847 3.96934 -2.11574 0
M  V30 5793 C 518.166 4.40039 -0.0735584 0
M  V30 5794 H 515.285 0.720544 -0.154871 0
M  V30 5795 H 517.927 1.58749 -1.04397 0
M  V30 5796 H 516.077 3.88361 -0.103775 0
M  V30 5797 H 517.749 3.73363 -2.7092 0
M  V30 5798 H 515.992 3.46984 -2.60354 0
M  V30 5799 H 516.663 5.05651 -2.21406 0
M  V30 5800 H 519.139 4.12764 -0.52585 0
M  V30 5801 H 518.015 5.48327 -0.250841 0
M  V30 5802 H 518.276 4.30124 1.02202 0
M  V30 5803 N 517.335 0.585699 1.46312 0
M  V30 5804 C 518.265 -0.133556 2.33118 0
M  V30 5805 C 519.246 -0.880707 1.45525 0
M  V30 5806 O 520.431 -0.855579 1.74337 0
M  V30 5807 C 517.561 -1.14585 3.27853 0
M  V30 5808 C 516.515 -0.513341 4.2491 0
M  V30 5809 C 515.841 -1.63231 5.09175 0
M  V30 5810 C 517.141 0.551413 5.19381 0
M  V30 5811 H 518.835 0.59121 2.93505 0
M  V30 5812 H 516.381 0.285761 1.41136 0
M  V30 5813 H 518.334 -1.65741 3.87438 0
M  V30 5814 H 517.058 -1.90093 2.65579 0
M  V30 5815 H 515.717 -0.0228349 3.66593 0
M  V30 5816 H 515.365 -2.37713 4.43285 0
M  V30 5817 H 515.065 -1.21473 5.74907 0
M  V30 5818 H 516.589 -2.14658 5.71624 0
M  V30 5819 H 518.003 0.124804 5.73164 0
M  V30 5820 H 516.4 0.889486 5.93471 0
M  V30 5821 H 517.47 1.43655 4.63132 0
M  V30 5822 N 518.813 -1.54241 0.323641 0
M  V30 5823 C 520.038 -2.05452 -0.283605 0
M  V30 5824 C 520.463 -1.19823 -1.44997 0
M  V30 5825 O 519.821 -0.207358 -1.8011 0
M  V30 5826 C 519.869 -3.53823 -0.695795 0
M  V30 5827 O 518.973 -3.71134 -1.79815 0
M  V30 5828 H 518.314 -0.662024 -0.0511917 0
M  V30 5829 H 520.844 -1.99079 0.472073 0
M  V30 5830 H 520.854 -3.96094 -0.978434 0
M  V30 5831 H 519.529 -4.15602 0.157287 0
M  V30 5832 H 518.106 -3.40768 -1.51431 0
M  V30 5833 N 520.291 -0.0518155 -1.57515 0
M  V30 5834 C 521.238 0.922352 -2.11569 0
M  V30 5835 C 522.208 1.30842 -1.02321 0
M  V30 5836 O 523.393 1.39778 -1.29872 0
M  V30 5837 C 520.533 2.19167 -2.6657 0
M  V30 5838 C 519.646 1.86003 -3.89906 0
M  V30 5839 C 518.781 3.07398 -4.33221 0
M  V30 5840 C 517.82 2.70158 -5.49255 0
M  V30 5841 N 516.957 3.84248 -5.8762 0
M  V30 5842 H 521.797 0.454506 -2.94514 0
M  V30 5843 H 519.334 0.212718 -1.45554 0
M  V30 5844 H 521.292 2.93443 -2.96559 0
M  V30 5845 H 519.922 2.63528 -1.86421 0
M  V30 5846 H 518.974 1.01874 -3.66505 0
M  V30 5847 H 520.286 1.54592 -4.74239 0
M  V30 5848 H 519.44 3.89972 -4.64765 0
M  V30 5849 H 518.179 3.41988 -3.477 0
M  V30 5850 H 517.184 1.86001 -5.17382 0
M  V30 5851 H 518.409 2.36759 -6.36492 0
M  V30 5852 H 516.355 4.18638 -5.05053 0
M  V30 5853 H 516.272 3.56538 -6.66646 0
M  V30 5854 H 517.54 4.6746 -6.2378 0
M  V30 5855 N 521.769 1.56035 0.221574 0
M  V30 5856 C 523.016 1.79047 0.94597 0
M  V30 5857 C 523.344 0.62057 1.84334 0
M  V30 5858 O 522.599 -0.395053 1.91671 0
M  V30 5859 C 522.898 3.07813 1.8162 0
M  V30 5860 C 522.564 4.3797 1.07206 0
M  V30 5861 C 521.226 4.73334 0.866508 0
M  V30 5862 C 523.578 5.18326 0.546565 0
M  V30 5863 C 520.906 5.8657 0.123549 0
M  V30 5864 C 523.258 6.32335 -0.18305 0
M  V30 5865 C 521.922 6.66301 -0.399861 0
M  V30 5866 H 521.192 0.655178 0.346155 0
M  V30 5867 H 523.839 1.90299 0.214146 0
M  V30 5868 H 522.144 2.91682 2.61589 0
M  V30 5869 H 523.841 3.2282 2.37884 0
M  V30 5870 H 520.431 4.10202 1.24226 0
M  V30 5871 H 524.615 4.9144 0.692847 0
M  V30 5872 H 519.871 6.11376 -0.0546591 0
M  V30 5873 H 524.045 6.9383 -0.59775 0
M  V30 5874 H 521.672 7.53889 -0.977489 0
M  V30 5875 N 523.247 -0.488276 1.49845 0
M  V30 5876 C 524.495 -1.23911 1.59657 0
M  V30 5877 C 524.816 -1.92816 0.291005 0
M  V30 5878 O 524.086 -1.83328 -0.690485 0
M  V30 5879 H 522.666 -0.460357 0.588286 0
M  V30 5880 H 525.328 -0.564794 1.86537 0
M  V30 5881 H 524.424 -1.99625 2.39909 0
M  V30 5882 N 524.725 -1.39134 -0.740242 0
M  V30 5883 C 525.955 -1.39132 -1.52728 0
M  V30 5884 C 526.363 0.0173133 -1.89192 0
M  V30 5885 O 525.706 0.997715 -1.54244 0
M  V30 5886 C 525.768 -2.1952 -2.84695 0
M  V30 5887 C 525.432 -3.68203 -2.70695 0
M  V30 5888 C 526.429 -4.61401 -2.39593 0
M  V30 5889 C 524.114 -4.11724 -2.8773 0
M  V30 5890 C 526.108 -5.96102 -2.25701 0
M  V30 5891 C 523.795 -5.46503 -2.73456 0
M  V30 5892 C 524.793 -6.38506 -2.42486 0
M  V30 5893 O 524.481 -7.70803 -2.28295 0
M  V30 5894 H 524.213 -0.477263 -0.478744 0
M  V30 5895 H 526.767 -1.83504 -0.922799 0
M  V30 5896 H 524.997 -1.69888 -3.47383 0
M  V30 5897 H 526.686 -2.1176 -3.46284 0
M  V30 5898 H 527.452 -4.29079 -2.26088 0
M  V30 5899 H 523.331 -3.4045 -3.10829 0
M  V30 5900 H 526.875 -6.6788 -2.0145 0
M  V30 5901 H 522.772 -5.78417 -2.86538 0
M  V30 5902 H 523.54 -7.8147 -2.43405 0
M  V30 5903 N 526.204 0.969867 -1.24223 0
M  V30 5904 C 527.453 1.70687 -1.07466 0
M  V30 5905 C 527.766 1.91736 0.386861 0
M  V30 5906 O 528.972 2.62986 0.674581 0
M  V30 5907 C 527.428 3.07217 -1.87472 0
M  V30 5908 C 527.036 2.94018 -3.3802 0
M  V30 5909 C 528.78 3.84804 -1.79237 0
M  V30 5910 C 526.687 4.25844 -4.10379 0
M  V30 5911 H 525.617 0.640067 -0.398536 0
M  V30 5912 H 528.268 1.08092 -1.48285 0
M  V30 5913 H 526.65 3.70628 -1.39466 0
M  V30 5914 H 527.824 2.39632 -3.9359 0
M  V30 5915 H 526.139 2.29898 -3.47183 0
M  V30 5916 H 528.736 4.82417 -2.30603 0
M  V30 5917 H 529.079 4.09356 -0.757197 0
M  V30 5918 H 529.612 3.28115 -2.24912 0
M  V30 5919 H 526.351 4.06486 -5.14246 0
M  V30 5920 H 525.871 4.80054 -3.59594 0
M  V30 5921 H 527.55 4.94475 -4.17257 0
M  V30 5922 N 527.682 1.05563 1.17022 0
M  V30 5923 C 528.615 0.604197 2.20056 0
M  V30 5924 C 529.593 -0.369169 1.58354 0
M  V30 5925 O 530.777 -0.279898 1.8641 0
M  V30 5926 C 527.904 -0.115265 3.38504 0
M  V30 5927 C 526.95 0.813698 4.18666 0
M  V30 5928 S 527.783 2.30492 4.83357 0
M  V30 5929 C 528.939 1.59674 6.0519 0
M  V30 5930 H 529.172 1.47713 2.58008 0
M  V30 5931 H 526.705 0.867932 1.27696 0
M  V30 5932 H 528.663 -0.524162 4.0714 0
M  V30 5933 H 527.324 -0.964284 2.98932 0
M  V30 5934 H 526.517 0.256736 5.03346 0
M  V30 5935 H 526.119 1.16213 3.55486 0
M  V30 5936 H 528.411 0.898164 6.7152 0
M  V30 5937 H 529.354 2.42115 6.65422 0
M  V30 5938 H 529.762 1.08252 5.54023 0
M  V30 5939 N 529.16 -1.33526 0.837174 0
M  V30 5940 C 530.107 -2.29248 0.267169 0
M  V30 5941 C 531.077 -1.54252 -0.616071 0
M  V30 5942 O 532.262 -1.82559 -0.554699 0
M  V30 5943 C 529.402 -3.40638 -0.553152 0
M  V30 5944 C 528.515 -4.30548 0.353921 0
M  V30 5945 C 527.65 -5.29051 -0.477339 0
M  V30 5946 C 526.689 -6.106 0.42823 0
M  V30 5947 N 525.826 -7.01152 -0.364801 0
M  V30 5948 H 530.666 -2.77398 1.08877 0
M  V30 5949 H 528.203 -1.36496 0.54838 0
M  V30 5950 H 530.161 -4.03921 -1.04422 0
M  V30 5951 H 528.791 -2.93685 -1.33973 0
M  V30 5952 H 527.843 -3.68001 0.963289 0
M  V30 5953 H 529.155 -4.87631 1.04964 0
M  V30 5954 H 528.309 -5.97853 -1.0323 0
M  V30 5955 H 527.048 -4.72541 -1.2065 0
M  V30 5956 H 526.053 -5.40718 0.995219 0
M  V30 5957 H 527.278 -6.69193 1.15573 0
M  V30 5958 H 525.224 -6.47092 -1.07738 0
M  V30 5959 H 525.141 -7.5551 0.272238 0
M  V30 5960 H 526.409 -7.74263 -0.902054 0
M  V30 5961 N 530.638 -0.59345 -1.46 0
M  V30 5962 C 531.885 -0.0831523 -2.02329 0
M  V30 5963 C 532.213 1.28093 -1.46364 0
M  V30 5964 O 531.468 1.85526 -0.622793 0
M  V30 5965 C 531.767 0.021178 -3.57394 0
M  V30 5966 C 531.433 -1.27671 -4.32448 0
M  V30 5967 C 530.095 -1.63227 -4.5267 0
M  V30 5968 C 532.447 -2.13511 -4.7546 0
M  V30 5969 C 529.775 -2.84401 -5.1316 0
M  V30 5970 C 532.127 -3.33922 -5.37289 0
M  V30 5971 C 530.791 -3.69747 -5.55737 0
M  V30 5972 H 530.061 -0.0304276 -0.740375 0
M  V30 5973 H 532.708 -0.772239 -1.75239 0
M  V30 5974 H 531.013 0.793454 -3.83682 0
M  V30 5975 H 532.71 0.431942 -3.98667 0
M  V30 5976 H 529.3 -0.989937 -4.17011 0
M  V30 5977 H 533.484 -1.87344 -4.59582 0
M  V30 5978 H 528.74 -3.12282 -5.25633 0
M  V30 5979 H 532.914 -4.00698 -5.69574 0
M  V30 5980 H 530.541 -4.6373 -6.02377 0
M  V30 5981 N 532.116 1.54067 -0.331816 0
M  V30 5982 C 533.393 1.92915 0.322955 0
M  V30 5983 C 533.773 1.26225 1.69205 0
M  V30 5984 O 533.121 0.408919 2.24811 0
M  V30 5985 C 533.331 3.46619 0.406946 0
M  V30 5986 C 534.679 4.19386 0.663339 0
M  V30 5987 O 535.703 3.5282 0.489536 0
M  V30 5988 O 534.562 5.37288 0.999193 0
M  V30 5989 H 531.656 0.805808 0.186016 0
M  V30 5990 H 534.202 1.65342 -0.382135 0
M  V30 5991 H 532.974 3.87354 -0.554287 0
M  V30 5992 H 532.597 3.80324 1.15929 0
M  V30 5993 N 533.594 0.0601682 1.57485 0
M  V30 5994 C 534.524 -0.90889 2.15085 0
M  V30 5995 C 535.505 -1.31838 1.07484 0
M  V30 5996 O 536.69 -1.3915 1.35466 0
M  V30 5997 C 533.82 -2.18059 2.7031 0
M  V30 5998 C 532.774 -1.91088 3.82974 0
M  V30 5999 C 532.1 -3.24789 4.24754 0
M  V30 6000 C 533.4 -1.22535 5.07723 0
M  V30 6001 H 535.094 -0.429093 2.96309 0
M  V30 6002 H 532.64 -0.204952 1.42534 0
M  V30 6003 H 534.593 -2.86258 3.09248 0
M  V30 6004 H 533.317 -2.6826 1.8629 0
M  V30 6005 H 531.976 -1.25297 3.44523 0
M  V30 6006 H 531.624 -3.72809 3.37672 0
M  V30 6007 H 531.324 -3.07538 5.00694 0
M  V30 6008 H 532.848 -3.94205 4.66299 0
M  V30 6009 H 534.262 -1.80783 5.4405 0
M  V30 6010 H 532.659 -1.1558 5.88864 0
M  V30 6011 H 533.729 -0.202692 4.84476 0
M  V30 6012 N 535.072 -1.5615 -0.213296 0
M  V30 6013 C 536.297 -1.83986 -0.957282 0
M  V30 6014 C 536.722 -0.641526 -1.76822 0
M  V30 6015 O 536.08 0.409722 -1.7661 0
M  V30 6016 C 536.128 -3.09889 -1.84393 0
M  V30 6017 O 535.232 -2.89163 -2.94038 0
M  V30 6018 H 534.573 -0.606357 -0.270605 0
M  V30 6019 H 537.103 -2.03369 -0.224111 0
M  V30 6020 H 537.113 -3.40209 -2.25215 0
M  V30 6021 H 535.788 -3.96735 -1.24795 0
M  V30 6022 H 534.365 -2.70097 -2.57103 0
M  V30 6023 N 536.55 0.480323 -1.50102 0
M  V30 6024 C 537.482 1.59669 -1.64433 0
M  V30 6025 C 538.495 1.54063 -0.52615 0
M  V30 6026 O 539.684 1.59619 -0.798992 0
M  V30 6027 C 536.784 2.98527 -1.6042 0
M  V30 6028 C 535.957 3.291 -2.88117 0
M  V30 6029 C 535.016 4.47468 -2.76873 0
M  V30 6030 O 534.042 4.4823 -3.50825 0
M  V30 6031 N 535.244 5.48593 -1.89806 0
M  V30 6032 H 538.009 1.47795 -2.60723 0
M  V30 6033 H 535.57 0.66858 -1.4745 0
M  V30 6034 H 537.562 3.75666 -1.50523 0
M  V30 6035 H 536.132 3.04218 -0.719036 0
M  V30 6036 H 535.352 2.40662 -3.12211 0
M  V30 6037 H 536.64 3.46334 -3.72734 0
M  V30 6038 H 536.038 5.50791 -1.2902 0
M  V30 6039 H 534.595 6.24752 -1.85819 0
M  V30 6040 N 538.028 1.39524 0.732853 0
M  V30 6041 C 539.258 1.3994 1.51988 0
M  V30 6042 C 539.666 -0.00727973 1.89199 0
M  V30 6043 O 539.009 -0.989521 1.54771 0
M  V30 6044 C 539.071 2.21026 2.83527 0
M  V30 6045 C 538.735 3.69633 2.68738 0
M  V30 6046 C 539.732 4.62665 2.37143 0
M  V30 6047 C 537.417 4.13244 2.85542 0
M  V30 6048 C 539.411 5.97291 2.22536 0
M  V30 6049 C 537.098 5.47945 2.70554 0
M  V30 6050 C 538.096 6.39783 2.39097 0
M  V30 6051 O 537.784 7.72002 2.24204 0
M  V30 6052 H 537.516 0.479795 0.476206 0
M  V30 6053 H 540.07 1.8399 0.913054 0
M  V30 6054 H 538.3 1.71728 3.46477 0
M  V30 6055 H 539.989 2.13594 3.45156 0
M  V30 6056 H 540.755 4.30272 2.2381 0
M  V30 6057 H 536.634 3.42094 3.09019 0
M  V30 6058 H 540.178 6.68939 1.97905 0
M  V30 6059 H 536.075 5.79928 2.83466 0
M  V30 6060 H 536.843 7.8275 2.39258 0
M  V30 6061 N 539.506 -0.963266 1.24736 0
M  V30 6062 C 540.753 -1.7068 1.0897 0
M  V30 6063 C 541.081 -1.90934 -0.370751 0
M  V30 6064 O 540.336 -1.47155 -1.29011 0
M  V30 6065 C 540.635 -3.09944 1.7796 0
M  V30 6066 C 540.301 -3.09518 3.27887 0
M  V30 6067 C 538.963 -3.09109 3.68789 0
M  V30 6068 C 541.315 -3.03509 4.23712 0
M  V30 6069 C 538.643 -3.00429 5.03944 0
M  V30 6070 C 540.995 -2.96371 5.5888 0
M  V30 6071 C 539.659 -2.94293 5.99123 0
M  V30 6072 H 538.929 -0.624564 0.398749 0
M  V30 6073 H 541.576 -1.12603 1.54896 0
M  V30 6074 H 539.881 -3.71513 1.2444 0
M  V30 6075 H 541.578 -3.66278 1.63222 0
M  V30 6076 H 538.168 -3.10603 2.95337 0
M  V30 6077 H 542.352 -3.0295 3.93109 0
M  V30 6078 H 537.608 -2.97183 5.34314 0
M  V30 6079 H 541.782 -2.90681 6.32833 0
M  V30 6080 H 539.409 -2.87322 7.03811 0
M  V30 6081 N 540.985 -1.06182 -1.16461 0
M  V30 6082 C 542.396 -0.802426 -1.68576 0
M  V30 6083 C 542.747 0.67412 -1.84255 0
M  V30 6084 O 541.872 1.52303 -1.5373 0
M  V30 6085 C 542.467 -1.45002 -3.06202 0
M  V30 6086 C 541.026 -1.23843 -3.55443 0
M  V30 6087 C 540.173 -1.52724 -2.31454 0
M  V30 6088 H 543.124 -1.22545 -1.00839 0
M  V30 6089 H 543.145 -0.864731 -3.70544 0
M  V30 6090 H 542.657 -2.52466 -2.94759 0
M  V30 6091 H 540.758 -0.183487 -3.72148 0
M  V30 6092 H 540.871 -1.95036 -4.37604 0
M  V30 6093 H 539.235 -0.947726 -2.36411 0
M  V30 6094 H 540.018 -2.61343 -2.22609 0
M  V30 6095 N 542.463 1.3308 -0.844243 0
M  V30 6096 C 543.393 2.3161 -0.296493 0
M  V30 6097 C 544.374 1.59215 0.598707 0
M  V30 6098 O 545.559 1.87077 0.521134 0
M  V30 6099 C 542.689 3.43313 0.524762 0
M  V30 6100 C 541.643 4.27115 -0.275106 0
M  V30 6101 C 540.969 5.30483 0.670236 0
M  V30 6102 C 542.269 5.00443 -1.49514 0
M  V30 6103 H 543.963 2.77672 -1.11976 0
M  V30 6104 H 541.509 1.33496 -0.539899 0
M  V30 6105 H 543.462 4.11273 0.918298 0
M  V30 6106 H 542.186 2.95952 1.3813 0
M  V30 6107 H 540.845 3.60787 -0.650267 0
M  V30 6108 H 540.493 4.79379 1.52332 0
M  V30 6109 H 540.193 5.87435 0.139123 0
M  V30 6110 H 541.717 6.01308 1.06117 0
M  V30 6111 H 543.131 5.61141 -1.17447 0
M  V30 6112 H 541.528 5.67071 -1.96343 0
M  V30 6113 H 542.598 4.28906 -2.26202 0
M  V30 6114 N 543.941 0.601185 1.45683 0
M  V30 6115 C 544.871 -0.108824 2.33246 0
M  V30 6116 C 545.852 -0.865223 1.46451 0
M  V30 6117 O 547.037 -0.83704 1.75235 0
M  V30 6118 C 544.167 -1.11101 3.2905 0
M  V30 6119 C 543.121 -0.468244 4.25431 0
M  V30 6120 C 542.447 -1.57822 5.10878 0
M  V30 6121 C 543.747 0.606469 5.18767 0
M  V30 6122 H 545.441 0.622306 2.92861 0
M  V30 6123 H 542.987 0.300714 1.40825 0
M  V30 6124 H 544.94 -1.61622 3.89174 0
M  V30 6125 H 543.664 -1.87265 2.67581 0
M  V30 6126 H 542.323 0.0160484 3.66596 0
M  V30 6127 H 541.971 -2.32998 4.45781 0
M  V30 6128 H 541.671 -1.15369 5.76163 0
M  V30 6129 H 543.195 -2.08583 5.73869 0
M  V30 6130 H 544.609 0.185589 5.73 0
M  V30 6131 H 543.006 0.952381 5.92494 0
M  V30 6132 H 544.076 1.48559 4.61582 0
M  V30 6133 N 545.419 -1.53889 0.339982 0
M  V30 6134 C 546.647 -2.05271 -0.259114 0
M  V30 6135 C 547.062 -1.21517 -1.44496 0
M  V30 6136 O 546.419 -0.24966 -1.80784 0
M  V30 6137 C 546.47 -3.55092 -0.677634 0
M  V30 6138 O 546.191 -4.35667 0.461051 0
M  V30 6139 C 547.692 -4.22631 -1.33782 0
M  V30 6140 H 544.912 -0.669085 -0.0506566 0
M  V30 6141 H 547.456 -1.9852 0.490935 0
M  V30 6142 H 545.611 -3.62077 -1.37763 0
M  V30 6143 H 546.025 -5.24343 0.128144 0
M  V30 6144 H 547.499 -5.28861 -1.58145 0
M  V30 6145 H 547.976 -3.74758 -2.29027 0
M  V30 6146 H 548.582 -4.19829 -0.679957 0
M  V30 6147 N 546.897 -0.0685191 -1.57451 0
M  V30 6148 C 548.125 0.610462 -1.97689 0
M  V30 6149 C 548.54 1.63346 -0.946758 0
M  V30 6150 O 547.897 1.82377 0.0669868 0
M  V30 6151 C 547.948 1.28196 -3.38006 0
M  V30 6152 O 547.669 0.299906 -4.37072 0
M  V30 6153 C 549.17 2.04907 -3.931 0
M  V30 6154 H 546.39 0.165689 -0.650222 0
M  V30 6155 H 548.934 -0.139953 -2.04021 0
M  V30 6156 H 547.089 1.98348 -3.32771 0
M  V30 6157 H 547.503 0.78126 -5.18649 0
M  V30 6158 H 548.977 2.47287 -4.93511 0
M  V30 6159 H 549.454 2.9043 -3.29465 0
M  V30 6160 H 550.06 1.39629 -4.01726 0
M  V30 6161 N 548.375 1.56261 0.205012 0
M  V30 6162 C 549.322 1.93754 1.25411 0
M  V30 6163 C 550.292 0.796826 1.45739 0
M  V30 6164 O 551.477 1.05414 1.59036 0
M  V30 6165 C 548.617 2.27383 2.59598 0
M  V30 6166 C 547.73 3.5447 2.46931 0
M  V30 6167 C 546.865 3.77468 3.73753 0
M  V30 6168 C 545.904 4.98014 3.55877 0
M  V30 6169 N 545.041 5.17316 4.74688 0
M  V30 6170 H 549.881 2.83203 0.92737 0
M  V30 6171 H 547.418 1.40158 0.446574 0
M  V30 6172 H 549.376 2.44895 3.37761 0
M  V30 6173 H 548.006 1.41088 2.90335 0
M  V30 6174 H 547.058 3.45061 1.60116 0
M  V30 6175 H 548.37 4.42789 2.29651 0
M  V30 6176 H 547.524 3.95165 4.60358 0
M  V30 6177 H 546.263 2.87461 3.93976 0
M  V30 6178 H 545.268 4.80249 2.67657 0
M  V30 6179 H 546.493 5.8952 3.37109 0
M  V30 6180 H 544.439 4.30255 4.95194 0
M  V30 6181 H 544.356 5.99796 4.60197 0
M  V30 6182 H 545.624 5.39463 5.62672 0
M  V30 6183 N 549.853 -0.472356 1.50355 0
M  V30 6184 C 550.8 -1.57051 1.69126 0
M  V30 6185 C 551.77 -1.5733 0.532574 0
M  V30 6186 O 552.955 -1.7488 0.762994 0
M  V30 6187 C 550.095 -2.95033 1.79024 0
M  V30 6188 C 549.208 -3.04552 3.06386 0
M  V30 6189 C 548.343 -4.33441 3.07087 0
M  V30 6190 C 547.382 -4.36697 4.28908 0
M  V30 6191 N 546.519 -5.57056 4.27356 0
M  V30 6192 H 551.359 -1.40351 2.62879 0
M  V30 6193 H 548.896 -0.682403 1.30314 0
M  V30 6194 H 550.854 -3.75048 1.82744 0
M  V30 6195 H 549.484 -3.10371 0.887109 0
M  V30 6196 H 548.536 -2.17419 3.12143 0
M  V30 6197 H 549.848 -3.02818 3.96362 0
M  V30 6198 H 549.002 -5.21801 3.09529 0
M  V30 6199 H 547.741 -4.37782 2.14939 0
M  V30 6200 H 546.746 -3.46734 4.2668 0
M  V30 6201 H 547.971 -4.34049 5.22282 0
M  V30 6202 H 545.917 -5.62184 3.3806 0
M  V30 6203 H 545.834 -5.57058 5.111 0
M  V30 6204 H 547.102 -6.47545 4.33942 0
M  V30 6205 N 551.331 -1.39911 -0.725443 0
M  V30 6206 C 552.261 -1.42138 -1.85254 0
M  V30 6207 C 553.242 -0.283513 -1.67721 0
M  V30 6208 O 554.427 -0.490717 -1.87898 0
M  V30 6209 C 551.557 -1.27354 -3.23107 0
M  V30 6210 C 550.511 -2.3864 -3.55296 0
M  V30 6211 C 549.837 -2.08939 -4.92188 0
M  V30 6212 C 551.137 -3.8097 -3.57295 0
M  V30 6213 H 552.831 -2.36461 -1.83648 0
M  V30 6214 H 550.377 -1.13817 -0.882138 0
M  V30 6215 H 552.33 -1.2753 -4.01639 0
M  V30 6216 H 551.054 -0.295025 -3.25265 0
M  V30 6217 H 549.713 -2.37696 -2.79099 0
M  V30 6218 H 549.361 -1.09502 -4.90936 0
M  V30 6219 H 549.061 -2.83491 -5.14691 0
M  V30 6220 H 550.585 -2.10781 -5.73065 0
M  V30 6221 H 551.999 -3.8379 -4.25885 0
M  V30 6222 H 550.396 -4.5496 -3.9132 0
M  V30 6223 H 551.466 -4.11261 -2.5689 0
M  V30 6224 N 552.809 0.956637 -1.25245 0
M  V30 6225 C 554.056 1.701 -1.09874 0
M  V30 6226 C 554.384 1.91128 0.36062 0
M  V30 6227 O 553.639 1.47837 1.28229 0
M  V30 6228 C 553.938 3.08996 -1.79601 0
M  V30 6229 C 553.604 3.07774 -3.29523 0
M  V30 6230 C 552.266 3.07149 -3.70423 0
M  V30 6231 C 554.618 3.01257 -4.25316 0
M  V30 6232 C 551.946 2.97752 -5.0553 0
M  V30 6233 C 554.298 2.93403 -5.60444 0
M  V30 6234 C 552.962 2.91111 -6.00675 0
M  V30 6235 H 552.232 0.62244 -0.402056 0
M  V30 6236 H 554.879 1.1178 -1.55491 0
M  V30 6237 H 553.184 3.70848 -1.26408 0
M  V30 6238 H 554.881 3.65407 -1.65162 0
M  V30 6239 H 551.471 3.09032 -2.9698 0
M  V30 6240 H 555.655 3.00861 -3.9471 0
M  V30 6241 H 550.911 2.94346 -5.35883 0
M  V30 6242 H 555.085 2.87321 -6.34366 0
M  V30 6243 H 552.712 2.83586 -7.05325 0
M  V30 6244 N 554.287 1.06798 1.15896 0
M  V30 6245 C 555.217 0.704677 2.22613 0
M  V30 6246 C 556.198 -0.305252 1.67339 0
M  V30 6247 O 557.383 -0.179247 1.93371 0
M  V30 6248 C 554.513 0.0957325 3.47168 0
M  V30 6249 C 553.467 1.0322 4.15367 0
M  V30 6250 C 552.793 0.286293 5.33933 0
M  V30 6251 C 554.093 2.36341 4.65768 0
M  V30 6252 H 555.787 1.59688 2.53259 0
M  V30 6253 H 553.333 0.769257 1.21731 0
M  V30 6254 H 555.286 -0.170333 4.21056 0
M  V30 6255 H 554.01 -0.831516 3.15838 0
M  V30 6256 H 552.669 1.28309 3.43413 0
M  V30 6257 H 552.317 -0.644237 4.98857 0
M  V30 6258 H 552.017 0.910436 5.80504 0
M  V30 6259 H 553.541 0.0278938 6.10594 0
M  V30 6260 H 554.955 2.1561 5.31211 0
M  V30 6261 H 553.352 2.94299 5.2298 0
M  V30 6262 H 554.422 2.99047 3.81705 0
M  V30 6263 N 555.766 -1.3263 0.851289 0
M  V30 6264 C 557.182 -1.50162 0.5407 0
M  V30 6265 C 557.382 -1.78788 -0.929369 0
M  V30 6266 O 556.438 -1.85545 -1.71258 0
M  V30 6267 C 557.751 -2.64803 1.42478 0
M  V30 6268 C 559.299 -2.78688 1.42485 0
M  V30 6269 C 559.774 -3.96405 2.29407 0
M  V30 6270 N 561.265 -4.0366 2.27184 0
M  V30 6271 C 562 -4.93971 2.9117 0
M  V30 6272 N 561.496 -5.89313 3.64256 0
M  V30 6273 N 563.289 -4.87066 2.80576 0
M  V30 6274 H 555.44 -1.12315 1.80275 0
M  V30 6275 H 557.703 -0.553266 0.769806 0
M  V30 6276 H 557.409 -2.50368 2.46999 0
M  V30 6277 H 557.283 -3.60506 1.10974 0
M  V30 6278 H 559.67 -2.92547 0.387304 0
M  V30 6279 H 559.751 -1.83708 1.78002 0
M  V30 6280 H 559.395 -3.83304 3.33228 0
M  V30 6281 H 559.325 -4.90654 1.91224 0
M  V30 6282 H 561.816 -3.35435 1.74045 0
M  V30 6283 H 562.129 -6.54913 4.10255 0
M  V30 6284 H 560.474 -5.8935 3.68364 0
M  V30 6285 H 563.665 -4.11552 2.23031 0
M  V30 6286 H 563.838 -5.57248 3.30725 0
M  V30 6287 N 557.244 -0.608902 -1.45362 0
M  V30 6288 C 558.492 -0.104401 -2.0183 0
M  V30 6289 C 558.813 1.27007 -1.47967 0
M  V30 6290 O 558.083 1.83924 -0.674455 0
M  V30 6291 H 556.663 -0.0356042 -0.746151 0
M  V30 6292 H 559.325 -0.790596 -1.78145 0
M  V30 6293 H 558.421 -0.0551793 -3.12051 0
M  V30 6294 N 558.722 1.53707 -0.348139 0
M  V30 6295 C 559.971 2.0017 0.247992 0
M  V30 6296 C 560.284 1.23983 1.51286 0
M  V30 6297 O 561.49 1.60946 2.18652 0
M  V30 6298 C 559.946 3.56515 0.492459 0
M  V30 6299 C 559.554 4.41562 -0.756777 0
M  V30 6300 C 561.298 4.11381 1.0472 0
M  V30 6301 C 559.205 5.89426 -0.482856 0
M  V30 6302 H 558.135 0.747806 0.0964452 0
M  V30 6303 H 560.786 1.77532 -0.464179 0
M  V30 6304 H 559.168 3.75236 1.26545 0
M  V30 6305 H 560.342 4.34615 -1.53122 0
M  V30 6306 H 558.657 3.97711 -1.23348 0
M  V30 6307 H 561.254 5.19468 1.26717 0
M  V30 6308 H 561.597 3.64885 2.00411 0
M  V30 6309 H 562.13 3.96389 0.334801 0
M  V30 6310 H 558.869 6.40164 -1.40962 0
M  V30 6311 H 558.389 5.99264 0.253416 0
M  V30 6312 H 560.068 6.4692 -0.101816 0
M  V30 6313 N 560.2 0.0768682 1.57412 0
M  V30 6314 C 561.449 -0.590679 1.92857 0
M  V30 6315 C 561.762 -1.70461 0.959293 0
M  V30 6316 O 562.968 -2.43207 1.20675 0
M  V30 6317 C 561.424 -1.10204 3.42612 0
M  V30 6318 C 561.032 -0.0188447 4.47996 0
M  V30 6319 C 562.776 -1.74336 3.87049 0
M  V30 6320 C 560.683 -0.544536 5.88888 0
M  V30 6321 H 559.613 -0.224411 0.71983 0
M  V30 6322 H 562.264 0.149924 1.82887 0
M  V30 6323 H 560.646 -1.89577 3.47673 0
M  V30 6324 H 561.82 0.755936 4.54557 0
M  V30 6325 H 560.135 0.526555 4.13057 0
M  V30 6326 H 562.732 -2.14708 4.89699 0
M  V30 6327 H 563.075 -2.60537 3.24694 0
M  V30 6328 H 563.608 -1.01577 3.84613 0
M  V30 6329 H 560.347 0.280426 6.549 0
M  V30 6330 H 559.867 -1.28673 5.85836 0
M  V30 6331 H 561.546 -1.01933 6.3892 0
M  V30 6332 N 561.678 -1.56367 -0.196722 0
M  V30 6333 C 562.588 -1.97617 -1.2643 0
M  V30 6334 C 563.604 -0.883598 -1.49895 0
M  V30 6335 O 564.78 -1.18921 -1.62541 0
M  V30 6336 C 561.845 -2.30595 -2.58895 0
M  V30 6337 C 560.906 -3.53551 -2.43516 0
M  V30 6338 C 560.139 -3.84946 -3.69665 0
M  V30 6339 O 560.362 -3.17655 -4.73763 0
M  V30 6340 O 559.296 -4.78379 -3.65291 0
M  V30 6341 H 563.122 -2.88648 -0.944233 0
M  V30 6342 H 560.707 -1.43901 -0.401592 0
M  V30 6343 H 562.589 -2.52889 -3.37083 0
M  V30 6344 H 561.264 -1.42732 -2.90533 0
M  V30 6345 H 560.171 -3.36507 -1.63445 0
M  V30 6346 H 561.504 -4.41875 -2.16812 0
M  V30 6347 N 563.156 0.464375 -1.50603 0
M  V30 6348 C 564.066 1.58723 -1.72754 0
M  V30 6349 C 565.082 1.62925 -0.610844 0
M  V30 6350 O 566.258 1.8067 -0.889963 0
M  V30 6351 C 563.323 2.94897 -1.82309 0
M  V30 6352 C 562.384 3.0103 -3.06071 0
M  V30 6353 C 561.617 4.30708 -3.1516 0
M  V30 6354 O 561.84 5.2159 -2.30868 0
M  V30 6355 O 560.774 4.42571 -4.0794 0
M  V30 6356 H 564.6 1.42954 -2.67951 0
M  V30 6357 H 562.185 0.644579 -1.3478 0
M  V30 6358 H 564.067 3.75764 -1.90735 0
M  V30 6359 H 562.742 3.10851 -0.902967 0
M  V30 6360 H 561.649 2.19217 -3.03142 0
M  V30 6361 H 562.982 2.90014 -3.97684 0
M  V30 6362 N 564.634 1.40294 0.718013 0
M  V30 6363 C 565.564 1.43118 1.84498 0
M  V30 6364 C 566.545 0.292403 1.67568 0
M  V30 6365 O 567.73 0.500675 1.87635 0
M  V30 6366 C 564.86 1.29065 3.22427 0
M  V30 6367 C 563.814 2.40521 3.54025 0
M  V30 6368 C 563.14 2.11546 4.91073 0
M  V30 6369 C 564.44 3.82859 3.55269 0
M  V30 6370 H 566.134 2.37432 1.82391 0
M  V30 6371 H 563.68 1.14283 0.87609 0
M  V30 6372 H 565.633 1.29658 4.00957 0
M  V30 6373 H 564.357 0.312271 3.25104 0
M  V30 6374 H 563.016 2.39173 2.77834 0
M  V30 6375 H 562.664 1.12104 4.90348 0
M  V30 6376 H 562.364 2.86216 5.1318 0
M  V30 6377 H 563.888 2.13817 5.71939 0
M  V30 6378 H 565.302 3.86044 4.23843 0
M  V30 6379 H 563.699 4.57029 3.88902 0
M  V30 6380 H 564.769 4.12617 2.54706 0
M  V30 6381 N 566.112 -0.949982 1.2575 0
M  V30 6382 C 567.042 -2.06483 1.09028 0
M  V30 6383 C 568.023 -1.701 -0.00201532 0
M  V30 6384 O 569.208 -1.93469 0.168383 0
M  V30 6385 C 566.338 -3.39899 0.71316 0
M  V30 6386 C 565.292 -3.90309 1.75621 0
M  V30 6387 C 564.618 -5.20274 1.23365 0
M  V30 6388 C 565.918 -4.16169 3.15596 0
M  V30 6389 H 567.612 -2.20731 2.02283 0
M  V30 6390 H 565.158 -1.06066 0.973964 0
M  V30 6391 H 567.111 -4.17346 0.58309 0
M  V30 6392 H 565.835 -3.25602 -0.255091 0
M  V30 6393 H 564.494 -3.15035 1.8748 0
M  V30 6394 H 564.142 -5.02351 0.255491 0
M  V30 6395 H 563.842 -5.54971 1.93082 0
M  V30 6396 H 565.366 -6.00314 1.11607 0
M  V30 6397 H 566.78 -4.84259 3.06864 0
M  V30 6398 H 565.177 -4.62131 3.82825 0
M  V30 6399 H 566.247 -3.22273 3.6231 0
M  V30 6400 N 567.59 -1.07411 -1.15328 0
M  V30 6401 C 568.836 -0.808666 -1.86634 0
M  V30 6402 C 569.191 0.65816 -1.80793 0
M  V30 6403 O 568.484 1.47689 -1.22059 0
M  V30 6404 C 568.678 -1.25191 -3.34757 0
M  V30 6405 C 568.507 -2.76028 -3.55019 0
M  V30 6406 C 567.277 -3.43644 -3.70455 0
M  V30 6407 C 569.475 -3.74224 -3.5279 0
M  V30 6408 N 567.457 -4.83117 -3.78776 0
M  V30 6409 C 568.828 -4.9954 -3.67233 0
M  V30 6410 C 570.883 -3.67373 -3.36068 0
M  V30 6411 C 569.586 -6.18819 -3.66682 0
M  V30 6412 C 571.612 -4.86116 -3.36816 0
M  V30 6413 C 570.974 -6.10266 -3.51789 0
M  V30 6414 H 567.073 -0.348478 -0.700062 0
M  V30 6415 H 569.657 -1.37049 -1.38295 0
M  V30 6416 H 567.828 -0.717775 -3.8171 0
M  V30 6417 H 569.56 -0.933936 -3.93776 0
M  V30 6418 H 566.315 -2.94051 -3.71256 0
M  V30 6419 H 566.739 -5.55705 -3.86679 0
M  V30 6420 H 571.381 -2.72334 -3.2341 0
M  V30 6421 H 569.099 -7.14179 -3.78118 0
M  V30 6422 H 572.685 -4.82492 -3.25103 0
M  V30 6423 H 571.565 -7.00609 -3.52301 0
M  V30 6424 N 569.068 1.32177 -0.85831 0
M  V30 6425 C 570.315 1.97125 -0.463484 0
M  V30 6426 C 570.643 1.67907 0.981705 0
M  V30 6427 O 569.898 0.961717 1.70439 0
M  V30 6428 C 570.197 3.51372 -0.653658 0
M  V30 6429 C 569.863 4.00584 -2.06987 0
M  V30 6430 C 568.525 4.13733 -2.4572 0
M  V30 6431 C 570.877 4.26624 -2.99402 0
M  V30 6432 C 568.205 4.50268 -3.76132 0
M  V30 6433 C 570.557 4.64618 -4.29316 0
M  V30 6434 C 569.221 4.75975 -4.67979 0
M  V30 6435 H 568.491 0.72133 -0.169601 0
M  V30 6436 H 571.138 1.57517 -1.08907 0
M  V30 6437 H 569.443 3.91761 0.0551328 0
M  V30 6438 H 571.14 3.99655 -0.328163 0
M  V30 6439 H 567.73 3.90837 -1.75911 0
M  V30 6440 H 571.914 4.1597 -2.70708 0
M  V30 6441 H 567.17 4.57256 -4.05865 0
M  V30 6442 H 571.344 4.83722 -5.00985 0
M  V30 6443 H 568.971 5.04041 -5.69076 0
M  V30 6444 N 570.547 0.616602 1.45037 0
M  V30 6445 C 571.796 0.112861 2.01384 0
M  V30 6446 C 572.109 -1.26758 1.48969 0
M  V30 6447 O 573.315 -1.86454 1.9735 0
M  V30 6448 C 571.771 0.151057 3.59583 0
M  V30 6449 C 571.379 1.53191 4.20995 0
M  V30 6450 C 573.123 -0.296974 4.2346 0
M  V30 6451 C 571.03 1.526 5.71373 0
M  V30 6452 H 569.96 0.0384254 0.75302 0
M  V30 6453 H 572.611 0.773262 1.66412 0
M  V30 6454 H 570.993 -0.57617 3.91786 0
M  V30 6455 H 572.167 2.28156 4.00352 0
M  V30 6456 H 570.482 1.92279 3.69348 0
M  V30 6457 H 573.079 -0.320712 5.33737 0
M  V30 6458 H 573.422 -1.32145 3.9477 0
M  V30 6459 H 573.955 0.377279 3.96007 0
M  V30 6460 H 570.694 2.52837 6.04776 0
M  V30 6461 H 570.214 0.819064 5.94181 0
M  V30 6462 H 571.893 1.25357 6.3474 0
M  V30 6463 N 572.025 -1.5352 0.356285 0
M  V30 6464 C 573.441 -1.59599 0.00485267 0
M  V30 6465 C 573.641 -1.37179 -1.47595 0
M  V30 6466 O 572.697 -1.17234 -2.23635 0
M  V30 6467 C 574.01 -2.97277 0.452454 0
M  V30 6468 C 575.558 -3.10357 0.405881 0
M  V30 6469 C 576.033 -4.50432 0.829148 0
M  V30 6470 N 577.524 -4.5652 0.783838 0
M  V30 6471 C 578.259 -5.63077 1.08315 0
M  V30 6472 N 577.755 -6.77429 1.45126 0
M  V30 6473 N 579.548 -5.53014 1.00655 0
M  V30 6474 H 571.699 -1.66346 1.32071 0
M  V30 6475 H 573.962 -0.77971 0.539218 0
M  V30 6476 H 573.668 -3.18792 1.48542 0
M  V30 6477 H 573.542 -3.76836 -0.165762 0
M  V30 6478 H 575.929 -2.88558 -0.617934 0
M  V30 6479 H 576.01 -2.32828 1.05947 0
M  V30 6480 H 575.654 -4.72968 1.85103 0
M  V30 6481 H 575.584 -5.26378 0.152906 0
M  V30 6482 H 578.075 -3.74408 0.512513 0
M  V30 6483 H 578.388 -7.54669 1.66415 0
M  V30 6484 H 576.733 -6.78844 1.48983 0
M  V30 6485 H 579.924 -4.62557 0.718215 0
M  V30 6486 H 580.097 -6.35964 1.24315 0
M  V30 6487 N 573.503 -0.0852151 -1.57369 0
M  V30 6488 C 574.751 0.579658 -1.93609 0
M  V30 6489 C 575.072 1.69332 -0.967043 0
M  V30 6490 O 574.342 1.95892 -0.0174215 0
M  V30 6491 H 572.922 0.217113 -0.714752 0
M  V30 6492 H 575.584 -0.146226 -1.94351 0
M  V30 6493 H 574.68 0.996276 -2.95771 0
M  V30 6494 N 574.981 1.5647 0.188427 0
M  V30 6495 C 575.891 1.98285 1.2538 0
M  V30 6496 C 576.907 0.891535 1.49424 0
M  V30 6497 O 578.083 1.19782 1.61908 0
M  V30 6498 C 575.148 2.31965 2.57669 0
M  V30 6499 C 574.209 3.54838 2.41638 0
M  V30 6500 C 573.442 3.86901 3.67618 0
M  V30 6501 O 573.665 3.20163 4.72072 0
M  V30 6502 O 572.599 4.80309 3.62749 0
M  V30 6503 H 576.425 2.89145 0.928912 0
M  V30 6504 H 574.01 1.44112 0.393955 0
M  V30 6505 H 575.892 2.54673 3.35737 0
M  V30 6506 H 574.567 1.44271 2.89771 0
M  V30 6507 H 573.474 3.37369 1.61658 0
M  V30 6508 H 574.807 4.43019 2.14465 0
M  V30 6509 N 576.459 -0.456382 1.50847 0
M  V30 6510 C 577.687 -1.23026 1.66349 0
M  V30 6511 C 578.102 -1.85473 0.352868 0
M  V30 6512 O 577.459 -1.69885 -0.666739 0
M  V30 6513 C 577.51 -2.32827 2.76539 0
M  V30 6514 O 577.231 -1.72938 4.02522 0
M  V30 6515 C 578.732 -3.23448 3.03144 0
M  V30 6516 H 575.952 -0.371527 0.558756 0
M  V30 6517 H 578.496 -0.543082 1.97157 0
M  V30 6518 H 576.651 -2.97294 2.48384 0
M  V30 6519 H 577.065 -2.45357 4.63573 0
M  V30 6520 H 578.539 -3.96669 3.83872 0
M  V30 6521 H 579.016 -3.83094 2.14793 0
M  V30 6522 H 579.622 -2.64702 3.32886 0
M  V30 6523 N 577.937 -1.40673 -0.710563 0
M  V30 6524 C 578.885 -1.41517 -1.84596 0
M  V30 6525 C 579.879 -0.295043 -1.66811 0
M  V30 6526 O 581.085 -0.466331 -1.73854 0
M  V30 6527 H 577.46 -0.442467 -0.608052 0
M  V30 6528 H 579.431 -2.37238 -1.80999 0
M  V30 6529 C 578.18 -1.29957 -3.225 0
M  V30 6530 H 577.503 -2.15429 -3.36794 0
M  V30 6531 H 578.943 -1.34608 -4.02066 0
M  V30 6532 C 577.402 -0.0103164 -3.36898 0
M  V30 6533 O 577.932 0.950707 -3.90288 0
M  V30 6534 N 576.138 0.0608409 -2.90536 0
M  V30 6535 H 575.685 -0.721943 -2.47277 0
M  V30 6536 H 575.643 0.92292 -3.00549 0
M  V30 6537 N 579.415 0.9433 -1.26252 0
M  V30 6538 C 580.663 1.68592 -1.11451 0
M  V30 6539 C 580.984 1.91957 0.343123 0
M  V30 6540 O 580.254 1.51475 1.24226 0
M  V30 6541 H 578.834 0.624789 -0.409448 0
M  V30 6542 H 581.496 1.13351 -1.58548 0
M  V30 6543 H 580.592 2.66054 -1.63162 0
M  V30 6544 N 580.893 1.08022 1.14757 0
M  V30 6545 C 581.841 0.701088 2.21783 0
M  V30 6546 C 582.835 -0.291311 1.66876 0
M  V30 6547 O 584.041 -0.154296 1.79337 0
M  V30 6548 H 580.416 0.208668 0.722469 0
M  V30 6549 H 582.387 1.61321 2.51034 0
M  V30 6550 C 581.136 0.122278 3.47485 0
M  V30 6551 H 580.459 0.877065 3.90061 0
M  V30 6552 H 581.899 -0.105248 4.23869 0
M  V30 6553 C 580.358 -1.13883 3.17068 0
M  V30 6554 O 580.888 -2.22429 3.34497 0
M  V30 6555 N 579.094 -1.04767 2.71058 0
M  V30 6556 H 578.641 -0.164302 2.57075 0
M  V30 6557 H 578.599 -1.89224 2.51081 0
M  V30 6558 N 582.371 -1.3172 0.865308 0
M  V30 6559 C 583.599 -2.01057 0.488251 0
M  V30 6560 C 584.014 -1.64979 -0.918 0
M  V30 6561 O 583.371 -0.876597 -1.60069 0
M  V30 6562 C 583.422 -3.55964 0.630224 0
M  V30 6563 O 583.143 -3.90749 1.98109 0
M  V30 6564 C 584.644 -4.42574 0.253567 0
M  V30 6565 H 581.864 -0.64332 0.190736 0
M  V30 6566 H 584.408 -1.68058 1.16519 0
M  V30 6567 H 582.563 -3.874 0.000895422 0
M  V30 6568 H 582.977 -4.85467 1.9855 0
M  V30 6569 H 584.451 -5.50521 0.403875 0
M  V30 6570 H 584.928 -4.31724 -0.806895 0
M  V30 6571 H 585.534 -4.16547 0.858404 0
M  V30 6572 N 583.85 -0.624285 -1.44708 0
M  V30 6573 C 584.779 0.0717025 -2.3339 0
M  V30 6574 C 585.76 0.841814 -1.47809 0
M  V30 6575 O 586.946 0.809056 -1.76544 0
M  V30 6576 C 584.076 1.05852 -3.30776 0
M  V30 6577 C 583.029 0.400503 -4.26122 0
M  V30 6578 C 582.356 1.49674 -5.13324 0
M  V30 6579 C 583.656 -0.688924 -5.17737 0
M  V30 6580 H 585.35 -0.668819 -2.91834 0
M  V30 6581 H 582.896 -0.32308 -1.40329 0
M  V30 6582 H 584.849 1.5541 -3.91696 0
M  V30 6583 H 583.572 1.82984 -2.70526 0
M  V30 6584 H 582.231 -0.0743687 -3.66525 0
M  V30 6585 H 581.88 2.25877 -4.49431 0
M  V30 6586 H 581.58 1.06188 -5.77926 0
M  V30 6587 H 583.104 1.99427 -5.77115 0
M  V30 6588 H 584.518 -0.276724 -5.72632 0
M  V30 6589 H 582.915 -1.04652 -5.90904 0
M  V30 6590 H 583.985 -1.55884 -4.5916 0
M  V30 6591 N 585.328 1.53329 -0.364422 0
M  V30 6592 C 586.258 2.28627 0.474543 0
M  V30 6593 C 587.239 1.31009 1.08492 0
M  V30 6594 O 588.424 1.59878 1.10239 0
M  V30 6595 C 585.554 3.07465 1.61501 0
M  V30 6596 C 584.508 4.1276 1.13194 0
M  V30 6597 C 583.834 4.79674 2.36255 0
M  V30 6598 C 585.134 5.21847 0.217507 0
M  V30 6599 H 586.828 2.99005 -0.153656 0
M  V30 6600 H 584.374 1.43803 -0.0753406 0
M  V30 6601 H 586.327 3.58889 2.20855 0
M  V30 6602 H 585.051 2.34775 2.27042 0
M  V30 6603 H 583.71 3.62281 0.56109 0
M  V30 6604 H 583.358 4.03557 3.00251 0
M  V30 6605 H 583.058 5.50827 2.04606 0
M  V30 6606 H 584.582 5.33892 2.96297 0
M  V30 6607 H 585.996 5.6878 0.718493 0
M  V30 6608 H 584.393 6.00099 -0.00806408 0
M  V30 6609 H 585.463 4.7921 -0.740653 0
M  V30 6610 N 586.806 0.0935595 1.57322 0
M  V30 6611 C 587.754 -0.883457 2.15169 0
M  V30 6612 C 588.748 -1.29324 1.09415 0
M  V30 6613 O 589.954 -1.26795 1.27762 0
M  V30 6614 H 586.329 -0.302923 0.688289 0
M  V30 6615 H 588.3 -0.370845 2.96087 0
M  V30 6616 C 587.049 -2.13345 2.74552 0
M  V30 6617 H 586.372 -1.82702 3.55612 0
M  V30 6618 H 587.812 -2.7977 3.18598 0
M  V30 6619 C 586.271 -2.90646 1.70371 0
M  V30 6620 O 586.801 -3.85133 1.14173 0
M  V30 6621 N 585.007 -2.54157 1.40899 0
M  V30 6622 H 584.554 -1.77391 1.86789 0
M  V30 6623 H 584.512 -3.06178 0.714301 0
M  V30 6624 N 588.284 -1.56567 -0.180126 0
M  V30 6625 C 589.231 -1.95725 -1.22313 0
M  V30 6626 C 590.201 -0.819911 -1.44453 0
M  V30 6627 O 591.386 -1.07931 -1.57339 0
M  V30 6628 C 588.526 -2.31484 -2.55947 0
M  V30 6629 C 587.639 -3.58354 -2.4126 0
M  V30 6630 C 586.774 -3.83366 -3.67701 0
M  V30 6631 C 585.813 -5.03612 -3.47909 0
M  V30 6632 N 584.95 -5.24802 -4.66398 0
M  V30 6633 H 589.79 -2.84642 -0.882198 0
M  V30 6634 H 587.327 -1.4085 -0.42422 0
M  V30 6635 H 589.285 -2.50237 -3.33822 0
M  V30 6636 H 587.915 -1.45689 -2.88053 0
M  V30 6637 H 586.967 -3.47565 -1.54606 0
M  V30 6638 H 588.279 -4.46386 -2.22577 0
M  V30 6639 H 587.433 -4.02439 -4.54013 0
M  V30 6640 H 586.172 -2.93692 -3.89353 0
M  V30 6641 H 585.177 -4.84447 -2.59983 0
M  V30 6642 H 586.402 -5.94809 -3.27688 0
M  V30 6643 H 584.348 -4.38079 -4.88286 0
M  V30 6644 H 584.265 -6.07041 -4.50596 0
M  V30 6645 H 585.533 -5.48346 -5.54019 0
M  V30 6646 N 589.762 0.448376 -1.51087 0
M  V30 6647 C 590.71 1.56407 -1.72161 0
M  V30 6648 C 591.704 1.58878 -0.587721 0
M  V30 6649 O 592.91 1.62755 -0.768822 0
M  V30 6650 H 589.285 0.519423 -0.543786 0
M  V30 6651 H 591.256 1.35803 -2.65707 0
M  V30 6652 C 590.005 2.94163 -1.85373 0
M  V30 6653 H 589.328 2.9299 -2.72024 0
M  V30 6654 H 590.768 3.71625 -2.04135 0
M  V30 6655 C 589.227 3.31317 -0.610803 0
M  V30 6656 O 589.757 4.00985 0.239636 0
M  V30 6657 N 587.963 2.86966 -0.458127 0
M  V30 6658 H 587.51 2.30443 -1.15124 0
M  V30 6659 H 587.468 3.12188 0.372289 0
M  V30 6660 N 591.24 1.41047 0.703093 0
M  V30 6661 C 592.486 1.40207 1.46526 0
M  V30 6662 C 592.819 0.00847763 1.94198 0
M  V30 6663 O 592.094 -0.962437 1.69019 0
M  V30 6664 C 592.377 2.40238 2.6825 0
M  V30 6665 C 592.23 3.88674 2.26391 0
M  V30 6666 C 593.549 2.37627 3.70434 0
M  V30 6667 H 590.668 0.510594 0.531472 0
M  V30 6668 H 593.31 1.72271 0.801422 0
M  V30 6669 H 591.46 2.13026 3.24888 0
M  V30 6670 H 593.132 4.2676 1.75138 0
M  V30 6671 H 591.375 4.03903 1.58255 0
M  V30 6672 H 592.046 4.542 3.13698 0
M  V30 6673 H 594.522 2.61759 3.23452 0
M  V30 6674 H 593.398 3.09645 4.53223 0
M  V30 6675 H 593.659 1.39223 4.19606 0
M  V30 6676 N 592.718 -0.936591 1.26751 0
M  V30 6677 C 594.134 -1.21095 1.03963 0
M  V30 6678 C 594.334 -2.00156 -0.232372 0
M  V30 6679 O 593.39 -2.3434 -0.940274 0
M  V30 6680 C 594.703 -1.96775 2.27377 0
M  V30 6681 C 596.251 -2.09749 2.32324 0
M  V30 6682 C 596.726 -2.88832 3.55443 0
M  V30 6683 N 598.217 -2.96404 3.55948 0
M  V30 6684 C 598.952 -3.58036 4.47881 0
M  V30 6685 N 598.448 -4.21132 5.50109 0
M  V30 6686 N 600.241 -3.55353 4.35523 0
M  V30 6687 H 592.392 -0.408173 2.08441 0
M  V30 6688 H 594.655 -0.243139 0.91629 0
M  V30 6689 H 594.361 -1.46094 3.19921 0
M  V30 6690 H 594.235 -2.97424 2.31989 0
M  V30 6691 H 596.622 -2.5962 1.40291 0
M  V30 6692 H 596.703 -1.08347 2.31721 0
M  V30 6693 H 596.347 -2.39647 4.47808 0
M  V30 6694 H 596.277 -3.90499 3.53296 0
M  V30 6695 H 598.768 -2.51552 2.82011 0
M  V30 6696 H 599.081 -4.66071 6.16439 0
M  V30 6697 H 597.426 -4.19705 5.53961 0
M  V30 6698 H 600.617 -3.05256 3.54875 0
M  V30 6699 H 600.79 -4.03097 5.07363 0
M  V30 6700 N 594.196 -1.08629 -1.14182 0
M  V30 6701 C 595.445 -0.812271 -1.84621 0
M  V30 6702 C 595.758 0.664313 -1.83973 0
M  V30 6703 O 596.964 1.05357 -2.50224 0
M  V30 6704 C 595.42 -1.4031 -3.31423 0
M  V30 6705 C 595.028 -2.91164 -3.40481 0
M  V30 6706 C 596.772 -1.20767 -4.06959 0
M  V30 6707 C 594.679 -3.43373 -4.81507 0
M  V30 6708 H 593.609 -0.30019 -0.691666 0
M  V30 6709 H 596.26 -1.30798 -1.28701 0
M  V30 6710 H 594.642 -0.835096 -3.87094 0
M  V30 6711 H 595.816 -3.5412 -2.94848 0
M  V30 6712 H 594.131 -3.09646 -2.78403 0
M  V30 6713 H 596.728 -1.57237 -5.11058 0
M  V30 6714 H 597.071 -0.147664 -4.16038 0
M  V30 6715 H 597.604 -1.74274 -3.57594 0
M  V30 6716 H 594.343 -4.48958 -4.77616 0
M  V30 6717 H 593.863 -2.85176 -5.27669 0
M  V30 6718 H 595.542 -3.40095 -5.50404 0
M  V30 6719 N 595.674 1.31259 -0.872281 0
M  V30 6720 C 596.92 1.973 -0.494414 0
M  V30 6721 C 597.275 1.67684 0.94339 0
M  V30 6722 O 596.568 0.964186 1.65572 0
M  V30 6723 C 596.762 3.50659 -0.690889 0
M  V30 6724 C 596.591 3.95179 -2.14624 0
M  V30 6725 C 595.361 4.21405 -2.7883 0
M  V30 6726 C 597.559 4.08948 -3.11875 0
M  V30 6727 N 595.541 4.52295 -4.15093 0
M  V30 6728 C 596.912 4.43576 -4.33174 0
M  V30 6729 C 598.967 3.91334 -3.07835 0
M  V30 6730 C 597.67 4.62429 -5.50956 0
M  V30 6731 C 599.696 4.11381 -4.24876 0
M  V30 6732 C 599.058 4.46343 -5.44938 0
M  V30 6733 H 595.157 0.747411 -0.230002 0
M  V30 6734 H 597.741 1.58741 -1.12736 0
M  V30 6735 H 595.912 3.88301 -0.0875162 0
M  V30 6736 H 597.644 4.03722 -0.281179 0
M  V30 6737 H 594.399 4.14131 -2.29767 0
M  V30 6738 H 594.823 4.71897 -4.8543 0
M  V30 6739 H 599.465 3.6339 -2.16119 0
M  V30 6740 H 597.183 4.8922 -6.43187 0
M  V30 6741 H 600.769 3.99235 -4.23205 0
M  V30 6742 H 599.649 4.6154 -6.33996 0
M  V30 6743 N 597.152 0.631951 1.44375 0
M  V30 6744 C 598.062 -0.073674 2.34484 0
M  V30 6745 C 599.078 -0.834825 1.52665 0
M  V30 6746 O 600.254 -0.786902 1.85391 0
M  V30 6747 C 597.319 -1.04247 3.30656 0
M  V30 6748 C 596.38 -0.280602 4.28382 0
M  V30 6749 C 595.613 -1.20325 5.19959 0
M  V30 6750 O 595.836 -2.44199 5.15484 0
M  V30 6751 O 594.77 -0.687128 5.97965 0
M  V30 6752 H 598.596 0.667477 2.96274 0
M  V30 6753 H 596.181 0.392144 1.44162 0
M  V30 6754 H 598.063 -1.59981 3.89851 0
M  V30 6755 H 596.738 -1.76422 2.71398 0
M  V30 6756 H 595.645 0.319804 3.72731 0
M  V30 6757 H 596.978 0.401144 4.90563 0
M  V30 6758 N 598.631 -1.53133 0.372548 0
M  V30 6759 C 599.594 -2.24569 -0.458389 0
M  V30 6760 C 600.594 -1.25603 -1.00402 0
M  V30 6761 O 601.784 -1.49827 -0.888672 0
M  V30 6762 C 598.916 -2.98783 -1.6414 0
M  V30 6763 H 600.109 -2.99436 0.166799 0
M  V30 6764 H 597.662 -1.55805 0.124357 0
M  V30 6765 H 598.397 -2.28176 -2.30448 0
M  V30 6766 H 598.182 -3.71404 -1.25704 0
M  V30 6767 H 599.672 -3.53068 -2.23008 0
M  V30 6768 N 600.109 -0.101901 -1.5727 0
M  V30 6769 C 601.057 0.872034 -2.15635 0
M  V30 6770 C 602.051 1.28742 -1.10099 0
M  V30 6771 O 603.257 1.26116 -1.28432 0
M  V30 6772 H 599.632 0.299269 -0.689886 0
M  V30 6773 H 601.603 0.355137 -2.96279 0
M  V30 6774 C 600.352 2.11886 -2.7568 0
M  V30 6775 H 599.675 1.80813 -3.56576 0
M  V30 6776 H 601.115 2.78077 -3.20077 0
M  V30 6777 C 599.574 2.89739 -1.7191 0
M  V30 6778 O 600.104 3.84522 -1.16213 0
M  V30 6779 N 598.31 2.53407 -1.42245 0
M  V30 6780 H 597.857 1.76398 -1.87727 0
M  V30 6781 H 597.815 3.05795 -0.730529 0
M  V30 6782 N 601.587 1.56661 0.17182 0
M  V30 6783 C 602.835 1.81606 0.886774 0
M  V30 6784 C 603.156 0.678818 1.82803 0
M  V30 6785 O 602.426 -0.301354 1.93568 0
M  V30 6786 H 601.006 0.669934 0.330451 0
M  V30 6787 H 603.668 1.94142 0.171757 0
M  V30 6788 H 602.764 2.75634 1.46398 0
M  V30 6789 N 603.065 -0.440357 1.51323 0
M  V30 6790 C 604.293 -1.21255 1.67645 0
M  V30 6791 C 604.708 -1.85088 0.37252 0
M  V30 6792 O 604.065 -1.70582 -0.648683 0
M  V30 6793 C 604.116 -2.29881 2.78993 0
M  V30 6794 O 603.837 -1.68659 4.04334 0
M  V30 6795 C 605.338 -3.20214 3.06558 0
M  V30 6796 H 602.558 -0.36558 0.562666 0
M  V30 6797 H 605.102 -0.52214 1.97722 0
M  V30 6798 H 603.257 -2.94643 2.51524 0
M  V30 6799 H 603.671 -2.40426 4.6615 0
M  V30 6800 H 605.145 -3.92575 3.88058 0
M  V30 6801 H 605.622 -3.80794 2.18844 0
M  V30 6802 H 606.228 -2.61156 3.35675 0
M  V30 6803 N 604.543 -1.41418 -0.695603 0
M  V30 6804 C 605.959 -1.23887 -1.00619 0
M  V30 6805 C 606.159 -0.128206 -2.01092 0
M  V30 6806 O 605.215 0.507408 -2.47349 0
M  V30 6807 C 606.528 -2.58816 -1.53083 0
M  V30 6808 C 608.076 -2.65998 -1.64967 0
M  V30 6809 C 608.551 -4.01244 -2.20833 0
M  V30 6810 N 610.042 -4.0309 -2.28194 0
M  V30 6811 C 610.777 -5.04539 -2.72448 0
M  V30 6812 N 610.273 -6.16378 -3.16306 0
M  V30 6813 N 612.066 -4.91901 -2.72011 0
M  V30 6814 H 604.217 -2.12379 -0.0300061 0
M  V30 6815 H 606.48 -0.944958 -0.0758797 0
M  V30 6816 H 606.186 -3.40842 -0.867147 0
M  V30 6817 H 606.06 -2.81299 -2.51298 0
M  V30 6818 H 608.447 -1.84331 -2.30448 0
M  V30 6819 H 608.528 -2.47325 -0.652982 0
M  V30 6820 H 608.172 -4.83359 -1.55968 0
M  V30 6821 H 608.102 -4.17257 -3.21254 0
M  V30 6822 H 610.593 -3.22341 -1.97242 0
M  V30 6823 H 610.906 -6.89658 -3.487 0
M  V30 6824 H 609.251 -6.19914 -3.14215 0
M  V30 6825 H 612.442 -4.03613 -2.37095 0
M  V30 6826 H 612.615 -5.71102 -3.06181 0
M  V30 6827 N 606.021 0.929856 -1.27246 0
M  V30 6828 C 606.931 2.0636 -1.11592 0
M  V30 6829 C 607.947 1.73938 -0.046496 0
M  V30 6830 O 609.123 1.9981 -0.252544 0
M  V30 6831 C 606.188 3.38213 -0.762437 0
M  V30 6832 C 605.249 3.84346 -1.9125 0
M  V30 6833 C 604.482 5.09906 -1.57579 0
M  V30 6834 O 604.705 5.68354 -0.482694 0
M  V30 6835 O 603.639 5.51359 -2.41426 0
M  V30 6836 H 607.465 2.22478 -2.0673 0
M  V30 6837 H 605.05 1.04865 -1.06413 0
M  V30 6838 H 606.932 4.1741 -0.57854 0
M  V30 6839 H 605.607 3.23307 0.159439 0
M  V30 6840 H 604.514 3.06045 -2.15144 0
M  V30 6841 H 605.847 4.0379 -2.81451 0
M  V30 6842 N 607.499 1.09233 1.13605 0
M  V30 6843 C 608.746 0.827159 1.84836 0
M  V30 6844 C 609.074 -0.647199 1.83416 0
M  V30 6845 O 608.329 -1.49228 1.26608 0
M  V30 6846 C 608.628 1.305 3.32723 0
M  V30 6847 C 608.294 2.78864 3.54325 0
M  V30 6848 C 606.956 3.19382 3.59928 0
M  V30 6849 C 609.308 3.74532 3.62457 0
M  V30 6850 C 606.636 4.54346 3.71196 0
M  V30 6851 C 608.988 5.09283 3.75252 0
M  V30 6852 C 607.652 5.49394 3.79108 0
M  V30 6853 H 606.922 0.302679 0.676363 0
M  V30 6854 H 609.569 1.36676 1.34134 0
M  V30 6855 H 607.874 0.68517 3.85762 0
M  V30 6856 H 609.571 1.07648 3.86281 0
M  V30 6857 H 606.161 2.46507 3.50617 0
M  V30 6858 H 610.345 3.44343 3.57409 0
M  V30 6859 H 605.601 4.84864 3.72447 0
M  V30 6860 H 609.775 5.83269 3.80487 0
M  V30 6861 H 607.402 6.5397 3.87591 0
M  V30 6862 N 608.977 -1.30795 0.87923 0
M  V30 6863 C 609.907 -2.30742 0.357796 0
M  V30 6864 C 610.888 -1.60747 -0.556283 0
M  V30 6865 O 612.073 -1.88393 -0.47135 0
M  V30 6866 C 609.203 -3.44583 -0.433555 0
M  V30 6867 C 608.157 -4.26235 0.388251 0
M  V30 6868 C 607.483 -5.32073 -0.529352 0
M  V30 6869 C 608.783 -4.96303 1.62729 0
M  V30 6870 H 610.477 -2.74605 1.19299 0
M  V30 6871 H 608.023 -1.32017 0.575104 0
M  V30 6872 H 609.976 -4.13563 -0.808934 0
M  V30 6873 H 608.7 -2.99511 -1.30234 0
M  V30 6874 H 607.359 -3.58936 0.745695 0
M  V30 6875 H 607.007 -4.83249 -1.39569 0
M  V30 6876 H 606.707 -5.87598 0.0166741 0
M  V30 6877 H 608.231 -6.0391 -0.901373 0
M  V30 6878 H 609.645 -5.5783 1.32283 0
M  V30 6879 H 608.042 -5.61666 2.11309 0
M  V30 6880 H 609.112 -4.22758 2.37494 0
M  V30 6881 N 610.455 -0.639598 -1.44038 0
M  V30 6882 C 611.732 -0.078012 -1.95444 0
M  V30 6883 C 612.112 1.39847 -1.58133 0
M  V30 6884 O 611.46 2.11714 -0.859614 0
M  V30 6885 C 611.67 -0.309832 -3.47622 0
M  V30 6886 C 613.018 -0.207521 -4.24093 0
M  V30 6887 O 614.042 -0.241653 -3.55379 0
M  V30 6888 O 612.901 -0.119641 -5.46369 0
M  V30 6889 H 609.995 0.0174534 -0.826816 0
M  V30 6890 H 612.541 -0.711891 -1.54046 0
M  V30 6891 H 611.313 -1.33401 -3.67858 0
M  V30 6892 H 610.936 0.357777 -3.95987 0
M  V30 6893 N 611.933 1.52934 -0.380664 0
M  V30 6894 C 612.881 2.27727 0.47361 0
M  V30 6895 C 613.875 1.31288 1.0705 0
M  V30 6896 O 615.081 1.4886 1.01197 0
M  V30 6897 H 611.456 0.732189 0.171475 0
M  V30 6898 H 613.427 2.97864 -0.178785 0
M  V30 6899 C 612.176 3.0904 1.59341 0
M  V30 6900 H 611.499 3.831 1.14343 0
M  V30 6901 H 612.939 3.64527 2.16555 0
M  V30 6902 C 611.398 2.20813 2.54447 0
M  V30 6903 O 611.928 1.82907 3.57642 0
M  V30 6904 N 610.134 1.85145 2.23986 0
M  V30 6905 H 609.681 2.16169 1.40103 0
M  V30 6906 H 609.639 1.26402 2.87871 0
M  V30 6907 N 613.412 0.11024 1.57214 0
M  V30 6908 C 614.828 -0.24638 1.57687 0
M  V30 6909 C 615.028 -1.67344 1.12241 0
M  V30 6910 O 614.084 -2.39298 0.805783 0
M  V30 6911 C 615.397 -0.0210288 3.00693 0
M  V30 6912 C 616.945 -0.0876077 3.12877 0
M  V30 6913 C 617.42 0.10994 4.57868 0
M  V30 6914 N 618.911 0.0556135 4.63167 0
M  V30 6915 C 619.646 0.183495 5.73106 0
M  V30 6916 N 619.142 0.367058 6.91827 0
M  V30 6917 N 620.935 0.123689 5.61964 0
M  V30 6918 H 613.086 1.04246 1.85058 0
M  V30 6919 H 615.349 0.40979 0.854854 0
M  V30 6920 H 615.055 0.965203 3.38196 0
M  V30 6921 H 614.929 -0.756748 3.69531 0
M  V30 6922 H 617.316 -1.06436 2.75237 0
M  V30 6923 H 617.397 0.67985 2.466 0
M  V30 6924 H 617.041 1.08362 4.96206 0
M  V30 6925 H 616.971 -0.677397 5.22225 0
M  V30 6926 H 619.462 -0.0831062 3.77809 0
M  V30 6927 H 619.775 0.455739 7.71455 0
M  V30 6928 H 618.12 0.40292 6.93831 0
M  V30 6929 H 621.311 -0.0186928 4.68096 0
M  V30 6930 H 621.484 0.226797 6.47603 0
M  V30 6931 N 614.89 -1.56749 -0.16351 0
M  V30 6932 C 615.837 -1.97011 -1.2023 0
M  V30 6933 C 616.807 -0.835186 -1.43575 0
M  V30 6934 O 617.992 -1.09594 -1.56185 0
M  V30 6935 C 615.132 -2.34186 -2.53478 0
M  V30 6936 C 614.245 -3.60893 -2.37446 0
M  V30 6937 C 613.38 -3.87245 -3.63614 0
M  V30 6938 C 612.419 -5.07274 -3.42548 0
M  V30 6939 N 611.556 -5.29719 -4.60806 0
M  V30 6940 H 616.396 -2.85562 -0.851958 0
M  V30 6941 H 613.933 -1.41292 -0.409257 0
M  V30 6942 H 615.891 -2.53764 -3.31149 0
M  V30 6943 H 614.521 -1.48736 -2.86492 0
M  V30 6944 H 613.573 -3.49185 -1.50911 0
M  V30 6945 H 614.885 -4.48722 -2.1783 0
M  V30 6946 H 614.039 -4.07232 -4.49719 0
M  V30 6947 H 612.778 -2.97806 -3.86216 0
M  V30 6948 H 611.783 -4.87177 -2.5483 0
M  V30 6949 H 613.008 -5.98251 -3.2136 0
M  V30 6950 H 610.954 -4.43233 -4.83612 0
M  V30 6951 H 610.871 -6.11786 -4.44132 0
M  V30 6952 H 612.139 -5.54192 -5.48171 0
M  V30 6953 N 616.368 0.432326 -1.51554 0
M  V30 6954 C 617.298 1.53242 -1.76179 0
M  V30 6955 C 618.279 1.58717 -0.611801 0
M  V30 6956 O 619.464 1.74364 -0.855033 0
M  V30 6957 C 616.594 2.91278 -1.89141 0
M  V30 6958 C 615.548 3.00663 -3.04608 0
M  V30 6959 C 614.874 4.40728 -3.02759 0
M  V30 6960 C 616.174 2.74281 -4.44485 0
M  V30 6961 H 617.868 1.32886 -2.68294 0
M  V30 6962 H 615.414 0.637841 -1.29103 0
M  V30 6963 H 617.367 3.68203 -2.04951 0
M  V30 6964 H 616.091 3.12877 -0.936785 0
M  V30 6965 H 614.75 2.26179 -2.88511 0
M  V30 6966 H 614.398 4.59301 -2.05065 0
M  V30 6967 H 614.098 4.47936 -3.80299 0
M  V30 6968 H 615.622 5.19619 -3.20669 0
M  V30 6969 H 617.036 3.40936 -4.60907 0
M  V30 6970 H 615.433 2.92893 -5.23769 0
M  V30 6971 H 616.503 1.69856 -4.54177 0
M  V30 6972 N 617.846 1.41785 0.688094 0
M  V30 6973 C 619.093 1.41544 1.44816 0
M  V30 6974 C 619.421 0.0271746 1.94481 0
M  V30 6975 O 618.676 -0.962235 1.7041 0
M  V30 6976 C 618.975 2.37532 2.67046 0
M  V30 6977 C 618.641 3.84209 2.35996 0
M  V30 6978 C 617.303 4.24165 2.27239 0
M  V30 6979 C 619.655 4.76785 2.10536 0
M  V30 6980 C 616.983 5.54695 1.91128 0
M  V30 6981 C 619.335 6.07644 1.75931 0
M  V30 6982 C 617.999 6.46613 1.65675 0
M  V30 6983 H 617.269 0.517945 0.529919 0
M  V30 6984 H 619.916 1.74635 0.785797 0
M  V30 6985 H 618.221 1.9772 3.38251 0
M  V30 6986 H 619.918 2.34615 3.25203 0
M  V30 6987 H 616.508 3.52567 2.4371 0
M  V30 6988 H 620.692 4.46714 2.16242 0
M  V30 6989 H 615.948 5.83762 1.81746 0
M  V30 6990 H 620.122 6.78874 1.55252 0
M  V30 6991 H 617.749 7.47668 1.37463 0
M  V30 6992 N 619.324 -0.923095 1.27737 0
M  V30 6993 C 620.274 -2.01061 1.0751 0
M  V30 6994 C 621.258 -1.609 0.00165451 0
M  V30 6995 O 622.45 -1.75618 0.220724 0
M  V30 6996 C 619.579 -3.35467 0.729162 0
M  V30 6997 C 618.665 -3.82059 1.84098 0
M  V30 6998 N 619.056 -4.01115 3.08124 0
M  V30 6999 C 617.354 -4.11135 1.7287 0
M  V30 7000 C 618.055 -4.39989 3.80506 0
M  V30 7001 N 617.031 -4.47721 3.08297 0
M  V30 7002 H 620.833 -2.13832 2.01626 0
M  V30 7003 H 618.347 -1.11027 1.18519 0
M  V30 7004 H 620.344 -4.13049 0.565355 0
M  V30 7005 H 619.004 -3.24056 -0.204334 0
M  V30 7006 H 620.015 -3.87294 3.43836 0
M  V30 7007 H 616.692 -4.08412 0.866352 0
M  V30 7008 H 618.082 -4.62773 4.87125 0
M  V30 7009 N 620.802 -1.09834 -1.13024 0
M  V30 7010 C 622.218 -0.828875 -1.36388 0
M  V30 7011 C 622.418 0.554756 -1.93713 0
M  V30 7012 O 621.474 1.30882 -2.15931 0
M  V30 7013 C 622.787 -1.92352 -2.3113 0
M  V30 7014 C 624.335 -1.95124 -2.44735 0
M  V30 7015 C 624.81 -3.03745 -3.42787 0
M  V30 7016 N 626.301 -3.03012 -3.5034 0
M  V30 7017 C 627.036 -3.83699 -4.26101 0
M  V30 7018 N 626.532 -4.74306 -5.04981 0
M  V30 7019 N 628.325 -3.71942 -4.21445 0
M  V30 7020 H 620.476 -1.99029 -0.74169 0
M  V30 7021 H 622.739 -0.864557 -0.388903 0
M  V30 7022 H 622.445 -2.91906 -1.96172 0
M  V30 7023 H 622.319 -1.80536 -3.3119 0
M  V30 7024 H 624.706 -0.962069 -2.78977 0
M  V30 7025 H 624.787 -2.11018 -1.44586 0
M  V30 7026 H 624.431 -4.02878 -3.09276 0
M  V30 7027 H 624.361 -2.85094 -4.42752 0
M  V30 7028 H 626.852 -2.37352 -2.94062 0
M  V30 7029 H 627.165 -5.32446 -5.60108 0
M  V30 7030 H 625.51 -4.78339 -5.04199 0
M  V30 7031 H 628.701 -3.00513 -3.589 0
M  V30 7032 H 628.874 -4.35062 -4.80235 0
M  V30 7033 N 622.28 1.30327 -0.886154 0
M  V30 7034 C 623.19 2.31854 -0.357866 0
M  V30 7035 C 624.206 1.65392 0.540502 0
M  V30 7036 O 625.382 1.96683 0.433339 0
M  V30 7037 C 622.447 3.44171 0.417999 0
M  V30 7038 C 621.508 4.26257 -0.510263 0
M  V30 7039 C 620.741 5.3321 0.228669 0
M  V30 7040 O 620.964 5.51542 1.45458 0
M  V30 7041 O 619.898 6.0042 -0.421832 0
M  V30 7042 H 623.724 2.78995 -1.19982 0
M  V30 7043 H 621.309 1.34518 -0.650028 0
M  V30 7044 H 623.191 4.12588 0.857251 0
M  V30 7045 H 621.866 2.99164 1.23623 0
M  V30 7046 H 620.773 3.60533 -0.99835 0
M  V30 7047 H 622.106 4.74871 -1.29454 0
M  V30 7048 N 623.758 0.647228 1.43697 0
M  V30 7049 C 625.004 0.158422 2.0218 0
M  V30 7050 C 625.337 -1.22233 1.50907 0
M  V30 7051 O 624.612 -1.81478 0.699702 0
M  V30 7052 C 624.895 0.1627 3.59732 0
M  V30 7053 C 624.748 1.57694 4.21251 0
M  V30 7054 C 626.067 -0.504138 4.37203 0
M  V30 7055 H 623.186 0.059042 0.734631 0
M  V30 7056 H 625.828 0.826772 1.71069 0
M  V30 7057 H 623.978 -0.406414 3.86368 0
M  V30 7058 H 625.65 2.19618 4.05667 0
M  V30 7059 H 623.893 2.12603 3.7813 0
M  V30 7060 H 624.564 1.53183 5.3032 0
M  V30 7061 H 627.04 -0.0199841 4.16095 0
M  V30 7062 H 625.916 -0.470394 5.46881 0
M  V30 7063 H 626.177 -1.57726 4.13007 0
M  V30 7064 N 625.236 -1.5273 0.388769 0
M  V30 7065 C 626.184 -2.27975 -0.461527 0
M  V30 7066 C 627.178 -1.31854 -1.06352 0
M  V30 7067 O 628.384 -1.49394 -1.00406 0
M  V30 7068 H 624.759 -0.733088 -0.16759 0
M  V30 7069 H 626.73 -2.97765 0.194579 0
M  V30 7070 C 625.479 -3.09881 -1.577 0
M  V30 7071 H 624.802 -3.83701 -1.12309 0
M  V30 7072 H 626.242 -3.6567 -2.14619 0
M  V30 7073 C 624.701 -2.22159 -2.53272 0
M  V30 7074 O 625.231 -1.84802 -3.56667 0
M  V30 7075 N 623.437 -1.8633 -2.23001 0
M  V30 7076 H 622.984 -2.16909 -1.38954 0
M  V30 7077 H 622.942 -1.27927 -2.87197 0
M  V30 7078 N 626.714 -0.118576 -1.57153 0
M  V30 7079 C 627.991 0.583062 -1.86708 0
M  V30 7080 C 628.371 1.84841 -1.01967 0
M  V30 7081 O 627.719 2.28288 -0.0984673 0
M  V30 7082 C 627.929 0.875912 -3.3783 0
M  V30 7083 C 629.277 1.22916 -4.0642 0
M  V30 7084 O 630.301 0.966188 -3.42846 0
M  V30 7085 O 629.16 1.72269 -5.18638 0
M  V30 7086 H 626.254 0.294185 -0.772906 0
M  V30 7087 H 628.8 -0.153048 -1.69008 0
M  V30 7088 H 627.572 -0.0207776 -3.91294 0
M  V30 7089 H 627.195 1.66719 -3.60958 0
M  V30 7090 N 628.193 1.56834 0.155195 0
M  V30 7091 C 629.123 2.00678 1.19376 0
M  V30 7092 C 630.104 0.884973 1.45266 0
M  V30 7093 O 631.289 1.1522 1.56326 0
M  V30 7094 C 628.419 2.38042 2.5289 0
M  V30 7095 C 627.373 3.53332 2.41538 0
M  V30 7096 C 626.699 3.76485 3.79688 0
M  V30 7097 C 627.999 4.86265 1.9064 0
M  V30 7098 H 629.693 2.87688 0.829232 0
M  V30 7099 H 627.239 1.38407 0.397445 0
M  V30 7100 H 629.192 2.67314 3.25763 0
M  V30 7101 H 627.916 1.4796 2.91162 0
M  V30 7102 H 626.575 3.24213 1.71117 0
M  V30 7103 H 626.223 2.83667 4.15382 0
M  V30 7104 H 625.923 4.54068 3.72956 0
M  V30 7105 H 627.447 4.08174 4.54122 0
M  V30 7106 H 628.861 5.14308 2.53299 0
M  V30 7107 H 627.258 5.67597 1.94818 0
M  V30 7108 H 628.328 4.77184 0.861596 0
M  V30 7109 N 629.671 -0.424282 1.51781 0
M  V30 7110 C 630.919 -1.17028 1.64769 0
M  V30 7111 C 631.24 -1.91409 0.372523 0
M  V30 7112 O 630.51 -1.86091 -0.612108 0
M  V30 7113 H 629.09 -0.434992 0.607282 0
M  V30 7114 H 631.752 -0.485169 1.88765 0
M  V30 7115 H 630.848 -1.8927 2.4816 0
M  V30 7116 N 631.149 -1.42148 -0.680565 0
M  V30 7117 C 632.56 -1.3768 -1.26099 0
M  V30 7118 C 632.911 -0.0672348 -1.96085 0
M  V30 7119 O 632.036 0.834172 -1.99676 0
M  V30 7120 C 632.631 -2.49387 -2.29328 0
M  V30 7121 C 631.19 -2.4827 -2.82911 0
M  V30 7122 C 630.337 -2.2847 -1.57152 0
M  V30 7123 H 633.288 -1.51446 -0.474326 0
M  V30 7124 H 633.309 -2.19307 -3.10941 0
M  V30 7125 H 632.821 -3.44686 -1.78363 0
M  V30 7126 H 630.922 -1.56773 -3.38013 0
M  V30 7127 H 631.035 -3.45109 -3.3232 0
M  V30 7128 H 629.399 -1.76623 -1.83511 0
M  V30 7129 H 630.182 -3.25816 -1.0816 0
M  V30 7130 N 632.627 0.916307 -1.28225 0
M  V30 7131 C 633.876 1.65975 -1.14608 0
M  V30 7132 C 634.189 1.93204 0.305191 0
M  V30 7133 O 635.395 2.65611 0.562432 0
M  V30 7134 C 633.851 2.98989 -2.00333 0
M  V30 7135 C 633.459 2.79417 -3.50186 0
M  V30 7136 C 635.203 3.76856 -1.95397 0
M  V30 7137 C 633.11 4.08056 -4.28071 0
M  V30 7138 H 632.04 0.622587 -0.425324 0
M  V30 7139 H 634.691 1.01705 -1.52736 0
M  V30 7140 H 633.073 3.6438 -1.5506 0
M  V30 7141 H 634.247 2.22723 -4.034 0
M  V30 7142 H 632.562 2.14966 -3.56621 0
M  V30 7143 H 635.159 4.72203 -2.50856 0
M  V30 7144 H 635.502 4.05776 -0.930137 0
M  V30 7145 H 636.035 3.1828 -2.38626 0
M  V30 7146 H 632.774 3.8431 -5.31024 0
M  V30 7147 H 632.294 4.64371 -3.79631 0
M  V30 7148 H 633.973 4.76333 -4.37854 0
M  V30 7149 N 634.105 1.10431 1.1244 0
M  V30 7150 C 635.335 0.867612 1.87499 0
M  V30 7151 C 635.743 -0.585475 1.79913 0
M  V30 7152 O 635.086 -1.41539 1.171 0
M  V30 7153 C 635.148 1.2374 3.37533 0
M  V30 7154 C 634.812 2.69751 3.68895 0
M  V30 7155 C 635.809 3.67988 3.67261 0
M  V30 7156 C 633.494 3.06135 3.98229 0
M  V30 7157 C 635.488 5.00632 3.9452 0
M  V30 7158 C 633.175 4.38967 4.25149 0
M  V30 7159 C 634.173 5.36025 4.23281 0
M  V30 7160 O 633.861 6.66465 4.49533 0
M  V30 7161 H 633.593 0.311196 0.600111 0
M  V30 7162 H 636.147 1.47257 1.43194 0
M  V30 7163 H 634.377 0.575537 3.82393 0
M  V30 7164 H 636.066 0.978187 3.93937 0
M  V30 7165 H 636.832 3.41224 3.44661 0
M  V30 7166 H 632.711 2.31214 3.98825 0
M  V30 7167 H 636.255 5.7638 3.92978 0
M  V30 7168 H 632.152 4.6547 4.47223 0
M  V30 7169 H 632.92 6.72095 4.67152 0
M  V30 7170 N 635.583 -1.29855 0.893053 0
M  V30 7171 C 636.831 -1.9544 0.514566 0
M  V30 7172 C 637.152 -1.70795 -0.940959 0
M  V30 7173 O 636.422 -1.03601 -1.66264 0
M  V30 7174 H 635.002 -0.723137 0.187302 0
M  V30 7175 H 637.664 -1.58234 1.13789 0
M  V30 7176 H 636.76 -3.04341 0.691581 0
M  V30 7177 N 637.061 -0.65484 -1.43351 0
M  V30 7178 C 638.308 -0.168892 -2.01794 0
M  V30 7179 C 638.636 1.2177 -1.51665 0
M  V30 7180 O 637.891 1.82717 -0.70092 0
M  V30 7181 C 638.19 -0.130424 -3.57162 0
M  V30 7182 C 637.856 -1.45898 -4.26643 0
M  V30 7183 C 636.518 -1.82279 -4.4534 0
M  V30 7184 C 638.87 -2.33485 -4.65976 0
M  V30 7185 C 636.198 -3.0591 -5.00635 0
M  V30 7186 C 638.55 -3.5641 -5.22642 0
M  V30 7187 C 637.214 -3.92985 -5.39555 0
M  V30 7188 H 636.484 -0.061802 -0.738418 0
M  V30 7189 H 639.131 -0.845869 -1.71806 0
M  V30 7190 H 637.436 0.630008 -3.86702 0
M  V30 7191 H 639.133 0.262465 -4.0014 0
M  V30 7192 H 635.723 -1.16591 -4.12437 0
M  V30 7193 H 639.907 -2.06668 -4.51223 0
M  V30 7194 H 635.163 -3.34295 -5.11915 0
M  V30 7195 H 639.337 -4.24495 -5.52066 0
M  V30 7196 H 636.964 -4.88862 -5.82167 0
M  V30 7197 N 638.539 1.52521 -0.396863 0
M  V30 7198 C 639.471 2.24333 0.469814 0
M  V30 7199 C 640.484 1.2685 1.02043 0
M  V30 7200 O 641.673 1.52876 0.92147 0
M  V30 7201 C 638.773 2.95202 1.66461 0
M  V30 7202 C 637.946 4.19454 1.24003 0
M  V30 7203 C 637.005 4.73255 2.30036 0
M  V30 7204 O 636.031 5.36151 1.91131 0
M  V30 7205 N 637.233 4.53765 3.62047 0
M  V30 7206 H 639.998 2.99347 -0.145468 0
M  V30 7207 H 637.559 1.60348 -0.223606 0
M  V30 7208 H 639.551 3.28092 2.36934 0
M  V30 7209 H 638.121 2.2345 2.18607 0
M  V30 7210 H 637.341 3.92517 0.363892 0
M  V30 7211 H 638.629 5.0017 0.933135 0
M  V30 7212 H 638.027 4.03576 3.96412 0
M  V30 7213 H 636.584 4.91124 4.28533 0
M  V30 7214 N 640.017 0.126909 1.57088 0
M  V30 7215 C 641.263 -0.523662 1.96543 0
M  V30 7216 C 641.618 -1.63783 1.0096 0
M  V30 7217 O 640.911 -1.91556 0.0410175 0
M  V30 7218 C 641.105 -1.095 3.40212 0
M  V30 7219 C 640.934 -0.037715 4.49684 0
M  V30 7220 C 639.704 0.396823 5.03739 0
M  V30 7221 C 641.902 0.746245 5.08857 0
M  V30 7222 N 639.884 1.43905 5.96795 0
M  V30 7223 C 641.255 1.63947 5.97931 0
M  V30 7224 C 643.31 0.796259 4.91492 0
M  V30 7225 C 642.013 2.57837 6.715 0
M  V30 7226 C 644.039 1.7229 5.65747 0
M  V30 7227 C 643.401 2.60369 6.54513 0
M  V30 7228 H 639.5 -0.161016 0.765244 0
M  V30 7229 H 642.084 0.21686 1.93489 0
M  V30 7230 H 640.255 -1.80521 3.43899 0
M  V30 7231 H 641.987 -1.71054 3.66773 0
M  V30 7232 H 638.742 0.00290406 4.736 0
M  V30 7233 H 639.166 1.95932 6.48027 0
M  V30 7234 H 643.808 0.129412 4.22602 0
M  V30 7235 H 641.526 3.25532 7.39631 0
M  V30 7236 H 645.112 1.76715 5.54313 0
M  V30 7237 H 643.992 3.30906 7.10965 0
M  V30 7238 N 641.495 -1.56914 -0.146875 0
M  V30 7239 C 642.911 -1.51582 -0.499518 0
M  V30 7240 C 643.111 -0.83535 -1.83369 0
M  V30 7241 O 642.167 -0.405932 -2.49216 0
M  V30 7242 C 643.48 -2.96349 -0.509711 0
M  V30 7243 C 645.028 -3.07288 -0.595217 0
M  V30 7244 C 645.503 -4.53562 -0.636071 0
M  V30 7245 N 646.994 -4.57906 -0.69829 0
M  V30 7246 C 647.729 -5.68462 -0.750886 0
M  V30 7247 N 647.225 -6.88588 -0.76282 0
M  V30 7248 N 649.018 -5.56496 -0.791777 0
M  V30 7249 H 641.169 -1.99547 0.727656 0
M  V30 7250 H 643.432 -0.910113 0.265327 0
M  V30 7251 H 643.138 -3.4939 0.402409 0
M  V30 7252 H 643.012 -3.52307 -1.34758 0
M  V30 7253 H 645.399 -2.54266 -1.49776 0
M  V30 7254 H 645.48 -2.54373 0.2698 0
M  V30 7255 H 645.124 -5.07222 0.262313 0
M  V30 7256 H 645.054 -5.04259 -1.51758 0
M  V30 7257 H 647.545 -3.71429 -0.696362 0
M  V30 7258 H 647.858 -7.68598 -0.804804 0
M  V30 7259 H 646.203 -6.91148 -0.730694 0
M  V30 7260 H 649.394 -4.61562 -0.779624 0
M  V30 7261 H 649.567 -6.42671 -0.829301 0
M  V30 7262 N 642.974 0.416227 -1.52004 0
M  V30 7263 C 643.924 1.50558 -1.7122 0
M  V30 7264 C 644.908 1.50613 -0.56609 0
M  V30 7265 O 646.1 1.56709 -0.822874 0
M  V30 7266 C 643.229 2.88556 -1.85984 0
M  V30 7267 C 642.315 2.93177 -3.06445 0
M  V30 7268 N 642.706 2.67505 -4.29272 0
M  V30 7269 C 641.004 3.24343 -3.06133 0
M  V30 7270 C 641.705 2.78511 -5.10692 0
M  V30 7271 N 640.681 3.11087 -4.45787 0
M  V30 7272 H 644.483 1.29494 -2.63834 0
M  V30 7273 H 641.997 0.62384 -1.4994 0
M  V30 7274 H 643.994 3.66954 -1.97865 0
M  V30 7275 H 642.654 3.10624 -0.945654 0
M  V30 7276 H 643.665 2.42033 -4.57865 0
M  V30 7277 H 640.342 3.52051 -2.24425 0
M  V30 7278 H 641.732 2.62438 -6.18527 0
M  V30 7279 N 644.452 1.42507 0.673017 0
M  V30 7280 C 645.699 1.43072 1.43306 0
M  V30 7281 C 646.027 0.0478004 1.94441 0
M  V30 7282 O 645.282 -0.944106 1.71421 0
M  V30 7283 C 645.581 2.40351 2.64511 0
M  V30 7284 C 645.247 3.8669 2.31908 0
M  V30 7285 C 643.909 4.26551 2.22728 0
M  V30 7286 C 646.261 4.78991 2.05467 0
M  V30 7287 C 643.589 5.56691 1.85234 0
M  V30 7288 C 645.941 6.09476 1.69477 0
M  V30 7289 C 644.605 6.48334 1.58808 0
M  V30 7290 H 643.875 0.523536 0.524395 0
M  V30 7291 H 646.522 1.75459 0.76723 0
M  V30 7292 H 644.827 2.01297 3.36135 0
M  V30 7293 H 646.524 2.38051 3.22696 0
M  V30 7294 H 643.114 3.55132 2.39956 0
M  V30 7295 H 647.298 4.48982 2.11492 0
M  V30 7296 H 642.554 5.85657 1.75545 0
M  V30 7297 H 646.728 6.80482 1.48043 0
M  V30 7298 H 644.355 7.49084 1.29525 0
M  V30 7299 N 645.93 -0.909495 1.28709 0
M  V30 7300 C 647.178 -1.65577 1.15882 0
M  V30 7301 C 647.499 -1.928 -0.292108 0
M  V30 7302 O 646.769 -1.54716 -1.20166 0
M  V30 7303 H 645.349 -0.613714 0.425869 0
M  V30 7304 H 648.011 -1.09108 1.61498 0
M  V30 7305 H 647.107 -2.61634 1.70159 0
M  V30 7306 N 647.408 -1.11026 -1.11852 0
M  V30 7307 C 648.371 -0.768006 -2.1595 0
M  V30 7308 C 649.371 0.210538 -1.59416 0
M  V30 7309 O 650.561 -0.0133978 -1.74195 0
M  V30 7310 C 647.693 -0.138678 -3.40618 0
M  V30 7311 H 648.886 -1.69012 -2.4774 0
M  V30 7312 H 646.439 -0.911578 -1.26964 0
M  V30 7313 H 647.174 0.793872 -3.14433 0
M  V30 7314 H 646.959 -0.843012 -3.8293 0
M  V30 7315 H 648.449 0.0848039 -4.17514 0
M  V30 7316 N 648.886 1.2938 -0.899927 0
M  V30 7317 C 649.796 2.31462 -0.382437 0
M  V30 7318 C 650.812 1.65956 0.522929 0
M  V30 7319 O 651.988 1.97131 0.412454 0
M  V30 7320 C 649.053 3.44595 0.381472 0
M  V30 7321 C 648.114 4.25692 -0.555444 0
M  V30 7322 C 647.347 5.33422 0.172102 0
M  V30 7323 O 647.57 5.53053 1.396 0
M  V30 7324 O 646.504 5.99939 -0.485491 0
M  V30 7325 H 650.33 2.77706 -1.22934 0
M  V30 7326 H 647.915 1.33821 -0.664259 0
M  V30 7327 H 649.797 4.13474 0.813442 0
M  V30 7328 H 648.472 3.00458 1.20443 0
M  V30 7329 H 647.379 3.59453 -1.03653 0
M  V30 7330 H 648.712 4.73471 -1.34483 0
M  V30 7331 N 650.364 0.662433 1.43002 0
M  V30 7332 C 651.594 0.187343 2.05749 0
M  V30 7333 C 652.002 -1.15582 1.49791 0
M  V30 7334 O 651.345 -1.72651 0.627487 0
M  V30 7335 C 651.407 0.0316493 3.59486 0
M  V30 7336 C 651.071 1.30156 4.38073 0
M  V30 7337 C 652.068 2.23234 4.69535 0
M  V30 7338 C 649.753 1.54572 4.77926 0
M  V30 7339 C 651.747 3.39012 5.39768 0
M  V30 7340 C 649.434 2.70641 5.47902 0
M  V30 7341 C 650.432 3.62687 5.78746 0
M  V30 7342 O 650.12 4.76728 6.47291 0
M  V30 7343 H 649.852 0.0915214 0.669776 0
M  V30 7344 H 652.406 0.905982 1.8434 0
M  V30 7345 H 650.636 -0.742451 3.79506 0
M  V30 7346 H 652.325 -0.401977 4.03905 0
M  V30 7347 H 653.091 2.05616 4.39257 0
M  V30 7348 H 648.97 0.83804 4.53319 0
M  V30 7349 H 652.514 4.10877 5.63761 0
M  V30 7350 H 648.411 2.88189 5.77596 0
M  V30 7351 H 649.179 4.76113 6.65777 0
M  V30 7352 N 651.842 -1.52309 0.404946 0
M  V30 7353 C 653.07 -2.06185 -0.171818 0
M  V30 7354 C 653.485 -1.27536 -1.39212 0
M  V30 7355 O 652.842 -0.326112 -1.79563 0
M  V30 7356 C 652.893 -3.57647 -0.526417 0
M  V30 7357 O 652.614 -4.3332 0.645417 0
M  V30 7358 C 654.115 -4.27925 -1.15736 0
M  V30 7359 H 651.335 -0.670632 -0.0222328 0
M  V30 7360 H 653.879 -1.96259 0.574692 0
M  V30 7361 H 652.034 -3.67595 -1.22282 0
M  V30 7362 H 652.448 -5.23328 0.35042 0
M  V30 7363 H 653.922 -5.35093 -1.35572 0
M  V30 7364 H 654.399 -3.84134 -2.12926 0
M  V30 7365 H 655.005 -4.22335 -0.501281 0
M  V30 7366 N 653.32 -0.135238 -1.57019 0
M  V30 7367 C 654.268 0.826099 -2.17436 0
M  V30 7368 C 655.262 1.26378 -1.12805 0
M  V30 7369 O 656.468 1.23363 -1.31079 0
M  V30 7370 H 652.843 0.284568 -0.696078 0
M  V30 7371 H 654.814 0.292212 -2.96966 0
M  V30 7372 C 653.563 2.05991 -2.80112 0
M  V30 7373 H 652.886 1.73209 -3.60331 0
M  V30 7374 H 654.326 2.71225 -3.25903 0
M  V30 7375 C 652.785 2.86027 -1.78017 0
M  V30 7376 O 653.315 3.81971 -1.24344 0
M  V30 7377 N 651.521 2.50332 -1.47588 0
M  V30 7378 H 651.068 1.72377 -1.91426 0
M  V30 7379 H 651.026 3.04177 -0.795228 0
M  V30 7380 N 654.798 1.5699 0.138552 0
M  V30 7381 C 655.731 1.94064 1.2006 0
M  V30 7382 C 656.709 0.807601 1.41126 0
M  V30 7383 O 657.893 1.06399 1.556 0
M  V30 7384 C 655.02 2.21999 2.55801 0
M  V30 7385 C 654.066 3.44617 2.5128 0
M  V30 7386 S 654.899 4.97888 1.97149 0
M  V30 7387 C 656.055 5.28954 3.34602 0
M  V30 7388 H 656.288 2.83843 0.884337 0
M  V30 7389 H 653.821 1.50507 0.344517 0
M  V30 7390 H 655.779 2.38772 3.33914 0
M  V30 7391 H 654.44 1.32869 2.84613 0
M  V30 7392 H 653.633 3.61466 3.51224 0
M  V30 7393 H 653.235 3.27129 1.8128 0
M  V30 7394 H 655.527 5.22938 4.30745 0
M  V30 7395 H 656.47 6.30346 3.22598 0
M  V30 7396 H 656.878 4.56455 3.32128 0
M  V30 7397 N 656.276 -0.40816 1.52223 0
M  V30 7398 C 657.506 -1.17501 1.69932 0
M  V30 7399 C 657.914 -1.84729 0.408874 0
M  V30 7400 O 657.257 -1.7274 -0.625025 0
M  V30 7401 C 657.319 -2.27994 2.77955 0
M  V30 7402 C 656.983 -1.80894 4.19674 0
M  V30 7403 C 657.98 -1.29618 5.03483 0
M  V30 7404 C 655.665 -1.87698 4.65913 0
M  V30 7405 C 657.659 -0.857695 6.31603 0
M  V30 7406 C 655.346 -1.43461 5.94022 0
M  V30 7407 C 656.344 -0.925822 6.76696 0
M  V30 7408 O 656.032 -0.489841 8.02406 0
M  V30 7409 H 655.764 -0.359065 0.572755 0
M  V30 7410 H 658.318 -0.486188 1.99563 0
M  V30 7411 H 656.548 -3.00243 2.43703 0
M  V30 7412 H 658.237 -2.89749 2.84254 0
M  V30 7413 H 659.003 -1.23733 4.68951 0
M  V30 7414 H 654.882 -2.26244 4.01665 0
M  V30 7415 H 658.426 -0.459879 6.96083 0
M  V30 7416 H 654.323 -1.49026 6.28062 0
M  V30 7417 H 655.091 -0.613062 8.16201 0
M  V30 7418 N 657.755 -1.42862 -0.66545 0
M  V30 7419 C 659.032 -1.3431 -1.42197 0
M  V30 7420 C 659.412 0.0150265 -2.11095 0
M  V30 7421 O 658.76 1.03101 -2.03918 0
M  V30 7422 C 658.97 -2.51783 -2.41674 0
M  V30 7423 C 660.318 -2.94321 -3.0604 0
M  V30 7424 O 661.342 -2.51741 -2.52001 0
M  V30 7425 O 660.201 -3.68047 -4.03985 0
M  V30 7426 H 657.295 -0.530159 -0.634713 0
M  V30 7427 H 659.841 -1.54888 -0.693386 0
M  V30 7428 H 658.613 -3.42282 -1.89627 0
M  V30 7429 H 658.236 -2.33241 -3.22001 0
M  V30 7430 N 659.233 0.902656 -1.29189 0
M  V30 7431 C 660.181 2.0278 -1.13943 0
M  V30 7432 C 661.175 1.69308 -0.055787 0
M  V30 7433 O 662.381 1.78707 -0.215371 0
M  V30 7434 H 658.756 0.664595 -0.351877 0
M  V30 7435 H 660.727 2.12778 -2.09208 0
M  V30 7436 C 659.476 3.37657 -0.82966 0
M  V30 7437 H 658.799 3.63913 -1.65551 0
M  V30 7438 H 660.239 4.17078 -0.762998 0
M  V30 7439 C 658.698 3.33648 0.466991 0
M  V30 7440 O 659.228 3.72886 1.49395 0
M  V30 7441 N 657.434 2.86745 0.471761 0
M  V30 7442 H 656.981 2.55009 -0.364406 0
M  V30 7443 H 656.939 2.84446 1.33933 0
M  V30 7444 N 660.711 1.11618 1.11262 0
M  V30 7445 C 661.941 0.88745 1.86569 0
M  V30 7446 C 662.349 -0.56636 1.80524 0
M  V30 7447 O 661.692 -1.40289 1.18594 0
M  V30 7448 C 661.754 1.27313 3.36202 0
M  V30 7449 C 661.418 2.73649 3.66013 0
M  V30 7450 C 662.415 3.71863 3.63337 0
M  V30 7451 C 660.1 3.10342 3.9496 0
M  V30 7452 C 662.094 5.04788 3.89188 0
M  V30 7453 C 659.781 4.43451 4.20469 0
M  V30 7454 C 660.779 5.40484 4.17572 0
M  V30 7455 O 660.467 6.71195 4.42439 0
M  V30 7456 H 660.199 0.317543 0.596777 0
M  V30 7457 H 662.753 1.48768 1.41624 0
M  V30 7458 H 660.983 0.616062 3.81761 0
M  V30 7459 H 662.672 1.01991 3.92877 0
M  V30 7460 H 663.438 3.44861 3.41022 0
M  V30 7461 H 659.317 2.35431 3.9635 0
M  V30 7462 H 662.861 5.80516 3.86842 0
M  V30 7463 H 658.758 4.70187 4.42261 0
M  V30 7464 H 659.526 6.77012 4.59997 0
M  V30 7465 N 662.189 -1.289 0.906776 0
M  V30 7466 C 663.099 -2.31256 0.394707 0
M  V30 7467 C 664.115 -1.66231 -0.514121 0
M  V30 7468 O 665.291 -1.97347 -0.401994 0
M  V30 7469 C 662.356 -3.44792 -0.363191 0
M  V30 7470 C 661.417 -4.25391 0.578012 0
M  V30 7471 C 660.65 -5.33506 -0.143811 0
M  V30 7472 O 660.873 -5.53786 -1.36665 0
M  V30 7473 O 659.807 -5.99673 0.5173 0
M  V30 7474 H 663.633 -2.77051 1.24405 0
M  V30 7475 H 661.218 -1.33466 0.671346 0
M  V30 7476 H 663.1 -4.139 -0.791503 0
M  V30 7477 H 661.775 -3.01093 -1.18848 0
M  V30 7478 H 660.682 -3.58899 1.05558 0
M  V30 7479 H 662.015 -4.72752 1.36992 0
M  V30 7480 N 663.667 -0.670007 -1.42649 0
M  V30 7481 C 664.615 0.0230106 -2.32589 0
M  V30 7482 C 665.609 0.795585 -1.49555 0
M  V30 7483 O 666.815 0.70409 -1.65658 0
M  V30 7484 H 663.19 0.0262342 -0.751542 0
M  V30 7485 H 665.161 -0.753009 -2.88743 0
M  V30 7486 C 663.91 0.963872 -3.34073 0
M  V30 7487 H 663.233 0.378813 -3.98001 0
M  V30 7488 H 664.673 1.41755 -3.99602 0
M  V30 7489 C 663.132 2.06797 -2.65964 0
M  V30 7490 O 663.662 3.15383 -2.48789 0
M  V30 7491 N 661.868 1.83831 -2.25066 0
M  V30 7492 H 661.415 0.955235 -2.39234 0
M  V30 7493 H 661.373 2.57895 -1.79827 0
M  V30 7494 N 665.145 1.52092 -0.413018 0
M  V30 7495 C 666.092 2.27119 0.410558 0
M  V30 7496 C 667.062 1.29692 1.03774 0
M  V30 7497 O 668.247 1.58561 1.06128 0
M  V30 7498 C 665.387 3.09863 1.51918 0
M  V30 7499 C 664.5 4.22252 0.912528 0
M  V30 7500 C 663.635 4.92348 1.99417 0
M  V30 7501 C 662.674 5.96694 1.36466 0
M  V30 7502 N 661.811 6.60292 2.38661 0
M  V30 7503 H 666.651 2.97067 -0.235661 0
M  V30 7504 H 664.188 1.46542 -0.128055 0
M  V30 7505 H 666.146 3.56144 2.17295 0
M  V30 7506 H 664.776 2.42078 2.13537 0
M  V30 7507 H 663.828 3.80113 0.147697 0
M  V30 7508 H 665.14 4.9709 0.412717 0
M  V30 7509 H 664.294 5.42054 2.72512 0
M  V30 7510 H 663.033 4.17087 2.52764 0
M  V30 7511 H 662.038 5.46304 0.61906 0
M  V30 7512 H 663.263 6.73899 0.838827 0
M  V30 7513 H 661.209 5.87858 2.91134 0
M  V30 7514 H 661.126 7.30816 1.93503 0
M  V30 7515 H 662.394 7.14635 3.11314 0
M  V30 7516 N 666.623 0.143563 1.56945 0
M  V30 7517 C 667.871 -0.507402 1.95627 0
M  V30 7518 C 668.192 -1.65626 1.02922 0
M  V30 7519 O 667.462 -1.95693 0.0901136 0
M  V30 7520 H 666.042 -0.190436 0.722318 0
M  V30 7521 H 668.704 0.218257 1.93674 0
M  V30 7522 H 667.8 -0.885816 2.99265 0
M  V30 7523 N 668.101 -1.57061 -0.130224 0
M  V30 7524 C 669.347 -1.8453 -0.841216 0
M  V30 7525 C 669.68 -0.727666 -1.80052 0
M  V30 7526 O 668.955 0.267419 -1.92653 0
M  V30 7527 C 669.238 -3.22553 -1.60099 0
M  V30 7528 C 669.091 -4.44901 -0.662048 0
M  V30 7529 C 670.41 -3.58003 -2.55973 0
M  V30 7530 H 667.529 -0.671215 -0.304366 0
M  V30 7531 H 670.171 -1.89705 -0.105821 0
M  V30 7532 H 668.321 -3.18272 -2.22789 0
M  V30 7533 H 669.993 -4.61278 -0.0448559 0
M  V30 7534 H 668.236 -4.33791 0.0272253 0
M  V30 7535 H 668.907 -5.3812 -1.23006 0
M  V30 7536 H 671.383 -3.63002 -2.03393 0
M  V30 7537 H 670.259 -4.55576 -3.06172 0
M  V30 7538 H 670.52 -2.84833 -3.38116 0
M  V30 7539 N 669.579 0.400081 -1.52437 0
M  V30 7540 C 670.856 1.15973 -1.57511 0
M  V30 7541 C 671.236 2.0798 -0.361572 0
M  V30 7542 O 670.584 2.19032 0.650929 0
M  V30 7543 C 670.794 1.92912 -2.90837 0
M  V30 7544 C 672.142 2.48662 -3.44169 0
M  V30 7545 O 673.166 2.03081 -2.92637 0
M  V30 7546 O 672.025 3.31894 -4.34176 0
M  V30 7547 H 669.119 0.530023 -0.634827 0
M  V30 7548 H 671.665 0.40613 -1.64769 0
M  V30 7549 H 670.437 1.25564 -3.70607 0
M  V30 7550 H 670.06 2.75257 -2.86913 0
M  V30 7551 N 671.057 1.43213 0.657864 0
M  V30 7552 C 671.989 1.43974 1.78337 0
M  V30 7553 C 673.002 0.336482 1.59285 0
M  V30 7554 O 674.191 0.600631 1.68091 0
M  V30 7555 C 671.291 1.23242 3.15697 0
M  V30 7556 C 670.464 2.46319 3.61449 0
M  V30 7557 C 669.523 2.2088 4.77597 0
M  V30 7558 O 668.549 2.942 4.87273 0
M  V30 7559 N 669.751 1.22251 5.67481 0
M  V30 7560 H 672.516 2.40993 1.78164 0
M  V30 7561 H 670.077 1.3831 0.841549 0
M  V30 7562 H 672.069 1.04113 3.91079 0
M  V30 7563 H 670.639 0.346849 3.1067 0
M  V30 7564 H 669.859 2.80904 2.76563 0
M  V30 7565 H 671.147 3.28239 3.88763 0
M  V30 7566 H 670.545 0.616433 5.62331 0
M  V30 7567 H 669.102 1.09107 6.42603 0
M  V30 7568 N 672.536 -0.895792 1.29666 0
M  V30 7569 C 673.466 -2.01673 1.17688 0
M  V30 7570 C 674.447 -1.69955 0.0701317 0
M  V30 7571 O 675.632 -1.9258 0.250289 0
M  V30 7572 C 672.762 -3.36568 0.856681 0
M  V30 7573 C 671.716 -3.82509 1.92017 0
M  V30 7574 C 671.042 -5.14574 1.4532 0
M  V30 7575 C 672.342 -4.02409 3.32963 0
M  V30 7576 H 674.036 -2.11953 2.11463 0
M  V30 7577 H 671.582 -1.01839 1.01807 0
M  V30 7578 H 673.535 -4.14498 0.759577 0
M  V30 7579 H 672.259 -3.26391 -0.116763 0
M  V30 7580 H 670.918 -3.068 2.00673 0
M  V30 7581 H 670.566 -5.00815 0.468325 0
M  V30 7582 H 670.266 -5.46283 2.16447 0
M  V30 7583 H 671.79 -5.9504 1.36968 0
M  V30 7584 H 673.204 -4.70808 3.27127 0
M  V30 7585 H 671.601 -4.45478 4.02082 0
M  V30 7586 H 672.671 -3.06616 3.75652 0
M  V30 7587 N 674.014 -1.12206 -1.10668 0
M  V30 7588 C 674.961 -0.787716 -2.16942 0
M  V30 7589 C 675.931 0.244442 -1.64291 0
M  V30 7590 O 677.116 0.119558 -1.90425 0
M  V30 7591 C 674.256 -0.24584 -3.44223 0
M  V30 7592 C 673.369 -1.33552 -4.10838 0
M  V30 7593 C 672.504 -0.753337 -5.25831 0
M  V30 7594 C 671.543 -1.82231 -5.84344 0
M  V30 7595 N 670.68 -1.25902 -6.90719 0
M  V30 7596 H 675.52 -1.69809 -2.44885 0
M  V30 7597 H 673.057 -0.847862 -1.20207 0
M  V30 7598 H 675.015 0.0863639 -4.17111 0
M  V30 7599 H 673.645 0.627702 -3.16638 0
M  V30 7600 H 672.697 -1.78454 -3.35944 0
M  V30 7601 H 674.009 -2.14396 -4.50373 0
M  V30 7602 H 673.163 -0.37166 -6.05561 0
M  V30 7603 H 671.902 0.0863297 -4.87624 0
M  V30 7604 H 670.907 -2.2132 -5.03287 0
M  V30 7605 H 672.132 -2.66515 -6.24617 0
M  V30 7606 H 670.078 -0.44114 -6.54515 0
M  V30 7607 H 669.995 -2.00408 -7.28953 0
M  V30 7608 H 671.263 -0.904498 -7.74235 0
M  V30 7609 N 675.492 1.28418 -0.913599 0
M  V30 7610 C 676.44 2.29272 -0.392037 0
M  V30 7611 C 677.434 1.61344 0.516198 0
M  V30 7612 O 678.64 1.75557 0.39746 0
M  V30 7613 H 675.015 0.744178 -0.108178 0
M  V30 7614 H 676.986 2.70691 -1.25574 0
M  V30 7615 C 675.735 3.45905 0.352815 0
M  V30 7616 H 675.058 3.98378 -0.336848 0
M  V30 7617 H 676.498 4.18473 0.682398 0
M  V30 7618 C 674.957 2.98572 1.56065 0
M  V30 7619 O 675.487 3.01033 2.65974 0
M  V30 7620 N 673.693 2.54235 1.40759 0
M  V30 7621 H 673.24 2.52432 0.513403 0
M  V30 7622 H 673.198 2.22925 2.21702 0
M  V30 7623 N 676.97 0.677563 1.42291 0
M  V30 7624 C 678.219 0.198173 2.00724 0
M  V30 7625 C 678.532 -1.20325 1.54211 0
M  V30 7626 O 679.738 -1.77916 2.05081 0
M  V30 7627 C 678.194 0.303432 3.58619 0
M  V30 7628 C 677.802 1.70909 4.14119 0
M  V30 7629 C 679.546 -0.117103 4.24338 0
M  V30 7630 C 677.453 1.76696 5.64387 0
M  V30 7631 H 676.383 0.070329 0.750713 0
M  V30 7632 H 679.034 0.843147 1.62982 0
M  V30 7633 H 677.416 -0.409482 3.93877 0
M  V30 7634 H 678.59 2.44931 3.90315 0
M  V30 7635 H 676.905 2.07771 3.6086 0
M  V30 7636 H 679.502 -0.0940471 5.34617 0
M  V30 7637 H 679.845 -1.15283 4.00019 0
M  V30 7638 H 680.378 0.5449 3.9405 0
M  V30 7639 H 677.117 2.7826 5.93508 0
M  V30 7640 H 676.637 1.07034 5.90173 0
M  V30 7641 H 678.316 1.52166 6.28852 0
M  V30 7642 N 678.448 -1.51871 0.421078 0
M  V30 7643 C 679.697 -2.01125 -0.152206 0
M  V30 7644 C 680.01 -1.3106 -1.45199 0
M  V30 7645 O 681.216 -1.71195 -2.10724 0
M  V30 7646 C 679.672 -3.58458 -0.3218 0
M  V30 7647 C 679.28 -4.37448 0.96659 0
M  V30 7648 C 681.024 -4.15908 -0.84973 0
M  V30 7649 C 678.931 -5.86451 0.763529 0
M  V30 7650 H 677.861 -0.751556 -0.0606565 0
M  V30 7651 H 680.512 -1.75115 0.548354 0
M  V30 7652 H 678.894 -3.80847 -1.08498 0
M  V30 7653 H 680.068 -4.26814 1.73684 0
M  V30 7654 H 678.383 -3.91373 1.42183 0
M  V30 7655 H 680.98 -5.24922 -1.01788 0
M  V30 7656 H 681.323 -3.74031 -1.82774 0
M  V30 7657 H 681.856 -3.97535 -0.145297 0
M  V30 7658 H 678.595 -6.3271 1.71344 0
M  V30 7659 H 678.115 -5.99791 0.0327889 0
M  V30 7660 H 679.794 -6.45697 0.410354 0
M  V30 7661 N 679.926 -0.151884 -1.56866 0
M  V30 7662 C 680.874 0.80299 -2.183 0
M  V30 7663 C 681.868 1.25174 -1.14139 0
M  V30 7664 O 683.074 1.21966 -1.3238 0
M  V30 7665 H 679.449 0.277169 -0.699057 0
M  V30 7666 H 681.42 0.260699 -2.97259 0
M  V30 7667 C 680.169 2.03009 -2.82281 0
M  V30 7668 H 679.492 1.69377 -3.62148 0
M  V30 7669 H 680.932 2.67753 -3.28762 0
M  V30 7670 C 679.391 2.84123 -1.81041 0
M  V30 7671 O 679.921 3.8063 -1.28388 0
M  V30 7672 N 678.127 2.48753 -1.50234 0
M  V30 7673 H 677.674 1.70337 -1.93244 0
M  V30 7674 H 677.632 3.03316 -0.827445 0
M  V30 7675 N 681.404 1.57128 0.121893 0
M  V30 7676 C 682.334 2.03165 1.15092 0
M  V30 7677 C 683.315 0.915587 1.43356 0
M  V30 7678 O 684.5 1.1851 1.53847 0
M  V30 7679 C 681.63 2.43352 2.47784 0
M  V30 7680 C 680.584 3.58376 2.33989 0
M  V30 7681 C 679.91 3.84454 3.71617 0
M  V30 7682 C 681.21 4.90199 1.80283 0
M  V30 7683 H 682.904 2.89382 0.768023 0
M  V30 7684 H 680.45 1.39218 0.367998 0
M  V30 7685 H 682.403 2.74163 3.20019 0
M  V30 7686 H 681.127 1.54103 2.87958 0
M  V30 7687 H 679.786 3.2777 1.64202 0
M  V30 7688 H 679.434 2.92414 4.09271 0
M  V30 7689 H 679.134 4.61877 3.6324 0
M  V30 7690 H 680.658 4.17714 4.45362 0
M  V30 7691 H 682.072 5.19565 2.42333 0
M  V30 7692 H 680.469 5.71601 1.82735 0
M  V30 7693 H 681.539 4.78904 0.760184 0
M  V30 7694 N 682.882 -0.391992 1.52647 0
M  V30 7695 C 684.131 -1.13449 1.6677 0
M  V30 7696 C 684.444 -1.91203 0.412399 0
M  V30 7697 O 685.65 -2.68013 0.433707 0
M  V30 7698 C 684.106 -2.06577 2.9471 0
M  V30 7699 C 683.714 -1.3426 4.27409 0
M  V30 7700 C 685.458 -2.80981 3.18198 0
M  V30 7701 C 683.365 -2.26136 5.46458 0
M  V30 7702 H 682.295 -0.427211 0.621295 0
M  V30 7703 H 684.946 -0.397522 1.79142 0
M  V30 7704 H 683.328 -2.83898 2.76076 0
M  V30 7705 H 684.502 -0.621856 4.56585 0
M  V30 7706 H 682.817 -0.718279 4.10158 0
M  V30 7707 H 685.414 -3.49898 4.04321 0
M  V30 7708 H 685.757 -3.44891 2.33144 0
M  V30 7709 H 686.29 -2.10754 3.37383 0
M  V30 7710 H 683.029 -1.66846 6.33911 0
M  V30 7711 H 682.549 -2.96134 5.21598 0
M  V30 7712 H 684.228 -2.86286 5.80215 0
M  V30 7713 N 684.36 -1.4356 -0.65026 0
M  V30 7714 C 685.307 -1.48948 -1.76304 0
M  V30 7715 C 686.277 -0.338919 -1.62605 0
M  V30 7716 O 687.462 -0.54649 -1.82806 0
M  V30 7717 C 684.602 -1.42131 -3.14472 0
M  V30 7718 C 683.715 -2.67415 -3.39284 0
M  V30 7719 C 682.85 -2.52565 -4.67316 0
M  V30 7720 C 681.889 -3.73103 -4.85243 0
M  V30 7721 N 681.026 -3.57046 -6.04535 0
M  V30 7722 H 685.866 -2.44032 -1.71034 0
M  V30 7723 H 683.403 -1.21131 -0.834601 0
M  V30 7724 H 685.361 -1.36172 -3.94351 0
M  V30 7725 H 683.991 -0.506273 -3.18805 0
M  V30 7726 H 683.043 -2.8364 -2.53481 0
M  V30 7727 H 684.355 -3.56943 -3.48415 0
M  V30 7728 H 683.509 -2.44331 -5.55326 0
M  V30 7729 H 682.248 -1.60566 -4.60511 0
M  V30 7730 H 681.253 -3.81743 -3.95667 0
M  V30 7731 H 682.478 -4.66115 -4.93876 0
M  V30 7732 H 680.424 -2.67783 -5.98856 0
M  V30 7733 H 680.341 -4.40178 -6.14638 0
M  V30 7734 H 681.609 -3.52669 -6.95158 0
M  V30 7735 N 685.838 0.888903 -1.30139 0
M  V30 7736 C 686.786 2.0156 -1.16088 0
M  V30 7737 C 687.78 1.69239 -0.0737413 0
M  V30 7738 O 688.986 1.78468 -0.234313 0
M  V30 7739 H 685.361 0.660825 -0.358907 0
M  V30 7740 H 687.332 2.10547 -2.11453 0
M  V30 7741 C 686.081 3.36758 -0.865426 0
M  V30 7742 H 685.404 3.62137 -1.69402 0
M  V30 7743 H 686.844 4.16246 -0.807192 0
M  V30 7744 C 685.303 3.34124 0.431577 0
M  V30 7745 O 685.833 3.7445 1.45431 0
M  V30 7746 N 684.039 2.87229 0.441321 0
M  V30 7747 H 683.586 2.54609 -0.391433 0
M  V30 7748 H 683.544 2.8585 1.30909 0
M  V30 7749 N 687.317 1.12792 1.10072 0
M  V30 7750 C 688.594 0.796867 1.78632 0
M  V30 7751 C 688.974 -0.712739 1.98704 0
M  V30 7752 O 688.322 -1.64773 1.5831 0
M  V30 7753 C 688.532 1.57622 3.11378 0
M  V30 7754 C 689.88 1.76463 3.86194 0
M  V30 7755 O 690.904 1.54165 3.2111 0
M  V30 7756 O 689.763 2.13623 5.03018 0
M  V30 7757 H 686.857 0.290248 0.774394 0
M  V30 7758 H 689.403 1.23215 1.16688 0
M  V30 7759 H 688.175 2.60246 2.92212 0
M  V30 7760 H 687.798 1.13543 3.81043 0
M  V30 7761 N 688.795 -1.27931 0.920396 0
M  V30 7762 C 690.206 -1.76707 0.602616 0
M  V30 7763 C 690.557 -1.75249 -0.882159 0
M  V30 7764 O 689.682 -1.35135 -1.69019 0
M  V30 7765 C 690.277 -3.20884 1.08714 0
M  V30 7766 C 688.836 -3.67356 0.820157 0
M  V30 7767 C 687.983 -2.47525 1.25006 0
M  V30 7768 H 690.934 -1.14301 1.10095 0
M  V30 7769 H 690.955 -3.78045 0.431535 0
M  V30 7770 H 690.467 -3.21913 2.1678 0
M  V30 7771 H 688.568 -3.7178 -0.247012 0
M  V30 7772 H 688.681 -4.57181 1.43257 0
M  V30 7773 H 687.045 -2.45765 0.668698 0
M  V30 7774 H 687.828 -2.51269 2.3392 0
M  V30 7775 N 690.273 -0.685099 -1.4193 0
M  V30 7776 C 691.501 -0.220372 -2.05723 0
M  V30 7777 C 691.916 1.12642 -1.51516 0
M  V30 7778 O 691.273 1.70182 -0.659114 0
M  V30 7779 C 691.324 -0.157974 -3.61155 0
M  V30 7780 O 691.045 -1.45156 -4.13354 0
M  V30 7781 C 692.546 0.329009 -4.42077 0
M  V30 7782 H 689.766 -0.104725 -0.662777 0
M  V30 7783 H 692.31 -0.934736 -1.81887 0
M  V30 7784 H 690.465 0.507144 -3.84066 0
M  V30 7785 H 690.879 -1.33172 -5.07312 0
M  V30 7786 H 692.353 0.321559 -5.51063 0
M  V30 7787 H 692.83 1.36608 -4.17414 0
M  V30 7788 H 693.436 -0.304737 -4.24207 0
M  V30 7789 N 691.751 1.51645 -0.429126 0
M  V30 7790 C 692.976 2.06917 0.141399 0
M  V30 7791 C 693.401 1.29527 1.36398 0
M  V30 7792 O 692.759 0.33094 1.78254 0
M  V30 7793 C 692.807 3.57776 0.4504 0
M  V30 7794 O 691.911 3.82639 1.53821 0
M  V30 7795 H 691.252 0.663978 0.0054647 0
M  V30 7796 H 693.782 1.95355 -0.608093 0
M  V30 7797 H 693.792 4.01894 0.703249 0
M  V30 7798 H 692.467 4.13532 -0.443213 0
M  V30 7799 H 691.044 3.5039 1.27597 0
M  V30 7800 N 693.229 0.160201 1.56784 0
M  V30 7801 C 694.645 -0.196089 1.58391 0
M  V30 7802 C 694.845 -1.63689 1.17508 0
M  V30 7803 O 693.901 -2.36613 0.881506 0
M  V30 7804 C 695.214 0.0746449 3.00607 0
M  V30 7805 C 696.762 0.0119762 3.12998 0
M  V30 7806 C 697.237 0.255551 4.57286 0
M  V30 7807 N 698.728 0.202938 4.62755 0
M  V30 7808 C 699.463 0.365731 5.72232 0
M  V30 7809 N 698.959 0.586972 6.90309 0
M  V30 7810 N 700.752 0.302411 5.61286 0
M  V30 7811 H 692.903 1.1008 1.81648 0
M  V30 7812 H 695.166 0.436779 0.841384 0
M  V30 7813 H 694.872 1.07231 3.34954 0
M  V30 7814 H 694.746 -0.638802 3.71751 0
M  V30 7815 H 697.133 -0.976254 2.78484 0
M  V30 7816 H 697.214 0.75796 2.44313 0
M  V30 7817 H 696.858 1.24094 4.92507 0
M  V30 7818 H 696.788 -0.510912 5.24116 0
M  V30 7819 H 699.279 0.0371328 3.77882 0
M  V30 7820 H 699.592 0.700941 7.69615 0
M  V30 7821 H 697.937 0.623453 6.92198 0
M  V30 7822 H 701.128 0.130238 4.67919 0
M  V30 7823 H 701.301 0.432712 6.46554 0
M  V30 7824 N 694.707 -1.5719 -0.113559 0
M  V30 7825 C 696.123 -1.52607 -0.467253 0
M  V30 7826 C 696.323 -0.874058 -1.81556 0
M  V30 7827 O 695.379 -0.458703 -2.48299 0
M  V30 7828 C 696.692 -2.97363 -0.446736 0
M  V30 7829 C 698.24 -3.08482 -0.529903 0
M  V30 7830 C 698.715 -4.54809 -0.539721 0
M  V30 7831 N 700.206 -4.59284 -0.601005 0
M  V30 7832 C 700.941 -5.69927 -0.630138 0
M  V30 7833 N 700.437 -6.90051 -0.616589 0
M  V30 7834 N 702.23 -5.5805 -0.673558 0
M  V30 7835 H 694.381 -1.97958 0.769819 0
M  V30 7836 H 696.644 -0.90428 0.284572 0
M  V30 7837 H 696.35 -3.48458 0.47643 0
M  V30 7838 H 696.224 -3.55086 -1.27254 0
M  V30 7839 H 698.611 -2.57386 -1.44349 0
M  V30 7840 H 698.692 -2.53744 0.323695 0
M  V30 7841 H 698.336 -5.06552 0.369843 0
M  V30 7842 H 698.266 -5.07364 -1.41028 0
M  V30 7843 H 700.757 -3.72822 -0.617419 0
M  V30 7844 H 701.07 -7.70132 -0.641592 0
M  V30 7845 H 699.415 -6.92543 -0.583927 0
M  V30 7846 H 702.606 -4.63112 -0.681544 0
M  V30 7847 H 702.779 -6.44286 -0.692794 0
M  V30 7848 N 696.185 0.383891 -1.52853 0
M  V30 7849 C 697.434 1.12563 -1.67369 0
M  V30 7850 C 697.747 1.90982 -0.422533 0
M  V30 7851 O 698.953 2.6778 -0.447914 0
M  V30 7852 C 697.409 2.05011 -2.95801 0
M  V30 7853 C 697.017 1.31991 -4.28115 0
M  V30 7854 C 698.761 2.79289 -3.19684 0
M  V30 7855 C 696.668 2.23235 -5.4765 0
M  V30 7856 H 695.598 0.42391 -0.623552 0
M  V30 7857 H 698.249 0.388016 -1.79351 0
M  V30 7858 H 696.631 2.82429 -2.77578 0
M  V30 7859 H 697.805 0.597633 -4.56908 0
M  V30 7860 H 696.12 0.696517 -4.10533 0
M  V30 7861 H 698.717 3.47749 -4.06171 0
M  V30 7862 H 699.06 3.43649 -2.3497 0
M  V30 7863 H 699.593 2.08962 -3.38496 0
M  V30 7864 H 696.332 1.63482 -6.34786 0
M  V30 7865 H 695.852 2.93364 -5.23161 0
M  V30 7866 H 697.531 2.83205 -5.81725 0
M  V30 7867 N 697.663 1.43903 0.642637 0
M  V30 7868 C 698.593 1.52697 1.76652 0
M  V30 7869 C 699.574 0.380816 1.65782 0
M  V30 7870 O 700.759 0.599432 1.84717 0
M  V30 7871 C 697.889 1.45975 3.15133 0
M  V30 7872 C 696.843 2.58949 3.40778 0
M  V30 7873 C 696.169 2.37279 4.79169 0
M  V30 7874 C 697.469 4.01153 3.34475 0
M  V30 7875 H 699.163 2.46766 1.69549 0
M  V30 7876 H 696.709 1.18767 0.814279 0
M  V30 7877 H 698.662 1.5073 3.93521 0
M  V30 7878 H 697.386 0.484162 3.22991 0
M  V30 7879 H 696.045 2.53564 2.64765 0
M  V30 7880 H 695.693 1.37939 4.83717 0
M  V30 7881 H 695.393 3.13016 4.97287 0
M  V30 7882 H 696.917 2.43834 5.59801 0
M  V30 7883 H 698.331 4.07968 4.02784 0
M  V30 7884 H 696.728 4.77001 3.64129 0
M  V30 7885 H 697.798 4.25539 2.32475 0
M  V30 7886 N 699.141 -0.881989 1.30609 0
M  V30 7887 C 700.071 -2.00413 1.1982 0
M  V30 7888 C 701.052 -1.69871 0.0881538 0
M  V30 7889 O 702.237 -1.92304 0.2707 0
M  V30 7890 C 699.367 -3.35641 0.89233 0
M  V30 7891 C 698.321 -3.80451 1.96064 0
M  V30 7892 C 697.647 -5.13003 1.5077 0
M  V30 7893 C 698.947 -3.98855 3.37213 0
M  V30 7894 H 700.641 -2.09698 2.13699 0
M  V30 7895 H 698.187 -1.00754 1.02882 0
M  V30 7896 H 700.14 -4.13669 0.803497 0
M  V30 7897 H 698.864 -3.26497 -0.0821381 0
M  V30 7898 H 697.523 -3.04654 2.03916 0
M  V30 7899 H 697.171 -5.0029 0.521417 0
M  V30 7900 H 696.871 -5.43956 2.22229 0
M  V30 7901 H 698.395 -5.93554 1.43271 0
M  V30 7902 H 699.809 -4.67312 3.32103 0
M  V30 7903 H 698.206 -4.41188 4.06784 0
M  V30 7904 H 699.276 -3.02614 3.78883 0
M  V30 7905 N 700.619 -1.13374 -1.09472 0
M  V30 7906 C 701.859 -0.905422 -1.83252 0
M  V30 7907 C 702.223 0.558396 -1.83701 0
M  V30 7908 O 703.424 0.904254 -2.53134 0
M  V30 7909 C 701.695 -1.47658 -3.25472 0
M  V30 7910 S 703.254 -1.38825 -4.16261 0
M  V30 7911 H 700.072 -0.326371 -0.631667 0
M  V30 7912 H 702.674 -1.44517 -1.31663 0
M  V30 7913 H 701.378 -2.53533 -3.22722 0
M  V30 7914 H 700.909 -0.934756 -3.82133 0
M  V30 7915 H 702.924 -0.366379 -4.94846 0
M  V30 7916 N 702.098 1.27442 -0.927168 0
M  V30 7917 C 703.061 2.2512 -0.430525 0
M  V30 7918 C 704.061 1.54357 0.450619 0
M  V30 7919 O 705.251 1.72371 0.251774 0
M  V30 7920 C 702.383 3.38763 0.381144 0
M  V30 7921 H 703.576 2.70569 -1.29354 0
M  V30 7922 H 701.129 1.39355 -0.707806 0
M  V30 7923 H 701.864 2.98695 1.263 0
M  V30 7924 H 701.649 3.91298 -0.250618 0
M  V30 7925 H 703.139 4.11364 0.719012 0
M  V30 7926 N 703.576 0.692616 1.41565 0
M  V30 7927 C 704.822 0.231408 2.02079 0
M  V30 7928 C 705.177 -1.15514 1.53864 0
M  V30 7929 O 704.47 -1.76786 0.73873 0
M  V30 7930 C 704.664 0.225073 3.56691 0
M  V30 7931 C 704.493 1.60947 4.19912 0
M  V30 7932 C 703.263 2.2116 4.54331 0
M  V30 7933 C 705.461 2.55553 4.46315 0
M  V30 7934 N 703.443 3.52195 5.02824 0
M  V30 7935 C 704.814 3.71263 4.96552 0
M  V30 7936 C 706.869 2.53857 4.28323 0
M  V30 7937 C 705.572 4.85555 5.30687 0
M  V30 7938 C 707.598 3.67259 4.63546 0
M  V30 7939 C 706.96 4.81699 5.13951 0
M  V30 7940 H 703.059 0.130001 0.771119 0
M  V30 7941 H 705.643 0.909459 1.72154 0
M  V30 7942 H 703.814 -0.422453 3.86096 0
M  V30 7943 H 705.546 -0.250685 4.03923 0
M  V30 7944 H 702.301 1.73474 4.40685 0
M  V30 7945 H 702.725 4.19354 5.3148 0
M  V30 7946 H 707.367 1.66598 3.88594 0
M  V30 7947 H 705.085 5.73477 5.69341 0
M  V30 7948 H 708.671 3.67195 4.51286 0
M  V30 7949 H 707.551 5.67995 5.40695 0
M  V30 7950 N 705.054 -1.51416 0.437162 0
M  V30 7951 C 706.002 -2.29328 -0.388765 0
M  V30 7952 C 706.996 -1.35171 -1.02104 0
M  V30 7953 O 708.202 -1.52513 -0.956024 0
M  V30 7954 H 704.577 -0.738048 -0.144183 0
M  V30 7955 H 706.548 -2.96995 0.289212 0
M  V30 7956 C 705.297 -3.14741 -1.47761 0
M  V30 7957 H 704.62 -3.8708 -1.00045 0
M  V30 7958 H 706.06 -3.72313 -2.02877 0
M  V30 7959 C 704.519 -2.30105 -2.46076 0
M  V30 7960 O 705.049 -1.96055 -3.50607 0
M  V30 7961 N 703.255 -1.93331 -2.1696 0
M  V30 7962 H 702.802 -2.2122 -1.31983 0
M  V30 7963 H 702.76 -1.36999 -2.82982 0
M  V30 7964 N 706.532 -0.168513 -1.56696 0
M  V30 7965 C 707.778 0.477865 -1.9709 0
M  V30 7966 C 708.111 1.63084 -1.05438 0
M  V30 7967 O 707.386 1.94238 -0.10095 0
M  V30 7968 C 707.669 0.963521 -3.4697 0
M  V30 7969 C 707.522 -0.189443 -4.49401 0
M  V30 7970 C 708.841 1.83813 -3.99876 0
M  V30 7971 H 705.96 0.172229 -0.716593 0
M  V30 7972 H 708.602 -0.254083 -1.88293 0
M  V30 7973 H 706.752 1.58724 -3.54597 0
M  V30 7974 H 708.424 -0.826451 -4.53836 0
M  V30 7975 H 706.667 -0.845366 -4.25483 0
M  V30 7976 H 707.338 0.192446 -5.51664 0
M  V30 7977 H 709.814 1.31235 -3.94863 0
M  V30 7978 H 708.69 2.14697 -5.0517 0
M  V30 7979 H 708.951 2.78289 -3.43523 0
M  V30 7980 N 708.01 1.57248 0.105221 0
M  V30 7981 C 708.957 2.01338 1.12835 0
M  V30 7982 C 709.927 0.887897 1.40377 0
M  V30 7983 O 711.112 1.15315 1.5201 0
M  V30 7984 C 708.252 2.43432 2.44611 0
M  V30 7985 C 707.365 3.69457 2.23888 0
M  V30 7986 C 706.5 4.00473 3.48991 0
M  V30 7987 C 705.539 5.19638 3.23485 0
M  V30 7988 N 704.676 5.46457 4.40828 0
M  V30 7989 H 709.516 2.88527 0.745386 0
M  V30 7990 H 707.053 1.42714 0.356535 0
M  V30 7991 H 709.011 2.65879 3.21503 0
M  V30 7992 H 707.641 1.59266 2.80774 0
M  V30 7993 H 706.693 3.54545 1.37847 0
M  V30 7994 H 708.005 4.56497 2.01026 0
M  V30 7995 H 707.159 4.23642 4.34295 0
M  V30 7996 H 705.898 3.11935 3.74897 0
M  V30 7997 H 704.903 4.96299 2.36574 0
M  V30 7998 H 706.128 6.09766 2.98935 0
M  V30 7999 H 704.074 4.60876 4.66829 0
M  V30 8000 H 703.991 6.27849 4.2112 0
M  V30 8001 H 705.259 5.74155 5.27225 0
M  V30 8002 N 709.488 -0.375779 1.53054 0
M  V30 8003 C 710.765 -1.13453 1.59336 0
M  V30 8004 C 711.145 -2.07379 0.394614 0
M  V30 8005 O 710.493 -2.2004 -0.616 0
M  V30 8006 C 710.703 -1.8826 2.93869 0
M  V30 8007 C 712.051 -2.43155 3.48081 0
M  V30 8008 O 713.075 -1.984 2.95831 0
M  V30 8009 O 711.934 -3.24944 4.39401 0
M  V30 8010 H 709.028 -0.519856 0.643179 0
M  V30 8011 H 711.574 -0.379865 1.65394 0
M  V30 8012 H 710.346 -1.19652 3.72558 0
M  V30 8013 H 709.969 -2.70658 2.91256 0
M  V30 8014 N 710.966 -1.44241 -0.634997 0
M  V30 8015 C 711.896 -1.53632 -1.7584 0
M  V30 8016 C 712.877 -0.389603 -1.65578 0
M  V30 8017 O 714.062 -0.609219 -1.84397 0
M  V30 8018 C 711.192 -1.47644 -3.14354 0
M  V30 8019 C 710.146 -2.60752 -3.394 0
M  V30 8020 C 709.472 -2.39817 -4.77904 0
M  V30 8021 C 710.772 -4.02921 -3.32343 0
M  V30 8022 H 712.466 -2.47662 -1.68238 0
M  V30 8023 H 710.012 -1.19197 -0.807969 0
M  V30 8024 H 711.965 -1.52815 -3.92716 0
M  V30 8025 H 710.689 -0.501284 -3.2273 0
M  V30 8026 H 709.348 -2.54965 -2.63417 0
M  V30 8027 H 708.996 -1.40502 -4.82978 0
M  V30 8028 H 708.696 -3.15649 -4.9562 0
M  V30 8029 H 710.22 -2.46799 -5.585 0
M  V30 8030 H 711.634 -4.10098 -4.00615 0
M  V30 8031 H 710.031 -4.78925 -3.61595 0
M  V30 8032 H 711.101 -4.26766 -2.30215 0
M  V30 8033 N 712.444 0.87505 -1.31075 0
M  V30 8034 C 713.721 1.60976 -1.11113 0
M  V30 8035 C 714.101 2.08409 0.336006 0
M  V30 8036 O 713.449 1.85858 1.32924 0
M  V30 8037 C 713.659 2.77166 -2.12085 0
M  V30 8038 C 715.007 3.47254 -2.44335 0
M  V30 8039 O 716.031 2.87367 -2.10472 0
M  V30 8040 O 714.89 4.55276 -3.02301 0
M  V30 8041 H 711.984 0.707982 -0.427424 0
M  V30 8042 H 714.53 0.920957 -1.42536 0
M  V30 8043 H 713.302 2.39494 -3.09449 0
M  V30 8044 H 712.925 3.53737 -1.81538 0
M  V30 8045 N 713.922 1.13953 1.08869 0
M  V30 8046 C 714.854 0.779906 2.15523 0
M  V30 8047 C 715.867 -0.20102 1.61554 0
M  V30 8048 O 717.056 0.0200049 1.78489 0
M  V30 8049 C 714.156 0.136226 3.38626 0
M  V30 8050 C 713.329 1.15069 4.21993 0
M  V30 8051 C 712.388 0.531645 5.23507 0
M  V30 8052 O 711.414 1.19327 5.56552 0
M  V30 8053 N 712.616 -0.693734 5.7634 0
M  V30 8054 H 715.381 1.69769 2.46979 0
M  V30 8055 H 712.942 1.03331 1.24637 0
M  V30 8056 H 714.934 -0.290295 4.03658 0
M  V30 8057 H 713.504 -0.684603 3.05011 0
M  V30 8058 H 712.724 1.75431 3.53012 0
M  V30 8059 H 714.012 1.83614 4.74514 0
M  V30 8060 H 713.41 -1.24994 5.51718 0
M  V30 8061 H 711.967 -1.06283 6.43076 0
M  V30 8062 N 715.4 -1.26948 0.933913 0
M  V30 8063 C 716.333 -2.24977 0.382169 0
M  V30 8064 C 717.311 -1.53893 -0.524949 0
M  V30 8065 O 718.495 -1.82699 -0.464048 0
M  V30 8066 C 715.622 -3.35676 -0.451615 0
M  V30 8067 C 714.668 -4.24686 0.392947 0
M  V30 8068 S 715.501 -5.03898 1.81237 0
M  V30 8069 C 716.657 -6.18078 0.986443 0
M  V30 8070 H 716.89 -2.71429 1.21299 0
M  V30 8071 H 714.423 -1.35701 0.736523 0
M  V30 8072 H 716.381 -3.99901 -0.926797 0
M  V30 8073 H 715.042 -2.8785 -1.25703 0
M  V30 8074 H 714.235 -5.03402 -0.245533 0
M  V30 8075 H 713.837 -3.65288 0.802537 0
M  V30 8076 H 716.129 -6.77125 0.225321 0
M  V30 8077 H 717.072 -6.86216 1.74682 0
M  V30 8078 H 717.48 -5.62047 0.525711 0
M  V30 8079 N 716.879 -0.700114 -1.41195 0
M  V30 8080 C 717.842 -0.0465706 -2.29153 0
M  V30 8081 C 718.842 0.703302 -1.44604 0
M  V30 8082 O 720.032 0.537513 -1.657 0
M  V30 8083 C 717.164 0.944324 -3.2756 0
M  V30 8084 H 718.357 -0.821064 -2.88442 0
M  V30 8085 H 715.91 -0.463869 -1.49258 0
M  V30 8086 H 716.645 1.74642 -2.73259 0
M  V30 8087 H 716.43 0.409701 -3.89954 0
M  V30 8088 H 717.92 1.39925 -3.9346 0
M  V30 8089 N 718.357 1.51182 -0.445186 0
M  V30 8090 C 719.287 2.30821 0.352686 0
M  V30 8091 C 720.268 1.36576 1.01395 0
M  V30 8092 O 721.453 1.65497 1.01609 0
M  V30 8093 C 718.583 3.15593 1.44976 0
M  V30 8094 C 717.537 4.1818 0.911553 0
M  V30 8095 C 716.863 4.91523 2.10497 0
M  V30 8096 C 718.163 5.22266 -0.059418 0
M  V30 8097 H 719.857 2.97771 -0.311936 0
M  V30 8098 H 717.403 1.43201 -0.151461 0
M  V30 8099 H 719.356 3.70091 2.01521 0
M  V30 8100 H 718.08 2.4648 2.14278 0
M  V30 8101 H 716.739 3.64746 0.368264 0
M  V30 8102 H 716.387 4.18906 2.78437 0
M  V30 8103 H 716.087 5.60898 1.7512 0
M  V30 8104 H 717.611 5.48847 2.6758 0
M  V30 8105 H 719.025 5.71789 0.415985 0
M  V30 8106 H 717.422 5.99213 -0.326152 0
M  V30 8107 H 718.492 4.7461 -0.993631 0
M  V30 8108 N 719.835 0.176821 1.56605 0
M  V30 8109 C 721.246 -0.338963 1.83597 0
M  V30 8110 C 721.597 -1.62677 1.09684 0
M  V30 8111 O 720.722 -2.13524 0.351661 0
M  V30 8112 C 721.317 -0.62177 3.33046 0
M  V30 8113 C 719.876 -1.08198 3.60514 0
M  V30 8114 C 719.023 -0.120774 2.77037 0
M  V30 8115 H 721.974 0.400978 1.53551 0
M  V30 8116 H 721.995 -1.47321 3.50823 0
M  V30 8117 H 721.507 0.315692 3.86814 0
M  V30 8118 H 719.608 -2.03435 3.12162 0
M  V30 8119 H 719.721 -0.987329 4.68816 0
M  V30 8120 H 718.085 -0.619192 2.47059 0
M  V30 8121 H 718.868 0.810806 3.33588 0
M  V30 8122 N 721.313 -1.57302 -0.09688 0
M  V30 8123 C 722.724 -1.7496 -0.651595 0
M  V30 8124 C 723.075 -0.798746 -1.79205 0
M  V30 8125 O 722.2 0.0231858 -2.16388 0
M  V30 8126 C 722.795 -3.17259 -1.18878 0
M  V30 8127 C 721.354 -3.36348 -1.68958 0
M  V30 8128 C 720.501 -2.70766 -0.598413 0
M  V30 8129 H 723.452 -1.58173 0.12918 0
M  V30 8130 H 723.473 -3.20033 -2.05814 0
M  V30 8131 H 722.985 -3.8644 -0.358523 0
M  V30 8132 H 721.086 -2.72243 -2.5439 0
M  V30 8133 H 721.199 -4.44654 -1.7838 0
M  V30 8134 H 719.563 -2.32615 -1.03743 0
M  V30 8135 H 720.346 -3.42586 0.221238 0
M  V30 8136 N 722.791 0.367657 -1.53252 0
M  V30 8137 C 724.031 1.11923 -1.71034 0
M  V30 8138 C 724.395 1.86618 -0.45143 0
M  V30 8139 O 725.596 2.63996 -0.505915 0
M  V30 8140 C 723.867 2.05461 -2.92439 0
M  V30 8141 S 725.426 2.88167 -3.30916 0
M  V30 8142 H 722.244 0.378549 -0.601848 0
M  V30 8143 H 724.846 0.400757 -1.91348 0
M  V30 8144 H 723.55 1.49346 -3.82262 0
M  V30 8145 H 723.081 2.81784 -2.7452 0
M  V30 8146 H 725.096 4.07746 -2.82767 0
M  V30 8147 N 724.269 1.44576 0.627338 0
M  V30 8148 C 725.219 1.48168 1.73293 0
M  V30 8149 C 726.203 0.347045 1.57113 0
M  V30 8150 O 727.395 0.592605 1.66785 0
M  V30 8151 C 724.524 1.43236 3.11991 0
M  V30 8152 C 723.61 2.61828 3.33627 0
M  V30 8153 N 724.001 3.87053 3.25612 0
M  V30 8154 C 722.299 2.57104 3.64436 0
M  V30 8155 C 723 4.66093 3.48041 0
M  V30 8156 N 721.976 3.97228 3.71095 0
M  V30 8157 H 725.778 2.42832 1.6556 0
M  V30 8158 H 723.292 1.39592 0.829934 0
M  V30 8159 H 725.289 1.43893 3.91281 0
M  V30 8160 H 723.949 0.496133 3.20887 0
M  V30 8161 H 724.96 4.18966 3.04447 0
M  V30 8162 H 721.637 1.72295 3.8029 0
M  V30 8163 H 723.027 5.75117 3.47404 0
M  V30 8164 N 725.747 -0.868086 1.31537 0
M  V30 8165 C 726.996 -1.61607 1.20689 0
M  V30 8166 C 727.309 -1.94204 -0.233275 0
M  V30 8167 O 728.515 -2.67515 -0.463465 0
M  V30 8168 C 726.971 -2.91348 2.11292 0
M  V30 8169 C 726.579 -2.66227 3.60315 0
M  V30 8170 C 728.323 -3.69344 2.09249 0
M  V30 8171 C 726.23 -3.91887 4.42921 0
M  V30 8172 H 725.16 -0.606373 0.448138 0
M  V30 8173 H 727.811 -0.959666 1.56405 0
M  V30 8174 H 726.193 -3.58374 1.68477 0
M  V30 8175 H 727.367 -2.07597 4.11388 0
M  V30 8176 H 725.682 -2.01582 3.64354 0
M  V30 8177 H 728.279 -4.62567 2.68209 0
M  V30 8178 H 728.622 -4.02044 1.0801 0
M  V30 8179 H 729.155 -3.09205 2.50274 0
M  V30 8180 H 725.894 -3.64336 5.44922 0
M  V30 8181 H 725.414 -4.49961 3.96605 0
M  V30 8182 H 727.093 -4.59754 4.55231 0
M  V30 8183 N 727.225 -1.14528 -1.08264 0
M  V30 8184 C 728.155 -0.856356 -2.1723 0
M  V30 8185 C 729.136 0.189251 -1.69044 0
M  V30 8186 O 730.321 0.0456119 -1.94146 0
M  V30 8187 C 727.451 -0.334662 -3.45684 0
M  V30 8188 C 726.405 -1.31588 -4.0727 0
M  V30 8189 C 725.731 -0.653428 -5.30692 0
M  V30 8190 C 727.031 -2.67866 -4.48381 0
M  V30 8191 H 728.725 -1.76755 -2.41657 0
M  V30 8192 H 726.271 -0.851287 -1.16143 0
M  V30 8193 H 728.224 -0.120128 -4.21229 0
M  V30 8194 H 726.948 0.611967 -3.20815 0
M  V30 8195 H 725.607 -1.51661 -3.33758 0
M  V30 8196 H 725.255 0.299054 -5.0211 0
M  V30 8197 H 724.955 -1.30817 -5.72853 0
M  V30 8198 H 726.479 -0.448453 -6.08951 0
M  V30 8199 H 727.893 -2.51692 -5.15096 0
M  V30 8200 H 726.29 -3.29627 -5.01464 0
M  V30 8201 H 727.36 -3.24632 -3.60198 0
M  V30 8202 N 728.703 1.26451 -0.940633 0
M  V30 8203 C 729.943 1.95537 -0.595381 0
M  V30 8204 C 730.307 1.72175 0.849683 0
M  V30 8205 O 731.508 2.3506 1.30384 0
M  V30 8206 C 729.779 3.45151 -0.927669 0
M  V30 8207 S 731.338 4.33295 -0.69288 0
M  V30 8208 H 728.156 0.676331 -0.219311 0
M  V30 8209 H 730.758 1.53411 -1.21183 0
M  V30 8210 H 729.462 3.59654 -1.9768 0
M  V30 8211 H 728.993 3.92247 -0.300921 0
M  V30 8212 H 731.008 4.94217 0.443175 0
M  V30 8213 N 730.181 0.707592 1.40822 0
M  V30 8214 C 731.113 0.0105968 2.29198 0
M  V30 8215 C 732.126 -0.732035 1.45414 0
M  V30 8216 O 733.315 -0.580741 1.68789 0
M  V30 8217 C 730.415 -1.00921 3.23525 0
M  V30 8218 C 729.588 -0.333747 4.36125 0
M  V30 8219 C 728.647 -1.25783 5.10945 0
M  V30 8220 O 727.673 -0.745646 5.64295 0
M  V30 8221 N 728.875 -2.58947 5.19545 0
M  V30 8222 H 731.64 0.76938 2.89656 0
M  V30 8223 H 729.201 0.554579 1.52105 0
M  V30 8224 H 731.193 -1.6294 3.70449 0
M  V30 8225 H 729.763 -1.66942 2.6429 0
M  V30 8226 H 728.983 0.466518 3.9143 0
M  V30 8227 H 730.271 0.135444 5.0862 0
M  V30 8228 H 729.669 -3.03065 4.7767 0
M  V30 8229 H 728.226 -3.16131 5.70004 0
M  V30 8230 N 731.66 -1.50943 0.453197 0
M  V30 8231 C 732.907 -2.02212 -0.107922 0
M  V30 8232 C 733.235 -1.33639 -1.41318 0
M  V30 8233 O 732.49 -0.445154 -1.9057 0
M  V30 8234 C 732.789 -3.55603 -0.357944 0
M  V30 8235 C 732.455 -4.42556 0.863427 0
M  V30 8236 C 731.117 -4.6604 1.19834 0
M  V30 8237 C 733.469 -4.93468 1.67747 0
M  V30 8238 C 730.797 -5.37681 2.34768 0
M  V30 8239 C 733.149 -5.6637 2.81793 0
M  V30 8240 C 731.813 -5.88113 3.1572 0
M  V30 8241 H 731.083 -0.739947 -0.0394916 0
M  V30 8242 H 733.73 -1.81738 0.60363 0
M  V30 8243 H 732.035 -3.74495 -1.15156 0
M  V30 8244 H 733.732 -3.92821 -0.805781 0
M  V30 8245 H 730.322 -4.24485 0.592478 0
M  V30 8246 H 734.506 -4.75194 1.43192 0
M  V30 8247 H 729.762 -5.52727 2.61348 0
M  V30 8248 H 733.936 -6.04806 3.45229 0
M  V30 8249 H 731.563 -6.43404 4.04889 0
M  V30 8250 N 733.138 -0.185124 -1.56509 0
M  V30 8251 C 734.368 0.461469 -2.0138 0
M  V30 8252 C 734.776 1.56417 -1.06445 0
M  V30 8253 O 734.119 1.83603 -0.0597515 0
M  V30 8254 C 734.181 1.08731 -3.42663 0
M  V30 8255 C 733.845 0.124581 -4.5683 0
M  V30 8256 C 734.842 -0.662295 -5.15664 0
M  V30 8257 C 732.527 0.0163947 -5.02297 0
M  V30 8258 C 734.521 -1.54442 -6.18406 0
M  V30 8259 C 732.208 -0.869301 -6.04885 0
M  V30 8260 C 733.206 -1.64828 -6.62813 0
M  V30 8261 O 732.894 -2.51915 -7.63409 0
M  V30 8262 H 732.626 0.1212 -0.665046 0
M  V30 8263 H 735.18 -0.288119 -2.03369 0
M  V30 8264 H 733.41 1.8853 -3.37629 0
M  V30 8265 H 735.099 1.63753 -3.71403 0
M  V30 8266 H 735.865 -0.588963 -4.81411 0
M  V30 8267 H 731.744 0.61253 -4.56913 0
M  V30 8268 H 735.288 -2.15289 -6.63548 0
M  V30 8269 H 731.185 -0.943786 -6.38563 0
M  V30 8270 H 731.953 -2.45584 -7.80789 0
M  V30 8271 N 734.616 1.57351 0.0885366 0
M  V30 8272 C 735.862 1.86696 0.791996 0
M  V30 8273 C 736.195 0.775148 1.78059 0
M  V30 8274 O 735.47 -0.216247 1.93294 0
M  V30 8275 C 735.753 3.26684 1.51491 0
M  V30 8276 C 735.606 4.465 0.543858 0
M  V30 8277 C 736.925 3.64664 2.46391 0
M  V30 8278 H 734.044 0.679049 0.286463 0
M  V30 8279 H 736.686 1.89919 0.0554866 0
M  V30 8280 H 734.836 3.24067 2.14273 0
M  V30 8281 H 736.508 4.61235 -0.0774597 0
M  V30 8282 H 734.751 4.33567 -0.142228 0
M  V30 8283 H 735.422 5.41192 1.08696 0
M  V30 8284 H 737.898 3.68267 1.93698 0
M  V30 8285 H 736.774 4.63534 2.93986 0
M  V30 8286 H 737.035 2.93698 3.30445 0
M  V30 8287 N 736.094 -0.359525 1.53444 0
M  V30 8288 C 737.341 -1.10152 1.6992 0
M  V30 8289 C 737.669 -1.89125 0.4541 0
M  V30 8290 O 736.924 -1.87396 -0.564023 0
M  V30 8291 C 737.223 -2.08287 2.90433 0
M  V30 8292 C 736.889 -1.45749 4.26694 0
M  V30 8293 C 735.551 -1.28421 4.63747 0
M  V30 8294 C 737.903 -1.00557 5.11408 0
M  V30 8295 C 735.231 -0.644951 5.83144 0
M  V30 8296 C 737.583 -0.380288 6.31456 0
M  V30 8297 C 736.247 -0.194557 6.67216 0
M  V30 8298 H 735.517 -0.403076 0.621781 0
M  V30 8299 H 738.164 -0.382612 1.87639 0
M  V30 8300 H 736.469 -2.86503 2.67251 0
M  V30 8301 H 738.166 -2.65662 3.00374 0
M  V30 8302 H 734.756 -1.6023 3.97523 0
M  V30 8303 H 738.94 -1.12735 4.83326 0
M  V30 8304 H 734.196 -0.48952 6.09437 0
M  V30 8305 H 738.37 -0.0219455 6.96397 0
M  V30 8306 H 735.997 0.30285 7.59597 0
M  V30 8307 N 737.572 -1.44907 -0.619662 0
M  V30 8308 C 738.849 -1.38766 -1.37852 0
M  V30 8309 C 739.229 -0.0521393 -2.11036 0
M  V30 8310 O 738.577 0.965613 -2.07095 0
M  V30 8311 C 738.787 -2.59344 -2.33541 0
M  V30 8312 C 740.135 -3.03909 -2.96521 0
M  V30 8313 O 741.159 -2.59631 -2.43865 0
M  V30 8314 O 740.018 -3.80713 -3.92071 0
M  V30 8315 H 737.112 -0.550083 -0.617525 0
M  V30 8316 H 739.658 -1.57015 -0.643759 0
M  V30 8317 H 738.43 -3.48142 -1.78642 0
M  V30 8318 H 738.053 -2.43367 -3.14417 0
M  V30 8319 N 739.05 0.861098 -1.31996 0
M  V30 8320 C 740.298 1.61162 -1.21947 0
M  V30 8321 C 740.619 1.93751 0.220351 0
M  V30 8322 O 739.889 1.59069 1.14341 0
M  V30 8323 H 738.469 0.597485 -0.448353 0
M  V30 8324 H 741.131 1.03039 -1.65436 0
M  V30 8325 H 740.227 2.55138 -1.79752 0
M  V30 8326 N 740.528 1.15101 1.07655 0
M  V30 8327 C 741.475 0.844958 2.14777 0
M  V30 8328 C 742.445 -0.200798 1.64882 0
M  V30 8329 O 743.63 -0.0690278 1.90675 0
M  V30 8330 C 740.77 0.337018 3.4345 0
M  V30 8331 C 739.883 1.44398 4.07153 0
M  V30 8332 C 739.018 0.892487 5.23649 0
M  V30 8333 C 738.057 1.9766 5.79307 0
M  V30 8334 N 737.194 1.44171 6.87138 0
M  V30 8335 H 742.034 1.76242 2.40297 0
M  V30 8336 H 739.571 0.879435 1.17917 0
M  V30 8337 H 741.529 0.024256 4.17193 0
M  V30 8338 H 740.159 -0.543531 3.18191 0
M  V30 8339 H 739.211 1.87299 3.31094 0
M  V30 8340 H 740.523 2.26262 4.4453 0
M  V30 8341 H 739.677 0.532083 6.04362 0
M  V30 8342 H 738.416 0.0429854 4.87681 0
M  V30 8343 H 737.421 2.34586 4.97242 0
M  V30 8344 H 738.646 2.82982 6.17331 0
M  V30 8345 H 736.592 0.614518 6.53115 0
M  V30 8346 H 736.509 2.19665 7.23383 0
M  V30 8347 H 737.777 1.10945 7.71564 0
M  V30 8348 N 742.006 -1.2595 0.947325 0
M  V30 8349 C 742.936 -2.28521 0.479604 0
M  V30 8350 C 743.917 -1.63469 -0.470293 0
M  V30 8351 O 745.102 -1.90627 -0.370824 0
M  V30 8352 C 742.232 -3.46397 -0.250289 0
M  V30 8353 C 741.186 -4.23578 0.613643 0
M  V30 8354 C 740.512 -5.34131 -0.246568 0
M  V30 8355 C 741.812 -4.86979 1.88809 0
M  V30 8356 H 743.506 -2.67895 1.33688 0
M  V30 8357 H 741.052 -1.28783 0.644274 0
M  V30 8358 H 743.005 -4.17269 -0.588576 0
M  V30 8359 H 741.729 -3.05993 -1.14175 0
M  V30 8360 H 740.388 -3.54478 0.93491 0
M  V30 8361 H 740.036 -4.89968 -1.13756 0
M  V30 8362 H 739.736 -5.86683 0.328123 0
M  V30 8363 H 741.26 -6.07839 -0.579986 0
M  V30 8364 H 742.674 -5.50034 1.61666 0
M  V30 8365 H 741.071 -5.49675 2.40784 0
M  V30 8366 H 742.141 -4.09575 2.5957 0
M  V30 8367 N 743.484 -0.715051 -1.40445 0
M  V30 8368 C 744.709 -0.26254 -2.05732 0
M  V30 8369 C 745.134 1.08691 -1.53519 0
M  V30 8370 O 744.492 1.68453 -0.670328 0
M  V30 8371 C 744.54 -0.25195 -3.59719 0
M  V30 8372 O 743.644 0.766998 -4.05205 0
M  V30 8373 H 742.985 -0.123398 -0.652433 0
M  V30 8374 H 745.515 -0.975382 -1.79854 0
M  V30 8375 H 745.525 -0.0894537 -4.07902 0
M  V30 8376 H 744.2 -1.23672 -3.97087 0
M  V30 8377 H 742.777 0.572269 -3.68483 0
M  V30 8378 N 744.962 1.50701 -0.461195 0
M  V30 8379 C 746.202 2.04174 0.0960673 0
M  V30 8380 C 746.566 1.33628 1.37868 0
M  V30 8381 O 747.767 1.77602 2.0177 0
M  V30 8382 C 746.038 3.56256 0.285676 0
M  V30 8383 S 747.597 4.31392 0.802917 0
M  V30 8384 H 744.415 0.710701 0.0206282 0
M  V30 8385 H 747.017 1.85204 -0.62607 0
M  V30 8386 H 745.721 4.05159 -0.653773 0
M  V30 8387 H 745.252 3.79562 1.03421 0
M  V30 8388 H 747.267 4.50611 2.07761 0
M  V30 8389 N 746.441 0.193421 1.56409 0
M  V30 8390 C 747.69 -0.445995 1.96707 0
M  V30 8391 C 748.003 -1.62876 1.08309 0
M  V30 8392 O 749.209 -2.33586 1.38383 0
M  V30 8393 C 747.665 -0.844863 3.49843 0
M  V30 8394 C 747.273 0.31352 4.46902 0
M  V30 8395 C 749.017 -1.45146 3.98915 0
M  V30 8396 C 746.924 -0.106214 5.91305 0
M  V30 8397 H 745.854 -0.170398 0.734493 0
M  V30 8398 H 748.505 0.285172 1.81271 0
M  V30 8399 H 746.887 -1.63265 3.60778 0
M  V30 8400 H 748.061 1.09103 4.47698 0
M  V30 8401 H 746.376 0.8315 4.08014 0
M  V30 8402 H 748.973 -1.77792 5.04276 0
M  V30 8403 H 749.316 -2.35734 3.43126 0
M  V30 8404 H 749.849 -0.727675 3.91088 0
M  V30 8405 H 746.588 0.765442 6.51016 0
M  V30 8406 H 746.108 -0.848623 5.93766 0
M  V30 8407 H 747.787 -0.542588 6.44721 0
M  V30 8408 N 747.919 -1.57396 -0.0801906 0
M  V30 8409 C 748.852 -1.98386 -1.12774 0
M  V30 8410 C 749.83 -0.859423 -1.38031 0
M  V30 8411 O 751.014 -1.12101 -1.51544 0
M  V30 8412 C 748.141 -2.3134 -2.47386 0
M  V30 8413 C 747.187 -3.53706 -2.38316 0
M  V30 8414 S 748.02 -5.04862 -1.78534 0
M  V30 8415 C 749.176 -5.41008 -3.1474 0
M  V30 8416 H 749.409 -2.86929 -0.778382 0
M  V30 8417 H 746.942 -1.51682 -0.28842 0
M  V30 8418 H 748.9 -2.51 -3.24822 0
M  V30 8419 H 747.561 -1.4334 -2.79486 0
M  V30 8420 H 746.754 -3.74253 -3.37566 0
M  V30 8421 H 746.356 -3.33632 -1.69014 0
M  V30 8422 H 748.648 -5.38565 -4.1104 0
M  V30 8423 H 749.591 -6.41885 -2.98981 0
M  V30 8424 H 749.999 -4.68467 -3.14958 0
M  V30 8425 N 749.397 0.351382 -1.53633 0
M  V30 8426 C 750.627 1.11113 -1.74176 0
M  V30 8427 C 751.035 1.83084 -0.477154 0
M  V30 8428 O 750.378 1.74941 0.560483 0
M  V30 8429 C 750.44 2.17521 -2.86225 0
M  V30 8430 C 750.104 1.65193 -4.26099 0
M  V30 8431 C 751.101 1.10842 -5.07947 0
M  V30 8432 C 748.786 1.70277 -4.72558 0
M  V30 8433 C 750.78 0.622689 -6.34351 0
M  V30 8434 C 748.467 1.21316 -5.98937 0
M  V30 8435 C 749.465 0.674033 -6.79666 0
M  V30 8436 O 749.153 0.191696 -8.03671 0
M  V30 8437 H 748.885 0.33756 -0.585687 0
M  V30 8438 H 751.439 0.411786 -2.0123 0
M  V30 8439 H 749.669 2.90991 -2.54678 0
M  V30 8440 H 751.358 2.78999 -2.94812 0
M  V30 8441 H 752.124 1.06243 -4.7322 0
M  V30 8442 H 748.003 2.11181 -4.09785 0
M  V30 8443 H 751.547 0.201216 -6.9731 0
M  V30 8444 H 747.444 1.25613 -6.3316 0
M  V30 8445 H 748.212 0.309712 -8.17914 0
M  V30 8446 N 750.875 1.45233 0.611969 0
M  V30 8447 C 751.807 1.49575 1.73666 0
M  V30 8448 C 752.82 0.386987 1.58134 0
M  V30 8449 O 754.009 0.653804 1.66095 0
M  V30 8450 C 751.109 1.33223 3.11617 0
M  V30 8451 C 750.282 2.57694 3.5343 0
M  V30 8452 C 749.341 2.35962 4.70328 0
M  V30 8453 O 748.367 3.09553 4.77667 0
M  V30 8454 N 749.569 1.40243 5.63305 0
M  V30 8455 H 752.334 2.46539 1.70407 0
M  V30 8456 H 749.895 1.40917 0.79712 0
M  V30 8457 H 751.887 1.16502 3.87569 0
M  V30 8458 H 750.457 0.44551 3.09409 0
M  V30 8459 H 749.677 2.8956 2.67486 0
M  V30 8460 H 750.965 3.40441 3.78124 0
M  V30 8461 H 750.363 0.795023 5.60086 0
M  V30 8462 H 748.92 1.29496 6.38807 0
M  V30 8463 N 752.353 -0.854086 1.3245 0
M  V30 8464 C 753.769 -1.14238 1.11453 0
M  V30 8465 C 753.969 -2.01228 -0.10461 0
M  V30 8466 O 753.025 -2.39845 -0.789339 0
M  V30 8467 C 754.338 -1.81916 2.39431 0
M  V30 8468 C 755.886 -1.94549 2.45193 0
M  V30 8469 C 756.361 -2.65642 3.73093 0
M  V30 8470 N 757.852 -2.73167 3.74078 0
M  V30 8471 C 758.587 -3.28828 4.69744 0
M  V30 8472 N 758.083 -3.85295 5.75778 0
M  V30 8473 N 759.876 -3.26936 4.57241 0
M  V30 8474 H 752.027 -0.274786 2.10615 0
M  V30 8475 H 754.29 -0.184375 0.929898 0
M  V30 8476 H 753.996 -1.25452 3.28565 0
M  V30 8477 H 753.87 -2.82068 2.50434 0
M  V30 8478 H 756.257 -2.50172 1.56518 0
M  V30 8479 H 756.338 -0.933914 2.38142 0
M  V30 8480 H 755.982 -2.10683 4.62142 0
M  V30 8481 H 755.912 -3.6724 3.77415 0
M  V30 8482 H 758.403 -2.33108 2.97438 0
M  V30 8483 H 758.716 -4.25925 6.44832 0
M  V30 8484 H 757.061 -3.83625 5.79531 0
M  V30 8485 H 760.252 -2.8207 3.7357 0
M  V30 8486 H 760.425 -3.70014 5.31971 0
M  V30 8487 N 753.831 -1.1567 -1.07043 0
M  V30 8488 C 755.056 -0.957946 -1.83952 0
M  V30 8489 C 755.481 0.488807 -1.81638 0
M  V30 8490 O 754.839 1.34869 -1.21162 0
M  V30 8491 C 754.887 -1.48064 -3.288 0
M  V30 8492 O 753.991 -0.681921 -4.06723 0
M  V30 8493 H 753.332 -0.341453 -0.569479 0
M  V30 8494 H 755.862 -1.53728 -1.35015 0
M  V30 8495 H 755.872 -1.49484 -3.7963 0
M  V30 8496 H 754.547 -2.53388 -3.29799 0
M  V30 8497 H 753.124 -0.737612 -3.65532 0
M  V30 8498 N 755.309 1.25446 -0.953992 0
M  V30 8499 C 756.549 1.94894 -0.616087 0
M  V30 8500 C 756.913 1.73067 0.831374 0
M  V30 8501 O 758.114 2.3643 1.27884 0
M  V30 8502 C 756.385 3.44147 -0.964225 0
M  V30 8503 S 757.944 4.32536 -0.738798 0
M  V30 8504 H 754.762 0.673967 -0.226472 0
M  V30 8505 H 757.364 1.52117 -1.22803 0
M  V30 8506 H 756.068 3.57537 -2.01484 0
M  V30 8507 H 755.599 3.91906 -0.342507 0
M  V30 8508 H 757.614 4.94659 0.390732 0
M  V30 8509 N 756.787 0.722489 1.40064 0
M  V30 8510 C 758.064 0.191829 1.94657 0
M  V30 8511 C 758.444 -1.30389 1.66018 0
M  V30 8512 O 757.792 -2.06342 0.981588 0
M  V30 8513 C 758.002 0.511978 3.45224 0
M  V30 8514 C 759.35 0.454426 4.22161 0
M  V30 8515 O 760.374 0.448438 3.53366 0
M  V30 8516 O 759.233 0.437986 5.44742 0
M  V30 8517 H 756.327 0.0307821 0.826427 0
M  V30 8518 H 758.873 0.800493 1.49634 0
M  V30 8519 H 757.645 1.54622 3.59455 0
M  V30 8520 H 757.268 -0.126296 3.97399 0
M  V30 8521 N 758.265 -1.50454 0.469181 0
M  V30 8522 C 759.195 -2.31353 -0.31592 0
M  V30 8523 C 760.176 -1.38172 -0.992094 0
M  V30 8524 O 761.361 -1.67093 -0.989633 0
M  V30 8525 C 758.491 -3.1786 -1.39937 0
M  V30 8526 C 757.445 -4.19578 -0.844909 0
M  V30 8527 C 756.771 -4.9481 -2.0265 0
M  V30 8528 C 758.071 -5.22106 0.142499 0
M  V30 8529 H 759.765 -2.97237 0.359269 0
M  V30 8530 H 757.311 -1.42942 0.174224 0
M  V30 8531 H 759.264 -3.7325 -1.95607 0
M  V30 8532 H 757.988 -2.49858 -2.1033 0
M  V30 8533 H 756.647 -3.65285 -0.310189 0
M  V30 8534 H 756.295 -4.23282 -2.71737 0
M  V30 8535 H 755.995 -5.63613 -1.66174 0
M  V30 8536 H 757.519 -5.53035 -2.58815 0
M  V30 8537 H 758.933 -5.72378 -0.324966 0
M  V30 8538 H 757.33 -5.98618 0.421441 0
M  V30 8539 H 758.4 -4.7297 1.06901 0
M  V30 8540 N 759.743 -0.201713 -1.56304 0
M  V30 8541 C 760.991 0.434447 -1.97375 0
M  V30 8542 C 761.312 1.61692 -1.08998 0
M  V30 8543 O 760.582 1.95223 -0.162682 0
M  V30 8544 H 759.162 0.163497 -0.728888 0
M  V30 8545 H 761.824 -0.289988 -1.92731 0
M  V30 8546 H 760.92 0.774136 -3.02347 0
M  V30 8547 N 761.222 1.57436 0.0718424 0
M  V30 8548 C 762.152 2.06724 1.08571 0
M  V30 8549 C 763.133 0.960731 1.40371 0
M  V30 8550 O 764.318 1.23345 1.49999 0
M  V30 8551 C 761.448 2.51112 2.39916 0
M  V30 8552 C 760.402 3.65639 2.22469 0
M  V30 8553 C 759.728 3.96082 3.59198 0
M  V30 8554 C 761.028 4.95687 1.64596 0
M  V30 8555 H 762.722 2.91679 0.675569 0
M  V30 8556 H 760.268 1.40319 0.32352 0
M  V30 8557 H 762.221 2.84206 3.11135 0
M  V30 8558 H 760.945 1.63186 2.8291 0
M  V30 8559 H 759.604 3.32828 1.53691 0
M  V30 8560 H 759.252 3.05287 3.99761 0
M  V30 8561 H 758.952 4.73199 3.48362 0
M  V30 8562 H 760.476 4.31672 4.31847 0
M  V30 8563 H 761.89 5.27011 2.25681 0
M  V30 8564 H 760.287 5.77126 1.64457 0
M  V30 8565 H 761.357 4.8108 0.60744 0
M  V30 8566 N 762.7 -0.34323 1.53817 0
M  V30 8567 C 763.948 -1.0813 1.70741 0
M  V30 8568 C 764.269 -1.89165 0.473461 0
M  V30 8569 O 763.539 -1.89075 -0.512605 0
M  V30 8570 H 762.119 -0.40219 0.629486 0
M  V30 8571 H 764.781 -0.384426 1.91071 0
M  V30 8572 H 763.877 -1.7585 2.57843 0
M  V30 8573 N 764.178 -1.45556 -0.604258 0
M  V30 8574 C 765.424 -1.49968 -1.36519 0
M  V30 8575 C 765.757 -0.142236 -1.93678 0
M  V30 8576 O 765.032 0.843717 -1.75247 0
M  V30 8577 C 765.315 -2.58146 -2.51063 0
M  V30 8578 C 765.168 -4.03346 -1.99078 0
M  V30 8579 C 766.487 -2.62581 -3.53184 0
M  V30 8580 H 763.606 -0.545993 -0.495036 0
M  V30 8581 H 766.248 -1.77382 -0.680845 0
M  V30 8582 H 764.398 -2.34901 -3.09441 0
M  V30 8583 H 766.07 -4.37811 -1.45323 0
M  V30 8584 H 764.313 -4.13845 -1.30055 0
M  V30 8585 H 764.984 -4.74731 -2.81664 0
M  V30 8586 H 767.46 -2.83419 -3.04652 0
M  V30 8587 H 766.336 -3.40131 -4.30816 0
M  V30 8588 H 766.597 -1.67798 -4.09019 0
M  V30 8589 N 765.656 0.84705 -1.32902 0
M  V30 8590 C 767.067 1.41785 -1.21466 0
M  V30 8591 C 767.418 1.95464 0.169767 0
M  V30 8592 O 766.543 1.88157 1.06892 0
M  V30 8593 C 767.138 2.57734 -2.19906 0
M  V30 8594 C 765.697 3.10791 -2.12334 0
M  V30 8595 C 764.844 1.83562 -2.07847 0
M  V30 8596 H 767.795 0.653532 -1.44619 0
M  V30 8597 H 767.816 3.35123 -1.80202 0
M  V30 8598 H 767.328 2.18635 -3.20656 0
M  V30 8599 H 765.429 3.54455 -1.14858 0
M  V30 8600 H 765.542 3.71519 -3.02506 0
M  V30 8601 H 763.906 2.03475 -1.53199 0
M  V30 8602 H 764.689 1.4667 -3.10392 0
M  V30 8603 N 767.134 1.16236 1.06428 0
M  V30 8604 C 768.381 0.943034 1.79201 0
M  V30 8605 C 768.709 -0.529243 1.87161 0
M  V30 8606 O 767.964 -1.40874 1.35842 0
M  V30 8607 C 768.263 1.51396 3.2375 0
M  V30 8608 C 767.929 3.00833 3.35873 0
M  V30 8609 C 766.591 3.41626 3.38888 0
M  V30 8610 C 768.943 3.96825 3.37904 0
M  V30 8611 C 766.271 4.77033 3.4155 0
M  V30 8612 C 768.623 5.32116 3.42104 0
M  V30 8613 C 767.287 5.72392 3.43401 0
M  V30 8614 H 766.557 0.34508 0.655744 0
M  V30 8615 H 769.204 1.44929 1.25171 0
M  V30 8616 H 767.509 0.929114 3.80624 0
M  V30 8617 H 769.206 1.31996 3.78653 0
M  V30 8618 H 765.796 2.68306 3.3423 0
M  V30 8619 H 769.98 3.66376 3.34787 0
M  V30 8620 H 765.236 5.07569 3.40858 0
M  V30 8621 H 769.41 6.06286 3.42623 0
M  V30 8622 H 767.037 6.77296 3.45216 0
M  V30 8623 N 768.612 -1.24939 0.960631 0
M  V30 8624 C 769.56 -2.27659 0.47686 0
M  V30 8625 C 770.554 -1.63148 -0.455961 0
M  V30 8626 O 771.76 -1.76911 -0.332029 0
M  V30 8627 H 768.135 -0.739651 0.135723 0
M  V30 8628 H 770.106 -2.65844 1.35534 0
M  V30 8629 C 768.855 -3.46976 -0.224191 0
M  V30 8630 H 768.178 -3.96854 0.484471 0
M  V30 8631 H 769.618 -4.20717 -0.526615 0
M  V30 8632 C 768.077 -3.04159 -1.44876 0
M  V30 8633 O 768.607 -3.10697 -2.54618 0
M  V30 8634 N 766.813 -2.59284 -1.31226 0
M  V30 8635 H 766.36 -2.54164 -0.419361 0
M  V30 8636 H 766.318 -2.31 -2.13275 0
M  V30 8637 N 770.09 -0.729906 -1.39679 0
M  V30 8638 C 771.339 -0.272534 -1.9985 0
M  V30 8639 C 771.652 1.14519 -1.58571 0
M  V30 8640 O 772.858 1.70182 -2.11543 0
M  V30 8641 C 771.314 -0.436322 -3.57245 0
M  V30 8642 C 770.922 -1.86161 -4.0749 0
M  V30 8643 C 772.666 -0.0404679 -4.24481 0
M  V30 8644 C 770.573 -1.97522 -5.5744 0
M  V30 8645 H 769.503 -0.0981428 -0.747585 0
M  V30 8646 H 772.154 -0.903056 -1.59741 0
M  V30 8647 H 770.536 0.263015 -3.95126 0
M  V30 8648 H 771.71 -2.59248 -3.80955 0
M  V30 8649 H 770.025 -2.21021 -3.529 0
M  V30 8650 H 772.622 -0.104437 -5.34598 0
M  V30 8651 H 772.965 1.00357 -4.04023 0
M  V30 8652 H 773.498 -0.690774 -3.91757 0
M  V30 8653 H 770.237 -3.00096 -5.82771 0
M  V30 8654 H 769.757 -1.28864 -5.85794 0
M  V30 8655 H 771.436 -1.754 -6.22771 0
M  V30 8656 N 771.568 1.50203 -0.477153 0
M  V30 8657 C 772.531 2.27194 0.302599 0
M  V30 8658 C 773.531 1.32221 0.915112 0
M  V30 8659 O 774.721 1.55593 0.783348 0
M  V30 8660 C 771.853 3.0938 1.43167 0
M  V30 8661 H 773.046 2.97575 -0.372678 0
M  V30 8662 H 770.599 1.54578 -0.231392 0
M  V30 8663 H 771.334 2.43509 2.14182 0
M  V30 8664 H 771.119 3.79181 0.998197 0
M  V30 8665 H 772.609 3.67592 1.98157 0
M  V30 8666 N 773.046 0.209999 1.56195 0
M  V30 8667 C 774.271 -0.433064 2.02828 0
M  V30 8668 C 774.696 -1.5337 1.08901 0
M  V30 8669 O 774.054 -1.81144 0.0751132 0
M  V30 8670 C 774.102 -0.952635 3.47789 0
M  V30 8671 O 773.206 -2.0647 3.56993 0
M  V30 8672 H 772.547 -0.0994594 0.656509 0
M  V30 8673 H 775.077 0.32525 2.01998 0
M  V30 8674 H 775.087 -1.26542 3.8788 0
M  V30 8675 H 773.762 -0.147007 4.1564 0
M  V30 8676 H 772.339 -1.75942 3.28784 0
M  V30 8677 N 774.524 -1.57472 -0.0634922 0
M  V30 8678 C 775.754 -1.91608 -0.772645 0
M  V30 8679 C 776.162 -0.805019 -1.71219 0
M  V30 8680 O 775.505 0.229941 -1.82255 0
M  V30 8681 C 775.567 -3.21281 -1.61304 0
M  V30 8682 C 775.231 -4.49177 -0.841973 0
M  V30 8683 C 776.228 -5.19661 -0.157494 0
M  V30 8684 C 773.913 -4.9578 -0.80669 0
M  V30 8685 C 775.907 -6.35006 0.551948 0
M  V30 8686 C 773.594 -6.11028 -0.0934812 0
M  V30 8687 C 774.592 -6.80493 0.58463 0
M  V30 8688 O 774.28 -7.93542 1.28633 0
M  V30 8689 H 774.012 -0.637685 -0.224352 0
M  V30 8690 H 776.566 -2.05369 -0.0355279 0
M  V30 8691 H 774.796 -3.03752 -2.39315 0
M  V30 8692 H 776.485 -3.41003 -2.20162 0
M  V30 8693 H 777.251 -4.84681 -0.176006 0
M  V30 8694 H 773.13 -4.41579 -1.32397 0
M  V30 8695 H 776.674 -6.89161 1.0818 0
M  V30 8696 H 772.571 -6.45459 -0.0729258 0
M  V30 8697 H 773.339 -8.09708 1.19646 0
M  V30 8698 N 776.003 0.335068 -1.53997 0
M  V30 8699 C 777.228 1.09859 -1.75914 0
M  V30 8700 C 777.653 1.81308 -0.500915 0
M  V30 8701 O 777.011 1.72854 0.54693 0
M  V30 8702 C 777.059 2.08122 -2.94478 0
M  V30 8703 O 776.163 3.15805 -2.65219 0
M  V30 8704 H 775.504 0.317313 -0.583274 0
M  V30 8705 H 778.034 0.382872 -2.00986 0
M  V30 8706 H 778.044 2.51195 -3.21504 0
M  V30 8707 H 776.719 1.55517 -3.8573 0
M  V30 8708 H 775.296 2.77489 -2.49107 0
M  V30 8709 N 777.481 1.45874 0.596531 0
M  V30 8710 C 778.73 1.49737 1.35135 0
M  V30 8711 C 779.043 0.147755 1.95041 0
M  V30 8712 O 780.249 0.0640984 2.71424 0
M  V30 8713 C 778.705 2.6378 2.44843 0
M  V30 8714 C 778.313 4.05102 1.91301 0
M  V30 8715 C 780.057 2.769 3.21755 0
M  V30 8716 C 777.964 5.10508 2.98557 0
M  V30 8717 H 776.894 0.557219 0.507959 0
M  V30 8718 H 779.545 1.72046 0.638147 0
M  V30 8719 H 777.927 2.34774 3.189 0
M  V30 8720 H 779.101 4.43836 1.2388 0
M  V30 8721 H 777.416 3.96528 1.271 0
M  V30 8722 H 780.013 3.52819 4.01775 0
M  V30 8723 H 780.356 1.83924 3.73467 0
M  V30 8724 H 780.889 3.05485 2.54802 0
M  V30 8725 H 777.628 6.0523 2.51749 0
M  V30 8726 H 777.148 4.76332 3.6451 0
M  V30 8727 H 778.827 5.35745 3.62748 0
M  V30 8728 N 778.959 -0.83999 1.33349 0
M  V30 8729 C 780.206 -1.59517 1.24742 0
M  V30 8730 C 780.534 -1.93598 -0.187077 0
M  V30 8731 O 779.789 -1.58782 -1.14398 0
M  V30 8732 C 780.088 -2.91571 2.06691 0
M  V30 8733 C 779.754 -2.76856 3.55895 0
M  V30 8734 C 778.416 -2.72551 3.96572 0
M  V30 8735 C 780.768 -2.61741 4.50712 0
M  V30 8736 C 778.096 -2.51028 5.30285 0
M  V30 8737 C 780.448 -2.41752 5.84584 0
M  V30 8738 C 779.112 -2.35848 6.24445 0
M  V30 8739 H 778.382 -0.583714 0.456463 0
M  V30 8740 H 781.029 -0.973261 1.64924 0
M  V30 8741 H 779.334 -3.57961 1.59284 0
M  V30 8742 H 781.031 -3.49053 1.9739 0
M  V30 8743 H 777.621 -2.81039 3.23597 0
M  V30 8744 H 781.805 -2.64102 4.20195 0
M  V30 8745 H 777.061 -2.44903 5.60208 0
M  V30 8746 H 781.235 -2.2904 6.57658 0
M  V30 8747 H 778.862 -2.18931 7.27993 0
M  V30 8748 N 780.437 -1.16799 -1.0581 0
M  V30 8749 C 781.665 -0.97687 -1.82387 0
M  V30 8750 C 782.08 0.474917 -1.82729 0
M  V30 8751 O 781.437 1.3297 -1.25001 0
M  V30 8752 C 781.488 -1.50279 -3.28783 0
M  V30 8753 O 781.209 -2.89772 -3.28578 0
M  V30 8754 C 782.71 -1.35538 -4.22071 0
M  V30 8755 H 779.93 -0.345977 -0.574927 0
M  V30 8756 H 782.474 -1.54942 -1.33466 0
M  V30 8757 H 780.629 -0.972414 -3.74997 0
M  V30 8758 H 781.043 -3.13954 -4.20159 0
M  V30 8759 H 782.517 -1.7716 -5.22799 0
M  V30 8760 H 782.994 -0.301598 -4.38163 0
M  V30 8761 H 783.6 -1.87562 -3.81708 0
M  V30 8762 N 781.915 1.24427 -0.967243 0
M  V30 8763 C 782.865 2.23143 -0.468106 0
M  V30 8764 C 783.849 1.5449 0.449633 0
M  V30 8765 O 785.041 1.74761 0.28063 0
M  V30 8766 C 782.17 3.42454 0.240867 0
M  V30 8767 C 781.256 4.18355 -0.695674 0
M  V30 8768 N 781.647 4.71428 -1.83273 0
M  V30 8769 C 779.945 4.43116 -0.506365 0
M  V30 8770 C 780.646 5.29041 -2.41849 0
M  V30 8771 N 779.622 5.16213 -1.70369 0
M  V30 8772 H 783.424 2.61795 -1.3357 0
M  V30 8773 H 780.938 1.39809 -0.826277 0
M  V30 8774 H 782.935 4.12329 0.615668 0
M  V30 8775 H 781.595 3.05323 1.10491 0
M  V30 8776 H 782.606 4.68177 -2.21428 0
M  V30 8777 H 779.283 4.16319 0.313747 0
M  V30 8778 H 780.673 5.80811 -3.37799 0
M  V30 8779 N 783.393 0.737304 1.3929 0
M  V30 8780 C 784.326 0.0475454 2.2815 0
M  V30 8781 C 785.304 -0.745314 1.44512 0
M  V30 8782 O 786.488 -0.727387 1.739 0
M  V30 8783 C 783.615 -0.939803 3.254 0
M  V30 8784 C 782.661 -0.235153 4.25851 0
M  V30 8785 S 783.494 1.05252 5.25055 0
M  V30 8786 C 784.65 0.0678242 6.25863 0
M  V30 8787 H 784.883 0.801117 2.86303 0
M  V30 8788 H 782.416 0.529197 1.45048 0
M  V30 8789 H 784.374 -1.50417 3.81949 0
M  V30 8790 H 783.035 -1.66623 2.66262 0
M  V30 8791 H 782.228 -0.982336 4.94334 0
M  V30 8792 H 781.83 0.257245 3.73114 0
M  V30 8793 H 784.122 -0.771779 6.7309 0
M  V30 8794 H 785.065 0.719858 7.04431 0
M  V30 8795 H 785.473 -0.305604 5.63672 0
M  V30 8796 N 784.871 -1.49948 0.485112 0
M  V30 8797 C 786.12 -2.01589 -0.066765 0
M  V30 8798 C 786.433 -1.371 -1.39509 0
M  V30 8799 O 787.639 -1.79978 -2.03274 0
M  V30 8800 C 786.095 -3.59501 -0.169476 0
M  V30 8801 C 785.703 -4.32955 1.15126 0
M  V30 8802 C 787.447 -4.19138 -0.672564 0
M  V30 8803 C 785.354 -5.82684 1.01158 0
M  V30 8804 H 784.284 -0.753453 -0.0287259 0
M  V30 8805 H 786.935 -1.72632 0.622132 0
M  V30 8806 H 785.317 -3.85106 -0.922471 0
M  V30 8807 H 786.491 -4.19064 1.9163 0
M  V30 8808 H 784.806 -3.84991 1.58654 0
M  V30 8809 H 787.403 -5.28767 -0.794325 0
M  V30 8810 H 787.746 -3.81447 -1.66745 0
M  V30 8811 H 788.279 -3.97793 0.0234415 0
M  V30 8812 H 785.018 -6.24873 1.98025 0
M  V30 8813 H 784.538 -5.99112 0.287151 0
M  V30 8814 H 786.217 -6.43376 0.683847 0
M  V30 8815 N 786.349 -0.21828 -1.56081 0
M  V30 8816 C 787.312 0.679633 -2.18892 0
M  V30 8817 C 788.312 1.12405 -1.14986 0
M  V30 8818 O 789.502 1.03339 -1.40238 0
M  V30 8819 C 786.634 1.93063 -2.80962 0
M  V30 8820 H 787.827 0.132066 -2.99609 0
M  V30 8821 H 785.38 0.0313374 -1.56269 0
M  V30 8822 H 786.115 2.52015 -2.04106 0
M  V30 8823 H 785.9 1.62046 -3.57048 0
M  V30 8824 H 787.39 2.57043 -3.29118 0
M  V30 8825 N 787.827 1.57504 0.0551401 0
M  V30 8826 C 788.759 2.0158 1.09078 0
M  V30 8827 C 789.772 0.92434 1.34014 0
M  V30 8828 O 790.961 1.20202 1.31961 0
M  V30 8829 C 788.061 2.35385 2.43818 0
M  V30 8830 C 787.234 3.66588 2.38605 0
M  V30 8831 C 786.293 3.87874 3.55585 0
M  V30 8832 O 785.319 4.59259 3.36258 0
M  V30 8833 N 786.521 3.31503 4.76536 0
M  V30 8834 H 789.286 2.91039 0.71529 0
M  V30 8835 H 786.847 1.60058 0.243532 0
M  V30 8836 H 788.839 2.46784 3.20749 0
M  V30 8837 H 787.409 1.51731 2.73307 0
M  V30 8838 H 786.629 3.65787 1.46947 0
M  V30 8839 H 787.917 4.52706 2.32239 0
M  V30 8840 H 787.315 2.73592 4.9514 0
M  V30 8841 H 785.872 3.48324 5.50921 0
M  V30 8842 N 789.305 -0.326896 1.54172 0
M  V30 8843 C 790.551 -1.06681 1.72473 0
M  V30 8844 C 790.884 -1.87779 0.49523 0
M  V30 8845 O 790.159 -1.87754 -0.507803 0
M  V30 8846 C 790.442 -1.99429 2.99834 0
M  V30 8847 C 790.295 -1.21682 4.33028 0
M  V30 8848 C 791.614 -2.99002 3.22933 0
M  V30 8849 H 788.733 -0.386438 0.627563 0
M  V30 8850 H 791.375 -0.343779 1.86864 0
M  V30 8851 H 789.525 -2.61081 2.87696 0
M  V30 8852 H 791.197 -0.625153 4.57044 0
M  V30 8853 H 789.44 -0.519045 4.30684 0
M  V30 8854 H 790.111 -1.89766 5.18356 0
M  V30 8855 H 792.587 -2.4747 3.34511 0
M  V30 8856 H 791.463 -3.61085 4.13412 0
M  V30 8857 H 791.724 -3.71281 2.40006 0
M  V30 8858 N 790.784 -1.46188 -0.588786 0
M  V30 8859 C 792.024 -1.52738 -1.35833 0
M  V30 8860 C 792.388 -0.172403 -1.91224 0
M  V30 8861 O 793.589 -0.112633 -2.68564 0
M  V30 8862 C 791.86 -2.59085 -2.4619 0
M  V30 8863 S 793.419 -2.84997 -3.3365 0
M  V30 8864 H 790.237 -0.539713 -0.462851 0
M  V30 8865 H 792.839 -1.83386 -0.677489 0
M  V30 8866 H 791.543 -3.56177 -2.03878 0
M  V30 8867 H 791.074 -2.3015 -3.19053 0
M  V30 8868 H 793.089 -2.19804 -4.4486 0
M  V30 8869 N 792.262 0.832906 -1.33792 0
M  V30 8870 C 793.21 1.96455 -1.24532 0
M  V30 8871 C 794.204 1.68774 -0.145455 0
M  V30 8872 O 795.41 1.77314 -0.309797 0
M  V30 8873 H 791.785 0.645008 -0.386611 0
M  V30 8874 H 793.756 2.01389 -2.20193 0
M  V30 8875 C 792.505 3.32784 -1.00748 0
M  V30 8876 H 791.828 3.54626 -1.84609 0
M  V30 8877 H 793.268 4.12447 -0.98301 0
M  V30 8878 C 791.727 3.35654 0.289475 0
M  V30 8879 O 792.257 3.80281 1.29419 0
M  V30 8880 N 790.463 2.88843 0.3191 0
M  V30 8881 H 790.01 2.52719 -0.499069 0
M  V30 8882 H 789.968 2.91145 1.18667 0
M  V30 8883 N 793.74 1.17359 1.05189 0
M  V30 8884 C 794.67 0.91365 2.14883 0
M  V30 8885 C 795.651 -0.144365 1.69486 0
M  V30 8886 O 796.836 0.00587861 1.94199 0
M  V30 8887 C 793.966 0.426196 3.44675 0
M  V30 8888 C 792.92 1.4234 4.03638 0
M  V30 8889 C 792.246 0.793902 5.28773 0
M  V30 8890 C 793.546 2.7966 4.41121 0
M  V30 8891 H 795.24 1.831 2.36885 0
M  V30 8892 H 792.786 0.881781 1.13845 0
M  V30 8893 H 794.739 0.231767 4.20762 0
M  V30 8894 H 793.463 -0.526693 3.22325 0
M  V30 8895 H 792.122 1.60457 3.2962 0
M  V30 8896 H 791.77 -0.165824 5.02727 0
M  V30 8897 H 791.47 1.45959 5.69183 0
M  V30 8898 H 792.994 0.609747 6.07548 0
M  V30 8899 H 794.408 2.6526 5.08242 0
M  V30 8900 H 792.805 3.42807 4.92548 0
M  V30 8901 H 793.875 3.34068 3.51464 0
M  V30 8902 N 795.218 -1.23913 0.973828 0
M  V30 8903 C 796.15 -2.24397 0.466763 0
M  V30 8904 C 797.163 -1.57078 -0.427828 0
M  V30 8905 O 798.352 -1.76973 -0.233019 0
M  V30 8906 C 795.452 -3.37141 -0.344798 0
M  V30 8907 C 794.625 -4.34037 0.541349 0
M  V30 8908 C 793.684 -5.2576 -0.215243 0
M  V30 8909 O 792.71 -5.67842 0.39291 0
M  V30 8910 N 793.912 -5.60702 -1.5031 0
M  V30 8911 H 796.677 -2.68536 1.33074 0
M  V30 8912 H 794.238 -1.38017 0.846346 0
M  V30 8913 H 796.23 -3.95476 -0.859133 0
M  V30 8914 H 794.8 -2.92239 -1.10974 0
M  V30 8915 H 794.02 -3.74302 1.23659 0
M  V30 8916 H 795.308 -4.95738 1.1455 0
M  V30 8917 H 794.706 -5.28451 -2.01882 0
M  V30 8918 H 793.263 -6.21538 -1.96301 0
M  V30 8919 N 796.696 -0.74468 -1.38897 0
M  V30 8920 C 798.107 -0.36568 -1.83084 0
M  V30 8921 C 798.458 1.10436 -1.62168 0
M  V30 8922 O 797.583 1.85281 -1.11804 0
M  V30 8923 C 798.178 -0.656946 -3.3237 0
M  V30 8924 C 796.737 -0.331329 -3.74939 0
M  V30 8925 C 795.884 -0.914661 -2.61781 0
M  V30 8926 H 798.835 -0.941551 -1.27752 0
M  V30 8927 H 798.856 0.0679546 -3.80439 0
M  V30 8928 H 798.368 -1.72693 -3.47561 0
M  V30 8929 H 796.469 0.732426 -3.6533 0
M  V30 8930 H 796.582 -0.820655 -4.72019 0
M  V30 8931 H 794.946 -0.34063 -2.52412 0
M  V30 8932 H 795.729 -1.98949 -2.79775 0
M  V30 8933 N 798.174 1.49689 -0.493057 0
M  V30 8934 C 799.137 2.27502 0.278485 0
M  V30 8935 C 800.137 1.33184 0.901037 0
M  V30 8936 O 801.327 1.56415 0.766801 0
M  V30 8937 C 798.459 3.10881 1.39878 0
M  V30 8938 H 799.652 2.97163 -0.404219 0
M  V30 8939 H 797.205 1.54324 -0.247774 0
M  V30 8940 H 797.94 2.45767 2.11587 0
M  V30 8941 H 797.725 3.80219 0.957924 0
M  V30 8942 H 799.215 3.69673 1.94247 0
M  V30 8943 N 799.652 0.226554 1.55963 0
M  V30 8944 C 800.584 -0.713907 2.17798 0
M  V30 8945 C 801.597 -1.15387 1.14846 0
M  V30 8946 O 802.786 -1.08416 1.41804 0
M  V30 8947 C 799.886 -1.97945 2.75084 0
M  V30 8948 C 799.059 -1.69424 4.03255 0
M  V30 8949 C 798.118 -2.80734 4.45056 0
M  V30 8950 O 797.144 -2.4899 5.11852 0
M  V30 8951 N 798.346 -4.09797 4.11152 0
M  V30 8952 H 801.111 -0.18494 2.99129 0
M  V30 8953 H 798.672 0.0457346 1.61835 0
M  V30 8954 H 800.664 -2.71611 3.00016 0
M  V30 8955 H 799.234 -2.41876 1.98027 0
M  V30 8956 H 798.454 -0.793767 3.86126 0
M  V30 8957 H 799.742 -1.47806 4.86858 0
M  V30 8958 H 799.14 -4.38429 3.57486 0
M  V30 8959 H 797.697 -4.79992 4.40966 0
M  V30 8960 N 801.13 -1.57531 -0.0467866 0
M  V30 8961 C 802.377 -1.88451 -0.74112 0
M  V30 8962 C 802.705 -0.821592 -1.76296 0
M  V30 8963 O 801.96 0.179585 -1.94874 0
M  V30 8964 C 802.259 -3.26091 -1.46285 0
M  V30 8965 C 801.925 -4.47171 -0.578669 0
M  V30 8966 C 800.587 -4.80032 -0.335083 0
M  V30 8967 C 802.939 -5.2119 0.0328809 0
M  V30 8968 C 800.267 -5.84309 0.529121 0
M  V30 8969 C 802.619 -6.26383 0.884684 0
M  V30 8970 C 801.283 -6.57729 1.1379 0
M  V30 8971 H 800.553 -0.68959 -0.271195 0
M  V30 8972 H 803.2 -1.915 -0.00132378 0
M  V30 8973 H 801.505 -3.18948 -2.27551 0
M  V30 8974 H 803.202 -3.47258 -2.00532 0
M  V30 8975 H 799.792 -4.21467 -0.778666 0
M  V30 8976 H 803.976 -4.96096 -0.142375 0
M  V30 8977 H 799.232 -6.06981 0.733794 0
M  V30 8978 H 803.406 -6.82888 1.36516 0
M  V30 8979 H 801.033 -7.38355 1.80929 0
M  V30 8980 N 802.608 0.318715 -1.54344 0
M  V30 8981 C 803.857 1.05363 -1.71993 0
M  V30 8982 C 804.17 1.89018 -0.503155 0
M  V30 8983 O 805.376 2.65639 -0.561085 0
M  V30 8984 C 803.832 1.92281 -3.0423 0
M  V30 8985 C 803.44 1.13715 -4.33328 0
M  V30 8986 C 805.184 2.65479 -3.31242 0
M  V30 8987 C 803.091 1.99806 -5.56625 0
M  V30 8988 H 802.021 0.397081 -0.64097 0
M  V30 8989 H 804.672 0.311598 -1.80835 0
M  V30 8990 H 803.054 2.70402 -2.89307 0
M  V30 8991 H 804.228 0.403305 -4.59032 0
M  V30 8992 H 802.543 0.521769 -4.13118 0
M  V30 8993 H 805.14 3.30209 -4.20555 0
M  V30 8994 H 805.483 3.33374 -2.49334 0
M  V30 8995 H 806.016 1.94417 -3.47054 0
M  V30 8996 H 802.755 1.36411 -6.41149 0
M  V30 8997 H 802.275 2.70911 -5.35133 0
M  V30 8998 H 803.954 2.58277 -5.93213 0
M  V30 8999 N 804.086 1.46499 0.581025 0
M  V30 9000 C 805.036 1.53606 1.68491 0
M  V30 9001 C 806.02 0.396853 1.55929 0
M  V30 9002 O 807.212 0.645366 1.64815 0
M  V30 9003 C 804.341 1.53089 3.07276 0
M  V30 9004 C 803.427 2.72309 3.25128 0
M  V30 9005 N 803.818 3.97216 3.13134 0
M  V30 9006 C 802.116 2.68568 3.56072 0
M  V30 9007 C 802.817 4.7693 3.33036 0
M  V30 9008 N 801.793 4.08833 3.58269 0
M  V30 9009 H 805.595 2.47976 1.5775 0
M  V30 9010 H 803.109 1.42161 0.785104 0
M  V30 9011 H 805.106 1.56268 3.86505 0
M  V30 9012 H 803.766 0.597969 3.19146 0
M  V30 9013 H 804.777 4.28439 2.90964 0
M  V30 9014 H 801.454 1.84307 3.74616 0
M  V30 9015 H 802.844 5.85879 3.28932 0
M  V30 9016 N 805.565 -0.825799 1.34232 0
M  V30 9017 C 806.811 -1.58419 1.26614 0
M  V30 9018 C 807.144 -1.93503 -0.164341 0
M  V30 9019 O 806.419 -1.59785 -1.109 0
M  V30 9020 C 806.702 -2.8856 2.15418 0
M  V30 9021 C 806.555 -2.60075 3.66989 0
M  V30 9022 C 807.874 -3.90107 2.03726 0
M  V30 9023 H 804.993 -0.574794 0.461282 0
M  V30 9024 H 807.635 -0.951519 1.64457 0
M  V30 9025 H 805.785 -3.42553 1.83275 0
M  V30 9026 H 807.457 -2.12414 4.09485 0
M  V30 9027 H 805.7 -1.93565 3.88221 0
M  V30 9028 H 806.371 -3.52866 4.24488 0
M  V30 9029 H 808.847 -3.45459 2.31942 0
M  V30 9030 H 807.723 -4.78976 2.68092 0
M  V30 9031 H 807.984 -4.30329 1.01337 0
M  V30 9032 N 807.043 -1.17915 -1.04565 0
M  V30 9033 C 807.973 -0.925033 -2.14395 0
M  V30 9034 C 808.954 0.135375 -1.6956 0
M  V30 9035 O 810.139 -0.0161774 -1.94193 0
M  V30 9036 C 807.269 -0.444469 -3.44444 0
M  V30 9037 C 806.223 -1.44478 -4.02877 0
M  V30 9038 C 805.549 -0.821933 -5.28345 0
M  V30 9039 C 806.849 -2.81995 -4.39632 0
M  V30 9040 H 808.543 -1.84354 -2.35911 0
M  V30 9041 H 806.089 -0.887806 -1.13375 0
M  V30 9042 H 808.042 -0.254078 -4.20633 0
M  V30 9043 H 806.766 0.509592 -3.226 0
M  V30 9044 H 805.425 -1.62203 -3.28764 0
M  V30 9045 H 805.073 0.139161 -5.02807 0
M  V30 9046 H 804.773 -1.48976 -5.68401 0
M  V30 9047 H 806.297 -0.641959 -6.07216 0
M  V30 9048 H 807.711 -2.67952 -5.06828 0
M  V30 9049 H 806.108 -3.45414 -4.90723 0
M  V30 9050 H 807.178 -3.35927 -3.49687 0
M  V30 9051 N 808.521 1.23394 -0.980386 0
M  V30 9052 C 809.769 1.91431 -0.647978 0
M  V30 9053 C 810.09 1.76871 0.821066 0
M  V30 9054 O 809.36 1.14808 1.58732 0
M  V30 9055 H 807.94 0.708516 -0.236673 0
M  V30 9056 H 810.602 1.50019 -1.2442 0
M  V30 9057 H 809.698 2.98854 -0.899592 0
M  V30 9058 N 809.999 0.752036 1.385 0
M  V30 9059 C 810.947 0.112634 2.32327 0
M  V30 9060 C 811.941 -0.707037 1.53939 0
M  V30 9061 O 813.147 -0.606309 1.69481 0
M  V30 9062 H 809.522 0.0176275 0.751793 0
M  V30 9063 H 811.493 0.920074 2.83861 0
M  V30 9064 C 810.242 -0.767458 3.39124 0
M  V30 9065 H 809.565 -0.146122 3.99533 0
M  V30 9066 H 811.005 -1.18216 4.07187 0
M  V30 9067 C 809.464 -1.90938 2.77568 0
M  V30 9068 O 809.994 -3.00342 2.66754 0
M  V30 9069 N 808.2 -1.70396 2.35401 0
M  V30 9070 H 807.747 -0.81413 2.44397 0
M  V30 9071 H 807.705 -2.46972 1.94557 0
M  V30 9072 N 811.477 -1.49425 0.500989 0
M  V30 9073 C 812.44 -2.27646 -0.266416 0
M  V30 9074 C 813.44 -1.3366 -0.893961 0
M  V30 9075 O 814.63 -1.5682 -0.758495 0
M  V30 9076 C 811.762 -3.11618 -1.38227 0
M  V30 9077 H 812.955 -2.96945 0.419973 0
M  V30 9078 H 810.508 -1.5419 0.255954 0
M  V30 9079 H 811.243 -2.46885 -2.10281 0
M  V30 9080 H 811.028 -3.80721 -0.937746 0
M  V30 9081 H 812.518 -3.70698 -1.92283 0
M  V30 9082 N 812.955 -0.234822 -1.55841 0
M  V30 9083 C 813.905 0.68346 -2.17515 0
M  V30 9084 C 814.889 1.14798 -1.1274 0
M  V30 9085 O 816.081 1.09976 -1.38688 0
M  V30 9086 C 813.21 1.88551 -2.86886 0
M  V30 9087 C 812.296 1.44006 -3.98903 0
M  V30 9088 N 812.687 0.708034 -5.0082 0
M  V30 9089 C 810.985 1.7263 -4.11236 0
M  V30 9090 C 811.686 0.479036 -5.79724 0
M  V30 9091 N 810.662 1.03968 -5.33565 0
M  V30 9092 H 814.464 0.115897 -2.93671 0
M  V30 9093 H 811.978 -0.0366273 -1.62359 0
M  V30 9094 H 813.975 2.55425 -3.2949 0
M  V30 9095 H 812.635 2.45742 -2.12229 0
M  V30 9096 H 813.646 0.359363 -5.16652 0
M  V30 9097 H 810.323 2.31046 -3.47741 0
M  V30 9098 H 811.713 -0.104514 -6.71819 0
M  V30 9099 N 814.433 1.57553 0.0384317 0
M  V30 9100 C 815.679 1.89121 0.732199 0
M  V30 9101 C 816.012 0.831404 1.75503 0
M  V30 9102 O 815.287 -0.154642 1.93884 0
M  V30 9103 C 815.57 3.31338 1.41021 0
M  V30 9104 C 815.423 4.48004 0.401532 0
M  V30 9105 C 816.742 3.72318 2.34665 0
M  V30 9106 H 813.861 0.687819 0.264715 0
M  V30 9107 H 816.503 1.89999 -0.00496279 0
M  V30 9108 H 814.653 3.3072 2.03854 0
M  V30 9109 H 816.325 4.60755 -0.224159 0
M  V30 9110 H 814.568 4.32895 -0.280092 0
M  V30 9111 H 815.239 5.44377 0.91423 0
M  V30 9112 H 817.715 3.74243 1.81883 0
M  V30 9113 H 816.591 4.72652 2.7909 0
M  V30 9114 H 816.852 3.04062 3.20934 0
M  V30 9115 N 815.911 -0.310526 1.54511 0
M  V30 9116 C 817.141 -1.06456 1.77061 0
M  V30 9117 C 817.549 -1.81755 0.525528 0
M  V30 9118 O 816.892 -1.76365 -0.513904 0
M  V30 9119 C 816.954 -2.09856 2.91892 0
M  V30 9120 C 816.618 -1.53838 4.30329 0
M  V30 9121 C 817.615 -0.973358 5.10707 0
M  V30 9122 C 815.3 -1.57688 4.76906 0
M  V30 9123 C 817.294 -0.454283 6.35779 0
M  V30 9124 C 814.981 -1.05393 6.01943 0
M  V30 9125 C 815.979 -0.493595 6.81214 0
M  V30 9126 O 815.667 0.0214506 8.03897 0
M  V30 9127 H 815.399 -0.321913 0.594431 0
M  V30 9128 H 817.953 -0.358289 2.02251 0
M  V30 9129 H 816.183 -2.84137 2.62304 0
M  V30 9130 H 817.872 -2.71085 3.02106 0
M  V30 9131 H 818.638 -0.936588 4.75871 0
M  V30 9132 H 814.517 -2.00242 4.1524 0
M  V30 9133 H 818.061 -0.0162657 6.97598 0
M  V30 9134 H 813.958 -1.08782 6.36268 0
M  V30 9135 H 814.726 -0.0927478 8.18447 0
M  V30 9136 N 817.389 -1.46805 -0.573248 0
M  V30 9137 C 818.337 -1.58468 -1.70267 0
M  V30 9138 C 819.331 -0.452694 -1.63239 0
M  V30 9139 O 820.537 -0.629915 -1.68618 0
M  V30 9140 H 816.912 -0.498408 -0.56311 0
M  V30 9141 H 818.883 -2.5341 -1.57563 0
M  V30 9142 C 817.632 -1.60104 -3.08645 0
M  V30 9143 H 816.955 -2.4655 -3.14727 0
M  V30 9144 H 818.395 -1.72318 -3.87405 0
M  V30 9145 C 816.854 -0.33138 -3.35266 0
M  V30 9146 O 817.384 0.57438 -3.97572 0
M  V30 9147 N 815.59 -0.216358 -2.89793 0
M  V30 9148 H 815.137 -0.954345 -2.3927 0
M  V30 9149 H 815.095 0.632253 -3.07977 0
M  V30 9150 N 818.867 0.818669 -1.34668 0
M  V30 9151 C 819.815 1.95123 -1.26609 0
M  V30 9152 C 820.809 1.68611 -0.163348 0
M  V30 9153 O 822.015 1.76975 -0.328586 0
M  V30 9154 H 818.39 0.640871 -0.393431 0
M  V30 9155 H 820.361 1.99043 -2.22316 0
M  V30 9156 C 819.11 3.31697 -1.04272 0
M  V30 9157 H 818.433 3.52648 -1.8836 0
M  V30 9158 H 819.873 4.11382 -1.0267 0
M  V30 9159 C 818.332 3.35942 0.253858 0
M  V30 9160 O 818.862 3.81632 1.25378 0
M  V30 9161 N 817.068 2.89165 0.288447 0
M  V30 9162 H 816.615 2.52176 -0.525845 0
M  V30 9163 H 816.573 2.92387 1.15572 0
M  V30 9164 N 820.346 1.18468 1.03938 0
M  V30 9165 C 821.296 0.880799 2.103 0
M  V30 9166 C 822.28 -0.150008 1.60199 0
M  V30 9167 O 823.472 0.054213 1.76917 0
M  V30 9168 C 820.601 0.409723 3.40846 0
M  V30 9169 C 819.687 1.47267 3.9771 0
M  V30 9170 N 820.078 2.68945 4.28371 0
M  V30 9171 C 818.376 1.33349 4.25598 0
M  V30 9172 C 819.077 3.37341 4.73894 0
M  V30 9173 N 818.053 2.64725 4.74786 0
M  V30 9174 H 821.855 1.80574 2.31884 0
M  V30 9175 H 819.369 1.07527 1.21703 0
M  V30 9176 H 821.366 0.17352 4.16539 0
M  V30 9177 H 820.026 -0.508862 3.20688 0
M  V30 9178 H 821.037 3.05801 4.17978 0
M  V30 9179 H 817.714 0.477548 4.1476 0
M  V30 9180 H 819.104 4.41338 5.06627 0
M  V30 9181 N 821.824 -1.22873 0.986916 0
M  V30 9182 C 823.073 -1.90772 0.654911 0
M  V30 9183 C 823.386 -1.77768 -0.81595 0
M  V30 9184 O 824.592 -2.40529 -1.25929 0
M  V30 9185 C 823.048 -3.42003 1.12081 0
M  V30 9186 C 822.656 -3.63655 2.61647 0
M  V30 9187 C 824.4 -4.15638 0.862854 0
M  V30 9188 C 822.307 -5.08555 3.01871 0
M  V30 9189 H 821.237 -0.714362 0.241252 0
M  V30 9190 H 823.888 -1.39196 1.19568 0
M  V30 9191 H 822.27 -3.92725 0.508207 0
M  V30 9192 H 823.444 -3.2345 3.28202 0
M  V30 9193 H 821.759 -3.03341 2.8526 0
M  V30 9194 H 824.356 -5.22425 1.13915 0
M  V30 9195 H 824.699 -4.15814 -0.201036 0
M  V30 9196 H 825.232 -3.70924 1.43736 0
M  V30 9197 H 821.971 -5.13514 4.07411 0
M  V30 9198 H 821.491 -5.49684 2.40015 0
M  V30 9199 H 823.17 -5.76936 2.92839 0
M  V30 9200 N 823.302 -0.75937 -1.38099 0
M  V30 9201 C 824.579 -0.243371 -1.9408 0
M  V30 9202 C 824.959 1.25942 -1.69416 0
M  V30 9203 O 824.307 2.03667 -1.03595 0
M  V30 9204 C 824.517 -0.603328 -3.43745 0
M  V30 9205 C 825.865 -0.566195 -4.20808 0
M  V30 9206 O 826.889 -0.541969 -3.52053 0
M  V30 9207 O 825.748 -0.582261 -5.43389 0
M  V30 9208 H 822.842 -0.0526825 -0.82532 0
M  V30 9209 H 825.388 -0.839884 -1.47459 0
M  V30 9210 H 824.16 -1.64098 -3.55229 0
M  V30 9211 H 823.783 0.0208887 -3.97595 0
M  V30 9212 N 824.78 1.49157 -0.508906 0
M  V30 9213 C 826.005 2.07376 0.0315182 0
M  V30 9214 C 826.43 1.36575 1.2934 0
M  V30 9215 O 825.788 0.424963 1.76249 0
M  V30 9216 C 825.836 3.59661 0.260118 0
M  V30 9217 O 824.94 3.90255 1.33322 0
M  V30 9218 H 824.281 0.663334 -0.029739 0
M  V30 9219 H 826.811 1.91857 -0.710791 0
M  V30 9220 H 826.821 4.05056 0.489225 0
M  V30 9221 H 825.496 4.10601 -0.661794 0
M  V30 9222 H 824.073 3.56661 1.08844 0
M  V30 9223 N 826.258 0.243083 1.55714 0
M  V30 9224 C 827.188 -0.652336 2.24203 0
M  V30 9225 C 828.169 -1.1843 1.221 0
M  V30 9226 O 829.354 -1.22435 1.50743 0
M  V30 9227 C 826.484 -1.85111 2.93856 0
M  V30 9228 C 825.438 -1.45208 4.02615 0
M  V30 9229 C 824.764 -2.73137 4.59674 0
M  V30 9230 C 826.064 -0.625988 5.18535 0
M  V30 9231 H 827.758 -0.0812504 2.9929 0
M  V30 9232 H 825.304 -0.0376388 1.43951 0
M  V30 9233 H 827.257 -2.48314 3.40468 0
M  V30 9234 H 825.981 -2.44751 2.16251 0
M  V30 9235 H 824.64 -0.843406 3.56766 0
M  V30 9236 H 824.288 -3.30967 3.78774 0
M  V30 9237 H 823.988 -2.47163 5.33089 0
M  V30 9238 H 825.512 -3.37245 5.09017 0
M  V30 9239 H 826.926 -1.16223 5.61396 0
M  V30 9240 H 825.323 -0.462465 5.98315 0
M  V30 9241 H 826.393 0.362652 4.83542 0
M  V30 9242 N 827.736 -1.57571 -0.0300757 0
M  V30 9243 C 828.683 -2.06492 -1.03101 0
M  V30 9244 C 829.653 -0.953862 -1.3598 0
M  V30 9245 O 830.838 -1.22436 -1.46335 0
M  V30 9246 C 827.978 -2.54826 -2.32718 0
M  V30 9247 C 827.091 -3.79718 -2.06006 0
M  V30 9248 C 826.226 -4.16668 -3.29487 0
M  V30 9249 C 825.265 -5.3448 -2.98324 0
M  V30 9250 N 824.402 -5.66867 -4.14254 0
M  V30 9251 H 829.242 -2.91755 -0.606877 0
M  V30 9252 H 826.779 -1.44252 -0.288038 0
M  V30 9253 H 828.737 -2.80916 -3.08451 0
M  V30 9254 H 827.367 -1.72481 -2.72856 0
M  V30 9255 H 826.419 -3.60718 -1.20774 0
M  V30 9256 H 827.731 -4.65569 -1.79017 0
M  V30 9257 H 826.885 -4.43881 -4.13588 0
M  V30 9258 H 825.624 -3.29466 -3.59588 0
M  V30 9259 H 824.629 -5.07021 -2.12625 0
M  V30 9260 H 825.854 -6.23334 -2.69502 0
M  V30 9261 H 823.8 -4.82625 -4.44308 0
M  V30 9262 H 823.717 -6.47226 -3.90685 0
M  V30 9263 H 824.985 -5.98656 -4.99231 0
M  V30 9264 N 829.214 0.302327 -1.54673 0
M  V30 9265 C 830.463 1.03533 -1.73101 0
M  V30 9266 C 830.776 1.88473 -0.523174 0
M  V30 9267 O 831.982 2.65029 -0.589229 0
M  V30 9268 C 830.438 1.89043 -3.06252 0
M  V30 9269 C 830.046 1.09112 -4.3451 0
M  V30 9270 C 831.79 2.61951 -3.34039 0
M  V30 9271 C 829.697 1.93891 -5.58713 0
M  V30 9272 H 828.627 0.390261 -0.645145 0
M  V30 9273 H 831.278 0.2924 -1.81155 0
M  V30 9274 H 829.66 2.67319 -2.92159 0
M  V30 9275 H 830.834 0.354596 -4.59434 0
M  V30 9276 H 829.149 0.477923 -4.13648 0
M  V30 9277 H 831.746 3.25729 -4.24033 0
M  V30 9278 H 832.089 3.30711 -2.52855 0
M  V30 9279 H 832.622 1.90725 -3.49097 0
M  V30 9280 H 829.361 1.29604 -6.4256 0
M  V30 9281 H 828.881 2.6522 -5.37976 0
M  V30 9282 H 830.56 2.51971 -5.95919 0
M  V30 9283 N 830.692 1.47107 0.565454 0
M  V30 9284 C 831.624 1.55024 1.6882 0
M  V30 9285 C 832.637 0.4371 1.56822 0
M  V30 9286 O 833.826 0.706315 1.63931 0
M  V30 9287 C 830.926 1.43069 3.0722 0
M  V30 9288 C 830.099 2.68807 3.45053 0
M  V30 9289 C 829.158 2.50806 4.62583 0
M  V30 9290 O 828.184 3.24593 4.67577 0
M  V30 9291 N 829.386 1.58093 5.58558 0
M  V30 9292 H 832.151 2.51836 1.62477 0
M  V30 9293 H 829.712 1.43382 0.751885 0
M  V30 9294 H 831.704 1.28773 3.83666 0
M  V30 9295 H 830.274 0.543721 3.07835 0
M  V30 9296 H 829.494 2.97923 2.58138 0
M  V30 9297 H 830.782 3.52298 3.67101 0
M  V30 9298 H 830.18 0.972807 5.57273 0
M  V30 9299 H 828.737 1.49753 6.34364 0
M  V30 9300 N 832.17 -0.811516 1.35101 0
M  V30 9301 C 833.1 -1.9378 1.30275 0
M  V30 9302 C 834.081 -1.69165 0.178075 0
M  V30 9303 O 835.266 -1.90599 0.372256 0
M  V30 9304 C 832.396 -3.30439 1.06899 0
M  V30 9305 C 831.35 -3.69523 2.15955 0
M  V30 9306 C 830.676 -5.0429 1.77751 0
M  V30 9307 C 831.976 -3.80419 3.57881 0
M  V30 9308 H 833.67 -1.98075 2.24514 0
M  V30 9309 H 831.216 -0.951586 1.08078 0
M  V30 9310 H 833.169 -4.08828 1.02164 0
M  V30 9311 H 831.893 -3.26473 0.0910462 0
M  V30 9312 H 830.552 -2.93416 2.19778 0
M  V30 9313 H 830.2 -4.96823 0.785876 0
M  V30 9314 H 829.9 -5.31411 2.5075 0
M  V30 9315 H 831.424 -5.85125 1.74533 0
M  V30 9316 H 832.838 -4.49051 3.56407 0
M  V30 9317 H 831.235 -4.19005 4.29598 0
M  V30 9318 H 832.305 -2.82105 3.94391 0
M  V30 9319 N 833.648 -1.19017 -1.03309 0
M  V30 9320 C 834.596 -0.920627 -2.13605 0
M  V30 9321 C 835.59 0.121969 -1.6896 0
M  V30 9322 O 836.796 -0.0268854 -1.7998 0
M  V30 9323 H 833.171 -0.280284 -0.697814 0
M  V30 9324 H 835.142 -1.85755 -2.33533 0
M  V30 9325 C 833.891 -0.471198 -3.44492 0
M  V30 9326 H 833.214 -1.26499 -3.7926 0
M  V30 9327 H 834.654 -0.321663 -4.22778 0
M  V30 9328 C 833.113 0.81411 -3.26916 0
M  V30 9329 O 833.643 1.87654 -3.55175 0
M  V30 9330 N 831.849 0.769695 -2.80221 0
M  V30 9331 H 831.396 -0.0951278 -2.57424 0
M  V30 9332 H 831.354 1.63008 -2.68842 0
M  V30 9333 N 835.127 1.22348 -0.993418 0
M  V30 9334 C 836.543 1.43222 -0.704238 0
M  V30 9335 C 836.743 1.88009 0.724909 0
M  V30 9336 O 835.799 2.03429 1.49575 0
M  V30 9337 C 837.112 2.47328 -1.71025 0
M  V30 9338 C 838.66 2.61126 -1.72576 0
M  V30 9339 C 839.135 3.68453 -2.72041 0
M  V30 9340 N 840.626 3.75911 -2.70639 0
M  V30 9341 C 841.361 4.58551 -3.44266 0
M  V30 9342 N 840.857 5.45179 -4.27495 0
M  V30 9343 N 842.65 4.52866 -3.32969 0
M  V30 9344 H 834.801 0.915832 -1.91641 0
M  V30 9345 H 837.064 0.464283 -0.826526 0
M  V30 9346 H 836.77 2.21366 -2.73295 0
M  V30 9347 H 836.644 3.45939 -1.50353 0
M  V30 9348 H 839.031 2.86431 -0.710037 0
M  V30 9349 H 839.112 1.62787 -1.97317 0
M  V30 9350 H 838.756 3.43895 -3.73763 0
M  V30 9351 H 838.686 4.66362 -2.4457 0
M  V30 9352 H 841.177 3.14014 -2.10247 0
M  V30 9353 H 841.49 6.0526 -4.80499 0
M  V30 9354 H 839.835 5.44759 -4.31582 0
M  V30 9355 H 843.026 3.84215 -2.67389 0
M  V30 9356 H 843.199 5.17039 -3.90608 0
M  V30 9357 N 836.605 0.766683 1.37694 0
M  V30 9358 C 837.854 0.325425 1.99057 0
M  V30 9359 C 838.167 -1.10275 1.61551 0
M  V30 9360 O 839.373 -1.64513 2.1598 0
M  V30 9361 C 837.829 0.530886 3.55963 0
M  V30 9362 C 837.437 1.96899 4.02411 0
M  V30 9363 C 839.181 0.152997 4.24224 0
M  V30 9364 C 837.088 2.12232 5.52007 0
M  V30 9365 H 836.018 0.117929 0.744721 0
M  V30 9366 H 838.669 0.945091 1.5729 0
M  V30 9367 H 837.051 -0.158162 3.95684 0
M  V30 9368 H 838.225 2.69258 3.73948 0
M  V30 9369 H 836.54 2.303 3.46916 0
M  V30 9370 H 839.137 0.24614 5.34133 0
M  V30 9371 H 839.48 -0.896096 4.06541 0
M  V30 9372 H 840.013 0.794398 3.89787 0
M  V30 9373 H 836.752 3.15442 5.7461 0
M  V30 9374 H 836.272 1.4435 5.82171 0
M  V30 9375 H 837.951 1.9185 6.17902 0
M  V30 9376 N 838.083 -1.48885 0.516809 0
M  V30 9377 C 839.494 -1.86557 0.0729921 0
M  V30 9378 C 839.845 -1.42767 -1.34581 0
M  V30 9379 O 838.97 -0.812514 -2.00567 0
M  V30 9380 C 839.565 -3.38567 0.125686 0
M  V30 9381 C 838.124 -3.75481 -0.262867 0
M  V30 9382 C 837.271 -2.72913 0.491281 0
M  V30 9383 H 840.222 -1.40978 0.728767 0
M  V30 9384 H 840.243 -3.74629 -0.665831 0
M  V30 9385 H 839.755 -3.70408 1.15842 0
M  V30 9386 H 837.856 -3.49251 -1.29824 0
M  V30 9387 H 837.969 -4.79052 0.067579 0
M  V30 9388 H 836.333 -2.54627 -0.0608525 0
M  V30 9389 H 837.116 -3.07599 1.5244 0
M  V30 9390 N 839.561 -0.251338 -1.55583 0
M  V30 9391 C 840.791 0.375642 -2.03156 0
M  V30 9392 C 841.199 1.51761 -1.12983 0
M  V30 9393 O 840.542 1.83184 -0.13757 0
M  V30 9394 C 840.604 0.941001 -3.46966 0
M  V30 9395 C 840.268 -0.0692886 -4.56947 0
M  V30 9396 C 841.265 -0.88041 -5.12391 0
M  V30 9397 C 838.95 -0.196661 -5.01915 0
M  V30 9398 C 840.944 -1.80532 -6.11299 0
M  V30 9399 C 838.631 -1.12507 -6.00654 0
M  V30 9400 C 839.629 -1.92792 -6.55225 0
M  V30 9401 O 839.317 -2.84067 -7.52038 0
M  V30 9402 H 839.049 0.0928836 -0.669588 0
M  V30 9403 H 841.603 -0.374115 -2.01964 0
M  V30 9404 H 839.833 1.7404 -3.45322 0
M  V30 9405 H 841.522 1.47853 -3.78014 0
M  V30 9406 H 842.288 -0.792615 -4.78479 0
M  V30 9407 H 838.167 0.418187 -4.59099 0
M  V30 9408 H 841.711 -2.43239 -6.5382 0
M  V30 9409 H 837.608 -1.21377 -6.33986 0
M  V30 9410 H 838.376 -2.78479 -7.6967 0
M  V30 9411 N 841.039 1.57585 0.0217189 0
M  V30 9412 C 842.45 1.7787 0.567377 0
M  V30 9413 C 842.801 0.883337 1.7519 0
M  V30 9414 O 841.926 0.0800819 2.16252 0
M  V30 9415 C 842.521 3.2257 1.03606 0
M  V30 9416 C 841.08 3.44026 1.52718 0
M  V30 9417 C 840.227 2.73313 0.468545 0
M  V30 9418 H 843.178 1.57377 -0.2045 0
M  V30 9419 H 843.199 3.29488 1.9031 0
M  V30 9420 H 842.711 3.87711 0.173739 0
M  V30 9421 H 840.812 2.8407 2.41111 0
M  V30 9422 H 840.925 4.52659 1.56962 0
M  V30 9423 H 839.289 2.37299 0.925263 0
M  V30 9424 H 840.072 3.41141 -0.384438 0
M  V30 9425 N 842.517 -0.29412 1.54831 0
M  V30 9426 C 843.764 -1.02846 1.74439 0
M  V30 9427 C 844.092 -1.87029 0.533905 0
M  V30 9428 O 843.347 -1.8962 -0.484035 0
M  V30 9429 C 843.646 -1.95782 2.99006 0
M  V30 9430 C 843.312 -1.2752 4.32492 0
M  V30 9431 C 841.974 -1.08637 4.68777 0
M  V30 9432 C 844.326 -0.787761 5.15212 0
M  V30 9433 C 841.654 -0.39704 5.85355 0
M  V30 9434 C 844.006 -0.112123 6.32501 0
M  V30 9435 C 842.67 0.0886071 6.67441 0
M  V30 9436 H 841.94 -0.376341 0.638317 0
M  V30 9437 H 844.587 -0.302684 1.89093 0
M  V30 9438 H 842.892 -2.74911 2.79162 0
M  V30 9439 H 844.589 -2.52684 3.11371 0
M  V30 9440 H 841.179 -1.43226 4.03961 0
M  V30 9441 H 845.363 -0.921341 4.87673 0
M  V30 9442 H 840.619 -0.230597 6.10965 0
M  V30 9443 H 844.793 0.27344 6.95863 0
M  V30 9444 H 842.42 0.624748 7.57628 0
M  V30 9445 N 843.995 -1.47404 -0.557645 0
M  V30 9446 C 845.406 -1.47872 -1.13977 0
M  V30 9447 C 845.757 -0.233176 -1.94809 0
M  V30 9448 O 844.882 0.661945 -2.06027 0
M  V30 9449 C 845.477 -2.67926 -2.07368 0
M  V30 9450 C 844.036 -2.71354 -2.60852 0
M  V30 9451 C 843.183 -2.40967 -1.37223 0
M  V30 9452 H 846.134 -1.54921 -0.344268 0
M  V30 9453 H 846.155 -2.44871 -2.91236 0
M  V30 9454 H 845.667 -3.58562 -1.48509 0
M  V30 9455 H 843.768 -1.84855 -3.23511 0
M  V30 9456 H 843.881 -3.72032 -3.01876 0
M  V30 9457 H 842.245 -1.91541 -1.67882 0
M  V30 9458 H 843.028 -3.33811 -0.801583 0
M  V30 9459 N 845.473 0.80434 -1.35529 0
M  V30 9460 C 846.701 1.59283 -1.32048 0
M  V30 9461 C 847.116 1.88527 0.101556 0
M  V30 9462 O 846.473 1.48975 1.05417 0
M  V30 9463 C 846.524 2.92276 -2.12737 0
M  V30 9464 O 846.245 2.64299 -3.49396 0
M  V30 9465 C 847.746 3.86631 -2.16867 0
M  V30 9466 H 844.966 0.494523 -0.453528 0
M  V30 9467 H 847.51 0.999415 -1.78415 0
M  V30 9468 H 845.665 3.48125 -1.69964 0
M  V30 9469 H 846.079 3.4923 -3.91329 0
M  V30 9470 H 847.553 4.77053 -2.77712 0
M  V30 9471 H 848.03 4.23384 -1.16803 0
M  V30 9472 H 848.636 3.36717 -2.59811 0
M  V30 9473 N 846.951 1.19563 1.02676 0
M  V30 9474 C 847.881 0.959024 2.12897 0
M  V30 9475 C 848.862 -0.108382 1.69754 0
M  V30 9476 O 850.047 0.0470698 1.94143 0
M  V30 9477 C 847.177 0.499211 3.43693 0
M  V30 9478 C 846.131 1.5087 4.00528 0
M  V30 9479 C 845.457 0.905884 5.2697 0
M  V30 9480 C 846.757 2.88954 4.3509 0
M  V30 9481 H 848.451 1.88084 2.32948 0
M  V30 9482 H 845.997 0.905731 1.11949 0
M  V30 9483 H 847.95 0.320965 4.20176 0
M  V30 9484 H 846.674 -0.458205 3.2337 0
M  V30 9485 H 845.333 1.67413 3.26142 0
M  V30 9486 H 844.981 -0.0591506 5.02965 0
M  V30 9487 H 844.681 1.58 5.65959 0
M  V30 9488 H 846.205 0.73848 6.06118 0
M  V30 9489 H 847.619 2.75981 5.02501 0
M  V30 9490 H 846.016 3.53177 4.85166 0
M  V30 9491 H 847.086 3.41447 3.44299 0
M  V30 9492 N 848.429 -1.21819 0.999893 0
M  V30 9493 C 849.376 -2.24003 0.556005 0
M  V30 9494 C 850.346 -1.60825 -0.415287 0
M  V30 9495 O 851.531 -1.88123 -0.318481 0
M  V30 9496 C 848.671 -3.44904 -0.116289 0
M  V30 9497 C 847.784 -4.22573 0.897574 0
M  V30 9498 C 846.919 -5.30831 0.198073 0
M  V30 9499 C 845.958 -6.00225 1.19983 0
M  V30 9500 N 845.095 -7.00111 0.528157 0
M  V30 9501 H 849.935 -2.61334 1.43208 0
M  V30 9502 H 847.472 -1.28431 0.717205 0
M  V30 9503 H 849.43 -4.13908 -0.523055 0
M  V30 9504 H 848.06 -3.08315 -0.956108 0
M  V30 9505 H 847.112 -3.52797 1.42262 0
M  V30 9506 H 848.424 -4.70363 1.66013 0
M  V30 9507 H 847.578 -6.06121 -0.265065 0
M  V30 9508 H 846.317 -4.84033 -0.596924 0
M  V30 9509 H 845.322 -5.23711 1.67353 0
M  V30 9510 H 846.547 -6.4911 1.99582 0
M  V30 9511 H 844.493 -6.55534 -0.247276 0
M  V30 9512 H 844.41 -7.45943 1.22904 0
M  V30 9513 H 845.678 -7.7945 0.0880543 0
M  V30 9514 N 849.908 -0.773975 -1.37286 0
M  V30 9515 C 850.838 -0.175782 -2.32837 0
M  V30 9516 C 851.819 0.680603 -1.5589 0
M  V30 9517 O 853.004 0.617607 -1.84117 0
M  V30 9518 C 850.134 0.702388 -3.40123 0
M  V30 9519 C 849.088 -0.0528687 -4.27967 0
M  V30 9520 C 848.414 0.944891 -5.26285 0
M  V30 9521 C 849.714 -1.23316 -5.07534 0
M  V30 9522 H 851.408 -0.974016 -2.83114 0
M  V30 9523 H 848.954 -0.469826 -1.3612 0
M  V30 9524 H 850.907 1.13069 -4.05947 0
M  V30 9525 H 849.631 1.53316 -2.88378 0
M  V30 9526 H 848.29 -0.461978 -3.63678 0
M  V30 9527 H 847.938 1.77028 -4.70819 0
M  V30 9528 H 847.638 0.444079 -5.8592 0
M  V30 9529 H 849.162 1.37209 -5.94984 0
M  V30 9530 H 850.576 -0.881395 -5.66484 0
M  V30 9531 H 848.973 -1.66621 -5.76504 0
M  V30 9532 H 850.043 -2.03617 -4.40077 0
M  V30 9533 N 851.386 1.48609 -0.524698 0
M  V30 9534 C 852.334 2.31205 0.254398 0
M  V30 9535 C 853.328 1.40894 0.940491 0
M  V30 9536 O 854.534 1.57827 0.865478 0
M  V30 9537 H 850.909 0.745199 0.100907 0
M  V30 9538 H 852.88 2.94804 -0.461876 0
M  V30 9539 C 851.629 3.2282 1.2916 0
M  V30 9540 H 850.952 3.92255 0.773074 0
M  V30 9541 H 852.392 3.83508 1.80825 0
M  V30 9542 C 850.851 2.4406 2.32242 0
M  V30 9543 O 851.381 2.16163 3.3858 0
M  V30 9544 N 849.587 2.05651 2.05319 0
M  V30 9545 H 849.134 2.28539 1.18861 0
M  V30 9546 H 849.092 1.53265 2.74513 0
M  V30 9547 N 852.864 0.259585 1.55447 0
M  V30 9548 C 854.275 -0.241165 1.85136 0
M  V30 9549 C 854.626 -1.56634 1.18153 0
M  V30 9550 O 853.751 -2.11359 0.464351 0
M  V30 9551 C 854.346 -0.444355 3.35873 0
M  V30 9552 C 852.905 -0.889354 3.65742 0
M  V30 9553 C 852.052 0.0262474 2.77288 0
M  V30 9554 H 855.003 0.481808 1.51209 0
M  V30 9555 H 855.024 -1.28517 3.58139 0
M  V30 9556 H 854.536 0.520289 3.84597 0
M  V30 9557 H 852.637 -1.86602 3.22507 0
M  V30 9558 H 852.75 -0.737432 4.73391 0
M  V30 9559 H 851.114 -0.487361 2.49994 0
M  V30 9560 H 851.897 0.986494 3.28821 0
M  V30 9561 N 854.342 -1.57594 -0.0133615 0
M  V30 9562 C 855.619 -1.81173 -0.737273 0
M  V30 9563 C 855.999 -0.861395 -1.92726 0
M  V30 9564 O 855.347 0.0929324 -2.28311 0
M  V30 9565 C 855.557 -3.29314 -1.15557 0
M  V30 9566 C 856.905 -3.94707 -1.56498 0
M  V30 9567 O 857.929 -3.33557 -1.24973 0
M  V30 9568 O 856.788 -5.02402 -2.15069 0
M  V30 9569 H 853.882 -0.745575 -0.357837 0
M  V30 9570 H 856.428 -1.69696 0.0110674 0
M  V30 9571 H 855.2 -3.90096 -0.30677 0
M  V30 9572 H 854.823 -3.45739 -1.96343 0
M  V30 9573 N 855.82 0.285905 -1.54985 0
M  V30 9574 C 857.069 1.01691 -1.74189 0
M  V30 9575 C 857.382 1.87908 -0.543135 0
M  V30 9576 O 858.588 2.64389 -0.617305 0
M  V30 9577 C 857.044 1.85785 -3.0824 0
M  V30 9578 C 856.652 1.04497 -4.35642 0
M  V30 9579 C 858.396 2.58393 -3.36798 0
M  V30 9580 C 856.303 1.87955 -5.60738 0
M  V30 9581 H 855.233 0.383396 -0.649248 0
M  V30 9582 H 857.884 0.27317 -1.81455 0
M  V30 9583 H 856.266 2.64205 -2.94978 0
M  V30 9584 H 857.44 0.305847 -4.59784 0
M  V30 9585 H 855.755 0.434023 -4.14132 0
M  V30 9586 H 858.352 3.21214 -4.27464 0
M  V30 9587 H 858.695 3.28011 -2.56349 0
M  V30 9588 H 859.228 1.87012 -3.511 0
M  V30 9589 H 855.967 1.22781 -6.43898 0
M  V30 9590 H 855.487 2.59499 -5.40759 0
M  V30 9591 H 857.166 2.45636 -5.98558 0
M  V30 9592 N 857.298 1.47698 0.54982 0
M  V30 9593 C 858.245 1.60739 1.65625 0
M  V30 9594 C 859.215 0.450129 1.59884 0
M  V30 9595 O 860.4 0.671123 1.78607 0
M  V30 9596 C 857.54 1.63457 3.03934 0
M  V30 9597 C 856.653 2.90152 3.20056 0
M  V30 9598 C 855.788 2.84157 4.48807 0
M  V30 9599 C 854.827 4.05644 4.58387 0
M  V30 9600 N 853.964 3.97843 5.78503 0
M  V30 9601 H 858.804 2.55234 1.53817 0
M  V30 9602 H 856.341 1.26593 0.749173 0
M  V30 9603 H 858.299 1.63015 3.84034 0
M  V30 9604 H 856.929 0.724689 3.1456 0
M  V30 9605 H 855.981 3.00428 2.33339 0
M  V30 9606 H 857.293 3.80097 3.22998 0
M  V30 9607 H 856.447 2.82006 5.37175 0
M  V30 9608 H 855.186 1.91908 4.48356 0
M  V30 9609 H 854.191 4.08092 3.6843 0
M  V30 9610 H 855.416 4.9903 4.60593 0
M  V30 9611 H 853.362 3.08401 5.78986 0
M  V30 9612 H 853.279 4.81473 5.82855 0
M  V30 9613 H 854.547 3.99719 6.69212 0
M  V30 9614 N 858.776 -0.797141 1.35954 0
M  V30 9615 C 859.724 -1.93084 1.29697 0
M  V30 9616 C 860.718 -1.68329 0.190152 0
M  V30 9617 O 861.924 -1.7643 0.3567 0
M  V30 9618 H 858.299 -0.634531 0.403577 0
M  V30 9619 H 860.27 -1.95481 2.25455 0
M  V30 9620 C 859.019 -3.29996 1.09536 0
M  V30 9621 H 858.342 -3.49607 1.93946 0
M  V30 9622 H 859.782 -4.09696 1.09202 0
M  V30 9623 C 858.241 -3.36304 -0.200381 0
M  V30 9624 O 858.771 -3.83579 -1.19291 0
M  V30 9625 N 856.977 -2.89587 -0.242406 0
M  V30 9626 H 856.524 -2.51307 0.565897 0
M  V30 9627 H 856.482 -2.94189 -1.10906 0
M  V30 9628 N 860.254 -1.20106 -1.0204 0
M  V30 9629 C 861.503 -1.00316 -1.74985 0
M  V30 9630 C 861.816 0.465814 -1.89972 0
M  V30 9631 O 863.022 0.782749 -2.59972 0
M  V30 9632 C 861.478 -1.74608 -3.14706 0
M  V30 9633 C 861.086 -3.25573 -3.07744 0
M  V30 9634 C 862.83 -1.63172 -3.91887 0
M  V30 9635 C 860.737 -3.92419 -4.42449 0
M  V30 9636 H 859.667 -0.371728 -0.655999 0
M  V30 9637 H 862.318 -1.43688 -1.14131 0
M  V30 9638 H 860.7 -1.24021 -3.76078 0
M  V30 9639 H 861.874 -3.83345 -2.55702 0
M  V30 9640 H 860.189 -3.3738 -2.44057 0
M  V30 9641 H 862.786 -2.10457 -4.9154 0
M  V30 9642 H 863.129 -0.58728 -4.12137 0
M  V30 9643 H 863.662 -2.11152 -3.37135 0
M  V30 9644 H 860.401 -4.96998 -4.27403 0
M  V30 9645 H 859.921 -3.39436 -4.94513 0
M  V30 9646 H 861.6 -3.96453 -5.11306 0
M  V30 9647 N 861.732 1.21287 -1.00634 0
M  V30 9648 C 862.642 2.27388 -0.577226 0
M  V30 9649 C 863.658 1.69791 0.380399 0
M  V30 9650 O 864.834 1.99918 0.2439 0
M  V30 9651 C 861.899 3.46588 0.0880532 0
M  V30 9652 C 860.96 4.19453 -0.914222 0
M  V30 9653 C 860.193 5.32962 -0.280596 0
M  V30 9654 O 860.416 5.62895 0.922265 0
M  V30 9655 O 859.35 5.93666 -0.992196 0
M  V30 9656 H 863.176 2.66289 -1.46028 0
M  V30 9657 H 860.761 1.2771 -0.775283 0
M  V30 9658 H 862.643 4.18881 0.460094 0
M  V30 9659 H 861.318 3.09585 0.945461 0
M  V30 9660 H 860.225 3.49376 -1.33744 0
M  V30 9661 H 861.558 4.6037 -1.74126 0
M  V30 9662 N 863.21 0.781244 1.36873 0
M  V30 9663 C 864.487 0.274217 1.93668 0
M  V30 9664 C 864.867 -1.2323 1.71399 0
M  V30 9665 O 864.215 -2.01993 1.06822 0
M  V30 9666 C 864.425 0.657939 3.42742 0
M  V30 9667 C 865.773 0.63307 4.19854 0
M  V30 9668 O 866.797 0.597909 3.51146 0
M  V30 9669 O 865.656 0.668636 5.42394 0
M  V30 9670 H 862.75 0.0658059 0.824378 0
M  V30 9671 H 865.296 0.863238 1.46104 0
M  V30 9672 H 864.068 1.69728 3.52573 0
M  V30 9673 H 863.691 0.0423678 3.97577 0
M  V30 9674 N 864.689 -1.48329 0.532571 0
M  V30 9675 C 865.936 -2.025 -0.000582356 0
M  V30 9676 C 866.264 -1.40942 -1.34036 0
M  V30 9677 O 865.519 -0.545545 -1.87942 0
M  V30 9678 C 865.818 -3.57 -0.168943 0
M  V30 9679 C 865.484 -4.37357 1.0968 0
M  V30 9680 C 864.146 -4.59033 1.44369 0
M  V30 9681 C 866.498 -4.83882 1.93669 0
M  V30 9682 C 863.826 -5.24481 2.62939 0
M  V30 9683 C 866.178 -5.50637 3.11419 0
M  V30 9684 C 864.842 -5.70551 3.46451 0
M  V30 9685 H 864.112 -0.741 -0.000213099 0
M  V30 9686 H 866.759 -1.78282 0.699117 0
M  V30 9687 H 865.064 -3.80072 -0.951429 0
M  V30 9688 H 866.761 -3.9654 -0.596422 0
M  V30 9689 H 863.351 -4.20748 0.816655 0
M  V30 9690 H 867.535 -4.66936 1.6818 0
M  V30 9691 H 862.791 -5.38096 2.9028 0
M  V30 9692 H 866.965 -5.85655 3.76803 0
M  V30 9693 H 864.592 -6.21037 4.38425 0
M  V30 9694 N 866.167 -0.267825 -1.55308 0
M  V30 9695 C 867.395 0.354587 -2.03839 0
M  V30 9696 C 867.81 1.50007 -1.14644 0
M  V30 9697 O 867.167 1.81752 -0.165055 0
M  V30 9698 C 867.218 0.84254 -3.51544 0
M  V30 9699 O 866.939 -0.257318 -4.37344 0
M  V30 9700 C 868.44 1.53351 -4.15931 0
M  V30 9701 H 865.66 0.0818131 -0.665994 0
M  V30 9702 H 868.204 -0.397795 -2.00594 0
M  V30 9703 H 866.359 1.54503 -3.55257 0
M  V30 9704 H 866.773 0.116593 -5.2437 0
M  V30 9705 H 868.247 1.82643 -5.20908 0
M  V30 9706 H 868.724 2.4626 -3.63666 0
M  V30 9707 H 869.33 0.87506 -4.162 0
M  V30 9708 N 867.645 1.57599 0.00500368 0
M  V30 9709 C 868.894 1.89528 0.690061 0
M  V30 9710 C 869.207 0.869451 1.75214 0
M  V30 9711 O 870.413 1.07879 2.49147 0
M  V30 9712 C 868.869 3.36425 1.27852 0
M  V30 9713 C 868.477 4.47293 0.251531 0
M  V30 9714 C 870.221 3.77471 1.94206 0
M  V30 9715 C 868.128 5.85264 0.8497 0
M  V30 9716 H 867.058 0.707201 0.2615 0
M  V30 9717 H 869.709 1.83418 -0.0547209 0
M  V30 9718 H 868.091 3.37356 2.07381 0
M  V30 9719 H 869.265 4.5787 -0.518796 0
M  V30 9720 H 867.58 4.15235 -0.311281 0
M  V30 9721 H 870.177 4.77884 2.39855 0
M  V30 9722 H 870.52 3.10722 2.77051 0
M  V30 9723 H 871.053 3.78817 1.21419 0
M  V30 9724 H 867.792 6.55472 0.0601408 0
M  V30 9725 H 867.312 5.78361 1.5893 0
M  V30 9726 H 868.991 6.32762 1.34984 0
M  V30 9727 N 869.123 -0.277682 1.55134 0
M  V30 9728 C 870.348 -1.03254 1.7987 0
M  V30 9729 C 870.773 -1.79324 0.567861 0
M  V30 9730 O 870.131 -1.74764 -0.4824 0
M  V30 9731 C 870.179 -1.9705 3.02 0
M  V30 9732 O 869.283 -3.05744 2.76757 0
M  V30 9733 H 868.624 -0.295447 0.594649 0
M  V30 9734 H 871.154 -0.308013 2.02268 0
M  V30 9735 H 871.164 -2.3909 3.30606 0
M  V30 9736 H 869.839 -1.41094 3.91236 0
M  V30 9737 H 868.416 -2.68052 2.59235 0
M  V30 9738 N 870.601 -1.47988 -0.541979 0
M  V30 9739 C 871.878 -1.45878 -1.30303 0
M  V30 9740 C 872.258 -0.163931 -2.10463 0
M  V30 9741 O 871.606 0.854479 -2.11922 0
M  V30 9742 C 871.816 -2.71359 -2.19466 0
M  V30 9743 C 873.164 -3.19199 -2.79995 0
M  V30 9744 O 874.188 -2.72193 -2.2976 0
M  V30 9745 O 873.047 -4.00961 -3.71339 0
M  V30 9746 H 870.141 -0.582043 -0.587498 0
M  V30 9747 H 872.687 -1.60207 -0.559623 0
M  V30 9748 H 871.459 -3.57122 -1.59936 0
M  V30 9749 H 871.082 -2.59692 -3.01075 0
M  V30 9750 N 872.079 0.78992 -1.36375 0
M  V30 9751 C 873.326 1.54777 -1.30576 0
M  V30 9752 C 873.654 1.94159 0.115095 0
M  V30 9753 O 872.909 1.62918 1.08426 0
M  V30 9754 C 873.208 2.83698 -2.17371 0
M  V30 9755 C 872.874 2.63457 -3.65925 0
M  V30 9756 C 871.536 2.57645 -4.06415 0
M  V30 9757 C 873.888 2.44833 -4.60115 0
M  V30 9758 C 871.216 2.31174 -5.39236 0
M  V30 9759 C 873.568 2.19889 -5.93154 0
M  V30 9760 C 872.232 2.1251 -6.32768 0
M  V30 9761 H 871.502 0.566371 -0.477813 0
M  V30 9762 H 874.149 0.91138 -1.68422 0
M  V30 9763 H 872.454 3.51802 -1.72459 0
M  V30 9764 H 874.151 3.41487 -2.10209 0
M  V30 9765 H 870.741 2.68836 -3.33804 0
M  V30 9766 H 874.925 2.48325 -4.29707 0
M  V30 9767 H 870.181 2.23942 -5.68911 0
M  V30 9768 H 874.355 2.04473 -6.65705 0
M  V30 9769 H 871.982 1.91761 -7.35616 0
M  V30 9770 N 873.557 1.20646 1.01402 0
M  V30 9771 C 874.785 1.04389 1.78635 0
M  V30 9772 C 875.2 -0.406771 1.84366 0
M  V30 9773 O 874.557 -1.28239 1.2985 0
M  V30 9774 C 874.608 1.62378 3.22979 0
M  V30 9775 O 874.329 3.01768 3.17597 0
M  V30 9776 C 875.83 1.5111 4.1675 0
M  V30 9777 H 873.05 0.367077 0.56169 0
M  V30 9778 H 875.594 1.59789 1.27624 0
M  V30 9779 H 873.749 1.11092 3.7113 0
M  V30 9780 H 874.163 3.29331 4.08217 0
M  V30 9781 H 875.637 1.96441 5.15863 0
M  V30 9782 H 876.114 0.464011 4.36742 0
M  V30 9783 H 876.72 2.01599 3.74483 0
M  V30 9784 N 875.035 -1.20752 1.01276 0
M  V30 9785 C 876.284 -1.8934 0.695229 0
M  V30 9786 C 876.597 -1.79459 -0.77806 0
M  V30 9787 O 877.803 -2.43146 -1.20799 0
M  V30 9788 C 876.259 -3.39548 1.1931 0
M  V30 9789 C 875.867 -3.58023 2.69302 0
M  V30 9790 C 877.611 -4.13714 0.950823 0
M  V30 9791 C 875.518 -5.02037 3.1259 0
M  V30 9792 H 874.448 -0.709084 0.25635 0
M  V30 9793 H 877.099 -1.36629 1.22494 0
M  V30 9794 H 875.481 -3.91559 0.591395 0
M  V30 9795 H 876.655 -3.16416 3.34989 0
M  V30 9796 H 874.97 -2.97222 2.9163 0
M  V30 9797 H 877.567 -5.19891 1.24971 0
M  V30 9798 H 877.91 -4.16147 -0.112791 0
M  V30 9799 H 878.443 -3.67792 1.51571 0
M  V30 9800 H 875.182 -5.04757 4.18211 0
M  V30 9801 H 874.702 -5.44469 2.51621 0
M  V30 9802 H 876.381 -5.70594 3.0501 0
M  V30 9803 N 876.513 -0.788492 -1.36457 0
M  V30 9804 C 877.445 -0.144208 -2.28746 0
M  V30 9805 C 878.458 0.646009 -1.49434 0
M  V30 9806 O 879.647 0.481344 -1.71888 0
M  V30 9807 C 876.747 0.818869 -3.28858 0
M  V30 9808 C 875.92 0.0789055 -4.37329 0
M  V30 9809 C 874.979 0.957791 -5.1741 0
M  V30 9810 O 874.005 0.415378 -5.67682 0
M  V30 9811 N 875.207 2.28216 -5.33758 0
M  V30 9812 H 877.972 -0.936949 -2.84678 0
M  V30 9813 H 875.533 -0.642317 -1.48613 0
M  V30 9814 H 877.525 1.41065 -3.79319 0
M  V30 9815 H 876.095 1.51249 -2.73573 0
M  V30 9816 H 875.315 -0.693939 -3.88044 0
M  V30 9817 H 876.603 -0.431753 -5.06965 0
M  V30 9818 H 876.001 2.747 -4.94527 0
M  V30 9819 H 874.558 2.8236 -5.87466 0
M  V30 9820 N 877.991 1.48044 -0.54043 0
M  V30 9821 C 878.939 2.31461 0.229862 0
M  V30 9822 C 879.933 1.41884 0.925495 0
M  V30 9823 O 881.139 1.58736 0.848689 0
M  V30 9824 H 877.514 0.746227 0.0929975 0
M  V30 9825 H 879.485 2.94297 -0.493118 0
M  V30 9826 C 878.234 3.24172 1.25729 0
M  V30 9827 H 877.557 3.93052 0.731426 0
M  V30 9828 H 878.997 3.85404 1.76747 0
M  V30 9829 C 877.456 2.4651 2.2964 0
M  V30 9830 O 877.986 2.19742 3.36268 0
M  V30 9831 N 876.192 2.07817 2.03127 0
M  V30 9832 H 875.739 2.29786 1.1643 0
M  V30 9833 H 875.697 1.56168 2.72872 0
M  V30 9834 N 879.47 0.276058 1.55163 0
M  V30 9835 C 880.7 -0.343274 2.03728 0
M  V30 9836 C 881.108 -1.49945 1.15383 0
M  V30 9837 O 880.451 -1.82942 0.166696 0
M  V30 9838 C 880.513 -0.885683 3.48419 0
M  V30 9839 C 880.177 0.141976 4.56779 0
M  V30 9840 C 881.174 0.961816 5.10926 0
M  V30 9841 C 878.859 0.276487 5.01538 0
M  V30 9842 C 880.853 1.90234 6.0835 0
M  V30 9843 C 878.54 1.22049 5.98788 0
M  V30 9844 C 879.538 2.03192 6.52075 0
M  V30 9845 O 879.226 2.95996 7.47423 0
M  V30 9846 H 878.958 -0.0822192 0.670981 0
M  V30 9847 H 881.512 0.406199 2.01343 0
M  V30 9848 H 879.742 -1.68524 3.48047 0
M  V30 9849 H 881.431 -1.4182 3.80318 0
M  V30 9850 H 882.197 0.868637 4.77158 0
M  V30 9851 H 878.076 -0.345095 4.59707 0
M  V30 9852 H 881.62 2.5361 6.49867 0
M  V30 9853 H 877.517 1.31448 6.31974 0
M  V30 9854 H 878.285 2.90688 7.65142 0
M  V30 9855 N 880.948 -1.576 0.00335426 0
M  V30 9856 C 882.194 -1.90996 -0.681799 0
M  V30 9857 C 882.527 -0.877643 -1.73237 0
M  V30 9858 O 881.802 0.103183 -1.94226 0
M  V30 9859 C 882.085 -3.34961 -1.32187 0
M  V30 9860 C 881.938 -4.48911 -0.28261 0
M  V30 9861 C 883.257 -3.78408 -2.24711 0
M  V30 9862 H 880.376 -0.694596 -0.246386 0
M  V30 9863 H 883.018 -1.89919 0.055336 0
M  V30 9864 H 881.168 -3.36008 -1.95014 0
M  V30 9865 H 882.84 -4.59999 0.346241 0
M  V30 9866 H 881.083 -4.32 0.394768 0
M  V30 9867 H 881.754 -5.46609 -0.769576 0
M  V30 9868 H 884.23 -3.78934 -1.71897 0
M  V30 9869 H 883.106 -4.79885 -2.66461 0
M  V30 9870 H 883.367 -3.12464 -3.1276 0
M  V30 9871 N 882.426 0.269451 -1.5528 0
M  V30 9872 C 883.376 1.33553 -1.84791 0
M  V30 9873 C 884.36 1.44532 -0.707067 0
M  V30 9874 O 885.552 1.48153 -0.968493 0
M  V30 9875 C 882.681 2.69516 -2.12641 0
M  V30 9876 C 881.767 2.62633 -3.32993 0
M  V30 9877 N 882.158 2.25371 -4.52815 0
M  V30 9878 C 880.456 2.93688 -3.35654 0
M  V30 9879 C 881.157 2.28567 -5.34913 0
M  V30 9880 N 880.133 2.67181 -4.73408 0
M  V30 9881 H 883.935 1.03758 -2.74976 0
M  V30 9882 H 881.449 0.478087 -1.55203 0
M  V30 9883 H 883.446 3.46424 -2.3194 0
M  V30 9884 H 882.106 3.00197 -1.23742 0
M  V30 9885 H 883.117 1.9729 -4.7885 0
M  V30 9886 H 879.794 3.29057 -2.56958 0
M  V30 9887 H 881.184 2.02289 -6.40725 0
M  V30 9888 N 883.904 1.48273 0.534124 0
M  V30 9889 C 884.854 1.58889 1.63519 0
M  V30 9890 C 885.838 0.44626 1.54588 0
M  V30 9891 O 887.03 0.697474 1.62679 0
M  V30 9892 C 884.159 1.62787 3.0225 0
M  V30 9893 C 883.245 2.82515 3.16301 0
M  V30 9894 N 883.636 4.06977 3.00338 0
M  V30 9895 C 881.934 2.7976 3.47347 0
M  V30 9896 C 882.635 4.87283 3.17694 0
M  V30 9897 N 881.611 4.20024 3.45081 0
M  V30 9898 H 885.413 2.52869 1.49781 0
M  V30 9899 H 882.927 1.44587 0.739479 0
M  V30 9900 H 884.924 1.68486 3.81337 0
M  V30 9901 H 883.584 0.699201 3.17082 0
M  V30 9902 H 884.595 4.37479 2.77186 0
M  V30 9903 H 881.272 1.96132 3.68563 0
M  V30 9904 H 882.662 5.96047 3.10126 0
M  V30 9905 N 885.382 -0.782676 1.36792 0
M  V30 9906 C 886.292 -1.92679 1.33835 0
M  V30 9907 C 887.308 -1.72344 0.23952 0
M  V30 9908 O 888.484 -1.95766 0.473045 0
M  V30 9909 C 885.549 -3.27644 1.1336 0
M  V30 9910 C 884.61 -3.6071 2.32781 0
M  V30 9911 C 883.843 -4.89234 2.13273 0
M  V30 9912 O 884.066 -5.59468 1.11136 0
M  V30 9913 O 883 -5.21112 3.01208 0
M  V30 9914 H 886.826 -1.98124 2.30175 0
M  V30 9915 H 884.411 -0.923887 1.17408 0
M  V30 9916 H 886.293 -4.08394 1.03886 0
M  V30 9917 H 884.968 -3.23076 0.200868 0
M  V30 9918 H 883.875 -2.80238 2.47825 0
M  V30 9919 H 885.208 -3.70008 3.24584 0
M  V30 9920 N 886.86 -1.21182 -1.00761 0
M  V30 9921 C 887.807 -0.968741 -2.09485 0
M  V30 9922 C 888.777 0.104325 -1.65772 0
M  V30 9923 O 889.962 -0.0422587 -1.90753 0
M  V30 9924 C 887.102 -0.536686 -3.40901 0
M  V30 9925 C 886.215 -1.6789 -3.98041 0
M  V30 9926 C 885.35 -1.19627 -5.17555 0
M  V30 9927 C 884.389 -2.31099 -5.66798 0
M  V30 9928 N 883.526 -1.83988 -6.77564 0
M  V30 9929 H 888.366 -1.89952 -2.29613 0
M  V30 9930 H 885.903 -0.946688 -1.12589 0
M  V30 9931 H 887.861 -0.26745 -4.16342 0
M  V30 9932 H 886.491 0.357092 -3.20819 0
M  V30 9933 H 885.543 -2.06284 -3.19611 0
M  V30 9934 H 886.855 -2.51794 -4.30582 0
M  V30 9935 H 886.009 -0.883539 -6.00232 0
M  V30 9936 H 884.748 -0.327244 -4.86601 0
M  V30 9937 H 883.753 -2.63178 -4.82719 0
M  V30 9938 H 884.978 -3.18493 -5.99782 0
M  V30 9939 H 882.924 -0.994257 -6.48422 0
M  V30 9940 H 882.841 -2.61466 -7.09346 0
M  V30 9941 H 884.109 -1.55741 -7.63783 0
M  V30 9942 N 888.338 1.20213 -1.01915 0
M  V30 9943 C 889.587 1.88968 -0.705261 0
M  V30 9944 C 889.9 1.79869 0.768531 0
M  V30 9945 O 891.106 2.43783 1.19508 0
M  V30 9946 C 889.562 3.38911 -1.21109 0
M  V30 9947 C 889.17 3.5659 -2.71197 0
M  V30 9948 C 890.914 4.13204 -0.97275 0
M  V30 9949 C 888.821 5.00372 -3.15248 0
M  V30 9950 H 887.751 0.707715 -0.260107 0
M  V30 9951 H 890.402 1.35977 -1.23217 0
M  V30 9952 H 888.784 3.9124 -0.612152 0
M  V30 9953 H 889.958 3.14635 -3.36662 0
M  V30 9954 H 888.273 2.95671 -2.93202 0
M  V30 9955 H 890.87 5.19221 -1.27726 0
M  V30 9956 H 891.213 4.16201 0.09072 0
M  V30 9957 H 891.746 3.66983 -1.5352 0
M  V30 9958 H 888.485 5.02532 -4.20882 0
M  V30 9959 H 888.005 5.43127 -2.54505 0
M  V30 9960 H 889.684 5.68969 -3.08032 0
M  V30 9961 N 889.816 0.795718 1.36037 0
M  V30 9962 C 891.041 0.38204 2.03851 0
M  V30 9963 C 891.466 -0.995553 1.59594 0
M  V30 9964 O 890.824 -1.64258 0.767401 0
M  V30 9965 C 890.872 0.461248 3.57638 0
M  V30 9966 O 889.976 -0.529448 4.08987 0
M  V30 9967 H 889.317 0.161227 0.644129 0
M  V30 9968 H 891.847 1.07858 1.73861 0
M  V30 9969 H 891.857 0.32712 4.06687 0
M  V30 9970 H 890.532 1.46613 3.89201 0
M  V30 9971 H 889.109 -0.35646 3.71192 0
M  V30 9972 N 891.294 -1.47756 0.548274 0
M  V30 9973 C 892.227 -2.26804 -0.252059 0
M  V30 9974 C 893.205 -1.3349 -0.928389 0
M  V30 9975 O 894.389 -1.6286 -0.949156 0
M  V30 9976 C 891.516 -3.10266 -1.35841 0
M  V30 9977 C 890.562 -4.1909 -0.791578 0
M  V30 9978 S 891.395 -5.34323 0.354878 0
M  V30 9979 C 892.551 -6.21348 -0.753511 0
M  V30 9980 H 892.784 -2.94336 0.418744 0
M  V30 9981 H 890.317 -1.50735 0.334413 0
M  V30 9982 H 892.275 -3.58925 -1.99207 0
M  V30 9983 H 890.936 -2.42112 -2.00101 0
M  V30 9984 H 890.129 -4.77183 -1.62212 0
M  V30 9985 H 889.731 -3.73266 -0.234274 0
M  V30 9986 H 892.023 -6.57156 -1.6478 0
M  V30 9987 H 892.966 -7.07788 -0.210141 0
M  V30 9988 H 893.374 -5.54797 -1.04216 0
M  V30 9989 N 892.772 -0.284283 -1.55015 0
M  V30 9990 C 894.049 0.382125 -1.91831 0
M  V30 9991 C 894.429 1.73007 -1.20962 0
M  V30 9992 O 893.777 2.25962 -0.339594 0
M  V30 9993 C 893.987 0.513341 -3.45204 0
M  V30 9994 C 895.335 0.791989 -4.17148 0
M  V30 9995 O 896.359 0.597799 -3.51148 0
M  V30 9996 O 895.218 1.16394 -5.33961 0
M  V30 9997 H 892.312 0.210707 -0.799707 0
M  V30 9998 H 894.858 -0.331111 -1.66438 0
M  V30 9999 H 893.63 -0.434911 -3.88876 0
M  V30 10000 H 893.253 1.27569 -3.76579 0
M  V30 10001 N 894.251 1.57596 -0.0117121 0
M  V30 10002 C 895.184 2.04624 1.01016 0
M  V30 10003 C 896.162 0.938437 1.32786 0
M  V30 10004 O 897.346 1.20746 1.44751 0
M  V30 10005 C 894.473 2.45369 2.33477 0
M  V30 10006 C 893.519 3.66998 2.17289 0
M  V30 10007 S 894.352 5.14412 1.48795 0
M  V30 10008 C 895.508 5.58438 2.82662 0
M  V30 10009 H 895.741 2.9098 0.60977 0
M  V30 10010 H 893.274 1.53106 0.199494 0
M  V30 10011 H 895.232 2.69511 3.09635 0
M  V30 10012 H 893.893 1.59391 2.70653 0
M  V30 10013 H 893.086 3.93297 3.15172 0
M  V30 10014 H 892.688 3.42918 1.49275 0
M  V30 10015 H 894.98 5.61614 3.78941 0
M  V30 10016 H 895.923 6.58224 2.61049 0
M  V30 10017 H 896.331 4.86033 2.8711 0
M  V30 10018 N 895.729 -0.261212 1.5542 0
M  V30 10019 C 896.692 -1.30645 1.8832 0
M  V30 10020 C 897.692 -1.41782 0.758588 0
M  V30 10021 O 898.882 -1.40729 1.02669 0
M  V30 10022 C 896.014 -2.6862 2.09895 0
M  V30 10023 H 897.207 -1.02698 2.81768 0
M  V30 10024 H 894.76 -0.499838 1.48092 0
M  V30 10025 H 895.495 -3.0173 1.18868 0
M  V30 10026 H 895.28 -2.61921 2.91787 0
M  V30 10027 H 896.77 -3.44121 2.36581 0
M  V30 10028 N 897.207 -1.48554 -0.526253 0
M  V30 10029 C 898.17 -1.62868 -1.61266 0
M  V30 10030 C 899.17 -0.501762 -1.52771 0
M  V30 10031 O 900.36 -0.76764 -1.56374 0
M  V30 10032 C 897.492 -1.60238 -3.00893 0
M  V30 10033 H 898.685 -2.59742 -1.49913 0
M  V30 10034 H 896.238 -1.37207 -0.748595 0
M  V30 10035 H 896.973 -0.648545 -3.17749 0
M  V30 10036 H 896.758 -2.42054 -3.08468 0
M  V30 10037 H 898.248 -1.73455 -3.79872 0
M  V30 10038 O 898.724 0.671278 -1.46888 0
M  V30 10039 H 899.415 1.3241 -1.41377 0
M  V30 END ATOM
M  V30 BEGIN BOND
M  V30 END BOND
M  V30 END CTAB
M  END
$$$$
