drugbank_target|P14751 Modification methylase RsrI (DB01752; DB01910; DB02282)
 OpenBabel12092119543D

  0  0  0     0  0            999 V3000
M  V30 BEGIN CTAB
M  V30 COUNTS 4952 5007 0 0 0
M  V30 BEGIN ATOM
M  V30 1 H -0.908 1.98254 -0.117106 0
M  V30 2 N 0 1.576 0 0
M  V30 3 C 0.933 2.03868 1.02534 0
M  V30 4 C 1.911 0.928543 1.3348 0
M  V30 5 O 3.095 1.19667 1.45644 0
M  V30 6 C 0.222 2.43627 2.35294 0
M  V30 7 C -0.732 3.65373 2.2001 0
M  V30 8 S 0.101 5.13292 1.52614 0
M  V30 9 C 1.257 5.56322 2.86805 0
M  V30 10 H 1.49 2.90518 0.631377 0
M  V30 11 H -0.977 1.52953 0.210867 0
M  V30 12 H 0.981 2.67203 3.11629 0
M  V30 13 H -0.358 1.57376 2.7183 0
M  V30 14 H -1.165 3.90944 3.18086 0
M  V30 15 H -1.563 3.418 1.51819 0
M  V30 16 H 0.729 5.58782 3.83104 0
M  V30 17 H 1.672 6.56266 2.65933 0
M  V30 18 H 2.08 4.83886 2.90714 0
M  V30 19 N 1.4781 -0.272755 1.55222 0
M  V30 20 C 2.4411 -1.32041 1.87344 0
M  V30 21 C 3.4411 -1.42342 0.74803 0
M  V30 22 O 4.6311 -1.41488 1.0162 0
M  V30 23 C 1.7631 -2.70173 2.07893 0
M  V30 24 H 2.9561 -1.04789 2.80997 0
M  V30 25 H 0.5091 -0.51083 1.47717 0
M  V30 26 H 1.2441 -3.02605 1.16622 0
M  V30 27 H 1.0291 -2.64082 2.89833 0
M  V30 28 H 2.5191 -3.45869 2.34017 0
M  V30 29 N 2.9562 -1.48159 -0.537278 0
M  V30 30 C 3.9042 -1.62573 -1.66352 0
M  V30 31 C 4.8982 -0.492366 -1.62087 0
M  V30 32 O 6.1042 -0.670847 -1.67032 0
M  V30 33 H 2.4792 -0.511992 -0.550789 0
M  V30 34 H 4.4502 -2.57176 -1.51337 0
M  V30 35 C 3.1992 -1.67583 -3.04649 0
M  V30 36 H 2.5222 -2.54151 -3.08622 0
M  V30 37 H 3.9622 -1.81713 -3.83088 0
M  V30 38 C 2.4212 -0.413039 -3.34358 0
M  V30 39 O 2.9512 0.477259 -3.98855 0
M  V30 40 N 1.1572 -0.286961 -2.8918 0
M  V30 41 H 0.7042 -1.01241 -2.36871 0
M  V30 42 H 0.6622 0.556963 -3.09427 0
M  V30 43 N 4.4343 0.785586 -1.36625 0
M  V30 44 C 5.8503 1.08419 -1.17122 0
M  V30 45 C 6.0503 2.015 0.00208491 0
M  V30 46 O 5.1063 2.43551 0.666278 0
M  V30 47 C 6.4193 1.69498 -2.48377 0
M  V30 48 C 7.9673 1.81821 -2.54775 0
M  V30 49 C 8.4423 2.46315 -3.86126 0
M  V30 50 N 9.9333 2.53779 -3.87492 0
M  V30 51 C 10.6683 3.045 -4.85868 0
M  V30 52 N 10.1643 3.55499 -5.94637 0
M  V30 53 N 11.9573 3.03247 -4.73284 0
M  V30 54 H 4.1083 0.167264 -2.1174 0
M  V30 55 H 6.3713 0.13682 -0.938075 0
M  V30 56 H 6.0773 1.08571 -3.34522 0
M  V30 57 H 5.9513 2.6896 -2.64462 0
M  V30 58 H 8.3383 2.41884 -1.69045 0
M  V30 59 H 8.4193 0.811532 -2.42586 0
M  V30 60 H 8.0633 1.86895 -4.72263 0
M  V30 61 H 7.9933 3.47561 -3.95612 0
M  V30 62 H 10.4843 2.17672 -3.08913 0
M  V30 63 H 10.7973 3.92562 -6.65669 0
M  V30 64 H 9.1423 3.5364 -5.98301 0
M  V30 65 H 12.3333 2.62696 -3.87438 0
M  V30 66 H 12.5063 3.42467 -5.50109 0
M  V30 67 N 5.9124 1.20967 1.01018 0
M  V30 68 C 7.1374 1.0503 1.78839 0
M  V30 69 C 7.5624 -0.395752 1.8389 0
M  V30 70 O 6.9204 -1.28529 1.27867 0
M  V30 71 C 6.9684 1.64602 3.2084 0
M  V30 72 O 6.0724 0.887988 4.02726 0
M  V30 73 H 5.4134 0.369987 0.551367 0
M  V30 74 H 7.9434 1.60399 1.27018 0
M  V30 75 H 7.9534 1.68607 3.71532 0
M  V30 76 H 6.6284 2.69841 3.16479 0
M  V30 77 H 5.2054 0.922648 3.61305 0
M  V30 78 N 7.3905 -1.2043 1.01659 0
M  V30 79 C 8.3405 -2.21076 0.557623 0
M  V30 80 C 9.3245 -1.56176 -0.387029 0
M  V30 81 O 10.5165 -1.7575 -0.209996 0
M  V30 82 C 7.6455 -3.43146 -0.102707 0
M  V30 83 C 6.7315 -4.15213 0.863652 0
M  V30 84 N 7.1225 -4.63662 2.02117 0
M  V30 85 C 5.4205 -4.40716 0.684472 0
M  V30 86 C 6.1215 -5.18868 2.62966 0
M  V30 87 N 5.0975 -5.0893 1.91027 0
M  V30 88 H 8.8995 -2.56201 1.44008 0
M  V30 89 H 6.4135 -1.36366 0.881931 0
M  V30 90 H 8.4105 -4.14475 -0.449054 0
M  V30 91 H 7.0705 -3.09526 -0.981003 0
M  V30 92 H 8.0815 -4.58877 2.40109 0
M  V30 93 H 4.7585 -4.17245 -0.14577 0
M  V30 94 H 6.1485 -5.6673 3.60924 0
M  V30 95 N 8.8686 -0.792821 -1.36206 0
M  V30 96 C 9.8186 -0.166598 -2.27391 0
M  V30 97 C 10.8026 0.651479 -1.47121 0
M  V30 98 O 11.9946 0.510994 -1.69463 0
M  V30 99 C 9.1236 0.695033 -3.36191 0
M  V30 100 C 8.2096 -0.132019 -4.23894 0
M  V30 101 N 8.6006 -1.18822 -4.91645 0
M  V30 102 C 6.8986 0.0885952 -4.45912 0
M  V30 103 C 7.5996 -1.69198 -5.56549 0
M  V30 104 N 6.5756 -1.00065 -5.34311 0
M  V30 105 H 10.3776 -0.974947 -2.77258 0
M  V30 106 H 7.8916 -0.632616 -1.49572 0
M  V30 107 H 9.8886 1.1596 -4.00448 0
M  V30 108 H 8.5486 1.50189 -2.87877 0
M  V30 109 H 9.5596 -1.57069 -4.93507 0
M  V30 110 H 6.2366 0.865688 -4.08426 0
M  V30 111 H 7.6266 -2.57395 -6.20643 0
M  V30 112 N 10.3467 1.47872 -0.545128 0
M  V30 113 C 11.2947 2.31533 0.222512 0
M  V30 114 C 12.2887 1.42177 0.920985 0
M  V30 115 O 13.4947 1.59005 0.843645 0
M  V30 116 H 9.8697 0.746519 0.0906278 0
M  V30 117 H 11.8407 2.94139 -0.50246 0
M  V30 118 C 10.5897 3.2457 1.24699 0
M  V30 119 H 9.9127 3.93283 0.718944 0
M  V30 120 H 11.3527 3.85963 1.75523 0
M  V30 121 C 9.8117 2.47237 2.28856 0
M  V30 122 O 10.3417 2.20808 3.35569 0
M  V30 123 N 8.5477 2.08461 2.02466 0
M  V30 124 H 8.0947 2.30155 1.157 0
M  V30 125 H 8.0527 1.57033 2.72375 0
M  V30 126 N 11.8248 0.280983 1.55075 0
M  V30 127 C 12.7878 -0.590896 2.21452 0
M  V30 128 C 13.7878 -1.07682 1.19421 0
M  V30 129 O 14.9778 -0.97605 1.44288 0
M  V30 130 C 12.1098 -1.81587 2.88511 0
M  V30 131 H 13.3028 -0.0112554 2.99898 0
M  V30 132 H 10.8558 0.0316438 1.56268 0
M  V30 133 H 11.5908 -2.43587 2.14093 0
M  V30 134 H 11.3758 -1.4753 3.63287 0
M  V30 135 H 12.8658 -2.43575 3.39206 0
M  V30 136 N 13.3029 -1.57598 0.00835791 0
M  V30 137 C 14.5509 -1.90551 -0.6734 0
M  V30 138 C 14.8719 -0.883301 -1.73847 0
M  V30 139 O 14.1419 0.0781442 -1.95744 0
M  V30 140 H 12.7219 -0.703312 -0.251717 0
M  V30 141 H 15.3839 -1.94833 0.0512592 0
M  V30 142 H 14.4799 -2.9056 -1.13935 0
M  V30 143 N 14.781 0.264519 -1.55364 0
M  V30 144 C 15.731 1.32966 -1.85214 0
M  V30 145 C 16.715 1.44306 -0.711653 0
M  V30 146 O 17.907 1.47844 -0.973192 0
M  V30 147 C 15.036 2.68839 -2.13495 0
M  V30 148 C 14.122 2.61575 -3.33825 0
M  V30 149 N 14.513 2.23933 -4.53528 0
M  V30 150 C 12.811 2.92621 -3.36584 0
M  V30 151 C 13.512 2.26868 -5.35636 0
M  V30 152 N 12.488 2.65677 -4.74254 0
M  V30 153 H 16.29 1.02884 -2.75304 0
M  V30 154 H 13.804 0.473157 -1.55354 0
M  V30 155 H 15.801 3.45685 -2.33039 0
M  V30 156 H 14.461 2.99802 -1.24694 0
M  V30 157 H 15.472 1.95769 -4.79474 0
M  V30 158 H 12.149 3.2824 -2.58002 0
M  V30 159 H 13.539 2.00254 -6.41364 0
M  V30 160 N 16.2591 1.48442 0.529413 0
M  V30 161 C 17.6751 1.34575 0.858004 0
M  V30 162 C 17.8751 0.3572 1.98309 0
M  V30 163 O 16.9311 -0.221379 2.51528 0
M  V30 164 C 18.2441 2.74617 1.22499 0
M  V30 165 C 19.7921 2.83109 1.33484 0
M  V30 166 C 20.2671 4.23854 1.73526 0
M  V30 167 N 21.7581 4.2653 1.80628 0
M  V30 168 C 22.4931 5.32372 2.12997 0
M  V30 169 N 21.9891 6.48491 2.43786 0
M  V30 170 N 23.7821 5.19766 2.14008 0
M  V30 171 H 15.9331 2.1133 -0.212925 0
M  V30 172 H 18.1961 0.947439 -0.0326199 0
M  V30 173 H 17.9021 3.4852 0.471905 0
M  V30 174 H 17.7761 3.08177 2.17501 0
M  V30 175 H 20.1631 2.09462 2.0787 0
M  V30 176 H 20.2441 2.53168 0.366027 0
M  V30 177 H 19.8881 4.98018 0.997013 0
M  V30 178 H 19.8181 4.5124 2.71459 0
M  V30 179 H 22.3091 3.42772 1.59108 0
M  V30 180 H 22.6221 7.24993 2.67592 0
M  V30 181 H 20.9671 6.51765 2.41304 0
M  V30 182 H 24.1581 4.28066 1.89412 0
M  V30 183 H 24.3311 6.02354 2.38902 0
M  V30 184 N 17.7372 -0.778329 1.37039 0
M  V30 185 C 18.7002 -1.87301 1.32102 0
M  V30 186 C 19.7002 -1.59198 0.226405 0
M  V30 187 O 20.8902 -1.67403 0.481861 0
M  V30 188 C 18.0222 -3.24309 1.05055 0
M  V30 189 H 19.2152 -1.93093 2.29467 0
M  V30 190 H 16.7682 -0.977358 1.21973 0
M  V30 191 H 17.5032 -3.24196 0.0819373 0
M  V30 192 H 17.2882 -3.46098 1.84279 0
M  V30 193 H 18.7782 -4.04382 1.04234 0
M  V30 194 N 19.2153 -1.21501 -1.00376 0
M  V30 195 C 20.1483 -0.918669 -2.08892 0
M  V30 196 C 21.1263 0.134277 -1.62045 0
M  V30 197 O 22.3103 0.00504255 -1.88499 0
M  V30 198 C 19.4373 -0.379645 -3.36566 0
M  V30 199 C 18.4833 -1.41559 -4.02323 0
M  V30 200 S 19.3163 -2.98521 -4.44574 0
M  V30 201 C 20.4723 -2.46228 -5.75433 0
M  V30 202 H 20.7053 -1.83761 -2.33707 0
M  V30 203 H 18.2383 -1.04489 -1.13673 0
M  V30 204 H 20.1963 -0.0752195 -4.10431 0
M  V30 205 H 18.8573 0.518008 -3.09799 0
M  V30 206 H 18.0503 -0.988076 -4.9422 0
M  V30 207 H 17.6523 -1.66815 -3.34737 0
M  V30 208 H 19.9443 -1.86791 -6.51241 0
M  V30 209 H 20.8873 -3.36572 -6.22997 0
M  V30 210 H 21.2953 -1.87894 -5.32312 0
M  V30 211 N 20.6934 1.19889 -1.02296 0
M  V30 212 C 21.6414 2.24938 -0.592081 0
M  V30 213 C 22.6354 1.65257 0.372357 0
M  V30 214 O 23.8414 1.78371 0.241583 0
M  V30 215 H 20.2164 0.731787 -0.173182 0
M  V30 216 H 22.1874 2.58603 -1.48885 0
M  V30 217 C 20.9364 3.47668 0.047351 0
M  V30 218 H 20.2594 3.93875 -0.685772 0
M  V30 219 H 21.6994 4.22852 0.311862 0
M  V30 220 C 20.1584 3.11136 1.29212 0
M  V30 221 O 20.6884 3.2325 2.38479 0
M  V30 222 N 18.8944 2.65625 1.17863 0
M  V30 223 H 18.4414 2.55968 0.289493 0
M  V30 224 H 18.3994 2.41553 2.01245 0
M  V30 225 N 22.1715 0.800033 1.35784 0
M  V30 226 C 23.1345 0.211565 2.28221 0
M  V30 227 C 24.1345 -0.59728 1.49296 0
M  V30 228 O 25.3245 -0.416721 1.69142 0
M  V30 229 C 22.4565 -0.705846 3.33513 0
M  V30 230 H 23.6495 1.02677 2.81776 0
M  V30 231 H 21.2025 0.570211 1.45528 0
M  V30 232 H 21.9375 -1.54498 2.85133 0
M  V30 233 H 21.7225 -0.127655 3.91892 0
M  V30 234 H 23.2125 -1.11211 4.02519 0
M  V30 235 N 23.6496 -1.47581 0.552962 0
M  V30 236 C 24.5796 -2.32762 -0.185451 0
M  V30 237 C 25.5606 -1.43527 -0.912905 0
M  V30 238 O 26.7456 -1.72388 -0.894201 0
M  V30 239 C 23.8756 -3.25219 -1.21859 0
M  V30 240 C 22.8296 -4.23661 -0.607864 0
M  V30 241 C 22.1556 -5.05413 -1.74533 0
M  V30 242 C 23.4556 -5.20481 0.435582 0
M  V30 243 H 25.1496 -2.94749 0.525684 0
M  V30 244 H 22.6956 -1.41738 0.254251 0
M  V30 245 H 24.6486 -3.8365 -1.7433 0
M  V30 246 H 23.3726 -2.61279 -1.95961 0
M  V30 247 H 22.0316 -3.66451 -0.104489 0
M  V30 248 H 21.6796 -4.3788 -2.47529 0
M  V30 249 H 21.3796 -5.72059 -1.34249 0
M  V30 250 H 22.9036 -5.66701 -2.27338 0
M  V30 251 H 24.3176 -5.733 -0.00290157 0
M  V30 252 H 22.7146 -5.95305 0.757067 0
M  V30 253 H 23.7846 -4.66217 1.33303 0
M  V30 254 N 25.1277 -0.289203 -1.54924 0
M  V30 255 C 26.5437 0.0645403 -1.59469 0
M  V30 256 C 26.7437 1.53419 -1.30632 0
M  V30 257 O 25.7997 2.2852 -1.074 0
M  V30 258 C 27.1127 -0.32278 -2.98963 0
M  V30 259 C 28.6607 -0.270564 -3.11828 0
M  V30 260 C 29.1357 -0.632532 -4.53611 0
M  V30 261 N 30.6267 -0.584617 -4.59496 0
M  V30 262 C 31.3617 -0.837314 -5.67254 0
M  V30 263 N 30.8577 -1.15536 -6.83098 0
M  V30 264 N 32.6507 -0.765166 -5.56868 0
M  V30 265 H 24.8017 -1.24714 -1.71931 0
M  V30 266 H 27.0647 -0.504809 -0.802416 0
M  V30 267 H 26.7707 -1.34541 -3.24948 0
M  V30 268 H 26.6447 0.32944 -3.75759 0
M  V30 269 H 29.0317 0.742805 -2.85598 0
M  V30 270 H 29.1127 -0.957242 -2.37214 0
M  V30 271 H 28.7567 -1.64365 -4.80569 0
M  V30 272 H 28.6867 0.07609 -5.26545 0
M  V30 273 H 31.1777 -0.349248 -3.76283 0
M  V30 274 H 31.4907 -1.33447 -7.61191 0
M  V30 275 H 29.8357 -1.19328 -6.84679 0
M  V30 276 H 33.0267 -0.516432 -4.65243 0
M  V30 277 H 33.1997 -0.965477 -6.40767 0
M  V30 278 N 26.6058 1.57591 -0.0167156 0
M  V30 279 C 27.5528 2.09462 0.969251 0
M  V30 280 C 28.5228 0.99381 1.33089 0
M  V30 281 O 29.7078 1.26726 1.42636 0
M  V30 282 C 26.8478 2.61622 2.25051 0
M  V30 283 C 25.9608 3.85666 1.94642 0
M  V30 284 C 25.0958 4.26266 3.16972 0
M  V30 285 C 24.1348 5.43101 2.82326 0
M  V30 286 N 23.2718 5.78915 3.97243 0
M  V30 287 H 28.1118 2.93428 0.519997 0
M  V30 288 H 25.6488 1.45044 0.245087 0
M  V30 289 H 27.6068 2.89949 2.99976 0
M  V30 290 H 26.2368 1.80505 2.67615 0
M  V30 291 H 25.2888 3.64145 1.10013 0
M  V30 292 H 26.6008 4.70678 1.65117 0
M  V30 293 H 25.7548 4.55963 4.00228 0
M  V30 294 H 24.4938 3.39996 3.49648 0
M  V30 295 H 23.4988 5.1311 1.97479 0
M  V30 296 H 24.7238 6.3106 2.50879 0
M  V30 297 H 22.6698 4.95602 4.29785 0
M  V30 298 H 22.5868 6.58539 3.71299 0
M  V30 299 H 23.8548 6.13212 4.81239 0
M  V30 300 N 28.0839 -0.256276 1.55502 0
M  V30 301 C 29.3089 -1.00766 1.81276 0
M  V30 302 C 29.7339 -1.78524 0.59252 0
M  V30 303 O 29.0919 -1.75413 -0.45827 0
M  V30 304 C 29.1399 -1.92869 3.04687 0
M  V30 305 O 28.2439 -3.019 2.80945 0
M  V30 306 H 27.5849 -0.287224 0.598664 0
M  V30 307 H 30.1149 -0.280109 2.02674 0
M  V30 308 H 30.1249 -2.34511 3.33869 0
M  V30 309 H 28.7999 -1.35689 3.93143 0
M  V30 310 H 27.3769 -2.64454 2.62904 0
M  V30 311 N 29.562 -1.4872 -0.521534 0
M  V30 312 C 30.81 -1.56857 -1.27437 0
M  V30 313 C 31.131 -0.247982 -1.93417 0
M  V30 314 O 30.401 0.731151 -1.81744 0
M  V30 315 H 28.981 -0.577885 -0.473347 0
M  V30 316 H 31.643 -1.85233 -0.606205 0
M  V30 317 H 30.739 -2.35402 -2.0492 0
M  V30 318 N 31.0401 0.771051 -1.3745 0
M  V30 319 C 31.9721 1.89352 -1.29146 0
M  V30 320 C 32.9851 1.61477 -0.207124 0
M  V30 321 O 34.1741 1.72382 -0.463324 0
M  V30 322 C 31.2741 3.24596 -0.974195 0
M  V30 323 C 30.4471 3.80111 -2.16413 0
M  V30 324 C 29.5061 4.93832 -1.81703 0
M  V30 325 O 28.5321 5.09382 -2.54006 0
M  V30 326 N 29.7341 5.75483 -0.761573 0
M  V30 327 H 32.4991 1.96991 -2.25864 0
M  V30 328 H 30.0601 0.950191 -1.31084 0
M  V30 329 H 32.0521 3.98193 -0.722828 0
M  V30 330 H 30.6221 3.12454 -0.0955527 0
M  V30 331 H 29.8421 2.98284 -2.57721 0
M  V30 332 H 31.1301 4.13932 -2.95867 0
M  V30 333 H 30.5281 5.65469 -0.161609 0
M  V30 334 H 29.0851 6.49302 -0.570064 0
M  V30 335 N 32.5182 1.22032 0.997298 0
M  V30 336 C 33.4652 0.986467 2.08656 0
M  V30 337 C 34.4352 -0.0902671 1.65855 0
M  V30 338 O 35.6202 0.0584294 1.90711 0
M  V30 339 C 32.7602 0.565569 3.40434 0
M  V30 340 C 31.8732 1.71259 3.96604 0
M  V30 341 C 31.0082 1.24011 5.16522 0
M  V30 342 C 30.0472 2.35896 5.64818 0
M  V30 343 N 29.1842 1.89726 6.7598 0
M  V30 344 H 34.0242 1.91892 2.27994 0
M  V30 345 H 31.5612 0.956199 1.11782 0
M  V30 346 H 33.5192 0.302738 4.161 0
M  V30 347 H 32.1492 -0.329879 3.2111 0
M  V30 348 H 31.2012 2.08986 3.17851 0
M  V30 349 H 32.5132 2.55436 4.28432 0
M  V30 350 H 31.6672 0.934395 5.99461 0
M  V30 351 H 30.4062 0.368487 4.86306 0
M  V30 352 H 29.4112 2.67261 4.8047 0
M  V30 353 H 30.6362 3.23567 5.97061 0
M  V30 354 H 28.5822 1.0492 6.47555 0
M  V30 355 H 28.4992 2.67471 7.07103 0
M  V30 356 H 29.7672 1.62211 7.62435 0
M  V30 357 N 33.9963 -1.19345 1.0293 0
M  V30 358 C 34.9463 -2.20472 0.58104 0
M  V30 359 C 35.9303 -1.56578 -0.370442 0
M  V30 360 O 37.1223 -1.75963 -0.191344 0
M  V30 361 C 34.2513 -3.43236 -0.066306 0
M  V30 362 C 33.3373 -4.14274 0.907642 0
M  V30 363 N 33.7283 -4.61492 2.07023 0
M  V30 364 C 32.0263 -4.39966 0.731177 0
M  V30 365 C 32.7273 -5.1605 2.68454 0
M  V30 366 N 31.7033 -5.06875 1.96414 0
M  V30 367 H 35.5053 -2.54659 1.46717 0
M  V30 368 H 33.0193 -1.35423 0.896345 0
M  V30 369 H 35.0163 -4.14927 -0.405068 0
M  V30 370 H 33.6763 -3.10549 -0.948118 0
M  V30 371 H 34.6873 -4.56304 2.44963 0
M  V30 372 H 31.3643 -4.17377 -0.101507 0
M  V30 373 H 32.7543 -5.6287 3.66915 0
M  V30 374 N 35.4744 -0.807222 -1.35358 0
M  V30 375 C 36.6994 -0.399309 -2.0352 0
M  V30 376 C 37.1244 0.981986 -1.60433 0
M  V30 377 O 36.4824 1.63601 -0.781299 0
M  V30 378 C 36.5304 -0.491552 -3.57234 0
M  V30 379 O 35.6344 0.494754 -4.09421 0
M  V30 380 H 34.9754 -0.166682 -0.642739 0
M  V30 381 H 37.5054 -1.09328 -1.72941 0
M  V30 382 H 37.5154 -0.361588 -4.06395 0
M  V30 383 H 36.1904 -1.49907 -3.87944 0
M  V30 384 H 34.7674 0.324977 -3.71481 0
M  V30 385 N 36.9525 1.47285 -0.560781 0
M  V30 386 C 38.1775 2.07359 -0.0410566 0
M  V30 387 C 38.6025 1.41017 1.24483 0
M  V30 388 O 37.9605 0.486368 1.74654 0
M  V30 389 C 38.0085 3.6035 0.134123 0
M  V30 390 O 37.1125 3.94681 1.19587 0
M  V30 391 H 36.4535 0.661887 -0.0529291 0
M  V30 392 H 38.9835 1.89252 -0.777482 0
M  V30 393 H 38.9935 4.0652 0.347207 0
M  V30 394 H 37.6685 4.08034 -0.805047 0
M  V30 395 H 36.2455 3.60251 0.962987 0
M  V30 396 N 38.4306 0.297415 1.54768 0
M  V30 397 C 39.3406 -0.58983 2.27064 0
M  V30 398 C 40.3566 -1.15144 1.30453 0
M  V30 399 O 41.5326 -1.17699 1.63428 0
M  V30 400 C 38.5976 -1.74714 2.9946 0
M  V30 401 C 37.6586 -1.21997 4.11601 0
M  V30 402 C 36.8916 -2.32212 4.80535 0
M  V30 403 O 37.1146 -3.52036 4.48806 0
M  V30 404 O 36.0486 -1.99106 5.68014 0
M  V30 405 H 39.8746 -0.00348199 3.037 0
M  V30 406 H 37.4596 0.0640035 1.49263 0
M  V30 407 H 39.3416 -2.42147 3.44881 0
M  V30 408 H 38.0166 -2.32016 2.25722 0
M  V30 409 H 36.9236 -0.511458 3.70587 0
M  V30 410 H 38.2566 -0.692419 4.87305 0
M  V30 411 N 39.9087 -1.5758 0.0250728 0
M  V30 412 C 41.1337 -1.96337 -0.668317 0
M  V30 413 C 41.5587 -0.901314 -1.651 0
M  V30 414 O 40.9167 0.138187 -1.80773 0
M  V30 415 C 40.9647 -3.34191 -1.35457 0
M  V30 416 O 40.0687 -3.30269 -2.46974 0
M  V30 417 H 39.4097 -0.640281 -0.175887 0
M  V30 418 H 41.9397 -2.0442 0.0857224 0
M  V30 419 H 41.9497 -3.70331 -1.71228 0
M  V30 420 H 40.6247 -4.11036 -0.634218 0
M  V30 421 H 39.2017 -3.05841 -2.13344 0
M  V30 422 N 41.3868 0.248026 -1.55636 0
M  V30 423 C 42.3188 1.32993 -1.8667 0
M  V30 424 C 43.3318 1.44345 -0.752877 0
M  V30 425 O 44.5208 1.45715 -1.03098 0
M  V30 426 C 41.6208 2.70863 -2.03682 0
M  V30 427 C 40.7938 2.81792 -3.34532 0
M  V30 428 C 39.8528 4.005 -3.41301 0
M  V30 429 O 38.8788 3.9008 -4.14519 0
M  V30 430 N 40.0808 5.13618 -2.70512 0
M  V30 431 H 42.8458 1.06707 -2.8006 0
M  V30 432 H 40.4068 0.438129 -1.55859 0
M  V30 433 H 42.3988 3.48612 -2.05553 0
M  V30 434 H 40.9688 2.89862 -1.17041 0
M  V30 435 H 40.1888 1.90729 -3.44987 0
M  V30 436 H 41.4768 2.86043 -4.20781 0
M  V30 437 H 40.8748 5.24975 -2.10755 0
M  V30 438 H 39.4318 5.89505 -2.78077 0
M  V30 439 N 42.8649 1.48995 0.513639 0
M  V30 440 C 43.7949 1.67636 1.62544 0
M  V30 441 C 44.7759 0.525087 1.61793 0
M  V30 442 O 45.9609 0.759502 1.78732 0
M  V30 443 C 43.0909 1.73114 3.01079 0
M  V30 444 C 42.0449 2.87905 3.16693 0
M  V30 445 C 41.3709 2.78486 4.56453 0
M  V30 446 C 42.6709 4.29005 2.97913 0
M  V30 447 H 44.3649 2.60716 1.47198 0
M  V30 448 H 41.9109 1.25465 0.706714 0
M  V30 449 H 43.8639 1.84742 3.78746 0
M  V30 450 H 42.5879 0.766241 3.17484 0
M  V30 451 H 41.2469 2.75859 2.41448 0
M  V30 452 H 40.8949 1.7993 4.69717 0
M  V30 453 H 40.5949 3.55523 4.67843 0
M  V30 454 H 42.1189 2.92104 5.36197 0
M  V30 455 H 43.5329 4.41798 3.65359 0
M  V30 456 H 41.9299 5.07166 3.20785 0
M  V30 457 H 42.9999 4.44329 1.94165 0
M  V30 458 N 44.343 -0.763751 1.37857 0
M  V30 459 C 45.591 -1.51957 1.33243 0
M  V30 460 C 45.912 -1.94835 -0.0801709 0
M  V30 461 O 45.182 -1.66894 -1.02582 0
M  V30 462 H 43.762 -0.563626 0.49024 0
M  V30 463 H 46.424 -0.908504 1.7243 0
M  V30 464 H 45.52 -2.41523 1.97669 0
M  V30 465 N 45.8211 -1.22559 -0.990812 0
M  V30 466 C 47.0461 -1.07862 -1.77145 0
M  V30 467 C 47.4711 0.366447 -1.84496 0
M  V30 468 O 46.8291 1.26478 -1.29896 0
M  V30 469 C 46.8771 -1.69686 -3.18181 0
M  V30 470 O 45.9811 -0.951946 -4.01263 0
M  V30 471 H 45.3221 -0.378712 -0.545411 0
M  V30 472 H 47.8521 -1.62399 -1.2445 0
M  V30 473 H 47.8621 -1.74496 -3.68802 0
M  V30 474 H 46.5371 -2.74841 -3.12146 0
M  V30 475 H 45.1141 -0.980011 -3.59792 0
M  V30 476 N 47.2992 1.18797 -1.03562 0
M  V30 477 C 48.5242 1.9314 -0.755764 0
M  V30 478 C 48.9492 1.7537 0.68022 0
M  V30 479 O 48.3072 1.06046 1.47051 0
M  V30 480 C 48.3552 3.42747 -1.12058 0
M  V30 481 O 47.4592 4.11683 -0.243124 0
M  V30 482 H 46.8002 0.602724 -0.278604 0
M  V30 483 H 49.3302 1.50678 -1.3841 0
M  V30 484 H 49.3402 3.93437 -1.08035 0
M  V30 485 H 48.0152 3.55002 -2.16672 0
M  V30 486 H 46.5922 3.71323 -0.342539 0
M  V30 487 N 48.7773 0.814389 1.34928 0
M  V30 488 C 49.6873 0.231978 2.3345 0
M  V30 489 C 50.7033 -0.629139 1.62228 0
M  V30 490 O 51.8793 -0.539052 1.94052 0
M  V30 491 C 48.9443 -0.603482 3.41407 0
M  V30 492 C 48.0053 0.279037 4.28392 0
M  V30 493 C 47.2383 -0.516643 5.31193 0
M  V30 494 O 47.4613 -1.75068 5.4287 0
M  V30 495 O 46.3953 0.0965652 6.01823 0
M  V30 496 H 50.2213 1.04721 2.85074 0
M  V30 497 H 47.8063 0.576343 1.37836 0
M  V30 498 H 49.6883 -1.07908 4.0735 0
M  V30 499 H 48.3633 -1.39618 2.92042 0
M  V30 500 H 47.2703 0.801948 3.65403 0
M  V30 501 H 48.6033 1.03588 4.81176 0
M  V30 502 N 50.2554 -1.46986 0.568584 0
M  V30 503 C 51.5044 -2.01646 0.0465894 0
M  V30 504 C 51.8174 -1.44721 -1.31587 0
M  V30 505 O 53.0234 -1.91113 -1.92842 0
M  V30 506 C 51.4794 -3.59885 0.032752 0
M  V30 507 C 51.0874 -4.25804 1.39266 0
M  V30 508 C 52.8314 -4.22255 -0.436038 0
M  V30 509 C 50.7384 -5.76081 1.33732 0
M  V30 510 H 49.6684 -0.753876 0.013647 0
M  V30 511 H 52.3194 -1.68864 0.718131 0
M  V30 512 H 50.7014 -3.8968 -0.704669 0
M  V30 513 H 51.8754 -4.07637 2.1487 0
M  V30 514 H 50.1904 -3.7547 1.80032 0
M  V30 515 H 52.7874 -5.32394 -0.49602 0
M  V30 516 H 53.1304 -3.90212 -1.45053 0
M  V30 517 H 53.6634 -3.97033 0.246877 0
M  V30 518 H 50.4024 -6.12761 2.32817 0
M  V30 519 H 49.9224 -5.96553 0.623267 0
M  V30 520 H 51.6014 -6.38518 1.0442 0
M  V30 521 N 51.7335 -0.305618 -1.54608 0
M  V30 522 C 52.9815 0.301701 -1.99835 0
M  V30 523 C 53.3025 1.54054 -1.19551 0
M  V30 524 O 52.5725 1.93702 -0.292658 0
M  V30 525 H 51.1525 0.114468 -0.738178 0
M  V30 526 H 53.8145 -0.418016 -1.90364 0
M  V30 527 H 52.9105 0.570548 -3.06841 0
M  V30 528 N 53.2116 1.57565 -0.0334293 0
M  V30 529 C 54.4396 1.9628 0.654347 0
M  V30 530 C 54.8546 0.910138 1.65414 0
M  V30 531 O 54.2116 -0.107595 1.82183 0
M  V30 532 C 54.2626 3.35067 1.35693 0
M  V30 533 O 53.9836 4.36296 0.397191 0
M  V30 534 C 55.4846 3.88439 2.13613 0
M  V30 535 H 52.7046 0.646369 0.180132 0
M  V30 536 H 55.2486 2.04282 -0.0944721 0
M  V30 537 H 53.4036 3.2827 2.05712 0
M  V30 538 H 53.8176 5.1678 0.896597 0
M  V30 539 H 55.2916 4.8788 2.58219 0
M  V30 540 H 55.7686 3.22914 2.97696 0
M  V30 541 H 56.3746 3.98516 1.48543 0
M  V30 542 N 54.6897 -0.239769 1.55765 0
M  V30 543 C 55.9177 -0.98417 1.81994 0
M  V30 544 C 56.3327 -1.7867 0.610124 0
M  V30 545 O 55.6897 -1.77571 -0.421271 0
M  V30 546 C 55.7407 -1.91635 3.06526 0
M  V30 547 O 55.4617 -1.14629 4.22838 0
M  V30 548 C 56.9627 -2.77616 3.45607 0
M  V30 549 H 54.1827 -0.28928 0.605441 0
M  V30 550 H 56.7267 -0.260499 2.02834 0
M  V30 551 H 54.8817 -2.5942 2.87715 0
M  V30 552 H 55.2957 -1.77745 4.93464 0
M  V30 553 H 56.7697 -3.38759 4.35828 0
M  V30 554 H 57.2467 -3.4909 2.6652 0
M  V30 555 H 57.8527 -2.15271 3.66795 0
M  V30 556 N 56.1678 -1.49265 -0.50573 0
M  V30 557 C 57.5838 -1.35923 -0.836486 0
M  V30 558 C 57.7838 -0.388704 -1.97715 0
M  V30 559 O 56.8398 0.181336 -2.51848 0
M  V30 560 C 58.1528 -2.76531 -1.18115 0
M  V30 561 C 59.7008 -2.85197 -1.28964 0
M  V30 562 C 60.1758 -4.26561 -1.66761 0
M  V30 563 N 61.6668 -4.2935 -1.73819 0
M  V30 564 C 62.4018 -5.35693 -2.045 0
M  V30 565 N 61.8978 -6.52287 -2.33438 0
M  V30 566 N 63.6908 -5.23105 -2.05711 0
M  V30 567 H 55.8418 -2.10965 0.246519 0
M  V30 568 H 58.1048 -0.9468 0.0476887 0
M  V30 569 H 57.8108 -3.49226 -0.416398 0
M  V30 570 H 57.6848 -3.11599 -2.1257 0
M  V30 571 H 60.0718 -2.12742 -2.04511 0
M  V30 572 H 60.1528 -2.53718 -0.325704 0
M  V30 573 H 59.7968 -4.99541 -0.917656 0
M  V30 574 H 59.7268 -4.55502 -2.64246 0
M  V30 575 H 62.2178 -3.4526 -1.53635 0
M  V30 576 H 62.5308 -7.29158 -2.56024 0
M  V30 577 H 60.8758 -6.55521 -2.30905 0
M  V30 578 H 64.0668 -4.31026 -1.82577 0
M  V30 579 H 64.2398 -6.06078 -2.29289 0
M  V30 580 N 57.6459 0.756429 -1.3826 0
M  V30 581 C 58.5959 1.86069 -1.31766 0
M  V30 582 C 59.5799 1.59621 -0.202483 0
M  V30 583 O 60.7719 1.7149 -0.438211 0
M  V30 584 C 57.9009 3.23742 -1.1422 0
M  V30 585 C 56.9869 3.56091 -2.30348 0
M  V30 586 N 57.3779 3.59517 -3.55783 0
M  V30 587 C 55.6759 3.86341 -2.22838 0
M  V30 588 C 56.3769 3.89052 -4.32451 0
M  V30 589 N 55.3529 4.05736 -3.61772 0
M  V30 590 H 59.1549 1.86992 -2.26741 0
M  V30 591 H 56.6689 0.953643 -1.31451 0
M  V30 592 H 58.6659 4.02761 -1.07652 0
M  V30 593 H 57.3259 3.24073 -0.201763 0
M  V30 594 H 58.3369 3.41347 -3.89491 0
M  V30 595 H 55.0139 3.94404 -1.36937 0
M  V30 596 H 56.4039 3.98349 -5.4108 0
M  V30 597 N 59.124 1.23083 0.984299 0
M  V30 598 C 60.37 1.06214 1.72761 0
M  V30 599 C 60.703 -0.400584 1.90024 0
M  V30 600 O 59.978 -1.29672 1.44967 0
M  V30 601 C 60.261 1.78375 3.12817 0
M  V30 602 C 60.114 3.32296 3.03149 0
M  V30 603 C 61.433 1.54309 4.12161 0
M  V30 604 H 58.552 0.387251 0.627061 0
M  V30 605 H 61.194 1.51536 1.14616 0
M  V30 606 H 59.344 1.39848 3.62457 0
M  V30 607 H 61.016 3.8032 2.61064 0
M  V30 608 H 59.259 3.6153 2.39747 0
M  V30 609 H 59.93 3.77972 4.02295 0
M  V30 610 H 62.406 1.87791 3.71314 0
M  V30 611 H 61.282 2.07281 5.08258 0
M  V30 612 H 61.543 0.477572 4.39513 0
M  V30 613 N 60.6021 -1.18246 1.0419 0
M  V30 614 C 61.8321 -1.91916 0.764961 0
M  V30 615 C 62.2401 -1.76485 -0.681898 0
M  V30 616 O 61.5831 -1.09275 -1.47664 0
M  V30 617 C 61.6451 -3.4373 1.05309 0
M  V30 618 C 61.3091 -3.8294 2.4941 0
M  V30 619 C 62.3061 -3.86621 3.47592 0
M  V30 620 C 59.9911 -4.142 2.84155 0
M  V30 621 C 61.9851 -4.21013 4.78568 0
M  V30 622 C 59.6721 -4.48262 4.15337 0
M  V30 623 C 60.6701 -4.51645 5.12353 0
M  V30 624 O 60.3581 -4.84911 6.41183 0
M  V30 625 H 60.0901 -0.61606 0.278292 0
M  V30 626 H 62.6441 -1.50947 1.39299 0
M  V30 627 H 60.8741 -3.84946 0.367933 0
M  V30 628 H 62.5631 -3.9865 0.763752 0
M  V30 629 H 63.3291 -3.62607 3.22089 0
M  V30 630 H 59.2081 -4.10743 2.09311 0
M  V30 631 H 62.7521 -4.23568 5.54289 0
M  V30 632 H 58.6491 -4.71737 4.40607 0
M  V30 633 H 59.4171 -5.02809 6.45852 0
M  V30 634 N 62.0802 -0.821533 -1.34494 0
M  V30 635 C 63.3572 -0.33159 -1.92769 0
M  V30 636 C 63.7372 1.18088 -1.74981 0
M  V30 637 O 63.0852 1.98733 -1.12772 0
M  V30 638 C 63.2952 -0.759398 -3.40638 0
M  V30 639 C 64.6432 -0.757433 -4.1779 0
M  V30 640 O 65.6672 -0.70189 -3.49216 0
M  V30 641 O 64.5262 -0.829361 -5.4017 0
M  V30 642 H 61.6202 -0.0902502 -0.822061 0
M  V30 643 H 64.1662 -0.906231 -1.43477 0
M  V30 644 H 62.9382 -1.8012 -3.47379 0
M  V30 645 H 62.5612 -0.160378 -3.97276 0
M  V30 646 N 63.5583 1.46682 -0.576371 0
M  V30 647 C 64.8043 2.02712 -0.0596221 0
M  V30 648 C 65.1373 1.44765 1.29448 0
M  V30 649 O 64.4123 0.610355 1.84675 0
M  V30 650 C 64.6953 3.60098 0.0129503 0
M  V30 651 C 64.5483 4.28441 -1.3696 0
M  V30 652 C 65.8673 4.34224 0.71678 0
M  V30 653 H 62.9863 0.736637 -0.0231407 0
M  V30 654 H 65.6283 1.74898 -0.742351 0
M  V30 655 H 63.7783 3.83926 0.594378 0
M  V30 656 H 65.4503 4.15896 -1.9957 0
M  V30 657 H 63.6933 3.8805 -1.93907 0
M  V30 658 H 64.3643 5.3716 -1.27135 0
M  V30 659 H 66.8403 4.15503 0.222908 0
M  V30 660 H 65.7163 5.43936 0.73657 0
M  V30 661 H 65.9773 4.04823 1.77682 0
M  V30 662 N 65.0364 0.313813 1.54444 0
M  V30 663 C 66.2764 -0.292389 2.02298 0
M  V30 664 C 66.6404 -1.50105 1.19719 0
M  V30 665 O 67.8414 -2.17947 1.5733 0
M  V30 666 C 66.1124 -0.627682 3.51845 0
M  V30 667 S 67.6714 -1.21493 4.21646 0
M  V30 668 H 64.4894 -0.0890247 0.705405 0
M  V30 669 H 67.0914 0.444668 1.90376 0
M  V30 670 H 65.7954 0.260265 4.09574 0
M  V30 671 H 65.3264 -1.39519 3.67829 0
M  V30 672 H 67.3414 -2.5022 4.28491 0
M  V30 673 N 66.5145 -1.57545 0.0417849 0
M  V30 674 C 67.7915 -1.83642 -0.673433 0
M  V30 675 C 68.1715 -0.928298 -1.89594 0
M  V30 676 O 67.5195 0.0129955 -2.28496 0
M  V30 677 C 67.7295 -3.33155 -1.03964 0
M  V30 678 C 69.0775 -3.99941 -1.42592 0
M  V30 679 O 70.1015 -3.37725 -1.13226 0
M  V30 680 O 68.9605 -5.09619 -1.9736 0
M  V30 681 H 66.0545 -0.757638 -0.331533 0
M  V30 682 H 68.6005 -1.69554 0.070433 0
M  V30 683 H 67.3725 -3.9093 -0.170098 0
M  V30 684 H 66.9955 -3.52396 -1.84126 0
M  V30 685 N 67.9926 0.231505 -1.5589 0
M  V30 686 C 69.2326 0.964533 -1.80211 0
M  V30 687 C 69.5966 1.81926 -0.613744 0
M  V30 688 O 70.7976 2.58526 -0.736045 0
M  V30 689 C 69.0686 1.78956 -3.09369 0
M  V30 690 S 70.6276 2.57959 -3.54969 0
M  V30 691 H 67.4456 0.324173 -0.632798 0
M  V30 692 H 70.0476 0.230985 -1.94131 0
M  V30 693 H 68.7516 1.15161 -3.93911 0
M  V30 694 H 68.2826 2.56559 -2.9823 0
M  V30 695 H 70.2976 3.81309 -3.17519 0
M  V30 696 N 69.4707 1.49531 0.497807 0
M  V30 697 C 70.4007 1.6935 1.60757 0
M  V30 698 C 71.3817 0.542218 1.61227 0
M  V30 699 O 72.5667 0.778417 1.77917 0
M  V30 700 C 69.6967 1.76298 2.99226 0
M  V30 701 C 68.6507 2.91248 3.13622 0
M  V30 702 C 67.9767 2.83312 4.53474 0
M  V30 703 C 69.2767 4.3214 2.93346 0
M  V30 704 H 70.9707 2.62263 1.44425 0
M  V30 705 H 68.5167 1.26208 0.693367 0
M  V30 706 H 70.4697 1.88749 3.76765 0
M  V30 707 H 69.1937 0.799871 3.16654 0
M  V30 708 H 67.8527 2.78404 2.38509 0
M  V30 709 H 67.5007 1.84902 4.67782 0
M  V30 710 H 67.2007 3.60465 4.64046 0
M  V30 711 H 68.7247 2.97775 5.33069 0
M  V30 712 H 70.1387 4.45649 3.60652 0
M  V30 713 H 68.5357 5.1054 3.15387 0
M  V30 714 H 69.6057 4.46363 1.89441 0
M  V30 715 N 70.9488 -0.749086 1.3866 0
M  V30 716 C 72.2258 -1.4992 1.25632 0
M  V30 717 C 72.6058 -2.10633 -0.140317 0
M  V30 718 O 71.9538 -1.97437 -1.15025 0
M  V30 719 C 72.1638 -2.56195 2.36992 0
M  V30 720 C 73.5118 -3.22972 2.75634 0
M  V30 721 O 74.5358 -2.66502 2.36337 0
M  V30 722 O 73.3948 -4.25122 3.43415 0
M  V30 723 H 70.4888 -0.665067 0.491544 0
M  V30 724 H 73.0348 -0.784113 1.50498 0
M  V30 725 H 71.8068 -2.09612 3.30422 0
M  V30 726 H 71.4298 -3.35279 2.13714 0
M  V30 727 N 72.4269 -1.23603 -0.977757 0
M  V30 728 C 73.6549 -1.09646 -1.75458 0
M  V30 729 C 74.0699 0.351859 -1.85492 0
M  V30 730 O 73.4269 1.24327 -1.336 0
M  V30 731 C 73.4779 -1.71895 -3.18016 0
M  V30 732 O 73.1989 -3.11063 -3.08498 0
M  V30 733 C 74.6999 -1.63415 -4.12081 0
M  V30 734 H 71.9199 -0.38359 -0.550545 0
M  V30 735 H 74.4639 -1.63507 -1.22824 0
M  V30 736 H 72.6189 -1.22061 -3.67668 0
M  V30 737 H 73.0329 -3.41305 -3.9826 0
M  V30 738 H 74.5069 -2.11669 -5.09804 0
M  V30 739 H 74.9839 -0.593462 -4.35172 0
M  V30 740 H 75.5899 -2.12628 -3.68334 0
M  V30 741 N 73.905 1.17692 -1.04816 0
M  V30 742 C 74.835 2.23777 -0.666791 0
M  V30 743 C 75.816 1.66796 0.33361 0
M  V30 744 O 77.001 1.93039 0.212042 0
M  V30 745 C 74.131 3.47281 -0.0367933 0
M  V30 746 C 73.085 4.17059 -0.961546 0
M  V30 747 C 72.411 5.34342 -0.195626 0
M  V30 748 C 73.711 4.69713 -2.28402 0
M  V30 749 H 75.405 2.55933 -1.55367 0
M  V30 750 H 72.951 1.23019 -0.748484 0
M  V30 751 H 74.904 4.20706 0.241775 0
M  V30 752 H 73.628 3.14381 0.885004 0
M  V30 753 H 72.287 3.45541 -1.22462 0
M  V30 754 H 71.935 4.97692 0.728816 0
M  V30 755 H 71.635 5.81966 -0.811775 0
M  V30 756 H 73.159 6.10553 0.0757473 0
M  V30 757 H 74.573 5.34794 -2.06563 0
M  V30 758 H 72.97 5.279 -2.8538 0
M  V30 759 H 74.04 3.86726 -2.92525 0
M  V30 760 N 75.3831 0.828654 1.34056 0
M  V30 761 C 76.3461 0.259927 2.27721 0
M  V30 762 C 77.3461 -0.565478 1.50529 0
M  V30 763 O 78.5361 -0.38075 1.69988 0
M  V30 764 C 75.6681 -0.634944 3.34935 0
M  V30 765 H 76.8611 1.0863 2.79534 0
M  V30 766 H 74.4141 0.600951 1.44285 0
M  V30 767 H 75.1491 -1.48416 2.88346 0
M  V30 768 H 74.9341 -0.0444999 3.92075 0
M  V30 769 H 76.4241 -1.02648 4.04788 0
M  V30 770 N 76.8612 -1.46375 0.584142 0
M  V30 771 C 77.8082 -2.30323 -0.148286 0
M  V30 772 C 78.7782 -1.40703 -0.882713 0
M  V30 773 O 79.9632 -1.69651 -0.873099 0
M  V30 774 C 77.1032 -3.25196 -1.15507 0
M  V30 775 C 76.2162 -4.29915 -0.423943 0
M  V30 776 C 75.3512 -5.11914 -1.41838 0
M  V30 777 C 74.3902 -6.08381 -0.673736 0
M  V30 778 N 73.5272 -6.83242 -1.6163 0
M  V30 779 H 78.3672 -2.92427 0.573644 0
M  V30 780 H 75.9042 -1.44118 0.294703 0
M  V30 781 H 77.8622 -3.78646 -1.75166 0
M  V30 782 H 76.4922 -2.64898 -1.8447 0
M  V30 783 H 75.5442 -3.7931 0.287714 0
M  V30 784 H 76.8562 -4.98549 0.158128 0
M  V30 785 H 76.0102 -5.69648 -2.08773 0
M  V30 786 H 74.7492 -4.43243 -2.03438 0
M  V30 787 H 73.7542 -5.49799 0.00938483 0
M  V30 788 H 74.9792 -6.79071 -0.0631082 0
M  V30 789 H 72.9252 -6.1728 -2.22038 0
M  V30 790 H 72.8422 -7.48144 -1.08707 0
M  V30 791 H 74.1102 -7.45534 -2.27596 0
M  V30 792 N 78.3393 -0.321999 -1.54275 0
M  V30 793 C 79.2693 0.537411 -2.27231 0
M  V30 794 C 80.2503 1.12064 -1.27968 0
M  V30 795 O 81.4353 1.14606 -1.56777 0
M  V30 796 C 78.5653 1.69919 -3.02894 0
M  V30 797 C 77.5193 1.24534 -4.09482 0
M  V30 798 C 76.8453 2.49394 -4.72977 0
M  V30 799 C 78.1453 0.361335 -5.21049 0
M  V30 800 H 79.8393 -0.0711406 -2.99315 0
M  V30 801 H 77.3853 -0.0356555 -1.43956 0
M  V30 802 H 79.3383 2.30668 -3.52662 0
M  V30 803 H 78.0623 2.33431 -2.28424 0
M  V30 804 H 76.7213 0.660782 -3.60596 0
M  V30 805 H 76.3693 3.11265 -3.95124 0
M  V30 806 H 76.0693 2.19718 -5.44975 0
M  V30 807 H 77.5933 3.10908 -5.25517 0
M  V30 808 H 79.0073 0.875072 -5.66582 0
M  V30 809 H 77.4043 0.157428 -5.99893 0
M  V30 810 H 78.4743 -0.60822 -4.8107 0
M  V30 811 N 79.8174 1.5752 -0.0501392 0
M  V30 812 C 81.2284 1.80271 0.485705 0
M  V30 813 C 81.5794 0.96228 1.70981 0
M  V30 814 O 80.7044 0.178578 2.15662 0
M  V30 815 C 81.2994 3.26957 0.887938 0
M  V30 816 C 79.8584 3.5063 1.36877 0
M  V30 817 C 79.0054 2.75165 0.343468 0
M  V30 818 H 81.9564 1.56281 -0.276028 0
M  V30 819 H 81.9774 3.37821 1.75093 0
M  V30 820 H 81.4894 3.881 -0.0031809 0
M  V30 821 H 79.5904 2.94766 2.27911 0
M  V30 822 H 79.7034 4.59343 1.36164 0
M  V30 823 H 78.0674 2.4127 0.816128 0
M  V30 824 H 78.8504 3.39034 -0.539548 0
M  V30 825 N 81.2955 -0.223234 1.56011 0
M  V30 826 C 82.5725 -0.972108 1.69733 0
M  V30 827 C 82.9525 -2.02485 0.59691 0
M  V30 828 O 82.3005 -2.25037 -0.396324 0
M  V30 829 C 82.5105 -1.58407 3.10979 0
M  V30 830 C 83.8585 -2.07696 3.70334 0
M  V30 831 O 84.8825 -1.68304 3.1393 0
M  V30 832 O 83.7415 -2.80096 4.69264 0
M  V30 833 H 80.8355 -0.453993 0.691245 0
M  V30 834 H 83.3815 -0.215149 1.68331 0
M  V30 835 H 82.1535 -0.823831 3.82529 0
M  V30 836 H 81.7765 -2.40661 3.16493 0
M  V30 837 N 82.7736 -1.49793 -0.48987 0
M  V30 838 C 84.0506 -1.50348 -1.25119 0
M  V30 839 C 84.4306 -0.237466 -2.0976 0
M  V30 840 O 83.7786 0.77981 -2.14782 0
M  V30 841 C 83.9886 -2.78872 -2.09837 0
M  V30 842 C 85.3366 -3.288 -2.68655 0
M  V30 843 O 86.3606 -2.80065 -2.20096 0
M  V30 844 O 85.2196 -4.13707 -3.57083 0
M  V30 845 H 82.3136 -0.602242 -0.566775 0
M  V30 846 H 84.8596 -1.62067 -0.503229 0
M  V30 847 H 83.6316 -3.62499 -1.47343 0
M  V30 848 H 83.2546 -2.70066 -2.91805 0
M  V30 849 N 84.2517 0.741722 -1.39055 0
M  V30 850 C 85.4767 1.53607 -1.39354 0
M  V30 851 C 85.9017 1.88096 0.0116905 0
M  V30 852 O 85.2597 1.5143 0.996924 0
M  V30 853 C 85.3077 2.80441 -2.26682 0
M  V30 854 O 84.4117 3.76088 -1.69208 0
M  V30 855 H 83.7527 0.464142 -0.474835 0
M  V30 856 H 86.2827 0.915665 -1.82967 0
M  V30 857 H 86.2927 3.29246 -2.40959 0
M  V30 858 H 84.9677 2.5467 -3.2881 0
M  V30 859 H 83.5447 3.34833 -1.64138 0
M  V30 860 N 85.7298 1.2412 0.971189 0
M  V30 861 C 86.9758 1.08041 1.71625 0
M  V30 862 C 87.3088 -0.380407 1.90438 0
M  V30 863 O 86.5838 -1.28127 1.46334 0
M  V30 864 C 86.8668 1.81682 3.10908 0
M  V30 865 C 86.7198 3.35493 2.99608 0
M  V30 866 C 88.0388 1.58671 4.10501 0
M  V30 867 H 85.1578 0.39388 0.622919 0
M  V30 868 H 87.7998 1.52743 1.13003 0
M  V30 869 H 85.9498 1.43684 3.60953 0
M  V30 870 H 87.6218 3.83068 2.57015 0
M  V30 871 H 85.8648 3.64052 2.35899 0
M  V30 872 H 86.5358 3.82217 3.98264 0
M  V30 873 H 89.0118 1.91719 3.69301 0
M  V30 874 H 87.8878 2.1266 5.06031 0
M  V30 875 H 88.1488 0.524161 4.38982 0
M  V30 876 N 87.2079 -1.17134 1.05439 0
M  V30 877 C 88.1399 -2.2078 0.615539 0
M  V30 878 C 89.1529 -1.59584 -0.322001 0
M  V30 879 O 90.3419 -1.78133 -0.114344 0
M  V30 880 C 87.4419 -3.38691 -0.118938 0
M  V30 881 C 86.6149 -4.29454 0.829924 0
M  V30 882 C 85.6739 -5.26024 0.136258 0
M  V30 883 O 84.6999 -5.63952 0.77115 0
M  V30 884 N 85.9019 -5.69487 -1.1254 0
M  V30 885 H 88.6669 -2.59052 1.50705 0
M  V30 886 H 86.2279 -1.32058 0.936603 0
M  V30 887 H 88.2199 -4.00329 -0.593179 0
M  V30 888 H 86.7899 -2.98996 -0.91215 0
M  V30 889 H 86.0099 -3.65211 1.48373 0
M  V30 890 H 87.2979 -4.86984 1.47392 0
M  V30 891 H 86.6959 -5.4075 -1.6615 0
M  V30 892 H 85.2529 -6.33257 -1.54366 0
M  V30 893 N 88.686 -0.835752 -1.33615 0
M  V30 894 C 89.616 -0.281739 -2.31794 0
M  V30 895 C 90.597 0.608833 -1.58831 0
M  V30 896 O 91.782 0.533035 -1.86741 0
M  V30 897 C 88.912 0.546612 -3.42971 0
M  V30 898 C 87.866 -0.247904 -4.27281 0
M  V30 899 C 87.192 0.704001 -5.30045 0
M  V30 900 C 88.492 -1.46324 -5.01385 0
M  V30 901 H 90.186 -1.10206 -2.78379 0
M  V30 902 H 87.732 -0.531388 -1.33837 0
M  V30 903 H 89.685 0.944467 -4.1068 0
M  V30 904 H 88.409 1.40011 -2.95067 0
M  V30 905 H 87.068 -0.627281 -3.61194 0
M  V30 906 H 86.716 1.55381 -4.78399 0
M  V30 907 H 86.416 0.176524 -5.87335 0
M  V30 908 H 87.94 1.09944 -6.0062 0
M  V30 909 H 89.354 -1.13871 -5.61877 0
M  V30 910 H 87.751 -1.92728 -5.6831 0
M  V30 911 H 88.821 -2.23467 -4.30338 0
M  V30 912 N 90.1641 1.46063 -0.591896 0
M  V30 913 C 91.4131 2.01547 -0.0786637 0
M  V30 914 C 91.7261 1.46796 1.29268 0
M  V30 915 O 92.9321 1.94157 1.89777 0
M  V30 916 C 91.3881 3.59787 -0.0900024 0
M  V30 917 C 90.9961 4.23534 -1.46023 0
M  V30 918 C 92.7401 4.22895 0.368806 0
M  V30 919 C 90.6471 5.73881 -1.4288 0
M  V30 920 H 89.5771 0.753564 -0.0256388 0
M  V30 921 H 92.2281 1.677 -0.744905 0
M  V30 922 H 90.6101 3.90752 0.642586 0
M  V30 923 H 91.7841 4.04167 -2.21328 0
M  V30 924 H 90.0991 3.72558 -1.85982 0
M  V30 925 H 92.6961 5.33116 0.411258 0
M  V30 926 H 93.0391 3.9247 1.38827 0
M  V30 927 H 93.5721 3.9659 -0.31001 0
M  V30 928 H 90.3111 6.0898 -2.42536 0
M  V30 929 H 89.8311 5.95486 -0.718095 0
M  V30 930 H 91.5101 6.36776 -1.14565 0
M  V30 931 N 91.6422 0.330177 1.54103 0
M  V30 932 C 92.8912 -0.271336 1.99867 0
M  V30 933 C 93.2042 -1.52723 1.22209 0
M  V30 934 O 94.4102 -2.20515 1.58383 0
M  V30 935 C 92.8662 -0.534032 3.55916 0
M  V30 936 C 92.4742 0.705193 4.42415 0
M  V30 937 C 94.2182 -1.09514 4.1013 0
M  V30 938 C 92.1252 0.414035 5.89949 0
M  V30 939 H 91.0552 -0.105166 0.74663 0
M  V30 940 H 93.7062 0.443429 1.78062 0
M  V30 941 H 92.0882 -1.30915 3.73734 0
M  V30 942 H 93.2622 1.4804 4.36372 0
M  V30 943 H 91.5772 1.18698 3.99124 0
M  V30 944 H 94.1742 -1.3277 5.17954 0
M  V30 945 H 94.5172 -2.04656 3.62521 0
M  V30 946 H 95.0502 -0.381038 3.95971 0
M  V30 947 H 91.7892 1.33481 6.41766 0
M  V30 948 H 91.3092 -0.323336 5.98928 0
M  V30 949 H 92.9882 0.0263105 6.46995 0
M  V30 950 N 93.1203 -1.57491 0.0584922 0
M  V30 951 C 94.3603 -1.94851 -0.617458 0
M  V30 952 C 94.7243 -0.937165 -1.67575 0
M  V30 953 O 95.9253 -1.19795 -2.40629 0
M  V30 954 C 94.1963 -3.36955 -1.19147 0
M  V30 955 S 95.7553 -3.96277 -1.8844 0
M  V30 956 H 92.5733 -0.681539 -0.202547 0
M  V30 957 H 95.1753 -1.95073 0.129176 0
M  V30 958 H 93.8793 -4.08355 -0.409215 0
M  V30 959 H 93.4103 -3.40245 -1.97476 0
M  V30 960 H 95.4253 -3.82099 -3.16568 0
M  V30 961 N 94.5984 0.214957 -1.56127 0
M  V30 962 C 95.8754 0.963093 -1.70247 0
M  V30 963 C 96.2554 2.02166 -0.60764 0
M  V30 964 O 95.6034 2.25244 0.384385 0
M  V30 965 C 95.8134 1.56756 -3.11815 0
M  V30 966 C 97.1614 2.0573 -3.7143 0
M  V30 967 O 98.1854 1.66637 -3.14818 0
M  V30 968 O 97.0444 2.77603 -4.70743 0
M  V30 969 H 94.1384 0.450321 -0.693643 0
M  V30 970 H 96.6844 0.206219 -1.68442 0
M  V30 971 H 95.4564 0.803533 -3.82961 0
M  V30 972 H 95.0794 2.3898 -3.17765 0
M  V30 973 N 96.0765 1.50051 0.48192 0
M  V30 974 C 97.4875 1.5348 1.06305 0
M  V30 975 C 97.8385 0.331997 1.93371 0
M  V30 976 O 96.9635 -0.556256 2.09129 0
M  V30 977 C 97.5585 2.7813 1.93466 0
M  V30 978 C 96.1175 2.84275 2.46707 0
M  V30 979 C 95.2645 2.47637 1.24785 0
M  V30 980 H 98.2155 1.56472 0.264995 0
M  V30 981 H 98.2365 2.59372 2.78399 0
M  V30 982 H 97.7485 3.65654 1.30072 0
M  V30 983 H 95.8495 2.01077 3.13686 0
M  V30 984 H 95.9625 3.8691 2.82555 0
M  V30 985 H 94.3265 1.99835 1.57918 0
M  V30 986 H 95.1095 3.37457 0.630694 0
M  V30 987 N 97.5546 -0.734337 1.39446 0
M  V30 988 C 98.9656 -1.31264 1.32766 0
M  V30 989 C 99.3166 -1.96198 -0.00767497 0
M  V30 990 O 98.4416 -1.96346 -0.909796 0
M  V30 991 C 99.0366 -2.38682 2.4045 0
M  V30 992 C 97.5956 -2.92184 2.37288 0
M  V30 993 C 96.7426 -1.6576 2.22304 0
M  V30 994 H 99.6936 -0.531799 1.49525 0
M  V30 995 H 99.7146 -3.19087 2.07276 0
M  V30 996 H 99.2266 -1.91392 3.37625 0
M  V30 997 H 97.3276 -3.43752 1.43754 0
M  V30 998 H 97.4406 -3.45253 3.3217 0
M  V30 999 H 95.8046 -1.9012 1.69489 0
M  V30 1000 H 96.5876 -1.20521 3.21449 0
M  V30 1001 N 99.0327 -1.24633 -0.964593 0
M  V30 1002 C 100.263 -1.11339 -1.74032 0
M  V30 1003 C 100.671 0.336593 -1.86182 0
M  V30 1004 O 100.014 1.24389 -1.35178 0
M  V30 1005 C 100.076 -1.68284 -3.1768 0
M  V30 1006 C 99.7397 -3.17196 -3.28992 0
M  V30 1007 C 100.737 -4.14308 -3.14078 0
M  V30 1008 C 98.4217 -3.57215 -3.53133 0
M  V30 1009 C 100.416 -5.4942 -3.23135 0
M  V30 1010 C 98.1027 -4.92468 -3.61827 0
M  V30 1011 C 99.1007 -5.8838 -3.46841 0
M  V30 1012 O 98.7887 -7.21173 -3.55197 0
M  V30 1013 H 98.5207 -0.389551 -0.552472 0
M  V30 1014 H 101.075 -1.65282 -1.21946 0
M  V30 1015 H 99.3047 -1.08777 -3.71085 0
M  V30 1016 H 100.994 -1.50234 -3.77074 0
M  V30 1017 H 101.76 -3.84731 -2.95308 0
M  V30 1018 H 97.6387 -2.83063 -3.63863 0
M  V30 1019 H 101.183 -6.24263 -3.11355 0
M  V30 1020 H 97.0797 -5.21714 -3.80111 0
M  V30 1021 H 97.8477 -7.29135 -3.71892 0
M  V30 1022 N 100.511 1.16574 -1.06058 0
M  V30 1023 C 101.459 2.22941 -0.663343 0
M  V30 1024 C 102.453 1.66358 0.319593 0
M  V30 1025 O 103.659 1.7905 0.184713 0
M  V30 1026 H 100.034 0.725907 -0.196376 0
M  V30 1027 H 102.005 2.53736 -1.57037 0
M  V30 1028 C 100.754 3.47642 -0.0632808 0
M  V30 1029 H 100.077 3.91493 -0.810733 0
M  V30 1030 H 101.517 4.2363 0.177177 0
M  V30 1031 C 99.9758 3.1509 1.19248 0
M  V30 1032 O 100.506 3.30673 2.28075 0
M  V30 1033 N 98.7118 2.6924 1.09353 0
M  V30 1034 H 98.2588 2.5676 0.207912 0
M  V30 1035 H 98.2168 2.47833 1.93458 0
M  V30 1036 N 101.989 0.842826 1.3317 0
M  V30 1037 C 103.238 0.436738 1.96915 0
M  V30 1038 C 103.551 -1.01025 1.67491 0
M  V30 1039 O 104.757 -1.5212 2.24881 0
M  V30 1040 C 103.213 0.730021 3.52418 0
M  V30 1041 C 102.821 2.19195 3.90714 0
M  V30 1042 C 104.565 0.391076 4.22695 0
M  V30 1043 C 102.472 2.42907 5.39212 0
M  V30 1044 H 101.402 0.15958 0.736919 0
M  V30 1045 H 104.053 1.03196 1.51733 0
M  V30 1046 H 102.435 0.0643755 3.95948 0
M  V30 1047 H 103.609 2.8984 3.58231 0
M  V30 1048 H 101.924 2.49425 3.33431 0
M  V30 1049 H 104.521 0.545817 5.31907 0
M  V30 1050 H 104.864 -0.666294 4.10933 0
M  V30 1051 H 105.397 1.01212 3.84709 0
M  V30 1052 H 102.136 3.47224 5.55982 0
M  V30 1053 H 101.656 1.76827 5.73142 0
M  V30 1054 H 103.335 2.2626 6.06148 0
M  V30 1055 N 103.467 -1.45747 0.599634 0
M  V30 1056 C 104.4 -2.27547 -0.172552 0
M  V30 1057 C 105.378 -1.36657 -0.881116 0
M  V30 1058 O 106.562 -1.66081 -0.891595 0
M  V30 1059 C 103.689 -3.14829 -1.24903 0
M  V30 1060 C 102.735 -4.21603 -0.644465 0
M  V30 1061 S 103.568 -5.32754 0.541606 0
M  V30 1062 C 104.724 -6.23604 -0.535656 0
M  V30 1063 H 104.957 -2.92691 0.521468 0
M  V30 1064 H 102.49 -1.49473 0.386947 0
M  V30 1065 H 104.448 -3.65675 -1.86527 0
M  V30 1066 H 103.109 -2.48965 -1.91508 0
M  V30 1067 H 102.302 -4.82566 -1.45417 0
M  V30 1068 H 101.904 -3.73857 -0.103534 0
M  V30 1069 H 104.196 -6.62519 -1.41686 0
M  V30 1070 H 105.139 -7.0809 0.0376246 0
M  V30 1071 H 105.547 -5.58103 -0.84741 0
M  V30 1072 N 104.945 -0.338344 -1.53925 0
M  V30 1073 C 105.875 0.51328 -2.27789 0
M  V30 1074 C 106.856 1.107 -1.29149 0
M  V30 1075 O 108.041 1.12937 -1.57984 0
M  V30 1076 C 105.171 1.66697 -3.04679 0
M  V30 1077 C 104.125 1.20183 -4.1078 0
M  V30 1078 C 103.451 2.44363 -4.75595 0
M  V30 1079 C 104.751 0.30605 -5.21403 0
M  V30 1080 H 106.445 -0.102883 -2.99223 0
M  V30 1081 H 103.991 -0.0509219 -1.4391 0
M  V30 1082 H 105.944 2.26915 -3.55088 0
M  V30 1083 H 104.668 2.30995 -2.30887 0
M  V30 1084 H 103.327 0.622499 -3.61276 0
M  V30 1085 H 102.975 3.07057 -3.98403 0
M  V30 1086 H 102.675 2.13925 -5.47275 0
M  V30 1087 H 104.199 3.05317 -5.28786 0
M  V30 1088 H 105.613 0.814929 -5.67478 0
M  V30 1089 H 104.01 0.0937929 -6.00027 0
M  V30 1090 H 105.08 -0.65921 -4.80398 0
M  V30 1091 N 106.423 1.57458 -0.0668435 0
M  V30 1092 C 107.386 2.11323 0.887422 0
M  V30 1093 C 108.386 1.03618 1.22964 0
M  V30 1094 O 109.576 1.29626 1.16373 0
M  V30 1095 C 106.708 2.61048 2.19242 0
M  V30 1096 H 107.901 2.96942 0.420194 0
M  V30 1097 H 105.454 1.55239 0.181793 0
M  V30 1098 H 106.189 1.78868 2.70512 0
M  V30 1099 H 105.974 3.39769 1.95702 0
M  V30 1100 H 107.464 3.02814 2.87565 0
M  V30 1101 N 107.901 -0.206675 1.56239 0
M  V30 1102 C 109.178 -0.954051 1.70755 0
M  V30 1103 C 109.558 -2.01841 0.618353 0
M  V30 1104 O 108.906 -2.25444 -0.372434 0
M  V30 1105 C 109.116 -1.551 3.12642 0
M  V30 1106 C 110.464 -2.03757 3.72516 0
M  V30 1107 O 111.488 -1.64965 3.15698 0
M  V30 1108 O 110.347 -2.75103 4.72208 0
M  V30 1109 H 107.441 -0.446636 0.696021 0
M  V30 1110 H 109.987 -0.197283 1.68549 0
M  V30 1111 H 108.759 -0.783212 3.83382 0
M  V30 1112 H 108.382 -2.37291 3.19028 0
M  V30 1113 N 109.379 -1.50304 -0.473955 0
M  V30 1114 C 110.625 -1.62358 -1.22521 0
M  V30 1115 C 110.98 -0.318555 -1.89745 0
M  V30 1116 O 110.273 0.683315 -1.79001 0
M  V30 1117 C 110.467 -2.73938 -2.29549 0
M  V30 1118 C 110.296 -4.15165 -1.72825 0
M  V30 1119 C 109.066 -4.81604 -1.52924 0
M  V30 1120 C 111.264 -4.99503 -1.22481 0
M  V30 1121 N 109.246 -6.07056 -0.91413 0
M  V30 1122 C 110.617 -6.15655 -0.732743 0
M  V30 1123 C 112.672 -4.85299 -1.11308 0
M  V30 1124 C 111.375 -7.19164 -0.139976 0
M  V30 1125 C 113.401 -5.88982 -0.534258 0
M  V30 1126 C 112.763 -7.0438 -0.0525562 0
M  V30 1127 H 108.862 -0.648286 -0.437321 0
M  V30 1128 H 111.446 -1.87413 -0.527692 0
M  V30 1129 H 109.617 -2.50611 -2.9673 0
M  V30 1130 H 111.349 -2.75366 -2.96573 0
M  V30 1131 H 108.104 -4.3885 -1.78067 0
M  V30 1132 H 108.528 -6.74108 -0.625071 0
M  V30 1133 H 113.17 -3.96369 -1.47144 0
M  V30 1134 H 110.888 -8.07771 0.230591 0
M  V30 1135 H 114.474 -5.80055 -0.450219 0
M  V30 1136 H 113.354 -7.83238 0.388324 0
M  V30 1137 N 110.857 0.726932 -1.39834 0
M  V30 1138 C 112.134 1.47902 -1.28001 0
M  V30 1139 C 112.514 2.1083 0.106789 0
M  V30 1140 O 111.862 1.99242 1.11869 0
M  V30 1141 C 112.072 2.52392 -2.41038 0
M  V30 1142 C 113.42 3.18546 -2.80737 0
M  V30 1143 O 114.444 2.62708 -2.40547 0
M  V30 1144 O 113.303 4.19604 -3.50135 0
M  V30 1145 H 110.397 0.657163 -0.502062 0
M  V30 1146 H 112.943 0.760071 -1.51727 0
M  V30 1147 H 111.715 2.04329 -3.33715 0
M  V30 1148 H 111.338 3.31837 -2.19021 0
M  V30 1149 N 112.336 1.25143 0.95797 0
M  V30 1150 C 113.613 1.00472 1.67823 0
M  V30 1151 C 113.993 -0.470056 2.058 0
M  V30 1152 O 113.341 -1.44663 1.76875 0
M  V30 1153 C 113.551 1.9372 2.90299 0
M  V30 1154 C 114.899 2.21371 3.62326 0
M  V30 1155 O 115.923 1.91451 3.00375 0
M  V30 1156 O 114.782 2.72231 4.7387 0
M  V30 1157 H 111.876 0.380752 0.734137 0
M  V30 1158 H 114.422 1.36283 1.01119 0
M  V30 1159 H 113.194 2.93316 2.59001 0
M  V30 1160 H 112.817 1.58286 3.64735 0
M  V30 1161 N 113.814 -1.1601 1.06675 0
M  V30 1162 C 114.764 -2.18512 0.650888 0
M  V30 1163 C 115.748 -1.57677 -0.320441 0
M  V30 1164 O 116.94 -1.76482 -0.135266 0
M  V30 1165 C 114.069 -3.43273 0.0429255 0
M  V30 1166 C 113.155 -4.11176 1.03898 0
M  V30 1167 N 113.546 -4.54672 2.216 0
M  V30 1168 C 111.844 -4.37417 0.870779 0
M  V30 1169 C 112.545 -5.07248 2.84736 0
M  V30 1170 N 111.521 -5.0037 2.12441 0
M  V30 1171 H 115.323 -2.49863 1.54745 0
M  V30 1172 H 112.837 -1.32503 0.938975 0
M  V30 1173 H 114.834 -4.16006 -0.272857 0
M  V30 1174 H 113.494 -3.13408 -0.84884 0
M  V30 1175 H 114.505 -4.4828 2.59356 0
M  V30 1176 H 111.182 -4.17488 0.0313293 0
M  V30 1177 H 112.572 -5.50912 3.84636 0
M  V30 1178 N 115.292 -0.849877 -1.32721 0
M  V30 1179 C 116.225 -0.235903 -2.26977 0
M  V30 1180 C 117.203 0.623355 -1.50177 0
M  V30 1181 O 118.387 0.581207 -1.79316 0
M  V30 1182 C 115.514 0.667712 -3.32053 0
M  V30 1183 C 114.56 -0.11753 -4.26338 0
M  V30 1184 S 115.393 -1.48277 -5.14562 0
M  V30 1185 C 116.549 -0.584741 -6.23163 0
M  V30 1186 H 116.782 -1.03495 -2.78704 0
M  V30 1187 H 114.315 -0.64724 -1.40179 0
M  V30 1188 H 116.273 1.18343 -3.93072 0
M  V30 1189 H 114.934 1.44052 -2.7912 0
M  V30 1190 H 114.127 0.57051 -5.00761 0
M  V30 1191 H 113.729 -0.564668 -3.69713 0
M  V30 1192 H 116.021 0.212968 -6.77165 0
M  V30 1193 H 116.964 -1.29947 -6.96074 0
M  V30 1194 H 117.372 -0.161202 -5.6427 0
M  V30 1195 N 116.77 1.45427 -0.607355 0
M  V30 1196 C 118.047 1.9557 -0.0344566 0
M  V30 1197 C 118.427 1.54979 1.43334 0
M  V30 1198 O 117.775 0.812241 2.13576 0
M  V30 1199 C 117.985 3.48226 -0.232321 0
M  V30 1200 C 119.333 4.2445 -0.113001 0
M  V30 1201 O 120.357 3.55829 -0.162431 0
M  V30 1202 O 119.216 5.465 0.00209442 0
M  V30 1203 H 116.31 0.826222 0.0358667 0
M  V30 1204 H 118.856 1.55594 -0.6774 0
M  V30 1205 H 117.628 3.70739 -1.25174 0
M  V30 1206 H 117.251 3.95092 0.445896 0
M  V30 1207 N 118.248 0.346503 1.53744 0
M  V30 1208 C 119.478 -0.250047 2.05081 0
M  V30 1209 C 119.886 -1.44529 1.22098 0
M  V30 1210 O 119.229 -1.81992 0.249917 0
M  V30 1211 C 119.291 -0.725934 3.52094 0
M  V30 1212 C 118.955 0.350053 4.55657 0
M  V30 1213 C 119.952 1.19372 5.0601 0
M  V30 1214 C 117.637 0.504827 4.99757 0
M  V30 1215 C 119.631 2.17768 5.99046 0
M  V30 1216 C 117.318 1.49218 5.92602 0
M  V30 1217 C 118.316 2.32706 6.42135 0
M  V30 1218 O 118.004 3.2976 7.33153 0
M  V30 1219 H 117.736 -0.0515469 0.674032 0
M  V30 1220 H 120.29 0.497559 1.99282 0
M  V30 1221 H 118.52 -1.52483 3.55367 0
M  V30 1222 H 120.209 -1.24336 3.86388 0
M  V30 1223 H 120.975 1.08525 4.72702 0
M  V30 1224 H 116.854 -0.135178 4.60802 0
M  V30 1225 H 120.398 2.82971 6.37631 0
M  V30 1226 H 116.295 1.6012 6.25325 0
M  V30 1227 H 117.063 3.25265 7.51096 0
M  V30 1228 N 119.726 -1.57421 0.075193 0
M  V30 1229 C 120.975 -1.92794 -0.592731 0
M  V30 1230 C 121.288 -0.957478 -1.70563 0
M  V30 1231 O 122.494 -1.20417 -2.43335 0
M  V30 1232 C 120.95 -3.42495 -1.10569 0
M  V30 1233 C 120.558 -4.47994 -0.0236121 0
M  V30 1234 C 122.302 -3.86864 -1.74748 0
M  V30 1235 C 120.209 -5.88829 -0.550803 0
M  V30 1236 H 119.139 -0.719591 -0.225177 0
M  V30 1237 H 121.79 -1.82902 0.147978 0
M  V30 1238 H 120.172 -3.47471 -1.89947 0
M  V30 1239 H 121.346 -4.54637 0.751099 0
M  V30 1240 H 119.661 -4.13113 0.522159 0
M  V30 1241 H 122.258 -4.8947 -2.15229 0
M  V30 1242 H 122.601 -3.24417 -2.60882 0
M  V30 1243 H 123.134 -3.84504 -1.01986 0
M  V30 1244 H 119.873 -6.54929 0.273457 0
M  V30 1245 H 119.393 -5.85698 -1.29296 0
M  V30 1246 H 121.072 -6.38811 -1.02613 0
M  V30 1247 N 121.204 0.198386 -1.56346 0
M  V30 1248 C 122.452 0.91747 -1.80075 0
M  V30 1249 C 122.773 1.83929 -0.647692 0
M  V30 1250 O 122.043 1.93029 0.334166 0
M  V30 1251 H 120.623 0.341774 -0.664228 0
M  V30 1252 H 123.285 0.204684 -1.93822 0
M  V30 1253 H 122.381 1.51055 -2.7311 0
M  V30 1254 N 122.682 1.50554 0.465978 0
M  V30 1255 C 123.928 1.63006 1.21658 0
M  V30 1256 C 124.283 0.328613 1.89573 0
M  V30 1257 O 123.576 -0.673813 1.79361 0
M  V30 1258 C 123.77 2.75152 2.28093 0
M  V30 1259 C 123.599 4.16075 1.7062 0
M  V30 1260 C 122.369 4.82408 1.50368 0
M  V30 1261 C 124.567 5.00145 1.1983 0
M  V30 1262 N 122.549 6.07532 0.881924 0
M  V30 1263 C 123.92 6.16035 0.700083 0
M  V30 1264 C 125.975 4.85882 1.08733 0
M  V30 1265 C 124.678 7.19228 0.101835 0
M  V30 1266 C 126.704 5.89257 0.503016 0
M  V30 1267 C 126.066 7.04398 0.0152005 0
M  V30 1268 H 122.165 0.650596 0.433877 0
M  V30 1269 H 124.749 1.8769 0.517746 0
M  V30 1270 H 122.92 2.52181 2.95397 0
M  V30 1271 H 124.652 2.76935 2.95109 0
M  V30 1272 H 121.407 4.39788 1.75737 0
M  V30 1273 H 121.831 6.7443 0.589312 0
M  V30 1274 H 126.473 3.97144 1.4504 0
M  V30 1275 H 124.191 8.07637 -0.273426 0
M  V30 1276 H 127.777 5.80286 0.419451 0
M  V30 1277 H 126.657 7.83021 -0.429856 0
M  V30 1278 N 124.16 -0.719506 1.40217 0
M  V30 1279 C 125.123 -1.8153 1.39927 0
M  V30 1280 C 126.123 -1.58095 0.293723 0
M  V30 1281 O 127.313 -1.65209 0.552429 0
M  V30 1282 C 124.445 -3.19561 1.18716 0
M  V30 1283 H 125.638 -1.83186 2.37451 0
M  V30 1284 H 123.191 -0.924746 1.26008 0
M  V30 1285 H 123.926 -3.23557 0.219366 0
M  V30 1286 H 123.711 -3.3797 1.98793 0
M  V30 1287 H 125.201 -3.99598 1.21291 0
M  V30 1288 N 125.638 -1.25649 -0.95132 0
M  V30 1289 C 126.585 -1.06323 -2.04851 0
M  V30 1290 C 127.555 0.0286491 -1.66075 0
M  V30 1291 O 128.74 -0.12917 -1.90362 0
M  V30 1292 C 125.88 -0.691529 -3.381 0
M  V30 1293 C 124.993 -1.85861 -3.89974 0
M  V30 1294 C 124.128 -1.43096 -5.11563 0
M  V30 1295 C 123.167 -2.56696 -5.55674 0
M  V30 1296 N 122.304 -2.14684 -6.68472 0
M  V30 1297 H 127.144 -2.00222 -2.20715 0
M  V30 1298 H 124.681 -0.997027 -1.08156 0
M  V30 1299 H 126.639 -0.456963 -4.1469 0
M  V30 1300 H 125.269 0.210474 -3.22113 0
M  V30 1301 H 124.321 -2.20639 -3.09875 0
M  V30 1302 H 125.633 -2.71161 -4.18657 0
M  V30 1303 H 124.787 -1.15624 -5.9558 0
M  V30 1304 H 123.526 -0.548722 -4.84603 0
M  V30 1305 H 122.531 -2.84909 -4.7022 0
M  V30 1306 H 123.756 -3.45503 -5.8464 0
M  V30 1307 H 121.702 -1.28881 -6.43215 0
M  V30 1308 H 121.619 -2.9353 -6.96689 0
M  V30 1309 H 122.887 -1.90397 -7.5589 0
M  V30 1310 N 127.117 1.15442 -1.07289 0
M  V30 1311 C 128.533 1.38201 -0.798288 0
M  V30 1312 C 128.733 1.92429 0.597769 0
M  V30 1313 O 127.789 2.12962 1.3566 0
M  V30 1314 C 129.102 2.35357 -1.87156 0
M  V30 1315 C 130.65 2.49021 -1.89624 0
M  V30 1316 C 131.125 3.49468 -2.96034 0
M  V30 1317 N 132.616 3.57003 -2.95132 0
M  V30 1318 C 133.351 4.34543 -3.74112 0
M  V30 1319 N 132.847 5.15421 -4.6294 0
M  V30 1320 N 134.64 4.29625 -3.62462 0
M  V30 1321 H 126.791 0.78584 -1.97328 0
M  V30 1322 H 129.054 0.408065 -0.855679 0
M  V30 1323 H 128.76 2.02626 -2.87464 0
M  V30 1324 H 128.634 3.35129 -1.73114 0
M  V30 1325 H 131.021 2.81051 -0.899687 0
M  V30 1326 H 131.102 1.4925 -2.07745 0
M  V30 1327 H 130.746 3.18173 -3.95889 0
M  V30 1328 H 130.676 4.48992 -2.75161 0
M  V30 1329 H 133.167 2.99276 -2.30743 0
M  V30 1330 H 133.48 5.7183 -5.19837 0
M  V30 1331 H 131.825 5.14729 -4.66989 0
M  V30 1332 H 135.016 3.65505 -2.92444 0
M  V30 1333 H 135.189 4.89807 -4.24256 0
M  V30 1334 N 128.595 0.856903 1.32268 0
M  V30 1335 C 129.841 0.471355 1.97863 0
M  V30 1336 C 130.196 -0.962896 1.66572 0
M  V30 1337 O 129.489 -1.66686 0.944797 0
M  V30 1338 C 129.683 0.649919 3.51441 0
M  V30 1339 C 129.512 2.09997 3.97657 0
M  V30 1340 C 128.282 2.73893 4.2463 0
M  V30 1341 C 130.48 3.07081 4.1256 0
M  V30 1342 N 128.462 4.09786 4.57109 0
M  V30 1343 C 129.833 4.27968 4.48602 0
M  V30 1344 C 131.888 3.03247 3.949 0
M  V30 1345 C 130.591 5.45521 4.68827 0
M  V30 1346 C 132.617 4.20046 4.16311 0
M  V30 1347 C 131.979 5.39692 4.52672 0
M  V30 1348 H 128.078 0.221263 0.750044 0
M  V30 1349 H 130.662 1.10876 1.60045 0
M  V30 1350 H 128.833 0.0421938 3.88377 0
M  V30 1351 H 130.565 0.234044 4.04023 0
M  V30 1352 H 127.32 2.24918 4.16784 0
M  V30 1353 H 127.744 4.7989 4.7753 0
M  V30 1354 H 132.386 2.11863 3.65888 0
M  V30 1355 H 130.104 6.37434 4.96693 0
M  V30 1356 H 133.69 4.18517 4.04147 0
M  V30 1357 H 132.57 6.28566 4.68907 0
M  V30 1358 N 130.073 -1.45103 0.615059 0
M  V30 1359 C 131.003 -2.33339 -0.0865619 0
M  V30 1360 C 131.984 -1.4727 -0.851209 0
M  V30 1361 O 133.169 -1.76026 -0.820281 0
M  V30 1362 C 130.299 -3.30095 -1.07956 0
M  V30 1363 C 129.253 -4.25858 -0.427628 0
M  V30 1364 C 128.579 -5.12361 -1.5294 0
M  V30 1365 C 129.879 -5.18165 0.655944 0
M  V30 1366 H 131.573 -2.92254 0.650224 0
M  V30 1367 H 129.119 -1.40532 0.314138 0
M  V30 1368 H 131.072 -3.90698 -1.57901 0
M  V30 1369 H 129.796 -2.69355 -1.84703 0
M  V30 1370 H 128.455 -3.66564 0.0510292 0
M  V30 1371 H 128.103 -4.47984 -2.28734 0
M  V30 1372 H 127.803 -5.77238 -1.09865 0
M  V30 1373 H 129.327 -5.75833 -2.03098 0
M  V30 1374 H 130.741 -5.72796 0.240257 0
M  V30 1375 H 129.138 -5.91559 1.00888 0
M  V30 1376 H 130.208 -4.60144 1.52957 0
M  V30 1377 N 131.551 -0.354651 -1.53558 0
M  V30 1378 C 132.514 0.484566 -2.24019 0
M  V30 1379 C 133.514 1.01861 -1.24422 0
M  V30 1380 O 134.704 0.906097 -1.4878 0
M  V30 1381 C 131.836 1.67615 -2.96847 0
M  V30 1382 H 133.029 -0.131843 -2.9961 0
M  V30 1383 H 130.582 -0.106165 -1.55939 0
M  V30 1384 H 131.317 2.33095 -2.25471 0
M  V30 1385 H 131.102 1.30029 -3.69912 0
M  V30 1386 H 132.592 2.27114 -3.50441 0
M  V30 1387 N 133.029 1.57378 -0.0835403 0
M  V30 1388 C 133.939 2.16897 0.894021 0
M  V30 1389 C 134.955 1.13528 1.31861 0
M  V30 1390 O 136.131 1.45848 1.3889 0
M  V30 1391 C 133.196 2.72831 2.13925 0
M  V30 1392 C 132.257 3.91115 1.76997 0
M  V30 1393 C 131.49 4.44371 2.95584 0
M  V30 1394 O 131.713 3.96596 4.09961 0
M  V30 1395 O 130.647 5.35549 2.74719 0
M  V30 1396 H 134.473 3.00814 0.417679 0
M  V30 1397 H 132.058 1.48741 0.140181 0
M  V30 1398 H 133.94 3.0863 2.86924 0
M  V30 1399 H 132.615 1.91967 2.60635 0
M  V30 1400 H 131.522 3.60148 1.01214 0
M  V30 1401 H 132.855 4.73307 1.3506 0
M  V30 1402 N 134.507 -0.190092 1.56449 0
M  V30 1403 C 135.47 -1.21925 1.9408 0
M  V30 1404 C 136.47 -1.38176 0.822431 0
M  V30 1405 O 137.66 -1.35903 1.08977 0
M  V30 1406 C 134.792 -2.58773 2.21922 0
M  V30 1407 H 135.985 -0.897464 2.86157 0
M  V30 1408 H 133.538 -0.43181 1.50217 0
M  V30 1409 H 134.273 -2.95998 1.32499 0
M  V30 1410 H 134.058 -2.48348 3.03424 0
M  V30 1411 H 135.548 -3.32978 2.52022 0
M  V30 1412 N 135.985 -1.50799 -0.457987 0
M  V30 1413 C 136.895 -1.73426 -1.57989 0
M  V30 1414 C 137.911 -0.617745 -1.62665 0
M  V30 1415 O 139.087 -0.897614 -1.80291 0
M  V30 1416 C 136.152 -1.83557 -2.94122 0
M  V30 1417 C 135.213 -3.07345 -2.99729 0
M  V30 1418 C 134.446 -3.16983 -4.29368 0
M  V30 1419 O 134.669 -2.33077 -5.20607 0
M  V30 1420 O 133.603 -4.09812 -4.40837 0
M  V30 1421 H 137.429 -2.68555 -1.41817 0
M  V30 1422 H 135.014 -1.35052 -0.638859 0
M  V30 1423 H 136.896 -1.92326 -3.74952 0
M  V30 1424 H 135.571 -0.916137 -3.10465 0
M  V30 1425 H 134.478 -3.04068 -2.1793 0
M  V30 1426 H 135.811 -3.9891 -2.88326 0
M  V30 1427 N 137.463 0.71206 -1.40597 0
M  V30 1428 C 138.879 1.02058 -1.22704 0
M  V30 1429 C 139.079 2.01228 -0.104729 0
M  V30 1430 O 138.135 2.4674 0.53624 0
M  V30 1431 C 139.448 1.56094 -2.57012 0
M  V30 1432 C 140.996 1.6806 -2.64054 0
M  V30 1433 C 141.471 2.25501 -3.9864 0
M  V30 1434 N 142.962 2.32882 -4.004 0
M  V30 1435 C 143.697 2.78317 -5.01325 0
M  V30 1436 N 143.193 3.23478 -6.12645 0
M  V30 1437 N 144.986 2.77733 -4.88693 0
M  V30 1438 H 137.137 0.0547896 -2.12329 0
M  V30 1439 H 139.4 0.0869027 -0.944008 0
M  V30 1440 H 139.106 0.906865 -3.39807 0
M  V30 1441 H 138.98 2.54564 -2.78347 0
M  V30 1442 H 141.367 2.32583 -1.81629 0
M  V30 1443 H 141.448 0.681802 -2.46546 0
M  V30 1444 H 141.092 1.61598 -4.81506 0
M  V30 1445 H 141.022 3.26102 -4.13479 0
M  V30 1446 H 143.513 2.00991 -3.20017 0
M  V30 1447 H 143.826 3.56725 -6.85542 0
M  V30 1448 H 142.171 3.21429 -6.16205 0
M  V30 1449 H 145.362 2.4179 -4.00818 0
M  V30 1450 H 145.535 3.12826 -5.67489 0
M  V30 1451 N 138.941 1.26152 0.944643 0
M  V30 1452 C 140.187 1.11657 1.69294 0
M  V30 1453 C 140.52 -0.339926 1.91202 0
M  V30 1454 O 139.795 -1.24994 1.49019 0
M  V30 1455 C 140.078 1.88236 3.06984 0
M  V30 1456 C 139.931 3.41772 2.92424 0
M  V30 1457 C 141.25 1.67343 4.07043 0
M  V30 1458 H 138.369 0.407004 0.614424 0
M  V30 1459 H 141.011 1.55106 1.09737 0
M  V30 1460 H 139.161 1.51308 3.57824 0
M  V30 1461 H 140.833 3.88433 2.48832 0
M  V30 1462 H 139.076 3.68974 2.28124 0
M  V30 1463 H 139.747 3.90579 3.90067 0
M  V30 1464 H 142.223 1.99509 3.65151 0
M  V30 1465 H 141.099 2.23346 5.01406 0
M  V30 1466 H 141.36 0.617158 4.37771 0
M  V30 1467 N 140.419 -1.14872 1.07899 0
M  V30 1468 C 141.349 -2.2193 0.725887 0
M  V30 1469 C 142.33 -1.67622 -0.28927 0
M  V30 1470 O 143.515 -1.93533 -0.160787 0
M  V30 1471 C 140.645 -3.47061 0.128856 0
M  V30 1472 C 139.599 -4.14363 1.07178 0
M  V30 1473 C 138.925 -5.33636 0.337229 0
M  V30 1474 C 140.225 -4.63492 2.40775 0
M  V30 1475 H 141.919 -2.51724 1.62097 0
M  V30 1476 H 139.465 -1.20991 0.780838 0
M  V30 1477 H 141.418 -4.21199 -0.130147 0
M  V30 1478 H 140.142 -3.16617 -0.80134 0
M  V30 1479 H 138.801 -3.42173 1.3158 0
M  V30 1480 H 138.449 -4.99449 -0.596606 0
M  V30 1481 H 138.149 -5.79609 0.965788 0
M  V30 1482 H 139.673 -6.10539 0.0861567 0
M  V30 1483 H 141.087 -5.2913 2.20669 0
M  V30 1484 H 139.484 -5.20148 2.99276 0
M  V30 1485 H 140.554 -3.78834 3.02676 0
M  V30 1486 N 141.898 -0.863906 -1.31812 0
M  V30 1487 C 143.123 -0.48527 -2.01643 0
M  V30 1488 C 143.548 0.913058 -1.64453 0
M  V30 1489 O 142.906 1.6014 -0.849985 0
M  V30 1490 C 142.954 -0.642625 -3.54828 0
M  V30 1491 O 142.058 0.320659 -4.11151 0
M  V30 1492 H 141.399 -0.193793 -0.635091 0
M  V30 1493 H 143.929 -1.16565 -1.68148 0
M  V30 1494 H 143.939 -0.533628 -4.04495 0
M  V30 1495 H 142.614 -1.66227 -3.81237 0
M  V30 1496 H 141.191 0.167126 -3.72525 0
M  V30 1497 N 143.376 1.44774 -0.622745 0
M  V30 1498 C 144.787 1.85546 -0.207226 0
M  V30 1499 C 145.138 1.52093 1.23944 0
M  V30 1500 O 144.263 0.95492 1.94191 0
M  V30 1501 C 144.858 3.36781 -0.369313 0
M  V30 1502 C 143.417 3.76399 -0.00836847 0
M  V30 1503 C 142.564 2.68664 -0.686651 0
M  V30 1504 H 145.515 1.3536 -0.828454 0
M  V30 1505 H 145.536 3.78453 0.394162 0
M  V30 1506 H 145.048 3.61098 -1.42231 0
M  V30 1507 H 143.149 3.57698 1.04322 0
M  V30 1508 H 143.262 4.7732 -0.412584 0
M  V30 1509 H 141.626 2.54404 -0.122777 0
M  V30 1510 H 142.409 2.95815 -1.74208 0
M  V30 1511 N 144.854 0.36279 1.53368 0
M  V30 1512 C 146.082 -0.228613 2.05633 0
M  V30 1513 C 146.497 -1.42676 1.23649 0
M  V30 1514 O 145.854 -1.80394 0.27647 0
M  V30 1515 C 145.905 -0.624845 3.56059 0
M  V30 1516 O 145.626 0.525675 4.34935 0
M  V30 1517 C 147.127 -1.27493 4.24571 0
M  V30 1518 H 144.347 -0.0407183 0.669763 0
M  V30 1519 H 146.891 0.520352 1.97769 0
M  V30 1520 H 145.046 -1.32373 3.64083 0
M  V30 1521 H 145.46 0.205969 5.24095 0
M  V30 1522 H 146.934 -1.50277 5.31151 0
M  V30 1523 H 147.411 -2.23439 3.78116 0
M  V30 1524 H 148.017 -0.617558 4.20792 0
M  V30 1525 N 146.332 -1.57332 0.0918853 0
M  V30 1526 C 147.58 -1.93853 -0.571446 0
M  V30 1527 C 147.901 -0.974212 -1.6892 0
M  V30 1528 O 147.171 -0.0257254 -1.95883 0
M  V30 1529 H 145.751 -0.715666 -0.214082 0
M  V30 1530 H 148.413 -1.94287 0.154464 0
M  V30 1531 H 147.509 -2.96191 -0.983729 0
M  V30 1532 N 147.81 0.181792 -1.56548 0
M  V30 1533 C 149.035 0.920019 -1.85877 0
M  V30 1534 C 149.46 1.75494 -0.677021 0
M  V30 1535 O 148.818 1.77399 0.374056 0
M  V30 1536 C 148.866 1.78112 -3.13542 0
M  V30 1537 O 147.97 2.88152 -2.95029 0
M  V30 1538 H 147.311 0.258334 -0.611686 0
M  V30 1539 H 149.841 0.183092 -2.03779 0
M  V30 1540 H 149.851 2.18314 -3.44678 0
M  V30 1541 H 148.526 1.16777 -3.99169 0
M  V30 1542 H 147.103 2.51609 -2.75222 0
M  V30 1543 N 149.288 1.51039 0.449983 0
M  V30 1544 C 150.537 1.62317 1.19733 0
M  V30 1545 C 150.85 0.339101 1.92638 0
M  V30 1546 O 152.056 0.331069 2.69474 0
M  V30 1547 C 150.512 2.86608 2.17678 0
M  V30 1548 C 150.12 4.21972 1.50479 0
M  V30 1549 C 151.864 3.07239 2.92924 0
M  V30 1550 C 149.771 5.37426 2.46834 0
M  V30 1551 H 148.701 0.604532 0.450619 0
M  V30 1552 H 151.352 1.77494 0.465625 0
M  V30 1553 H 149.734 2.65037 2.94231 0
M  V30 1554 H 150.908 4.53878 0.795716 0
M  V30 1555 H 149.223 4.07117 0.874344 0
M  V30 1556 H 151.82 3.90668 3.65079 0
M  V30 1557 H 152.163 2.19807 3.5354 0
M  V30 1558 H 152.696 3.29091 2.23481 0
M  V30 1559 H 149.435 6.27079 1.90926 0
M  V30 1560 H 148.955 5.09912 3.15832 0
M  V30 1561 H 150.634 5.68862 3.08228 0
M  V30 1562 N 150.766 -0.704594 1.40972 0
M  V30 1563 C 151.729 -1.80035 1.41845 0
M  V30 1564 C 152.729 -1.57774 0.310474 0
M  V30 1565 O 153.919 -1.64613 0.56992 0
M  V30 1566 C 151.051 -3.18284 1.22098 0
M  V30 1567 H 152.244 -1.80658 2.3938 0
M  V30 1568 H 149.797 -0.911329 1.26982 0
M  V30 1569 H 150.532 -3.23306 0.253672 0
M  V30 1570 H 150.317 -3.35843 2.02366 0
M  V30 1571 H 151.807 -3.98289 1.25522 0
M  V30 1572 N 152.244 -1.26651 -0.937939 0
M  V30 1573 C 153.493 -1.11775 -1.67897 0
M  V30 1574 C 153.806 0.33794 -1.92659 0
M  V30 1575 O 155.012 0.607434 -2.64618 0
M  V30 1576 C 153.468 -1.9523 -3.02346 0
M  V30 1577 C 153.076 -3.45393 -2.8532 0
M  V30 1578 C 154.82 -1.88972 -3.80118 0
M  V30 1579 C 152.727 -4.21083 -4.15263 0
M  V30 1580 H 151.657 -0.414696 -0.629717 0
M  V30 1581 H 154.308 -1.50988 -1.04283 0
M  V30 1582 H 152.69 -1.48853 -3.66959 0
M  V30 1583 H 153.864 -3.99561 -2.29537 0
M  V30 1584 H 152.179 -3.52921 -2.20988 0
M  V30 1585 H 154.776 -2.42805 -4.76392 0
M  V30 1586 H 155.119 -0.86113 -4.07296 0
M  V30 1587 H 155.652 -2.33189 -3.22285 0
M  V30 1588 H 152.391 -5.24425 -3.93267 0
M  V30 1589 H 151.911 -3.71695 -4.70747 0
M  V30 1590 H 153.59 -4.29706 -4.83696 0
M  V30 1591 N 153.722 1.14298 -1.08507 0
M  V30 1592 C 154.969 1.85359 -0.815373 0
M  V30 1593 C 155.297 1.83001 0.658865 0
M  V30 1594 O 154.552 1.25655 1.50031 0
M  V30 1595 C 154.851 3.33547 -1.28379 0
M  V30 1596 C 154.517 3.56093 -2.76602 0
M  V30 1597 C 153.179 3.61955 -3.17084 0
M  V30 1598 C 155.531 3.64834 -3.72217 0
M  V30 1599 C 152.859 3.74082 -4.51973 0
M  V30 1600 C 155.211 3.78487 -5.06883 0
M  V30 1601 C 153.875 3.82598 -5.46969 0
M  V30 1602 H 153.145 0.678276 -0.298366 0
M  V30 1603 H 155.792 1.35002 -1.35819 0
M  V30 1604 H 154.097 3.86191 -0.660593 0
M  V30 1605 H 155.794 3.86959 -1.05186 0
M  V30 1606 H 152.384 3.52179 -2.4427 0
M  V30 1607 H 156.568 3.59595 -3.42061 0
M  V30 1608 H 151.824 3.75527 -4.82483 0
M  V30 1609 H 155.998 3.84193 -5.80834 0
M  V30 1610 H 153.625 3.91747 -6.51489 0
M  V30 1611 N 155.201 0.870884 1.31352 0
M  V30 1612 C 156.449 0.48132 1.96285 0
M  V30 1613 C 156.77 -0.969813 1.69173 0
M  V30 1614 O 156.04 -1.67998 1.00764 0
M  V30 1615 H 154.62 0.175002 0.726212 0
M  V30 1616 H 157.282 1.11087 1.60143 0
M  V30 1617 H 156.378 0.639825 3.05471 0
M  V30 1618 N 156.679 -1.44442 0.630414 0
M  V30 1619 C 157.927 -2.01653 0.134351 0
M  V30 1620 C 158.248 -1.49836 -1.24796 0
M  V30 1621 O 157.518 -0.701684 -1.82902 0
M  V30 1622 H 156.098 -0.74554 0.0466769 0
M  V30 1623 H 158.76 -1.76952 0.816955 0
M  V30 1624 H 157.856 -3.11935 0.101498 0
M  V30 1625 N 158.157 -0.370918 -1.53173 0
M  V30 1626 C 159.087 0.464847 -2.28826 0
M  V30 1627 C 160.068 1.07936 -1.31468 0
M  V30 1628 O 161.253 1.0956 -1.60344 0
M  V30 1629 C 158.383 1.60196 -3.08147 0
M  V30 1630 C 157.337 1.11443 -4.13237 0
M  V30 1631 C 156.663 2.3422 -4.80672 0
M  V30 1632 C 157.963 0.195384 -5.21934 0
M  V30 1633 H 159.657 -0.166329 -2.98938 0
M  V30 1634 H 157.203 -0.0814359 -1.4377 0
M  V30 1635 H 159.156 2.19332 -3.59822 0
M  V30 1636 H 157.88 2.26045 -2.35735 0
M  V30 1637 H 156.539 0.545727 -3.62515 0
M  V30 1638 H 156.187 2.98537 -4.04827 0
M  V30 1639 H 155.887 2.02269 -5.51689 0
M  V30 1640 H 157.411 2.94032 -5.35143 0
M  V30 1641 H 158.825 0.694375 -5.69079 0
M  V30 1642 H 157.222 -0.0335027 -6.00091 0
M  V30 1643 H 158.292 -0.760961 -4.78892 0
M  V30 1644 N 159.635 1.57281 -0.100228 0
M  V30 1645 C 160.567 2.11342 0.886972 0
M  V30 1646 C 161.58 1.05182 1.24261 0
M  V30 1647 O 162.769 1.32613 1.19483 0
M  V30 1648 C 159.869 2.5825 2.19454 0
M  V30 1649 C 159.042 3.88302 2.01346 0
M  V30 1650 C 158.101 4.21004 3.15661 0
M  V30 1651 O 157.127 4.9014 2.89398 0
M  V30 1652 N 158.329 3.76818 4.41575 0
M  V30 1653 H 161.094 2.96668 0.425216 0
M  V30 1654 H 158.655 1.61678 0.0847334 0
M  V30 1655 H 160.647 2.7717 2.94888 0
M  V30 1656 H 159.217 1.77907 2.57037 0
M  V30 1657 H 158.437 3.7848 1.10212 0
M  V30 1658 H 159.725 4.73375 1.8653 0
M  V30 1659 H 159.123 3.2102 4.65792 0
M  V30 1660 H 157.68 4.00882 5.13942 0
M  V30 1661 N 161.113 -0.173488 1.56642 0
M  V30 1662 C 162.343 -0.904781 1.85734 0
M  V30 1663 C 162.751 -1.76431 0.68328 0
M  V30 1664 O 162.094 -1.802 -0.356865 0
M  V30 1665 C 162.156 -1.83382 3.09211 0
M  V30 1666 C 161.82 -1.15411 4.42187 0
M  V30 1667 C 162.817 -0.520609 5.17287 0
M  V30 1668 C 160.502 -1.15151 4.88923 0
M  V30 1669 C 162.496 0.106412 6.37311 0
M  V30 1670 C 160.183 -0.520664 6.08878 0
M  V30 1671 C 161.181 0.107196 6.82916 0
M  V30 1672 O 160.869 0.728102 8.00596 0
M  V30 1673 H 160.601 -0.268408 0.62043 0
M  V30 1674 H 163.155 -0.179096 2.04618 0
M  V30 1675 H 161.385 -2.59976 2.86268 0
M  V30 1676 H 163.074 -2.43476 3.24768 0
M  V30 1677 H 163.84 -0.514606 4.82262 0
M  V30 1678 H 159.719 -1.62961 4.31236 0
M  V30 1679 H 163.263 0.597081 6.9504 0
M  V30 1680 H 159.16 -0.524242 6.43368 0
M  V30 1681 H 159.928 0.627138 8.16094 0
M  V30 1682 N 162.591 -1.51276 -0.441967 0
M  V30 1683 C 163.523 -1.68444 -1.55433 0
M  V30 1684 C 164.536 -0.565187 -1.52674 0
M  V30 1685 O 165.725 -0.839356 -1.57534 0
M  V30 1686 C 162.825 -1.67966 -2.94348 0
M  V30 1687 C 161.998 -2.964 -3.21661 0
M  V30 1688 C 161.057 -2.88171 -4.40277 0
M  V30 1689 O 160.083 -3.62119 -4.39157 0
M  V30 1690 N 161.285 -2.03706 -5.43584 0
M  V30 1691 H 164.05 -2.644 -1.41112 0
M  V30 1692 H 161.611 -1.49104 -0.630838 0
M  V30 1693 H 163.603 -1.60035 -3.71713 0
M  V30 1694 H 162.173 -0.796225 -3.0229 0
M  V30 1695 H 161.393 -3.18234 -2.32638 0
M  V30 1696 H 162.681 -3.81427 -3.36736 0
M  V30 1697 H 162.079 -1.42995 -5.47329 0
M  V30 1698 H 160.636 -2.01658 -6.1982 0
M  V30 1699 N 164.069 0.697108 -1.41344 0
M  V30 1700 C 165.317 1.45426 -1.40341 0
M  V30 1701 C 165.638 1.94996 -0.0128787 0
M  V30 1702 O 164.908 1.71599 0.945027 0
M  V30 1703 H 163.488 0.539594 -0.516573 0
M  V30 1704 H 166.15 0.825201 -1.76569 0
M  V30 1705 H 165.246 2.31817 -2.08967 0
M  V30 1706 N 165.547 1.27147 0.931209 0
M  V30 1707 C 166.457 1.11372 2.06478 0
M  V30 1708 C 167.473 0.044645 1.73943 0
M  V30 1709 O 168.649 0.250417 1.99837 0
M  V30 1710 C 165.714 0.758838 3.38294 0
M  V30 1711 C 164.775 1.90841 3.84549 0
M  V30 1712 C 164.008 1.57036 5.10074 0
M  V30 1713 O 164.231 0.476645 5.68405 0
M  V30 1714 O 163.165 2.40839 5.51616 0
M  V30 1715 H 166.991 2.06493 2.22698 0
M  V30 1716 H 164.576 1.06301 1.04978 0
M  V30 1717 H 166.458 0.574098 4.17471 0
M  V30 1718 H 165.133 -0.162879 3.2329 0
M  V30 1719 H 164.04 2.14819 3.06274 0
M  V30 1720 H 165.373 2.81021 4.04089 0
M  V30 1721 N 167.025 -1.13721 1.09112 0
M  V30 1722 C 167.988 -2.17222 0.731241 0
M  V30 1723 C 168.988 -1.59035 -0.237566 0
M  V30 1724 O 170.178 -1.74192 -0.0161704 0
M  V30 1725 C 167.31 -3.40804 0.0808443 0
M  V30 1726 H 168.503 -2.50573 1.64783 0
M  V30 1727 H 166.056 -1.28493 0.889897 0
M  V30 1728 H 166.791 -3.1304 -0.847127 0
M  V30 1729 H 166.576 -3.84306 0.777896 0
M  V30 1730 H 168.066 -4.1731 -0.155657 0
M  V30 1731 N 168.503 -0.877838 -1.30888 0
M  V30 1732 C 169.751 -0.491723 -1.96027 0
M  V30 1733 C 170.072 0.960827 -1.69685 0
M  V30 1734 O 169.342 1.67462 -1.01654 0
M  V30 1735 H 167.922 -0.17885 -0.725273 0
M  V30 1736 H 170.584 -1.11935 -1.59551 0
M  V30 1737 H 169.68 -0.656016 -3.05128 0
M  V30 1738 N 169.982 1.44106 -0.638065 0
M  V30 1739 C 171.207 2.0685 -0.150916 0
M  V30 1740 C 171.632 1.47417 1.16833 0
M  V30 1741 O 170.99 0.578264 1.71831 0
M  V30 1742 C 171.038 3.60555 -0.05708 0
M  V30 1743 O 170.142 4.00465 0.984972 0
M  V30 1744 H 169.483 0.658151 -0.0879399 0
M  V30 1745 H 172.013 1.84865 -0.876707 0
M  V30 1746 H 172.023 4.07789 0.131232 0
M  V30 1747 H 170.698 4.03193 -1.02021 0
M  V30 1748 H 169.275 3.64849 0.770672 0
M  V30 1749 N 171.46 0.379036 1.52974 0
M  V30 1750 C 172.708 -0.206014 2.01047 0
M  V30 1751 C 173.029 -1.48175 1.26765 0
M  V30 1752 O 172.299 -1.92085 0.384743 0
M  V30 1753 H 170.879 -0.0791184 0.742798 0
M  V30 1754 H 173.541 0.508366 1.88153 0
M  V30 1755 H 172.637 -0.423501 3.09213 0
M  V30 1756 N 172.938 -1.57226 0.108567 0
M  V30 1757 C 174.215 -1.86333 -0.594939 0
M  V30 1758 C 174.595 -1.00788 -1.85486 0
M  V30 1759 O 173.943 -0.0839293 -2.28346 0
M  V30 1760 C 174.153 -3.37265 -0.897405 0
M  V30 1761 C 175.501 -4.05629 -1.25501 0
M  V30 1762 O 176.525 -3.42224 -0.987998 0
M  V30 1763 O 175.384 -5.17531 -1.75567 0
M  V30 1764 H 172.478 -0.771018 -0.2991 0
M  V30 1765 H 175.024 -1.69102 0.142283 0
M  V30 1766 H 173.796 -3.913 -0.00413806 0
M  V30 1767 H 173.419 -3.59889 -1.69014 0
M  V30 1768 N 174.416 0.165178 -1.56732 0
M  V30 1769 C 175.346 1.20651 -1.99914 0
M  V30 1770 C 176.327 1.45827 -0.875705 0
M  V30 1771 O 177.512 1.57057 -1.14223 0
M  V30 1772 C 174.642 2.54401 -2.36427 0
M  V30 1773 C 173.596 2.43782 -3.51787 0
M  V30 1774 C 172.922 3.82078 -3.7406 0
M  V30 1775 C 174.222 1.93732 -4.85041 0
M  V30 1776 H 175.916 0.847534 -2.87154 0
M  V30 1777 H 173.462 0.40625 -1.38151 0
M  V30 1778 H 175.415 3.27458 -2.65234 0
M  V30 1779 H 174.139 2.92098 -1.46103 0
M  V30 1780 H 172.798 1.73178 -3.23117 0
M  V30 1781 H 172.446 4.17179 -2.81017 0
M  V30 1782 H 172.146 3.7584 -4.51684 0
M  V30 1783 H 173.67 4.56712 -4.05274 0
M  V30 1784 H 175.084 2.56569 -5.12684 0
M  V30 1785 H 173.481 1.98428 -5.66345 0
M  V30 1786 H 174.551 0.891962 -4.76626 0
M  V30 1787 N 175.894 1.51508 0.433938 0
M  V30 1788 C 177.143 1.63578 1.18005 0
M  V30 1789 C 177.456 0.359514 1.92268 0
M  V30 1790 O 178.662 0.359632 2.69108 0
M  V30 1791 C 177.118 2.88901 2.14626 0
M  V30 1792 C 176.726 4.23544 1.45995 0
M  V30 1793 C 178.47 3.10328 2.89649 0
M  V30 1794 C 176.377 5.40014 2.4112 0
M  V30 1795 H 175.307 0.609277 0.444182 0
M  V30 1796 H 177.958 1.77978 0.446773 0
M  V30 1797 H 176.34 2.68142 2.91403 0
M  V30 1798 H 177.514 4.54696 0.747532 0
M  V30 1799 H 175.829 4.08021 0.831115 0
M  V30 1800 H 178.426 3.94518 3.60915 0
M  V30 1801 H 178.769 2.23544 3.51189 0
M  V30 1802 H 179.302 3.31443 2.19978 0
M  V30 1803 H 176.041 6.29068 1.84264 0
M  V30 1804 H 175.561 5.13233 3.10406 0
M  V30 1805 H 177.24 5.72099 3.02177 0
M  V30 1806 N 177.372 -0.689602 1.41712 0
M  V30 1807 C 178.597 -1.48329 1.44959 0
M  V30 1808 C 179.022 -1.8801 0.0581283 0
M  V30 1809 O 178.38 -1.55026 -0.940035 0
M  V30 1810 C 178.428 -2.71835 2.36935 0
M  V30 1811 O 177.532 -3.69549 1.8305 0
M  V30 1812 H 176.873 -0.446199 0.491734 0
M  V30 1813 H 179.403 -0.847127 1.86239 0
M  V30 1814 H 179.413 -3.20076 2.53013 0
M  V30 1815 H 178.088 -2.42291 3.38035 0
M  V30 1816 H 176.665 -3.2851 1.76452 0
M  V30 1817 N 178.85 -1.27639 -0.924453 0
M  V30 1818 C 180.099 -1.13549 -1.66702 0
M  V30 1819 C 180.412 0.317487 -1.93006 0
M  V30 1820 O 181.618 0.579333 -2.65247 0
M  V30 1821 C 180.074 -1.98426 -3.00259 0
M  V30 1822 C 179.682 -3.484 -2.81641 0
M  V30 1823 C 181.426 -1.92993 -3.78092 0
M  V30 1824 C 179.333 -4.25464 -4.10773 0
M  V30 1825 H 178.263 -0.421351 -0.625283 0
M  V30 1826 H 180.914 -1.52085 -1.02676 0
M  V30 1827 H 179.296 -1.52736 -3.6536 0
M  V30 1828 H 180.47 -4.01973 -2.25287 0
M  V30 1829 H 178.785 -3.55245 -2.17232 0
M  V30 1830 H 181.382 -2.47844 -4.7379 0
M  V30 1831 H 181.725 -0.904281 -4.0636 0
M  V30 1832 H 182.258 -2.36595 -3.19793 0
M  V30 1833 H 178.997 -5.28566 -3.87683 0
M  V30 1834 H 178.517 -3.76667 -4.66779 0
M  V30 1835 H 180.196 -4.34812 -4.79111 0
M  V30 1836 N 180.328 1.1314 -1.09713 0
M  V30 1837 C 181.577 1.83838 -0.829851 0
M  V30 1838 C 181.89 1.84599 0.646728 0
M  V30 1839 O 183.096 2.51218 1.02965 0
M  V30 1840 C 181.552 3.30069 -1.43466 0
M  V30 1841 C 181.16 3.37688 -2.94399 0
M  V30 1842 C 182.904 4.05788 -1.24645 0
M  V30 1843 C 180.811 4.78209 -3.47952 0
M  V30 1844 H 179.741 0.68877 -0.306777 0
M  V30 1845 H 182.392 1.27448 -1.3202 0
M  V30 1846 H 180.774 3.8628 -0.871996 0
M  V30 1847 H 181.948 2.91456 -3.56918 0
M  V30 1848 H 180.263 2.75436 -3.12289 0
M  V30 1849 H 182.86 5.09535 -1.62107 0
M  V30 1850 H 183.203 4.15878 -0.187357 0
M  V30 1851 H 183.736 3.55915 -1.77678 0
M  V30 1852 H 180.475 4.73311 -4.53495 0
M  V30 1853 H 179.995 5.24924 -2.90198 0
M  V30 1854 H 181.674 5.47133 -3.45332 0
M  V30 1855 N 181.806 0.884767 1.30421 0
M  V30 1856 C 183.031 0.517288 2.00845 0
M  V30 1857 C 183.456 -0.886779 1.65885 0
M  V30 1858 O 182.814 -1.58768 0.875354 0
M  V30 1859 C 182.862 0.698994 3.5376 0
M  V30 1860 O 181.966 -0.255208 4.1161 0
M  V30 1861 H 181.307 0.203872 0.631927 0
M  V30 1862 H 183.837 1.19225 1.66272 0
M  V30 1863 H 183.847 0.597912 4.03595 0
M  V30 1864 H 182.522 1.72271 3.78544 0
M  V30 1865 H 181.099 -0.10784 3.72744 0
M  V30 1866 N 183.284 -1.43765 0.645699 0
M  V30 1867 C 184.234 -2.27884 -0.0726442 0
M  V30 1868 C 185.218 -1.39483 -0.802086 0
M  V30 1869 O 186.41 -1.63174 -0.685791 0
M  V30 1870 C 183.539 -3.27055 -1.04356 0
M  V30 1871 C 182.625 -4.22944 -0.312985 0
M  V30 1872 N 183.016 -5.01391 0.666386 0
M  V30 1873 C 181.314 -4.42528 -0.55546 0
M  V30 1874 C 182.015 -5.71217 1.09935 0
M  V30 1875 N 180.991 -5.41856 0.435137 0
M  V30 1876 H 184.793 -2.85949 0.678988 0
M  V30 1877 H 182.307 -1.55378 0.472368 0
M  V30 1878 H 184.304 -3.86089 -1.57292 0
M  V30 1879 H 182.964 -2.70551 -1.79534 0
M  V30 1880 H 183.975 -5.07252 1.04481 0
M  V30 1881 H 180.652 -3.97104 -1.28899 0
M  V30 1882 H 182.042 -6.44202 1.90929 0
M  V30 1883 N 184.763 -0.387143 -1.52771 0
M  V30 1884 C 185.696 0.493123 -2.22808 0
M  V30 1885 C 186.674 1.0658 -1.22798 0
M  V30 1886 O 187.858 1.11785 -1.51777 0
M  V30 1887 C 184.985 1.68238 -2.93962 0
M  V30 1888 C 184.031 1.23515 -4.08223 0
M  V30 1889 S 184.864 0.21848 -5.35054 0
M  V30 1890 C 186.02 1.41357 -6.09729 0
M  V30 1891 H 186.253 -0.101625 -2.97126 0
M  V30 1892 H 183.786 -0.171323 -1.53447 0
M  V30 1893 H 185.744 2.36443 -3.35567 0
M  V30 1894 H 184.405 2.24842 -2.19328 0
M  V30 1895 H 183.598 2.12304 -4.57103 0
M  V30 1896 H 183.2 0.632044 -3.68621 0
M  V30 1897 H 185.492 2.34101 -6.3577 0
M  V30 1898 H 186.435 0.965736 -7.01484 0
M  V30 1899 H 186.843 1.6294 -5.40473 0
M  V30 1900 N 186.241 1.57166 -0.116904 0
M  V30 1901 C 187.657 1.5779 0.239693 0
M  V30 1902 C 187.857 1.1295 1.66867 0
M  V30 1903 O 186.913 0.81592 2.38954 0
M  V30 1904 C 188.226 3.00699 0.00828202 0
M  V30 1905 C 189.774 3.12912 0.0743438 0
M  V30 1906 C 190.249 4.57817 -0.129348 0
M  V30 1907 N 191.74 4.63139 -0.075247 0
M  V30 1908 C 192.475 5.73023 -0.207788 0
M  V30 1909 N 191.971 6.91665 -0.396382 0
M  V30 1910 N 193.764 5.61906 -0.14751 0
M  V30 1911 H 185.915 1.84615 -1.05029 0
M  V30 1912 H 188.178 0.85311 -0.41341 0
M  V30 1913 H 187.884 3.37784 -0.979531 0
M  V30 1914 H 187.758 3.69848 0.741077 0
M  V30 1915 H 190.145 2.75686 1.05268 0
M  V30 1916 H 190.226 2.4631 -0.690297 0
M  V30 1917 H 189.87 4.95742 -1.10465 0
M  V30 1918 H 189.8 5.22507 0.655253 0
M  V30 1919 H 192.291 3.7784 0.0670898 0
M  V30 1920 H 192.604 7.71255 -0.488437 0
M  V30 1921 H 190.949 6.93654 -0.432329 0
M  V30 1922 H 194.14 4.681 -0.00115036 0
M  V30 1923 H 194.313 6.47501 -0.254247 0
M  V30 1924 N 187.719 -0.156864 1.56817 0
M  V30 1925 C 188.651 -1.21883 1.94106 0
M  V30 1926 C 189.664 -1.3971 0.835754 0
M  V30 1927 O 190.853 -1.39457 1.11418 0
M  V30 1928 C 187.953 -2.58527 2.19127 0
M  V30 1929 C 187.126 -2.61809 3.50393 0
M  V30 1930 C 186.185 -3.7992 3.64071 0
M  V30 1931 O 185.211 -3.65249 4.36557 0
M  V30 1932 N 186.413 -4.96973 2.99997 0
M  V30 1933 H 189.178 -0.901974 2.85805 0
M  V30 1934 H 186.739 -0.346513 1.58148 0
M  V30 1935 H 188.731 -3.36034 2.25529 0
M  V30 1936 H 187.301 -2.82545 1.33742 0
M  V30 1937 H 186.521 -1.7029 3.5552 0
M  V30 1938 H 187.809 -2.61024 4.36742 0
M  V30 1939 H 187.207 -5.11794 2.41004 0
M  V30 1940 H 185.764 -5.7229 3.11974 0
M  V30 1941 N 189.197 -1.51736 -0.425897 0
M  V30 1942 C 190.145 -1.74464 -1.53834 0
M  V30 1943 C 191.139 -0.611241 -1.57988 0
M  V30 1944 O 192.345 -0.792899 -1.61596 0
M  V30 1945 H 188.72 -0.551437 -0.511293 0
M  V30 1946 H 190.691 -2.67694 -1.31843 0
M  V30 1947 C 189.44 -1.8972 -2.91379 0
M  V30 1948 H 188.763 -2.76344 -2.88919 0
M  V30 1949 H 190.203 -2.09629 -3.68553 0
M  V30 1950 C 188.662 -0.65992 -3.30374 0
M  V30 1951 O 189.192 0.180083 -4.01296 0
M  V30 1952 N 187.398 -0.500677 -2.86254 0
M  V30 1953 H 186.945 -1.18532 -2.28709 0
M  V30 1954 H 186.903 0.325903 -3.12706 0
M  V30 1955 N 190.675 0.682077 -1.42076 0
M  V30 1956 C 191.9 1.47558 -1.45744 0
M  V30 1957 C 192.325 1.87977 -0.0680981 0
M  V30 1958 O 191.683 1.55522 0.9318 0
M  V30 1959 C 191.731 2.70575 -2.38373 0
M  V30 1960 O 190.835 3.68573 -1.85007 0
M  V30 1961 H 190.176 0.443585 -0.494093 0
M  V30 1962 H 192.706 0.837238 -1.86686 0
M  V30 1963 H 192.716 3.18729 -2.54707 0
M  V30 1964 H 191.391 2.40495 -3.39315 0
M  V30 1965 H 189.968 3.2757 -1.78192 0
M  V30 1966 N 192.153 1.28127 0.917671 0
M  V30 1967 C 193.1 1.11717 2.0196 0
M  V30 1968 C 194.07 0.0153929 1.66093 0
M  V30 1969 O 195.255 0.179596 1.89953 0
M  V30 1970 C 192.395 0.780927 3.36148 0
M  V30 1971 C 191.508 1.96135 3.84909 0
M  V30 1972 C 190.643 1.56609 5.0759 0
M  V30 1973 C 189.682 2.71339 5.48673 0
M  V30 1974 N 188.819 2.32332 6.62545 0
M  V30 1975 H 193.659 2.06003 2.15329 0
M  V30 1976 H 191.196 1.02535 1.05475 0
M  V30 1977 H 193.154 0.56675 4.13333 0
M  V30 1978 H 191.784 -0.124998 3.22558 0
M  V30 1979 H 190.836 2.28777 3.03916 0
M  V30 1980 H 192.148 2.82165 4.1132 0
M  V30 1981 H 191.302 1.31374 5.92305 0
M  V30 1982 H 190.041 0.677014 4.82978 0
M  V30 1983 H 189.046 2.97276 4.62501 0
M  V30 1984 H 190.271 3.60882 5.75274 0
M  V30 1985 H 188.217 1.45889 6.39572 0
M  V30 1986 H 188.134 3.11899 6.88662 0
M  V30 1987 H 189.402 2.10371 7.50576 0
M  V30 1988 N 193.631 -1.12557 1.10312 0
M  V30 1989 C 194.564 -2.1737 0.694674 0
M  V30 1990 C 195.542 -1.59745 -0.303373 0
M  V30 1991 O 196.726 -1.87408 -0.202578 0
M  V30 1992 C 193.853 -3.38691 0.0248052 0
M  V30 1993 C 192.899 -4.14943 0.986121 0
M  V30 1994 S 193.732 -4.73413 2.50281 0
M  V30 1995 C 194.888 -5.9807 1.84562 0
M  V30 1996 H 195.121 -2.5168 1.58255 0
M  V30 1997 H 192.654 -1.23998 0.919992 0
M  V30 1998 H 194.612 -4.08959 -0.355361 0
M  V30 1999 H 193.273 -3.02664 -0.839851 0
M  V30 2000 H 192.466 -5.01854 0.464651 0
M  V30 2001 H 192.068 -3.50377 1.30813 0
M  V30 2002 H 194.36 -6.67232 1.17507 0
M  V30 2003 H 195.303 -6.54841 2.69423 0
M  V30 2004 H 195.711 -5.49073 1.31069 0
M  V30 2005 N 195.109 -0.891671 -1.2995 0
M  V30 2006 C 196.039 -0.379797 -2.30391 0
M  V30 2007 C 197.02 0.540919 -1.6127 0
M  V30 2008 O 198.205 0.453352 -1.88834 0
M  V30 2009 C 195.335 0.400654 -3.44981 0
M  V30 2010 C 194.289 -0.428905 -4.25846 0
M  V30 2011 C 193.615 0.478557 -5.32554 0
M  V30 2012 C 194.915 -1.67458 -4.94727 0
M  V30 2013 H 196.609 -1.21914 -2.73454 0
M  V30 2014 H 194.155 -0.587675 -1.31462 0
M  V30 2015 H 196.108 0.769434 -4.14316 0
M  V30 2016 H 194.832 1.27371 -3.0074 0
M  V30 2017 H 193.491 -0.779911 -3.58208 0
M  V30 2018 H 193.139 1.34951 -4.84559 0
M  V30 2019 H 192.839 -0.0727433 -5.87555 0
M  V30 2020 H 194.363 0.843705 -6.04743 0
M  V30 2021 H 195.777 -1.376 -5.56542 0
M  V30 2022 H 194.174 -2.16659 -5.59624 0
M  V30 2023 H 195.244 -2.41518 -4.20473 0
M  V30 2024 N 196.587 1.43421 -0.653314 0
M  V30 2025 C 197.517 2.33487 0.0246656 0
M  V30 2026 C 198.498 1.49475 0.811863 0
M  V30 2027 O 199.683 1.78139 0.773322 0
M  V30 2028 C 196.813 3.32841 0.99166 0
M  V30 2029 C 195.767 4.26842 0.314568 0
M  V30 2030 C 195.093 5.16236 1.39302 0
M  V30 2031 C 196.393 5.16243 -0.793095 0
M  V30 2032 H 198.087 2.90427 -0.727481 0
M  V30 2033 H 195.633 1.39649 -0.351287 0
M  V30 2034 H 197.586 3.94747 1.47487 0
M  V30 2035 H 196.31 2.74158 1.77497 0
M  V30 2036 H 194.969 3.663 -0.148199 0
M  V30 2037 H 194.617 4.53891 2.16776 0
M  V30 2038 H 194.317 5.79948 0.945223 0
M  V30 2039 H 195.841 5.81015 1.87759 0
M  V30 2040 H 197.255 5.71958 -0.392039 0
M  V30 2041 H 195.652 5.88676 -1.16536 0
M  V30 2042 H 196.722 4.55927 -1.65103 0
M  V30 2043 N 198.065 0.39524 1.52563 0
M  V30 2044 C 199.028 -0.425001 2.25225 0
M  V30 2045 C 200.028 -0.985266 1.27079 0
M  V30 2046 O 201.218 -0.866332 1.5113 0
M  V30 2047 C 198.35 -1.59686 3.01186 0
M  V30 2048 H 199.543 0.211233 2.99155 0
M  V30 2049 H 197.096 0.147472 1.55603 0
M  V30 2050 H 197.831 -2.27035 2.31572 0
M  V30 2051 H 197.616 -1.20176 3.73229 0
M  V30 2052 H 199.106 -2.17743 3.5634 0
M  V30 2053 N 199.544 -1.57102 0.125237 0
M  V30 2054 C 200.492 -2.16905 -0.839927 0
M  V30 2055 C 201.486 -1.11998 -1.27094 0
M  V30 2056 O 202.692 -1.3029 -1.24195 0
M  V30 2057 H 199.067 -0.694252 -0.288995 0
M  V30 2058 H 201.038 -2.96774 -0.311115 0
M  V30 2059 C 199.787 -2.78795 -2.07771 0
M  V30 2060 H 199.11 -3.59221 -1.755 0
M  V30 2061 H 200.55 -3.2417 -2.73295 0
M  V30 2062 C 199.009 -1.76193 -2.87155 0
M  V30 2063 O 199.539 -1.21909 -3.82755 0
M  V30 2064 N 197.745 -1.45991 -2.51267 0
M  V30 2065 H 197.292 -1.90325 -1.73592 0
M  V30 2066 H 197.25 -0.775844 -3.04677 0
M  V30 2067 N 201.022 0.148545 -1.56898 0
M  V30 2068 C 201.952 1.18524 -2.01182 0
M  V30 2069 C 202.933 1.4489 -0.891123 0
M  V30 2070 O 204.118 1.55836 -1.15882 0
M  V30 2071 C 201.248 2.51879 -2.39112 0
M  V30 2072 C 200.202 2.40038 -3.54353 0
M  V30 2073 C 199.528 3.78089 -3.78091 0
M  V30 2074 C 200.828 1.88577 -4.87069 0
M  V30 2075 H 202.522 0.817029 -2.88036 0
M  V30 2076 H 200.068 0.391575 -1.38574 0
M  V30 2077 H 202.021 3.24627 -2.68692 0
M  V30 2078 H 200.745 2.90532 -1.49193 0
M  V30 2079 H 199.404 1.69742 -3.24936 0
M  V30 2080 H 199.052 4.14175 -2.85426 0
M  V30 2081 H 198.752 3.71028 -4.55645 0
M  V30 2082 H 200.276 4.52387 -4.10095 0
M  V30 2083 H 201.69 2.51117 -5.15377 0
M  V30 2084 H 200.087 1.9241 -5.68417 0
M  V30 2085 H 201.157 0.84136 -4.77545 0
M  V30 2086 N 202.5 1.5196 0.417844 0
M  V30 2087 C 203.749 1.6482 1.16264 0
M  V30 2088 C 204.062 0.379886 1.91876 0
M  V30 2089 O 205.268 0.388154 2.68711 0
M  V30 2090 C 203.724 2.91161 2.1155 0
M  V30 2091 C 203.332 4.25068 1.41495 0
M  V30 2092 C 205.076 3.13383 2.86341 0
M  V30 2093 C 202.983 5.42541 2.35379 0
M  V30 2094 H 201.913 0.613954 0.437694 0
M  V30 2095 H 204.564 1.78442 0.427871 0
M  V30 2096 H 202.946 2.71218 2.88543 0
M  V30 2097 H 204.12 4.55463 0.699263 0
M  V30 2098 H 202.435 4.0888 0.787792 0
M  V30 2099 H 205.032 3.98324 3.5671 0
M  V30 2100 H 205.375 2.27256 3.48798 0
M  V30 2101 H 205.908 3.33757 2.1645 0
M  V30 2102 H 202.647 6.30987 1.77582 0
M  V30 2103 H 202.167 5.16497 3.04945 0
M  V30 2104 H 203.846 5.75272 2.96093 0
M  V30 2105 N 203.978 -0.674533 1.42435 0
M  V30 2106 C 205.227 -1.43034 1.42212 0
M  V30 2107 C 205.54 -1.95555 0.0420788 0
M  V30 2108 O 206.746 -2.71374 -0.0827558 0
M  V30 2109 C 205.202 -2.58748 2.50155 0
M  V30 2110 C 204.81 -2.12925 3.94166 0
M  V30 2111 C 206.554 -3.36257 2.59098 0
M  V30 2112 C 204.461 -3.25723 4.93618 0
M  V30 2113 H 203.391 -0.537345 0.528939 0
M  V30 2114 H 206.042 -0.73024 1.68344 0
M  V30 2115 H 204.424 -3.31128 2.17188 0
M  V30 2116 H 205.598 -1.47697 4.36488 0
M  V30 2117 H 203.913 -1.48354 3.89076 0
M  V30 2118 H 206.51 -4.20264 3.30578 0
M  V30 2119 H 206.853 -3.82866 1.63461 0
M  V30 2120 H 207.386 -2.70947 2.9126 0
M  V30 2121 H 204.125 -2.84105 5.90732 0
M  V30 2122 H 203.645 -3.89732 4.55926 0
M  V30 2123 H 205.324 -3.91186 5.15347 0
M  V30 2124 N 205.456 -1.28612 -0.910864 0
M  V30 2125 C 206.702 -1.17116 -1.66299 0
M  V30 2126 C 207.057 0.276917 -1.90397 0
M  V30 2127 O 206.35 1.19795 -1.49532 0
M  V30 2128 C 206.544 -1.90624 -3.0232 0
M  V30 2129 C 206.373 -3.42431 -2.91498 0
M  V30 2130 C 205.143 -4.11773 -2.92867 0
M  V30 2131 C 207.341 -4.38124 -2.69355 0
M  V30 2132 N 205.323 -5.50025 -2.72664 0
M  V30 2133 C 206.694 -5.63759 -2.58023 0
M  V30 2134 C 208.749 -4.28016 -2.54375 0
M  V30 2135 C 207.452 -6.80436 -2.33238 0
M  V30 2136 C 209.478 -5.44433 -2.30969 0
M  V30 2137 C 208.84 -6.69034 -2.20394 0
M  V30 2138 H 204.939 -0.483506 -0.61461 0
M  V30 2139 H 207.523 -1.62299 -1.0755 0
M  V30 2140 H 205.694 -1.4787 -3.5915 0
M  V30 2141 H 207.426 -1.71488 -3.66571 0
M  V30 2142 H 204.181 -3.63378 -3.03732 0
M  V30 2143 H 204.605 -6.22705 -2.65646 0
M  V30 2144 H 209.247 -3.32388 -2.613 0
M  V30 2145 H 206.965 -7.7613 -2.25051 0
M  V30 2146 H 210.551 -5.38504 -2.20238 0
M  V30 2147 H 209.431 -7.57595 -2.02531 0
M  V30 2148 N 206.934 1.1197 -1.10907 0
M  V30 2149 C 207.882 2.19927 -0.757303 0
M  V30 2150 C 208.876 1.67564 0.248747 0
M  V30 2151 O 210.082 1.79672 0.108605 0
M  V30 2152 H 206.457 0.716925 -0.226987 0
M  V30 2153 H 208.428 2.46847 -1.67658 0
M  V30 2154 C 207.177 3.47061 -0.210671 0
M  V30 2155 H 206.5 3.87703 -0.976049 0
M  V30 2156 H 207.94 4.24 -0.0026584 0
M  V30 2157 C 206.399 3.19864 1.05777 0
M  V30 2158 O 206.929 3.40049 2.13845 0
M  V30 2159 N 205.135 2.73636 0.978349 0
M  V30 2160 H 204.682 2.5741 0.0988246 0
M  V30 2161 H 204.64 2.55815 1.82773 0
M  V30 2162 N 208.412 0.89855 1.29475 0
M  V30 2163 C 209.642 0.538479 1.99459 0
M  V30 2164 C 210.05 -0.880922 1.67441 0
M  V30 2165 O 209.393 -1.59283 0.915127 0
M  V30 2166 C 209.455 0.649564 3.53583 0
M  V30 2167 C 209.119 2.03573 4.09154 0
M  V30 2168 C 210.116 3.00675 4.24135 0
M  V30 2169 C 207.801 2.3448 4.44212 0
M  V30 2170 C 209.795 4.26809 4.73405 0
M  V30 2171 C 207.482 3.60857 4.93179 0
M  V30 2172 C 208.48 4.56836 5.0773 0
M  V30 2173 O 208.168 5.80969 5.55635 0
M  V30 2174 H 207.9 0.205372 0.644048 0
M  V30 2175 H 210.454 1.20958 1.66007 0
M  V30 2176 H 208.684 -0.0785592 3.8662 0
M  V30 2177 H 210.373 0.29881 4.04799 0
M  V30 2178 H 211.139 2.78112 3.97339 0
M  V30 2179 H 207.018 1.60534 4.32145 0
M  V30 2180 H 210.562 5.0173 4.84678 0
M  V30 2181 H 206.459 3.83251 5.19412 0
M  V30 2182 H 207.227 5.83542 5.73952 0
M  V30 2183 N 209.89 -1.43072 0.660911 0
M  V30 2184 C 211.301 -1.84932 0.256348 0
M  V30 2185 C 211.652 -1.55325 -1.19868 0
M  V30 2186 O 210.777 -1.00607 -1.91591 0
M  V30 2187 C 211.372 -3.35684 0.458475 0
M  V30 2188 C 209.931 -3.76245 0.108161 0
M  V30 2189 C 209.078 -2.66749 0.757641 0
M  V30 2190 H 212.029 -1.33116 0.864051 0
M  V30 2191 H 212.05 -3.79365 -0.293683 0
M  V30 2192 H 211.562 -3.572 1.51755 0
M  V30 2193 H 209.663 -3.60338 -0.948014 0
M  V30 2194 H 209.776 -4.76058 0.538992 0
M  V30 2195 H 208.14 -2.53989 0.190185 0
M  V30 2196 H 208.923 -2.91092 1.81989 0
M  V30 2197 N 211.368 -0.403325 -1.52352 0
M  V30 2198 C 212.316 0.439752 -2.28405 0
M  V30 2199 C 213.31 1.05089 -1.32863 0
M  V30 2200 O 214.516 0.989759 -1.50345 0
M  V30 2201 H 210.891 0.160587 -0.734653 0
M  V30 2202 H 212.862 -0.222983 -2.97566 0
M  V30 2203 C 211.611 1.54736 -3.11371 0
M  V30 2204 H 210.934 1.08643 -3.84755 0
M  V30 2205 H 212.374 2.1112 -3.67701 0
M  V30 2206 C 210.833 2.51141 -2.24566 0
M  V30 2207 O 211.363 3.54887 -1.88196 0
M  V30 2208 N 209.569 2.21213 -1.8845 0
M  V30 2209 H 209.116 1.36878 -2.18225 0
M  V30 2210 H 209.074 2.85963 -1.30662 0
M  V30 2211 N 212.846 1.57033 -0.133567 0
M  V30 2212 C 214.094 1.953 0.519848 0
M  V30 2213 C 214.415 1.01866 1.66278 0
M  V30 2214 O 213.685 0.0776513 1.95746 0
M  V30 2215 H 212.265 0.721091 0.195032 0
M  V30 2216 H 214.927 1.93809 -0.205921 0
M  V30 2217 H 214.023 2.98695 0.904854 0
M  V30 2218 N 214.325 -0.140222 1.56975 0
M  V30 2219 C 215.258 -1.20266 1.93936 0
M  V30 2220 C 216.236 -1.41212 0.806099 0
M  V30 2221 O 217.42 -1.55713 1.06234 0
M  V30 2222 C 214.547 -2.56037 2.21726 0
M  V30 2223 C 213.593 -2.51646 3.44349 0
M  V30 2224 S 214.426 -1.97678 4.97678 0
M  V30 2225 C 215.582 -3.35165 5.28597 0
M  V30 2226 H 215.815 -0.887358 2.83749 0
M  V30 2227 H 213.348 -0.346119 1.50471 0
M  V30 2228 H 215.306 -3.34167 2.38416 0
M  V30 2229 H 213.967 -2.84755 1.32566 0
M  V30 2230 H 213.16 -3.51608 3.61092 0
M  V30 2231 H 212.762 -1.81628 3.26936 0
M  V30 2232 H 215.054 -4.31302 5.2248 0
M  V30 2233 H 215.997 -3.23269 6.30002 0
M  V30 2234 H 216.405 -3.32614 4.56101 0
M  V30 2235 N 215.803 -1.52179 -0.40978 0
M  V30 2236 C 217.028 -1.70347 -1.18308 0
M  V30 2237 C 217.453 -0.411887 -1.83535 0
M  V30 2238 O 216.811 0.630587 -1.6998 0
M  V30 2239 C 216.859 -2.83977 -2.22238 0
M  V30 2240 O 215.963 -2.495 -3.28365 0
M  V30 2241 H 215.304 -0.567103 -0.345384 0
M  V30 2242 H 217.834 -1.98879 -0.480445 0
M  V30 2243 H 217.844 -3.0887 -2.66577 0
M  V30 2244 H 216.519 -3.77685 -1.74146 0
M  V30 2245 H 215.096 -2.35277 -2.89308 0
M  V30 2246 N 217.281 0.66697 -1.42791 0
M  V30 2247 C 218.244 1.76211 -1.46568 0
M  V30 2248 C 219.244 1.56896 -0.352196 0
M  V30 2249 O 220.434 1.63044 -0.613364 0
M  V30 2250 C 217.566 3.14935 -1.30494 0
M  V30 2251 H 218.759 1.74247 -2.44086 0
M  V30 2252 H 216.312 0.877342 -1.29354 0
M  V30 2253 H 217.047 3.2252 -0.339301 0
M  V30 2254 H 216.832 3.30359 -2.11199 0
M  V30 2255 H 218.322 3.94821 -1.36038 0
M  V30 2256 N 218.759 1.29093 0.90403 0
M  V30 2257 C 219.691 1.09658 2.01266 0
M  V30 2258 C 220.704 0.0453729 1.62737 0
M  V30 2259 O 221.893 0.289446 1.76138 0
M  V30 2260 C 218.993 0.646278 3.32681 0
M  V30 2261 C 218.166 1.77505 3.99763 0
M  V30 2262 C 217.225 1.31649 5.09465 0
M  V30 2263 O 216.251 2.02045 5.32134 0
M  V30 2264 N 217.453 0.184997 5.80205 0
M  V30 2265 H 220.218 2.05135 2.18494 0
M  V30 2266 H 217.779 1.20975 1.07594 0
M  V30 2267 H 219.771 0.322906 4.0341 0
M  V30 2268 H 218.341 -0.215916 3.11853 0
M  V30 2269 H 217.561 2.26752 3.22455 0
M  V30 2270 H 218.849 2.53198 4.41325 0
M  V30 2271 H 218.247 -0.402021 5.6427 0
M  V30 2272 H 216.804 -0.0790358 6.51752 0
M  V30 2273 N 220.237 -1.11381 1.11499 0
M  V30 2274 C 221.653 -1.35143 0.849031 0
M  V30 2275 C 221.853 -1.94515 -0.525938 0
M  V30 2276 O 220.909 -2.1785 -1.27662 0
M  V30 2277 C 222.222 -2.28249 1.95762 0
M  V30 2278 C 223.77 -2.41812 1.98736 0
M  V30 2279 C 224.245 -3.3824 3.088 0
M  V30 2280 N 225.736 -3.45803 3.08179 0
M  V30 2281 C 226.471 -4.20358 3.89982 0
M  V30 2282 N 225.967 -4.97884 4.8175 0
M  V30 2283 N 227.76 -4.15877 3.78157 0
M  V30 2284 H 219.911 -0.712062 2.00109 0
M  V30 2285 H 222.174 -0.376025 0.870235 0
M  V30 2286 H 221.88 -1.91817 2.94787 0
M  V30 2287 H 221.754 -3.28473 1.85433 0
M  V30 2288 H 224.141 -2.77518 1.00338 0
M  V30 2289 H 224.222 -1.41437 2.13141 0
M  V30 2290 H 223.866 -3.03261 4.07425 0
M  V30 2291 H 223.796 -4.38471 2.91635 0
M  V30 2292 H 226.287 -2.90506 2.41691 0
M  V30 2293 H 226.6 -5.52142 5.40702 0
M  V30 2294 H 224.945 -4.97043 4.85771 0
M  V30 2295 H 228.136 -3.544 3.05808 0
M  V30 2296 H 228.309 -4.73723 4.42143 0
M  V30 2297 N 221.715 -0.905404 -1.28997 0
M  V30 2298 C 222.962 -0.534248 -1.95325 0
M  V30 2299 C 223.29 0.920535 -1.71337 0
M  V30 2300 O 222.545 1.66861 -1.02254 0
M  V30 2301 C 222.844 -0.779906 -3.48787 0
M  V30 2302 C 222.51 -2.21293 -3.92861 0
M  V30 2303 C 221.172 -2.60475 -4.04606 0
M  V30 2304 C 223.524 -3.14587 -4.15553 0
M  V30 2305 C 220.852 -3.9212 -4.36416 0
M  V30 2306 C 223.204 -4.45787 -4.48839 0
M  V30 2307 C 221.868 -4.84834 -4.58794 0
M  V30 2308 H 221.138 -0.195495 -0.714747 0
M  V30 2309 H 223.785 -1.14514 -1.53488 0
M  V30 2310 H 222.09 -0.0861365 -3.91705 0
M  V30 2311 H 223.787 -0.472029 -3.98212 0
M  V30 2312 H 220.377 -1.89887 -3.84241 0
M  V30 2313 H 224.561 -2.85528 -4.0594 0
M  V30 2314 H 219.817 -4.22086 -4.42327 0
M  V30 2315 H 223.991 -5.18098 -4.65346 0
M  V30 2316 H 221.618 -5.86877 -4.83197 0
M  V30 2317 N 223.193 1.4272 -0.668489 0
M  V30 2318 C 224.44 2.01624 -0.18814 0
M  V30 2319 C 224.768 1.5282 1.20317 0
M  V30 2320 O 224.023 0.718323 1.8204 0
M  V30 2321 C 224.322 3.57021 -0.164499 0
M  V30 2322 C 223.988 4.25232 -1.49962 0
M  V30 2323 C 222.65 4.4358 -1.8652 0
M  V30 2324 C 225.002 4.63727 -2.37921 0
M  V30 2325 C 222.33 4.97694 -3.10674 0
M  V30 2326 C 224.682 5.19218 -3.6138 0
M  V30 2327 C 223.346 5.3578 -3.98115 0
M  V30 2328 H 222.616 0.737795 -0.0688454 0
M  V30 2329 H 225.263 1.70991 -0.862225 0
M  V30 2330 H 223.568 3.87285 0.593079 0
M  V30 2331 H 225.265 4.00372 0.224271 0
M  V30 2332 H 221.855 4.11306 -1.20522 0
M  V30 2333 H 226.039 4.4923 -2.10964 0
M  V30 2334 H 221.295 5.08702 -3.39164 0
M  V30 2335 H 225.469 5.4799 -4.29743 0
M  V30 2336 H 223.096 5.77475 -4.94395 0
M  V30 2337 N 224.671 0.411399 1.52136 0
M  V30 2338 C 225.634 -0.401089 2.25663 0
M  V30 2339 C 226.634 -0.971732 1.28117 0
M  V30 2340 O 227.824 -0.850254 1.52041 0
M  V30 2341 C 224.956 -1.56483 3.02863 0
M  V30 2342 H 226.149 0.24295 2.98914 0
M  V30 2343 H 223.702 0.163968 1.55438 0
M  V30 2344 H 224.437 -2.24567 2.33967 0
M  V30 2345 H 224.222 -1.16211 3.74483 0
M  V30 2346 H 225.712 -2.13951 3.58629 0
M  V30 2347 N 226.149 -1.5696 0.141893 0
M  V30 2348 C 227.097 -2.17784 -0.816874 0
M  V30 2349 C 228.091 -1.1334 -1.25899 0
M  V30 2350 O 229.297 -1.316 -1.22806 0
M  V30 2351 H 225.672 -0.697278 -0.281615 0
M  V30 2352 H 227.643 -2.97087 -0.279621 0
M  V30 2353 C 226.392 -2.80983 -2.04802 0
M  V30 2354 H 225.715 -3.61062 -1.7168 0
M  V30 2355 H 227.155 -3.2705 -2.69841 0
M  V30 2356 C 225.614 -1.79228 -2.8527 0
M  V30 2357 O 226.144 -1.25962 -3.8144 0
M  V30 2358 N 224.35 -1.48647 -2.49704 0
M  V30 2359 H 223.897 -1.92155 -1.71564 0
M  V30 2360 H 223.855 -0.808115 -3.03837 0
M  V30 2361 N 227.627 0.131896 -1.57047 0
M  V30 2362 C 229.043 0.485031 -1.52051 0
M  V30 2363 C 229.243 1.82563 -0.85281 0
M  V30 2364 O 228.299 2.48817 -0.429694 0
M  V30 2365 C 229.612 0.481409 -2.96821 0
M  V30 2366 C 231.16 0.565868 -3.07842 0
M  V30 2367 C 231.635 0.592762 -4.54148 0
M  V30 2368 N 233.126 0.654564 -4.58552 0
M  V30 2369 C 233.861 0.696608 -5.69153 0
M  V30 2370 N 233.357 0.697078 -6.89284 0
M  V30 2371 N 235.15 0.738639 -5.57226 0
M  V30 2372 H 227.301 -0.746664 -1.98843 0
M  V30 2373 H 229.564 -0.273999 -0.90754 0
M  V30 2374 H 229.27 -0.435731 -3.4899 0
M  V30 2375 H 229.144 1.3139 -3.53577 0
M  V30 2376 H 231.531 1.47343 -2.55684 0
M  V30 2377 H 231.612 -0.29406 -2.54104 0
M  V30 2378 H 231.256 -0.310701 -5.06949 0
M  V30 2379 H 231.186 1.46939 -5.05684 0
M  V30 2380 H 233.677 0.660887 -3.72076 0
M  V30 2381 H 233.99 0.731426 -7.69331 0
M  V30 2382 H 232.335 0.66471 -6.91814 0
M  V30 2383 H 235.526 0.735545 -4.62285 0
M  V30 2384 H 235.699 0.767938 -6.43434 0
M  V30 2385 N 229.106 1.52395 0.401703 0
M  V30 2386 C 230.056 1.72649 1.48917 0
M  V30 2387 C 231.04 0.580436 1.50066 0
M  V30 2388 O 232.232 0.83779 1.55917 0
M  V30 2389 C 229.361 1.88729 2.86769 0
M  V30 2390 C 228.447 3.09228 2.90239 0
M  V30 2391 N 228.838 4.31805 2.63396 0
M  V30 2392 C 227.136 3.09214 3.21408 0
M  V30 2393 C 227.837 5.13326 2.73625 0
M  V30 2394 N 226.813 4.48735 3.06819 0
M  V30 2395 H 230.615 2.65058 1.26971 0
M  V30 2396 H 228.129 1.50528 0.609504 0
M  V30 2397 H 230.126 2.01358 3.65049 0
M  V30 2398 H 228.786 0.975252 3.09708 0
M  V30 2399 H 229.797 4.60154 2.37653 0
M  V30 2400 H 226.474 2.27774 3.49893 0
M  V30 2401 H 227.864 6.21003 2.56524 0
M  V30 2402 N 230.584 -0.659388 1.43143 0
M  V30 2403 C 231.494 -1.80167 1.50256 0
M  V30 2404 C 232.51 -1.69571 0.390106 0
M  V30 2405 O 233.686 -1.90849 0.643319 0
M  V30 2406 C 230.751 -3.16409 1.41725 0
M  V30 2407 C 229.812 -3.38848 2.63591 0
M  V30 2408 C 229.045 -4.68591 2.55458 0
M  V30 2409 O 229.268 -5.47532 1.59891 0
M  V30 2410 O 228.202 -4.92614 3.45854 0
M  V30 2411 H 232.028 -1.77121 2.46702 0
M  V30 2412 H 229.613 -0.817092 1.25076 0
M  V30 2413 H 231.495 -3.9768 1.39387 0
M  V30 2414 H 230.17 -3.20059 0.484118 0
M  V30 2415 H 229.077 -2.57366 2.71502 0
M  V30 2416 H 230.41 -3.4004 3.55856 0
M  V30 2417 N 232.062 -1.29571 -0.897171 0
M  V30 2418 C 232.972 -1.16808 -2.03453 0
M  V30 2419 C 233.988 -0.0907471 -1.73763 0
M  V30 2420 O 235.164 -0.303312 -1.99103 0
M  V30 2421 C 232.229 -0.848264 -3.36163 0
M  V30 2422 C 231.29 -2.0097 -3.79354 0
M  V30 2423 C 230.523 -1.70505 -5.05731 0
M  V30 2424 O 230.746 -0.62718 -5.66941 0
M  V30 2425 O 229.68 -2.5538 -5.45036 0
M  V30 2426 H 233.506 -2.12325 -2.17144 0
M  V30 2427 H 231.091 -1.09047 -1.02123 0
M  V30 2428 H 232.973 -0.684581 -4.15802 0
M  V30 2429 H 231.648 0.0771071 -3.23608 0
M  V30 2430 H 230.555 -2.22863 -3.00471 0
M  V30 2431 H 231.888 -2.91636 -3.96496 0
M  V30 2432 N 233.54 1.10788 -1.12088 0
M  V30 2433 C 234.789 1.82036 -0.868659 0
M  V30 2434 C 235.102 1.85929 0.607426 0
M  V30 2435 O 236.308 2.53346 0.97613 0
M  V30 2436 C 234.764 3.26951 -1.50435 0
M  V30 2437 C 234.372 3.31367 -3.01496 0
M  V30 2438 C 236.116 4.03053 -1.33225 0
M  V30 2439 C 234.023 4.7072 -3.58017 0
M  V30 2440 H 232.953 0.682108 -0.321318 0
M  V30 2441 H 235.604 1.24618 -1.34694 0
M  V30 2442 H 233.986 3.84343 -0.953735 0
M  V30 2443 H 235.16 2.83819 -3.6302 0
M  V30 2444 H 233.475 2.6875 -3.18061 0
M  V30 2445 H 236.072 5.05981 -1.72878 0
M  V30 2446 H 236.415 4.15387 -0.275529 0
M  V30 2447 H 236.948 3.52066 -1.85188 0
M  V30 2448 H 233.687 4.63585 -4.63432 0
M  V30 2449 H 233.207 5.1865 -3.01268 0
M  V30 2450 H 234.886 5.39685 -3.56859 0
M  V30 2451 N 235.018 0.912232 1.28515 0
M  V30 2452 C 235.981 0.404223 2.25607 0
M  V30 2453 C 236.981 -0.468602 1.53821 0
M  V30 2454 O 238.171 -0.271873 1.72065 0
M  V30 2455 C 235.303 -0.420653 3.38295 0
M  V30 2456 H 236.496 1.26188 2.7206 0
M  V30 2457 H 234.049 0.691495 1.40171 0
M  V30 2458 H 234.784 -1.29777 2.97201 0
M  V30 2459 H 234.569 0.204935 3.91564 0
M  V30 2460 H 236.059 -0.766971 4.10496 0
M  V30 2461 N 236.496 -1.42363 0.676048 0
M  V30 2462 C 237.742 -2.02336 0.207809 0
M  V30 2463 C 238.097 -1.52506 -1.17302 0
M  V30 2464 O 237.39 -0.718048 -1.77636 0
M  V30 2465 C 237.584 -3.56929 0.183431 0
M  V30 2466 C 237.413 -4.21762 1.56036 0
M  V30 2467 C 236.183 -4.56881 2.15842 0
M  V30 2468 C 238.381 -4.49267 2.50327 0
M  V30 2469 N 236.363 -5.069 3.46303 0
M  V30 2470 C 237.734 -5.00851 3.65443 0
M  V30 2471 C 239.789 -4.31257 2.48841 0
M  V30 2472 C 238.492 -5.36317 4.79329 0
M  V30 2473 C 240.518 -4.678 3.61824 0
M  V30 2474 C 239.88 -5.19537 4.75668 0
M  V30 2475 H 235.979 -0.772583 0.120993 0
M  V30 2476 H 238.563 -1.73203 0.889306 0
M  V30 2477 H 236.734 -3.85576 -0.467483 0
M  V30 2478 H 238.466 -4.03603 -0.297808 0
M  V30 2479 H 235.221 -4.4268 1.68319 0
M  V30 2480 H 235.645 -5.36338 4.13123 0
M  V30 2481 H 240.287 -3.90511 1.62051 0
M  V30 2482 H 238.005 -5.75995 5.66794 0
M  V30 2483 H 241.591 -4.55541 3.61903 0
M  V30 2484 H 240.471 -5.47287 5.61646 0
M  V30 2485 N 237.974 -0.419461 -1.51915 0
M  V30 2486 C 239.221 0.152939 -2.01922 0
M  V30 2487 C 239.549 1.4426 -1.30458 0
M  V30 2488 O 238.804 1.91514 -0.402593 0
M  V30 2489 C 239.103 0.437067 -3.54717 0
M  V30 2490 C 238.769 -0.764632 -4.44369 0
M  V30 2491 C 237.431 -1.09423 -4.68594 0
M  V30 2492 C 239.783 -1.56713 -4.97082 0
M  V30 2493 C 237.111 -2.22732 -5.42777 0
M  V30 2494 C 239.463 -2.69107 -5.72507 0
M  V30 2495 C 238.127 -3.02541 -5.95 0
M  V30 2496 H 237.397 0.0559644 -0.738884 0
M  V30 2497 H 240.044 -0.562998 -1.83037 0
M  V30 2498 H 238.349 1.23469 -3.71837 0
M  V30 2499 H 240.046 0.893083 -3.90928 0
M  V30 2500 H 236.636 -0.497775 -4.257 0
M  V30 2501 H 240.82 -1.32571 -4.78266 0
M  V30 2502 H 236.076 -2.48971 -5.58411 0
M  V30 2503 H 240.25 -3.31671 -6.12346 0
M  V30 2504 H 237.877 -3.90457 -6.52264 0
M  V30 2505 N 239.452 1.56882 -0.150215 0
M  V30 2506 C 240.415 2.1573 0.774157 0
M  V30 2507 C 241.415 1.0999 1.17298 0
M  V30 2508 O 242.605 1.35613 1.09338 0
M  V30 2509 C 239.737 2.72302 2.05096 0
M  V30 2510 H 240.93 2.98752 0.262201 0
M  V30 2511 H 238.483 1.55985 0.099248 0
M  V30 2512 H 239.218 1.92956 2.6065 0
M  V30 2513 H 239.003 3.49665 1.77416 0
M  V30 2514 H 240.493 3.17632 2.71109 0
M  V30 2515 N 240.93 -0.123565 1.57115 0
M  V30 2516 C 241.877 -1.15177 2.00007 0
M  V30 2517 C 242.847 -1.41403 0.871454 0
M  V30 2518 O 244.032 -1.53346 1.13533 0
M  V30 2519 C 241.172 -2.47436 2.40561 0
M  V30 2520 C 240.285 -2.28184 3.66819 0
M  V30 2521 C 239.42 -3.53641 3.96373 0
M  V30 2522 C 238.459 -3.29528 5.15827 0
M  V30 2523 N 237.596 -4.47175 5.41275 0
M  V30 2524 H 242.436 -0.779008 2.87638 0
M  V30 2525 H 239.973 -0.373166 1.42288 0
M  V30 2526 H 241.931 -3.24584 2.62109 0
M  V30 2527 H 240.561 -2.82614 1.55978 0
M  V30 2528 H 239.613 -1.41976 3.52912 0
M  V30 2529 H 240.925 -2.0634 4.5412 0
M  V30 2530 H 240.079 -4.39209 4.18545 0
M  V30 2531 H 238.818 -3.78512 3.07538 0
M  V30 2532 H 237.823 -2.42349 4.93505 0
M  V30 2533 H 239.048 -3.06031 6.06236 0
M  V30 2534 H 236.994 -4.72175 4.55397 0
M  V30 2535 H 236.911 -4.28419 6.22891 0
M  V30 2536 H 238.179 -5.3389 5.67963 0
M  V30 2537 N 242.408 -1.52605 -0.393616 0
M  V30 2538 C 243.636 -1.71294 -1.16043 0
M  V30 2539 C 244.051 -0.429259 -1.83855 0
M  V30 2540 O 243.408 0.595921 -1.72496 0
M  V30 2541 C 243.459 -2.8593 -2.21193 0
M  V30 2542 O 243.18 -4.09329 -1.56146 0
M  V30 2543 C 244.681 -3.16259 -3.10636 0
M  V30 2544 H 241.901 -0.573641 -0.348104 0
M  V30 2545 H 244.445 -1.99234 -0.461092 0
M  V30 2546 H 242.6 -2.60465 -2.86769 0
M  V30 2547 H 243.014 -4.73323 -2.25978 0
M  V30 2548 H 244.488 -3.99946 -3.80456 0
M  V30 2549 H 244.965 -2.3045 -3.73884 0
M  V30 2550 H 245.571 -3.43547 -2.50711 0
M  V30 2551 N 243.887 0.651787 -1.4349 0
M  V30 2552 C 244.834 1.76462 -1.4876 0
M  V30 2553 C 245.804 1.62641 -0.337189 0
M  V30 2554 O 246.989 1.82864 -0.544544 0
M  V30 2555 C 244.129 3.14623 -1.41796 0
M  V30 2556 C 243.242 3.39568 -2.67053 0
M  V30 2557 C 242.377 4.67585 -2.52068 0
M  V30 2558 C 241.416 4.85639 -3.72587 0
M  V30 2559 N 240.553 6.04915 -3.56402 0
M  V30 2560 H 245.393 1.71293 -2.43849 0
M  V30 2561 H 242.93 0.835889 -1.21043 0
M  V30 2562 H 244.888 3.94496 -1.35753 0
M  V30 2563 H 243.518 3.18859 -0.50288 0
M  V30 2564 H 242.57 2.53783 -2.8337 0
M  V30 2565 H 243.882 3.48795 -3.56572 0
M  V30 2566 H 243.036 5.55586 -2.4374 0
M  V30 2567 H 241.775 4.60681 -1.60075 0
M  V30 2568 H 240.78 3.96073 -3.81321 0
M  V30 2569 H 242.005 4.94372 -4.65589 0
M  V30 2570 H 239.951 5.9914 -2.67146 0
M  V30 2571 H 239.868 6.15106 -4.39524 0
M  V30 2572 H 241.136 6.95533 -3.51929 0
M  V30 2573 N 245.365 1.30045 0.890287 0
M  V30 2574 C 246.312 1.15976 1.99545 0
M  V30 2575 C 247.282 0.0506202 1.66023 0
M  V30 2576 O 248.467 0.219847 1.89529 0
M  V30 2577 C 245.607 0.852054 3.34416 0
M  V30 2578 C 244.72 2.04255 3.80662 0
M  V30 2579 C 243.855 1.6734 5.04154 0
M  V30 2580 C 242.894 2.82916 5.42794 0
M  V30 2581 N 242.031 2.46333 6.57468 0
M  V30 2582 H 246.871 2.10524 2.10911 0
M  V30 2583 H 244.408 1.04749 1.03276 0
M  V30 2584 H 246.366 0.654296 4.12037 0
M  V30 2585 H 244.996 -0.0565502 3.2275 0
M  V30 2586 H 244.048 2.35172 2.98995 0
M  V30 2587 H 245.36 2.90826 4.05242 0
M  V30 2588 H 244.514 1.43908 5.89386 0
M  V30 2589 H 243.253 0.779308 4.81433 0
M  V30 2590 H 242.258 3.0702 4.56091 0
M  V30 2591 H 243.483 3.73004 5.6749 0
M  V30 2592 H 241.429 1.59423 6.36334 0
M  V30 2593 H 241.346 3.26436 6.81891 0
M  V30 2594 H 242.614 2.26244 7.45945 0
M  V30 2595 N 246.843 -1.10192 1.12674 0
M  V30 2596 C 248.073 -1.85713 0.905213 0
M  V30 2597 C 248.481 -1.81056 -0.549108 0
M  V30 2598 O 247.824 -1.19927 -1.39151 0
M  V30 2599 C 247.886 -3.34972 1.30516 0
M  V30 2600 C 247.55 -3.63385 2.77129 0
M  V30 2601 C 248.547 -3.59772 3.75313 0
M  V30 2602 C 246.232 -3.91981 3.14096 0
M  V30 2603 C 248.226 -3.84354 5.08479 0
M  V30 2604 C 245.913 -4.16218 4.47443 0
M  V30 2605 C 246.911 -4.12395 5.44444 0
M  V30 2606 O 246.599 -4.36014 6.75387 0
M  V30 2607 H 246.331 -0.593719 0.323223 0
M  V30 2608 H 248.885 -1.40198 1.50112 0
M  V30 2609 H 247.115 -3.81156 0.652463 0
M  V30 2610 H 248.804 -3.91886 1.05736 0
M  V30 2611 H 249.57 -3.37716 3.48099 0
M  V30 2612 H 245.449 -3.94085 2.39202 0
M  V30 2613 H 248.993 -3.81285 5.84181 0
M  V30 2614 H 244.89 -4.37754 4.74386 0
M  V30 2615 H 245.658 -4.53516 6.8137 0
M  V30 2616 N 248.321 -0.919034 -1.28029 0
M  V30 2617 C 249.568 -0.554934 -1.94748 0
M  V30 2618 C 249.896 0.90231 -1.72304 0
M  V30 2619 O 249.151 1.65767 -1.04018 0
M  V30 2620 C 249.45 -0.816855 -3.4794 0
M  V30 2621 C 249.116 -2.25448 -3.90492 0
M  V30 2622 C 247.778 -2.64752 -4.01821 0
M  V30 2623 C 250.13 -3.18977 -4.12193 0
M  V30 2624 C 247.458 -3.96727 -4.32232 0
M  V30 2625 C 249.81 -4.50523 -4.44086 0
M  V30 2626 C 248.474 -4.89673 -4.53626 0
M  V30 2627 H 247.744 -0.203065 -0.712633 0
M  V30 2628 H 250.391 -1.16136 -1.52265 0
M  V30 2629 H 248.696 -0.127677 -3.91592 0
M  V30 2630 H 250.393 -0.514238 -3.97689 0
M  V30 2631 H 246.983 -1.93952 -3.82205 0
M  V30 2632 H 251.167 -2.89817 -4.02889 0
M  V30 2633 H 246.423 -4.26754 -4.37825 0
M  V30 2634 H 250.597 -5.23005 -4.59825 0
M  V30 2635 H 248.224 -5.91969 -4.76946 0
M  V30 2636 N 249.799 1.42003 -0.683588 0
M  V30 2637 C 251.046 2.01413 -0.209514 0
M  V30 2638 C 251.374 1.54088 1.1869 0
M  V30 2639 O 250.629 0.737591 1.81268 0
M  V30 2640 C 250.928 3.56827 -0.202357 0
M  V30 2641 C 250.594 4.23617 -1.54464 0
M  V30 2642 C 249.256 4.41577 -1.91215 0
M  V30 2643 C 251.608 4.61178 -2.42826 0
M  V30 2644 C 248.936 4.9437 -3.15935 0
M  V30 2645 C 251.288 5.15355 -3.66867 0
M  V30 2646 C 249.952 5.31528 -4.03776 0
M  V30 2647 H 249.222 0.737023 -0.0766668 0
M  V30 2648 H 251.869 1.70067 -0.880312 0
M  V30 2649 H 250.174 3.87892 0.551969 0
M  V30 2650 H 251.871 4.00588 0.181793 0
M  V30 2651 H 248.461 4.10004 -1.24877 0
M  V30 2652 H 252.645 4.46968 -2.15717 0
M  V30 2653 H 247.901 5.05076 -3.44541 0
M  V30 2654 H 252.075 5.43402 -4.35531 0
M  V30 2655 H 249.702 5.72199 -5.00492 0
M  V30 2656 N 251.277 0.427512 1.51691 0
M  V30 2657 C 252.554 -0.201684 1.94557 0
M  V30 2658 C 252.934 -1.60981 1.36559 0
M  V30 2659 O 252.282 -2.21814 0.548702 0
M  V30 2660 C 252.492 -0.189394 3.48486 0
M  V30 2661 C 253.84 -0.39978 4.22714 0
M  V30 2662 O 254.864 -0.267945 3.55191 0
M  V30 2663 O 253.723 -0.661249 5.42485 0
M  V30 2664 H 250.817 -0.135261 0.815864 0
M  V30 2665 H 253.363 0.484782 1.62628 0
M  V30 2666 H 252.135 0.795431 3.8313 0
M  V30 2667 H 251.758 -0.919187 3.86829 0
M  V30 2668 N 252.755 -1.56801 0.158532 0
M  V30 2669 C 253.685 -2.20347 -0.772609 0
M  V30 2670 C 254.666 -1.15518 -1.24859 0
M  V30 2671 O 255.851 -1.43902 -1.30406 0
M  V30 2672 C 252.981 -2.83417 -2.00729 0
M  V30 2673 C 251.935 -3.94174 -1.66765 0
M  V30 2674 C 251.261 -4.44233 -2.97592 0
M  V30 2675 C 252.561 -5.14392 -0.905447 0
M  V30 2676 H 254.255 -2.98413 -0.242959 0
M  V30 2677 H 251.801 -1.43537 -0.115419 0
M  V30 2678 H 253.754 -3.26543 -2.6636 0
M  V30 2679 H 252.478 -2.02701 -2.56086 0
M  V30 2680 H 251.137 -3.51684 -1.03508 0
M  V30 2681 H 250.785 -3.60325 -3.50963 0
M  V30 2682 H 250.485 -5.18945 -2.75626 0
M  V30 2683 H 252.009 -4.90037 -3.64274 0
M  V30 2684 H 253.423 -5.5429 -1.46408 0
M  V30 2685 H 251.82 -5.9494 -0.7853 0
M  V30 2686 H 252.89 -4.84795 0.100668 0
M  V30 2687 N 254.233 0.115231 -1.57178 0
M  V30 2688 C 255.51 0.852873 -1.76027 0
M  V30 2689 C 255.89 1.97892 -0.73498 0
M  V30 2690 O 255.238 2.27232 0.24036 0
M  V30 2691 C 255.448 1.36608 -3.21153 0
M  V30 2692 C 256.796 1.81692 -3.83762 0
M  V30 2693 O 257.82 1.46278 -3.24779 0
M  V30 2694 O 256.679 2.47104 -4.87444 0
M  V30 2695 H 253.773 0.405296 -0.720877 0
M  V30 2696 H 256.319 0.0986785 -1.69413 0
M  V30 2697 H 255.091 0.558357 -3.87296 0
M  V30 2698 H 254.714 2.18287 -3.3232 0
M  V30 2699 N 255.711 1.52812 0.385517 0
M  V30 2700 C 256.674 1.77188 1.45386 0
M  V30 2701 C 257.674 0.641953 1.4743 0
M  V30 2702 O 258.864 0.910033 1.4854 0
M  V30 2703 C 255.996 1.87582 2.8465 0
M  V30 2704 H 257.189 2.72583 1.25054 0
M  V30 2705 H 254.742 1.43586 0.617467 0
M  V30 2706 H 255.477 0.941849 3.10322 0
M  V30 2707 H 255.262 2.69748 2.84567 0
M  V30 2708 H 256.752 2.08102 3.62054 0
M  V30 2709 N 257.189 -0.644168 1.43834 0
M  V30 2710 C 258.435 -1.40603 1.46146 0
M  V30 2711 C 258.768 -1.93997 0.0887717 0
M  V30 2712 O 258.043 -1.72854 -0.891724 0
M  V30 2713 C 258.326 -2.58086 2.51124 0
M  V30 2714 C 258.179 -2.10126 3.97702 0
M  V30 2715 C 259.498 -3.60291 2.52742 0
M  V30 2716 H 256.617 -0.509905 0.532134 0
M  V30 2717 H 259.259 -0.729502 1.75437 0
M  V30 2718 H 257.409 -3.15801 2.26278 0
M  V30 2719 H 259.081 -1.57342 4.33637 0
M  V30 2720 H 257.324 -1.41419 4.10101 0
M  V30 2721 H 257.995 -2.94649 4.66783 0
M  V30 2722 H 260.471 -3.12352 2.7491 0
M  V30 2723 H 259.347 -4.40032 3.28121 0
M  V30 2724 H 259.608 -4.1349 1.56455 0
M  V30 2725 N 258.668 -1.30515 -0.883378 0
M  V30 2726 C 260.084 -1.08881 -1.16692 0
M  V30 2727 C 260.284 0.149409 -2.00945 0
M  V30 2728 O 259.34 0.84257 -2.38027 0
M  V30 2729 C 260.653 -2.35319 -1.87204 0
M  V30 2730 C 262.201 -2.40799 -1.99962 0
M  V30 2731 C 262.676 -3.67083 -2.73887 0
M  V30 2732 N 264.167 -3.679 -2.81432 0
M  V30 2733 C 264.902 -4.62303 -3.3921 0
M  V30 2734 N 264.398 -5.67052 -3.98025 0
M  V30 2735 N 266.191 -4.49845 -3.3704 0
M  V30 2736 H 258.342 -2.09951 -0.321633 0
M  V30 2737 H 260.605 -0.92556 -0.205043 0
M  V30 2738 H 260.311 -3.25689 -1.3274 0
M  V30 2739 H 260.185 -2.44089 -2.87577 0
M  V30 2740 H 262.572 -1.50907 -2.53597 0
M  V30 2741 H 262.653 -2.36003 -0.98673 0
M  V30 2742 H 262.297 -4.57334 -2.20925 0
M  V30 2743 H 262.227 -3.69141 -3.75556 0
M  V30 2744 H 264.718 -2.92171 -2.39676 0
M  V30 2745 H 265.031 -6.35184 -4.40183 0
M  V30 2746 H 263.376 -5.70842 -3.96439 0
M  V30 2747 H 266.567 -3.67194 -2.90321 0
M  V30 2748 H 266.74 -5.23597 -3.81772 0
M  V30 2749 N 260.146 1.09593 -1.13257 0
M  V30 2750 C 261.056 2.19739 -0.821691 0
M  V30 2751 C 262.072 1.72926 0.19302 0
M  V30 2752 O 263.248 2.01385 0.0244895 0
M  V30 2753 C 260.313 3.45482 -0.290333 0
M  V30 2754 C 259.374 4.06985 -1.36607 0
M  V30 2755 C 258.607 5.26726 -0.859975 0
M  V30 2756 O 258.83 5.69594 0.303082 0
M  V30 2757 O 257.764 5.7931 -1.63351 0
M  V30 2758 H 261.59 2.48781 -1.74189 0
M  V30 2759 H 259.175 1.18496 -0.909894 0
M  V30 2760 H 261.057 4.214 0.000674022 0
M  V30 2761 H 259.732 3.18047 0.602306 0
M  V30 2762 H 258.639 3.32712 -1.71037 0
M  V30 2763 H 259.972 4.38643 -2.23279 0
M  V30 2764 N 261.624 0.925811 1.2754 0
M  V30 2765 C 263.035 0.610102 1.7645 0
M  V30 2766 C 263.386 -0.874723 1.75622 0
M  V30 2767 O 262.511 -1.68444 1.35851 0
M  V30 2768 C 263.106 1.10073 3.20421 0
M  V30 2769 C 261.665 0.835723 3.67005 0
M  V30 2770 C 260.812 1.26054 2.46993 0
M  V30 2771 H 263.763 1.10579 1.13833 0
M  V30 2772 H 263.784 0.447557 3.77859 0
M  V30 2773 H 263.296 2.18143 3.20991 0
M  V30 2774 H 261.397 -0.231249 3.71882 0
M  V30 2775 H 261.51 1.45193 4.56569 0
M  V30 2776 H 259.874 0.679111 2.45479 0
M  V30 2777 H 260.657 2.34984 2.50275 0
M  V30 2778 N 263.102 -1.41638 0.69111 0
M  V30 2779 C 264.332 -2.0533 0.228758 0
M  V30 2780 C 264.74 -1.52089 -1.12541 0
M  V30 2781 O 264.083 -0.662145 -1.71351 0
M  V30 2782 C 264.145 -3.59349 0.10407 0
M  V30 2783 C 263.809 -4.35362 1.38956 0
M  V30 2784 C 264.806 -4.64942 2.32648 0
M  V30 2785 C 262.491 -4.74714 1.64169 0
M  V30 2786 C 264.485 -5.32828 3.49818 0
M  V30 2787 C 262.172 -5.42338 2.81625 0
M  V30 2788 C 263.17 -5.71322 3.74273 0
M  V30 2789 O 262.858 -6.37554 4.89673 0
M  V30 2790 H 262.59 -0.667796 0.104997 0
M  V30 2791 H 265.144 -1.82477 0.942938 0
M  V30 2792 H 263.374 -3.80924 -0.665839 0
M  V30 2793 H 265.063 -4.04633 -0.320519 0
M  V30 2794 H 265.829 -4.35025 2.14425 0
M  V30 2795 H 261.708 -4.51538 0.929202 0
M  V30 2796 H 265.252 -5.55368 4.22152 0
M  V30 2797 H 261.149 -5.71673 2.99768 0
M  V30 2798 H 261.917 -6.56049 4.8943 0
M  V30 2799 N 264.58 -0.43555 -1.51462 0
M  V30 2800 C 265.857 0.191364 -1.94662 0
M  V30 2801 C 266.237 1.60254 -1.37411 0
M  V30 2802 O 265.585 2.2152 -0.560458 0
M  V30 2803 C 265.795 0.17091 -3.48581 0
M  V30 2804 C 267.143 0.377357 -4.2292 0
M  V30 2805 O 268.167 0.249104 -3.55328 0
M  V30 2806 O 267.026 0.63247 -5.42828 0
M  V30 2807 H 264.12 0.130932 -0.816569 0
M  V30 2808 H 266.666 -0.4934 -1.62369 0
M  V30 2809 H 265.438 -0.815738 -3.82703 0
M  V30 2810 H 265.061 0.898659 -3.87311 0
M  V30 2811 N 266.058 1.56714 -0.166846 0
M  V30 2812 C 266.968 2.21331 0.777791 0
M  V30 2813 C 267.984 1.20358 1.25658 0
M  V30 2814 O 269.16 1.53005 1.30964 0
M  V30 2815 C 266.225 2.83787 1.99163 0
M  V30 2816 C 265.286 3.99947 1.56016 0
M  V30 2817 C 264.519 4.59415 2.71613 0
M  V30 2818 O 264.742 4.17769 3.88362 0
M  V30 2819 O 263.676 5.49359 2.45945 0
M  V30 2820 H 267.502 3.02605 0.257636 0
M  V30 2821 H 265.087 1.49275 0.0611393 0
M  V30 2822 H 266.969 3.23405 2.70161 0
M  V30 2823 H 265.644 2.05513 2.50092 0
M  V30 2824 H 264.551 3.65007 0.819809 0
M  V30 2825 H 265.884 4.79801 1.09782 0
M  V30 2826 N 267.536 -0.106894 1.57237 0
M  V30 2827 C 268.446 -1.14911 2.0453 0
M  V30 2828 C 269.462 -1.44592 0.96795 0
M  V30 2829 O 270.638 -1.55468 1.2803 0
M  V30 2830 C 267.703 -2.45272 2.45036 0
M  V30 2831 C 266.764 -2.22879 3.66911 0
M  V30 2832 C 265.997 -3.47024 4.05475 0
M  V30 2833 O 266.22 -4.54804 3.44252 0
M  V30 2834 O 265.154 -3.3731 4.98504 0
M  V30 2835 H 268.98 -0.777461 2.9358 0
M  V30 2836 H 266.565 -0.318563 1.45964 0
M  V30 2837 H 268.447 -3.22055 2.71769 0
M  V30 2838 H 267.122 -2.81886 1.59129 0
M  V30 2839 H 266.029 -1.43915 3.45311 0
M  V30 2840 H 267.362 -1.91163 4.53561 0
M  V30 2841 N 269.014 -1.53014 -0.377408 0
M  V30 2842 C 270.242 -1.72515 -1.14219 0
M  V30 2843 C 270.657 -0.448735 -1.8339 0
M  V30 2844 O 270.014 0.577592 -1.73119 0
M  V30 2845 C 270.065 -2.8826 -2.18148 0
M  V30 2846 O 269.786 -4.10962 -1.51795 0
M  V30 2847 C 271.287 -3.19536 -3.07264 0
M  V30 2848 H 268.507 -0.577301 -0.342001 0
M  V30 2849 H 271.051 -1.99712 -0.439935 0
M  V30 2850 H 269.206 -2.63492 -2.83991 0
M  V30 2851 H 269.62 -4.75693 -2.20945 0
M  V30 2852 H 271.094 -4.03959 -3.76193 0
M  V30 2853 H 271.571 -2.34403 -3.71419 0
M  V30 2854 H 272.177 -3.46186 -2.47053 0
M  V30 2855 N 270.492 0.636531 -1.44174 0
M  V30 2856 C 271.439 1.74875 -1.50624 0
M  V30 2857 C 272.409 1.62275 -0.35442 0
M  V30 2858 O 273.594 1.82276 -0.563908 0
M  V30 2859 C 270.734 3.13102 -1.45125 0
M  V30 2860 C 269.847 3.36717 -2.7064 0
M  V30 2861 C 268.982 4.64885 -2.57013 0
M  V30 2862 C 268.021 4.8166 -3.77717 0
M  V30 2863 N 267.158 6.01101 -3.62798 0
M  V30 2864 H 271.998 1.68697 -2.45653 0
M  V30 2865 H 269.535 0.823004 -1.21922 0
M  V30 2866 H 271.493 3.93034 -1.39929 0
M  V30 2867 H 270.123 3.18308 -0.536671 0
M  V30 2868 H 269.175 2.50763 -2.86046 0
M  V30 2869 H 270.487 3.44993 -3.60252 0
M  V30 2870 H 269.641 5.52969 -2.49619 0
M  V30 2871 H 268.38 4.58957 -1.64953 0
M  V30 2872 H 267.385 3.92007 -3.85501 0
M  V30 2873 H 268.61 4.89406 -4.70807 0
M  V30 2874 H 266.556 5.96273 -2.73486 0
M  V30 2875 H 266.473 6.10409 -4.46023 0
M  V30 2876 H 267.741 6.91761 -3.59286 0
M  V30 2877 N 271.97 1.30982 0.876444 0
M  V30 2878 C 272.933 1.18054 1.96459 0
M  V30 2879 C 273.933 0.109399 1.60427 0
M  V30 2880 O 275.123 0.358173 1.70478 0
M  V30 2881 C 272.255 0.810616 3.31122 0
M  V30 2882 H 273.448 2.14735 2.09354 0
M  V30 2883 H 271.001 1.145 1.06392 0
M  V30 2884 H 271.736 -0.155322 3.23928 0
M  V30 2885 H 271.521 1.58481 3.58645 0
M  V30 2886 H 273.011 0.743876 4.10921 0
M  V30 2887 N 273.449 -1.08991 1.13837 0
M  V30 2888 C 274.412 -2.13925 0.822715 0
M  V30 2889 C 275.412 -1.599 -0.1699 0
M  V30 2890 O 276.602 -1.74104 0.0577251 0
M  V30 2891 C 273.734 -3.40155 0.225318 0
M  V30 2892 H 274.927 -2.43358 1.75262 0
M  V30 2893 H 272.48 -1.24603 0.943594 0
M  V30 2894 H 273.215 -3.16352 -0.713594 0
M  V30 2895 H 273 -3.80661 0.940193 0
M  V30 2896 H 274.49 -4.17594 0.0214784 0
M  V30 2897 N 274.927 -0.932562 -1.27047 0
M  V30 2898 C 276.157 -0.591173 -1.97961 0
M  V30 2899 C 276.565 0.836219 -1.69717 0
M  V30 2900 O 275.908 1.56801 -0.957036 0
M  V30 2901 C 275.97 -0.743082 -3.51736 0
M  V30 2902 C 275.634 -2.1435 -4.03613 0
M  V30 2903 C 276.631 -3.11815 -4.16014 0
M  V30 2904 C 274.316 -2.46175 -4.37839 0
M  V30 2905 C 276.31 -4.39211 -4.61923 0
M  V30 2906 C 273.997 -3.73806 -4.83438 0
M  V30 2907 C 274.995 -4.70137 -4.95439 0
M  V30 2908 O 274.683 -5.95496 -5.40037 0
M  V30 2909 H 274.415 -0.222375 -0.638377 0
M  V30 2910 H 276.969 -1.25317 -1.62742 0
M  V30 2911 H 275.199 -0.0239739 -3.86693 0
M  V30 2912 H 276.888 -0.40603 -4.03864 0
M  V30 2913 H 277.654 -2.88549 -3.89826 0
M  V30 2914 H 273.533 -1.71936 -4.27737 0
M  V30 2915 H 277.077 -5.14404 -4.71205 0
M  V30 2916 H 272.974 -3.96888 -5.09068 0
M  V30 2917 H 273.742 -5.98554 -5.58279 0
M  V30 2918 N 276.405 1.4127 -0.698611 0
M  V30 2919 C 277.338 2.28195 0.0153898 0
M  V30 2920 C 278.316 1.42402 0.784883 0
M  V30 2921 O 279.5 1.71828 0.775067 0
M  V30 2922 C 276.627 3.22685 1.02918 0
M  V30 2923 C 275.673 4.25041 0.352501 0
M  V30 2924 S 276.506 5.27757 -0.907322 0
M  V30 2925 C 277.662 6.25812 0.104796 0
M  V30 2926 H 277.895 2.88403 -0.721858 0
M  V30 2927 H 275.428 1.46452 -0.488996 0
M  V30 2928 H 277.386 3.77655 1.60893 0
M  V30 2929 H 276.047 2.61566 1.73902 0
M  V30 2930 H 275.24 4.91437 1.11828 0
M  V30 2931 H 274.842 3.73682 -0.154254 0
M  V30 2932 H 277.134 6.70705 0.957103 0
M  V30 2933 H 278.077 7.06149 -0.525323 0
M  V30 2934 H 278.485 5.62615 0.460931 0
M  V30 2935 N 277.883 0.443576 1.51229 0
M  V30 2936 C 278.83 -0.364716 2.279 0
M  V30 2937 C 279.8 -1.0114 1.31757 0
M  V30 2938 O 280.985 -1.02912 1.60667 0
M  V30 2939 C 278.125 -1.45644 3.12861 0
M  V30 2940 C 277.238 -0.827269 4.24005 0
M  V30 2941 C 276.373 -1.89456 4.96266 0
M  V30 2942 C 275.412 -1.24416 5.99322 0
M  V30 2943 N 274.549 -2.25309 6.64966 0
M  V30 2944 H 279.389 0.295464 2.96532 0
M  V30 2945 H 276.926 0.157554 1.46254 0
M  V30 2946 H 278.884 -2.10076 3.6045 0
M  V30 2947 H 277.514 -2.08616 2.46331 0
M  V30 2948 H 276.566 -0.0710839 3.80334 0
M  V30 2949 H 277.878 -0.312481 4.9782 0
M  V30 2950 H 277.032 -2.61535 5.47434 0
M  V30 2951 H 275.771 -2.4431 4.22095 0
M  V30 2952 H 274.776 -0.508868 5.4744 0
M  V30 2953 H 276.001 -0.702882 6.75453 0
M  V30 2954 H 273.947 -2.79231 5.93604 0
M  V30 2955 H 273.864 -1.78739 7.34567 0
M  V30 2956 H 275.132 -2.96853 7.20763 0
M  V30 2957 N 279.361 -1.56624 0.175154 0
M  V30 2958 C 280.638 -1.88688 -0.515373 0
M  V30 2959 C 281.018 -1.08564 -1.81044 0
M  V30 2960 O 280.366 -0.180703 -2.27784 0
M  V30 2961 C 280.576 -3.40768 -0.753552 0
M  V30 2962 C 281.924 -4.10587 -1.08184 0
M  V30 2963 O 282.948 -3.46106 -0.841961 0
M  V30 2964 O 281.807 -5.24512 -1.53459 0
M  V30 2965 H 278.901 -0.78301 -0.26613 0
M  V30 2966 H 281.447 -1.68347 0.213877 0
M  V30 2967 H 280.219 -3.90965 0.161829 0
M  V30 2968 H 279.842 -3.66733 -1.53598 0
M  V30 2969 N 280.839 0.0985539 -1.57292 0
M  V30 2970 C 281.786 1.11981 -2.01814 0
M  V30 2971 C 282.756 1.39999 -0.89384 0
M  V30 2972 O 283.941 1.5152 -1.15958 0
M  V30 2973 C 281.081 2.43577 -2.44467 0
M  V30 2974 C 280.194 2.2232 -3.70402 0
M  V30 2975 C 279.329 3.4729 -4.01949 0
M  V30 2976 C 278.368 3.2128 -5.21005 0
M  V30 2977 N 277.505 4.38507 -5.48321 0
M  V30 2978 H 282.345 0.733149 -2.88841 0
M  V30 2979 H 279.882 0.350482 -1.42864 0
M  V30 2980 H 281.84 3.20373 -2.6724 0
M  V30 2981 H 280.47 2.80097 -1.60455 0
M  V30 2982 H 279.522 1.36343 -3.55126 0
M  V30 2983 H 280.834 1.99089 -4.57345 0
M  V30 2984 H 279.988 4.32495 -4.25479 0
M  V30 2985 H 278.727 3.73572 -3.13521 0
M  V30 2986 H 277.732 2.34468 -4.97298 0
M  V30 2987 H 278.957 2.96348 -6.11028 0
M  V30 2988 H 276.903 4.64871 -4.62851 0
M  V30 2989 H 276.82 4.18455 -6.29628 0
M  V30 2990 H 278.088 5.24787 -5.76385 0
M  V30 2991 N 282.317 1.53212 0.369288 0
M  V30 2992 C 283.733 1.42902 0.710712 0
M  V30 2993 C 283.933 0.565135 1.93413 0
M  V30 2994 O 282.989 0.0461484 2.52458 0
M  V30 2995 C 284.302 2.86042 0.927382 0
M  V30 2996 C 285.85 2.9565 1.02762 0
M  V30 2997 C 286.325 4.39843 1.27679 0
M  V30 2998 N 287.816 4.43256 1.34457 0
M  V30 2999 C 288.551 5.51929 1.55439 0
M  V30 3000 N 288.047 6.70655 1.73762 0
M  V30 3001 N 289.84 5.39502 1.57779 0
M  V30 3002 H 281.991 2.07888 -0.435457 0
M  V30 3003 H 284.254 0.938661 -0.132739 0
M  V30 3004 H 283.96 3.51557 0.100287 0
M  V30 3005 H 283.834 3.29472 1.83653 0
M  V30 3006 H 286.221 2.30291 1.84527 0
M  V30 3007 H 286.302 2.5562 0.0959504 0
M  V30 3008 H 285.946 5.05774 0.464175 0
M  V30 3009 H 285.876 4.77443 2.22162 0
M  V30 3010 H 288.367 3.5769 1.21926 0
M  V30 3011 H 288.68 7.49248 1.89335 0
M  V30 3012 H 287.025 6.73648 1.70948 0
M  V30 3013 H 290.216 4.45713 1.43029 0
M  V30 3014 H 290.389 6.2426 1.7379 0
M  V30 3015 N 283.795 -0.628877 1.44509 0
M  V30 3016 C 284.725 -1.75187 1.54376 0
M  V30 3017 C 285.706 -1.65411 0.396618 0
M  V30 3018 O 286.891 -1.84137 0.617031 0
M  V30 3019 C 284.021 -3.13725 1.48976 0
M  V30 3020 C 282.975 -3.38291 2.62189 0
M  V30 3021 C 282.301 -4.76883 2.41841 0
M  V30 3022 C 283.601 -3.30632 4.04326 0
M  V30 3023 H 285.295 -1.67187 2.48373 0
M  V30 3024 H 282.841 -0.802909 1.19538 0
M  V30 3025 H 284.794 -3.92064 1.54478 0
M  V30 3026 H 283.518 -3.22515 0.514961 0
M  V30 3027 H 282.177 -2.62334 2.56079 0
M  V30 3028 H 281.825 -4.82378 1.42548 0
M  V30 3029 H 281.525 -4.94278 3.17747 0
M  V30 3030 H 283.049 -5.57449 2.49165 0
M  V30 3031 H 284.463 -3.98873 4.11793 0
M  V30 3032 H 282.86 -3.59561 4.80454 0
M  V30 3033 H 283.93 -2.28404 4.27738 0
M  V30 3034 N 285.273 -1.31445 -0.869486 0
M  V30 3035 C 286.221 -1.19067 -1.99814 0
M  V30 3036 C 287.215 -0.0988569 -1.69111 0
M  V30 3037 O 288.421 -0.260781 -1.78101 0
M  V30 3038 H 284.796 -0.368677 -0.655425 0
M  V30 3039 H 286.767 -2.14555 -2.07385 0
M  V30 3040 C 285.516 -0.915323 -3.35436 0
M  V30 3041 H 284.839 -1.74759 -3.59582 0
M  V30 3042 H 286.279 -0.868895 -4.15001 0
M  V30 3043 C 284.738 0.381928 -3.34728 0
M  V30 3044 O 285.268 1.39857 -3.76567 0
M  V30 3045 N 283.474 0.398633 -2.87853 0
M  V30 3046 H 283.021 -0.429186 -2.54 0
M  V30 3047 H 282.979 1.26651 -2.87762 0
M  V30 3048 N 286.751 1.08385 -1.14413 0
M  V30 3049 C 288.162 1.62258 -0.923535 0
M  V30 3050 C 288.513 1.88691 0.537595 0
M  V30 3051 O 287.638 1.64454 1.40655 0
M  V30 3052 C 288.233 2.94781 -1.67002 0
M  V30 3053 C 286.792 3.45437 -1.495 0
M  V30 3054 C 285.939 2.19668 -1.69238 0
M  V30 3055 H 288.89 0.916086 -1.2959 0
M  V30 3056 H 288.911 3.63229 -1.13334 0
M  V30 3057 H 288.423 2.7551 -2.73342 0
M  V30 3058 H 286.524 3.6981 -0.455097 0
M  V30 3059 H 286.637 4.22173 -2.2651 0
M  V30 3060 H 285.001 2.28849 -1.11804 0
M  V30 3061 H 285.784 2.02905 -2.7692 0
M  V30 3062 N 288.23 0.939286 1.26551 0
M  V30 3063 C 289.14 0.453432 2.30176 0
M  V30 3064 C 290.156 -0.471649 1.67486 0
M  V30 3065 O 291.332 -0.35164 1.98306 0
M  V30 3066 C 288.397 -0.275326 3.45605 0
M  V30 3067 C 287.458 0.686084 4.23782 0
M  V30 3068 C 286.691 -0.00798994 5.33699 0
M  V30 3069 O 286.914 -1.22528 5.57085 0
M  V30 3070 O 285.848 0.669746 5.98162 0
M  V30 3071 H 289.674 1.31416 2.73795 0
M  V30 3072 H 287.259 0.705095 1.31715 0
M  V30 3073 H 289.141 -0.685911 4.1578 0
M  V30 3074 H 287.816 -1.11147 3.0402 0
M  V30 3075 H 286.723 1.14658 3.56096 0
M  V30 3076 H 288.056 1.48979 4.69112 0
M  V30 3077 N 289.708 -1.40897 0.706093 0
M  V30 3078 C 290.933 -2.05895 0.249435 0
M  V30 3079 C 291.358 -1.52823 -1.09666 0
M  V30 3080 O 290.716 -0.659589 -1.68876 0
M  V30 3081 C 290.764 -3.59872 0.22904 0
M  V30 3082 O 289.868 -4.04708 -0.792784 0
M  V30 3083 H 289.209 -0.653206 0.119241 0
M  V30 3084 H 291.739 -1.80471 0.96391 0
M  V30 3085 H 291.749 -4.07951 0.0634791 0
M  V30 3086 H 290.424 -3.97866 1.21141 0
M  V30 3087 H 289.001 -3.68111 -0.59572 0
M  V30 3088 N 291.186 -0.45159 -1.50991 0
M  V30 3089 C 292.432 0.110237 -2.025 0
M  V30 3090 C 292.765 1.41109 -1.33424 0
M  V30 3091 O 292.04 1.89135 -0.453659 0
M  V30 3092 C 292.323 0.314271 -3.58726 0
M  V30 3093 C 292.176 -1.00623 -4.38401 0
M  V30 3094 C 293.495 1.07767 -4.26702 0
M  V30 3095 H 290.614 0.0385897 -0.735989 0
M  V30 3096 H 293.256 -0.593374 -1.80497 0
M  V30 3097 H 291.406 0.913601 -3.77605 0
M  V30 3098 H 293.078 -1.64064 -4.31139 0
M  V30 3099 H 291.321 -1.6075 -4.02917 0
M  V30 3100 H 291.992 -0.817341 -5.45915 0
M  V30 3101 H 294.468 0.56986 -4.12179 0
M  V30 3102 H 293.344 1.18921 -5.35863 0
M  V30 3103 H 293.605 2.10939 -3.88532 0
M  V30 3104 N 292.664 1.56529 -0.183458 0
M  V30 3105 C 293.574 2.22144 0.754272 0
M  V30 3106 C 294.59 1.21684 1.24374 0
M  V30 3107 O 295.766 1.54385 1.29333 0
M  V30 3108 C 292.831 2.85884 1.96141 0
M  V30 3109 C 291.892 4.01579 1.51765 0
M  V30 3110 C 291.125 4.6227 2.66725 0
M  V30 3111 O 291.348 4.21865 3.83909 0
M  V30 3112 O 290.282 5.51936 2.40104 0
M  V30 3113 H 294.108 3.02861 0.225527 0
M  V30 3114 H 291.693 1.49331 0.0453032 0
M  V30 3115 H 293.575 3.26253 2.66715 0
M  V30 3116 H 292.25 2.08154 2.47899 0
M  V30 3117 H 291.157 3.65856 0.781049 0
M  V30 3118 H 292.49 4.80938 1.04686 0
M  V30 3119 N 294.142 -0.090211 1.57342 0
M  V30 3120 C 295.089 -1.10909 2.02405 0
M  V30 3121 C 296.059 -1.39523 0.901252 0
M  V30 3122 O 297.244 -1.50903 1.1676 0
M  V30 3123 C 294.384 -2.42277 2.45755 0
M  V30 3124 C 293.497 -2.20352 3.71576 0
M  V30 3125 C 292.632 -3.45154 4.03785 0
M  V30 3126 C 291.671 -3.18512 5.22701 0
M  V30 3127 N 290.808 -4.35593 5.50639 0
M  V30 3128 H 295.648 -0.71782 2.89225 0
M  V30 3129 H 293.185 -0.342901 1.43048 0
M  V30 3130 H 295.143 -3.18951 2.68935 0
M  V30 3131 H 293.773 -2.79242 1.61938 0
M  V30 3132 H 292.825 -1.34458 3.55844 0
M  V30 3133 H 294.137 -1.96661 4.58395 0
M  V30 3134 H 293.291 -4.30233 4.27767 0
M  V30 3135 H 292.03 -3.71904 3.15498 0
M  V30 3136 H 291.035 -2.31827 4.98534 0
M  V30 3137 H 292.26 -2.93103 6.12591 0
M  V30 3138 H 290.206 -4.6241 4.6531 0
M  V30 3139 H 290.123 -4.1511 6.31838 0
M  V30 3140 H 291.391 -5.21723 5.7916 0
M  V30 3141 N 295.62 -1.53406 -0.361157 0
M  V30 3142 C 296.868 -1.69467 -1.10115 0
M  V30 3143 C 297.189 -0.451352 -1.89705 0
M  V30 3144 O 296.459 0.534636 -1.88463 0
M  V30 3145 H 295.039 -0.624749 -0.409508 0
M  V30 3146 H 297.701 -1.90609 -0.406699 0
M  V30 3147 H 296.797 -2.55774 -1.78847 0
M  V30 3148 N 297.098 0.621204 -1.44841 0
M  V30 3149 C 298.514 0.94048 -1.28946 0
M  V30 3150 C 298.714 2.00154 -0.23249 0
M  V30 3151 O 297.77 2.49651 0.378237 0
M  V30 3152 C 299.083 1.39433 -2.66419 0
M  V30 3153 C 300.631 1.50927 -2.74208 0
M  V30 3154 C 301.106 1.99692 -4.12174 0
M  V30 3155 N 302.597 2.06947 -4.144 0
M  V30 3156 C 303.332 2.45871 -5.1801 0
M  V30 3157 N 302.828 2.83862 -6.31977 0
M  V30 3158 N 304.621 2.46092 -5.05366 0
M  V30 3159 H 296.772 -0.0803548 -2.12248 0
M  V30 3160 H 299.035 0.0266913 -0.947624 0
M  V30 3161 H 298.741 0.688925 -3.44887 0
M  V30 3162 H 298.615 2.36347 -2.93973 0
M  V30 3163 H 301.002 2.20561 -1.96053 0
M  V30 3164 H 301.083 0.523627 -2.50383 0
M  V30 3165 H 300.727 1.30649 -4.90809 0
M  V30 3166 H 300.657 2.99146 -4.33381 0
M  V30 3167 H 303.148 1.80232 -3.32152 0
M  V30 3168 H 303.461 3.12405 -7.0684 0
M  V30 3169 H 301.806 2.8159 -6.35399 0
M  V30 3170 H 304.997 2.1581 -4.15384 0
M  V30 3171 H 305.17 2.76102 -5.86235 0
M  V30 3172 N 298.576 1.31904 0.862503 0
M  V30 3173 C 299.524 1.20125 1.9918 0
M  V30 3174 C 300.518 0.107824 1.69056 0
M  V30 3175 O 301.724 0.270223 1.7796 0
M  V30 3176 H 298.099 0.372148 0.65346 0
M  V30 3177 H 300.07 2.15652 2.06244 0
M  V30 3178 C 298.819 0.933099 3.34946 0
M  V30 3179 H 298.142 1.76664 3.5865 0
M  V30 3180 H 299.582 0.890892 4.14535 0
M  V30 3181 C 298.041 -0.364172 3.34926 0
M  V30 3182 O 298.571 -1.37858 3.77304 0
M  V30 3183 N 296.777 -0.383362 2.8806 0
M  V30 3184 H 296.324 0.442651 2.53768 0
M  V30 3185 H 296.282 -1.25123 2.8843 0
M  V30 3186 N 300.054 -1.07777 1.14986 0
M  V30 3187 C 301.465 -1.61766 0.932127 0
M  V30 3188 C 301.816 -1.88974 -0.527581 0
M  V30 3189 O 300.941 -1.65198 -1.39781 0
M  V30 3190 C 301.536 -2.93891 1.68563 0
M  V30 3191 C 300.095 -3.44639 1.5133 0
M  V30 3192 C 299.242 -2.18767 1.704 0
M  V30 3193 H 302.193 -0.909201 1.30074 0
M  V30 3194 H 302.214 -3.62623 1.15259 0
M  V30 3195 H 301.726 -2.74057 2.74799 0
M  V30 3196 H 299.827 -3.69564 0.474702 0
M  V30 3197 H 299.94 -4.20966 2.28746 0
M  V30 3198 H 298.304 -2.28253 1.13016 0
M  V30 3199 H 299.087 -2.01433 2.77992 0
M  V30 3200 N 301.532 -0.945985 -1.26051 0
M  V30 3201 C 302.76 -0.613025 -1.9761 0
M  V30 3202 C 303.175 0.813035 -1.70397 0
M  V30 3203 O 302.532 1.54274 -0.974979 0
M  V30 3204 C 302.583 -0.85159 -3.51326 0
M  V30 3205 O 302.304 -2.22157 -3.77595 0
M  V30 3206 C 303.805 -0.529831 -4.40122 0
M  V30 3207 H 301.025 -0.230593 -0.630133 0
M  V30 3208 H 303.569 -1.268 -1.60443 0
M  V30 3209 H 301.724 -0.243151 -3.86636 0
M  V30 3210 H 302.138 -2.2852 -4.721 0
M  V30 3211 H 303.612 -0.747348 -5.46917 0
M  V30 3212 H 304.089 0.535341 -4.35925 0
M  V30 3213 H 304.695 -1.11721 -4.10364 0
M  V30 3214 N 303.011 1.40521 -0.713556 0
M  V30 3215 C 303.959 2.32549 -0.0485227 0
M  V30 3216 C 304.953 1.51931 0.74922 0
M  V30 3217 O 306.159 1.67745 0.652816 0
M  V30 3218 H 302.534 0.751994 0.00311138 0
M  V30 3219 H 304.505 2.86291 -0.841443 0
M  V30 3220 C 303.254 3.36879 0.860687 0
M  V30 3221 H 302.577 3.98978 0.256246 0
M  V30 3222 H 304.017 4.03772 1.294 0
M  V30 3223 C 302.476 2.72197 1.9852 0
M  V30 3224 O 303.006 2.5837 3.07584 0
M  V30 3225 N 301.212 2.30612 1.76823 0
M  V30 3226 H 300.759 2.42059 0.881217 0
M  V30 3227 H 300.717 1.87672 2.52243 0
M  V30 3228 N 304.489 0.459591 1.5075 0
M  V30 3229 C 305.735 -0.0994966 2.02556 0
M  V30 3230 C 306.068 -1.40399 1.3417 0
M  V30 3231 O 305.343 -1.88892 0.463683 0
M  V30 3232 C 305.626 -0.295242 3.58888 0
M  V30 3233 C 305.479 1.02947 4.37861 0
M  V30 3234 C 306.798 -1.05502 4.27267 0
M  V30 3235 H 303.917 -0.034686 0.736183 0
M  V30 3236 H 306.559 0.602938 1.8018 0
M  V30 3237 H 304.709 -0.893563 3.78084 0
M  V30 3238 H 306.381 1.66348 4.30263 0
M  V30 3239 H 304.624 1.62885 4.02058 0
M  V30 3240 H 305.295 0.846281 5.45474 0
M  V30 3241 H 307.771 -0.547993 4.12476 0
M  V30 3242 H 306.647 -1.16077 5.36486 0
M  V30 3243 H 306.908 -2.08875 3.89645 0
M  V30 3244 N 305.967 -1.56429 0.191757 0
M  V30 3245 C 307.213 -1.98541 -0.441943 0
M  V30 3246 C 307.568 -1.07646 -1.59468 0
M  V30 3247 O 306.861 -0.120191 -1.91223 0
M  V30 3248 C 307.055 -3.44449 -0.953384 0
M  V30 3249 C 306.884 -4.49456 0.148262 0
M  V30 3250 C 305.654 -5.01668 0.604781 0
M  V30 3251 C 307.852 -5.05336 0.95602 0
M  V30 3252 N 305.834 -5.90334 1.6846 0
M  V30 3253 C 307.205 -5.9064 1.88531 0
M  V30 3254 C 309.26 -4.87779 0.998811 0
M  V30 3255 C 307.963 -6.60264 2.85383 0
M  V30 3256 C 309.989 -5.58139 1.95537 0
M  V30 3257 C 309.351 -6.43187 2.8721 0
M  V30 3258 H 305.45 -0.771247 -0.129236 0
M  V30 3259 H 308.034 -1.92426 0.296682 0
M  V30 3260 H 306.205 -3.5107 -1.66146 0
M  V30 3261 H 307.937 -3.73533 -1.55741 0
M  V30 3262 H 304.692 -4.73183 0.198736 0
M  V30 3263 H 305.116 -6.39371 2.22561 0
M  V30 3264 H 309.758 -4.21705 0.304048 0
M  V30 3265 H 307.476 -7.25538 3.55837 0
M  V30 3266 H 311.062 -5.46532 1.99484 0
M  V30 3267 H 309.942 -6.96674 3.60022 0
M  V30 3268 N 307.445 0.0818655 -1.57387 0
M  V30 3269 C 308.861 0.436412 -1.53517 0
M  V30 3270 C 309.061 1.79758 -0.910459 0
M  V30 3271 O 308.117 2.47324 -0.508636 0
M  V30 3272 C 309.43 0.386734 -2.98203 0
M  V30 3273 C 310.978 0.467644 -3.09487 0
M  V30 3274 C 311.453 0.447978 -4.55804 0
M  V30 3275 N 312.944 0.508348 -4.60402 0
M  V30 3276 C 313.679 0.515184 -5.71081 0
M  V30 3277 N 313.175 0.477435 -6.91153 0
M  V30 3278 N 314.968 0.560988 -5.59294 0
M  V30 3279 H 307.119 -0.809546 -1.96367 0
M  V30 3280 H 309.382 -0.302733 -0.898363 0
M  V30 3281 H 309.088 -0.546539 -3.47427 0
M  V30 3282 H 308.962 1.20075 -3.57578 0
M  V30 3283 H 311.349 1.39134 -2.60242 0
M  V30 3284 H 311.43 -0.374753 -2.5304 0
M  V30 3285 H 311.074 -0.471826 -5.05704 0
M  V30 3286 H 311.004 1.30777 -5.10103 0
M  V30 3287 H 313.495 0.54218 -3.7399 0
M  V30 3288 H 313.808 0.486299 -7.71268 0
M  V30 3289 H 312.153 0.444278 -6.93579 0
M  V30 3290 H 315.344 0.5881 -4.64391 0
M  V30 3291 H 315.517 0.562846 -6.45551 0
M  V30 3292 N 308.923 1.53595 0.353017 0
M  V30 3293 C 309.856 1.7572 1.45594 0
M  V30 3294 C 310.834 0.605961 1.50887 0
M  V30 3295 O 312.018 0.840023 1.68748 0
M  V30 3296 C 309.145 1.84732 2.83887 0
M  V30 3297 C 308.191 3.06808 2.96262 0
M  V30 3298 S 309.024 4.66065 2.63711 0
M  V30 3299 C 310.18 4.77943 4.04131 0
M  V30 3300 H 310.413 2.68994 1.26608 0
M  V30 3301 H 307.946 1.44343 0.548117 0
M  V30 3302 H 309.904 1.9061 3.63563 0
M  V30 3303 H 308.565 0.92488 3.00175 0
M  V30 3304 H 307.758 3.09761 3.97573 0
M  V30 3305 H 307.36 2.99108 2.24523 0
M  V30 3306 H 309.652 4.5877 4.98534 0
M  V30 3307 H 310.595 5.80022 4.06177 0
M  V30 3308 H 311.003 4.06472 3.91715 0
M  V30 3309 N 310.401 -0.613514 1.45168 0
M  V30 3310 C 311.626 -1.40437 1.52618 0
M  V30 3311 C 312.051 -1.87438 0.157707 0
M  V30 3312 O 311.409 -1.59791 -0.856537 0
M  V30 3313 C 311.457 -2.58894 2.51011 0
M  V30 3314 O 310.561 -3.59326 2.02382 0
M  V30 3315 H 309.902 -0.419506 0.514695 0
M  V30 3316 H 312.432 -0.747215 1.90467 0
M  V30 3317 H 312.442 -3.06214 2.69624 0
M  V30 3318 H 311.117 -2.24032 3.50403 0
M  V30 3319 H 309.694 -3.18695 1.93618 0
M  V30 3320 N 311.879 -1.3236 -0.855495 0
M  V30 3321 C 313.295 -1.11332 -1.14356 0
M  V30 3322 C 313.495 0.106751 -2.01217 0
M  V30 3323 O 312.551 0.791891 -2.39761 0
M  V30 3324 C 313.864 -2.39237 -1.82171 0
M  V30 3325 C 315.412 -2.44986 -1.9481 0
M  V30 3326 C 315.887 -3.7281 -2.66039 0
M  V30 3327 N 317.378 -3.73787 -2.73565 0
M  V30 3328 C 318.113 -4.69394 -3.29327 0
M  V30 3329 N 317.609 -5.75367 -3.85907 0
M  V30 3330 N 319.402 -4.56893 -3.27423 0
M  V30 3331 H 311.553 -2.10586 -0.277027 0
M  V30 3332 H 313.816 -0.929701 -0.185364 0
M  V30 3333 H 313.522 -3.28431 -1.25802 0
M  V30 3334 H 313.396 -2.50134 -2.82335 0
M  V30 3335 H 315.783 -1.56252 -2.50338 0
M  V30 3336 H 315.864 -2.38043 -0.936448 0
M  V30 3337 H 315.508 -4.61918 -2.11174 0
M  V30 3338 H 315.438 -3.77024 -3.67642 0
M  V30 3339 H 317.929 -2.97189 -2.33424 0
M  V30 3340 H 318.242 -6.44378 -4.26611 0
M  V30 3341 H 316.587 -5.79123 -3.84242 0
M  V30 3342 H 319.778 -3.73269 -2.82467 0
M  V30 3343 H 319.951 -5.31577 -3.7058 0
M  V30 3344 N 313.357 1.07166 -1.15556 0
M  V30 3345 C 314.287 2.16403 -0.877046 0
M  V30 3346 C 315.268 1.69217 0.173111 0
M  V30 3347 O 316.453 1.94181 0.027084 0
M  V30 3348 C 313.583 3.45349 -0.367632 0
M  V30 3349 C 312.537 4.05995 -1.35468 0
M  V30 3350 C 311.863 5.30045 -0.704038 0
M  V30 3351 C 313.163 4.45804 -2.72132 0
M  V30 3352 H 314.857 2.39959 -1.79053 0
M  V30 3353 H 312.403 1.15325 -0.862331 0
M  V30 3354 H 314.356 4.21095 -0.160317 0
M  V30 3355 H 313.08 3.21385 0.581326 0
M  V30 3356 H 311.739 3.32296 -1.54839 0
M  V30 3357 H 311.387 5.02373 0.251128 0
M  V30 3358 H 311.087 5.71579 -1.36277 0
M  V30 3359 H 312.611 6.08495 -0.50654 0
M  V30 3360 H 314.025 5.12671 -2.56595 0
M  V30 3361 H 312.422 4.98296 -3.34397 0
M  V30 3362 H 313.492 3.57083 -3.28054 0
M  V30 3363 N 314.835 0.952656 1.25548 0
M  V30 3364 C 315.783 0.462354 2.27958 0
M  V30 3365 C 316.777 -0.46634 1.62855 0
M  V30 3366 O 317.983 -0.343287 1.76696 0
M  V30 3367 H 314.358 0.13101 0.7405 0
M  V30 3368 H 316.329 1.33839 2.66702 0
M  V30 3369 C 315.078 -0.24628 3.46827 0
M  V30 3370 H 314.401 0.459192 3.97154 0
M  V30 3371 H 315.841 -0.553393 4.20373 0
M  V30 3372 C 314.3 -1.4681 3.0323 0
M  V30 3373 O 314.83 -2.56591 3.09069 0
M  V30 3374 N 313.036 -1.32874 2.58443 0
M  V30 3375 H 312.583 -0.435536 2.53891 0
M  V30 3376 H 312.541 -2.14742 2.29637 0
M  V30 3377 N 316.313 -1.40141 0.720998 0
M  V30 3378 C 317.561 -2.0039 0.262323 0
M  V30 3379 C 317.882 -1.57469 -1.15015 0
M  V30 3380 O 317.152 -0.816582 -1.78069 0
M  V30 3381 H 315.732 -0.741063 0.093996 0
M  V30 3382 H 318.394 -1.71398 0.927835 0
M  V30 3383 H 317.49 -3.10658 0.299671 0
M  V30 3384 N 317.792 -0.46758 -1.50504 0
M  V30 3385 C 318.74 0.342482 -2.30065 0
M  V30 3386 C 319.734 0.993596 -1.37201 0
M  V30 3387 O 320.94 0.925102 -1.54408 0
M  V30 3388 H 317.315 0.129283 -0.740803 0
M  V30 3389 H 319.286 -0.34899 -2.96352 0
M  V30 3390 C 318.035 1.4139 -3.17654 0
M  V30 3391 H 317.358 0.922264 -3.89017 0
M  V30 3392 H 318.798 1.95335 -3.76325 0
M  V30 3393 C 317.257 2.4139 -2.35016 0
M  V30 3394 O 317.787 3.46586 -2.03079 0
M  V30 3395 N 315.993 2.13021 -1.97662 0
M  V30 3396 H 315.54 1.27499 -2.23834 0
M  V30 3397 H 315.498 2.80164 -1.42673 0
M  V30 3398 N 319.27 1.56325 -0.20005 0
M  V30 3399 C 320.495 2.02548 0.44597 0
M  V30 3400 C 320.92 1.07922 1.5406 0
M  V30 3401 O 320.278 0.0635775 1.81188 0
M  V30 3402 C 320.326 3.47175 0.974761 0
M  V30 3403 O 319.43 3.55671 2.08739 0
M  V30 3404 H 318.771 0.655862 0.103638 0
M  V30 3405 H 321.301 2.02201 -0.312381 0
M  V30 3406 H 321.311 3.87067 1.2901 0
M  V30 3407 H 319.986 4.15538 0.17347 0
M  V30 3408 H 318.563 3.27657 1.78032 0
M  V30 3409 N 320.748 -0.0735177 1.57428 0
M  V30 3410 C 321.678 -1.0879 2.06608 0
M  V30 3411 C 322.659 -1.40473 0.959237 0
M  V30 3412 O 323.844 -1.5013 1.23185 0
M  V30 3413 C 320.974 -2.40183 2.50857 0
M  V30 3414 C 319.928 -2.22858 3.65402 0
M  V30 3415 C 319.254 -3.59619 3.957 0
M  V30 3416 C 320.554 -1.65123 4.95511 0
M  V30 3417 H 322.248 -0.678673 2.91607 0
M  V30 3418 H 319.794 -0.325013 1.40284 0
M  V30 3419 H 321.747 -3.11437 2.83874 0
M  V30 3420 H 320.471 -2.83083 1.62885 0
M  V30 3421 H 319.13 -1.54045 3.32664 0
M  V30 3422 H 318.778 -4.00086 3.04861 0
M  V30 3423 H 318.478 -3.48866 4.72828 0
M  V30 3424 H 320.002 -4.32306 4.31212 0
M  V30 3425 H 321.416 -2.26241 5.26771 0
M  V30 3426 H 319.813 -1.65071 5.7695 0
M  V30 3427 H 320.883 -0.612559 4.81015 0
M  V30 3428 N 322.226 -1.5378 -0.344866 0
M  V30 3429 C 323.136 -1.84667 -1.4469 0
M  V30 3430 C 324.152 -0.736704 -1.57635 0
M  V30 3431 O 325.328 -1.02888 -1.73136 0
M  V30 3432 C 322.393 -2.04869 -2.79696 0
M  V30 3433 C 321.454 -3.28731 -2.76106 0
M  V30 3434 C 320.687 -3.4796 -4.04673 0
M  V30 3435 O 320.91 -2.71052 -5.01883 0
M  V30 3436 O 319.844 -4.41383 -4.09224 0
M  V30 3437 H 323.67 -2.78334 -1.21506 0
M  V30 3438 H 321.255 -1.39418 -0.536921 0
M  V30 3439 H 323.137 -2.19609 -3.59652 0
M  V30 3440 H 321.812 -1.14391 -3.02814 0
M  V30 3441 H 320.719 -3.19396 -1.94774 0
M  V30 3442 H 322.052 -4.19198 -2.57941 0
M  V30 3443 N 323.704 0.605807 -1.45491 0
M  V30 3444 C 325.12 0.926751 -1.29936 0
M  V30 3445 C 325.32 1.99896 -0.253706 0
M  V30 3446 O 324.376 2.50038 0.351737 0
M  V30 3447 C 325.689 1.36599 -2.67883 0
M  V30 3448 C 327.237 1.4801 -2.75793 0
M  V30 3449 C 327.712 1.95309 -4.14268 0
M  V30 3450 N 329.203 2.0254 -4.16571 0
M  V30 3451 C 329.938 2.40363 -5.20589 0
M  V30 3452 N 329.434 2.77143 -6.34952 0
M  V30 3453 N 331.227 2.40718 -5.07948 0
M  V30 3454 H 323.378 -0.102862 -2.12151 0
M  V30 3455 H 325.641 0.016639 -0.947854 0
M  V30 3456 H 325.347 0.652306 -3.45598 0
M  V30 3457 H 325.221 2.33215 -2.96463 0
M  V30 3458 H 327.608 2.1847 -1.98381 0
M  V30 3459 H 327.689 0.497041 -2.50925 0
M  V30 3460 H 327.333 1.25436 -4.92167 0
M  V30 3461 H 327.263 2.94532 -4.3653 0
M  V30 3462 H 329.754 1.76699 -3.34045 0
M  V30 3463 H 330.067 3.0489 -7.10114 0
M  V30 3464 H 328.412 2.74834 -6.3835 0
M  V30 3465 H 331.603 2.11392 -4.1765 0
M  V30 3466 H 331.776 2.69869 -5.89131 0
M  V30 3467 N 325.182 1.32811 0.848464 0
M  V30 3468 C 326.428 1.23907 1.60546 0
M  V30 3469 C 326.761 -0.197161 1.93197 0
M  V30 3470 O 326.036 -1.13596 1.5788 0
M  V30 3471 C 326.319 2.10489 2.92175 0
M  V30 3472 C 326.172 3.62522 2.66266 0
M  V30 3473 C 327.491 1.97075 3.93509 0
M  V30 3474 H 324.61 0.451459 0.58254 0
M  V30 3475 H 327.252 1.62818 0.979296 0
M  V30 3476 H 325.402 1.77434 3.45614 0
M  V30 3477 H 327.074 4.05821 2.19334 0
M  V30 3478 H 325.317 3.84879 2.00126 0
M  V30 3479 H 325.988 4.18437 3.6002 0
M  V30 3480 H 328.464 2.26045 3.49346 0
M  V30 3481 H 327.34 2.59923 4.83457 0
M  V30 3482 H 327.601 0.940186 4.31987 0
M  V30 3483 N 326.66 -1.06551 1.16123 0
M  V30 3484 C 327.908 -1.78947 0.939267 0
M  V30 3485 C 328.229 -1.87532 -0.534476 0
M  V30 3486 O 327.499 -1.38211 -1.38833 0
M  V30 3487 H 326.079 -0.662807 0.344523 0
M  V30 3488 H 328.741 -1.28725 1.46342 0
M  V30 3489 H 327.837 -2.81117 1.35572 0
M  V30 3490 N 328.138 -0.959301 -1.25041 0
M  V30 3491 C 329.088 -0.453888 -2.23436 0
M  V30 3492 C 330.072 0.459461 -1.542 0
M  V30 3493 O 331.264 0.291752 -1.74579 0
M  V30 3494 C 328.393 0.262667 -3.42294 0
M  V30 3495 C 327.479 -0.669022 -4.1879 0
M  V30 3496 N 327.87 -1.80267 -4.72586 0
M  V30 3497 C 326.168 -0.47814 -4.4343 0
M  V30 3498 C 326.869 -2.38475 -5.3057 0
M  V30 3499 N 325.845 -1.67078 -5.17287 0
M  V30 3500 H 329.647 -1.319 -2.6264 0
M  V30 3501 H 327.161 -0.817358 -1.40332 0
M  V30 3502 H 329.158 0.641911 -4.11929 0
M  V30 3503 H 327.818 1.12432 -3.04613 0
M  V30 3504 H 328.829 -2.18442 -4.69578 0
M  V30 3505 H 325.506 0.340249 -4.16111 0
M  V30 3506 H 326.896 -3.34094 -5.8295 0
M  V30 3507 N 329.616 1.39756 -0.72842 0
M  V30 3508 C 331.027 1.83498 -0.344289 0
M  V30 3509 C 331.378 1.60868 1.12321 0
M  V30 3510 O 330.503 1.09634 1.86573 0
M  V30 3511 C 331.098 3.33114 -0.618112 0
M  V30 3512 C 329.657 3.753 -0.287549 0
M  V30 3513 C 328.804 2.62831 -0.884048 0
M  V30 3514 H 331.755 1.28842 -0.926578 0
M  V30 3515 H 331.776 3.80334 0.112349 0
M  V30 3516 H 331.288 3.49553 -1.68625 0
M  V30 3517 H 329.389 3.64451 0.775012 0
M  V30 3518 H 329.502 4.72945 -0.765512 0
M  V30 3519 H 327.866 2.52792 -0.311149 0
M  V30 3520 H 328.649 2.82078 -1.95671 0
M  V30 3521 N 331.094 0.475555 1.50254 0
M  V30 3522 C 332.322 -0.0754493 2.06762 0
M  V30 3523 C 332.737 -1.33111 1.33891 0
M  V30 3524 O 332.094 -1.77846 0.40952 0
M  V30 3525 C 332.145 -0.359008 3.59713 0
M  V30 3526 O 331.866 0.846851 4.29837 0
M  V30 3527 C 333.367 -0.956484 4.32858 0
M  V30 3528 H 330.587 0.00907525 0.670939 0
M  V30 3529 H 333.131 0.665618 1.93364 0
M  V30 3530 H 331.286 -1.05001 3.72899 0
M  V30 3531 H 331.7 0.594162 5.21124 0
M  V30 3532 H 333.174 -1.10463 5.40834 0
M  V30 3533 H 333.651 -1.94775 3.93649 0
M  V30 3534 H 334.257 -0.303723 4.24214 0
M  V30 3535 N 332.573 -1.56217 0.208337 0
M  V30 3536 C 333.505 -2.1695 -0.739276 0
M  V30 3537 C 334.518 -1.13492 -1.1672 0
M  V30 3538 O 335.707 -1.40529 -1.10063 0
M  V30 3539 C 332.807 -2.72755 -2.01142 0
M  V30 3540 C 331.98 -4.0125 -1.74118 0
M  V30 3541 C 331.039 -4.41749 -2.85909 0
M  V30 3542 O 330.065 -5.08912 -2.54946 0
M  V30 3543 N 331.267 -4.06342 -4.14568 0
M  V30 3544 H 334.032 -2.98893 -0.219837 0
M  V30 3545 H 331.593 -1.61878 0.0268445 0
M  V30 3546 H 333.585 -2.96826 -2.75094 0
M  V30 3547 H 332.155 -1.95191 -2.4417 0
M  V30 3548 H 331.375 -3.85173 -0.838775 0
M  V30 3549 H 332.663 -4.851 -1.53477 0
M  V30 3550 H 332.061 -3.52345 -4.42571 0
M  V30 3551 H 330.618 -4.35335 -4.85105 0
M  V30 3552 N 334.051 0.0651679 -1.57465 0
M  V30 3553 C 334.998 1.07675 -2.04144 0
M  V30 3554 C 335.968 1.38071 -0.923335 0
M  V30 3555 O 337.153 1.49026 -1.19146 0
M  V30 3556 C 334.293 2.38337 -2.49579 0
M  V30 3557 C 333.406 2.14413 -3.75035 0
M  V30 3558 C 332.541 3.38686 -4.09225 0
M  V30 3559 C 331.58 3.10156 -5.27702 0
M  V30 3560 N 330.717 4.26778 -5.57499 0
M  V30 3561 H 335.557 0.671716 -2.90331 0
M  V30 3562 H 333.094 0.3201 -1.43575 0
M  V30 3563 H 335.052 3.14632 -2.73975 0
M  V30 3564 H 333.682 2.7663 -1.6636 0
M  V30 3565 H 332.734 1.2878 -3.57939 0
M  V30 3566 H 334.046 1.89344 -4.61466 0
M  V30 3567 H 333.2 4.23373 -4.34558 0
M  V30 3568 H 331.939 3.66837 -3.21374 0
M  V30 3569 H 330.944 2.23866 -5.02159 0
M  V30 3570 H 332.169 2.8332 -6.17176 0
M  V30 3571 H 330.115 4.54948 -4.72608 0
M  V30 3572 H 330.032 4.05005 -6.38362 0
M  V30 3573 H 331.3 5.12443 -5.87386 0
M  V30 3574 N 335.529 1.53961 0.336706 0
M  V30 3575 C 336.94 1.62914 0.911925 0
M  V30 3576 C 337.291 0.514795 1.89326 0
M  V30 3577 O 336.416 -0.354395 2.13478 0
M  V30 3578 C 337.011 2.95304 1.66076 0
M  V30 3579 C 335.57 3.06496 2.18489 0
M  V30 3580 C 334.717 2.58403 1.00613 0
M  V30 3581 H 337.668 1.58285 0.114649 0
M  V30 3582 H 337.689 2.84727 2.5241 0
M  V30 3583 H 337.201 3.76387 0.946276 0
M  V30 3584 H 335.302 2.3006 2.93092 0
M  V30 3585 H 335.415 4.1208 2.44391 0
M  V30 3586 H 333.779 2.13977 1.38152 0
M  V30 3587 H 334.562 3.41932 0.306179 0
M  V30 3588 N 337.007 -0.598083 1.45811 0
M  V30 3589 C 337.97 -1.69018 1.54808 0
M  V30 3590 C 338.97 -1.55037 0.426652 0
M  V30 3591 O 340.16 -1.59932 0.690456 0
M  V30 3592 C 337.292 -3.0835 1.45371 0
M  V30 3593 H 338.485 -1.62403 2.52121 0
M  V30 3594 H 336.038 -0.814626 1.33392 0
M  V30 3595 H 336.773 -3.20534 0.492793 0
M  V30 3596 H 336.558 -3.19907 2.26721 0
M  V30 3597 H 338.048 -3.8788 1.54721 0
M  V30 3598 N 338.485 -1.33259 -0.841409 0
M  V30 3599 C 339.448 -1.23221 -1.9326 0
M  V30 3600 C 340.448 -0.151895 -1.60081 0
M  V30 3601 O 341.638 -0.403246 -1.69468 0
M  V30 3602 C 338.77 -0.898123 -3.28856 0
M  V30 3603 H 339.963 -2.2021 -2.03587 0
M  V30 3604 H 337.516 -1.17281 -1.03319 0
M  V30 3605 H 338.251 0.0693841 -3.24226 0
M  V30 3606 H 338.036 -1.67934 -3.54317 0
M  V30 3607 H 339.526 -0.852563 -4.08805 0
M  V30 3608 N 339.963 1.05934 -1.16686 0
M  V30 3609 C 341.209 1.79065 -0.95203 0
M  V30 3610 C 341.542 1.87147 0.518629 0
M  V30 3611 O 340.817 1.36574 1.38484 0
M  V30 3612 C 341.1 3.23359 -1.58464 0
M  V30 3613 C 340.953 3.23336 -3.12689 0
M  V30 3614 C 342.272 4.21004 -1.28232 0
M  V30 3615 H 339.391 0.65005 -0.34728 0
M  V30 3616 H 342.033 1.23868 -1.44072 0
M  V30 3617 H 340.183 3.70493 -1.16908 0
M  V30 3618 H 341.855 2.84336 -3.6325 0
M  V30 3619 H 340.098 2.61886 -3.4583 0
M  V30 3620 H 340.769 4.25144 -3.52075 0
M  V30 3621 H 343.245 3.8233 -1.64203 0
M  V30 3622 H 342.121 5.20225 -1.75092 0
M  V30 3623 H 342.382 4.41639 -0.201791 0
M  V30 3624 N 341.441 0.965919 1.2453 0
M  V30 3625 C 342.69 0.622437 1.91856 0
M  V30 3626 C 343.003 -0.846006 1.76358 0
M  V30 3627 O 344.209 -1.29993 2.38357 0
M  V30 3628 C 342.665 1.0626 3.43856 0
M  V30 3629 C 342.273 2.55437 3.68043 0
M  V30 3630 C 344.017 0.792183 4.17043 0
M  V30 3631 C 341.924 2.93196 5.13605 0
M  V30 3632 H 340.854 0.229092 0.718354 0
M  V30 3633 H 343.505 1.17189 1.41206 0
M  V30 3634 H 341.887 0.441476 3.93531 0
M  V30 3635 H 343.061 3.22665 3.28974 0
M  V30 3636 H 341.376 2.8007 3.08139 0
M  V30 3637 H 343.973 1.05031 5.24283 0
M  V30 3638 H 344.316 -0.271584 4.15413 0
M  V30 3639 H 344.849 1.37419 3.73311 0
M  V30 3640 H 341.588 3.98636 5.20355 0
M  V30 3641 H 341.108 2.30651 5.53679 0
M  V30 3642 H 342.787 2.83004 5.81823 0
M  V30 3643 N 342.919 -1.39368 0.735821 0
M  V30 3644 C 343.829 -2.34395 0.0979693 0
M  V30 3645 C 344.845 -1.58361 -0.720968 0
M  V30 3646 O 346.021 -1.90648 -0.649245 0
M  V30 3647 C 343.086 -3.37393 -0.797916 0
M  V30 3648 C 342.147 -4.29287 0.0333662 0
M  V30 3649 C 341.38 -5.27365 -0.819854 0
M  V30 3650 O 341.603 -5.31959 -2.05855 0
M  V30 3651 O 340.537 -6.01389 -0.248079 0
M  V30 3652 H 344.363 -2.90601 0.882315 0
M  V30 3653 H 341.948 -1.40909 0.4965 0
M  V30 3654 H 343.83 -4.00505 -1.31048 0
M  V30 3655 H 342.505 -2.83571 -1.56106 0
M  V30 3656 H 341.412 -3.69395 0.591475 0
M  V30 3657 H 342.745 -4.86317 0.758752 0
M  V30 3658 N 344.397 -0.483516 -1.5 0
M  V30 3659 C 345.813 -0.138404 -1.58999 0
M  V30 3660 C 346.013 1.35597 -1.4905 0
M  V30 3661 O 345.069 2.13039 -1.35539 0
M  V30 3662 C 346.382 -0.699658 -2.92447 0
M  V30 3663 C 347.93 -0.664195 -3.05872 0
M  V30 3664 C 348.405 -1.20321 -4.41913 0
M  V30 3665 N 349.896 -1.16315 -4.48358 0
M  V30 3666 C 350.631 -1.55058 -5.52037 0
M  V30 3667 N 350.127 -2.01311 -6.62907 0
M  V30 3668 N 351.92 -1.46584 -5.42651 0
M  V30 3669 H 344.071 -1.45529 -1.5471 0
M  V30 3670 H 346.334 -0.60258 -0.731848 0
M  V30 3671 H 346.04 -1.747 -3.05242 0
M  V30 3672 H 345.914 -0.150194 -3.76901 0
M  V30 3673 H 348.301 0.374272 -2.92717 0
M  V30 3674 H 348.382 -1.25061 -2.23144 0
M  V30 3675 H 348.026 -2.24037 -4.55818 0
M  V30 3676 H 347.956 -0.592896 -5.23252 0
M  V30 3677 H 350.447 -0.824058 -3.68806 0
M  V30 3678 H 350.76 -2.2899 -7.38095 0
M  V30 3679 H 349.105 -2.05273 -6.63994 0
M  V30 3680 H 352.296 -1.10281 -4.54924 0
M  V30 3681 H 352.469 -1.77103 -6.23329 0
M  V30 3682 N 345.875 1.56104 -0.216619 0
M  V30 3683 C 346.805 2.23063 0.690296 0
M  V30 3684 C 347.786 1.20072 1.20485 0
M  V30 3685 O 348.971 1.48643 1.24976 0
M  V30 3686 C 346.101 2.90672 1.90072 0
M  V30 3687 C 345.055 4.00092 1.5202 0
M  V30 3688 C 344.381 4.54972 2.80899 0
M  V30 3689 C 345.681 5.17398 0.71391 0
M  V30 3690 H 347.375 2.99109 0.132038 0
M  V30 3691 H 344.921 1.43866 0.0620664 0
M  V30 3692 H 346.874 3.36204 2.54057 0
M  V30 3693 H 345.598 2.12066 2.48386 0
M  V30 3694 H 344.257 3.55283 0.903839 0
M  V30 3695 H 343.905 3.73102 3.37348 0
M  V30 3696 H 343.605 5.28817 2.56176 0
M  V30 3697 H 345.129 5.0322 3.45836 0
M  V30 3698 H 346.543 5.59342 1.25735 0
M  V30 3699 H 344.94 5.97444 0.563951 0
M  V30 3700 H 346.01 4.84088 -0.280527 0
M  V30 3701 N 347.353 -0.0568162 1.57498 0
M  V30 3702 C 348.599 -0.75422 1.88253 0
M  V30 3703 C 348.932 -1.76461 0.810865 0
M  V30 3704 O 348.207 -1.93691 -0.177259 0
M  V30 3705 C 348.49 -1.44878 3.2967 0
M  V30 3706 C 348.343 -0.453789 4.47505 0
M  V30 3707 C 349.662 -2.38994 3.69554 0
M  V30 3708 H 346.781 -0.272724 0.684683 0
M  V30 3709 H 349.423 -0.0172113 1.89992 0
M  V30 3710 H 347.573 -2.077 3.28318 0
M  V30 3711 H 349.245 0.170371 4.60985 0
M  V30 3712 H 347.488 0.229552 4.33192 0
M  V30 3713 H 348.159 -0.977699 5.43273 0
M  V30 3714 H 350.635 -1.86239 3.72095 0
M  V30 3715 H 349.511 -2.84587 4.69363 0
M  V30 3716 H 349.772 -3.24461 3.00296 0
M  V30 3717 N 348.832 -1.54138 -0.328536 0
M  V30 3718 C 350.248 -1.44736 -0.672574 0
M  V30 3719 C 350.448 -0.616217 -1.91846 0
M  V30 3720 O 349.504 -0.113067 -2.52247 0
M  V30 3721 C 350.817 -2.884 -0.851217 0
M  V30 3722 C 352.365 -2.98271 -0.948877 0
M  V30 3723 C 352.84 -4.43074 -1.15973 0
M  V30 3724 N 354.331 -4.46665 -1.22658 0
M  V30 3725 C 355.066 -5.55857 -1.40751 0
M  V30 3726 N 354.562 -6.75026 -1.5592 0
M  V30 3727 N 356.355 -5.43495 -1.4342 0
M  V30 3728 H 348.506 -2.06661 0.490421 0
M  V30 3729 H 350.769 -0.934812 0.157579 0
M  V30 3730 H 350.475 -3.51699 -0.00704236 0
M  V30 3731 H 350.349 -3.34225 -1.74853 0
M  V30 3732 H 352.736 -2.35102 -1.78356 0
M  V30 3733 H 352.817 -2.55785 -0.0281435 0
M  V30 3734 H 352.461 -5.06827 -0.329915 0
M  V30 3735 H 352.391 -4.83165 -2.09426 0
M  V30 3736 H 354.882 -3.60797 -1.124 0
M  V30 3737 H 355.195 -7.54004 -1.69404 0
M  V30 3738 H 353.54 -6.77944 -1.53027 0
M  V30 3739 H 356.731 -4.49349 -1.31162 0
M  V30 3740 H 356.904 -6.28649 -1.57178 0
M  V30 3741 N 350.31 0.590341 -1.46126 0
M  V30 3742 C 351.273 1.68194 -1.55703 0
M  V30 3743 C 352.273 1.54808 -0.434868 0
M  V30 3744 O 353.463 1.59564 -0.698928 0
M  V30 3745 C 350.595 3.07575 -1.47005 0
M  V30 3746 H 351.788 1.61064 -2.52979 0
M  V30 3747 H 349.341 0.807541 -1.33823 0
M  V30 3748 H 350.076 3.20268 -0.509785 0
M  V30 3749 H 349.861 3.187 -2.28414 0
M  V30 3750 H 351.351 3.87055 -1.56776 0
M  V30 3751 N 351.788 1.33704 0.83433 0
M  V30 3752 C 352.718 1.26967 1.95963 0
M  V30 3753 C 353.699 0.149337 1.69443 0
M  V30 3754 O 354.884 0.339852 1.91203 0
M  V30 3755 C 352.014 1.01275 3.32206 0
M  V30 3756 C 350.968 2.09652 3.73136 0
M  V30 3757 C 350.294 1.69166 5.07235 0
M  V30 3758 C 351.594 3.51372 3.86439 0
M  V30 3759 H 353.288 2.2112 2.01857 0
M  V30 3760 H 350.834 1.06447 0.969793 0
M  V30 3761 H 352.787 0.952106 4.10503 0
M  V30 3762 H 351.511 0.0356203 3.26581 0
M  V30 3763 H 350.17 2.14766 2.97104 0
M  V30 3764 H 349.818 0.701437 4.98085 0
M  V30 3765 H 349.518 2.41694 5.35591 0
M  V30 3766 H 351.042 1.64576 5.88003 0
M  V30 3767 H 352.456 3.48734 4.55036 0
M  V30 3768 H 350.853 4.22425 4.26236 0
M  V30 3769 H 351.923 3.89546 2.88759 0
M  V30 3770 N 353.266 -1.05314 1.17247 0
M  V30 3771 C 354.491 -1.82509 0.985148 0
M  V30 3772 C 354.916 -1.82343 -0.461788 0
M  V30 3773 O 354.274 -1.23151 -1.33055 0
M  V30 3774 C 354.322 -3.26566 1.52929 0
M  V30 3775 O 353.426 -4.05666 0.742225 0
M  V30 3776 H 352.767 -0.564347 0.349869 0
M  V30 3777 H 355.297 -1.32718 1.55715 0
M  V30 3778 H 355.307 -3.77369 1.55103 0
M  V30 3779 H 353.982 -3.26001 2.58256 0
M  V30 3780 H 352.559 -3.64397 0.791794 0
M  V30 3781 N 354.744 -0.972509 -1.24016 0
M  V30 3782 C 355.694 -0.477561 -2.22942 0
M  V30 3783 C 356.678 0.44308 -1.54679 0
M  V30 3784 O 357.87 0.273219 -1.74879 0
M  V30 3785 C 354.999 0.226348 -3.42553 0
M  V30 3786 C 354.085 -0.713403 -4.18057 0
M  V30 3787 N 354.476 -1.8527 -4.70647 0
M  V30 3788 C 352.774 -0.525145 -4.42898 0
M  V30 3789 C 353.475 -2.44089 -5.28011 0
M  V30 3790 N 352.451 -1.72556 -5.15486 0
M  V30 3791 H 356.253 -1.34678 -2.61226 0
M  V30 3792 H 353.767 -0.832196 -1.39457 0
M  V30 3793 H 355.764 0.598184 -4.12586 0
M  V30 3794 H 354.424 1.09195 -3.05788 0
M  V30 3795 H 355.435 -2.2341 -4.67235 0
M  V30 3796 H 352.112 0.296096 -4.16449 0
M  V30 3797 H 353.502 -3.40259 -5.79374 0
M  V30 3798 N 356.222 1.38976 -0.743202 0
M  V30 3799 C 357.633 1.83123 -0.363732 0
M  V30 3800 C 357.984 1.6205 1.10609 0
M  V30 3801 O 357.109 1.11606 1.854 0
M  V30 3802 C 357.704 3.32439 -0.653408 0
M  V30 3803 C 356.263 3.74974 -0.327338 0
M  V30 3804 C 355.41 2.61878 -0.911875 0
M  V30 3805 H 358.361 1.27852 -0.940191 0
M  V30 3806 H 358.382 3.80432 0.0720031 0
M  V30 3807 H 357.894 3.47745 -1.72323 0
M  V30 3808 H 355.995 3.65252 0.736314 0
M  V30 3809 H 356.108 4.72106 -0.815631 0
M  V30 3810 H 354.472 2.52448 -0.337944 0
M  V30 3811 H 355.255 2.79987 -1.98651 0
M  V30 3812 N 357.7 0.491464 1.49741 0
M  V30 3813 C 358.948 -0.0563141 2.02022 0
M  V30 3814 C 359.269 -1.38363 1.37407 0
M  V30 3815 O 358.539 -1.88702 0.526166 0
M  V30 3816 H 357.119 -0.0238014 0.746621 0
M  V30 3817 H 359.781 0.646533 1.83864 0
M  V30 3818 H 358.877 -0.192967 3.11503 0
M  V30 3819 N 359.178 -1.55987 0.224894 0
M  V30 3820 C 360.403 -2.03232 -0.41369 0
M  V30 3821 C 360.828 -1.10359 -1.52323 0
M  V30 3822 O 360.186 -0.092395 -1.81064 0
M  V30 3823 C 360.234 -3.48682 -0.919405 0
M  V30 3824 O 359.338 -3.58947 -2.03054 0
M  V30 3825 H 358.679 -0.657428 -0.0931903 0
M  V30 3826 H 361.209 -2.01679 0.34451 0
M  V30 3827 H 361.219 -3.8907 -1.22835 0
M  V30 3828 H 359.894 -4.15761 -0.107339 0
M  V30 3829 H 358.471 -3.30448 -1.72796 0
M  V30 3830 N 360.656 0.0484629 -1.57525 0
M  V30 3831 C 361.884 0.755421 -1.92616 0
M  V30 3832 C 362.299 1.69919 -0.822984 0
M  V30 3833 O 361.656 1.81378 0.202085 0
M  V30 3834 C 361.707 1.52915 -3.27566 0
M  V30 3835 O 361.428 0.62329 -4.33644 0
M  V30 3836 C 362.929 2.33502 -3.76818 0
M  V30 3837 H 360.149 0.213465 -0.63614 0
M  V30 3838 H 362.693 0.0117698 -2.04497 0
M  V30 3839 H 360.848 2.22486 -3.17142 0
M  V30 3840 H 361.262 1.16383 -5.11425 0
M  V30 3841 H 362.736 2.83214 -4.73808 0
M  V30 3842 H 363.213 3.14068 -3.07014 0
M  V30 3843 H 363.819 1.69043 -3.90262 0
M  V30 3844 N 362.134 1.5431 0.320358 0
M  V30 3845 C 363.38 1.72924 1.05949 0
M  V30 3846 C 363.713 0.503185 1.87568 0
M  V30 3847 O 362.988 -0.499839 1.87968 0
M  V30 3848 C 363.271 3.00676 1.98156 0
M  V30 3849 C 363.124 4.3354 1.19845 0
M  V30 3850 C 364.443 3.24198 2.9763 0
M  V30 3851 H 361.562 0.629195 0.383774 0
M  V30 3852 H 364.204 1.87008 0.335854 0
M  V30 3853 H 362.354 2.888 2.59859 0
M  V30 3854 H 364.026 4.57305 0.605773 0
M  V30 3855 H 362.269 4.309 0.500784 0
M  V30 3856 H 362.94 5.19156 1.87567 0
M  V30 3857 H 365.416 3.35557 2.4605 0
M  V30 3858 H 364.292 4.14938 3.59329 0
M  V30 3859 H 364.553 2.41577 3.7026 0
M  V30 3860 N 363.613 -0.582584 1.46437 0
M  V30 3861 C 364.543 -1.70187 1.59871 0
M  V30 3862 C 365.524 -1.64066 0.449042 0
M  V30 3863 O 366.709 -1.82081 0.6753 0
M  V30 3864 C 363.839 -3.08827 1.58881 0
M  V30 3865 C 362.793 -3.29779 2.72819 0
M  V30 3866 C 362.119 -4.68947 2.5689 0
M  V30 3867 C 363.419 -3.17601 4.1464 0
M  V30 3868 H 365.113 -1.592 2.53566 0
M  V30 3869 H 362.659 -0.764472 1.22032 0
M  V30 3870 H 364.612 -3.86951 1.66873 0
M  V30 3871 H 363.336 -3.20713 0.617306 0
M  V30 3872 H 361.995 -2.54054 2.64296 0
M  V30 3873 H 361.643 -4.77599 1.57823 0
M  V30 3874 H 361.343 -4.83919 3.33312 0
M  V30 3875 H 362.867 -5.4924 2.66773 0
M  V30 3876 H 364.281 -3.8557 4.24274 0
M  V30 3877 H 362.678 -3.44094 4.9165 0
M  V30 3878 H 363.748 -2.14681 4.34788 0
M  V30 3879 N 365.091 -1.34144 -0.827227 0
M  V30 3880 C 366.368 -1.16844 -1.56865 0
M  V30 3881 C 366.748 0.260654 -2.09485 0
M  V30 3882 O 366.096 1.26138 -1.9053 0
M  V30 3883 C 366.306 -2.21939 -2.6934 0
M  V30 3884 C 367.654 -2.56695 -3.3822 0
M  V30 3885 O 368.678 -2.20695 -2.79593 0
M  V30 3886 O 367.537 -3.18518 -4.44082 0
M  V30 3887 H 364.631 -0.452669 -0.692112 0
M  V30 3888 H 367.177 -1.45763 -0.868973 0
M  V30 3889 H 365.949 -3.17882 -2.28182 0
M  V30 3890 H 365.572 -1.94172 -3.46962 0
M  V30 3891 N 366.569 1.04691 -1.17803 0
M  V30 3892 C 367.816 1.77782 -0.969532 0
M  V30 3893 C 368.144 1.87926 0.501401 0
M  V30 3894 O 367.399 1.37918 1.38842 0
M  V30 3895 C 367.698 3.21467 -1.56186 0
M  V30 3896 C 367.364 3.3137 -3.05786 0
M  V30 3897 C 366.026 3.3378 -3.46619 0
M  V30 3898 C 368.378 3.31976 -4.01797 0
M  V30 3899 C 365.706 3.34431 -4.82051 0
M  V30 3900 C 368.058 3.34167 -5.37136 0
M  V30 3901 C 366.722 3.34866 -5.77426 0
M  V30 3902 H 365.992 0.650549 -0.354777 0
M  V30 3903 H 368.639 1.23006 -1.46772 0
M  V30 3904 H 366.944 3.79203 -0.985515 0
M  V30 3905 H 368.641 3.76652 -1.37602 0
M  V30 3906 H 365.231 3.3021 -2.73238 0
M  V30 3907 H 369.415 3.29311 -3.71306 0
M  V30 3908 H 364.671 3.33285 -5.12573 0
M  V30 3909 H 368.845 3.33585 -6.11305 0
M  V30 3910 H 366.472 3.35124 -6.82346 0
M  V30 3911 N 368.047 0.979072 1.23499 0
M  V30 3912 C 369.294 0.647219 1.91878 0
M  V30 3913 C 369.622 -0.819074 1.76413 0
M  V30 3914 O 368.877 -1.60616 1.11808 0
M  V30 3915 C 369.176 0.981932 3.43646 0
M  V30 3916 C 368.842 2.43822 3.79291 0
M  V30 3917 C 367.504 2.83622 3.88731 0
M  V30 3918 C 369.856 3.3828 3.96505 0
M  V30 3919 C 367.184 4.16897 4.12812 0
M  V30 3920 C 369.536 4.71197 4.22085 0
M  V30 3921 C 368.2 5.10758 4.29747 0
M  V30 3922 H 367.47 0.236834 0.702133 0
M  V30 3923 H 370.117 1.23268 1.46551 0
M  V30 3924 H 368.422 0.314365 3.90537 0
M  V30 3925 H 370.119 0.703395 3.94783 0
M  V30 3926 H 366.709 2.11966 3.72516 0
M  V30 3927 H 370.893 3.0871 3.88603 0
M  V30 3928 H 366.149 4.47157 4.16966 0
M  V30 3929 H 370.323 5.44348 4.34348 0
M  V30 3930 H 367.95 6.1405 4.48159 0
M  V30 3931 N 369.525 -1.3858 0.750561 0
M  V30 3932 C 370.488 -2.28836 0.129152 0
M  V30 3933 C 371.488 -1.47045 -0.650714 0
M  V30 3934 O 372.678 -1.6753 -0.477428 0
M  V30 3935 C 369.81 -3.30751 -0.825622 0
M  V30 3936 H 371.003 -2.85294 0.924516 0
M  V30 3937 H 368.556 -1.47489 0.517376 0
M  V30 3938 H 369.291 -2.79378 -1.64677 0
M  V30 3939 H 369.076 -3.91177 -0.268852 0
M  V30 3940 H 370.566 -3.98249 -1.2565 0
M  V30 3941 N 371.003 -0.499398 -1.49478 0
M  V30 3942 C 372.251 0.0455996 -2.02049 0
M  V30 3943 C 372.572 1.37633 -1.38138 0
M  V30 3944 O 371.842 1.8842 -0.536166 0
M  V30 3945 H 370.422 0.0198416 -0.746736 0
M  V30 3946 H 373.084 -0.656274 -1.83519 0
M  V30 3947 H 372.18 0.176445 -3.11601 0
M  V30 3948 N 372.481 1.55866 -0.233164 0
M  V30 3949 C 373.706 2.03449 0.402906 0
M  V30 3950 C 374.131 1.11166 1.51736 0
M  V30 3951 O 373.489 0.101996 1.81013 0
M  V30 3952 C 373.537 3.49165 0.9009 0
M  V30 3953 O 372.641 3.60019 2.01147 0
M  V30 3954 H 371.982 0.657913 0.0897025 0
M  V30 3955 H 374.512 2.01493 -0.355201 0
M  V30 3956 H 374.522 3.89716 1.2077 0
M  V30 3957 H 373.197 4.15813 0.0852889 0
M  V30 3958 H 371.774 3.3136 1.71042 0
M  V30 3959 N 373.959 -0.0401083 1.57549 0
M  V30 3960 C 375.207 -0.731677 1.8839 0
M  V30 3961 C 375.528 -1.76481 0.829425 0
M  V30 3962 O 374.798 -1.95411 -0.1383 0
M  V30 3963 H 373.378 -0.273225 0.695239 0
M  V30 3964 H 376.04 -0.00867725 1.94898 0
M  V30 3965 H 375.136 -1.22816 2.86919 0
M  V30 3966 N 375.437 -1.54477 -0.31217 0
M  V30 3967 C 376.683 -1.73483 -1.0503 0
M  V30 3968 C 377.016 -0.513125 -1.87298 0
M  V30 3969 O 376.291 0.489864 -1.8823 0
M  V30 3970 C 376.574 -3.01723 -1.96558 0
M  V30 3971 C 376.427 -4.3417 -1.17545 0
M  V30 3972 C 377.746 -3.25772 -2.95907 0
M  V30 3973 H 374.865 -0.631222 -0.380432 0
M  V30 3974 H 377.507 -1.87184 -0.325932 0
M  V30 3975 H 375.657 -2.90174 -2.58324 0
M  V30 3976 H 377.329 -4.5762 -0.581513 0
M  V30 3977 H 375.572 -4.31159 -0.477925 0
M  V30 3978 H 376.243 -5.20143 -1.84811 0
M  V30 3979 H 378.719 -3.36857 -2.44267 0
M  V30 3980 H 377.595 -4.16838 -3.57123 0
M  V30 3981 H 377.856 -2.43537 -3.68974 0
M  V30 3982 N 376.915 0.57481 -1.46744 0
M  V30 3983 C 378.143 1.35856 -1.56047 0
M  V30 3984 C 378.558 1.87691 -0.204365 0
M  V30 3985 O 377.915 1.64049 0.79963 0
M  V30 3986 C 377.966 2.54066 -2.57163 0
M  V30 3987 O 377.687 2.04377 -3.87507 0
M  V30 3988 C 379.188 3.46514 -2.76483 0
M  V30 3989 H 376.408 0.414754 -0.527466 0
M  V30 3990 H 378.952 0.698035 -1.92218 0
M  V30 3991 H 377.107 3.16092 -2.23974 0
M  V30 3992 H 377.521 2.81419 -4.4261 0
M  V30 3993 H 378.995 4.25919 -3.51137 0
M  V30 3994 H 379.472 3.98951 -1.83671 0
M  V30 3995 H 380.078 2.90318 -3.10799 0
M  V30 3996 N 378.394 1.34581 0.820102 0
M  V30 3997 C 379.357 1.2628 1.91275 0
M  V30 3998 C 380.357 0.177344 1.59819 0
M  V30 3999 O 381.547 0.430156 1.68806 0
M  V30 4000 C 378.679 0.950327 3.27386 0
M  V30 4001 H 379.872 2.23421 2.00057 0
M  V30 4002 H 377.425 1.1891 1.0144 0
M  V30 4003 H 378.16 -0.0177938 3.24295 0
M  V30 4004 H 377.945 1.73549 3.51601 0
M  V30 4005 H 379.435 0.917492 4.07396 0
M  V30 4006 N 379.872 -1.04064 1.18357 0
M  V30 4007 C 381.288 -1.2947 0.933258 0
M  V30 4008 C 381.488 -1.97466 -0.401169 0
M  V30 4009 O 380.544 -2.25528 -1.13549 0
M  V30 4010 C 381.857 -2.15337 2.09882 0
M  V30 4011 C 383.405 -2.28683 2.13712 0
M  V30 4012 C 383.88 -3.17917 3.29686 0
M  V30 4013 N 385.371 -3.25504 3.29547 0
M  V30 4014 C 386.106 -3.94706 4.15926 0
M  V30 4015 N 385.602 -4.66239 5.12439 0
M  V30 4016 N 387.395 -3.90986 4.0384 0
M  V30 4017 H 379.546 -0.583359 2.04232 0
M  V30 4018 H 381.809 -0.319921 0.892387 0
M  V30 4019 H 381.515 -1.72682 3.06389 0
M  V30 4020 H 381.389 -3.16015 2.05947 0
M  V30 4021 H 383.776 -2.70575 1.17784 0
M  V30 4022 H 383.857 -1.27596 2.21705 0
M  V30 4023 H 383.501 -2.76736 4.25887 0
M  V30 4024 H 383.431 -4.19036 3.1893 0
M  V30 4025 H 385.922 -2.74547 2.59677 0
M  V30 4026 H 386.235 -5.16638 5.74722 0
M  V30 4027 H 384.58 -4.65143 5.16398 0
M  V30 4028 H 387.771 -3.34234 3.27727 0
M  V30 4029 H 387.944 -4.44646 4.71375 0
M  V30 4030 N 381.35 -0.985608 -1.22978 0
M  V30 4031 C 382.596 -0.65836 -1.91816 0
M  V30 4032 C 382.929 0.806692 -1.76653 0
M  V30 4033 O 382.204 1.58252 -1.13078 0
M  V30 4034 C 382.487 -1.056 -3.44268 0
M  V30 4035 C 382.34 -2.57906 -3.68516 0
M  V30 4036 C 383.659 -0.603781 -4.35939 0
M  V30 4037 H 380.778 -0.24065 -0.696604 0
M  V30 4038 H 383.42 -1.22783 -1.44998 0
M  V30 4039 H 381.57 -0.571445 -3.84274 0
M  V30 4040 H 383.242 -3.13976 -3.3796 0
M  V30 4041 H 381.485 -3.00305 -3.13048 0
M  V30 4042 H 382.156 -2.80779 -4.75255 0
M  V30 4043 H 384.632 -1.01987 -4.03408 0
M  V30 4044 H 383.508 -0.910383 -5.41298 0
M  V30 4045 H 383.769 0.495761 -4.39312 0
M  V30 4046 N 382.828 1.3818 -0.7579 0
M  V30 4047 C 383.791 2.28764 -0.141286 0
M  V30 4048 C 384.791 1.47388 0.642907 0
M  V30 4049 O 385.981 1.67781 0.468536 0
M  V30 4050 C 383.113 3.31184 0.808069 0
M  V30 4051 H 384.306 2.848 -0.939633 0
M  V30 4052 H 381.859 1.47212 -0.525191 0
M  V30 4053 H 382.594 2.80247 1.63193 0
M  V30 4054 H 382.379 3.91314 0.248104 0
M  V30 4055 H 383.869 3.98909 1.23536 0
M  V30 4056 N 384.306 0.507319 1.49211 0
M  V30 4057 C 385.555 -0.0368315 2.01666 0
M  V30 4058 C 385.868 -1.37459 1.39156 0
M  V30 4059 O 387.074 -2.00579 1.82976 0
M  V30 4060 C 385.53 -0.116089 3.59713 0
M  V30 4061 C 385.138 1.2154 4.31198 0
M  V30 4062 C 386.882 -0.610268 4.2009 0
M  V30 4063 C 384.789 1.09796 5.81119 0
M  V30 4064 H 383.719 -0.0175376 0.753796 0
M  V30 4065 H 386.37 0.647691 1.71689 0
M  V30 4066 H 384.752 -0.8652 3.86433 0
M  V30 4067 H 385.926 1.9783 4.16173 0
M  V30 4068 H 384.241 1.64352 3.82593 0
M  V30 4069 H 386.838 -0.715742 5.29888 0
M  V30 4070 H 387.181 -1.61064 3.8388 0
M  V30 4071 H 387.714 0.0824916 3.97714 0
M  V30 4072 H 384.453 2.0728 6.21864 0
M  V30 4073 H 383.973 0.376058 5.9862 0
M  V30 4074 H 385.652 0.779281 6.4229 0
M  V30 4075 N 385.784 -1.5574 0.241426 0
M  V30 4076 C 386.716 -2.18469 -0.693091 0
M  V30 4077 C 387.729 -1.15942 -1.14286 0
M  V30 4078 O 388.918 -1.42832 -1.07058 0
M  V30 4079 C 386.018 -2.7696 -1.95311 0
M  V30 4080 C 385.191 -4.04853 -1.65568 0
M  V30 4081 C 384.25 -4.47715 -2.76474 0
M  V30 4082 O 383.276 -5.14205 -2.44094 0
M  V30 4083 N 384.478 -4.15044 -4.05855 0
M  V30 4084 H 387.243 -2.99292 -0.156388 0
M  V30 4085 H 384.804 -1.61784 0.0611752 0
M  V30 4086 H 386.796 -3.02594 -2.68736 0
M  V30 4087 H 385.366 -2.00326 -2.39975 0
M  V30 4088 H 384.586 -3.86865 -0.756886 0
M  V30 4089 H 385.874 -4.88246 -1.43153 0
M  V30 4090 H 385.272 -3.61654 -4.34998 0
M  V30 4091 H 383.829 -4.45526 -4.75762 0
M  V30 4092 N 387.262 0.0317525 -1.57568 0
M  V30 4093 C 388.172 1.05021 -2.0978 0
M  V30 4094 C 389.188 1.39809 -1.03583 0
M  V30 4095 O 390.364 1.49182 -1.35302 0
M  V30 4096 C 387.429 2.33301 -2.56459 0
M  V30 4097 C 386.49 2.0512 -3.77127 0
M  V30 4098 C 385.723 3.27283 -4.2157 0
M  V30 4099 O 385.946 4.37861 -3.65559 0
M  V30 4100 O 384.88 3.13141 -5.14029 0
M  V30 4101 H 388.706 0.636505 -2.96955 0
M  V30 4102 H 386.291 0.248559 -1.47318 0
M  V30 4103 H 388.173 3.08722 -2.86825 0
M  V30 4104 H 386.848 2.73973 -1.72397 0
M  V30 4105 H 385.755 1.27276 -3.51784 0
M  V30 4106 H 387.088 1.69305 -4.62165 0
M  V30 4107 N 388.74 1.54641 0.303973 0
M  V30 4108 C 389.988 1.73437 1.0375 0
M  V30 4109 C 390.309 0.521449 1.87899 0
M  V30 4110 O 389.579 -0.46432 1.90318 0
M  V30 4111 H 388.159 0.639518 0.386039 0
M  V30 4112 H 390.821 1.91988 0.335675 0
M  V30 4113 H 389.917 2.62235 1.69231 0
M  V30 4114 N 390.218 -0.567019 1.47046 0
M  V30 4115 C 391.634 -0.891975 1.32348 0
M  V30 4116 C 391.834 -1.99154 0.306616 0
M  V30 4117 O 390.89 -2.50883 -0.28532 0
M  V30 4118 C 392.203 -1.29449 2.7141 0
M  V30 4119 C 393.751 -1.40646 2.79621 0
M  V30 4120 C 394.226 -1.84257 4.19301 0
M  V30 4121 N 395.717 -1.91424 4.21795 0
M  V30 4122 C 396.452 -2.26476 5.26779 0
M  V30 4123 N 395.948 -2.60211 6.42077 0
M  V30 4124 N 397.741 -2.27166 5.14152 0
M  V30 4125 H 389.892 0.159074 2.11803 0
M  V30 4126 H 392.155 0.00849752 0.947962 0
M  V30 4127 H 391.861 -0.560448 3.47206 0
M  V30 4128 H 391.735 -2.25273 3.02542 0
M  V30 4129 H 394.122 -2.13133 2.04104 0
M  V30 4130 H 394.203 -0.430339 2.52154 0
M  V30 4131 H 393.847 -1.12343 4.95319 0
M  V30 4132 H 393.777 -2.82855 4.44185 0
M  V30 4133 H 396.268 -1.6778 3.38612 0
M  V30 4134 H 396.581 -2.85956 7.17948 0
M  V30 4135 H 394.926 -2.57813 6.45413 0
M  V30 4136 H 398.117 -2.00244 4.23107 0
M  V30 4137 H 398.29 -2.54154 5.96079 0
M  V30 4138 N 391.696 -1.35014 -0.812953 0
M  V30 4139 C 392.644 -1.27435 -1.94585 0
M  V30 4140 C 393.638 -0.170494 -1.6854 0
M  V30 4141 O 394.844 -0.336085 -1.76835 0
M  V30 4142 H 391.219 -0.396144 -0.639198 0
M  V30 4143 H 393.19 -2.23158 -1.98098 0
M  V30 4144 C 391.939 -1.05677 -3.31252 0
M  V30 4145 H 391.262 -1.89853 -3.51846 0
M  V30 4146 H 392.702 -1.04413 -4.10943 0
M  V30 4147 C 391.161 0.239615 -3.36047 0
M  V30 4148 O 391.691 1.23759 -3.8216 0
M  V30 4149 N 389.897 0.276186 -2.89285 0
M  V30 4150 H 389.444 -0.53653 -2.51951 0
M  V30 4151 H 389.402 1.14332 -2.92875 0
M  V30 4152 N 393.175 1.03435 -1.18907 0
M  V30 4153 C 394.4 1.80919 -1.01406 0
M  V30 4154 C 394.825 1.83055 0.432721 0
M  V30 4155 O 394.183 1.25252 1.31079 0
M  V30 4156 C 394.231 3.24091 -1.58105 0
M  V30 4157 O 393.335 4.04434 -0.806669 0
M  V30 4158 H 392.676 0.558709 -0.358803 0
M  V30 4159 H 395.206 1.30223 -1.57807 0
M  V30 4160 H 395.216 3.74853 -1.61087 0
M  V30 4161 H 393.891 3.21851 -2.6341 0
M  V30 4162 H 392.468 3.63091 -0.849666 0
M  V30 4163 N 394.653 0.992116 1.22453 0
M  V30 4164 C 395.902 0.662992 1.90492 0
M  V30 4165 C 396.215 -0.808407 1.78113 0
M  V30 4166 O 397.421 -1.24908 2.41061 0
M  V30 4167 C 395.877 1.1353 3.41524 0
M  V30 4168 C 395.485 2.63187 3.62542 0
M  V30 4169 C 397.229 0.880465 4.15269 0
M  V30 4170 C 395.136 3.04024 5.0727 0
M  V30 4171 H 394.066 0.244278 0.713333 0
M  V30 4172 H 396.717 1.20157 1.38688 0
M  V30 4173 H 395.099 0.52485 3.92506 0
M  V30 4174 H 396.273 3.2957 3.22056 0
M  V30 4175 H 394.588 2.86543 3.02129 0
M  V30 4176 H 397.185 1.16128 5.21937 0
M  V30 4177 H 397.528 -0.183408 4.15896 0
M  V30 4178 H 398.061 1.45307 3.70312 0
M  V30 4179 H 394.8 4.09584 5.11782 0
M  V30 4180 H 394.32 2.42343 5.48662 0
M  V30 4181 H 395.999 2.95282 5.75689 0
M  V30 4182 N 396.131 -1.37776 0.765217 0
M  V30 4183 C 397.371 -2.01691 0.331669 0
M  V30 4184 C 397.735 -1.59432 -1.06983 0
M  V30 4185 O 398.936 -2.15761 -1.60314 0
M  V30 4186 C 397.207 -3.54385 0.463261 0
M  V30 4187 S 398.766 -4.38652 0.114011 0
M  V30 4188 H 395.584 -0.699387 0.127979 0
M  V30 4189 H 398.186 -1.68084 0.998396 0
M  V30 4190 H 396.89 -3.82629 1.48401 0
M  V30 4191 H 396.421 -3.92783 -0.220246 0
M  V30 4192 H 398.436 -4.84021 -1.09261 0
M  V30 4193 N 397.609 -0.515225 -1.4894 0
M  V30 4194 C 398.837 0.0206034 -2.0689 0
M  V30 4195 C 399.252 1.29514 -1.37374 0
M  V30 4196 O 398.609 1.76698 -0.456529 0
M  V30 4197 C 398.66 0.26351 -3.60538 0
M  V30 4198 O 398.381 -0.960517 -4.27441 0
M  V30 4199 C 399.882 0.841383 -4.35242 0
M  V30 4200 H 397.102 -0.0268608 -0.670462 0
M  V30 4201 H 399.646 -0.716651 -1.91532 0
M  V30 4202 H 397.801 0.950777 -3.75552 0
M  V30 4203 H 398.215 -0.73212 -5.19365 0
M  V30 4204 H 399.689 0.96085 -5.43573 0
M  V30 4205 H 400.166 1.8427 -3.98674 0
M  V30 4206 H 400.772 0.191143 -4.2487 0
M  V30 4207 N 399.087 1.5561 -0.249682 0
M  V30 4208 C 400.364 1.90932 0.424761 0
M  V30 4209 C 400.744 1.17078 1.75658 0
M  V30 4210 O 400.092 0.289176 2.26663 0
M  V30 4211 C 400.302 3.43975 0.590109 0
M  V30 4212 C 401.65 4.15281 0.884714 0
M  V30 4213 O 402.674 3.49729 0.67587 0
M  V30 4214 O 401.533 5.31236 1.28259 0
M  V30 4215 H 398.627 0.794815 0.228468 0
M  V30 4216 H 401.173 1.67135 -0.293954 0
M  V30 4217 H 399.945 3.89748 -0.34818 0
M  V30 4218 H 399.568 3.73644 1.35926 0
M  V30 4219 N 400.565 -0.0233959 1.57583 0
M  V30 4220 C 401.528 -1.00693 2.05897 0
M  V30 4221 C 402.528 -1.28693 0.964092 0
M  V30 4222 O 403.718 -1.23602 1.22753 0
M  V30 4223 C 400.85 -2.33825 2.4807 0
M  V30 4224 H 402.043 -0.589476 2.9405 0
M  V30 4225 H 399.596 -0.270354 1.53944 0
M  V30 4226 H 400.331 -2.80307 1.6309 0
M  V30 4227 H 400.116 -2.1483 3.2801 0
M  V30 4228 H 401.606 -3.04426 2.85857 0
M  V30 4229 N 402.043 -1.548 -0.295768 0
M  V30 4230 C 403.006 -1.85363 -1.34808 0
M  V30 4231 C 404.006 -0.726817 -1.43436 0
M  V30 4232 O 405.196 -0.995088 -1.42981 0
M  V30 4233 C 402.328 -2.03859 -2.73229 0
M  V30 4234 H 403.521 -2.7941 -1.08949 0
M  V30 4235 H 401.074 -1.46942 -0.532702 0
M  V30 4236 H 401.809 -1.12117 -3.04303 0
M  V30 4237 H 401.594 -2.8588 -2.68356 0
M  V30 4238 H 403.084 -2.28857 -3.49305 0
M  V30 4239 N 403.521 0.559213 -1.47345 0
M  V30 4240 C 404.932 1.14134 -1.47751 0
M  V30 4241 C 405.283 1.94834 -0.231103 0
M  V30 4242 O 404.408 2.05957 0.664137 0
M  V30 4243 C 405.003 2.07653 -2.67705 0
M  V30 4244 C 403.562 2.61141 -2.71076 0
M  V30 4245 C 402.709 1.3748 -2.40821 0
M  V30 4246 H 405.66 0.345917 -1.54884 0
M  V30 4247 H 405.681 2.91497 -2.44561 0
M  V30 4248 H 405.193 1.4889 -3.58404 0
M  V30 4249 H 403.294 3.23707 -1.84511 0
M  V30 4250 H 403.407 3.02272 -3.7171 0
M  V30 4251 H 401.771 1.68086 -1.91362 0
M  V30 4252 H 402.554 0.805135 -3.33725 0
M  V30 4253 N 404.999 1.35443 0.805782 0
M  V30 4254 C 406.245 1.28952 1.56522 0
M  V30 4255 C 406.578 -0.135597 1.93726 0
M  V30 4256 O 405.853 -1.08516 1.61414 0
M  V30 4257 C 406.136 2.19678 2.85331 0
M  V30 4258 C 405.989 3.7081 2.54598 0
M  V30 4259 C 407.308 2.09495 3.8704 0
M  V30 4260 H 404.427 0.469764 0.567883 0
M  V30 4261 H 407.069 1.65851 0.927001 0
M  V30 4262 H 405.219 1.8834 3.39795 0
M  V30 4263 H 406.891 4.12593 2.06312 0
M  V30 4264 H 405.134 3.91051 1.8778 0
M  V30 4265 H 405.805 4.29679 3.46525 0
M  V30 4266 H 408.281 2.37045 3.41978 0
M  V30 4267 H 407.157 2.75173 4.74943 0
M  V30 4268 H 407.418 1.07714 4.28777 0
M  V30 4269 N 406.477 -1.02803 1.19454 0
M  V30 4270 C 407.724 -1.76217 0.997693 0
M  V30 4271 C 408.052 -1.887 -0.47144 0
M  V30 4272 O 407.307 -1.4011 -1.3663 0
M  V30 4273 C 407.606 -3.18941 1.6128 0
M  V30 4274 C 407.272 -3.26463 3.11019 0
M  V30 4275 C 405.934 -3.28223 3.51885 0
M  V30 4276 C 408.286 -3.25542 4.07028 0
M  V30 4277 C 405.614 -3.26719 4.8731 0
M  V30 4278 C 407.966 -3.25579 5.42385 0
M  V30 4279 C 406.63 -3.25637 5.82681 0
M  V30 4280 H 405.9 -0.644823 0.365082 0
M  V30 4281 H 408.547 -1.20655 1.4871 0
M  V30 4282 H 406.852 -3.77587 1.04572 0
M  V30 4283 H 408.549 -3.74415 1.43577 0
M  V30 4284 H 405.139 -3.25822 2.78457 0
M  V30 4285 H 409.323 -3.23362 3.76498 0
M  V30 4286 H 404.579 -3.25089 5.1781 0
M  V30 4287 H 408.753 -3.23817 6.16535 0
M  V30 4288 H 406.38 -3.24226 6.87591 0
M  V30 4289 N 407.956 -0.998596 -1.21925 0
M  V30 4290 C 408.903 -0.553621 -2.24062 0
M  V30 4291 C 409.873 0.416999 -1.6078 0
M  V30 4292 O 411.058 0.320482 -1.88089 0
M  V30 4293 C 408.198 0.119959 -3.44891 0
M  V30 4294 C 407.311 -0.893077 -4.22668 0
M  V30 4295 C 406.446 -0.192424 -5.30851 0
M  V30 4296 C 405.485 -1.19344 -6.00353 0
M  V30 4297 N 404.622 -0.520707 -7.00166 0
M  V30 4298 H 409.462 -1.4293 -2.61486 0
M  V30 4299 H 406.999 -0.715838 -1.28507 0
M  V30 4300 H 408.957 0.527459 -4.13852 0
M  V30 4301 H 407.587 0.959389 -3.08214 0
M  V30 4302 H 406.639 -1.41886 -3.52948 0
M  V30 4303 H 407.951 -1.65512 -4.70539 0
M  V30 4304 H 407.105 0.271515 -6.06092 0
M  V30 4305 H 405.844 0.602075 -4.83969 0
M  V30 4306 H 404.849 -1.66795 -5.23889 0
M  V30 4307 H 406.074 -1.98891 -6.49322 0
M  V30 4308 H 404.02 0.254252 -6.55507 0
M  V30 4309 H 403.937 -1.2211 -7.46073 0
M  V30 4310 H 405.205 -0.0797596 -7.79459 0
M  V30 4311 N 409.434 1.37368 -0.772513 0
M  V30 4312 C 410.344 2.34053 -0.160081 0
M  V30 4313 C 411.36 1.60216 0.678728 0
M  V30 4314 O 412.536 1.92303 0.59847 0
M  V30 4315 C 409.601 3.3939 0.708182 0
M  V30 4316 C 408.662 4.29048 -0.147172 0
M  V30 4317 C 407.895 5.29354 0.679744 0
M  V30 4318 O 408.118 5.3723 1.91678 0
M  V30 4319 O 407.052 6.01835 0.0885444 0
M  V30 4320 H 410.878 2.88159 -0.959053 0
M  V30 4321 H 408.463 1.39543 -0.533685 0
M  V30 4322 H 410.345 4.03839 1.20384 0
M  V30 4323 H 409.02 2.8761 1.48533 0
M  V30 4324 H 407.927 3.67697 -0.689205 0
M  V30 4325 H 409.26 4.84134 -0.887423 0
M  V30 4326 N 410.912 0.523116 1.48665 0
M  V30 4327 C 412.142 -0.00961724 2.06598 0
M  V30 4328 C 412.55 -1.29333 1.38093 0
M  V30 4329 O 411.893 -1.77846 0.46007 0
M  V30 4330 C 411.955 -0.311135 3.58151 0
M  V30 4331 C 411.619 0.878092 4.48485 0
M  V30 4332 C 412.616 1.77464 4.88674 0
M  V30 4333 C 410.301 1.08315 4.90483 0
M  V30 4334 C 412.295 2.86021 5.69623 0
M  V30 4335 C 409.982 2.17187 5.71203 0
M  V30 4336 C 410.98 3.05873 6.10681 0
M  V30 4337 O 410.668 4.12862 6.89783 0
M  V30 4338 H 410.4 0.0272658 0.67545 0
M  V30 4339 H 412.954 0.726156 1.92136 0
M  V30 4340 H 411.184 -1.10079 3.70701 0
M  V30 4341 H 412.873 -0.785125 3.98234 0
M  V30 4342 H 413.639 1.62813 4.56855 0
M  V30 4343 H 409.518 0.402149 4.59243 0
M  V30 4344 H 413.062 3.55272 6.00356 0
M  V30 4345 H 408.959 2.31824 6.02435 0
M  V30 4346 H 409.727 4.10487 7.08126 0
M  V30 4347 N 412.39 -1.55475 0.257931 0
M  V30 4348 C 413.62 -2.03314 -0.367026 0
M  V30 4349 C 414.028 -1.13625 -1.51281 0
M  V30 4350 O 413.371 -0.145334 -1.83124 0
M  V30 4351 C 413.433 -3.47362 -0.926284 0
M  V30 4352 C 413.097 -4.56914 0.0886584 0
M  V30 4353 C 414.094 -5.12013 0.902123 0
M  V30 4354 C 411.779 -5.01827 0.217936 0
M  V30 4355 C 413.773 -6.10529 1.83122 0
M  V30 4356 C 411.46 -6.00172 1.15052 0
M  V30 4357 C 412.458 -6.54402 1.95568 0
M  V30 4358 O 412.146 -7.50827 2.87253 0
M  V30 4359 H 411.878 -0.669976 -0.0900443 0
M  V30 4360 H 414.432 -2.01804 0.382673 0
M  V30 4361 H 412.662 -3.46056 -1.72575 0
M  V30 4362 H 414.351 -3.78637 -1.46249 0
M  V30 4363 H 415.117 -4.78139 0.812891 0
M  V30 4364 H 410.996 -4.59272 -0.398721 0
M  V30 4365 H 414.54 -6.52783 2.46008 0
M  V30 4366 H 410.437 -6.33465 1.24064 0
M  V30 4367 H 411.205 -7.68483 2.81739 0
M  V30 4368 N 413.868 0.0150385 -1.57593 0
M  V30 4369 C 414.8 1.03912 -2.04291 0
M  V30 4370 C 415.813 1.31618 -0.958146 0
M  V30 4371 O 417.002 1.28859 -1.23522 0
M  V30 4372 C 414.102 2.37749 -2.41514 0
M  V30 4373 C 413.275 2.29198 -3.72541 0
M  V30 4374 C 412.334 3.45598 -3.96797 0
M  V30 4375 O 411.36 3.24461 -4.67668 0
M  V30 4376 N 412.562 4.67945 -3.43523 0
M  V30 4377 H 415.327 0.64099 -2.92765 0
M  V30 4378 H 412.888 0.20272 -1.60626 0
M  V30 4379 H 414.88 3.14364 -2.54867 0
M  V30 4380 H 413.45 2.69357 -1.58637 0
M  V30 4381 H 412.67 1.3759 -3.69408 0
M  V30 4382 H 413.958 2.20642 -4.5847 0
M  V30 4383 H 413.356 4.88017 -2.86104 0
M  V30 4384 H 411.913 5.41878 -3.62232 0
M  V30 4385 N 415.346 1.54954 0.287554 0
M  V30 4386 C 416.293 1.86834 1.35505 0
M  V30 4387 C 417.263 0.718452 1.49758 0
M  V30 4388 O 418.448 0.968358 1.644 0
M  V30 4389 C 415.588 2.13303 2.71286 0
M  V30 4390 C 414.701 3.40883 2.65373 0
M  V30 4391 C 413.836 3.57125 3.93236 0
M  V30 4392 C 412.875 4.78449 3.81776 0
M  V30 4393 N 412.012 4.91426 5.01443 0
M  V30 4394 H 416.852 2.77889 1.07619 0
M  V30 4395 H 414.389 1.37593 0.520241 0
M  V30 4396 H 416.347 2.26646 3.50267 0
M  V30 4397 H 414.977 1.25499 2.97405 0
M  V30 4398 H 414.029 3.36088 1.78182 0
M  V30 4399 H 415.341 4.29993 2.52799 0
M  V30 4400 H 414.495 3.70207 4.80658 0
M  V30 4401 H 413.234 2.66173 4.0866 0
M  V30 4402 H 412.239 4.65386 2.92738 0
M  V30 4403 H 413.464 5.70822 3.67884 0
M  V30 4404 H 411.41 4.03401 5.17304 0
M  V30 4405 H 411.327 5.74559 4.91343 0
M  V30 4406 H 412.595 5.08879 5.90477 0
M  V30 4407 N 416.824 -0.551391 1.4764 0
M  V30 4408 C 417.756 -1.67333 1.56628 0
M  V30 4409 C 418.769 -1.56398 0.452045 0
M  V30 4410 O 419.958 -1.6325 0.721926 0
M  V30 4411 C 417.058 -3.05841 1.45994 0
M  V30 4412 C 416.231 -3.42472 2.72088 0
M  V30 4413 C 415.29 -4.60168 2.55209 0
M  V30 4414 O 414.316 -4.64458 3.2904 0
M  V30 4415 N 415.518 -5.57024 1.63416 0
M  V30 4416 H 418.283 -1.60066 2.53375 0
M  V30 4417 H 415.844 -0.738169 1.44093 0
M  V30 4418 H 417.836 -3.8242 1.32428 0
M  V30 4419 H 416.406 -3.07302 0.573071 0
M  V30 4420 H 415.626 -2.55284 3.00373 0
M  V30 4421 H 416.914 -3.63723 3.55785 0
M  V30 4422 H 416.312 -5.56319 1.02594 0
M  V30 4423 H 414.869 -6.32906 1.558 0
M  V30 4424 N 418.302 -1.35869 -0.798587 0
M  V30 4425 C 419.232 -1.32118 -1.92528 0
M  V30 4426 C 420.213 -0.194209 -1.68988 0
M  V30 4427 O 421.398 -0.390426 -1.90235 0
M  V30 4428 C 418.528 -1.10047 -3.29404 0
M  V30 4429 C 417.482 -2.19471 -3.67446 0
M  V30 4430 C 416.808 -1.82555 -5.02571 0
M  V30 4431 C 418.108 -3.61495 -3.76987 0
M  V30 4432 H 419.802 -2.26394 -1.95924 0
M  V30 4433 H 417.348 -1.08981 -0.94123 0
M  V30 4434 H 419.301 -1.06061 -4.07835 0
M  V30 4435 H 418.025 -0.122195 -3.26371 0
M  V30 4436 H 416.684 -2.22568 -2.91306 0
M  V30 4437 H 416.332 -0.833249 -4.9605 0
M  V30 4438 H 416.032 -2.5581 -5.28995 0
M  V30 4439 H 417.556 -1.80108 -5.83432 0
M  V30 4440 H 418.97 -3.60676 -4.4563 0
M  V30 4441 H 417.367 -4.33577 -4.14887 0
M  V30 4442 H 418.437 -3.97065 -2.78329 0
M  V30 4443 N 419.78 1.02168 -1.19998 0
M  V30 4444 C 421.008 1.79296 -1.03249 0
M  V30 4445 C 421.423 1.84103 0.418502 0
M  V30 4446 O 420.78 1.29031 1.29063 0
M  V30 4447 C 420.831 3.24007 -1.60319 0
M  V30 4448 O 420.552 3.19512 -2.99739 0
M  V30 4449 C 422.053 4.17704 -1.48453 0
M  V30 4450 H 419.273 0.564016 -0.363493 0
M  V30 4451 H 421.817 1.28639 -1.58973 0
M  V30 4452 H 419.972 3.7183 -1.08727 0
M  V30 4453 H 420.386 4.10306 -3.26725 0
M  V30 4454 H 421.86 5.17104 -1.93153 0
M  V30 4455 H 422.337 4.37029 -0.436193 0
M  V30 4456 H 422.943 3.7576 -1.99211 0
M  V30 4457 N 421.258 1.00505 1.21394 0
M  V30 4458 C 422.505 0.687774 1.90462 0
M  V30 4459 C 422.833 -0.78147 1.7811 0
M  V30 4460 O 422.088 -1.58208 1.1519 0
M  V30 4461 C 422.387 1.0546 3.41486 0
M  V30 4462 C 422.053 2.51812 3.74034 0
M  V30 4463 C 420.715 2.91804 3.82628 0
M  V30 4464 C 423.067 3.46614 3.8924 0
M  V30 4465 C 420.395 4.2556 4.03876 0
M  V30 4466 C 422.747 4.80044 4.11995 0
M  V30 4467 C 421.411 5.19759 4.18816 0
M  V30 4468 H 420.681 0.251674 0.696951 0
M  V30 4469 H 423.328 1.26349 1.43903 0
M  V30 4470 H 421.633 0.397133 3.89782 0
M  V30 4471 H 423.33 0.786976 3.93202 0
M  V30 4472 H 419.92 2.1982 3.67936 0
M  V30 4473 H 424.104 3.16883 3.81967 0
M  V30 4474 H 419.36 4.55901 4.07387 0
M  V30 4475 H 423.534 5.53439 4.22704 0
M  V30 4476 H 421.161 6.23418 4.35033 0
M  V30 4477 N 422.737 -1.36956 0.779787 0
M  V30 4478 C 423.667 -2.32761 0.185651 0
M  V30 4479 C 424.648 -1.56177 -0.673989 0
M  V30 4480 O 425.833 -1.84378 -0.609797 0
M  V30 4481 C 422.963 -3.40418 -0.687964 0
M  V30 4482 C 421.917 -4.27941 0.0710102 0
M  V30 4483 C 421.243 -5.26681 -0.922573 0
M  V30 4484 C 422.543 -5.07006 1.25467 0
M  V30 4485 H 424.237 -2.82698 0.986008 0
M  V30 4486 H 421.783 -1.3592 0.475592 0
M  V30 4487 H 423.736 -4.06423 -1.11348 0
M  V30 4488 H 422.46 -2.89025 -1.52093 0
M  V30 4489 H 421.119 -3.63478 0.47739 0
M  V30 4490 H 420.767 -4.71565 -1.7503 0
M  V30 4491 H 420.467 -5.86103 -0.419237 0
M  V30 4492 H 421.991 -5.9556 -1.34686 0
M  V30 4493 H 423.405 -5.66105 0.905401 0
M  V30 4494 H 421.802 -5.75793 1.69063 0
M  V30 4495 H 422.872 -4.3921 2.05481 0
M  V30 4496 N 424.215 -0.530993 -1.48385 0
M  V30 4497 C 425.147 0.268353 -2.27624 0
M  V30 4498 C 426.16 0.903525 -1.35426 0
M  V30 4499 O 427.349 0.781796 -1.60469 0
M  V30 4500 C 424.449 1.39535 -3.08842 0
M  V30 4501 C 423.622 0.861913 -4.28824 0
M  V30 4502 C 422.681 1.87016 -4.91845 0
M  V30 4503 O 421.707 1.4267 -5.5103 0
M  V30 4504 N 422.909 3.20238 -4.84178 0
M  V30 4505 H 425.674 -0.41123 -2.96865 0
M  V30 4506 H 423.235 -0.365387 -1.57723 0
M  V30 4507 H 425.227 2.06803 -3.47871 0
M  V30 4508 H 423.797 1.97859 -2.42014 0
M  V30 4509 H 423.017 0.0132126 -3.94198 0
M  V30 4510 H 424.305 0.484415 -5.06489 0
M  V30 4511 H 423.703 3.58932 -4.37246 0
M  V30 4512 H 422.26 3.83136 -5.27305 0
M  V30 4513 N 425.693 1.55336 -0.266172 0
M  V30 4514 C 426.97 1.91372 0.404486 0
M  V30 4515 C 427.35 1.18935 1.74407 0
M  V30 4516 O 426.698 0.3132 2.26343 0
M  V30 4517 C 426.908 3.44581 0.553593 0
M  V30 4518 C 428.256 4.16196 0.840618 0
M  V30 4519 O 429.28 3.50426 0.638739 0
M  V30 4520 O 428.139 5.32567 1.22618 0
M  V30 4521 H 425.233 0.797194 0.220025 0
M  V30 4522 H 427.779 1.66813 -0.311664 0
M  V30 4523 H 426.551 3.89357 -0.389498 0
M  V30 4524 H 426.174 3.75065 1.31955 0
M  V30 4525 N 427.171 -0.0066808 1.57599 0
M  V30 4526 C 428.448 -0.729586 1.81484 0
M  V30 4527 C 428.828 -1.92359 0.869558 0
M  V30 4528 O 428.176 -2.28348 -0.0832533 0
M  V30 4529 C 428.386 -1.1416 3.29801 0
M  V30 4530 C 429.734 -1.54823 3.95367 0
M  V30 4531 O 430.758 -1.23558 3.34084 0
M  V30 4532 O 429.617 -2.12937 5.03309 0
M  V30 4533 H 426.711 -0.354674 0.747085 0
M  V30 4534 H 429.257 0.0182609 1.6969 0
M  V30 4535 H 428.029 -0.290231 3.90222 0
M  V30 4536 H 427.652 -1.94876 3.46568 0
M  V30 4537 N 428.649 -1.55105 -0.279332 0
M  V30 4538 C 429.897 -1.75066 -1.00977 0
M  V30 4539 C 430.218 -0.551276 -1.87045 0
M  V30 4540 O 429.488 0.433984 -1.91032 0
M  V30 4541 H 428.068 -0.645578 -0.375816 0
M  V30 4542 H 430.73 -1.92497 -0.305089 0
M  V30 4543 H 429.826 -2.64894 -1.65038 0
M  V30 4544 N 430.127 0.543554 -1.4793 0
M  V30 4545 C 431.057 1.65888 -1.64327 0
M  V30 4546 C 432.038 1.62818 -0.492383 0
M  V30 4547 O 433.223 1.80226 -0.723338 0
M  V30 4548 C 430.353 3.04506 -1.67013 0
M  V30 4549 C 429.307 3.2243 -2.81466 0
M  V30 4550 C 428.633 4.61972 -2.69233 0
M  V30 4551 C 429.933 3.06496 -4.22915 0
M  V30 4552 H 431.627 1.52421 -2.57698 0
M  V30 4553 H 429.173 0.731849 -1.24016 0
M  V30 4554 H 431.126 3.82391 -1.77074 0
M  V30 4555 H 429.85 3.18964 -0.70212 0
M  V30 4556 H 428.509 2.46957 -2.70938 0
M  V30 4557 H 428.157 4.73247 -1.7043 0
M  V30 4558 H 427.857 4.74911 -3.46025 0
M  V30 4559 H 429.381 5.41974 -2.81242 0
M  V30 4560 H 430.795 3.74186 -4.34348 0
M  V30 4561 H 429.192 3.30938 -5.006 0
M  V30 4562 H 430.262 2.03077 -4.40327 0
M  V30 4563 N 431.605 1.3629 0.791371 0
M  V30 4564 C 432.854 1.29742 1.54434 0
M  V30 4565 C 433.167 -0.121729 1.95221 0
M  V30 4566 O 434.373 -0.309579 2.69729 0
M  V30 4567 C 432.829 2.27623 2.78776 0
M  V30 4568 C 432.437 3.74963 2.45166 0
M  V30 4569 C 434.181 2.30047 3.56761 0
M  V30 4570 C 432.088 4.64626 3.65891 0
M  V30 4571 H 431.018 0.482113 0.579727 0
M  V30 4572 H 433.669 1.61642 0.868565 0
M  V30 4573 H 432.051 1.88714 3.48142 0
M  V30 4574 H 433.225 4.22596 1.83709 0
M  V30 4575 H 431.54 3.75295 1.80396 0
M  V30 4576 H 434.137 2.94247 4.46456 0
M  V30 4577 H 434.48 1.30846 3.95203 0
M  V30 4578 H 435.013 2.67563 2.94372 0
M  V30 4579 H 431.752 5.64883 3.32547 0
M  V30 4580 H 431.272 4.2171 4.26521 0
M  V30 4581 H 432.951 4.80801 4.32943 0
M  V30 4582 N 433.083 -1.0153 1.20538 0
M  V30 4583 C 434.36 -1.72327 0.925343 0
M  V30 4584 C 434.74 -2.03383 -0.565547 0
M  V30 4585 O 434.088 -1.69934 -1.52757 0
M  V30 4586 C 434.298 -2.9902 1.79967 0
M  V30 4587 C 435.646 -3.72258 2.04228 0
M  V30 4588 O 436.67 -3.08979 1.77231 0
M  V30 4589 O 435.529 -4.86053 2.4983 0
M  V30 4590 H 432.623 -0.751099 0.346092 0
M  V30 4591 H 435.169 -1.07366 1.31417 0
M  V30 4592 H 433.941 -2.72402 2.80915 0
M  V30 4593 H 433.564 -3.71721 1.41099 0
M  V30 4594 N 434.561 -1.01147 -1.20859 0
M  V30 4595 C 435.508 -0.577354 -2.23462 0
M  V30 4596 C 436.478 0.399922 -1.61214 0
M  V30 4597 O 437.663 0.300515 -1.88419 0
M  V30 4598 C 434.803 0.083372 -3.44999 0
M  V30 4599 C 433.916 -0.937856 -4.21697 0
M  V30 4600 C 433.051 -0.248717 -5.30617 0
M  V30 4601 C 432.09 -1.25705 -5.99053 0
M  V30 4602 N 431.227 -0.594939 -6.99575 0
M  V30 4603 H 436.067 -1.45695 -2.59956 0
M  V30 4604 H 433.604 -0.729428 -1.27741 0
M  V30 4605 H 435.562 0.483535 -4.14388 0
M  V30 4606 H 434.192 0.926645 -3.09214 0
M  V30 4607 H 433.244 -1.45622 -3.51423 0
M  V30 4608 H 434.556 -1.70493 -4.68757 0
M  V30 4609 H 433.71 0.207215 -6.06346 0
M  V30 4610 H 432.449 0.55071 -4.84581 0
M  V30 4611 H 431.454 -1.72343 -5.2209 0
M  V30 4612 H 432.679 -2.05767 -6.47176 0
M  V30 4613 H 430.625 0.184713 -6.5574 0
M  V30 4614 H 430.542 -1.30017 -7.44736 0
M  V30 4615 H 431.81 -0.162427 -7.79331 0
M  V30 4616 N 436.039 1.36541 -0.78704 0
M  V30 4617 C 437.002 2.28413 -0.189778 0
M  V30 4618 C 438.002 1.48719 0.611499 0
M  V30 4619 O 439.192 1.68737 0.432842 0
M  V30 4620 C 436.324 3.32824 0.737638 0
M  V30 4621 H 437.517 2.82743 -0.999831 0
M  V30 4622 H 435.07 1.46065 -0.556298 0
M  V30 4623 H 435.805 2.83646 1.57212 0
M  V30 4624 H 435.59 3.91752 0.165044 0
M  V30 4625 H 437.08 4.0144 1.15047 0
M  V30 4626 N 437.518 0.538854 1.48102 0
M  V30 4627 C 438.934 0.19732 1.58376 0
M  V30 4628 C 439.134 -1.29971 1.5398 0
M  V30 4629 O 438.19 -2.07861 1.43352 0
M  V30 4630 C 439.503 0.807716 2.89649 0
M  V30 4631 C 441.051 0.77726 3.03196 0
M  V30 4632 C 441.526 1.36639 4.37143 0
M  V30 4633 N 443.017 1.32875 4.43732 0
M  V30 4634 C 443.752 1.7544 5.45901 0
M  V30 4635 N 443.248 2.25776 6.54979 0
M  V30 4636 N 445.041 1.66623 5.36836 0
M  V30 4637 H 437.192 1.5117 1.49202 0
M  V30 4638 H 439.455 0.629327 0.708979 0
M  V30 4639 H 439.161 1.85909 2.98548 0
M  V30 4640 H 439.035 0.289975 3.76084 0
M  V30 4641 H 441.422 -0.265374 2.93904 0
M  V30 4642 H 441.503 1.33256 2.18349 0
M  V30 4643 H 441.147 2.408 4.47189 0
M  V30 4644 H 441.077 0.786689 5.20691 0
M  V30 4645 H 443.568 0.96037 3.65493 0
M  V30 4646 H 443.881 2.56226 7.29087 0
M  V30 4647 H 442.226 2.29775 6.55918 0
M  V30 4648 H 445.417 1.27089 4.50517 0
M  V30 4649 H 445.59 2.00115 6.16326 0
M  V30 4650 N 438.996 -1.55193 0.274407 0
M  V30 4651 C 440.221 -2.04446 -0.348824 0
M  V30 4652 C 440.646 -1.15149 -1.48735 0
M  V30 4653 O 440.004 -0.149952 -1.80679 0
M  V30 4654 C 440.052 -3.51431 -0.808009 0
M  V30 4655 O 439.156 -3.65225 -1.91531 0
M  V30 4656 H 438.497 -0.66006 -0.0722276 0
M  V30 4657 H 441.027 -2.00481 0.408498 0
M  V30 4658 H 441.037 -3.92781 -1.10395 0
M  V30 4659 H 439.712 -4.15892 0.0249865 0
M  V30 4660 H 438.289 -3.35778 -1.62196 0
M  V30 4661 N 440.474 -0.00167713 -1.576 0
M  V30 4662 C 441.704 0.692754 -1.94639 0
M  V30 4663 C 442.112 1.67744 -0.87513 0
M  V30 4664 O 441.455 1.8305 0.154382 0
M  V30 4665 C 441.517 1.47881 -3.27676 0
M  V30 4666 C 441.181 0.655518 -4.52274 0
M  V30 4667 C 442.178 -0.0575214 -5.19868 0
M  V30 4668 C 439.863 0.600994 -4.98692 0
M  V30 4669 C 441.857 -0.814052 -6.3218 0
M  V30 4670 C 439.544 -0.15926 -6.10892 0
M  V30 4671 C 440.542 -0.865515 -6.77494 0
M  V30 4672 O 440.23 -1.61336 -7.87544 0
M  V30 4673 H 439.962 0.197792 -0.646417 0
M  V30 4674 H 442.516 -0.049423 -2.05341 0
M  V30 4675 H 440.746 2.2655 -3.13388 0
M  V30 4676 H 442.435 2.05874 -3.49816 0
M  V30 4677 H 443.201 -0.0245611 -4.84994 0
M  V30 4678 H 439.08 1.14025 -4.46676 0
M  V30 4679 H 442.624 -1.36584 -6.84098 0
M  V30 4680 H 438.521 -0.194035 -6.45208 0
M  V30 4681 H 439.289 -1.53025 -8.04068 0
M  V30 4682 N 441.952 1.55251 0.271103 0
M  V30 4683 C 442.862 1.9136 1.35714 0
M  V30 4684 C 443.878 0.811075 1.5394 0
M  V30 4685 O 445.054 1.11031 1.6803 0
M  V30 4686 C 442.119 2.1798 2.69603 0
M  V30 4687 C 441.18 3.4153 2.60107 0
M  V30 4688 C 440.413 3.66871 3.8761 0
M  V30 4689 O 440.636 2.94689 4.8838 0
M  V30 4690 O 439.57 4.60405 3.87699 0
M  V30 4691 H 443.396 2.83815 1.08088 0
M  V30 4692 H 440.981 1.41821 0.469792 0
M  V30 4693 H 442.863 2.36518 3.48765 0
M  V30 4694 H 441.538 1.28708 2.97012 0
M  V30 4695 H 440.445 3.28325 1.79314 0
M  V30 4696 H 441.778 4.31027 2.37647 0
M  V30 4697 N 443.43 -0.535701 1.48216 0
M  V30 4698 C 444.679 -1.28828 1.55197 0
M  V30 4699 C 444.992 -1.94263 0.228278 0
M  V30 4700 O 446.198 -2.70927 0.176278 0
M  V30 4701 C 444.654 -2.33727 2.73678 0
M  V30 4702 C 444.262 -1.74386 4.12666 0
M  V30 4703 C 446.006 -3.1003 2.89968 0
M  V30 4704 C 443.913 -2.77192 5.22416 0
M  V30 4705 H 442.843 -0.484484 0.577747 0
M  V30 4706 H 445.494 -0.56646 1.74538 0
M  V30 4707 H 443.876 -3.08919 2.4776 0
M  V30 4708 H 445.05 -1.05421 4.48579 0
M  V30 4709 H 443.365 -1.10595 4.01445 0
M  V30 4710 H 445.962 -3.86842 3.6913 0
M  V30 4711 H 446.305 -3.65542 1.9921 0
M  V30 4712 H 446.838 -2.41952 3.15759 0
M  V30 4713 H 443.577 -2.26507 6.15122 0
M  V30 4714 H 443.097 -3.44502 4.90998 0
M  V30 4715 H 444.776 -3.40285 5.50286 0
M  V30 4716 N 444.908 -1.36708 -0.784132 0
M  V30 4717 C 446.154 -1.31426 -1.54451 0
M  V30 4718 C 446.487 0.10476 -1.93917 0
M  V30 4719 O 445.762 1.05934 -1.6312 0
M  V30 4720 C 446.045 -2.24189 -2.818 0
M  V30 4721 C 445.898 -3.74813 -2.48667 0
M  V30 4722 C 447.217 -2.15626 -3.83658 0
M  V30 4723 H 444.336 -0.478739 -0.560337 0
M  V30 4724 H 446.978 -1.67305 -0.900498 0
M  V30 4725 H 445.128 -1.93722 -3.36755 0
M  V30 4726 H 446.8 -4.15823 -1.99722 0
M  V30 4727 H 445.043 -3.93989 -1.81535 0
M  V30 4728 H 445.714 -4.35138 -3.39646 0
M  V30 4729 H 448.19 -2.42456 -3.38163 0
M  V30 4730 H 447.066 -2.82694 -4.70506 0
M  V30 4731 H 447.327 -1.14522 -4.27009 0
M  V30 4732 N 446.386 1.0089 -1.21074 0
M  V30 4733 C 447.296 2.13039 -0.982425 0
M  V30 4734 C 448.312 1.73881 0.0642161 0
M  V30 4735 O 449.488 2.01012 -0.12496 0
M  V30 4736 C 446.553 3.42377 -0.545803 0
M  V30 4737 C 445.614 3.95731 -1.6642 0
M  V30 4738 C 444.847 5.18896 -1.24832 0
M  V30 4739 O 445.07 5.70273 -0.120265 0
M  V30 4740 O 444.004 5.65597 -2.05873 0
M  V30 4741 H 447.83 2.35175 -1.92163 0
M  V30 4742 H 445.415 1.1142 -0.995285 0
M  V30 4743 H 447.297 4.20244 -0.311912 0
M  V30 4744 H 445.972 3.21639 0.364727 0
M  V30 4745 H 444.879 3.19108 -1.95246 0
M  V30 4746 H 446.212 4.20872 -2.55201 0
M  V30 4747 N 447.864 1.01787 1.20321 0
M  V30 4748 C 449.112 0.706538 1.89347 0
M  V30 4749 C 449.433 -0.766289 1.79313 0
M  V30 4750 O 448.703 -1.55126 1.19635 0
M  V30 4751 H 447.283 0.258348 0.700903 0
M  V30 4752 H 449.945 1.28974 1.46122 0
M  V30 4753 H 449.041 0.991066 2.95946 0
M  V30 4754 N 449.342 -1.36122 0.79427 0
M  V30 4755 C 450.305 -2.28309 0.201889 0
M  V30 4756 C 451.305 -1.49041 -0.603603 0
M  V30 4757 O 452.495 -1.68964 -0.423888 0
M  V30 4758 C 449.627 -3.3321 -0.719978 0
M  V30 4759 H 450.82 -2.82208 1.01481 0
M  V30 4760 H 448.373 -1.45768 0.564037 0
M  V30 4761 H 449.108 -2.84475 -1.55706 0
M  V30 4762 H 448.893 -3.91835 -0.144266 0
M  V30 4763 H 450.383 -4.02044 -1.12916 0
M  V30 4764 N 450.82 -0.546701 -1.47814 0
M  V30 4765 C 451.783 0.196287 -2.28358 0
M  V30 4766 C 452.783 0.852437 -1.36346 0
M  V30 4767 O 453.973 0.709913 -1.59078 0
M  V30 4768 C 451.105 1.28579 -3.15722 0
M  V30 4769 H 452.298 -0.511086 -2.95513 0
M  V30 4770 H 449.851 -0.303248 -1.5333 0
M  V30 4771 H 450.586 2.0259 -2.53235 0
M  V30 4772 H 450.371 0.820229 -3.83425 0
M  V30 4773 H 451.861 1.80793 -3.76435 0
M  V30 4774 N 452.299 1.55045 -0.282633 0
M  V30 4775 C 453.247 2.24254 0.617478 0
M  V30 4776 C 454.241 1.24215 1.15183 0
M  V30 4777 O 455.447 1.42123 1.10459 0
M  V30 4778 H 451.822 0.719801 0.217693 0
M  V30 4779 H 453.793 2.98398 0.0110076 0
M  V30 4780 C 452.542 2.98281 1.78672 0
M  V30 4781 H 451.865 3.75053 1.38475 0
M  V30 4782 H 453.305 3.50017 2.393 0
M  V30 4783 C 451.764 2.04184 2.67975 0
M  V30 4784 O 452.294 1.59792 3.6855 0
M  V30 4785 N 450.5 1.70526 2.35307 0
M  V30 4786 H 450.047 2.06821 1.53567 0
M  V30 4787 H 450.005 1.07839 2.95327 0
M  V30 4788 N 453.777 0.010035 1.57597 0
M  V30 4789 C 455.024 -0.6727 1.91 0
M  V30 4790 C 455.352 -1.73219 0.884614 0
M  V30 4791 O 454.607 -1.95395 -0.109215 0
M  V30 4792 C 454.906 -1.34434 3.31153 0
M  V30 4793 C 454.572 -0.417083 4.48967 0
M  V30 4794 C 453.234 -0.161809 4.80928 0
M  V30 4795 C 455.586 0.220753 5.20732 0
M  V30 4796 C 452.914 0.739426 5.82022 0
M  V30 4797 C 455.266 1.10993 6.22787 0
M  V30 4798 C 453.93 1.37428 6.532 0
M  V30 4799 H 453.2 -0.246158 0.698918 0
M  V30 4800 H 455.847 0.0677145 1.9138 0
M  V30 4801 H 454.152 -2.15905 3.26944 0
M  V30 4802 H 455.849 -1.87883 3.54261 0
M  V30 4803 H 452.439 -0.626217 4.24001 0
M  V30 4804 H 456.623 0.0365643 4.96287 0
M  V30 4805 H 451.879 0.952139 6.03941 0
M  V30 4806 H 456.053 1.61046 6.77523 0
M  V30 4807 H 453.68 2.0743 7.31353 0
M  V30 4808 N 455.255 -1.55392 -0.262866 0
M  V30 4809 C 456.503 -1.76127 -0.991147 0
M  V30 4810 C 456.824 -0.571083 -1.8645 0
M  V30 4811 O 456.094 0.413698 -1.91482 0
M  V30 4812 H 454.674 -0.649528 -0.368948 0
M  V30 4813 H 457.336 -1.9281 -0.284655 0
M  V30 4814 H 456.432 -2.6663 -1.62219 0
M  V30 4815 N 456.733 0.527833 -1.48498 0
M  V30 4816 C 457.696 1.61439 -1.62696 0
M  V30 4817 C 458.696 1.52824 -0.500136 0
M  V30 4818 O 459.886 1.56456 -0.765976 0
M  V30 4819 C 457.018 3.01063 -1.59918 0
M  V30 4820 H 458.211 1.50189 -2.59583 0
M  V30 4821 H 455.764 0.750055 -1.37127 0
M  V30 4822 H 456.499 3.17818 -0.645163 0
M  V30 4823 H 456.284 3.08725 -2.41726 0
M  V30 4824 H 457.774 3.80057 -1.73051 0
M  V30 4825 N 458.211 1.37122 0.776871 0
M  V30 4826 C 459.174 1.32301 1.8716 0
M  V30 4827 C 460.174 0.228099 1.59174 0
M  V30 4828 O 461.364 0.483642 1.67352 0
M  V30 4829 C 458.496 1.054 3.24197 0
M  V30 4830 H 459.689 2.29673 1.92848 0
M  V30 4831 H 457.242 1.22077 0.97606 0
M  V30 4832 H 457.977 0.0853872 3.24188 0
M  V30 4833 H 457.762 1.84648 3.45901 0
M  V30 4834 H 459.252 1.04664 4.04271 0
M  V30 4835 N 459.689 -1.00246 1.21608 0
M  V30 4836 C 460.619 -2.10921 1.00172 0
M  V30 4837 C 461.6 -1.69938 -0.0741587 0
M  V30 4838 O 462.785 -1.94009 0.0861753 0
M  V30 4839 C 459.915 -3.42618 0.568355 0
M  V30 4840 C 458.869 -3.97407 1.58909 0
M  V30 4841 C 458.195 -5.25038 1.01187 0
M  V30 4842 C 459.495 -4.2918 2.97661 0
M  V30 4843 H 461.189 -2.29112 1.92739 0
M  V30 4844 H 458.735 -1.10101 0.928102 0
M  V30 4845 H 460.688 -4.19444 0.405555 0
M  V30 4846 H 459.412 -3.24227 -0.392961 0
M  V30 4847 H 458.071 -3.22703 1.73949 0
M  V30 4848 H 457.719 -5.02982 0.0421965 0
M  V30 4849 H 457.419 -5.62661 1.6937 0
M  V30 4850 H 458.943 -6.04507 0.860448 0
M  V30 4851 H 460.357 -4.96839 2.86049 0
M  V30 4852 H 458.754 -4.77952 3.6288 0
M  V30 4853 H 459.824 -3.3735 3.48315 0
M  V30 4854 N 461.167 -1.02423 -1.1978 0
M  V30 4855 C 462.099 -0.559152 -2.22275 0
M  V30 4856 C 463.112 0.36251 -1.58713 0
M  V30 4857 O 464.301 0.159641 -1.77785 0
M  V30 4858 C 461.401 0.205094 -3.38279 0
M  V30 4859 C 460.574 -0.720361 -4.31427 0
M  V30 4860 C 459.633 -0.00234368 -5.262 0
M  V30 4861 O 458.659 -0.627378 -5.65732 0
M  V30 4862 N 459.861 1.26996 -5.66438 0
M  V30 4863 H 462.626 -1.44064 -2.62804 0
M  V30 4864 H 460.187 -0.902692 -1.34399 0
M  V30 4865 H 462.179 0.694868 -3.9869 0
M  V30 4866 H 460.749 0.987947 -2.96578 0
M  V30 4867 H 459.969 -1.39031 -3.68869 0
M  V30 4868 H 461.257 -1.3495 -4.90577 0
M  V30 4869 H 460.655 1.79858 -5.36347 0
M  V30 4870 H 459.212 1.70432 -6.29123 0
M  V30 4871 N 462.645 1.35699 -0.801477 0
M  V30 4872 C 464.061 1.52065 -0.484596 0
M  V30 4873 C 464.261 1.75215 0.995084 0
M  V30 4874 O 463.317 1.79061 1.78026 0
M  V30 4875 C 464.63 2.69908 -1.32552 0
M  V30 4876 C 466.178 2.83784 -1.32044 0
M  V30 4877 C 466.653 4.04646 -2.14536 0
M  V30 4878 N 468.144 4.11814 -2.12046 0
M  V30 4879 C 468.879 5.04437 -2.72636 0
M  V30 4880 N 468.375 6.02426 -3.42133 0
M  V30 4881 N 470.168 4.97144 -2.62305 0
M  V30 4882 H 462.319 1.18928 -1.75983 0
M  V30 4883 H 464.582 0.581455 -0.748741 0
M  V30 4884 H 464.288 2.59363 -2.37537 0
M  V30 4885 H 464.162 3.64376 -0.975181 0
M  V30 4886 H 466.549 2.93783 -0.27846 0
M  V30 4887 H 466.63 1.90188 -1.71062 0
M  V30 4888 H 466.274 3.95407 -3.18772 0
M  V30 4889 H 466.204 4.97413 -1.72882 0
M  V30 4890 H 468.695 3.41664 -1.61476 0
M  V30 4891 H 469.008 6.69688 -3.85666 0
M  V30 4892 H 467.353 6.02615 -3.46237 0
M  V30 4893 H 470.544 4.19546 -2.07603 0
M  V30 4894 H 470.717 5.69138 -3.09815 0
M  V30 4895 N 464.123 0.554532 1.47522 0
M  V30 4896 C 465.371 0.0294208 2.02079 0
M  V30 4897 C 465.692 -1.32411 1.43151 0
M  V30 4898 O 464.962 -1.863 0.605728 0
M  V30 4899 H 463.542 0.00788672 0.746958 0
M  V30 4900 H 466.204 0.723934 1.80956 0
M  V30 4901 H 465.3 -0.0606745 3.12041 0
M  V30 4902 N 465.601 -1.54893 0.290851 0
M  V30 4903 C 466.878 -1.91991 -0.373989 0
M  V30 4904 C 467.258 -1.21694 -1.72493 0
M  V30 4905 O 466.606 -0.34917 -2.25816 0
M  V30 4906 C 466.816 -3.45419 -0.498703 0
M  V30 4907 C 468.164 -4.1748 -0.774298 0
M  V30 4908 O 469.188 -3.51398 -0.582908 0
M  V30 4909 O 468.047 -5.3445 -1.14129 0
M  V30 4910 H 465.141 -0.800593 -0.207315 0
M  V30 4911 H 467.687 -1.66297 0.338164 0
M  V30 4912 H 466.459 -3.88688 0.451392 0
M  V30 4913 H 466.082 -3.77117 -1.25972 0
M  V30 4914 N 467.08 -0.0183926 -1.57589 0
M  V30 4915 C 468.326 0.663543 -1.91638 0
M  V30 4916 C 468.659 1.72392 -0.894134 0
M  V30 4917 O 467.934 1.94316 0.0846449 0
M  V30 4918 C 468.217 1.28984 -3.36207 0
M  V30 4919 C 468.07 0.239761 -4.49161 0
M  V30 4920 C 469.389 2.2109 -3.80536 0
M  V30 4921 H 466.508 0.239746 -0.696915 0
M  V30 4922 H 469.15 -0.073456 -1.89858 0
M  V30 4923 H 467.3 1.91799 -3.37854 0
M  V30 4924 H 468.972 -0.390119 -4.59647 0
M  V30 4925 H 467.215 -0.435972 -4.31604 0
M  V30 4926 H 467.886 0.717383 -5.47319 0
M  V30 4927 H 470.362 1.68273 -3.80557 0
M  V30 4928 H 469.238 2.61869 -4.82406 0
M  V30 4929 H 469.499 3.09764 -3.15434 0
M  V30 4930 N 468.558 1.5553 0.254621 0
M  V30 4931 C 469.521 1.88872 1.29846 0
M  V30 4932 C 470.521 0.764591 1.41459 0
M  V30 4933 O 471.711 1.03265 1.40293 0
M  V30 4934 C 468.843 2.11032 2.67728 0
M  V30 4935 H 470.036 2.82201 1.01502 0
M  V30 4936 H 467.589 1.48303 0.493556 0
M  V30 4937 H 468.324 1.20146 3.01223 0
M  V30 4938 H 468.109 2.92895 2.60682 0
M  V30 4939 H 469.599 2.38038 3.43115 0
M  V30 4940 N 470.036 -0.519951 1.48776 0
M  V30 4941 C 471.261 -1.30447 1.6124 0
M  V30 4942 C 471.686 -1.86055 0.276591 0
M  V30 4943 O 471.044 -1.64915 -0.753183 0
M  V30 4944 C 471.092 -2.42406 2.66967 0
M  V30 4945 O 470.196 -3.45728 2.24824 0
M  V30 4946 H 469.537 -0.385924 0.540332 0
M  V30 4947 H 472.067 -0.624572 1.94834 0
M  V30 4948 H 472.077 -2.88447 2.88552 0
M  V30 4949 H 470.752 -2.01294 3.63941 0
M  V30 4950 H 469.329 -3.05737 2.13494 0
M  V30 4951 O 471.553 -1.47171 -0.665045 0
M  V30 4952 H 472.244 -1.41937 -1.31809 0
M  V30 END ATOM
M  V30 BEGIN BOND
M  V30 END BOND
M  V30 END CTAB
M  END
$$$$
