drugbank_target|P05231 Interleukin-6 (DB01404; DB05017; DB05470; DB05513; DB05744; DB05767; DB06083; DB09036; DB09221; DB10770; DB10772; DB11967; DB12140)
 OpenBabel12092119433D

  0  0  0     0  0            999 V3000
M  V30 BEGIN CTAB
M  V30 COUNTS 3347 3375 0 0 0
M  V30 BEGIN ATOM
M  V30 1 H -0.908 1.98254 -0.117106 0
M  V30 2 N 0 1.576 0 0
M  V30 3 C 0.933 2.03868 1.02534 0
M  V30 4 C 1.911 0.928543 1.3348 0
M  V30 5 O 3.095 1.19667 1.45644 0
M  V30 6 C 0.222 2.43627 2.35294 0
M  V30 7 C -0.732 3.65373 2.2001 0
M  V30 8 S 0.101 5.13292 1.52614 0
M  V30 9 C 1.257 5.56322 2.86805 0
M  V30 10 H 1.49 2.90518 0.631377 0
M  V30 11 H -0.977 1.52953 0.210867 0
M  V30 12 H 0.981 2.67203 3.11629 0
M  V30 13 H -0.358 1.57376 2.7183 0
M  V30 14 H -1.165 3.90944 3.18086 0
M  V30 15 H -1.563 3.418 1.51819 0
M  V30 16 H 0.729 5.58782 3.83104 0
M  V30 17 H 1.672 6.56266 2.65933 0
M  V30 18 H 2.08 4.83886 2.90714 0
M  V30 19 N 1.4781 -0.272755 1.55222 0
M  V30 20 C 2.4261 -1.35705 1.88909 0
M  V30 21 C 3.4201 -1.5112 0.765456 0
M  V30 22 O 4.6261 -1.52901 0.949802 0
M  V30 23 H 1.0011 -0.453868 0.59959 0
M  V30 24 H 2.9721 -1.04544 2.79487 0
M  V30 25 C 1.7211 -2.71049 2.17779 0
M  V30 26 H 1.0441 -2.59979 3.03728 0
M  V30 27 H 2.4841 -3.45858 2.45272 0
M  V30 28 C 0.9431 -3.22165 0.985473 0
M  V30 29 O 1.4731 -4.01096 0.220233 0
M  V30 30 N -0.3209 -2.7985 0.783108 0
M  V30 31 H -0.7739 -2.15775 1.40708 0
M  V30 32 H -0.8159 -3.14397 -0.0130392 0
M  V30 33 N 2.9562 -1.48159 -0.537278 0
M  V30 34 C 4.1812 -1.59707 -1.32319 0
M  V30 35 C 4.6062 -0.254859 -1.86365 0
M  V30 36 O 3.9642 0.772378 -1.64024 0
M  V30 37 C 4.0122 -2.6412 -2.45505 0
M  V30 38 O 3.1162 -2.20774 -3.48328 0
M  V30 39 H 2.4572 -0.535791 -0.392204 0
M  V30 40 H 4.9872 -1.94092 -0.647268 0
M  V30 41 H 4.9972 -2.85166 -2.91795 0
M  V30 42 H 3.6722 -3.61567 -2.05528 0
M  V30 43 H 2.2492 -2.09911 -3.08207 0
M  V30 44 N 4.4343 0.785586 -1.36625 0
M  V30 45 C 5.6813 1.54362 -1.31067 0
M  V30 46 C 6.0093 1.94195 0.10893 0
M  V30 47 O 5.2643 1.63262 1.07908 0
M  V30 48 C 5.5633 2.83007 -2.1827 0
M  V30 49 C 5.2293 2.62294 -3.6676 0
M  V30 50 C 3.8913 2.56353 -4.0723 0
M  V30 51 C 6.2433 2.43371 -4.6089 0
M  V30 52 C 3.5713 2.29461 -5.39967 0
M  V30 53 C 5.9233 2.18005 -5.93849 0
M  V30 54 C 4.5873 2.105 -6.3344 0
M  V30 55 H 3.8573 0.564851 -0.479609 0
M  V30 56 H 6.5043 0.906028 -1.68711 0
M  V30 57 H 4.8093 3.51253 -1.73576 0
M  V30 58 H 6.5063 3.40817 -2.11292 0
M  V30 59 H 3.0963 2.67774 -3.34656 0
M  V30 60 H 7.2803 2.46959 -4.30494 0
M  V30 61 H 2.5363 2.22135 -5.69619 0
M  V30 62 H 6.7103 2.02359 -6.66351 0
M  V30 63 H 4.3373 1.89425 -7.36222 0
M  V30 64 N 5.9124 1.20967 1.01018 0
M  V30 65 C 7.1374 1.0503 1.78839 0
M  V30 66 C 7.5624 -0.395752 1.8389 0
M  V30 67 O 6.9204 -1.28529 1.27867 0
M  V30 68 C 6.9684 1.64602 3.2084 0
M  V30 69 O 6.0724 0.887988 4.02726 0
M  V30 70 H 5.4134 0.369987 0.551367 0
M  V30 71 H 7.9434 1.60399 1.27018 0
M  V30 72 H 7.9534 1.68607 3.71532 0
M  V30 73 H 6.6284 2.69841 3.16479 0
M  V30 74 H 5.2054 0.922648 3.61305 0
M  V30 75 N 7.3905 -1.2043 1.01659 0
M  V30 76 C 8.6185 -1.93777 0.725132 0
M  V30 77 C 9.0335 -1.74772 -0.714166 0
M  V30 78 O 8.3905 -1.06169 -1.4844 0
M  V30 79 C 8.4415 -3.45876 1.05129 0
M  V30 80 O 8.1625 -3.6426 2.43406 0
M  V30 81 C 9.6635 -4.36368 0.780891 0
M  V30 82 H 6.8835 -0.615901 0.266284 0
M  V30 83 H 9.4275 -1.52922 1.35776 0
M  V30 84 H 7.5825 -3.8461 0.464065 0
M  V30 85 H 7.9965 -4.58246 2.55169 0
M  V30 86 H 9.4705 -5.41743 1.05918 0
M  V30 87 H 9.9475 -4.38275 -0.284937 0
M  V30 88 H 10.5535 -4.03296 1.35027 0
M  V30 89 N 8.8686 -0.792821 -1.36206 0
M  V30 90 C 10.0936 -0.377701 -2.03932 0
M  V30 91 C 10.5186 0.998947 -1.59382 0
M  V30 92 O 9.8766 1.64421 -0.763903 0
M  V30 93 C 9.9246 -0.453635 -3.57735 0
M  V30 94 O 9.0286 0.538151 -4.08874 0
M  V30 95 H 8.3696 -0.159855 -0.644471 0
M  V30 96 H 10.8996 -1.07488 -1.7409 0
M  V30 97 H 10.9096 -0.318464 -4.06755 0
M  V30 98 H 9.5846 -1.45784 -3.89512 0
M  V30 99 H 8.1616 0.364359 -3.71116 0
M  V30 100 N 10.3467 1.47872 -0.545128 0
M  V30 101 C 11.3097 2.28337 0.198717 0
M  V30 102 C 12.3097 1.36255 0.853888 0
M  V30 103 O 13.4997 1.59003 0.711606 0
M  V30 104 C 10.6317 3.15585 1.28915 0
M  V30 105 H 11.8247 2.95567 -0.507941 0
M  V30 106 H 9.3777 1.53362 -0.301616 0
M  V30 107 H 10.1127 2.53019 2.02859 0
M  V30 108 H 9.8977 3.83337 0.824309 0
M  V30 109 H 11.3877 3.76243 1.81194 0
M  V30 110 N 11.8248 0.280983 1.55075 0
M  V30 111 C 13.0718 -0.334115 1.99725 0
M  V30 112 C 13.3998 -1.5542 1.1694 0
M  V30 113 O 12.6548 -1.94361 0.228531 0
M  V30 114 C 12.9538 -0.754656 3.49342 0
M  V30 115 C 12.6198 0.361445 4.49449 0
M  V30 116 C 11.2818 0.667893 4.76542 0
M  V30 117 C 13.6338 1.11322 5.09173 0
M  V30 118 C 10.9618 1.7296 5.60626 0
M  V30 119 C 13.3138 2.1647 5.9441 0
M  V30 120 C 11.9778 2.47742 6.19822 0
M  V30 121 H 11.2478 -0.122261 0.730844 0
M  V30 122 H 13.8948 0.395917 1.87363 0
M  V30 123 H 12.1998 -1.56446 3.5921 0
M  V30 124 H 13.8968 -1.24142 3.813 0
M  V30 125 H 10.4868 0.112481 4.28452 0
M  V30 126 H 14.6708 0.88973 4.8826 0
M  V30 127 H 9.9268 1.97684 5.78559 0
M  V30 128 H 14.1008 2.75193 6.3972 0
M  V30 129 H 11.7278 3.30145 6.84769 0
M  V30 130 N 13.3029 -1.57598 0.00835791 0
M  V30 131 C 14.5509 -1.90551 -0.6734 0
M  V30 132 C 14.8719 -0.883301 -1.73847 0
M  V30 133 O 14.1419 0.0781442 -1.95744 0
M  V30 134 H 12.7219 -0.703312 -0.251717 0
M  V30 135 H 15.3839 -1.94833 0.0512592 0
M  V30 136 H 14.4799 -2.9056 -1.13935 0
M  V30 137 N 14.781 0.264519 -1.55364 0
M  V30 138 C 16.192 0.834936 -1.6699 0
M  V30 139 C 16.543 1.86718 -0.602552 0
M  V30 140 O 15.668 2.14899 0.254425 0
M  V30 141 C 16.263 1.5212 -3.02729 0
M  V30 142 C 14.822 2.03954 -3.16354 0
M  V30 143 C 13.969 0.884498 -2.62815 0
M  V30 144 H 16.92 0.0406869 -1.58648 0
M  V30 145 H 16.941 2.38853 -2.96191 0
M  V30 146 H 16.453 0.769668 -3.80392 0
M  V30 147 H 14.554 2.82041 -2.43482 0
M  V30 148 H 14.667 2.24902 -4.23032 0
M  V30 149 H 13.031 1.2802 -2.20188 0
M  V30 150 H 13.814 0.14634 -3.42988 0
M  V30 151 N 16.2591 1.48442 0.529413 0
M  V30 152 C 17.5051 1.5672 1.28711 0
M  V30 153 C 17.8381 0.2406 1.92704 0
M  V30 154 O 17.1131 -0.753454 1.79313 0
M  V30 155 C 17.3961 2.70587 2.37603 0
M  V30 156 C 17.2491 4.12953 1.78297 0
M  V30 157 C 18.5681 2.80212 3.39366 0
M  V30 158 H 15.6871 0.570474 0.466613 0
M  V30 159 H 18.3291 1.80617 0.589706 0
M  V30 160 H 16.4791 2.50342 2.97088 0
M  V30 161 H 18.1511 4.44639 1.22858 0
M  V30 162 H 16.3941 4.19927 1.0883 0
M  V30 163 H 17.0651 4.88448 2.57144 0
M  V30 164 H 19.5411 2.98553 2.89836 0
M  V30 165 H 18.4171 3.61611 4.12951 0
M  V30 166 H 18.6781 1.88393 3.99951 0
M  V30 167 N 17.7372 -0.778329 1.37039 0
M  V30 168 C 18.7002 -1.87301 1.32102 0
M  V30 169 C 19.7002 -1.59198 0.226405 0
M  V30 170 O 20.8902 -1.67403 0.481861 0
M  V30 171 C 18.0222 -3.24309 1.05055 0
M  V30 172 H 19.2152 -1.93093 2.29467 0
M  V30 173 H 16.7682 -0.977358 1.21973 0
M  V30 174 H 17.5032 -3.24196 0.0819373 0
M  V30 175 H 17.2882 -3.46098 1.84279 0
M  V30 176 H 18.7782 -4.04382 1.04234 0
M  V30 177 N 19.2153 -1.21501 -1.00376 0
M  V30 178 C 20.4623 -1.03299 -1.74171 0
M  V30 179 C 20.7903 0.433326 -1.89612 0
M  V30 180 O 20.0453 1.33779 -1.42834 0
M  V30 181 C 20.3443 -1.67673 -3.15627 0
M  V30 182 C 20.0103 -3.17533 -3.2013 0
M  V30 183 C 18.6723 -3.58427 -3.21067 0
M  V30 184 C 21.0243 -4.13504 -3.17275 0
M  V30 185 C 18.3523 -4.93794 -3.16835 0
M  V30 186 C 20.7043 -5.48834 -3.14585 0
M  V30 187 C 19.3683 -5.89123 -3.13831 0
M  V30 188 H 18.6383 -0.377999 -0.637336 0
M  V30 189 H 21.2853 -1.51111 -1.17634 0
M  V30 190 H 19.5903 -1.12158 -3.75404 0
M  V30 191 H 21.2873 -1.51091 -3.71446 0
M  V30 192 H 17.8773 -2.84965 -3.20145 0
M  V30 193 H 22.0613 -3.82936 -3.15711 0
M  V30 194 H 17.3173 -5.24255 -3.1459 0
M  V30 195 H 21.4913 -6.22934 -3.1133 0
M  V30 196 H 19.1183 -6.93984 -3.10307 0
M  V30 197 N 20.6934 1.19889 -1.02296 0
M  V30 198 C 21.9184 1.9393 -0.735237 0
M  V30 199 C 22.3434 1.74639 0.698782 0
M  V30 200 O 21.7014 1.04481 1.48167 0
M  V30 201 C 21.7494 3.43916 -1.08417 0
M  V30 202 O 20.8534 4.11917 -0.199446 0
M  V30 203 H 20.1944 0.605645 -0.272196 0
M  V30 204 H 22.7244 1.52137 -1.36804 0
M  V30 205 H 22.7344 3.9456 -1.03856 0
M  V30 206 H 21.4094 3.5728 -2.12894 0
M  V30 207 H 19.9864 3.71666 -0.303136 0
M  V30 208 N 22.1715 0.800033 1.35784 0
M  V30 209 C 23.1015 0.220184 2.3246 0
M  V30 210 C 24.0825 -0.65073 1.57161 0
M  V30 211 O 25.2675 -0.582359 1.85263 0
M  V30 212 C 22.3975 -0.637353 3.41402 0
M  V30 213 C 21.3515 0.134531 4.27789 0
M  V30 214 C 20.6775 -0.844285 5.27992 0
M  V30 215 C 21.9775 1.32979 5.05088 0
M  V30 216 H 23.6715 1.02787 2.81203 0
M  V30 217 H 21.2175 0.495717 1.35199 0
M  V30 218 H 23.1705 -1.05302 4.08031 0
M  V30 219 H 21.8945 -1.47785 2.91251 0
M  V30 220 H 20.5535 0.531296 3.6273 0
M  V30 221 H 20.2015 -1.68011 4.74111 0
M  V30 222 H 19.9015 -0.332184 5.8666 0
M  V30 223 H 21.4255 -1.2583 5.97494 0
M  V30 224 H 22.8395 0.98934 5.64699 0
M  V30 225 H 21.2365 1.77593 5.7322 0
M  V30 226 H 22.3065 2.11978 4.36111 0
M  V30 227 N 23.6496 -1.47581 0.552962 0
M  V30 228 C 24.8976 -2.02082 0.0272703 0
M  V30 229 C 25.2186 -1.4301 -1.32563 0
M  V30 230 O 24.4886 -0.603745 -1.86365 0
M  V30 231 H 23.0686 -0.746966 0.00709182 0
M  V30 232 H 25.7306 -1.81033 0.722008 0
M  V30 233 H 24.8266 -3.12034 -0.0639951 0
M  V30 234 N 25.1277 -0.289203 -1.54924 0
M  V30 235 C 26.0577 0.58549 -2.2604 0
M  V30 236 C 27.0387 1.14753 -1.25562 0
M  V30 237 O 28.2237 1.17906 -1.54311 0
M  V30 238 C 25.3537 1.76305 -2.99222 0
M  V30 239 C 24.3077 1.33191 -4.06748 0
M  V30 240 C 23.6337 2.5937 -4.6758 0
M  V30 241 C 24.9337 0.471775 -5.20165 0
M  V30 242 H 26.6277 -0.00763532 -2.99399 0
M  V30 243 H 24.1737 -0.00511229 -1.43999 0
M  V30 244 H 26.1267 2.38097 -3.47689 0
M  V30 245 H 24.8507 2.38223 -2.23422 0
M  V30 246 H 23.5097 0.737121 -3.59113 0
M  V30 247 H 23.1577 3.19576 -3.88433 0
M  V30 248 H 22.8577 2.31228 -5.40192 0
M  V30 249 H 24.3817 3.21985 -5.18804 0
M  V30 250 H 25.7957 0.995056 -5.64599 0
M  V30 251 H 24.1927 0.284639 -5.99425 0
M  V30 252 H 25.2627 -0.506041 -4.82252 0
M  V30 253 N 26.6058 1.57591 -0.0167156 0
M  V30 254 C 27.5358 2.12496 0.967858 0
M  V30 255 C 28.5168 1.03807 1.34752 0
M  V30 256 O 29.7018 1.31577 1.42833 0
M  V30 257 C 26.8318 2.64194 2.25431 0
M  V30 258 C 25.7858 3.77559 2.01576 0
M  V30 259 C 25.1118 4.15636 3.36379 0
M  V30 260 C 26.4118 5.04151 1.36489 0
M  V30 261 H 28.1058 2.95013 0.510643 0
M  V30 262 H 25.6518 1.41915 0.244181 0
M  V30 263 H 27.6048 3.01236 2.94678 0
M  V30 264 H 26.3288 1.78821 2.73296 0
M  V30 265 H 24.9878 3.40937 1.34751 0
M  V30 266 H 24.6358 3.27263 3.81979 0
M  V30 267 H 24.3358 4.92022 3.21229 0
M  V30 268 H 25.8598 4.5525 4.06915 0
M  V30 269 H 27.2738 5.38857 1.95718 0
M  V30 270 H 25.6708 5.85453 1.31776 0
M  V30 271 H 26.7408 4.83733 0.336219 0
M  V30 272 N 28.0839 -0.256276 1.55502 0
M  V30 273 C 29.0139 -1.32102 1.92539 0
M  V30 274 C 29.9949 -1.50684 0.789194 0
M  V30 275 O 31.1799 -1.63449 1.04872 0
M  V30 276 C 28.3099 -2.67752 2.21192 0
M  V30 277 C 27.2639 -2.63878 3.36975 0
M  V30 278 C 26.5899 -4.03236 3.51147 0
M  V30 279 C 27.8899 -2.21682 4.72921 0
M  V30 280 H 29.5839 -1.01351 2.81724 0
M  V30 281 H 27.1299 -0.486105 1.35547 0
M  V30 282 H 29.0829 -3.42365 2.45691 0
M  V30 283 H 27.8069 -3.0012 1.28824 0
M  V30 284 H 26.4659 -1.91722 3.12471 0
M  V30 285 H 26.1139 -4.32854 2.56216 0
M  V30 286 H 25.8139 -4.01535 4.29003 0
M  V30 287 H 27.3379 -4.79563 3.77957 0
M  V30 288 H 28.7519 -2.86023 4.96854 0
M  V30 289 H 27.1489 -2.3111 5.53812 0
M  V30 290 H 28.2189 -1.16833 4.70615 0
M  V30 291 N 29.562 -1.4872 -0.521534 0
M  V30 292 C 30.808 -1.574 -1.27879 0
M  V30 293 C 31.141 -0.250817 -1.92573 0
M  V30 294 O 30.416 0.743934 -1.79711 0
M  V30 295 C 30.699 -2.71843 -2.36164 0
M  V30 296 C 30.552 -4.13893 -1.76105 0
M  V30 297 C 31.871 -2.82008 -3.37875 0
M  V30 298 H 28.99 -0.572941 -0.463581 0
M  V30 299 H 31.632 -1.80927 -0.580119 0
M  V30 300 H 29.782 -2.51914 -2.95756 0
M  V30 301 H 31.454 -4.45284 -1.20499 0
M  V30 302 H 29.697 -4.20498 -1.06601 0
M  V30 303 H 30.368 -4.89804 -2.5455 0
M  V30 304 H 32.844 -3.00086 -2.88249 0
M  V30 305 H 31.72 -3.63796 -4.11028 0
M  V30 306 H 31.981 -1.90511 -3.98946 0
M  V30 307 N 31.0401 0.771051 -1.3745 0
M  V30 308 C 31.9701 1.89827 -1.3597 0
M  V30 309 C 32.9511 1.68562 -0.228216 0
M  V30 310 O 34.1361 1.8941 -0.428675 0
M  V30 311 C 31.2661 3.2712 -1.16662 0
M  V30 312 C 30.2201 3.6295 -2.2683 0
M  V30 313 C 29.5461 4.98791 -1.92644 0
M  V30 314 C 30.8461 3.69627 -3.69017 0
M  V30 315 H 32.5401 1.91323 -2.30295 0
M  V30 316 H 30.0861 0.919082 -1.10855 0
M  V30 317 H 32.0391 4.05615 -1.14256 0
M  V30 318 H 30.7631 3.26059 -0.187926 0
M  V30 319 H 29.4221 2.86763 -2.28392 0
M  V30 320 H 29.0701 4.94271 -0.933021 0
M  V30 321 H 28.7701 5.23733 -2.66416 0
M  V30 322 H 30.2941 5.79685 -1.91826 0
M  V30 323 H 31.7081 4.38273 -3.69581 0
M  V30 324 H 30.1051 4.06067 -4.41848 0
M  V30 325 H 31.1751 2.70273 -4.02592 0
M  V30 326 N 32.5182 1.22032 0.997298 0
M  V30 327 C 33.9292 1.0397 1.55071 0
M  V30 328 C 34.2802 -0.398192 1.92117 0
M  V30 329 O 33.4052 -1.28254 1.74298 0
M  V30 330 C 34.0002 1.88109 2.81781 0
M  V30 331 C 32.5592 1.74357 3.33581 0
M  V30 332 C 31.7062 1.84846 2.06706 0
M  V30 333 H 34.6572 1.35941 0.818883 0
M  V30 334 H 34.6782 1.39589 3.53971 0
M  V30 335 H 34.1902 2.92754 2.54787 0
M  V30 336 H 32.2912 0.72427 3.65493 0
M  V30 337 H 32.4042 2.56772 4.04481 0
M  V30 338 H 30.7682 1.28238 2.20062 0
M  V30 339 H 31.5512 2.91014 1.82114 0
M  V30 340 N 33.9963 -1.19345 1.0293 0
M  V30 341 C 34.9593 -2.20793 0.615069 0
M  V30 342 C 35.9593 -1.57553 -0.321533 0
M  V30 343 O 37.1493 -1.73862 -0.108483 0
M  V30 344 C 34.2813 -3.40754 -0.0999222 0
M  V30 345 H 35.4743 -2.58955 1.51269 0
M  V30 346 H 33.0273 -1.3303 0.820534 0
M  V30 347 H 33.7623 -3.0811 -1.01187 0
M  V30 348 H 33.5473 -3.87889 0.57309 0
M  V30 349 H 35.0373 -4.15898 -0.376645 0
M  V30 350 N 35.4744 -0.807222 -1.35358 0
M  V30 351 C 36.4374 -0.223665 -2.28106 0
M  V30 352 C 37.4374 0.589354 -1.4961 0
M  V30 353 O 38.6274 0.407745 -1.69361 0
M  V30 354 C 35.7594 0.688149 -3.33882 0
M  V30 355 H 36.9524 -1.04169 -2.81227 0
M  V30 356 H 34.5054 -0.577921 -1.45223 0
M  V30 357 H 35.2404 1.52984 -2.85948 0
M  V30 358 H 35.0254 0.10687 -3.91954 0
M  V30 359 H 36.5154 1.09075 -4.03104 0
M  V30 360 N 36.9525 1.47285 -0.560781 0
M  V30 361 C 38.1995 2.02464 -0.038062 0
M  V30 362 C 38.5275 1.43474 1.31322 0
M  V30 363 O 37.7825 0.581311 1.86867 0
M  V30 364 C 38.0815 3.57258 0.100784 0
M  V30 365 C 37.7475 4.35184 -1.18007 0
M  V30 366 C 36.4095 4.56194 -1.53103 0
M  V30 367 C 38.7615 4.80098 -2.02867 0
M  V30 368 C 36.0895 5.19367 -2.729 0
M  V30 369 C 38.4415 5.44593 -3.21871 0
M  V30 370 C 37.1055 5.63835 -3.57276 0
M  V30 371 H 36.3755 0.740869 -0.0139279 0
M  V30 372 H 39.0225 1.76916 -0.733012 0
M  V30 373 H 37.3275 3.81819 0.878724 0
M  V30 374 H 39.0245 3.97606 0.520639 0
M  V30 375 H 35.6145 4.19113 -0.8968 0
M  V30 376 H 39.7985 4.63642 -1.7706 0
M  V30 377 H 35.0545 5.32459 -3.00496 0
M  V30 378 H 39.2285 5.78358 -3.87911 0
M  V30 379 H 36.8555 6.12557 -4.50197 0
M  V30 380 N 38.4306 0.297415 1.54768 0
M  V30 381 C 39.8416 -0.195947 1.85669 0
M  V30 382 C 40.1926 -1.53707 1.21937 0
M  V30 383 O 39.3176 -2.10164 0.515754 0
M  V30 384 C 39.9126 -0.362318 3.36857 0
M  V30 385 C 38.4716 -0.799901 3.67802 0
M  V30 386 C 37.6186 0.0938578 2.77141 0
M  V30 387 H 40.5696 0.518538 1.4999 0
M  V30 388 H 40.5906 -1.19745 3.61167 0
M  V30 389 H 40.1026 0.613921 3.83214 0
M  V30 390 H 38.2036 -1.78682 3.26961 0
M  V30 391 H 38.3166 -0.621773 4.75048 0
M  V30 392 H 36.6806 -0.426254 2.51108 0
M  V30 393 H 37.4636 1.06639 3.26318 0
M  V30 394 N 39.9087 -1.5758 0.0250728 0
M  V30 395 C 40.8717 -2.08896 -0.943139 0
M  V30 396 C 41.8717 -1.00321 -1.25668 0
M  V30 397 O 43.0617 -1.26495 -1.19769 0
M  V30 398 C 40.1937 -2.55143 -2.26086 0
M  V30 399 H 41.3867 -2.95723 -0.498775 0
M  V30 400 H 38.9397 -1.54703 -0.222888 0
M  V30 401 H 39.6747 -1.71633 -2.75159 0
M  V30 402 H 39.4597 -3.34461 -2.04641 0
M  V30 403 H 40.9497 -2.95083 -2.95492 0
M  V30 404 N 41.3868 0.248026 -1.55636 0
M  V30 405 C 42.7978 0.817177 -1.67866 0
M  V30 406 C 43.1488 1.86069 -0.622322 0
M  V30 407 O 42.2738 2.15157 0.231618 0
M  V30 408 C 42.8688 1.489 -3.04326 0
M  V30 409 C 41.4278 2.00587 -3.185 0
M  V30 410 C 40.5748 0.856573 -2.63739 0
M  V30 411 H 43.5258 0.0238579 -1.58682 0
M  V30 412 H 43.5468 2.35698 -2.98708 0
M  V30 413 H 43.0588 0.729279 -3.81186 0
M  V30 414 H 41.1598 2.79443 -2.4646 0
M  V30 415 H 41.2728 2.20402 -4.25393 0
M  V30 416 H 39.6368 1.25678 -2.21534 0
M  V30 417 H 40.4198 0.109953 -3.43124 0
M  V30 418 N 42.8649 1.48995 0.513639 0
M  V30 419 C 44.1109 1.58076 1.27042 0
M  V30 420 C 44.4439 0.261026 1.92438 0
M  V30 421 O 43.7189 -0.734393 1.80103 0
M  V30 422 C 44.0019 2.73091 2.34719 0
M  V30 423 C 43.8549 4.14821 1.73907 0
M  V30 424 C 45.1739 2.83796 3.36375 0
M  V30 425 H 42.2929 0.575391 0.460536 0
M  V30 426 H 44.9349 1.81232 0.570516 0
M  V30 427 H 43.0849 2.53479 2.94416 0
M  V30 428 H 44.7569 4.45917 1.18135 0
M  V30 429 H 42.9999 4.21058 1.0437 0
M  V30 430 H 43.6709 4.91147 2.51949 0
M  V30 431 H 46.1469 3.01611 2.86653 0
M  V30 432 H 45.0229 3.65971 4.09093 0
M  V30 433 H 45.2839 1.92624 3.9793 0
M  V30 434 N 44.343 -0.763751 1.37857 0
M  V30 435 C 45.754 -1.3405 1.29952 0
M  V30 436 C 46.105 -1.96138 -0.0492898 0
M  V30 437 O 45.23 -1.94372 -0.951239 0
M  V30 438 C 45.825 -2.43729 2.35333 0
M  V30 439 C 44.384 -2.97151 2.31037 0
M  V30 440 C 43.531 -1.70438 2.18738 0
M  V30 441 H 46.482 -0.563396 1.48363 0
M  V30 442 H 46.503 -3.23412 2.00462 0
M  V30 443 H 46.015 -1.9851 3.33489 0
M  V30 444 H 44.116 -3.46724 1.3643 0
M  V30 445 H 44.229 -3.52221 3.24772 0
M  V30 446 H 42.593 -1.93673 1.65418 0
M  V30 447 H 43.376 -1.27312 3.18821 0
M  V30 448 N 45.8211 -1.22559 -0.990812 0
M  V30 449 C 47.2321 -1.04791 -1.54518 0
M  V30 450 C 47.5831 0.387998 -1.92325 0
M  V30 451 O 46.7081 1.27328 -1.74976 0
M  V30 452 C 47.3031 -1.896 -2.80779 0
M  V30 453 C 45.8621 -1.76124 -3.32652 0
M  V30 454 C 45.0091 -1.8594 -2.05722 0
M  V30 455 H 47.9601 -1.36374 -0.811662 0
M  V30 456 H 47.9811 -1.41464 -3.53225 0
M  V30 457 H 47.4931 -2.94101 -2.53231 0
M  V30 458 H 45.5941 -0.743643 -3.65104 0
M  V30 459 H 45.7071 -2.58913 -4.03114 0
M  V30 460 H 44.0711 -1.29403 -2.19379 0
M  V30 461 H 44.8541 -2.91976 -1.80568 0
M  V30 462 N 47.2992 1.18797 -1.03562 0
M  V30 463 C 48.5472 1.88278 -0.734569 0
M  V30 464 C 48.8682 1.8043 0.739586 0
M  V30 465 O 48.1382 1.21925 1.53333 0
M  V30 466 H 46.7182 0.696991 -0.268725 0
M  V30 467 H 49.3802 1.44192 -1.31129 0
M  V30 468 H 48.4762 2.94443 -1.03489 0
M  V30 469 N 48.7773 0.814389 1.34928 0
M  V30 470 C 49.6873 0.231978 2.3345 0
M  V30 471 C 50.7033 -0.629139 1.62228 0
M  V30 472 O 51.8793 -0.539052 1.94052 0
M  V30 473 C 48.9443 -0.603482 3.41407 0
M  V30 474 C 48.0053 0.279037 4.28392 0
M  V30 475 C 47.2383 -0.516643 5.31193 0
M  V30 476 O 47.4613 -1.75068 5.4287 0
M  V30 477 O 46.3953 0.0965652 6.01823 0
M  V30 478 H 50.2213 1.04721 2.85074 0
M  V30 479 H 47.8063 0.576343 1.37836 0
M  V30 480 H 49.6883 -1.07908 4.0735 0
M  V30 481 H 48.3633 -1.39618 2.92042 0
M  V30 482 H 47.2703 0.801948 3.65403 0
M  V30 483 H 48.6033 1.03588 4.81176 0
M  V30 484 N 50.2554 -1.46986 0.568584 0
M  V30 485 C 51.5324 -1.95592 -0.0174074 0
M  V30 486 C 51.9124 -1.51124 -1.47393 0
M  V30 487 O 51.2604 -0.755329 -2.15655 0
M  V30 488 C 51.4704 -3.48719 0.139913 0
M  V30 489 C 52.8184 -4.246 0.000426376 0
M  V30 490 O 53.8424 -3.56135 0.0680316 0
M  V30 491 O 52.7014 -5.46302 -0.146988 0
M  V30 492 H 49.7954 -0.82498 -0.0577599 0
M  V30 493 H 52.3414 -1.57335 0.635909 0
M  V30 494 H 51.1134 -3.73927 1.15301 0
M  V30 495 H 50.7364 -3.93771 -0.550491 0
M  V30 496 N 51.7335 -0.305618 -1.54608 0
M  V30 497 C 52.9585 0.307562 -2.05107 0
M  V30 498 C 53.3835 1.46385 -1.18123 0
M  V30 499 O 52.7415 1.8034 -0.186324 0
M  V30 500 C 52.7895 0.73704 -3.52987 0
M  V30 501 O 51.8935 1.84134 -3.6901 0
M  V30 502 H 51.2345 0.0589143 -0.661381 0
M  V30 503 H 53.7645 -0.448807 -1.99617 0
M  V30 504 H 53.7745 1.02459 -3.94925 0
M  V30 505 H 52.4495 -0.108773 -4.15758 0
M  V30 506 H 51.0265 1.55398 -3.38978 0
M  V30 507 N 53.2116 1.57565 -0.0334293 0
M  V30 508 C 54.1586 2.10478 0.946981 0
M  V30 509 C 55.1286 1.00787 1.32027 0
M  V30 510 O 56.3136 1.28232 1.41284 0
M  V30 511 C 53.4536 2.63994 2.22263 0
M  V30 512 C 52.5666 3.87709 1.90541 0
M  V30 513 C 51.7016 4.29604 3.12433 0
M  V30 514 C 50.7406 5.46065 2.76549 0
M  V30 515 N 49.8776 5.83096 3.9108 0
M  V30 516 H 54.7176 2.93963 0.488846 0
M  V30 517 H 52.2546 1.45296 0.22969 0
M  V30 518 H 54.2126 2.93114 2.96884 0
M  V30 519 H 52.8426 1.83333 2.65685 0
M  V30 520 H 51.8946 3.65291 1.06144 0
M  V30 521 H 53.2066 4.72403 1.60116 0
M  V30 522 H 52.3606 4.60182 3.9537 0
M  V30 523 H 51.0996 3.43685 3.46023 0
M  V30 524 H 50.1046 5.15176 1.92026 0
M  V30 525 H 51.3296 6.33685 2.44171 0
M  V30 526 H 49.2756 5.00132 4.24504 0
M  V30 527 H 49.1926 6.6244 3.64293 0
M  V30 528 H 50.4606 6.18282 4.74708 0
M  V30 529 N 54.6897 -0.239769 1.55765 0
M  V30 530 C 55.9667 -0.990056 1.68693 0
M  V30 531 C 56.3467 -2.03107 0.5754 0
M  V30 532 O 55.6947 -2.24604 -0.42017 0
M  V30 533 C 55.9047 -1.61696 3.09282 0
M  V30 534 C 57.2527 -2.11613 3.6811 0
M  V30 535 O 58.2767 -1.71624 3.12127 0
M  V30 536 O 57.1357 -2.85057 4.66267 0
M  V30 537 H 54.2297 -0.461299 0.686391 0
M  V30 538 H 56.7757 -0.232991 1.68093 0
M  V30 539 H 55.5477 -0.864357 3.81634 0
M  V30 540 H 55.1707 -2.44005 3.13923 0
M  V30 541 N 56.1678 -1.49265 -0.50573 0
M  V30 542 C 57.4138 -1.58748 -1.26202 0
M  V30 543 C 57.7468 -0.271227 -1.92297 0
M  V30 544 O 57.0218 0.724831 -1.80489 0
M  V30 545 C 57.3048 -2.74332 -2.33268 0
M  V30 546 C 57.1578 -4.15737 -1.71705 0
M  V30 547 C 58.4768 -2.85576 -3.34865 0
M  V30 548 H 55.5958 -0.577826 -0.457478 0
M  V30 549 H 58.2378 -1.81532 -0.560897 0
M  V30 550 H 56.3878 -2.55036 -2.93068 0
M  V30 551 H 58.0598 -4.46537 -1.15769 0
M  V30 552 H 56.3028 -4.21605 -1.02135 0
M  V30 553 H 56.9738 -4.92477 -2.49341 0
M  V30 554 H 59.4498 -3.03127 -2.8505 0
M  V30 555 H 58.3258 -3.68135 -4.07146 0
M  V30 556 H 58.5868 -1.94732 -3.96903 0
M  V30 557 N 57.6459 0.756429 -1.3826 0
M  V30 558 C 58.6089 1.85176 -1.35065 0
M  V30 559 C 59.6089 1.58818 -0.251703 0
M  V30 560 O 60.7989 1.66615 -0.508433 0
M  V30 561 C 57.9309 3.22596 -1.10201 0
M  V30 562 H 59.1239 1.89417 -2.3251 0
M  V30 563 H 56.6769 0.95783 -1.23512 0
M  V30 564 H 57.4119 3.24025 -0.133504 0
M  V30 565 H 57.1969 3.43122 -1.89762 0
M  V30 566 H 58.6869 4.02673 -1.10654 0
M  V30 567 N 59.124 1.23083 0.984299 0
M  V30 568 C 60.087 1.00979 2.05757 0
M  V30 569 C 61.087 -0.0269573 1.60777 0
M  V30 570 O 62.277 0.212403 1.729 0
M  V30 571 C 59.409 0.527072 3.36801 0
M  V30 572 H 60.602 1.9622 2.26799 0
M  V30 573 H 58.155 1.05072 1.15714 0
M  V30 574 H 58.89 -0.429294 3.21446 0
M  V30 575 H 58.675 1.27515 3.70786 0
M  V30 576 H 60.165 0.392942 4.15747 0
M  V30 577 N 60.6021 -1.18246 1.0419 0
M  V30 578 C 62.0131 -1.69914 0.773698 0
M  V30 579 C 62.3641 -1.83085 -0.705297 0
M  V30 580 O 61.4891 -1.51123 -1.5489 0
M  V30 581 C 62.0841 -3.08619 1.39784 0
M  V30 582 C 60.6431 -3.57494 1.17792 0
M  V30 583 C 59.7901 -2.34013 1.48773 0
M  V30 584 H 62.7411 -1.02904 1.20816 0
M  V30 585 H 62.7621 -3.71958 0.801714 0
M  V30 586 H 62.2741 -2.99001 2.47426 0
M  V30 587 H 60.3751 -3.72406 0.120295 0
M  V30 588 H 60.4881 -4.40852 1.87581 0
M  V30 589 H 58.8521 -2.37986 0.907463 0
M  V30 590 H 59.6351 -2.27013 2.57527 0
M  V30 591 N 62.0802 -0.821533 -1.34494 0
M  V30 592 C 63.0302 -0.214793 -2.26986 0
M  V30 593 C 64.0142 0.620125 -1.4847 0
M  V30 594 O 65.2062 0.474933 -1.70509 0
M  V30 595 C 62.3352 0.623566 -3.37589 0
M  V30 596 C 61.4212 -0.221904 -4.23519 0
M  V30 597 N 61.8122 -1.29223 -4.89014 0
M  V30 598 C 60.1102 -0.00600922 -4.46 0
M  V30 599 C 60.8112 -1.80965 -5.52835 0
M  V30 600 N 59.7872 -1.11376 -5.32068 0
M  V30 601 H 63.5892 -1.03354 -2.75128 0
M  V30 602 H 61.1032 -0.6642 -1.48196 0
M  V30 603 H 63.1002 1.0744 -4.02818 0
M  V30 604 H 61.7602 1.44049 -2.90998 0
M  V30 605 H 62.7712 -1.67502 -4.90065 0
M  V30 606 H 59.4482 0.77886 -4.10171 0
M  V30 607 H 60.8382 -2.70502 -6.15043 0
M  V30 608 N 63.5583 1.46682 -0.576371 0
M  V30 609 C 64.9743 1.57822 -0.237562 0
M  V30 610 C 65.1743 1.57237 1.26011 0
M  V30 611 O 64.2303 1.48596 2.04146 0
M  V30 612 C 65.5433 2.87499 -0.881168 0
M  V30 613 C 67.0913 3.01119 -0.85417 0
M  V30 614 C 67.5663 4.33524 -1.4772 0
M  V30 615 N 69.0573 4.40207 -1.44125 0
M  V30 616 C 69.7923 5.4126 -1.89276 0
M  V30 617 N 69.2883 6.49021 -2.42371 0
M  V30 618 N 71.0813 5.32422 -1.80231 0
M  V30 619 H 63.2323 1.45306 -1.54919 0
M  V30 620 H 65.4953 0.692733 -0.647167 0
M  V30 621 H 65.2013 2.9372 -1.93447 0
M  V30 622 H 65.0753 3.75224 -0.385592 0
M  V30 623 H 67.4623 2.94485 0.190491 0
M  V30 624 H 67.5433 2.14887 -1.3877 0
M  V30 625 H 67.1873 4.40916 -2.52103 0
M  V30 626 H 67.1173 5.1852 -0.918947 0
M  V30 627 H 69.6083 3.62931 -1.05307 0
M  V30 628 H 69.9213 7.2233 -2.74698 0
M  V30 629 H 68.2663 6.49858 -2.46393 0
M  V30 630 H 71.4573 4.47137 -1.38514 0
M  V30 631 H 71.6303 6.11034 -2.15735 0
M  V30 632 N 65.0364 0.313813 1.54444 0
M  V30 633 C 65.9684 -0.590425 2.21465 0
M  V30 634 C 66.9814 -1.08753 1.21147 0
M  V30 635 O 68.1704 -1.00278 1.4767 0
M  V30 636 C 65.2704 -1.82179 2.85769 0
M  V30 637 C 64.4434 -1.46502 4.12136 0
M  V30 638 C 63.5024 -2.55288 4.60124 0
M  V30 639 O 62.5284 -2.19842 5.25032 0
M  V30 640 N 63.7304 -3.86053 4.33525 0
M  V30 641 H 66.4954 -0.0166033 2.99695 0
M  V30 642 H 64.0564 0.136578 1.61323 0
M  V30 643 H 66.0484 -2.54328 3.14801 0
M  V30 644 H 64.6184 -2.30369 2.11303 0
M  V30 645 H 63.8384 -0.575595 3.89975 0
M  V30 646 H 65.1264 -1.20221 4.94393 0
M  V30 647 H 64.5244 -4.17654 3.81552 0
M  V30 648 H 63.0814 -4.54461 4.67235 0
M  V30 649 N 66.5145 -1.57545 0.0417849 0
M  V30 650 C 67.9255 -1.80011 -0.495259 0
M  V30 651 C 68.2765 -0.953199 -1.71489 0
M  V30 652 O 67.4015 -0.167138 -2.15754 0
M  V30 653 C 67.9965 -3.26482 -0.905265 0
M  V30 654 C 66.5555 -3.499 -1.38734 0
M  V30 655 C 65.7025 -2.74979 -0.358056 0
M  V30 656 H 68.6535 -1.56425 0.267736 0
M  V30 657 H 68.6745 -3.36887 -1.76882 0
M  V30 658 H 68.1865 -3.88096 -0.017401 0
M  V30 659 H 66.2875 -2.93553 -2.29471 0
M  V30 660 H 66.4005 -4.58615 -1.38598 0
M  V30 661 H 64.7645 -2.40834 -0.828912 0
M  V30 662 H 65.5475 -3.39315 0.521561 0
M  V30 663 N 67.9926 0.231505 -1.5589 0
M  V30 664 C 68.9226 1.29022 -1.94617 0
M  V30 665 C 69.9036 1.4941 -0.813067 0
M  V30 666 O 71.0886 1.6176 -1.07459 0
M  V30 667 C 68.2186 2.64199 -2.25424 0
M  V30 668 C 67.1726 2.58484 -3.41131 0
M  V30 669 C 66.4986 3.97599 -3.57518 0
M  V30 670 C 67.7986 2.1413 -4.76388 0
M  V30 671 H 69.4926 0.968563 -2.83301 0
M  V30 672 H 67.0386 0.464479 -1.36303 0
M  V30 673 H 68.9916 3.38413 -2.51107 0
M  V30 674 H 67.7156 2.98032 -1.33583 0
M  V30 675 H 66.3746 1.86727 -3.15481 0
M  V30 676 H 66.0226 4.28723 -2.6307 0
M  V30 677 H 65.7226 3.94659 -4.35337 0
M  V30 678 H 67.2466 4.7349 -3.85538 0
M  V30 679 H 68.6606 2.78083 -5.01341 0
M  V30 680 H 67.0576 2.2227 -5.57419 0
M  V30 681 H 68.1276 1.09331 -4.72414 0
M  V30 682 N 69.4707 1.49531 0.497807 0
M  V30 683 C 70.6987 1.62893 1.27567 0
M  V30 684 C 71.1137 0.301585 1.86376 0
M  V30 685 O 70.4707 -0.713335 1.67982 0
M  V30 686 C 70.5217 2.70013 2.40364 0
M  V30 687 O 70.2427 3.976 1.83972 0
M  V30 688 C 71.7437 2.94109 3.31685 0
M  V30 689 H 68.9637 0.548298 0.386794 0
M  V30 690 H 71.5077 1.95584 0.597245 0
M  V30 691 H 69.6627 2.40092 3.04031 0
M  V30 692 H 70.0767 4.56631 2.58047 0
M  V30 693 H 71.5507 3.72788 4.07104 0
M  V30 694 H 72.0277 2.04147 3.88871 0
M  V30 695 H 72.6337 3.2546 2.73781 0
M  V30 696 N 70.9488 -0.749086 1.3866 0
M  V30 697 C 72.1738 -1.54344 1.38538 0
M  V30 698 C 72.5988 -1.88088 -0.0216655 0
M  V30 699 O 71.9568 -1.50899 -1.00494 0
M  V30 700 C 72.0048 -2.8164 2.25192 0
M  V30 701 O 71.1088 -3.7698 1.67212 0
M  V30 702 H 70.4498 -0.466654 0.472367 0
M  V30 703 H 72.9798 -0.925355 1.82478 0
M  V30 704 H 72.9898 -3.30519 2.3921 0
M  V30 705 H 71.6648 -2.56411 3.27454 0
M  V30 706 H 70.2418 -3.35699 1.6236 0
M  V30 707 N 72.4269 -1.23603 -0.977757 0
M  V30 708 C 73.6519 -1.09735 -1.75991 0
M  V30 709 C 74.0769 0.346858 -1.84874 0
M  V30 710 O 73.4349 1.25093 -1.3123 0
M  V30 711 C 73.4829 -1.73051 -3.16363 0
M  V30 712 O 72.5869 -0.994452 -4.0023 0
M  V30 713 H 71.9279 -0.384476 -0.541364 0
M  V30 714 H 74.4579 -1.6371 -1.2272 0
M  V30 715 H 74.4679 -1.78398 -3.66931 0
M  V30 716 H 73.1429 -2.78137 -3.09213 0
M  V30 717 H 71.7199 -1.01812 -3.58732 0
M  V30 718 N 73.905 1.17692 -1.04816 0
M  V30 719 C 74.815 2.25229 -0.65643 0
M  V30 720 C 75.831 1.71018 0.320761 0
M  V30 721 O 77.007 2.00649 0.173805 0
M  V30 722 C 74.072 3.46684 -0.0332629 0
M  V30 723 C 73.133 4.15997 -1.06042 0
M  V30 724 C 72.366 5.31654 -0.466893 0
M  V30 725 O 72.589 5.65777 0.724758 0
M  V30 726 O 71.523 5.89831 -1.1993 0
M  V30 727 H 75.349 2.61016 -1.55255 0
M  V30 728 H 72.934 1.24919 -0.81949 0
M  V30 729 H 74.816 4.20234 0.313256 0
M  V30 730 H 73.491 3.12703 0.836566 0
M  V30 731 H 72.398 3.44482 -1.45886 0
M  V30 732 H 73.731 4.53996 -1.90127 0
M  V30 733 N 75.3831 0.828654 1.34056 0
M  V30 734 C 76.7991 0.515135 1.51058 0
M  V30 735 C 76.9991 -0.959581 1.77184 0
M  V30 736 O 76.0551 -1.74382 1.82612 0
M  V30 737 C 77.3681 1.37963 2.67183 0
M  V30 738 C 78.9161 1.37735 2.81066 0
M  V30 739 C 79.3911 2.22645 4.00241 0
M  V30 740 N 80.8821 2.203 4.07458 0
M  V30 741 C 81.6171 2.82744 4.98842 0
M  V30 742 N 81.1131 3.54201 5.9541 0
M  V30 743 N 82.9061 2.72268 4.91759 0
M  V30 744 H 75.0571 1.78343 1.15358 0
M  V30 745 H 77.3201 0.760304 0.566252 0
M  V30 746 H 77.0261 2.42714 2.54525 0
M  V30 747 H 76.9001 1.0484 3.62338 0
M  V30 748 H 79.2871 0.337593 2.93163 0
M  V30 749 H 79.3681 1.74859 1.86703 0
M  V30 750 H 79.0121 3.26674 3.88905 0
M  V30 751 H 78.9421 1.82869 4.93829 0
M  V30 752 H 81.4331 1.68327 3.38341 0
M  V30 753 H 81.7461 3.9908 6.61782 0
M  V30 754 H 80.0911 3.58308 5.95517 0
M  V30 755 H 83.2821 2.16014 4.15278 0
M  V30 756 H 83.4551 3.21219 5.62781 0
M  V30 757 N 76.8612 -1.46375 0.584142 0
M  V30 758 C 78.1102 -2.01585 0.0679741 0
M  V30 759 C 78.4232 -1.46109 -1.30045 0
M  V30 760 O 79.6292 -1.93148 -1.90804 0
M  V30 761 C 78.0852 -3.5983 0.0709207 0
M  V30 762 C 77.6932 -4.24303 1.43775 0
M  V30 763 C 79.4372 -4.22693 -0.391228 0
M  V30 764 C 77.3442 -5.74631 1.39834 0
M  V30 765 H 76.2742 -0.753689 0.0216421 0
M  V30 766 H 78.9252 -1.68093 0.736001 0
M  V30 767 H 77.3072 -3.90405 -0.663299 0
M  V30 768 H 78.4812 -4.05335 2.19181 0
M  V30 769 H 76.7962 -3.73539 1.84004 0
M  V30 770 H 79.3932 -5.3289 -0.439524 0
M  V30 771 H 79.7362 -3.91728 -1.40906 0
M  V30 772 H 80.2692 -3.96749 0.288974 0
M  V30 773 H 77.0082 -6.10258 2.39303 0
M  V30 774 H 76.5282 -5.95858 0.686505 0
M  V30 775 H 78.2072 -6.37375 1.11187 0
M  V30 776 N 78.3393 -0.321999 -1.54275 0
M  V30 777 C 79.6163 0.335232 -1.92706 0
M  V30 778 C 79.9963 1.70006 -1.25145 0
M  V30 779 O 79.3443 2.25067 -0.394596 0
M  V30 780 C 79.5543 0.429008 -3.46353 0
M  V30 781 C 80.9023 0.690029 -4.18956 0
M  V30 782 O 81.9263 0.511992 -3.52501 0
M  V30 783 O 80.7853 1.03338 -5.36641 0
M  V30 784 H 77.8793 0.191143 -0.804608 0
M  V30 785 H 80.4253 -0.3716 -1.65581 0
M  V30 786 H 79.1973 -0.529611 -3.87699 0
M  V30 787 H 78.8203 1.18348 -3.79578 0
M  V30 788 N 79.8174 1.5752 -0.0501392 0
M  V30 789 C 80.7644 2.1147 0.924603 0
M  V30 790 C 81.7344 1.02182 1.30951 0
M  V30 791 O 82.9194 1.29723 1.39916 0
M  V30 792 C 80.0594 2.66337 2.19451 0
M  V30 793 C 79.1724 3.89708 1.86418 0
M  V30 794 C 78.3074 4.32893 3.07859 0
M  V30 795 C 77.3464 5.48967 2.70742 0
M  V30 796 N 76.4834 5.87211 3.84874 0
M  V30 797 H 81.3234 2.94465 0.457639 0
M  V30 798 H 78.8604 1.45531 0.214266 0
M  V30 799 H 80.8184 2.96247 2.93758 0
M  V30 800 H 79.4484 1.86141 2.63726 0
M  V30 801 H 78.5004 3.66396 1.02264 0
M  V30 802 H 79.8124 4.74074 1.55096 0
M  V30 803 H 78.9664 4.6435 3.90466 0
M  V30 804 H 77.7054 3.47336 3.42358 0
M  V30 805 H 76.7104 5.17183 1.86551 0
M  V30 806 H 77.9354 6.3624 2.37436 0
M  V30 807 H 75.8814 5.04607 4.19175 0
M  V30 808 H 75.7984 6.66266 3.57247 0
M  V30 809 H 77.0664 6.23282 4.68123 0
M  V30 810 N 81.2955 -0.223234 1.56011 0
M  V30 811 C 82.2275 -1.30006 1.88762 0
M  V30 812 C 83.2405 -1.43129 0.775746 0
M  V30 813 O 84.4295 -1.44057 1.05403 0
M  V30 814 C 81.5295 -2.67589 2.07965 0
M  V30 815 C 80.7025 -2.76434 3.38973 0
M  V30 816 C 79.7615 -3.95019 3.47629 0
M  V30 817 O 78.7875 -3.83436 4.20672 0
M  V30 818 N 79.9895 -5.09249 2.78649 0
M  V30 819 H 82.7545 -1.02238 2.81722 0
M  V30 820 H 80.3155 -0.413278 1.56536 0
M  V30 821 H 82.3075 -3.45297 2.11073 0
M  V30 822 H 80.8775 -2.87964 1.21638 0
M  V30 823 H 80.0975 -1.85216 3.47978 0
M  V30 824 H 81.3855 -2.79313 4.25278 0
M  V30 825 H 80.7835 -5.21556 2.19081 0
M  V30 826 H 79.3405 -5.85007 2.8742 0
M  V30 827 N 82.7736 -1.49793 -0.48987 0
M  V30 828 C 84.0226 -1.59085 -1.23995 0
M  V30 829 C 84.3356 -0.287907 -1.9347 0
M  V30 830 O 85.5416 -0.259506 -2.70257 0
M  V30 831 C 83.9976 -2.80736 -2.252 0
M  V30 832 C 83.6056 -4.17833 -1.61614 0
M  V30 833 C 85.3496 -2.99364 -3.00967 0
M  V30 834 C 83.2566 -5.30693 -2.60996 0
M  V30 835 H 82.1866 -0.592372 -0.466488 0
M  V30 836 H 84.8376 -1.76197 -0.51252 0
M  V30 837 H 83.2196 -2.57142 -3.01154 0
M  V30 838 H 84.3936 -4.51608 -0.915774 0
M  V30 839 H 82.7086 -4.04656 -0.981977 0
M  V30 840 H 85.3056 -3.80851 -3.75308 0
M  V30 841 H 85.6486 -2.10356 -3.59244 0
M  V30 842 H 86.1816 -3.2305 -2.32128 0
M  V30 843 H 82.9206 -6.21796 -2.07485 0
M  V30 844 H 82.4406 -5.01359 -3.2924 0
M  V30 845 H 84.1196 -5.6049 -3.23202 0
M  V30 846 N 84.2517 0.741722 -1.39055 0
M  V30 847 C 85.6677 1.04638 -1.20512 0
M  V30 848 C 85.8677 2.01405 -0.0620218 0
M  V30 849 O 84.9237 2.45547 0.588457 0
M  V30 850 C 86.2367 1.6151 -2.53643 0
M  V30 851 C 87.7847 1.73623 -2.6043 0
M  V30 852 C 88.2597 2.33906 -3.93767 0
M  V30 853 N 89.7507 2.41323 -3.9537 0
M  V30 854 C 90.4857 2.88888 -4.95309 0
M  V30 855 N 89.9817 3.36401 -6.05645 0
M  V30 856 N 91.7747 2.88037 -4.82692 0
M  V30 857 H 83.9257 0.0998155 -2.12165 0
M  V30 858 H 86.1887 0.106907 -0.941953 0
M  V30 859 H 85.8947 0.978739 -3.37807 0
M  V30 860 H 85.7687 2.60411 -2.72885 0
M  V30 861 H 88.1557 2.36384 -1.76655 0
M  V30 862 H 88.2367 0.733945 -2.45045 0
M  V30 863 H 87.8807 1.71776 -4.7797 0
M  V30 864 H 87.8107 3.34799 -4.06469 0
M  V30 865 H 90.3017 2.07734 -3.15682 0
M  V30 866 H 90.6147 3.71186 -6.77821 0
M  V30 867 H 88.9597 3.34427 -6.09248 0
M  V30 868 H 92.1507 2.50237 -3.95599 0
M  V30 869 H 92.3237 3.24792 -5.60726 0
M  V30 870 N 85.7298 1.2412 0.971189 0
M  V30 871 C 86.9598 1.10415 1.7462 0
M  V30 872 C 87.3678 -0.346462 1.86001 0
M  V30 873 O 86.7108 -1.25104 1.34517 0
M  V30 874 C 86.7728 1.66596 3.18568 0
M  V30 875 C 86.4368 3.15446 3.3067 0
M  V30 876 C 87.4338 4.12636 3.16271 0
M  V30 877 C 85.1188 3.55337 3.55022 0
M  V30 878 C 87.1128 5.47699 3.26044 0
M  V30 879 C 84.7998 4.90542 3.64434 0
M  V30 880 C 85.7978 5.86532 3.49956 0
M  V30 881 O 85.4858 7.19279 3.59017 0
M  V30 882 H 85.2178 0.386616 0.55453 0
M  V30 883 H 87.7718 1.64633 1.22821 0
M  V30 884 H 86.0018 1.06808 3.71657 0
M  V30 885 H 87.6908 1.48232 3.77865 0
M  V30 886 H 88.4568 3.8316 2.97344 0
M  V30 887 H 84.3358 2.8113 3.65359 0
M  V30 888 H 87.8798 6.22603 3.14661 0
M  V30 889 H 83.7768 5.19691 3.82873 0
M  V30 890 H 84.5448 7.27153 3.75754 0
M  V30 891 N 87.2079 -1.17134 1.05439 0
M  V30 892 C 88.4569 -1.86791 0.761049 0
M  V30 893 C 88.7699 -1.82072 -0.714795 0
M  V30 894 O 89.9759 -2.47223 -1.12218 0
M  V30 895 C 88.4319 -3.35166 1.31117 0
M  V30 896 C 88.0399 -3.48381 2.81664 0
M  V30 897 C 89.7839 -4.10134 1.09499 0
M  V30 898 C 87.6909 -4.90793 3.29964 0
M  V30 899 H 86.6209 -0.699681 0.281002 0
M  V30 900 H 89.2719 -1.3226 1.27199 0
M  V30 901 H 87.6539 -3.8925 0.72803 0
M  V30 902 H 88.8279 -3.04502 3.45855 0
M  V30 903 H 87.1429 -2.86836 3.01851 0
M  V30 904 H 89.7399 -5.152 1.43084 0
M  V30 905 H 90.0829 -4.16287 0.0328772 0
M  V30 906 H 90.6159 -3.62264 1.64346 0
M  V30 907 H 87.3549 -4.89816 4.35616 0
M  V30 908 H 86.8749 -5.35333 2.70516 0
M  V30 909 H 88.5539 -5.59573 3.24787 0
M  V30 910 N 88.686 -0.835752 -1.33615 0
M  V30 911 C 89.616 -0.281739 -2.31794 0
M  V30 912 C 90.597 0.608833 -1.58831 0
M  V30 913 O 91.782 0.533035 -1.86741 0
M  V30 914 C 88.912 0.546612 -3.42971 0
M  V30 915 C 87.866 -0.247904 -4.27281 0
M  V30 916 C 87.192 0.704001 -5.30045 0
M  V30 917 C 88.492 -1.46324 -5.01385 0
M  V30 918 H 90.186 -1.10206 -2.78379 0
M  V30 919 H 87.732 -0.531388 -1.33837 0
M  V30 920 H 89.685 0.944467 -4.1068 0
M  V30 921 H 88.409 1.40011 -2.95067 0
M  V30 922 H 87.068 -0.627281 -3.61194 0
M  V30 923 H 86.716 1.55381 -4.78399 0
M  V30 924 H 86.416 0.176524 -5.87335 0
M  V30 925 H 87.94 1.09944 -6.0062 0
M  V30 926 H 89.354 -1.13871 -5.61877 0
M  V30 927 H 87.751 -1.92728 -5.6831 0
M  V30 928 H 88.821 -2.23467 -4.30338 0
M  V30 929 N 90.1641 1.46063 -0.591896 0
M  V30 930 C 91.4411 1.95595 -0.0137119 0
M  V30 931 C 91.8211 1.5345 1.4497 0
M  V30 932 O 91.1691 0.789543 2.14426 0
M  V30 933 C 91.3791 3.48453 -0.195373 0
M  V30 934 C 92.7271 4.24546 -0.0679765 0
M  V30 935 O 93.7511 3.55982 -0.124681 0
M  V30 936 O 92.6101 5.46467 0.0600579 0
M  V30 937 H 89.7041 0.825795 0.0446279 0
M  V30 938 H 92.2501 1.56303 -0.660859 0
M  V30 939 H 91.0221 3.72045 -1.21235 0
M  V30 940 H 90.6451 3.94597 0.487775 0
M  V30 941 N 91.6422 0.330177 1.54103 0
M  V30 942 C 92.8902 -0.269871 2.0029 0
M  V30 943 C 93.2112 -1.52133 1.21986 0
M  V30 944 O 92.4812 -1.93212 0.323438 0
M  V30 945 H 91.0612 -0.10271 0.739905 0
M  V30 946 H 93.7232 0.448249 1.89675 0
M  V30 947 H 92.8192 -0.52166 3.07709 0
M  V30 948 N 93.1203 -1.57491 0.0584922 0
M  V30 949 C 94.3693 -1.92155 -0.613146 0
M  V30 950 C 94.6823 -0.939334 -1.71569 0
M  V30 951 O 95.8883 -1.17829 -2.44599 0
M  V30 952 C 94.3443 -3.41303 -1.14195 0
M  V30 953 C 93.9523 -4.47944 -0.0711265 0
M  V30 954 C 95.6963 -3.84988 -1.78841 0
M  V30 955 C 93.6033 -5.88212 -0.613225 0
M  V30 956 H 92.5333 -0.717162 -0.232796 0
M  V30 957 H 95.1843 -1.83049 0.12857 0
M  V30 958 H 93.5663 -3.45437 -1.93621 0
M  V30 959 H 94.7403 -4.55408 0.702836 0
M  V30 960 H 93.0553 -4.13644 0.478313 0
M  V30 961 H 95.6523 -4.87159 -2.20408 0
M  V30 962 H 95.9953 -3.21632 -2.64308 0
M  V30 963 H 96.5283 -3.83401 -1.06059 0
M  V30 964 H 93.2673 -6.55183 0.203978 0
M  V30 965 H 92.7873 -5.84294 -1.35501 0
M  V30 966 H 94.4663 -6.37687 -1.09383 0
M  V30 967 N 94.5984 0.214957 -1.56127 0
M  V30 968 C 95.8234 0.95924 -1.83884 0
M  V30 969 C 96.2484 1.7689 -0.639644 0
M  V30 970 O 95.6064 1.76566 0.411601 0
M  V30 971 C 95.6544 1.84723 -3.09693 0
M  V30 972 O 94.7584 2.94346 -2.8885 0
M  V30 973 H 94.0994 0.27125 -0.606069 0
M  V30 974 H 96.6294 0.226276 -2.03345 0
M  V30 975 H 96.6394 2.25576 -3.39969 0
M  V30 976 H 95.3144 1.25218 -3.96602 0
M  V30 977 H 93.8914 2.57391 -2.69823 0
M  V30 978 N 96.0765 1.50051 0.48192 0
M  V30 979 C 97.0395 1.67584 1.5636 0
M  V30 980 C 98.0395 0.546894 1.51214 0
M  V30 981 O 99.2295 0.813725 1.54026 0
M  V30 982 C 96.3615 1.691 2.96003 0
M  V30 983 H 97.5545 2.64078 1.42136 0
M  V30 984 H 95.1075 1.39369 0.707533 0
M  V30 985 H 95.8425 0.742589 3.15684 0
M  V30 986 H 95.6275 2.51105 3.01146 0
M  V30 987 H 97.1175 1.84656 3.74556 0
M  V30 988 N 97.5546 -0.734337 1.39446 0
M  V30 989 C 98.4846 -1.86155 1.40955 0
M  V30 990 C 99.4656 -1.67898 0.272827 0
M  V30 991 O 100.651 -1.88207 0.478743 0
M  V30 992 C 97.7806 -3.23912 1.25294 0
M  V30 993 C 96.7346 -3.56808 2.36373 0
M  V30 994 C 96.0606 -4.93508 2.058 0
M  V30 995 C 97.3606 -3.59713 3.78687 0
M  V30 996 H 99.0546 -1.8515 2.35287 0
M  V30 997 H 96.6006 -0.889367 1.13253 0
M  V30 998 H 98.5536 -4.02443 1.2497 0
M  V30 999 H 97.2776 -3.25446 0.274308 0
M  V30 1000 H 95.9366 -2.80606 2.35914 0
M  V30 1001 H 95.5846 -4.91623 1.06374 0
M  V30 1002 H 95.2846 -5.16486 2.80208 0
M  V30 1003 H 96.8086 -5.74396 2.07128 0
M  V30 1004 H 98.2226 -4.2832 3.81071 0
M  V30 1005 H 96.6196 -3.94209 4.52459 0
M  V30 1006 H 97.6896 -2.59504 4.09617 0
M  V30 1007 N 99.0327 -1.24633 -0.964593 0
M  V30 1008 C 100.449 -1.01239 -1.2338 0
M  V30 1009 C 100.649 0.2769 -1.99588 0
M  V30 1010 O 99.7047 0.992241 -2.32187 0
M  V30 1011 C 101.018 -2.22937 -2.01791 0
M  V30 1012 C 102.566 -2.27594 -2.14872 0
M  V30 1013 C 103.041 -3.48921 -2.96678 0
M  V30 1014 N 104.532 -3.49257 -3.04259 0
M  V30 1015 C 105.267 -4.39795 -3.67924 0
M  V30 1016 N 104.763 -5.40591 -4.33281 0
M  V30 1017 N 106.556 -4.275 -3.64966 0
M  V30 1018 H 98.7067 -2.0748 -0.454502 0
M  V30 1019 H 100.97 -0.910647 -0.26349 0
M  V30 1020 H 100.676 -3.16587 -1.53184 0
M  V30 1021 H 100.55 -2.25306 -3.02518 0
M  V30 1022 H 102.937 -1.34473 -2.6268 0
M  V30 1023 H 103.018 -2.2925 -1.13482 0
M  V30 1024 H 102.662 -4.42359 -2.49562 0
M  V30 1025 H 102.592 -3.4451 -3.98272 0
M  V30 1026 H 105.083 -2.76337 -2.57771 0
M  V30 1027 H 105.396 -6.05904 -4.79687 0
M  V30 1028 H 103.741 -5.44475 -4.3194 0
M  V30 1029 H 106.932 -3.47987 -3.13086 0
M  V30 1030 H 107.105 -4.98258 -4.14298 0
M  V30 1031 N 100.511 1.16574 -1.06058 0
M  V30 1032 C 101.458 2.20883 -0.669263 0
M  V30 1033 C 102.428 1.62729 0.332918 0
M  V30 1034 O 103.613 1.895 0.222346 0
M  V30 1035 C 100.753 3.45049 -0.0593572 0
M  V30 1036 C 99.8658 4.17458 -1.11143 0
M  V30 1037 C 99.0008 5.29135 -0.467916 0
M  V30 1038 C 98.0398 5.93343 -1.50369 0
M  V30 1039 N 97.1768 6.96516 -0.883706 0
M  V30 1040 H 102.017 2.53709 -1.5632 0
M  V30 1041 H 99.5538 1.24616 -0.781625 0
M  V30 1042 H 101.512 4.16033 0.311771 0
M  V30 1043 H 100.142 3.12781 0.797992 0
M  V30 1044 H 99.1938 3.45101 -1.60029 0
M  V30 1045 H 100.506 4.61307 -1.89731 0
M  V30 1046 H 99.6598 6.06684 -0.0436871 0
M  V30 1047 H 98.3988 4.86443 0.349864 0
M  V30 1048 H 97.4038 5.14517 -1.93784 0
M  V30 1049 H 98.6288 6.38114 -2.32352 0
M  V30 1050 H 96.5748 6.55943 -0.086595 0
M  V30 1051 H 96.4918 7.38723 -1.607 0
M  V30 1052 H 97.7598 7.77993 -0.484543 0
M  V30 1053 N 101.989 0.842826 1.3317 0
M  V30 1054 C 102.899 0.281444 2.32906 0
M  V30 1055 C 103.915 -0.594587 1.63526 0
M  V30 1056 O 105.091 -0.49777 1.95152 0
M  V30 1057 C 102.156 -0.530929 3.42611 0
M  V30 1058 C 101.217 0.369843 4.27704 0
M  V30 1059 C 100.45 -0.403853 5.3217 0
M  V30 1060 O 100.673 -1.63513 5.46461 0
M  V30 1061 O 99.6069 0.224199 6.01482 0
M  V30 1062 H 103.433 1.10744 2.82789 0
M  V30 1063 H 101.018 0.60545 1.36582 0
M  V30 1064 H 102.9 -0.992437 4.09547 0
M  V30 1065 H 101.575 -1.33392 2.94938 0
M  V30 1066 H 100.482 0.879275 3.6362 0
M  V30 1067 H 101.815 1.13771 4.78871 0
M  V30 1068 N 103.467 -1.45747 0.599634 0
M  V30 1069 C 104.695 -2.06668 0.0978551 0
M  V30 1070 C 105.11 -1.44562 -1.21439 0
M  V30 1071 O 104.467 -0.556923 -1.73795 0
M  V30 1072 C 104.518 -3.61456 -0.0567044 0
M  V30 1073 O 104.239 -4.21242 1.20361 0
M  V30 1074 C 105.74 -4.39345 -0.590869 0
M  V30 1075 H 102.96 -0.667825 0.0651943 0
M  V30 1076 H 105.504 -1.87115 0.82511 0
M  V30 1077 H 103.659 -3.80378 -0.734251 0
M  V30 1078 H 104.073 -5.14323 1.02821 0
M  V30 1079 H 105.547 -5.48182 -0.648131 0
M  V30 1080 H 106.024 -4.08568 -1.61147 0
M  V30 1081 H 106.63 -4.25268 0.0523679 0
M  V30 1082 N 104.945 -0.338344 -1.53925 0
M  V30 1083 C 106.185 0.260168 -2.02737 0
M  V30 1084 C 106.549 1.48181 -1.22092 0
M  V30 1085 O 107.75 2.15416 -1.60777 0
M  V30 1086 C 106.021 0.571627 -3.52799 0
M  V30 1087 S 107.58 1.14769 -4.23525 0
M  V30 1088 H 104.398 0.077791 -0.706732 0
M  V30 1089 H 107 -0.474899 -1.89644 0
M  V30 1090 H 105.704 -0.325392 -4.09108 0
M  V30 1091 H 105.235 1.3365 -3.70002 0
M  V30 1092 H 107.25 2.43372 -4.32417 0
M  V30 1093 N 106.423 1.57458 -0.0668435 0
M  V30 1094 C 107.371 2.13639 0.919851 0
M  V30 1095 C 108.365 1.07204 1.31163 0
M  V30 1096 O 109.571 1.25591 1.28945 0
M  V30 1097 H 105.946 0.683048 0.314562 0
M  V30 1098 H 107.917 2.95415 0.421047 0
M  V30 1099 C 106.666 2.70892 2.17975 0
M  V30 1100 H 105.989 3.5246 1.88711 0
M  V30 1101 H 107.429 3.13803 2.85138 0
M  V30 1102 C 105.888 1.65414 2.93496 0
M  V30 1103 O 106.418 1.07619 3.87015 0
M  V30 1104 N 104.624 1.36564 2.56512 0
M  V30 1105 H 104.171 1.83751 1.80536 0
M  V30 1106 H 104.129 0.66223 3.07347 0
M  V30 1107 N 107.901 -0.206675 1.56239 0
M  V30 1108 C 108.848 -1.25617 1.93621 0
M  V30 1109 C 109.818 -1.45824 0.795274 0
M  V30 1110 O 111.003 -1.59148 1.05245 0
M  V30 1111 C 108.143 -2.59839 2.27107 0
M  V30 1112 C 107.256 -2.47308 3.54207 0
M  V30 1113 C 106.391 -3.74155 3.7707 0
M  V30 1114 C 105.43 -3.56407 4.97635 0
M  V30 1115 N 104.567 -4.75238 5.1681 0
M  V30 1116 H 109.407 -0.930383 2.83104 0
M  V30 1117 H 106.944 -0.448065 1.4011 0
M  V30 1118 H 108.902 -3.38021 2.44535 0
M  V30 1119 H 107.532 -2.90485 1.40778 0
M  V30 1120 H 106.584 -1.60483 3.4489 0
M  V30 1121 H 107.896 -2.30122 4.42544 0
M  V30 1122 H 107.05 -4.60778 3.94675 0
M  V30 1123 H 105.789 -3.94282 2.87042 0
M  V30 1124 H 104.794 -2.68168 4.79964 0
M  V30 1125 H 106.019 -3.37736 5.89161 0
M  V30 1126 H 103.965 -4.95651 4.29728 0
M  V30 1127 H 103.882 -4.60835 5.99306 0
M  V30 1128 H 105.15 -5.63246 5.38864 0
M  V30 1129 N 109.379 -1.50304 -0.473955 0
M  V30 1130 C 110.604 -1.65175 -1.25427 0
M  V30 1131 C 111.029 -0.333673 -1.85117 0
M  V30 1132 O 110.387 0.702114 -1.67153 0
M  V30 1133 C 110.435 -2.74295 -2.34082 0
M  V30 1134 O 109.539 -2.35349 -3.38651 0
M  V30 1135 H 108.88 -0.551944 -0.369126 0
M  V30 1136 H 111.41 -1.96662 -0.564364 0
M  V30 1137 H 111.42 -2.97285 -2.79438 0
M  V30 1138 H 110.095 -3.69959 -1.90008 0
M  V30 1139 H 108.672 -2.22794 -2.99027 0
M  V30 1140 N 110.857 0.726932 -1.39834 0
M  V30 1141 C 111.805 1.86235 -1.39353 0
M  V30 1142 C 112.799 1.67144 -0.275555 0
M  V30 1143 O 114.005 1.74387 -0.44601 0
M  V30 1144 H 110.38 0.613174 -0.43534 0
M  V30 1145 H 112.351 1.83756 -2.35109 0
M  V30 1146 C 111.1 3.23995 -1.26185 0
M  V30 1147 H 110.423 3.39285 -2.11484 0
M  V30 1148 H 111.863 4.03609 -1.29907 0
M  V30 1149 C 110.322 3.36888 0.0290018 0
M  V30 1150 O 110.852 3.89152 0.99619 0
M  V30 1151 N 109.058 2.90446 0.0947437 0
M  V30 1152 H 108.605 2.48102 -0.693035 0
M  V30 1153 H 108.563 2.99451 0.957932 0
M  V30 1154 N 112.336 1.25143 0.95797 0
M  V30 1155 C 113.269 0.995565 2.05338 0
M  V30 1156 C 114.247 -0.0740423 1.62431 0
M  V30 1157 O 115.431 0.0649212 1.88388 0
M  V30 1158 C 112.558 0.504298 3.34925 0
M  V30 1159 C 111.604 1.56393 3.96792 0
M  V30 1160 S 112.437 3.14815 4.33188 0
M  V30 1161 C 113.593 2.67415 5.65898 0
M  V30 1162 H 113.826 1.92309 2.26726 0
M  V30 1163 H 111.359 1.08635 1.09716 0
M  V30 1164 H 113.317 0.227497 4.09869 0
M  V30 1165 H 111.978 -0.402671 3.11508 0
M  V30 1166 H 111.171 1.17082 4.90212 0
M  V30 1167 H 110.773 1.79124 3.28315 0
M  V30 1168 H 113.065 2.10833 6.4386 0
M  V30 1169 H 114.008 3.59463 6.10076 0
M  V30 1170 H 114.416 2.07521 5.24972 0
M  V30 1171 N 113.814 -1.1601 1.06675 0
M  V30 1172 C 115.054 -1.88304 0.795037 0
M  V30 1173 C 115.418 -1.80062 -0.666466 0
M  V30 1174 O 116.619 -2.47319 -1.05293 0
M  V30 1175 C 114.89 -3.33664 1.28076 0
M  V30 1176 S 116.449 -4.23768 1.13868 0
M  V30 1177 H 113.267 -0.649928 0.288296 0
M  V30 1178 H 115.869 -1.4001 1.36445 0
M  V30 1179 H 114.573 -3.37203 2.33927 0
M  V30 1180 H 114.104 -3.87009 0.706253 0
M  V30 1181 H 116.119 -4.96148 0.0719668 0
M  V30 1182 N 115.292 -0.849877 -1.32721 0
M  V30 1183 C 116.202 -0.293791 -2.32753 0
M  V30 1184 C 117.218 0.585906 -1.63839 0
M  V30 1185 O 118.394 0.487413 -1.95413 0
M  V30 1186 C 115.459 0.512752 -3.42887 0
M  V30 1187 C 114.52 -0.39252 -4.27502 0
M  V30 1188 C 113.753 0.375625 -5.32377 0
M  V30 1189 O 113.976 1.60613 -5.4732 0
M  V30 1190 O 112.91 -0.256094 -6.01355 0
M  V30 1191 H 116.736 -1.12242 -2.82197 0
M  V30 1192 H 114.321 -0.612685 -1.36259 0
M  V30 1193 H 116.203 0.970704 -4.10067 0
M  V30 1194 H 114.878 1.31826 -2.95641 0
M  V30 1195 H 113.785 -0.898547 -3.63149 0
M  V30 1196 H 115.118 -1.16309 -4.7826 0
M  V30 1197 N 116.77 1.45427 -0.607355 0
M  V30 1198 C 117.995 2.07124 -0.107006 0
M  V30 1199 C 118.42 1.44906 1.19933 0
M  V30 1200 O 117.778 0.541687 1.73019 0
M  V30 1201 C 117.826 3.60595 0.0194119 0
M  V30 1202 O 116.93 3.98285 1.0697 0
M  V30 1203 H 116.271 0.659868 -0.0739597 0
M  V30 1204 H 118.801 1.86683 -0.837297 0
M  V30 1205 H 118.811 4.07419 0.2177 0
M  V30 1206 H 117.486 4.05266 -0.934453 0
M  V30 1207 H 116.063 3.63133 0.847889 0
M  V30 1208 N 118.248 0.346503 1.53744 0
M  V30 1209 C 119.473 -0.253074 2.0585 0
M  V30 1210 C 119.898 -1.43202 1.21962 0
M  V30 1211 O 119.256 -1.79783 0.234073 0
M  V30 1212 C 119.304 -0.643193 3.54817 0
M  V30 1213 O 118.408 -1.74286 3.73762 0
M  V30 1214 H 117.749 -0.0413583 0.662711 0
M  V30 1215 H 120.279 0.501574 1.98357 0
M  V30 1216 H 120.289 -0.919526 3.97503 0
M  V30 1217 H 118.964 0.218966 4.15323 0
M  V30 1218 H 117.541 -1.46356 3.42979 0
M  V30 1219 N 119.726 -1.57421 0.075193 0
M  V30 1220 C 120.673 -2.12915 -0.890843 0
M  V30 1221 C 121.643 -1.04252 -1.29309 0
M  V30 1222 O 122.828 -1.31933 -1.37834 0
M  V30 1223 C 119.968 -2.69795 -2.15186 0
M  V30 1224 C 119.081 -3.92624 -1.80194 0
M  V30 1225 C 118.216 -4.37736 -3.00933 0
M  V30 1226 C 117.255 -5.53205 -2.61974 0
M  V30 1227 N 116.392 -5.9326 -3.75483 0
M  V30 1228 H 121.232 -2.95156 -0.410735 0
M  V30 1229 H 118.769 -1.45854 -0.191086 0
M  V30 1230 H 120.727 -3.00883 -2.89008 0
M  V30 1231 H 119.357 -1.90313 -2.60731 0
M  V30 1232 H 118.409 -3.67977 -0.964218 0
M  V30 1233 H 119.721 -4.76482 -1.47534 0
M  V30 1234 H 118.875 -4.70503 -3.8303 0
M  V30 1235 H 117.614 -3.52739 -3.36789 0
M  V30 1236 H 116.619 -5.20086 -1.783 0
M  V30 1237 H 117.844 -6.39936 -2.27284 0
M  V30 1238 H 115.79 -5.11212 -4.11094 0
M  V30 1239 H 115.707 -6.71865 -3.46602 0
M  V30 1240 H 116.975 -6.30651 -4.58148 0
M  V30 1241 N 121.204 0.198386 -1.56346 0
M  V30 1242 C 122.114 1.2664 -1.97483 0
M  V30 1243 C 123.13 1.49989 -0.882002 0
M  V30 1244 O 124.306 1.62668 -1.18748 0
M  V30 1245 C 121.371 2.59141 -2.30319 0
M  V30 1246 C 120.432 2.43892 -3.53292 0
M  V30 1247 C 119.665 3.70074 -3.84553 0
M  V30 1248 O 119.888 4.74101 -3.1715 0
M  V30 1249 O 118.822 3.658 -4.7799 0
M  V30 1250 H 122.648 0.947304 -2.88548 0
M  V30 1251 H 120.233 0.403123 -1.43859 0
M  V30 1252 H 122.115 3.37352 -2.5253 0
M  V30 1253 H 120.79 2.90684 -1.42423 0
M  V30 1254 H 119.697 1.63803 -3.36332 0
M  V30 1255 H 121.03 2.17282 -4.41644 0
M  V30 1256 N 122.682 1.50554 0.465978 0
M  V30 1257 C 123.645 1.69233 1.54574 0
M  V30 1258 C 124.645 0.562901 1.50626 0
M  V30 1259 O 125.835 0.830016 1.53155 0
M  V30 1260 C 122.967 1.7223 2.94193 0
M  V30 1261 H 124.16 2.65571 1.39327 0
M  V30 1262 H 121.713 1.40111 0.692711 0
M  V30 1263 H 122.448 0.77603 3.14878 0
M  V30 1264 H 122.233 2.54285 2.98466 0
M  V30 1265 H 123.723 1.88618 3.72576 0
M  V30 1266 N 124.16 -0.719506 1.40217 0
M  V30 1267 C 125.09 -1.8465 1.42922 0
M  V30 1268 C 126.071 -1.67599 0.29062 0
M  V30 1269 O 127.256 -1.87688 0.498677 0
M  V30 1270 C 124.386 -3.22565 1.28722 0
M  V30 1271 C 123.34 -3.54281 2.40144 0
M  V30 1272 C 122.666 -4.91298 2.11023 0
M  V30 1273 C 123.966 -3.55676 3.82481 0
M  V30 1274 H 125.66 -1.82644 2.37237 0
M  V30 1275 H 123.206 -0.877305 1.1419 0
M  V30 1276 H 125.159 -4.01095 1.29232 0
M  V30 1277 H 123.883 -3.25137 0.308811 0
M  V30 1278 H 122.542 -2.78088 2.38877 0
M  V30 1279 H 122.19 -4.90468 1.11582 0
M  V30 1280 H 121.89 -5.13485 2.8567 0
M  V30 1281 H 123.414 -5.72166 2.13209 0
M  V30 1282 H 124.828 -4.24254 3.85592 0
M  V30 1283 H 123.225 -3.89388 4.56614 0
M  V30 1284 H 124.295 -2.55144 4.12346 0
M  V30 1285 N 125.638 -1.25649 -0.95132 0
M  V30 1286 C 126.601 -1.06399 -2.03007 0
M  V30 1287 C 127.601 -0.0156794 -1.60792 0
M  V30 1288 O 128.791 -0.25817 -1.72276 0
M  V30 1289 C 125.923 -0.616184 -3.35285 0
M  V30 1290 H 127.116 -2.02164 -2.21517 0
M  V30 1291 H 124.669 -1.08103 -1.12887 0
M  V30 1292 H 125.404 0.343917 -3.22471 0
M  V30 1293 H 125.189 -1.37301 -3.67275 0
M  V30 1294 H 126.679 -0.503032 -4.14559 0
M  V30 1295 N 127.117 1.15442 -1.07289 0
M  V30 1296 C 128.027 2.23786 -0.704057 0
M  V30 1297 C 129.043 1.7166 0.284413 0
M  V30 1298 O 130.219 2.00972 0.131205 0
M  V30 1299 C 127.284 3.46535 -0.106792 0
M  V30 1300 C 126.345 4.13654 -1.14842 0
M  V30 1301 C 125.578 5.30544 -0.57956 0
M  V30 1302 O 125.801 5.67187 0.604585 0
M  V30 1303 O 124.735 5.87154 -1.32414 0
M  V30 1304 H 128.561 2.57664 -1.60757 0
M  V30 1305 H 126.146 1.23152 -0.845803 0
M  V30 1306 H 128.028 4.20804 0.224048 0
M  V30 1307 H 126.703 3.14407 0.770049 0
M  V30 1308 H 125.61 3.4131 -1.5316 0
M  V30 1309 H 126.943 4.49861 -1.99714 0
M  V30 1310 N 128.595 0.856903 1.32268 0
M  V30 1311 C 129.543 0.291987 2.3076 0
M  V30 1312 C 130.537 -0.585857 1.58947 0
M  V30 1313 O 131.743 -0.47341 1.73663 0
M  V30 1314 H 128.118 0.075721 0.748178 0
M  V30 1315 H 130.089 1.13687 2.75895 0
M  V30 1316 C 128.838 -0.502869 3.44044 0
M  V30 1317 H 128.161 0.163328 3.99466 0
M  V30 1318 H 129.601 -0.863691 4.1511 0
M  V30 1319 C 128.06 -1.68898 2.91505 0
M  V30 1320 O 128.59 -2.78811 2.89184 0
M  V30 1321 N 126.796 -1.51679 2.47875 0
M  V30 1322 H 126.343 -0.622666 2.49961 0
M  V30 1323 H 126.301 -2.31184 2.13076 0
M  V30 1324 N 130.073 -1.45103 0.615059 0
M  V30 1325 C 131.021 -2.32331 -0.111791 0
M  V30 1326 C 132.015 -1.46409 -0.852102 0
M  V30 1327 O 133.221 -1.62849 -0.766821 0
M  V30 1328 H 129.596 -0.749993 -0.0549072 0
M  V30 1329 H 131.567 -2.91407 0.642225 0
M  V30 1330 C 130.316 -3.3015 -1.09071 0
M  V30 1331 H 129.639 -3.96265 -0.530485 0
M  V30 1332 H 131.079 -3.93898 -1.56908 0
M  V30 1333 C 129.538 -2.57875 -2.168 0
M  V30 1334 O 130.068 -2.36567 -3.24652 0
M  V30 1335 N 128.274 -2.17884 -1.92289 0
M  V30 1336 H 127.821 -2.35413 -1.04587 0
M  V30 1337 H 127.779 -1.6985 -2.64572 0
M  V30 1338 N 131.551 -0.354651 -1.53558 0
M  V30 1339 C 132.481 0.489091 -2.2832 0
M  V30 1340 C 133.462 1.09324 -1.30316 0
M  V30 1341 O 134.647 1.11255 -1.59173 0
M  V30 1342 C 131.777 1.63456 -3.0643 0
M  V30 1343 C 130.731 1.1582 -4.12031 0
M  V30 1344 C 130.057 2.39305 -4.7816 0
M  V30 1345 C 131.357 0.250731 -5.21698 0
M  V30 1346 H 133.051 -0.134614 -2.99097 0
M  V30 1347 H 130.597 -0.0661826 -1.43848 0
M  V30 1348 H 132.55 2.23136 -3.57475 0
M  V30 1349 H 131.274 2.28533 -2.33325 0
M  V30 1350 H 129.933 0.584146 -3.61916 0
M  V30 1351 H 129.581 3.02814 -4.01637 0
M  V30 1352 H 129.281 2.08109 -5.49513 0
M  V30 1353 H 130.805 2.99691 -5.31994 0
M  V30 1354 H 132.219 0.754695 -5.68311 0
M  V30 1355 H 130.616 0.0301468 -6.00092 0
M  V30 1356 H 131.686 -0.710125 -4.79672 0
M  V30 1357 N 133.029 1.57378 -0.0835403 0
M  V30 1358 C 133.977 2.14602 0.89714 0
M  V30 1359 C 134.971 1.08589 1.30018 0
M  V30 1360 O 136.177 1.26952 1.27606 0
M  V30 1361 H 132.552 0.686346 0.3073 0
M  V30 1362 H 134.523 2.95845 0.38969 0
M  V30 1363 C 133.272 2.73188 2.15089 0
M  V30 1364 H 132.595 3.54442 1.84962 0
M  V30 1365 H 134.035 3.1681 2.81793 0
M  V30 1366 C 132.494 1.68517 2.91725 0
M  V30 1367 O 133.024 1.11718 3.85852 0
M  V30 1368 N 131.23 1.39277 2.55049 0
M  V30 1369 H 130.777 1.85655 1.78577 0
M  V30 1370 H 130.735 0.694791 3.06627 0
M  V30 1371 N 134.507 -0.190092 1.56449 0
M  V30 1372 C 135.437 -1.23816 1.97969 0
M  V30 1373 C 136.418 -1.47201 0.852395 0
M  V30 1374 O 137.603 -1.58854 1.1171 0
M  V30 1375 C 134.733 -2.5813 2.3235 0
M  V30 1376 C 133.687 -2.49348 3.47864 0
M  V30 1377 C 133.013 -3.8798 3.67934 0
M  V30 1378 C 134.313 -2.01424 4.81898 0
M  V30 1379 H 136.007 -0.89311 2.85769 0
M  V30 1380 H 133.553 -0.428177 1.37487 0
M  V30 1381 H 135.506 -3.31637 2.59991 0
M  V30 1382 H 134.23 -2.94386 1.41438 0
M  V30 1383 H 132.889 -1.78297 3.20321 0
M  V30 1384 H 132.537 -4.21597 2.74344 0
M  V30 1385 H 132.237 -3.82978 4.45648 0
M  V30 1386 H 133.761 -4.63101 3.97957 0
M  V30 1387 H 135.175 -2.64693 5.08538 0
M  V30 1388 H 133.572 -2.07413 5.63116 0
M  V30 1389 H 134.642 -0.967677 4.75146 0
M  V30 1390 N 135.985 -1.50799 -0.457987 0
M  V30 1391 C 137.396 -1.55152 -1.0385 0
M  V30 1392 C 137.747 -0.362719 -1.92818 0
M  V30 1393 O 136.872 0.522915 -2.09987 0
M  V30 1394 C 137.467 -2.81173 -1.89017 0
M  V30 1395 C 136.026 -2.88164 -2.42154 0
M  V30 1396 C 135.173 -2.49591 -1.20829 0
M  V30 1397 H 138.124 -1.56874 -0.240068 0
M  V30 1398 H 138.145 -2.63769 -2.74238 0
M  V30 1399 H 137.657 -3.67677 -1.24238 0
M  V30 1400 H 135.758 -2.06042 -3.10447 0
M  V30 1401 H 135.871 -3.91356 -2.76364 0
M  V30 1402 H 134.235 -2.02322 -1.54719 0
M  V30 1403 H 135.018 -3.38418 -0.576927 0
M  V30 1404 N 137.463 0.71206 -1.40597 0
M  V30 1405 C 138.41 1.82613 -1.41142 0
M  V30 1406 C 139.38 1.63925 -0.267903 0
M  V30 1407 O 140.565 1.85009 -0.466495 0
M  V30 1408 C 137.705 3.20354 -1.28324 0
M  V30 1409 C 136.818 3.50589 -2.52411 0
M  V30 1410 C 135.953 4.77855 -2.32009 0
M  V30 1411 C 134.992 5.01005 -3.51654 0
M  V30 1412 N 134.129 6.19487 -3.30425 0
M  V30 1413 H 138.969 1.81482 -2.36365 0
M  V30 1414 H 136.506 0.886475 -1.17388 0
M  V30 1415 H 138.464 3.99899 -1.18899 0
M  V30 1416 H 137.094 3.20705 -0.367189 0
M  V30 1417 H 136.146 2.65573 -2.72351 0
M  V30 1418 H 137.458 3.63604 -3.41458 0
M  V30 1419 H 136.612 5.65424 -2.19956 0
M  V30 1420 H 135.351 4.67056 -1.40392 0
M  V30 1421 H 134.356 4.1189 -3.64179 0
M  V30 1422 H 135.581 5.13674 -4.44202 0
M  V30 1423 H 133.527 6.09932 -2.41494 0
M  V30 1424 H 133.444 6.33194 -4.13039 0
M  V30 1425 H 134.712 7.09834 -3.22113 0
M  V30 1426 N 138.941 1.26152 0.944643 0
M  V30 1427 C 139.874 1.01729 2.04271 0
M  V30 1428 C 140.852 -0.0568101 1.62501 0
M  V30 1429 O 142.036 0.0848987 1.88309 0
M  V30 1430 C 139.163 0.539792 3.34371 0
M  V30 1431 C 138.209 1.60593 3.9511 0
M  V30 1432 S 139.042 3.19392 4.29825 0
M  V30 1433 C 140.198 2.73402 5.63029 0
M  V30 1434 H 140.431 1.94703 2.24673 0
M  V30 1435 H 137.964 1.09793 1.08558 0
M  V30 1436 H 139.922 0.270956 4.09605 0
M  V30 1437 H 138.583 -0.369609 3.11918 0
M  V30 1438 H 137.776 1.22275 4.88943 0
M  V30 1439 H 137.378 1.82596 3.26397 0
M  V30 1440 H 139.67 2.1765 6.41588 0
M  V30 1441 H 140.613 3.65913 6.06229 0
M  V30 1442 H 141.021 2.13077 5.22741 0
M  V30 1443 N 140.419 -1.14872 1.07899 0
M  V30 1444 C 141.382 -2.17986 0.708161 0
M  V30 1445 C 142.382 -1.58775 -0.25442 0
M  V30 1446 O 143.572 -1.74166 -0.034645 0
M  V30 1447 C 140.704 -3.40871 0.0446929 0
M  V30 1448 H 141.897 -2.52306 1.62116 0
M  V30 1449 H 139.45 -1.2943 0.876218 0
M  V30 1450 H 140.185 -3.12124 -0.880281 0
M  V30 1451 H 139.97 -3.8511 0.737091 0
M  V30 1452 H 141.46 -4.17121 -0.19991 0
M  V30 1453 N 141.898 -0.863906 -1.31812 0
M  V30 1454 C 142.808 -0.318461 -2.32428 0
M  V30 1455 C 143.824 0.568496 -1.64451 0
M  V30 1456 O 145 0.46666 -1.95919 0
M  V30 1457 C 142.065 0.476355 -3.43412 0
M  V30 1458 C 141.126 -0.43784 -4.27061 0
M  V30 1459 C 140.359 0.319138 -5.32745 0
M  V30 1460 O 140.582 1.54799 -5.48993 0
M  V30 1461 O 139.516 -0.319861 -6.01049 0
M  V30 1462 H 143.342 -1.15229 -2.80991 0
M  V30 1463 H 140.927 -0.627103 -1.35602 0
M  V30 1464 H 142.809 0.927156 -4.11074 0
M  V30 1465 H 141.484 1.28683 -2.97022 0
M  V30 1466 H 140.391 -0.937013 -3.62175 0
M  V30 1467 H 141.724 -1.21375 -4.77 0
M  V30 1468 N 143.376 1.44774 -0.622745 0
M  V30 1469 C 144.323 2.30635 0.0871679 0
M  V30 1470 C 145.293 1.42994 0.845097 0
M  V30 1471 O 146.478 1.71907 0.827812 0
M  V30 1472 C 143.618 3.28144 1.06844 0
M  V30 1473 C 142.731 4.30888 0.309809 0
M  V30 1474 C 141.866 5.15494 1.28215 0
M  V30 1475 C 140.905 6.09953 0.512198 0
M  V30 1476 N 140.042 6.87287 1.43458 0
M  V30 1477 H 144.882 2.90803 -0.650974 0
M  V30 1478 H 142.419 1.43286 -0.33281 0
M  V30 1479 H 144.377 3.83157 1.65066 0
M  V30 1480 H 143.007 2.69695 1.77382 0
M  V30 1481 H 142.059 3.78414 -0.388181 0
M  V30 1482 H 143.371 4.97955 -0.290254 0
M  V30 1483 H 142.525 5.74983 1.93596 0
M  V30 1484 H 141.264 4.48481 1.91614 0
M  V30 1485 H 140.269 5.49581 -0.155151 0
M  V30 1486 H 141.494 6.78999 -0.116958 0
M  V30 1487 H 139.44 6.2295 2.05594 0
M  V30 1488 H 139.357 7.50763 0.888335 0
M  V30 1489 H 140.625 7.51306 2.07749 0
M  V30 1490 N 144.854 0.36279 1.53368 0
M  V30 1491 C 146.131 -0.284021 1.93527 0
M  V30 1492 C 146.511 -1.66628 1.29608 0
M  V30 1493 O 145.859 -2.23942 0.45413 0
M  V30 1494 C 146.069 -0.337028 3.47369 0
M  V30 1495 C 147.417 -0.578708 4.20638 0
M  V30 1496 O 148.441 -0.418352 3.53735 0
M  V30 1497 O 147.3 -0.89074 5.39192 0
M  V30 1498 H 144.394 -0.169743 0.809393 0
M  V30 1499 H 146.94 0.41537 1.64538 0
M  V30 1500 H 145.712 0.632217 3.86159 0
M  V30 1501 H 145.335 -1.08243 3.82582 0
M  V30 1502 N 146.332 -1.57332 0.0918853 0
M  V30 1503 C 147.58 -1.93853 -0.571446 0
M  V30 1504 C 147.901 -0.974212 -1.6892 0
M  V30 1505 O 147.171 -0.0257254 -1.95883 0
M  V30 1506 H 145.751 -0.715666 -0.214082 0
M  V30 1507 H 148.413 -1.94287 0.154464 0
M  V30 1508 H 147.509 -2.96191 -0.983729 0
M  V30 1509 N 147.81 0.181792 -1.56548 0
M  V30 1510 C 149.05 0.906711 -1.83189 0
M  V30 1511 C 149.414 1.79882 -0.671312 0
M  V30 1512 O 150.615 2.56054 -0.81792 0
M  V30 1513 C 148.886 1.69023 -3.14906 0
M  V30 1514 S 150.445 2.46535 -3.62996 0
M  V30 1515 H 147.263 0.303877 -0.642791 0
M  V30 1516 H 149.865 0.169107 -1.94767 0
M  V30 1517 H 148.569 1.02571 -3.97376 0
M  V30 1518 H 148.1 2.46941 -3.06241 0
M  V30 1519 H 150.115 3.71014 -3.29489 0
M  V30 1520 N 149.288 1.51039 0.449983 0
M  V30 1521 C 150.535 1.63081 1.20045 0
M  V30 1522 C 150.863 0.341024 1.91487 0
M  V30 1523 O 150.118 -0.674276 1.83717 0
M  V30 1524 C 150.417 2.77556 2.25161 0
M  V30 1525 C 150.083 4.17289 1.70823 0
M  V30 1526 C 148.745 4.55305 1.55725 0
M  V30 1527 C 151.097 5.04536 1.3074 0
M  V30 1528 C 148.425 5.78287 0.989999 0
M  V30 1529 C 150.777 6.28085 0.754482 0
M  V30 1530 C 149.441 6.64885 0.590308 0
M  V30 1531 H 148.711 0.596755 0.439277 0
M  V30 1532 H 151.358 1.85037 0.49333 0
M  V30 1533 H 149.663 2.49771 3.01863 0
M  V30 1534 H 151.36 2.84073 2.83026 0
M  V30 1535 H 147.95 3.8731 1.83546 0
M  V30 1536 H 152.134 4.75782 1.41229 0
M  V30 1537 H 147.39 6.05456 0.850451 0
M  V30 1538 H 151.564 6.95038 0.435324 0
M  V30 1539 H 149.191 7.60055 0.14862 0
M  V30 1540 N 150.766 -0.704594 1.40972 0
M  V30 1541 C 151.698 -1.82974 1.38033 0
M  V30 1542 C 152.711 -1.60305 0.283931 0
M  V30 1543 O 153.9 -1.69975 0.545042 0
M  V30 1544 C 151 -3.19578 1.12795 0
M  V30 1545 C 150.173 -3.69352 2.34302 0
M  V30 1546 C 149.232 -4.84601 2.05058 0
M  V30 1547 O 148.258 -4.96682 2.7802 0
M  V30 1548 N 149.46 -5.71194 1.03528 0
M  V30 1549 H 152.225 -1.85991 2.35005 0
M  V30 1550 H 149.786 -0.886567 1.35468 0
M  V30 1551 H 151.778 -3.9429 0.911987 0
M  V30 1552 H 150.348 -3.11642 0.24452 0
M  V30 1553 H 149.568 -2.85649 2.71659 0
M  V30 1554 H 150.856 -3.99345 3.1528 0
M  V30 1555 H 150.254 -5.64054 0.431217 0
M  V30 1556 H 148.811 -6.45843 0.879205 0
M  V30 1557 N 152.244 -1.26651 -0.937939 0
M  V30 1558 C 153.469 -1.15279 -1.72411 0
M  V30 1559 C 153.894 0.287866 -1.85884 0
M  V30 1560 O 153.252 1.20855 -1.35143 0
M  V30 1561 C 153.3 -1.83028 -3.10698 0
M  V30 1562 O 152.404 -1.12128 -3.96864 0
M  V30 1563 H 151.745 -0.401504 -0.528858 0
M  V30 1564 H 154.275 -1.67531 -1.1745 0
M  V30 1565 H 154.285 -1.89981 -3.6107 0
M  V30 1566 H 152.96 -2.87833 -3.00208 0
M  V30 1567 H 151.537 -1.13173 -3.55312 0
M  V30 1568 N 153.722 1.14298 -1.08507 0
M  V30 1569 C 154.97 1.84993 -0.813763 0
M  V30 1570 C 155.291 1.83405 0.662393 0
M  V30 1571 O 154.561 1.28319 1.48024 0
M  V30 1572 H 153.141 0.684966 -0.298045 0
M  V30 1573 H 155.803 1.385 -1.37126 0
M  V30 1574 H 154.899 2.89788 -1.15884 0
M  V30 1575 N 155.201 0.870884 1.31352 0
M  V30 1576 C 156.448 0.482273 1.96673 0
M  V30 1577 C 156.776 -0.965638 1.68836 0
M  V30 1578 O 156.031 -1.69514 0.977937 0
M  V30 1579 C 156.33 0.687157 3.50732 0
M  V30 1580 C 155.996 2.108 3.9859 0
M  V30 1581 C 154.658 2.49656 4.1137 0
M  V30 1582 C 157.01 3.03459 4.23748 0
M  V30 1583 C 154.338 3.80412 4.46659 0
M  V30 1584 C 156.69 4.3373 4.60501 0
M  V30 1585 C 155.354 4.725 4.71487 0
M  V30 1586 H 154.624 0.176476 0.719679 0
M  V30 1587 H 157.271 1.10405 1.56471 0
M  V30 1588 H 155.576 -0.0177476 3.91796 0
M  V30 1589 H 157.273 0.366284 3.99324 0
M  V30 1590 H 153.863 1.79633 3.8914 0
M  V30 1591 H 158.047 2.74665 4.13368 0
M  V30 1592 H 153.303 4.1021 4.53362 0
M  V30 1593 H 157.477 5.05578 4.78919 0
M  V30 1594 H 155.104 5.73859 4.98588 0
M  V30 1595 N 156.679 -1.44442 0.630414 0
M  V30 1596 C 157.627 -2.32437 -0.0871428 0
M  V30 1597 C 158.621 -1.47304 -0.836525 0
M  V30 1598 O 159.827 -1.63653 -0.749506 0
M  V30 1599 H 156.202 -0.750533 -0.0469495 0
M  V30 1600 H 158.173 -2.90709 0.673096 0
M  V30 1601 C 156.922 -3.31288 -1.05563 0
M  V30 1602 H 156.245 -3.96805 -0.488426 0
M  V30 1603 H 157.685 -3.9554 -1.52721 0
M  V30 1604 C 156.144 -2.6016 -2.14052 0
M  V30 1605 O 156.674 -2.39997 -3.22124 0
M  V30 1606 N 154.88 -2.19911 -1.89967 0
M  V30 1607 H 154.427 -2.36509 -1.02085 0
M  V30 1608 H 154.385 -1.72646 -2.62756 0
M  V30 1609 N 158.157 -0.370918 -1.53173 0
M  V30 1610 C 159.067 0.480823 -2.2962 0
M  V30 1611 C 160.083 1.08789 -1.35798 0
M  V30 1612 O 161.259 1.09768 -1.68858 0
M  V30 1613 C 158.324 1.60227 -3.07454 0
M  V30 1614 C 157.385 1.0222 -4.16953 0
M  V30 1615 C 156.618 2.0902 -4.91066 0
M  V30 1616 O 156.841 3.30222 -4.65091 0
M  V30 1617 O 155.775 1.71778 -5.76867 0
M  V30 1618 H 159.601 -0.141421 -3.03371 0
M  V30 1619 H 157.186 -0.135146 -1.48787 0
M  V30 1620 H 159.068 2.25417 -3.56041 0
M  V30 1621 H 157.743 2.20982 -2.36535 0
M  V30 1622 H 156.65 0.334064 -3.72605 0
M  V30 1623 H 157.983 0.459131 -4.90054 0
M  V30 1624 N 159.635 1.57281 -0.100228 0
M  V30 1625 C 160.545 2.17833 0.870965 0
M  V30 1626 C 161.561 1.14921 1.30649 0
M  V30 1627 O 162.737 1.47313 1.37335 0
M  V30 1628 C 159.802 2.75085 2.1102 0
M  V30 1629 C 158.863 3.9297 1.72838 0
M  V30 1630 C 158.096 4.47482 2.90854 0
M  V30 1631 O 158.319 4.00922 4.05731 0
M  V30 1632 O 157.253 5.38433 2.69023 0
M  V30 1633 H 161.079 3.0124 0.38575 0
M  V30 1634 H 158.664 1.48881 0.124397 0
M  V30 1635 H 160.546 3.11656 2.83634 0
M  V30 1636 H 159.221 1.94721 2.58584 0
M  V30 1637 H 158.128 3.61201 0.973883 0
M  V30 1638 H 159.461 4.74713 1.30033 0
M  V30 1639 N 161.113 -0.173488 1.56642 0
M  V30 1640 C 162.341 -0.906095 1.86004 0
M  V30 1641 C 162.756 -1.75921 0.685355 0
M  V30 1642 O 162.113 -1.79198 -0.345578 0
M  V30 1643 C 162.164 -1.78462 3.14378 0
M  V30 1644 O 161.885 -0.965914 4.27319 0
M  V30 1645 C 163.386 -2.62707 3.57071 0
M  V30 1646 H 160.606 -0.263341 0.617165 0
M  V30 1647 H 163.15 -0.174236 2.03756 0
M  V30 1648 H 161.305 -2.46984 2.98459 0
M  V30 1649 H 161.719 -1.56655 5.00559 0
M  V30 1650 H 163.193 -3.19969 4.49804 0
M  V30 1651 H 163.67 -3.37472 2.81086 0
M  V30 1652 H 164.276 -1.99521 3.75595 0
M  V30 1653 N 162.591 -1.51276 -0.441967 0
M  V30 1654 C 163.831 -1.65372 -1.20132 0
M  V30 1655 C 164.195 -0.359871 -1.88597 0
M  V30 1656 O 165.396 -0.376551 -2.66149 0
M  V30 1657 C 163.667 -2.8207 -2.1948 0
M  V30 1658 S 165.226 -3.16467 -3.03964 0
M  V30 1659 H 162.044 -0.582669 -0.407453 0
M  V30 1660 H 164.646 -1.89166 -0.493609 0
M  V30 1661 H 163.35 -3.74523 -1.67812 0
M  V30 1662 H 162.881 -2.6045 -2.94838 0
M  V30 1663 H 164.896 -2.62543 -4.21053 0
M  V30 1664 N 164.069 0.697108 -1.41344 0
M  V30 1665 C 164.999 1.82353 -1.45841 0
M  V30 1666 C 165.98 1.67115 -0.317247 0
M  V30 1667 O 167.165 1.86871 -0.528474 0
M  V30 1668 C 164.295 3.20476 -1.33838 0
M  V30 1669 C 163.249 3.50415 -2.4575 0
M  V30 1670 C 162.575 4.87878 -2.18813 0
M  V30 1671 C 163.875 3.49546 -3.88091 0
M  V30 1672 H 165.569 1.78846 -2.40113 0
M  V30 1673 H 163.115 0.859028 -1.15571 0
M  V30 1674 H 165.068 3.98988 -1.35596 0
M  V30 1675 H 163.792 3.24604 -0.360498 0
M  V30 1676 H 162.451 2.74253 -2.43271 0
M  V30 1677 H 162.099 4.8863 -1.19371 0
M  V30 1678 H 161.799 5.08875 -2.93803 0
M  V30 1679 H 163.323 5.68702 -2.22284 0
M  V30 1680 H 164.737 4.18066 -3.92293 0
M  V30 1681 H 163.134 3.82075 -4.62751 0
M  V30 1682 H 164.204 2.48552 -4.16353 0
M  V30 1683 N 165.547 1.27147 0.931209 0
M  V30 1684 C 166.793 1.13446 1.68101 0
M  V30 1685 C 167.126 -0.319628 1.91552 0
M  V30 1686 O 166.401 -1.23407 1.50336 0
M  V30 1687 C 166.684 1.91482 3.0497 0
M  V30 1688 C 166.537 3.44855 2.88782 0
M  V30 1689 C 167.856 1.71651 4.05246 0
M  V30 1690 H 164.975 0.413498 0.610072 0
M  V30 1691 H 167.617 1.56261 1.08086 0
M  V30 1692 H 165.767 1.55095 3.56199 0
M  V30 1693 H 167.439 3.9105 2.44698 0
M  V30 1694 H 165.682 3.71373 2.24198 0
M  V30 1695 H 166.353 3.94694 3.85902 0
M  V30 1696 H 168.829 2.0337 3.63015 0
M  V30 1697 H 167.705 2.28651 4.99009 0
M  V30 1698 H 167.966 0.663555 4.37092 0
M  V30 1699 N 167.025 -1.13721 1.09112 0
M  V30 1700 C 167.972 -2.19031 0.727591 0
M  V30 1701 C 168.942 -1.63555 -0.289656 0
M  V30 1702 O 170.127 -1.90023 -0.172026 0
M  V30 1703 C 167.267 -3.4477 0.15082 0
M  V30 1704 C 166.38 -4.14365 1.22172 0
M  V30 1705 C 165.515 -5.27709 0.608042 0
M  V30 1706 C 164.554 -5.89147 1.66047 0
M  V30 1707 N 163.691 -6.93929 1.06806 0
M  V30 1708 H 168.531 -2.49475 1.62991 0
M  V30 1709 H 166.068 -1.22499 0.81439 0
M  V30 1710 H 168.026 -4.16714 -0.201358 0
M  V30 1711 H 166.656 -3.14787 -0.714783 0
M  V30 1712 H 165.708 -3.40737 1.69122 0
M  V30 1713 H 167.02 -4.56114 2.01895 0
M  V30 1714 H 166.174 -6.06355 0.204523 0
M  V30 1715 H 164.913 -4.872 -0.220769 0
M  V30 1716 H 163.918 -5.09198 2.07357 0
M  V30 1717 H 165.143 -6.31729 2.49189 0
M  V30 1718 H 163.089 -6.55483 0.260476 0
M  V30 1719 H 163.006 -7.34202 1.8023 0
M  V30 1720 H 164.274 -7.76434 0.690644 0
M  V30 1721 N 168.503 -0.877838 -1.30888 0
M  V30 1722 C 169.752 -0.488793 -1.95688 0
M  V30 1723 C 170.065 0.965485 -1.70111 0
M  V30 1724 O 171.271 1.46104 -2.28836 0
M  V30 1725 C 169.727 -0.823201 -3.50359 0
M  V30 1726 C 169.335 -2.29477 -3.84765 0
M  V30 1727 C 171.079 -0.503009 -4.21509 0
M  V30 1728 C 168.986 -2.57118 -5.32583 0
M  V30 1729 H 167.916 -0.179062 -0.732429 0
M  V30 1730 H 170.567 -1.07183 -1.48943 0
M  V30 1731 H 168.949 -0.169331 -3.95638 0
M  V30 1732 H 170.123 -2.99236 -3.5042 0
M  V30 1733 H 168.438 -2.58178 -3.267 0
M  V30 1734 H 171.035 -0.68665 -5.30273 0
M  V30 1735 H 171.378 0.557109 -4.12555 0
M  V30 1736 H 171.911 -1.11376 -3.8189 0
M  V30 1737 H 168.65 -3.61843 -5.4658 0
M  V30 1738 H 168.17 -1.91961 -5.68253 0
M  V30 1739 H 169.849 -2.42251 -5.99936 0
M  V30 1740 N 169.982 1.44106 -0.638065 0
M  V30 1741 C 171.231 2.01194 -0.142744 0
M  V30 1742 C 171.544 1.50835 1.24532 0
M  V30 1743 O 172.75 2.00096 1.83504 0
M  V30 1744 C 171.206 3.59319 -0.20442 0
M  V30 1745 C 170.814 4.18674 -1.59423 0
M  V30 1746 C 172.558 4.23854 0.234079 0
M  V30 1747 C 170.465 5.69045 -1.61065 0
M  V30 1748 H 169.395 0.752367 -0.0495998 0
M  V30 1749 H 172.046 1.65246 -0.797881 0
M  V30 1750 H 170.428 3.92598 0.517946 0
M  V30 1751 H 171.602 3.96921 -2.34074 0
M  V30 1752 H 169.917 3.66453 -1.97741 0
M  V30 1753 H 172.514 5.34155 0.241443 0
M  V30 1754 H 172.857 3.96688 1.2627 0
M  V30 1755 H 173.39 3.95403 -0.436025 0
M  V30 1756 H 170.129 6.00956 -2.61787 0
M  V30 1757 H 169.649 5.929 -0.90718 0
M  V30 1758 H 171.328 6.32809 -1.34766 0
M  V30 1759 N 171.46 0.379036 1.52974 0
M  V30 1760 C 172.688 -0.20679 2.05864 0
M  V30 1761 C 173.103 -1.41356 1.25155 0
M  V30 1762 O 172.46 -1.8009 0.295588 0
M  V30 1763 C 172.511 -0.587045 3.56702 0
M  V30 1764 O 172.232 0.571776 4.34353 0
M  V30 1765 C 173.733 -1.22983 4.25899 0
M  V30 1766 H 170.953 -0.0336123 0.670158 0
M  V30 1767 H 173.497 0.541298 1.97206 0
M  V30 1768 H 171.652 -1.28504 3.65466 0
M  V30 1769 H 172.066 0.261544 5.23847 0
M  V30 1770 H 173.54 -1.44635 5.32715 0
M  V30 1771 H 174.017 -2.19416 3.80465 0
M  V30 1772 H 174.623 -0.572892 4.21424 0
M  V30 1773 N 172.938 -1.57226 0.108567 0
M  V30 1774 C 174.186 -1.94448 -0.550853 0
M  V30 1775 C 174.507 -0.992074 -1.67878 0
M  V30 1776 O 173.777 -0.0465 -1.95845 0
M  V30 1777 H 172.357 -0.717897 -0.206479 0
M  V30 1778 H 175.019 -1.94112 0.175062 0
M  V30 1779 H 174.115 -2.97218 -0.952259 0
M  V30 1780 N 174.416 0.165178 -1.56732 0
M  V30 1781 C 175.346 1.20651 -1.99914 0
M  V30 1782 C 176.327 1.45827 -0.875705 0
M  V30 1783 O 177.512 1.57057 -1.14223 0
M  V30 1784 C 174.642 2.54401 -2.36427 0
M  V30 1785 C 173.596 2.43782 -3.51787 0
M  V30 1786 C 172.922 3.82078 -3.7406 0
M  V30 1787 C 174.222 1.93732 -4.85041 0
M  V30 1788 H 175.916 0.847534 -2.87154 0
M  V30 1789 H 173.462 0.40625 -1.38151 0
M  V30 1790 H 175.415 3.27458 -2.65234 0
M  V30 1791 H 174.139 2.92098 -1.46103 0
M  V30 1792 H 172.798 1.73178 -3.23117 0
M  V30 1793 H 172.446 4.17179 -2.81017 0
M  V30 1794 H 172.146 3.7584 -4.51684 0
M  V30 1795 H 173.67 4.56712 -4.05274 0
M  V30 1796 H 175.084 2.56569 -5.12684 0
M  V30 1797 H 173.481 1.98428 -5.66345 0
M  V30 1798 H 174.551 0.891962 -4.76626 0
M  V30 1799 N 175.894 1.51508 0.433938 0
M  V30 1800 C 176.824 1.76016 1.53429 0
M  V30 1801 C 177.805 0.610112 1.58782 0
M  V30 1802 O 178.99 0.853177 1.74455 0
M  V30 1803 C 176.12 1.88831 2.9148 0
M  V30 1804 C 175.074 3.04288 3.00987 0
M  V30 1805 C 174.4 3.0229 4.4105 0
M  V30 1806 C 175.7 4.44193 2.74754 0
M  V30 1807 H 177.394 2.68152 1.33171 0
M  V30 1808 H 174.94 1.29035 0.639214 0
M  V30 1809 H 176.893 2.04559 3.6842 0
M  V30 1810 H 175.617 0.933455 3.12976 0
M  V30 1811 H 174.276 2.8827 2.26486 0
M  V30 1812 H 173.924 2.04576 4.59519 0
M  V30 1813 H 173.624 3.79822 4.4834 0
M  V30 1814 H 175.148 3.20116 5.1996 0
M  V30 1815 H 176.562 4.60544 3.41426 0
M  V30 1816 H 174.959 5.23457 2.9345 0
M  V30 1817 H 176.029 4.53996 1.70339 0
M  V30 1818 N 177.372 -0.689602 1.41712 0
M  V30 1819 C 178.282 -1.83314 1.46401 0
M  V30 1820 C 179.298 -1.7036 0.35405 0
M  V30 1821 O 180.474 -1.92171 0.602692 0
M  V30 1822 C 177.539 -3.19344 1.34982 0
M  V30 1823 C 176.6 -3.44363 2.56344 0
M  V30 1824 C 175.833 -4.73904 2.45461 0
M  V30 1825 O 176.056 -5.508 1.48241 0
M  V30 1826 O 174.99 -4.99839 3.35328 0
M  V30 1827 H 178.816 -1.82314 2.42889 0
M  V30 1828 H 176.401 -0.843438 1.23315 0
M  V30 1829 H 178.283 -4.00547 1.3092 0
M  V30 1830 H 176.958 -3.21014 0.41612 0
M  V30 1831 H 175.865 -2.63067 2.65982 0
M  V30 1832 H 177.198 -3.47512 3.48563 0
M  V30 1833 N 178.85 -1.27639 -0.924453 0
M  V30 1834 C 180.097 -1.14167 -1.67249 0
M  V30 1835 C 180.425 0.311863 -1.91984 0
M  V30 1836 O 179.68 1.24425 -1.51053 0
M  V30 1837 C 179.979 -1.87407 -3.04325 0
M  V30 1838 C 179.645 -3.37249 -2.99289 0
M  V30 1839 C 178.307 -3.7812 -2.97622 0
M  V30 1840 C 180.659 -4.32845 -2.90336 0
M  V30 1841 C 177.987 -5.12944 -2.8479 0
M  V30 1842 C 180.339 -5.6773 -2.79045 0
M  V30 1843 C 179.003 -6.07889 -2.7573 0
M  V30 1844 H 178.273 -0.417766 -0.612007 0
M  V30 1845 H 180.92 -1.58286 -1.07786 0
M  V30 1846 H 179.225 -1.35805 -3.67511 0
M  V30 1847 H 180.922 -1.74408 -3.61086 0
M  V30 1848 H 177.512 -3.04748 -3.01374 0
M  V30 1849 H 181.696 -4.02239 -2.90719 0
M  V30 1850 H 176.952 -5.432 -2.80612 0
M  V30 1851 H 181.126 -6.41472 -2.71083 0
M  V30 1852 H 178.753 -7.12314 -2.65544 0
M  V30 1853 N 180.328 1.1314 -1.09713 0
M  V30 1854 C 181.238 2.22242 -0.751367 0
M  V30 1855 C 182.254 1.72224 0.247938 0
M  V30 1856 O 183.43 2.01205 0.0885463 0
M  V30 1857 C 180.495 3.46231 -0.180274 0
M  V30 1858 C 179.556 4.11125 -1.2359 0
M  V30 1859 C 178.789 5.29195 -0.691966 0
M  V30 1860 O 179.012 5.68342 0.48414 0
M  V30 1861 O 177.946 5.84214 -1.44838 0
M  V30 1862 H 181.772 2.54197 -1.66186 0
M  V30 1863 H 179.357 1.21331 -0.871735 0
M  V30 1864 H 181.239 4.21185 0.134739 0
M  V30 1865 H 179.914 3.1597 0.703185 0
M  V30 1866 H 178.821 3.37985 -1.60366 0
M  V30 1867 H 180.154 4.45524 -2.09211 0
M  V30 1868 N 181.806 0.884767 1.30421 0
M  V30 1869 C 183.052 0.503851 1.96441 0
M  V30 1870 C 183.385 -0.944518 1.69684 0
M  V30 1871 O 182.66 -1.66737 1.00145 0
M  V30 1872 C 182.943 0.779085 3.51571 0
M  V30 1873 C 182.796 2.27807 3.87846 0
M  V30 1874 C 184.115 0.255452 4.39358 0
M  V30 1875 H 181.234 0.184533 0.713524 0
M  V30 1876 H 183.876 1.10872 1.54297 0
M  V30 1877 H 182.026 0.264274 3.876 0
M  V30 1878 H 183.698 2.86127 3.61841 0
M  V30 1879 H 181.941 2.74479 3.35922 0
M  V30 1880 H 182.612 2.42125 4.96064 0
M  V30 1881 H 185.088 0.696079 4.10236 0
M  V30 1882 H 183.964 0.477361 5.4682 0
M  V30 1883 H 184.225 -0.843293 4.33983 0
M  V30 1884 N 183.284 -1.43765 0.645699 0
M  V30 1885 C 184.514 -2.05953 0.163318 0
M  V30 1886 C 184.922 -1.48432 -1.17322 0
M  V30 1887 O 184.265 -0.607295 -1.73371 0
M  V30 1888 C 184.327 -3.59499 -0.0103065 0
M  V30 1889 C 183.991 -4.39563 1.25035 0
M  V30 1890 C 184.988 -4.72108 2.17739 0
M  V30 1891 C 182.673 -4.79697 1.48983 0
M  V30 1892 C 184.667 -5.43688 3.3269 0
M  V30 1893 C 182.354 -5.51023 2.64229 0
M  V30 1894 C 183.352 -5.8294 3.55908 0
M  V30 1895 O 183.04 -6.5281 4.69142 0
M  V30 1896 H 182.772 -0.670798 0.0836986 0
M  V30 1897 H 185.326 -1.85384 0.884407 0
M  V30 1898 H 183.556 -3.78613 -0.78669 0
M  V30 1899 H 185.245 -4.03408 -0.449087 0
M  V30 1900 H 186.011 -4.41627 2.00476 0
M  V30 1901 H 181.89 -4.54266 0.785078 0
M  V30 1902 H 185.434 -5.68517 4.04269 0
M  V30 1903 H 181.331 -5.8092 2.81429 0
M  V30 1904 H 182.099 -6.71288 4.6831 0
M  V30 1905 N 184.763 -0.387143 -1.52771 0
M  V30 1906 C 185.693 0.440551 -2.29306 0
M  V30 1907 C 186.674 1.06535 -1.32606 0
M  V30 1908 O 187.859 1.07853 -1.61497 0
M  V30 1909 C 184.989 1.56919 -3.09829 0
M  V30 1910 C 183.943 1.07054 -4.14395 0
M  V30 1911 C 183.269 2.29109 -4.83129 0
M  V30 1912 C 184.569 0.140015 -5.22112 0
M  V30 1913 H 186.263 -0.198026 -2.98744 0
M  V30 1914 H 183.809 -0.09668 -1.43675 0
M  V30 1915 H 185.762 2.15503 -3.62128 0
M  V30 1916 H 184.486 2.23532 -2.3812 0
M  V30 1917 H 183.145 0.507247 -3.63074 0
M  V30 1918 H 182.793 2.94227 -4.0797 0
M  V30 1919 H 182.493 1.96406 -5.53804 0
M  V30 1920 H 184.017 2.88339 -5.38231 0
M  V30 1921 H 185.431 0.633978 -5.69784 0
M  V30 1922 H 183.828 -0.0971485 -6.00021 0
M  V30 1923 H 184.898 -0.811711 -4.78058 0
M  V30 1924 N 186.241 1.57166 -0.116904 0
M  V30 1925 C 187.151 2.18745 0.847812 0
M  V30 1926 C 188.167 1.163 1.29423 0
M  V30 1927 O 189.343 1.48761 1.35765 0
M  V30 1928 C 186.408 2.77307 2.0809 0
M  V30 1929 C 185.469 3.94781 1.68661 0
M  V30 1930 C 184.702 4.50541 2.86091 0
M  V30 1931 O 184.925 4.05202 4.01456 0
M  V30 1932 O 183.859 5.41256 2.63298 0
M  V30 1933 H 187.685 3.01632 0.353778 0
M  V30 1934 H 185.27 1.49005 0.108599 0
M  V30 1935 H 187.152 3.14647 2.80313 0
M  V30 1936 H 185.827 1.97452 2.56504 0
M  V30 1937 H 184.734 3.62214 0.935518 0
M  V30 1938 H 186.067 4.76065 1.24991 0
M  V30 1939 N 187.719 -0.156864 1.56817 0
M  V30 1940 C 188.949 -0.885031 1.86684 0
M  V30 1941 C 189.357 -1.75696 0.701954 0
M  V30 1942 O 188.7 -1.80569 -0.337732 0
M  V30 1943 C 188.762 -1.80092 3.11138 0
M  V30 1944 C 188.426 -1.10714 4.43386 0
M  V30 1945 C 189.423 -0.465714 5.1781 0
M  V30 1946 C 187.108 -1.09959 4.90117 0
M  V30 1947 C 189.102 0.174002 6.37162 0
M  V30 1948 C 186.789 -0.456055 6.09396 0
M  V30 1949 C 187.787 0.179622 6.82764 0
M  V30 1950 O 187.475 0.812975 7.99779 0
M  V30 1951 H 187.207 -0.261813 0.623242 0
M  V30 1952 H 189.761 -0.157383 2.04796 0
M  V30 1953 H 187.991 -2.56926 2.89009 0
M  V30 1954 H 189.68 -2.40018 3.27332 0
M  V30 1955 H 190.446 -0.463427 4.82781 0
M  V30 1956 H 186.325 -1.58378 4.3294 0
M  V30 1957 H 189.869 0.670765 6.94368 0
M  V30 1958 H 185.766 -0.455975 6.43888 0
M  V30 1959 H 186.534 0.71366 8.15383 0
M  V30 1960 N 189.197 -1.51736 -0.425897 0
M  V30 1961 C 190.127 -1.76827 -1.52494 0
M  V30 1962 C 191.108 -0.618524 -1.58456 0
M  V30 1963 O 192.293 -0.862416 -1.74 0
M  V30 1964 C 189.423 -1.90374 -2.90474 0
M  V30 1965 C 188.377 -3.0588 -2.99369 0
M  V30 1966 C 187.703 -3.04625 -4.3944 0
M  V30 1967 C 189.003 -4.45644 -2.72394 0
M  V30 1968 H 190.697 -2.68855 -1.31748 0
M  V30 1969 H 188.243 -1.29372 -0.632362 0
M  V30 1970 H 190.196 -2.0651 -3.6733 0
M  V30 1971 H 188.92 -0.95004 -3.12477 0
M  V30 1972 H 187.579 -2.89467 -2.24954 0
M  V30 1973 H 187.227 -2.0701 -4.58428 0
M  V30 1974 H 186.927 -3.82195 -4.46319 0
M  V30 1975 H 188.451 -3.22869 -5.18255 0
M  V30 1976 H 189.865 -4.62348 -3.38979 0
M  V30 1977 H 188.262 -5.25006 -2.9067 0
M  V30 1978 H 189.332 -4.54893 -1.67929 0
M  V30 1979 N 190.675 0.682077 -1.42076 0
M  V30 1980 C 191.607 1.80755 -1.40926 0
M  V30 1981 C 192.62 1.59833 -0.309398 0
M  V30 1982 O 193.809 1.69087 -0.572014 0
M  V30 1983 C 190.909 3.17744 -1.17865 0
M  V30 1984 C 190.082 3.65578 -2.40149 0
M  V30 1985 C 189.141 4.81277 -2.12742 0
M  V30 1986 O 188.167 4.92197 -2.85887 0
M  V30 1987 N 189.369 5.69474 -1.12602 0
M  V30 1988 H 192.134 1.82229 -2.37935 0
M  V30 1989 H 189.695 0.864903 -1.36861 0
M  V30 1990 H 191.687 3.9279 -0.9746 0
M  V30 1991 H 190.257 3.11214 -0.294068 0
M  V30 1992 H 189.477 2.81291 -2.76169 0
M  V30 1993 H 190.765 3.94278 -3.21593 0
M  V30 1994 H 190.163 5.63297 -0.520899 0
M  V30 1995 H 188.72 6.44363 -0.981842 0
M  V30 1996 N 192.153 1.28127 0.917671 0
M  V30 1997 C 193.101 1.11569 2.04096 0
M  V30 1998 C 194.095 0.0360242 1.69362 0
M  V30 1999 O 195.301 0.194501 1.78946 0
M  V30 2000 H 191.676 0.344097 0.668656 0
M  V30 2001 H 193.647 2.06711 2.15205 0
M  V30 2002 C 192.396 0.790197 3.38602 0
M  V30 2003 H 191.719 1.61293 3.6582 0
M  V30 2004 H 193.159 0.714271 4.1794 0
M  V30 2005 C 191.618 -0.505897 3.3308 0
M  V30 2006 O 192.148 -1.53736 3.71117 0
M  V30 2007 N 190.354 -0.505193 2.86175 0
M  V30 2008 H 189.901 0.334621 2.55417 0
M  V30 2009 H 189.859 -1.37243 2.82863 0
M  V30 2010 N 193.631 -1.12557 1.10312 0
M  V30 2011 C 195.047 -1.36036 0.834649 0
M  V30 2012 C 195.247 -1.93946 -0.546539 0
M  V30 2013 O 194.303 -2.16484 -1.29966 0
M  V30 2014 C 195.616 -2.30312 1.9333 0
M  V30 2015 C 197.164 -2.43906 1.9616 0
M  V30 2016 C 197.639 -3.41496 3.05195 0
M  V30 2017 N 199.13 -3.49053 3.04494 0
M  V30 2018 C 199.865 -4.24471 3.85502 0
M  V30 2019 N 199.361 -5.02966 4.76442 0
M  V30 2020 N 201.154 -4.19864 3.73725 0
M  V30 2021 H 193.305 -0.733246 1.99342 0
M  V30 2022 H 195.568 -0.385234 0.866198 0
M  V30 2023 H 195.274 -1.94933 2.92735 0
M  V30 2024 H 195.148 -3.30421 1.81939 0
M  V30 2025 H 197.535 -2.78567 0.973886 0
M  V30 2026 H 197.616 -1.4369 2.11629 0
M  V30 2027 H 197.26 -3.07565 4.04186 0
M  V30 2028 H 197.19 -4.41539 2.86968 0
M  V30 2029 H 199.681 -2.93053 2.38596 0
M  V30 2030 H 199.994 -5.57846 5.34815 0
M  V30 2031 H 198.339 -5.02167 4.80472 0
M  V30 2032 H 201.53 -3.57623 3.02032 0
M  V30 2033 H 201.703 -4.78386 4.37093 0
M  V30 2034 N 195.109 -0.891671 -1.2995 0
M  V30 2035 C 196.356 -0.513501 -1.95881 0
M  V30 2036 C 196.684 0.938655 -1.70351 0
M  V30 2037 O 195.939 1.67936 -1.00478 0
M  V30 2038 C 196.238 -0.742868 -3.49594 0
M  V30 2039 C 195.904 -2.17114 -3.95186 0
M  V30 2040 C 194.566 -2.56169 -4.07346 0
M  V30 2041 C 196.918 -3.10162 -4.18866 0
M  V30 2042 C 194.246 -3.87469 -4.4055 0
M  V30 2043 C 196.598 -4.41001 -4.53542 0
M  V30 2044 C 195.262 -4.79941 -4.63911 0
M  V30 2045 H 194.532 -0.187903 -0.71678 0
M  V30 2046 H 197.179 -1.1288 -1.54694 0
M  V30 2047 H 195.484 -0.044586 -3.91775 0
M  V30 2048 H 197.181 -0.429767 -3.9869 0
M  V30 2049 H 193.771 -1.85801 -3.86233 0
M  V30 2050 H 197.955 -2.81206 -4.08946 0
M  V30 2051 H 193.211 -4.17371 -4.46779 0
M  V30 2052 H 197.385 -5.13133 -4.70815 0
M  V30 2053 H 195.012 -5.81719 -4.89395 0
M  V30 2054 N 196.587 1.43421 -0.653314 0
M  V30 2055 C 197.497 2.34568 0.0388565 0
M  V30 2056 C 198.513 1.53888 0.81207 0
M  V30 2057 O 199.689 1.86539 0.759294 0
M  V30 2058 C 196.754 3.32167 0.993269 0
M  V30 2059 C 195.815 4.28751 0.216977 0
M  V30 2060 C 195.048 5.21688 1.12593 0
M  V30 2061 O 195.271 5.19052 2.36519 0
M  V30 2062 O 194.205 5.98919 0.598284 0
M  V30 2063 H 198.031 2.95251 -0.711386 0
M  V30 2064 H 195.616 1.43564 -0.413502 0
M  V30 2065 H 197.498 3.92183 1.54176 0
M  V30 2066 H 196.173 2.73987 1.72374 0
M  V30 2067 H 195.08 3.72215 -0.375101 0
M  V30 2068 H 196.413 4.89913 -0.473924 0
M  V30 2069 N 198.065 0.39524 1.52563 0
M  V30 2070 C 199.29 -0.187456 2.06551 0
M  V30 2071 C 199.715 -1.39249 1.26457 0
M  V30 2072 O 199.073 -1.78947 0.291151 0
M  V30 2073 C 199.121 -0.529985 3.56684 0
M  V30 2074 O 198.225 -1.62307 3.79118 0
M  V30 2075 H 197.566 -0.0202537 0.663691 0
M  V30 2076 H 200.096 0.564426 1.96661 0
M  V30 2077 H 200.106 -0.792598 4.00227 0
M  V30 2078 H 198.781 0.350987 4.14416 0
M  V30 2079 H 197.358 -1.3537 3.47461 0
M  V30 2080 N 199.544 -1.57102 0.125237 0
M  V30 2081 C 200.769 -2.0019 -0.542101 0
M  V30 2082 C 201.194 -1.00449 -1.59034 0
M  V30 2083 O 200.552 0.0229423 -1.81285 0
M  V30 2084 C 200.6 -3.42129 -1.13929 0
M  V30 2085 O 199.704 -3.45307 -2.2547 0
M  V30 2086 H 199.045 -0.650171 -0.134812 0
M  V30 2087 H 201.575 -2.03461 0.215553 0
M  V30 2088 H 201.585 -3.80471 -1.4733 0
M  V30 2089 H 200.26 -4.14237 -0.371531 0
M  V30 2090 H 198.837 -3.1879 -1.93462 0
M  V30 2091 N 201.022 0.148545 -1.56898 0
M  V30 2092 C 201.932 1.20293 -2.01412 0
M  V30 2093 C 202.948 1.47107 -0.929273 0
M  V30 2094 O 204.124 1.58807 -1.23863 0
M  V30 2095 C 201.189 2.51682 -2.38447 0
M  V30 2096 C 200.25 2.32529 -3.60872 0
M  V30 2097 C 199.483 3.57653 -3.96132 0
M  V30 2098 O 199.706 4.63771 -3.32073 0
M  V30 2099 O 198.64 3.50408 -4.89385 0
M  V30 2100 H 202.466 0.855025 -2.91416 0
M  V30 2101 H 200.051 0.357151 -1.45068 0
M  V30 2102 H 201.933 3.29147 -2.63135 0
M  V30 2103 H 200.608 2.86006 -1.51599 0
M  V30 2104 H 199.515 1.53019 -3.41373 0
M  V30 2105 H 200.848 2.03121 -4.48333 0
M  V30 2106 N 202.5 1.5196 0.417844 0
M  V30 2107 C 203.41 1.77554 1.53336 0
M  V30 2108 C 204.426 0.660655 1.6097 0
M  V30 2109 O 205.602 0.945099 1.77848 0
M  V30 2110 C 202.667 1.91291 2.89152 0
M  V30 2111 C 201.728 3.15183 2.91475 0
M  V30 2112 C 200.961 3.28256 4.20813 0
M  V30 2113 O 201.184 2.46798 5.14244 0
M  V30 2114 O 200.118 4.21356 4.29817 0
M  V30 2115 H 203.944 2.7222 1.34647 0
M  V30 2116 H 201.529 1.36698 0.602828 0
M  V30 2117 H 203.411 2.02199 3.69721 0
M  V30 2118 H 202.086 0.998129 3.07927 0
M  V30 2119 H 200.993 3.09739 2.09791 0
M  V30 2120 H 202.326 4.06414 2.77648 0
M  V30 2121 N 203.978 -0.674533 1.42435 0
M  V30 2122 C 204.91 -1.80005 1.41883 0
M  V30 2123 C 205.923 -1.59667 0.31787 0
M  V30 2124 O 207.112 -1.68781 0.580973 0
M  V30 2125 C 204.212 -3.17114 1.19549 0
M  V30 2126 C 203.385 -3.64299 2.42084 0
M  V30 2127 C 202.444 -4.80142 2.15291 0
M  V30 2128 O 201.47 -4.90673 2.88493 0
M  V30 2129 N 202.672 -5.68869 1.1562 0
M  V30 2130 H 205.437 -1.80964 2.38898 0
M  V30 2131 H 202.998 -0.857633 1.37318 0
M  V30 2132 H 204.99 -3.92267 0.995417 0
M  V30 2133 H 203.56 -3.11053 0.310569 0
M  V30 2134 H 202.78 -2.79822 2.77657 0
M  V30 2135 H 204.068 -3.92567 3.23679 0
M  V30 2136 H 203.466 -5.63012 0.550765 0
M  V30 2137 H 202.023 -6.43833 1.016 0
M  V30 2138 N 205.456 -1.28612 -0.910864 0
M  V30 2139 C 206.419 -1.12803 -1.9952 0
M  V30 2140 C 207.419 -0.0668264 -1.60661 0
M  V30 2141 O 208.609 -0.312847 -1.71368 0
M  V30 2142 C 205.741 -0.72254 -3.33155 0
M  V30 2143 H 206.934 -2.09109 -2.14973 0
M  V30 2144 H 204.487 -1.11639 -1.09391 0
M  V30 2145 H 205.222 0.241152 -3.23402 0
M  V30 2146 H 205.007 -1.48916 -3.62721 0
M  V30 2147 H 206.497 -0.634666 -4.12749 0
M  V30 2148 N 206.934 1.1197 -1.10907 0
M  V30 2149 C 208.35 1.35591 -0.841852 0
M  V30 2150 C 208.55 1.94233 0.536246 0
M  V30 2151 O 207.606 2.1717 1.28816 0
M  V30 2152 C 208.919 2.29284 -1.94549 0
M  V30 2153 C 210.467 2.42862 -1.97451 0
M  V30 2154 C 210.942 3.39873 -3.07002 0
M  V30 2155 N 212.433 3.47433 -3.06341 0
M  V30 2156 C 213.168 4.22421 -3.87748 0
M  V30 2157 N 212.664 5.00432 -4.79103 0
M  V30 2158 N 214.457 4.17876 -3.75946 0
M  V30 2159 H 206.608 0.722664 -1.99728 0
M  V30 2160 H 208.871 0.380635 -0.868229 0
M  V30 2161 H 208.577 1.93378 -2.93765 0
M  V30 2162 H 208.451 3.29452 -1.83688 0
M  V30 2163 H 210.838 2.78046 -0.988645 0
M  V30 2164 H 210.919 1.42566 -2.12388 0
M  V30 2165 H 210.563 3.05417 -4.05811 0
M  V30 2166 H 210.493 4.40011 -2.89306 0
M  V30 2167 H 212.984 2.91784 -2.40147 0
M  V30 2168 H 213.297 5.55002 -5.37766 0
M  V30 2169 H 211.642 4.99612 -4.83128 0
M  V30 2170 H 214.833 3.56016 -3.03924 0
M  V30 2171 H 215.006 4.76061 -4.39624 0
M  V30 2172 N 208.412 0.89855 1.29475 0
M  V30 2173 C 209.375 0.380272 2.26023 0
M  V30 2174 C 210.375 -0.484891 1.53315 0
M  V30 2175 O 211.565 -0.290108 1.71767 0
M  V30 2176 C 208.697 -0.45651 3.3783 0
M  V30 2177 H 209.89 1.23295 2.73383 0
M  V30 2178 H 207.443 0.676589 1.40897 0
M  V30 2179 H 208.178 -1.32922 2.95808 0
M  V30 2180 H 207.963 0.163393 3.91759 0
M  V30 2181 H 209.453 -0.810466 4.0966 0
M  V30 2182 N 209.89 -1.43072 0.660911 0
M  V30 2183 C 211.136 -2.0202 0.177708 0
M  V30 2184 C 211.469 -1.52066 -1.20787 0
M  V30 2185 O 210.744 -0.716987 -1.80802 0
M  V30 2186 C 211.027 -3.59561 0.197019 0
M  V30 2187 C 210.88 -4.19727 1.61706 0
M  V30 2188 C 212.199 -4.37664 -0.462396 0
M  V30 2189 H 209.318 -0.734034 0.0660494 0
M  V30 2190 H 211.96 -1.70272 0.843058 0
M  V30 2191 H 210.11 -3.86739 -0.369527 0
M  V30 2192 H 211.782 -4.03553 2.23479 0
M  V30 2193 H 210.025 -3.76084 2.16201 0
M  V30 2194 H 210.696 -5.28834 1.58237 0
M  V30 2195 H 213.172 -4.16095 0.0197215 0
M  V30 2196 H 212.048 -5.47305 -0.418188 0
M  V30 2197 H 212.309 -4.14493 -1.53778 0
M  V30 2198 N 211.368 -0.403325 -1.52352 0
M  V30 2199 C 212.3 0.4603 -2.2453 0
M  V30 2200 C 213.313 1.01505 -1.27282 0
M  V30 2201 O 214.502 0.914982 -1.53266 0
M  V30 2202 C 211.602 1.65208 -2.95905 0
M  V30 2203 C 210.775 1.22224 -4.19976 0
M  V30 2204 C 209.834 2.28028 -4.74226 0
M  V30 2205 O 208.86 1.88857 -5.36956 0
M  V30 2206 N 210.062 3.6012 -4.55295 0
M  V30 2207 H 212.827 -0.158156 -2.99282 0
M  V30 2208 H 210.388 -0.230402 -1.60252 0
M  V30 2209 H 212.38 2.35541 -3.29093 0
M  V30 2210 H 210.95 2.17658 -2.24374 0
M  V30 2211 H 210.17 0.34725 -3.92668 0
M  V30 2212 H 211.458 0.911924 -5.00561 0
M  V30 2213 H 210.856 3.94698 -4.05253 0
M  V30 2214 H 209.413 4.26447 -4.92936 0
M  V30 2215 N 212.846 1.57033 -0.133567 0
M  V30 2216 C 213.779 2.11824 0.848872 0
M  V30 2217 C 214.757 1.03833 1.2513 0
M  V30 2218 O 215.941 1.31579 1.34978 0
M  V30 2219 C 213.068 2.62692 2.138 0
M  V30 2220 C 212.114 3.82705 1.88253 0
M  V30 2221 S 212.947 5.2438 1.08563 0
M  V30 2222 C 214.103 5.78627 2.38624 0
M  V30 2223 H 214.336 2.94824 0.38289 0
M  V30 2224 H 211.869 1.5419 0.0804796 0
M  V30 2225 H 213.827 2.92652 2.87863 0
M  V30 2226 H 212.488 1.79847 2.57515 0
M  V30 2227 H 211.681 4.16496 2.83809 0
M  V30 2228 H 211.283 3.53437 1.22305 0
M  V30 2229 H 213.575 5.8924 3.34369 0
M  V30 2230 H 214.518 6.76443 2.09358 0
M  V30 2231 H 214.926 5.06783 2.48658 0
M  V30 2232 N 214.325 -0.140222 1.56975 0
M  V30 2233 C 215.55 -0.870414 1.88251 0
M  V30 2234 C 215.975 -1.73637 0.723312 0
M  V30 2235 O 215.333 -1.78329 -0.32689 0
M  V30 2236 C 215.381 -1.69737 3.18154 0
M  V30 2237 O 214.485 -2.80229 3.02565 0
M  V30 2238 H 213.826 -0.242025 0.61832 0
M  V30 2239 H 216.356 -0.128999 2.04193 0
M  V30 2240 H 216.366 -2.09099 3.50345 0
M  V30 2241 H 215.041 -1.06152 4.02125 0
M  V30 2242 H 213.618 -2.44224 2.81796 0
M  V30 2243 N 215.803 -1.52179 -0.40978 0
M  V30 2244 C 217.031 -1.70054 -1.17853 0
M  V30 2245 C 217.446 -0.409735 -1.843 0
M  V30 2246 O 216.803 0.614183 -1.71855 0
M  V30 2247 C 216.854 -2.83568 -2.24213 0
M  V30 2248 O 216.575 -4.0765 -1.60478 0
M  V30 2249 C 218.076 -3.12947 -3.13973 0
M  V30 2250 H 215.296 -0.569917 -0.354169 0
M  V30 2251 H 217.84 -1.98734 -0.482198 0
M  V30 2252 H 215.995 -2.57409 -2.89516 0
M  V30 2253 H 216.409 -4.70899 -2.30986 0
M  V30 2254 H 217.883 -3.95889 -3.84677 0
M  V30 2255 H 218.36 -2.26472 -3.76307 0
M  V30 2256 H 218.966 -3.40868 -2.5434 0
M  V30 2257 N 217.281 0.66697 -1.42791 0
M  V30 2258 C 218.228 1.7803 -1.4688 0
M  V30 2259 C 219.198 1.6299 -0.319919 0
M  V30 2260 O 220.383 1.83432 -0.525118 0
M  V30 2261 C 217.523 3.1611 -1.38451 0
M  V30 2262 C 216.636 3.42381 -2.63437 0
M  V30 2263 C 215.771 4.70232 -2.47094 0
M  V30 2264 C 214.81 4.89564 -3.67415 0
M  V30 2265 N 213.947 6.08661 -3.49966 0
M  V30 2266 H 218.787 1.7387 -2.42019 0
M  V30 2267 H 216.324 0.84868 -1.20149 0
M  V30 2268 H 218.282 3.95914 -1.31561 0
M  V30 2269 H 216.912 3.19374 -0.469033 0
M  V30 2270 H 215.964 2.56774 -2.80662 0
M  V30 2271 H 217.276 3.52557 -3.52853 0
M  V30 2272 H 216.43 5.5814 -2.37834 0
M  V30 2273 H 215.169 4.62353 -1.5518 0
M  V30 2274 H 214.174 4.00096 -3.77099 0
M  V30 2275 H 215.399 4.99282 -4.6032 0
M  V30 2276 H 213.345 6.0194 -2.60776 0
M  V30 2277 H 213.262 6.19733 -4.32975 0
M  V30 2278 H 214.53 6.99226 -3.44532 0
M  V30 2279 N 218.759 1.29093 0.90403 0
M  V30 2280 C 220.005 1.16986 1.65656 0
M  V30 2281 C 220.338 -0.278925 1.92186 0
M  V30 2282 O 219.613 -1.2019 1.5292 0
M  V30 2283 C 219.896 1.97908 3.0084 0
M  V30 2284 C 219.749 3.50903 2.81403 0
M  V30 2285 C 221.068 1.80208 4.01513 0
M  V30 2286 H 218.187 0.426346 0.601164 0
M  V30 2287 H 220.829 1.58518 1.04747 0
M  V30 2288 H 218.979 1.62616 3.52829 0
M  V30 2289 H 220.651 3.96153 2.36348 0
M  V30 2290 H 218.894 3.76045 2.1627 0
M  V30 2291 H 219.565 4.02791 3.77443 0
M  V30 2292 H 222.041 2.11025 3.58619 0
M  V30 2293 H 220.917 2.39184 4.94047 0
M  V30 2294 H 221.178 0.756119 4.35586 0
M  V30 2295 N 220.237 -1.11381 1.11499 0
M  V30 2296 C 221.167 -2.19509 0.796125 0
M  V30 2297 C 222.148 -1.68458 -0.235796 0
M  V30 2298 O 223.333 -1.93947 -0.0991344 0
M  V30 2299 C 220.463 -3.46475 0.239205 0
M  V30 2300 C 219.417 -4.10744 1.20307 0
M  V30 2301 C 218.743 -5.32293 0.50683 0
M  V30 2302 C 220.043 -4.55597 2.55399 0
M  V30 2303 H 221.737 -2.46439 1.70024 0
M  V30 2304 H 219.283 -1.18446 0.818935 0
M  V30 2305 H 221.236 -4.214 0.00392006 0
M  V30 2306 H 219.96 -3.19006 -0.700206 0
M  V30 2307 H 218.619 -3.37813 1.42399 0
M  V30 2308 H 218.267 -5.01095 -0.437408 0
M  V30 2309 H 217.967 -5.76243 1.1497 0
M  V30 2310 H 219.491 -6.09956 0.280351 0
M  V30 2311 H 220.905 -5.21841 2.37391 0
M  V30 2312 H 219.302 -5.10363 3.15673 0
M  V30 2313 H 220.372 -3.69013 3.14575 0
M  V30 2314 N 221.715 -0.905404 -1.28997 0
M  V30 2315 C 222.964 -0.530191 -1.94607 0
M  V30 2316 C 223.277 0.929185 -1.72121 0
M  V30 2317 O 224.483 1.41218 -2.31883 0
M  V30 2318 C 222.939 -0.897333 -3.48534 0
M  V30 2319 C 222.547 -2.37587 -3.79811 0
M  V30 2320 C 224.291 -0.592304 -4.20347 0
M  V30 2321 C 222.198 -2.68357 -5.27009 0
M  V30 2322 H 221.128 -0.194558 -0.728466 0
M  V30 2323 H 223.779 -1.10318 -1.46636 0
M  V30 2324 H 222.161 -0.253214 -3.9519 0
M  V30 2325 H 223.335 -3.06602 -3.43994 0
M  V30 2326 H 221.65 -2.6505 -3.2115 0
M  V30 2327 H 224.247 -0.798975 -5.28697 0
M  V30 2328 H 224.59 0.469474 -4.13644 0
M  V30 2329 H 225.123 -1.19452 -3.79442 0
M  V30 2330 H 221.862 -3.73355 -5.38782 0
M  V30 2331 H 221.382 -2.03971 -5.64053 0
M  V30 2332 H 223.061 -2.54922 -5.94663 0
M  V30 2333 N 223.193 1.4272 -0.668489 0
M  V30 2334 C 224.125 2.2914 0.052613 0
M  V30 2335 C 225.138 1.43339 0.771857 0
M  V30 2336 O 226.327 1.67123 0.627067 0
M  V30 2337 C 223.427 3.20618 1.09804 0
M  V30 2338 C 222.6 4.35039 0.45389 0
M  V30 2339 C 221.659 5.07282 1.39825 0
M  V30 2340 O 220.685 5.62024 0.900978 0
M  V30 2341 N 221.887 5.12206 2.73176 0
M  V30 2342 H 224.652 2.91668 -0.689209 0
M  V30 2343 H 222.213 1.53577 -0.512422 0
M  V30 2344 H 224.205 3.65815 1.73094 0
M  V30 2345 H 222.775 2.59585 1.74167 0
M  V30 2346 H 221.995 3.92567 -0.358396 0
M  V30 2347 H 223.283 5.088 0.00486972 0
M  V30 2348 H 222.681 4.6913 3.16122 0
M  V30 2349 H 221.238 5.61069 3.31729 0
M  V30 2350 N 224.671 0.411399 1.52136 0
M  V30 2351 C 225.918 -0.163645 2.01838 0
M  V30 2352 C 226.246 -1.4495 1.29691 0
M  V30 2353 O 225.501 -1.91725 0.392431 0
M  V30 2354 C 225.8 -0.455872 3.54481 0
M  V30 2355 C 225.466 0.741055 4.44769 0
M  V30 2356 C 224.128 1.06936 4.69167 0
M  V30 2357 C 226.48 1.54075 4.97906 0
M  V30 2358 C 223.808 2.19851 5.43951 0
M  V30 2359 C 226.16 2.66067 5.73926 0
M  V30 2360 C 224.824 2.99381 5.96596 0
M  V30 2361 H 224.094 -0.0598821 0.738576 0
M  V30 2362 H 226.741 0.553283 1.83333 0
M  V30 2363 H 225.046 -1.2544 3.71177 0
M  V30 2364 H 226.743 -0.913802 3.90449 0
M  V30 2365 H 223.333 0.475192 4.25958 0
M  V30 2366 H 227.517 1.30033 4.78963 0
M  V30 2367 H 222.773 2.46006 5.59724 0
M  V30 2368 H 226.947 3.28419 6.14096 0
M  V30 2369 H 224.574 3.86992 6.54325 0
M  V30 2370 N 226.149 -1.5696 0.141893 0
M  V30 2371 C 227.079 -2.19516 -0.795936 0
M  V30 2372 C 228.06 -1.14187 -1.26077 0
M  V30 2373 O 229.245 -1.42511 -1.31925 0
M  V30 2374 C 226.375 -2.81272 -2.03723 0
M  V30 2375 C 225.329 -3.92384 -1.70936 0
M  V30 2376 C 224.655 -4.41052 -3.02287 0
M  V30 2377 C 225.955 -5.13403 -0.959954 0
M  V30 2378 H 227.649 -2.98138 -0.274596 0
M  V30 2379 H 225.195 -1.43406 -0.130636 0
M  V30 2380 H 227.148 -3.237 -2.69808 0
M  V30 2381 H 225.872 -1.99973 -2.58221 0
M  V30 2382 H 224.531 -3.50566 -1.07232 0
M  V30 2383 H 224.179 -3.56582 -3.54765 0
M  V30 2384 H 223.879 -5.15993 -2.81114 0
M  V30 2385 H 225.403 -4.86146 -3.69451 0
M  V30 2386 H 226.817 -5.52706 -1.52279 0
M  V30 2387 H 225.214 -5.94073 -0.848357 0
M  V30 2388 H 226.284 -4.84875 0.0492434 0
M  V30 2389 N 227.627 0.131896 -1.57047 0
M  V30 2390 C 228.559 1.1878 -1.9602 0
M  V30 2391 C 229.572 1.38363 -0.857875 0
M  V30 2392 O 230.761 1.37666 -1.13623 0
M  V30 2393 C 227.861 2.55008 -2.23213 0
M  V30 2394 C 227.034 2.56201 -3.54513 0
M  V30 2395 C 226.093 3.7408 -3.70069 0
M  V30 2396 O 225.119 3.58258 -4.42312 0
M  V30 2397 N 226.321 4.92137 -3.07866 0
M  V30 2398 H 229.086 0.85639 -2.87204 0
M  V30 2399 H 226.647 0.321309 -1.5868 0
M  V30 2400 H 228.639 3.32404 -2.30846 0
M  V30 2401 H 227.209 2.80382 -1.3822 0
M  V30 2402 H 226.429 1.64613 -3.58185 0
M  V30 2403 H 227.717 2.54043 -4.4084 0
M  V30 2404 H 227.115 5.07895 -2.49116 0
M  V30 2405 H 225.672 5.67254 -3.21039 0
M  V30 2406 N 229.106 1.52395 0.401703 0
M  V30 2407 C 230.053 1.76268 1.48991 0
M  V30 2408 C 231.023 0.605386 1.54675 0
M  V30 2409 O 232.208 0.843742 1.7113 0
M  V30 2410 C 229.348 1.92592 2.86361 0
M  V30 2411 C 228.461 3.20259 2.89928 0
M  V30 2412 C 227.596 3.26972 4.18644 0
M  V30 2413 C 226.635 4.48812 4.16214 0
M  V30 2414 N 225.772 4.52877 5.36514 0
M  V30 2415 H 230.612 2.6914 1.27935 0
M  V30 2416 H 228.149 1.33355 0.620871 0
M  V30 2417 H 230.107 2.0004 3.66115 0
M  V30 2418 H 228.737 1.03093 3.05895 0
M  V30 2419 H 227.789 3.21945 2.02621 0
M  V30 2420 H 229.101 4.10056 2.83999 0
M  V30 2421 H 228.255 3.33533 5.06794 0
M  V30 2422 H 226.994 2.35126 4.27278 0
M  V30 2423 H 225.999 4.4239 3.26453 0
M  V30 2424 H 227.224 5.41961 4.09213 0
M  V30 2425 H 225.17 3.63917 5.45802 0
M  V30 2426 H 225.087 5.36529 5.32609 0
M  V30 2427 H 226.355 4.63676 6.26597 0
M  V30 2428 N 230.584 -0.659388 1.43143 0
M  V30 2429 C 231.531 -1.77249 1.47822 0
M  V30 2430 C 232.501 -1.62818 0.328558 0
M  V30 2431 O 233.686 -1.83151 0.534838 0
M  V30 2432 C 230.826 -3.15371 1.40126 0
M  V30 2433 C 229.939 -3.4098 2.65249 0
M  V30 2434 C 229.074 -4.68915 2.49584 0
M  V30 2435 C 228.113 -4.87608 3.70006 0
M  V30 2436 N 227.25 -6.06796 3.53189 0
M  V30 2437 H 232.09 -1.72584 2.42938 0
M  V30 2438 H 229.627 -0.842297 1.20598 0
M  V30 2439 H 231.585 -3.9521 1.33659 0
M  V30 2440 H 230.215 -3.19121 0.485964 0
M  V30 2441 H 229.267 -2.55282 2.8202 0
M  V30 2442 H 230.579 -3.50681 3.54717 0
M  V30 2443 H 229.733 -5.56871 2.4079 0
M  V30 2444 H 228.472 -4.61524 1.5763 0
M  V30 2445 H 227.477 -3.9809 3.79215 0
M  V30 2446 H 228.702 -4.96834 4.62961 0
M  V30 2447 H 226.648 -6.00549 2.63965 0
M  V30 2448 H 226.565 -6.17428 4.36255 0
M  V30 2449 H 227.833 -6.9739 3.48236 0
M  V30 2450 N 232.062 -1.29571 -0.897171 0
M  V30 2451 C 233.025 -1.14913 -1.98312 0
M  V30 2452 C 234.025 -0.0838629 -1.60581 0
M  V30 2453 O 235.215 -0.331006 -1.71026 0
M  V30 2454 C 232.347 -0.757835 -3.3237 0
M  V30 2455 H 233.54 -2.11377 -2.12743 0
M  V30 2456 H 231.093 -1.12793 -1.08201 0
M  V30 2457 H 231.828 0.206837 -3.2364 0
M  V30 2458 H 231.613 -1.52755 -3.61121 0
M  V30 2459 H 233.103 -0.678408 -4.12053 0
M  V30 2460 N 233.54 1.10788 -1.12088 0
M  V30 2461 C 234.487 2.17025 -0.785407 0
M  V30 2462 C 235.457 1.64265 0.246191 0
M  V30 2463 O 236.642 1.90412 0.121584 0
M  V30 2464 C 233.782 3.44249 -0.242177 0
M  V30 2465 C 232.895 4.1098 -1.33115 0
M  V30 2466 C 232.03 5.25911 -0.747741 0
M  V30 2467 C 231.069 5.84538 -1.81609 0
M  V30 2468 N 230.206 6.90853 -1.25167 0
M  V30 2469 H 235.046 2.45066 -1.69548 0
M  V30 2470 H 232.583 1.20297 -0.846582 0
M  V30 2471 H 234.541 4.17101 0.0908026 0
M  V30 2472 H 233.171 3.16571 0.631072 0
M  V30 2473 H 232.223 3.36133 -1.78097 0
M  V30 2474 H 233.535 4.50601 -2.13917 0
M  V30 2475 H 232.689 6.056 -0.365216 0
M  V30 2476 H 231.428 4.87614 0.0915188 0
M  V30 2477 H 230.433 5.03522 -2.20785 0
M  V30 2478 H 231.658 6.249 -2.6585 0
M  V30 2479 H 229.604 6.54562 -0.434174 0
M  V30 2480 H 229.521 7.29166 -1.99633 0
M  V30 2481 H 230.789 7.7433 -0.896259 0
M  V30 2482 N 235.018 0.912232 1.28515 0
M  V30 2483 C 235.966 0.389597 2.29314 0
M  V30 2484 C 236.96 -0.517915 1.61289 0
M  V30 2485 O 238.166 -0.399328 1.75515 0
M  V30 2486 H 234.541 0.107386 0.744293 0
M  V30 2487 H 236.512 1.25286 2.70825 0
M  V30 2488 C 235.261 -0.356496 3.45868 0
M  V30 2489 H 234.584 0.332608 3.98414 0
M  V30 2490 H 236.024 -0.686851 4.184 0
M  V30 2491 C 234.483 -1.56383 2.98406 0
M  V30 2492 O 235.013 -2.66294 3.00749 0
M  V30 2493 N 233.219 -1.41029 2.54085 0
M  V30 2494 H 232.766 -0.516089 2.52377 0
M  V30 2495 H 232.724 -2.21939 2.22689 0
M  V30 2496 N 236.496 -1.42363 0.676048 0
M  V30 2497 C 237.426 -2.33497 0.0124832 0
M  V30 2498 C 238.407 -1.50748 -0.787981 0
M  V30 2499 O 239.592 -1.79346 -0.744884 0
M  V30 2500 C 236.722 -3.34377 -0.938582 0
M  V30 2501 C 235.676 -4.27289 -0.246622 0
M  V30 2502 C 235.002 -5.18386 -1.31071 0
M  V30 2503 C 236.302 -5.14916 0.875125 0
M  V30 2504 H 237.996 -2.89233 0.773593 0
M  V30 2505 H 235.542 -1.39073 0.37346 0
M  V30 2506 H 237.495 -3.97044 -1.41188 0
M  V30 2507 H 236.219 -2.76947 -1.73113 0
M  V30 2508 H 234.878 -3.66018 0.206456 0
M  V30 2509 H 234.526 -4.57282 -2.09528 0
M  V30 2510 H 234.226 -5.81378 -0.852839 0
M  V30 2511 H 235.75 -5.83929 -1.78492 0
M  V30 2512 H 237.164 -5.71262 0.482983 0
M  V30 2513 H 235.561 -5.86747 1.25887 0
M  V30 2514 H 236.631 -4.53242 1.72335 0
M  V30 2515 N 237.974 -0.419461 -1.51915 0
M  V30 2516 C 239.251 0.211999 -1.94448 0
M  V30 2517 C 239.631 1.61703 -1.35703 0
M  V30 2518 O 238.979 2.22102 -0.536931 0
M  V30 2519 C 239.189 0.207872 -3.4838 0
M  V30 2520 C 240.537 0.422192 -4.22496 0
M  V30 2521 O 241.561 0.286778 -3.55044 0
M  V30 2522 O 240.42 0.690009 -5.42126 0
M  V30 2523 H 237.514 0.139586 -0.815135 0
M  V30 2524 H 240.06 -0.476151 -1.62883 0
M  V30 2525 H 238.832 -0.775102 -3.83546 0
M  V30 2526 H 238.455 0.939688 -3.86336 0
M  V30 2527 N 239.452 1.56882 -0.150215 0
M  V30 2528 C 240.415 2.1573 0.774157 0
M  V30 2529 C 241.415 1.0999 1.17298 0
M  V30 2530 O 242.605 1.35613 1.09338 0
M  V30 2531 C 239.737 2.72302 2.05096 0
M  V30 2532 H 240.93 2.98752 0.262201 0
M  V30 2533 H 238.483 1.55985 0.099248 0
M  V30 2534 H 239.218 1.92956 2.6065 0
M  V30 2535 H 239.003 3.49665 1.77416 0
M  V30 2536 H 240.493 3.17632 2.71109 0
M  V30 2537 N 240.93 -0.123565 1.57115 0
M  V30 2538 C 242.179 -0.830704 1.83799 0
M  V30 2539 C 242.492 -1.81259 0.735158 0
M  V30 2540 O 243.698 -2.56558 0.888278 0
M  V30 2541 C 242.154 -1.52802 3.25852 0
M  V30 2542 C 241.762 -0.587356 4.44133 0
M  V30 2543 C 243.506 -2.22056 3.61789 0
M  V30 2544 C 241.413 -1.28764 5.77212 0
M  V30 2545 H 240.343 -0.313967 0.685522 0
M  V30 2546 H 242.994 -0.0834359 1.8331 0
M  V30 2547 H 241.376 -2.32175 3.20797 0
M  V30 2548 H 242.55 0.172829 4.60476 0
M  V30 2549 H 240.865 -0.00201892 4.164 0
M  V30 2550 H 243.462 -2.75131 4.58483 0
M  V30 2551 H 243.805 -2.99644 2.88997 0
M  V30 2552 H 244.338 -1.49576 3.68608 0
M  V30 2553 H 241.077 -0.55314 6.53162 0
M  V30 2554 H 240.597 -2.01995 5.64764 0
M  V30 2555 H 242.276 -1.8221 6.20813 0
M  V30 2556 N 242.408 -1.52605 -0.393616 0
M  V30 2557 C 243.636 -1.71294 -1.16043 0
M  V30 2558 C 244.051 -0.429259 -1.83855 0
M  V30 2559 O 243.408 0.595921 -1.72496 0
M  V30 2560 C 243.459 -2.8593 -2.21193 0
M  V30 2561 O 243.18 -4.09329 -1.56146 0
M  V30 2562 C 244.681 -3.16259 -3.10636 0
M  V30 2563 H 241.901 -0.573641 -0.348104 0
M  V30 2564 H 244.445 -1.99234 -0.461092 0
M  V30 2565 H 242.6 -2.60465 -2.86769 0
M  V30 2566 H 243.014 -4.73323 -2.25978 0
M  V30 2567 H 244.488 -3.99946 -3.80456 0
M  V30 2568 H 244.965 -2.3045 -3.73884 0
M  V30 2569 H 245.571 -3.43547 -2.50711 0
M  V30 2570 N 243.887 0.651787 -1.4349 0
M  V30 2571 C 245.115 1.43937 -1.48626 0
M  V30 2572 C 245.53 1.8851 -0.104587 0
M  V30 2573 O 244.887 1.5958 0.885464 0
M  V30 2574 C 244.938 2.6734 -2.43334 0
M  V30 2575 O 244.659 2.24631 -3.76128 0
M  V30 2576 C 246.16 3.60683 -2.57726 0
M  V30 2577 H 243.38 0.44213 -0.504739 0
M  V30 2578 H 245.924 0.798944 -1.88248 0
M  V30 2579 H 244.079 3.2752 -2.06904 0
M  V30 2580 H 244.493 3.04485 -4.2707 0
M  V30 2581 H 245.967 4.43933 -3.28067 0
M  V30 2582 H 246.444 4.08126 -1.62265 0
M  V30 2583 H 247.05 3.06384 -2.94973 0
M  V30 2584 N 245.365 1.30045 0.890287 0
M  V30 2585 C 246.776 1.16738 1.45702 0
M  V30 2586 C 247.127 -0.233939 1.948 0
M  V30 2587 O 246.252 -1.13021 1.84541 0
M  V30 2588 C 246.847 2.11313 2.64825 0
M  V30 2589 C 245.406 2.02001 3.17604 0
M  V30 2590 C 244.553 2.01699 1.90296 0
M  V30 2591 H 247.504 1.42392 0.700726 0
M  V30 2592 H 247.525 1.69086 3.40867 0
M  V30 2593 H 247.037 3.13294 2.2906 0
M  V30 2594 H 245.138 1.03142 3.5804 0
M  V30 2595 H 245.251 2.90128 3.81264 0
M  V30 2596 H 243.615 1.46427 2.08402 0
M  V30 2597 H 244.398 3.05402 1.56795 0
M  V30 2598 N 246.843 -1.10192 1.12674 0
M  V30 2599 C 248.12 -1.78717 0.794965 0
M  V30 2600 C 248.5 -1.98628 -0.714853 0
M  V30 2601 O 247.848 -1.58135 -1.64941 0
M  V30 2602 C 248.058 -3.11546 1.5729 0
M  V30 2603 C 249.406 -3.86382 1.76052 0
M  V30 2604 O 250.43 -3.21274 1.53823 0
M  V30 2605 O 249.289 -5.03246 2.13087 0
M  V30 2606 H 246.383 -0.774702 0.289423 0
M  V30 2607 H 248.929 -1.16819 1.23091 0
M  V30 2608 H 247.701 -2.92489 2.59935 0
M  V30 2609 H 247.324 -3.81164 1.13137 0
M  V30 2610 N 248.321 -0.919034 -1.28029 0
M  V30 2611 C 249.732 -0.600735 -1.76771 0
M  V30 2612 C 250.083 0.884024 -1.75156 0
M  V30 2613 O 249.208 1.69163 -1.34956 0
M  V30 2614 C 249.803 -1.08372 -3.21 0
M  V30 2615 C 248.362 -0.816248 -3.67443 0
M  V30 2616 C 247.509 -1.24742 -2.47658 0
M  V30 2617 H 250.46 -1.09974 -1.14418 0
M  V30 2618 H 250.481 -0.427512 -3.78091 0
M  V30 2619 H 249.993 -2.16437 -3.22144 0
M  V30 2620 H 248.094 0.250968 -3.71754 0
M  V30 2621 H 248.207 -1.4277 -4.57333 0
M  V30 2622 H 246.571 -0.666083 -2.45836 0
M  V30 2623 H 247.354 -2.33653 -2.51518 0
M  V30 2624 N 249.799 1.42003 -0.683588 0
M  V30 2625 C 251.027 2.05746 -0.218182 0
M  V30 2626 C 251.442 1.51396 1.12804 0
M  V30 2627 O 250.799 0.657303 1.70252 0
M  V30 2628 C 250.85 3.61171 -0.154131 0
M  V30 2629 O 250.571 4.13508 -1.44716 0
M  V30 2630 C 252.072 4.42042 0.333713 0
M  V30 2631 H 249.292 0.662888 -0.10402 0
M  V30 2632 H 251.836 1.81987 -0.9328 0
M  V30 2633 H 249.991 3.84012 0.511231 0
M  V30 2634 H 250.405 5.07453 -1.32632 0
M  V30 2635 H 251.879 5.51028 0.327423 0
M  V30 2636 H 252.356 4.17269 1.37053 0
M  V30 2637 H 252.962 4.24239 -0.300222 0
M  V30 2638 N 251.277 0.427512 1.51691 0
M  V30 2639 C 252.505 -0.141191 2.06418 0
M  V30 2640 C 252.92 -1.37303 1.29589 0
M  V30 2641 O 252.277 -1.79059 0.352732 0
M  V30 2642 C 252.328 -0.473266 3.58389 0
M  V30 2643 O 252.049 0.709673 4.32314 0
M  V30 2644 C 253.55 -1.09371 4.29596 0
M  V30 2645 H 250.77 -0.0122747 0.670888 0
M  V30 2646 H 253.314 0.603764 1.95384 0
M  V30 2647 H 251.469 -1.16812 3.69369 0
M  V30 2648 H 251.883 0.42807 5.2275 0
M  V30 2649 H 253.357 -1.27613 5.37046 0
M  V30 2650 H 253.834 -2.072 3.87253 0
M  V30 2651 H 254.44 -0.43853 4.23033 0
M  V30 2652 N 252.755 -1.56801 0.158532 0
M  V30 2653 C 253.703 -2.18638 -0.793729 0
M  V30 2654 C 254.697 -1.14669 -1.24689 0
M  V30 2655 O 255.903 -1.32895 -1.21403 0
M  V30 2656 H 252.278 -0.700226 -0.274204 0
M  V30 2657 H 254.249 -2.97367 -0.248095 0
M  V30 2658 C 252.998 -2.83139 -2.0181 0
M  V30 2659 H 252.321 -3.62863 -1.67841 0
M  V30 2660 H 253.761 -3.29894 -2.66357 0
M  V30 2661 C 252.22 -1.82244 -2.83353 0
M  V30 2662 O 252.75 -1.3 -3.80083 0
M  V30 2663 N 250.956 -1.51288 -2.48114 0
M  V30 2664 H 250.503 -1.93964 -1.69516 0
M  V30 2665 H 250.461 -0.840296 -3.02963 0
M  V30 2666 N 254.233 0.115231 -1.57178 0
M  V30 2667 C 255.196 1.12526 -1.99676 0
M  V30 2668 C 256.196 1.34095 -0.88742 0
M  V30 2669 O 257.386 1.30548 -1.15337 0
M  V30 2670 C 254.518 2.4789 -2.34015 0
M  V30 2671 H 255.711 0.759912 -2.90113 0
M  V30 2672 H 253.264 0.359648 -1.52106 0
M  V30 2673 H 253.999 2.89339 -1.4647 0
M  V30 2674 H 253.784 2.33588 -3.14927 0
M  V30 2675 H 255.274 3.20575 -2.67622 0
M  V30 2676 N 255.711 1.52812 0.385517 0
M  V30 2677 C 256.936 1.72207 1.15583 0
M  V30 2678 C 257.361 0.441034 1.82857 0
M  V30 2679 O 256.719 -0.603465 1.70962 0
M  V30 2680 C 256.767 2.87476 2.17692 0
M  V30 2681 O 255.871 2.54693 3.24354 0
M  V30 2682 H 255.212 0.572526 0.336319 0
M  V30 2683 H 257.742 1.99618 0.448744 0
M  V30 2684 H 257.752 3.13072 2.6163 0
M  V30 2685 H 256.427 3.80408 1.68115 0
M  V30 2686 H 255.004 2.3985 2.85529 0
M  V30 2687 N 257.189 -0.644168 1.43834 0
M  V30 2688 C 258.119 -1.76814 1.52509 0
M  V30 2689 C 259.1 -1.65823 0.379052 0
M  V30 2690 O 260.285 -1.84781 0.597466 0
M  V30 2691 C 257.415 -3.15288 1.4564 0
M  V30 2692 C 256.369 -3.41053 2.58586 0
M  V30 2693 C 255.695 -4.79421 2.36769 0
M  V30 2694 C 256.995 -3.34902 4.00797 0
M  V30 2695 H 258.689 -1.69812 2.46586 0
M  V30 2696 H 256.235 -0.815542 1.1868 0
M  V30 2697 H 258.188 -3.93681 1.50311 0
M  V30 2698 H 256.912 -3.23043 0.480725 0
M  V30 2699 H 255.571 -2.65035 2.53282 0
M  V30 2700 H 255.219 -4.83863 1.37424 0
M  V30 2701 H 254.919 -4.9762 3.12487 0
M  V30 2702 H 256.443 -5.6006 2.43238 0
M  V30 2703 H 257.857 -4.03218 4.07539 0
M  V30 2704 H 256.254 -3.64637 4.76613 0
M  V30 2705 H 257.324 -2.32928 4.25291 0
M  V30 2706 N 258.668 -1.30515 -0.883378 0
M  V30 2707 C 259.598 -1.19607 -2.00541 0
M  V30 2708 C 260.579 -0.086346 -1.69881 0
M  V30 2709 O 261.764 -0.268654 -1.92333 0
M  V30 2710 C 258.894 -0.888758 -3.35736 0
M  V30 2711 C 257.848 -1.95659 -3.8066 0
M  V30 2712 C 257.174 -1.50224 -5.13164 0
M  V30 2713 C 258.474 -3.36788 -3.99213 0
M  V30 2714 H 260.168 -2.13476 -2.09925 0
M  V30 2715 H 257.714 -1.02775 -1.00863 0
M  V30 2716 H 259.667 -0.799094 -4.13754 0
M  V30 2717 H 258.391 0.0856125 -3.26488 0
M  V30 2718 H 257.05 -2.03591 -3.04871 0
M  V30 2719 H 256.698 -0.516092 -5.00345 0
M  V30 2720 H 256.398 -2.2165 -5.44192 0
M  V30 2721 H 257.922 -1.42639 -5.93706 0
M  V30 2722 H 259.336 -3.31605 -4.67665 0
M  V30 2723 H 257.733 -4.06314 -4.41621 0
M  V30 2724 H 258.803 -3.78561 -3.03017 0
M  V30 2725 N 260.146 1.09593 -1.13257 0
M  V30 2726 C 261.374 1.855 -0.916378 0
M  V30 2727 C 261.789 1.81069 0.534738 0
M  V30 2728 O 261.146 1.20562 1.37007 0
M  V30 2729 C 261.197 3.33546 -1.39388 0
M  V30 2730 O 260.918 3.37927 -2.78813 0
M  V30 2731 C 262.419 4.26299 -1.21588 0
M  V30 2732 H 259.639 0.585991 -0.326887 0
M  V30 2733 H 262.183 1.38488 -1.5047 0
M  V30 2734 H 260.338 3.77992 -0.848597 0
M  V30 2735 H 260.752 4.30254 -2.9997 0
M  V30 2736 H 262.226 5.28341 -1.59876 0
M  V30 2737 H 262.703 4.38918 -0.157376 0
M  V30 2738 H 263.309 3.87668 -1.7491 0
M  V30 2739 N 261.624 0.925811 1.2754 0
M  V30 2740 C 262.571 0.422045 2.26908 0
M  V30 2741 C 263.541 -0.510029 1.58076 0
M  V30 2742 O 264.726 -0.429599 1.85901 0
M  V30 2743 C 261.866 -0.320837 3.43605 0
M  V30 2744 C 260.979 0.64513 4.27156 0
M  V30 2745 C 260.114 -0.117405 5.3107 0
M  V30 2746 C 259.153 0.841391 6.0629 0
M  V30 2747 N 258.29 0.111604 7.02011 0
M  V30 2748 H 263.13 1.27441 2.69375 0
M  V30 2749 H 260.667 0.639697 1.32462 0
M  V30 2750 H 262.625 -0.76785 4.10073 0
M  V30 2751 H 261.255 -1.13745 3.02096 0
M  V30 2752 H 260.307 1.21067 3.6062 0
M  V30 2753 H 261.619 1.37797 4.79389 0
M  V30 2754 H 260.773 -0.624422 6.03478 0
M  V30 2755 H 259.512 -0.883219 4.79636 0
M  V30 2756 H 258.517 1.35967 5.32722 0
M  V30 2757 H 259.742 1.60696 6.59813 0
M  V30 2758 H 257.688 -0.635999 6.5291 0
M  V30 2759 H 257.605 0.784044 7.51923 0
M  V30 2760 H 258.873 -0.374823 7.78598 0
M  V30 2761 N 263.102 -1.41638 0.69111 0
M  V30 2762 C 264.032 -2.3347 0.037248 0
M  V30 2763 C 265.013 -1.51575 -0.771947 0
M  V30 2764 O 266.198 -1.80126 -0.72582 0
M  V30 2765 C 263.328 -3.35354 -0.903064 0
M  V30 2766 C 262.282 -4.27526 -0.201288 0
M  V30 2767 C 261.608 -5.19747 -1.25565 0
M  V30 2768 C 262.908 -5.13959 0.929689 0
M  V30 2769 H 264.602 -2.88397 0.804227 0
M  V30 2770 H 262.148 -1.38669 0.388189 0
M  V30 2771 H 264.101 -3.98519 -1.36969 0
M  V30 2772 H 262.825 -2.78767 -1.70166 0
M  V30 2773 H 261.484 -3.65779 0.245265 0
M  V30 2774 H 261.132 -4.59479 -2.04666 0
M  V30 2775 H 260.832 -5.8225 -0.791128 0
M  V30 2776 H 262.356 -5.85789 -1.72288 0
M  V30 2777 H 263.77 -5.70718 0.543546 0
M  V30 2778 H 262.167 -5.85379 1.32103 0
M  V30 2779 H 263.237 -4.51389 1.77133 0
M  V30 2780 N 264.58 -0.43555 -1.51462 0
M  V30 2781 C 265.512 0.41257 -2.25456 0
M  V30 2782 C 266.525 0.987822 -1.29406 0
M  V30 2783 O 267.714 0.882266 -1.55172 0
M  V30 2784 C 264.814 1.58894 -2.99342 0
M  V30 2785 C 263.987 1.13288 -4.22474 0
M  V30 2786 C 263.046 2.17917 -4.78956 0
M  V30 2787 O 262.072 1.77425 -5.40841 0
M  V30 2788 N 263.274 3.50382 -4.62832 0
M  V30 2789 H 266.039 -0.221603 -2.9888 0
M  V30 2790 H 263.6 -0.264342 -1.59727 0
M  V30 2791 H 265.592 2.28508 -3.34015 0
M  V30 2792 H 264.162 2.12849 -2.28941 0
M  V30 2793 H 263.382 0.263881 -3.93316 0
M  V30 2794 H 264.67 0.805542 -5.02383 0
M  V30 2795 H 264.068 3.86013 -4.13534 0
M  V30 2796 H 262.625 4.15895 -5.01871 0
M  V30 2797 N 266.058 1.56714 -0.166846 0
M  V30 2798 C 267.021 2.16539 0.751232 0
M  V30 2799 C 268.021 1.11228 1.16125 0
M  V30 2800 O 269.211 1.36765 1.07894 0
M  V30 2801 C 266.343 2.74462 2.02196 0
M  V30 2802 H 267.536 2.99013 0.230499 0
M  V30 2803 H 265.089 1.56081 0.0826982 0
M  V30 2804 H 265.824 1.95709 2.58589 0
M  V30 2805 H 265.609 3.51527 1.73698 0
M  V30 2806 H 267.099 3.20489 2.67725 0
M  V30 2807 N 267.536 -0.106894 1.57237 0
M  V30 2808 C 268.468 -1.15646 1.97885 0
M  V30 2809 C 269.481 -1.36981 0.879779 0
M  V30 2810 O 270.67 -1.35841 1.15799 0
M  V30 2811 C 267.77 -2.51425 2.27241 0
M  V30 2812 C 266.943 -2.50529 3.58545 0
M  V30 2813 C 266.002 -3.68145 3.75973 0
M  V30 2814 O 265.028 -3.51176 4.47956 0
M  V30 2815 N 266.23 -4.87177 3.15656 0
M  V30 2816 H 268.995 -0.81059 2.8853 0
M  V30 2817 H 266.556 -0.296024 1.59171 0
M  V30 2818 H 268.548 -3.28689 2.36105 0
M  V30 2819 H 267.118 -2.78147 1.42663 0
M  V30 2820 H 266.338 -1.58894 3.60758 0
M  V30 2821 H 267.626 -2.46997 4.44826 0
M  V30 2822 H 267.024 -5.03868 2.57165 0
M  V30 2823 H 265.581 -5.62075 3.30023 0
M  V30 2824 N 269.014 -1.53014 -0.377408 0
M  V30 2825 C 269.962 -1.7927 -1.48206 0
M  V30 2826 C 270.956 -0.661195 -1.55963 0
M  V30 2827 O 272.162 -0.843908 -1.58991 0
M  V30 2828 H 268.537 -0.567425 -0.493491 0
M  V30 2829 H 270.508 -2.71753 -1.2326 0
M  V30 2830 C 269.257 -1.98894 -2.85196 0
M  V30 2831 H 268.58 -2.85395 -2.79981 0
M  V30 2832 H 270.02 -2.21249 -3.61698 0
M  V30 2833 C 268.479 -0.764691 -3.28107 0
M  V30 2834 O 269.009 0.0523226 -4.01666 0
M  V30 2835 N 267.215 -0.591493 -2.84517 0
M  V30 2836 H 266.762 -1.25749 -2.24822 0
M  V30 2837 H 266.72 0.226253 -3.13585 0
M  V30 2838 N 270.492 0.636531 -1.44174 0
M  V30 2839 C 271.424 1.7618 -1.46606 0
M  V30 2840 C 272.437 1.58768 -0.360091 0
M  V30 2841 O 273.626 1.67181 -0.625518 0
M  V30 2842 C 270.726 3.13833 -1.27915 0
M  V30 2843 C 269.899 3.57753 -2.51658 0
M  V30 2844 C 268.958 4.74265 -2.27945 0
M  V30 2845 O 267.984 4.82852 -3.01401 0
M  V30 2846 N 269.186 5.65604 -1.30662 0
M  V30 2847 H 271.951 1.74567 -2.43612 0
M  V30 2848 H 269.512 0.820924 -1.39544 0
M  V30 2849 H 271.504 3.8949 -1.09907 0
M  V30 2850 H 270.074 3.10121 -0.39293 0
M  V30 2851 H 269.294 2.72362 -2.84978 0
M  V30 2852 H 270.582 3.83847 -3.33974 0
M  V30 2853 H 269.98 5.61354 -0.699844 0
M  V30 2854 H 268.537 6.40913 -1.18634 0
M  V30 2855 N 271.97 1.30982 0.876444 0
M  V30 2856 C 273.216 1.21484 1.63136 0
M  V30 2857 C 273.571 -0.226339 1.91064 0
M  V30 2858 O 272.864 -1.15788 1.52656 0
M  V30 2859 C 273.058 1.98572 2.9716 0
M  V30 2860 C 272.887 3.50039 2.82317 0
M  V30 2861 C 271.657 4.19393 2.81847 0
M  V30 2862 C 273.855 4.45111 2.57644 0
M  V30 2863 N 271.837 5.57061 2.57985 0
M  V30 2864 C 273.208 5.70402 2.42986 0
M  V30 2865 C 275.263 4.3461 2.42937 0
M  V30 2866 C 273.966 6.8638 2.15115 0
M  V30 2867 C 275.992 5.50365 2.16454 0
M  V30 2868 C 275.354 6.74642 2.02578 0
M  V30 2869 H 271.453 0.499632 0.601575 0
M  V30 2870 H 274.037 1.65094 1.03209 0
M  V30 2871 H 272.208 1.5734 3.55104 0
M  V30 2872 H 273.94 1.81146 3.61895 0
M  V30 2873 H 270.695 3.71303 2.93991 0
M  V30 2874 H 271.119 6.29529 2.49043 0
M  V30 2875 H 275.761 3.39199 2.52396 0
M  V30 2876 H 273.479 7.81824 2.04394 0
M  V30 2877 H 277.065 5.44154 2.05884 0
M  V30 2878 H 275.945 7.62699 1.82374 0
M  V30 2879 N 273.449 -1.08991 1.13837 0
M  V30 2880 C 274.379 -2.17771 0.842507 0
M  V30 2881 C 275.36 -1.6892 -0.20001 0
M  V30 2882 O 276.545 -1.94113 -0.0579731 0
M  V30 2883 C 273.675 -3.4589 0.312644 0
M  V30 2884 C 272.629 -4.08099 1.28992 0
M  V30 2885 C 271.955 -5.31098 0.619623 0
M  V30 2886 C 273.255 -4.50077 2.65005 0
M  V30 2887 H 274.949 -2.42777 1.75213 0
M  V30 2888 H 272.495 -1.16682 0.843875 0
M  V30 2889 H 274.448 -4.21297 0.0933043 0
M  V30 2890 H 273.172 -3.20419 -0.632382 0
M  V30 2891 H 271.831 -3.34717 1.49533 0
M  V30 2892 H 271.479 -5.0191 -0.33102 0
M  V30 2893 H 271.179 -5.73674 1.27167 0
M  V30 2894 H 272.703 -6.09224 0.409669 0
M  V30 2895 H 274.117 -5.16688 2.48407 0
M  V30 2896 H 272.514 -5.03553 3.26427 0
M  V30 2897 H 273.584 -3.62257 3.22332 0
M  V30 2898 N 274.927 -0.932562 -1.27047 0
M  V30 2899 C 275.859 -0.392734 -2.2581 0
M  V30 2900 C 276.872 0.479241 -1.55586 0
M  V30 2901 O 278.061 0.291078 -1.76111 0
M  V30 2902 C 275.161 0.455456 -3.35826 0
M  V30 2903 C 274.334 -0.398355 -4.35582 0
M  V30 2904 C 273.393 0.387985 -5.24768 0
M  V30 2905 O 272.419 -0.206003 -5.68827 0
M  V30 2906 N 273.621 1.68664 -5.55457 0
M  V30 2907 H 276.386 -1.24173 -2.72766 0
M  V30 2908 H 273.947 -0.800511 -1.40725 0
M  V30 2909 H 275.939 0.988692 -3.92437 0
M  V30 2910 H 274.509 1.20522 -2.88432 0
M  V30 2911 H 273.729 -1.11286 -3.78165 0
M  V30 2912 H 275.017 -0.981889 -4.99236 0
M  V30 2913 H 274.415 2.19147 -5.21528 0
M  V30 2914 H 272.972 2.1663 -6.14748 0
M  V30 2915 N 276.405 1.4127 -0.698611 0
M  V30 2916 C 277.682 1.94955 -0.158762 0
M  V30 2917 C 278.062 1.63781 1.33188 0
M  V30 2918 O 277.41 0.946423 2.07979 0
M  V30 2919 C 277.62 3.46044 -0.453309 0
M  V30 2920 C 278.968 4.22872 -0.382707 0
M  V30 2921 O 279.992 3.54076 -0.388396 0
M  V30 2922 O 278.851 5.45407 -0.345463 0
M  V30 2923 H 275.945 0.82683 -0.0167505 0
M  V30 2924 H 278.491 1.50971 -0.77498 0
M  V30 2925 H 277.263 3.62028 -1.48498 0
M  V30 2926 H 276.886 3.97128 0.19373 0
M  V30 2927 N 277.883 0.443576 1.51229 0
M  V30 2928 C 278.816 -0.410089 2.24485 0
M  V30 2929 C 279.794 -1.01949 1.26669 0
M  V30 2930 O 280.978 -1.06075 1.55821 0
M  V30 2931 C 278.105 -1.57211 3.00004 0
M  V30 2932 C 277.151 -1.08279 4.12526 0
M  V30 2933 S 277.984 -0.0197476 5.35496 0
M  V30 2934 C 279.14 -1.18629 6.14555 0
M  V30 2935 H 279.373 0.211832 2.96544 0
M  V30 2936 H 276.906 0.228156 1.52705 0
M  V30 2937 H 278.864 -2.23825 3.44111 0
M  V30 2938 H 277.525 -2.16547 2.27522 0
M  V30 2939 H 276.718 -1.95193 4.64667 0
M  V30 2940 H 276.32 -0.494797 3.70713 0
M  V30 2941 H 278.612 -2.10344 6.4402 0
M  V30 2942 H 279.555 -0.70472 7.04584 0
M  V30 2943 H 279.963 -1.42768 5.46148 0
M  V30 2944 N 279.361 -1.56624 0.175154 0
M  V30 2945 C 280.589 -2.01374 -0.474971 0
M  V30 2946 C 281.004 -1.05537 -1.56548 0
M  V30 2947 O 280.361 -0.0568668 -1.82411 0
M  V30 2948 C 280.412 -3.45923 -1.04975 0
M  V30 2949 O 280.133 -4.381 -0.00276605 0
M  V30 2950 C 281.634 -4.06093 -1.77773 0
M  V30 2951 H 278.854 -0.659962 -0.121206 0
M  V30 2952 H 281.398 -2.02601 0.27801 0
M  V30 2953 H 279.553 -3.45458 -1.75321 0
M  V30 2954 H 279.967 -5.22753 -0.427681 0
M  V30 2955 H 281.441 -5.09147 -2.13245 0
M  V30 2956 H 281.918 -3.48405 -2.67414 0
M  V30 2957 H 282.524 -4.10272 -1.12059 0
M  V30 2958 N 280.839 0.0985539 -1.57292 0
M  V30 2959 C 282.067 0.816318 -1.90115 0
M  V30 2960 C 282.482 1.72451 -0.768509 0
M  V30 2961 O 281.839 1.80643 0.259687 0
M  V30 2962 C 281.89 1.63259 -3.22535 0
M  V30 2963 O 281.611 0.760934 -4.31441 0
M  V30 2964 C 283.112 2.45372 -3.69199 0
M  V30 2965 H 280.332 0.233595 -0.629027 0
M  V30 2966 H 282.876 0.0768229 -2.04356 0
M  V30 2967 H 281.031 2.32463 -3.09903 0
M  V30 2968 H 281.445 1.32595 -5.07463 0
M  V30 2969 H 282.919 2.98144 -4.64558 0
M  V30 2970 H 283.396 3.23677 -2.96867 0
M  V30 2971 H 284.002 1.81373 -3.84687 0
M  V30 2972 N 282.317 1.53212 0.369288 0
M  V30 2973 C 283.267 1.75769 1.45222 0
M  V30 2974 C 284.251 0.612136 1.48801 0
M  V30 2975 O 285.443 0.870674 1.54105 0
M  V30 2976 C 282.572 1.94769 2.82701 0
M  V30 2977 C 281.658 3.15315 2.83615 0
M  V30 2978 N 282.049 4.37295 2.54178 0
M  V30 2979 C 280.347 3.15962 3.14776 0
M  V30 2980 C 281.048 5.19015 2.62675 0
M  V30 2981 N 280.024 4.55142 2.97232 0
M  V30 2982 H 283.826 2.67691 1.2132 0
M  V30 2983 H 281.34 1.51787 0.577438 0
M  V30 2984 H 283.337 2.09056 3.60696 0
M  V30 2985 H 281.997 1.04073 3.07569 0
M  V30 2986 H 283.008 4.65091 2.27839 0
M  V30 2987 H 279.685 2.35144 3.44983 0
M  V30 2988 H 281.075 6.26305 2.43294 0
M  V30 2989 N 283.795 -0.628877 1.44509 0
M  V30 2990 C 284.725 -1.75187 1.54376 0
M  V30 2991 C 285.706 -1.65411 0.396618 0
M  V30 2992 O 286.891 -1.84137 0.617031 0
M  V30 2993 C 284.021 -3.13725 1.48976 0
M  V30 2994 C 282.975 -3.38291 2.62189 0
M  V30 2995 C 282.301 -4.76883 2.41841 0
M  V30 2996 C 283.601 -3.30632 4.04326 0
M  V30 2997 H 285.295 -1.67187 2.48373 0
M  V30 2998 H 282.841 -0.802909 1.19538 0
M  V30 2999 H 284.794 -3.92064 1.54478 0
M  V30 3000 H 283.518 -3.22515 0.514961 0
M  V30 3001 H 282.177 -2.62334 2.56079 0
M  V30 3002 H 281.825 -4.82378 1.42548 0
M  V30 3003 H 281.525 -4.94278 3.17747 0
M  V30 3004 H 283.049 -5.57449 2.49165 0
M  V30 3005 H 284.463 -3.98873 4.11793 0
M  V30 3006 H 282.86 -3.59561 4.80454 0
M  V30 3007 H 283.93 -2.28404 4.27738 0
M  V30 3008 N 285.273 -1.31445 -0.869486 0
M  V30 3009 C 286.522 -1.20517 -1.61736 0
M  V30 3010 C 286.835 0.235341 -1.94179 0
M  V30 3011 O 288.041 0.466312 -2.67465 0
M  V30 3012 C 286.497 -2.10982 -2.91573 0
M  V30 3013 C 286.105 -3.60032 -2.66611 0
M  V30 3014 C 287.849 -2.08856 -3.69567 0
M  V30 3015 C 285.756 -4.42503 -3.92358 0
M  V30 3016 H 284.686 -0.447493 -0.606849 0
M  V30 3017 H 287.337 -1.56303 -0.96133 0
M  V30 3018 H 285.719 -1.68095 -3.58553 0
M  V30 3019 H 286.893 -4.11167 -2.08035 0
M  V30 3020 H 285.208 -3.64139 -2.0197 0
M  V30 3021 H 287.805 -2.67716 -4.62852 0
M  V30 3022 H 288.148 -1.07582 -4.02159 0
M  V30 3023 H 288.681 -2.49945 -3.09471 0
M  V30 3024 H 285.42 -5.44533 -3.64916 0
M  V30 3025 H 284.94 -3.96125 -4.50383 0
M  V30 3026 H 286.619 -4.54741 -4.60238 0
M  V30 3027 N 286.751 1.08385 -1.14413 0
M  V30 3028 C 287.681 2.17321 -0.854044 0
M  V30 3029 C 288.662 1.69024 0.191049 0
M  V30 3030 O 289.847 1.94141 0.0476779 0
M  V30 3031 C 286.977 3.45719 -0.330983 0
M  V30 3032 C 285.931 4.07409 -1.31155 0
M  V30 3033 C 285.257 5.30762 -0.64778 0
M  V30 3034 C 286.557 4.48665 -2.67388 0
M  V30 3035 H 288.251 2.41845 -1.76498 0
M  V30 3036 H 285.797 1.16233 -0.850051 0
M  V30 3037 H 287.75 4.21241 -0.115645 0
M  V30 3038 H 286.474 3.2075 0.615381 0
M  V30 3039 H 285.133 3.33919 -1.51306 0
M  V30 3040 H 284.781 5.02078 0.304398 0
M  V30 3041 H 284.481 5.72992 -1.30207 0
M  V30 3042 H 286.005 6.08998 -0.441972 0
M  V30 3043 H 287.419 5.15364 -2.51143 0
M  V30 3044 H 285.816 5.01814 -3.29093 0
M  V30 3045 H 286.886 3.60543 -3.24248 0
M  V30 3046 N 288.23 0.939286 1.26551 0
M  V30 3047 C 289.646 0.641304 1.46149 0
M  V30 3048 C 289.846 -0.805964 1.84679 0
M  V30 3049 O 288.902 -1.58278 1.96734 0
M  V30 3050 C 290.215 1.6011 2.54529 0
M  V30 3051 C 291.763 1.6106 2.68382 0
M  V30 3052 C 292.238 2.55765 3.79932 0
M  V30 3053 N 293.729 2.5404 3.87322 0
M  V30 3054 C 294.464 3.24004 4.73085 0
M  V30 3055 N 293.96 4.03388 5.63249 0
M  V30 3056 N 295.753 3.12965 4.66914 0
M  V30 3057 H 287.904 1.87478 0.998285 0
M  V30 3058 H 290.167 0.805559 0.499779 0
M  V30 3059 H 289.873 2.63412 2.33039 0
M  V30 3060 H 289.747 1.35171 3.52149 0
M  V30 3061 H 292.134 0.584835 2.89247 0
M  V30 3062 H 292.215 1.90053 1.71212 0
M  V30 3063 H 291.859 3.58458 3.5982 0
M  V30 3064 H 291.789 2.24063 4.76554 0
M  V30 3065 H 294.28 1.96396 3.22858 0
M  V30 3066 H 294.593 4.5373 6.25579 0
M  V30 3067 H 292.938 4.07489 5.63008 0
M  V30 3068 H 296.129 2.50432 3.95476 0
M  V30 3069 H 296.302 3.67759 5.33533 0
M  V30 3070 N 289.708 -1.40897 0.706093 0
M  V30 3071 C 290.933 -2.05895 0.249435 0
M  V30 3072 C 291.358 -1.52823 -1.09666 0
M  V30 3073 O 290.716 -0.659589 -1.68876 0
M  V30 3074 C 290.764 -3.59872 0.22904 0
M  V30 3075 O 289.868 -4.04708 -0.792784 0
M  V30 3076 H 289.209 -0.653206 0.119241 0
M  V30 3077 H 291.739 -1.80471 0.96391 0
M  V30 3078 H 291.749 -4.07951 0.0634791 0
M  V30 3079 H 290.424 -3.97866 1.21141 0
M  V30 3080 H 289.001 -3.68111 -0.59572 0
M  V30 3081 N 291.186 -0.45159 -1.50991 0
M  V30 3082 C 292.433 0.110074 -2.02201 0
M  V30 3083 C 292.761 1.4146 -1.33489 0
M  V30 3084 O 292.016 1.90617 -0.443125 0
M  V30 3085 C 292.315 0.361728 -3.55565 0
M  V30 3086 C 291.981 -0.858717 -4.42648 0
M  V30 3087 C 290.643 -1.19338 -4.66167 0
M  V30 3088 C 292.995 -1.67221 -4.93646 0
M  V30 3089 C 290.323 -2.34195 -5.37931 0
M  V30 3090 C 292.675 -2.8119 -5.6667 0
M  V30 3091 C 291.339 -3.15094 -5.88449 0
M  V30 3092 H 290.609 0.040279 -0.739904 0
M  V30 3093 H 293.256 -0.601696 -1.81802 0
M  V30 3094 H 291.561 1.15554 -3.74372 0
M  V30 3095 H 293.258 0.80996 -3.92735 0
M  V30 3096 H 289.848 -0.58796 -4.24548 0
M  V30 3097 H 294.032 -1.42686 -4.75347 0
M  V30 3098 H 289.288 -2.6076 -5.53005 0
M  V30 3099 H 293.462 -3.44585 -6.05173 0
M  V30 3100 H 291.089 -4.04204 -6.43835 0
M  V30 3101 N 292.664 1.56529 -0.183458 0
M  V30 3102 C 293.611 2.18546 0.742055 0
M  V30 3103 C 294.581 1.12912 1.2182 0
M  V30 3104 O 295.766 1.41115 1.28418 0
M  V30 3105 C 292.906 2.83977 1.96089 0
M  V30 3106 C 292.019 4.04105 1.52719 0
M  V30 3107 C 291.154 4.57427 2.70063 0
M  V30 3108 C 290.193 5.69938 2.23243 0
M  V30 3109 N 289.33 6.17717 3.33722 0
M  V30 3110 H 294.17 2.97284 0.206432 0
M  V30 3111 H 291.707 1.46823 0.0901571 0
M  V30 3112 H 293.665 3.20077 2.67594 0
M  V30 3113 H 292.295 2.07822 2.47002 0
M  V30 3114 H 291.347 3.73745 0.708436 0
M  V30 3115 H 292.659 4.85513 1.1436 0
M  V30 3116 H 291.813 4.95772 3.49708 0
M  V30 3117 H 290.552 3.75101 3.11689 0
M  V30 3118 H 289.557 5.31133 1.42048 0
M  V30 3119 H 290.782 6.54073 1.82661 0
M  V30 3120 H 288.728 5.38317 3.74902 0
M  V30 3121 H 288.645 6.94146 2.99495 0
M  V30 3122 H 289.913 6.60713 4.13616 0
M  V30 3123 N 294.142 -0.090211 1.57342 0
M  V30 3124 C 295.052 -1.12735 2.05738 0
M  V30 3125 C 296.068 -1.43557 0.983231 0
M  V30 3126 O 297.244 -1.54101 1.29672 0
M  V30 3127 C 294.309 -2.42659 2.47624 0
M  V30 3128 C 293.37 -2.18975 3.69254 0
M  V30 3129 C 292.603 -3.42704 4.09133 0
M  V30 3130 O 292.826 -4.51127 3.49057 0
M  V30 3131 O 291.76 -3.32003 5.02053 0
M  V30 3132 H 295.586 -0.746279 2.94388 0
M  V30 3133 H 293.171 -0.303064 1.46294 0
M  V30 3134 H 295.053 -3.19155 2.7517 0
M  V30 3135 H 293.728 -2.80182 1.62109 0
M  V30 3136 H 292.635 -1.40244 3.46818 0
M  V30 3137 H 293.968 -1.86342 4.55563 0
M  V30 3138 N 295.62 -1.53406 -0.361157 0
M  V30 3139 C 296.867 -1.69802 -1.10333 0
M  V30 3140 C 297.195 -0.452087 -1.89173 0
M  V30 3141 O 296.45 0.566017 -1.87336 0
M  V30 3142 C 296.749 -2.90211 -2.08596 0
M  V30 3143 C 296.415 -4.26539 -1.46203 0
M  V30 3144 C 295.077 -4.6361 -1.28915 0
M  V30 3145 C 297.429 -5.113 -1.01101 0
M  V30 3146 C 294.757 -5.83075 -0.651157 0
M  V30 3147 C 297.109 -6.31415 -0.387007 0
M  V30 3148 C 295.773 -6.67195 -0.201657 0
M  V30 3149 H 295.043 -0.621351 -0.403737 0
M  V30 3150 H 297.69 -1.87598 -0.384609 0
M  V30 3151 H 295.995 -2.66946 -2.86788 0
M  V30 3152 H 297.692 -3.00091 -2.65982 0
M  V30 3153 H 294.282 -3.97352 -1.60653 0
M  V30 3154 H 298.466 -4.83206 -1.13249 0
M  V30 3155 H 293.722 -6.09385 -0.496006 0
M  V30 3156 H 297.896 -6.96394 -0.0293563 0
M  V30 3157 H 295.523 -7.59628 0.294766 0
M  V30 3158 N 297.098 0.621204 -1.44841 0
M  V30 3159 C 298.028 1.74366 -1.55303 0
M  V30 3160 C 299.009 1.65199 -0.405385 0
M  V30 3161 O 300.194 1.83807 -0.626787 0
M  V30 3162 C 297.324 3.12931 -1.50637 0
M  V30 3163 C 296.278 3.36896 -2.63979 0
M  V30 3164 C 295.604 4.75594 -2.44366 0
M  V30 3165 C 296.904 3.28483 -4.06074 0
M  V30 3166 H 298.598 1.65867 -2.49256 0
M  V30 3167 H 296.144 0.796558 -1.19962 0
M  V30 3168 H 298.097 3.9124 -1.56555 0
M  V30 3169 H 296.821 3.22237 -0.532057 0
M  V30 3170 H 295.48 2.60972 -2.57467 0
M  V30 3171 H 295.128 4.81616 -1.45105 0
M  V30 3172 H 294.828 4.92586 -3.20364 0
M  V30 3173 H 296.352 5.5612 -2.52117 0
M  V30 3174 H 297.766 3.96684 -4.13902 0
M  V30 3175 H 296.163 3.57008 -4.82354 0
M  V30 3176 H 297.233 2.26133 -4.28943 0
M  V30 3177 N 298.576 1.31904 0.862503 0
M  V30 3178 C 299.508 1.16005 1.97675 0
M  V30 3179 C 300.521 0.0971234 1.6251 0
M  V30 3180 O 301.71 0.345337 1.75128 0
M  V30 3181 C 298.81 0.751791 3.30456 0
M  V30 3182 C 297.983 1.90133 3.93914 0
M  V30 3183 C 297.042 1.4779 5.05019 0
M  V30 3184 O 296.068 2.18872 5.25437 0
M  V30 3185 N 297.27 0.369491 5.79323 0
M  V30 3186 H 300.035 2.11982 2.11857 0
M  V30 3187 H 297.596 1.24337 1.03691 0
M  V30 3188 H 299.588 0.451084 4.02178 0
M  V30 3189 H 298.158 -0.116593 3.12382 0
M  V30 3190 H 297.378 2.36896 3.15078 0
M  V30 3191 H 298.666 2.67111 4.33047 0
M  V30 3192 H 298.064 -0.222299 5.65263 0
M  V30 3193 H 296.621 0.128354 6.51674 0
M  V30 3194 N 300.054 -1.07777 1.14986 0
M  V30 3195 C 301.279 -1.84558 0.946213 0
M  V30 3196 C 301.704 -1.81323 -0.500362 0
M  V30 3197 O 301.062 -1.20301 -1.35637 0
M  V30 3198 C 301.11 -3.29736 1.45968 0
M  V30 3199 O 300.214 -4.07149 0.65601 0
M  V30 3200 H 299.555 -0.571641 0.33782 0
M  V30 3201 H 302.085 -1.35991 1.52865 0
M  V30 3202 H 302.095 -3.80574 1.47063 0
M  V30 3203 H 300.77 -3.31406 2.51283 0
M  V30 3204 H 299.347 -3.65994 0.714322 0
M  V30 3205 N 301.532 -0.945985 -1.26051 0
M  V30 3206 C 302.757 -0.612525 -1.98149 0
M  V30 3207 C 303.182 0.806623 -1.69927 0
M  V30 3208 O 302.54 1.54411 -0.950108 0
M  V30 3209 C 302.588 -0.866981 -3.50023 0
M  V30 3210 O 301.692 0.0585333 -4.12358 0
M  V30 3211 H 301.033 -0.23379 -0.621481 0
M  V30 3212 H 303.563 -1.27023 -1.60395 0
M  V30 3213 H 303.573 -0.789792 -4.00283 0
M  V30 3214 H 302.248 -1.90135 -3.69894 0
M  V30 3215 H 300.825 -0.0701241 -3.72834 0
M  V30 3216 N 303.011 1.40521 -0.713556 0
M  V30 3217 C 303.941 2.33381 -0.0743864 0
M  V30 3218 C 304.922 1.52784 0.747735 0
M  V30 3219 O 306.107 1.81258 0.697071 0
M  V30 3220 C 303.237 3.36748 0.849598 0
M  V30 3221 C 302.191 4.27793 0.133247 0
M  V30 3222 C 301.517 5.21679 1.17281 0
M  V30 3223 C 302.817 5.12415 -1.01134 0
M  V30 3224 H 304.511 2.87081 -0.850007 0
M  V30 3225 H 302.057 1.38034 -0.410201 0
M  V30 3226 H 304.01 4.00648 1.30612 0
M  V30 3227 H 302.734 2.81439 1.65709 0
M  V30 3228 H 301.393 3.65342 -0.303426 0
M  V30 3229 H 301.041 4.62677 1.9733 0
M  V30 3230 H 300.741 5.83435 0.698397 0
M  V30 3231 H 302.265 5.88456 1.62947 0
M  V30 3232 H 303.679 5.69781 -0.634274 0
M  V30 3233 H 302.076 5.83203 -1.41399 0
M  V30 3234 H 303.146 4.48514 -1.84292 0
M  V30 3235 N 304.489 0.459591 1.5075 0
M  V30 3236 C 305.905 0.113092 1.59199 0
M  V30 3237 C 306.105 -1.37951 1.46874 0
M  V30 3238 O 305.161 -2.15168 1.32132 0
M  V30 3239 C 306.474 0.653043 2.93523 0
M  V30 3240 C 308.022 0.615449 3.0689 0
M  V30 3241 C 308.497 1.13275 4.43771 0
M  V30 3242 N 309.988 1.09167 4.50152 0
M  V30 3243 C 310.723 1.46256 5.54434 0
M  V30 3244 N 310.219 1.90739 6.66026 0
M  V30 3245 N 312.012 1.37932 5.44914 0
M  V30 3246 H 304.163 1.43049 1.57005 0
M  V30 3247 H 306.426 0.590861 0.741341 0
M  V30 3248 H 306.132 1.69822 3.07983 0
M  V30 3249 H 306.006 0.0902132 3.77092 0
M  V30 3250 H 308.393 -0.420793 2.92084 0
M  V30 3251 H 308.474 1.21495 2.25106 0
M  V30 3252 H 308.118 2.16757 4.59324 0
M  V30 3253 H 308.048 0.509576 5.24129 0
M  V30 3254 H 310.539 0.76528 3.7007 0
M  V30 3255 H 310.852 2.17218 7.41644 0
M  V30 3256 H 309.197 1.94683 6.67176 0
M  V30 3257 H 312.388 1.0303 4.56621 0
M  V30 3258 H 312.561 1.67164 6.26067 0
M  V30 3259 N 305.967 -1.56429 0.191757 0
M  V30 3260 C 306.93 -2.17707 -0.716688 0
M  V30 3261 C 307.93 -1.13061 -1.14341 0
M  V30 3262 O 309.12 -1.38464 -1.05704 0
M  V30 3263 C 306.252 -2.77644 -1.97804 0
M  V30 3264 H 307.445 -2.99342 -0.1829 0
M  V30 3265 H 304.998 -1.56193 -0.0578566 0
M  V30 3266 H 305.733 -1.99799 -2.55443 0
M  V30 3267 H 305.518 -3.54246 -1.68083 0
M  V30 3268 H 307.008 -3.24708 -2.62592 0
M  V30 3269 N 307.445 0.0818655 -1.57387 0
M  V30 3270 C 308.375 1.09885 -2.06028 0
M  V30 3271 C 309.356 1.4098 -0.951774 0
M  V30 3272 O 310.541 1.50781 -1.22387 0
M  V30 3273 C 307.671 2.4151 -2.4958 0
M  V30 3274 C 306.625 2.24792 -3.64215 0
M  V30 3275 C 305.951 3.61712 -3.93787 0
M  V30 3276 C 307.251 1.67749 -4.94629 0
M  V30 3277 H 308.945 0.694128 -2.91243 0
M  V30 3278 H 306.491 0.332448 -1.4011 0
M  V30 3279 H 308.444 3.12939 -2.82219 0
M  V30 3280 H 307.168 2.83943 -1.61381 0
M  V30 3281 H 305.827 1.55807 -3.31843 0
M  V30 3282 H 305.475 4.01697 -3.02735 0
M  V30 3283 H 305.175 3.51368 -4.70971 0
M  V30 3284 H 306.699 4.34587 -4.28913 0
M  V30 3285 H 308.113 2.29032 -5.25564 0
M  V30 3286 H 306.51 1.68128 -5.76067 0
M  V30 3287 H 307.58 0.638059 -4.80684 0
M  V30 3288 N 308.923 1.53595 0.353017 0
M  V30 3289 C 310.339 1.43648 0.695516 0
M  V30 3290 C 310.539 0.585617 1.92802 0
M  V30 3291 O 309.595 0.0729223 2.52395 0
M  V30 3292 C 310.908 2.8701 0.896991 0
M  V30 3293 C 312.456 2.96723 0.996209 0
M  V30 3294 C 312.931 4.41173 1.23007 0
M  V30 3295 N 314.422 4.44657 1.29749 0
M  V30 3296 C 315.157 5.53547 1.49577 0
M  V30 3297 N 314.653 6.72461 1.66639 0
M  V30 3298 N 316.446 5.41145 1.52048 0
M  V30 3299 H 308.597 2.07415 -0.457481 0
M  V30 3300 H 310.86 0.9372 -0.142687 0
M  V30 3301 H 310.566 3.51644 0.0629938 0
M  V30 3302 H 310.44 3.31401 1.80148 0
M  V30 3303 H 312.827 2.32235 1.82074 0
M  V30 3304 H 312.908 2.55707 0.0688331 0
M  V30 3305 H 312.552 5.06238 0.410505 0
M  V30 3306 H 312.482 4.79772 2.17086 0
M  V30 3307 H 314.973 3.58963 1.18126 0
M  V30 3308 H 315.286 7.51214 1.81378 0
M  V30 3309 H 313.631 6.75423 1.63794 0
M  V30 3310 H 316.822 4.47205 1.38294 0
M  V30 3311 H 316.995 6.26068 1.67159 0
M  V30 3312 N 310.401 -0.613514 1.45168 0
M  V30 3313 C 311.333 -1.73825 1.4939 0
M  V30 3314 C 312.346 -1.58175 0.385304 0
M  V30 3315 O 313.535 -1.66165 0.652036 0
M  V30 3316 C 310.635 -3.11758 1.32891 0
M  V30 3317 C 309.808 -3.53704 2.57317 0
M  V30 3318 C 308.867 -4.70579 2.35462 0
M  V30 3319 O 307.893 -4.77996 3.09044 0
M  V30 3320 N 309.095 -5.63454 1.39644 0
M  V30 3321 H 311.86 -1.70669 2.46358 0
M  V30 3322 H 309.421 -0.79862 1.40832 0
M  V30 3323 H 311.413 -3.87692 1.1609 0
M  V30 3324 H 309.983 -3.09456 0.442218 0
M  V30 3325 H 309.203 -2.67794 2.89275 0
M  V30 3326 H 310.491 -3.78486 3.40038 0
M  V30 3327 H 309.889 -5.6017 0.789062 0
M  V30 3328 H 308.446 -6.38944 1.28816 0
M  V30 3329 N 311.879 -1.3236 -0.855495 0
M  V30 3330 C 312.812 -1.15559 -1.96777 0
M  V30 3331 C 313.79 -0.0552681 -1.62506 0
M  V30 3332 O 314.974 -0.214419 -1.87277 0
M  V30 3333 C 312.101 -0.768851 -3.29858 0
M  V30 3334 C 311.147 -1.87429 -3.83109 0
M  V30 3335 S 311.98 -3.48243 -4.06801 0
M  V30 3336 C 313.136 -3.11539 -5.42858 0
M  V30 3337 H 313.369 -2.09717 -2.10727 0
M  V30 3338 H 310.902 -1.17011 -1.00737 0
M  V30 3339 H 312.86 -0.55248 -4.06765 0
M  V30 3340 H 311.521 0.153857 -3.13723 0
M  V30 3341 H 310.714 -1.55667 -4.79358 0
M  V30 3342 H 310.316 -2.04647 -3.13042 0
M  V30 3343 H 312.608 -2.61331 -6.2507 0
M  V30 3344 H 313.551 -4.06806 -5.79582 0
M  V30 3345 H 313.959 -2.48582 -5.06821 0
M  V30 3346 O 313.396 0.992737 -1.27385 0
M  V30 3347 H 314.087 1.61512 -1.06928 0
M  V30 END ATOM
M  V30 BEGIN BOND
M  V30 END BOND
M  V30 END CTAB
M  END
$$$$
