644019
  -OEChem-10051722013D

 53 54  0     1  0  0  0  0  0999 V2000
   -0.8107   -1.0808   -1.7544 O   0  0  0  0  0  0  0  0  0  0  0  0
   -0.3557    1.3439    2.3576 O   0  0  0  0  0  0  0  0  0  0  0  0
   -3.0020    0.5280   -0.4606 C   0  0  1  0  0  0  0  0  0  0  0  0
   -2.0824   -0.1171    0.6145 C   0  0  1  0  0  0  0  0  0  0  0  0
   -4.4373    0.0054   -0.3240 C   0  0  0  0  0  0  0  0  0  0  0  0
   -4.4902   -1.5161   -0.4777 C   0  0  0  0  0  0  0  0  0  0  0  0
   -2.3625   -1.5914    0.8210 C   0  0  0  0  0  0  0  0  0  0  0  0
   -0.6089    0.1266    0.3074 C   0  0  0  0  0  0  0  0  0  0  0  0
   -3.4298   -2.2333    0.3151 C   0  0  0  0  0  0  0  0  0  0  0  0
   -2.9995    2.0271   -0.3713 C   0  0  0  0  0  0  0  0  0  0  0  0
   -0.0554   -0.3732   -0.8679 C   0  0  0  0  0  0  0  0  0  0  0  0
    0.1741    0.8482    1.2040 C   0  0  0  0  0  0  0  0  0  0  0  0
   -3.6353   -3.7063    0.5123 C   0  0  0  0  0  0  0  0  0  0  0  0
   -2.5231    2.7614   -1.5893 C   0  0  0  0  0  0  0  0  0  0  0  0
    2.0809    0.5735   -0.2539 C   0  0  0  0  0  0  0  0  0  0  0  0
    1.2923   -0.1494   -1.1491 C   0  0  0  0  0  0  0  0  0  0  0  0
    1.5217    1.0721    0.9227 C   0  0  0  0  0  0  0  0  0  0  0  0
    3.5218    0.8127   -0.5548 C   0  0  0  0  0  0  0  0  0  0  0  0
   -3.4008    2.6721    0.7340 C   0  0  0  0  0  0  0  0  0  0  0  0
    4.4723   -0.2741   -0.0196 C   0  0  0  0  0  0  0  0  0  0  0  0
    5.9468    0.0405   -0.2905 C   0  0  0  0  0  0  0  0  0  0  0  0
    6.8583   -1.0477    0.2780 C   0  0  0  0  0  0  0  0  0  0  0  0
    8.3253   -0.7223    0.0465 C   0  0  0  0  0  0  0  0  0  0  0  0
   -2.6877    0.2601   -1.4745 H   0  0  0  0  0  0  0  0  0  0  0  0
   -2.3483    0.3242    1.5800 H   0  0  0  0  0  0  0  0  0  0  0  0
   -5.0909    0.4637   -1.0773 H   0  0  0  0  0  0  0  0  0  0  0  0
   -4.8581    0.2687    0.6557 H   0  0  0  0  0  0  0  0  0  0  0  0
   -4.3751   -1.7824   -1.5356 H   0  0  0  0  0  0  0  0  0  0  0  0
   -5.4843   -1.8587   -0.1660 H   0  0  0  0  0  0  0  0  0  0  0  0
   -1.6424   -2.1494    1.4164 H   0  0  0  0  0  0  0  0  0  0  0  0
   -4.5669   -3.8908    1.0569 H   0  0  0  0  0  0  0  0  0  0  0  0
   -2.8198   -4.1653    1.0810 H   0  0  0  0  0  0  0  0  0  0  0  0
   -3.6919   -4.2131   -0.4564 H   0  0  0  0  0  0  0  0  0  0  0  0
   -1.4905    2.4840   -1.8245 H   0  0  0  0  0  0  0  0  0  0  0  0
   -3.1544    2.5195   -2.4506 H   0  0  0  0  0  0  0  0  0  0  0  0
   -2.5511    3.8476   -1.4520 H   0  0  0  0  0  0  0  0  0  0  0  0
    1.7230   -0.5423   -2.0669 H   0  0  0  0  0  0  0  0  0  0  0  0
    2.1318    1.6346    1.6254 H   0  0  0  0  0  0  0  0  0  0  0  0
    3.6576    0.9079   -1.6404 H   0  0  0  0  0  0  0  0  0  0  0  0
    3.8190    1.7867   -0.1437 H   0  0  0  0  0  0  0  0  0  0  0  0
   -3.3918    3.7564    0.7818 H   0  0  0  0  0  0  0  0  0  0  0  0
   -3.7503    2.1498    1.6175 H   0  0  0  0  0  0  0  0  0  0  0  0
    4.2138   -1.2389   -0.4743 H   0  0  0  0  0  0  0  0  0  0  0  0
    4.3193   -0.3875    1.0614 H   0  0  0  0  0  0  0  0  0  0  0  0
    6.1099    0.1335   -1.3708 H   0  0  0  0  0  0  0  0  0  0  0  0
    6.2020    1.0072    0.1602 H   0  0  0  0  0  0  0  0  0  0  0  0
   -1.5503   -1.5291   -1.3261 H   0  0  0  0  0  0  0  0  0  0  0  0
   -0.8852    0.6474    2.7802 H   0  0  0  0  0  0  0  0  0  0  0  0
    6.6238   -2.0112   -0.1893 H   0  0  0  0  0  0  0  0  0  0  0  0
    6.6817   -1.1574    1.3544 H   0  0  0  0  0  0  0  0  0  0  0  0
    8.5995    0.2200    0.5314 H   0  0  0  0  0  0  0  0  0  0  0  0
    8.9589   -1.5136    0.4592 H   0  0  0  0  0  0  0  0  0  0  0  0
    8.5436   -0.6350   -1.0226 H   0  0  0  0  0  0  0  0  0  0  0  0
  1 11  1  0  0  0  0
  1 47  1  0  0  0  0
  2 12  1  0  0  0  0
  2 48  1  0  0  0  0
  3  4  1  0  0  0  0
  3  5  1  0  0  0  0
  3 10  1  0  0  0  0
  3 24  1  0  0  0  0
  4  7  1  0  0  0  0
  4  8  1  0  0  0  0
  4 25  1  0  0  0  0
  5  6  1  0  0  0  0
  5 26  1  0  0  0  0
  5 27  1  0  0  0  0
  6  9  1  0  0  0  0
  6 28  1  0  0  0  0
  6 29  1  0  0  0  0
  7  9  2  0  0  0  0
  7 30  1  0  0  0  0
  8 11  2  0  0  0  0
  8 12  1  0  0  0  0
  9 13  1  0  0  0  0
 10 14  1  0  0  0  0
 10 19  2  0  0  0  0
 11 16  1  0  0  0  0
 12 17  2  0  0  0  0
 13 31  1  0  0  0  0
 13 32  1  0  0  0  0
 13 33  1  0  0  0  0
 14 34  1  0  0  0  0
 14 35  1  0  0  0  0
 14 36  1  0  0  0  0
 15 16  2  0  0  0  0
 15 17  1  0  0  0  0
 15 18  1  0  0  0  0
 16 37  1  0  0  0  0
 17 38  1  0  0  0  0
 18 20  1  0  0  0  0
 18 39  1  0  0  0  0
 18 40  1  0  0  0  0
 19 41  1  0  0  0  0
 19 42  1  0  0  0  0
 20 21  1  0  0  0  0
 20 43  1  0  0  0  0
 20 44  1  0  0  0  0
 21 22  1  0  0  0  0
 21 45  1  0  0  0  0
 21 46  1  0  0  0  0
 22 23  1  0  0  0  0
 22 49  1  0  0  0  0
 22 50  1  0  0  0  0
 23 51  1  0  0  0  0
 23 52  1  0  0  0  0
 23 53  1  0  0  0  0
M  END
> <DATABASE_ID>
DB09061

> <DATABASE_NAME>
drugbank

> <ORIGINAL_SOURCE>
PUBCHEM

> <ORIGINAL_SOURCE_URL>
https://pubchem.ncbi.nlm.nih.gov/rest/pug/compound/inchikey/QHMBSVQNZZTUGM-ZWKOTPCHSA-N/SDF?record_type=3d

> <SMILES>
CCCCCC1=CC(O)=C([C@@H]2C=C(C)CC[C@H]2C(C)=C)C(O)=C1

> <INCHI_IDENTIFIER>
InChI=1S/C21H30O2/c1-5-6-7-8-16-12-19(22)21(20(23)13-16)18-11-15(4)9-10-17(18)14(2)3/h11-13,17-18,22-23H,2,5-10H2,1,3-4H3/t17-,18+/m0/s1

> <INCHI_KEY>
QHMBSVQNZZTUGM-ZWKOTPCHSA-N

> <FORMULA>
C21H30O2

> <MOLECULAR_WEIGHT>
314.469

> <EXACT_MASS>
314.224580206

> <JCHEM_ACCEPTOR_COUNT>
2

> <JCHEM_ATOM_COUNT>
53

> <JCHEM_AVERAGE_POLARIZABILITY>
38.34811041303557

> <JCHEM_BIOAVAILABILITY>
1

> <JCHEM_DONOR_COUNT>
2

> <JCHEM_FORMAL_CHARGE>
0

> <JCHEM_GHOSE_FILTER>
0

> <JCHEM_IUPAC>
2-[(1R,6R)-3-methyl-6-(prop-1-en-2-yl)cyclohex-2-en-1-yl]-5-pentylbenzene-1,3-diol

> <ALOGPS_LOGP>
6.10

> <JCHEM_LOGP>
6.325201126666667

> <ALOGPS_LOGS>
-4.40

> <JCHEM_MDDR_LIKE_RULE>
0

> <JCHEM_NUMBER_OF_RINGS>
2

> <JCHEM_PHYSIOLOGICAL_CHARGE>
0

> <JCHEM_PKA>
10.58381154908063

> <JCHEM_PKA_STRONGEST_ACIDIC>
9.12873016538115

> <JCHEM_PKA_STRONGEST_BASIC>
-5.723975042887205

> <JCHEM_POLAR_SURFACE_AREA>
40.46

> <JCHEM_REFRACTIVITY>
98.53089999999999

> <JCHEM_ROTATABLE_BOND_COUNT>
6

> <JCHEM_RULE_OF_FIVE>
0

> <ALOGPS_SOLUBILITY>
1.26e-02 g/l

> <JCHEM_TRADITIONAL_IUPAC>
cannabidiol

> <JCHEM_VEBER_RULE>
0

> <DRUGBANK_ID>
DB09061

> <DRUG_GROUPS>
approved; investigational

> <GENERIC_NAME>
Cannabidiol

> <SYNONYMS>
(−)-trans-2-p-mentha-1,8-dien-3-yl-5-pentylresorcinol; (−)-trans-cannabidiol; (1'R,2'R)-5'-methyl-4-pentyl-2'-(prop-1-en-2-yl)-1',2',3',4'-tetrahydrobiphenyl-2,6-diol; Cannabidiol; CBD; Δ1(2)-trans-cannabidiol

> <PRODUCTS>
Cybid 10; Cybid 15; Cybid 2.5; Cybid 5.0; Cybid 7.5; Dynabac 5.0; Epidiolex; Epidyolex; Kaydia Patch; NanoCDB; Sativex; leafPro CBDmed Oil FS QP 20%; leafPro CBDmed Oil FS QP 3%; leafPro CBDmed Oil FS QP 5%; leafPro CBDmed Oil T-FS QD 20%; leafPro CBDmed Oil T-FS QD 3%; leafPro CBDmed Oil T-FS QD 5%; leafPro CBDmed Softgels FS QP 20; leafPro CBDmed Softgels T-FS QD 20

$$$$