drugbank_target|Q45135 Homoprotocatechuate 2,3-dioxygenase (DB01702)
 OpenBabel12092120223D

  0  0  0     0  0            999 V3000
M  V30 BEGIN CTAB
M  V30 COUNTS 5747 5823 0 0 0
M  V30 BEGIN ATOM
M  V30 1 H -0.908 1.98254 -0.117106 0
M  V30 2 N 0 1.576 0 0
M  V30 3 C 0.933 2.03868 1.02534 0
M  V30 4 C 1.911 0.928543 1.3348 0
M  V30 5 O 3.095 1.19667 1.45644 0
M  V30 6 C 0.222 2.43627 2.35294 0
M  V30 7 C -0.732 3.65373 2.2001 0
M  V30 8 S 0.101 5.13292 1.52614 0
M  V30 9 C 1.257 5.56322 2.86805 0
M  V30 10 H 1.49 2.90518 0.631377 0
M  V30 11 H -0.977 1.52953 0.210867 0
M  V30 12 H 0.981 2.67203 3.11629 0
M  V30 13 H -0.358 1.57376 2.7183 0
M  V30 14 H -1.165 3.90944 3.18086 0
M  V30 15 H -1.563 3.418 1.51819 0
M  V30 16 H 0.729 5.58782 3.83104 0
M  V30 17 H 1.672 6.56266 2.65933 0
M  V30 18 H 2.08 4.83886 2.90714 0
M  V30 19 N 1.4781 -0.272755 1.55222 0
M  V30 20 C 2.7031 -1.02683 1.80197 0
M  V30 21 C 3.1281 -1.79142 0.573551 0
M  V30 22 O 2.4861 -1.74917 -0.476849 0
M  V30 23 C 2.5341 -1.9609 3.02624 0
M  V30 24 O 1.6381 -3.04863 2.77727 0
M  V30 25 H 0.9791 -0.293557 0.595584 0
M  V30 26 H 3.5091 -0.30159 2.02365 0
M  V30 27 H 3.5191 -2.38039 3.31363 0
M  V30 28 H 2.1941 -1.39851 3.91682 0
M  V30 29 H 0.7711 -2.67228 2.60084 0
M  V30 30 N 2.9562 -1.48159 -0.537278 0
M  V30 31 C 3.9042 -1.62573 -1.66352 0
M  V30 32 C 4.8982 -0.492366 -1.62087 0
M  V30 33 O 6.1042 -0.670847 -1.67032 0
M  V30 34 H 2.4792 -0.511992 -0.550789 0
M  V30 35 H 4.4502 -2.57176 -1.51337 0
M  V30 36 C 3.1992 -1.67583 -3.04649 0
M  V30 37 H 2.5222 -2.54151 -3.08622 0
M  V30 38 H 3.9622 -1.81713 -3.83088 0
M  V30 39 C 2.4212 -0.413039 -3.34358 0
M  V30 40 O 2.9512 0.477259 -3.98855 0
M  V30 41 N 1.1572 -0.286961 -2.8918 0
M  V30 42 H 0.7042 -1.01241 -2.36871 0
M  V30 43 H 0.6622 0.556963 -3.09427 0
M  V30 44 N 4.4343 0.785586 -1.36625 0
M  V30 45 C 5.3443 1.92964 -1.33425 0
M  V30 46 C 6.3603 1.72394 -0.235851 0
M  V30 47 O 7.5363 1.95866 -0.468878 0
M  V30 48 C 4.6013 3.27884 -1.12662 0
M  V30 49 C 3.6623 3.61204 -2.32013 0
M  V30 50 C 2.8953 4.89687 -2.12231 0
M  V30 51 O 3.1183 5.59704 -1.09945 0
M  V30 52 O 2.0523 5.21752 -3.00098 0
M  V30 53 H 5.8783 1.98613 -2.29753 0
M  V30 54 H 3.4633 0.926384 -1.17211 0
M  V30 55 H 5.3453 4.08614 -1.03016 0
M  V30 56 H 4.0203 3.23118 -0.193991 0
M  V30 57 H 2.9273 2.80765 -2.47228 0
M  V30 58 H 4.2603 3.70698 -3.23796 0
M  V30 59 N 5.9124 1.20967 1.01018 0
M  V30 60 C 7.1614 1.01796 1.74128 0
M  V30 61 C 7.4744 -0.449691 1.90361 0
M  V30 62 O 8.6804 -0.76068 2.60626 0
M  V30 63 C 7.1364 1.7727 3.13215 0
M  V30 64 C 6.7444 3.28171 3.04972 0
M  V30 65 C 8.4884 1.66489 3.90489 0
M  V30 66 C 6.3954 3.96156 4.39107 0
M  V30 67 H 5.3254 0.377276 0.652824 0
M  V30 68 H 7.9764 1.44651 1.12909 0
M  V30 69 H 6.3584 1.27205 3.75013 0
M  V30 70 H 7.5324 3.85499 2.52443 0
M  V30 71 H 5.8474 3.39437 2.41188 0
M  V30 72 H 8.4444 2.14617 4.89738 0
M  V30 73 H 8.7874 0.6222 4.11624 0
M  V30 74 H 9.3204 2.14003 3.35332 0
M  V30 75 H 6.0594 5.00604 4.23174 0
M  V30 76 H 5.5794 3.43617 4.91617 0
M  V30 77 H 7.2584 4.00774 5.07926 0
M  V30 78 N 7.3905 -1.2043 1.01659 0
M  V30 79 C 8.8015 -1.71517 0.737482 0
M  V30 80 C 9.1525 -1.81547 -0.743973 0
M  V30 81 O 8.2775 -1.47803 -1.58061 0
M  V30 82 C 8.8725 -3.11515 1.33206 0
M  V30 83 C 7.4315 -3.59912 1.10183 0
M  V30 84 C 6.5785 -2.37116 1.43776 0
M  V30 85 H 9.5295 -1.05444 1.18606 0
M  V30 86 H 9.5505 -3.73575 0.722636 0
M  V30 87 H 9.0625 -3.04182 2.41028 0
M  V30 88 H 7.1635 -3.72577 0.0412756 0
M  V30 89 H 7.2765 -4.44731 1.78188 0
M  V30 90 H 5.6405 -2.39857 0.856778 0
M  V30 91 H 6.4235 -2.32424 2.52654 0
M  V30 92 N 8.8686 -0.792821 -1.36206 0
M  V30 93 C 9.8156 -0.191653 -2.30003 0
M  V30 94 C 10.7856 0.666453 -1.52143 0
M  V30 95 O 11.9706 0.61442 -1.80636 0
M  V30 96 C 9.1106 0.664848 -3.38635 0
M  V30 97 C 8.2236 -0.212175 -4.31479 0
M  V30 98 C 7.3586 0.651022 -5.27196 0
M  V30 99 C 6.3976 -0.227247 -6.11678 0
M  V30 100 N 5.5346 0.595127 -6.99573 0
M  V30 101 H 10.3746 -0.996978 -2.80828 0
M  V30 102 H 7.9116 -0.503206 -1.38225 0
M  V30 103 H 9.8696 1.17645 -4.00269 0
M  V30 104 H 8.4996 1.43557 -2.89122 0
M  V30 105 H 7.5516 -0.841777 -3.70969 0
M  V30 106 H 8.8636 -0.888751 -4.90818 0
M  V30 107 H 8.0176 1.2283 -5.94136 0
M  V30 108 H 6.7566 1.36121 -4.68319 0
M  V30 109 H 5.7616 -0.816904 -5.43697 0
M  V30 110 H 6.9866 -0.93509 -6.72631 0
M  V30 111 H 4.9326 1.28955 -6.432 0
M  V30 112 H 4.8496 -0.0236952 -7.55996 0
M  V30 113 H 6.1176 1.15613 -7.70879 0
M  V30 114 N 10.3467 1.47872 -0.545128 0
M  V30 115 C 11.7577 1.86384 -0.108581 0
M  V30 116 C 12.1087 1.45309 1.31832 0
M  V30 117 O 11.2337 0.850641 1.9898 0
M  V30 118 C 11.8287 3.38265 -0.190274 0
M  V30 119 C 10.3877 3.75914 0.191164 0
M  V30 120 C 9.5347 2.71926 -0.543273 0
M  V30 121 H 12.4857 1.39561 -0.755537 0
M  V30 122 H 12.5067 3.75831 0.594217 0
M  V30 123 H 12.0187 3.6813 -1.2289 0
M  V30 124 H 10.1197 3.51665 1.23136 0
M  V30 125 H 10.2327 4.78836 -0.158987 0
M  V30 126 H 8.5967 2.54697 0.0122495 0
M  V30 127 H 9.3797 3.04634 -1.58282 0
M  V30 128 N 11.8248 0.280983 1.55075 0
M  V30 129 C 13.0708 -0.33461 2.00021 0
M  V30 130 C 13.4038 -1.55063 1.16915 0
M  V30 131 O 12.6788 -1.93006 0.240646 0
M  V30 132 C 12.9618 -0.711007 3.53011 0
M  V30 133 C 12.8148 0.512766 4.46868 0
M  V30 134 C 14.1338 -1.54522 4.12081 0
M  V30 135 H 11.2528 -0.120147 0.727141 0
M  V30 136 H 13.8948 0.389097 1.85973 0
M  V30 137 H 12.0448 -1.32761 3.65112 0
M  V30 138 H 13.7168 1.15131 4.46702 0
M  V30 139 H 11.9598 1.14975 4.18286 0
M  V30 140 H 12.6308 0.205556 5.51617 0
M  V30 141 H 15.1068 -1.02442 4.03293 0
M  V30 142 H 13.9828 -1.77739 5.19327 0
M  V30 143 H 14.2438 -2.52813 3.62682 0
M  V30 144 N 13.3029 -1.57598 0.00835791 0
M  V30 145 C 14.2659 -2.07884 -0.965242 0
M  V30 146 C 15.2659 -0.989825 -1.26725 0
M  V30 147 O 16.4559 -1.25218 -1.21104 0
M  V30 148 C 13.5879 -2.52731 -2.28779 0
M  V30 149 H 14.7809 -2.95178 -0.530112 0
M  V30 150 H 12.3339 -1.54458 -0.239283 0
M  V30 151 H 13.0689 -1.68705 -2.76964 0
M  V30 152 H 12.8539 -3.32272 -2.08177 0
M  V30 153 H 14.3439 -2.91933 -2.98605 0
M  V30 154 N 14.781 0.264519 -1.55364 0
M  V30 155 C 16.192 0.834936 -1.6699 0
M  V30 156 C 16.543 1.86718 -0.602552 0
M  V30 157 O 15.668 2.14899 0.254425 0
M  V30 158 C 16.263 1.5212 -3.02729 0
M  V30 159 C 14.822 2.03954 -3.16354 0
M  V30 160 C 13.969 0.884498 -2.62815 0
M  V30 161 H 16.92 0.0406869 -1.58648 0
M  V30 162 H 16.941 2.38853 -2.96191 0
M  V30 163 H 16.453 0.769668 -3.80392 0
M  V30 164 H 14.554 2.82041 -2.43482 0
M  V30 165 H 14.667 2.24902 -4.23032 0
M  V30 166 H 13.031 1.2802 -2.20188 0
M  V30 167 H 13.814 0.14634 -3.42988 0
M  V30 168 N 16.2591 1.48442 0.529413 0
M  V30 169 C 17.2221 1.62524 1.61612 0
M  V30 170 C 18.2221 0.498509 1.52877 0
M  V30 171 O 19.4121 0.76431 1.56537 0
M  V30 172 C 16.5441 1.59597 3.01233 0
M  V30 173 H 17.7371 2.59423 1.50465 0
M  V30 174 H 15.2901 1.37047 0.751514 0
M  V30 175 H 16.0251 0.641781 3.17886 0
M  V30 176 H 15.8101 2.41397 3.08982 0
M  V30 177 H 17.3001 1.72646 3.80241 0
M  V30 178 N 17.7372 -0.778329 1.37039 0
M  V30 179 C 19.1482 -1.35421 1.28523 0
M  V30 180 C 19.4992 -1.96075 -0.0700901 0
M  V30 181 O 18.6242 -1.93352 -0.971801 0
M  V30 182 C 19.2192 -2.46211 2.32735 0
M  V30 183 C 17.7782 -2.99585 2.27873 0
M  V30 184 C 16.9252 -1.72748 2.16918 0
M  V30 185 H 19.8762 -0.5791 1.47757 0
M  V30 186 H 19.8972 -3.2552 1.9702 0
M  V30 187 H 19.4092 -2.02036 3.31365 0
M  V30 188 H 17.5102 -3.48152 1.32745 0
M  V30 189 H 17.6232 -3.55646 3.21018 0
M  V30 190 H 15.9872 -1.95416 1.63354 0
M  V30 191 H 16.7702 -1.30686 3.17452 0
M  V30 192 N 19.2153 -1.21501 -1.00376 0
M  V30 193 C 20.4923 -0.941745 -1.71437 0
M  V30 194 C 20.8723 0.546114 -2.03914 0
M  V30 195 O 20.2203 1.51128 -1.71384 0
M  V30 196 C 20.4303 -1.82812 -2.97289 0
M  V30 197 C 21.7783 -2.07771 -3.70292 0
M  V30 198 O 22.8023 -1.80171 -3.07273 0
M  V30 199 O 21.6613 -2.54456 -4.83647 0
M  V30 200 H 18.7553 -0.353243 -0.747762 0
M  V30 201 H 21.3013 -1.32436 -1.06108 0
M  V30 202 H 20.0733 -2.83501 -2.69709 0
M  V30 203 H 19.6963 -1.4464 -3.70358 0
M  V30 204 N 20.6934 1.19889 -1.02296 0
M  V30 205 C 21.9424 1.88743 -0.711257 0
M  V30 206 C 22.2554 1.80112 0.762817 0
M  V30 207 O 23.4614 2.44161 1.18733 0
M  V30 208 C 21.9174 3.38525 -1.22185 0
M  V30 209 C 21.5254 3.55727 -2.72328 0
M  V30 210 C 23.2694 4.12893 -0.985864 0
M  V30 211 C 21.1764 4.99369 -3.16835 0
M  V30 212 H 20.1064 0.706885 -0.262353 0
M  V30 213 H 22.7574 1.35586 -1.23648 0
M  V30 214 H 21.1394 3.91044 -0.624571 0
M  V30 215 H 22.3134 3.13564 -3.3766 0
M  V30 216 H 20.6284 2.94739 -2.9414 0
M  V30 217 H 23.2254 5.18813 -1.29374 0
M  V30 218 H 23.5684 4.16228 0.0775055 0
M  V30 219 H 24.1014 3.66494 -1.54684 0
M  V30 220 H 20.8404 5.01193 -4.22476 0
M  V30 221 H 20.3604 5.42317 -2.56228 0
M  V30 222 H 22.0394 5.67988 -3.09837 0
M  V30 223 N 22.1715 0.800033 1.35784 0
M  V30 224 C 23.1015 0.220184 2.3246 0
M  V30 225 C 24.0825 -0.65073 1.57161 0
M  V30 226 O 25.2675 -0.582359 1.85263 0
M  V30 227 C 22.3975 -0.637353 3.41402 0
M  V30 228 C 21.3515 0.134531 4.27789 0
M  V30 229 C 20.6775 -0.844285 5.27992 0
M  V30 230 C 21.9775 1.32979 5.05088 0
M  V30 231 H 23.6715 1.02787 2.81203 0
M  V30 232 H 21.2175 0.495717 1.35199 0
M  V30 233 H 23.1705 -1.05302 4.08031 0
M  V30 234 H 21.8945 -1.47785 2.91251 0
M  V30 235 H 20.5535 0.531296 3.6273 0
M  V30 236 H 20.2015 -1.68011 4.74111 0
M  V30 237 H 19.9015 -0.332184 5.8666 0
M  V30 238 H 21.4255 -1.2583 5.97494 0
M  V30 239 H 22.8395 0.98934 5.64699 0
M  V30 240 H 21.2365 1.77593 5.7322 0
M  V30 241 H 22.3065 2.11978 4.36111 0
M  V30 242 N 23.6496 -1.47581 0.552962 0
M  V30 243 C 25.0656 -1.5818 0.212424 0
M  V30 244 C 25.2656 -1.55213 -1.28496 0
M  V30 245 O 24.3216 -1.45329 -2.06484 0
M  V30 246 C 25.6346 -2.88865 0.835318 0
M  V30 247 C 27.1826 -3.0244 0.806156 0
M  V30 248 C 27.6576 -4.35819 1.40804 0
M  V30 249 N 29.1486 -4.42444 1.37103 0
M  V30 250 C 29.8836 -5.44202 1.80641 0
M  V30 251 N 29.3796 -6.52795 2.32015 0
M  V30 252 N 31.1726 -5.35222 1.71738 0
M  V30 253 H 23.3236 -1.47753 1.52587 0
M  V30 254 H 25.5866 -0.702941 0.636064 0
M  V30 255 H 25.2926 -2.9676 1.88749 0
M  V30 256 H 25.1666 -3.7579 0.325848 0
M  V30 257 H 27.5536 -2.94144 -0.237317 0
M  V30 258 H 27.6346 -2.17068 1.35334 0
M  V30 259 H 27.2786 -4.44871 2.45056 0
M  V30 260 H 27.2086 -5.19916 0.836338 0
M  V30 261 H 29.6996 -3.6456 0.995202 0
M  V30 262 H 30.0126 -7.26609 2.63171 0
M  V30 263 H 28.3576 -6.53696 2.36023 0
M  V30 264 H 31.5486 -4.49284 1.31382 0
M  V30 265 H 31.7216 -6.14389 2.05987 0
M  V30 266 N 25.1277 -0.289203 -1.54924 0
M  V30 267 C 26.3677 0.324536 -2.01807 0
M  V30 268 C 26.7317 1.5199 -1.17316 0
M  V30 269 O 27.9327 2.20422 -1.53843 0
M  V30 270 C 26.2037 0.683578 -3.50802 0
M  V30 271 S 27.7627 1.28185 -4.19659 0
M  V30 272 H 24.5807 0.100236 -0.703899 0
M  V30 273 H 27.1827 -0.414325 -1.91059 0
M  V30 274 H 25.8867 -0.195073 -4.09936 0
M  V30 275 H 25.4177 1.45354 -3.65562 0
M  V30 276 H 27.4327 2.57006 -4.24456 0
M  V30 277 N 26.6058 1.57591 -0.0167156 0
M  V30 278 C 27.5688 2.08393 0.954204 0
M  V30 279 C 28.5688 0.996531 1.26198 0
M  V30 280 O 29.7588 1.25858 1.20438 0
M  V30 281 C 26.8908 2.5394 2.27436 0
M  V30 282 H 28.0838 2.95455 0.514451 0
M  V30 283 H 25.6368 1.54582 0.231089 0
M  V30 284 H 26.3718 1.70171 2.76066 0
M  V30 285 H 26.1568 3.33371 2.06412 0
M  V30 286 H 27.6468 2.93512 2.97053 0
M  V30 287 N 28.0839 -0.256276 1.55502 0
M  V30 288 C 29.3139 -1.00196 1.80677 0
M  V30 289 C 29.7219 -1.79805 0.588797 0
M  V30 290 O 29.0649 -1.78055 -0.451883 0
M  V30 291 C 29.1269 -1.99515 2.99055 0
M  V30 292 C 28.7909 -1.38688 4.35448 0
M  V30 293 C 29.7879 -0.794079 5.138 0
M  V30 294 C 27.4729 -1.40906 4.82132 0
M  V30 295 C 29.4669 -0.231562 6.36979 0
M  V30 296 C 27.1539 -0.842684 6.05262 0
M  V30 297 C 28.1519 -0.254953 6.82524 0
M  V30 298 O 27.8399 0.3027 8.0333 0
M  V30 299 H 27.5719 -0.300919 0.60533 0
M  V30 300 H 30.1259 -0.287307 2.03381 0
M  V30 301 H 28.3559 -2.74785 2.72084 0
M  V30 302 H 30.0449 -2.60349 3.11405 0
M  V30 303 H 30.8109 -0.769519 4.78856 0
M  V30 304 H 26.6899 -1.85591 4.21992 0
M  V30 305 H 30.2339 0.227816 6.97228 0
M  V30 306 H 26.1309 -0.86454 6.39684 0
M  V30 307 H 26.8989 0.193662 8.18271 0
M  V30 308 N 29.562 -1.4872 -0.521534 0
M  V30 309 C 30.525 -1.63379 -1.60748 0
M  V30 310 C 31.525 -0.50661 -1.52611 0
M  V30 311 O 32.715 -0.772601 -1.5613 0
M  V30 312 C 29.847 -1.61192 -3.00383 0
M  V30 313 H 31.04 -2.60217 -1.49087 0
M  V30 314 H 28.593 -1.37444 -0.744235 0
M  V30 315 H 29.328 -0.65863 -3.17541 0
M  V30 316 H 29.113 -2.43032 -3.07698 0
M  V30 317 H 30.603 -1.7466 -3.7932 0
M  V30 318 N 31.0401 0.771051 -1.3745 0
M  V30 319 C 31.9501 1.91538 -1.35464 0
M  V30 320 C 32.9661 1.72134 -0.254123 0
M  V30 321 O 34.1421 1.95358 -0.489626 0
M  V30 322 C 31.2071 3.26671 -1.16134 0
M  V30 323 C 30.2681 3.58723 -2.35831 0
M  V30 324 C 29.5011 4.87409 -2.17413 0
M  V30 325 O 29.7241 5.58506 -1.15876 0
M  V30 326 O 28.6581 5.18539 -3.05615 0
M  V30 327 H 32.4841 1.96165 -2.31847 0
M  V30 328 H 30.0691 0.9139 -1.18187 0
M  V30 329 H 31.9511 4.07499 -1.07345 0
M  V30 330 H 30.6261 3.22894 -0.228251 0
M  V30 331 H 29.5331 2.78127 -2.50192 0
M  V30 332 H 30.8661 3.67243 -3.27709 0
M  V30 333 N 32.5182 1.22032 0.997298 0
M  V30 334 C 33.4482 1.01065 2.10495 0
M  V30 335 C 34.4292 -0.0669542 1.69968 0
M  V30 336 O 35.6142 0.0943987 1.9397 0
M  V30 337 C 32.7442 0.582874 3.42374 0
M  V30 338 C 31.6982 1.60592 3.96729 0
M  V30 339 C 31.0242 1.03412 5.24605 0
M  V30 340 C 32.3242 2.99478 4.27914 0
M  V30 341 H 34.0182 1.93708 2.28292 0
M  V30 342 H 31.5642 0.932761 1.09707 0
M  V30 343 H 33.5172 0.423332 4.19268 0
M  V30 344 H 32.2412 -0.379213 3.24391 0
M  V30 345 H 30.9002 1.75316 3.21963 0
M  V30 346 H 30.5482 0.063518 5.0296 0
M  V30 347 H 30.2482 1.71754 5.61938 0
M  V30 348 H 31.7722 0.886066 6.04137 0
M  V30 349 H 33.1862 2.88153 4.95622 0
M  V30 350 H 31.5832 3.64903 4.76409 0
M  V30 351 H 32.6532 3.49742 3.3587 0
M  V30 352 N 33.9963 -1.19345 1.0293 0
M  V30 353 C 35.2423 -1.89318 0.727083 0
M  V30 354 C 35.5753 -1.79446 -0.742483 0
M  V30 355 O 34.8503 -1.1871 -1.54072 0
M  V30 356 C 35.1333 -3.40238 1.17942 0
M  V30 357 C 34.9863 -3.58979 2.71024 0
M  V30 358 C 36.3053 -4.33479 0.760548 0
M  V30 359 H 33.4243 -0.687475 0.265606 0
M  V30 360 H 36.0663 -1.40477 1.2793 0
M  V30 361 H 34.2163 -3.81964 0.709608 0
M  V30 362 H 35.8883 -3.26421 3.25955 0
M  V30 363 H 34.1313 -3.02018 3.11396 0
M  V30 364 H 34.8023 -4.64823 2.9773 0
M  V30 365 H 37.2783 -3.99469 1.16464 0
M  V30 366 H 36.1543 -5.37664 1.10493 0
M  V30 367 H 36.4153 -4.40813 -0.337063 0
M  V30 368 N 35.4744 -0.807222 -1.35358 0
M  V30 369 C 36.7204 -0.388463 -1.99045 0
M  V30 370 C 37.0534 1.04184 -1.63888 0
M  V30 371 O 36.3284 1.72292 -0.902535 0
M  V30 372 C 36.6114 -0.572783 -3.55515 0
M  V30 373 C 36.4644 -2.04807 -4.00468 0
M  V30 374 C 37.7834 0.00114064 -4.401 0
M  V30 375 H 34.9024 -0.142619 -0.723069 0
M  V30 376 H 37.5444 -1.01687 -1.60498 0
M  V30 377 H 35.6944 -0.0378425 -3.88482 0
M  V30 378 H 37.3664 -2.64544 -3.77908 0
M  V30 379 H 35.6094 -2.54427 -3.51353 0
M  V30 380 H 36.2804 -2.12792 -5.09337 0
M  V30 381 H 38.7564 -0.455716 -4.13597 0
M  V30 382 H 37.6324 -0.157737 -5.48673 0
M  V30 383 H 37.8934 1.09488 -4.28328 0
M  V30 384 N 36.9525 1.47285 -0.560781 0
M  V30 385 C 38.1805 2.06855 -0.0430262 0
M  V30 386 C 38.5955 1.41291 1.25229 0
M  V30 387 O 37.9525 0.510648 1.7521 0
M  V30 388 C 38.0035 3.61178 0.152518 0
M  V30 389 O 37.7245 4.24285 -1.0915 0
M  V30 390 C 39.2255 4.37624 0.707145 0
M  V30 391 H 36.4455 0.669319 -0.0474652 0
M  V30 392 H 38.9895 1.89237 -0.77521 0
M  V30 393 H 37.1445 3.78298 0.834843 0
M  V30 394 H 37.5585 5.16868 -0.891482 0
M  V30 395 H 39.0325 5.46271 0.793244 0
M  V30 396 H 39.5095 4.04152 1.71923 0
M  V30 397 H 40.1155 4.25257 0.0604027 0
M  V30 398 N 38.4306 0.297415 1.54768 0
M  V30 399 C 39.7076 -0.365847 1.92148 0
M  V30 400 C 40.0876 -1.71975 1.22424 0
M  V30 401 O 39.4356 -2.25666 0.358739 0
M  V30 402 C 39.6456 -0.484056 3.45627 0
M  V30 403 C 40.9936 -0.756594 4.17805 0
M  V30 404 O 42.0176 -0.568007 3.51642 0
M  V30 405 O 40.8766 -1.11863 5.34929 0
M  V30 406 H 37.9706 -0.203919 0.801465 0
M  V30 407 H 40.5166 0.34521 1.66152 0
M  V30 408 H 39.2886 0.467865 3.88493 0
M  V30 409 H 38.9116 -1.24372 3.77647 0
M  V30 410 N 39.9087 -1.5758 0.0250728 0
M  V30 411 C 40.8387 -2.13007 -0.956575 0
M  V30 412 C 41.8197 -1.0452 -1.342 0
M  V30 413 O 43.0047 -1.32332 -1.42133 0
M  V30 414 C 40.1347 -2.65386 -2.24026 0
M  V30 415 C 39.0887 -3.78623 -1.99571 0
M  V30 416 C 38.4147 -4.17414 -3.3417 0
M  V30 417 C 39.7147 -5.04867 -1.33814 0
M  V30 418 H 41.4087 -2.9528 -0.494991 0
M  V30 419 H 38.9547 -1.42042 -0.236651 0
M  V30 420 H 40.9077 -3.02794 -2.93076 0
M  V30 421 H 39.6317 -1.80268 -2.72343 0
M  V30 422 H 38.2907 -3.41646 -1.32941 0
M  V30 423 H 37.9387 -3.29284 -3.80238 0
M  V30 424 H 37.6387 -4.93719 -3.18615 0
M  V30 425 H 39.1627 -4.57402 -4.04495 0
M  V30 426 H 40.5767 -5.39888 -1.92857 0
M  V30 427 H 38.9737 -5.86144 -1.28669 0
M  V30 428 H 40.0437 -4.83904 -0.310561 0
M  V30 429 N 41.3868 0.248026 -1.55636 0
M  V30 430 C 42.3498 1.29044 -1.89421 0
M  V30 431 C 43.3498 1.41134 -0.770581 0
M  V30 432 O 44.5398 1.39854 -1.03858 0
M  V30 433 C 41.6718 2.66831 -2.12165 0
M  V30 434 H 42.8648 1.00305 -2.82629 0
M  V30 435 H 40.4178 0.487265 -1.48511 0
M  V30 436 H 41.1528 3.00711 -1.21422 0
M  V30 437 H 40.9378 2.59438 -2.93997 0
M  V30 438 H 42.4278 3.42103 -2.3949 0
M  V30 439 N 42.8649 1.48995 0.513639 0
M  V30 440 C 43.8119 1.6473 1.61656 0
M  V30 441 C 44.7819 0.488984 1.58739 0
M  V30 442 O 45.9669 0.714478 1.76918 0
M  V30 443 C 43.1069 1.7082 2.99858 0
M  V30 444 C 42.2199 2.9787 3.12885 0
M  V30 445 C 41.3549 2.95017 4.41744 0
M  V30 446 C 40.3939 4.16702 4.48359 0
M  V30 447 N 39.5309 4.11832 5.68629 0
M  V30 448 H 44.3709 2.58909 1.47547 0
M  V30 449 H 41.9079 1.28382 0.71808 0
M  V30 450 H 43.8659 1.72331 3.79944 0
M  V30 451 H 42.4959 0.801181 3.12699 0
M  V30 452 H 41.5479 3.06029 2.25944 0
M  V30 453 H 42.8599 3.8786 3.13633 0
M  V30 454 H 42.0139 2.95021 5.30139 0
M  V30 455 H 40.7529 2.02784 4.43542 0
M  V30 456 H 39.7579 4.16955 3.58369 0
M  V30 457 H 40.9829 5.10113 4.48287 0
M  V30 458 H 38.9289 3.22428 5.71293 0
M  V30 459 H 38.8459 4.95543 5.7094 0
M  V30 460 H 40.1139 4.1592 6.59266 0
M  V30 461 N 44.343 -0.763751 1.37857 0
M  V30 462 C 45.568 -1.55805 1.36893 0
M  V30 463 C 45.993 -1.88054 -0.0416135 0
M  V30 464 O 45.351 -1.49825 -1.02089 0
M  V30 465 C 45.399 -2.84012 2.22192 0
M  V30 466 O 44.503 -3.78732 1.63204 0
M  V30 467 H 43.844 -0.471638 0.46739 0
M  V30 468 H 46.374 -0.944657 1.81487 0
M  V30 469 H 46.384 -3.33037 2.35691 0
M  V30 470 H 45.059 -2.59869 3.24716 0
M  V30 471 H 43.636 -3.37402 1.58791 0
M  V30 472 N 45.8211 -1.22559 -0.990812 0
M  V30 473 C 47.2371 -0.985996 -1.255 0
M  V30 474 C 47.4371 0.319173 -1.98956 0
M  V30 475 O 46.4931 1.04127 -2.3003 0
M  V30 476 C 47.8061 -2.18607 -2.06474 0
M  V30 477 C 49.3541 -2.22985 -2.19651 0
M  V30 478 C 49.8291 -3.4255 -3.04012 0
M  V30 479 N 51.3201 -3.42725 -3.11599 0
M  V30 480 C 52.0551 -4.31892 -3.7717 0
M  V30 481 N 51.5511 -5.31279 -4.44651 0
M  V30 482 N 53.3441 -4.19662 -3.73952 0
M  V30 483 H 45.4951 -2.06469 -0.49841 0
M  V30 484 H 47.7581 -0.904853 -0.282747 0
M  V30 485 H 47.4641 -3.13267 -1.59865 0
M  V30 486 H 47.3381 -2.18838 -3.07229 0
M  V30 487 H 49.7251 -1.28871 -2.65474 0
M  V30 488 H 49.8061 -2.26791 -1.18319 0
M  V30 489 H 49.4501 -4.36965 -2.58889 0
M  V30 490 H 49.3801 -3.35984 -4.0549 0
M  V30 491 H 51.8711 -2.70807 -2.63575 0
M  V30 492 H 52.1841 -5.95593 -4.92431 0
M  V30 493 H 50.5291 -5.3519 -4.43392 0
M  V30 494 H 53.7201 -3.41268 -3.20396 0
M  V30 495 H 53.8931 -4.89358 -4.24774 0
M  V30 496 N 47.2992 1.18797 -1.03562 0
M  V30 497 C 48.2472 2.24297 -0.615905 0
M  V30 498 C 49.2412 1.65643 0.354808 0
M  V30 499 O 50.4472 1.78618 0.22265 0
M  V30 500 H 46.8222 0.729909 -0.180934 0
M  V30 501 H 48.7932 2.5701 -1.5162 0
M  V30 502 C 47.5422 3.47698 0.0104735 0
M  V30 503 H 46.8652 3.93125 -0.727509 0
M  V30 504 H 48.3052 4.23159 0.266995 0
M  V30 505 C 46.7642 3.12489 1.25905 0
M  V30 506 O 47.2942 3.25761 2.35038 0
M  V30 507 N 45.5002 2.6686 1.15039 0
M  V30 508 H 45.0472 2.56261 0.262328 0
M  V30 509 H 45.0052 2.43674 1.98672 0
M  V30 510 N 48.7773 0.814389 1.34928 0
M  V30 511 C 50.0243 0.398423 1.98542 0
M  V30 512 C 50.3523 -1.03638 1.64589 0
M  V30 513 O 49.6073 -1.73509 0.90516 0
M  V30 514 C 49.9063 0.537781 3.53331 0
M  V30 515 C 49.5723 1.93704 4.07172 0
M  V30 516 C 48.2343 2.31984 4.21589 0
M  V30 517 C 50.5863 2.85213 4.36237 0
M  V30 518 C 47.9143 3.61125 4.62391 0
M  V30 519 C 50.2663 4.13809 4.78482 0
M  V30 520 C 48.9303 4.52077 4.91104 0
M  V30 521 H 48.2003 0.145793 0.726516 0
M  V30 522 H 50.8473 1.03669 1.61012 0
M  V30 523 H 49.1523 -0.183906 3.91368 0
M  V30 524 H 50.8493 0.196588 4.00518 0
M  V30 525 H 47.4393 1.62966 3.96409 0
M  V30 526 H 51.6233 2.56885 4.24645 0
M  V30 527 H 46.8793 3.90612 4.70353 0
M  V30 528 H 51.0533 4.84811 4.99932 0
M  V30 529 H 48.6803 5.52196 5.22478 0
M  V30 530 N 50.2554 -1.46986 0.568584 0
M  V30 531 C 51.4854 -2.0653 0.0539173 0
M  V30 532 C 51.8934 -1.42004 -1.25026 0
M  V30 533 O 51.2364 -0.514541 -1.76347 0
M  V30 534 C 51.2984 -3.58938 -0.200854 0
M  V30 535 C 50.9624 -4.45572 1.01559 0
M  V30 536 C 51.9594 -4.82986 1.92407 0
M  V30 537 C 49.6444 -4.8692 1.23346 0
M  V30 538 C 51.6384 -5.60559 3.03402 0
M  V30 539 C 49.3254 -5.64255 2.34649 0
M  V30 540 C 50.3234 -6.00986 3.24507 0
M  V30 541 O 50.0114 -6.76761 4.33878 0
M  V30 542 H 49.7434 -0.674292 0.0480234 0
M  V30 543 H 52.2974 -1.89812 0.784896 0
M  V30 544 H 50.5274 -3.73911 -0.986279 0
M  V30 545 H 52.2164 -4.0046 -0.662294 0
M  V30 546 H 52.9824 -4.51633 1.76785 0
M  V30 547 H 48.8614 -4.57789 0.543178 0
M  V30 548 H 52.4054 -5.89147 3.73565 0
M  V30 549 H 48.3024 -5.95021 2.5024 0
M  V30 550 H 49.0704 -6.95168 4.32068 0
M  V30 551 N 51.7335 -0.305618 -1.54608 0
M  V30 552 C 52.9795 0.302746 -2.00528 0
M  V30 553 C 53.3125 1.53184 -1.19367 0
M  V30 554 O 52.5875 1.92598 -0.271321 0
M  V30 555 C 52.8705 0.654756 -3.54097 0
M  V30 556 C 52.7235 -0.583793 -4.45995 0
M  V30 557 C 54.0425 1.47947 -4.14487 0
M  V30 558 H 51.1615 0.108564 -0.72896 0
M  V30 559 H 53.8035 -0.418634 -1.85331 0
M  V30 560 H 51.9535 1.26935 -3.67178 0
M  V30 561 H 53.6255 -1.22224 -4.44814 0
M  V30 562 H 51.8685 -1.21615 -4.16404 0
M  V30 563 H 52.5395 -0.293287 -5.5122 0
M  V30 564 H 55.0155 0.96013 -4.04871 0
M  V30 565 H 53.8915 1.69454 -5.22088 0
M  V30 566 H 54.1525 2.47011 -3.66658 0
M  V30 567 N 53.2116 1.57565 -0.0334293 0
M  V30 568 C 54.4886 1.83282 0.683163 0
M  V30 569 C 54.8686 0.91823 1.90084 0
M  V30 570 O 54.2166 -0.025113 2.28486 0
M  V30 571 C 54.4266 3.32599 1.0573 0
M  V30 572 C 55.7746 3.99179 1.44711 0
M  V30 573 O 56.7986 3.3712 1.15015 0
M  V30 574 O 55.6576 5.08565 2.0006 0
M  V30 575 H 52.7516 0.755869 0.335546 0
M  V30 576 H 55.2976 1.69589 -0.0614402 0
M  V30 577 H 54.0696 3.90834 0.190828 0
M  V30 578 H 53.6926 3.51415 1.85993 0
M  V30 579 N 54.6897 -0.239769 1.55765 0
M  V30 580 C 55.9357 -0.968234 1.78194 0
M  V30 581 C 56.2687 -1.84701 0.599938 0
M  V30 582 O 55.5437 -1.9031 -0.401524 0
M  V30 583 C 55.8267 -1.8227 3.10564 0
M  V30 584 C 55.6797 -0.971633 4.3918 0
M  V30 585 C 56.9987 -2.80388 3.39221 0
M  V30 586 H 54.1177 -0.350572 0.648281 0
M  V30 587 H 56.7597 -0.238259 1.885 0
M  V30 588 H 54.9097 -2.44507 3.01908 0
M  V30 589 H 56.5817 -0.367408 4.59835 0
M  V30 590 H 54.8247 -0.276276 4.32919 0
M  V30 591 H 55.4957 -1.60346 5.28198 0
M  V30 592 H 57.9717 -2.28287 3.47885 0
M  V30 593 H 56.8477 -3.3729 4.33044 0
M  V30 594 H 57.1087 -3.57212 2.60484 0
M  V30 595 N 56.1678 -1.49265 -0.50573 0
M  V30 596 C 57.0978 -1.68495 -1.61653 0
M  V30 597 C 58.0788 -0.53366 -1.61512 0
M  V30 598 O 59.2638 -0.76897 -1.78327 0
M  V30 599 C 56.3938 -1.74709 -3.00157 0
M  V30 600 C 55.3478 -2.89581 -3.15162 0
M  V30 601 C 54.6738 -2.80903 -4.5497 0
M  V30 602 C 55.9738 -4.30578 -2.95634 0
M  V30 603 H 57.6678 -2.61493 -1.45814 0
M  V30 604 H 55.2138 -1.25838 -0.70005 0
M  V30 605 H 57.1668 -1.86748 -3.77761 0
M  V30 606 H 55.8908 -0.783067 -3.17074 0
M  V30 607 H 54.5498 -2.77136 -2.39982 0
M  V30 608 H 54.1978 -1.82419 -4.68756 0
M  V30 609 H 53.8978 -3.57999 -4.65951 0
M  V30 610 H 55.4218 -2.94944 -5.34641 0
M  V30 611 H 56.8358 -4.4373 -3.63011 0
M  V30 612 H 55.2328 -5.0886 -3.18091 0
M  V30 613 H 56.3028 -4.45352 -1.91806 0
M  V30 614 N 57.6459 0.756429 -1.3826 0
M  V30 615 C 58.8939 1.51248 -1.34047 0
M  V30 616 C 59.2149 1.94875 0.0698372 0
M  V30 617 O 58.4849 1.67436 1.01696 0
M  V30 618 H 57.0649 0.561018 -0.493222 0
M  V30 619 H 59.7269 0.899347 -1.7291 0
M  V30 620 H 58.8229 2.40472 -1.98947 0
M  V30 621 N 59.124 1.23083 0.984299 0
M  V30 622 C 60.054 1.03292 2.09411 0
M  V30 623 C 61.035 -0.048923 1.7003 0
M  V30 624 O 62.22 0.114967 1.93859 0
M  V30 625 C 59.35 0.619155 3.41736 0
M  V30 626 C 58.304 1.64791 3.95004 0
M  V30 627 C 57.63 1.0897 5.23478 0
M  V30 628 C 58.93 3.03999 4.24714 0
M  V30 629 H 60.624 1.96119 2.26225 0
M  V30 630 H 58.17 0.944344 1.08711 0
M  V30 631 H 60.123 0.467777 4.18796 0
M  V30 632 H 58.847 -0.344786 3.24775 0
M  V30 633 H 57.506 1.78721 3.20085 0
M  V30 634 H 57.154 0.11686 5.02864 0
M  V30 635 H 56.854 1.77704 5.60085 0
M  V30 636 H 58.378 0.950093 6.03163 0
M  V30 637 H 59.792 2.93393 4.92538 0
M  V30 638 H 58.189 3.69936 4.72512 0
M  V30 639 H 59.259 3.53285 3.32142 0
M  V30 640 N 60.6021 -1.18246 1.0419 0
M  V30 641 C 61.5521 -2.19843 0.604392 0
M  V30 642 C 62.5361 -1.56962 -0.353814 0
M  V30 643 O 63.7281 -1.76156 -0.17267 0
M  V30 644 C 60.8571 -3.43287 -0.0298975 0
M  V30 645 C 59.9431 -4.13288 0.951531 0
M  V30 646 N 60.3341 -4.59271 2.11906 0
M  V30 647 C 58.6321 -4.39165 0.7778 0
M  V30 648 C 59.3331 -5.13173 2.73912 0
M  V30 649 N 58.3091 -5.04763 2.01779 0
M  V30 650 H 62.1111 -2.53089 1.4941 0
M  V30 651 H 59.6251 -1.34465 0.910658 0
M  V30 652 H 61.6221 -4.15334 -0.361037 0
M  V30 653 H 60.2821 -3.11537 -0.915127 0
M  V30 654 H 61.2931 -4.5368 2.49789 0
M  V30 655 H 57.9701 -4.17461 -0.0572331 0
M  V30 656 H 59.3601 -5.58947 3.72864 0
M  V30 657 N 62.0802 -0.821533 -1.34494 0
M  V30 658 C 63.3262 -0.409552 -1.98622 0
M  V30 659 C 63.6592 1.0244 -1.64984 0
M  V30 660 O 62.9342 1.71325 -0.920758 0
M  V30 661 C 63.2172 -0.610458 -3.54888 0
M  V30 662 C 63.0702 -2.09043 -3.98273 0
M  V30 663 C 64.3892 -0.0455379 -4.40076 0
M  V30 664 H 61.5082 -0.15028 -0.721516 0
M  V30 665 H 64.1502 -1.03384 -1.59411 0
M  V30 666 H 62.3002 -0.079044 -3.8842 0
M  V30 667 H 63.9722 -2.68537 -3.75081 0
M  V30 668 H 62.2152 -2.58139 -3.48635 0
M  V30 669 H 62.8862 -2.18182 -5.07051 0
M  V30 670 H 65.3622 -0.499557 -4.1309 0
M  V30 671 H 64.2382 -0.215922 -5.48475 0
M  V30 672 H 64.4992 1.04939 -4.29465 0
M  V30 673 N 63.5583 1.46682 -0.576371 0
M  V30 674 C 64.7833 2.07304 -0.0630475 0
M  V30 675 C 65.2083 1.42329 1.2298 0
M  V30 676 O 64.5663 0.504865 1.74129 0
M  V30 677 C 64.6143 3.60472 0.095895 0
M  V30 678 O 63.7183 3.95927 1.15394 0
M  V30 679 H 63.0593 0.661288 -0.0599463 0
M  V30 680 H 65.5893 1.88417 -0.797511 0
M  V30 681 H 65.5993 4.06865 0.304071 0
M  V30 682 H 64.2743 4.07157 -0.84828 0
M  V30 683 H 62.8513 3.61252 0.924724 0
M  V30 684 N 65.0364 0.313813 1.54444 0
M  V30 685 C 66.2664 -0.293491 2.04505 0
M  V30 686 C 66.6744 -1.47086 1.19005 0
M  V30 687 O 66.0174 -1.82481 0.211257 0
M  V30 688 C 66.0794 -0.800455 3.50475 0
M  V30 689 C 65.7434 0.253322 4.56297 0
M  V30 690 C 66.7404 1.08612 5.08428 0
M  V30 691 C 64.4254 0.398708 5.00715 0
M  V30 692 C 66.4194 2.05013 6.0353 0
M  V30 693 C 64.1064 1.36614 5.95634 0
M  V30 694 C 65.1044 2.19033 6.46926 0
M  V30 695 O 64.7924 3.14134 7.39983 0
M  V30 696 H 64.5244 -0.0658325 0.672787 0
M  V30 697 H 67.0784 0.455177 2.00293 0
M  V30 698 H 65.3084 -1.59987 3.52053 0
M  V30 699 H 66.9974 -1.32504 3.83663 0
M  V30 700 H 67.7634 0.984736 4.74898 0
M  V30 701 H 63.6424 -0.23289 4.60411 0
M  V30 702 H 67.1864 2.69382 6.4349 0
M  V30 703 H 63.0834 1.4682 6.28581 0
M  V30 704 H 63.8514 3.0926 7.57826 0
M  V30 705 N 66.5145 -1.57545 0.0417849 0
M  V30 706 C 67.4245 -2.14451 -0.951213 0
M  V30 707 C 68.4405 -1.09992 -1.34825 0
M  V30 708 O 69.6165 -1.42114 -1.42708 0
M  V30 709 C 66.6815 -2.67063 -2.21084 0
M  V30 710 C 65.7425 -3.86284 -1.87304 0
M  V30 711 C 64.9755 -4.36378 -3.07261 0
M  V30 712 O 65.1985 -3.85587 -4.20332 0
M  V30 713 O 64.1325 -5.28077 -2.88822 0
M  V30 714 H 67.9585 -2.99601 -0.497287 0
M  V30 715 H 65.5435 -1.48317 -0.179567 0
M  V30 716 H 67.4255 -3.00914 -2.95006 0
M  V30 717 H 66.1005 -1.84989 -2.65633 0
M  V30 718 H 65.0075 -3.57338 -1.10727 0
M  V30 719 H 66.3405 -4.6956 -1.47562 0
M  V30 720 N 67.9926 0.231505 -1.5589 0
M  V30 721 C 69.2696 0.981096 -1.69215 0
M  V30 722 C 69.6496 2.02799 -0.586164 0
M  V30 723 O 68.9976 2.24823 0.408253 0
M  V30 724 C 69.2076 1.60054 -3.10135 0
M  V30 725 C 70.5556 2.09658 -3.69227 0
M  V30 726 O 71.5796 1.69967 -3.13033 0
M  V30 727 O 70.4386 2.8258 -4.67772 0
M  V30 728 H 67.5326 0.457653 -0.688827 0
M  V30 729 H 70.0786 0.224073 -1.68214 0
M  V30 730 H 68.8506 0.844105 -3.82087 0
M  V30 731 H 68.4736 2.42336 -3.15212 0
M  V30 732 N 69.4707 1.49531 0.497807 0
M  V30 733 C 70.3807 1.69176 1.62532 0
M  V30 734 C 71.3967 0.5744 1.64246 0
M  V30 735 O 72.5727 0.849497 1.82608 0
M  V30 736 C 69.6377 1.75695 2.98885 0
M  V30 737 C 68.6987 2.9929 3.07773 0
M  V30 738 C 67.9317 3.05488 4.37622 0
M  V30 739 O 68.1547 2.19192 5.26603 0
M  V30 740 O 67.0887 3.9798 4.51548 0
M  V30 741 H 70.9147 2.647 1.48887 0
M  V30 742 H 68.4997 1.3331 0.674441 0
M  V30 743 H 70.3817 1.82317 3.79919 0
M  V30 744 H 69.0567 0.8335 3.12785 0
M  V30 745 H 67.9637 2.98183 2.25915 0
M  V30 746 H 69.2967 3.91125 2.98801 0
M  V30 747 N 70.9488 -0.749086 1.3866 0
M  V30 748 C 71.8968 -1.88428 1.36373 0
M  V30 749 C 72.8908 -1.67561 0.248929 0
M  V30 750 O 74.0968 -1.75074 0.41821 0
M  V30 751 H 70.4718 -0.620023 0.42553 0
M  V30 752 H 72.4428 -1.87473 2.32156 0
M  V30 753 C 71.1918 -3.25961 1.21014 0
M  V30 754 H 70.5148 -3.42607 2.06059 0
M  V30 755 H 71.9548 -4.05625 1.23469 0
M  V30 756 C 70.4138 -3.36799 -0.0825941 0
M  V30 757 O 70.9438 -3.87517 -1.05797 0
M  V30 758 N 69.1498 -2.90258 -0.140939 0
M  V30 759 H 68.6968 -2.49174 0.653477 0
M  V30 760 H 68.6548 -2.97889 -1.00545 0
M  V30 761 N 72.4269 -1.23603 -0.977757 0
M  V30 762 C 73.3589 -0.977369 -2.07317 0
M  V30 763 C 74.3719 0.0495845 -1.62724 0
M  V30 764 O 75.5609 -0.186261 -1.77526 0
M  V30 765 C 72.6609 -0.451216 -3.35883 0
M  V30 766 C 71.8339 -1.53896 -4.09432 0
M  V30 767 C 70.8929 -1.01721 -5.16274 0
M  V30 768 O 69.9189 -1.70676 -5.43009 0
M  V30 769 N 71.1209 0.153594 -5.80297 0
M  V30 770 H 73.8859 -1.92047 -2.30082 0
M  V30 771 H 71.4469 -1.14497 -1.14465 0
M  V30 772 H 73.4389 -0.0871574 -4.04606 0
M  V30 773 H 72.0089 0.397368 -3.10064 0
M  V30 774 H 71.2289 -2.07566 -3.35127 0
M  V30 775 H 72.5169 -2.27037 -4.55337 0
M  V30 776 H 71.9149 0.730323 -5.60966 0
M  V30 777 H 70.4719 0.458892 -6.50183 0
M  V30 778 N 73.905 1.17692 -1.04816 0
M  V30 779 C 75.154 1.87192 -0.751132 0
M  V30 780 C 75.467 1.8169 0.724441 0
M  V30 781 O 76.673 2.46625 1.13527 0
M  V30 782 C 75.129 3.35857 -1.29338 0
M  V30 783 C 74.737 3.4987 -2.79812 0
M  V30 784 C 76.481 4.10709 -1.07322 0
M  V30 785 C 74.388 4.92536 -3.27356 0
M  V30 786 H 73.318 0.701162 -0.277288 0
M  V30 787 H 75.969 1.32932 -1.26496 0
M  V30 788 H 74.351 3.89631 -0.707376 0
M  V30 789 H 75.525 3.06332 -3.44235 0
M  V30 790 H 73.84 2.88433 -3.00325 0
M  V30 791 H 76.437 5.15952 -1.4035 0
M  V30 792 H 76.78 4.16299 -0.0108001 0
M  V30 793 H 77.313 3.6313 -1.62423 0
M  V30 794 H 74.052 4.92119 -4.33012 0
M  V30 795 H 73.572 5.3676 -2.67673 0
M  V30 796 H 75.251 5.61288 -3.21815 0
M  V30 797 N 75.3831 0.828654 1.34056 0
M  V30 798 C 76.6131 0.431993 2.02033 0
M  V30 799 C 77.0211 -0.96844 1.62536 0
M  V30 800 O 76.3641 -1.6391 0.829408 0
M  V30 801 C 76.4261 0.461224 3.56529 0
M  V30 802 C 76.0901 1.81599 4.1937 0
M  V30 803 C 77.0871 2.7777 4.39477 0
M  V30 804 C 74.7721 2.10604 4.56017 0
M  V30 805 C 76.7661 4.01115 4.95364 0
M  V30 806 C 74.4531 3.34207 5.11614 0
M  V30 807 C 75.4511 4.2928 5.31232 0
M  V30 808 O 75.1391 5.50699 5.8565 0
M  V30 809 H 74.8711 0.170943 0.654029 0
M  V30 810 H 77.4251 1.11988 1.72185 0
M  V30 811 H 75.6551 -0.283388 3.8566 0
M  V30 812 H 77.3441 0.0838149 4.05813 0
M  V30 813 H 78.1101 2.56659 4.11523 0
M  V30 814 H 73.9891 1.37402 4.40047 0
M  V30 815 H 77.5331 4.75333 5.10592 0
M  V30 816 H 73.4301 3.55179 5.38997 0
M  V30 817 H 74.1981 5.52298 6.04077 0
M  V30 818 N 76.8612 -1.46375 0.584142 0
M  V30 819 C 77.7912 -2.33103 -0.136037 0
M  V30 820 C 78.7722 -1.45431 -0.882255 0
M  V30 821 O 79.9572 -1.74246 -0.857434 0
M  V30 822 C 77.0872 -3.27731 -1.14933 0
M  V30 823 C 76.0412 -4.24855 -0.517862 0
M  V30 824 C 75.3672 -5.09001 -1.63773 0
M  V30 825 C 76.6672 -5.19439 0.545886 0
M  V30 826 H 78.3612 -2.93568 0.588086 0
M  V30 827 H 75.9072 -1.41166 0.284259 0
M  V30 828 H 77.8602 -3.87261 -1.66153 0
M  V30 829 H 76.5842 -2.65377 -1.90375 0
M  V30 830 H 75.2432 -3.6659 -0.0267361 0
M  V30 831 H 74.8912 -4.43031 -2.38185 0
M  V30 832 H 74.5912 -5.74777 -1.22085 0
M  V30 833 H 76.1152 -5.71396 -2.15266 0
M  V30 834 H 77.5292 -5.73177 0.118704 0
M  V30 835 H 75.9262 -5.93566 0.88317 0
M  V30 836 H 76.9962 -4.63285 1.43162 0
M  V30 837 N 78.3393 -0.321999 -1.54275 0
M  V30 838 C 79.7553 0.0306999 -1.5957 0
M  V30 839 C 79.9553 1.50614 -1.33857 0
M  V30 840 O 79.0113 2.2619 -1.12223 0
M  V30 841 C 80.3243 -0.386122 -2.98211 0
M  V30 842 C 81.8723 -0.336647 -3.11184 0
M  V30 843 C 82.3473 -0.728607 -4.52167 0
M  V30 844 N 83.8383 -0.681952 -4.58152 0
M  V30 845 C 84.5733 -0.957449 -5.6535 0
M  V30 846 N 84.0693 -1.3 -6.80494 0
M  V30 847 N 85.8623 -0.883113 -5.55119 0
M  V30 848 H 78.0133 -1.28332 -1.69247 0
M  V30 849 H 80.2763 -0.521716 -0.791528 0
M  V30 850 H 79.9823 -1.41404 -3.22022 0
M  V30 851 H 79.8563 0.249662 -3.76373 0
M  V30 852 H 82.2433 0.682058 -2.8711 0
M  V30 853 H 82.3243 -1.00734 -2.3513 0
M  V30 854 H 81.9683 -1.74522 -4.76974 0
M  V30 855 H 81.8983 -0.0356152 -5.26588 0
M  V30 856 H 84.3893 -0.428985 -3.75457 0
M  V30 857 H 84.7023 -1.49563 -7.58189 0
M  V30 858 H 83.0473 -1.33824 -6.81994 0
M  V30 859 H 86.2383 -0.615001 -4.64042 0
M  V30 860 H 86.4113 -1.10118 -6.38575 0
M  V30 861 N 79.8174 1.5752 -0.0501392 0
M  V30 862 C 81.0424 1.97376 0.636997 0
M  V30 863 C 81.4674 0.927466 1.63645 0
M  V30 864 O 80.8254 -0.10941 1.8097 0
M  V30 865 C 80.8734 3.36304 1.30123 0
M  V30 866 O 79.9774 3.34156 2.41689 0
M  V30 867 H 79.3184 0.642998 0.165679 0
M  V30 868 H 81.8484 2.04258 -0.118233 0
M  V30 869 H 81.8584 3.73008 1.65315 0
M  V30 870 H 80.5334 4.11993 0.568746 0
M  V30 871 H 79.1104 3.09196 2.08451 0
M  V30 872 N 81.2955 -0.223234 1.56011 0
M  V30 873 C 82.5425 -0.947875 1.78946 0
M  V30 874 C 82.8705 -1.844 0.618608 0
M  V30 875 O 82.1255 -1.91629 -0.397093 0
M  V30 876 C 82.4245 -1.81948 3.0762 0
M  V30 877 C 82.0905 -1.07672 4.37856 0
M  V30 878 C 80.7525 -0.871544 4.73242 0
M  V30 879 C 83.1045 -0.552081 5.18268 0
M  V30 880 C 80.4325 -0.129791 5.86556 0
M  V30 881 C 82.7845 0.17632 6.32354 0
M  V30 882 C 81.4485 0.39277 6.66343 0
M  V30 883 H 80.7185 -0.346852 0.654809 0
M  V30 884 H 83.3655 -0.216171 1.90276 0
M  V30 885 H 81.6705 -2.61899 2.91404 0
M  V30 886 H 83.3675 -2.38227 3.22566 0
M  V30 887 H 79.9575 -1.24662 4.1007 0
M  V30 888 H 84.1415 -0.698076 4.91366 0
M  V30 889 H 79.3975 0.048153 6.11381 0
M  V30 890 H 83.5715 0.590367 6.93893 0
M  V30 891 H 81.1985 0.969466 7.53993 0
M  V30 892 N 82.7736 -1.49793 -0.48987 0
M  V30 893 C 83.6836 -1.70036 -1.61632 0
M  V30 894 C 84.6996 -0.583102 -1.63939 0
M  V30 895 O 85.8756 -0.859169 -1.82154 0
M  V30 896 C 82.9406 -1.77277 -2.97949 0
M  V30 897 C 82.0016 -3.00918 -3.06181 0
M  V30 898 C 81.2346 -3.07804 -4.35996 0
M  V30 899 O 81.4576 -2.21982 -5.25433 0
M  V30 900 O 80.3916 -4.00369 -4.49431 0
M  V30 901 H 84.2176 -2.65486 -1.47482 0
M  V30 902 H 81.8026 -1.33666 -0.667362 0
M  V30 903 H 83.6846 -1.84329 -3.78947 0
M  V30 904 H 82.3596 -0.850076 -3.12339 0
M  V30 905 H 81.2666 -2.99377 -2.2433 0
M  V30 906 H 82.5996 -3.92704 -2.96723 0
M  V30 907 N 84.2517 0.741722 -1.39055 0
M  V30 908 C 85.1617 1.88621 -1.39496 0
M  V30 909 C 86.1777 1.71557 -0.290578 0
M  V30 910 O 87.3537 1.94275 -0.530954 0
M  V30 911 C 84.4187 3.24134 -1.23037 0
M  V30 912 C 83.4797 3.5364 -2.43387 0
M  V30 913 C 82.7127 4.82687 -2.27703 0
M  V30 914 O 82.9357 5.55922 -1.27696 0
M  V30 915 O 81.8697 5.1194 -3.16545 0
M  V30 916 H 85.6957 1.91203 -2.35956 0
M  V30 917 H 83.2807 0.888625 -1.20099 0
M  V30 918 H 85.1627 4.0513 -1.15964 0
M  V30 919 H 83.8377 3.22337 -0.296691 0
M  V30 920 H 82.7447 2.72758 -2.56035 0
M  V30 921 H 84.0777 3.60209 -3.35425 0
M  V30 922 N 85.7298 1.2412 0.971189 0
M  V30 923 C 86.9768 1.07881 1.71371 0
M  V30 924 C 87.3048 -0.382901 1.90694 0
M  V30 925 O 86.5598 -1.29945 1.46331 0
M  V30 926 C 86.8588 1.75983 3.11071 0
M  V30 927 C 86.5248 3.25909 3.11599 0
M  V30 928 C 85.1868 3.66813 3.11451 0
M  V30 929 C 87.5388 4.21771 3.062 0
M  V30 930 C 84.8668 5.02021 3.03631 0
M  V30 931 C 87.2188 5.56982 2.99923 0
M  V30 932 C 85.8828 5.97237 2.98102 0
M  V30 933 H 85.1528 0.394764 0.62709 0
M  V30 934 H 87.7998 1.54176 1.13587 0
M  V30 935 H 86.1048 1.22072 3.72298 0
M  V30 936 H 87.8018 1.60887 3.6731 0
M  V30 937 H 84.3918 2.93353 3.12477 0
M  V30 938 H 88.5758 3.91172 3.05447 0
M  V30 939 H 83.8318 5.32411 3.0058 0
M  V30 940 H 88.0058 6.30969 2.94704 0
M  V30 941 H 85.6328 7.01967 2.91798 0
M  V30 942 N 87.2079 -1.17134 1.05439 0
M  V30 943 C 88.4569 -1.86791 0.761049 0
M  V30 944 C 88.7699 -1.82072 -0.714795 0
M  V30 945 O 89.9759 -2.47223 -1.12218 0
M  V30 946 C 88.4319 -3.35166 1.31117 0
M  V30 947 C 88.0399 -3.48381 2.81664 0
M  V30 948 C 89.7839 -4.10134 1.09499 0
M  V30 949 C 87.6909 -4.90793 3.29964 0
M  V30 950 H 86.6209 -0.699681 0.281002 0
M  V30 951 H 89.2719 -1.3226 1.27199 0
M  V30 952 H 87.6539 -3.8925 0.72803 0
M  V30 953 H 88.8279 -3.04502 3.45855 0
M  V30 954 H 87.1429 -2.86836 3.01851 0
M  V30 955 H 89.7399 -5.152 1.43084 0
M  V30 956 H 90.0829 -4.16287 0.0328772 0
M  V30 957 H 90.6159 -3.62264 1.64346 0
M  V30 958 H 87.3549 -4.89816 4.35616 0
M  V30 959 H 86.8749 -5.35333 2.70516 0
M  V30 960 H 88.5539 -5.59573 3.24787 0
M  V30 961 N 88.686 -0.835752 -1.33615 0
M  V30 962 C 89.636 -0.238856 -2.26745 0
M  V30 963 C 90.62 0.604343 -1.49119 0
M  V30 964 O 91.812 0.456822 -1.71003 0
M  V30 965 C 88.941 0.587725 -3.38232 0
M  V30 966 C 88.027 -0.266811 -4.2326 0
M  V30 967 N 88.418 -1.34403 -4.87616 0
M  V30 968 C 86.716 -0.0533131 -4.45968 0
M  V30 969 C 87.417 -1.86819 -5.50884 0
M  V30 970 N 86.393 -1.17013 -5.30857 0
M  V30 971 H 90.195 -1.06266 -2.74016 0
M  V30 972 H 87.709 -0.679881 -1.47483 0
M  V30 973 H 89.706 1.03161 -4.03935 0
M  V30 974 H 88.366 1.40954 -2.9251 0
M  V30 975 H 89.377 -1.7269 -4.88261 0
M  V30 976 H 86.054 0.735312 -4.10974 0
M  V30 977 H 87.444 -2.7701 -6.1214 0
M  V30 978 N 90.1641 1.46063 -0.591896 0
M  V30 979 C 91.1141 2.27458 0.157172 0
M  V30 980 C 92.0981 1.3641 0.853301 0
M  V30 981 O 93.2901 1.60517 0.74588 0
M  V30 982 C 90.4191 3.22956 1.16423 0
M  V30 983 C 89.5051 4.2149 0.469742 0
M  V30 984 N 89.8961 5.03519 -0.479839 0
M  V30 985 C 88.1941 4.40161 0.719319 0
M  V30 986 C 88.8951 5.74904 -0.886591 0
M  V30 987 N 87.8711 5.43097 -0.233731 0
M  V30 988 H 91.6731 2.88272 -0.572392 0
M  V30 989 H 89.1871 1.57024 -0.414375 0
M  V30 990 H 91.1841 3.79986 1.71513 0
M  V30 991 H 89.8441 2.63701 1.89451 0
M  V30 992 H 90.8551 5.1078 -0.855823 0
M  V30 993 H 87.5321 3.92046 1.43548 0
M  V30 994 H 88.9221 6.50844 -1.66888 0
M  V30 995 N 91.6422 0.330177 1.54103 0
M  V30 996 C 92.5902 -0.548226 2.26047 0
M  V30 997 C 93.5842 -1.11309 1.27698 0
M  V30 998 O 94.7902 -1.06036 1.45452 0
M  V30 999 H 91.1652 -0.195456 0.726155 0
M  V30 1000 H 93.1362 0.0807567 2.98291 0
M  V30 1001 C 91.8852 -1.69415 3.03634 0
M  V30 1002 H 91.2082 -1.26876 3.79134 0
M  V30 1003 H 92.6482 -2.28423 3.5721 0
M  V30 1004 C 91.1072 -2.61569 2.12328 0
M  V30 1005 O 91.6372 -3.63462 1.7105 0
M  V30 1006 N 89.8432 -2.29952 1.77681 0
M  V30 1007 H 89.3902 -1.47134 2.11446 0
M  V30 1008 H 89.3482 -2.91871 1.16869 0
M  V30 1009 N 93.1203 -1.57491 0.0584922 0
M  V30 1010 C 94.0503 -2.14988 -0.911178 0
M  V30 1011 C 95.0313 -1.07343 -1.31952 0
M  V30 1012 O 96.2163 -1.35318 -1.39294 0
M  V30 1013 C 93.3463 -2.70078 -2.18347 0
M  V30 1014 C 92.3003 -3.82771 -1.91495 0
M  V30 1015 C 91.6263 -4.24408 -3.25241 0
M  V30 1016 C 92.9263 -5.07592 -1.23075 0
M  V30 1017 H 94.6203 -2.96263 -0.432246 0
M  V30 1018 H 92.1663 -1.42512 -0.206469 0
M  V30 1019 H 94.1193 -3.08943 -2.86587 0
M  V30 1020 H 92.8433 -1.86005 -2.68458 0
M  V30 1021 H 91.5023 -3.44389 -1.25664 0
M  V30 1022 H 91.1503 -3.37275 -3.73168 0
M  V30 1023 H 90.8503 -5.00366 -3.08071 0
M  V30 1024 H 92.3743 -4.65879 -3.94701 0
M  V30 1025 H 93.7883 -5.43857 -1.81362 0
M  V30 1026 H 92.1853 -5.88741 -1.16207 0
M  V30 1027 H 93.2553 -4.84454 -0.207847 0
M  V30 1028 N 94.5984 0.214957 -1.56127 0
M  V30 1029 C 95.8444 0.939762 -1.79712 0
M  V30 1030 C 96.1774 1.83723 -0.629247 0
M  V30 1031 O 95.4524 1.90925 0.371197 0
M  V30 1032 C 95.7354 1.77306 -3.13424 0
M  V30 1033 C 95.5884 0.90164 -4.40671 0
M  V30 1034 C 96.9074 2.74956 -3.43638 0
M  V30 1035 H 94.0264 0.340214 -0.653776 0
M  V30 1036 H 96.6684 0.20824 -1.88855 0
M  V30 1037 H 94.8184 2.39673 -3.0576 0
M  V30 1038 H 96.4904 0.294206 -4.60361 0
M  V30 1039 H 94.7334 0.207368 -4.33304 0
M  V30 1040 H 95.4044 1.51923 -5.30682 0
M  V30 1041 H 97.8804 2.22724 -3.51473 0
M  V30 1042 H 96.7564 3.30358 -4.38355 0
M  V30 1043 H 97.0174 3.53023 -2.66134 0
M  V30 1044 N 96.0765 1.50051 0.48192 0
M  V30 1045 C 97.0065 1.71046 1.58951 0
M  V30 1046 C 97.9875 0.559288 1.60642 0
M  V30 1047 O 99.1725 0.797243 1.77081 0
M  V30 1048 C 96.3025 1.79462 2.97339 0
M  V30 1049 C 95.2565 2.94558 3.10515 0
M  V30 1050 C 94.5825 2.88105 4.50444 0
M  V30 1051 C 95.8825 4.35227 2.88747 0
M  V30 1052 H 97.5765 2.6378 1.41635 0
M  V30 1053 H 95.1225 1.26936 0.679942 0
M  V30 1054 H 97.0755 1.92734 3.74742 0
M  V30 1055 H 95.7995 0.833412 3.15788 0
M  V30 1056 H 94.4585 2.80918 2.35543 0
M  V30 1057 H 94.1065 1.89853 4.65795 0
M  V30 1058 H 93.8065 3.65366 4.60197 0
M  V30 1059 H 95.3305 3.03412 5.29881 0
M  V30 1060 H 96.7445 4.49449 3.55905 0
M  V30 1061 H 95.1415 5.13856 3.09955 0
M  V30 1062 H 96.2115 4.48347 1.84696 0
M  V30 1063 N 97.5546 -0.734337 1.39446 0
M  V30 1064 C 98.7826 -1.52358 1.39981 0
M  V30 1065 C 99.1976 -1.88799 -0.0054975 0
M  V30 1066 O 98.5546 -1.54146 -0.976998 0
M  V30 1067 C 98.6056 -2.81072 2.27333 0
M  V30 1068 O 98.3266 -2.46178 3.62392 0
M  V30 1069 C 99.8276 -3.75096 2.36259 0
M  V30 1070 H 97.0476 -0.470806 0.478103 0
M  V30 1071 H 99.5916 -0.907339 1.83269 0
M  V30 1072 H 97.7466 -3.39026 1.87457 0
M  V30 1073 H 98.1606 -3.28866 4.08592 0
M  V30 1074 H 99.6346 -4.62305 3.01626 0
M  V30 1075 H 100.112 -4.16892 1.38194 0
M  V30 1076 H 100.718 -3.23061 2.76608 0
M  V30 1077 N 99.0327 -1.24633 -0.964593 0
M  V30 1078 C 99.9797 -1.04144 -2.05968 0
M  V30 1079 C 100.95 0.046262 -1.66036 0
M  V30 1080 O 102.135 -0.108972 -1.90489 0
M  V30 1081 C 99.2747 -0.65563 -3.38815 0
M  V30 1082 C 98.3877 -1.81714 -3.91923 0
M  V30 1083 C 97.5227 -1.37662 -5.13052 0
M  V30 1084 C 96.5617 -2.50788 -5.58365 0
M  V30 1085 N 95.6987 -2.07582 -6.70712 0
M  V30 1086 H 100.539 -1.9787 -2.22827 0
M  V30 1087 H 98.0757 -0.9855 -1.09208 0
M  V30 1088 H 100.034 -0.412954 -4.15151 0
M  V30 1089 H 98.6637 0.244627 -3.21872 0
M  V30 1090 H 97.7157 -2.1734 -3.12198 0
M  V30 1091 H 99.0277 -2.66705 -4.21509 0
M  V30 1092 H 98.1817 -1.093 -5.96773 0
M  V30 1093 H 96.9207 -0.497293 -4.85158 0
M  V30 1094 H 95.9257 -2.79906 -4.73215 0
M  V30 1095 H 97.1507 -3.39283 -5.88272 0
M  V30 1096 H 95.0967 -1.22051 -6.44546 0
M  V30 1097 H 95.0137 -2.86125 -6.99763 0
M  V30 1098 H 96.2817 -1.82369 -7.57867 0
M  V30 1099 N 100.511 1.16574 -1.06058 0
M  V30 1100 C 101.759 1.86677 -0.77434 0
M  V30 1101 C 102.08 1.81959 0.701147 0
M  V30 1102 O 101.35 1.2515 1.50713 0
M  V30 1103 H 99.9298 0.691134 -0.283449 0
M  V30 1104 H 102.592 1.41378 -1.34158 0
M  V30 1105 H 101.688 2.92181 -1.09711 0
M  V30 1106 N 101.989 0.842826 1.3317 0
M  V30 1107 C 103.4 0.496651 1.79973 0
M  V30 1108 C 103.751 -0.984641 1.69703 0
M  V30 1109 O 102.876 -1.76743 1.24863 0
M  V30 1110 C 103.471 0.894727 3.26772 0
M  V30 1111 C 102.03 0.600629 3.71577 0
M  V30 1112 C 101.177 1.10091 2.5451 0
M  V30 1113 H 104.128 1.03116 1.20635 0
M  V30 1114 H 104.149 0.206347 3.7994 0
M  V30 1115 H 103.661 1.97287 3.34215 0
M  V30 1116 H 101.762 -0.467284 3.69658 0
M  V30 1117 H 101.875 1.15863 4.64879 0
M  V30 1118 H 100.239 0.52162 2.49301 0
M  V30 1119 H 101.022 2.18591 2.64713 0
M  V30 1120 N 103.467 -1.45747 0.599634 0
M  V30 1121 C 104.713 -2.02592 0.0918643 0
M  V30 1122 C 105.046 -1.46806 -1.27128 0
M  V30 1123 O 104.321 -0.639658 -1.83681 0
M  V30 1124 C 104.604 -3.60073 0.0443398 0
M  V30 1125 C 104.457 -4.26208 1.43759 0
M  V30 1126 C 105.776 -4.35309 -0.647608 0
M  V30 1127 H 102.895 -0.736175 0.034857 0
M  V30 1128 H 105.537 -1.73694 0.770081 0
M  V30 1129 H 103.687 -3.84823 -0.533224 0
M  V30 1130 H 105.359 -4.12668 2.06162 0
M  V30 1131 H 103.602 -3.84916 2.00056 0
M  V30 1132 H 104.273 -5.35069 1.35665 0
M  V30 1133 H 106.749 -4.15805 -0.156776 0
M  V30 1134 H 105.625 -5.45038 -0.649942 0
M  V30 1135 H 105.886 -4.07598 -1.71219 0
M  V30 1136 N 104.945 -0.338344 -1.53925 0
M  V30 1137 C 105.908 0.508299 -2.23493 0
M  V30 1138 C 106.908 1.03175 -1.23335 0
M  V30 1139 O 108.098 0.921826 -1.47811 0
M  V30 1140 C 105.23 1.70754 -2.95052 0
M  V30 1141 H 106.423 -0.100058 -2.99733 0
M  V30 1142 H 103.976 -0.0896198 -1.56043 0
M  V30 1143 H 104.711 2.35474 -2.22986 0
M  V30 1144 H 104.496 1.33946 -3.68512 0
M  V30 1145 H 105.986 2.30818 -3.48013 0
M  V30 1146 N 106.423 1.57458 -0.0668435 0
M  V30 1147 C 107.386 2.11323 0.887422 0
M  V30 1148 C 108.386 1.03618 1.22964 0
M  V30 1149 O 109.576 1.29626 1.16373 0
M  V30 1150 C 106.708 2.61048 2.19242 0
M  V30 1151 H 107.901 2.96942 0.420194 0
M  V30 1152 H 105.454 1.55239 0.181793 0
M  V30 1153 H 106.189 1.78868 2.70512 0
M  V30 1154 H 105.974 3.39769 1.95702 0
M  V30 1155 H 107.464 3.02814 2.87565 0
M  V30 1156 N 107.901 -0.206675 1.56239 0
M  V30 1157 C 108.831 -1.25909 1.96645 0
M  V30 1158 C 109.812 -1.48097 0.836734 0
M  V30 1159 O 110.997 -1.6003 1.10019 0
M  V30 1160 C 108.127 -2.6058 2.29599 0
M  V30 1161 C 107.081 -2.53024 3.452 0
M  V30 1162 C 106.407 -3.91861 3.63798 0
M  V30 1163 C 107.707 -2.06524 4.79734 0
M  V30 1164 H 109.401 -0.923369 2.84806 0
M  V30 1165 H 106.947 -0.442735 1.37025 0
M  V30 1166 H 108.9 -3.34375 2.56459 0
M  V30 1167 H 107.624 -2.95869 1.38307 0
M  V30 1168 H 106.283 -1.81684 3.18412 0
M  V30 1169 H 105.931 -4.24483 2.69857 0
M  V30 1170 H 105.631 -3.87683 4.4156 0
M  V30 1171 H 107.155 -4.67296 3.93022 0
M  V30 1172 H 108.569 -2.70072 5.05702 0
M  V30 1173 H 106.966 -2.13374 5.60885 0
M  V30 1174 H 108.036 -1.01802 4.74093 0
M  V30 1175 N 109.379 -1.50304 -0.473955 0
M  V30 1176 C 110.326 -1.68959 -1.57231 0
M  V30 1177 C 111.296 -0.530899 -1.57387 0
M  V30 1178 O 112.481 -0.761133 -1.74961 0
M  V30 1179 C 109.621 -1.7871 -2.95223 0
M  V30 1180 C 108.734 -3.06061 -3.04878 0
M  V30 1181 C 107.869 -3.06626 -4.33767 0
M  V30 1182 C 106.908 -4.28443 -4.37154 0
M  V30 1183 N 106.045 -4.26763 -5.5751 0
M  V30 1184 H 110.885 -2.6273 -1.40631 0
M  V30 1185 H 108.422 -1.30241 -0.683789 0
M  V30 1186 H 110.38 -1.82344 -3.75242 0
M  V30 1187 H 109.01 -0.883806 -3.10465 0
M  V30 1188 H 108.062 -3.11911 -2.17751 0
M  V30 1189 H 109.374 -3.96039 -3.0324 0
M  V30 1190 H 108.528 -3.08973 -5.22131 0
M  V30 1191 H 107.267 -2.14473 -4.3801 0
M  V30 1192 H 106.272 -4.2631 -3.47188 0
M  V30 1193 H 107.497 -5.2182 -4.34605 0
M  V30 1194 H 105.443 -3.37462 -5.62544 0
M  V30 1195 H 105.36 -5.10507 -5.57601 0
M  V30 1196 H 106.628 -4.33253 -6.48006 0
M  V30 1197 N 110.857 0.726932 -1.39834 0
M  V30 1198 C 111.82 1.82269 -1.38962 0
M  V30 1199 C 112.82 1.58248 -0.285334 0
M  V30 1200 O 114.01 1.65499 -0.54366 0
M  V30 1201 C 111.142 3.20186 -1.17019 0
M  V30 1202 H 112.335 1.84443 -2.36476 0
M  V30 1203 H 109.888 0.931416 -1.25516 0
M  V30 1204 H 110.623 3.23669 -0.202204 0
M  V30 1205 H 110.408 3.3902 -1.96998 0
M  V30 1206 H 111.898 4.00235 -1.1917 0
M  V30 1207 N 112.336 1.25143 0.95797 0
M  V30 1208 C 113.269 0.995565 2.05338 0
M  V30 1209 C 114.247 -0.0740423 1.62431 0
M  V30 1210 O 115.431 0.0649212 1.88388 0
M  V30 1211 C 112.558 0.504298 3.34925 0
M  V30 1212 C 111.604 1.56393 3.96792 0
M  V30 1213 S 112.437 3.14815 4.33188 0
M  V30 1214 C 113.593 2.67415 5.65898 0
M  V30 1215 H 113.826 1.92309 2.26726 0
M  V30 1216 H 111.359 1.08635 1.09716 0
M  V30 1217 H 113.317 0.227497 4.09869 0
M  V30 1218 H 111.978 -0.402671 3.11508 0
M  V30 1219 H 111.171 1.17082 4.90212 0
M  V30 1220 H 110.773 1.79124 3.28315 0
M  V30 1221 H 113.065 2.10833 6.4386 0
M  V30 1222 H 114.008 3.59463 6.10076 0
M  V30 1223 H 114.416 2.07521 5.24972 0
M  V30 1224 N 113.814 -1.1601 1.06675 0
M  V30 1225 C 114.777 -2.18724 0.685001 0
M  V30 1226 C 115.777 -1.58496 -0.271246 0
M  V30 1227 O 116.967 -1.74119 -0.0531156 0
M  V30 1228 C 114.099 -3.40899 0.00853648 0
M  V30 1229 H 115.292 -2.54011 1.59431 0
M  V30 1230 H 112.845 -1.30352 0.862441 0
M  V30 1231 H 113.58 -3.11173 -0.913337 0
M  V30 1232 H 113.365 -3.8587 0.696204 0
M  V30 1233 H 114.855 -4.16886 -0.24414 0
M  V30 1234 N 115.292 -0.849877 -1.32721 0
M  V30 1235 C 116.539 -0.450923 -1.97416 0
M  V30 1236 C 116.867 0.992376 -1.67279 0
M  V30 1237 O 116.122 1.71048 -0.950845 0
M  V30 1238 C 116.421 -0.631272 -3.51781 0
M  V30 1239 C 116.087 -2.04432 -4.01894 0
M  V30 1240 C 114.749 -2.4308 -4.1529 0
M  V30 1241 C 117.101 -2.96679 -4.28522 0
M  V30 1242 C 114.429 -3.73257 -4.52654 0
M  V30 1243 C 116.781 -4.26349 -4.67343 0
M  V30 1244 C 115.445 -4.64939 -4.78945 0
M  V30 1245 H 114.715 -0.165004 -0.722395 0
M  V30 1246 H 117.362 -1.07901 -1.58207 0
M  V30 1247 H 115.667 0.0800767 -3.91718 0
M  V30 1248 H 117.364 -0.302709 -3.99856 0
M  V30 1249 H 113.954 -1.73419 -3.91949 0
M  V30 1250 H 118.138 -2.68054 -4.17685 0
M  V30 1251 H 113.394 -4.02946 -4.59831 0
M  V30 1252 H 117.568 -4.97895 -4.86902 0
M  V30 1253 H 115.195 -5.65855 -5.07654 0
M  V30 1254 N 116.77 1.45427 -0.607355 0
M  V30 1255 C 118.186 1.57283 -0.270985 0
M  V30 1256 C 118.386 1.59875 1.22647 0
M  V30 1257 O 117.442 1.52893 2.00948 0
M  V30 1258 C 118.755 2.85566 -0.941952 0
M  V30 1259 C 120.303 2.9924 -0.917849 0
M  V30 1260 C 120.778 4.30293 -1.56882 0
M  V30 1261 N 122.269 4.37051 -1.5343 0
M  V30 1262 C 123.004 5.37123 -2.00715 0
M  V30 1263 N 122.5 6.43734 -2.56084 0
M  V30 1264 N 124.293 5.28479 -1.91484 0
M  V30 1265 H 116.444 1.41988 -1.57966 0
M  V30 1266 H 118.707 0.67885 -0.661715 0
M  V30 1267 H 118.413 2.8955 -1.99633 0
M  V30 1268 H 118.287 3.74322 -0.465096 0
M  V30 1269 H 120.674 2.94822 0.127984 0
M  V30 1270 H 120.755 2.11895 -1.43297 0
M  V30 1271 H 120.399 4.35469 -2.61398 0
M  V30 1272 H 120.329 5.16454 -1.02873 0
M  V30 1273 H 122.82 3.60615 -1.12982 0
M  V30 1274 H 123.133 7.16341 -2.89958 0
M  V30 1275 H 121.478 6.44485 -2.60122 0
M  V30 1276 H 124.669 4.44098 -1.47967 0
M  V30 1277 H 124.842 6.0632 -2.28648 0
M  V30 1278 N 118.248 0.346503 1.53744 0
M  V30 1279 C 119.494 -0.249473 2.0126 0
M  V30 1280 C 119.827 -1.49965 1.23386 0
M  V30 1281 O 119.102 -1.91811 0.32229 0
M  V30 1282 C 119.385 -0.560643 3.55709 0
M  V30 1283 C 119.238 0.701836 4.44291 0
M  V30 1284 C 120.557 -1.36905 4.18264 0
M  V30 1285 H 117.676 -0.0891987 0.731582 0
M  V30 1286 H 120.318 0.467624 1.84156 0
M  V30 1287 H 118.468 -1.17156 3.70414 0
M  V30 1288 H 120.14 1.33974 4.41417 0
M  V30 1289 H 118.383 1.32612 4.13033 0
M  V30 1290 H 119.054 0.43933 5.50249 0
M  V30 1291 H 121.53 -0.852448 4.07275 0
M  V30 1292 H 120.406 -1.55553 5.26398 0
M  V30 1293 H 120.667 -2.37203 3.73078 0
M  V30 1294 N 119.726 -1.57421 0.075193 0
M  V30 1295 C 121.142 -1.57099 -0.281444 0
M  V30 1296 C 121.342 -1.08486 -1.69803 0
M  V30 1297 O 120.398 -0.752279 -2.41033 0
M  V30 1298 C 121.711 -3.00571 -0.0880041 0
M  V30 1299 C 123.259 -3.12605 -0.157281 0
M  V30 1300 C 123.734 -4.57999 0.0079207 0
M  V30 1301 N 125.225 -4.63176 -0.0475725 0
M  V30 1302 C 125.96 -5.73373 0.0557876 0
M  V30 1303 N 125.456 -6.92473 0.21286 0
M  V30 1304 N 127.249 -5.621 -0.00152098 0
M  V30 1305 H 119.4 -1.87335 1.00098 0
M  V30 1306 H 121.663 -0.86377 0.390646 0
M  V30 1307 H 121.369 -3.40262 0.889629 0
M  V30 1308 H 121.243 -3.67754 -0.838875 0
M  V30 1309 H 123.63 -2.72798 -1.1254 0
M  V30 1310 H 123.711 -2.48053 0.62475 0
M  V30 1311 H 123.355 -4.98496 0.972824 0
M  V30 1312 H 123.285 -5.20586 -0.793556 0
M  V30 1313 H 125.776 -3.7753 -0.167244 0
M  V30 1314 H 126.089 -7.72279 0.283781 0
M  V30 1315 H 124.434 -6.94556 0.248267 0
M  V30 1316 H 127.625 -4.67938 -0.122958 0
M  V30 1317 H 127.798 -6.47948 0.0824844 0
M  V30 1318 N 121.204 0.198386 -1.56346 0
M  V30 1319 C 122.432 0.935572 -1.84539 0
M  V30 1320 C 122.847 1.76989 -0.657281 0
M  V30 1321 O 122.204 1.78626 0.374043 0
M  V30 1322 C 122.255 1.8344 -3.11499 0
M  V30 1323 O 121.976 1.03377 -4.25728 0
M  V30 1324 C 123.477 2.68355 -3.52846 0
M  V30 1325 H 120.697 0.273126 -0.612897 0
M  V30 1326 H 123.241 0.20663 -2.03453 0
M  V30 1327 H 121.396 2.51701 -2.94492 0
M  V30 1328 H 121.81 1.64599 -4.98003 0
M  V30 1329 H 123.284 3.27085 -4.44657 0
M  V30 1330 H 123.761 3.41901 -2.75681 0
M  V30 1331 H 124.367 2.05471 -3.72373 0
M  V30 1332 N 122.682 1.50554 0.465978 0
M  V30 1333 C 124.093 1.54599 1.04671 0
M  V30 1334 C 124.444 0.352488 1.93008 0
M  V30 1335 O 123.569 -0.534044 2.09707 0
M  V30 1336 C 124.164 2.80166 1.90505 0
M  V30 1337 C 122.723 2.86876 2.43678 0
M  V30 1338 C 121.87 2.48947 1.22151 0
M  V30 1339 H 124.821 1.56744 0.248384 0
M  V30 1340 H 124.842 2.62311 2.75633 0
M  V30 1341 H 124.354 3.67013 1.26186 0
M  V30 1342 H 122.455 2.04393 3.11536 0
M  V30 1343 H 122.568 3.89885 2.78436 0
M  V30 1344 H 120.932 2.01498 1.5579 0
M  V30 1345 H 121.715 3.38107 0.594866 0
M  V30 1346 N 124.16 -0.719506 1.40217 0
M  V30 1347 C 125.07 -1.86378 1.42479 0
M  V30 1348 C 126.086 -1.71073 0.317834 0
M  V30 1349 O 127.262 -1.93406 0.561794 0
M  V30 1350 C 124.327 -3.22136 1.28178 0
M  V30 1351 C 123.388 -3.49723 2.48982 0
M  V30 1352 C 122.621 -4.79004 2.35353 0
M  V30 1353 O 122.844 -5.53821 1.36524 0
M  V30 1354 O 121.778 -5.06839 3.2465 0
M  V30 1355 H 125.604 -1.87425 2.38968 0
M  V30 1356 H 123.189 -0.869405 1.21498 0
M  V30 1357 H 125.071 -4.03234 1.22395 0
M  V30 1358 H 123.746 -3.21825 0.347934 0
M  V30 1359 H 122.653 -2.6865 2.60342 0
M  V30 1360 H 123.986 -3.54828 3.41113 0
M  V30 1361 N 125.638 -1.25649 -0.95132 0
M  V30 1362 C 126.915 -1.01361 -1.67288 0
M  V30 1363 C 127.295 0.459135 -2.06046 0
M  V30 1364 O 126.643 1.43723 -1.7764 0
M  V30 1365 C 126.853 -1.95256 -2.89268 0
M  V30 1366 C 128.201 -2.23289 -3.61147 0
M  V30 1367 O 129.225 -1.93041 -2.99355 0
M  V30 1368 O 128.084 -2.74741 -4.72419 0
M  V30 1369 H 125.178 -0.38464 -0.732107 0
M  V30 1370 H 127.724 -1.36817 -1.00395 0
M  V30 1371 H 126.496 -2.94685 -2.57442 0
M  V30 1372 H 126.119 -1.60218 -3.6389 0
M  V30 1373 N 127.117 1.15442 -1.07289 0
M  V30 1374 C 128.363 1.86489 -0.796846 0
M  V30 1375 C 128.696 1.82078 0.675371 0
M  V30 1376 O 127.971 1.24346 1.4956 0
M  V30 1377 C 128.254 3.35626 -1.30489 0
M  V30 1378 C 128.107 3.48673 -2.84161 0
M  V30 1379 C 129.426 4.30357 -0.920907 0
M  V30 1380 H 126.545 0.677144 -0.290939 0
M  V30 1381 H 129.187 1.35633 -1.33056 0
M  V30 1382 H 127.337 3.79068 -0.850883 0
M  V30 1383 H 129.009 3.14099 -3.37846 0
M  V30 1384 H 127.252 2.90253 -3.22391 0
M  V30 1385 H 127.923 4.53453 -3.14777 0
M  V30 1386 H 130.399 3.94871 -1.3121 0
M  V30 1387 H 129.275 5.33193 -1.30372 0
M  V30 1388 H 129.536 4.4176 0.173226 0
M  V30 1389 N 128.595 0.856903 1.32268 0
M  V30 1390 C 129.872 0.382583 1.91822 0
M  V30 1391 C 130.252 -1.13407 1.78051 0
M  V30 1392 O 129.6 -1.95673 1.18001 0
M  V30 1393 C 129.81 0.849446 3.38505 0
M  V30 1394 C 131.158 0.867936 4.15634 0
M  V30 1395 O 132.182 0.794232 3.47232 0
M  V30 1396 O 131.041 0.972286 5.37781 0
M  V30 1397 H 128.135 0.112014 0.819379 0
M  V30 1398 H 130.681 0.943952 1.41024 0
M  V30 1399 H 129.453 1.89267 3.42482 0
M  V30 1400 H 129.076 0.265652 3.96712 0
M  V30 1401 N 130.073 -1.45103 0.615059 0
M  V30 1402 C 131.02 -2.30586 -0.0993978 0
M  V30 1403 C 131.99 -1.42544 -0.852669 0
M  V30 1404 O 133.175 -1.71465 -0.836917 0
M  V30 1405 C 130.315 -3.27572 -1.08583 0
M  V30 1406 C 129.428 -4.30717 -0.332656 0
M  V30 1407 C 128.563 -5.14807 -1.30947 0
M  V30 1408 C 127.602 -6.09673 -0.544538 0
M  V30 1409 N 126.739 -6.86517 -1.47101 0
M  V30 1410 H 131.579 -2.91144 0.635542 0
M  V30 1411 H 129.116 -1.4346 0.325206 0
M  V30 1412 H 131.074 -3.82276 -1.67095 0
M  V30 1413 H 129.704 -2.68751 -1.78809 0
M  V30 1414 H 128.756 -3.78615 0.368107 0
M  V30 1415 H 130.068 -4.98102 0.263842 0
M  V30 1416 H 129.222 -5.73948 -1.96643 0
M  V30 1417 H 127.961 -4.47458 -1.9399 0
M  V30 1418 H 126.966 -5.49656 0.126003 0
M  V30 1419 H 128.191 -6.79052 0.080947 0
M  V30 1420 H 126.137 -6.21851 -2.08895 0
M  V30 1421 H 126.054 -7.50281 -0.928137 0
M  V30 1422 H 127.322 -7.50194 -2.11731 0
M  V30 1423 N 131.551 -0.354651 -1.53558 0
M  V30 1424 C 132.514 0.484566 -2.24019 0
M  V30 1425 C 133.514 1.01861 -1.24422 0
M  V30 1426 O 134.704 0.906097 -1.4878 0
M  V30 1427 C 131.836 1.67615 -2.96847 0
M  V30 1428 H 133.029 -0.131843 -2.9961 0
M  V30 1429 H 130.582 -0.106165 -1.55939 0
M  V30 1430 H 131.317 2.33095 -2.25471 0
M  V30 1431 H 131.102 1.30029 -3.69912 0
M  V30 1432 H 132.592 2.27114 -3.50441 0
M  V30 1433 N 133.029 1.57378 -0.0835403 0
M  V30 1434 C 133.939 2.16897 0.894021 0
M  V30 1435 C 134.955 1.13528 1.31861 0
M  V30 1436 O 136.131 1.45848 1.3889 0
M  V30 1437 C 133.196 2.72831 2.13925 0
M  V30 1438 C 132.257 3.91115 1.76997 0
M  V30 1439 C 131.49 4.44371 2.95584 0
M  V30 1440 O 131.713 3.96596 4.09961 0
M  V30 1441 O 130.647 5.35549 2.74719 0
M  V30 1442 H 134.473 3.00814 0.417679 0
M  V30 1443 H 132.058 1.48741 0.140181 0
M  V30 1444 H 133.94 3.0863 2.86924 0
M  V30 1445 H 132.615 1.91967 2.60635 0
M  V30 1446 H 131.522 3.60148 1.01214 0
M  V30 1447 H 132.855 4.73307 1.3506 0
M  V30 1448 N 134.507 -0.190092 1.56449 0
M  V30 1449 C 135.47 -1.21925 1.9408 0
M  V30 1450 C 136.47 -1.38176 0.822431 0
M  V30 1451 O 137.66 -1.35903 1.08977 0
M  V30 1452 C 134.792 -2.58773 2.21922 0
M  V30 1453 H 135.985 -0.897464 2.86157 0
M  V30 1454 H 133.538 -0.43181 1.50217 0
M  V30 1455 H 134.273 -2.95998 1.32499 0
M  V30 1456 H 134.058 -2.48348 3.03424 0
M  V30 1457 H 135.548 -3.32978 2.52022 0
M  V30 1458 N 135.985 -1.50799 -0.457987 0
M  V30 1459 C 137.215 -1.65977 -1.23025 0
M  V30 1460 C 137.623 -0.347918 -1.85974 0
M  V30 1461 O 136.966 0.68148 -1.70592 0
M  V30 1462 C 137.028 -2.70309 -2.3701 0
M  V30 1463 C 136.692 -4.135 -1.94594 0
M  V30 1464 C 137.689 -4.98949 -1.46101 0
M  V30 1465 C 135.374 -4.5949 -2.02915 0
M  V30 1466 C 137.368 -6.28442 -1.06489 0
M  V30 1467 C 135.055 -5.88984 -1.62914 0
M  V30 1468 C 136.053 -6.73286 -1.1478 0
M  V30 1469 O 135.741 -8.00362 -0.75339 0
M  V30 1470 H 135.473 -0.56064 -0.377702 0
M  V30 1471 H 138.027 -1.97857 -0.551537 0
M  V30 1472 H 136.257 -2.337 -3.08093 0
M  V30 1473 H 137.946 -2.74574 -2.98938 0
M  V30 1474 H 138.712 -4.6463 -1.39084 0
M  V30 1475 H 134.591 -3.94009 -2.39328 0
M  V30 1476 H 138.135 -6.94194 -0.688488 0
M  V30 1477 H 134.032 -6.22822 -1.69595 0
M  V30 1478 H 134.8 -8.13744 -0.88108 0
M  V30 1479 N 137.463 0.71206 -1.40597 0
M  V30 1480 C 138.693 1.49894 -1.42181 0
M  V30 1481 C 139.101 1.89189 -0.0208078 0
M  V30 1482 O 138.444 1.56223 0.966436 0
M  V30 1483 C 138.506 2.80215 -2.25211 0
M  V30 1484 C 138.17 2.63221 -3.73582 0
M  V30 1485 C 139.167 2.30249 -4.66135 0
M  V30 1486 C 136.852 2.79376 -4.17438 0
M  V30 1487 C 138.846 2.13645 -6.00529 0
M  V30 1488 C 136.533 2.6239 -5.51901 0
M  V30 1489 C 137.531 2.29573 -6.43262 0
M  V30 1490 O 137.219 2.12719 -7.75246 0
M  V30 1491 H 136.951 0.469031 -0.486812 0
M  V30 1492 H 139.505 0.88564 -1.85326 0
M  V30 1493 H 137.735 3.4389 -1.76852 0
M  V30 1494 H 139.424 3.41947 -2.18694 0
M  V30 1495 H 140.19 2.17398 -4.33547 0
M  V30 1496 H 136.069 3.03906 -3.46644 0
M  V30 1497 H 139.613 1.87953 -6.71803 0
M  V30 1498 H 135.51 2.74826 -5.84073 0
M  V30 1499 H 136.278 2.27611 -7.86216 0
M  V30 1500 N 138.941 1.26152 0.944643 0
M  V30 1501 C 139.873 1.03199 2.04652 0
M  V30 1502 C 140.886 -0.00642356 1.62799 0
M  V30 1503 O 142.075 0.233263 1.76969 0
M  V30 1504 C 139.175 0.540111 3.34568 0
M  V30 1505 C 138.348 1.64697 4.05208 0
M  V30 1506 C 137.407 1.15374 5.13396 0
M  V30 1507 O 136.433 1.85013 5.38293 0
M  V30 1508 N 137.635 0.00031529 5.805 0
M  V30 1509 H 140.4 1.9808 2.2491 0
M  V30 1510 H 137.961 1.17491 1.11389 0
M  V30 1511 H 139.953 0.194401 4.04233 0
M  V30 1512 H 138.523 -0.315021 3.11009 0
M  V30 1513 H 137.743 2.16379 3.29506 0
M  V30 1514 H 139.031 2.3903 4.49157 0
M  V30 1515 H 138.429 -0.581336 5.62705 0
M  V30 1516 H 136.986 -0.286346 6.51171 0
M  V30 1517 N 140.419 -1.14872 1.07899 0
M  V30 1518 C 141.329 -2.2341 0.715915 0
M  V30 1519 C 142.345 -1.71808 -0.275306 0
M  V30 1520 O 143.521 -2.01039 -0.120545 0
M  V30 1521 C 140.586 -3.46474 0.125168 0
M  V30 1522 C 139.647 -4.13039 1.17034 0
M  V30 1523 C 138.88 -5.30229 0.607688 0
M  V30 1524 O 139.103 -5.675 -0.574497 0
M  V30 1525 O 138.037 -5.86444 1.35526 0
M  V30 1526 H 141.863 -2.56808 1.62121 0
M  V30 1527 H 139.448 -1.22702 0.852322 0
M  V30 1528 H 141.33 -4.20917 -0.201729 0
M  V30 1529 H 140.005 -3.14811 -0.753364 0
M  V30 1530 H 138.912 -3.40493 1.54968 0
M  V30 1531 H 140.245 -4.48796 2.02097 0
M  V30 1532 N 141.898 -0.863906 -1.31812 0
M  V30 1533 C 142.828 -0.330843 -2.31144 0
M  V30 1534 C 143.809 0.575005 -1.60087 0
M  V30 1535 O 144.994 0.493304 -1.8783 0
M  V30 1536 C 142.124 0.47374 -3.44054 0
M  V30 1537 C 141.078 -0.338481 -4.26659 0
M  V30 1538 C 140.404 0.591412 -5.31419 0
M  V30 1539 C 141.704 -1.56926 -4.98168 0
M  V30 1540 H 143.398 -1.16086 -2.75979 0
M  V30 1541 H 140.944 -0.559657 -1.32679 0
M  V30 1542 H 142.897 0.857143 -4.12591 0
M  V30 1543 H 141.621 1.33721 -2.9797 0
M  V30 1544 H 140.28 -0.703754 -3.59782 0
M  V30 1545 H 139.928 1.45199 -4.81587 0
M  V30 1546 H 139.628 0.0519022 -5.87577 0
M  V30 1547 H 141.152 0.97179 -6.02817 0
M  V30 1548 H 142.566 -1.25764 -5.59336 0
M  V30 1549 H 140.963 -2.04739 -5.64094 0
M  V30 1550 H 142.033 -2.32544 -4.25501 0
M  V30 1551 N 143.376 1.44774 -0.622745 0
M  V30 1552 C 144.624 2.01721 -0.123655 0
M  V30 1553 C 144.945 1.49172 1.25589 0
M  V30 1554 O 144.215 0.691974 1.83272 0
M  V30 1555 H 142.795 0.745777 -0.0427225 0
M  V30 1556 H 145.457 1.77382 -0.807559 0
M  V30 1557 H 144.553 3.11984 -0.0849534 0
M  V30 1558 N 144.854 0.36279 1.53368 0
M  V30 1559 C 146.094 -0.227882 2.03126 0
M  V30 1560 C 146.458 -1.4622 1.24434 0
M  V30 1561 O 147.659 -2.12831 1.64184 0
M  V30 1562 C 145.93 -0.515427 3.53664 0
M  V30 1563 S 147.489 -1.08017 4.25297 0
M  V30 1564 H 144.307 -0.0665377 0.70788 0
M  V30 1565 H 146.909 0.50501 1.88865 0
M  V30 1566 H 145.613 0.390436 4.08539 0
M  V30 1567 H 145.144 -1.27747 3.72081 0
M  V30 1568 H 147.159 -2.36462 4.36234 0
M  V30 1569 N 146.332 -1.57332 0.0918853 0
M  V30 1570 C 147.748 -1.57389 -0.264766 0
M  V30 1571 C 147.948 -1.10281 -1.68643 0
M  V30 1572 O 147.004 -0.777801 -2.40222 0
M  V30 1573 C 148.317 -3.00648 -0.0561195 0
M  V30 1574 C 149.865 -3.12754 -0.124116 0
M  V30 1575 C 150.34 -4.57965 0.0564972 0
M  V30 1576 N 151.831 -4.632 0.00155611 0
M  V30 1577 C 152.566 -5.73281 0.116598 0
M  V30 1578 N 152.062 -6.92208 0.286294 0
M  V30 1579 N 153.855 -5.6207 0.0580973 0
M  V30 1580 H 146.006 -1.86262 1.02079 0
M  V30 1581 H 148.269 -0.859579 0.399786 0
M  V30 1582 H 147.975 -3.393 0.925669 0
M  V30 1583 H 147.849 -3.68623 -0.799823 0
M  V30 1584 H 150.236 -2.73976 -1.09641 0
M  V30 1585 H 150.317 -2.47377 0.651024 0
M  V30 1586 H 149.961 -4.97436 1.02564 0
M  V30 1587 H 149.891 -5.21399 -0.738297 0
M  V30 1588 H 152.382 -3.77686 -0.127192 0
M  V30 1589 H 152.695 -7.71934 0.365676 0
M  V30 1590 H 151.04 -6.94254 0.32192 0
M  V30 1591 H 154.231 -4.68043 -0.0733204 0
M  V30 1592 H 154.404 -6.47824 0.151203 0
M  V30 1593 N 147.81 0.181792 -1.56548 0
M  V30 1594 C 149.038 0.915947 -1.85521 0
M  V30 1595 C 149.453 1.76282 -0.676016 0
M  V30 1596 O 148.81 1.79012 0.355077 0
M  V30 1597 C 148.861 1.80126 -3.13427 0
M  V30 1598 O 148.582 0.988562 -4.26801 0
M  V30 1599 C 150.083 2.64597 -3.55673 0
M  V30 1600 H 147.303 0.26661 -0.61576 0
M  V30 1601 H 149.847 0.185039 -2.03661 0
M  V30 1602 H 148.002 2.48563 -2.97145 0
M  V30 1603 H 148.416 1.59308 -4.99721 0
M  V30 1604 H 149.89 3.2235 -4.48101 0
M  V30 1605 H 150.367 3.38958 -2.79292 0
M  V30 1606 H 150.973 2.0151 -3.74532 0
M  V30 1607 N 149.288 1.51039 0.449983 0
M  V30 1608 C 150.198 1.74261 1.57067 0
M  V30 1609 C 151.214 0.626363 1.62335 0
M  V30 1610 O 152.39 0.907162 1.79812 0
M  V30 1611 C 149.455 1.85114 2.93144 0
M  V30 1612 C 148.516 3.0893 2.98095 0
M  V30 1613 C 147.749 3.19256 4.27681 0
M  V30 1614 O 147.972 2.35835 5.19363 0
M  V30 1615 O 146.906 4.12144 4.38658 0
M  V30 1616 H 150.732 2.69303 1.40391 0
M  V30 1617 H 148.317 1.35389 0.631688 0
M  V30 1618 H 150.199 1.94311 3.73926 0
M  V30 1619 H 148.874 0.932588 3.09975 0
M  V30 1620 H 147.781 3.0522 2.16314 0
M  V30 1621 H 149.114 4.00433 2.86206 0
M  V30 1622 N 150.766 -0.704594 1.40972 0
M  V30 1623 C 152.182 -1.01406 1.23244 0
M  V30 1624 C 152.382 -2.01169 0.115399 0
M  V30 1625 O 151.438 -2.47021 -0.523147 0
M  V30 1626 C 152.751 -1.54728 2.57836 0
M  V30 1627 C 154.299 -1.66658 2.64942 0
M  V30 1628 C 154.774 -2.23383 3.9983 0
M  V30 1629 N 156.265 -2.30756 4.01629 0
M  V30 1630 C 157 -2.75655 5.02794 0
M  V30 1631 N 156.496 -3.20225 6.14352 0
M  V30 1632 N 158.289 -2.75138 4.90159 0
M  V30 1633 H 150.44 -0.0435285 2.12355 0
M  V30 1634 H 152.703 -0.0818951 0.944456 0
M  V30 1635 H 152.409 -0.888832 3.40283 0
M  V30 1636 H 152.283 -2.53084 2.79693 0
M  V30 1637 H 154.67 -2.31617 1.8286 0
M  V30 1638 H 154.751 -0.668717 2.46904 0
M  V30 1639 H 154.395 -1.59043 4.82357 0
M  V30 1640 H 154.325 -3.23904 4.15203 0
M  V30 1641 H 156.816 -1.99291 3.21079 0
M  V30 1642 H 157.129 -3.53084 6.87424 0
M  V30 1643 H 155.474 -3.18156 6.17901 0
M  V30 1644 H 158.665 -2.39661 4.02095 0
M  V30 1645 H 158.838 -3.09812 5.6914 0
M  V30 1646 N 152.244 -1.26651 -0.937939 0
M  V30 1647 C 153.66 -1.03834 -1.21205 0
M  V30 1648 C 153.86 0.234502 -2.00131 0
M  V30 1649 O 152.916 0.942767 -2.3424 0
M  V30 1650 C 154.229 -2.27167 -1.97017 0
M  V30 1651 C 155.777 -2.32101 -2.09996 0
M  V30 1652 C 156.252 -3.55136 -2.8921 0
M  V30 1653 N 157.743 -3.55632 -2.96783 0
M  V30 1654 C 158.478 -4.475 -3.58512 0
M  V30 1655 N 157.974 -5.4966 -4.21717 0
M  V30 1656 N 159.767 -4.35145 -3.55816 0
M  V30 1657 H 151.918 -2.08398 -0.410391 0
M  V30 1658 H 154.181 -0.916031 -0.244114 0
M  V30 1659 H 153.887 -3.19765 -1.46434 0
M  V30 1660 H 153.761 -2.31672 -2.97671 0
M  V30 1661 H 156.148 -1.40015 -2.59769 0
M  V30 1662 H 156.229 -2.31605 -1.08594 0
M  V30 1663 H 155.873 -4.47553 -2.40123 0
M  V30 1664 H 155.803 -3.5288 -3.90875 0
M  V30 1665 H 158.294 -2.81743 -2.51852 0
M  V30 1666 H 158.607 -6.15943 -4.66727 0
M  V30 1667 H 156.952 -5.53514 -4.20294 0
M  V30 1668 H 160.143 -3.5455 -3.05634 0
M  V30 1669 H 160.316 -5.06934 -4.03636 0
M  V30 1670 N 153.722 1.14298 -1.08507 0
M  V30 1671 C 154.669 2.19414 -0.715965 0
M  V30 1672 C 155.639 1.63399 0.298326 0
M  V30 1673 O 156.824 1.89929 0.182101 0
M  V30 1674 C 153.964 3.44845 -0.132534 0
M  V30 1675 C 153.077 4.15007 -1.19973 0
M  V30 1676 C 152.212 5.28024 -0.580048 0
M  V30 1677 C 151.251 5.9002 -1.62921 0
M  V30 1678 N 150.388 6.94485 -1.03125 0
M  V30 1679 H 155.228 2.50336 -1.61666 0
M  V30 1680 H 152.765 1.2293 -0.807882 0
M  V30 1681 H 154.723 4.16601 0.223454 0
M  V30 1682 H 153.353 3.14403 0.731467 0
M  V30 1683 H 152.405 3.41629 -1.67313 0
M  V30 1684 H 153.717 4.57178 -1.99473 0
M  V30 1685 H 152.871 6.06455 -0.172364 0
M  V30 1686 H 151.61 4.87076 0.246603 0
M  V30 1687 H 150.615 5.10291 -2.04654 0
M  V30 1688 H 151.84 6.33042 -2.45835 0
M  V30 1689 H 149.786 6.55612 -0.225711 0
M  V30 1690 H 149.703 7.35148 -1.76334 0
M  V30 1691 H 150.971 7.7679 -0.649458 0
M  V30 1692 N 155.201 0.870884 1.31352 0
M  V30 1693 C 156.478 0.402907 1.91405 0
M  V30 1694 C 156.858 -1.11512 1.79244 0
M  V30 1695 O 156.206 -1.94411 1.2007 0
M  V30 1696 C 156.416 0.885301 3.37585 0
M  V30 1697 C 157.764 0.911971 4.14691 0
M  V30 1698 O 158.788 0.831016 3.46371 0
M  V30 1699 O 157.647 1.02927 5.3672 0
M  V30 1700 H 154.741 0.120698 0.818145 0
M  V30 1701 H 157.287 0.958857 1.40014 0
M  V30 1702 H 156.059 1.92889 3.40455 0
M  V30 1703 H 155.682 0.307714 3.96407 0
M  V30 1704 N 156.679 -1.44442 0.630414 0
M  V30 1705 C 157.927 -2.01653 0.134351 0
M  V30 1706 C 158.248 -1.49836 -1.24796 0
M  V30 1707 O 157.518 -0.701684 -1.82902 0
M  V30 1708 H 156.098 -0.74554 0.0466769 0
M  V30 1709 H 158.76 -1.76952 0.816955 0
M  V30 1710 H 157.856 -3.11935 0.101498 0
M  V30 1711 N 158.157 -0.370918 -1.53173 0
M  V30 1712 C 159.404 0.217102 -2.01333 0
M  V30 1713 C 159.732 1.48338 -1.25802 0
M  V30 1714 O 158.987 1.92698 -0.34146 0
M  V30 1715 C 159.286 0.549696 -3.53147 0
M  V30 1716 C 158.952 -0.622872 -4.46577 0
M  V30 1717 C 157.614 -0.944595 -4.71838 0
M  V30 1718 C 159.966 -1.40819 -5.01816 0
M  V30 1719 C 157.294 -2.05351 -5.49589 0
M  V30 1720 C 159.646 -2.50757 -5.80778 0
M  V30 1721 C 158.31 -2.83458 -6.04324 0
M  V30 1722 H 157.58 0.0794431 -0.736729 0
M  V30 1723 H 160.227 -0.504481 -1.84736 0
M  V30 1724 H 158.532 1.35237 -3.6772 0
M  V30 1725 H 160.229 1.017 -3.87889 0
M  V30 1726 H 156.819 -0.36209 -4.27068 0
M  V30 1727 H 161.003 -1.17289 -4.82242 0
M  V30 1728 H 156.259 -2.3108 -5.6605 0
M  V30 1729 H 160.433 -3.12022 -6.22588 0
M  V30 1730 H 158.06 -3.69508 -6.64355 0
M  V30 1731 N 159.635 1.57281 -0.100228 0
M  V30 1732 C 160.881 1.94826 0.563101 0
M  V30 1733 C 161.214 0.982475 1.67514 0
M  V30 1734 O 160.489 0.0164069 1.94493 0
M  V30 1735 C 160.772 3.42453 1.11346 0
M  V30 1736 C 160.625 4.498 0.00612081 0
M  V30 1737 C 161.944 3.91506 2.01024 0
M  V30 1738 H 159.063 0.708428 0.203221 0
M  V30 1739 H 161.705 1.8922 -0.171979 0
M  V30 1740 H 159.855 3.47361 1.7399 0
M  V30 1741 H 161.527 4.57 -0.628357 0
M  V30 1742 H 159.77 4.28756 -0.659581 0
M  V30 1743 H 160.441 5.50306 0.432109 0
M  V30 1744 H 162.917 3.88784 1.48278 0
M  V30 1745 H 161.793 4.95358 2.36457 0
M  V30 1746 H 162.054 3.31099 2.92961 0
M  V30 1747 N 161.113 -0.173488 1.56642 0
M  V30 1748 C 162.06 -1.21482 1.96242 0
M  V30 1749 C 163.03 -1.44104 0.826027 0
M  V30 1750 O 164.215 -1.5688 1.08597 0
M  V30 1751 C 161.355 -2.54964 2.32567 0
M  V30 1752 C 160.468 -2.39739 3.59373 0
M  V30 1753 C 159.603 -3.66072 3.84921 0
M  V30 1754 C 158.642 -3.45771 5.05083 0
M  V30 1755 N 157.779 -4.64169 5.26775 0
M  V30 1756 H 162.619 -0.870123 2.85014 0
M  V30 1757 H 160.156 -0.418245 1.41029 0
M  V30 1758 H 162.114 -3.32758 2.5165 0
M  V30 1759 H 160.744 -2.87433 1.46908 0
M  V30 1760 H 159.796 -1.53131 3.48217 0
M  V30 1761 H 161.108 -2.20683 4.47326 0
M  V30 1762 H 160.262 -4.52303 4.0436 0
M  V30 1763 H 159.001 -3.88105 2.9534 0
M  V30 1764 H 158.006 -2.57927 4.85545 0
M  V30 1765 H 159.231 -3.25163 5.96193 0
M  V30 1766 H 157.177 -4.86425 4.40144 0
M  V30 1767 H 157.094 -4.48019 6.08946 0
M  V30 1768 H 158.362 -5.51689 5.5069 0
M  V30 1769 N 162.591 -1.51276 -0.441967 0
M  V30 1770 C 163.839 -1.63392 -1.18943 0
M  V30 1771 C 164.16 -0.350159 -1.9183 0
M  V30 1772 O 163.43 0.633784 -1.85364 0
M  V30 1773 H 162.01 -0.602164 -0.442049 0
M  V30 1774 H 164.672 -1.88186 -0.507165 0
M  V30 1775 H 163.768 -2.45934 -1.92154 0
M  V30 1776 N 164.069 0.697108 -1.41344 0
M  V30 1777 C 165.318 1.45279 -1.39918 0
M  V30 1778 C 165.631 1.95597 -0.0109624 0
M  V30 1779 O 166.837 2.71208 0.125919 0
M  V30 1780 C 165.293 2.62695 -2.46007 0
M  V30 1781 C 164.901 2.19169 -3.90729 0
M  V30 1782 C 166.645 3.40336 -2.53715 0
M  V30 1783 C 164.552 3.33535 -4.88373 0
M  V30 1784 H 163.482 0.545692 -0.520323 0
M  V30 1785 H 166.133 0.756929 -1.67161 0
M  V30 1786 H 164.515 3.34541 -2.11892 0
M  V30 1787 H 165.689 1.54623 -4.34083 0
M  V30 1788 H 164.004 1.54525 -3.86666 0
M  V30 1789 H 166.601 4.2547 -3.2385 0
M  V30 1790 H 166.944 3.85418 -1.5735 0
M  V30 1791 H 167.477 2.75546 -2.86913 0
M  V30 1792 H 164.216 2.93468 -5.86137 0
M  V30 1793 H 163.736 3.96936 -4.49668 0
M  V30 1794 H 165.415 3.99335 -5.09059 0
M  V30 1795 N 165.547 1.27147 0.931209 0
M  V30 1796 C 166.795 1.13055 1.6752 0
M  V30 1797 C 167.116 -0.324791 1.92276 0
M  V30 1798 O 166.386 -1.22775 1.52654 0
M  V30 1799 H 164.966 0.415391 0.620854 0
M  V30 1800 H 167.628 1.59623 1.11833 0
M  V30 1801 H 166.724 1.65694 2.64485 0
M  V30 1802 N 167.025 -1.13721 1.09112 0
M  V30 1803 C 168.302 -1.81155 0.737706 0
M  V30 1804 C 168.682 -1.96253 -0.777683 0
M  V30 1805 O 168.03 -1.52807 -1.69889 0
M  V30 1806 C 168.24 -3.16392 1.47299 0
M  V30 1807 C 169.588 -3.91787 1.63671 0
M  V30 1808 O 170.612 -3.26005 1.43524 0
M  V30 1809 O 169.471 -5.0977 1.96969 0
M  V30 1810 H 166.565 -0.783518 0.26463 0
M  V30 1811 H 169.111 -1.20676 1.19312 0
M  V30 1812 H 167.883 -3.0061 2.50498 0
M  V30 1813 H 167.506 -3.8457 1.00953 0
M  V30 1814 N 168.503 -0.877838 -1.30888 0
M  V30 1815 C 169.466 -0.344265 -2.266 0
M  V30 1816 C 170.466 0.50922 -1.52524 0
M  V30 1817 O 171.656 0.317398 -1.71284 0
M  V30 1818 C 168.788 0.510198 -3.37061 0
M  V30 1819 H 169.981 -1.1893 -2.7531 0
M  V30 1820 H 167.534 -0.654088 -1.41956 0
M  V30 1821 H 168.269 1.37612 -2.93655 0
M  V30 1822 H 168.054 -0.101047 -3.9197 0
M  V30 1823 H 169.544 0.875537 -4.08319 0
M  V30 1824 N 169.982 1.44106 -0.638065 0
M  V30 1825 C 170.912 2.33448 0.0494287 0
M  V30 1826 C 171.893 1.48606 0.827672 0
M  V30 1827 O 173.078 1.77308 0.792173 0
M  V30 1828 C 170.208 3.31771 1.02691 0
M  V30 1829 C 169.162 4.26485 0.359823 0
M  V30 1830 C 168.488 5.14729 1.44769 0
M  V30 1831 C 169.788 5.17056 -0.738296 0
M  V30 1832 H 171.482 2.91183 -0.696636 0
M  V30 1833 H 169.028 1.40014 -0.336456 0
M  V30 1834 H 170.981 3.93161 1.51666 0
M  V30 1835 H 169.705 2.7226 1.80395 0
M  V30 1836 H 168.364 3.66437 -0.10934 0
M  V30 1837 H 168.012 4.51566 2.21578 0
M  V30 1838 H 167.712 5.78913 1.00668 0
M  V30 1839 H 169.236 5.78991 1.93911 0
M  V30 1840 H 170.65 5.72342 -0.331354 0
M  V30 1841 H 169.047 5.89879 -1.10286 0
M  V30 1842 H 170.117 4.57652 -1.60258 0
M  V30 1843 N 171.46 0.379036 1.52974 0
M  V30 1844 C 172.876 0.0285448 1.59574 0
M  V30 1845 C 173.076 -1.45542 1.39355 0
M  V30 1846 O 172.132 -2.2187 1.20541 0
M  V30 1847 C 173.445 0.496535 2.96572 0
M  V30 1848 C 174.993 0.451909 3.0972 0
M  V30 1849 C 175.468 0.895924 4.49152 0
M  V30 1850 N 176.959 0.851522 4.55306 0
M  V30 1851 C 177.694 1.16661 5.61407 0
M  V30 1852 N 177.19 1.55166 6.752 0
M  V30 1853 N 178.983 1.08853 5.51459 0
M  V30 1854 H 171.134 1.34525 1.64367 0
M  V30 1855 H 173.397 0.550733 0.771619 0
M  V30 1856 H 173.103 1.53258 3.16552 0
M  V30 1857 H 172.977 -0.109802 3.7704 0
M  V30 1858 H 175.364 -0.575029 2.89443 0
M  V30 1859 H 175.445 1.09392 2.3123 0
M  V30 1860 H 175.089 1.92104 4.70168 0
M  V30 1861 H 175.019 0.23103 5.26093 0
M  V30 1862 H 177.51 0.568038 3.73606 0
M  V30 1863 H 177.823 1.776 7.52116 0
M  V30 1864 H 176.168 1.59044 6.76557 0
M  V30 1865 H 179.359 0.786803 4.6144 0
M  V30 1866 H 179.532 1.33742 6.34048 0
M  V30 1867 N 172.938 -1.57226 0.108567 0
M  V30 1868 C 174.184 -1.95121 -0.552761 0
M  V30 1869 C 174.517 -0.991345 -1.66991 0
M  V30 1870 O 173.792 -0.0267211 -1.94482 0
M  V30 1871 C 174.075 -3.43039 -1.09528 0
M  V30 1872 C 173.928 -4.49797 0.0177332 0
M  V30 1873 C 175.247 -3.92567 -1.98945 0
M  V30 1874 H 172.366 -0.709496 -0.199461 0
M  V30 1875 H 175.008 -1.89126 0.182011 0
M  V30 1876 H 173.158 -3.48279 -1.72146 0
M  V30 1877 H 174.83 -4.56661 0.652584 0
M  V30 1878 H 173.073 -4.284 0.682309 0
M  V30 1879 H 173.744 -5.50528 -0.402919 0
M  V30 1880 H 176.22 -3.89565 -1.46214 0
M  V30 1881 H 175.096 -4.96605 -2.33827 0
M  V30 1882 H 175.357 -3.32648 -2.91201 0
M  V30 1883 N 174.416 0.165178 -1.56732 0
M  V30 1884 C 175.326 1.22423 -2.00125 0
M  V30 1885 C 176.342 1.48084 -0.913619 0
M  V30 1886 O 177.518 1.60112 -1.22172 0
M  V30 1887 C 174.583 2.54197 -2.35764 0
M  V30 1888 C 173.644 2.36343 -3.58386 0
M  V30 1889 C 172.877 3.61834 -3.92316 0
M  V30 1890 O 173.1 4.67267 -3.27135 0
M  V30 1891 O 172.034 3.55579 -4.85641 0
M  V30 1892 H 175.86 0.885886 -2.90492 0
M  V30 1893 H 173.445 0.372518 -1.44681 0
M  V30 1894 H 175.327 3.3192 -2.59629 0
M  V30 1895 H 174.002 2.87598 -1.48557 0
M  V30 1896 H 172.909 1.56632 -3.39731 0
M  V30 1897 H 174.242 2.07865 -4.46154 0
M  V30 1898 N 175.894 1.51508 0.433938 0
M  V30 1899 C 177.171 1.54888 1.19453 0
M  V30 1900 C 177.551 0.315154 2.08734 0
M  V30 1901 O 176.899 -0.699558 2.17528 0
M  V30 1902 C 177.109 2.86467 1.99342 0
M  V30 1903 C 178.457 3.38545 2.56267 0
M  V30 1904 O 179.481 2.88041 2.0955 0
M  V30 1905 O 178.34 4.26675 3.41483 0
M  V30 1906 H 175.434 0.622863 0.544032 0
M  V30 1907 H 177.98 1.63823 0.442732 0
M  V30 1908 H 176.752 3.67718 1.33788 0
M  V30 1909 H 176.375 2.8071 2.8158 0
M  V30 1910 N 177.372 -0.689602 1.41712 0
M  V30 1911 C 178.783 -1.26973 1.36875 0
M  V30 1912 C 179.134 -1.96124 0.054748 0
M  V30 1913 O 178.259 -1.99141 -0.84687 0
M  V30 1914 C 178.854 -2.30912 2.47922 0
M  V30 1915 C 177.413 -2.84486 2.46464 0
M  V30 1916 C 176.56 -1.58603 2.27465 0
M  V30 1917 H 179.511 -0.48396 1.51141 0
M  V30 1918 H 179.532 -3.12331 2.17323 0
M  V30 1919 H 179.044 -1.80554 3.43543 0
M  V30 1920 H 177.145 -3.39005 1.54617 0
M  V30 1921 H 177.258 -3.34511 3.42986 0
M  V30 1922 H 175.622 -1.84632 1.75451 0
M  V30 1923 H 176.405 -1.10233 3.25121 0
M  V30 1924 N 178.85 -1.27639 -0.924453 0
M  V30 1925 C 179.78 -1.13166 -2.04244 0
M  V30 1926 C 180.761 -0.032256 -1.70069 0
M  V30 1927 O 181.946 -0.207328 -1.9309 0
M  V30 1928 C 179.076 -0.781496 -3.38393 0
M  V30 1929 C 178.03 -1.83449 -3.86692 0
M  V30 1930 C 177.356 -1.33822 -5.17683 0
M  V30 1931 C 178.656 -3.23917 -4.09726 0
M  V30 1932 H 180.35 -2.06689 -2.1661 0
M  V30 1933 H 177.896 -0.995136 -1.04082 0
M  V30 1934 H 179.849 -0.667057 -4.16087 0
M  V30 1935 H 178.573 0.189439 -3.2605 0
M  V30 1936 H 177.232 -1.93789 -3.11193 0
M  V30 1937 H 176.88 -0.35665 -5.01734 0
M  V30 1938 H 176.58 -2.04224 -5.50968 0
M  V30 1939 H 178.104 -1.23679 -5.97943 0
M  V30 1940 H 179.518 -3.16559 -4.77978 0
M  V30 1941 H 177.915 -3.92059 -4.54324 0
M  V30 1942 H 178.985 -3.68729 -3.14908 0
M  V30 1943 N 180.328 1.1314 -1.09713 0
M  V30 1944 C 181.576 1.84119 -0.833338 0
M  V30 1945 C 181.897 1.84097 0.642904 0
M  V30 1946 O 181.167 1.29881 1.46655 0
M  V30 1947 H 179.747 0.681766 -0.305293 0
M  V30 1948 H 182.409 1.37038 -1.38588 0
M  V30 1949 H 181.505 2.88543 -1.18951 0
M  V30 1950 N 181.806 0.884767 1.30421 0
M  V30 1951 C 183.053 0.503105 1.96151 0
M  V30 1952 C 183.381 -0.947676 1.69851 0
M  V30 1953 O 182.636 -1.68467 0.995861 0
M  V30 1954 C 182.935 0.724318 3.49983 0
M  V30 1955 C 182.601 2.15015 3.96332 0
M  V30 1956 C 181.263 2.54005 4.08699 0
M  V30 1957 C 183.615 3.07936 4.20505 0
M  V30 1958 C 180.943 3.85128 4.42599 0
M  V30 1959 C 183.295 4.3859 4.55874 0
M  V30 1960 C 181.959 4.77474 4.66449 0
M  V30 1961 H 181.229 0.184099 0.717766 0
M  V30 1962 H 183.876 1.12058 1.55291 0
M  V30 1963 H 182.181 0.0238086 3.91793 0
M  V30 1964 H 183.878 0.408617 3.98913 0
M  V30 1965 H 180.468 1.8375 3.87213 0
M  V30 1966 H 184.652 2.79033 4.10431 0
M  V30 1967 H 179.908 4.14996 4.48986 0
M  V30 1968 H 184.082 5.10629 4.7353 0
M  V30 1969 H 181.709 5.79115 4.92473 0
M  V30 1970 N 183.284 -1.43765 0.645699 0
M  V30 1971 C 184.695 -1.85193 0.236719 0
M  V30 1972 C 185.046 -1.54045 -1.21509 0
M  V30 1973 O 184.171 -0.985694 -1.92647 0
M  V30 1974 C 184.766 -3.36151 0.422845 0
M  V30 1975 C 183.325 -3.76338 0.0682492 0
M  V30 1976 C 182.472 -2.67538 0.729306 0
M  V30 1977 H 185.423 -1.34025 0.849883 0
M  V30 1978 H 185.444 -3.79032 -0.333904 0
M  V30 1979 H 184.956 -3.5879 1.47958 0
M  V30 1980 H 183.057 -3.59312 -0.986179 0
M  V30 1981 H 183.17 -4.76603 0.488469 0
M  V30 1982 H 181.534 -2.54176 0.163235 0
M  V30 1983 H 182.317 -2.93006 1.78892 0
M  V30 1984 N 184.763 -0.387143 -1.52771 0
M  V30 1985 C 185.993 0.195585 -2.05672 0
M  V30 1986 C 186.401 1.41241 -1.25887 0
M  V30 1987 O 185.744 1.81265 -0.298081 0
M  V30 1988 C 185.806 0.632327 -3.53895 0
M  V30 1989 C 185.47 -0.470739 -4.54569 0
M  V30 1990 C 186.467 -1.32746 -5.02667 0
M  V30 1991 C 184.152 -0.637151 -4.98243 0
M  V30 1992 C 186.146 -2.33574 -5.93061 0
M  V30 1993 C 183.833 -1.64877 -5.88438 0
M  V30 1994 C 184.831 -2.49649 -6.35739 0
M  V30 1995 O 184.519 -3.49082 -7.24153 0
M  V30 1996 H 184.251 0.033658 -0.675162 0
M  V30 1997 H 186.805 -0.550221 -1.97893 0
M  V30 1998 H 185.035 1.43008 -3.59285 0
M  V30 1999 H 186.724 1.14048 -3.89548 0
M  V30 2000 H 187.49 -1.21019 -4.69659 0
M  V30 2001 H 183.369 0.0129567 -4.60998 0
M  V30 2002 H 186.913 -2.99777 -6.29904 0
M  V30 2003 H 182.81 -1.76643 -6.2086 0
M  V30 2004 H 183.578 -3.45065 -7.42208 0
M  V30 2005 N 186.241 1.57166 -0.116904 0
M  V30 2006 C 187.151 2.18745 0.847812 0
M  V30 2007 C 188.167 1.163 1.29423 0
M  V30 2008 O 189.343 1.48761 1.35765 0
M  V30 2009 C 186.408 2.77307 2.0809 0
M  V30 2010 C 185.469 3.94781 1.68661 0
M  V30 2011 C 184.702 4.50541 2.86091 0
M  V30 2012 O 184.925 4.05202 4.01456 0
M  V30 2013 O 183.859 5.41256 2.63298 0
M  V30 2014 H 187.685 3.01632 0.353778 0
M  V30 2015 H 185.27 1.49005 0.108599 0
M  V30 2016 H 187.152 3.14647 2.80313 0
M  V30 2017 H 185.827 1.97452 2.56504 0
M  V30 2018 H 184.734 3.62214 0.935518 0
M  V30 2019 H 186.067 4.76065 1.24991 0
M  V30 2020 N 187.719 -0.156864 1.56817 0
M  V30 2021 C 188.966 -0.871125 1.82805 0
M  V30 2022 C 189.294 -1.81611 0.696262 0
M  V30 2023 O 188.549 -1.93141 -0.315459 0
M  V30 2024 C 188.848 -1.68737 3.1506 0
M  V30 2025 C 188.514 -0.890045 4.42028 0
M  V30 2026 C 187.176 -0.670042 4.76512 0
M  V30 2027 C 189.528 -0.331769 5.20143 0
M  V30 2028 C 186.856 0.119104 5.86579 0
M  V30 2029 C 189.208 0.444365 6.31037 0
M  V30 2030 C 187.872 0.675035 6.64078 0
M  V30 2031 H 187.142 -0.318767 0.668931 0
M  V30 2032 H 189.789 -0.135274 1.91022 0
M  V30 2033 H 188.094 -2.49304 3.0225 0
M  V30 2034 H 189.791 -2.24331 3.3238 0
M  V30 2035 H 186.381 -1.07157 4.14988 0
M  V30 2036 H 190.565 -0.489043 4.93885 0
M  V30 2037 H 185.821 0.307417 6.10627 0
M  V30 2038 H 189.995 0.884139 6.90765 0
M  V30 2039 H 187.622 1.28839 7.49203 0
M  V30 2040 N 189.197 -1.51736 -0.425897 0
M  V30 2041 C 190.444 -1.6497 -1.17436 0
M  V30 2042 C 190.772 -0.371445 -1.9092 0
M  V30 2043 O 190.027 0.644963 -1.84767 0
M  V30 2044 C 190.326 -2.81103 -2.20717 0
M  V30 2045 C 189.992 -4.19954 -1.64162 0
M  V30 2046 C 188.654 -4.57725 -1.48462 0
M  V30 2047 C 191.006 -5.06552 -1.22696 0
M  V30 2048 C 188.334 -5.79789 -0.897873 0
M  V30 2049 C 190.686 -6.29205 -0.654464 0
M  V30 2050 C 189.35 -6.6574 -0.484456 0
M  V30 2051 H 188.62 -0.603668 -0.429727 0
M  V30 2052 H 191.267 -1.85798 -0.463829 0
M  V30 2053 H 189.572 -2.54542 -2.97852 0
M  V30 2054 H 191.269 -2.8854 -2.78471 0
M  V30 2055 H 187.859 -3.90181 -1.77361 0
M  V30 2056 H 192.043 -4.77968 -1.33642 0
M  V30 2057 H 187.299 -6.06733 -0.75402 0
M  V30 2058 H 191.473 -6.95643 -0.324694 0
M  V30 2059 H 189.1 -7.60195 -0.0276833 0
M  V30 2060 N 190.675 0.682077 -1.42076 0
M  V30 2061 C 191.922 1.44215 -1.42156 0
M  V30 2062 C 192.25 1.94468 -0.0354186 0
M  V30 2063 O 191.505 1.70816 0.955002 0
M  V30 2064 C 191.804 2.66036 -2.38662 0
M  V30 2065 C 191.47 2.34366 -3.85206 0
M  V30 2066 C 190.132 2.25439 -4.25124 0
M  V30 2067 C 192.484 2.08513 -4.77673 0
M  V30 2068 C 189.812 1.88775 -5.55501 0
M  V30 2069 C 192.164 1.73354 -6.08384 0
M  V30 2070 C 190.828 1.62933 -6.47309 0
M  V30 2071 H 190.098 0.527718 -0.520187 0
M  V30 2072 H 192.745 0.778387 -1.74967 0
M  V30 2073 H 191.05 3.3741 -1.99152 0
M  V30 2074 H 192.747 3.24205 -2.35991 0
M  V30 2075 H 189.337 2.42213 -3.53597 0
M  V30 2076 H 193.521 2.14346 -4.47626 0
M  V30 2077 H 188.777 1.7927 -5.84527 0
M  V30 2078 H 192.951 1.52373 -6.79526 0
M  V30 2079 H 190.578 1.34292 -7.48244 0
M  V30 2080 N 192.153 1.28127 0.917671 0
M  V30 2081 C 193.063 1.13556 2.05286 0
M  V30 2082 C 194.079 0.0630914 1.73886 0
M  V30 2083 O 195.255 0.271598 1.9956 0
M  V30 2084 C 192.32 0.794676 3.3747 0
M  V30 2085 C 191.381 1.94909 3.82504 0
M  V30 2086 C 190.614 1.62437 5.0838 0
M  V30 2087 O 190.837 0.536905 5.67867 0
M  V30 2088 O 189.771 2.46677 5.4903 0
M  V30 2089 H 193.597 2.08844 2.20495 0
M  V30 2090 H 191.182 1.07409 1.03845 0
M  V30 2091 H 193.064 0.618344 4.16839 0
M  V30 2092 H 191.739 -0.128581 3.23445 0
M  V30 2093 H 190.646 2.18055 3.03978 0
M  V30 2094 H 191.979 2.85291 4.01086 0
M  V30 2095 N 193.631 -1.12557 1.10312 0
M  V30 2096 C 194.859 -1.87864 0.866873 0
M  V30 2097 C 195.274 -1.79588 -0.582557 0
M  V30 2098 O 194.631 -1.16887 -1.40156 0
M  V30 2099 C 194.682 -3.37125 1.30496 0
M  V30 2100 O 194.403 -3.45201 2.69755 0
M  V30 2101 C 195.904 -4.29373 1.10243 0
M  V30 2102 H 193.124 -0.594452 0.311236 0
M  V30 2103 H 195.668 -1.42429 1.46745 0
M  V30 2104 H 193.823 -3.80109 0.748081 0
M  V30 2105 H 194.237 -4.38056 2.88457 0
M  V30 2106 H 195.711 -5.32394 1.45811 0
M  V30 2107 H 196.188 -4.39181 0.0409492 0
M  V30 2108 H 196.794 -3.92169 1.64571 0
M  V30 2109 N 195.109 -0.891671 -1.2995 0
M  V30 2110 C 196.337 -0.52866 -2.00032 0
M  V30 2111 C 196.752 0.884574 -1.66795 0
M  V30 2112 O 196.109 1.5827 -0.908669 0
M  V30 2113 C 196.16 -0.701814 -3.54622 0
M  V30 2114 O 195.881 -2.05942 -3.86678 0
M  V30 2115 C 197.382 -0.342683 -4.41973 0
M  V30 2116 H 194.602 -0.203659 -0.639347 0
M  V30 2117 H 197.146 -1.19881 -1.65677 0
M  V30 2118 H 195.301 -0.0789468 -3.8732 0
M  V30 2119 H 195.715 -2.08291 -4.81368 0
M  V30 2120 H 197.189 -0.514709 -5.49595 0
M  V30 2121 H 197.666 0.71975 -4.33262 0
M  V30 2122 H 198.272 -0.942154 -4.14733 0
M  V30 2123 N 196.587 1.43421 -0.653314 0
M  V30 2124 C 197.537 2.2792 0.060558 0
M  V30 2125 C 198.521 1.39906 0.794677 0
M  V30 2126 O 199.713 1.63536 0.677128 0
M  V30 2127 C 196.842 3.27603 1.0262 0
M  V30 2128 C 195.928 4.23104 0.290551 0
M  V30 2129 N 196.319 5.01031 -0.692967 0
M  V30 2130 C 194.617 4.42816 0.531984 0
M  V30 2131 C 195.318 5.70626 -1.12963 0
M  V30 2132 N 194.294 5.41617 -0.463867 0
M  V30 2133 H 198.096 2.85585 -0.694143 0
M  V30 2134 H 195.61 1.55126 -0.480602 0
M  V30 2135 H 197.607 3.86918 1.55242 0
M  V30 2136 H 196.267 2.71499 1.78096 0
M  V30 2137 H 197.278 5.0669 -1.07169 0
M  V30 2138 H 193.955 3.97782 1.26791 0
M  V30 2139 H 195.345 6.4318 -1.94343 0
M  V30 2140 N 198.065 0.39524 1.52563 0
M  V30 2141 C 199.311 -0.185318 2.01952 0
M  V30 2142 C 199.644 -1.45964 1.28095 0
M  V30 2143 O 198.919 -1.90689 0.38315 0
M  V30 2144 C 199.202 -0.447193 3.57312 0
M  V30 2145 C 199.055 0.842828 4.41833 0
M  V30 2146 C 200.374 -1.23529 4.22408 0
M  V30 2147 H 197.493 -0.0658788 0.73405 0
M  V30 2148 H 200.135 0.525975 1.82575 0
M  V30 2149 H 198.285 -1.05312 3.73954 0
M  V30 2150 H 199.957 1.4795 4.36931 0
M  V30 2151 H 198.2 1.45686 4.08605 0
M  V30 2152 H 198.871 0.614165 5.48573 0
M  V30 2153 H 201.347 -0.722445 4.0978 0
M  V30 2154 H 200.223 -1.38727 5.3108 0
M  V30 2155 H 200.484 -2.25213 3.80436 0
M  V30 2156 N 199.544 -1.57102 0.125237 0
M  V30 2157 C 200.454 -2.19191 -0.8362 0
M  V30 2158 C 201.47 -1.16985 -1.28805 0
M  V30 2159 O 202.646 -1.49479 -1.34974 0
M  V30 2160 C 199.711 -2.78407 -2.06617 0
M  V30 2161 C 198.772 -3.9567 -1.66565 0
M  V30 2162 C 198.005 -4.52052 -2.83698 0
M  V30 2163 O 198.228 -4.07326 -3.99302 0
M  V30 2164 O 197.162 -5.42645 -2.60423 0
M  V30 2165 H 200.988 -3.01816 -0.337776 0
M  V30 2166 H 198.573 -1.4906 -0.100695 0
M  V30 2167 H 200.455 -3.16129 -2.7864 0
M  V30 2168 H 199.13 -1.9881 -2.55453 0
M  V30 2169 H 198.037 -3.62705 -0.916296 0
M  V30 2170 H 199.37 -4.76722 -1.22464 0
M  V30 2171 N 201.022 0.148545 -1.56898 0
M  V30 2172 C 202.438 0.501131 -1.51528 0
M  V30 2173 C 202.638 1.83458 -0.833399 0
M  V30 2174 O 201.694 2.49259 -0.40328 0
M  V30 2175 C 203.007 0.512864 -2.96294 0
M  V30 2176 C 204.555 0.598487 -3.07225 0
M  V30 2177 C 205.03 0.640897 -4.53494 0
M  V30 2178 N 206.521 0.703163 -4.57832 0
M  V30 2179 C 207.256 0.756935 -5.68382 0
M  V30 2180 N 206.752 0.770147 -6.88506 0
M  V30 2181 N 208.545 0.797698 -5.56411 0
M  V30 2182 H 200.696 -0.725532 -1.99624 0
M  V30 2183 H 202.959 -0.264358 -0.910395 0
M  V30 2184 H 202.665 -0.398691 -3.49433 0
M  V30 2185 H 202.539 1.35133 -3.52163 0
M  V30 2186 H 204.926 1.50046 -2.54106 0
M  V30 2187 H 205.007 -0.267093 -2.54402 0
M  V30 2188 H 204.651 -0.256915 -5.0725 0
M  V30 2189 H 204.581 1.52295 -5.04097 0
M  V30 2190 H 207.072 0.700314 -3.71354 0
M  V30 2191 H 207.385 0.812983 -7.68512 0
M  V30 2192 H 205.73 0.738049 -6.9107 0
M  V30 2193 H 208.921 0.784535 -4.61479 0
M  V30 2194 H 209.094 0.83614 -6.42583 0
M  V30 2195 N 202.5 1.5196 0.417844 0
M  V30 2196 C 203.43 1.77634 1.51554 0
M  V30 2197 C 204.411 0.626918 1.58126 0
M  V30 2198 O 205.596 0.871632 1.7354 0
M  V30 2199 C 202.726 1.91911 2.8946 0
M  V30 2200 C 201.68 3.07463 2.97743 0
M  V30 2201 C 201.006 3.06951 4.37819 0
M  V30 2202 C 202.306 4.47082 2.70027 0
M  V30 2203 H 204 2.6955 1.3032 0
M  V30 2204 H 201.546 1.29706 0.625492 0
M  V30 2205 H 203.499 2.08455 3.6623 0
M  V30 2206 H 202.223 0.966598 3.11969 0
M  V30 2207 H 200.882 2.90656 2.23416 0
M  V30 2208 H 200.53 2.09438 4.57323 0
M  V30 2209 H 200.23 3.84556 4.44286 0
M  V30 2210 H 201.754 3.25613 5.16535 0
M  V30 2211 H 203.168 4.6414 3.36522 0
M  V30 2212 H 201.565 5.2654 2.87881 0
M  V30 2213 H 202.635 4.55777 1.65514 0
M  V30 2214 N 203.978 -0.674533 1.42435 0
M  V30 2215 C 204.928 -1.7807 1.4239 0
M  V30 2216 C 205.912 -1.58169 0.295202 0
M  V30 2217 O 207.104 -1.68643 0.537449 0
M  V30 2218 C 204.233 -3.16532 1.32901 0
M  V30 2219 C 203.319 -3.42055 2.50717 0
M  V30 2220 N 203.71 -3.38162 3.76139 0
M  V30 2221 C 202.008 -3.72692 2.44983 0
M  V30 2222 C 202.709 -3.63177 4.54398 0
M  V30 2223 N 201.685 -3.83954 3.84812 0
M  V30 2224 H 205.487 -1.73454 2.37257 0
M  V30 2225 H 203.001 -0.875381 1.36788 0
M  V30 2226 H 204.998 -3.958 1.30951 0
M  V30 2227 H 203.658 -3.22345 0.390363 0
M  V30 2228 H 204.669 -3.18057 4.0873 0
M  V30 2229 H 201.346 -3.85749 1.59699 0
M  V30 2230 H 202.736 -3.66125 5.63384 0
M  V30 2231 N 205.456 -1.28612 -0.910864 0
M  V30 2232 C 206.389 -1.07109 -2.01502 0
M  V30 2233 C 207.367 0.013706 -1.62594 0
M  V30 2234 O 208.551 -0.134796 -1.88017 0
M  V30 2235 C 205.678 -0.628255 -3.32822 0
M  V30 2236 C 204.724 -1.71012 -3.90714 0
M  V30 2237 S 205.557 -3.30676 -4.21205 0
M  V30 2238 C 206.713 -2.88234 -5.55583 0
M  V30 2239 H 206.946 -2.00591 -2.19432 0
M  V30 2240 H 204.479 -1.12633 -1.05609 0
M  V30 2241 H 206.437 -0.37946 -4.08742 0
M  V30 2242 H 205.098 0.28678 -3.12788 0
M  V30 2243 H 204.291 -1.35195 -4.85529 0
M  V30 2244 H 203.893 -1.91186 -3.21441 0
M  V30 2245 H 206.185 -2.34584 -6.35591 0
M  V30 2246 H 207.128 -3.81857 -5.96314 0
M  V30 2247 H 207.536 -2.26862 -5.16908 0
M  V30 2248 N 206.934 1.1197 -1.10907 0
M  V30 2249 C 208.35 1.35591 -0.841852 0
M  V30 2250 C 208.55 1.94233 0.536246 0
M  V30 2251 O 207.606 2.1717 1.28816 0
M  V30 2252 C 208.919 2.29284 -1.94549 0
M  V30 2253 C 210.467 2.42862 -1.97451 0
M  V30 2254 C 210.942 3.39873 -3.07002 0
M  V30 2255 N 212.433 3.47433 -3.06341 0
M  V30 2256 C 213.168 4.22421 -3.87748 0
M  V30 2257 N 212.664 5.00432 -4.79103 0
M  V30 2258 N 214.457 4.17876 -3.75946 0
M  V30 2259 H 206.608 0.722664 -1.99728 0
M  V30 2260 H 208.871 0.380635 -0.868229 0
M  V30 2261 H 208.577 1.93378 -2.93765 0
M  V30 2262 H 208.451 3.29452 -1.83688 0
M  V30 2263 H 210.838 2.78046 -0.988645 0
M  V30 2264 H 210.919 1.42566 -2.12388 0
M  V30 2265 H 210.563 3.05417 -4.05811 0
M  V30 2266 H 210.493 4.40011 -2.89306 0
M  V30 2267 H 212.984 2.91784 -2.40147 0
M  V30 2268 H 213.297 5.55002 -5.37766 0
M  V30 2269 H 211.642 4.99612 -4.83128 0
M  V30 2270 H 214.833 3.56016 -3.03924 0
M  V30 2271 H 215.006 4.76061 -4.39624 0
M  V30 2272 N 208.412 0.89855 1.29475 0
M  V30 2273 C 209.642 0.538479 1.99459 0
M  V30 2274 C 210.05 -0.880922 1.67441 0
M  V30 2275 O 209.393 -1.59283 0.915127 0
M  V30 2276 C 209.455 0.649564 3.53583 0
M  V30 2277 C 209.119 2.03573 4.09154 0
M  V30 2278 C 210.116 3.00675 4.24135 0
M  V30 2279 C 207.801 2.3448 4.44212 0
M  V30 2280 C 209.795 4.26809 4.73405 0
M  V30 2281 C 207.482 3.60857 4.93179 0
M  V30 2282 C 208.48 4.56836 5.0773 0
M  V30 2283 O 208.168 5.80969 5.55635 0
M  V30 2284 H 207.9 0.205372 0.644048 0
M  V30 2285 H 210.454 1.20958 1.66007 0
M  V30 2286 H 208.684 -0.0785592 3.8662 0
M  V30 2287 H 210.373 0.29881 4.04799 0
M  V30 2288 H 211.139 2.78112 3.97339 0
M  V30 2289 H 207.018 1.60534 4.32145 0
M  V30 2290 H 210.562 5.0173 4.84678 0
M  V30 2291 H 206.459 3.83251 5.19412 0
M  V30 2292 H 207.227 5.83542 5.73952 0
M  V30 2293 N 209.89 -1.43072 0.660911 0
M  V30 2294 C 211.167 -1.95307 0.107017 0
M  V30 2295 C 211.547 -1.60192 -1.37484 0
M  V30 2296 O 210.895 -0.890949 -2.10415 0
M  V30 2297 C 211.105 -3.47124 0.361402 0
M  V30 2298 C 212.453 -4.23738 0.270455 0
M  V30 2299 O 213.477 -3.54981 0.294382 0
M  V30 2300 O 212.336 -5.46131 0.200737 0
M  V30 2301 H 209.43 -0.826984 -0.00517729 0
M  V30 2302 H 211.976 -1.52972 0.734681 0
M  V30 2303 H 210.748 -3.65837 1.38848 0
M  V30 2304 H 210.371 -3.96475 -0.298953 0
M  V30 2305 N 211.368 -0.403325 -1.52352 0
M  V30 2306 C 212.298 0.416205 -2.29761 0
M  V30 2307 C 213.279 1.05123 -1.33728 0
M  V30 2308 O 214.464 1.06134 -1.62632 0
M  V30 2309 C 211.594 1.53624 -3.11475 0
M  V30 2310 C 210.548 1.02653 -4.15507 0
M  V30 2311 C 209.874 2.23971 -4.85532 0
M  V30 2312 C 211.174 0.08463 -5.22231 0
M  V30 2313 H 212.868 -0.229701 -2.98518 0
M  V30 2314 H 210.414 -0.111913 -1.43564 0
M  V30 2315 H 212.367 2.1165 -3.64393 0
M  V30 2316 H 211.091 2.20994 -2.40477 0
M  V30 2317 H 209.75 0.46871 -3.63591 0
M  V30 2318 H 209.398 2.89883 -4.11068 0
M  V30 2319 H 209.098 1.90521 -5.55856 0
M  V30 2320 H 210.622 2.82614 -5.41259 0
M  V30 2321 H 212.036 0.573509 -5.70424 0
M  V30 2322 H 210.433 -0.160783 -5.99885 0
M  V30 2323 H 211.503 -0.86237 -4.7717 0
M  V30 2324 N 212.846 1.57033 -0.133567 0
M  V30 2325 C 214.076 1.99754 0.527429 0
M  V30 2326 C 214.484 1.01245 1.59832 0
M  V30 2327 O 213.827 -0.000645496 1.837 0
M  V30 2328 C 213.889 3.38903 1.19939 0
M  V30 2329 C 213.553 4.56174 0.274709 0
M  V30 2330 C 214.55 5.17563 -0.492398 0
M  V30 2331 C 212.235 5.01972 0.18153 0
M  V30 2332 C 214.229 6.2315 -1.34027 0
M  V30 2333 C 211.916 6.07416 -0.669958 0
M  V30 2334 C 212.914 6.67874 -1.42947 0
M  V30 2335 O 212.602 7.71279 -2.2668 0
M  V30 2336 H 212.334 0.660702 0.142999 0
M  V30 2337 H 214.888 2.04207 -0.221099 0
M  V30 2338 H 213.118 3.31248 1.99528 0
M  V30 2339 H 214.807 3.65818 1.75875 0
M  V30 2340 H 215.573 4.83087 -0.430367 0
M  V30 2341 H 211.452 4.54652 0.762422 0
M  V30 2342 H 214.996 6.70268 -1.93357 0
M  V30 2343 H 210.893 6.41321 -0.73333 0
M  V30 2344 H 211.661 7.88441 -2.1978 0
M  V30 2345 N 214.325 -0.140222 1.56975 0
M  V30 2346 C 215.55 -0.870414 1.88251 0
M  V30 2347 C 215.975 -1.73637 0.723312 0
M  V30 2348 O 215.333 -1.78329 -0.32689 0
M  V30 2349 C 215.381 -1.69737 3.18154 0
M  V30 2350 O 214.485 -2.80229 3.02565 0
M  V30 2351 H 213.826 -0.242025 0.61832 0
M  V30 2352 H 216.356 -0.128999 2.04193 0
M  V30 2353 H 216.366 -2.09099 3.50345 0
M  V30 2354 H 215.041 -1.06152 4.02125 0
M  V30 2355 H 213.618 -2.44224 2.81796 0
M  V30 2356 N 215.803 -1.52179 -0.40978 0
M  V30 2357 C 216.766 -1.74853 -1.48186 0
M  V30 2358 C 217.766 -0.618417 -1.48433 0
M  V30 2359 O 218.956 -0.886286 -1.49969 0
M  V30 2360 C 216.088 -1.8303 -2.87598 0
M  V30 2361 H 217.281 -2.70559 -1.29374 0
M  V30 2362 H 214.834 -1.42586 -0.640233 0
M  V30 2363 H 215.569 -0.89236 -3.11781 0
M  V30 2364 H 215.354 -2.65187 -2.88822 0
M  V30 2365 H 216.844 -2.02316 -3.65319 0
M  V30 2366 N 217.281 0.66697 -1.42791 0
M  V30 2367 C 218.529 1.42417 -1.43394 0
M  V30 2368 C 218.85 1.94925 -0.0542373 0
M  V30 2369 O 218.12 1.73564 0.908415 0
M  V30 2370 H 216.7 0.528515 -0.527902 0
M  V30 2371 H 219.362 0.787562 -1.78279 0
M  V30 2372 H 218.458 2.27333 -2.13837 0
M  V30 2373 N 218.759 1.29093 0.90403 0
M  V30 2374 C 219.669 1.15727 2.0407 0
M  V30 2375 C 220.685 0.0815308 1.73809 0
M  V30 2376 O 221.861 0.292749 1.99261 0
M  V30 2377 C 218.926 0.830424 3.36608 0
M  V30 2378 C 217.987 1.98955 3.80415 0
M  V30 2379 C 217.22 1.6782 5.06628 0
M  V30 2380 O 217.443 0.597105 5.67266 0
M  V30 2381 O 216.377 2.52486 5.46383 0
M  V30 2382 H 220.203 2.11171 2.18267 0
M  V30 2383 H 217.788 1.08504 1.027 0
M  V30 2384 H 219.67 0.662521 4.16159 0
M  V30 2385 H 218.345 -0.0942678 3.23563 0
M  V30 2386 H 217.252 2.21267 3.01648 0
M  V30 2387 H 218.585 2.89529 3.98037 0
M  V30 2388 N 220.237 -1.11381 1.11499 0
M  V30 2389 C 221.167 -2.19509 0.796125 0
M  V30 2390 C 222.148 -1.68458 -0.235796 0
M  V30 2391 O 223.333 -1.93947 -0.0991344 0
M  V30 2392 C 220.463 -3.46475 0.239205 0
M  V30 2393 C 219.417 -4.10744 1.20307 0
M  V30 2394 C 218.743 -5.32293 0.50683 0
M  V30 2395 C 220.043 -4.55597 2.55399 0
M  V30 2396 H 221.737 -2.46439 1.70024 0
M  V30 2397 H 219.283 -1.18446 0.818935 0
M  V30 2398 H 221.236 -4.214 0.00392006 0
M  V30 2399 H 219.96 -3.19006 -0.700206 0
M  V30 2400 H 218.619 -3.37813 1.42399 0
M  V30 2401 H 218.267 -5.01095 -0.437408 0
M  V30 2402 H 217.967 -5.76243 1.1497 0
M  V30 2403 H 219.491 -6.09956 0.280351 0
M  V30 2404 H 220.905 -5.21841 2.37391 0
M  V30 2405 H 219.302 -5.10363 3.15673 0
M  V30 2406 H 220.372 -3.69013 3.14575 0
M  V30 2407 N 221.715 -0.905404 -1.28997 0
M  V30 2408 C 222.961 -0.535039 -1.95615 0
M  V30 2409 C 223.294 0.917404 -1.71165 0
M  V30 2410 O 222.569 1.65123 -1.02785 0
M  V30 2411 C 222.852 -0.834918 -3.50287 0
M  V30 2412 C 222.705 -2.33948 -3.84172 0
M  V30 2413 C 224.024 -0.325318 -4.38896 0
M  V30 2414 H 221.143 -0.195861 -0.710498 0
M  V30 2415 H 223.785 -1.13313 -1.52513 0
M  V30 2416 H 221.935 -0.325904 -3.87131 0
M  V30 2417 H 223.607 -2.91847 -3.57243 0
M  V30 2418 H 221.85 -2.79789 -3.31513 0
M  V30 2419 H 222.521 -2.49987 -4.92149 0
M  V30 2420 H 224.997 -0.761256 -4.09077 0
M  V30 2421 H 223.873 -0.564295 -5.45992 0
M  V30 2422 H 224.134 0.774144 -4.35269 0
M  V30 2423 N 223.193 1.4272 -0.668489 0
M  V30 2424 C 224.609 1.55992 -0.33745 0
M  V30 2425 C 224.809 1.64933 1.15756 0
M  V30 2426 O 223.865 1.61278 1.94282 0
M  V30 2427 C 225.178 2.81314 -1.06222 0
M  V30 2428 C 226.726 2.95078 -1.04394 0
M  V30 2429 C 227.201 4.23252 -1.74991 0
M  V30 2430 N 228.692 4.3015 -1.71829 0
M  V30 2431 C 229.427 5.28127 -2.23315 0
M  V30 2432 N 228.923 6.32293 -2.83156 0
M  V30 2433 N 230.716 5.19882 -2.13726 0
M  V30 2434 H 222.867 1.3516 -1.63846 0
M  V30 2435 H 225.13 0.650174 -0.689912 0
M  V30 2436 H 224.836 2.80823 -2.11734 0
M  V30 2437 H 224.71 3.72012 -0.62344 0
M  V30 2438 H 227.097 2.951 0.0028244 0
M  V30 2439 H 227.178 2.05627 -1.52155 0
M  V30 2440 H 226.822 4.2399 -2.79633 0
M  V30 2441 H 226.752 5.11626 -1.24685 0
M  V30 2442 H 229.243 3.55499 -1.28175 0
M  V30 2443 H 229.556 7.03398 -3.20079 0
M  V30 2444 H 227.901 6.32873 -2.87223 0
M  V30 2445 H 231.092 4.37423 -1.66669 0
M  V30 2446 H 231.265 5.96077 -2.54158 0
M  V30 2447 N 224.671 0.411399 1.52136 0
M  V30 2448 C 225.601 -0.404015 2.29978 0
M  V30 2449 C 226.582 -1.04412 1.34284 0
M  V30 2450 O 227.767 -1.0527 1.63192 0
M  V30 2451 C 224.897 -1.5197 3.12286 0
M  V30 2452 C 223.851 -1.00448 4.16046 0
M  V30 2453 C 223.177 -2.21393 4.86712 0
M  V30 2454 C 224.477 -0.0569336 5.22269 0
M  V30 2455 H 226.171 0.245529 2.98392 0
M  V30 2456 H 223.717 0.119525 1.43503 0
M  V30 2457 H 225.67 -2.09715 3.6551 0
M  V30 2458 H 224.394 -2.19716 2.41646 0
M  V30 2459 H 223.053 -0.449421 3.63835 0
M  V30 2460 H 222.701 -2.87699 4.12599 0
M  V30 2461 H 222.401 -1.87571 5.56858 0
M  V30 2462 H 223.925 -2.7974 5.4275 0
M  V30 2463 H 225.339 -0.54325 5.7072 0
M  V30 2464 H 223.736 0.192594 5.99791 0
M  V30 2465 H 224.806 0.887663 4.76706 0
M  V30 2466 N 226.149 -1.5696 0.141893 0
M  V30 2467 C 227.426 -1.87553 -0.555281 0
M  V30 2468 C 227.806 -1.04699 -1.83306 0
M  V30 2469 O 227.154 -0.132346 -2.28116 0
M  V30 2470 C 227.364 -3.39093 -0.825664 0
M  V30 2471 C 228.712 -4.08199 -1.16869 0
M  V30 2472 O 229.736 -3.44242 -0.915185 0
M  V30 2473 O 228.595 -5.21139 -1.6455 0
M  V30 2474 H 225.689 -0.777188 -0.282679 0
M  V30 2475 H 228.235 -1.68763 0.17812 0
M  V30 2476 H 227.007 -3.91221 0.0788633 0
M  V30 2477 H 226.63 -3.63393 -1.61343 0
M  V30 2478 N 227.627 0.131896 -1.57047 0
M  V30 2479 C 228.577 1.1679 -1.95816 0
M  V30 2480 C 229.561 1.37756 -0.831393 0
M  V30 2481 O 230.753 1.39065 -1.09499 0
M  V30 2482 C 227.882 2.49778 -2.35512 0
M  V30 2483 C 226.968 2.32342 -3.54793 0
M  V30 2484 N 227.359 1.8469 -4.70875 0
M  V30 2485 C 225.657 2.63043 -3.60173 0
M  V30 2486 C 226.358 1.80656 -5.52936 0
M  V30 2487 N 225.334 2.24528 -4.95064 0
M  V30 2488 H 229.136 0.791818 -2.83033 0
M  V30 2489 H 226.65 0.339791 -1.58805 0
M  V30 2490 H 228.647 3.24692 -2.61498 0
M  V30 2491 H 227.307 2.88156 -1.49654 0
M  V30 2492 H 228.318 1.54429 -4.9434 0
M  V30 2493 H 224.995 3.05193 -2.84892 0
M  V30 2494 H 226.385 1.45178 -6.56028 0
M  V30 2495 N 229.106 1.52395 0.401703 0
M  V30 2496 C 230.353 1.66817 1.14796 0
M  V30 2497 C 230.681 0.401772 1.90305 0
M  V30 2498 O 229.936 -0.615487 1.85769 0
M  V30 2499 C 230.235 2.84578 2.16217 0
M  V30 2500 C 229.901 4.22513 1.5746 0
M  V30 2501 C 228.563 4.60029 1.41161 0
M  V30 2502 C 230.915 5.0844 1.14622 0
M  V30 2503 C 228.243 5.81144 0.80552 0
M  V30 2504 C 230.595 6.30167 0.55428 0
M  V30 2505 C 229.259 6.66426 0.378482 0
M  V30 2506 H 228.529 0.610428 0.420069 0
M  V30 2507 H 231.176 1.86512 0.434212 0
M  V30 2508 H 229.481 2.59248 2.93764 0
M  V30 2509 H 231.178 2.92933 2.73845 0
M  V30 2510 H 227.768 3.92953 1.71132 0
M  V30 2511 H 231.952 4.80034 1.26021 0
M  V30 2512 H 227.208 6.07855 0.657399 0
M  V30 2513 H 231.382 6.96071 0.213983 0
M  V30 2514 H 229.009 7.60143 -0.0932606 0
M  V30 2515 N 230.584 -0.659388 1.43143 0
M  V30 2516 C 231.532 -1.79374 1.4808 0
M  V30 2517 C 232.526 -1.65639 0.354988 0
M  V30 2518 O 233.732 -1.7206 0.528704 0
M  V30 2519 H 230.107 -0.591705 0.4641 0
M  V30 2520 H 232.078 -1.72329 2.43609 0
M  V30 2521 C 230.827 -3.17606 1.41499 0
M  V30 2522 H 230.15 -3.28809 2.27431 0
M  V30 2523 H 231.59 -3.96951 1.49015 0
M  V30 2524 C 230.049 -3.36642 0.131765 0
M  V30 2525 O 230.579 -3.93461 -0.809386 0
M  V30 2526 N 228.785 -2.90567 0.0439396 0
M  V30 2527 H 228.332 -2.44513 0.810619 0
M  V30 2528 H 228.29 -3.03681 -0.813969 0
M  V30 2529 N 232.062 -1.29571 -0.897171 0
M  V30 2530 C 232.994 -1.10724 -2.00681 0
M  V30 2531 C 234.007 -0.0540026 -1.6271 0
M  V30 2532 O 235.196 -0.298783 -1.75982 0
M  V30 2533 C 232.296 -0.663912 -3.32333 0
M  V30 2534 C 231.469 -1.79622 -3.98816 0
M  V30 2535 C 230.528 -1.34349 -5.0876 0
M  V30 2536 O 229.554 -2.04864 -5.31055 0
M  V30 2537 N 230.756 -0.215764 -5.80099 0
M  V30 2538 H 233.521 -2.06291 -2.17403 0
M  V30 2539 H 231.082 -1.21544 -1.06951 0
M  V30 2540 H 233.074 -0.344295 -4.03233 0
M  V30 2541 H 231.644 0.199375 -3.11964 0
M  V30 2542 H 230.864 -2.28459 -3.21248 0
M  V30 2543 H 232.152 -2.55535 -4.39976 0
M  V30 2544 H 231.55 0.372091 -5.64475 0
M  V30 2545 H 230.107 0.0444707 -6.51785 0
M  V30 2546 N 233.54 1.10788 -1.12088 0
M  V30 2547 C 234.786 1.82942 -0.875226 0
M  V30 2548 C 235.119 1.84779 0.597538 0
M  V30 2549 O 234.394 1.30578 1.44152 0
M  V30 2550 C 234.677 3.29789 -1.44606 0
M  V30 2551 C 234.53 3.36307 -2.98693 0
M  V30 2552 C 235.849 4.26064 -1.10261 0
M  V30 2553 H 232.968 0.664195 -0.319397 0
M  V30 2554 H 235.61 1.29867 -1.38689 0
M  V30 2555 H 233.76 3.75118 -1.01089 0
M  V30 2556 H 235.432 2.99487 -3.50864 0
M  V30 2557 H 233.675 2.76318 -3.34411 0
M  V30 2558 H 234.346 4.39694 -3.33726 0
M  V30 2559 H 236.822 3.88951 -1.4784 0
M  V30 2560 H 235.698 5.27183 -1.52869 0
M  V30 2561 H 235.959 4.42098 -0.0142953 0
M  V30 2562 N 235.018 0.912232 1.28515 0
M  V30 2563 C 236.246 0.560416 1.99166 0
M  V30 2564 C 236.661 -0.857927 1.68182 0
M  V30 2565 O 236.018 -1.56805 0.933733 0
M  V30 2566 C 236.069 0.758142 3.53461 0
M  V30 2567 O 235.79 2.12067 3.83352 0
M  V30 2568 C 237.291 0.412954 4.41372 0
M  V30 2569 H 234.511 0.213805 0.636026 0
M  V30 2570 H 237.055 1.22502 1.63749 0
M  V30 2571 H 235.21 0.140556 3.87145 0
M  V30 2572 H 235.624 2.15923 4.77993 0
M  V30 2573 H 237.098 0.60208 5.48707 0
M  V30 2574 H 237.575 -0.65073 4.34353 0
M  V30 2575 H 238.181 1.00802 4.13182 0
M  V30 2576 N 236.496 -1.42363 0.676048 0
M  V30 2577 C 237.907 -1.84649 0.275948 0
M  V30 2578 C 238.258 -1.56588 -1.18214 0
M  V30 2579 O 237.383 -1.02634 -1.90513 0
M  V30 2580 C 237.978 -3.35178 0.494053 0
M  V30 2581 C 236.537 -3.76109 0.148061 0
M  V30 2582 C 235.684 -2.65931 0.785891 0
M  V30 2583 H 238.635 -1.32192 0.878121 0
M  V30 2584 H 238.656 -3.79655 -0.25343 0
M  V30 2585 H 238.168 -3.55571 1.55535 0
M  V30 2586 H 236.269 -3.61323 -0.909742 0
M  V30 2587 H 236.382 -4.7546 0.589454 0
M  V30 2588 H 234.746 -2.53773 0.217113 0
M  V30 2589 H 235.529 -2.89146 1.85067 0
M  V30 2590 N 237.974 -0.419461 -1.51915 0
M  V30 2591 C 239.251 0.211999 -1.94448 0
M  V30 2592 C 239.631 1.61703 -1.35703 0
M  V30 2593 O 238.979 2.22102 -0.536931 0
M  V30 2594 C 239.189 0.207872 -3.4838 0
M  V30 2595 C 240.537 0.422192 -4.22496 0
M  V30 2596 O 241.561 0.286778 -3.55044 0
M  V30 2597 O 240.42 0.690009 -5.42126 0
M  V30 2598 H 237.514 0.139586 -0.815135 0
M  V30 2599 H 240.06 -0.476151 -1.62883 0
M  V30 2600 H 238.832 -0.775102 -3.83546 0
M  V30 2601 H 238.455 0.939688 -3.86336 0
M  V30 2602 N 239.452 1.56882 -0.150215 0
M  V30 2603 C 240.698 1.96518 0.500834 0
M  V30 2604 C 241.031 1.03527 1.64304 0
M  V30 2605 O 240.306 0.0782751 1.94342 0
M  V30 2606 C 240.589 3.45822 1.00395 0
M  V30 2607 C 240.442 4.49591 -0.136983 0
M  V30 2608 C 241.761 3.97704 1.88467 0
M  V30 2609 H 238.88 0.714535 0.18058 0
M  V30 2610 H 241.522 1.88577 -0.232091 0
M  V30 2611 H 239.672 3.5272 1.62851 0
M  V30 2612 H 241.344 4.5477 -0.77343 0
M  V30 2613 H 239.587 4.26441 -0.795652 0
M  V30 2614 H 240.258 5.51402 0.256815 0
M  V30 2615 H 242.734 3.93304 1.35834 0
M  V30 2616 H 241.61 5.0263 2.20578 0
M  V30 2617 H 241.871 3.40252 2.82279 0
M  V30 2618 N 240.93 -0.123565 1.57115 0
M  V30 2619 C 242.341 -0.681198 1.73829 0
M  V30 2620 C 242.692 -1.80535 0.768214 0
M  V30 2621 O 241.817 -2.16317 -0.0599103 0
M  V30 2622 C 242.412 -1.24246 3.15196 0
M  V30 2623 C 240.971 -1.74643 3.33432 0
M  V30 2624 C 240.118 -0.644284 2.69711 0
M  V30 2625 H 243.069 0.102315 1.5837 0
M  V30 2626 H 243.09 -2.11216 3.16493 0
M  V30 2627 H 242.602 -0.424062 3.85776 0
M  V30 2628 H 240.703 -2.58974 2.67886 0
M  V30 2629 H 240.816 -1.85902 4.41562 0
M  V30 2630 H 239.18 -1.07676 2.3082 0
M  V30 2631 H 239.963 0.163058 3.42913 0
M  V30 2632 N 242.408 -1.52605 -0.393616 0
M  V30 2633 C 243.824 -1.41753 -0.733357 0
M  V30 2634 C 244.024 -0.534293 -1.94287 0
M  V30 2635 O 243.08 -0.0059787 -2.52499 0
M  V30 2636 C 244.393 -2.84531 -0.972772 0
M  V30 2637 C 245.941 -2.93978 -1.07453 0
M  V30 2638 C 246.416 -4.37756 -1.3466 0
M  V30 2639 N 247.907 -4.4106 -1.41492 0
M  V30 2640 C 248.642 -5.49387 -1.642 0
M  V30 2641 N 248.138 -6.67806 -1.8441 0
M  V30 2642 N 249.931 -5.36923 -1.66342 0
M  V30 2643 H 242.082 -2.08555 0.402328 0
M  V30 2644 H 244.345 -0.940654 0.117789 0
M  V30 2645 H 244.051 -3.51353 -0.156204 0
M  V30 2646 H 243.925 -3.26508 -1.88871 0
M  V30 2647 H 246.312 -2.27326 -1.88167 0
M  V30 2648 H 246.393 -2.55435 -0.136605 0
M  V30 2649 H 246.037 -5.04972 -0.544581 0
M  V30 2650 H 245.967 -4.73848 -2.2973 0
M  V30 2651 H 248.458 -3.55705 -1.27601 0
M  V30 2652 H 248.771 -7.46141 -2.01231 0
M  V30 2653 H 247.116 -6.70843 -1.81644 0
M  V30 2654 H 250.307 -4.43381 -1.50102 0
M  V30 2655 H 250.48 -6.21416 -1.837 0
M  V30 2656 N 243.887 0.651787 -1.4349 0
M  V30 2657 C 245.135 1.40888 -1.44897 0
M  V30 2658 C 245.456 1.94856 -0.0749086 0
M  V30 2659 O 244.726 1.74518 0.889956 0
M  V30 2660 H 243.306 0.522887 -0.533478 0
M  V30 2661 H 245.968 0.768609 -1.79104 0
M  V30 2662 H 245.064 2.25052 -2.16236 0
M  V30 2663 N 245.365 1.30045 0.890287 0
M  V30 2664 C 246.781 1.08261 1.17268 0
M  V30 2665 C 246.981 -0.160063 2.00863 0
M  V30 2666 O 246.037 -0.855181 2.37577 0
M  V30 2667 C 247.35 2.34323 1.8845 0
M  V30 2668 C 248.898 2.39735 2.01237 0
M  V30 2669 C 249.373 3.65625 2.7583 0
M  V30 2670 N 250.864 3.66402 2.83379 0
M  V30 2671 C 251.599 4.60498 3.41657 0
M  V30 2672 N 251.095 5.64933 4.01026 0
M  V30 2673 N 252.888 4.48051 3.39421 0
M  V30 2674 H 245.039 2.09777 0.332762 0
M  V30 2675 H 247.302 0.92446 0.209948 0
M  V30 2676 H 247.008 3.2498 1.34465 0
M  V30 2677 H 246.882 2.4256 2.88867 0
M  V30 2678 H 249.269 1.4956 2.54393 0
M  V30 2679 H 249.35 2.35476 0.999232 0
M  V30 2680 H 248.994 4.56156 2.23347 0
M  V30 2681 H 248.924 3.67144 3.77509 0
M  V30 2682 H 251.415 2.90896 2.41222 0
M  V30 2683 H 251.728 6.32841 4.43545 0
M  V30 2684 H 250.073 5.68732 3.99461 0
M  V30 2685 H 253.264 3.65649 2.92264 0
M  V30 2686 H 253.437 5.21565 3.84544 0
M  V30 2687 N 246.843 -1.10192 1.12674 0
M  V30 2688 C 247.79 -2.16606 0.796906 0
M  V30 2689 C 248.76 -1.64394 -0.237476 0
M  V30 2690 O 249.945 -1.90474 -0.111484 0
M  V30 2691 C 247.085 -3.44116 0.26043 0
M  V30 2692 C 246.198 -4.10268 1.35293 0
M  V30 2693 C 245.333 -5.25507 0.775621 0
M  V30 2694 C 244.372 -5.83567 1.84706 0
M  V30 2695 N 243.509 -6.90179 1.28829 0
M  V30 2696 H 248.349 -2.44163 1.70846 0
M  V30 2697 H 245.886 -1.19846 0.85295 0
M  V30 2698 H 247.844 -4.17143 -0.0686814 0
M  V30 2699 H 246.474 -3.16901 -0.614274 0
M  V30 2700 H 245.526 -3.35184 1.79877 0
M  V30 2701 H 246.838 -4.4946 2.16303 0
M  V30 2702 H 245.992 -6.05398 0.397327 0
M  V30 2703 H 244.731 -4.87656 -0.0656581 0
M  V30 2704 H 243.736 -5.02344 2.23452 0
M  V30 2705 H 244.961 -6.23482 2.69161 0
M  V30 2706 H 242.907 -6.54322 0.468881 0
M  V30 2707 H 242.824 -7.28097 2.03497 0
M  V30 2708 H 244.092 -7.73844 0.937311 0
M  V30 2709 N 248.321 -0.919034 -1.28029 0
M  V30 2710 C 249.551 -0.570143 -1.98577 0
M  V30 2711 C 249.959 0.854172 -1.68821 0
M  V30 2712 O 249.302 1.57807 -0.940351 0
M  V30 2713 C 249.364 -0.705734 -3.52505 0
M  V30 2714 C 249.028 -2.10057 -4.05863 0
M  V30 2715 C 250.025 -3.07385 -4.19298 0
M  V30 2716 C 247.71 -2.41517 -4.40426 0
M  V30 2717 C 249.704 -4.34287 -4.66555 0
M  V30 2718 C 247.391 -3.68657 -4.87376 0
M  V30 2719 C 248.389 -4.64856 -5.00398 0
M  V30 2720 O 248.077 -5.89735 -5.46322 0
M  V30 2721 H 247.809 -0.215592 -0.6407 0
M  V30 2722 H 250.363 -1.23583 -1.64062 0
M  V30 2723 H 248.593 0.0170414 -3.86696 0
M  V30 2724 H 250.282 -0.363172 -4.04272 0
M  V30 2725 H 251.048 -2.84398 -3.92865 0
M  V30 2726 H 246.927 -1.67389 -4.29537 0
M  V30 2727 H 250.471 -5.09377 -4.76635 0
M  V30 2728 H 246.368 -3.91466 -5.13249 0
M  V30 2729 H 247.136 -5.92599 -5.64596 0
M  V30 2730 N 249.799 1.42003 -0.683588 0
M  V30 2731 C 250.729 2.33487 -0.024866 0
M  V30 2732 C 251.71 1.51163 0.779975 0
M  V30 2733 O 252.895 1.79739 0.735362 0
M  V30 2734 C 250.025 3.3487 0.920836 0
M  V30 2735 C 248.979 4.27414 0.223958 0
M  V30 2736 C 248.305 5.19074 1.2832 0
M  V30 2737 C 249.605 5.14445 -0.90242 0
M  V30 2738 H 251.299 2.88819 -0.788921 0
M  V30 2739 H 248.845 1.38873 -0.38083 0
M  V30 2740 H 250.798 3.97787 1.39081 0
M  V30 2741 H 249.522 2.77861 1.71642 0
M  V30 2742 H 248.181 3.65904 -0.225864 0
M  V30 2743 H 247.829 4.58387 2.071 0
M  V30 2744 H 247.529 5.81822 0.821995 0
M  V30 2745 H 249.053 5.84867 1.75392 0
M  V30 2746 H 250.467 5.70998 -0.513272 0
M  V30 2747 H 248.864 5.86072 -1.28997 0
M  V30 2748 H 249.934 4.52322 -1.74737 0
M  V30 2749 N 251.277 0.427512 1.51691 0
M  V30 2750 C 252.187 -0.39527 2.31246 0
M  V30 2751 C 253.203 -1.03674 1.39742 0
M  V30 2752 O 254.379 -1.03425 1.72816 0
M  V30 2753 C 251.444 -1.48706 3.13189 0
M  V30 2754 C 250.505 -0.866743 4.20459 0
M  V30 2755 C 249.738 -1.90651 4.98486 0
M  V30 2756 O 249.961 -3.12733 4.77026 0
M  V30 2757 O 248.895 -1.5025 5.82845 0
M  V30 2758 H 252.721 0.253918 3.02637 0
M  V30 2759 H 250.306 0.190274 1.48183 0
M  V30 2760 H 252.188 -2.12047 3.64162 0
M  V30 2761 H 250.863 -2.12051 2.44573 0
M  V30 2762 H 249.77 -0.195544 3.73589 0
M  V30 2763 H 251.103 -0.276934 4.9142 0
M  V30 2764 N 252.755 -1.56801 0.158532 0
M  V30 2765 C 254.032 -1.88131 -0.535357 0
M  V30 2766 C 254.412 -1.06638 -1.82186 0
M  V30 2767 O 253.76 -0.156533 -2.27963 0
M  V30 2768 C 253.97 -3.39949 -0.789653 0
M  V30 2769 C 255.318 -4.09416 -1.12533 0
M  V30 2770 O 256.342 -3.45194 -0.878622 0
M  V30 2771 O 255.201 -5.22855 -1.59014 0
M  V30 2772 H 252.295 -0.780143 -0.27442 0
M  V30 2773 H 254.841 -1.68564 0.19601 0
M  V30 2774 H 253.613 -3.91115 0.120353 0
M  V30 2775 H 253.236 -3.65084 -1.57479 0
M  V30 2776 N 254.233 0.115231 -1.57178 0
M  V30 2777 C 255.163 1.1423 -2.03651 0
M  V30 2778 C 256.144 1.42967 -0.921655 0
M  V30 2779 O 257.329 1.53343 -1.19162 0
M  V30 2780 C 254.459 2.4675 -2.44401 0
M  V30 2781 C 253.413 2.32467 -3.59365 0
M  V30 2782 C 252.739 3.69984 -3.86026 0
M  V30 2783 C 254.039 1.78203 -4.90959 0
M  V30 2784 H 255.733 0.755749 -2.89705 0
M  V30 2785 H 253.279 0.362093 -1.39373 0
M  V30 2786 H 255.232 3.18854 -2.75517 0
M  V30 2787 H 253.956 2.87302 -1.55322 0
M  V30 2788 H 252.615 1.62811 -3.28463 0
M  V30 2789 H 252.263 4.08028 -2.94147 0
M  V30 2790 H 251.963 3.61279 -4.63412 0
M  V30 2791 H 253.487 4.43587 -4.19599 0
M  V30 2792 H 254.901 2.40128 -5.20587 0
M  V30 2793 H 253.298 1.8031 -5.72371 0
M  V30 2794 H 254.368 0.739876 -4.79222 0
M  V30 2795 N 255.711 1.52812 0.385517 0
M  V30 2796 C 256.959 1.67694 1.12797 0
M  V30 2797 C 257.28 0.421115 1.90399 0
M  V30 2798 O 256.55 -0.564551 1.87589 0
M  V30 2799 H 255.13 0.618155 0.419396 0
M  V30 2800 H 257.792 1.89938 0.436972 0
M  V30 2801 H 256.888 2.52896 1.82894 0
M  V30 2802 N 257.189 -0.644168 1.43834 0
M  V30 2803 C 258.436 -1.40395 1.4593 0
M  V30 2804 C 258.764 -1.94305 0.0869658 0
M  V30 2805 O 258.019 -1.73288 -0.909378 0
M  V30 2806 C 258.318 -2.59615 2.45631 0
M  V30 2807 C 257.984 -2.2407 3.91284 0
M  V30 2808 C 256.646 -2.14089 4.30952 0
M  V30 2809 C 258.998 -1.95775 4.83034 0
M  V30 2810 C 256.326 -1.73981 5.6031 0
M  V30 2811 C 258.678 -1.57163 6.12766 0
M  V30 2812 C 257.342 -1.45713 6.51402 0
M  V30 2813 H 256.612 -0.513741 0.533995 0
M  V30 2814 H 259.259 -0.731724 1.76969 0
M  V30 2815 H 257.564 -3.32011 2.08028 0
M  V30 2816 H 259.261 -3.17834 2.44504 0
M  V30 2817 H 255.851 -2.32753 3.59895 0
M  V30 2818 H 260.035 -2.02403 4.53152 0
M  V30 2819 H 255.291 -1.63709 5.89075 0
M  V30 2820 H 259.465 -1.34303 6.83327 0
M  V30 2821 H 257.092 -1.14406 7.51542 0
M  V30 2822 N 258.668 -1.30515 -0.883378 0
M  V30 2823 C 260.084 -1.08881 -1.16692 0
M  V30 2824 C 260.284 0.149409 -2.00945 0
M  V30 2825 O 259.34 0.84257 -2.38027 0
M  V30 2826 C 260.653 -2.35319 -1.87204 0
M  V30 2827 C 262.201 -2.40799 -1.99962 0
M  V30 2828 C 262.676 -3.67083 -2.73887 0
M  V30 2829 N 264.167 -3.679 -2.81432 0
M  V30 2830 C 264.902 -4.62303 -3.3921 0
M  V30 2831 N 264.398 -5.67052 -3.98025 0
M  V30 2832 N 266.191 -4.49845 -3.3704 0
M  V30 2833 H 258.342 -2.09951 -0.321633 0
M  V30 2834 H 260.605 -0.92556 -0.205043 0
M  V30 2835 H 260.311 -3.25689 -1.3274 0
M  V30 2836 H 260.185 -2.44089 -2.87577 0
M  V30 2837 H 262.572 -1.50907 -2.53597 0
M  V30 2838 H 262.653 -2.36003 -0.98673 0
M  V30 2839 H 262.297 -4.57334 -2.20925 0
M  V30 2840 H 262.227 -3.69141 -3.75556 0
M  V30 2841 H 264.718 -2.92171 -2.39676 0
M  V30 2842 H 265.031 -6.35184 -4.40183 0
M  V30 2843 H 263.376 -5.70842 -3.96439 0
M  V30 2844 H 266.567 -3.67194 -2.90321 0
M  V30 2845 H 266.74 -5.23597 -3.81772 0
M  V30 2846 N 260.146 1.09593 -1.13257 0
M  V30 2847 C 261.392 1.82003 -0.89458 0
M  V30 2848 C 261.725 1.85402 0.577906 0
M  V30 2849 O 261 1.32099 1.42759 0
M  V30 2850 C 261.283 3.28237 -1.48096 0
M  V30 2851 C 261.136 3.3312 -3.02244 0
M  V30 2852 C 262.455 4.24871 -1.14774 0
M  V30 2853 H 259.574 0.66077 -0.326424 0
M  V30 2854 H 262.216 1.28389 -1.40058 0
M  V30 2855 H 260.366 3.74024 -1.05062 0
M  V30 2856 H 262.038 2.95748 -3.54021 0
M  V30 2857 H 260.281 2.72756 -3.37323 0
M  V30 2858 H 260.952 4.3613 -3.38371 0
M  V30 2859 H 263.428 3.87361 -1.51957 0
M  V30 2860 H 262.304 5.25532 -1.58452 0
M  V30 2861 H 262.565 4.42058 -0.0611849 0
M  V30 2862 N 261.624 0.925811 1.2754 0
M  V30 2863 C 262.852 0.581509 1.9856 0
M  V30 2864 C 263.267 -0.840041 1.69082 0
M  V30 2865 O 262.624 -1.55805 0.950312 0
M  V30 2866 C 262.675 0.795589 3.52637 0
M  V30 2867 O 262.396 2.16121 3.81082 0
M  V30 2868 C 263.897 0.459744 4.4091 0
M  V30 2869 H 261.117 0.220538 0.633722 0
M  V30 2870 H 263.661 1.24232 1.6244 0
M  V30 2871 H 261.816 0.18161 3.86974 0
M  V30 2872 H 262.23 2.2098 4.75676 0
M  V30 2873 H 263.704 0.660244 5.48037 0
M  V30 2874 H 264.181 -0.604625 4.35018 0
M  V30 2875 H 264.787 1.05178 4.12089 0
M  V30 2876 N 263.102 -1.41638 0.69111 0
M  V30 2877 C 264.012 -2.34588 0.0233487 0
M  V30 2878 C 265.028 -1.55987 -0.770984 0
M  V30 2879 O 266.204 -1.88486 -0.709569 0
M  V30 2880 C 263.269 -3.34684 -0.904851 0
M  V30 2881 C 262.33 -4.29176 -0.103225 0
M  V30 2882 C 261.563 -5.2449 -0.987216 0
M  V30 2883 O 261.786 -5.2514 -2.22674 0
M  V30 2884 O 260.72 -6.00295 -0.439281 0
M  V30 2885 H 264.546 -2.93261 0.789416 0
M  V30 2886 H 262.131 -1.42417 0.45142 0
M  V30 2887 H 264.013 -3.96133 -1.43724 0
M  V30 2888 H 262.688 -2.78461 -1.65049 0
M  V30 2889 H 261.595 -3.71089 0.473655 0
M  V30 2890 H 262.928 -4.88484 0.60365 0
M  V30 2891 N 264.58 -0.43555 -1.51462 0
M  V30 2892 C 265.857 0.191364 -1.94662 0
M  V30 2893 C 266.237 1.60254 -1.37411 0
M  V30 2894 O 265.585 2.2152 -0.560458 0
M  V30 2895 C 265.795 0.17091 -3.48581 0
M  V30 2896 C 267.143 0.377357 -4.2292 0
M  V30 2897 O 268.167 0.249104 -3.55328 0
M  V30 2898 O 267.026 0.63247 -5.42828 0
M  V30 2899 H 264.12 0.130932 -0.816569 0
M  V30 2900 H 266.666 -0.4934 -1.62369 0
M  V30 2901 H 265.438 -0.815738 -3.82703 0
M  V30 2902 H 265.061 0.898659 -3.87311 0
M  V30 2903 N 266.058 1.56714 -0.166846 0
M  V30 2904 C 267.307 1.95922 0.479318 0
M  V30 2905 C 267.62 1.05529 1.6469 0
M  V30 2906 O 268.826 1.34399 2.35901 0
M  V30 2907 C 267.282 3.48359 0.90412 0
M  V30 2908 C 266.89 4.47369 -0.237621 0
M  V30 2909 C 268.634 3.96394 1.51896 0
M  V30 2910 C 266.541 5.91039 0.206561 0
M  V30 2911 H 265.471 0.731495 0.18284 0
M  V30 2912 H 268.122 1.81728 -0.254363 0
M  V30 2913 H 266.504 3.57955 1.69365 0
M  V30 2914 H 267.678 4.49485 -1.01489 0
M  V30 2915 H 265.993 4.09366 -0.762128 0
M  V30 2916 H 268.59 5.01186 1.86325 0
M  V30 2917 H 268.933 3.39075 2.41524 0
M  V30 2918 H 269.466 3.89796 0.79395 0
M  V30 2919 H 266.205 6.52221 -0.654834 0
M  V30 2920 H 265.725 5.9224 0.949282 0
M  V30 2921 H 267.404 6.43707 0.651939 0
M  V30 2922 N 267.536 -0.106894 1.57237 0
M  V30 2923 C 268.468 -1.15646 1.97885 0
M  V30 2924 C 269.481 -1.36981 0.879779 0
M  V30 2925 O 270.67 -1.35841 1.15799 0
M  V30 2926 C 267.77 -2.51425 2.27241 0
M  V30 2927 C 266.943 -2.50529 3.58545 0
M  V30 2928 C 266.002 -3.68145 3.75973 0
M  V30 2929 O 265.028 -3.51176 4.47956 0
M  V30 2930 N 266.23 -4.87177 3.15656 0
M  V30 2931 H 268.995 -0.81059 2.8853 0
M  V30 2932 H 266.556 -0.296024 1.59171 0
M  V30 2933 H 268.548 -3.28689 2.36105 0
M  V30 2934 H 267.118 -2.78147 1.42663 0
M  V30 2935 H 266.338 -1.58894 3.60758 0
M  V30 2936 H 267.626 -2.46997 4.44826 0
M  V30 2937 H 267.024 -5.03868 2.57165 0
M  V30 2938 H 265.581 -5.62075 3.30023 0
M  V30 2939 N 269.014 -1.53014 -0.377408 0
M  V30 2940 C 270.291 -1.59215 -1.13622 0
M  V30 2941 C 270.671 -0.392407 -2.07421 0
M  V30 2942 O 270.019 0.618342 -2.19975 0
M  V30 2943 C 270.229 -2.93669 -1.88573 0
M  V30 2944 C 271.577 -3.47822 -2.43526 0
M  V30 2945 O 272.601 -2.9562 -1.98715 0
M  V30 2946 O 271.46 -4.39055 -3.25412 0
M  V30 2947 H 268.554 -0.642625 -0.52054 0
M  V30 2948 H 271.1 -1.65353 -0.381625 0
M  V30 2949 H 269.872 -3.7243 -1.20048 0
M  V30 2950 H 269.495 -2.90968 -2.70968 0
M  V30 2951 N 270.492 0.636531 -1.44174 0
M  V30 2952 C 271.769 1.39463 -1.37148 0
M  V30 2953 C 272.149 2.11082 -0.027507 0
M  V30 2954 O 271.497 2.05954 0.989716 0
M  V30 2955 C 271.707 2.36552 -2.56601 0
M  V30 2956 C 273.055 3.00048 -3.00427 0
M  V30 2957 O 274.079 2.46878 -2.56767 0
M  V30 2958 O 272.938 3.96488 -3.76111 0
M  V30 2959 H 270.032 0.623903 -0.542839 0
M  V30 2960 H 272.578 0.662039 -1.56253 0
M  V30 2961 H 271.35 1.82692 -3.46034 0
M  V30 2962 H 270.973 3.17236 -2.39681 0
M  V30 2963 N 271.97 1.30982 0.876444 0
M  V30 2964 C 272.88 1.2003 2.01569 0
M  V30 2965 C 273.896 0.11838 1.73597 0
M  V30 2966 O 275.072 0.33495 1.98595 0
M  V30 2967 C 272.137 0.901637 3.34771 0
M  V30 2968 C 271.198 2.06979 3.76109 0
M  V30 2969 C 270.431 1.78529 5.02954 0
M  V30 2970 O 270.654 0.717296 5.65872 0
M  V30 2971 O 269.588 2.64019 5.40905 0
M  V30 2972 H 273.414 2.15753 2.13739 0
M  V30 2973 H 270.999 1.10658 1.00375 0
M  V30 2974 H 272.881 0.750645 4.1466 0
M  V30 2975 H 271.556 -0.0256141 3.2369 0
M  V30 2976 H 270.463 2.27616 2.96887 0
M  V30 2977 H 271.796 2.97907 3.91807 0
M  V30 2978 N 273.449 -1.08991 1.13837 0
M  V30 2979 C 274.697 -1.80899 0.901098 0
M  V30 2980 C 275.018 -1.86356 -0.574134 0
M  V30 2981 O 274.288 -1.35235 -1.41733 0
M  V30 2982 H 272.868 -0.669966 0.330386 0
M  V30 2983 H 275.53 -1.318 1.43578 0
M  V30 2984 H 274.626 -2.83929 1.29578 0
M  V30 2985 N 274.927 -0.932562 -1.27047 0
M  V30 2986 C 276.155 -0.592031 -1.98249 0
M  V30 2987 C 276.57 0.831062 -1.69525 0
M  V30 2988 O 275.927 1.55299 -0.958561 0
M  V30 2989 C 275.978 -0.814279 -3.5221 0
M  V30 2990 O 275.699 -2.18139 -3.7993 0
M  V30 2991 C 277.2 -0.483121 -4.4066 0
M  V30 2992 H 274.42 -0.223896 -0.632544 0
M  V30 2993 H 276.964 -1.25091 -1.61779 0
M  V30 2994 H 275.119 -0.20213 -3.86872 0
M  V30 2995 H 275.533 -2.235 -4.74498 0
M  V30 2996 H 277.007 -0.689298 -5.47679 0
M  V30 2997 H 277.484 0.581546 -4.35333 0
M  V30 2998 H 278.09 -1.07362 -4.11526 0
M  V30 2999 N 276.405 1.4127 -0.698611 0
M  V30 3000 C 277.633 2.05503 -0.239992 0
M  V30 3001 C 278.048 1.52584 1.11191 0
M  V30 3002 O 277.405 0.675323 1.69545 0
M  V30 3003 C 277.456 3.60987 -0.192429 0
M  V30 3004 O 277.177 4.1195 -1.49094 0
M  V30 3005 C 278.678 4.42371 0.28681 0
M  V30 3006 H 275.898 0.661748 -0.111045 0
M  V30 3007 H 278.442 1.80987 -0.95205 0
M  V30 3008 H 276.597 3.84533 0.470472 0
M  V30 3009 H 277.011 5.06018 -1.38007 0
M  V30 3010 H 278.485 5.51344 0.26896 0
M  V30 3011 H 278.962 4.18699 1.32619 0
M  V30 3012 H 279.568 4.23897 -0.345201 0
M  V30 3013 N 277.883 0.443576 1.51229 0
M  V30 3014 C 279.113 -0.119117 2.06256 0
M  V30 3015 C 279.521 -1.36471 1.31043 0
M  V30 3016 O 278.864 -1.80034 0.365151 0
M  V30 3017 C 278.926 -0.500546 3.55998 0
M  V30 3018 C 278.59 0.639125 4.52509 0
M  V30 3019 C 279.587 1.51311 4.97394 0
M  V30 3020 C 277.272 0.821632 4.95535 0
M  V30 3021 C 279.266 2.55425 5.83984 0
M  V30 3022 C 276.953 1.86603 5.81913 0
M  V30 3023 C 277.951 2.73072 6.26036 0
M  V30 3024 O 277.639 3.75718 7.10698 0
M  V30 3025 H 277.371 -0.00857665 0.675946 0
M  V30 3026 H 279.925 0.623288 1.95715 0
M  V30 3027 H 278.155 -1.29575 3.64345 0
M  V30 3028 H 279.844 -0.995116 3.93513 0
M  V30 3029 H 280.61 1.38367 4.64844 0
M  V30 3030 H 276.489 0.158149 4.60729 0
M  V30 3031 H 280.033 3.22949 6.18344 0
M  V30 3032 H 275.93 1.99564 6.13876 0
M  V30 3033 H 276.698 3.72374 7.2889 0
M  V30 3034 N 279.361 -1.56624 0.175154 0
M  V30 3035 C 280.324 -2.16934 -0.739738 0
M  V30 3036 C 281.324 -1.11842 -1.15533 0
M  V30 3037 O 282.514 -1.37335 -1.07167 0
M  V30 3038 C 279.646 -2.75531 -2.00738 0
M  V30 3039 H 280.839 -2.99131 -0.214639 0
M  V30 3040 H 278.392 -1.56123 -0.0744197 0
M  V30 3041 H 279.127 -1.97078 -2.57548 0
M  V30 3042 H 278.912 -3.52444 -1.71831 0
M  V30 3043 H 280.402 -3.21904 -2.66021 0
M  V30 3044 N 280.839 0.0985539 -1.57292 0
M  V30 3045 C 281.802 1.10402 -2.00858 0
M  V30 3046 C 282.802 1.33146 -0.901593 0
M  V30 3047 O 283.992 1.29318 -1.16716 0
M  V30 3048 C 281.124 2.45394 -2.36632 0
M  V30 3049 H 282.317 0.729099 -2.90902 0
M  V30 3050 H 279.87 0.343495 -1.52479 0
M  V30 3051 H 280.605 2.87769 -1.49531 0
M  V30 3052 H 280.39 2.30235 -3.17387 0
M  V30 3053 H 281.88 3.17718 -2.71007 0
M  V30 3054 N 282.317 1.53212 0.369288 0
M  V30 3055 C 283.563 1.70413 1.11046 0
M  V30 3056 C 283.918 0.448509 1.87099 0
M  V30 3057 O 283.211 -0.558382 1.83283 0
M  V30 3058 C 283.405 2.89101 2.10132 0
M  V30 3059 C 283.234 4.26084 1.43814 0
M  V30 3060 C 282.004 4.90994 1.19384 0
M  V30 3061 C 284.202 5.06754 0.877802 0
M  V30 3062 N 282.184 6.11911 0.49377 0
M  V30 3063 C 283.555 6.1924 0.306891 0
M  V30 3064 C 285.61 4.91814 0.776129 0
M  V30 3065 C 284.313 7.1842 -0.355774 0
M  V30 3066 C 286.339 5.91263 0.127252 0
M  V30 3067 C 285.701 7.03069 -0.432801 0
M  V30 3068 H 281.8 0.676872 0.391623 0
M  V30 3069 H 284.384 1.90603 0.397334 0
M  V30 3070 H 282.555 2.70456 2.78761 0
M  V30 3071 H 284.287 2.95142 2.76899 0
M  V30 3072 H 281.042 4.50074 1.47413 0
M  V30 3073 H 281.466 6.76813 0.159207 0
M  V30 3074 H 286.108 4.05564 1.19489 0
M  V30 3075 H 283.826 8.04264 -0.786499 0
M  V30 3076 H 287.412 5.81779 0.0495613 0
M  V30 3077 H 286.292 7.78702 -0.926958 0
M  V30 3078 N 283.795 -0.628877 1.44509 0
M  V30 3079 C 284.728 -1.75367 1.46019 0
M  V30 3080 C 285.706 -1.59444 0.318787 0
M  V30 3081 O 286.89 -1.81297 0.516099 0
M  V30 3082 C 284.017 -3.12965 1.29501 0
M  V30 3083 C 283.063 -3.47532 2.47233 0
M  V30 3084 S 283.896 -3.44758 4.09758 0
M  V30 3085 C 285.052 -4.84973 3.95667 0
M  V30 3086 H 285.285 -1.7382 2.41193 0
M  V30 3087 H 282.818 -0.803686 1.31834 0
M  V30 3088 H 284.776 -3.92367 1.20658 0
M  V30 3089 H 283.437 -3.12049 0.358341 0
M  V30 3090 H 282.63 -4.47664 2.31544 0
M  V30 3091 H 282.232 -2.75598 2.52828 0
M  V30 3092 H 284.524 -5.74255 3.59496 0
M  V30 3093 H 285.467 -5.05716 4.95638 0
M  V30 3094 H 285.875 -4.59653 3.27688 0
M  V30 3095 N 285.273 -1.31445 -0.869486 0
M  V30 3096 C 286.223 -1.15731 -1.96444 0
M  V30 3097 C 287.207 -0.0681855 -1.60755 0
M  V30 3098 O 288.399 -0.293154 -1.74555 0
M  V30 3099 C 285.528 -0.867255 -3.32165 0
M  V30 3100 C 284.614 -1.99738 -3.74119 0
M  V30 3101 N 285.005 -3.24447 -3.88031 0
M  V30 3102 C 283.303 -1.89723 -4.03635 0
M  V30 3103 C 284.004 -3.98374 -4.23879 0
M  V30 3104 N 282.98 -3.26547 -4.3459 0
M  V30 3105 H 286.782 -2.10296 -2.05312 0
M  V30 3106 H 284.296 -1.23009 -1.06031 0
M  V30 3107 H 286.293 -0.735668 -4.10358 0
M  V30 3108 H 284.953 0.0701614 -3.24624 0
M  V30 3109 H 285.964 -3.59557 -3.72746 0
M  V30 3110 H 282.641 -1.03449 -4.04481 0
M  V30 3111 H 284.031 -5.05844 -4.42235 0
M  V30 3112 N 286.751 1.08385 -1.14413 0
M  V30 3113 C 288.167 1.32844 -0.884563 0
M  V30 3114 C 288.367 1.95841 0.474181 0
M  V30 3115 O 287.423 2.21158 1.21842 0
M  V30 3116 C 288.736 2.22978 -2.01745 0
M  V30 3117 C 290.284 2.36458 -2.05077 0
M  V30 3118 C 290.759 3.29934 -3.1766 0
M  V30 3119 N 292.25 3.37511 -3.17239 0
M  V30 3120 C 292.985 4.09871 -4.0099 0
M  V30 3121 N 292.481 4.84936 -4.94781 0
M  V30 3122 N 294.274 4.05704 -3.89051 0
M  V30 3123 H 286.425 0.658756 -2.01926 0
M  V30 3124 H 288.688 0.352821 -0.879899 0
M  V30 3125 H 288.394 1.83934 -2.99769 0
M  V30 3126 H 288.268 3.23441 -1.94077 0
M  V30 3127 H 290.655 2.7476 -1.0766 0
M  V30 3128 H 290.736 1.35736 -2.16816 0
M  V30 3129 H 290.38 2.92352 -4.15322 0
M  V30 3130 H 290.31 4.30584 -3.03158 0
M  V30 3131 H 292.801 2.83996 -2.49308 0
M  V30 3132 H 293.114 5.37612 -5.55151 0
M  V30 3133 H 291.459 4.83988 -4.98779 0
M  V30 3134 H 294.65 3.46167 -3.15097 0
M  V30 3135 H 294.823 4.61834 -4.54547 0
M  V30 3136 N 288.23 0.939286 1.26551 0
M  V30 3137 C 289.177 0.446088 2.26448 0
M  V30 3138 C 290.147 -0.493234 1.58608 0
M  V30 3139 O 291.332 -0.409857 1.86346 0
M  V30 3140 C 288.472 -0.284375 3.43926 0
M  V30 3141 C 287.585 0.690399 4.26448 0
M  V30 3142 C 286.72 -0.0610712 5.31165 0
M  V30 3143 C 285.759 0.905649 6.05363 0
M  V30 3144 N 284.896 0.186055 7.01853 0
M  V30 3145 H 289.736 1.30291 2.68008 0
M  V30 3146 H 287.273 0.65371 1.31776 0
M  V30 3147 H 289.231 -0.724313 4.10864 0
M  V30 3148 H 287.861 -1.10535 3.03285 0
M  V30 3149 H 286.913 1.24885 3.59316 0
M  V30 3150 H 288.225 1.42873 4.779 0
M  V30 3151 H 287.379 -0.56038 6.04106 0
M  V30 3152 H 286.118 -0.832297 4.80546 0
M  V30 3153 H 285.123 1.4161 5.3125 0
M  V30 3154 H 286.348 1.67685 6.58072 0
M  V30 3155 H 284.294 -0.566714 6.53548 0
M  V30 3156 H 284.211 0.863752 7.51049 0
M  V30 3157 H 285.479 -0.292221 7.78952 0
M  V30 3158 N 289.708 -1.40897 0.706093 0
M  V30 3159 C 290.956 -2.00657 0.241054 0
M  V30 3160 C 291.277 -1.56241 -1.16678 0
M  V30 3161 O 290.547 -0.79765 -1.78926 0
M  V30 3162 H 289.127 -0.742018 0.0861308 0
M  V30 3163 H 291.789 -1.72372 0.909604 0
M  V30 3164 H 290.885 -3.10958 0.266705 0
M  V30 3165 N 291.186 -0.45159 -1.50991 0
M  V30 3166 C 292.414 0.108334 -2.06616 0
M  V30 3167 C 292.829 1.35224 -1.31757 0
M  V30 3168 O 292.186 1.78475 -0.381174 0
M  V30 3169 C 292.237 0.41619 -3.59096 0
M  V30 3170 O 291.958 -0.778361 -4.3113 0
M  V30 3171 C 293.459 1.02523 -4.31282 0
M  V30 3172 H 290.679 0.00159995 -0.670998 0
M  V30 3173 H 293.223 -0.634771 -1.94399 0
M  V30 3174 H 291.378 1.10921 -3.71181 0
M  V30 3175 H 291.792 -0.511181 -5.22003 0
M  V30 3176 H 293.266 1.19053 -5.39009 0
M  V30 3177 H 293.743 2.01013 -3.905 0
M  V30 3178 H 294.349 0.371173 -4.23677 0
M  V30 3179 N 292.664 1.56529 -0.183458 0
M  V30 3180 C 293.91 1.97537 0.459036 0
M  V30 3181 C 294.243 1.06989 1.62071 0
M  V30 3182 O 293.518 0.11948 1.94133 0
M  V30 3183 C 293.801 3.47874 0.930368 0
M  V30 3184 C 293.654 4.492 -0.232317 0
M  V30 3185 C 294.973 4.01612 1.79989 0
M  V30 3186 H 292.092 0.718204 0.165383 0
M  V30 3187 H 294.734 1.88042 -0.272038 0
M  V30 3188 H 292.884 3.56095 1.55333 0
M  V30 3189 H 294.556 4.53027 -0.86972 0
M  V30 3190 H 292.799 4.24657 -0.885928 0
M  V30 3191 H 293.47 5.51823 0.139796 0
M  V30 3192 H 295.946 3.96097 1.27461 0
M  V30 3193 H 294.822 5.07195 2.09867 0
M  V30 3194 H 295.083 3.46163 2.74998 0
M  V30 3195 N 294.142 -0.090211 1.57342 0
M  V30 3196 C 295.092 -1.11557 1.98844 0
M  V30 3197 C 296.076 -1.35503 0.867624 0
M  V30 3198 O 297.268 -1.36113 1.13148 0
M  V30 3199 C 294.397 -2.43446 2.42051 0
M  V30 3200 C 293.483 -2.22853 3.60828 0
M  V30 3201 N 293.874 -1.72141 4.75606 0
M  V30 3202 C 292.172 -2.53401 3.67021 0
M  V30 3203 C 292.873 -1.65932 5.57531 0
M  V30 3204 N 291.849 -2.11323 5.00843 0
M  V30 3205 H 295.651 -0.716499 2.85032 0
M  V30 3206 H 293.165 -0.297567 1.59651 0
M  V30 3207 H 295.162 -3.17644 2.70014 0
M  V30 3208 H 293.822 -2.84087 1.57241 0
M  V30 3209 H 294.833 -1.41268 4.98261 0
M  V30 3210 H 291.51 -2.97532 2.92884 0
M  V30 3211 H 292.9 -1.27733 6.59647 0
M  V30 3212 N 295.62 -1.53406 -0.361157 0
M  V30 3213 C 296.897 -1.60411 -1.11927 0
M  V30 3214 C 297.277 -0.414385 -2.06993 0
M  V30 3215 O 296.625 0.594976 -2.20618 0
M  V30 3216 C 296.835 -2.95652 -1.85448 0
M  V30 3217 C 298.183 -3.50386 -2.39823 0
M  V30 3218 O 299.207 -2.97711 -1.95568 0
M  V30 3219 O 298.066 -4.42482 -3.20737 0
M  V30 3220 H 295.16 -0.64811 -0.513695 0
M  V30 3221 H 297.706 -1.65749 -0.364065 0
M  V30 3222 H 296.478 -3.73682 -1.16091 0
M  V30 3223 H 296.101 -2.93825 -2.67866 0
M  V30 3224 N 297.098 0.621204 -1.44841 0
M  V30 3225 C 298.326 1.40752 -1.51646 0
M  V30 3226 C 298.741 1.88246 -0.144549 0
M  V30 3227 O 298.098 1.61422 0.851416 0
M  V30 3228 C 298.149 2.62119 -2.4895 0
M  V30 3229 O 297.87 2.16602 -3.80808 0
M  V30 3230 C 299.371 3.55135 -2.65319 0
M  V30 3231 H 296.591 0.431325 -0.514004 0
M  V30 3232 H 299.135 0.758835 -1.899 0
M  V30 3233 H 297.29 3.23058 -2.13805 0
M  V30 3234 H 297.704 2.95358 -4.33433 0
M  V30 3235 H 299.178 4.36874 -3.37409 0
M  V30 3236 H 299.655 4.04592 -1.70886 0
M  V30 3237 H 300.261 3.00058 -3.01405 0
M  V30 3238 N 298.576 1.31904 0.862503 0
M  V30 3239 C 299.539 1.20131 1.95195 0
M  V30 3240 C 300.539 0.126409 1.60302 0
M  V30 3241 O 301.729 0.376234 1.70089 0
M  V30 3242 C 298.861 0.845691 3.30244 0
M  V30 3243 H 300.054 2.16943 2.07064 0
M  V30 3244 H 297.607 1.15622 1.05172 0
M  V30 3245 H 298.342 -0.120957 3.24074 0
M  V30 3246 H 298.127 1.62276 3.56944 0
M  V30 3247 H 299.617 0.787418 4.10109 0
M  V30 3248 N 300.054 -1.07777 1.14986 0
M  V30 3249 C 300.984 -2.16865 0.865557 0
M  V30 3250 C 301.965 -1.69123 -0.182083 0
M  V30 3251 O 303.15 -1.94164 -0.0373815 0
M  V30 3252 C 300.28 -3.45539 0.349313 0
M  V30 3253 C 299.234 -4.06708 1.33313 0
M  V30 3254 C 298.56 -5.30411 0.675918 0
M  V30 3255 C 299.86 -4.47241 2.69764 0
M  V30 3256 H 301.554 -2.40905 1.77778 0
M  V30 3257 H 299.1 -1.15781 0.856203 0
M  V30 3258 H 301.053 -4.21174 0.137983 0
M  V30 3259 H 299.777 -3.21072 -0.598362 0
M  V30 3260 H 298.436 -3.33112 1.53075 0
M  V30 3261 H 298.084 -5.02232 -0.277767 0
M  V30 3262 H 297.784 -5.72293 1.33244 0
M  V30 3263 H 299.308 -6.08755 0.474262 0
M  V30 3264 H 300.722 -5.14025 2.53873 0
M  V30 3265 H 299.119 -5.00062 3.3175 0
M  V30 3266 H 300.189 -3.58818 3.26156 0
M  V30 3267 N 301.532 -0.945985 -1.26051 0
M  V30 3268 C 302.76 -0.613025 -1.9761 0
M  V30 3269 C 303.175 0.813035 -1.70397 0
M  V30 3270 O 302.532 1.54274 -0.974979 0
M  V30 3271 C 302.583 -0.85159 -3.51326 0
M  V30 3272 O 302.304 -2.22157 -3.77595 0
M  V30 3273 C 303.805 -0.529831 -4.40122 0
M  V30 3274 H 301.025 -0.230593 -0.630133 0
M  V30 3275 H 303.569 -1.268 -1.60443 0
M  V30 3276 H 301.724 -0.243151 -3.86636 0
M  V30 3277 H 302.138 -2.2852 -4.721 0
M  V30 3278 H 303.612 -0.747348 -5.46917 0
M  V30 3279 H 304.089 0.535341 -4.35925 0
M  V30 3280 H 304.695 -1.11721 -4.10364 0
M  V30 3281 N 303.011 1.40521 -0.713556 0
M  V30 3282 C 304.259 2.00527 -0.251692 0
M  V30 3283 C 304.58 1.56857 1.15848 0
M  V30 3284 O 303.85 0.807127 1.785 0
M  V30 3285 H 302.43 0.741551 -0.0900646 0
M  V30 3286 H 305.092 1.71887 -0.918733 0
M  V30 3287 H 304.188 3.10813 -0.283192 0
M  V30 3288 N 304.489 0.459591 1.5075 0
M  V30 3289 C 305.737 -0.0991532 2.01857 0
M  V30 3290 C 306.058 -1.41247 1.34441 0
M  V30 3291 O 305.328 -1.89775 0.486022 0
M  V30 3292 H 303.908 -0.039633 0.745948 0
M  V30 3293 H 306.57 0.607387 1.85194 0
M  V30 3294 H 305.666 -0.258998 3.11023 0
M  V30 3295 N 305.967 -1.56429 0.191757 0
M  V30 3296 C 306.915 -2.20273 -0.747174 0
M  V30 3297 C 307.909 -1.17288 -1.22229 0
M  V30 3298 O 309.115 -1.35441 -1.18557 0
M  V30 3299 H 305.49 -0.705885 -0.259289 0
M  V30 3300 H 307.461 -2.97826 -0.184963 0
M  V30 3301 C 306.21 -2.87356 -1.95759 0
M  V30 3302 H 305.533 -3.66341 -1.60106 0
M  V30 3303 H 306.973 -3.3547 -2.59299 0
M  V30 3304 C 305.432 -1.88213 -2.79423 0
M  V30 3305 O 305.962 -1.38033 -3.7724 0
M  V30 3306 N 304.168 -1.56516 -2.44849 0
M  V30 3307 H 303.715 -1.97516 -1.65364 0
M  V30 3308 H 303.673 -0.904369 -3.01112 0
M  V30 3309 N 307.445 0.0818655 -1.57387 0
M  V30 3310 C 308.693 0.781368 -1.86384 0
M  V30 3311 C 309.014 1.78618 -0.782342 0
M  V30 3312 O 308.284 1.94976 0.190061 0
M  V30 3313 H 306.864 0.291562 -0.687751 0
M  V30 3314 H 309.526 0.060348 -1.94807 0
M  V30 3315 H 308.622 1.3038 -2.83562 0
M  V30 3316 N 308.923 1.53595 0.353017 0
M  V30 3317 C 310.334 1.61937 0.929153 0
M  V30 3318 C 310.685 0.494686 1.89861 0
M  V30 3319 O 309.81 -0.377017 2.1309 0
M  V30 3320 C 310.405 2.93526 1.69199 0
M  V30 3321 C 308.964 3.04161 2.21727 0
M  V30 3322 C 308.111 2.57322 1.03348 0
M  V30 3323 H 311.062 1.58155 0.131431 0
M  V30 3324 H 311.083 2.82034 2.55416 0
M  V30 3325 H 310.595 3.75362 0.986144 0
M  V30 3326 H 308.696 2.26938 2.95516 0
M  V30 3327 H 308.809 4.09465 2.48748 0
M  V30 3328 H 307.173 2.12499 1.40414 0
M  V30 3329 H 307.956 3.41588 0.342428 0
M  V30 3330 N 310.401 -0.613514 1.45168 0
M  V30 3331 C 311.817 -0.933629 1.29443 0
M  V30 3332 C 312.017 -2.00028 0.243101 0
M  V30 3333 O 311.073 -2.49848 -0.364992 0
M  V30 3334 C 312.386 -1.38018 2.67155 0
M  V30 3335 C 313.934 -1.49471 2.75004 0
M  V30 3336 C 314.409 -1.97503 4.13227 0
M  V30 3337 N 315.9 -2.04746 4.15491 0
M  V30 3338 C 316.635 -2.43121 5.19307 0
M  V30 3339 N 316.131 -2.80506 6.33473 0
M  V30 3340 N 317.924 -2.43408 5.06664 0
M  V30 3341 H 310.075 0.0916097 2.12202 0
M  V30 3342 H 312.338 -0.0216655 0.947752 0
M  V30 3343 H 312.044 -0.670625 3.45247 0
M  V30 3344 H 311.918 -2.34784 2.95222 0
M  V30 3345 H 314.305 -2.19519 1.9722 0
M  V30 3346 H 314.386 -0.510342 2.50657 0
M  V30 3347 H 314.03 -1.28045 4.91495 0
M  V30 3348 H 313.96 -2.96843 4.34962 0
M  V30 3349 H 316.451 -1.78468 3.33103 0
M  V30 3350 H 316.764 -3.08652 7.08487 0
M  V30 3351 H 315.109 -2.78216 6.36884 0
M  V30 3352 H 318.3 -2.13604 4.16523 0
M  V30 3353 H 318.473 -2.72989 5.87691 0
M  V30 3354 N 311.879 -1.3236 -0.855495 0
M  V30 3355 C 312.809 -1.23833 -1.97958 0
M  V30 3356 C 313.79 -0.122361 -1.69659 0
M  V30 3357 O 314.975 -0.30939 -1.9172 0
M  V30 3358 C 312.105 -0.959772 -3.33775 0
M  V30 3359 C 311.059 -2.03689 -3.76424 0
M  V30 3360 C 310.385 -1.61075 -5.09862 0
M  V30 3361 C 311.685 -3.4518 -3.9198 0
M  V30 3362 H 313.379 -2.1788 -2.0535 0
M  V30 3363 H 310.925 -1.04891 -0.986605 0
M  V30 3364 H 312.878 -0.886678 -4.11966 0
M  V30 3365 H 311.602 0.0163404 -3.26596 0
M  V30 3366 H 310.261 -2.10012 -3.00484 0
M  V30 3367 H 309.909 -0.622107 -4.99138 0
M  V30 3368 H 309.609 -2.33143 -5.39368 0
M  V30 3369 H 311.133 -1.55201 -5.90546 0
M  V30 3370 H 312.547 -3.4145 -4.60526 0
M  V30 3371 H 310.944 -4.1559 -4.32903 0
M  V30 3372 H 312.014 -3.84903 -2.94919 0
M  V30 3373 N 313.357 1.07166 -1.15556 0
M  V30 3374 C 314.307 2.12649 -0.82247 0
M  V30 3375 C 315.291 1.59725 0.194129 0
M  V30 3376 O 316.483 1.76999 -0.00540402 0
M  V30 3377 C 313.612 3.41847 -0.315572 0
M  V30 3378 C 312.698 4.0162 -1.36244 0
M  V30 3379 N 313.089 4.35625 -2.5703 0
M  V30 3380 C 311.387 4.29114 -1.21562 0
M  V30 3381 C 312.088 4.83017 -3.24144 0
M  V30 3382 N 311.064 4.81906 -2.51531 0
M  V30 3383 H 314.866 2.36776 -1.74111 0
M  V30 3384 H 312.38 1.24622 -1.0413 0
M  V30 3385 H 314.377 4.16859 -0.0585855 0
M  V30 3386 H 313.037 3.19163 0.597105 0
M  V30 3387 H 314.048 4.26253 -2.94158 0
M  V30 3388 H 310.725 4.15919 -0.362988 0
M  V30 3389 H 312.115 5.18605 -4.27198 0
M  V30 3390 N 314.835 0.952656 1.25548 0
M  V30 3391 C 315.785 0.442033 2.23674 0
M  V30 3392 C 316.769 -0.467632 1.53955 0
M  V30 3393 O 317.961 -0.301006 1.74422 0
M  V30 3394 C 315.09 -0.280816 3.4215 0
M  V30 3395 C 314.176 0.646803 4.19139 0
M  V30 3396 N 314.567 1.77759 4.73535 0
M  V30 3397 C 312.865 0.454617 4.43677 0
M  V30 3398 C 313.566 2.35658 5.31827 0
M  V30 3399 N 312.542 1.64333 5.18166 0
M  V30 3400 H 316.344 1.30505 2.63336 0
M  V30 3401 H 313.858 0.809904 1.40763 0
M  V30 3402 H 315.855 -0.663747 4.11582 0
M  V30 3403 H 314.515 -1.14046 3.04012 0
M  V30 3404 H 315.526 2.15949 4.7073 0
M  V30 3405 H 312.203 -0.362312 4.15925 0
M  V30 3406 H 313.593 3.30998 5.84713 0
M  V30 3407 N 316.313 -1.40141 0.720998 0
M  V30 3408 C 317.559 -2.01084 0.263231 0
M  V30 3409 C 317.892 -1.57052 -1.14229 0
M  V30 3410 O 317.167 -0.793027 -1.77599 0
M  V30 3411 C 317.45 -3.58401 0.349344 0
M  V30 3412 C 317.303 -4.12491 1.79363 0
M  V30 3413 C 318.622 -4.39231 -0.276351 0
M  V30 3414 H 315.741 -0.730572 0.0971228 0
M  V30 3415 H 318.383 -1.66543 0.914518 0
M  V30 3416 H 316.533 -3.87958 -0.205165 0
M  V30 3417 H 318.205 -3.93711 2.40394 0
M  V30 3418 H 316.448 -3.66576 2.31958 0
M  V30 3419 H 317.119 -5.21646 1.80524 0
M  V30 3420 H 319.595 -4.15637 0.196184 0
M  V30 3421 H 318.471 -5.48586 -0.185681 0
M  V30 3422 H 318.732 -4.20643 -1.36059 0
M  V30 3423 N 317.792 -0.46758 -1.50504 0
M  V30 3424 C 318.755 0.317059 -2.26996 0
M  V30 3425 C 319.755 0.923513 -1.31635 0
M  V30 3426 O 320.945 0.793239 -1.55091 0
M  V30 3427 C 318.077 1.45134 -3.08462 0
M  V30 3428 H 319.27 -0.353723 -2.97807 0
M  V30 3429 H 316.823 -0.221545 -1.54722 0
M  V30 3430 H 317.558 2.15728 -2.4214 0
M  V30 3431 H 317.343 1.02232 -3.78538 0
M  V30 3432 H 318.833 2.00493 -3.66323 0
M  V30 3433 N 319.27 1.56325 -0.20005 0
M  V30 3434 C 320.517 1.97719 0.437411 0
M  V30 3435 C 320.845 1.08709 1.61284 0
M  V30 3436 O 320.1 0.127261 1.95286 0
M  V30 3437 C 320.399 3.4495 0.935103 0
M  V30 3438 C 320.065 4.5072 -0.12749 0
M  V30 3439 C 318.727 4.79368 -0.419451 0
M  V30 3440 C 321.079 5.14268 -0.847231 0
M  V30 3441 C 318.407 5.68854 -1.43604 0
M  V30 3442 C 320.759 6.04852 -1.85301 0
M  V30 3443 C 319.423 6.31855 -2.15211 0
M  V30 3444 H 318.693 0.723507 0.16006 0
M  V30 3445 H 321.34 1.89166 -0.298056 0
M  V30 3446 H 319.645 3.50599 1.74894 0
M  V30 3447 H 321.342 3.74337 1.43781 0
M  V30 3448 H 317.932 4.28458 0.11023 0
M  V30 3449 H 322.116 4.92222 -0.634901 0
M  V30 3450 H 317.372 5.88047 -1.67364 0
M  V30 3451 H 321.546 6.53152 -2.41591 0
M  V30 3452 H 319.173 7.00994 -2.94129 0
M  V30 3453 N 320.748 -0.0735177 1.57428 0
M  V30 3454 C 321.973 -0.789787 1.91774 0
M  V30 3455 C 322.398 -1.70413 0.796306 0
M  V30 3456 O 321.756 -1.79555 -0.250961 0
M  V30 3457 C 321.804 -1.5609 3.25067 0
M  V30 3458 O 320.908 -2.67144 3.14178 0
M  V30 3459 H 320.249 -0.215582 0.628029 0
M  V30 3460 H 322.779 -0.0422781 2.04556 0
M  V30 3461 H 322.789 -1.94052 3.58898 0
M  V30 3462 H 321.464 -0.890015 4.06265 0
M  V30 3463 H 320.041 -2.32052 2.91901 0
M  V30 3464 N 322.226 -1.5378 -0.344866 0
M  V30 3465 C 323.454 -1.74899 -1.10534 0
M  V30 3466 C 323.869 -0.487534 -1.82397 0
M  V30 3467 O 323.226 0.540741 -1.74305 0
M  V30 3468 C 323.277 -2.92822 -2.11984 0
M  V30 3469 O 322.998 -4.14089 -1.43044 0
M  V30 3470 C 324.499 -3.25982 -3.00417 0
M  V30 3471 H 321.719 -0.584426 -0.329678 0
M  V30 3472 H 324.263 -2.006 -0.397474 0
M  V30 3473 H 322.418 -2.69457 -2.78338 0
M  V30 3474 H 322.832 -4.80272 -2.10805 0
M  V30 3475 H 324.306 -4.11848 -3.67539 0
M  V30 3476 H 324.783 -2.42228 -3.66363 0
M  V30 3477 H 325.389 -3.51349 -2.39654 0
M  V30 3478 N 323.704 0.605807 -1.45491 0
M  V30 3479 C 324.654 1.71074 -1.50724 0
M  V30 3480 C 325.638 1.5658 -0.37033 0
M  V30 3481 O 326.83 1.65887 -0.617299 0
M  V30 3482 C 323.959 3.0983 -1.47852 0
M  V30 3483 C 323.045 3.29704 -2.66751 0
M  V30 3484 N 323.436 3.19831 -3.91844 0
M  V30 3485 C 321.734 3.60579 -2.62486 0
M  V30 3486 C 322.435 3.41083 -4.71208 0
M  V30 3487 N 321.411 3.65157 -4.02693 0
M  V30 3488 H 325.213 1.61937 -2.45263 0
M  V30 3489 H 322.727 0.80912 -1.40808 0
M  V30 3490 H 324.724 3.89101 -1.49686 0
M  V30 3491 H 323.384 3.20115 -0.543714 0
M  V30 3492 H 324.395 2.98194 -4.23439 0
M  V30 3493 H 321.072 3.7769 -1.77922 0
M  V30 3494 H 322.462 3.38828 -5.80211 0
M  V30 3495 N 325.182 1.32811 0.848464 0
M  V30 3496 C 326.092 1.24278 1.98978 0
M  V30 3497 C 327.108 0.155176 1.73307 0
M  V30 3498 O 328.284 0.376999 1.9784 0
M  V30 3499 C 325.349 0.972444 3.32783 0
M  V30 3500 C 324.41 2.14911 3.71634 0
M  V30 3501 C 323.643 1.89157 4.99054 0
M  V30 3502 O 323.866 0.837165 5.64223 0
M  V30 3503 O 322.8 2.75433 5.35183 0
M  V30 3504 H 326.626 2.20238 2.09115 0
M  V30 3505 H 324.211 1.12762 0.980052 0
M  V30 3506 H 326.093 0.838432 4.12975 0
M  V30 3507 H 324.768 0.043051 3.23671 0
M  V30 3508 H 323.675 2.33862 2.91992 0
M  V30 3509 H 325.008 3.06151 3.85399 0
M  V30 3510 N 326.66 -1.06551 1.16123 0
M  V30 3511 C 327.607 -2.13961 0.865414 0
M  V30 3512 C 328.577 -1.65066 -0.185055 0
M  V30 3513 O 329.762 -1.90732 -0.05083 0
M  V30 3514 C 326.902 -3.43113 0.369776 0
M  V30 3515 C 326.015 -4.05756 1.48276 0
M  V30 3516 C 325.15 -5.22773 0.942414 0
M  V30 3517 C 324.189 -5.77395 2.03179 0
M  V30 3518 N 323.326 -6.85731 1.50721 0
M  V30 3519 H 328.166 -2.38605 1.78527 0
M  V30 3520 H 325.703 -1.17072 0.890646 0
M  V30 3521 H 327.661 -4.17151 0.0640643 0
M  V30 3522 H 326.291 -3.18695 -0.513143 0
M  V30 3523 H 325.343 -3.29292 1.9045 0
M  V30 3524 H 326.655 -4.42351 2.30493 0
M  V30 3525 H 325.809 -6.03827 0.589729 0
M  V30 3526 H 324.548 -4.87618 0.0895191 0
M  V30 3527 H 323.553 -4.94981 2.3932 0
M  V30 3528 H 324.778 -6.14603 2.8886 0
M  V30 3529 H 322.724 -6.52499 0.676811 0
M  V30 3530 H 322.641 -7.21254 2.26557 0
M  V30 3531 H 323.909 -7.7047 1.18303 0
M  V30 3532 N 328.138 -0.959301 -1.25041 0
M  V30 3533 C 329.088 -0.453888 -2.23436 0
M  V30 3534 C 330.072 0.459461 -1.542 0
M  V30 3535 O 331.264 0.291752 -1.74579 0
M  V30 3536 C 328.393 0.262667 -3.42294 0
M  V30 3537 C 327.479 -0.669022 -4.1879 0
M  V30 3538 N 327.87 -1.80267 -4.72586 0
M  V30 3539 C 326.168 -0.47814 -4.4343 0
M  V30 3540 C 326.869 -2.38475 -5.3057 0
M  V30 3541 N 325.845 -1.67078 -5.17287 0
M  V30 3542 H 329.647 -1.319 -2.6264 0
M  V30 3543 H 327.161 -0.817358 -1.40332 0
M  V30 3544 H 329.158 0.641911 -4.11929 0
M  V30 3545 H 327.818 1.12432 -3.04613 0
M  V30 3546 H 328.829 -2.18442 -4.69578 0
M  V30 3547 H 325.506 0.340249 -4.16111 0
M  V30 3548 H 326.896 -3.34094 -5.8295 0
M  V30 3549 N 329.616 1.39756 -0.72842 0
M  V30 3550 C 330.564 2.32485 -0.0731849 0
M  V30 3551 C 331.558 1.52717 0.733063 0
M  V30 3552 O 332.764 1.68428 0.634988 0
M  V30 3553 H 329.139 0.751984 -0.00486469 0
M  V30 3554 H 331.11 2.85382 -0.871761 0
M  V30 3555 C 329.859 3.37773 0.824908 0
M  V30 3556 H 329.182 3.99227 0.213915 0
M  V30 3557 H 330.622 4.05121 1.25111 0
M  V30 3558 C 329.081 2.74287 1.95622 0
M  V30 3559 O 329.611 2.61618 3.04826 0
M  V30 3560 N 327.817 2.32475 1.74367 0
M  V30 3561 H 327.364 2.4298 0.855494 0
M  V30 3562 H 327.322 1.90337 2.50238 0
M  V30 3563 N 331.094 0.475555 1.50254 0
M  V30 3564 C 332.343 -0.0795996 2.01543 0
M  V30 3565 C 332.656 -1.4038 1.36209 0
M  V30 3566 O 333.862 -2.04415 1.7868 0
M  V30 3567 C 332.318 -0.192363 3.59386 0
M  V30 3568 C 331.926 1.12367 4.33679 0
M  V30 3569 C 333.67 -0.699238 4.18701 0
M  V30 3570 C 331.577 0.974453 5.83317 0
M  V30 3571 H 330.507 -0.0335228 0.753254 0
M  V30 3572 H 333.158 0.611128 1.73025 0
M  V30 3573 H 331.54 -0.946974 3.84511 0
M  V30 3574 H 332.714 1.88958 4.20276 0
M  V30 3575 H 331.029 1.562 3.85993 0
M  V30 3576 H 333.626 -0.827978 5.28251 0
M  V30 3577 H 333.969 -1.69171 3.80377 0
M  V30 3578 H 334.502 -0.00188807 3.978 0
M  V30 3579 H 331.241 1.94042 6.26121 0
M  V30 3580 H 330.761 0.248998 5.99283 0
M  V30 3581 H 332.44 0.642867 6.43798 0
M  V30 3582 N 332.573 -1.56217 0.208337 0
M  V30 3583 C 333.822 -1.97124 -0.427204 0
M  V30 3584 C 334.135 -1.09859 -1.61835 0
M  V30 3585 O 335.341 -1.40606 -2.32255 0
M  V30 3586 C 333.797 -3.50633 -0.811442 0
M  V30 3587 C 333.405 -4.46582 0.35615 0
M  V30 3588 C 335.149 -4.00282 -1.41332 0
M  V30 3589 C 333.056 -5.91379 -0.0497852 0
M  V30 3590 H 331.986 -0.736086 -0.163381 0
M  V30 3591 H 334.637 -1.8099 0.302456 0
M  V30 3592 H 333.019 -3.62319 -1.59815 0
M  V30 3593 H 334.193 -4.46636 1.1337 0
M  V30 3594 H 332.508 -4.07202 0.870396 0
M  V30 3595 H 335.105 -5.0595 -1.72972 0
M  V30 3596 H 335.448 -3.45359 -2.32449 0
M  V30 3597 H 335.981 -3.91764 -0.690323 0
M  V30 3598 H 332.72 -6.50255 0.827529 0
M  V30 3599 H 332.24 -5.94549 -0.791926 0
M  V30 3600 H 333.919 -6.45209 -0.481042 0
M  V30 3601 N 334.051 0.0651679 -1.57465 0
M  V30 3602 C 334.983 1.10359 -2.00882 0
M  V30 3603 C 335.996 1.346 -0.915788 0
M  V30 3604 O 337.185 1.32723 -1.1936 0
M  V30 3605 C 334.285 2.45312 -2.33828 0
M  V30 3606 C 333.458 2.40934 -3.65061 0
M  V30 3607 C 332.517 3.58047 -3.85602 0
M  V30 3608 O 331.543 3.39175 -4.57109 0
M  V30 3609 N 332.745 4.78637 -3.28462 0
M  V30 3610 H 335.51 0.733807 -2.90578 0
M  V30 3611 H 333.071 0.253719 -1.599 0
M  V30 3612 H 335.063 3.22314 -2.44737 0
M  V30 3613 H 333.633 2.74267 -1.49988 0
M  V30 3614 H 332.853 1.49273 -3.64844 0
M  V30 3615 H 334.141 2.35117 -4.51218 0
M  V30 3616 H 333.539 4.96872 -2.70433 0
M  V30 3617 H 332.096 5.53127 -3.44809 0
M  V30 3618 N 335.529 1.53961 0.336706 0
M  V30 3619 C 336.778 1.70751 1.07363 0
M  V30 3620 C 337.091 0.481061 1.89592 0
M  V30 3621 O 338.297 0.530046 2.66276 0
M  V30 3622 C 336.753 3.01965 1.95818 0
M  V30 3623 C 336.361 4.31971 1.18764 0
M  V30 3624 C 338.105 3.28121 2.69327 0
M  V30 3625 C 336.012 5.54255 2.06289 0
M  V30 3626 H 334.942 0.636292 0.404535 0
M  V30 3627 H 337.593 1.80459 0.332681 0
M  V30 3628 H 335.975 2.86132 2.7376 0
M  V30 3629 H 337.149 4.5853 0.456849 0
M  V30 3630 H 335.464 4.12481 0.569946 0
M  V30 3631 H 338.061 4.16673 3.35094 0
M  V30 3632 H 338.404 2.45426 3.36261 0
M  V30 3633 H 338.937 3.44762 1.98454 0
M  V30 3634 H 335.676 6.39513 1.43885 0
M  V30 3635 H 335.196 5.31935 2.77138 0
M  V30 3636 H 336.875 5.90159 2.65182 0
M  V30 3637 N 337.007 -0.598083 1.45811 0
M  V30 3638 C 338.247 -1.36802 1.5187 0
M  V30 3639 C 338.611 -1.9133 0.160224 0
M  V30 3640 O 339.812 -2.6863 0.0955302 0
M  V30 3641 C 338.083 -2.47835 2.57513 0
M  V30 3642 S 339.642 -3.35458 2.82866 0
M  V30 3643 H 336.46 -0.466278 0.536755 0
M  V30 3644 H 339.062 -0.689152 1.82951 0
M  V30 3645 H 337.766 -2.06141 3.54872 0
M  V30 3646 H 337.297 -3.20512 2.28114 0
M  V30 3647 H 339.312 -4.46251 2.16967 0
M  V30 3648 N 338.485 -1.33259 -0.841409 0
M  V30 3649 C 339.762 -1.15174 -1.58096 0
M  V30 3650 C 340.142 0.282858 -2.09196 0
M  V30 3651 O 339.49 1.28151 -1.89181 0
M  V30 3652 C 339.7 -2.1907 -2.71679 0
M  V30 3653 C 341.048 -2.53093 -3.40924 0
M  V30 3654 O 342.072 -2.17717 -2.81918 0
M  V30 3655 O 340.931 -3.1379 -4.47435 0
M  V30 3656 H 338.025 -0.445303 -0.696875 0
M  V30 3657 H 340.571 -1.44833 -0.884385 0
M  V30 3658 H 339.343 -3.15443 -2.31541 0
M  V30 3659 H 338.966 -1.90481 -3.49002 0
M  V30 3660 N 339.963 1.05934 -1.16686 0
M  V30 3661 C 340.91 2.13499 -0.876748 0
M  V30 3662 C 341.88 1.65162 0.176299 0
M  V30 3663 O 343.065 1.90757 0.0407143 0
M  V30 3664 C 340.205 3.42912 -0.387967 0
M  V30 3665 C 339.318 4.04964 -1.50426 0
M  V30 3666 C 338.453 5.22266 -0.970125 0
M  V30 3667 C 337.492 5.76309 -2.06238 0
M  V30 3668 N 336.629 6.84922 -1.54356 0
M  V30 3669 H 341.469 2.37654 -1.7979 0
M  V30 3670 H 339.006 1.16598 -0.896843 0
M  V30 3671 H 340.964 4.17111 -0.086186 0
M  V30 3672 H 339.594 3.18963 0.496235 0
M  V30 3673 H 338.646 3.28277 -1.92193 0
M  V30 3674 H 339.958 4.41122 -2.32836 0
M  V30 3675 H 339.112 6.03506 -0.621743 0
M  V30 3676 H 337.851 4.87564 -0.115377 0
M  V30 3677 H 336.856 4.93704 -2.41942 0
M  V30 3678 H 338.081 6.13062 -2.92115 0
M  V30 3679 H 336.027 6.52131 -0.711406 0
M  V30 3680 H 335.944 7.20043 -2.30379 0
M  V30 3681 H 337.212 7.69832 -1.22387 0
M  V30 3682 N 341.441 0.965919 1.2453 0
M  V30 3683 C 342.374 0.4393 2.23932 0
M  V30 3684 C 343.352 -0.485615 1.55179 0
M  V30 3685 O 344.536 -0.417402 1.83821 0
M  V30 3686 C 341.663 -0.366042 3.36716 0
M  V30 3687 C 340.709 0.5009 4.23548 0
M  V30 3688 S 341.542 1.94002 4.99123 0
M  V30 3689 C 342.698 1.14342 6.15367 0
M  V30 3690 H 342.931 1.28167 2.68254 0
M  V30 3691 H 340.464 0.770819 1.33782 0
M  V30 3692 H 342.422 -0.824724 4.0213 0
M  V30 3693 H 341.083 -1.18337 2.90956 0
M  V30 3694 H 340.276 -0.117341 5.03863 0
M  V30 3695 H 339.878 0.89524 3.63127 0
M  V30 3696 H 342.17 0.397572 6.76332 0
M  V30 3697 H 343.113 1.92089 6.81548 0
M  V30 3698 H 343.521 0.668579 5.60527 0
M  V30 3699 N 342.919 -1.39368 0.735821 0
M  V30 3700 C 344.167 -2.00101 0.283562 0
M  V30 3701 C 344.488 -1.5868 -1.13338 0
M  V30 3702 O 343.758 -0.835423 -1.77193 0
M  V30 3703 H 342.338 -0.740024 0.101851 0
M  V30 3704 H 345 -1.70404 0.945962 0
M  V30 3705 H 344.096 -3.10323 0.332604 0
M  V30 3706 N 344.397 -0.483516 -1.5 0
M  V30 3707 C 345.36 0.292965 -2.2732 0
M  V30 3708 C 346.36 0.909499 -1.32608 0
M  V30 3709 O 347.55 0.776745 -1.55924 0
M  V30 3710 C 344.682 1.41854 -3.09984 0
M  V30 3711 H 345.875 -0.385289 -2.97415 0
M  V30 3712 H 343.428 -0.237942 -1.54478 0
M  V30 3713 H 344.163 2.13148 -2.44414 0
M  V30 3714 H 343.948 0.982114 -3.79601 0
M  V30 3715 H 345.438 1.96597 -3.68429 0
M  V30 3716 N 345.875 1.56104 -0.216619 0
M  V30 3717 C 346.805 2.23063 0.690296 0
M  V30 3718 C 347.786 1.20072 1.20485 0
M  V30 3719 O 348.971 1.48643 1.24976 0
M  V30 3720 C 346.101 2.90672 1.90072 0
M  V30 3721 C 345.055 4.00092 1.5202 0
M  V30 3722 C 344.381 4.54972 2.80899 0
M  V30 3723 C 345.681 5.17398 0.71391 0
M  V30 3724 H 347.375 2.99109 0.132038 0
M  V30 3725 H 344.921 1.43866 0.0620664 0
M  V30 3726 H 346.874 3.36204 2.54057 0
M  V30 3727 H 345.598 2.12066 2.48386 0
M  V30 3728 H 344.257 3.55283 0.903839 0
M  V30 3729 H 343.905 3.73102 3.37348 0
M  V30 3730 H 343.605 5.28817 2.56176 0
M  V30 3731 H 345.129 5.0322 3.45836 0
M  V30 3732 H 346.543 5.59342 1.25735 0
M  V30 3733 H 344.94 5.97444 0.563951 0
M  V30 3734 H 346.01 4.84088 -0.280527 0
M  V30 3735 N 347.353 -0.0568162 1.57498 0
M  V30 3736 C 348.769 -0.411933 1.54192 0
M  V30 3737 C 348.969 -1.78287 0.938942 0
M  V30 3738 O 348.025 -2.46483 0.547919 0
M  V30 3739 C 349.338 -0.339244 2.9878 0
M  V30 3740 C 350.886 -0.418348 3.10192 0
M  V30 3741 C 351.361 -0.375407 4.56459 0
M  V30 3742 N 352.852 -0.435038 4.61153 0
M  V30 3743 C 353.587 -0.424265 5.71828 0
M  V30 3744 N 353.083 -0.367418 6.91825 0
M  V30 3745 N 354.876 -0.471938 5.60115 0
M  V30 3746 H 347.027 0.840684 1.95055 0
M  V30 3747 H 349.29 0.316987 0.893433 0
M  V30 3748 H 348.996 0.601742 3.46514 0
M  V30 3749 H 348.87 -1.14371 3.59443 0
M  V30 3750 H 351.257 -1.34976 2.62422 0
M  V30 3751 H 351.338 0.414962 2.52412 0
M  V30 3752 H 350.982 0.552219 5.04889 0
M  V30 3753 H 350.912 -1.22645 5.12119 0
M  V30 3754 H 353.403 -0.482612 3.74806 0
M  V30 3755 H 353.716 -0.363535 7.71944 0
M  V30 3756 H 352.061 -0.333879 6.94198 0
M  V30 3757 H 355.252 -0.514145 4.65268 0
M  V30 3758 H 355.425 -0.460073 6.46365 0
M  V30 3759 N 348.832 -1.54138 -0.328536 0
M  V30 3760 C 350.081 -1.71318 -1.06456 0
M  V30 3761 C 350.394 -0.491109 -1.89334 0
M  V30 3762 O 351.6 -0.54416 -2.65991 0
M  V30 3763 C 350.056 -3.03 -1.94214 0
M  V30 3764 C 349.664 -4.32595 -1.16471 0
M  V30 3765 C 351.408 -3.29544 -2.67583 0
M  V30 3766 C 349.315 -5.55341 -2.03347 0
M  V30 3767 H 348.245 -0.638429 -0.401155 0
M  V30 3768 H 350.896 -1.80633 -0.323106 0
M  V30 3769 H 349.278 -2.87579 -2.72239 0
M  V30 3770 H 350.452 -4.58766 -0.432525 0
M  V30 3771 H 348.767 -4.12777 -0.548063 0
M  V30 3772 H 351.364 -4.18444 -3.3288 0
M  V30 3773 H 351.707 -2.47206 -3.34955 0
M  V30 3774 H 352.24 -3.45809 -1.96623 0
M  V30 3775 H 348.979 -6.40268 -1.40491 0
M  V30 3776 H 348.499 -5.33397 -2.74313 0
M  V30 3777 H 350.178 -5.91557 -2.62049 0
M  V30 3778 N 350.31 0.590341 -1.46126 0
M  V30 3779 C 351.535 1.37991 -1.54833 0
M  V30 3780 C 351.96 1.87163 -0.187506 0
M  V30 3781 O 351.318 1.61133 0.831008 0
M  V30 3782 C 351.366 2.54867 -2.55098 0
M  V30 3783 O 350.47 3.56061 -2.08073 0
M  V30 3784 H 349.811 0.411265 -0.521303 0
M  V30 3785 H 352.341 0.716819 -1.91632 0
M  V30 3786 H 352.351 3.01886 -2.74461 0
M  V30 3787 H 351.026 2.18429 -3.53923 0
M  V30 3788 H 349.603 3.15574 -1.98664 0
M  V30 3789 N 351.788 1.33704 0.83433 0
M  V30 3790 C 353.065 1.16011 1.57483 0
M  V30 3791 C 353.445 -0.27176 2.09343 0
M  V30 3792 O 352.793 -1.27146 1.89858 0
M  V30 3793 C 353.003 2.20507 2.70514 0
M  V30 3794 C 354.351 2.54898 3.39577 0
M  V30 3795 O 355.375 2.19209 2.80759 0
M  V30 3796 O 354.234 3.16158 4.45765 0
M  V30 3797 H 351.328 0.448992 0.694503 0
M  V30 3798 H 353.874 1.453 0.876691 0
M  V30 3799 H 352.646 3.16667 2.29865 0
M  V30 3800 H 352.269 1.92329 3.47987 0
M  V30 3801 N 353.266 -1.05314 1.17247 0
M  V30 3802 C 354.682 -1.30452 0.919473 0
M  V30 3803 C 354.882 -1.9703 -0.42209 0
M  V30 3804 O 353.938 -2.24311 -1.15935 0
M  V30 3805 C 355.251 -2.17551 2.07586 0
M  V30 3806 C 356.799 -2.30937 2.11275 0
M  V30 3807 C 357.274 -3.21396 3.26296 0
M  V30 3808 N 358.765 -3.28981 3.26076 0
M  V30 3809 C 359.5 -3.99095 4.11716 0
M  V30 3810 N 358.996 -4.71648 5.07465 0
M  V30 3811 N 360.789 -3.95247 3.9967 0
M  V30 3812 H 352.94 -0.604988 2.03602 0
M  V30 3813 H 355.203 -0.329368 0.888944 0
M  V30 3814 H 354.909 -1.75921 3.0454 0
M  V30 3815 H 354.783 -3.18182 2.02584 0
M  V30 3816 H 357.17 -2.71809 1.14907 0
M  V30 3817 H 357.251 -1.2994 2.20339 0
M  V30 3818 H 356.895 -2.81238 4.22927 0
M  V30 3819 H 356.825 -4.22395 3.14467 0
M  V30 3820 H 359.316 -2.77286 2.5675 0
M  V30 3821 H 359.629 -5.22705 5.6921 0
M  V30 3822 H 357.974 -4.70594 5.11435 0
M  V30 3823 H 361.165 -3.37691 3.24164 0
M  V30 3824 H 361.338 -4.4962 4.66632 0
M  V30 3825 N 354.744 -0.972509 -1.24016 0
M  V30 3826 C 355.993 -0.632603 -1.91523 0
M  V30 3827 C 356.306 0.836641 -1.76804 0
M  V30 3828 O 357.512 1.28728 -2.39043 0
M  V30 3829 C 355.968 -1.08082 -3.43287 0
M  V30 3830 C 355.576 -2.57386 -3.66683 0
M  V30 3831 C 357.32 -0.814288 -4.16617 0
M  V30 3832 C 355.227 -2.95915 -5.12043 0
M  V30 3833 H 354.157 -0.232898 -0.717129 0
M  V30 3834 H 356.808 -1.17936 -1.40582 0
M  V30 3835 H 355.19 -0.462339 -3.93292 0
M  V30 3836 H 356.364 -3.24405 -3.27258 0
M  V30 3837 H 354.679 -2.81701 -3.06649 0
M  V30 3838 H 357.276 -1.0781 -5.23718 0
M  V30 3839 H 357.619 0.24955 -4.15551 0
M  V30 3840 H 358.152 -1.39397 -3.72577 0
M  V30 3841 H 354.891 -4.0139 -5.18234 0
M  V30 3842 H 354.411 -2.33584 -5.52448 0
M  V30 3843 H 356.09 -2.86086 -5.80314 0
M  V30 3844 N 356.222 1.38976 -0.743202 0
M  V30 3845 C 357.132 2.3434 -0.110399 0
M  V30 3846 C 358.148 1.58741 0.712559 0
M  V30 3847 O 359.324 1.9099 0.639125 0
M  V30 3848 C 356.389 3.37812 0.780012 0
M  V30 3849 C 355.45 4.29263 -0.0561319 0
M  V30 3850 C 354.683 5.27793 0.791875 0
M  V30 3851 O 354.906 5.33043 2.03031 0
M  V30 3852 O 353.84 6.01512 0.216183 0
M  V30 3853 H 357.666 2.90129 -0.897714 0
M  V30 3854 H 355.251 1.40643 -0.503966 0
M  V30 3855 H 357.133 4.01194 1.28923 0
M  V30 3856 H 355.808 2.84395 1.546 0
M  V30 3857 H 354.715 3.69076 -0.611056 0
M  V30 3858 H 356.048 4.85907 -0.784531 0
M  V30 3859 N 357.7 0.491464 1.49741 0
M  V30 3860 C 359.116 0.146835 1.58923 0
M  V30 3861 C 359.316 -1.34804 1.49767 0
M  V30 3862 O 358.372 -2.12317 1.36667 0
M  V30 3863 C 359.685 0.715157 2.92072 0
M  V30 3864 C 361.233 0.680407 3.05515 0
M  V30 3865 C 361.708 1.22663 4.41269 0
M  V30 3866 N 363.199 1.18691 4.47735 0
M  V30 3867 C 363.934 1.57984 5.51207 0
M  V30 3868 N 363.43 2.04824 6.6183 0
M  V30 3869 N 365.223 1.49459 5.41866 0
M  V30 3870 H 357.374 1.46347 1.53936 0
M  V30 3871 H 359.637 0.606453 0.728642 0
M  V30 3872 H 359.343 1.76317 3.04311 0
M  V30 3873 H 359.217 0.17018 3.76816 0
M  V30 3874 H 361.604 -0.358743 2.92911 0
M  V30 3875 H 361.685 1.26242 2.22478 0
M  V30 3876 H 361.329 2.26451 4.54623 0
M  V30 3877 H 361.259 0.620637 5.2293 0
M  V30 3878 H 363.75 0.843605 3.68364 0
M  V30 3879 H 364.063 2.32901 7.3687 0
M  V30 3880 H 362.408 2.08791 6.62896 0
M  V30 3881 H 365.599 1.12692 4.54333 0
M  V30 3882 H 365.772 1.80406 6.22381 0
M  V30 3883 N 359.178 -1.55987 0.224894 0
M  V30 3884 C 360.426 -1.97998 -0.405099 0
M  V30 3885 C 360.747 -1.11387 -1.60056 0
M  V30 3886 O 360.017 -0.191645 -1.9496 0
M  V30 3887 H 358.597 -0.731235 -0.152658 0
M  V30 3888 H 361.259 -1.92279 0.318567 0
M  V30 3889 H 360.355 -3.03463 -0.729167 0
M  V30 3890 N 360.656 0.0484629 -1.57525 0
M  V30 3891 C 362.067 0.597486 -1.76881 0
M  V30 3892 C 362.418 1.76664 -0.853475 0
M  V30 3893 O 361.543 2.16357 -0.0433656 0
M  V30 3894 C 362.138 1.09066 -3.20765 0
M  V30 3895 C 360.697 1.58535 -3.41385 0
M  V30 3896 C 359.844 0.514868 -2.72478 0
M  V30 3897 H 362.795 -0.177758 -1.57701 0
M  V30 3898 H 362.816 1.95875 -3.2621 0
M  V30 3899 H 362.328 0.239521 -3.8736 0
M  V30 3900 H 360.429 2.45898 -2.79937 0
M  V30 3901 H 360.542 1.64622 -4.49929 0
M  V30 3902 H 358.906 0.965407 -2.35695 0
M  V30 3903 H 359.689 -0.32648 -3.41744 0
M  V30 3904 N 362.134 1.5431 0.320358 0
M  V30 3905 C 363.382 1.72327 1.05583 0
M  V30 3906 C 363.703 0.50149 1.88441 0
M  V30 3907 O 362.973 -0.48448 1.89815 0
M  V30 3908 H 361.553 0.635387 0.3928 0
M  V30 3909 H 364.215 1.91621 0.356019 0
M  V30 3910 H 363.311 2.60426 1.72003 0
M  V30 3911 N 363.613 -0.582584 1.46437 0
M  V30 3912 C 365.029 -0.905962 1.31394 0
M  V30 3913 C 365.229 -1.99468 0.285476 0
M  V30 3914 O 364.285 -2.50566 -0.311914 0
M  V30 3915 C 365.598 -1.3232 2.70022 0
M  V30 3916 C 367.146 -1.43604 2.78113 0
M  V30 3917 C 367.621 -1.88694 4.17323 0
M  V30 3918 N 369.112 -1.95887 4.19741 0
M  V30 3919 C 369.847 -2.32051 5.24347 0
M  V30 3920 N 369.343 -2.67006 6.39281 0
M  V30 3921 N 371.136 -2.32606 5.11713 0
M  V30 3922 H 363.287 0.1366 2.1196 0
M  V30 3923 H 365.55 -0.00155736 0.947999 0
M  V30 3924 H 365.256 -0.597242 3.46592 0
M  V30 3925 H 365.13 -2.28469 3.00136 0
M  V30 3926 H 367.517 -2.15286 2.01832 0
M  V30 3927 H 367.598 -0.457059 2.51684 0
M  V30 3928 H 367.242 -1.1759 4.941 0
M  V30 3929 H 367.172 -2.8755 4.4116 0
M  V30 3930 H 369.663 -1.71362 3.36814 0
M  V30 3931 H 369.976 -2.93554 7.14875 0
M  V30 3932 H 368.321 -2.64644 6.42642 0
M  V30 3933 H 371.512 -2.04721 4.2096 0
M  V30 3934 H 371.685 -2.60462 5.93349 0
M  V30 3935 N 365.091 -1.34144 -0.827227 0
M  V30 3936 C 366.041 -1.21923 -1.92663 0
M  V30 3937 C 367.025 -0.119294 -1.60457 0
M  V30 3938 O 368.217 -0.348539 -1.73534 0
M  V30 3939 C 365.346 -0.972492 -3.29238 0
M  V30 3940 C 364.432 -2.1154 -3.67576 0
M  V30 3941 N 364.823 -3.36627 -3.77512 0
M  V30 3942 C 363.121 -2.02468 -3.97395 0
M  V30 3943 C 363.822 -4.11658 -4.1099 0
M  V30 3944 N 362.798 -3.40207 -4.23981 0
M  V30 3945 H 366.6 -2.16721 -1.98517 0
M  V30 3946 H 364.114 -1.2632 -1.02064 0
M  V30 3947 H 366.111 -0.865847 -4.0781 0
M  V30 3948 H 364.771 -0.0331509 -3.24683 0
M  V30 3949 H 365.782 -3.71234 -3.61118 0
M  V30 3950 H 362.459 -1.16265 -4.00985 0
M  V30 3951 H 363.849 -5.19657 -4.25918 0
M  V30 3952 N 366.569 1.04691 -1.17803 0
M  V30 3953 C 367.817 1.7743 -0.967617 0
M  V30 3954 C 368.138 1.88359 0.504574 0
M  V30 3955 O 367.408 1.40402 1.36617 0
M  V30 3956 H 365.988 0.657242 -0.355024 0
M  V30 3957 H 368.65 1.2638 -1.48371 0
M  V30 3958 H 367.746 2.78924 -1.40027 0
M  V30 3959 N 368.047 0.979072 1.23499 0
M  V30 3960 C 369.293 0.648178 1.92163 0
M  V30 3961 C 369.626 -0.816049 1.76222 0
M  V30 3962 O 368.901 -1.58849 1.12237 0
M  V30 3963 C 369.184 1.03773 3.44824 0
M  V30 3964 C 369.037 2.55948 3.69879 0
M  V30 3965 C 370.356 0.580653 4.36253 0
M  V30 3966 H 367.475 0.236952 0.69787 0
M  V30 3967 H 370.117 1.22012 1.45647 0
M  V30 3968 H 368.267 0.551058 3.84572 0
M  V30 3969 H 369.939 3.12179 3.3962 0
M  V30 3970 H 368.182 2.98641 3.14636 0
M  V30 3971 H 368.853 2.78255 4.76737 0
M  V30 3972 H 371.329 0.998465 4.03943 0
M  V30 3973 H 370.205 0.881663 5.41773 0
M  V30 3974 H 370.466 -0.519052 4.39042 0
M  V30 3975 N 369.525 -1.3858 0.750561 0
M  V30 3976 C 370.75 -2.04997 0.314812 0
M  V30 3977 C 371.175 -1.56235 -1.04749 0
M  V30 3978 O 370.533 -0.712981 -1.66692 0
M  V30 3979 C 370.581 -3.58961 0.343415 0
M  V30 3980 O 369.685 -4.07025 -0.663628 0
M  V30 3981 H 369.026 -0.649081 0.139962 0
M  V30 3982 H 371.556 -1.77313 1.02084 0
M  V30 3983 H 371.566 -4.07542 0.193233 0
M  V30 3984 H 370.241 -3.93811 1.33738 0
M  V30 3985 H 368.818 -3.6982 -0.478307 0
M  V30 3986 N 371.003 -0.499398 -1.49478 0
M  V30 3987 C 371.951 0.293604 -2.3074 0
M  V30 3988 C 372.945 0.96427 -1.39277 0
M  V30 3989 O 374.151 0.892141 -1.56336 0
M  V30 3990 H 370.526 0.113541 -0.743379 0
M  V30 3991 H 372.497 -0.411772 -2.95545 0
M  V30 3992 C 371.246 1.3462 -3.20582 0
M  V30 3993 H 370.569 0.83954 -3.90886 0
M  V30 3994 H 372.009 1.87308 -3.80384 0
M  V30 3995 C 370.468 2.36351 -2.40083 0
M  V30 3996 O 370.998 3.422 -2.10385 0
M  V30 3997 N 369.204 2.0878 -2.02137 0
M  V30 3998 H 368.751 1.22723 -2.26488 0
M  V30 3999 H 368.709 2.77075 -1.48583 0
M  V30 4000 N 372.481 1.55866 -0.233164 0
M  V30 4001 C 373.444 2.1953 0.658715 0
M  V30 4002 C 374.444 1.16053 1.11303 0
M  V30 4003 O 375.634 1.41218 1.01996 0
M  V30 4004 C 372.766 2.82791 1.90373 0
M  V30 4005 H 373.959 2.99721 0.10347 0
M  V30 4006 H 371.512 1.56291 0.0164245 0
M  V30 4007 H 372.247 2.06501 2.50056 0
M  V30 4008 H 372.032 3.58578 1.58632 0
M  V30 4009 H 373.522 3.31556 2.53891 0
M  V30 4010 N 373.959 -0.0401083 1.57549 0
M  V30 4011 C 375.206 -0.733125 1.88763 0
M  V30 4012 C 375.534 -1.75946 0.829058 0
M  V30 4013 O 374.789 -1.94949 -0.171323 0
M  V30 4014 C 375.088 -1.44902 3.26708 0
M  V30 4015 C 374.754 -0.559707 4.47413 0
M  V30 4016 C 373.416 -0.314731 4.8017 0
M  V30 4017 C 375.768 0.0549743 5.21171 0
M  V30 4018 C 373.096 0.553886 5.8408 0
M  V30 4019 C 375.448 0.911229 6.26003 0
M  V30 4020 C 374.112 1.16577 6.57241 0
M  V30 4021 H 373.382 -0.268269 0.690733 0
M  V30 4022 H 376.029 0.00679408 1.91499 0
M  V30 4023 H 374.334 -2.26197 3.1991 0
M  V30 4024 H 376.031 -1.99058 3.48105 0
M  V30 4025 H 372.621 -0.760793 4.21794 0
M  V30 4026 H 376.805 -0.121344 4.96152 0
M  V30 4027 H 372.061 0.759518 6.06664 0
M  V30 4028 H 376.235 1.3941 6.82303 0
M  V30 4029 H 373.862 1.84058 7.37582 0
M  V30 4030 N 375.437 -1.54477 -0.31217 0
M  V30 4031 C 376.667 -1.76948 -1.06645 0
M  V30 4032 C 377.075 -0.523593 -1.81811 0
M  V30 4033 O 376.418 0.51578 -1.76311 0
M  V30 4034 C 376.48 -2.91668 -2.10166 0
M  V30 4035 C 376.144 -4.30165 -1.54296 0
M  V30 4036 C 377.141 -5.10603 -0.978793 0
M  V30 4037 C 374.826 -4.76738 -1.58196 0
M  V30 4038 C 376.82 -6.3573 -0.461048 0
M  V30 4039 C 374.507 -6.01831 -1.06034 0
M  V30 4040 C 375.505 -6.81161 -0.500844 0
M  V30 4041 O 375.193 -8.03899 0.0128958 0
M  V30 4042 H 374.925 -0.594088 -0.322546 0
M  V30 4043 H 377.479 -2.02213 -0.360441 0
M  V30 4044 H 375.709 -2.62001 -2.84416 0
M  V30 4045 H 377.398 -3.01817 -2.71406 0
M  V30 4046 H 378.164 -4.75771 -0.941651 0
M  V30 4047 H 374.043 -4.15027 -2.00683 0
M  V30 4048 H 377.587 -6.97596 -0.0236894 0
M  V30 4049 H 373.484 -6.36152 -1.09459 0
M  V30 4050 H 374.252 -8.18437 -0.101457 0
M  V30 4051 N 376.915 0.57481 -1.46744 0
M  V30 4052 C 377.845 1.69337 -1.60771 0
M  V30 4053 C 378.826 1.63825 -0.457736 0
M  V30 4054 O 380.011 1.8172 -0.684947 0
M  V30 4055 C 377.141 3.0798 -1.60517 0
M  V30 4056 C 376.095 3.28327 -2.74564 0
M  V30 4057 C 375.421 4.67578 -2.59373 0
M  V30 4058 C 376.721 3.15398 -4.16319 0
M  V30 4059 H 378.415 1.57853 -2.54407 0
M  V30 4060 H 375.961 0.75799 -1.22436 0
M  V30 4061 H 377.914 3.86061 -1.68923 0
M  V30 4062 H 376.638 3.20381 -0.634305 0
M  V30 4063 H 375.297 2.52649 -2.65639 0
M  V30 4064 H 374.945 4.76755 -1.60353 0
M  V30 4065 H 374.645 4.82144 -3.35873 0
M  V30 4066 H 376.169 5.47817 -2.69682 0
M  V30 4067 H 377.583 3.83315 -4.26313 0
M  V30 4068 H 375.98 3.41482 -4.93468 0
M  V30 4069 H 377.05 2.12372 -4.3592 0
M  V30 4070 N 378.394 1.34581 0.820102 0
M  V30 4071 C 379.624 1.29991 1.6058 0
M  V30 4072 C 380.032 -0.127588 1.88769 0
M  V30 4073 O 379.375 -1.08595 1.48165 0
M  V30 4074 C 379.437 2.02548 2.9701 0
M  V30 4075 C 379.101 3.51794 2.91701 0
M  V30 4076 C 380.098 4.46647 2.66087 0
M  V30 4077 C 377.783 3.94249 3.11245 0
M  V30 4078 C 379.777 5.81929 2.60071 0
M  V30 4079 C 377.464 5.2963 3.04853 0
M  V30 4080 C 378.462 6.23282 2.793 0
M  V30 4081 O 378.15 7.56181 2.72847 0
M  V30 4082 H 377.882 0.448539 0.505756 0
M  V30 4083 H 380.436 1.77811 1.02822 0
M  V30 4084 H 378.666 1.49345 3.56697 0
M  V30 4085 H 380.355 1.91211 3.58041 0
M  V30 4086 H 381.121 4.15168 2.5072 0
M  V30 4087 H 377 3.21749 3.30149 0
M  V30 4088 H 380.544 6.54999 2.40046 0
M  V30 4089 H 376.441 5.60727 3.19774 0
M  V30 4090 H 377.209 7.6595 2.88553 0
M  V30 4091 N 379.872 -1.04064 1.18357 0
M  V30 4092 C 381.121 -1.76662 0.973313 0
M  V30 4093 C 381.434 -1.89154 -0.497991 0
M  V30 4094 O 382.64 -2.58606 -0.826762 0
M  V30 4095 C 381.096 -3.17624 1.69242 0
M  V30 4096 C 380.704 -3.13225 3.20303 0
M  V30 4097 C 382.448 -3.946 1.56497 0
M  V30 4098 C 380.355 -4.49046 3.84853 0
M  V30 4099 H 379.285 -0.662214 0.36054 0
M  V30 4100 H 381.936 -1.16553 1.41731 0
M  V30 4101 H 380.318 -3.78129 1.1762 0
M  V30 4102 H 381.492 -2.62172 3.78949 0
M  V30 4103 H 379.807 -2.49749 3.33189 0
M  V30 4104 H 382.404 -4.95042 2.02084 0
M  V30 4105 H 382.747 -4.13074 0.517243 0
M  V30 4106 H 383.28 -3.4067 2.05399 0
M  V30 4107 H 380.019 -4.35777 4.89672 0
M  V30 4108 H 379.539 -5.00203 3.30994 0
M  V30 4109 H 381.218 -5.17961 3.87718 0
M  V30 4110 N 381.35 -0.985608 -1.22978 0
M  V30 4111 C 382.28 -0.549649 -2.26939 0
M  V30 4112 C 383.261 0.419803 -1.64838 0
M  V30 4113 O 384.446 0.31203 -1.91677 0
M  V30 4114 C 381.576 0.143652 -3.47003 0
M  V30 4115 C 380.53 -0.743606 -4.21491 0
M  V30 4116 C 379.856 0.0822027 -5.34637 0
M  V30 4117 C 381.156 -2.03694 -4.80943 0
M  V30 4118 H 382.85 -1.41862 -2.63658 0
M  V30 4119 H 380.396 -0.683571 -1.26741 0
M  V30 4120 H 382.349 0.459985 -4.18882 0
M  V30 4121 H 381.073 1.04711 -3.09359 0
M  V30 4122 H 379.732 -1.04347 -3.51436 0
M  V30 4123 H 379.38 0.986359 -4.93234 0
M  V30 4124 H 379.08 -0.508377 -5.85397 0
M  V30 4125 H 380.604 0.392797 -6.09335 0
M  V30 4126 H 382.018 -1.78504 -5.44802 0
M  V30 4127 H 380.415 -2.57573 -5.42011 0
M  V30 4128 H 381.485 -2.72042 -4.01399 0
M  V30 4129 N 382.828 1.3818 -0.7579 0
M  V30 4130 C 384.105 1.94106 -0.241306 0
M  V30 4131 C 384.485 1.69282 1.26122 0
M  V30 4132 O 383.833 1.03378 2.03777 0
M  V30 4133 C 384.043 3.43809 -0.59967 0
M  V30 4134 C 385.391 4.20868 -0.561717 0
M  V30 4135 O 386.415 3.5211 -0.538222 0
M  V30 4136 O 385.274 5.43451 -0.576478 0
M  V30 4137 H 382.368 0.825376 -0.0518042 0
M  V30 4138 H 384.914 1.47548 -0.838315 0
M  V30 4139 H 383.686 3.55403 -1.6372 0
M  V30 4140 H 383.309 3.97592 0.0251197 0
M  V30 4141 N 384.306 0.507319 1.49211 0
M  V30 4142 C 385.717 0.0611118 1.866 0
M  V30 4143 C 386.068 -1.35488 1.41907 0
M  V30 4144 O 385.193 -2.0108 0.799726 0
M  V30 4145 C 385.788 0.104125 3.3864 0
M  V30 4146 C 384.347 -0.28677 3.75306 0
M  V30 4147 C 383.494 0.473893 2.73221 0
M  V30 4148 H 386.445 0.719775 1.41439 0
M  V30 4149 H 386.466 -0.689672 3.74198 0
M  V30 4150 H 385.978 1.13482 3.71138 0
M  V30 4151 H 384.079 -1.32046 3.48417 0
M  V30 4152 H 384.192 0.0370745 4.79086 0
M  V30 4153 H 382.556 -0.0770644 2.54583 0
M  V30 4154 H 383.339 1.50478 3.08563 0
M  V30 4155 N 385.784 -1.5574 0.241426 0
M  V30 4156 C 387.061 -1.90704 -0.434881 0
M  V30 4157 C 387.441 -1.16145 -1.76277 0
M  V30 4158 O 386.789 -0.277152 -2.26813 0
M  V30 4159 C 386.999 -3.43657 -0.608343 0
M  V30 4160 C 388.347 -4.14806 -0.906725 0
M  V30 4161 O 389.371 -3.49366 -0.694408 0
M  V30 4162 O 388.23 -5.30548 -1.31075 0
M  V30 4163 H 385.324 -0.793592 -0.23268 0
M  V30 4164 H 387.87 -1.67288 0.285086 0
M  V30 4165 H 386.642 -3.89927 0.327505 0
M  V30 4166 H 386.265 -3.72918 -1.37906 0
M  V30 4167 N 387.262 0.0317525 -1.57568 0
M  V30 4168 C 388.21 1.05165 -2.07468 0
M  V30 4169 C 389.204 1.3761 -0.98792 0
M  V30 4170 O 390.41 1.36546 -1.17282 0
M  V30 4171 H 386.785 0.35666 -0.66204 0
M  V30 4172 H 388.756 0.604958 -2.92203 0
M  V30 4173 C 387.505 2.34488 -2.56731 0
M  V30 4174 H 386.828 2.10383 -3.39969 0
M  V30 4175 H 388.268 3.04203 -2.95358 0
M  V30 4176 C 386.727 3.03266 -1.46736 0
M  V30 4177 O 387.257 3.92988 -0.832069 0
M  V30 4178 N 385.463 2.6455 -1.20256 0
M  V30 4179 H 385.01 1.91674 -1.72102 0
M  V30 4180 H 384.968 3.10886 -0.468737 0
M  V30 4181 N 388.74 1.54641 0.303973 0
M  V30 4182 C 389.69 1.8177 1.37636 0
M  V30 4183 C 390.674 0.674697 1.46071 0
M  V30 4184 O 391.866 0.935251 1.50273 0
M  V30 4185 C 388.995 2.06584 2.74186 0
M  V30 4186 C 388.081 3.2706 2.69986 0
M  V30 4187 N 388.472 4.47682 2.35402 0
M  V30 4188 C 386.77 3.29028 3.01092 0
M  V30 4189 C 387.471 5.29689 2.40426 0
M  V30 4190 N 386.447 4.67339 2.7766 0
M  V30 4191 H 390.249 2.72596 1.09857 0
M  V30 4192 H 387.763 1.541 0.51254 0
M  V30 4193 H 389.76 2.24166 3.51504 0
M  V30 4194 H 388.42 1.17024 3.02879 0
M  V30 4195 H 389.431 4.74336 2.07908 0
M  V30 4196 H 386.108 2.49565 3.34699 0
M  V30 4197 H 387.498 6.3606 2.16512 0
M  V30 4198 N 390.218 -0.567019 1.47046 0
M  V30 4199 C 391.634 -0.891975 1.32348 0
M  V30 4200 C 391.834 -1.99154 0.306616 0
M  V30 4201 O 390.89 -2.50883 -0.28532 0
M  V30 4202 C 392.203 -1.29449 2.7141 0
M  V30 4203 C 393.751 -1.40646 2.79621 0
M  V30 4204 C 394.226 -1.84257 4.19301 0
M  V30 4205 N 395.717 -1.91424 4.21795 0
M  V30 4206 C 396.452 -2.26476 5.26779 0
M  V30 4207 N 395.948 -2.60211 6.42077 0
M  V30 4208 N 397.741 -2.27166 5.14152 0
M  V30 4209 H 389.892 0.159074 2.11803 0
M  V30 4210 H 392.155 0.00849752 0.947962 0
M  V30 4211 H 391.861 -0.560448 3.47206 0
M  V30 4212 H 391.735 -2.25273 3.02542 0
M  V30 4213 H 394.122 -2.13133 2.04104 0
M  V30 4214 H 394.203 -0.430339 2.52154 0
M  V30 4215 H 393.847 -1.12343 4.95319 0
M  V30 4216 H 393.777 -2.82855 4.44185 0
M  V30 4217 H 396.268 -1.6778 3.38612 0
M  V30 4218 H 396.581 -2.85956 7.17948 0
M  V30 4219 H 394.926 -2.57813 6.45413 0
M  V30 4220 H 398.117 -2.00244 4.23107 0
M  V30 4221 H 398.29 -2.54154 5.96079 0
M  V30 4222 N 391.696 -1.35014 -0.812953 0
M  V30 4223 C 392.945 -1.27269 -1.56479 0
M  V30 4224 C 393.258 0.152771 -1.95002 0
M  V30 4225 O 394.464 0.352451 -2.69203 0
M  V30 4226 C 392.92 -2.23159 -2.82362 0
M  V30 4227 C 392.528 -3.71016 -2.511 0
M  V30 4228 C 394.272 -2.24342 -3.60376 0
M  V30 4229 C 392.179 -4.58746 -3.73237 0
M  V30 4230 H 391.109 -0.472829 -0.587324 0
M  V30 4231 H 393.76 -1.6024 -0.894171 0
M  V30 4232 H 392.142 -1.83151 -3.51101 0
M  V30 4233 H 393.316 -4.1962 -1.90409 0
M  V30 4234 H 391.631 -3.72378 -1.86343 0
M  V30 4235 H 394.228 -2.87107 -4.51081 0
M  V30 4236 H 394.571 -1.24542 -3.97234 0
M  V30 4237 H 395.104 -2.62846 -2.98591 0
M  V30 4238 H 391.843 -5.59521 -3.41492 0
M  V30 4239 H 391.363 -4.14871 -4.33176 0
M  V30 4240 H 393.042 -4.73852 -4.40537 0
M  V30 4241 N 393.175 1.03435 -1.18907 0
M  V30 4242 C 394.085 2.15075 -0.937015 0
M  V30 4243 C 395.101 1.73706 0.101085 0
M  V30 4244 O 396.277 2.01232 -0.0822948 0
M  V30 4245 C 393.342 3.43458 -0.473057 0
M  V30 4246 C 392.403 3.99172 -1.57989 0
M  V30 4247 C 391.636 5.21427 -1.13797 0
M  V30 4248 O 391.859 5.704 0.000725941 0
M  V30 4249 O 390.793 5.69837 -1.9383 0
M  V30 4250 H 394.619 2.39198 -1.87131 0
M  V30 4251 H 392.204 1.13506 -0.971427 0
M  V30 4252 H 394.086 4.20811 -0.222702 0
M  V30 4253 H 392.761 3.20793 0.432869 0
M  V30 4254 H 391.668 3.23178 -1.88433 0
M  V30 4255 H 393.001 4.2619 -2.46217 0
M  V30 4256 N 394.653 0.992116 1.22453 0
M  V30 4257 C 395.902 0.662992 1.90492 0
M  V30 4258 C 396.215 -0.808407 1.78113 0
M  V30 4259 O 397.421 -1.24908 2.41061 0
M  V30 4260 C 395.877 1.1353 3.41524 0
M  V30 4261 C 395.485 2.63187 3.62542 0
M  V30 4262 C 397.229 0.880465 4.15269 0
M  V30 4263 C 395.136 3.04024 5.0727 0
M  V30 4264 H 394.066 0.244278 0.713333 0
M  V30 4265 H 396.717 1.20157 1.38688 0
M  V30 4266 H 395.099 0.52485 3.92506 0
M  V30 4267 H 396.273 3.2957 3.22056 0
M  V30 4268 H 394.588 2.86543 3.02129 0
M  V30 4269 H 397.185 1.16128 5.21937 0
M  V30 4270 H 397.528 -0.183408 4.15896 0
M  V30 4271 H 398.061 1.45307 3.70312 0
M  V30 4272 H 394.8 4.09584 5.11782 0
M  V30 4273 H 394.32 2.42343 5.48662 0
M  V30 4274 H 395.999 2.95282 5.75689 0
M  V30 4275 N 396.131 -1.37776 0.765217 0
M  V30 4276 C 397.361 -2.03828 0.337277 0
M  V30 4277 C 397.769 -1.57841 -1.04321 0
M  V30 4278 O 397.112 -0.752043 -1.67601 0
M  V30 4279 C 397.174 -3.58292 0.294407 0
M  V30 4280 C 396.838 -4.27384 1.61838 0
M  V30 4281 C 397.835 -4.51956 2.56967 0
M  V30 4282 C 395.52 -4.65345 1.89102 0
M  V30 4283 C 397.514 -5.13536 3.77571 0
M  V30 4284 C 395.201 -5.26647 3.09978 0
M  V30 4285 C 396.199 -5.50679 4.04032 0
M  V30 4286 O 395.887 -6.10702 5.2278 0
M  V30 4287 H 395.619 -0.661292 0.140248 0
M  V30 4288 H 398.173 -1.77222 1.03834 0
M  V30 4289 H 396.403 -3.83918 -0.462983 0
M  V30 4290 H 398.092 -4.05763 -0.105581 0
M  V30 4291 H 398.858 -4.23048 2.37183 0
M  V30 4292 H 394.737 -4.45978 1.16725 0
M  V30 4293 H 398.281 -5.3221 4.50997 0
M  V30 4294 H 394.178 -5.54979 3.29649 0
M  V30 4295 H 394.946 -6.29183 5.23517 0
M  V30 4296 N 397.609 -0.515225 -1.4894 0
M  V30 4297 C 398.837 0.0206034 -2.0689 0
M  V30 4298 C 399.252 1.29514 -1.37374 0
M  V30 4299 O 398.609 1.76698 -0.456529 0
M  V30 4300 C 398.66 0.26351 -3.60538 0
M  V30 4301 O 398.381 -0.960517 -4.27441 0
M  V30 4302 C 399.882 0.841383 -4.35242 0
M  V30 4303 H 397.102 -0.0268608 -0.670462 0
M  V30 4304 H 399.646 -0.716651 -1.91532 0
M  V30 4305 H 397.801 0.950777 -3.75552 0
M  V30 4306 H 398.215 -0.73212 -5.19365 0
M  V30 4307 H 399.689 0.96085 -5.43573 0
M  V30 4308 H 400.166 1.8427 -3.98674 0
M  V30 4309 H 400.772 0.191143 -4.2487 0
M  V30 4310 N 399.087 1.5561 -0.249682 0
M  V30 4311 C 400.019 2.18834 0.681496 0
M  V30 4312 C 401.032 1.16546 1.1367 0
M  V30 4313 O 402.221 1.43397 1.06299 0
M  V30 4314 C 399.321 2.77992 1.9384 0
M  V30 4315 C 398.494 4.05725 1.63419 0
M  V30 4316 C 397.553 4.49174 2.74096 0
M  V30 4317 O 396.579 5.15492 2.41364 0
M  V30 4318 N 397.781 4.17191 4.03649 0
M  V30 4319 H 400.546 2.9937 0.140514 0
M  V30 4320 H 398.107 1.6175 -0.0697541 0
M  V30 4321 H 400.099 3.04015 2.67127 0
M  V30 4322 H 398.669 2.01596 2.38909 0
M  V30 4323 H 397.889 3.87261 0.736358 0
M  V30 4324 H 399.177 4.88999 1.40562 0
M  V30 4325 H 398.575 3.63955 4.33074 0
M  V30 4326 H 397.132 4.48043 4.73393 0
M  V30 4327 N 400.565 -0.0233959 1.57583 0
M  V30 4328 C 401.842 -0.748794 1.807 0
M  V30 4329 C 402.222 -1.9327 0.849106 0
M  V30 4330 O 401.57 -2.28247 -0.107468 0
M  V30 4331 C 401.78 -1.17651 3.28571 0
M  V30 4332 C 403.128 -1.59008 3.93702 0
M  V30 4333 O 404.152 -1.27094 3.32755 0
M  V30 4334 O 403.011 -2.18264 5.01022 0
M  V30 4335 H 400.105 -0.362578 0.743281 0
M  V30 4336 H 402.651 0.000261958 1.697 0
M  V30 4337 H 401.423 -0.331603 3.89892 0
M  V30 4338 H 401.046 -1.98541 3.44481 0
M  V30 4339 N 402.043 -1.548 -0.295768 0
M  V30 4340 C 403.273 -1.78069 -1.04762 0
M  V30 4341 C 403.681 -0.542847 -1.81245 0
M  V30 4342 O 403.024 0.497051 -1.76848 0
M  V30 4343 C 403.086 -2.93881 -2.07061 0
M  V30 4344 C 402.75 -4.31777 -1.49725 0
M  V30 4345 C 403.747 -5.11613 -0.924581 0
M  V30 4346 C 401.432 -4.78389 -1.5313 0
M  V30 4347 C 403.426 -6.36184 -0.393594 0
M  V30 4348 C 401.113 -6.02921 -0.996447 0
M  V30 4349 C 402.111 -6.81654 -0.428569 0
M  V30 4350 O 401.799 -8.0384 0.0981593 0
M  V30 4351 H 401.531 -0.597475 -0.316226 0
M  V30 4352 H 404.085 -2.02584 -0.338973 0
M  V30 4353 H 402.315 -2.65003 -2.81621 0
M  V30 4354 H 404.004 -3.04679 -2.6819 0
M  V30 4355 H 404.77 -4.76743 -0.891136 0
M  V30 4356 H 400.649 -4.17132 -1.9627 0
M  V30 4357 H 404.193 -6.97582 0.0503014 0
M  V30 4358 H 400.09 -6.37277 -1.02706 0
M  V30 4359 H 400.858 -8.18499 -0.0146455 0
M  V30 4360 N 403.521 0.559213 -1.47345 0
M  V30 4361 C 404.751 1.33999 -1.57251 0
M  V30 4362 C 405.159 1.87905 -0.220978 0
M  V30 4363 O 404.502 1.65577 0.795617 0
M  V30 4364 C 404.564 2.54798 -2.53611 0
M  V30 4365 C 404.228 2.22192 -3.99349 0
M  V30 4366 C 405.225 1.79607 -4.87891 0
M  V30 4367 C 402.91 2.33613 -4.44669 0
M  V30 4368 C 404.904 1.48868 -6.19772 0
M  V30 4369 C 402.591 2.02487 -5.76578 0
M  V30 4370 C 403.589 1.60183 -6.63951 0
M  V30 4371 O 403.277 1.29451 -7.93409 0
M  V30 4372 H 403.009 0.414858 -0.533731 0
M  V30 4373 H 405.563 0.684465 -1.9366 0
M  V30 4374 H 403.793 3.23235 -2.12265 0
M  V30 4375 H 405.482 3.16873 -2.53666 0
M  V30 4376 H 406.248 1.70278 -4.54126 0
M  V30 4377 H 402.127 2.65501 -3.76869 0
M  V30 4378 H 405.671 1.15775 -6.87926 0
M  V30 4379 H 401.568 2.11448 -6.09885 0
M  V30 4380 H 402.336 1.43098 -8.05894 0
M  V30 4381 N 404.999 1.35443 0.805782 0
M  V30 4382 C 406.227 1.31878 1.59423 0
M  V30 4383 C 406.642 -0.103562 1.88516 0
M  V30 4384 O 405.999 -1.05575 1.48863 0
M  V30 4385 C 406.05 2.12426 2.92502 0
M  V30 4386 O 405.771 3.49115 2.6467 0
M  V30 4387 C 407.272 2.16455 3.86862 0
M  V30 4388 H 404.492 0.453002 0.495005 0
M  V30 4389 H 407.036 1.78309 1.00131 0
M  V30 4390 H 405.191 1.69593 3.48306 0
M  V30 4391 H 405.605 3.90957 3.49647 0
M  V30 4392 H 407.079 2.77204 4.77349 0
M  V30 4393 H 407.556 1.16352 4.23508 0
M  V30 4394 H 408.162 2.59453 3.36993 0
M  V30 4395 N 406.477 -1.02803 1.19454 0
M  V30 4396 C 407.725 -1.75869 0.995722 0
M  V30 4397 C 408.046 -1.89138 -0.474543 0
M  V30 4398 O 407.316 -1.42558 -1.34366 0
M  V30 4399 H 405.896 -0.651511 0.365435 0
M  V30 4400 H 408.558 -1.24004 1.50363 0
M  V30 4401 H 407.654 -2.76661 1.44447 0
M  V30 4402 N 407.956 -0.998596 -1.21925 0
M  V30 4403 C 409.233 -0.593401 -1.86382 0
M  V30 4404 C 409.613 0.92916 -1.89552 0
M  V30 4405 O 408.961 1.81347 -1.39017 0
M  V30 4406 C 409.171 -1.22039 -3.26967 0
M  V30 4407 C 410.519 -1.32449 -4.03413 0
M  V30 4408 O 411.543 -1.17522 -3.36254 0
M  V30 4409 O 410.402 -1.56395 -5.23644 0
M  V30 4410 H 407.496 -0.202385 -0.801854 0
M  V30 4411 H 410.042 -1.09484 -1.29659 0
M  V30 4412 H 408.814 -2.26158 -3.19325 0
M  V30 4413 H 408.437 -0.704906 -3.91301 0
M  V30 4414 N 409.434 1.37368 -0.772513 0
M  V30 4415 C 410.845 1.8231 -0.402493 0
M  V30 4416 C 411.196 1.6436 1.07146 0
M  V30 4417 O 410.321 1.15514 1.82991 0
M  V30 4418 C 410.916 3.30979 -0.723776 0
M  V30 4419 C 409.475 3.74195 -0.406802 0
M  V30 4420 C 408.622 2.59885 -0.967218 0
M  V30 4421 H 411.573 1.25829 -0.967099 0
M  V30 4422 H 411.594 3.80499 -0.00870832 0
M  V30 4423 H 411.106 3.44011 -1.7966 0
M  V30 4424 H 409.207 3.66732 0.658673 0
M  V30 4425 H 409.32 4.7027 -0.915588 0
M  V30 4426 H 407.684 2.51674 -0.391416 0
M  V30 4427 H 408.467 2.7571 -2.04546 0
M  V30 4428 N 410.912 0.523116 1.48665 0
M  V30 4429 C 412.189 -0.0775449 1.95446 0
M  V30 4430 C 412.569 -1.5197 1.4652 0
M  V30 4431 O 411.917 -2.17876 0.688657 0
M  V30 4432 C 412.127 0.0326135 3.48985 0
M  V30 4433 C 413.475 -0.130141 4.24401 0
M  V30 4434 O 414.499 -0.0415142 3.56176 0
M  V30 4435 O 413.358 -0.31491 5.45592 0
M  V30 4436 H 410.452 -0.0831012 0.822814 0
M  V30 4437 H 412.998 0.587227 1.59216 0
M  V30 4438 H 411.77 1.03748 3.77296 0
M  V30 4439 H 411.393 -0.671317 3.91892 0
M  V30 4440 N 412.39 -1.55475 0.257931 0
M  V30 4441 C 413.338 -2.23244 -0.653076 0
M  V30 4442 C 414.332 -1.22366 -1.17144 0
M  V30 4443 O 415.538 -1.40347 -1.12706 0
M  V30 4444 H 411.913 -0.716247 -0.229117 0
M  V30 4445 H 413.884 -2.98343 -0.0584788 0
M  V30 4446 C 412.633 -2.95401 -1.83395 0
M  V30 4447 H 411.956 -3.72802 -1.44424 0
M  V30 4448 H 413.396 -3.46165 -2.44838 0
M  V30 4449 C 411.855 -1.99895 -2.71189 0
M  V30 4450 O 412.385 -1.53909 -3.71046 0
M  V30 4451 N 410.591 -1.6676 -2.3799 0
M  V30 4452 H 410.138 -2.04352 -1.56837 0
M  V30 4453 H 410.096 -1.03127 -2.97005 0
M  V30 4454 N 413.868 0.0150385 -1.57593 0
M  V30 4455 C 415.279 0.559832 -1.78109 0
M  V30 4456 C 415.63 1.74814 -0.890756 0
M  V30 4457 O 414.755 2.16216 -0.0892482 0
M  V30 4458 C 415.35 1.02238 -3.23006 0
M  V30 4459 C 413.909 1.51258 -3.44671 0
M  V30 4460 C 413.056 0.456955 -2.73509 0
M  V30 4461 H 416.007 -0.211169 -1.57289 0
M  V30 4462 H 416.028 1.88912 -3.30292 0
M  V30 4463 H 415.54 0.157302 -3.87781 0
M  V30 4464 H 413.641 2.39905 -2.8509 0
M  V30 4465 H 413.754 1.55042 -4.5332 0
M  V30 4466 H 412.118 0.915196 -2.37689 0
M  V30 4467 H 412.901 -0.398896 -3.40975 0
M  V30 4468 N 415.346 1.54954 0.287554 0
M  V30 4469 C 416.574 1.78881 1.03967 0
M  V30 4470 C 416.989 0.554894 1.80462 0
M  V30 4471 O 416.346 -0.475676 1.76192 0
M  V30 4472 C 416.397 3.00488 2.0097 0
M  V30 4473 O 416.118 4.19113 1.27577 0
M  V30 4474 C 417.619 3.36907 2.88112 0
M  V30 4475 H 414.839 0.596259 0.307761 0
M  V30 4476 H 417.383 2.01937 0.322749 0
M  V30 4477 H 415.538 2.79601 2.68145 0
M  V30 4478 H 415.952 4.87765 1.92835 0
M  V30 4479 H 417.426 4.25205 3.52001 0
M  V30 4480 H 417.903 2.55659 3.57121 0
M  V30 4481 H 418.509 3.60001 2.26449 0
M  V30 4482 N 416.824 -0.551391 1.4764 0
M  V30 4483 C 418.073 -1.30467 1.53822 0
M  V30 4484 C 418.386 -1.94495 0.207661 0
M  V30 4485 O 419.592 -2.71099 0.147533 0
M  V30 4486 C 418.048 -2.36616 2.71184 0
M  V30 4487 C 417.656 -1.78754 4.10793 0
M  V30 4488 C 419.4 -3.13088 2.86663 0
M  V30 4489 C 417.307 -2.82717 5.19447 0
M  V30 4490 H 416.237 -0.490584 0.572576 0
M  V30 4491 H 418.888 -0.58494 1.73927 0
M  V30 4492 H 417.27 -3.11529 2.4447 0
M  V30 4493 H 418.444 -1.10173 4.47435 0
M  V30 4494 H 416.759 -1.14846 4.00249 0
M  V30 4495 H 419.356 -3.90736 3.65007 0
M  V30 4496 H 419.699 -3.67635 1.95321 0
M  V30 4497 H 420.232 -2.45288 3.13175 0
M  V30 4498 H 416.971 -2.33018 6.12685 0
M  V30 4499 H 416.491 -3.4969 4.87316 0
M  V30 4500 H 418.17 -3.46102 5.46646 0
M  V30 4501 N 418.302 -1.35869 -0.798587 0
M  V30 4502 C 419.53 -1.32722 -1.58722 0
M  V30 4503 C 419.945 0.0935631 -1.88568 0
M  V30 4504 O 419.302 1.04784 -1.49421 0
M  V30 4505 C 419.353 -2.13974 -2.91371 0
M  V30 4506 O 419.074 -3.50514 -2.62815 0
M  V30 4507 C 420.575 -2.18504 -3.85708 0
M  V30 4508 H 417.795 -0.45562 -0.492596 0
M  V30 4509 H 420.339 -1.78837 -0.991843 0
M  V30 4510 H 418.494 -1.71438 -3.47402 0
M  V30 4511 H 418.908 -3.92806 -3.47568 0
M  V30 4512 H 420.382 -2.79732 -4.75872 0
M  V30 4513 H 420.859 -1.18597 -4.22885 0
M  V30 4514 H 421.465 -2.61236 -3.35612 0
M  V30 4515 N 419.78 1.02168 -1.19998 0
M  V30 4516 C 421.026 1.7606 -1.01855 0
M  V30 4517 C 421.381 1.87178 0.445222 0
M  V30 4518 O 420.674 1.3828 1.32624 0
M  V30 4519 C 420.868 3.18081 -1.62969 0
M  V30 4520 C 420.697 3.20809 -3.15137 0
M  V30 4521 C 419.467 3.28342 -3.84083 0
M  V30 4522 C 421.665 3.07268 -4.1242 0
M  V30 4523 N 419.647 3.2052 -5.23584 0
M  V30 4524 C 421.018 3.0716 -5.38566 0
M  V30 4525 C 423.073 2.91448 -4.03686 0
M  V30 4526 C 421.776 2.92853 -6.56985 0
M  V30 4527 C 423.802 2.78494 -5.21723 0
M  V30 4528 C 423.164 2.79046 -6.46771 0
M  V30 4529 H 419.263 0.655192 -0.426905 0
M  V30 4530 H 421.847 1.21564 -1.52087 0
M  V30 4531 H 420.018 3.70882 -1.15329 0
M  V30 4532 H 421.75 3.80375 -1.38192 0
M  V30 4533 H 418.505 3.34859 -3.34913 0
M  V30 4534 H 418.929 3.19997 -5.96599 0
M  V30 4535 H 423.571 2.89838 -3.07821 0
M  V30 4536 H 421.289 2.93213 -7.53028 0
M  V30 4537 H 424.875 2.67278 -5.16773 0
M  V30 4538 H 423.755 2.69134 -7.36571 0
M  V30 4539 N 421.258 1.00505 1.21394 0
M  V30 4540 C 422.206 0.558623 2.25792 0
M  V30 4541 C 423.2 -0.396848 1.64686 0
M  V30 4542 O 424.406 -0.268035 1.77993 0
M  V30 4543 H 420.781 0.1623 0.734277 0
M  V30 4544 H 422.752 1.4503 2.60785 0
M  V30 4545 C 421.501 -0.0989574 3.47559 0
M  V30 4546 H 420.824 0.627225 3.94849 0
M  V30 4547 H 422.264 -0.3746 4.22342 0
M  V30 4548 C 420.723 -1.33817 3.09184 0
M  V30 4549 O 421.253 -2.43252 3.19674 0
M  V30 4550 N 419.459 -1.21793 2.63846 0
M  V30 4551 H 419.006 -0.32746 2.5551 0
M  V30 4552 H 418.964 -2.04809 2.38539 0
M  V30 4553 N 422.737 -1.36956 0.779787 0
M  V30 4554 C 423.983 -1.99787 0.348281 0
M  V30 4555 C 424.316 -1.61756 -1.07465 0
M  V30 4556 O 423.591 -0.867639 -1.74075 0
M  V30 4557 C 423.874 -3.56597 0.50104 0
M  V30 4558 C 423.727 -4.04513 1.96697 0
M  V30 4559 C 425.046 -4.40008 -0.0898097 0
M  V30 4560 H 422.165 -0.725796 0.128022 0
M  V30 4561 H 424.807 -1.62514 0.984331 0
M  V30 4562 H 422.957 -3.88479 -0.0404347 0
M  V30 4563 H 424.629 -3.83161 2.56876 0
M  V30 4564 H 422.872 -3.56408 2.47297 0
M  V30 4565 H 423.543 -5.1352 2.02486 0
M  V30 4566 H 426.019 -4.14431 0.372293 0
M  V30 4567 H 424.895 -5.4888 0.0471605 0
M  V30 4568 H 425.156 -4.26035 -1.18096 0
M  V30 4569 N 424.215 -0.530993 -1.48385 0
M  V30 4570 C 425.165 0.251092 -2.26613 0
M  V30 4571 C 426.149 0.908977 -1.32765 0
M  V30 4572 O 427.341 0.811616 -1.57295 0
M  V30 4573 C 424.47 1.29677 -3.17866 0
M  V30 4574 C 423.556 0.643627 -4.19188 0
M  V30 4575 N 423.947 -0.271223 -5.05072 0
M  V30 4576 C 422.245 0.900711 -4.3681 0
M  V30 4577 C 422.946 -0.648109 -5.78078 0
M  V30 4578 N 421.922 -0.00895987 -5.43599 0
M  V30 4579 H 425.724 -0.452702 -2.90393 0
M  V30 4580 H 423.238 -0.349091 -1.58604 0
M  V30 4581 H 425.235 1.87079 -3.72568 0
M  V30 4582 H 423.895 2.00193 -2.55642 0
M  V30 4583 H 424.906 -0.643883 -5.13882 0
M  V30 4584 H 421.583 1.59636 -3.85775 0
M  V30 4585 H 422.973 -1.39833 -6.57188 0
M  V30 4586 N 425.693 1.55336 -0.266172 0
M  V30 4587 C 426.97 1.91372 0.404486 0
M  V30 4588 C 427.35 1.18935 1.74407 0
M  V30 4589 O 426.698 0.3132 2.26343 0
M  V30 4590 C 426.908 3.44581 0.553593 0
M  V30 4591 C 428.256 4.16196 0.840618 0
M  V30 4592 O 429.28 3.50426 0.638739 0
M  V30 4593 O 428.139 5.32567 1.22618 0
M  V30 4594 H 425.233 0.797194 0.220025 0
M  V30 4595 H 427.779 1.66813 -0.311664 0
M  V30 4596 H 426.551 3.89357 -0.389498 0
M  V30 4597 H 426.174 3.75065 1.31955 0
M  V30 4598 N 427.171 -0.0066808 1.57599 0
M  V30 4599 C 428.119 -1.01851 2.09115 0
M  V30 4600 C 429.113 -1.36021 1.00969 0
M  V30 4601 O 430.319 -1.34663 1.19439 0
M  V30 4602 H 426.694 -0.346083 0.667631 0
M  V30 4603 H 428.665 -0.558394 2.93129 0
M  V30 4604 C 427.414 -2.30374 2.60429 0
M  V30 4605 H 426.737 -2.04947 3.43273 0
M  V30 4606 H 428.177 -2.99466 3.00161 0
M  V30 4607 C 426.636 -3.00893 1.51542 0
M  V30 4608 O 427.166 -3.91614 0.894484 0
M  V30 4609 N 425.372 -2.62603 1.2445 0
M  V30 4610 H 424.919 -1.88911 1.75129 0
M  V30 4611 H 424.877 -3.10101 0.518137 0
M  V30 4612 N 428.649 -1.55105 -0.279332 0
M  V30 4613 C 429.581 -1.83952 -1.36727 0
M  V30 4614 C 430.594 -0.723642 -1.45833 0
M  V30 4615 O 431.783 -1.00141 -1.47763 0
M  V30 4616 C 428.883 -1.98183 -2.74912 0
M  V30 4617 C 428.056 -3.28787 -2.88475 0
M  V30 4618 C 427.115 -3.33162 -4.07295 0
M  V30 4619 O 426.141 -4.06576 -3.98353 0
M  V30 4620 N 427.343 -2.60109 -5.18964 0
M  V30 4621 H 430.108 -2.77853 -1.12328 0
M  V30 4622 H 427.669 -1.54945 -0.469442 0
M  V30 4623 H 429.661 -1.98488 -3.52682 0
M  V30 4624 H 428.231 -1.11177 -2.92162 0
M  V30 4625 H 427.451 -3.41075 -1.97641 0
M  V30 4626 H 428.739 -4.14933 -2.94463 0
M  V30 4627 H 428.137 -2.00136 -5.29115 0
M  V30 4628 H 426.694 -2.66143 -5.94988 0
M  V30 4629 N 430.127 0.543554 -1.4793 0
M  V30 4630 C 431.543 0.870806 -1.3375 0
M  V30 4631 C 431.743 1.9864 -0.338261 0
M  V30 4632 O 430.799 2.51305 0.245371 0
M  V30 4633 C 432.112 1.25114 -2.73435 0
M  V30 4634 C 433.66 1.3618 -2.81823 0
M  V30 4635 C 434.135 1.77563 -4.22179 0
M  V30 4636 N 435.626 1.8469 -4.24787 0
M  V30 4637 C 436.361 2.18067 -5.30315 0
M  V30 4638 N 435.857 2.49963 -6.46135 0
M  V30 4639 N 437.65 2.18958 -5.17701 0
M  V30 4640 H 429.801 -0.19275 -2.11524 0
M  V30 4641 H 432.064 -0.0235777 -0.947707 0
M  V30 4642 H 431.77 0.50514 -3.48053 0
M  V30 4643 H 431.644 2.20431 -3.06088 0
M  V30 4644 H 434.031 2.09859 -2.07468 0
M  V30 4645 H 434.112 0.390169 -2.52807 0
M  V30 4646 H 433.756 1.04449 -4.97044 0
M  V30 4647 H 433.686 2.75753 -4.48629 0
M  V30 4648 H 436.177 1.62372 -3.41239 0
M  V30 4649 H 436.49 2.74497 -7.22406 0
M  V30 4650 H 434.835 2.47513 -6.49432 0
M  V30 4651 H 438.026 1.93488 -4.2624 0
M  V30 4652 H 438.199 2.44639 -6.00047 0
M  V30 4653 N 431.605 1.3629 0.791371 0
M  V30 4654 C 433.021 1.16661 1.08914 0
M  V30 4655 C 433.221 -0.0106266 2.01497 0
M  V30 4656 O 432.277 -0.676596 2.43266 0
M  V30 4657 C 433.59 2.47656 1.70549 0
M  V30 4658 C 435.138 2.54002 1.82899 0
M  V30 4659 C 435.613 3.85078 2.47949 0
M  V30 4660 N 437.104 3.86413 2.5542 0
M  V30 4661 C 437.839 4.84572 3.06557 0
M  V30 4662 N 437.335 5.93124 3.58016 0
M  V30 4663 N 439.128 4.71994 3.05251 0
M  V30 4664 H 431.279 2.11668 0.176238 0
M  V30 4665 H 433.542 0.937486 0.140796 0
M  V30 4666 H 433.248 3.34059 1.09989 0
M  V30 4667 H 433.122 2.63319 2.70079 0
M  V30 4668 H 435.509 1.68018 2.42598 0
M  V30 4669 H 435.59 2.42239 0.821808 0
M  V30 4670 H 435.234 4.71467 1.88895 0
M  V30 4671 H 435.164 3.94135 3.49235 0
M  V30 4672 H 437.655 3.07988 2.18979 0
M  V30 4673 H 437.968 6.63999 3.95381 0
M  V30 4674 H 436.313 5.96796 3.56173 0
M  V30 4675 H 439.504 3.86321 2.64336 0
M  V30 4676 H 439.677 5.48653 3.44796 0
M  V30 4677 N 433.083 -1.0153 1.20538 0
M  V30 4678 C 434.36 -1.72327 0.925343 0
M  V30 4679 C 434.74 -2.03383 -0.565547 0
M  V30 4680 O 434.088 -1.69934 -1.52757 0
M  V30 4681 C 434.298 -2.9902 1.79967 0
M  V30 4682 C 435.646 -3.72258 2.04228 0
M  V30 4683 O 436.67 -3.08979 1.77231 0
M  V30 4684 O 435.529 -4.86053 2.4983 0
M  V30 4685 H 432.623 -0.751099 0.346092 0
M  V30 4686 H 435.169 -1.07366 1.31417 0
M  V30 4687 H 433.941 -2.72402 2.80915 0
M  V30 4688 H 433.564 -3.71721 1.41099 0
M  V30 4689 N 434.561 -1.01147 -1.20859 0
M  V30 4690 C 435.807 -0.708598 -1.90658 0
M  V30 4691 C 436.162 0.753069 -1.7705 0
M  V30 4692 O 435.455 1.53952 -1.14059 0
M  V30 4693 C 435.649 -1.0727 -3.40922 0
M  V30 4694 C 435.478 -2.56821 -3.69152 0
M  V30 4695 C 434.248 -3.23524 -3.8815 0
M  V30 4696 C 436.446 -3.54997 -3.72131 0
M  V30 4697 N 434.428 -4.62359 -4.03853 0
M  V30 4698 C 435.799 -4.79371 -3.93196 0
M  V30 4699 C 437.854 -3.49042 -3.55069 0
M  V30 4700 C 436.557 -5.98512 -3.98969 0
M  V30 4701 C 438.583 -4.67579 -3.6211 0
M  V30 4702 C 437.945 -5.9076 -3.83643 0
M  V30 4703 H 434.044 -0.31088 -0.71755 0
M  V30 4704 H 436.628 -1.29526 -1.45366 0
M  V30 4705 H 434.799 -0.51443 -3.84978 0
M  V30 4706 H 436.531 -0.723891 -3.98173 0
M  V30 4707 H 433.286 -2.73958 -3.86321 0
M  V30 4708 H 433.71 -5.34427 -4.15592 0
M  V30 4709 H 438.352 -2.54808 -3.37391 0
M  V30 4710 H 436.07 -6.93132 -4.15444 0
M  V30 4711 H 439.656 -4.64581 -3.50222 0
M  V30 4712 H 438.536 -6.8095 -3.88944 0
M  V30 4713 N 436.039 1.36541 -0.78704 0
M  V30 4714 C 437.285 2.00044 -0.367938 0
M  V30 4715 C 437.64 1.61345 1.04812 0
M  V30 4716 O 436.933 0.856936 1.71368 0
M  V30 4717 C 437.127 3.54343 -0.466485 0
M  V30 4718 C 436.956 4.08029 -1.89058 0
M  V30 4719 C 435.726 4.38284 -2.51466 0
M  V30 4720 C 437.924 4.27954 -2.85236 0
M  V30 4721 N 435.906 4.77778 -3.85488 0
M  V30 4722 C 437.277 4.70227 -4.04088 0
M  V30 4723 C 439.332 4.10119 -2.82324 0
M  V30 4724 C 438.035 4.96532 -5.20432 0
M  V30 4725 C 440.061 4.37569 -3.97854 0
M  V30 4726 C 439.423 4.80095 -5.15449 0
M  V30 4727 H 435.522 0.760525 -0.182004 0
M  V30 4728 H 438.106 1.65589 -1.02413 0
M  V30 4729 H 436.277 3.88072 0.159606 0
M  V30 4730 H 438.009 4.04693 -0.0238577 0
M  V30 4731 H 434.764 4.27905 -2.02965 0
M  V30 4732 H 435.188 5.01813 -4.54437 0
M  V30 4733 H 439.83 3.76399 -1.92571 0
M  V30 4734 H 437.548 5.29134 -6.10773 0
M  V30 4735 H 441.134 4.25341 -3.96958 0
M  V30 4736 H 440.014 5.00925 -6.0336 0
M  V30 4737 N 437.518 0.538854 1.48102 0
M  V30 4738 C 438.766 0.00798599 2.02098 0
M  V30 4739 C 439.087 -1.33922 1.41739 0
M  V30 4740 O 438.357 -1.86932 0.585934 0
M  V30 4741 H 436.937 -3.62179e-05 0.747 0
M  V30 4742 H 439.599 0.7047 1.81714 0
M  V30 4743 H 438.695 -0.0937672 3.11959 0
M  V30 4744 N 438.996 -1.55193 0.274407 0
M  V30 4745 C 439.944 -2.23924 -0.629362 0
M  V30 4746 C 440.938 -1.23602 -1.1584 0
M  V30 4747 O 442.144 -1.41535 -1.11211 0
M  V30 4748 H 438.519 -0.718637 -0.221507 0
M  V30 4749 H 440.49 -2.98388 -0.0268322 0
M  V30 4750 C 439.239 -2.97329 -1.80252 0
M  V30 4751 H 438.562 -3.74313 -1.40462 0
M  V30 4752 H 440.002 -3.48743 -2.41152 0
M  V30 4753 C 438.461 -2.0276 -2.69054 0
M  V30 4754 O 438.991 -1.57836 -3.69392 0
M  V30 4755 N 437.197 -1.69275 -2.36208 0
M  V30 4756 H 436.744 -2.06004 -1.54661 0
M  V30 4757 H 436.702 -1.06271 -2.95895 0
M  V30 4758 N 440.474 -0.00167713 -1.576 0
M  V30 4759 C 441.885 0.54091 -1.78693 0
M  V30 4760 C 442.236 1.7386 -0.909247 0
M  V30 4761 O 441.361 2.16109 -0.112176 0
M  V30 4762 C 441.956 0.98806 -3.24072 0
M  V30 4763 C 440.515 1.47594 -3.46256 0
M  V30 4764 C 439.662 0.42792 -2.73978 0
M  V30 4765 H 442.613 -0.22784 -1.57056 0
M  V30 4766 H 442.634 1.85398 -3.32277 0
M  V30 4767 H 442.146 0.116164 -3.87926 0
M  V30 4768 H 440.247 2.36868 -2.87618 0
M  V30 4769 H 440.36 1.50225 -4.54939 0
M  V30 4770 H 438.724 0.889934 -2.38647 0
M  V30 4771 H 439.507 -0.435038 -3.40532 0
M  V30 4772 N 441.952 1.55251 0.271103 0
M  V30 4773 C 443.198 1.76207 1.00394 0
M  V30 4774 C 443.531 0.562604 1.85872 0
M  V30 4775 O 442.806 -0.439785 1.89463 0
M  V30 4776 C 443.089 3.06828 1.8849 0
M  V30 4777 C 442.942 4.37134 1.05992 0
M  V30 4778 C 444.261 3.33503 2.87165 0
M  V30 4779 H 441.38 0.641086 0.363562 0
M  V30 4780 H 444.022 1.87982 0.276189 0
M  V30 4781 H 442.172 2.96921 2.5054 0
M  V30 4782 H 443.844 4.59001 0.459978 0
M  V30 4783 H 442.087 4.32275 0.363443 0
M  V30 4784 H 442.758 5.2486 1.70955 0
M  V30 4785 H 445.234 3.43215 2.3525 0
M  V30 4786 H 444.11 4.2616 3.45946 0
M  V30 4787 H 444.371 2.53235 3.62387 0
M  V30 4788 N 443.43 -0.535701 1.48216 0
M  V30 4789 C 444.676 -1.29375 1.56173 0
M  V30 4790 C 445.009 -1.92804 0.232429 0
M  V30 4791 O 444.284 -1.78992 -0.761048 0
M  V30 4792 C 444.567 -2.38747 2.69577 0
M  V30 4793 C 444.42 -1.80046 4.12193 0
M  V30 4794 C 445.739 -3.40551 2.78771 0
M  V30 4795 H 442.858 -0.469027 0.568491 0
M  V30 4796 H 445.5 -0.597358 1.80365 0
M  V30 4797 H 443.65 -2.98147 2.4908 0
M  V30 4798 H 445.322 -1.24742 4.44114 0
M  V30 4799 H 443.565 -1.10609 4.19462 0
M  V30 4800 H 444.236 -2.59212 4.87353 0
M  V30 4801 H 446.712 -2.91099 2.97322 0
M  V30 4802 H 445.588 -4.1448 3.59857 0
M  V30 4803 H 445.849 -4.00746 1.86696 0
M  V30 4804 N 444.908 -1.36708 -0.784132 0
M  V30 4805 C 446.319 -1.27947 -1.35965 0
M  V30 4806 C 446.67 0.0784013 -1.96043 0
M  V30 4807 O 445.795 0.979989 -1.92938 0
M  V30 4808 C 446.39 -2.31689 -2.47195 0
M  V30 4809 C 444.949 -2.26601 -3.00548 0
M  V30 4810 C 444.096 -2.16184 -1.73666 0
M  V30 4811 H 447.047 -1.4751 -0.585358 0
M  V30 4812 H 447.068 -1.95638 -3.26352 0
M  V30 4813 H 446.58 -3.30506 -2.03439 0
M  V30 4814 H 444.681 -1.31268 -3.48711 0
M  V30 4815 H 444.794 -3.19508 -3.57004 0
M  V30 4816 H 443.158 -1.62524 -1.96107 0
M  V30 4817 H 443.941 -3.16896 -1.32031 0
M  V30 4818 N 446.386 1.0089 -1.21074 0
M  V30 4819 C 447.611 1.78727 -1.05221 0
M  V30 4820 C 448.036 1.83932 0.393795 0
M  V30 4821 O 447.394 1.28004 1.28393 0
M  V30 4822 C 447.442 3.20665 -1.64944 0
M  V30 4823 O 446.546 4.02632 -0.892273 0
M  V30 4824 H 445.887 0.550973 -0.370574 0
M  V30 4825 H 448.417 1.26847 -1.60534 0
M  V30 4826 H 448.427 3.71352 -1.69002 0
M  V30 4827 H 447.102 3.16191 -2.70177 0
M  V30 4828 H 445.679 3.61207 -0.926492 0
M  V30 4829 N 447.864 1.01787 1.20321 0
M  V30 4830 C 449.11 0.718699 1.90279 0
M  V30 4831 C 449.465 -0.743669 1.77447 0
M  V30 4832 O 448.758 -1.53345 1.14874 0
M  V30 4833 C 448.952 1.09076 3.40349 0
M  V30 4834 C 448.781 2.58775 3.67784 0
M  V30 4835 C 447.551 3.25578 3.86428 0
M  V30 4836 C 449.749 3.56966 3.70243 0
M  V30 4837 N 447.731 4.64495 4.01395 0
M  V30 4838 C 449.102 4.8145 3.90649 0
M  V30 4839 C 451.157 3.5092 3.53213 0
M  V30 4840 C 449.86 6.00619 3.95789 0
M  V30 4841 C 451.886 4.69493 3.59625 0
M  V30 4842 C 451.248 5.92786 3.80505 0
M  V30 4843 H 447.347 0.31468 0.715891 0
M  V30 4844 H 449.931 1.30295 1.44677 0
M  V30 4845 H 448.102 0.534839 3.847 0
M  V30 4846 H 449.834 0.744997 3.97784 0
M  V30 4847 H 446.589 2.76003 3.84862 0
M  V30 4848 H 447.013 5.36624 4.12752 0
M  V30 4849 H 451.655 2.56593 3.36035 0
M  V30 4850 H 449.373 6.95326 4.11762 0
M  V30 4851 H 452.959 4.66432 3.47754 0
M  V30 4852 H 451.839 6.83003 3.85327 0
M  V30 4853 N 449.342 -1.36122 0.79427 0
M  V30 4854 C 450.572 -2.03067 0.380437 0
M  V30 4855 C 450.98 -1.60018 -1.00949 0
M  V30 4856 O 450.323 -0.787425 -1.65968 0
M  V30 4857 C 450.385 -3.57587 0.37034 0
M  V30 4858 C 450.049 -4.23855 1.70867 0
M  V30 4859 C 451.046 -4.46404 2.66496 0
M  V30 4860 C 448.731 -4.61229 1.9893 0
M  V30 4861 C 450.725 -5.05412 3.88378 0
M  V30 4862 C 448.412 -5.19953 3.21079 0
M  V30 4863 C 449.41 -5.41985 4.15621 0
M  V30 4864 O 449.098 -5.99475 5.35616 0
M  V30 4865 H 448.83 -0.658168 0.154243 0
M  V30 4866 H 451.384 -1.7498 1.0757 0
M  V30 4867 H 449.614 -3.84814 -0.381444 0
M  V30 4868 H 451.303 -4.05895 -0.0194894 0
M  V30 4869 H 452.069 -4.17921 2.46103 0
M  V30 4870 H 447.948 -4.43402 1.26158 0
M  V30 4871 H 451.492 -5.22524 4.62185 0
M  V30 4872 H 447.389 -5.47862 3.41347 0
M  V30 4873 H 448.157 -6.17937 5.36745 0
M  V30 4874 N 450.82 -0.546701 -1.47814 0
M  V30 4875 C 452.048 -0.0232857 -2.06887 0
M  V30 4876 C 452.463 1.26571 -1.4009 0
M  V30 4877 O 451.82 1.7569 -0.493906 0
M  V30 4878 C 451.871 0.186975 -3.61016 0
M  V30 4879 O 451.592 -1.05097 -4.25307 0
M  V30 4880 C 453.093 0.748872 -4.36929 0
M  V30 4881 H 450.313 -0.0410763 -0.669742 0
M  V30 4882 H 452.857 -0.757117 -1.89968 0
M  V30 4883 H 451.012 0.870903 -3.77484 0
M  V30 4884 H 451.426 -0.842121 -5.17695 0
M  V30 4885 H 452.9 0.845334 -5.45489 0
M  V30 4886 H 453.377 1.75772 -4.02493 0
M  V30 4887 H 453.983 0.100979 -4.2518 0
M  V30 4888 N 452.299 1.55045 -0.282633 0
M  V30 4889 C 453.209 2.26491 0.61147 0
M  V30 4890 C 454.225 1.29348 1.16384 0
M  V30 4891 O 455.401 1.62298 1.19253 0
M  V30 4892 C 452.466 2.97779 1.77563 0
M  V30 4893 C 451.527 4.10418 1.25919 0
M  V30 4894 C 450.76 4.78297 2.36786 0
M  V30 4895 O 450.983 4.45426 3.56303 0
M  V30 4896 O 449.917 5.66089 2.04517 0
M  V30 4897 H 453.743 3.03683 0.0324615 0
M  V30 4898 H 451.328 1.49317 -0.0497576 0
M  V30 4899 H 453.21 3.42554 2.45427 0
M  V30 4900 H 451.885 2.23498 2.34159 0
M  V30 4901 H 450.792 3.70082 0.546797 0
M  V30 4902 H 452.125 4.86622 0.738887 0
M  V30 4903 N 453.777 0.010035 1.57597 0
M  V30 4904 C 454.74 -0.963029 2.07986 0
M  V30 4905 C 455.74 -1.26619 0.991173 0
M  V30 4906 O 456.93 -1.2097 1.25347 0
M  V30 4907 C 454.062 -2.2851 2.52974 0
M  V30 4908 H 455.255 -0.526971 2.95234 0
M  V30 4909 H 452.808 -0.237639 1.54483 0
M  V30 4910 H 453.543 -2.76784 1.69 0
M  V30 4911 H 453.328 -2.07824 3.32493 0
M  V30 4912 H 454.818 -2.98294 2.9225 0
M  V30 4913 N 455.255 -1.55392 -0.262866 0
M  V30 4914 C 456.48 -1.80847 -1.01533 0
M  V30 4915 C 456.905 -0.584946 -1.78774 0
M  V30 4916 O 456.263 0.465701 -1.75217 0
M  V30 4917 C 456.311 -3.03866 -1.94159 0
M  V30 4918 O 455.415 -2.79662 -3.03089 0
M  V30 4919 H 454.756 -0.597441 -0.289759 0
M  V30 4920 H 457.286 -2.02553 -0.288698 0
M  V30 4921 H 457.296 -3.32872 -2.35924 0
M  V30 4922 H 455.971 -3.92564 -1.37354 0
M  V30 4923 H 454.548 -2.61781 -2.65566 0
M  V30 4924 N 456.733 0.527833 -1.48498 0
M  V30 4925 C 457.68 1.6322 -1.6318 0
M  V30 4926 C 458.65 1.59199 -0.473815 0
M  V30 4927 O 459.835 1.77591 -0.697563 0
M  V30 4928 C 456.975 3.01474 -1.67951 0
M  V30 4929 C 456.088 3.15713 -2.94871 0
M  V30 4930 C 455.223 4.44539 -2.90789 0
M  V30 4931 C 454.262 4.52315 -4.12404 0
M  V30 4932 N 453.399 5.72533 -4.06387 0
M  V30 4933 H 458.239 1.50011 -2.57489 0
M  V30 4934 H 455.776 0.730298 -1.27691 0
M  V30 4935 H 457.734 3.81572 -1.68698 0
M  V30 4936 H 456.364 3.1345 -0.771306 0
M  V30 4937 H 455.416 2.28854 -3.03859 0
M  V30 4938 H 456.728 3.1732 -3.8485 0
M  V30 4939 H 455.882 5.3293 -2.89949 0
M  V30 4940 H 454.621 4.45457 -1.98542 0
M  V30 4941 H 453.626 3.62331 -4.13517 0
M  V30 4942 H 454.851 4.53134 -5.05812 0
M  V30 4943 H 452.797 5.74344 -3.16962 0
M  V30 4944 H 452.714 5.75643 -4.90073 0
M  V30 4945 H 453.982 6.63204 -4.0961 0
M  V30 4946 N 458.211 1.37122 0.776871 0
M  V30 4947 C 459.457 1.32243 1.53752 0
M  V30 4948 C 459.79 -0.0944745 1.9397 0
M  V30 4949 O 459.065 -1.05068 1.6368 0
M  V30 4950 C 459.348 2.25681 2.80607 0
M  V30 4951 C 459.201 3.76127 2.46676 0
M  V30 4952 C 460.52 2.17657 3.82509 0
M  V30 4953 H 457.639 0.481704 0.557791 0
M  V30 4954 H 460.281 1.6778 0.891612 0
M  V30 4955 H 458.431 1.95505 3.35723 0
M  V30 4956 H 460.103 4.16877 1.97513 0
M  V30 4957 H 458.346 3.94946 1.79443 0
M  V30 4958 H 459.017 4.36933 3.37333 0
M  V30 4959 H 461.493 2.44245 3.36873 0
M  V30 4960 H 460.369 2.85185 4.69 0
M  V30 4961 H 460.63 1.16785 4.26396 0
M  V30 4962 N 459.689 -1.00246 1.21608 0
M  V30 4963 C 460.619 -2.10921 1.00172 0
M  V30 4964 C 461.6 -1.69938 -0.0741587 0
M  V30 4965 O 462.785 -1.94009 0.0861753 0
M  V30 4966 C 459.915 -3.42618 0.568355 0
M  V30 4967 C 458.869 -3.97407 1.58909 0
M  V30 4968 C 458.195 -5.25038 1.01187 0
M  V30 4969 C 459.495 -4.2918 2.97661 0
M  V30 4970 H 461.189 -2.29112 1.92739 0
M  V30 4971 H 458.735 -1.10101 0.928102 0
M  V30 4972 H 460.688 -4.19444 0.405555 0
M  V30 4973 H 459.412 -3.24227 -0.392961 0
M  V30 4974 H 458.071 -3.22703 1.73949 0
M  V30 4975 H 457.719 -5.02982 0.0421965 0
M  V30 4976 H 457.419 -5.62661 1.6937 0
M  V30 4977 H 458.943 -6.04507 0.860448 0
M  V30 4978 H 460.357 -4.96839 2.86049 0
M  V30 4979 H 458.754 -4.77952 3.6288 0
M  V30 4980 H 459.824 -3.3735 3.48315 0
M  V30 4981 N 461.167 -1.02423 -1.1978 0
M  V30 4982 C 462.444 -0.632802 -1.85081 0
M  V30 4983 C 462.824 0.888745 -1.9148 0
M  V30 4984 O 462.172 1.78357 -1.42832 0
M  V30 4985 C 462.382 -1.28947 -3.24305 0
M  V30 4986 C 463.73 -1.40976 -4.00513 0
M  V30 4987 O 464.754 -1.24628 -3.33686 0
M  V30 4988 O 463.613 -1.67467 -5.20209 0
M  V30 4989 H 460.707 -0.219348 -0.79738 0
M  V30 4990 H 463.253 -1.12209 -1.27307 0
M  V30 4991 H 462.025 -2.3288 -3.14456 0
M  V30 4992 H 461.648 -0.787748 -3.89718 0
M  V30 4993 N 462.645 1.35699 -0.801477 0
M  V30 4994 C 463.575 2.32436 -0.222658 0
M  V30 4995 C 464.556 1.5723 0.649057 0
M  V30 4996 O 465.741 1.85324 0.580387 0
M  V30 4997 C 462.871 3.41469 0.633719 0
M  V30 4998 C 461.825 4.27774 -0.139083 0
M  V30 4999 C 461.151 5.28082 0.838666 0
M  V30 5000 C 462.451 5.04946 -1.33517 0
M  V30 5001 H 464.145 2.81094 -1.03086 0
M  V30 5002 H 461.691 1.35146 -0.497155 0
M  V30 5003 H 463.644 4.08143 1.04868 0
M  V30 5004 H 462.368 2.91408 1.47475 0
M  V30 5005 H 461.027 3.62673 -0.535156 0
M  V30 5006 H 460.675 4.7429 1.67506 0
M  V30 5007 H 460.375 5.86695 0.32594 0
M  V30 5008 H 461.899 5.97628 1.25194 0
M  V30 5009 H 463.313 5.64593 -0.995349 0
M  V30 5010 H 461.71 5.7303 -1.78202 0
M  V30 5011 H 462.78 4.35886 -2.12442 0
M  V30 5012 N 464.123 0.554532 1.47522 0
M  V30 5013 C 465.4 -0.0360704 1.95567 0
M  V30 5014 C 465.78 -1.48828 1.49711 0
M  V30 5015 O 465.128 -2.16366 0.734717 0
M  V30 5016 C 465.338 0.106631 3.48837 0
M  V30 5017 C 466.686 -0.0400899 4.24581 0
M  V30 5018 O 467.71 0.0340453 3.56184 0
M  V30 5019 O 466.569 -0.199111 5.46137 0
M  V30 5020 H 463.663 -0.0656294 0.824392 0
M  V30 5021 H 466.209 0.620867 1.57935 0
M  V30 5022 H 464.981 1.11727 3.7501 0
M  V30 5023 H 464.604 -0.58804 3.93227 0
M  V30 5024 N 465.601 -1.54893 0.290851 0
M  V30 5025 C 466.849 -1.99538 -0.320756 0
M  V30 5026 C 467.17 -1.18075 -1.55188 0
M  V30 5027 O 466.44 -0.274162 -1.93972 0
M  V30 5028 H 465.02 -0.737052 -0.121507 0
M  V30 5029 H 467.682 -1.90755 0.399832 0
M  V30 5030 H 466.778 -3.06282 -0.599802 0
M  V30 5031 N 467.08 -0.0183926 -1.57589 0
M  V30 5032 C 468.028 0.985111 -2.10709 0
M  V30 5033 C 469.022 1.34397 -1.0312 0
M  V30 5034 O 470.228 1.32746 -1.21567 0
M  V30 5035 H 466.603 0.335418 -0.673052 0
M  V30 5036 H 468.574 0.511689 -2.9398 0
M  V30 5037 C 467.323 2.26202 -2.64061 0
M  V30 5038 H 466.646 1.9946 -3.4649 0
M  V30 5039 H 468.086 2.94652 -3.04887 0
M  V30 5040 C 466.545 2.98444 -1.5631 0
M  V30 5041 O 467.075 3.90142 -0.956674 0
M  V30 5042 N 465.281 2.6059 -1.28612 0
M  V30 5043 H 464.828 1.86101 -1.78112 0
M  V30 5044 H 464.786 3.09238 -0.567406 0
M  V30 5045 N 468.558 1.5553 0.254621 0
M  V30 5046 C 469.804 1.77262 0.985193 0
M  V30 5047 C 470.137 0.582286 1.85265 0
M  V30 5048 O 469.412 -0.419666 1.89919 0
M  V30 5049 C 469.695 3.0881 1.85225 0
M  V30 5050 C 469.548 4.38233 1.0135 0
M  V30 5051 C 470.867 3.3653 2.83612 0
M  V30 5052 H 467.986 0.644906 0.356742 0
M  V30 5053 H 470.628 1.88264 0.256236 0
M  V30 5054 H 468.778 2.99562 2.47376 0
M  V30 5055 H 470.45 4.59463 0.411269 0
M  V30 5056 H 468.693 4.32636 0.317574 0
M  V30 5057 H 469.364 5.26644 1.65379 0
M  V30 5058 H 471.84 3.45691 2.31596 0
M  V30 5059 H 470.716 4.29805 3.41407 0
M  V30 5060 H 470.977 2.57064 3.59681 0
M  V30 5061 N 470.036 -0.519951 1.48776 0
M  V30 5062 C 470.968 -1.63973 1.60142 0
M  V30 5063 C 471.981 -1.55404 0.485117 0
M  V30 5064 O 473.17 -1.61682 0.756391 0
M  V30 5065 C 470.27 -3.02676 1.52449 0
M  V30 5066 C 469.443 -3.36624 2.79291 0
M  V30 5067 C 468.502 -4.54652 2.64912 0
M  V30 5068 O 467.528 -4.57374 3.38818 0
M  V30 5069 N 468.73 -5.53432 1.75195 0
M  V30 5070 H 471.495 -1.54656 2.56713 0
M  V30 5071 H 469.056 -0.707439 1.45626 0
M  V30 5072 H 471.048 -3.79525 1.4051 0
M  V30 5073 H 469.618 -3.06018 0.638125 0
M  V30 5074 H 468.838 -2.48855 3.0572 0
M  V30 5075 H 470.126 -3.56094 3.6342 0
M  V30 5076 H 469.524 -5.54018 1.14371 0
M  V30 5077 H 468.081 -6.29459 1.69189 0
M  V30 5078 N 471.514 -1.37532 -0.769588 0
M  V30 5079 C 472.424 -1.35668 -1.91393 0
M  V30 5080 C 473.44 -0.255954 -1.72107 0
M  V30 5081 O 474.616 -0.491704 -1.95305 0
M  V30 5082 C 471.681 -1.16481 -3.26547 0
M  V30 5083 C 470.742 -2.36212 -3.58472 0
M  V30 5084 C 469.975 -2.17932 -4.87177 0
M  V30 5085 O 470.198 -1.1647 -5.58382 0
M  V30 5086 O 469.132 -3.06167 -5.18214 0
M  V30 5087 H 472.958 -2.32055 -1.95918 0
M  V30 5088 H 470.543 -1.18284 -0.912641 0
M  V30 5089 H 472.425 -1.07778 -4.07384 0
M  V30 5090 H 471.1 -0.231687 -3.2287 0
M  V30 5091 H 470.007 -2.50488 -2.77861 0
M  V30 5092 H 471.34 -3.281 -3.66894 0
M  V30 5093 N 472.992 0.995999 -1.22138 0
M  V30 5094 C 474.241 1.72928 -1.03821 0
M  V30 5095 C 474.554 1.90872 0.427444 0
M  V30 5096 O 475.76 2.61496 0.730212 0
M  V30 5097 C 474.216 3.11124 -1.80913 0
M  V30 5098 C 473.824 3.01122 -3.31707 0
M  V30 5099 C 475.568 3.8852 -1.71035 0
M  V30 5100 C 473.475 4.34453 -4.01253 0
M  V30 5101 H 472.405 0.648376 -0.384869 0
M  V30 5102 H 475.056 1.11213 -1.45959 0
M  V30 5103 H 473.438 3.73503 -1.31573 0
M  V30 5104 H 474.612 2.47926 -3.88419 0
M  V30 5105 H 472.927 2.3721 -3.42228 0
M  V30 5106 H 475.524 4.872 -2.20318 0
M  V30 5107 H 475.867 4.1087 -0.670196 0
M  V30 5108 H 476.4 3.32812 -2.17902 0
M  V30 5109 H 473.139 4.17303 -5.05508 0
M  V30 5110 H 472.659 4.87574 -3.49331 0
M  V30 5111 H 474.338 5.03215 -4.06674 0
M  V30 5112 N 474.47 1.03057 1.19235 0
M  V30 5113 C 475.719 0.72326 1.88287 0
M  V30 5114 C 476.032 -0.751333 1.80594 0
M  V30 5115 O 477.238 -1.17176 2.44912 0
M  V30 5116 C 475.694 1.24338 3.3774 0
M  V30 5117 C 475.302 2.74587 3.53986 0
M  V30 5118 C 477.046 1.01213 4.12257 0
M  V30 5119 C 474.953 3.20009 4.97341 0
M  V30 5120 H 473.883 0.266848 0.705201 0
M  V30 5121 H 476.534 1.24509 1.34795 0
M  V30 5122 H 474.916 0.649457 3.90638 0
M  V30 5123 H 476.09 3.39649 3.11408 0
M  V30 5124 H 474.405 2.9601 2.9286 0
M  V30 5125 H 477.002 1.32675 5.17978 0
M  V30 5126 H 477.345 -0.051001 4.16269 0
M  V30 5127 H 477.878 1.57014 3.65501 0
M  V30 5128 H 474.617 4.25659 4.98493 0
M  V30 5129 H 474.137 2.59676 5.40674 0
M  V30 5130 H 475.816 3.13447 5.66003 0
M  V30 5131 N 475.948 -1.35272 0.808662 0
M  V30 5132 C 476.858 -2.33546 0.222079 0
M  V30 5133 C 477.874 -1.6196 -0.636011 0
M  V30 5134 O 479.05 -1.93822 -0.547274 0
M  V30 5135 C 476.115 -3.41148 -0.61795 0
M  V30 5136 C 475.176 -4.28507 0.260875 0
M  V30 5137 C 474.409 -5.3097 -0.539156 0
M  V30 5138 O 474.632 -5.42123 -1.77367 0
M  V30 5139 O 473.566 -6.01858 0.0710526 0
M  V30 5140 H 477.392 -2.85515 1.03512 0
M  V30 5141 H 474.977 -1.38079 0.570495 0
M  V30 5142 H 476.859 -4.06889 -1.09634 0
M  V30 5143 H 475.534 -2.91447 -1.40855 0
M  V30 5144 H 474.441 -3.6574 0.786451 0
M  V30 5145 H 475.774 -4.81611 1.01547 0
M  V30 5146 N 477.426 -0.562348 -1.47226 0
M  V30 5147 C 478.842 -0.222492 -1.58042 0
M  V30 5148 C 479.042 1.27505 -1.56028 0
M  V30 5149 O 478.098 2.05555 -1.46641 0
M  V30 5150 C 479.411 -0.853694 -2.88327 0
M  V30 5151 C 480.959 -0.825397 -3.01921 0
M  V30 5152 C 481.434 -1.43576 -4.34914 0
M  V30 5153 N 482.925 -1.39918 -4.41562 0
M  V30 5154 C 483.66 -1.84103 -5.43041 0
M  V30 5155 N 483.156 -2.36167 -6.51304 0
M  V30 5156 N 484.949 -1.75142 -5.34118 0
M  V30 5157 H 477.1 -1.53525 -1.46778 0
M  V30 5158 H 479.363 -0.640527 -0.698877 0
M  V30 5159 H 479.069 -1.90635 -2.95552 0
M  V30 5160 H 478.943 -0.34977 -3.75575 0
M  V30 5161 H 481.33 0.218583 -2.94289 0
M  V30 5162 H 481.411 -1.36713 -2.16202 0
M  V30 5163 H 481.055 -2.47884 -4.43301 0
M  V30 5164 H 480.985 -0.869427 -5.19373 0
M  V30 5165 H 483.476 -1.0184 -3.63919 0
M  V30 5166 H 483.789 -2.67793 -7.24919 0
M  V30 5167 H 482.134 -2.40181 -6.52179 0
M  V30 5168 H 485.325 -1.34241 -4.48439 0
M  V30 5169 H 485.498 -2.09895 -6.13065 0
M  V30 5170 N 478.904 1.54736 -0.299062 0
M  V30 5171 C 480.132 2.04512 0.313447 0
M  V30 5172 C 480.547 1.17643 1.47667 0
M  V30 5173 O 479.904 0.20164 1.81383 0
M  V30 5174 C 479.955 3.53171 0.771542 0
M  V30 5175 O 479.676 4.36736 -0.345379 0
M  V30 5176 C 481.177 4.18936 1.4494 0
M  V30 5177 H 478.397 0.667507 0.0683784 0
M  V30 5178 H 480.941 1.99752 -0.438129 0
M  V30 5179 H 479.096 3.58298 1.47314 0
M  V30 5180 H 479.51 5.24499 0.0109219 0
M  V30 5181 H 480.984 5.24482 1.72111 0
M  V30 5182 H 481.461 3.68554 2.38883 0
M  V30 5183 H 482.067 4.17879 0.791028 0
M  V30 5184 N 480.382 0.0267497 1.57577 0
M  V30 5185 C 481.659 -0.690926 1.82991 0
M  V30 5186 C 482.039 -1.90471 0.910164 0
M  V30 5187 O 481.387 -2.28474 -0.0347985 0
M  V30 5188 C 481.597 -1.07139 3.32148 0
M  V30 5189 C 482.945 -1.46402 3.98562 0
M  V30 5190 O 483.969 -1.16443 3.36629 0
M  V30 5191 O 482.828 -2.02214 5.07712 0
M  V30 5192 H 479.922 -0.338747 0.75444 0
M  V30 5193 H 482.468 0.0542506 1.69613 0
M  V30 5194 H 481.24 -0.207394 3.9075 0
M  V30 5195 H 480.863 -1.87481 3.50623 0
M  V30 5196 N 481.861 -1.55662 -0.24637 0
M  V30 5197 C 483.138 -1.68272 -0.997198 0
M  V30 5198 C 483.518 -0.566785 -2.03349 0
M  V30 5199 O 482.866 0.429688 -2.24424 0
M  V30 5200 C 483.076 -3.08594 -1.63006 0
M  V30 5201 C 484.424 -3.6721 -2.13171 0
M  V30 5202 O 485.448 -3.11397 -1.72946 0
M  V30 5203 O 484.307 -4.65054 -2.87031 0
M  V30 5204 H 481.401 -0.684429 -0.464205 0
M  V30 5205 H 483.947 -1.67993 -0.240114 0
M  V30 5206 H 482.719 -3.81264 -0.880527 0
M  V30 5207 H 482.342 -3.12886 -2.45333 0
M  V30 5208 N 483.339 0.512053 -1.4905 0
M  V30 5209 C 484.564 1.2959 -1.6193 0
M  V30 5210 C 484.989 1.85906 -0.286454 0
M  V30 5211 O 484.347 1.65312 0.744426 0
M  V30 5212 C 484.395 2.40987 -2.68249 0
M  V30 5213 O 483.499 3.44531 -2.26654 0
M  V30 5214 H 482.84 0.383053 -0.542371 0
M  V30 5215 H 485.37 0.614231 -1.95162 0
M  V30 5216 H 485.38 2.86913 -2.90078 0
M  V30 5217 H 484.055 1.99361 -3.65004 0
M  V30 5218 H 482.632 3.046 -2.15112 0
M  V30 5219 N 484.817 1.37938 0.762283 0
M  V30 5220 C 485.727 1.36681 1.90671 0
M  V30 5221 C 486.743 0.265078 1.71969 0
M  V30 5222 O 487.919 0.502055 1.95042 0
M  V30 5223 C 484.984 1.18211 3.25925 0
M  V30 5224 C 484.045 2.3811 3.57214 0
M  V30 5225 C 483.278 2.20512 4.86014 0
M  V30 5226 O 483.501 1.19429 5.57757 0
M  V30 5227 O 482.435 3.08911 5.16583 0
M  V30 5228 H 486.261 2.33091 1.94685 0
M  V30 5229 H 483.846 1.18767 0.906356 0
M  V30 5230 H 485.728 1.09937 4.06807 0
M  V30 5231 H 484.403 0.248807 3.22742 0
M  V30 5232 H 483.31 2.51958 2.76529 0
M  V30 5233 H 484.643 3.30041 3.65149 0
M  V30 5234 N 486.295 -0.989507 1.22664 0
M  V30 5235 C 487.225 -2.09847 1.02404 0
M  V30 5236 C 488.206 -1.70007 -0.0561303 0
M  V30 5237 O 489.391 -1.93906 0.106748 0
M  V30 5238 C 486.521 -3.41996 0.604663 0
M  V30 5239 C 485.475 -3.95699 1.63115 0
M  V30 5240 C 484.801 -5.23936 1.0675 0
M  V30 5241 C 486.101 -4.25999 3.02196 0
M  V30 5242 H 487.795 -2.27054 1.95158 0
M  V30 5243 H 485.341 -1.09111 0.939727 0
M  V30 5244 H 487.294 -4.1899 0.45002 0
M  V30 5245 H 486.018 -3.24626 -0.35855 0
M  V30 5246 H 484.677 -3.2084 1.77362 0
M  V30 5247 H 484.325 -5.02909 0.0955422 0
M  V30 5248 H 484.025 -5.60833 1.75328 0
M  V30 5249 H 485.549 -6.0356 0.924516 0
M  V30 5250 H 486.963 -4.93777 2.91303 0
M  V30 5251 H 485.36 -4.74076 3.67929 0
M  V30 5252 H 486.43 -3.33636 3.51873 0
M  V30 5253 N 487.773 -1.03688 -1.18687 0
M  V30 5254 C 488.683 -0.634908 -2.25845 0
M  V30 5255 C 489.699 0.337065 -1.70704 0
M  V30 5256 O 490.875 0.192943 -2.00474 0
M  V30 5257 C 487.94 -0.000180054 -3.467 0
M  V30 5258 C 487.001 -1.02067 -4.1699 0
M  V30 5259 C 486.234 -0.41614 -5.32075 0
M  V30 5260 O 486.457 0.778712 -5.65059 0
M  V30 5261 O 485.391 -1.14296 -5.90948 0
M  V30 5262 H 489.217 -1.52757 -2.62486 0
M  V30 5263 H 486.802 -0.807533 -1.25695 0
M  V30 5264 H 488.684 0.353342 -4.19916 0
M  V30 5265 H 487.359 0.866367 -3.11891 0
M  V30 5266 H 486.266 -1.42592 -3.45859 0
M  V30 5267 H 487.599 -1.85786 -4.5579 0
M  V30 5268 N 489.251 1.34841 -0.815825 0
M  V30 5269 C 490.497 1.98793 -0.401129 0
M  V30 5270 C 490.83 1.64548 1.03139 0
M  V30 5271 O 490.105 0.913487 1.71714 0
M  V30 5272 C 490.388 3.55143 -0.595409 0
M  V30 5273 C 490.241 3.99155 -2.07352 0
M  V30 5274 C 491.56 4.40092 -0.0268823 0
M  V30 5275 H 488.679 0.722146 -0.14722 0
M  V30 5276 H 491.321 1.59847 -1.02707 0
M  V30 5277 H 489.471 3.8845 -0.0625779 0
M  V30 5278 H 491.143 3.76216 -2.66945 0
M  V30 5279 H 489.386 3.49726 -2.56659 0
M  V30 5280 H 490.057 5.07971 -2.1603 0
M  V30 5281 H 492.533 4.13298 -0.482042 0
M  V30 5282 H 491.409 5.48562 -0.19267 0
M  V30 5283 H 491.67 4.29016 1.06759 0
M  V30 5284 N 490.729 0.570148 1.46925 0
M  V30 5285 C 491.957 0.0561966 2.06824 0
M  V30 5286 C 492.372 -1.24326 1.42086 0
M  V30 5287 O 491.729 -1.74882 0.521794 0
M  V30 5288 C 491.78 -0.129517 3.61268 0
M  V30 5289 O 491.501 1.1185 4.23581 0
M  V30 5290 C 493.002 -0.679266 4.38065 0
M  V30 5291 H 490.222 0.0517261 0.669003 0
M  V30 5292 H 492.766 0.787243 1.8874 0
M  V30 5293 H 490.921 -0.810739 3.78822 0
M  V30 5294 H 491.335 0.924375 5.1629 0
M  V30 5295 H 492.809 -0.758445 5.46765 0
M  V30 5296 H 493.286 -1.69346 4.05239 0
M  V30 5297 H 493.892 -0.0333237 4.25287 0
M  V30 5298 N 492.207 -1.54576 0.307264 0
M  V30 5299 C 493.456 -1.99442 -0.300976 0
M  V30 5300 C 493.769 -1.19928 -1.5452 0
M  V30 5301 O 494.975 -1.55092 -2.22842 0
M  V30 5302 C 493.431 -3.55084 -0.586809 0
M  V30 5303 C 493.039 -4.43413 0.639438 0
M  V30 5304 C 494.783 -4.0846 -1.1559 0
M  V30 5305 C 492.69 -5.90499 0.326411 0
M  V30 5306 H 491.62 -0.744986 -0.116238 0
M  V30 5307 H 494.271 -1.787 0.416947 0
M  V30 5308 H 492.653 -3.71749 -1.36449 0
M  V30 5309 H 493.827 -4.38522 1.41545 0
M  V30 5310 H 492.142 -4.00842 1.1276 0
M  V30 5311 H 494.739 -5.15926 -1.40445 0
M  V30 5312 H 495.082 -3.59443 -2.10015 0
M  V30 5313 H 495.615 -3.95362 -0.439778 0
M  V30 5314 H 492.354 -6.43676 1.23939 0
M  V30 5315 H 491.874 -5.98382 -0.412212 0
M  V30 5316 H 493.553 -6.46962 -0.0697393 0
M  V30 5317 N 493.685 -0.035106 -1.57561 0
M  V30 5318 C 494.933 0.64096 -1.91667 0
M  V30 5319 C 495.254 1.72323 -0.912681 0
M  V30 5320 O 494.524 1.95849 0.0449089 0
M  V30 5321 H 493.104 0.239743 -0.707483 0
M  V30 5322 H 495.766 -0.084321 -1.94718 0
M  V30 5323 H 494.862 1.08987 -2.92452 0
M  V30 5324 N 495.163 1.55791 0.238111 0
M  V30 5325 C 496.126 1.90239 1.27835 0
M  V30 5326 C 497.126 0.779552 1.4064 0
M  V30 5327 O 498.316 1.04747 1.3919 0
M  V30 5328 C 495.448 2.13859 2.65475 0
M  V30 5329 H 496.641 2.83262 0.985034 0
M  V30 5330 H 494.194 1.48818 0.477799 0
M  V30 5331 H 494.929 1.23334 2.99932 0
M  V30 5332 H 494.714 2.95643 2.57561 0
M  V30 5333 H 496.204 2.41664 3.40571 0
M  V30 5334 N 496.642 -0.504142 1.49319 0
M  V30 5335 C 497.919 -1.26548 1.49147 0
M  V30 5336 C 498.299 -2.09977 0.21744 0
M  V30 5337 O 497.647 -2.14028 -0.800269 0
M  V30 5338 C 497.857 -2.12489 2.76857 0
M  V30 5339 C 499.205 -2.7178 3.26222 0
M  V30 5340 O 500.229 -2.22758 2.77952 0
M  V30 5341 O 499.088 -3.61015 4.10281 0
M  V30 5342 H 496.182 -0.572495 0.596806 0
M  V30 5343 H 498.728 -0.51867 1.61579 0
M  V30 5344 H 497.5 -1.50796 3.61077 0
M  V30 5345 H 497.123 -2.94368 2.6727 0
M  V30 5346 N 498.12 -1.38341 -0.754957 0
M  V30 5347 C 499.368 -1.34208 -1.51105 0
M  V30 5348 C 499.689 0.0677634 -1.94882 0
M  V30 5349 O 498.959 1.01517 -1.67544 0
M  V30 5350 H 497.539 -0.493819 -0.560493 0
M  V30 5351 H 500.201 -1.73005 -0.897507 0
M  V30 5352 H 499.297 -1.99203 -2.4026 0
M  V30 5353 N 499.598 0.982988 -1.23187 0
M  V30 5354 C 500.845 1.72392 -1.06241 0
M  V30 5355 C 501.173 1.9032 0.40108 0
M  V30 5356 O 500.428 1.45084 1.31336 0
M  V30 5357 C 500.727 3.12736 -1.73006 0
M  V30 5358 C 500.393 3.14695 -3.22921 0
M  V30 5359 C 499.055 3.14937 -3.63824 0
M  V30 5360 C 501.407 3.10211 -4.1883 0
M  V30 5361 C 498.735 3.08408 -4.99101 0
M  V30 5362 C 501.087 3.05224 -5.54095 0
M  V30 5363 C 499.751 3.03787 -5.94365 0
M  V30 5364 H 499.021 0.630829 -0.388762 0
M  V30 5365 H 501.668 1.15053 -1.53085 0
M  V30 5366 H 499.973 3.73446 -1.18514 0
M  V30 5367 H 501.67 3.68828 -1.57374 0
M  V30 5368 H 498.26 3.15262 -2.90358 0
M  V30 5369 H 502.444 3.09166 -3.8824 0
M  V30 5370 H 497.7 3.05646 -5.29519 0
M  V30 5371 H 501.874 3.00712 -6.28128 0
M  V30 5372 H 499.501 2.98483 -6.99151 0
M  V30 5373 N 501.076 1.04316 1.18135 0
M  V30 5374 C 502.301 0.768047 1.92655 0
M  V30 5375 C 502.726 -0.66904 1.758 0
M  V30 5376 O 502.084 -1.46372 1.06981 0
M  V30 5377 C 502.132 1.14239 3.42026 0
M  V30 5378 O 501.236 0.269333 4.1152 0
M  V30 5379 H 500.577 0.282436 0.600937 0
M  V30 5380 H 503.107 1.39367 1.49793 0
M  V30 5381 H 503.117 1.10538 3.92741 0
M  V30 5382 H 501.792 2.18928 3.53615 0
M  V30 5383 H 500.369 0.366175 3.71098 0
M  V30 5384 N 502.554 -1.34406 0.822964 0
M  V30 5385 C 503.801 -1.98284 0.411057 0
M  V30 5386 C 504.129 -1.65245 -1.02588 0
M  V30 5387 O 503.384 -0.91619 -1.72929 0
M  V30 5388 C 503.683 -3.52981 0.560268 0
M  V30 5389 C 503.349 -4.05931 1.96293 0
M  V30 5390 C 502.011 -4.20103 2.34664 0
M  V30 5391 C 504.363 -4.34412 2.87985 0
M  V30 5392 C 501.691 -4.60082 3.64062 0
M  V30 5393 C 504.043 -4.75838 4.16847 0
M  V30 5394 C 502.707 -4.88215 4.55195 0
M  V30 5395 H 501.977 -0.725573 0.150416 0
M  V30 5396 H 504.624 -1.60349 1.04692 0
M  V30 5397 H 502.929 -3.91477 -0.158982 0
M  V30 5398 H 504.626 -4.00385 0.222087 0
M  V30 5399 H 501.216 -3.95363 1.65487 0
M  V30 5400 H 505.4 -4.23001 2.59584 0
M  V30 5401 H 500.656 -4.67856 3.93599 0
M  V30 5402 H 504.83 -4.96834 4.87984 0
M  V30 5403 H 502.457 -5.18952 5.55512 0
M  V30 5404 N 504.032 -0.577932 -1.46621 0
M  V30 5405 C 505.26 -0.0671642 -2.06791 0
M  V30 5406 C 505.675 1.23571 -1.42743 0
M  V30 5407 O 505.032 1.74602 -0.531062 0
M  V30 5408 C 505.083 0.110357 -3.61332 0
M  V30 5409 O 504.804 -1.14095 -4.22982 0
M  V30 5410 C 506.305 0.656025 -4.38419 0
M  V30 5411 H 503.525 -0.0552732 -0.66872 0
M  V30 5412 H 506.069 -0.797242 -1.8832 0
M  V30 5413 H 504.224 0.790637 -3.79246 0
M  V30 5414 H 504.638 -0.951742 -5.15793 0
M  V30 5415 H 506.112 0.729438 -5.47159 0
M  V30 5416 H 506.589 1.67195 -4.06131 0
M  V30 5417 H 507.195 0.0107692 -4.25299 0
M  V30 5418 N 505.51 1.54411 -0.315457 0
M  V30 5419 C 506.926 1.59556 0.037464 0
M  V30 5420 C 507.126 1.33217 1.5118 0
M  V30 5421 O 506.182 1.11264 2.26664 0
M  V30 5422 C 507.495 2.98372 -0.373477 0
M  V30 5423 C 509.043 3.11324 -0.323452 0
M  V30 5424 C 509.518 4.52472 -0.709433 0
M  V30 5425 N 511.009 4.58437 -0.662524 0
M  V30 5426 C 511.744 5.65751 -0.933474 0
M  V30 5427 N 511.24 6.81039 -1.27114 0
M  V30 5428 N 513.033 5.55489 -0.859573 0
M  V30 5429 H 505.184 1.6979 -1.27614 0
M  V30 5430 H 507.447 0.793732 -0.518356 0
M  V30 5431 H 507.153 3.22618 -1.40037 0
M  V30 5432 H 507.027 3.76264 0.265615 0
M  V30 5433 H 509.414 2.86818 0.694223 0
M  V30 5434 H 509.495 2.35555 -0.997367 0
M  V30 5435 H 509.139 4.7771 -1.72498 0
M  V30 5436 H 509.069 5.26598 -0.0132923 0
M  V30 5437 H 511.56 3.75636 -0.413065 0
M  V30 5438 H 511.873 7.58816 -1.46348 0
M  V30 5439 H 510.218 6.82555 -1.30932 0
M  V30 5440 H 513.409 4.64299 -0.595324 0
M  V30 5441 H 513.582 6.39036 -1.0741 0
M  V30 5442 N 506.988 0.0434614 1.5754 0
M  V30 5443 C 507.951 -0.918696 2.09982 0
M  V30 5444 C 508.951 -1.24488 1.01781 0
M  V30 5445 O 510.141 -1.18284 1.27885 0
M  V30 5446 C 507.273 -2.23093 2.57764 0
M  V30 5447 H 508.466 -0.464229 2.96285 0
M  V30 5448 H 506.019 -0.204818 1.54952 0
M  V30 5449 H 506.754 -2.73137 1.74832 0
M  V30 5450 H 506.539 -2.00724 3.36827 0
M  V30 5451 H 508.029 -2.92028 2.98512 0
M  V30 5452 N 508.466 -1.55915 -0.229846 0
M  V30 5453 C 509.714 -1.7819 -0.953565 0
M  V30 5454 C 510.035 -0.610504 -1.85197 0
M  V30 5455 O 509.305 0.372988 -1.92316 0
M  V30 5456 H 507.885 -0.657208 -0.355087 0
M  V30 5457 H 510.547 -1.9337 -0.243693 0
M  V30 5458 H 509.643 -2.70011 -1.56527 0
M  V30 5459 N 509.944 0.496216 -1.49584 0
M  V30 5460 C 511.221 1.25755 -1.49816 0
M  V30 5461 C 511.601 2.09859 -0.228572 0
M  V30 5462 O 510.949 2.14449 0.788908 0
M  V30 5463 C 511.159 2.11017 -2.7798 0
M  V30 5464 C 512.507 2.70047 -3.27658 0
M  V30 5465 O 513.531 2.21281 -2.79129 0
M  V30 5466 O 512.39 3.58834 -4.1219 0
M  V30 5467 H 509.484 0.569322 -0.599834 0
M  V30 5468 H 512.03 0.510094 -1.61852 0
M  V30 5469 H 510.802 1.48879 -3.61871 0
M  V30 5470 H 510.425 2.92947 -2.68827 0
M  V30 5471 N 511.423 1.38739 0.74761 0
M  V30 5472 C 512.333 1.38696 1.89211 0
M  V30 5473 C 513.349 0.283303 1.71678 0
M  V30 5474 O 514.525 0.522713 1.94498 0
M  V30 5475 C 511.59 1.21662 3.24653 0
M  V30 5476 C 510.651 2.41886 3.54669 0
M  V30 5477 C 509.884 2.25655 4.83648 0
M  V30 5478 O 510.107 1.25339 5.56459 0
M  V30 5479 O 509.041 3.14372 5.13277 0
M  V30 5480 H 512.867 2.35143 1.92202 0
M  V30 5481 H 510.452 1.19721 0.893708 0
M  V30 5482 H 512.334 1.14246 4.05618 0
M  V30 5483 H 511.009 0.283024 3.2246 0
M  V30 5484 H 509.916 2.54877 2.73841 0
M  V30 5485 H 511.249 3.33895 3.61628 0
M  V30 5486 N 512.901 -0.976442 1.23707 0
M  V30 5487 C 514.178 -1.69296 0.979699 0
M  V30 5488 C 514.558 -2.0508 -0.500555 0
M  V30 5489 O 513.906 -1.74708 -1.47273 0
M  V30 5490 C 514.116 -2.93143 1.89389 0
M  V30 5491 C 515.464 -3.65572 2.15968 0
M  V30 5492 O 516.488 -3.03184 1.86971 0
M  V30 5493 O 515.347 -4.77859 2.65167 0
M  V30 5494 H 512.441 -0.739708 0.369812 0
M  V30 5495 H 514.987 -1.03131 1.34767 0
M  V30 5496 H 513.759 -2.63327 2.89439 0
M  V30 5497 H 513.382 -3.67044 1.52854 0
M  V30 5498 N 514.379 -1.04941 -1.1758 0
M  V30 5499 C 515.627 -0.756492 -1.87408 0
M  V30 5500 C 515.948 0.718478 -1.81281 0
M  V30 5501 O 515.218 1.519 -1.23706 0
M  V30 5502 H 513.798 -0.276841 -0.693807 0
M  V30 5503 H 516.46 -1.32803 -1.42652 0
M  V30 5504 H 515.556 -1.06918 -2.93215 0
M  V30 5505 N 515.857 1.33968 -0.830081 0
M  V30 5506 C 517.082 2.02813 -0.433796 0
M  V30 5507 C 517.507 1.62076 0.954614 0
M  V30 5508 O 516.865 0.808955 1.62252 0
M  V30 5509 C 516.913 3.56348 -0.552115 0
M  V30 5510 O 516.017 4.10202 0.425191 0
M  V30 5511 H 515.358 0.639817 -0.177567 0
M  V30 5512 H 517.888 1.7106 -1.12248 0
M  V30 5513 H 517.898 4.05722 -0.430513 0
M  V30 5514 H 516.573 3.85344 -1.56471 0
M  V30 5515 H 515.15 3.71979 0.261878 0
M  V30 5516 N 517.335 0.585699 1.46312 0
M  V30 5517 C 518.565 0.0780166 2.06453 0
M  V30 5518 C 518.973 -1.2336 1.43454 0
M  V30 5519 O 518.316 -1.75734 0.535086 0
M  V30 5520 C 518.378 -0.158951 3.59148 0
M  V30 5521 C 518.042 1.06752 4.44357 0
M  V30 5522 C 519.039 1.98031 4.80708 0
M  V30 5523 C 516.724 1.2902 4.85447 0
M  V30 5524 C 518.718 3.09924 5.5698 0
M  V30 5525 C 516.405 2.41218 5.61478 0
M  V30 5526 C 517.403 3.31499 5.97158 0
M  V30 5527 O 517.091 4.41747 6.71651 0
M  V30 5528 H 516.823 0.0558894 0.673686 0
M  V30 5529 H 519.377 0.806994 1.88883 0
M  V30 5530 H 517.607 -0.942575 3.75037 0
M  V30 5531 H 519.296 -0.615513 4.01206 0
M  V30 5532 H 520.062 1.82043 4.49539 0
M  V30 5533 H 515.941 0.596567 4.57124 0
M  V30 5534 H 519.485 3.80415 5.84748 0
M  V30 5535 H 515.382 2.57167 5.9206 0
M  V30 5536 H 516.15 4.40152 6.90079 0
M  V30 5537 N 518.813 -1.54241 0.323641 0
M  V30 5538 C 519.763 -2.21071 -0.557833 0
M  V30 5539 C 520.747 -1.19126 -1.08157 0
M  V30 5540 O 521.939 -1.44755 -1.01857 0
M  V30 5541 C 519.068 -2.97208 -1.71821 0
M  V30 5542 C 518.154 -4.06491 -1.20936 0
M  V30 5543 N 518.545 -5.04052 -0.420202 0
M  V30 5544 C 516.843 -4.20443 -1.48808 0
M  V30 5545 C 517.544 -5.81516 -0.146413 0
M  V30 5546 N 516.52 -5.38641 -0.732562 0
M  V30 5547 H 520.322 -2.93853 0.0523921 0
M  V30 5548 H 517.836 -1.61883 0.129502 0
M  V30 5549 H 519.833 -3.4357 -2.36146 0
M  V30 5550 H 518.493 -2.25947 -2.33191 0
M  V30 5551 H 519.504 -5.17862 -0.0630401 0
M  V30 5552 H 516.181 -3.60396 -2.10762 0
M  V30 5553 H 517.571 -6.70119 0.488895 0
M  V30 5554 N 520.291 -0.0518155 -1.57515 0
M  V30 5555 C 521.539 0.620595 -1.92336 0
M  V30 5556 C 521.86 1.71345 -0.930907 0
M  V30 5557 O 521.13 1.95885 0.0241341 0
M  V30 5558 H 519.71 0.232226 -0.709986 0
M  V30 5559 H 522.372 -0.104969 -1.94617 0
M  V30 5560 H 521.468 1.05879 -2.93592 0
M  V30 5561 N 521.769 1.56035 0.221574 0
M  V30 5562 C 522.701 1.889 1.29805 0
M  V30 5563 C 523.714 0.777269 1.43047 0
M  V30 5564 O 524.903 1.05557 1.43945 0
M  V30 5565 C 522.003 2.0825 2.67367 0
M  V30 5566 C 521.176 3.39267 2.76073 0
M  V30 5567 C 520.235 3.48049 3.94649 0
M  V30 5568 O 519.261 4.2108 3.82988 0
M  V30 5569 N 520.463 2.79191 5.08953 0
M  V30 5570 H 523.228 2.81831 1.01938 0
M  V30 5571 H 520.789 1.5658 0.411612 0
M  V30 5572 H 522.781 2.11441 3.45072 0
M  V30 5573 H 521.351 1.21944 2.87834 0
M  V30 5574 H 520.571 3.48175 1.84846 0
M  V30 5575 H 521.859 4.25575 2.7886 0
M  V30 5576 H 521.257 2.19635 5.21322 0
M  V30 5577 H 519.814 2.88043 5.84701 0
M  V30 5578 N 523.247 -0.488276 1.49845 0
M  V30 5579 C 524.21 -1.57069 1.66919 0
M  V30 5580 C 525.21 -1.51445 0.540479 0
M  V30 5581 O 526.4 -1.5437 0.807188 0
M  V30 5582 C 523.532 -2.96718 1.67844 0
M  V30 5583 H 524.725 -1.43254 2.63474 0
M  V30 5584 H 522.278 -0.713435 1.39068 0
M  V30 5585 H 523.013 -3.15996 0.7292 0
M  V30 5586 H 522.798 -3.02208 2.49826 0
M  V30 5587 H 524.288 -3.75335 1.83066 0
M  V30 5588 N 524.725 -1.39134 -0.740242 0
M  V30 5589 C 525.95 -1.39518 -1.53459 0
M  V30 5590 C 526.375 0.00968883 -1.88098 0
M  V30 5591 O 525.733 0.995312 -1.51536 0
M  V30 5592 C 525.781 -2.26981 -2.802 0
M  V30 5593 O 524.885 -1.69609 -3.75908 0
M  V30 5594 H 524.226 -0.475328 -0.463637 0
M  V30 5595 H 526.756 -1.83064 -0.913717 0
M  V30 5596 H 526.766 -2.41309 -3.28989 0
M  V30 5597 H 525.441 -3.29081 -2.5432 0
M  V30 5598 H 524.018 -1.64495 -3.34658 0
M  V30 5599 N 526.204 0.969867 -1.24223 0
M  V30 5600 C 527.151 2.06407 -1.0327 0
M  V30 5601 C 528.121 1.66014 0.0533 0
M  V30 5602 O 529.306 1.90533 -0.100896 0
M  V30 5603 C 526.446 3.3909 -0.641262 0
M  V30 5604 C 525.559 3.9269 -1.80051 0
M  V30 5605 C 524.694 5.13631 -1.35486 0
M  V30 5606 C 523.733 5.59423 -2.48419 0
M  V30 5607 N 522.87 6.71586 -2.04737 0
M  V30 5608 H 527.71 2.23663 -1.96923 0
M  V30 5609 H 525.247 1.09624 -0.980862 0
M  V30 5610 H 527.205 4.15323 -0.395351 0
M  V30 5611 H 525.835 3.21765 0.258269 0
M  V30 5612 H 524.887 3.13116 -2.16014 0
M  V30 5613 H 526.199 4.22636 -2.64916 0
M  V30 5614 H 525.353 5.97231 -1.0677 0
M  V30 5615 H 524.092 4.85364 -0.476722 0
M  V30 5616 H 523.097 4.74398 -2.77897 0
M  V30 5617 H 524.322 5.89705 -3.36786 0
M  V30 5618 H 522.268 6.45058 -1.19318 0
M  V30 5619 H 522.185 7.0097 -2.83156 0
M  V30 5620 H 523.453 7.58633 -1.79154 0
M  V30 5621 N 527.682 1.05563 1.17022 0
M  V30 5622 C 528.93 0.76642 1.87004 0
M  V30 5623 C 529.251 -0.708854 1.8166 0
M  V30 5624 O 528.521 -1.51242 1.2451 0
M  V30 5625 H 527.101 0.280516 0.692329 0
M  V30 5626 H 529.763 1.33557 1.41945 0
M  V30 5627 H 528.859 1.08472 2.92644 0
M  V30 5628 N 529.16 -1.33526 0.837174 0
M  V30 5629 C 530.407 -1.97837 0.432064 0
M  V30 5630 C 530.735 -1.66324 -1.00829 0
M  V30 5631 O 529.99 -0.93448 -1.71948 0
M  V30 5632 C 530.289 -3.52367 0.597675 0
M  V30 5633 C 529.955 -4.03826 2.00587 0
M  V30 5634 C 528.617 -4.1759 2.39106 0
M  V30 5635 C 530.969 -4.31333 2.92576 0
M  V30 5636 C 528.297 -4.56195 3.68921 0
M  V30 5637 C 530.649 -4.7139 4.2187 0
M  V30 5638 C 529.313 -4.8336 4.60347 0
M  V30 5639 H 528.583 -0.723937 0.158104 0
M  V30 5640 H 531.23 -1.5923 1.06387 0
M  V30 5641 H 529.535 -3.91624 -0.117452 0
M  V30 5642 H 531.232 -4.00126 0.26454 0
M  V30 5643 H 527.822 -3.93586 1.69671 0
M  V30 5644 H 532.006 -4.20224 2.64056 0
M  V30 5645 H 527.262 -4.63655 3.9854 0
M  V30 5646 H 531.436 -4.91631 4.93226 0
M  V30 5647 H 529.063 -5.1303 5.60985 0
M  V30 5648 N 530.638 -0.59345 -1.46 0
M  V30 5649 C 531.585 0.133618 -2.30413 0
M  V30 5650 C 532.555 0.873736 -1.41262 0
M  V30 5651 O 533.74 0.862279 -1.70204 0
M  V30 5652 C 530.88 1.13434 -3.25924 0
M  V30 5653 C 529.993 0.39656 -4.30176 0
M  V30 5654 C 529.128 1.38575 -5.12806 0
M  V30 5655 C 528.167 0.634984 -6.08797 0
M  V30 5656 N 527.304 1.57276 -6.84258 0
M  V30 5657 H 532.144 -0.592252 -2.92055 0
M  V30 5658 H 529.681 -0.303874 -1.43927 0
M  V30 5659 H 531.639 1.72752 -3.79753 0
M  V30 5660 H 530.269 1.82779 -2.66067 0
M  V30 5661 H 529.321 -0.311861 -3.79119 0
M  V30 5662 H 530.633 -0.189869 -4.98438 0
M  V30 5663 H 529.787 2.05141 -5.70966 0
M  V30 5664 H 528.526 2.00611 -4.44529 0
M  V30 5665 H 527.531 -0.0443925 -5.49782 0
M  V30 5666 H 528.756 0.0198678 -6.79097 0
M  V30 5667 H 526.702 2.18103 -6.18682 0
M  V30 5668 H 526.619 1.03941 -7.48821 0
M  V30 5669 H 527.887 2.22844 -7.46968 0
M  V30 5670 N 532.116 1.54067 -0.331816 0
M  V30 5671 C 533.046 2.27569 0.522932 0
M  V30 5672 C 534.027 1.28679 1.11247 0
M  V30 5673 O 535.212 1.57504 1.13605 0
M  V30 5674 C 532.342 3.0397 1.67987 0
M  V30 5675 C 531.296 4.10267 1.21924 0
M  V30 5676 C 530.622 4.74555 2.46377 0
M  V30 5677 C 531.922 5.21268 0.32815 0
M  V30 5678 H 533.616 2.99264 -0.0901977 0
M  V30 5679 H 531.162 1.4393 -0.044821 0
M  V30 5680 H 533.115 3.54123 2.28418 0
M  V30 5681 H 531.839 2.29906 2.31971 0
M  V30 5682 H 530.498 3.61009 0.637809 0
M  V30 5683 H 530.146 3.97098 3.08743 0
M  V30 5684 H 529.846 5.46363 2.16243 0
M  V30 5685 H 531.37 5.27487 3.07555 0
M  V30 5686 H 532.784 5.67128 0.838978 0
M  V30 5687 H 531.181 5.99982 0.119228 0
M  V30 5688 H 532.251 4.80673 -0.638839 0
M  V30 5689 N 533.594 0.0601682 1.57485 0
M  V30 5690 C 534.842 -0.610386 1.92662 0
M  V30 5691 C 535.163 -1.70849 0.939981 0
M  V30 5692 O 534.433 -1.95895 -0.0137455 0
M  V30 5693 H 533.013 -0.228457 0.711208 0
M  V30 5694 H 535.675 0.115288 1.94559 0
M  V30 5695 H 534.771 -1.0432 2.94149 0
M  V30 5696 N 535.072 -1.5615 -0.213296 0
M  V30 5697 C 536.02 -1.93953 -1.28394 0
M  V30 5698 C 537.014 -0.822592 -1.48087 0
M  V30 5699 O 538.22 -1.00748 -1.49164 0
M  V30 5700 H 534.595 -0.61648 -0.430646 0
M  V30 5701 H 536.566 -2.83275 -0.937977 0
M  V30 5702 C 535.315 -2.27969 -2.62537 0
M  V30 5703 H 534.638 -3.13432 -2.48194 0
M  V30 5704 H 536.078 -2.58297 -3.36242 0
M  V30 5705 C 534.537 -1.10775 -3.18167 0
M  V30 5706 O 535.067 -0.373201 -3.99963 0
M  V30 5707 N 533.273 -0.889377 -2.76656 0
M  V30 5708 H 532.82 -1.48843 -2.10246 0
M  V30 5709 H 532.778 -0.107 -3.14218 0
M  V30 5710 N 536.55 0.480323 -1.50102 0
M  V30 5711 C 537.482 1.59669 -1.64433 0
M  V30 5712 C 538.495 1.54063 -0.52615 0
M  V30 5713 O 539.684 1.59619 -0.798992 0
M  V30 5714 C 536.784 2.98527 -1.6042 0
M  V30 5715 C 535.957 3.291 -2.88117 0
M  V30 5716 C 535.016 4.47468 -2.76873 0
M  V30 5717 O 534.042 4.4823 -3.50825 0
M  V30 5718 N 535.244 5.48593 -1.89806 0
M  V30 5719 H 538.009 1.47795 -2.60723 0
M  V30 5720 H 535.57 0.66858 -1.4745 0
M  V30 5721 H 537.562 3.75666 -1.50523 0
M  V30 5722 H 536.132 3.04218 -0.719036 0
M  V30 5723 H 535.352 2.40662 -3.12211 0
M  V30 5724 H 536.64 3.46334 -3.72734 0
M  V30 5725 H 536.038 5.50791 -1.2902 0
M  V30 5726 H 534.595 6.24752 -1.85819 0
M  V30 5727 N 538.028 1.39524 0.732853 0
M  V30 5728 C 538.958 1.41153 1.86005 0
M  V30 5729 C 539.939 0.274614 1.67869 0
M  V30 5730 O 541.124 0.480745 1.88155 0
M  V30 5731 C 538.254 1.25638 3.23778 0
M  V30 5732 C 537.208 2.36752 3.56556 0
M  V30 5733 C 536.534 2.06326 4.93289 0
M  V30 5734 C 537.834 3.79069 3.5931 0
M  V30 5735 H 539.528 2.35484 1.84899 0
M  V30 5736 H 537.074 1.13348 0.888162 0
M  V30 5737 H 539.027 1.25398 4.0231 0
M  V30 5738 H 537.751 0.277772 3.25417 0
M  V30 5739 H 536.41 2.36213 2.80355 0
M  V30 5740 H 536.058 1.06897 4.9151 0
M  V30 5741 H 535.758 2.80757 5.16187 0
M  V30 5742 H 537.282 2.07739 5.74175 0
M  V30 5743 H 538.696 3.81526 4.27914 0
M  V30 5744 H 537.093 4.52878 3.93728 0
M  V30 5745 H 538.163 4.09893 2.59068 0
M  V30 5746 O 539.545 -0.874016 1.35806 0
M  V30 5747 H 540.236 -1.51229 1.21035 0
M  V30 END ATOM
M  V30 BEGIN BOND
M  V30 END BOND
M  V30 END CTAB
M  END
$$$$
