drugbank_target|Q07820 Induced myeloid leukemia cell differentiation protein Mcl-1 (DB09401)
 OpenBabel12092120333D

  0  0  0     0  0            999 V3000
M  V30 BEGIN CTAB
M  V30 COUNTS 5262 5310 0 0 0
M  V30 BEGIN ATOM
M  V30 1 H -0.908 1.98254 -0.117106 0
M  V30 2 N 0 1.576 0 0
M  V30 3 C 0.933 2.03868 1.02534 0
M  V30 4 C 1.911 0.928543 1.3348 0
M  V30 5 O 3.095 1.19667 1.45644 0
M  V30 6 C 0.222 2.43627 2.35294 0
M  V30 7 C -0.732 3.65373 2.2001 0
M  V30 8 S 0.101 5.13292 1.52614 0
M  V30 9 C 1.257 5.56322 2.86805 0
M  V30 10 H 1.49 2.90518 0.631377 0
M  V30 11 H -0.977 1.52953 0.210867 0
M  V30 12 H 0.981 2.67203 3.11629 0
M  V30 13 H -0.358 1.57376 2.7183 0
M  V30 14 H -1.165 3.90944 3.18086 0
M  V30 15 H -1.563 3.418 1.51819 0
M  V30 16 H 0.729 5.58782 3.83104 0
M  V30 17 H 1.672 6.56266 2.65933 0
M  V30 18 H 2.08 4.83886 2.90714 0
M  V30 19 N 1.4781 -0.272755 1.55222 0
M  V30 20 C 2.7251 -1.00433 1.7584 0
M  V30 21 C 3.0531 -1.86275 0.559629 0
M  V30 22 O 2.3081 -1.90269 -0.457857 0
M  V30 23 C 2.6071 -1.91642 3.01675 0
M  V30 24 C 2.2731 -1.21548 4.34208 0
M  V30 25 C 0.9351 -1.02166 4.70229 0
M  V30 26 C 3.2871 -0.716684 5.16249 0
M  V30 27 C 0.6151 -0.316334 5.85847 0
M  V30 28 C 2.9671 -0.0249476 6.32595 0
M  V30 29 C 1.6311 0.180579 6.67256 0
M  V30 30 H 0.9011 -0.367509 0.643443 0
M  V30 31 H 3.5481 -0.276596 1.89492 0
M  V30 32 H 1.8531 -2.71037 2.82924 0
M  V30 33 H 3.5501 -2.48369 3.14824 0
M  V30 34 H 0.1401 -1.37645 4.05896 0
M  V30 35 H 4.3241 -0.854047 4.88896 0
M  V30 36 H -0.4199 -0.146378 6.11225 0
M  V30 37 H 3.7541 0.369311 6.9542 0
M  V30 38 H 1.3811 0.729098 7.56696 0
M  V30 39 N 2.9562 -1.48159 -0.537278 0
M  V30 40 C 4.2042 -1.55497 -1.29094 0
M  V30 41 C 4.5252 -0.227454 -1.93669 0
M  V30 42 O 3.7952 0.750386 -1.80959 0
M  V30 43 H 2.3752 -0.572832 -0.47945 0
M  V30 44 H 5.0372 -1.84579 -0.625818 0
M  V30 45 H 4.1332 -2.33216 -2.07405 0
M  V30 46 N 4.4343 0.785586 -1.36625 0
M  V30 47 C 5.3643 1.91259 -1.33949 0
M  V30 48 C 6.3453 1.68795 -0.210325 0
M  V30 49 O 7.5303 1.89854 -0.408561 0
M  V30 50 C 4.6603 3.28339 -1.13186 0
M  V30 51 C 3.6143 3.65335 -2.22967 0
M  V30 52 C 2.9403 5.00806 -1.87342 0
M  V30 53 C 4.2403 3.7352 -3.65075 0
M  V30 54 H 5.9343 1.93755 -2.28253 0
M  V30 55 H 3.4803 0.930788 -1.09874 0
M  V30 56 H 5.4333 4.06804 -1.09948 0
M  V30 57 H 4.1573 3.2624 -0.153332 0
M  V30 58 H 2.8163 2.89169 -2.25337 0
M  V30 59 H 2.4643 4.95233 -0.880545 0
M  V30 60 H 2.1643 5.26529 -2.60846 0
M  V30 61 H 3.6883 5.81687 -1.85667 0
M  V30 62 H 5.1023 4.42168 -3.64911 0
M  V30 63 H 3.4993 4.10731 -4.37516 0
M  V30 64 H 4.5693 2.74527 -3.99703 0
M  V30 65 N 5.9124 1.20967 1.01018 0
M  V30 66 C 6.8594 0.964281 2.09691 0
M  V30 67 C 7.8294 -0.107853 1.65749 0
M  V30 68 O 9.0144 0.0381987 1.90762 0
M  V30 69 C 6.1544 0.52943 3.41015 0
M  V30 70 C 5.2674 1.67043 3.98398 0
M  V30 71 C 4.4024 1.18525 5.17808 0
M  V30 72 C 3.4414 2.29892 5.67288 0
M  V30 73 N 2.5784 1.82546 6.77954 0
M  V30 74 H 7.4184 1.89463 2.30017 0
M  V30 75 H 4.9554 0.944289 1.1279 0
M  V30 76 H 6.9134 0.258588 4.16398 0
M  V30 77 H 5.5434 -0.363919 3.20742 0
M  V30 78 H 4.5954 2.05603 3.20049 0
M  V30 79 H 5.9074 2.50877 4.31117 0
M  V30 80 H 5.0614 0.870762 6.00419 0
M  V30 81 H 3.8004 0.316887 4.86669 0
M  V30 82 H 2.8054 2.6215 4.83278 0
M  V30 83 H 4.0304 3.17216 6.00459 0
M  V30 84 H 1.9764 0.980454 6.48632 0
M  V30 85 H 1.8934 2.59956 7.09901 0
M  V30 86 H 3.1614 1.54115 7.64113 0
M  V30 87 N 7.3905 -1.2043 1.01659 0
M  V30 88 C 8.8065 -1.41852 0.731442 0
M  V30 89 C 9.0065 -1.89358 -0.688898 0
M  V30 90 O 8.0625 -2.06247 -1.45666 0
M  V30 91 C 9.3755 -2.44019 1.75714 0
M  V30 92 C 10.9235 -2.57785 1.77527 0
M  V30 93 C 11.3985 -3.63194 2.79023 0
M  V30 94 N 12.8895 -3.70678 2.77763 0
M  V30 95 C 13.6245 -4.51897 3.52954 0
M  V30 96 N 13.1205 -5.36921 4.37821 0
M  V30 97 N 14.9135 -4.4643 3.41551 0
M  V30 98 H 7.0645 -0.879093 1.93354 0
M  V30 99 H 9.3275 -0.448425 0.835236 0
M  V30 100 H 9.0335 -2.1611 2.77469 0
M  V30 101 H 8.9075 -3.43007 1.56927 0
M  V30 102 H 11.2945 -2.85023 0.764569 0
M  V30 103 H 11.3755 -1.58992 2.00387 0
M  V30 104 H 11.0195 -3.36699 3.80258 0
M  V30 105 H 10.9495 -4.61609 2.53425 0
M  V30 106 H 13.4405 -3.09944 2.16201 0
M  V30 107 H 13.7535 -5.95981 4.91962 0
M  V30 108 H 12.0985 -5.36424 4.41899 0
M  V30 109 H 15.2895 -3.79042 2.74672 0
M  V30 110 H 15.4625 -5.09491 4.00404 0
M  V30 111 N 8.8686 -0.792821 -1.36206 0
M  V30 112 C 9.8166 -0.181555 -2.3189 0
M  V30 113 C 10.8106 0.661025 -1.55971 0
M  V30 114 O 12.0166 0.555728 -1.71206 0
M  V30 115 H 8.3916 -0.0399382 -0.750939 0
M  V30 116 H 10.3626 -1.00394 -2.81005 0
M  V30 117 C 9.1116 0.666444 -3.41253 0
M  V30 118 H 8.4346 0.0274489 -3.99791 0
M  V30 119 H 9.8746 1.06076 -4.10517 0
M  V30 120 C 8.3336 1.82614 -2.83114 0
M  V30 121 O 8.8636 2.9229 -2.75553 0
M  V30 122 N 7.0696 1.63333 -2.40356 0
M  V30 123 H 6.6166 0.741217 -2.46706 0
M  V30 124 H 6.5746 2.41087 -2.01803 0
M  V30 125 N 10.3467 1.47872 -0.545128 0
M  V30 126 C 11.3097 2.28337 0.198717 0
M  V30 127 C 12.3097 1.36255 0.853888 0
M  V30 128 O 13.4997 1.59003 0.711606 0
M  V30 129 C 10.6317 3.15585 1.28915 0
M  V30 130 H 11.8247 2.95567 -0.507941 0
M  V30 131 H 9.3777 1.53362 -0.301616 0
M  V30 132 H 10.1127 2.53019 2.02859 0
M  V30 133 H 9.8977 3.83337 0.824309 0
M  V30 134 H 11.3877 3.76243 1.81194 0
M  V30 135 N 11.8248 0.280983 1.55075 0
M  V30 136 C 13.0708 -0.33461 2.00021 0
M  V30 137 C 13.4038 -1.55063 1.16915 0
M  V30 138 O 12.6788 -1.93006 0.240646 0
M  V30 139 C 12.9618 -0.711007 3.53011 0
M  V30 140 C 12.8148 0.512766 4.46868 0
M  V30 141 C 14.1338 -1.54522 4.12081 0
M  V30 142 H 11.2528 -0.120147 0.727141 0
M  V30 143 H 13.8948 0.389097 1.85973 0
M  V30 144 H 12.0448 -1.32761 3.65112 0
M  V30 145 H 13.7168 1.15131 4.46702 0
M  V30 146 H 11.9598 1.14975 4.18286 0
M  V30 147 H 12.6308 0.205556 5.51617 0
M  V30 148 H 15.1068 -1.02442 4.03293 0
M  V30 149 H 13.9828 -1.77739 5.19327 0
M  V30 150 H 14.2438 -2.52813 3.62682 0
M  V30 151 N 13.3029 -1.57598 0.00835791 0
M  V30 152 C 14.5519 -1.90107 -0.673968 0
M  V30 153 C 14.8649 -0.884275 -1.7447 0
M  V30 154 O 16.0709 -1.09987 -2.48224 0
M  V30 155 C 14.5269 -3.37497 -1.24995 0
M  V30 156 C 14.1349 -4.47491 -0.2136 0
M  V30 157 C 15.8789 -3.79104 -1.90999 0
M  V30 158 C 13.7859 -5.85963 -0.80005 0
M  V30 159 H 12.7159 -0.709393 -0.255495 0
M  V30 160 H 15.3669 -1.83365 0.0702693 0
M  V30 161 H 13.7489 -3.39102 -2.04513 0
M  V30 162 H 14.9229 -4.57414 0.557596 0
M  V30 163 H 13.2379 -4.14956 0.346474 0
M  V30 164 H 15.8349 -4.79901 -2.35795 0
M  V30 165 H 16.1779 -3.1306 -2.74407 0
M  V30 166 H 16.7109 -3.79833 -1.18203 0
M  V30 167 H 13.4499 -6.555 -0.00456708 0
M  V30 168 H 12.9699 -5.79687 -1.54021 0
M  V30 169 H 14.6489 -6.33884 -1.29615 0
M  V30 170 N 14.781 0.264519 -1.55364 0
M  V30 171 C 16.029 0.993021 -1.76021 0
M  V30 172 C 16.35 1.86511 -0.569099 0
M  V30 173 O 15.62 1.91438 0.415735 0
M  V30 174 H 14.2 0.369639 -0.649135 0
M  V30 175 H 16.862 0.286707 -1.9278 0
M  V30 176 H 15.958 1.62502 -2.66457 0
M  V30 177 N 16.2591 1.48442 0.529413 0
M  V30 178 C 17.1891 1.65902 1.64313 0
M  V30 179 C 18.1701 0.507897 1.6234 0
M  V30 180 O 19.3551 0.740503 1.79528 0
M  V30 181 C 16.4851 1.69911 3.02898 0
M  V30 182 C 15.4391 2.8453 3.19729 0
M  V30 183 C 14.7651 2.73629 4.59381 0
M  V30 184 C 16.0651 4.25821 3.02447 0
M  V30 185 H 17.7591 2.5914 1.49955 0
M  V30 186 H 15.3051 1.24709 0.719982 0
M  V30 187 H 17.2581 1.80715 3.80684 0
M  V30 188 H 15.9821 0.732524 3.18279 0
M  V30 189 H 14.6411 2.73283 2.44361 0
M  V30 190 H 14.2891 1.74938 4.71599 0
M  V30 191 H 13.9891 3.50541 4.71588 0
M  V30 192 H 15.5131 2.86401 5.39265 0
M  V30 193 H 16.9271 4.37898 3.70024 0
M  V30 194 H 15.3241 5.03735 3.26146 0
M  V30 195 H 16.3941 4.42244 1.98867 0
M  V30 196 N 17.7372 -0.778329 1.37039 0
M  V30 197 C 18.6852 -1.91278 1.32345 0
M  V30 198 C 19.6792 -1.68051 0.213331 0
M  V30 199 O 20.8852 -1.75922 0.38098 0
M  V30 200 H 17.2602 -0.628909 0.412283 0
M  V30 201 H 19.2312 -1.92355 2.28127 0
M  V30 202 C 17.9802 -3.28455 1.14073 0
M  V30 203 H 17.3032 -3.46901 1.98746 0
M  V30 204 H 18.7432 -4.08152 1.14837 0
M  V30 205 C 17.2022 -3.36548 -0.154015 0
M  V30 206 O 17.7322 -3.85186 -1.13993 0
M  V30 207 N 15.9382 -2.89894 -0.202475 0
M  V30 208 H 15.4852 -2.50504 0.600476 0
M  V30 209 H 15.4432 -2.9569 -1.06841 0
M  V30 210 N 19.2153 -1.21501 -1.00376 0
M  V30 211 C 20.1453 -0.999478 -2.11028 0
M  V30 212 C 21.1263 0.0759671 -1.6993 0
M  V30 213 O 22.3113 -0.0841106 -1.94018 0
M  V30 214 C 19.4413 -0.564709 -3.42678 0
M  V30 215 C 18.3953 -1.58486 -3.97576 0
M  V30 216 C 17.7213 -1.00628 -5.25146 0
M  V30 217 C 19.0213 -2.97204 -4.29496 0
M  V30 218 H 20.7153 -1.92495 -2.29317 0
M  V30 219 H 18.2613 -0.92693 -1.102 0
M  V30 220 H 20.2143 -0.401091 -4.19487 0
M  V30 221 H 18.9383 0.396411 -3.24185 0
M  V30 222 H 17.5973 -1.73606 -3.22888 0
M  V30 223 H 17.2453 -0.0368439 -5.02987 0
M  V30 224 H 16.9453 -1.68771 -5.62841 0
M  V30 225 H 18.4693 -0.854015 -6.04598 0
M  V30 226 H 19.8833 -2.8552 -4.97143 0
M  V30 227 H 18.2803 -3.62372 -4.78338 0
M  V30 228 H 19.3503 -3.47956 -3.3772 0
M  V30 229 N 20.6934 1.19889 -1.02296 0
M  V30 230 C 21.9234 1.93109 -0.734332 0
M  V30 231 C 22.3314 1.75377 0.709889 0
M  V30 232 O 21.6744 1.06912 1.49384 0
M  V30 233 C 21.7364 3.45362 -0.99827 0
M  V30 234 C 21.4004 3.8686 -2.43287 0
M  V30 235 C 22.3974 3.92102 -3.41397 0
M  V30 236 C 20.0824 4.18668 -2.77529 0
M  V30 237 C 22.0764 4.28573 -4.71809 0
M  V30 238 C 19.7634 4.54813 -4.08153 0
M  V30 239 C 20.7614 4.59739 -5.05103 0
M  V30 240 O 20.4494 4.95051 -6.33388 0
M  V30 241 H 20.1814 0.620409 -0.268456 0
M  V30 242 H 22.7354 1.53144 -1.3688 0
M  V30 243 H 20.9654 3.85482 -0.306645 0
M  V30 244 H 22.6544 3.99814 -0.700234 0
M  V30 245 H 23.4204 3.67685 -3.1628 0
M  V30 246 H 19.2994 4.14021 -2.0275 0
M  V30 247 H 22.8434 4.32333 -5.4748 0
M  V30 248 H 18.7404 4.78687 -4.33047 0
M  V30 249 H 19.5084 5.1302 -6.37772 0
M  V30 250 N 22.1715 0.800033 1.35784 0
M  V30 251 C 23.4115 0.382891 2.00782 0
M  V30 252 C 23.7755 -1.02891 1.62103 0
M  V30 253 O 24.9765 -1.54771 2.19771 0
M  V30 254 C 23.2475 0.553299 3.53091 0
M  V30 255 S 24.8065 0.225608 4.3822 0
M  V30 256 H 21.6245 0.145737 0.695904 0
M  V30 257 H 24.2265 1.04085 1.65489 0
M  V30 258 H 22.9305 1.58091 3.78729 0
M  V30 259 H 22.4615 -0.120214 3.93216 0
M  V30 260 H 24.4765 -0.969074 4.86645 0
M  V30 261 N 23.6496 -1.47581 0.552962 0
M  V30 262 C 24.8976 -2.02082 0.0272703 0
M  V30 263 C 25.2186 -1.4301 -1.32563 0
M  V30 264 O 24.4886 -0.603745 -1.86365 0
M  V30 265 H 23.0686 -0.746966 0.00709182 0
M  V30 266 H 25.7306 -1.81033 0.722008 0
M  V30 267 H 24.8266 -3.12034 -0.0639951 0
M  V30 268 N 25.1277 -0.289203 -1.54924 0
M  V30 269 C 26.3757 0.322879 -1.99504 0
M  V30 270 C 26.6967 1.55313 -1.1791 0
M  V30 271 O 25.9667 1.94001 -0.272097 0
M  V30 272 H 24.5467 0.122291 -0.736922 0
M  V30 273 H 27.2087 -0.397802 -1.90797 0
M  V30 274 H 26.3047 0.603061 -3.06218 0
M  V30 275 N 26.6058 1.57591 -0.0167156 0
M  V30 276 C 27.5688 2.08393 0.954204 0
M  V30 277 C 28.5688 0.996531 1.26198 0
M  V30 278 O 29.7588 1.25858 1.20438 0
M  V30 279 C 26.8908 2.5394 2.27436 0
M  V30 280 H 28.0838 2.95455 0.514451 0
M  V30 281 H 25.6368 1.54582 0.231089 0
M  V30 282 H 26.3718 1.70171 2.76066 0
M  V30 283 H 26.1568 3.33371 2.06412 0
M  V30 284 H 27.6468 2.93512 2.97053 0
M  V30 285 N 28.0839 -0.256276 1.55502 0
M  V30 286 C 29.3319 -0.983672 1.76545 0
M  V30 287 C 29.6529 -1.86206 0.578982 0
M  V30 288 O 28.9229 -1.91656 -0.405577 0
M  V30 289 H 27.5029 -0.366191 0.651086 0
M  V30 290 H 30.1649 -0.276479 1.92929 0
M  V30 291 H 29.2609 -1.61087 2.67315 0
M  V30 292 N 29.562 -1.4872 -0.521534 0
M  V30 293 C 30.492 -1.66771 -1.63431 0
M  V30 294 C 31.473 -0.516499 -1.62069 0
M  V30 295 O 32.658 -0.750013 -1.79132 0
M  V30 296 C 29.788 -1.71515 -3.01993 0
M  V30 297 C 28.742 -2.86222 -3.18216 0
M  V30 298 C 28.068 -2.76061 -4.57924 0
M  V30 299 C 29.368 -4.27419 -3.00184 0
M  V30 300 H 31.062 -2.59932 -1.48579 0
M  V30 301 H 28.608 -1.25089 -0.713358 0
M  V30 302 H 30.561 -1.82731 -3.7972 0
M  V30 303 H 29.285 -0.749393 -3.17886 0
M  V30 304 H 27.944 -2.74575 -2.42908 0
M  V30 305 H 27.592 -1.77437 -4.70665 0
M  V30 306 H 27.292 -3.53037 -4.69722 0
M  V30 307 H 28.816 -2.89256 -5.37739 0
M  V30 308 H 30.23 -4.39855 -3.67697 0
M  V30 309 H 28.627 -5.05458 -3.2347 0
M  V30 310 H 29.697 -4.43293 -1.96518 0
M  V30 311 N 31.0401 0.771051 -1.3745 0
M  V30 312 C 32.2881 1.52661 -1.32435 0
M  V30 313 C 32.6091 1.9479 0.0905024 0
M  V30 314 O 31.8791 1.66348 1.03466 0
M  V30 315 H 30.4591 0.566218 -0.487244 0
M  V30 316 H 33.1211 0.917636 -1.71946 0
M  V30 317 H 32.2171 2.42568 -1.96385 0
M  V30 318 N 32.5182 1.22032 0.997298 0
M  V30 319 C 33.4812 0.987909 2.06816 0
M  V30 320 C 34.4812 -0.0440084 1.6074 0
M  V30 321 O 35.6712 0.194053 1.73116 0
M  V30 322 C 32.8032 0.49132 3.37341 0
M  V30 323 H 33.9962 1.93803 2.28868 0
M  V30 324 H 31.5492 1.03838 1.16822 0
M  V30 325 H 32.2842 -0.463364 3.20973 0
M  V30 326 H 32.0692 1.23575 3.72118 0
M  V30 327 H 33.5592 0.348824 4.16141 0
M  V30 328 N 33.9963 -1.19345 1.0293 0
M  V30 329 C 35.2443 -1.88665 0.724574 0
M  V30 330 C 35.5653 -1.80036 -0.749144 0
M  V30 331 O 34.8353 -1.2111 -1.53978 0
M  V30 332 H 33.4153 -0.698406 0.265025 0
M  V30 333 H 36.0773 -1.44885 1.30362 0
M  V30 334 H 35.1733 -2.94987 1.01926 0
M  V30 335 N 35.4744 -0.807222 -1.35358 0
M  V30 336 C 36.6994 -0.399309 -2.0352 0
M  V30 337 C 37.1244 0.981986 -1.60433 0
M  V30 338 O 36.4824 1.63601 -0.781299 0
M  V30 339 C 36.5304 -0.491552 -3.57234 0
M  V30 340 O 35.6344 0.494754 -4.09421 0
M  V30 341 H 34.9754 -0.166682 -0.642739 0
M  V30 342 H 37.5054 -1.09328 -1.72941 0
M  V30 343 H 37.5154 -0.361588 -4.06395 0
M  V30 344 H 36.1904 -1.49907 -3.87944 0
M  V30 345 H 34.7674 0.324977 -3.71481 0
M  V30 346 N 36.9525 1.47285 -0.560781 0
M  V30 347 C 38.2005 2.02064 -0.0379868 0
M  V30 348 C 38.5215 1.43711 1.31803 0
M  V30 349 O 37.7915 0.61362 1.86042 0
M  V30 350 H 36.3715 0.746918 -0.0110531 0
M  V30 351 H 39.0335 1.80648 -0.731598 0
M  V30 352 H 38.1295 3.12064 0.0474463 0
M  V30 353 N 38.4306 0.297415 1.54768 0
M  V30 354 C 39.6786 -0.312295 1.99673 0
M  V30 355 C 39.9996 -1.54686 1.18732 0
M  V30 356 O 39.2696 -1.93854 0.282382 0
M  V30 357 H 37.8496 -0.118381 0.73756 0
M  V30 358 H 40.5116 0.407915 1.90583 0
M  V30 359 H 39.6076 -0.586813 3.06534 0
M  V30 360 N 39.9087 -1.5758 0.0250728 0
M  V30 361 C 40.8717 -2.08896 -0.943139 0
M  V30 362 C 41.8717 -1.00321 -1.25668 0
M  V30 363 O 43.0617 -1.26495 -1.19769 0
M  V30 364 C 40.1937 -2.55143 -2.26086 0
M  V30 365 H 41.3867 -2.95723 -0.498775 0
M  V30 366 H 38.9397 -1.54703 -0.222888 0
M  V30 367 H 39.6747 -1.71633 -2.75159 0
M  V30 368 H 39.4597 -3.34461 -2.04641 0
M  V30 369 H 40.9497 -2.95083 -2.95492 0
M  V30 370 N 41.3868 0.248026 -1.55636 0
M  V30 371 C 42.6148 0.993808 -1.81469 0
M  V30 372 C 43.0298 1.78991 -0.60064 0
M  V30 373 O 42.3868 1.77345 0.430682 0
M  V30 374 C 42.4378 1.93258 -3.05506 0
M  V30 375 O 42.1588 1.16869 -4.22224 0
M  V30 376 C 43.6598 2.79444 -3.4413 0
M  V30 377 H 40.8798 0.292486 -0.603898 0
M  V30 378 H 43.4238 0.271253 -2.02693 0
M  V30 379 H 41.5788 2.60943 -2.86335 0
M  V30 380 H 41.9928 1.80359 -4.92515 0
M  V30 381 H 43.4668 3.41066 -4.34026 0
M  V30 382 H 43.9438 3.50499 -2.64665 0
M  V30 383 H 44.5498 2.17214 -3.65648 0
M  V30 384 N 42.8649 1.48995 0.513639 0
M  V30 385 C 44.2809 1.35478 0.843682 0
M  V30 386 C 44.4809 0.378213 1.97919 0
M  V30 387 O 43.5369 -0.194689 2.51748 0
M  V30 388 C 44.8499 2.75901 1.1958 0
M  V30 389 C 46.3979 2.84509 1.30474 0
M  V30 390 C 46.8729 4.25671 1.69021 0
M  V30 391 N 48.3639 4.28422 1.76094 0
M  V30 392 C 49.0989 5.34601 2.07338 0
M  V30 393 N 48.5949 6.5104 2.36894 0
M  V30 394 N 50.3879 5.22007 2.08483 0
M  V30 395 H 42.5389 2.11092 -0.235328 0
M  V30 396 H 44.8019 0.947039 -0.0426669 0
M  V30 397 H 44.5079 3.49001 0.434913 0
M  V30 398 H 44.3819 3.10467 2.1422 0
M  V30 399 H 46.7689 2.11655 2.05637 0
M  V30 400 H 46.8499 2.53542 0.339155 0
M  V30 401 H 46.4939 4.99048 0.944135 0
M  V30 402 H 46.4239 4.54094 2.66658 0
M  V30 403 H 48.9149 3.44441 1.55464 0
M  V30 404 H 49.2279 7.2779 2.59887 0
M  V30 405 H 47.5729 6.54287 2.34378 0
M  V30 406 H 50.7639 4.30051 1.84861 0
M  V30 407 H 50.9369 6.04854 2.325 0
M  V30 408 N 44.343 -0.763751 1.37857 0
M  V30 409 C 45.754 -1.3405 1.29952 0
M  V30 410 C 46.105 -1.96138 -0.0492898 0
M  V30 411 O 45.23 -1.94372 -0.951239 0
M  V30 412 C 45.825 -2.43729 2.35333 0
M  V30 413 C 44.384 -2.97151 2.31037 0
M  V30 414 C 43.531 -1.70438 2.18738 0
M  V30 415 H 46.482 -0.563396 1.48363 0
M  V30 416 H 46.503 -3.23412 2.00462 0
M  V30 417 H 46.015 -1.9851 3.33489 0
M  V30 418 H 44.116 -3.46724 1.3643 0
M  V30 419 H 44.229 -3.52221 3.24772 0
M  V30 420 H 42.593 -1.93673 1.65418 0
M  V30 421 H 43.376 -1.27312 3.18821 0
M  V30 422 N 45.8211 -1.22559 -0.990812 0
M  V30 423 C 47.0691 -1.04933 -1.72724 0
M  V30 424 C 47.3901 0.416158 -1.90508 0
M  V30 425 O 46.6601 1.29918 -1.46622 0
M  V30 426 H 45.2401 -0.385296 -0.639965 0
M  V30 427 H 47.9021 -1.54105 -1.19322 0
M  V30 428 H 46.9981 -1.52886 -2.72089 0
M  V30 429 N 47.2992 1.18797 -1.03562 0
M  V30 430 C 48.5472 1.88278 -0.734569 0
M  V30 431 C 48.8682 1.8043 0.739586 0
M  V30 432 O 48.1382 1.21925 1.53333 0
M  V30 433 H 46.7182 0.696991 -0.268725 0
M  V30 434 H 49.3802 1.44192 -1.31129 0
M  V30 435 H 48.4762 2.94443 -1.03489 0
M  V30 436 N 48.7773 0.814389 1.34928 0
M  V30 437 C 50.1933 0.499084 1.51596 0
M  V30 438 C 50.3933 -0.978319 1.76157 0
M  V30 439 O 49.4493 -1.76309 1.80752 0
M  V30 440 C 50.7623 1.35121 2.68631 0
M  V30 441 C 52.3103 1.34746 2.82511 0
M  V30 442 C 52.7853 2.18388 4.0258 0
M  V30 443 N 54.2763 2.15966 4.09772 0
M  V30 444 C 55.0113 2.77437 5.01813 0
M  V30 445 N 54.5073 3.47866 5.99134 0
M  V30 446 N 56.3003 2.67037 4.94619 0
M  V30 447 H 48.4513 1.7711 1.17243 0
M  V30 448 H 50.7143 0.754256 0.574284 0
M  V30 449 H 50.4203 2.40001 2.57085 0
M  V30 450 H 50.2943 1.00991 3.63429 0
M  V30 451 H 52.6813 0.30648 2.93504 0
M  V30 452 H 52.7623 1.72869 1.88547 0
M  V30 453 H 52.4063 3.2253 3.92347 0
M  V30 454 H 52.3363 1.77621 4.9574 0
M  V30 455 H 54.8273 1.64729 3.40107 0
M  V30 456 H 55.1403 3.92038 6.65977 0
M  V30 457 H 53.4853 3.51972 5.99284 0
M  V30 458 H 56.6763 2.11597 4.17546 0
M  V30 459 H 56.8493 3.15232 5.66156 0
M  V30 460 N 50.2554 -1.46986 0.568584 0
M  V30 461 C 51.1854 -2.32946 -0.160753 0
M  V30 462 C 52.1664 -1.44487 -0.897631 0
M  V30 463 O 53.3514 -1.73327 -0.875867 0
M  V30 464 C 50.4814 -3.26494 -1.18403 0
M  V30 465 C 49.4354 -4.24282 -0.562895 0
M  V30 466 C 48.7614 -5.07236 -1.69163 0
M  V30 467 C 50.0614 -5.19989 0.490761 0
M  V30 468 H 51.7554 -2.94175 0.556916 0
M  V30 469 H 49.3014 -1.4146 0.26927 0
M  V30 470 H 51.2544 -3.85477 -1.70251 0
M  V30 471 H 49.9784 -2.63343 -1.93179 0
M  V30 472 H 48.6374 -3.66541 -0.0656164 0
M  V30 473 H 48.2854 -4.4048 -2.42871 0
M  V30 474 H 47.9854 -5.7345 -1.28174 0
M  V30 475 H 49.5094 -5.6908 -2.21314 0
M  V30 476 H 50.9234 -5.73271 0.0579047 0
M  V30 477 H 49.3204 -5.94469 0.820165 0
M  V30 478 H 50.3904 -4.64777 1.3824 0
M  V30 479 N 51.7335 -0.305618 -1.54608 0
M  V30 480 C 52.6635 0.561482 -2.26649 0
M  V30 481 C 53.6445 1.13415 -1.26772 0
M  V30 482 O 54.8295 1.16262 -1.55553 0
M  V30 483 C 51.9595 1.73122 -3.01075 0
M  V30 484 C 50.9135 1.2887 -4.08138 0
M  V30 485 C 50.2395 2.54396 -4.70305 0
M  V30 486 C 51.5395 0.416578 -5.20636 0
M  V30 487 H 53.2335 -0.0393902 -2.99374 0
M  V30 488 H 50.7795 -0.020385 -1.43986 0
M  V30 489 H 52.7325 2.34396 -3.50195 0
M  V30 490 H 51.4565 2.3584 -2.25936 0
M  V30 491 H 50.1155 0.698991 -3.59875 0
M  V30 492 H 49.7635 3.15439 -3.918 0
M  V30 493 H 49.4635 2.25486 -5.42614 0
M  V30 494 H 50.9875 3.16464 -5.2219 0
M  V30 495 H 52.4015 0.935116 -5.65622 0
M  V30 496 H 50.7985 0.221046 -5.99693 0
M  V30 497 H 51.8685 -0.557162 -4.81688 0
M  V30 498 N 53.2116 1.57565 -0.0334293 0
M  V30 499 C 54.1746 2.09393 0.932048 0
M  V30 500 C 55.1746 1.00986 1.25134 0
M  V30 501 O 56.3646 1.27129 1.19096 0
M  V30 502 C 53.4966 2.56338 2.2473 0
M  V30 503 H 54.6896 2.95984 0.483085 0
M  V30 504 H 52.2426 1.54819 0.21468 0
M  V30 505 H 52.9776 1.7309 2.74245 0
M  V30 506 H 52.7626 3.35542 2.02865 0
M  V30 507 H 54.2526 2.96646 2.93923 0
M  V30 508 N 54.6897 -0.239769 1.55765 0
M  V30 509 C 55.9177 -0.98417 1.81994 0
M  V30 510 C 56.3327 -1.7867 0.610124 0
M  V30 511 O 55.6897 -1.77571 -0.421271 0
M  V30 512 C 55.7407 -1.91635 3.06526 0
M  V30 513 O 55.4617 -1.14629 4.22838 0
M  V30 514 C 56.9627 -2.77616 3.45607 0
M  V30 515 H 54.1827 -0.28928 0.605441 0
M  V30 516 H 56.7267 -0.260499 2.02834 0
M  V30 517 H 54.8817 -2.5942 2.87715 0
M  V30 518 H 55.2957 -1.77745 4.93464 0
M  V30 519 H 56.7697 -3.38759 4.35828 0
M  V30 520 H 57.2467 -3.4909 2.6652 0
M  V30 521 H 57.8527 -2.15271 3.66795 0
M  V30 522 N 56.1678 -1.49265 -0.50573 0
M  V30 523 C 57.0778 -1.68312 -1.63427 0
M  V30 524 C 58.0938 -0.565682 -1.64548 0
M  V30 525 O 59.2698 -0.839801 -1.83055 0
M  V30 526 C 56.3348 -1.74107 -2.99813 0
M  V30 527 C 55.3958 -2.97653 -3.09356 0
M  V30 528 C 54.6288 -3.03163 -4.39236 0
M  V30 529 O 54.8518 -2.16396 -5.27758 0
M  V30 530 O 53.7858 -3.9558 -4.53652 0
M  V30 531 H 57.6118 -2.63907 -1.50289 0
M  V30 532 H 55.1968 -1.32951 -0.681502 0
M  V30 533 H 57.0788 -1.803 -3.80881 0
M  V30 534 H 55.7538 -0.816901 -3.13223 0
M  V30 535 H 54.6608 -2.96981 -2.27493 0
M  V30 536 H 55.9938 -3.89535 -3.00871 0
M  V30 537 N 57.6459 0.756429 -1.3826 0
M  V30 538 C 58.5929 1.87011 -1.35261 0
M  V30 539 C 59.5629 1.64695 -0.215616 0
M  V30 540 O 60.7479 1.864 -0.407399 0
M  V30 541 C 57.8879 3.24275 -1.18068 0
M  V30 542 C 57.0009 3.58442 -2.41129 0
M  V30 543 C 56.1359 4.84994 -2.16689 0
M  V30 544 C 55.1749 5.11939 -3.35537 0
M  V30 545 N 54.3119 6.29685 -3.10549 0
M  V30 546 H 59.1519 1.8891 -2.30472 0
M  V30 547 H 56.6889 0.923373 -1.14509 0
M  V30 548 H 58.6469 4.03479 -1.06116 0
M  V30 549 H 57.2769 3.21711 -0.264973 0
M  V30 550 H 56.3289 2.74103 -2.63764 0
M  V30 551 H 57.6409 3.74283 -3.29717 0
M  V30 552 H 56.7949 5.72135 -2.01857 0
M  V30 553 H 55.5339 4.71286 -1.25462 0
M  V30 554 H 54.5389 4.23268 -3.50891 0
M  V30 555 H 55.7639 5.27546 -4.27635 0
M  V30 556 H 53.7099 6.17306 -2.21967 0
M  V30 557 H 53.6269 6.46014 -3.92686 0
M  V30 558 H 54.8949 7.19722 -2.99367 0
M  V30 559 N 59.124 1.23083 0.984299 0
M  V30 560 C 60.034 1.02515 2.11016 0
M  V30 561 C 61.05 -0.0291702 1.73976 0
M  V30 562 O 62.226 0.165434 2.00719 0
M  V30 563 C 59.291 0.614673 3.41208 0
M  V30 564 C 58.352 1.74359 3.92297 0
M  V30 565 C 57.585 1.35261 5.16275 0
M  V30 566 O 57.808 0.235136 5.69915 0
M  V30 567 O 56.742 2.17227 5.61334 0
M  V30 568 H 60.568 1.96862 2.31255 0
M  V30 569 H 58.153 1.01753 1.09392 0
M  V30 570 H 60.035 0.396518 4.1953 0
M  V30 571 H 58.71 -0.299851 3.22308 0
M  V30 572 H 57.617 2.01635 3.1511 0
M  V30 573 H 58.95 2.63629 4.15645 0
M  V30 574 N 60.6021 -1.18246 1.0419 0
M  V30 575 C 61.5651 -2.20128 0.638452 0
M  V30 576 C 62.5651 -1.57885 -0.304805 0
M  V30 577 O 63.7551 -1.73967 -0.0900369 0
M  V30 578 C 60.8871 -3.4084 -0.0637751 0
M  V30 579 H 62.0801 -2.57336 1.54007 0
M  V30 580 H 59.6331 -1.32152 0.834598 0
M  V30 581 H 60.3681 -3.09166 -0.979136 0
M  V30 582 H 60.1531 -3.8726 0.614198 0
M  V30 583 H 61.6431 -4.16274 -0.332512 0
M  V30 584 N 62.0802 -0.821533 -1.34494 0
M  V30 585 C 63.3052 -0.420873 -2.03085 0
M  V30 586 C 63.7302 0.964915 -1.61465 0
M  V30 587 O 63.0882 1.62763 -0.798607 0
M  V30 588 C 63.1362 -0.529414 -3.56693 0
M  V30 589 O 62.2402 0.451302 -4.09923 0
M  V30 590 H 61.5812 -0.173489 -0.640935 0
M  V30 591 H 64.1112 -1.11157 -1.71771 0
M  V30 592 H 64.1212 -0.404671 -4.05988 0
M  V30 593 H 62.7962 -1.54014 -3.86332 0
M  V30 594 H 61.3732 0.285558 -3.71805 0
M  V30 595 N 63.5583 1.46682 -0.576371 0
M  V30 596 C 64.5213 2.28707 0.150239 0
M  V30 597 C 65.5213 1.38035 0.824794 0
M  V30 598 O 66.7113 1.60476 0.677719 0
M  V30 599 C 63.8433 3.18248 1.22192 0
M  V30 600 H 65.0363 2.94423 -0.570521 0
M  V30 601 H 62.5893 1.52688 -0.334078 0
M  V30 602 H 63.3243 2.57265 1.97447 0
M  V30 603 H 63.1093 3.85 0.742812 0
M  V30 604 H 64.5993 3.80001 1.73172 0
M  V30 605 N 65.0364 0.313813 1.54444 0
M  V30 606 C 66.4524 -0.0391619 1.59552 0
M  V30 607 C 66.6524 -1.51322 1.33056 0
M  V30 608 O 65.7084 -2.26782 1.11022 0
M  V30 609 C 67.0214 0.370302 2.98411 0
M  V30 610 C 68.5694 0.320139 3.11358 0
M  V30 611 C 69.0444 0.704617 4.52547 0
M  V30 612 N 70.5354 0.657645 4.58508 0
M  V30 613 C 71.2704 0.927453 5.6585 0
M  V30 614 N 70.7664 1.26389 6.81174 0
M  V30 615 N 72.5594 0.853662 5.5558 0
M  V30 616 H 64.7104 1.27433 1.69925 0
M  V30 617 H 66.9734 0.517511 0.794284 0
M  V30 618 H 66.6794 1.39694 3.22767 0
M  V30 619 H 66.5534 -0.269619 3.76235 0
M  V30 620 H 68.9404 -0.697275 2.86744 0
M  V30 621 H 69.0214 0.99486 2.35661 0
M  V30 622 H 68.6654 1.7199 4.77893 0
M  V30 623 H 68.5954 0.00768843 5.26599 0
M  V30 624 H 71.0864 0.409067 3.75679 0
M  V30 625 H 71.3994 1.4554 7.58972 0
M  V30 626 H 69.7444 1.30206 6.82694 0
M  V30 627 H 72.9354 0.590383 4.64362 0
M  V30 628 H 73.1084 1.0673 6.3915 0
M  V30 629 N 66.5145 -1.57545 0.0417849 0
M  V30 630 C 67.9305 -1.56467 -0.314704 0
M  V30 631 C 68.1305 -1.04859 -1.72066 0
M  V30 632 O 67.1865 -0.700983 -2.42575 0
M  V30 633 C 68.4995 -3.00317 -0.15174 0
M  V30 634 C 70.0475 -3.12201 -0.223553 0
M  V30 635 C 70.5225 -4.57913 -0.0892295 0
M  V30 636 N 72.0135 -4.6297 -0.145808 0
M  V30 637 C 72.7485 -5.73362 -0.0658459 0
M  V30 638 N 72.2445 -6.92769 0.0659282 0
M  V30 639 N 74.0375 -5.6197 -0.12075 0
M  V30 640 H 66.1885 -1.89416 0.961014 0
M  V30 641 H 68.4515 -0.871862 0.372237 0
M  V30 642 H 68.1575 -3.42073 0.817254 0
M  V30 643 H 68.0315 -3.65892 -0.916692 0
M  V30 644 H 70.4185 -2.70349 -1.18301 0
M  V30 645 H 70.4995 -2.49323 0.571994 0
M  V30 646 H 70.1435 -5.00448 0.866867 0
M  V30 647 H 70.0735 -5.18786 -0.903802 0
M  V30 648 H 72.5645 -3.7709 -0.247286 0
M  V30 649 H 72.8775 -7.72707 0.119905 0
M  V30 650 H 71.2225 -6.94927 0.100885 0
M  V30 651 H 74.4135 -4.67572 -0.222187 0
M  V30 652 H 74.5865 -6.47977 -0.0549735 0
M  V30 653 N 67.9926 0.231505 -1.5589 0
M  V30 654 C 68.9026 1.308 -1.94752 0
M  V30 655 C 69.9186 1.51826 -0.849989 0
M  V30 656 O 71.0946 1.6515 -1.15271 0
M  V30 657 C 68.1596 2.63968 -2.24771 0
M  V30 658 C 67.2206 2.51331 -3.48039 0
M  V30 659 C 66.4536 3.78148 -3.76616 0
M  V30 660 O 66.6766 4.80722 -3.07022 0
M  V30 661 O 65.6106 3.75857 -4.70123 0
M  V30 662 H 69.4366 1.0083 -2.86474 0
M  V30 663 H 67.0216 0.433547 -1.42971 0
M  V30 664 H 68.9036 3.42633 -2.45318 0
M  V30 665 H 67.5786 2.9364 -1.36225 0
M  V30 666 H 66.4856 1.709 -3.32782 0
M  V30 667 H 67.8186 2.26601 -4.36936 0
M  V30 668 N 69.4707 1.49531 0.497807 0
M  V30 669 C 70.7197 1.58426 1.24837 0
M  V30 670 C 71.0327 0.277643 1.93619 0
M  V30 671 O 72.2387 0.24517 2.70391 0
M  V30 672 C 70.6947 2.79538 2.26686 0
M  V30 673 C 70.3027 4.16971 1.63828 0
M  V30 674 C 72.0467 2.97764 3.0255 0
M  V30 675 C 69.9537 5.29301 2.63807 0
M  V30 676 H 68.8837 0.58989 0.469623 0
M  V30 677 H 71.5347 1.75923 0.521857 0
M  V30 678 H 69.9167 2.55542 3.02514 0
M  V30 679 H 71.0907 4.51116 0.939711 0
M  V30 680 H 69.4057 4.04129 1.00342 0
M  V30 681 H 72.0027 3.78856 3.77323 0
M  V30 682 H 72.3457 2.08448 3.60354 0
M  V30 683 H 72.8787 3.21815 2.33838 0
M  V30 684 H 69.6177 6.20687 2.10779 0
M  V30 685 H 69.1377 4.99606 3.31894 0
M  V30 686 H 70.8167 5.58768 3.2617 0
M  V30 687 N 70.9488 -0.749086 1.3866 0
M  V30 688 C 72.1968 -1.50535 1.34847 0
M  V30 689 C 72.5178 -1.94909 -0.0595016 0
M  V30 690 O 71.7878 -1.67973 -1.00806 0
M  V30 691 H 70.3678 -0.558395 0.49619 0
M  V30 692 H 73.0298 -0.890165 1.73384 0
M  V30 693 H 72.1258 -2.39413 2.00219 0
M  V30 694 N 72.4269 -1.23603 -0.977757 0
M  V30 695 C 73.6749 -1.06759 -1.71601 0
M  V30 696 C 73.9959 0.395929 -1.90938 0
M  V30 697 O 73.2659 1.28356 -1.47992 0
M  V30 698 H 71.8459 -0.392062 -0.635843 0
M  V30 699 H 74.5079 -1.55362 -1.1768 0
M  V30 700 H 73.6039 -1.55763 -2.70452 0
M  V30 701 N 73.905 1.17692 -1.04816 0
M  V30 702 C 75.153 1.87488 -0.754497 0
M  V30 703 C 75.474 1.81205 0.720407 0
M  V30 704 O 74.744 1.23544 1.52032 0
M  V30 705 H 73.324 0.694101 -0.276102 0
M  V30 706 H 75.986 1.42793 -1.32651 0
M  V30 707 H 75.082 2.93328 -1.06606 0
M  V30 708 N 75.3831 0.828654 1.34056 0
M  V30 709 C 76.2931 0.256725 2.33191 0
M  V30 710 C 77.3091 -0.611898 1.62886 0
M  V30 711 O 78.4851 -0.51844 1.94613 0
M  V30 712 C 75.5501 -0.567238 3.42028 0
M  V30 713 C 74.6111 0.324458 4.28072 0
M  V30 714 C 73.8441 -0.460274 5.31712 0
M  V30 715 O 74.0671 -1.693 5.44696 0
M  V30 716 O 73.0011 0.160391 6.01686 0
M  V30 717 H 76.8271 1.07739 2.83947 0
M  V30 718 H 74.4121 0.59093 1.37217 0
M  V30 719 H 76.2941 -1.03582 4.08471 0
M  V30 720 H 74.9691 -1.36513 2.93506 0
M  V30 721 H 73.8761 0.840659 3.64532 0
M  V30 722 H 75.2091 1.08685 4.8005 0
M  V30 723 N 76.8612 -1.46375 0.584142 0
M  V30 724 C 77.8242 -2.28784 -0.138108 0
M  V30 725 C 78.8242 -1.38471 -0.817462 0
M  V30 726 O 80.0142 -1.60833 -0.669199 0
M  V30 727 C 77.1462 -3.18892 -1.20503 0
M  V30 728 H 78.3392 -2.94117 0.586127 0
M  V30 729 H 75.8922 -1.52509 0.342171 0
M  V30 730 H 76.6272 -2.58309 -1.96079 0
M  V30 731 H 76.4122 -3.85388 -0.722384 0
M  V30 732 H 77.9022 -3.80914 -1.71155 0
M  V30 733 N 78.3393 -0.321999 -1.54275 0
M  V30 734 C 79.5873 0.280489 -2.00144 0
M  V30 735 C 79.9083 1.52777 -1.21178 0
M  V30 736 O 79.1783 1.9338 -0.313187 0
M  V30 737 H 77.7583 0.106632 -0.73935 0
M  V30 738 H 80.4203 -0.438184 -1.8991 0
M  V30 739 H 79.5163 0.537972 -3.07428 0
M  V30 740 N 79.8174 1.5752 -0.0501392 0
M  V30 741 C 80.7804 2.1037 0.909786 0
M  V30 742 C 81.7804 1.02308 1.24056 0
M  V30 743 O 82.9704 1.28385 1.17741 0
M  V30 744 C 80.1024 2.58708 2.21998 0
M  V30 745 H 81.2954 2.96479 0.451665 0
M  V30 746 H 78.8484 1.55038 0.198248 0
M  V30 747 H 79.5834 1.75989 2.72394 0
M  V30 748 H 79.3684 3.37675 1.99295 0
M  V30 749 H 80.8584 2.99747 2.9076 0
M  V30 750 N 81.2955 -0.223234 1.56011 0
M  V30 751 C 82.5415 -0.949279 1.79211 0
M  V30 752 C 82.8745 -1.84054 0.619494 0
M  V30 753 O 82.1495 -1.90726 -0.381317 0
M  V30 754 C 82.4325 -1.78965 3.12479 0
M  V30 755 C 82.2855 -0.924997 4.40186 0
M  V30 756 C 83.6045 -2.76774 3.42175 0
M  V30 757 H 80.7235 -0.343676 0.651963 0
M  V30 758 H 83.3655 -0.218253 1.88742 0
M  V30 759 H 81.5155 -2.41291 3.04485 0
M  V30 760 H 83.1875 -0.318615 4.60198 0
M  V30 761 H 81.4305 -0.230344 4.33188 0
M  V30 762 H 82.1015 -1.54735 5.29869 0
M  V30 763 H 84.5775 -2.24584 3.50287 0
M  V30 764 H 83.4535 -3.32678 4.36597 0
M  V30 765 H 83.7145 -3.54429 2.64258 0
M  V30 766 N 82.7736 -1.49793 -0.48987 0
M  V30 767 C 84.0226 -1.59085 -1.23995 0
M  V30 768 C 84.3356 -0.287907 -1.9347 0
M  V30 769 O 85.5416 -0.259506 -2.70257 0
M  V30 770 C 83.9976 -2.80736 -2.252 0
M  V30 771 C 83.6056 -4.17833 -1.61614 0
M  V30 772 C 85.3496 -2.99364 -3.00967 0
M  V30 773 C 83.2566 -5.30693 -2.60996 0
M  V30 774 H 82.1866 -0.592372 -0.466488 0
M  V30 775 H 84.8376 -1.76197 -0.51252 0
M  V30 776 H 83.2196 -2.57142 -3.01154 0
M  V30 777 H 84.3936 -4.51608 -0.915774 0
M  V30 778 H 82.7086 -4.04656 -0.981977 0
M  V30 779 H 85.3056 -3.80851 -3.75308 0
M  V30 780 H 85.6486 -2.10356 -3.59244 0
M  V30 781 H 86.1816 -3.2305 -2.32128 0
M  V30 782 H 82.9206 -6.21796 -2.07485 0
M  V30 783 H 82.4406 -5.01359 -3.2924 0
M  V30 784 H 84.1196 -5.6049 -3.23202 0
M  V30 785 N 84.2517 0.741722 -1.39055 0
M  V30 786 C 85.4997 1.49818 -1.35643 0
M  V30 787 C 85.8207 1.94938 0.0491642 0
M  V30 788 O 85.0907 1.68505 0.999141 0
M  V30 789 H 83.6707 0.555755 -0.499144 0
M  V30 790 H 86.3327 0.880957 -1.73854 0
M  V30 791 H 85.4287 2.38348 -2.01486 0
M  V30 792 N 85.7298 1.2412 0.971189 0
M  V30 793 C 86.9778 1.07668 1.71032 0
M  V30 794 C 87.2988 -0.385797 1.91146 0
M  V30 795 O 86.5688 -1.27569 1.4867 0
M  V30 796 H 85.1488 0.395429 0.633755 0
M  V30 797 H 87.8108 1.55984 1.16855 0
M  V30 798 H 86.9068 1.57195 2.69622 0
M  V30 799 N 87.2079 -1.17134 1.05439 0
M  V30 800 C 88.4329 -1.91913 0.786396 0
M  V30 801 C 88.8579 -1.7643 -0.652234 0
M  V30 802 O 88.2159 -1.08372 -1.45345 0
M  V30 803 C 88.2639 -3.40921 1.17497 0
M  V30 804 O 87.3679 -4.11244 0.308589 0
M  V30 805 H 86.7089 -0.598215 0.288158 0
M  V30 806 H 89.2389 -1.48457 1.4079 0
M  V30 807 H 89.2489 -3.91668 1.14281 0
M  V30 808 H 87.9239 -3.5151 2.22292 0
M  V30 809 H 86.5009 -3.70731 0.40157 0
M  V30 810 N 88.686 -0.835752 -1.33615 0
M  V30 811 C 89.649 -0.272 -2.2758 0
M  V30 812 C 90.649 0.557487 -1.50827 0
M  V30 813 O 91.839 0.37173 -1.70188 0
M  V30 814 C 88.971 0.617173 -3.35267 0
M  V30 815 H 90.164 -1.10111 -2.78954 0
M  V30 816 H 87.717 -0.608594 -1.43965 0
M  V30 817 H 88.452 1.46884 -2.89129 0
M  V30 818 H 88.237 0.0237066 -3.92093 0
M  V30 819 H 89.727 1.005 -4.05326 0
M  V30 820 N 90.1641 1.46063 -0.591896 0
M  V30 821 C 91.4121 2.01938 -0.0808391 0
M  V30 822 C 91.7331 1.46475 1.28725 0
M  V30 823 O 91.0031 0.652944 1.84698 0
M  V30 824 H 89.5831 0.746516 -0.0268938 0
M  V30 825 H 92.2451 1.79055 -0.769752 0
M  V30 826 H 91.3411 3.12094 -0.0187578 0
M  V30 827 N 91.6422 0.330177 1.54103 0
M  V30 828 C 92.6052 -0.520144 2.2322 0
M  V30 829 C 93.6052 -1.03828 1.22786 0
M  V30 830 O 94.7952 -0.929652 1.4732 0
M  V30 831 C 91.9272 -1.72317 2.94142 0
M  V30 832 H 93.1202 0.0841605 2.99782 0
M  V30 833 H 90.6732 0.0813433 1.56088 0
M  V30 834 H 91.4082 -2.36653 2.21734 0
M  V30 835 H 91.1932 -1.35898 3.67796 0
M  V30 836 H 92.6832 -2.3266 3.46784 0
M  V30 837 N 93.1203 -1.57491 0.0584922 0
M  V30 838 C 94.3453 -1.97711 -0.62652 0
M  V30 839 C 94.7703 -0.936132 -1.63151 0
M  V30 840 O 94.1283 0.099811 -1.81025 0
M  V30 841 C 94.1763 -3.36989 -1.28338 0
M  V30 842 O 93.2803 -3.35433 -2.39913 0
M  V30 843 H 92.6213 -0.643868 -0.162266 0
M  V30 844 H 95.1513 -2.04193 0.129064 0
M  V30 845 H 95.1613 -3.73879 -1.63335 0
M  V30 846 H 93.8363 -4.12289 -0.546889 0
M  V30 847 H 92.4133 -3.10298 -2.06809 0
M  V30 848 N 94.5984 0.214957 -1.56127 0
M  V30 849 C 96.0094 0.781386 -1.69562 0
M  V30 850 C 96.3604 1.84707 -0.66165 0
M  V30 851 O 95.4854 2.156 0.185927 0
M  V30 852 C 96.0804 1.42411 -3.07416 0
M  V30 853 C 94.6394 1.93786 -3.22683 0
M  V30 854 C 93.7864 0.800438 -2.65496 0
M  V30 855 H 96.7374 -0.00980633 -1.58697 0
M  V30 856 H 96.7584 2.29309 -3.0364 0
M  V30 857 H 96.2704 0.64826 -3.82648 0
M  V30 858 H 94.3714 2.74152 -2.52332 0
M  V30 859 H 94.4844 2.1133 -4.29973 0
M  V30 860 H 92.8484 1.2095 -2.2415 0
M  V30 861 H 93.6314 0.0371471 -3.4328 0
M  V30 862 N 96.0765 1.50051 0.48192 0
M  V30 863 C 97.4875 1.5348 1.06305 0
M  V30 864 C 97.8385 0.331997 1.93371 0
M  V30 865 O 96.9635 -0.556256 2.09129 0
M  V30 866 C 97.5585 2.7813 1.93466 0
M  V30 867 C 96.1175 2.84275 2.46707 0
M  V30 868 C 95.2645 2.47637 1.24785 0
M  V30 869 H 98.2155 1.56472 0.264995 0
M  V30 870 H 98.2365 2.59372 2.78399 0
M  V30 871 H 97.7485 3.65654 1.30072 0
M  V30 872 H 95.8495 2.01077 3.13686 0
M  V30 873 H 95.9625 3.8691 2.82555 0
M  V30 874 H 94.3265 1.99835 1.57918 0
M  V30 875 H 95.1095 3.37457 0.630694 0
M  V30 876 N 97.5546 -0.734337 1.39446 0
M  V30 877 C 98.7796 -1.52866 1.40167 0
M  V30 878 C 99.2046 -1.881 -0.00171513 0
M  V30 879 O 98.5626 -1.51957 -0.988879 0
M  V30 880 C 98.6106 -2.79235 2.28167 0
M  V30 881 O 97.7146 -3.75185 1.71201 0
M  V30 882 H 97.0556 -0.461618 0.477289 0
M  V30 883 H 99.5856 -0.905949 1.8345 0
M  V30 884 H 99.5956 -3.27963 2.42702 0
M  V30 885 H 98.2706 -2.52923 3.30156 0
M  V30 886 H 96.8476 -3.33958 1.65912 0
M  V30 887 N 99.0327 -1.24633 -0.964593 0
M  V30 888 C 100.261 -1.11501 -1.74285 0
M  V30 889 C 100.676 0.332165 -1.85855 0
M  V30 890 O 100.033 1.22903 -1.34911 0
M  V30 891 C 100.084 -1.75258 -3.16175 0
M  V30 892 O 99.8047 -3.14318 -3.05182 0
M  V30 893 C 101.306 -1.67776 -4.10324 0
M  V30 894 H 98.5257 -0.389407 -0.546446 0
M  V30 895 H 101.07 -1.64801 -1.21083 0
M  V30 896 H 99.2247 -1.25954 -3.66353 0
M  V30 897 H 99.6387 -3.4551 -3.94618 0
M  V30 898 H 101.113 -2.17064 -5.0753 0
M  V30 899 H 101.59 -0.639584 -4.34518 0
M  V30 900 H 102.196 -2.16522 -3.66058 0
M  V30 901 N 100.511 1.16574 -1.06058 0
M  V30 902 C 101.441 2.23057 -0.690488 0
M  V30 903 C 102.422 1.67141 0.315901 0
M  V30 904 O 103.607 1.93253 0.191556 0
M  V30 905 C 100.737 3.47222 -0.073625 0
M  V30 906 C 99.6908 4.16016 -1.00573 0
M  V30 907 C 99.0168 5.34104 -0.252289 0
M  V30 908 C 100.317 4.67264 -2.33371 0
M  V30 909 H 102.011 2.54271 -1.58072 0
M  V30 910 H 99.5568 1.22218 -0.76149 0
M  V30 911 H 101.51 4.20939 0.19714 0
M  V30 912 H 100.234 3.15302 0.85161 0
M  V30 913 H 98.8928 3.44223 -1.2612 0
M  V30 914 H 98.5408 4.98437 0.675988 0
M  V30 915 H 98.2408 5.81072 -0.873455 0
M  V30 916 H 99.7648 6.10599 0.0109857 0
M  V30 917 H 101.179 5.32573 -2.12223 0
M  V30 918 H 99.5758 5.24843 -2.90963 0
M  V30 919 H 100.646 3.83602 -2.96611 0
M  V30 920 N 101.989 0.842826 1.3317 0
M  V30 921 C 103.217 0.454055 2.01856 0
M  V30 922 C 103.632 -0.94587 1.63397 0
M  V30 923 O 102.989 -1.61534 0.849302 0
M  V30 924 C 103.04 0.569715 3.56982 0
M  V30 925 O 102.761 1.91448 3.94055 0
M  V30 926 C 104.262 0.178412 4.42941 0
M  V30 927 H 101.482 0.17979 0.646465 0
M  V30 928 H 104.026 1.1365 1.70012 0
M  V30 929 H 102.181 -0.0648587 3.87346 0
M  V30 930 H 102.595 1.90282 4.88767 0
M  V30 931 H 104.069 0.310376 5.51127 0
M  V30 932 H 104.546 -0.880056 4.30293 0
M  V30 933 H 105.152 0.787579 4.17944 0
M  V30 934 N 103.467 -1.45747 0.599634 0
M  V30 935 C 104.878 -1.85853 0.177681 0
M  V30 936 C 105.229 -1.50102 -1.26348 0
M  V30 937 O 104.354 -0.923905 -1.95686 0
M  V30 938 C 104.949 -3.37326 0.315688 0
M  V30 939 C 103.508 -3.76365 -0.0515144 0
M  V30 940 C 102.655 -2.69722 0.643822 0
M  V30 941 H 105.606 -1.36661 0.806814 0
M  V30 942 H 105.627 -3.77778 -0.454321 0
M  V30 943 H 105.139 -3.63315 1.36468 0
M  V30 944 H 103.24 -3.55993 -1.09999 0
M  V30 945 H 103.353 -4.77916 0.336594 0
M  V30 946 H 101.717 -2.54567 0.0822881 0
M  V30 947 H 102.5 -2.98549 1.6948 0
M  V30 948 N 104.945 -0.338344 -1.53925 0
M  V30 949 C 106.222 0.314774 -1.93051 0
M  V30 950 C 106.602 1.68669 -1.26941 0
M  V30 951 O 105.95 2.24636 -0.418445 0
M  V30 952 C 106.16 0.392249 -3.46789 0
M  V30 953 C 107.508 0.645554 -4.19664 0
M  V30 954 O 108.532 0.474575 -3.53024 0
M  V30 955 O 107.391 0.976408 -5.37707 0
M  V30 956 H 104.485 0.182598 -0.80659 0
M  V30 957 H 107.031 -0.389141 -1.65178 0
M  V30 958 H 105.803 -0.570702 -3.87116 0
M  V30 959 H 105.426 1.14316 -3.80812 0
M  V30 960 N 106.423 1.57458 -0.0668435 0
M  V30 961 C 107.648 1.9804 0.616027 0
M  V30 962 C 108.073 0.944771 1.62652 0
M  V30 963 O 107.431 -0.0902094 1.81075 0
M  V30 964 C 107.479 3.37665 1.26549 0
M  V30 965 O 106.583 3.36701 2.38131 0
M  V30 966 H 105.924 0.644719 0.158849 0
M  V30 967 H 108.454 2.04121 -0.139891 0
M  V30 968 H 108.464 3.7474 1.6135 0
M  V30 969 H 107.139 4.12573 0.525016 0
M  V30 970 H 105.716 3.1139 2.0516 0
M  V30 971 N 107.901 -0.206675 1.56239 0
M  V30 972 C 109.317 -0.557025 1.49564 0
M  V30 973 C 109.517 -1.86424 0.764735 0
M  V30 974 O 108.573 -2.50584 0.310491 0
M  V30 975 C 109.886 -0.622478 2.94186 0
M  V30 976 C 111.434 -0.712099 3.04792 0
M  V30 977 C 111.909 -0.808767 4.50803 0
M  V30 978 N 113.4 -0.8726 4.54907 0
M  V30 979 C 114.135 -0.967365 5.65181 0
M  V30 980 N 113.631 -1.02515 6.85173 0
M  V30 981 N 115.424 -1.00366 5.53067 0
M  V30 982 H 107.575 0.650943 2.02179 0
M  V30 983 H 109.838 0.230387 0.919579 0
M  V30 984 H 109.544 0.268727 3.50672 0
M  V30 985 H 109.418 -1.4811 3.46905 0
M  V30 986 H 111.805 -1.59374 2.48363 0
M  V30 987 H 111.886 0.172489 2.55218 0
M  V30 988 H 111.53 0.0684754 5.07854 0
M  V30 989 H 111.46 -1.70899 4.98098 0
M  V30 990 H 113.951 -0.837657 3.68499 0
M  V30 991 H 114.264 -1.09765 7.64965 0
M  V30 992 H 112.609 -0.994026 6.87855 0
M  V30 993 H 115.8 -0.95527 4.58249 0
M  V30 994 H 115.973 -1.07405 6.39037 0
M  V30 995 N 109.379 -1.50304 -0.473955 0
M  V30 996 C 110.795 -1.37667 -0.807466 0
M  V30 997 C 110.995 -0.430555 -1.96846 0
M  V30 998 O 110.051 0.127874 -2.52176 0
M  V30 999 C 111.364 -2.78974 -1.12223 0
M  V30 1000 C 112.912 -2.87868 -1.22885 0
M  V30 1001 C 113.387 -4.30003 -1.57676 0
M  V30 1002 N 114.878 -4.3294 -1.64673 0
M  V30 1003 C 115.613 -5.3991 -1.93091 0
M  V30 1004 N 115.109 -6.57092 -2.1955 0
M  V30 1005 N 116.902 -5.27351 -1.94569 0
M  V30 1006 H 109.053 -2.10394 0.291212 0
M  V30 1007 H 111.316 -0.945575 0.0677609 0
M  V30 1008 H 111.022 -3.50031 -0.342229 0
M  V30 1009 H 110.896 -3.16038 -2.05913 0
M  V30 1010 H 113.283 -2.17032 -1.99953 0
M  V30 1011 H 113.364 -2.54352 -0.271814 0
M  V30 1012 H 113.008 -5.01375 -0.81149 0
M  V30 1013 H 112.938 -4.61004 -2.54525 0
M  V30 1014 H 115.429 -3.48441 -1.46277 0
M  V30 1015 H 115.742 -7.34425 -2.405 0
M  V30 1016 H 114.087 -6.60272 -2.16948 0
M  V30 1017 H 117.278 -4.34801 -1.73394 0
M  V30 1018 H 117.451 -6.10805 -2.16381 0
M  V30 1019 N 110.857 0.726932 -1.39834 0
M  V30 1020 C 112.103 1.48884 -1.377 0
M  V30 1021 C 112.436 1.94185 0.0244852 0
M  V30 1022 O 111.711 1.67361 0.990986 0
M  V30 1023 C 111.994 2.72288 -2.3565 0
M  V30 1024 C 111.847 2.32956 -3.84775 0
M  V30 1025 C 113.166 3.74414 -2.31306 0
M  V30 1026 H 110.285 0.540062 -0.5015 0
M  V30 1027 H 112.927 0.830547 -1.70886 0
M  V30 1028 H 111.077 3.28457 -2.07481 0
M  V30 1029 H 112.749 1.82356 -4.23726 0
M  V30 1030 H 110.992 1.65088 -4.01159 0
M  V30 1031 H 111.663 3.21362 -4.4881 0
M  V30 1032 H 114.139 3.27849 -2.56231 0
M  V30 1033 H 113.015 4.58414 -3.01907 0
M  V30 1034 H 113.276 4.21909 -1.32081 0
M  V30 1035 N 112.336 1.25143 0.95797 0
M  V30 1036 C 113.299 1.05321 2.03569 0
M  V30 1037 C 114.299 0.007152 1.60798 0
M  V30 1038 O 115.489 0.24903 1.72411 0
M  V30 1039 C 112.621 0.598394 3.35607 0
M  V30 1040 H 113.814 2.00986 2.22586 0
M  V30 1041 H 111.367 1.07502 1.13459 0
M  V30 1042 H 112.102 -0.361014 3.22284 0
M  V30 1043 H 111.887 1.35351 3.67998 0
M  V30 1044 H 113.377 0.48104 4.1482 0
M  V30 1045 N 113.814 -1.1601 1.06675 0
M  V30 1046 C 115.23 -1.38622 0.790948 0
M  V30 1047 C 115.43 -1.92109 -0.607965 0
M  V30 1048 O 114.486 -2.12239 -1.36787 0
M  V30 1049 C 115.799 -2.36347 1.85905 0
M  V30 1050 C 117.347 -2.50023 1.88301 0
M  V30 1051 C 117.822 -3.51033 2.94176 0
M  V30 1052 N 119.313 -3.58563 2.93235 0
M  V30 1053 C 120.048 -4.36521 3.71803 0
M  V30 1054 N 119.544 -5.17869 4.602 0
M  V30 1055 N 121.337 -4.31541 3.60178 0
M  V30 1056 H 113.488 -0.796294 1.96908 0
M  V30 1057 H 115.751 -0.412597 0.853503 0
M  V30 1058 H 115.457 -2.04147 2.86386 0
M  V30 1059 H 115.331 -3.36042 1.71334 0
M  V30 1060 H 117.718 -2.81524 0.884769 0
M  V30 1061 H 117.799 -1.5035 2.06951 0
M  V30 1062 H 117.443 -3.20268 3.94196 0
M  V30 1063 H 117.373 -4.50445 2.72776 0
M  V30 1064 H 119.864 -3.00496 2.29152 0
M  V30 1065 H 120.177 -5.74578 5.16797 0
M  V30 1066 H 118.522 -5.17199 4.64253 0
M  V30 1067 H 121.713 -3.67051 2.90502 0
M  V30 1068 H 121.886 -4.9205 4.21653 0
M  V30 1069 N 115.292 -0.849877 -1.32721 0
M  V30 1070 C 116.703 -0.506188 -1.79707 0
M  V30 1071 C 117.054 0.975627 -1.70223 0
M  V30 1072 O 116.179 1.76078 -1.25799 0
M  V30 1073 C 116.774 -0.912044 -3.26293 0
M  V30 1074 C 115.333 -0.620326 -3.71253 0
M  V30 1075 C 114.48 -1.11439 -2.53922 0
M  V30 1076 H 117.431 -1.03754 -1.20087 0
M  V30 1077 H 117.452 -0.226493 -3.79825 0
M  V30 1078 H 116.964 -1.99057 -3.33164 0
M  V30 1079 H 115.065 0.447674 -3.69901 0
M  V30 1080 H 115.178 -1.18327 -4.64258 0
M  V30 1081 H 113.542 -0.534834 -2.49021 0
M  V30 1082 H 114.325 -2.19992 -2.6355 0
M  V30 1083 N 116.77 1.45427 -0.607355 0
M  V30 1084 C 118.181 1.85756 -0.187535 0
M  V30 1085 C 118.532 1.5077 1.25551 0
M  V30 1086 O 117.657 0.93427 1.95193 0
M  V30 1087 C 118.252 3.37154 -0.333572 0
M  V30 1088 C 116.811 3.76387 0.0315542 0
M  V30 1089 C 115.958 2.69377 -0.658117 0
M  V30 1090 H 118.909 1.36231 -0.81405 0
M  V30 1091 H 118.93 3.78014 0.43428 0
M  V30 1092 H 118.442 3.62586 -1.38393 0
M  V30 1093 H 116.543 3.56571 1.0811 0
M  V30 1094 H 116.656 4.77731 -0.361935 0
M  V30 1095 H 115.02 2.5452 -0.0957873 0
M  V30 1096 H 115.803 2.97646 -1.7106 0
M  V30 1097 N 118.248 0.346503 1.53744 0
M  V30 1098 C 119.659 -0.136779 1.86198 0
M  V30 1099 C 120.01 -1.49749 1.26766 0
M  V30 1100 O 119.135 -2.08417 0.582355 0
M  V30 1101 C 119.73 -0.254966 3.37839 0
M  V30 1102 C 118.289 -0.682482 3.70161 0
M  V30 1103 C 117.436 0.181981 2.76702 0
M  V30 1104 H 120.387 0.565994 1.48264 0
M  V30 1105 H 120.408 -1.08195 3.64793 0
M  V30 1106 H 119.92 0.735526 3.81066 0
M  V30 1107 H 118.021 -1.68189 3.3248 0
M  V30 1108 H 118.134 -0.470326 4.76786 0
M  V30 1109 H 116.498 -0.34615 2.52337 0
M  V30 1110 H 117.281 1.16966 3.2276 0
M  V30 1111 N 119.726 -1.57421 0.075193 0
M  V30 1112 C 120.975 -1.92794 -0.592731 0
M  V30 1113 C 121.288 -0.957478 -1.70563 0
M  V30 1114 O 122.494 -1.20417 -2.43335 0
M  V30 1115 C 120.95 -3.42495 -1.10569 0
M  V30 1116 C 120.558 -4.47994 -0.0236121 0
M  V30 1117 C 122.302 -3.86864 -1.74748 0
M  V30 1118 C 120.209 -5.88829 -0.550803 0
M  V30 1119 H 119.139 -0.719591 -0.225177 0
M  V30 1120 H 121.79 -1.82902 0.147978 0
M  V30 1121 H 120.172 -3.47471 -1.89947 0
M  V30 1122 H 121.346 -4.54637 0.751099 0
M  V30 1123 H 119.661 -4.13113 0.522159 0
M  V30 1124 H 122.258 -4.8947 -2.15229 0
M  V30 1125 H 122.601 -3.24417 -2.60882 0
M  V30 1126 H 123.134 -3.84504 -1.01986 0
M  V30 1127 H 119.873 -6.54929 0.273457 0
M  V30 1128 H 119.393 -5.85698 -1.29296 0
M  V30 1129 H 121.072 -6.38811 -1.02613 0
M  V30 1130 N 121.204 0.198386 -1.56346 0
M  V30 1131 C 122.452 0.91747 -1.80075 0
M  V30 1132 C 122.773 1.83929 -0.647692 0
M  V30 1133 O 122.043 1.93029 0.334166 0
M  V30 1134 H 120.623 0.341774 -0.664228 0
M  V30 1135 H 123.285 0.204684 -1.93822 0
M  V30 1136 H 122.381 1.51055 -2.7311 0
M  V30 1137 N 122.682 1.50554 0.465978 0
M  V30 1138 C 123.645 1.69233 1.54574 0
M  V30 1139 C 124.645 0.562901 1.50626 0
M  V30 1140 O 125.835 0.830016 1.53155 0
M  V30 1141 C 122.967 1.7223 2.94193 0
M  V30 1142 H 124.16 2.65571 1.39327 0
M  V30 1143 H 121.713 1.40111 0.692711 0
M  V30 1144 H 122.448 0.77603 3.14878 0
M  V30 1145 H 122.233 2.54285 2.98466 0
M  V30 1146 H 123.723 1.88618 3.72576 0
M  V30 1147 N 124.16 -0.719506 1.40217 0
M  V30 1148 C 125.07 -1.86378 1.42479 0
M  V30 1149 C 126.086 -1.71073 0.317834 0
M  V30 1150 O 127.262 -1.93406 0.561794 0
M  V30 1151 C 124.327 -3.22136 1.28178 0
M  V30 1152 C 123.388 -3.49723 2.48982 0
M  V30 1153 C 122.621 -4.79004 2.35353 0
M  V30 1154 O 122.844 -5.53821 1.36524 0
M  V30 1155 O 121.778 -5.06839 3.2465 0
M  V30 1156 H 125.604 -1.87425 2.38968 0
M  V30 1157 H 123.189 -0.869405 1.21498 0
M  V30 1158 H 125.071 -4.03234 1.22395 0
M  V30 1159 H 123.746 -3.21825 0.347934 0
M  V30 1160 H 122.653 -2.6865 2.60342 0
M  V30 1161 H 123.986 -3.54828 3.41113 0
M  V30 1162 N 125.638 -1.25649 -0.95132 0
M  V30 1163 C 126.884 -1.10757 -1.69884 0
M  V30 1164 C 127.217 0.350061 -1.91019 0
M  V30 1165 O 126.492 1.25783 -1.48354 0
M  V30 1166 C 126.775 -1.86606 -3.07978 0
M  V30 1167 C 126.628 -3.40217 -2.94232 0
M  V30 1168 C 127.947 -1.65182 -4.07925 0
M  V30 1169 H 125.066 -0.40374 -0.616574 0
M  V30 1170 H 127.708 -1.54521 -1.10558 0
M  V30 1171 H 125.858 -1.49409 -3.58621 0
M  V30 1172 H 127.53 -3.87108 -2.50889 0
M  V30 1173 H 125.773 -3.67759 -2.30078 0
M  V30 1174 H 126.444 -3.88505 -3.92133 0
M  V30 1175 H 128.92 -1.9757 -3.66204 0
M  V30 1176 H 127.796 -2.20683 -5.02583 0
M  V30 1177 H 128.057 -0.593933 -4.38092 0
M  V30 1178 N 127.117 1.15442 -1.07289 0
M  V30 1179 C 128.528 1.67803 -0.818475 0
M  V30 1180 C 128.879 1.8489 0.656507 0
M  V30 1181 O 128.004 1.55176 1.50829 0
M  V30 1182 C 128.599 3.04805 -1.47917 0
M  V30 1183 C 127.158 3.54245 -1.27229 0
M  V30 1184 C 126.305 2.29986 -1.54925 0
M  V30 1185 H 129.256 0.996646 -1.23502 0
M  V30 1186 H 129.277 3.69702 -0.90005 0
M  V30 1187 H 128.789 2.92336 -2.55267 0
M  V30 1188 H 126.89 3.71956 -0.21899 0
M  V30 1189 H 127.003 4.35723 -1.99203 0
M  V30 1190 H 125.367 2.35496 -0.970242 0
M  V30 1191 H 126.15 2.20105 -2.63455 0
M  V30 1192 N 128.595 0.856903 1.32268 0
M  V30 1193 C 129.872 0.382583 1.91822 0
M  V30 1194 C 130.252 -1.13407 1.78051 0
M  V30 1195 O 129.6 -1.95673 1.18001 0
M  V30 1196 C 129.81 0.849446 3.38505 0
M  V30 1197 C 131.158 0.867936 4.15634 0
M  V30 1198 O 132.182 0.794232 3.47232 0
M  V30 1199 O 131.041 0.972286 5.37781 0
M  V30 1200 H 128.135 0.112014 0.819379 0
M  V30 1201 H 130.681 0.943952 1.41024 0
M  V30 1202 H 129.453 1.89267 3.42482 0
M  V30 1203 H 129.076 0.265652 3.96712 0
M  V30 1204 N 130.073 -1.45103 0.615059 0
M  V30 1205 C 131.319 -2.02483 0.113347 0
M  V30 1206 C 131.652 -1.48146 -1.25564 0
M  V30 1207 O 130.927 -0.659104 -1.82992 0
M  V30 1208 C 131.21 -3.60005 0.0825278 0
M  V30 1209 C 131.063 -4.2466 1.48271 0
M  V30 1210 C 132.382 -4.35972 -0.601401 0
M  V30 1211 H 129.501 -0.735764 0.0426632 0
M  V30 1212 H 132.143 -1.72868 0.788461 0
M  V30 1213 H 130.293 -3.85367 -0.492378 0
M  V30 1214 H 131.965 -4.10458 2.10527 0
M  V30 1215 H 130.208 -3.82772 2.04127 0
M  V30 1216 H 130.879 -5.336 1.41332 0
M  V30 1217 H 133.355 -4.15947 -0.112666 0
M  V30 1218 H 132.231 -5.45697 -0.592097 0
M  V30 1219 H 132.492 -4.09391 -1.66887 0
M  V30 1220 N 131.551 -0.354651 -1.53558 0
M  V30 1221 C 132.779 0.239515 -2.05509 0
M  V30 1222 C 133.194 1.4333 -1.2289 0
M  V30 1223 O 132.551 1.80538 -0.266899 0
M  V30 1224 C 132.602 0.643719 -3.55723 0
M  V30 1225 O 132.323 -0.502602 -4.35207 0
M  V30 1226 C 133.824 1.29743 -4.23889 0
M  V30 1227 H 131.044 0.0442697 -0.669538 0
M  V30 1228 H 133.588 -0.509856 -1.98042 0
M  V30 1229 H 131.743 1.34302 -3.63376 0
M  V30 1230 H 132.157 -0.178172 -5.24197 0
M  V30 1231 H 133.631 1.53091 -5.30346 0
M  V30 1232 H 134.108 2.25441 -3.76926 0
M  V30 1233 H 134.714 0.639865 -4.20459 0
M  V30 1234 N 133.029 1.57378 -0.0835403 0
M  V30 1235 C 133.992 2.12252 0.864959 0
M  V30 1236 C 134.992 1.04916 1.21858 0
M  V30 1237 O 136.182 1.30853 1.14991 0
M  V30 1238 C 133.314 2.63358 2.16461 0
M  V30 1239 H 134.507 2.97371 0.388676 0
M  V30 1240 H 132.06 1.55423 0.165317 0
M  V30 1241 H 132.795 1.81727 2.686 0
M  V30 1242 H 132.58 3.41826 1.92087 0
M  V30 1243 H 134.07 3.05847 2.84337 0
M  V30 1244 N 134.507 -0.190092 1.56449 0
M  V30 1245 C 135.735 -0.925772 1.85033 0
M  V30 1246 C 136.15 -1.76638 0.666658 0
M  V30 1247 O 135.507 -1.78822 -0.364565 0
M  V30 1248 C 135.558 -1.81786 3.12468 0
M  V30 1249 O 135.279 -1.01118 4.26271 0
M  V30 1250 C 136.78 -2.6648 3.54265 0
M  V30 1251 H 134 -0.269872 0.614337 0
M  V30 1252 H 136.544 -0.195837 2.0356 0
M  V30 1253 H 134.699 -2.50136 2.95822 0
M  V30 1254 H 135.113 -1.61956 4.98869 0
M  V30 1255 H 136.587 -3.24722 4.46385 0
M  V30 1256 H 137.064 -3.40434 2.77491 0
M  V30 1257 H 137.67 -2.03493 3.73458 0
M  V30 1258 N 135.985 -1.50799 -0.457987 0
M  V30 1259 C 137.396 -1.55152 -1.0385 0
M  V30 1260 C 137.747 -0.362719 -1.92818 0
M  V30 1261 O 136.872 0.522915 -2.09987 0
M  V30 1262 C 137.467 -2.81173 -1.89017 0
M  V30 1263 C 136.026 -2.88164 -2.42154 0
M  V30 1264 C 135.173 -2.49591 -1.20829 0
M  V30 1265 H 138.124 -1.56874 -0.240068 0
M  V30 1266 H 138.145 -2.63769 -2.74238 0
M  V30 1267 H 137.657 -3.67677 -1.24238 0
M  V30 1268 H 135.758 -2.06042 -3.10447 0
M  V30 1269 H 135.871 -3.91356 -2.76364 0
M  V30 1270 H 134.235 -2.02322 -1.54719 0
M  V30 1271 H 135.018 -3.38418 -0.576927 0
M  V30 1272 N 137.463 0.71206 -1.40597 0
M  V30 1273 C 138.426 1.80785 -1.40888 0
M  V30 1274 C 139.426 1.57937 -0.302103 0
M  V30 1275 O 140.616 1.64913 -0.561182 0
M  V30 1276 C 137.748 3.18927 -1.20409 0
M  V30 1277 H 138.941 1.81924 -2.38419 0
M  V30 1278 H 136.494 0.91805 -1.26497 0
M  V30 1279 H 137.229 3.23436 -0.236522 0
M  V30 1280 H 137.014 3.36911 -2.00582 0
M  V30 1281 H 138.504 3.98949 -1.23408 0
M  V30 1282 N 138.941 1.26152 0.944643 0
M  V30 1283 C 140.357 1.03189 1.21754 0
M  V30 1284 C 140.557 -0.245112 2.00004 0
M  V30 1285 O 139.613 -0.955176 2.33736 0
M  V30 1286 C 140.926 2.26119 1.98219 0
M  V30 1287 C 142.474 2.30984 2.11224 0
M  V30 1288 C 142.949 3.53597 2.91089 0
M  V30 1289 N 144.44 3.54053 2.98664 0
M  V30 1290 C 145.175 4.45593 3.60881 0
M  V30 1291 N 144.671 5.47416 4.24626 0
M  V30 1292 N 146.464 4.33252 3.58119 0
M  V30 1293 H 138.615 2.08177 0.421437 0
M  V30 1294 H 140.878 0.914723 0.248969 0
M  V30 1295 H 140.584 3.18984 1.48128 0
M  V30 1296 H 140.458 2.3009 2.98895 0
M  V30 1297 H 142.845 1.38635 2.60508 0
M  V30 1298 H 142.926 2.31026 1.09821 0
M  V30 1299 H 142.57 4.46273 2.42493 0
M  V30 1300 H 142.5 3.50802 3.92741 0
M  V30 1301 H 144.991 2.80403 2.53343 0
M  V30 1302 H 145.304 6.13459 4.69987 0
M  V30 1303 H 143.649 5.51278 4.23223 0
M  V30 1304 H 146.84 3.52924 3.0751 0
M  V30 1305 H 147.013 5.04786 4.06319 0
M  V30 1306 N 140.419 -1.14872 1.07899 0
M  V30 1307 C 141.349 -2.2193 0.725887 0
M  V30 1308 C 142.33 -1.67622 -0.28927 0
M  V30 1309 O 143.515 -1.93533 -0.160787 0
M  V30 1310 C 140.645 -3.47061 0.128856 0
M  V30 1311 C 139.599 -4.14363 1.07178 0
M  V30 1312 C 138.925 -5.33636 0.337229 0
M  V30 1313 C 140.225 -4.63492 2.40775 0
M  V30 1314 H 141.919 -2.51724 1.62097 0
M  V30 1315 H 139.465 -1.20991 0.780838 0
M  V30 1316 H 141.418 -4.21199 -0.130147 0
M  V30 1317 H 140.142 -3.16617 -0.80134 0
M  V30 1318 H 138.801 -3.42173 1.3158 0
M  V30 1319 H 138.449 -4.99449 -0.596606 0
M  V30 1320 H 138.149 -5.79609 0.965788 0
M  V30 1321 H 139.673 -6.10539 0.0861567 0
M  V30 1322 H 141.087 -5.2913 2.20669 0
M  V30 1323 H 139.484 -5.20148 2.99276 0
M  V30 1324 H 140.554 -3.78834 3.02676 0
M  V30 1325 N 141.898 -0.863906 -1.31812 0
M  V30 1326 C 142.828 -0.330843 -2.31144 0
M  V30 1327 C 143.809 0.575005 -1.60087 0
M  V30 1328 O 144.994 0.493304 -1.8783 0
M  V30 1329 C 142.124 0.47374 -3.44054 0
M  V30 1330 C 141.078 -0.338481 -4.26659 0
M  V30 1331 C 140.404 0.591412 -5.31419 0
M  V30 1332 C 141.704 -1.56926 -4.98168 0
M  V30 1333 H 143.398 -1.16086 -2.75979 0
M  V30 1334 H 140.944 -0.559657 -1.32679 0
M  V30 1335 H 142.897 0.857143 -4.12591 0
M  V30 1336 H 141.621 1.33721 -2.9797 0
M  V30 1337 H 140.28 -0.703754 -3.59782 0
M  V30 1338 H 139.928 1.45199 -4.81587 0
M  V30 1339 H 139.628 0.0519022 -5.87577 0
M  V30 1340 H 141.152 0.97179 -6.02817 0
M  V30 1341 H 142.566 -1.25764 -5.59336 0
M  V30 1342 H 140.963 -2.04739 -5.64094 0
M  V30 1343 H 142.033 -2.32544 -4.25501 0
M  V30 1344 N 143.376 1.44774 -0.622745 0
M  V30 1345 C 144.623 2.02121 -0.1239 0
M  V30 1346 C 144.951 1.48915 1.25118 0
M  V30 1347 O 144.206 0.660045 1.84233 0
M  V30 1348 C 144.505 3.57364 -0.0508323 0
M  V30 1349 C 144.171 4.29787 -1.36358 0
M  V30 1350 C 142.833 4.4929 -1.72314 0
M  V30 1351 C 145.185 4.71062 -2.23048 0
M  V30 1352 C 142.513 5.07325 -2.94682 0
M  V30 1353 C 144.865 5.30452 -3.44679 0
M  V30 1354 C 143.529 5.48175 -3.80868 0
M  V30 1355 H 142.799 0.739612 -0.0453381 0
M  V30 1356 H 145.446 1.73648 -0.807389 0
M  V30 1357 H 143.751 3.85202 0.715991 0
M  V30 1358 H 145.448 3.99456 0.351533 0
M  V30 1359 H 142.038 4.14932 -1.07375 0
M  V30 1360 H 146.222 4.55715 -1.96565 0
M  V30 1361 H 141.478 5.19235 -3.22809 0
M  V30 1362 H 145.652 5.61385 -4.12092 0
M  V30 1363 H 143.279 5.92912 -4.75773 0
M  V30 1364 N 144.854 0.36279 1.53368 0
M  V30 1365 C 146.101 -0.227776 2.01215 0
M  V30 1366 C 146.429 -1.49003 1.25014 0
M  V30 1367 O 145.684 -1.92876 0.331236 0
M  V30 1368 C 145.983 -0.568417 3.52851 0
M  V30 1369 C 145.649 0.59918 4.46901 0
M  V30 1370 C 144.311 0.919559 4.72332 0
M  V30 1371 C 146.663 1.38156 5.02556 0
M  V30 1372 C 143.991 2.02434 5.5067 0
M  V30 1373 C 146.343 2.47674 5.821 0
M  V30 1374 C 145.007 2.8025 6.05819 0
M  V30 1375 H 144.277 -0.083349 0.736297 0
M  V30 1376 H 146.924 0.494677 1.85001 0
M  V30 1377 H 145.229 -1.37185 3.66998 0
M  V30 1378 H 146.926 -1.03756 3.87344 0
M  V30 1379 H 143.516 0.339437 4.27254 0
M  V30 1380 H 147.7 1.14729 4.82857 0
M  V30 1381 H 142.956 2.28075 5.67267 0
M  V30 1382 H 147.13 3.08716 6.24234 0
M  V30 1383 H 144.757 3.65979 6.66306 0
M  V30 1384 N 146.332 -1.57332 0.0918853 0
M  V30 1385 C 147.295 -2.12708 -0.85369 0
M  V30 1386 C 148.295 -1.05561 -1.213 0
M  V30 1387 O 149.485 -1.31461 -1.14296 0
M  V30 1388 C 146.617 -2.64503 -2.15061 0
M  V30 1389 H 147.81 -2.97573 -0.3729 0
M  V30 1390 H 145.363 -1.55509 -0.157072 0
M  V30 1391 H 146.098 -1.83149 -2.67632 0
M  V30 1392 H 145.883 -3.4284 -1.90272 0
M  V30 1393 H 147.373 -3.07351 -2.82711 0
M  V30 1394 N 147.81 0.181792 -1.56548 0
M  V30 1395 C 149.221 0.745244 -1.71181 0
M  V30 1396 C 149.572 1.83262 -0.70068 0
M  V30 1397 O 148.697 2.15946 0.140154 0
M  V30 1398 C 149.292 1.35859 -3.10367 0
M  V30 1399 C 147.851 1.86898 -3.2672 0
M  V30 1400 C 146.998 0.743942 -2.67134 0
M  V30 1401 H 149.949 -0.0434661 -1.5864 0
M  V30 1402 H 149.97 2.22817 -3.08436 0
M  V30 1403 H 149.482 0.566948 -3.83937 0
M  V30 1404 H 147.583 2.68738 -2.5809 0
M  V30 1405 H 147.696 2.02162 -4.34359 0
M  V30 1406 H 146.06 1.16169 -2.26665 0
M  V30 1407 H 146.843 -0.035676 -3.43281 0
M  V30 1408 N 149.288 1.51039 0.449983 0
M  V30 1409 C 150.516 1.66869 1.2232 0
M  V30 1410 C 150.931 0.360727 1.85322 0
M  V30 1411 O 150.288 -0.659531 1.70166 0
M  V30 1412 C 150.339 2.77524 2.31652 0
M  V30 1413 O 150.06 4.03252 1.7123 0
M  V30 1414 C 151.561 3.04512 3.2216 0
M  V30 1415 H 148.781 0.560326 0.369155 0
M  V30 1416 H 151.325 1.97385 0.534719 0
M  V30 1417 H 149.48 2.49642 2.96239 0
M  V30 1418 H 149.894 4.64609 2.43389 0
M  V30 1419 H 151.368 3.85551 3.95038 0
M  V30 1420 H 151.845 2.16415 3.8218 0
M  V30 1421 H 152.451 3.34005 2.63288 0
M  V30 1422 N 150.766 -0.704594 1.40972 0
M  V30 1423 C 152.182 -1.01406 1.23244 0
M  V30 1424 C 152.382 -2.01169 0.115399 0
M  V30 1425 O 151.438 -2.47021 -0.523147 0
M  V30 1426 C 152.751 -1.54728 2.57836 0
M  V30 1427 C 154.299 -1.66658 2.64942 0
M  V30 1428 C 154.774 -2.23383 3.9983 0
M  V30 1429 N 156.265 -2.30756 4.01629 0
M  V30 1430 C 157 -2.75655 5.02794 0
M  V30 1431 N 156.496 -3.20225 6.14352 0
M  V30 1432 N 158.289 -2.75138 4.90159 0
M  V30 1433 H 150.44 -0.0435285 2.12355 0
M  V30 1434 H 152.703 -0.0818951 0.944456 0
M  V30 1435 H 152.409 -0.888832 3.40283 0
M  V30 1436 H 152.283 -2.53084 2.79693 0
M  V30 1437 H 154.67 -2.31617 1.8286 0
M  V30 1438 H 154.751 -0.668717 2.46904 0
M  V30 1439 H 154.395 -1.59043 4.82357 0
M  V30 1440 H 154.325 -3.23904 4.15203 0
M  V30 1441 H 156.816 -1.99291 3.21079 0
M  V30 1442 H 157.129 -3.53084 6.87424 0
M  V30 1443 H 155.474 -3.18156 6.17901 0
M  V30 1444 H 158.665 -2.39661 4.02095 0
M  V30 1445 H 158.838 -3.09812 5.6914 0
M  V30 1446 N 152.244 -1.26651 -0.937939 0
M  V30 1447 C 153.66 -1.03834 -1.21205 0
M  V30 1448 C 153.86 0.234502 -2.00131 0
M  V30 1449 O 152.916 0.942767 -2.3424 0
M  V30 1450 C 154.229 -2.27167 -1.97017 0
M  V30 1451 C 155.777 -2.32101 -2.09996 0
M  V30 1452 C 156.252 -3.55136 -2.8921 0
M  V30 1453 N 157.743 -3.55632 -2.96783 0
M  V30 1454 C 158.478 -4.475 -3.58512 0
M  V30 1455 N 157.974 -5.4966 -4.21717 0
M  V30 1456 N 159.767 -4.35145 -3.55816 0
M  V30 1457 H 151.918 -2.08398 -0.410391 0
M  V30 1458 H 154.181 -0.916031 -0.244114 0
M  V30 1459 H 153.887 -3.19765 -1.46434 0
M  V30 1460 H 153.761 -2.31672 -2.97671 0
M  V30 1461 H 156.148 -1.40015 -2.59769 0
M  V30 1462 H 156.229 -2.31605 -1.08594 0
M  V30 1463 H 155.873 -4.47553 -2.40123 0
M  V30 1464 H 155.803 -3.5288 -3.90875 0
M  V30 1465 H 158.294 -2.81743 -2.51852 0
M  V30 1466 H 158.607 -6.15943 -4.66727 0
M  V30 1467 H 156.952 -5.53514 -4.20294 0
M  V30 1468 H 160.143 -3.5455 -3.05634 0
M  V30 1469 H 160.316 -5.06934 -4.03636 0
M  V30 1470 N 153.722 1.14298 -1.08507 0
M  V30 1471 C 154.685 2.17607 -0.719711 0
M  V30 1472 C 155.685 1.58907 0.245997 0
M  V30 1473 O 156.875 1.74181 0.0254081 0
M  V30 1474 C 154.007 3.40842 -0.0627695 0
M  V30 1475 H 155.2 2.51443 -1.63452 0
M  V30 1476 H 152.753 1.28963 -0.88307 0
M  V30 1477 H 153.488 3.12587 0.863716 0
M  V30 1478 H 153.273 3.84713 -0.757504 0
M  V30 1479 H 154.763 4.17221 0.177786 0
M  V30 1480 N 155.201 0.870884 1.31352 0
M  V30 1481 C 156.164 0.332243 2.26779 0
M  V30 1482 C 157.164 -0.517302 1.52252 0
M  V30 1483 O 158.354 -0.326477 1.71113 0
M  V30 1484 C 155.486 -0.528066 3.36785 0
M  V30 1485 H 156.679 1.17469 2.75937 0
M  V30 1486 H 154.232 0.64655 1.423 0
M  V30 1487 H 154.967 -1.39167 2.92922 0
M  V30 1488 H 154.752 0.0802582 3.92018 0
M  V30 1489 H 156.242 -0.897179 4.07849 0
M  V30 1490 N 156.679 -1.44442 0.630414 0
M  V30 1491 C 158.09 -1.85434 0.217063 0
M  V30 1492 C 158.441 -1.52748 -1.23136 0
M  V30 1493 O 157.566 -0.965205 -1.93682 0
M  V30 1494 C 158.161 -3.36581 0.387168 0
M  V30 1495 C 156.72 -3.76389 0.0283297 0
M  V30 1496 C 155.867 -2.68296 0.700889 0
M  V30 1497 H 158.818 -1.34919 0.83562 0
M  V30 1498 H 158.839 -3.78657 -0.374086 0
M  V30 1499 H 158.351 -3.60339 1.44144 0
M  V30 1500 H 156.452 -3.58246 -1.02423 0
M  V30 1501 H 156.565 -4.77095 0.437892 0
M  V30 1502 H 154.929 -2.54335 0.136267 0
M  V30 1503 H 155.712 -2.94887 1.75774 0
M  V30 1504 N 158.157 -0.370918 -1.53173 0
M  V30 1505 C 159.087 0.464847 -2.28826 0
M  V30 1506 C 160.068 1.07936 -1.31468 0
M  V30 1507 O 161.253 1.0956 -1.60344 0
M  V30 1508 C 158.383 1.60196 -3.08147 0
M  V30 1509 C 157.337 1.11443 -4.13237 0
M  V30 1510 C 156.663 2.3422 -4.80672 0
M  V30 1511 C 157.963 0.195384 -5.21934 0
M  V30 1512 H 159.657 -0.166329 -2.98938 0
M  V30 1513 H 157.203 -0.0814359 -1.4377 0
M  V30 1514 H 159.156 2.19332 -3.59822 0
M  V30 1515 H 157.88 2.26045 -2.35735 0
M  V30 1516 H 156.539 0.545727 -3.62515 0
M  V30 1517 H 156.187 2.98537 -4.04827 0
M  V30 1518 H 155.887 2.02269 -5.51689 0
M  V30 1519 H 157.411 2.94032 -5.35143 0
M  V30 1520 H 158.825 0.694375 -5.69079 0
M  V30 1521 H 157.222 -0.0335027 -6.00091 0
M  V30 1522 H 158.292 -0.760961 -4.78892 0
M  V30 1523 N 159.635 1.57281 -0.100228 0
M  V30 1524 C 160.545 2.17833 0.870965 0
M  V30 1525 C 161.561 1.14921 1.30649 0
M  V30 1526 O 162.737 1.47313 1.37335 0
M  V30 1527 C 159.802 2.75085 2.1102 0
M  V30 1528 C 158.863 3.9297 1.72838 0
M  V30 1529 C 158.096 4.47482 2.90854 0
M  V30 1530 O 158.319 4.00922 4.05731 0
M  V30 1531 O 157.253 5.38433 2.69023 0
M  V30 1532 H 161.079 3.0124 0.38575 0
M  V30 1533 H 158.664 1.48881 0.124397 0
M  V30 1534 H 160.546 3.11656 2.83634 0
M  V30 1535 H 159.221 1.94721 2.58584 0
M  V30 1536 H 158.128 3.61201 0.973883 0
M  V30 1537 H 159.461 4.74713 1.30033 0
M  V30 1538 N 161.113 -0.173488 1.56642 0
M  V30 1539 C 162.023 -1.23482 1.99473 0
M  V30 1540 C 163.039 -1.48567 0.905752 0
M  V30 1541 O 164.215 -1.60758 1.21321 0
M  V30 1542 C 161.28 -2.55444 2.34413 0
M  V30 1543 C 160.341 -2.38241 3.57127 0
M  V30 1544 C 159.574 -3.63909 3.90392 0
M  V30 1545 O 159.797 -4.68996 3.24653 0
M  V30 1546 O 158.731 -3.58149 4.83749 0
M  V30 1547 H 162.557 -0.901279 2.90018 0
M  V30 1548 H 160.142 -0.380185 1.44482 0
M  V30 1549 H 162.024 -3.33292 2.57865 0
M  V30 1550 H 160.699 -2.88382 1.4703 0
M  V30 1551 H 159.606 -1.58431 3.38896 0
M  V30 1552 H 160.939 -2.10228 4.45045 0
M  V30 1553 N 162.591 -1.51276 -0.441967 0
M  V30 1554 C 163.524 -1.66933 -1.55591 0
M  V30 1555 C 164.502 -0.516958 -1.54163 0
M  V30 1556 O 165.686 -0.740209 -1.73358 0
M  V30 1557 C 162.813 -1.67866 -2.94174 0
M  V30 1558 C 161.859 -2.89013 -3.13646 0
M  V30 1559 S 162.692 -4.49897 -2.90436 0
M  V30 1560 C 163.848 -4.53568 -4.31308 0
M  V30 1561 H 164.081 -2.61155 -1.42076 0
M  V30 1562 H 161.614 -1.40902 -0.631341 0
M  V30 1563 H 163.572 -1.69089 -3.74058 0
M  V30 1564 H 162.233 -0.748296 -3.05056 0
M  V30 1565 H 161.426 -2.86054 -4.14957 0
M  V30 1566 H 161.028 -2.85509 -2.4158 0
M  V30 1567 H 163.32 -4.28924 -5.24434 0
M  V30 1568 H 164.263 -5.55355 -4.39303 0
M  V30 1569 H 164.671 -3.82943 -4.14747 0
M  V30 1570 N 164.069 0.697108 -1.41344 0
M  V30 1571 C 164.979 1.84088 -1.45427 0
M  V30 1572 C 165.995 1.70545 -0.34501 0
M  V30 1573 O 167.171 1.92488 -0.592492 0
M  V30 1574 C 164.236 3.20056 -1.33286 0
M  V30 1575 C 163.297 3.45718 -2.54514 0
M  V30 1576 C 162.53 4.75199 -2.42944 0
M  V30 1577 O 162.753 5.51579 -1.45318 0
M  V30 1578 O 161.687 5.0161 -3.32672 0
M  V30 1579 H 165.513 1.836 -2.41919 0
M  V30 1580 H 163.098 0.849966 -1.22866 0
M  V30 1581 H 164.98 4.01236 -1.28794 0
M  V30 1582 H 163.655 3.2123 -0.39909 0
M  V30 1583 H 162.562 2.64474 -2.64583 0
M  V30 1584 H 163.895 3.49356 -3.46715 0
M  V30 1585 N 165.547 1.27147 0.931209 0
M  V30 1586 C 166.51 1.09615 2.01289 0
M  V30 1587 C 167.51 0.0412581 1.60747 0
M  V30 1588 O 168.7 0.285545 1.71844 0
M  V30 1589 C 165.832 0.669447 3.34262 0
M  V30 1590 H 167.025 2.05662 2.18273 0
M  V30 1591 H 164.578 1.09885 1.11153 0
M  V30 1592 H 165.313 -0.292572 3.22978 0
M  V30 1593 H 165.098 1.43127 3.65044 0
M  V30 1594 H 166.588 0.568921 4.13706 0
M  V30 1595 N 167.025 -1.13721 1.09112 0
M  V30 1596 C 168.436 -1.6648 0.845068 0
M  V30 1597 C 168.787 -1.85911 -0.62701 0
M  V30 1598 O 167.912 -1.57556 -1.48341 0
M  V30 1599 C 168.507 -3.02413 1.52748 0
M  V30 1600 C 167.066 -3.52176 1.32849 0
M  V30 1601 C 166.213 -2.27492 1.58564 0
M  V30 1602 H 169.164 -0.976872 1.25072 0
M  V30 1603 H 169.185 -3.68223 0.958752 0
M  V30 1604 H 168.697 -2.88238 2.59885 0
M  V30 1605 H 166.798 -3.7156 0.278137 0
M  V30 1606 H 166.911 -4.32499 2.0611 0
M  V30 1607 H 165.275 -2.33923 1.00758 0
M  V30 1608 H 166.058 -2.15886 2.66924 0
M  V30 1609 N 168.503 -0.877838 -1.30888 0
M  V30 1610 C 169.466 -0.344265 -2.266 0
M  V30 1611 C 170.466 0.50922 -1.52524 0
M  V30 1612 O 171.656 0.317398 -1.71284 0
M  V30 1613 C 168.788 0.510198 -3.37061 0
M  V30 1614 H 169.981 -1.1893 -2.7531 0
M  V30 1615 H 167.534 -0.654088 -1.41956 0
M  V30 1616 H 168.269 1.37612 -2.93655 0
M  V30 1617 H 168.054 -0.101047 -3.9197 0
M  V30 1618 H 169.544 0.875537 -4.08319 0
M  V30 1619 N 169.982 1.44106 -0.638065 0
M  V30 1620 C 170.945 2.29138 0.0531013 0
M  V30 1621 C 171.945 1.41409 0.765506 0
M  V30 1622 O 173.135 1.63206 0.609046 0
M  V30 1623 C 170.267 3.23144 1.08584 0
M  V30 1624 H 171.46 2.91739 -0.694883 0
M  V30 1625 H 169.013 1.51134 -0.398538 0
M  V30 1626 H 169.748 2.65408 1.86357 0
M  V30 1627 H 169.533 3.87804 0.578852 0
M  V30 1628 H 171.023 3.87004 1.56899 0
M  V30 1629 N 171.46 0.379036 1.52974 0
M  V30 1630 C 172.737 -0.263479 1.93817 0
M  V30 1631 C 173.117 -1.65244 1.31368 0
M  V30 1632 O 172.465 -2.23448 0.477856 0
M  V30 1633 C 172.675 -0.300166 3.47707 0
M  V30 1634 C 174.023 -0.534061 4.21228 0
M  V30 1635 O 175.047 -0.38081 3.54159 0
M  V30 1636 O 173.906 -0.833501 5.40106 0
M  V30 1637 H 171 -0.161149 0.811147 0
M  V30 1638 H 173.546 0.432798 1.64088 0
M  V30 1639 H 172.318 0.673138 3.85467 0
M  V30 1640 H 171.941 -1.04179 3.83709 0
M  V30 1641 N 172.938 -1.57226 0.108567 0
M  V30 1642 C 173.901 -2.13602 -0.831082 0
M  V30 1643 C 174.901 -1.06841 -1.20173 0
M  V30 1644 O 176.091 -1.32666 -1.12895 0
M  V30 1645 C 173.223 -2.66769 -2.12243 0
M  V30 1646 H 174.416 -2.97951 -0.341317 0
M  V30 1647 H 171.969 -1.55667 -0.14057 0
M  V30 1648 H 172.704 -1.85977 -2.65675 0
M  V30 1649 H 172.489 -3.44839 -1.86625 0
M  V30 1650 H 173.979 -3.10332 -2.79435 0
M  V30 1651 N 174.416 0.165178 -1.56732 0
M  V30 1652 C 175.665 0.879143 -1.81532 0
M  V30 1653 C 175.978 1.83144 -0.686842 0
M  V30 1654 O 177.184 2.58823 -0.819944 0
M  V30 1655 C 175.64 1.61388 -3.21686 0
M  V30 1656 C 175.248 0.704904 -4.4242 0
M  V30 1657 C 176.992 2.3157 -3.55774 0
M  V30 1658 C 174.899 1.44022 -5.73595 0
M  V30 1659 H 173.829 0.332033 -0.676957 0
M  V30 1660 H 176.48 0.132008 -1.83025 0
M  V30 1661 H 174.862 2.40599 -3.14529 0
M  V30 1662 H 176.036 -0.0506815 -4.60772 0
M  V30 1663 H 174.351 0.112419 -4.16248 0
M  V30 1664 H 176.948 2.8719 -4.51028 0
M  V30 1665 H 177.291 3.07201 -2.8095 0
M  V30 1666 H 177.824 1.59297 -3.64513 0
M  V30 1667 H 174.563 0.72612 -6.51466 0
M  V30 1668 H 174.083 2.16898 -5.5921 0
M  V30 1669 H 175.762 1.98606 -6.15764 0
M  V30 1670 N 175.894 1.51508 0.433938 0
M  V30 1671 C 176.827 1.67756 1.54704 0
M  V30 1672 C 177.805 0.525127 1.53887 0
M  V30 1673 O 178.989 0.749393 1.72963 0
M  V30 1674 C 176.116 1.69424 2.9328 0
M  V30 1675 C 175.162 2.90673 3.12108 0
M  V30 1676 S 175.995 4.51431 2.88046 0
M  V30 1677 C 177.151 4.55849 4.28897 0
M  V30 1678 H 177.384 2.61904 1.40689 0
M  V30 1679 H 174.917 1.41235 0.62386 0
M  V30 1680 H 176.875 1.7107 3.73156 0
M  V30 1681 H 175.536 0.764464 3.04655 0
M  V30 1682 H 174.729 2.88251 4.13434 0
M  V30 1683 H 174.331 2.86786 2.40062 0
M  V30 1684 H 176.623 4.31699 5.22152 0
M  V30 1685 H 177.566 5.57676 4.36351 0
M  V30 1686 H 177.974 3.85137 4.12711 0
M  V30 1687 N 177.372 -0.689602 1.41712 0
M  V30 1688 C 178.597 -1.48329 1.44959 0
M  V30 1689 C 179.022 -1.8801 0.0581283 0
M  V30 1690 O 178.38 -1.55026 -0.940035 0
M  V30 1691 C 178.428 -2.71835 2.36935 0
M  V30 1692 O 177.532 -3.69549 1.8305 0
M  V30 1693 H 176.873 -0.446199 0.491734 0
M  V30 1694 H 179.403 -0.847127 1.86239 0
M  V30 1695 H 179.413 -3.20076 2.53013 0
M  V30 1696 H 178.088 -2.42291 3.38035 0
M  V30 1697 H 176.665 -3.2851 1.76452 0
M  V30 1698 N 178.85 -1.27639 -0.924453 0
M  V30 1699 C 180.261 -1.12834 -1.48746 0
M  V30 1700 C 180.612 0.285505 -1.94112 0
M  V30 1701 O 179.737 1.17874 -1.81479 0
M  V30 1702 C 180.332 -2.04217 -2.70334 0
M  V30 1703 C 178.891 -1.93509 -3.22848 0
M  V30 1704 C 178.038 -1.96583 -1.95577 0
M  V30 1705 H 180.989 -1.40484 -0.738233 0
M  V30 1706 H 181.01 -1.59989 -3.4523 0
M  V30 1707 H 180.522 -3.07111 -2.37285 0
M  V30 1708 H 178.623 -0.936131 -3.60649 0
M  V30 1709 H 178.736 -2.79917 -3.88823 0
M  V30 1710 H 177.1 -1.4085 -2.12211 0
M  V30 1711 H 177.883 -3.01137 -1.64837 0
M  V30 1712 N 180.328 1.1314 -1.09713 0
M  V30 1713 C 181.238 2.22242 -0.751367 0
M  V30 1714 C 182.254 1.72224 0.247938 0
M  V30 1715 O 183.43 2.01205 0.0885463 0
M  V30 1716 C 180.495 3.46231 -0.180274 0
M  V30 1717 C 179.556 4.11125 -1.2359 0
M  V30 1718 C 178.789 5.29195 -0.691966 0
M  V30 1719 O 179.012 5.68342 0.48414 0
M  V30 1720 O 177.946 5.84214 -1.44838 0
M  V30 1721 H 181.772 2.54197 -1.66186 0
M  V30 1722 H 179.357 1.21331 -0.871735 0
M  V30 1723 H 181.239 4.21185 0.134739 0
M  V30 1724 H 179.914 3.1597 0.703185 0
M  V30 1725 H 178.821 3.37985 -1.60366 0
M  V30 1726 H 180.154 4.45524 -2.09211 0
M  V30 1727 N 181.806 0.884767 1.30421 0
M  V30 1728 C 182.716 0.355398 2.31892 0
M  V30 1729 C 183.732 -0.542261 1.65335 0
M  V30 1730 O 184.908 -0.435432 1.96637 0
M  V30 1731 C 181.973 -0.421661 3.44126 0
M  V30 1732 C 181.034 0.505727 4.26311 0
M  V30 1733 C 180.267 -0.234343 5.33185 0
M  V30 1734 O 180.49 -1.46045 5.51386 0
M  V30 1735 O 179.424 0.415443 6.00465 0
M  V30 1736 H 183.25 1.19685 2.79122 0
M  V30 1737 H 180.835 0.648596 1.34587 0
M  V30 1738 H 182.717 -0.861641 4.12497 0
M  V30 1739 H 181.392 -1.23942 2.99032 0
M  V30 1740 H 180.299 0.994513 3.60639 0
M  V30 1741 H 181.632 1.28948 4.75009 0
M  V30 1742 N 183.284 -1.43765 0.645699 0
M  V30 1743 C 184.194 -2.34544 -0.0512957 0
M  V30 1744 C 185.21 -1.53455 -0.82022 0
M  V30 1745 O 186.386 -1.86133 -0.769176 0
M  V30 1746 C 183.451 -3.31636 -1.01087 0
M  V30 1747 C 182.512 -4.2863 -0.239712 0
M  V30 1748 C 181.745 -5.21084 -1.15358 0
M  V30 1749 O 181.968 -5.1779 -2.39269 0
M  V30 1750 O 180.902 -5.98593 -0.630038 0
M  V30 1751 H 184.728 -2.95624 0.695718 0
M  V30 1752 H 182.313 -1.43781 0.405882 0
M  V30 1753 H 184.195 -3.9136 -1.56254 0
M  V30 1754 H 182.87 -2.73069 -1.73824 0
M  V30 1755 H 181.777 -3.72408 0.355356 0
M  V30 1756 H 183.11 -4.90157 0.447936 0
M  V30 1757 N 184.763 -0.387143 -1.52771 0
M  V30 1758 C 185.693 0.440551 -2.29306 0
M  V30 1759 C 186.674 1.06535 -1.32606 0
M  V30 1760 O 187.859 1.07853 -1.61497 0
M  V30 1761 C 184.989 1.56919 -3.09829 0
M  V30 1762 C 183.943 1.07054 -4.14395 0
M  V30 1763 C 183.269 2.29109 -4.83129 0
M  V30 1764 C 184.569 0.140015 -5.22112 0
M  V30 1765 H 186.263 -0.198026 -2.98744 0
M  V30 1766 H 183.809 -0.09668 -1.43675 0
M  V30 1767 H 185.762 2.15503 -3.62128 0
M  V30 1768 H 184.486 2.23532 -2.3812 0
M  V30 1769 H 183.145 0.507247 -3.63074 0
M  V30 1770 H 182.793 2.94227 -4.0797 0
M  V30 1771 H 182.493 1.96406 -5.53804 0
M  V30 1772 H 184.017 2.88339 -5.38231 0
M  V30 1773 H 185.431 0.633978 -5.69784 0
M  V30 1774 H 183.828 -0.0971485 -6.00021 0
M  V30 1775 H 184.898 -0.811711 -4.78058 0
M  V30 1776 N 186.241 1.57166 -0.116904 0
M  V30 1777 C 187.518 1.86645 0.585049 0
M  V30 1778 C 187.898 1.0177 1.84949 0
M  V30 1779 O 187.246 0.0960379 2.28298 0
M  V30 1780 C 187.456 3.37736 0.879507 0
M  V30 1781 C 188.804 4.06289 1.23348 0
M  V30 1782 O 189.828 3.42743 0.969836 0
M  V30 1783 O 188.687 5.18455 1.7282 0
M  V30 1784 H 185.781 0.772593 0.295007 0
M  V30 1785 H 188.327 1.69025 -0.151249 0
M  V30 1786 H 187.099 3.91296 -0.0166136 0
M  V30 1787 H 186.722 3.6078 1.67103 0
M  V30 1788 N 187.719 -0.156864 1.56817 0
M  V30 1789 C 188.967 -0.869404 1.82444 0
M  V30 1790 C 189.288 -1.82147 0.69623 0
M  V30 1791 O 188.558 -1.93847 -0.28287 0
M  V30 1792 H 187.138 -0.324043 0.673056 0
M  V30 1793 H 189.8 -0.153224 1.94297 0
M  V30 1794 H 188.896 -1.43761 2.77019 0
M  V30 1795 N 189.197 -1.51736 -0.425897 0
M  V30 1796 C 190.427 -1.68549 -1.19476 0
M  V30 1797 C 190.835 -0.387288 -1.85194 0
M  V30 1798 O 190.178 0.645142 -1.71999 0
M  V30 1799 C 190.24 -2.75275 -2.31223 0
M  V30 1800 C 189.904 -4.17534 -1.8578 0
M  V30 1801 C 190.901 -5.01936 -1.35485 0
M  V30 1802 C 188.586 -4.6369 -1.93123 0
M  V30 1803 C 190.58 -6.30559 -0.931347 0
M  V30 1804 C 188.267 -5.92307 -1.50384 0
M  V30 1805 C 189.265 -6.75569 -1.00473 0
M  V30 1806 O 188.953 -8.0178 -0.583452 0
M  V30 1807 H 188.685 -0.568525 -0.365725 0
M  V30 1808 H 191.239 -1.98982 -0.509444 0
M  V30 1809 H 189.469 -2.40182 -3.03067 0
M  V30 1810 H 191.158 -2.80853 -2.93047 0
M  V30 1811 H 191.924 -4.67475 -1.29197 0
M  V30 1812 H 187.803 -3.98997 -2.30916 0
M  V30 1813 H 191.347 -6.95498 -0.541084 0
M  V30 1814 H 187.244 -6.2628 -1.56346 0
M  V30 1815 H 188.012 -8.1543 -0.708275 0
M  V30 1816 N 190.675 0.682077 -1.42076 0
M  V30 1817 C 191.585 1.82535 -1.47371 0
M  V30 1818 C 192.601 1.7017 -0.363079 0
M  V30 1819 O 193.777 1.91848 -0.612875 0
M  V30 1820 C 190.842 3.18624 -1.36674 0
M  V30 1821 C 189.903 3.42999 -2.58167 0
M  V30 1822 C 189.136 4.72595 -2.4797 0
M  V30 1823 O 189.359 5.50006 -1.5116 0
M  V30 1824 O 188.293 4.98054 -3.37974 0
M  V30 1825 H 192.119 1.81023 -2.43853 0
M  V30 1826 H 189.704 0.836887 -1.2376 0
M  V30 1827 H 191.586 3.99847 -1.33043 0
M  V30 1828 H 190.261 3.20789 -0.433138 0
M  V30 1829 H 189.168 2.61653 -2.67373 0
M  V30 1830 H 190.501 3.45659 -3.50401 0
M  V30 1831 N 192.153 1.28127 0.917671 0
M  V30 1832 C 193.564 1.13622 1.48145 0
M  V30 1833 C 193.915 -0.275207 1.9426 0
M  V30 1834 O 193.04 -1.1691 1.82102 0
M  V30 1835 C 193.635 2.05648 2.69248 0
M  V30 1836 C 192.194 1.95219 3.21818 0
M  V30 1837 C 191.341 1.97618 1.94532 0
M  V30 1838 H 194.292 1.40874 0.730772 0
M  V30 1839 H 194.313 1.61818 3.44377 0
M  V30 1840 H 193.825 3.08365 2.35653 0
M  V30 1841 H 191.926 0.955244 3.60147 0
M  V30 1842 H 192.039 2.81976 3.87333 0
M  V30 1843 H 190.403 1.41973 2.11461 0
M  V30 1844 H 191.186 3.02007 1.63238 0
M  V30 1845 N 193.631 -1.12557 1.10312 0
M  V30 1846 C 194.541 -2.21841 0.763142 0
M  V30 1847 C 195.557 -1.72354 -0.238801 0
M  V30 1848 O 196.733 -2.01249 -0.0778746 0
M  V30 1849 C 193.798 -3.46131 0.198632 0
M  V30 1850 C 192.859 -4.10464 1.25769 0
M  V30 1851 C 192.092 -5.28821 0.72002 0
M  V30 1852 O 192.315 -5.6859 -0.453993 0
M  V30 1853 O 191.249 -5.83437 1.47935 0
M  V30 1854 H 195.075 -2.53312 1.67532 0
M  V30 1855 H 192.66 -1.20867 0.878157 0
M  V30 1856 H 194.542 -4.2125 -0.112401 0
M  V30 1857 H 193.217 -3.16338 -0.686419 0
M  V30 1858 H 192.124 -3.3713 1.62156 0
M  V30 1859 H 193.457 -4.44408 2.11571 0
M  V30 1860 N 195.109 -0.891671 -1.2995 0
M  V30 1861 C 196.52 -0.563104 -1.78006 0
M  V30 1862 C 196.871 0.920978 -1.73241 0
M  V30 1863 O 195.996 1.71987 -1.31337 0
M  V30 1864 C 196.591 -1.01539 -3.23226 0
M  V30 1865 C 195.15 -0.738124 -3.69092 0
M  V30 1866 C 194.297 -1.19461 -2.50249 0
M  V30 1867 H 197.248 -1.07522 -1.16725 0
M  V30 1868 H 197.269 -0.347217 -3.78912 0
M  V30 1869 H 196.781 -2.09555 -3.26662 0
M  V30 1870 H 194.882 0.329766 -3.71138 0
M  V30 1871 H 194.995 -1.33037 -4.60259 0
M  V30 1872 H 193.359 -0.613787 -2.47194 0
M  V30 1873 H 194.142 -2.28265 -2.56417 0
M  V30 1874 N 196.587 1.43421 -0.653314 0
M  V30 1875 C 197.517 2.33487 0.0246656 0
M  V30 1876 C 198.498 1.49475 0.811863 0
M  V30 1877 O 199.683 1.78139 0.773322 0
M  V30 1878 C 196.813 3.32841 0.99166 0
M  V30 1879 C 195.767 4.26842 0.314568 0
M  V30 1880 C 195.093 5.16236 1.39302 0
M  V30 1881 C 196.393 5.16243 -0.793095 0
M  V30 1882 H 198.087 2.90427 -0.727481 0
M  V30 1883 H 195.633 1.39649 -0.351287 0
M  V30 1884 H 197.586 3.94747 1.47487 0
M  V30 1885 H 196.31 2.74158 1.77497 0
M  V30 1886 H 194.969 3.663 -0.148199 0
M  V30 1887 H 194.617 4.53891 2.16776 0
M  V30 1888 H 194.317 5.79948 0.945223 0
M  V30 1889 H 195.841 5.81015 1.87759 0
M  V30 1890 H 197.255 5.71958 -0.392039 0
M  V30 1891 H 195.652 5.88676 -1.16536 0
M  V30 1892 H 196.722 4.55927 -1.65103 0
M  V30 1893 N 198.065 0.39524 1.52563 0
M  V30 1894 C 199.313 -0.184678 2.01254 0
M  V30 1895 C 199.634 -1.46822 1.28329 0
M  V30 1896 O 198.904 -1.91666 0.405094 0
M  V30 1897 H 197.484 -0.0712355 0.743596 0
M  V30 1898 H 200.146 0.528293 1.87603 0
M  V30 1899 H 199.242 -0.390681 3.09645 0
M  V30 1900 N 199.544 -1.57102 0.125237 0
M  V30 1901 C 200.491 -2.15641 -0.822655 0
M  V30 1902 C 201.461 -1.08313 -1.25927 0
M  V30 1903 O 202.646 -1.36251 -1.33567 0
M  V30 1904 C 199.786 -2.76504 -2.06494 0
M  V30 1905 C 198.899 -3.98158 -1.67612 0
M  V30 1906 C 198.034 -4.47088 -2.86854 0
M  V30 1907 C 197.073 -5.6126 -2.44242 0
M  V30 1908 N 196.21 -6.04905 -3.56419 0
M  V30 1909 H 201.05 -2.96313 -0.316625 0
M  V30 1910 H 198.587 -1.46388 -0.144588 0
M  V30 1911 H 200.545 -3.09925 -2.79289 0
M  V30 1912 H 199.175 -1.98512 -2.54545 0
M  V30 1913 H 198.227 -3.70858 -0.846661 0
M  V30 1914 H 199.539 -4.80934 -1.32301 0
M  V30 1915 H 198.693 -4.82451 -3.67867 0
M  V30 1916 H 197.432 -3.63275 -3.25396 0
M  V30 1917 H 196.437 -5.25495 -1.61663 0
M  V30 1918 H 197.662 -6.46843 -2.0681 0
M  V30 1919 H 195.608 -5.24032 -3.94623 0
M  V30 1920 H 195.525 -6.82552 -3.25051 0
M  V30 1921 H 196.793 -6.44907 -4.37853 0
M  V30 1922 N 201.022 0.148545 -1.56898 0
M  V30 1923 C 202.438 0.501131 -1.51528 0
M  V30 1924 C 202.638 1.83458 -0.833399 0
M  V30 1925 O 201.694 2.49259 -0.40328 0
M  V30 1926 C 203.007 0.512864 -2.96294 0
M  V30 1927 C 204.555 0.598487 -3.07225 0
M  V30 1928 C 205.03 0.640897 -4.53494 0
M  V30 1929 N 206.521 0.703163 -4.57832 0
M  V30 1930 C 207.256 0.756935 -5.68382 0
M  V30 1931 N 206.752 0.770147 -6.88506 0
M  V30 1932 N 208.545 0.797698 -5.56411 0
M  V30 1933 H 200.696 -0.725532 -1.99624 0
M  V30 1934 H 202.959 -0.264358 -0.910395 0
M  V30 1935 H 202.665 -0.398691 -3.49433 0
M  V30 1936 H 202.539 1.35133 -3.52163 0
M  V30 1937 H 204.926 1.50046 -2.54106 0
M  V30 1938 H 205.007 -0.267093 -2.54402 0
M  V30 1939 H 204.651 -0.256915 -5.0725 0
M  V30 1940 H 204.581 1.52295 -5.04097 0
M  V30 1941 H 207.072 0.700314 -3.71354 0
M  V30 1942 H 207.385 0.812983 -7.68512 0
M  V30 1943 H 205.73 0.738049 -6.9107 0
M  V30 1944 H 208.921 0.784535 -4.61479 0
M  V30 1945 H 209.094 0.83614 -6.42583 0
M  V30 1946 N 202.5 1.5196 0.417844 0
M  V30 1947 C 203.911 1.57851 0.997 0
M  V30 1948 C 204.262 0.413714 1.91789 0
M  V30 1949 O 203.387 -0.467057 2.113 0
M  V30 1950 C 203.982 2.86085 1.81496 0
M  V30 1951 C 202.541 2.94483 2.34428 0
M  V30 1952 C 201.688 2.52707 1.14169 0
M  V30 1953 H 204.639 1.57455 0.198392 0
M  V30 1954 H 204.66 2.70947 2.67148 0
M  V30 1955 H 204.172 3.70842 1.14446 0
M  V30 1956 H 202.273 2.142 3.04875 0
M  V30 1957 H 202.386 3.98546 2.65891 0
M  V30 1958 H 200.75 2.06353 1.49301 0
M  V30 1959 H 201.533 3.39828 0.486999 0
M  V30 1960 N 203.978 -0.674533 1.42435 0
M  V30 1961 C 204.941 -1.76986 1.45632 0
M  V30 1962 C 205.941 -1.5708 0.343871 0
M  V30 1963 O 207.131 -1.63367 0.604709 0
M  V30 1964 C 204.263 -3.15623 1.28822 0
M  V30 1965 H 205.456 -1.75539 2.43158 0
M  V30 1966 H 203.009 -0.884189 1.28887 0
M  V30 1967 H 203.744 -3.22696 0.322193 0
M  V30 1968 H 203.529 -3.31475 2.09444 0
M  V30 1969 H 205.019 -3.95537 1.33942 0
M  V30 1970 N 205.456 -1.28612 -0.910864 0
M  V30 1971 C 206.702 -1.16106 -1.66274 0
M  V30 1972 C 207.035 0.289113 -1.92036 0
M  V30 1973 O 206.31 1.21 -1.52281 0
M  V30 1974 C 206.593 -1.96309 -3.01885 0
M  V30 1975 C 206.446 -3.49405 -2.8326 0
M  V30 1976 C 207.765 -1.78076 -4.02463 0
M  V30 1977 H 204.884 -0.423152 -0.603417 0
M  V30 1978 H 207.526 -1.57961 -1.05586 0
M  V30 1979 H 205.676 -1.60742 -3.53687 0
M  V30 1980 H 207.348 -3.94894 -2.38446 0
M  V30 1981 H 205.591 -3.74893 -2.18261 0
M  V30 1982 H 206.262 -4.00784 -3.79574 0
M  V30 1983 H 208.738 -2.0912 -3.59733 0
M  V30 1984 H 207.614 -2.36561 -4.95308 0
M  V30 1985 H 207.875 -0.733008 -4.35981 0
M  V30 1986 N 206.934 1.1197 -1.10907 0
M  V30 1987 C 207.864 2.19928 -0.784473 0
M  V30 1988 C 208.845 1.6833 0.244726 0
M  V30 1989 O 210.03 1.93892 0.109418 0
M  V30 1990 C 207.16 3.46597 -0.220827 0
M  V30 1991 C 206.114 4.11376 -1.18127 0
M  V30 1992 C 205.44 5.32554 -0.478594 0
M  V30 1993 C 206.74 4.56945 -2.52979 0
M  V30 1994 H 208.434 2.47337 -1.68715 0
M  V30 1995 H 205.98 1.18879 -0.812642 0
M  V30 1996 H 207.933 4.21396 0.0184278 0
M  V30 1997 H 206.657 3.1863 0.717113 0
M  V30 1998 H 205.316 3.38564 -1.40606 0
M  V30 1999 H 204.964 5.00856 0.463976 0
M  V30 2000 H 204.664 5.76844 -1.11912 0
M  V30 2001 H 206.188 6.10096 -0.248 0
M  V30 2002 H 207.602 5.23093 -2.3462 0
M  V30 2003 H 205.999 5.1203 -3.12962 0
M  V30 2004 H 207.069 3.70676 -3.12614 0
M  V30 2005 N 208.412 0.89855 1.29475 0
M  V30 2006 C 209.823 0.572537 1.77705 0
M  V30 2007 C 210.174 -0.911778 1.73727 0
M  V30 2008 O 209.299 -1.71288 1.32247 0
M  V30 2009 C 209.894 1.03252 3.22683 0
M  V30 2010 C 208.453 0.757687 3.68695 0
M  V30 2011 C 207.6 1.20787 2.49612 0
M  V30 2012 H 210.551 1.08139 1.16153 0
M  V30 2013 H 210.572 0.367307 3.78723 0
M  V30 2014 H 210.084 2.11285 3.25546 0
M  V30 2015 H 208.185 -0.310079 3.71308 0
M  V30 2016 H 208.298 1.35476 4.59547 0
M  V30 2017 H 206.662 0.626888 2.46865 0
M  V30 2018 H 207.445 2.29622 2.55203 0
M  V30 2019 N 209.89 -1.43072 0.660911 0
M  V30 2020 C 210.82 -2.33497 -0.0122829 0
M  V30 2021 C 211.801 -1.49903 -0.803925 0
M  V30 2022 O 212.986 -1.78546 -0.763864 0
M  V30 2023 C 210.116 -3.33363 -0.973994 0
M  V30 2024 C 209.07 -4.27003 -0.291928 0
M  V30 2025 C 208.396 -5.16967 -1.36562 0
M  V30 2026 C 209.696 -5.15816 0.820462 0
M  V30 2027 H 211.39 -2.90038 0.742873 0
M  V30 2028 H 208.936 -1.39461 0.358688 0
M  V30 2029 H 210.889 -3.95524 -1.45392 0
M  V30 2030 H 209.613 -2.75095 -1.7604 0
M  V30 2031 H 208.272 -3.66217 0.167623 0
M  V30 2032 H 207.92 -4.55034 -2.14366 0
M  V30 2033 H 207.62 -5.80441 -0.914454 0
M  V30 2034 H 209.144 -5.82003 -1.84675 0
M  V30 2035 H 210.558 -5.71742 0.422366 0
M  V30 2036 H 208.955 -5.8805 1.19656 0
M  V30 2037 H 210.025 -4.55045 1.67518 0
M  V30 2038 N 211.368 -0.403325 -1.52352 0
M  V30 2039 C 212.298 0.416205 -2.29761 0
M  V30 2040 C 213.279 1.05123 -1.33728 0
M  V30 2041 O 214.464 1.06134 -1.62632 0
M  V30 2042 C 211.594 1.53624 -3.11475 0
M  V30 2043 C 210.548 1.02653 -4.15507 0
M  V30 2044 C 209.874 2.23971 -4.85532 0
M  V30 2045 C 211.174 0.08463 -5.22231 0
M  V30 2046 H 212.868 -0.229701 -2.98518 0
M  V30 2047 H 210.414 -0.111913 -1.43564 0
M  V30 2048 H 212.367 2.1165 -3.64393 0
M  V30 2049 H 211.091 2.20994 -2.40477 0
M  V30 2050 H 209.75 0.46871 -3.63591 0
M  V30 2051 H 209.398 2.89883 -4.11068 0
M  V30 2052 H 209.098 1.90521 -5.55856 0
M  V30 2053 H 210.622 2.82614 -5.41259 0
M  V30 2054 H 212.036 0.573509 -5.70424 0
M  V30 2055 H 210.433 -0.160783 -5.99885 0
M  V30 2056 H 211.503 -0.86237 -4.7717 0
M  V30 2057 N 212.846 1.57033 -0.133567 0
M  V30 2058 C 213.756 2.19632 0.824564 0
M  V30 2059 C 214.772 1.17666 1.28182 0
M  V30 2060 O 215.948 1.50193 1.3418 0
M  V30 2061 C 213.013 2.79499 2.05137 0
M  V30 2062 C 212.074 3.96548 1.64464 0
M  V30 2063 C 211.307 4.5355 2.81297 0
M  V30 2064 O 211.53 4.09438 3.97136 0
M  V30 2065 O 210.464 5.44018 2.57542 0
M  V30 2066 H 214.29 3.01991 0.321766 0
M  V30 2067 H 211.875 1.49112 0.0927889 0
M  V30 2068 H 213.757 3.17602 2.7696 0
M  V30 2069 H 212.432 2.00162 2.54395 0
M  V30 2070 H 211.339 3.63186 0.897048 0
M  V30 2071 H 212.672 4.77364 1.19934 0
M  V30 2072 N 214.325 -0.140222 1.56975 0
M  V30 2073 C 215.255 -1.17456 2.01808 0
M  V30 2074 C 216.236 -1.44415 0.898794 0
M  V30 2075 O 217.421 -1.5522 1.16707 0
M  V30 2076 C 214.551 -2.50607 2.40444 0
M  V30 2077 C 213.505 -2.38155 3.55621 0
M  V30 2078 C 212.831 -3.76078 3.80091 0
M  V30 2079 C 214.131 -1.85991 4.88062 0
M  V30 2080 H 215.825 -0.801743 2.88466 0
M  V30 2081 H 213.371 -0.38422 1.38779 0
M  V30 2082 H 215.324 -3.23197 2.7041 0
M  V30 2083 H 214.048 -2.89737 1.50732 0
M  V30 2084 H 212.707 -1.68016 3.25832 0
M  V30 2085 H 212.355 -4.12656 2.87618 0
M  V30 2086 H 212.055 -3.68606 4.57606 0
M  V30 2087 H 213.579 -4.50206 4.12488 0
M  V30 2088 H 214.993 -2.4838 5.16701 0
M  V30 2089 H 213.39 -1.89393 5.6943 0
M  V30 2090 H 214.46 -0.816023 4.77984 0
M  V30 2091 N 215.803 -1.52179 -0.40978 0
M  V30 2092 C 217.049 -1.66453 -1.15851 0
M  V30 2093 C 217.382 -0.392972 -1.90182 0
M  V30 2094 O 216.657 0.608579 -1.84734 0
M  V30 2095 C 216.94 -2.88612 -2.15349 0
M  V30 2096 C 216.793 -4.25815 -1.44918 0
M  V30 2097 C 218.112 -3.06294 -3.16026 0
M  V30 2098 H 215.231 -0.60575 -0.419805 0
M  V30 2099 H 217.873 -1.84732 -0.444314 0
M  V30 2100 H 216.023 -2.73158 -2.76255 0
M  V30 2101 H 217.695 -4.52995 -0.871365 0
M  V30 2102 H 215.938 -4.27247 -0.751159 0
M  V30 2103 H 216.609 -5.07337 -2.17516 0
M  V30 2104 H 219.085 -3.20641 -2.65195 0
M  V30 2105 H 217.961 -3.93283 -3.8291 0
M  V30 2106 H 218.222 -2.19579 -3.83715 0
M  V30 2107 N 217.281 0.66697 -1.42791 0
M  V30 2108 C 218.529 1.42417 -1.43394 0
M  V30 2109 C 218.85 1.94925 -0.0542373 0
M  V30 2110 O 218.12 1.73564 0.908415 0
M  V30 2111 H 216.7 0.528515 -0.527902 0
M  V30 2112 H 219.362 0.787562 -1.78279 0
M  V30 2113 H 218.458 2.27333 -2.13837 0
M  V30 2114 N 218.759 1.29093 0.90403 0
M  V30 2115 C 219.669 1.15727 2.0407 0
M  V30 2116 C 220.685 0.0815308 1.73809 0
M  V30 2117 O 221.861 0.292749 1.99261 0
M  V30 2118 C 218.926 0.830424 3.36608 0
M  V30 2119 C 217.987 1.98955 3.80415 0
M  V30 2120 C 217.22 1.6782 5.06628 0
M  V30 2121 O 217.443 0.597105 5.67266 0
M  V30 2122 O 216.377 2.52486 5.46383 0
M  V30 2123 H 220.203 2.11171 2.18267 0
M  V30 2124 H 217.788 1.08504 1.027 0
M  V30 2125 H 219.67 0.662521 4.16159 0
M  V30 2126 H 218.345 -0.0942678 3.23563 0
M  V30 2127 H 217.252 2.21267 3.01648 0
M  V30 2128 H 218.585 2.89529 3.98037 0
M  V30 2129 N 220.237 -1.11381 1.11499 0
M  V30 2130 C 221.462 -1.87475 0.887019 0
M  V30 2131 C 221.887 -1.79639 -0.557796 0
M  V30 2132 O 221.245 -1.15924 -1.39396 0
M  V30 2133 C 221.293 -3.34213 1.35403 0
M  V30 2134 O 220.397 -4.0903 0.526146 0
M  V30 2135 H 219.738 -0.582099 0.319463 0
M  V30 2136 H 222.268 -1.40785 1.48461 0
M  V30 2137 H 222.278 -3.8506 1.34881 0
M  V30 2138 H 220.953 -3.39232 2.40612 0
M  V30 2139 H 219.53 -3.68082 0.597522 0
M  V30 2140 N 221.715 -0.905404 -1.28997 0
M  V30 2141 C 222.963 -0.533192 -1.9494 0
M  V30 2142 C 223.284 0.924618 -1.71685 0
M  V30 2143 O 222.554 1.65268 -1.05183 0
M  V30 2144 H 221.134 -0.194194 -0.721317 0
M  V30 2145 H 223.796 -1.15294 -1.57141 0
M  V30 2146 H 222.892 -0.72059 -3.03667 0
M  V30 2147 N 223.193 1.4272 -0.668489 0
M  V30 2148 C 224.141 2.32586 0.0254857 0
M  V30 2149 C 225.135 1.49471 0.797176 0
M  V30 2150 O 226.341 1.65583 0.705853 0
M  V30 2151 H 222.716 0.751514 0.0270339 0
M  V30 2152 H 224.687 2.88823 -0.749936 0
M  V30 2153 C 223.436 3.3397 0.967427 0
M  V30 2154 H 222.759 3.97961 0.383048 0
M  V30 2155 H 224.199 3.9945 1.42181 0
M  V30 2156 C 222.658 2.65744 2.0708 0
M  V30 2157 O 223.188 2.48454 3.15648 0
M  V30 2158 N 221.394 2.2487 1.8407 0
M  V30 2159 H 220.941 2.39132 0.95778 0
M  V30 2160 H 220.899 1.79552 2.58086 0
M  V30 2161 N 224.671 0.411399 1.52136 0
M  V30 2162 C 225.619 -0.427633 2.28635 0
M  V30 2163 C 226.613 -1.04383 1.33419 0
M  V30 2164 O 227.819 -0.981772 1.50868 0
M  V30 2165 H 224.194 -0.156689 0.735495 0
M  V30 2166 H 226.165 0.238761 2.97443 0
M  V30 2167 C 224.914 -1.53082 3.12188 0
M  V30 2168 H 224.237 -1.06601 3.85326 0
M  V30 2169 H 225.677 -2.09167 3.68816 0
M  V30 2170 C 224.136 -2.49946 2.25895 0
M  V30 2171 O 224.666 -3.53884 1.90076 0
M  V30 2172 N 222.872 -2.2021 1.8962 0
M  V30 2173 H 222.419 -1.35719 2.18948 0
M  V30 2174 H 222.377 -2.85266 1.32176 0
M  V30 2175 N 226.149 -1.5696 0.141893 0
M  V30 2176 C 227.377 -2.00322 -0.517579 0
M  V30 2177 C 227.792 -1.02193 -1.58752 0
M  V30 2178 O 227.149 -0.0181619 -1.82491 0
M  V30 2179 C 227.2 -3.43618 -1.12289 0
M  V30 2180 O 226.921 -4.37995 -0.0956929 0
M  V30 2181 C 228.422 -4.02231 -1.86347 0
M  V30 2182 H 225.642 -0.657243 -0.135177 0
M  V30 2183 H 228.186 -2.03146 0.234973 0
M  V30 2184 H 226.341 -3.41662 -1.82609 0
M  V30 2185 H 226.755 -5.21729 -0.538469 0
M  V30 2186 H 228.229 -5.04509 -2.23997 0
M  V30 2187 H 228.706 -3.42655 -2.74744 0
M  V30 2188 H 229.312 -4.07802 -1.20737 0
M  V30 2189 N 227.627 0.131896 -1.57047 0
M  V30 2190 C 228.852 0.860418 -1.8871 0
M  V30 2191 C 229.277 1.73251 -0.73251 0
M  V30 2192 O 228.635 1.785 0.317429 0
M  V30 2193 C 228.683 1.68047 -3.19049 0
M  V30 2194 O 227.787 2.7862 -3.04047 0
M  V30 2195 H 227.128 0.238743 -0.619595 0
M  V30 2196 H 229.658 0.118169 -2.04258 0
M  V30 2197 H 229.668 2.07238 -3.51449 0
M  V30 2198 H 228.343 1.04018 -4.02682 0
M  V30 2199 H 226.92 2.42726 -2.83088 0
M  V30 2200 N 229.106 1.52395 0.401703 0
M  V30 2201 C 230.334 1.70676 1.16949 0
M  V30 2202 C 230.749 0.419503 1.8408 0
M  V30 2203 O 230.106 -0.605061 1.72178 0
M  V30 2204 C 230.157 2.84753 2.22706 0
M  V30 2205 O 229.878 4.08495 1.58314 0
M  V30 2206 C 231.379 3.14608 3.12309 0
M  V30 2207 H 228.599 0.571787 0.351142 0
M  V30 2208 H 231.143 1.98987 0.471652 0
M  V30 2209 H 229.298 2.58941 2.88147 0
M  V30 2210 H 229.712 4.72117 2.28485 0
M  V30 2211 H 231.186 3.97923 3.82572 0
M  V30 2212 H 231.663 2.28464 3.75101 0
M  V30 2213 H 232.269 3.42212 2.52529 0
M  V30 2214 N 230.584 -0.659388 1.43143 0
M  V30 2215 C 231.861 -1.41627 1.34912 0
M  V30 2216 C 232.241 -2.11099 -0.00607785 0
M  V30 2217 O 231.589 -2.04353 -1.02236 0
M  V30 2218 C 231.799 -2.40604 2.52805 0
M  V30 2219 C 233.147 -3.04789 2.95616 0
M  V30 2220 O 234.171 -2.50932 2.52807 0
M  V30 2221 O 233.03 -4.02421 3.69756 0
M  V30 2222 H 230.124 -0.63246 0.532844 0
M  V30 2223 H 232.67 -0.686814 1.5518 0
M  V30 2224 H 231.442 -1.88174 3.43083 0
M  V30 2225 H 231.065 -3.21009 2.34604 0
M  V30 2226 N 232.062 -1.29571 -0.897171 0
M  V30 2227 C 233.31 -1.17456 -1.64464 0
M  V30 2228 C 233.631 0.273698 -1.9307 0
M  V30 2229 O 232.901 1.18684 -1.55855 0
M  V30 2230 H 231.481 -0.431706 -0.609622 0
M  V30 2231 H 234.143 -1.62531 -1.07562 0
M  V30 2232 H 233.239 -1.72648 -2.59998 0
M  V30 2233 N 233.54 1.10788 -1.12088 0
M  V30 2234 C 234.765 1.87002 -0.896949 0
M  V30 2235 C 235.19 1.79933 0.548261 0
M  V30 2236 O 234.548 1.16662 1.38779 0
M  V30 2237 C 234.596 3.3349 -1.37174 0
M  V30 2238 O 233.7 4.08745 -0.547831 0
M  V30 2239 H 233.041 0.580397 -0.322545 0
M  V30 2240 H 235.571 1.39996 -1.49206 0
M  V30 2241 H 235.581 3.84339 -1.36922 0
M  V30 2242 H 234.256 3.37951 -2.42408 0
M  V30 2243 H 232.833 3.6776 -0.617034 0
M  V30 2244 N 235.018 0.912232 1.28515 0
M  V30 2245 C 235.948 0.416403 2.29757 0
M  V30 2246 C 236.929 -0.515194 1.6211 0
M  V30 2247 O 238.114 -0.423253 1.89532 0
M  V30 2248 C 235.244 -0.34572 3.45575 0
M  V30 2249 C 234.198 0.496599 4.25109 0
M  V30 2250 C 233.524 -0.393771 5.33248 0
M  V30 2251 C 234.824 1.75307 4.92001 0
M  V30 2252 H 236.518 1.26249 2.7148 0
M  V30 2253 H 234.064 0.608515 1.30511 0
M  V30 2254 H 236.017 -0.703422 4.15488 0
M  V30 2255 H 234.741 -1.2257 3.02728 0
M  V30 2256 H 233.4 0.8368 3.56922 0
M  V30 2257 H 233.048 -1.27225 4.86644 0
M  V30 2258 H 232.748 0.166209 5.87365 0
M  V30 2259 H 234.272 -0.747389 6.06009 0
M  V30 2260 H 235.686 1.46437 5.54283 0
M  V30 2261 H 234.083 2.25534 5.56106 0
M  V30 2262 H 235.153 2.48176 4.16577 0
M  V30 2263 N 236.496 -1.42363 0.676048 0
M  V30 2264 C 237.907 -1.84649 0.275948 0
M  V30 2265 C 238.258 -1.56588 -1.18214 0
M  V30 2266 O 237.383 -1.02634 -1.90513 0
M  V30 2267 C 237.978 -3.35178 0.494053 0
M  V30 2268 C 236.537 -3.76109 0.148061 0
M  V30 2269 C 235.684 -2.65931 0.785891 0
M  V30 2270 H 238.635 -1.32192 0.878121 0
M  V30 2271 H 238.656 -3.79655 -0.25343 0
M  V30 2272 H 238.168 -3.55571 1.55535 0
M  V30 2273 H 236.269 -3.61323 -0.909742 0
M  V30 2274 H 236.382 -4.7546 0.589454 0
M  V30 2275 H 234.746 -2.53773 0.217113 0
M  V30 2276 H 235.529 -2.89146 1.85067 0
M  V30 2277 N 237.974 -0.419461 -1.51915 0
M  V30 2278 C 239.199 0.154572 -2.06823 0
M  V30 2279 C 239.624 1.3722 -1.28656 0
M  V30 2280 O 238.982 1.78461 -0.319583 0
M  V30 2281 C 239.03 0.473172 -3.57482 0
M  V30 2282 O 238.134 1.56255 -3.81652 0
M  V30 2283 H 237.475 0.0096924 -0.663929 0
M  V30 2284 H 240.005 -0.595642 -1.95738 0
M  V30 2285 H 240.015 0.728825 -4.01438 0
M  V30 2286 H 238.69 -0.416873 -4.13805 0
M  V30 2287 H 237.267 1.29825 -3.49571 0
M  V30 2288 N 239.452 1.56882 -0.150215 0
M  V30 2289 C 240.68 2.00593 0.506948 0
M  V30 2290 C 241.095 1.03033 1.58208 0
M  V30 2291 O 240.452 0.0278396 1.82479 0
M  V30 2292 C 240.503 3.44209 1.10465 0
M  V30 2293 O 240.224 4.3804 0.0724636 0
M  V30 2294 C 241.725 4.03214 1.84211 0
M  V30 2295 H 238.945 0.65795 0.13169 0
M  V30 2296 H 241.489 2.03018 -0.245743 0
M  V30 2297 H 239.644 3.42625 1.80795 0
M  V30 2298 H 240.058 5.22007 0.510793 0
M  V30 2299 H 241.532 5.0569 2.21318 0
M  V30 2300 H 242.009 3.44107 2.72923 0
M  V30 2301 H 242.615 4.08437 1.18572 0
M  V30 2302 N 240.93 -0.123565 1.57115 0
M  V30 2303 C 242.341 -0.681198 1.73829 0
M  V30 2304 C 242.692 -1.80535 0.768214 0
M  V30 2305 O 241.817 -2.16317 -0.0599103 0
M  V30 2306 C 242.412 -1.24246 3.15196 0
M  V30 2307 C 240.971 -1.74643 3.33432 0
M  V30 2308 C 240.118 -0.644284 2.69711 0
M  V30 2309 H 243.069 0.102315 1.5837 0
M  V30 2310 H 243.09 -2.11216 3.16493 0
M  V30 2311 H 242.602 -0.424062 3.85776 0
M  V30 2312 H 240.703 -2.58974 2.67886 0
M  V30 2313 H 240.816 -1.85902 4.41562 0
M  V30 2314 H 239.18 -1.07676 2.3082 0
M  V30 2315 H 239.963 0.163058 3.42913 0
M  V30 2316 N 242.408 -1.52605 -0.393616 0
M  V30 2317 C 243.819 -1.59417 -0.971761 0
M  V30 2318 C 244.17 -0.444173 -1.91106 0
M  V30 2319 O 243.295 0.433382 -2.12016 0
M  V30 2320 C 243.89 -2.88936 -1.76921 0
M  V30 2321 C 242.449 -2.98175 -2.29714 0
M  V30 2322 C 241.596 -2.54491 -1.10135 0
M  V30 2323 H 244.547 -1.57751 -0.173317 0
M  V30 2324 H 244.568 -2.75163 -2.62804 0
M  V30 2325 H 244.08 -3.72616 -1.08532 0
M  V30 2326 H 242.181 -2.19024 -3.01429 0
M  V30 2327 H 242.294 -4.02726 -2.59517 0
M  V30 2328 H 240.658 -2.08702 -1.45999 0
M  V30 2329 H 241.441 -3.4056 -0.432874 0
M  V30 2330 N 243.887 0.651787 -1.4349 0
M  V30 2331 C 245.298 1.233 -1.40193 0
M  V30 2332 C 245.649 1.9591 -0.106727 0
M  V30 2333 O 244.774 2.01316 0.793773 0
M  V30 2334 C 245.369 2.24257 -2.53957 0
M  V30 2335 C 243.928 2.77852 -2.5392 0
M  V30 2336 C 243.075 1.52517 -2.3159 0
M  V30 2337 H 246.026 0.443717 -1.52371 0
M  V30 2338 H 246.047 3.0646 -2.25528 0
M  V30 2339 H 245.559 1.71382 -3.4821 0
M  V30 2340 H 243.66 3.34786 -1.63551 0
M  V30 2341 H 243.773 3.25299 -3.51735 0
M  V30 2342 H 242.137 1.79915 -1.80285 0
M  V30 2343 H 242.92 1.01574 -3.27929 0
M  V30 2344 N 245.365 1.30045 0.890287 0
M  V30 2345 C 246.328 1.15963 1.977 0
M  V30 2346 C 247.328 0.0923777 1.60534 0
M  V30 2347 O 248.518 0.340071 1.70848 0
M  V30 2348 C 245.65 0.775451 3.31963 0
M  V30 2349 H 246.843 2.12502 2.11619 0
M  V30 2350 H 244.396 1.13366 1.07601 0
M  V30 2351 H 245.131 -0.189671 3.23745 0
M  V30 2352 H 244.916 1.54668 3.60306 0
M  V30 2353 H 246.406 0.700251 4.11687 0
M  V30 2354 N 246.843 -1.10192 1.12674 0
M  V30 2355 C 247.753 -2.20172 0.810026 0
M  V30 2356 C 248.769 -1.72821 -0.202188 0
M  V30 2357 O 249.945 -2.01369 -0.0351691 0
M  V30 2358 C 247.01 -3.45631 0.272007 0
M  V30 2359 C 246.071 -4.07704 1.34447 0
M  V30 2360 C 245.304 -5.27175 0.832029 0
M  V30 2361 O 245.527 -5.69425 -0.333284 0
M  V30 2362 O 244.461 -5.80168 1.60277 0
M  V30 2363 H 248.287 -2.49701 1.72867 0
M  V30 2364 H 245.872 -1.18977 0.903597 0
M  V30 2365 H 247.754 -4.21394 -0.0230219 0
M  V30 2366 H 246.429 -3.17723 -0.619164 0
M  V30 2367 H 245.336 -3.33614 1.6927 0
M  V30 2368 H 246.669 -4.3982 2.2095 0
M  V30 2369 N 248.321 -0.919034 -1.28029 0
M  V30 2370 C 249.231 -0.416756 -2.30869 0
M  V30 2371 C 250.247 0.498235 -1.66714 0
M  V30 2372 O 251.423 0.383144 -1.97722 0
M  V30 2373 C 248.488 0.330274 -3.45123 0
M  V30 2374 C 247.549 -0.618578 -4.2482 0
M  V30 2375 C 246.782 0.0928959 -5.33619 0
M  V30 2376 O 247.005 1.31375 -5.55065 0
M  V30 2377 O 245.939 -0.574499 -5.99152 0
M  V30 2378 H 249.765 -1.27043 -2.75851 0
M  V30 2379 H 247.35 -0.684052 -1.3282 0
M  V30 2380 H 249.232 0.751972 -4.14636 0
M  V30 2381 H 247.907 1.1597 -3.02213 0
M  V30 2382 H 246.814 -1.08978 -3.57875 0
M  V30 2383 H 248.147 -1.41497 -4.71423 0
M  V30 2384 N 249.799 1.42003 -0.683588 0
M  V30 2385 C 250.709 2.34597 -0.0109075 0
M  V30 2386 C 251.725 1.55576 0.779245 0
M  V30 2387 O 252.901 1.88107 0.719555 0
M  V30 2388 C 249.966 3.34199 0.922588 0
M  V30 2389 C 249.027 4.29115 0.125984 0
M  V30 2390 C 248.26 5.23959 1.01502 0
M  V30 2391 O 248.483 5.23952 2.25456 0
M  V30 2392 O 247.417 6.00053 0.47111 0
M  V30 2393 H 251.243 2.93675 -0.773853 0
M  V30 2394 H 248.828 1.42654 -0.443861 0
M  V30 2395 H 250.71 3.95365 1.45823 0
M  V30 2396 H 249.385 2.77582 1.66523 0
M  V30 2397 H 248.292 3.71335 -0.453969 0
M  V30 2398 H 249.625 4.88798 -0.577736 0
M  V30 2399 N 251.277 0.427512 1.51691 0
M  V30 2400 C 252.187 -0.39527 2.31246 0
M  V30 2401 C 253.203 -1.03674 1.39742 0
M  V30 2402 O 254.379 -1.03425 1.72816 0
M  V30 2403 C 251.444 -1.48706 3.13189 0
M  V30 2404 C 250.505 -0.866743 4.20459 0
M  V30 2405 C 249.738 -1.90651 4.98486 0
M  V30 2406 O 249.961 -3.12733 4.77026 0
M  V30 2407 O 248.895 -1.5025 5.82845 0
M  V30 2408 H 252.721 0.253918 3.02637 0
M  V30 2409 H 250.306 0.190274 1.48183 0
M  V30 2410 H 252.188 -2.12047 3.64162 0
M  V30 2411 H 250.863 -2.12051 2.44573 0
M  V30 2412 H 249.77 -0.195544 3.73589 0
M  V30 2413 H 251.103 -0.276934 4.9142 0
M  V30 2414 N 252.755 -1.56801 0.158532 0
M  V30 2415 C 254.032 -1.88131 -0.535357 0
M  V30 2416 C 254.412 -1.06638 -1.82186 0
M  V30 2417 O 253.76 -0.156533 -2.27963 0
M  V30 2418 C 253.97 -3.39949 -0.789653 0
M  V30 2419 C 255.318 -4.09416 -1.12533 0
M  V30 2420 O 256.342 -3.45194 -0.878622 0
M  V30 2421 O 255.201 -5.22855 -1.59014 0
M  V30 2422 H 252.295 -0.780143 -0.27442 0
M  V30 2423 H 254.841 -1.68564 0.19601 0
M  V30 2424 H 253.613 -3.91115 0.120353 0
M  V30 2425 H 253.236 -3.65084 -1.57479 0
M  V30 2426 N 254.233 0.115231 -1.57178 0
M  V30 2427 C 255.143 1.15994 -2.03918 0
M  V30 2428 C 256.159 1.45103 -0.960268 0
M  V30 2429 O 257.335 1.56144 -1.27204 0
M  V30 2430 C 254.4 2.46568 -2.43732 0
M  V30 2431 C 253.461 2.24822 -3.65723 0
M  V30 2432 C 252.694 3.4917 -4.03629 0
M  V30 2433 O 252.917 4.56623 -3.41835 0
M  V30 2434 O 251.851 3.39949 -4.96708 0
M  V30 2435 H 255.677 0.793019 -2.93164 0
M  V30 2436 H 253.262 0.3263 -1.45793 0
M  V30 2437 H 255.144 3.23492 -2.70057 0
M  V30 2438 H 253.819 2.82726 -1.57631 0
M  V30 2439 H 252.726 1.45744 -3.44542 0
M  V30 2440 H 254.059 1.93566 -4.52541 0
M  V30 2441 N 255.711 1.52812 0.385517 0
M  V30 2442 C 256.641 1.80808 1.47752 0
M  V30 2443 C 257.622 0.660318 1.5676 0
M  V30 2444 O 258.807 0.908246 1.71652 0
M  V30 2445 C 255.937 1.98008 2.85324 0
M  V30 2446 C 254.891 3.13709 2.91154 0
M  V30 2447 C 254.217 3.16169 4.31209 0
M  V30 2448 C 255.517 4.52709 2.60483 0
M  V30 2449 H 257.211 2.72253 1.24573 0
M  V30 2450 H 254.757 1.31003 0.597839 0
M  V30 2451 H 256.71 2.16176 3.61726 0
M  V30 2452 H 255.434 1.03255 3.09848 0
M  V30 2453 H 254.093 2.95329 2.17201 0
M  V30 2454 H 253.741 2.19092 4.52778 0
M  V30 2455 H 253.441 3.93894 4.36029 0
M  V30 2456 H 254.965 3.36496 5.09512 0
M  V30 2457 H 256.379 4.71173 3.26602 0
M  V30 2458 H 254.776 5.32528 2.76648 0
M  V30 2459 H 255.846 4.59186 1.55809 0
M  V30 2460 N 257.189 -0.644168 1.43834 0
M  V30 2461 C 258.419 -1.42939 1.49171 0
M  V30 2462 C 258.827 -1.88874 0.111048 0
M  V30 2463 O 258.17 -1.60656 -0.8908 0
M  V30 2464 C 258.232 -2.69151 2.38324 0
M  V30 2465 C 257.896 -2.45097 3.85715 0
M  V30 2466 C 258.893 -2.07747 4.76589 0
M  V30 2467 C 256.578 -2.59141 4.30292 0
M  V30 2468 C 258.572 -1.8475 6.10038 0
M  V30 2469 C 256.259 -2.35759 5.63792 0
M  V30 2470 C 257.257 -1.9862 6.53482 0
M  V30 2471 O 256.945 -1.75489 7.84512 0
M  V30 2472 H 256.677 -0.445271 0.508635 0
M  V30 2473 H 259.231 -0.79621 1.8934 0
M  V30 2474 H 257.461 -3.3506 1.93058 0
M  V30 2475 H 259.15 -3.31123 2.3476 0
M  V30 2476 H 259.916 -1.96465 4.43426 0
M  V30 2477 H 255.795 -2.87022 3.60749 0
M  V30 2478 H 259.339 -1.55686 6.80006 0
M  V30 2479 H 255.236 -2.46646 5.9652 0
M  V30 2480 H 256.004 -1.89841 7.9618 0
M  V30 2481 N 258.668 -1.30515 -0.883378 0
M  V30 2482 C 260.084 -1.08881 -1.16692 0
M  V30 2483 C 260.284 0.149409 -2.00945 0
M  V30 2484 O 259.34 0.84257 -2.38027 0
M  V30 2485 C 260.653 -2.35319 -1.87204 0
M  V30 2486 C 262.201 -2.40799 -1.99962 0
M  V30 2487 C 262.676 -3.67083 -2.73887 0
M  V30 2488 N 264.167 -3.679 -2.81432 0
M  V30 2489 C 264.902 -4.62303 -3.3921 0
M  V30 2490 N 264.398 -5.67052 -3.98025 0
M  V30 2491 N 266.191 -4.49845 -3.3704 0
M  V30 2492 H 258.342 -2.09951 -0.321633 0
M  V30 2493 H 260.605 -0.92556 -0.205043 0
M  V30 2494 H 260.311 -3.25689 -1.3274 0
M  V30 2495 H 260.185 -2.44089 -2.87577 0
M  V30 2496 H 262.572 -1.50907 -2.53597 0
M  V30 2497 H 262.653 -2.36003 -0.98673 0
M  V30 2498 H 262.297 -4.57334 -2.20925 0
M  V30 2499 H 262.227 -3.69141 -3.75556 0
M  V30 2500 H 264.718 -2.92171 -2.39676 0
M  V30 2501 H 265.031 -6.35184 -4.40183 0
M  V30 2502 H 263.376 -5.70842 -3.96439 0
M  V30 2503 H 266.567 -3.67194 -2.90321 0
M  V30 2504 H 266.74 -5.23597 -3.81772 0
M  V30 2505 N 260.146 1.09593 -1.13257 0
M  V30 2506 C 261.078 2.16015 -0.766167 0
M  V30 2507 C 262.091 1.61423 0.211303 0
M  V30 2508 O 263.28 1.78498 -0.00863946 0
M  V30 2509 C 260.38 3.38706 -0.114662 0
M  V30 2510 C 259.553 4.22717 -1.12379 0
M  V30 2511 C 258.612 5.23835 -0.498301 0
M  V30 2512 O 257.638 5.573 -1.15781 0
M  V30 2513 N 258.84 5.75886 0.730417 0
M  V30 2514 H 261.605 2.48055 -1.68193 0
M  V30 2515 H 259.166 1.25292 -1.02535 0
M  V30 2516 H 261.158 4.03464 0.315991 0
M  V30 2517 H 259.728 3.04569 0.704011 0
M  V30 2518 H 258.948 3.54122 -1.73179 0
M  V30 2519 H 260.236 4.75673 -1.80589 0
M  V30 2520 H 259.634 5.50911 1.28504 0
M  V30 2521 H 258.191 6.42387 1.10376 0
M  V30 2522 N 261.624 0.925811 1.2754 0
M  V30 2523 C 262.849 0.580924 1.99098 0
M  V30 2524 C 263.274 -0.833555 1.68622 0
M  V30 2525 O 262.632 -1.55903 0.925422 0
M  V30 2526 C 262.68 0.811186 3.51358 0
M  V30 2527 O 261.784 -0.124129 4.12213 0
M  V30 2528 H 261.125 0.223873 0.625122 0
M  V30 2529 H 263.655 1.24455 1.62395 0
M  V30 2530 H 263.665 0.72601 4.01489 0
M  V30 2531 H 262.34 1.84227 3.72872 0
M  V30 2532 H 260.917 0.0108006 3.72898 0
M  V30 2533 N 263.102 -1.41638 0.69111 0
M  V30 2534 C 264.032 -2.3347 0.037248 0
M  V30 2535 C 265.013 -1.51575 -0.771947 0
M  V30 2536 O 266.198 -1.80126 -0.72582 0
M  V30 2537 C 263.328 -3.35354 -0.903064 0
M  V30 2538 C 262.282 -4.27526 -0.201288 0
M  V30 2539 C 261.608 -5.19747 -1.25565 0
M  V30 2540 C 262.908 -5.13959 0.929689 0
M  V30 2541 H 264.602 -2.88397 0.804227 0
M  V30 2542 H 262.148 -1.38669 0.388189 0
M  V30 2543 H 264.101 -3.98519 -1.36969 0
M  V30 2544 H 262.825 -2.78767 -1.70166 0
M  V30 2545 H 261.484 -3.65779 0.245265 0
M  V30 2546 H 261.132 -4.59479 -2.04666 0
M  V30 2547 H 260.832 -5.8225 -0.791128 0
M  V30 2548 H 262.356 -5.85789 -1.72288 0
M  V30 2549 H 263.77 -5.70718 0.543546 0
M  V30 2550 H 262.167 -5.85379 1.32103 0
M  V30 2551 H 263.237 -4.51389 1.77133 0
M  V30 2552 N 264.58 -0.43555 -1.51462 0
M  V30 2553 C 265.49 0.383001 -2.31453 0
M  V30 2554 C 266.506 1.02931 -1.4029 0
M  V30 2555 O 267.682 1.02507 -1.73362 0
M  V30 2556 C 264.747 1.47043 -3.13973 0
M  V30 2557 C 263.808 0.844433 -4.20913 0
M  V30 2558 C 263.041 1.88004 -4.9949 0
M  V30 2559 O 263.264 3.10199 -4.78678 0
M  V30 2560 O 262.198 1.47157 -5.83634 0
M  V30 2561 H 266.024 -0.269964 -3.02498 0
M  V30 2562 H 263.609 -0.19813 -1.4808 0
M  V30 2563 H 265.491 2.10113 -3.65281 0
M  V30 2564 H 264.166 2.10751 -2.45695 0
M  V30 2565 H 263.073 0.175729 -3.73687 0
M  V30 2566 H 264.406 0.250869 -4.9156 0
M  V30 2567 N 266.058 1.56714 -0.166846 0
M  V30 2568 C 267.307 1.95922 0.479318 0
M  V30 2569 C 267.62 1.05529 1.6469 0
M  V30 2570 O 268.826 1.34399 2.35901 0
M  V30 2571 C 267.282 3.48359 0.90412 0
M  V30 2572 C 266.89 4.47369 -0.237621 0
M  V30 2573 C 268.634 3.96394 1.51896 0
M  V30 2574 C 266.541 5.91039 0.206561 0
M  V30 2575 H 265.471 0.731495 0.18284 0
M  V30 2576 H 268.122 1.81728 -0.254363 0
M  V30 2577 H 266.504 3.57955 1.69365 0
M  V30 2578 H 267.678 4.49485 -1.01489 0
M  V30 2579 H 265.993 4.09366 -0.762128 0
M  V30 2580 H 268.59 5.01186 1.86325 0
M  V30 2581 H 268.933 3.39075 2.41524 0
M  V30 2582 H 269.466 3.89796 0.79395 0
M  V30 2583 H 266.205 6.52221 -0.654834 0
M  V30 2584 H 265.725 5.9224 0.949282 0
M  V30 2585 H 267.404 6.43707 0.651939 0
M  V30 2586 N 267.536 -0.106894 1.57237 0
M  V30 2587 C 268.785 -0.811163 1.8467 0
M  V30 2588 C 269.098 -1.80469 0.754342 0
M  V30 2589 O 270.304 -2.55601 0.915439 0
M  V30 2590 C 268.76 -1.49337 3.27454 0
M  V30 2591 C 268.368 -0.540217 4.44731 0
M  V30 2592 C 270.112 -2.18206 3.64124 0
M  V30 2593 C 268.019 -1.22634 5.78545 0
M  V30 2594 H 266.949 -0.306679 0.688813 0
M  V30 2595 H 269.6 -0.0639887 1.83388 0
M  V30 2596 H 267.982 -2.2876 3.23241 0
M  V30 2597 H 269.156 0.221659 4.60267 0
M  V30 2598 H 267.471 0.042146 4.16379 0
M  V30 2599 H 270.068 -2.70253 4.61376 0
M  V30 2600 H 270.411 -2.96562 2.92158 0
M  V30 2601 H 270.944 -1.45658 3.70174 0
M  V30 2602 H 267.683 -0.483832 6.53712 0
M  V30 2603 H 267.203 -1.95993 5.66874 0
M  V30 2604 H 268.882 -1.75615 6.2271 0
M  V30 2605 N 269.014 -1.53014 -0.377408 0
M  V30 2606 C 270.239 -1.72818 -1.14668 0
M  V30 2607 C 270.664 -0.450725 -1.8262 0
M  V30 2608 O 270.022 0.59439 -1.7128 0
M  V30 2609 C 270.07 -2.88627 -2.16164 0
M  V30 2610 O 269.174 -2.56409 -3.22998 0
M  V30 2611 H 268.515 -0.574301 -0.333278 0
M  V30 2612 H 271.045 -1.99853 -0.438152 0
M  V30 2613 H 271.055 -3.14455 -2.59966 0
M  V30 2614 H 269.73 -3.81294 -1.66095 0
M  V30 2615 H 268.307 -2.4136 -2.84253 0
M  V30 2616 N 270.492 0.636531 -1.44174 0
M  V30 2617 C 271.908 0.954104 -1.27941 0
M  V30 2618 C 272.108 2.0039 -0.211248 0
M  V30 2619 O 271.164 2.49236 0.404695 0
M  V30 2620 C 272.477 1.4225 -2.64925 0
M  V30 2621 C 274.025 1.53827 -2.72592 0
M  V30 2622 C 274.5 2.04053 -4.10032 0
M  V30 2623 N 275.991 2.11331 -4.12182 0
M  V30 2624 C 276.726 2.51352 -5.15374 0
M  V30 2625 N 276.222 2.90549 -6.2893 0
M  V30 2626 N 278.015 2.51438 -5.02728 0
M  V30 2627 H 270.166 -0.0578386 -2.12321 0
M  V30 2628 H 272.429 0.0367406 -0.947288 0
M  V30 2629 H 272.135 0.725466 -3.44136 0
M  V30 2630 H 272.009 2.39451 -2.9145 0
M  V30 2631 H 274.396 2.22628 -1.93702 0
M  V30 2632 H 274.477 0.550154 -2.49814 0
M  V30 2633 H 274.121 1.35848 -4.89395 0
M  V30 2634 H 274.051 3.03726 -4.30184 0
M  V30 2635 H 276.542 1.83745 -3.30222 0
M  V30 2636 H 276.855 3.19884 -7.03487 0
M  V30 2637 H 275.2 2.88313 -6.32377 0
M  V30 2638 H 278.391 2.20203 -4.13072 0
M  V30 2639 H 278.564 2.82304 -5.83274 0
M  V30 2640 N 271.97 1.30982 0.876444 0
M  V30 2641 C 273.2 1.23063 1.65949 0
M  V30 2642 C 273.608 -0.207537 1.88058 0
M  V30 2643 O 272.951 -1.14781 1.43426 0
M  V30 2644 C 273.013 1.89768 3.05333 0
M  V30 2645 C 272.677 3.39106 3.0636 0
M  V30 2646 C 273.674 4.3496 2.84791 0
M  V30 2647 C 271.359 3.80693 3.27686 0
M  V30 2648 C 273.353 5.70375 2.84519 0
M  V30 2649 C 271.04 5.16223 3.27043 0
M  V30 2650 C 272.038 6.10875 3.05485 0
M  V30 2651 O 271.726 7.43928 3.04674 0
M  V30 2652 H 271.458 0.426685 0.524324 0
M  V30 2653 H 274.012 1.7329 1.10271 0
M  V30 2654 H 272.242 1.34082 3.6271 0
M  V30 2655 H 273.931 1.75853 3.65829 0
M  V30 2656 H 274.697 4.0416 2.68103 0
M  V30 2657 H 270.576 3.07457 3.43499 0
M  V30 2658 H 274.12 6.44228 2.67611 0
M  V30 2659 H 270.017 5.4666 3.43269 0
M  V30 2660 H 270.785 7.53022 3.2078 0
M  V30 2661 N 273.449 -1.08991 1.13837 0
M  V30 2662 C 274.379 -2.17771 0.842507 0
M  V30 2663 C 275.36 -1.6892 -0.20001 0
M  V30 2664 O 276.545 -1.94113 -0.0579731 0
M  V30 2665 C 273.675 -3.4589 0.312644 0
M  V30 2666 C 272.629 -4.08099 1.28992 0
M  V30 2667 C 271.955 -5.31098 0.619623 0
M  V30 2668 C 273.255 -4.50077 2.65005 0
M  V30 2669 H 274.949 -2.42777 1.75213 0
M  V30 2670 H 272.495 -1.16682 0.843875 0
M  V30 2671 H 274.448 -4.21297 0.0933043 0
M  V30 2672 H 273.172 -3.20419 -0.632382 0
M  V30 2673 H 271.831 -3.34717 1.49533 0
M  V30 2674 H 271.479 -5.0191 -0.33102 0
M  V30 2675 H 271.179 -5.73674 1.27167 0
M  V30 2676 H 272.703 -6.09224 0.409669 0
M  V30 2677 H 274.117 -5.16688 2.48407 0
M  V30 2678 H 272.514 -5.03553 3.26427 0
M  V30 2679 H 273.584 -3.62257 3.22332 0
M  V30 2680 N 274.927 -0.932562 -1.27047 0
M  V30 2681 C 276.343 -0.633544 -1.46487 0
M  V30 2682 C 276.543 0.815746 -1.84249 0
M  V30 2683 O 275.599 1.59319 -1.95892 0
M  V30 2684 C 276.912 -1.58758 -2.55375 0
M  V30 2685 C 278.46 -1.59634 -2.69232 0
M  V30 2686 C 278.935 -2.53747 -3.81283 0
M  V30 2687 N 280.426 -2.51982 -3.88664 0
M  V30 2688 C 281.161 -3.21491 -4.74796 0
M  V30 2689 N 280.657 -4.00395 -5.65381 0
M  V30 2690 N 282.45 -3.10485 -4.68568 0
M  V30 2691 H 274.601 -1.86946 -1.00821 0
M  V30 2692 H 276.864 -0.802897 -0.504044 0
M  V30 2693 H 276.57 -2.62172 -2.34432 0
M  V30 2694 H 276.444 -1.33301 -3.52861 0
M  V30 2695 H 278.831 -0.569488 -2.89553 0
M  V30 2696 H 278.912 -1.89142 -1.72218 0
M  V30 2697 H 278.556 -3.56545 -3.61715 0
M  V30 2698 H 278.486 -2.21532 -4.77735 0
M  V30 2699 H 280.977 -1.94681 -3.23895 0
M  V30 2700 H 281.29 -4.50406 -6.27976 0
M  V30 2701 H 279.635 -4.04498 -5.65161 0
M  V30 2702 H 282.826 -2.48331 -3.96799 0
M  V30 2703 H 282.999 -3.64925 -5.35475 0
M  V30 2704 N 276.405 1.4127 -0.698611 0
M  V30 2705 C 277.315 2.34573 -0.0357891 0
M  V30 2706 C 278.331 1.56393 0.762701 0
M  V30 2707 O 279.507 1.8886 0.699564 0
M  V30 2708 C 276.572 3.35159 0.887089 0
M  V30 2709 C 275.633 4.29225 0.0804634 0
M  V30 2710 C 274.866 5.25006 0.959387 0
M  V30 2711 O 275.089 5.26314 2.19886 0
M  V30 2712 O 274.023 6.00519 0.407439 0
M  V30 2713 H 277.849 2.92838 -0.804957 0
M  V30 2714 H 275.434 1.42175 -0.458966 0
M  V30 2715 H 277.316 3.9689 1.41621 0
M  V30 2716 H 275.991 2.79333 1.6357 0
M  V30 2717 H 274.898 3.70833 -0.493328 0
M  V30 2718 H 276.231 4.88157 -0.629547 0
M  V30 2719 N 277.883 0.443576 1.51229 0
M  V30 2720 C 278.815 -0.400608 2.25672 0
M  V30 2721 C 279.828 -0.980945 1.29928 0
M  V30 2722 O 281.017 -0.874024 1.55638 0
M  V30 2723 C 278.117 -1.57304 3.00181 0
M  V30 2724 C 277.29 -1.11046 4.23069 0
M  V30 2725 C 276.349 -2.15374 4.80105 0
M  V30 2726 O 275.375 -1.74554 5.41774 0
M  V30 2727 N 276.577 -3.47922 4.64683 0
M  V30 2728 H 279.342 0.23745 2.98758 0
M  V30 2729 H 276.903 0.272809 1.59585 0
M  V30 2730 H 278.895 -2.26733 3.35223 0
M  V30 2731 H 277.465 -2.11632 2.30066 0
M  V30 2732 H 276.685 -0.243019 3.9345 0
M  V30 2733 H 277.973 -0.778888 5.02803 0
M  V30 2734 H 277.371 -3.83815 4.15575 0
M  V30 2735 H 275.928 -4.13228 5.0407 0
M  V30 2736 N 279.361 -1.56624 0.175154 0
M  V30 2737 C 280.324 -2.16934 -0.739738 0
M  V30 2738 C 281.324 -1.11842 -1.15533 0
M  V30 2739 O 282.514 -1.37335 -1.07167 0
M  V30 2740 C 279.646 -2.75531 -2.00738 0
M  V30 2741 H 280.839 -2.99131 -0.214639 0
M  V30 2742 H 278.392 -1.56123 -0.0744197 0
M  V30 2743 H 279.127 -1.97078 -2.57548 0
M  V30 2744 H 278.912 -3.52444 -1.71831 0
M  V30 2745 H 280.402 -3.21904 -2.66021 0
M  V30 2746 N 280.839 0.0985539 -1.57292 0
M  V30 2747 C 282.067 0.816318 -1.90115 0
M  V30 2748 C 282.482 1.72451 -0.768509 0
M  V30 2749 O 281.839 1.80643 0.259687 0
M  V30 2750 C 281.89 1.63259 -3.22535 0
M  V30 2751 O 281.611 0.760934 -4.31441 0
M  V30 2752 C 283.112 2.45372 -3.69199 0
M  V30 2753 H 280.332 0.233595 -0.629027 0
M  V30 2754 H 282.876 0.0768229 -2.04356 0
M  V30 2755 H 281.031 2.32463 -3.09903 0
M  V30 2756 H 281.445 1.32595 -5.07463 0
M  V30 2757 H 282.919 2.98144 -4.64558 0
M  V30 2758 H 283.396 3.23677 -2.96867 0
M  V30 2759 H 284.002 1.81373 -3.84687 0
M  V30 2760 N 282.317 1.53212 0.369288 0
M  V30 2761 C 283.565 1.68881 1.11012 0
M  V30 2762 C 283.886 0.441285 1.89941 0
M  V30 2763 O 283.156 -0.544623 1.88177 0
M  V30 2764 H 281.736 0.622569 0.412816 0
M  V30 2765 H 284.398 1.90391 0.416802 0
M  V30 2766 H 283.494 2.54822 1.80201 0
M  V30 2767 N 283.795 -0.628877 1.44509 0
M  V30 2768 C 284.758 -1.72263 1.51188 0
M  V30 2769 C 285.758 -1.55907 0.39367 0
M  V30 2770 O 286.948 -1.61361 0.656377 0
M  V30 2771 C 284.08 -3.11365 1.38798 0
M  V30 2772 H 285.273 -1.67714 2.4862 0
M  V30 2773 H 282.826 -0.842737 1.31634 0
M  V30 2774 H 283.561 -3.21507 0.424693 0
M  V30 2775 H 283.346 -3.24644 2.19884 0
M  V30 2776 H 284.836 -3.91075 1.46458 0
M  V30 2777 N 285.273 -1.31445 -0.869486 0
M  V30 2778 C 286.22 -1.19135 -1.97675 0
M  V30 2779 C 287.19 -0.0770266 -1.65921 0
M  V30 2780 O 288.375 -0.249972 -1.89155 0
M  V30 2781 C 285.515 -0.905149 -3.33018 0
M  V30 2782 C 284.628 -2.10285 -3.77365 0
M  V30 2783 C 283.763 -1.75339 -5.01427 0
M  V30 2784 C 282.802 -2.91515 -5.38224 0
M  V30 2785 N 281.939 -2.56762 -6.53466 0
M  V30 2786 H 286.779 -2.13853 -2.07535 0
M  V30 2787 H 284.316 -1.06379 -1.01597 0
M  V30 2788 H 286.274 -0.719765 -4.10944 0
M  V30 2789 H 284.904 0.00519624 -3.228 0
M  V30 2790 H 283.956 -2.39899 -2.95216 0
M  V30 2791 H 285.268 -2.97237 -4.00564 0
M  V30 2792 H 284.422 -1.53266 -5.87022 0
M  V30 2793 H 283.161 -0.855801 -4.80133 0
M  V30 2794 H 282.166 -3.14237 -4.51149 0
M  V30 2795 H 283.391 -3.81985 -5.61484 0
M  V30 2796 H 281.337 -1.69526 -6.33717 0
M  V30 2797 H 281.254 -3.37243 -6.76612 0
M  V30 2798 H 282.522 -2.38083 -7.42251 0
M  V30 2799 N 286.751 1.08385 -1.14413 0
M  V30 2800 C 288.028 1.77429 -0.823297 0
M  V30 2801 C 288.408 1.9974 0.683163 0
M  V30 2802 O 287.756 1.60739 1.62405 0
M  V30 2803 C 287.966 3.09004 -1.62227 0
M  V30 2804 C 289.314 3.83532 -1.82177 0
M  V30 2805 O 290.338 3.18786 -1.58915 0
M  V30 2806 O 289.197 4.99792 -2.21067 0
M  V30 2807 H 286.291 0.769999 -0.301712 0
M  V30 2808 H 288.837 1.14846 -1.24934 0
M  V30 2809 H 287.609 2.88316 -2.64555 0
M  V30 2810 H 287.232 3.79316 -1.19187 0
M  V30 2811 N 288.23 0.939286 1.26551 0
M  V30 2812 C 289.458 0.602536 1.97932 0
M  V30 2813 C 289.873 -0.82206 1.69964 0
M  V30 2814 O 289.23 -1.54789 0.966784 0
M  V30 2815 C 289.281 0.832946 3.51773 0
M  V30 2816 O 289.002 2.20151 3.78768 0
M  V30 2817 C 290.503 0.506483 4.40397 0
M  V30 2818 H 287.723 0.227248 0.631347 0
M  V30 2819 H 290.267 1.25948 1.61113 0
M  V30 2820 H 288.422 0.222644 3.8676 0
M  V30 2821 H 288.836 2.26013 4.73306 0
M  V30 2822 H 290.31 0.718333 5.47306 0
M  V30 2823 H 290.787 -0.558451 4.35635 0
M  V30 2824 H 291.393 1.09543 4.10951 0
M  V30 2825 N 289.708 -1.40897 0.706093 0
M  V30 2826 C 290.655 -2.30751 0.0474474 0
M  V30 2827 C 291.625 -1.47678 -0.76029 0
M  V30 2828 O 292.81 -1.76441 -0.726177 0
M  V30 2829 C 289.95 -3.33815 -0.875309 0
M  V30 2830 C 289.063 -4.31961 -0.0580623 0
M  V30 2831 C 288.198 -5.22093 -0.979425 0
M  V30 2832 C 287.237 -6.11902 -0.155706 0
M  V30 2833 N 286.374 -6.94482 -1.03144 0
M  V30 2834 H 291.214 -2.86513 0.819413 0
M  V30 2835 H 288.751 -1.41102 0.415783 0
M  V30 2836 H 290.709 -3.92129 -1.42446 0
M  V30 2837 H 289.339 -2.79579 -1.61356 0
M  V30 2838 H 288.391 -3.75507 0.608147 0
M  V30 2839 H 289.703 -4.95415 0.580082 0
M  V30 2840 H 288.857 -5.85292 -1.59744 0
M  V30 2841 H 287.596 -4.5889 -1.65141 0
M  V30 2842 H 286.601 -5.47742 0.475309 0
M  V30 2843 H 287.826 -6.77162 0.512635 0
M  V30 2844 H 285.772 -6.33877 -1.68924 0
M  V30 2845 H 285.689 -7.54665 -0.449108 0
M  V30 2846 H 286.957 -7.6214 -1.63593 0
M  V30 2847 N 291.186 -0.45159 -1.50991 0
M  V30 2848 C 292.597 0.00818571 -1.86698 0
M  V30 2849 C 292.948 1.40661 -1.3678 0
M  V30 2850 O 292.073 2.0391 -0.724546 0
M  V30 2851 C 292.668 0.0216303 -3.38793 0
M  V30 2852 C 291.227 0.425865 -3.73983 0
M  V30 2853 C 290.374 -0.372163 -2.74791 0
M  V30 2854 H 293.325 -0.666785 -1.44013 0
M  V30 2855 H 293.346 0.828078 -3.7138 0
M  V30 2856 H 292.858 -0.996288 -3.75094 0
M  V30 2857 H 290.959 1.44886 -3.43277 0
M  V30 2858 H 291.072 0.140761 -4.78893 0
M  V30 2859 H 289.436 0.171498 -2.54122 0
M  V30 2860 H 290.219 -1.38922 -3.13935 0
M  V30 2861 N 292.664 1.56529 -0.183458 0
M  V30 2862 C 293.597 2.14417 0.781052 0
M  V30 2863 C 294.575 1.07761 1.21763 0
M  V30 2864 O 295.759 1.35807 1.30724 0
M  V30 2865 C 292.886 2.69361 2.05335 0
M  V30 2866 C 291.932 3.885 1.75982 0
M  V30 2867 S 292.765 5.27568 0.918256 0
M  V30 2868 C 293.921 5.85926 2.20095 0
M  V30 2869 H 294.154 2.95893 0.2889 0
M  V30 2870 H 291.687 1.54368 0.0313844 0
M  V30 2871 H 293.645 3.01662 2.78406 0
M  V30 2872 H 292.306 1.87949 2.51663 0
M  V30 2873 H 291.499 4.25314 2.70415 0
M  V30 2874 H 291.101 3.57149 1.10999 0
M  V30 2875 H 293.393 5.99579 3.15453 0
M  V30 2876 H 294.336 6.82761 1.87731 0
M  V30 2877 H 294.744 5.14438 2.32409 0
M  V30 2878 N 294.142 -0.090211 1.57342 0
M  V30 2879 C 295.39 -0.791241 1.85967 0
M  V30 2880 C 295.711 -1.7903 0.772859 0
M  V30 2881 O 294.981 -1.94872 -0.200398 0
M  V30 2882 H 293.561 -0.295205 0.686195 0
M  V30 2883 H 296.223 -0.0706782 1.94772 0
M  V30 2884 H 295.319 -1.31882 2.82867 0
M  V30 2885 N 295.62 -1.53406 -0.361157 0
M  V30 2886 C 297.036 -1.43277 -0.703124 0
M  V30 2887 C 297.236 -0.575384 -1.9311 0
M  V30 2888 O 296.292 -0.0595362 -2.5243 0
M  V30 2889 C 297.605 -2.8653 -0.9122 0
M  V30 2890 C 299.153 -2.96191 -1.01193 0
M  V30 2891 C 299.628 -4.40514 -1.25345 0
M  V30 2892 N 301.119 -4.43962 -1.32105 0
M  V30 2893 C 301.854 -5.52746 -1.5251 0
M  V30 2894 N 301.35 -6.71567 -1.70203 0
M  V30 2895 N 303.143 -5.40331 -1.54916 0
M  V30 2896 H 295.294 -2.07654 0.446475 0
M  V30 2897 H 297.557 -0.937944 0.137715 0
M  V30 2898 H 297.263 -3.51605 -0.0816414 0
M  V30 2899 H 297.137 -3.30441 -1.81903 0
M  V30 2900 H 299.524 -2.31266 -1.83303 0
M  V30 2901 H 299.605 -2.55667 -0.0823929 0
M  V30 2902 H 299.249 -5.06014 -0.437346 0
M  V30 2903 H 299.179 -4.78614 -2.19627 0
M  V30 2904 H 301.67 -3.58332 -1.20028 0
M  V30 2905 H 301.983 -7.50241 -1.85359 0
M  V30 2906 H 300.328 -6.74545 -1.67373 0
M  V30 2907 H 303.519 -4.46465 -1.40663 0
M  V30 2908 H 303.692 -6.25173 -1.70477 0
M  V30 2909 N 297.098 0.621204 -1.44841 0
M  V30 2910 C 298.323 1.41244 -1.51871 0
M  V30 2911 C 298.748 1.87519 -0.147764 0
M  V30 2912 O 298.106 1.59334 0.865 0
M  V30 2913 C 298.154 2.60221 -2.49634 0
M  V30 2914 O 297.258 3.60395 -2.00473 0
M  V30 2915 H 296.599 0.42223 -0.512463 0
M  V30 2916 H 299.129 0.757305 -1.90069 0
M  V30 2917 H 299.139 3.0764 -2.67996 0
M  V30 2918 H 297.814 2.25887 -3.4921 0
M  V30 2919 H 296.391 3.19717 -1.91925 0
M  V30 2920 N 298.576 1.31904 0.862503 0
M  V30 2921 C 299.824 1.21776 1.61292 0
M  V30 2922 C 300.145 -0.222413 1.93727 0
M  V30 2923 O 299.415 -1.1451 1.58947 0
M  V30 2924 H 297.995 0.447717 0.597962 0
M  V30 2925 H 300.657 1.65326 1.03215 0
M  V30 2926 H 299.753 1.7948 2.5533 0
M  V30 2927 N 300.054 -1.07777 1.14986 0
M  V30 2928 C 301.017 -2.13041 0.845358 0
M  V30 2929 C 302.017 -1.60071 -0.152931 0
M  V30 2930 O 303.207 -1.74033 0.0761879 0
M  V30 2931 C 300.339 -3.39896 0.261383 0
M  V30 2932 H 301.532 -2.41485 1.77834 0
M  V30 2933 H 299.085 -1.23595 0.956757 0
M  V30 2934 H 299.82 -3.17091 -0.68 0
M  V30 2935 H 299.605 -3.79642 0.980514 0
M  V30 2936 H 301.095 -4.17548 0.0657687 0
M  V30 2937 N 301.532 -0.945985 -1.26051 0
M  V30 2938 C 302.76 -0.613025 -1.9761 0
M  V30 2939 C 303.175 0.813035 -1.70397 0
M  V30 2940 O 302.532 1.54274 -0.974979 0
M  V30 2941 C 302.583 -0.85159 -3.51326 0
M  V30 2942 O 302.304 -2.22157 -3.77595 0
M  V30 2943 C 303.805 -0.529831 -4.40122 0
M  V30 2944 H 301.025 -0.230593 -0.630133 0
M  V30 2945 H 303.569 -1.268 -1.60443 0
M  V30 2946 H 301.724 -0.243151 -3.86636 0
M  V30 2947 H 302.138 -2.2852 -4.721 0
M  V30 2948 H 303.612 -0.747348 -5.46917 0
M  V30 2949 H 304.089 0.535341 -4.35925 0
M  V30 2950 H 304.695 -1.11721 -4.10364 0
M  V30 2951 N 303.011 1.40521 -0.713556 0
M  V30 2952 C 304.236 2.05759 -0.26035 0
M  V30 2953 C 304.661 1.53403 1.08854 0
M  V30 2954 O 304.019 0.668535 1.68524 0
M  V30 2955 C 304.067 3.59745 -0.248122 0
M  V30 2956 O 303.171 4.05123 0.77131 0
M  V30 2957 H 302.512 0.652564 -0.122703 0
M  V30 2958 H 305.042 1.79958 -0.973467 0
M  V30 2959 H 305.052 4.07911 -0.0851129 0
M  V30 2960 H 303.727 3.97218 -1.2325 0
M  V30 2961 H 302.304 3.68422 0.57619 0
M  V30 2962 N 304.489 0.459591 1.5075 0
M  V30 2963 C 305.905 0.113092 1.59199 0
M  V30 2964 C 306.105 -1.37951 1.46874 0
M  V30 2965 O 305.161 -2.15168 1.32132 0
M  V30 2966 C 306.474 0.653043 2.93523 0
M  V30 2967 C 308.022 0.615449 3.0689 0
M  V30 2968 C 308.497 1.13275 4.43771 0
M  V30 2969 N 309.988 1.09167 4.50152 0
M  V30 2970 C 310.723 1.46256 5.54434 0
M  V30 2971 N 310.219 1.90739 6.66026 0
M  V30 2972 N 312.012 1.37932 5.44914 0
M  V30 2973 H 304.163 1.43049 1.57005 0
M  V30 2974 H 306.426 0.590861 0.741341 0
M  V30 2975 H 306.132 1.69822 3.07983 0
M  V30 2976 H 306.006 0.0902132 3.77092 0
M  V30 2977 H 308.393 -0.420793 2.92084 0
M  V30 2978 H 308.474 1.21495 2.25106 0
M  V30 2979 H 308.118 2.16757 4.59324 0
M  V30 2980 H 308.048 0.509576 5.24129 0
M  V30 2981 H 310.539 0.76528 3.7007 0
M  V30 2982 H 310.852 2.17218 7.41644 0
M  V30 2983 H 309.197 1.94683 6.67176 0
M  V30 2984 H 312.388 1.0303 4.56621 0
M  V30 2985 H 312.561 1.67164 6.26067 0
M  V30 2986 N 305.967 -1.56429 0.191757 0
M  V30 2987 C 306.914 -2.18936 -0.730454 0
M  V30 2988 C 307.884 -1.13557 -1.21219 0
M  V30 2989 O 309.069 -1.41794 -1.27668 0
M  V30 2990 C 306.209 -2.85013 -1.9458 0
M  V30 2991 C 305.322 -4.04909 -1.50574 0
M  V30 2992 C 304.457 -4.58853 -2.67634 0
M  V30 2993 C 303.496 -5.71114 -2.20217 0
M  V30 2994 N 302.633 -6.19478 -3.30442 0
M  V30 2995 H 307.473 -2.97389 -0.190664 0
M  V30 2996 H 305.01 -1.46869 -0.0823694 0
M  V30 2997 H 306.968 -3.21492 -2.65893 0
M  V30 2998 H 305.598 -2.09129 -2.45896 0
M  V30 2999 H 304.65 -3.74115 -0.688605 0
M  V30 3000 H 305.962 -4.86113 -1.11784 0
M  V30 3001 H 305.116 -4.97619 -3.47074 0
M  V30 3002 H 303.855 -3.76749 -3.09696 0
M  V30 3003 H 302.86 -5.31879 -1.3923 0
M  V30 3004 H 304.085 -6.55033 -1.79189 0
M  V30 3005 H 302.031 -5.40297 -3.72041 0
M  V30 3006 H 301.948 -6.95725 -2.9581 0
M  V30 3007 H 303.216 -6.62898 -4.10106 0
M  V30 3008 N 307.445 0.0818655 -1.57387 0
M  V30 3009 C 308.408 1.08265 -2.02018 0
M  V30 3010 C 309.408 1.32183 -0.915664 0
M  V30 3011 O 310.598 1.28073 -1.18081 0
M  V30 3012 C 307.73 2.42871 -2.39221 0
M  V30 3013 H 308.923 0.698204 -2.91659 0
M  V30 3014 H 306.476 0.327303 -1.52835 0
M  V30 3015 H 307.211 2.86167 -1.52575 0
M  V30 3016 H 306.996 2.26855 -3.19811 0
M  V30 3017 H 308.486 3.14826 -2.74362 0
M  V30 3018 N 308.923 1.53595 0.353017 0
M  V30 3019 C 309.853 1.83902 1.43883 0
M  V30 3020 C 310.834 0.693421 1.55324 0
M  V30 3021 O 312.019 0.944452 1.69687 0
M  V30 3022 C 309.149 2.04016 2.8106 0
M  V30 3023 C 308.103 3.19814 2.84434 0
M  V30 3024 C 307.429 3.25244 4.24406 0
M  V30 3025 C 308.729 4.58133 2.50822 0
M  V30 3026 H 310.423 2.74835 1.1877 0
M  V30 3027 H 307.969 1.32242 0.569917 0
M  V30 3028 H 309.922 2.238 3.57059 0
M  V30 3029 H 308.646 1.09804 3.07588 0
M  V30 3030 H 307.305 2.9987 2.10887 0
M  V30 3031 H 306.953 2.28646 4.48029 0
M  V30 3032 H 306.653 4.03054 4.27576 0
M  V30 3033 H 308.177 3.47228 5.0226 0
M  V30 3034 H 309.591 4.77995 3.16534 0
M  V30 3035 H 307.988 5.38276 2.6529 0
M  V30 3036 H 309.058 4.62387 1.46034 0
M  V30 3037 N 310.401 -0.613514 1.45168 0
M  V30 3038 C 311.311 -1.75296 1.55912 0
M  V30 3039 C 312.327 -1.68244 0.443856 0
M  V30 3040 O 313.503 -1.88706 0.70371 0
M  V30 3041 C 310.568 -3.1174 1.5172 0
M  V30 3042 C 309.629 -3.30291 2.74238 0
M  V30 3043 C 308.862 -4.60226 2.70236 0
M  V30 3044 O 309.085 -5.42168 1.77229 0
M  V30 3045 O 308.019 -4.81361 3.61352 0
M  V30 3046 H 311.845 -1.69183 2.52212 0
M  V30 3047 H 309.43 -0.776886 1.27612 0
M  V30 3048 H 311.312 -3.93044 1.51968 0
M  V30 3049 H 309.987 -3.18357 0.585697 0
M  V30 3050 H 308.894 -2.48598 2.79553 0
M  V30 3051 H 310.227 -3.28547 3.66494 0
M  V30 3052 N 311.879 -1.3236 -0.855495 0
M  V30 3053 C 313.107 -1.2587 -1.64208 0
M  V30 3054 C 313.522 0.173457 -1.88002 0
M  V30 3055 O 312.879 1.11027 -1.44842 0
M  V30 3056 C 312.93 -2.01424 -3.00184 0
M  V30 3057 O 312.651 -3.39051 -2.77445 0
M  V30 3058 C 314.152 -2.01948 -3.94629 0
M  V30 3059 H 311.372 -0.434318 -0.511477 0
M  V30 3060 H 313.916 -1.74469 -1.0668 0
M  V30 3061 H 312.071 -1.56549 -3.5436 0
M  V30 3062 H 312.485 -3.77711 -3.63916 0
M  V30 3063 H 313.959 -2.59297 -4.87308 0
M  V30 3064 H 314.436 -1.00554 -4.27534 0
M  V30 3065 H 315.042 -2.46767 -3.4639 0
M  V30 3066 N 313.357 1.07166 -1.15556 0
M  V30 3067 C 314.287 2.16403 -0.877046 0
M  V30 3068 C 315.268 1.69217 0.173111 0
M  V30 3069 O 316.453 1.94181 0.027084 0
M  V30 3070 C 313.583 3.45349 -0.367632 0
M  V30 3071 C 312.537 4.05995 -1.35468 0
M  V30 3072 C 311.863 5.30045 -0.704038 0
M  V30 3073 C 313.163 4.45804 -2.72132 0
M  V30 3074 H 314.857 2.39959 -1.79053 0
M  V30 3075 H 312.403 1.15325 -0.862331 0
M  V30 3076 H 314.356 4.21095 -0.160317 0
M  V30 3077 H 313.08 3.21385 0.581326 0
M  V30 3078 H 311.739 3.32296 -1.54839 0
M  V30 3079 H 311.387 5.02373 0.251128 0
M  V30 3080 H 311.087 5.71579 -1.36277 0
M  V30 3081 H 312.611 6.08495 -0.50654 0
M  V30 3082 H 314.025 5.12671 -2.56595 0
M  V30 3083 H 312.422 4.98296 -3.34397 0
M  V30 3084 H 313.492 3.57083 -3.28054 0
M  V30 3085 N 314.835 0.952656 1.25548 0
M  V30 3086 C 316.251 0.656769 1.4546 0
M  V30 3087 C 316.451 -0.78633 1.85524 0
M  V30 3088 O 315.507 -1.56183 1.98402 0
M  V30 3089 C 316.82 1.62801 2.52817 0
M  V30 3090 C 318.368 1.63897 2.66659 0
M  V30 3091 C 318.843 2.5978 3.77198 0
M  V30 3092 N 320.334 2.58133 3.84606 0
M  V30 3093 C 321.069 3.29003 4.69621 0
M  V30 3094 N 320.565 4.09339 5.58939 0
M  V30 3095 N 322.358 3.179 4.63569 0
M  V30 3096 H 314.509 1.88526 0.978344 0
M  V30 3097 H 316.772 0.810815 0.491206 0
M  V30 3098 H 316.478 2.65869 2.30232 0
M  V30 3099 H 316.352 1.38898 3.50695 0
M  V30 3100 H 318.739 0.615481 2.8861 0
M  V30 3101 H 318.82 1.91858 1.69187 0
M  V30 3102 H 318.464 3.62254 3.55997 0
M  V30 3103 H 318.394 2.29105 4.7415 0
M  V30 3104 H 320.885 1.99809 3.20757 0
M  V30 3105 H 321.198 4.6034 6.20731 0
M  V30 3106 H 319.543 4.13438 5.58654 0
M  V30 3107 H 322.734 2.54612 3.92798 0
M  V30 3108 H 322.907 3.73398 5.29602 0
M  V30 3109 N 316.313 -1.40141 0.720998 0
M  V30 3110 C 317.729 -1.54632 0.395113 0
M  V30 3111 C 317.929 -1.69115 -1.09555 0
M  V30 3112 O 316.985 -1.68377 -1.88163 0
M  V30 3113 C 318.298 -2.77177 1.1659 0
M  V30 3114 C 319.846 -2.91 1.15274 0
M  V30 3115 C 320.321 -4.16465 1.90579 0
M  V30 3116 N 321.812 -4.23476 1.87675 0
M  V30 3117 C 322.547 -5.19475 2.42762 0
M  V30 3118 N 322.043 -6.21348 3.06428 0
M  V30 3119 N 323.836 -5.11592 2.32874 0
M  V30 3120 H 315.987 -1.28986 1.68749 0
M  V30 3121 H 318.25 -0.62412 0.713567 0
M  V30 3122 H 317.956 -2.72771 2.22011 0
M  V30 3123 H 317.83 -3.69442 0.76108 0
M  V30 3124 H 320.217 -2.94907 0.106702 0
M  V30 3125 H 320.298 -1.99838 1.59682 0
M  V30 3126 H 319.942 -4.1332 2.95176 0
M  V30 3127 H 319.872 -5.06646 1.43587 0
M  V30 3128 H 322.363 -3.50497 1.41281 0
M  V30 3129 H 322.676 -6.91034 3.45965 0
M  V30 3130 H 321.021 -6.21777 3.10514 0
M  V30 3131 H 324.212 -4.30936 1.82789 0
M  V30 3132 H 324.385 -5.86233 2.76106 0
M  V30 3133 N 317.792 -0.46758 -1.50504 0
M  V30 3134 C 319.038 0.0887532 -2.02606 0
M  V30 3135 C 319.371 1.39686 -1.34913 0
M  V30 3136 O 318.646 1.88644 -0.473694 0
M  V30 3137 C 318.929 0.276206 -3.59039 0
M  V30 3138 C 318.782 -1.05267 -4.37309 0
M  V30 3139 C 320.101 1.03235 -4.27821 0
M  V30 3140 H 317.22 0.0307814 -0.736357 0
M  V30 3141 H 319.862 -0.612485 -1.79857 0
M  V30 3142 H 318.012 0.8735 -3.78553 0
M  V30 3143 H 319.684 -1.68628 -4.29374 0
M  V30 3144 H 317.927 -1.65015 -4.01189 0
M  V30 3145 H 318.598 -0.875197 -5.45018 0
M  V30 3146 H 321.074 0.526111 -4.12761 0
M  V30 3147 H 319.95 1.1323 -5.37094 0
M  V30 3148 H 320.211 2.06806 -3.90748 0
M  V30 3149 N 319.27 1.56325 -0.20005 0
M  V30 3150 C 320.518 1.97329 0.436547 0
M  V30 3151 C 320.839 1.08826 1.61808 0
M  V30 3152 O 320.109 0.160604 1.95241 0
M  V30 3153 H 318.689 0.728714 0.164272 0
M  V30 3154 H 321.351 1.92761 -0.287937 0
M  V30 3155 H 320.447 3.02264 0.777353 0
M  V30 3156 N 320.748 -0.0735177 1.57428 0
M  V30 3157 C 322.025 -0.805903 1.78226 0
M  V30 3158 C 322.405 -1.95874 0.787189 0
M  V30 3159 O 321.753 -2.2779 -0.180029 0
M  V30 3160 C 321.963 -1.28045 3.24662 0
M  V30 3161 C 323.311 -1.71453 3.88444 0
M  V30 3162 O 324.335 -1.37616 3.28543 0
M  V30 3163 O 323.194 -2.34093 4.93825 0
M  V30 3164 H 320.288 -0.386041 0.73137 0
M  V30 3165 H 322.834 -0.0537269 1.69615 0
M  V30 3166 H 321.606 -0.455476 3.8864 0
M  V30 3167 H 321.229 -2.094 3.37991 0
M  V30 3168 N 322.226 -1.5378 -0.344866 0
M  V30 3169 C 323.474 -1.70625 -1.08311 0
M  V30 3170 C 323.795 -0.471447 -1.89215 0
M  V30 3171 O 323.065 0.514616 -1.8902 0
M  V30 3172 H 321.645 -0.629058 -0.402859 0
M  V30 3173 H 324.307 -1.9103 -0.386459 0
M  V30 3174 H 323.403 -2.57656 -1.76124 0
M  V30 3175 N 323.704 0.605807 -1.45491 0
M  V30 3176 C 324.95 1.36679 -1.49823 0
M  V30 3177 C 325.283 1.93693 -0.140175 0
M  V30 3178 O 324.558 1.75158 0.845581 0
M  V30 3179 C 324.841 2.51337 -2.57879 0
M  V30 3180 C 324.694 1.99508 -4.03134 0
M  V30 3181 C 326.013 3.53463 -2.62205 0
M  V30 3182 H 323.132 0.495617 -0.545466 0
M  V30 3183 H 325.774 0.682732 -1.7731 0
M  V30 3184 H 323.924 3.09691 -2.34571 0
M  V30 3185 H 325.596 1.45789 -4.37656 0
M  V30 3186 H 323.839 1.30496 -4.13707 0
M  V30 3187 H 324.51 2.82169 -4.74431 0
M  V30 3188 H 326.986 3.04953 -2.83095 0
M  V30 3189 H 325.862 4.31178 -3.39672 0
M  V30 3190 H 326.123 4.09197 -1.67363 0
M  V30 3191 N 325.182 1.32811 0.848464 0
M  V30 3192 C 326.114 1.18095 1.96433 0
M  V30 3193 C 327.127 0.114354 1.62398 0
M  V30 3194 O 328.316 0.363892 1.74751 0
M  V30 3195 C 325.416 0.786798 3.2964 0
M  V30 3196 C 324.589 1.943 3.91875 0
M  V30 3197 C 323.648 1.53138 5.03423 0
M  V30 3198 O 322.674 2.24432 5.23086 0
M  V30 3199 N 323.876 0.430915 5.78898 0
M  V30 3200 H 326.641 2.14218 2.09597 0
M  V30 3201 H 324.202 1.2543 1.02367 0
M  V30 3202 H 326.194 0.493715 4.01677 0
M  V30 3203 H 324.764 -0.0834541 3.12489 0
M  V30 3204 H 323.984 2.40224 3.12547 0
M  V30 3205 H 325.272 2.71689 4.30189 0
M  V30 3206 H 324.67 -0.162333 5.65467 0
M  V30 3207 H 323.227 0.197466 6.51501 0
M  V30 3208 N 326.66 -1.06551 1.16123 0
M  V30 3209 C 328.076 -1.3142 0.905585 0
M  V30 3210 C 328.276 -1.96571 -0.442964 0
M  V30 3211 O 327.332 -2.23068 -1.18308 0
M  V30 3212 C 328.645 -2.19741 2.05267 0
M  V30 3213 C 330.193 -2.33165 2.08813 0
M  V30 3214 C 330.668 -3.24838 3.22868 0
M  V30 3215 N 332.159 -3.32421 3.22568 0
M  V30 3216 C 332.894 -4.0344 4.0746 0
M  V30 3217 N 332.39 -4.77003 5.02434 0
M  V30 3218 N 334.183 -3.99464 3.95456 0
M  V30 3219 H 326.334 -0.626548 2.02949 0
M  V30 3220 H 328.597 -0.338777 0.8854 0
M  V30 3221 H 328.303 -1.79142 3.02657 0
M  V30 3222 H 328.177 -3.20313 1.99198 0
M  V30 3223 H 330.564 -2.73013 1.12018 0
M  V30 3224 H 330.645 -1.3227 2.18948 0
M  V30 3225 H 330.289 -2.85708 4.19921 0
M  V30 3226 H 330.219 -4.25707 3.0997 0
M  V30 3227 H 332.71 -2.79994 2.53795 0
M  V30 3228 H 333.023 -5.28712 5.63634 0
M  V30 3229 H 331.368 -4.75992 5.06415 0
M  V30 3230 H 334.559 -3.4111 3.20564 0
M  V30 3231 H 334.732 -4.54544 4.61837 0
M  V30 3232 N 328.138 -0.959301 -1.25041 0
M  V30 3233 C 329.086 -0.474437 -2.2771 0
M  V30 3234 C 330.08 0.457697 -1.631 0
M  V30 3235 O 331.286 0.333912 -1.76876 0
M  V30 3236 H 327.661 -0.134936 -0.739795 0
M  V30 3237 H 329.632 -1.35251 -2.65988 0
M  V30 3238 C 328.381 0.227884 -3.46952 0
M  V30 3239 H 327.704 -0.480248 -3.96905 0
M  V30 3240 H 329.144 0.531091 -4.20661 0
M  V30 3241 C 327.603 1.452 -3.04004 0
M  V30 3242 O 328.133 2.54949 -3.10426 0
M  V30 3243 N 326.339 1.31502 -2.59144 0
M  V30 3244 H 325.886 0.422065 -2.54119 0
M  V30 3245 H 325.844 2.13521 -2.30773 0
M  V30 3246 N 329.616 1.39756 -0.72842 0
M  V30 3247 C 330.566 2.2792 -0.0603424 0
M  V30 3248 C 331.55 1.43922 0.719399 0
M  V30 3249 O 332.742 1.66895 0.589489 0
M  V30 3250 C 329.871 3.32582 0.851104 0
M  V30 3251 C 328.957 4.24049 0.0658641 0
M  V30 3252 N 329.348 4.96653 -0.957578 0
M  V30 3253 C 327.646 4.45013 0.296509 0
M  V30 3254 C 328.347 5.63836 -1.43052 0
M  V30 3255 N 327.323 5.38397 -0.750315 0
M  V30 3256 H 331.125 2.81504 -0.84455 0
M  V30 3257 H 328.639 1.5236 -0.562155 0
M  V30 3258 H 330.636 3.94603 1.34514 0
M  V30 3259 H 329.296 2.80558 1.63454 0
M  V30 3260 H 330.307 5.00297 -1.33877 0
M  V30 3261 H 326.984 4.03943 1.05527 0
M  V30 3262 H 328.374 6.31974 -2.28163 0
M  V30 3263 N 331.094 0.475555 1.50254 0
M  V30 3264 C 332.004 -0.321501 2.32387 0
M  V30 3265 C 333.02 -0.991755 1.42969 0
M  V30 3266 O 334.196 -0.978747 1.76018 0
M  V30 3267 C 331.261 -1.38667 3.17762 0
M  V30 3268 C 330.322 -0.732538 4.23004 0
M  V30 3269 C 329.555 -1.74695 5.04299 0
M  V30 3270 O 329.778 -2.97399 4.86734 0
M  V30 3271 O 328.712 -1.31631 5.8733 0
M  V30 3272 H 332.538 0.350071 3.01676 0
M  V30 3273 H 330.123 0.237321 1.47503 0
M  V30 3274 H 332.005 -2.00354 3.70724 0
M  V30 3275 H 330.68 -2.04163 2.51196 0
M  V30 3276 H 329.587 -0.0765902 3.74022 0
M  V30 3277 H 330.92 -0.120452 4.92053 0
M  V30 3278 N 332.573 -1.56217 0.208337 0
M  V30 3279 C 333.801 -2.02337 -0.43215 0
M  V30 3280 C 334.216 -1.08834 -1.54275 0
M  V30 3281 O 333.573 -0.0955462 -1.8225 0
M  V30 3282 C 333.624 -3.48072 -0.976138 0
M  V30 3283 O 333.345 -4.38007 0.0901621 0
M  V30 3284 C 334.846 -4.09773 -1.69119 0
M  V30 3285 H 332.066 -0.662385 -0.10718 0
M  V30 3286 H 334.61 -2.01966 0.320923 0
M  V30 3287 H 332.765 -3.49099 -1.67954 0
M  V30 3288 H 333.179 -5.23543 -0.316701 0
M  V30 3289 H 334.653 -5.13556 -2.02397 0
M  V30 3290 H 335.13 -3.53999 -2.59964 0
M  V30 3291 H 335.736 -4.12556 -1.03332 0
M  V30 3292 N 334.051 0.0651679 -1.57465 0
M  V30 3293 C 335.014 1.06117 -2.03155 0
M  V30 3294 C 336.014 1.31204 -0.929632 0
M  V30 3295 O 337.204 1.26813 -1.19432 0
M  V30 3296 C 334.336 2.4032 -2.41783 0
M  V30 3297 H 335.529 0.667231 -2.92383 0
M  V30 3298 H 333.082 0.311075 -1.53173 0
M  V30 3299 H 333.817 2.84532 -1.55601 0
M  V30 3300 H 333.602 2.23451 -3.22199 0
M  V30 3301 H 335.092 3.11898 -2.77685 0
M  V30 3302 N 335.529 1.53961 0.336706 0
M  V30 3303 C 336.776 1.71536 1.07618 0
M  V30 3304 C 337.104 0.482125 1.8843 0
M  V30 3305 O 336.359 -0.536142 1.88213 0
M  V30 3306 C 336.658 2.93493 2.03953 0
M  V30 3307 C 336.324 4.28811 1.39399 0
M  V30 3308 C 334.986 4.65602 1.21523 0
M  V30 3309 C 337.338 5.12844 0.929541 0
M  V30 3310 C 334.666 5.84037 0.558312 0
M  V30 3311 C 337.018 6.31951 0.286505 0
M  V30 3312 C 335.682 6.67432 0.0954869 0
M  V30 3313 H 334.952 0.627696 0.393801 0
M  V30 3314 H 337.599 1.88186 0.354715 0
M  V30 3315 H 335.904 2.71475 2.82504 0
M  V30 3316 H 337.601 3.04285 2.61174 0
M  V30 3317 H 334.191 3.99858 1.54311 0
M  V30 3318 H 338.375 4.84947 1.05548 0
M  V30 3319 H 333.631 6.10097 0.398995 0
M  V30 3320 H 337.805 6.96352 -0.0814376 0
M  V30 3321 H 335.432 7.59063 -0.415579 0
M  V30 3322 N 337.007 -0.598083 1.45811 0
M  V30 3323 C 337.939 -1.72231 1.51225 0
M  V30 3324 C 338.952 -1.57757 0.402059 0
M  V30 3325 O 340.141 -1.65464 0.669624 0
M  V30 3326 C 337.241 -3.10331 1.3619 0
M  V30 3327 C 336.414 -3.50955 2.61054 0
M  V30 3328 C 335.473 -4.68055 2.40439 0
M  V30 3329 O 334.499 -4.74691 3.14097 0
M  V30 3330 N 335.701 -5.61941 1.45612 0
M  V30 3331 H 338.466 -1.68046 2.48154 0
M  V30 3332 H 336.027 -0.783637 1.41671 0
M  V30 3333 H 338.019 -3.86439 1.20195 0
M  V30 3334 H 336.589 -3.0897 0.475015 0
M  V30 3335 H 335.809 -2.64711 2.92099 0
M  V30 3336 H 337.097 -3.74858 3.44034 0
M  V30 3337 H 336.495 -5.59301 0.848431 0
M  V30 3338 H 335.052 -6.37542 1.35585 0
M  V30 3339 N 338.485 -1.33259 -0.841409 0
M  V30 3340 C 339.733 -1.24326 -1.59334 0
M  V30 3341 C 340.054 0.191564 -1.94057 0
M  V30 3342 O 339.324 1.11967 -1.60749 0
M  V30 3343 H 337.904 -0.457174 -0.590763 0
M  V30 3344 H 340.566 -1.66947 -1.00571 0
M  V30 3345 H 339.662 -1.8352 -2.52442 0
M  V30 3346 N 339.963 1.05934 -1.16686 0
M  V30 3347 C 340.896 2.1295 -0.820225 0
M  V30 3348 C 341.874 1.61242 0.209722 0
M  V30 3349 O 343.058 1.88271 0.0929688 0
M  V30 3350 C 340.185 3.3797 -0.22223 0
M  V30 3351 C 339.231 4.08488 -1.22637 0
M  V30 3352 S 340.064 4.58015 -2.77457 0
M  V30 3353 C 341.22 5.86292 -2.19117 0
M  V30 3354 H 341.453 2.42025 -1.72659 0
M  V30 3355 H 338.986 1.18423 -0.990722 0
M  V30 3356 H 340.944 4.10335 0.116322 0
M  V30 3357 H 339.605 3.07045 0.66196 0
M  V30 3358 H 338.798 4.98291 -0.756455 0
M  V30 3359 H 338.4 3.42154 -1.51019 0
M  V30 3360 H 340.692 6.59246 -1.56209 0
M  V30 3361 H 341.635 6.38019 -3.07144 0
M  V30 3362 H 342.043 5.40497 -1.62858 0
M  V30 3363 N 341.441 0.965919 1.2453 0
M  V30 3364 C 342.371 0.513476 2.27784 0
M  V30 3365 C 343.352 -0.445974 1.6415 0
M  V30 3366 O 344.537 -0.342485 1.91156 0
M  V30 3367 C 341.667 -0.198839 3.4673 0
M  V30 3368 C 340.621 0.676456 4.2262 0
M  V30 3369 C 339.947 -0.167248 5.34438 0
M  V30 3370 C 341.247 1.96017 4.84123 0
M  V30 3371 H 342.941 1.3765 2.65881 0
M  V30 3372 H 340.487 0.663321 1.27813 0
M  V30 3373 H 342.44 -0.526567 4.18097 0
M  V30 3374 H 341.164 -1.0962 3.07654 0
M  V30 3375 H 339.823 0.98743 3.53052 0
M  V30 3376 H 339.471 -1.0647 4.91603 0
M  V30 3377 H 339.171 0.415181 5.86131 0
M  V30 3378 H 340.695 -0.489688 6.08633 0
M  V30 3379 H 342.109 1.69814 5.47573 0
M  V30 3380 H 340.506 2.48918 5.4604 0
M  V30 3381 H 341.576 2.65622 4.05676 0
M  V30 3382 N 342.919 -1.39368 0.735821 0
M  V30 3383 C 344.335 -1.54204 0.411492 0
M  V30 3384 C 344.535 -1.70268 -1.07755 0
M  V30 3385 O 343.591 -1.70364 -1.86366 0
M  V30 3386 C 344.904 -2.75925 1.19523 0
M  V30 3387 C 346.452 -2.89761 1.18354 0
M  V30 3388 C 346.927 -4.14421 1.94986 0
M  V30 3389 N 348.418 -4.21462 1.92156 0
M  V30 3390 C 349.153 -5.16871 2.48258 0
M  V30 3391 N 348.649 -6.18063 3.13001 0
M  V30 3392 N 350.442 -5.09093 2.38287 0
M  V30 3393 H 342.593 -1.27189 1.70108 0
M  V30 3394 H 344.856 -0.616517 0.720147 0
M  V30 3395 H 344.562 -2.70401 2.24892 0
M  V30 3396 H 344.436 -3.68614 0.800222 0
M  V30 3397 H 346.823 -2.94777 0.137975 0
M  V30 3398 H 346.904 -1.98133 1.61793 0
M  V30 3399 H 346.548 -4.10166 2.99543 0
M  V30 3400 H 346.478 -5.05095 1.48953 0
M  V30 3401 H 348.969 -3.48979 1.44991 0
M  V30 3402 H 349.282 -6.87326 3.53275 0
M  V30 3403 H 347.627 -6.18448 3.17091 0
M  V30 3404 H 350.818 -4.28973 1.8735 0
M  V30 3405 H 350.991 -5.83272 2.82308 0
M  V30 3406 N 344.397 -0.483516 -1.5 0
M  V30 3407 C 345.344 0.304164 -2.28787 0
M  V30 3408 C 346.314 0.976114 -1.34392 0
M  V30 3409 O 347.499 0.986156 -1.63339 0
M  V30 3410 C 344.639 1.37298 -3.16612 0
M  V30 3411 C 343.752 0.714561 -4.26049 0
M  V30 3412 C 342.887 1.76232 -5.01114 0
M  V30 3413 C 341.926 1.08483 -6.0241 0
M  V30 3414 N 341.063 2.076 -6.70706 0
M  V30 3415 H 345.903 -0.373981 -2.95644 0
M  V30 3416 H 343.44 -0.196275 -1.45785 0
M  V30 3417 H 345.398 2.00445 -3.65893 0
M  V30 3418 H 344.028 2.02012 -2.51776 0
M  V30 3419 H 343.08 -0.0297798 -3.80388 0
M  V30 3420 H 344.392 0.180383 -4.98474 0
M  V30 3421 H 343.546 2.46929 -5.54176 0
M  V30 3422 H 342.285 2.33033 -4.28424 0
M  V30 3423 H 341.29 0.363545 -5.48597 0
M  V30 3424 H 342.515 0.523551 -6.77079 0
M  V30 3425 H 340.461 2.63394 -6.00799 0
M  V30 3426 H 340.378 1.59201 -7.39047 0
M  V30 3427 H 341.646 2.77639 -7.2838 0
M  V30 3428 N 345.875 1.56104 -0.216619 0
M  V30 3429 C 346.805 2.23063 0.690296 0
M  V30 3430 C 347.786 1.20072 1.20485 0
M  V30 3431 O 348.971 1.48643 1.24976 0
M  V30 3432 C 346.101 2.90672 1.90072 0
M  V30 3433 C 345.055 4.00092 1.5202 0
M  V30 3434 C 344.381 4.54972 2.80899 0
M  V30 3435 C 345.681 5.17398 0.71391 0
M  V30 3436 H 347.375 2.99109 0.132038 0
M  V30 3437 H 344.921 1.43866 0.0620664 0
M  V30 3438 H 346.874 3.36204 2.54057 0
M  V30 3439 H 345.598 2.12066 2.48386 0
M  V30 3440 H 344.257 3.55283 0.903839 0
M  V30 3441 H 343.905 3.73102 3.37348 0
M  V30 3442 H 343.605 5.28817 2.56176 0
M  V30 3443 H 345.129 5.0322 3.45836 0
M  V30 3444 H 346.543 5.59342 1.25735 0
M  V30 3445 H 344.94 5.97444 0.563951 0
M  V30 3446 H 346.01 4.84088 -0.280527 0
M  V30 3447 N 347.353 -0.0568162 1.57498 0
M  V30 3448 C 348.63 -0.786954 1.79071 0
M  V30 3449 C 349.01 -1.95028 0.80792 0
M  V30 3450 O 348.358 -2.27968 -0.155858 0
M  V30 3451 C 348.568 -1.24594 3.26002 0
M  V30 3452 C 349.916 -1.67323 3.90241 0
M  V30 3453 O 350.94 -1.34124 3.29984 0
M  V30 3454 O 349.799 -2.28842 4.9628 0
M  V30 3455 H 346.893 -0.378262 0.735423 0
M  V30 3456 H 349.439 -0.035734 1.69662 0
M  V30 3457 H 348.211 -0.41423 3.89101 0
M  V30 3458 H 347.834 -2.05803 3.40192 0
M  V30 3459 N 348.832 -1.54138 -0.328536 0
M  V30 3460 C 350.081 -1.71318 -1.06456 0
M  V30 3461 C 350.394 -0.491109 -1.89334 0
M  V30 3462 O 351.6 -0.54416 -2.65991 0
M  V30 3463 C 350.056 -3.03 -1.94214 0
M  V30 3464 C 349.664 -4.32595 -1.16471 0
M  V30 3465 C 351.408 -3.29544 -2.67583 0
M  V30 3466 C 349.315 -5.55341 -2.03347 0
M  V30 3467 H 348.245 -0.638429 -0.401155 0
M  V30 3468 H 350.896 -1.80633 -0.323106 0
M  V30 3469 H 349.278 -2.87579 -2.72239 0
M  V30 3470 H 350.452 -4.58766 -0.432525 0
M  V30 3471 H 348.767 -4.12777 -0.548063 0
M  V30 3472 H 351.364 -4.18444 -3.3288 0
M  V30 3473 H 351.707 -2.47206 -3.34955 0
M  V30 3474 H 352.24 -3.45809 -1.96623 0
M  V30 3475 H 348.979 -6.40268 -1.40491 0
M  V30 3476 H 348.499 -5.33397 -2.74313 0
M  V30 3477 H 350.178 -5.91557 -2.62049 0
M  V30 3478 N 350.31 0.590341 -1.46126 0
M  V30 3479 C 351.257 1.69994 -1.56111 0
M  V30 3480 C 352.227 1.61065 -0.405867 0
M  V30 3481 O 353.412 1.8039 -0.621613 0
M  V30 3482 C 350.552 3.08326 -1.55013 0
M  V30 3483 C 349.665 3.27936 -2.81215 0
M  V30 3484 C 348.8 4.56473 -2.71673 0
M  V30 3485 C 347.839 4.694 -3.92849 0
M  V30 3486 N 346.976 5.89254 -3.81738 0
M  V30 3487 H 351.816 1.60797 -2.50895 0
M  V30 3488 H 349.353 0.783799 -1.24479 0
M  V30 3489 H 351.311 3.88383 -1.52362 0
M  V30 3490 H 349.941 3.16439 -0.637667 0
M  V30 3491 H 348.993 2.41536 -2.93879 0
M  V30 3492 H 350.305 3.33357 -3.71045 0
M  V30 3493 H 349.459 5.44748 -2.67085 0
M  V30 3494 H 348.198 4.53477 -1.7947 0
M  V30 3495 H 347.203 3.79544 -3.97777 0
M  V30 3496 H 348.428 4.7418 -4.86138 0
M  V30 3497 H 346.374 5.87271 -2.92317 0
M  V30 3498 H 346.291 5.95911 -4.65217 0
M  V30 3499 H 347.559 6.79981 -3.81112 0
M  V30 3500 N 351.788 1.33704 0.83433 0
M  V30 3501 C 352.736 1.24323 1.96587 0
M  V30 3502 C 353.73 0.143659 1.6879 0
M  V30 3503 O 354.936 0.30791 1.77347 0
M  V30 3504 H 351.311 0.385925 0.645419 0
M  V30 3505 H 353.282 2.19978 2.01624 0
M  V30 3506 C 352.031 1.00394 3.32891 0
M  V30 3507 H 351.354 1.84231 3.54822 0
M  V30 3508 H 352.794 0.97862 4.12552 0
M  V30 3509 C 351.253 -0.293047 3.35623 0
M  V30 3510 O 351.783 -1.29823 3.80143 0
M  V30 3511 N 349.989 -0.322174 2.88809 0
M  V30 3512 H 349.536 0.496379 2.52772 0
M  V30 3513 H 349.494 -1.18977 2.91019 0
M  V30 3514 N 353.266 -1.05314 1.17247 0
M  V30 3515 C 354.176 -2.16538 0.90268 0
M  V30 3516 C 355.192 -1.73523 -0.128707 0
M  V30 3517 O 356.368 -2.01337 0.0502701 0
M  V30 3518 C 353.433 -3.44167 0.418356 0
M  V30 3519 C 352.494 -4.01635 1.51618 0
M  V30 3520 C 351.727 -5.23171 1.05487 0
M  V30 3521 O 351.95 -5.70327 -0.0914715 0
M  V30 3522 O 350.884 -5.72848 1.8474 0
M  V30 3523 H 354.71 -2.42145 1.83302 0
M  V30 3524 H 352.295 -1.15037 0.953246 0
M  V30 3525 H 354.177 -4.21112 0.155726 0
M  V30 3526 H 352.852 -3.20063 -0.48385 0
M  V30 3527 H 351.759 -3.26135 1.83268 0
M  V30 3528 H 353.092 -4.30053 2.39405 0
M  V30 3529 N 354.744 -0.972509 -1.24016 0
M  V30 3530 C 356.021 -0.553733 -1.87598 0
M  V30 3531 C 356.401 0.969158 -1.87538 0
M  V30 3532 O 355.749 1.84255 -1.35139 0
M  V30 3533 C 355.959 -1.15076 -3.29482 0
M  V30 3534 C 357.307 -1.23862 -4.06132 0
M  V30 3535 O 358.331 -1.10363 -3.38672 0
M  V30 3536 O 357.19 -1.45252 -5.26844 0
M  V30 3537 H 354.284 -0.185331 -0.805966 0
M  V30 3538 H 356.83 -1.06709 -1.31952 0
M  V30 3539 H 355.602 -2.19333 -3.2405 0
M  V30 3540 H 355.225 -0.621746 -3.92709 0
M  V30 3541 N 356.222 1.38976 -0.743202 0
M  V30 3542 C 357.499 1.94351 -0.220705 0
M  V30 3543 C 357.879 1.67935 1.2791 0
M  V30 3544 O 357.227 1.01211 2.04862 0
M  V30 3545 C 357.437 3.44426 -0.563171 0
M  V30 3546 C 358.785 4.2144 -0.517046 0
M  V30 3547 O 359.809 3.52661 -0.500846 0
M  V30 3548 O 358.668 5.44032 -0.518806 0
M  V30 3549 H 355.762 0.825879 -0.043047 0
M  V30 3550 H 358.308 1.48429 -0.822618 0
M  V30 3551 H 357.08 3.5712 -1.59941 0
M  V30 3552 H 356.703 3.97543 0.0672883 0
M  V30 3553 N 357.7 0.491464 1.49741 0
M  V30 3554 C 358.946 -0.0565092 2.02721 0
M  V30 3555 C 359.279 -1.37522 1.37118 0
M  V30 3556 O 358.554 -1.87866 0.503645 0
M  V30 3557 C 358.837 -0.219051 3.59433 0
M  V30 3558 C 358.69 1.12211 4.35579 0
M  V30 3559 C 360.009 -0.964157 4.29409 0
M  V30 3560 H 357.128 -0.0190627 0.736753 0
M  V30 3561 H 359.77 0.641021 1.7886 0
M  V30 3562 H 357.92 -0.813165 3.79895 0
M  V30 3563 H 359.592 1.75437 4.26637 0
M  V30 3564 H 357.835 1.71377 3.98513 0
M  V30 3565 H 358.506 0.961794 5.43556 0
M  V30 3566 H 360.982 -0.460378 4.13545 0
M  V30 3567 H 359.858 -1.04671 5.38828 0
M  V30 3568 H 360.119 -2.00563 3.93988 0
M  V30 3569 N 359.178 -1.55987 0.224894 0
M  V30 3570 C 360.125 -2.20436 -0.68385 0
M  V30 3571 C 361.095 -1.16102 -1.18783 0
M  V30 3572 O 362.28 -1.4447 -1.24632 0
M  V30 3573 C 359.42 -2.89076 -1.88491 0
M  V30 3574 C 358.533 -4.08012 -1.41951 0
M  V30 3575 C 357.668 -4.64426 -2.5784 0
M  V30 3576 C 356.707 -5.75656 -2.08053 0
M  V30 3577 N 355.844 -6.26347 -3.17227 0
M  V30 3578 H 360.684 -2.97727 -0.12754 0
M  V30 3579 H 358.221 -1.47011 -0.0511978 0
M  V30 3580 H 360.179 -3.27059 -2.59014 0
M  V30 3581 H 358.809 -2.14298 -2.41405 0
M  V30 3582 H 357.861 -3.75492 -0.609095 0
M  V30 3583 H 359.173 -4.88375 -1.01447 0
M  V30 3584 H 358.327 -5.04869 -3.3644 0
M  V30 3585 H 357.066 -3.83233 -3.01635 0
M  V30 3586 H 356.071 -5.34712 -1.27916 0
M  V30 3587 H 357.296 -6.58686 -1.65255 0
M  V30 3588 H 355.242 -5.48067 -3.60497 0
M  V30 3589 H 355.159 -7.01843 -2.80986 0
M  V30 3590 H 356.427 -6.71447 -3.95953 0
M  V30 3591 N 360.656 0.0484629 -1.57525 0
M  V30 3592 C 361.881 0.759177 -1.93006 0
M  V30 3593 C 362.306 1.69125 -0.823317 0
M  V30 3594 O 361.664 1.79931 0.222364 0
M  V30 3595 C 361.712 1.50899 -3.27509 0
M  V30 3596 O 360.816 2.62112 -3.18388 0
M  V30 3597 H 360.157 0.205564 -0.631379 0
M  V30 3598 H 362.687 0.00972959 -2.04598 0
M  V30 3599 H 362.697 1.88317 -3.6194 0
M  V30 3600 H 361.372 0.825269 -4.0763 0
M  V30 3601 H 359.949 2.27379 -2.95556 0
M  V30 3602 N 362.134 1.5431 0.320358 0
M  V30 3603 C 363.064 1.86912 1.3995 0
M  V30 3604 C 364.045 0.726211 1.53819 0
M  V30 3605 O 365.23 0.980233 1.67646 0
M  V30 3606 C 362.36 2.09932 2.7667 0
M  V30 3607 C 361.314 3.25776 2.77586 0
M  V30 3608 C 360.64 3.34173 4.17412 0
M  V30 3609 C 361.94 4.6335 2.41048 0
M  V30 3610 H 363.634 2.77292 1.12914 0
M  V30 3611 H 361.18 1.33421 0.541738 0
M  V30 3612 H 363.133 2.31324 3.52232 0
M  V30 3613 H 361.857 1.16304 3.0519 0
M  V30 3614 H 360.516 3.04276 2.04479 0
M  V30 3615 H 360.164 2.38098 4.43078 0
M  V30 3616 H 359.864 4.12033 4.18931 0
M  V30 3617 H 361.388 3.57803 4.94782 0
M  V30 3618 H 362.802 4.84602 3.06324 0
M  V30 3619 H 361.199 5.43782 2.53813 0
M  V30 3620 H 362.269 4.65381 1.36193 0
M  V30 3621 N 363.613 -0.582584 1.46437 0
M  V30 3622 C 364.838 -1.37168 1.55563 0
M  V30 3623 C 365.263 -1.87061 0.19743 0
M  V30 3624 O 364.621 -1.61572 -0.822451 0
M  V30 3625 C 364.669 -2.53511 2.56446 0
M  V30 3626 O 363.773 -3.54953 2.09958 0
M  V30 3627 H 363.114 -0.408494 0.523477 0
M  V30 3628 H 365.644 -0.706646 1.9201 0
M  V30 3629 H 365.654 -3.00426 2.76058 0
M  V30 3630 H 364.329 -2.16549 3.55076 0
M  V30 3631 H 362.906 -3.14516 2.00334 0
M  V30 3632 N 365.091 -1.34144 -0.827227 0
M  V30 3633 C 366.507 -1.13732 -1.11969 0
M  V30 3634 C 366.707 0.0640463 -2.01398 0
M  V30 3635 O 365.763 0.740856 -2.41387 0
M  V30 3636 C 367.076 -2.43047 -1.77055 0
M  V30 3637 C 368.624 -2.49063 -1.89569 0
M  V30 3638 C 369.099 -3.78369 -2.58072 0
M  V30 3639 N 370.59 -3.79505 -2.65575 0
M  V30 3640 C 371.325 -4.76274 -3.19297 0
M  V30 3641 N 370.821 -5.83424 -3.73616 0
M  V30 3642 N 372.614 -4.63735 -3.17658 0
M  V30 3643 H 364.765 -2.11126 -0.232296 0
M  V30 3644 H 367.028 -0.933424 -0.165602 0
M  V30 3645 H 366.734 -3.31025 -1.18807 0
M  V30 3646 H 366.608 -2.56066 -2.76966 0
M  V30 3647 H 368.995 -1.61527 -2.46968 0
M  V30 3648 H 369.076 -2.39975 -0.885745 0
M  V30 3649 H 368.72 -4.66293 -2.01329 0
M  V30 3650 H 368.65 -3.84737 -3.59562 0
M  V30 3651 H 371.141 -3.02074 -2.27068 0
M  V30 3652 H 371.454 -6.53282 -4.12846 0
M  V30 3653 H 369.799 -5.87143 -3.71871 0
M  V30 3654 H 372.99 -3.79177 -2.74486 0
M  V30 3655 H 373.163 -5.39318 -3.59221 0
M  V30 3656 N 366.569 1.04691 -1.17803 0
M  V30 3657 C 367.815 1.78045 -0.970969 0
M  V30 3658 C 368.148 1.87686 0.498751 0
M  V30 3659 O 367.423 1.38035 1.37027 0
M  V30 3660 C 367.706 3.2166 -1.61884 0
M  V30 3661 C 367.559 3.20001 -3.161 0
M  V30 3662 C 368.878 4.1962 -1.3269 0
M  V30 3663 H 365.997 0.64633 -0.354155 0
M  V30 3664 H 368.639 1.22333 -1.45378 0
M  V30 3665 H 366.789 3.69232 -1.20831 0
M  V30 3666 H 368.461 2.80467 -3.66246 0
M  V30 3667 H 366.704 2.58203 -3.48588 0
M  V30 3668 H 367.375 4.21386 -3.56564 0
M  V30 3669 H 369.851 3.80567 -1.68249 0
M  V30 3670 H 368.727 5.18339 -1.80599 0
M  V30 3671 H 368.988 4.414 -0.248622 0
M  V30 3672 N 368.047 0.979072 1.23499 0
M  V30 3673 C 368.98 0.463027 2.23453 0
M  V30 3674 C 369.958 -0.469128 1.55685 0
M  V30 3675 O 371.142 -0.397882 1.84253 0
M  V30 3676 C 368.269 -0.330308 3.37086 0
M  V30 3677 C 367.315 0.545795 4.22993 0
M  V30 3678 S 368.148 1.99285 4.97037 0
M  V30 3679 C 369.304 1.20862 6.1412 0
M  V30 3680 H 369.537 1.31005 2.6688 0
M  V30 3681 H 367.07 0.784965 1.32957 0
M  V30 3682 H 369.028 -0.782027 4.02982 0
M  V30 3683 H 367.689 -1.15244 2.92194 0
M  V30 3684 H 366.882 -0.0638928 5.03959 0
M  V30 3685 H 366.484 0.933705 3.62157 0
M  V30 3686 H 368.776 0.469284 6.75873 0
M  V30 3687 H 369.719 1.99307 6.79472 0
M  V30 3688 H 370.127 0.727992 5.59786 0
M  V30 3689 N 369.525 -1.3858 0.750561 0
M  V30 3690 C 370.774 -1.99424 0.302172 0
M  V30 3691 C 371.087 -1.60254 -1.12152 0
M  V30 3692 O 372.293 -2.14046 -1.67023 0
M  V30 3693 C 370.749 -3.56558 0.489307 0
M  V30 3694 C 370.357 -4.04682 1.92189 0
M  V30 3695 C 372.101 -4.24374 0.103478 0
M  V30 3696 C 370.008 -5.54446 2.05775 0
M  V30 3697 H 368.938 -0.746046 0.10923 0
M  V30 3698 H 371.589 -1.58383 0.92667 0
M  V30 3699 H 369.971 -3.95472 -0.204329 0
M  V30 3700 H 371.145 -3.77065 2.64875 0
M  V30 3701 H 369.46 -3.4958 2.26236 0
M  V30 3702 H 372.057 -5.34384 0.183787 0
M  V30 3703 H 372.4 -4.05468 -0.943481 0
M  V30 3704 H 372.933 -3.90688 0.748854 0
M  V30 3705 H 369.672 -5.78252 3.08714 0
M  V30 3706 H 369.192 -5.83816 1.37546 0
M  V30 3707 H 370.871 -6.20099 1.84626 0
M  V30 3708 N 371.003 -0.499398 -1.49478 0
M  V30 3709 C 371.953 0.299103 -2.2603 0
M  V30 3710 C 372.937 0.936934 -1.30807 0
M  V30 3711 O 374.129 0.844798 -1.55538 0
M  V30 3712 C 371.258 1.36391 -3.15044 0
M  V30 3713 C 370.344 0.732398 -4.17728 0
M  V30 3714 N 370.735 -0.164028 -5.05534 0
M  V30 3715 C 369.033 0.993162 -4.34801 0
M  V30 3716 C 369.734 -0.525345 -5.79323 0
M  V30 3717 N 368.71 0.106348 -5.43496 0
M  V30 3718 H 372.512 -0.391003 -2.91287 0
M  V30 3719 H 370.026 -0.31537 -1.59308 0
M  V30 3720 H 372.023 1.94939 -3.68516 0
M  V30 3721 H 370.683 2.05571 -2.51338 0
M  V30 3722 H 371.694 -0.534736 -5.15132 0
M  V30 3723 H 368.371 1.67783 -3.82302 0
M  V30 3724 H 369.761 -1.25862 -6.60006 0
M  V30 3725 N 372.481 1.55866 -0.233164 0
M  V30 3726 C 373.727 1.98897 0.395959 0
M  V30 3727 C 374.06 1.12091 1.58585 0
M  V30 3728 O 373.335 0.181182 1.93654 0
M  V30 3729 C 373.618 3.50658 0.819224 0
M  V30 3730 C 373.471 4.48233 -0.375109 0
M  V30 3731 C 374.79 4.07135 1.67121 0
M  V30 3732 H 371.909 0.723102 0.142451 0
M  V30 3733 H 374.551 1.87082 -0.331725 0
M  V30 3734 H 372.701 3.60857 1.43925 0
M  V30 3735 H 374.373 4.50031 -1.01341 0
M  V30 3736 H 372.616 4.21624 -1.02058 0
M  V30 3737 H 373.287 5.51988 -0.0358328 0
M  V30 3738 H 375.763 3.99952 1.14795 0
M  V30 3739 H 374.639 5.13615 1.93625 0
M  V30 3740 H 374.9 3.54736 2.63846 0
M  V30 3741 N 373.959 -0.0401083 1.57549 0
M  V30 3742 C 375.206 -0.733125 1.88763 0
M  V30 3743 C 375.534 -1.75946 0.829058 0
M  V30 3744 O 374.789 -1.94949 -0.171323 0
M  V30 3745 C 375.088 -1.44902 3.26708 0
M  V30 3746 C 374.754 -0.559707 4.47413 0
M  V30 3747 C 373.416 -0.314731 4.8017 0
M  V30 3748 C 375.768 0.0549743 5.21171 0
M  V30 3749 C 373.096 0.553886 5.8408 0
M  V30 3750 C 375.448 0.911229 6.26003 0
M  V30 3751 C 374.112 1.16577 6.57241 0
M  V30 3752 H 373.382 -0.268269 0.690733 0
M  V30 3753 H 376.029 0.00679408 1.91499 0
M  V30 3754 H 374.334 -2.26197 3.1991 0
M  V30 3755 H 376.031 -1.99058 3.48105 0
M  V30 3756 H 372.621 -0.760793 4.21794 0
M  V30 3757 H 376.805 -0.121344 4.96152 0
M  V30 3758 H 372.061 0.759518 6.06664 0
M  V30 3759 H 376.235 1.3941 6.82303 0
M  V30 3760 H 373.862 1.84058 7.37582 0
M  V30 3761 N 375.437 -1.54477 -0.31217 0
M  V30 3762 C 376.662 -1.77526 -1.07235 0
M  V30 3763 C 377.087 -0.527775 -1.80544 0
M  V30 3764 O 376.445 0.52121 -1.73646 0
M  V30 3765 C 376.493 -2.97535 -2.03728 0
M  V30 3766 O 375.597 -2.69878 -3.11833 0
M  V30 3767 H 374.938 -0.58792 -0.30862 0
M  V30 3768 H 377.468 -2.01532 -0.352993 0
M  V30 3769 H 377.478 -3.25198 -2.46395 0
M  V30 3770 H 376.153 -3.87996 -1.49774 0
M  V30 3771 H 374.73 -2.53199 -2.7376 0
M  V30 3772 N 376.915 0.57481 -1.46744 0
M  V30 3773 C 378.192 1.3352 -1.4294 0
M  V30 3774 C 378.572 2.10775 -0.117009 0
M  V30 3775 O 377.92 2.09966 0.901474 0
M  V30 3776 C 378.13 2.25456 -2.66403 0
M  V30 3777 C 379.478 2.87035 -3.12883 0
M  V30 3778 O 380.502 2.35766 -2.67007 0
M  V30 3779 O 379.361 3.80179 -3.92589 0
M  V30 3780 H 376.455 0.600318 -0.568812 0
M  V30 3781 H 379.001 0.595171 -1.58921 0
M  V30 3782 H 377.773 1.67851 -3.53471 0
M  V30 3783 H 377.396 3.06785 -2.52921 0
M  V30 3784 N 378.394 1.34581 0.820102 0
M  V30 3785 C 379.642 1.26845 1.57336 0
M  V30 3786 C 379.963 -0.160667 1.94337 0
M  V30 3787 O 379.233 -1.09396 1.6251 0
M  V30 3788 H 377.813 0.466514 0.583415 0
M  V30 3789 H 380.475 1.68526 0.979027 0
M  V30 3790 H 379.571 1.87513 2.4949 0
M  V30 3791 N 379.872 -1.04064 1.18357 0
M  V30 3792 C 381.118 -1.77528 0.980397 0
M  V30 3793 C 381.451 -1.87948 -0.48879 0
M  V30 3794 O 380.726 -1.3876 -1.36293 0
M  V30 3795 C 381.009 -3.20797 1.63588 0
M  V30 3796 C 380.862 -3.1832 3.17793 0
M  V30 3797 C 382.181 -4.18911 1.34914 0
M  V30 3798 H 379.3 -0.644443 0.357578 0
M  V30 3799 H 381.942 -1.2156 1.46024 0
M  V30 3800 H 380.092 -3.68586 1.22788 0
M  V30 3801 H 381.764 -2.78521 3.67728 0
M  V30 3802 H 380.007 -2.56351 3.49952 0
M  V30 3803 H 380.678 -4.19489 3.58794 0
M  V30 3804 H 383.154 -3.7967 1.70265 0
M  V30 3805 H 382.03 -5.17374 1.83346 0
M  V30 3806 H 382.291 -4.41262 0.272027 0
M  V30 3807 N 381.35 -0.985608 -1.22978 0
M  V30 3808 C 382.578 -0.675582 -1.95559 0
M  V30 3809 C 382.993 0.758413 -1.72897 0
M  V30 3810 O 382.35 1.51094 -1.02357 0
M  V30 3811 C 382.401 -0.96293 -3.48439 0
M  V30 3812 O 382.122 -2.34057 -3.70336 0
M  V30 3813 C 383.623 -0.669585 -4.38214 0
M  V30 3814 H 380.843 -0.250523 -0.622478 0
M  V30 3815 H 383.387 -1.3184 -1.56328 0
M  V30 3816 H 381.542 -0.366033 -3.85667 0
M  V30 3817 H 381.956 -2.43424 -4.64591 0
M  V30 3818 H 383.43 -0.920967 -5.44263 0
M  V30 3819 H 383.907 0.396383 -4.37408 0
M  V30 3820 H 384.513 -1.2472 -4.06602 0
M  V30 3821 N 382.828 1.3818 -0.7579 0
M  V30 3822 C 383.776 2.32277 -0.122482 0
M  V30 3823 C 384.77 1.54238 0.700505 0
M  V30 3824 O 385.976 1.69737 0.599119 0
M  V30 3825 H 382.351 0.751712 -0.0208143 0
M  V30 3826 H 384.322 2.83469 -0.932099 0
M  V30 3827 C 383.071 3.39447 0.753076 0
M  V30 3828 H 382.394 3.99591 0.129184 0
M  V30 3829 H 383.834 4.07684 1.16489 0
M  V30 3830 C 382.293 2.78375 1.8976 0
M  V30 3831 O 382.823 2.68025 2.99208 0
M  V30 3832 N 381.029 2.36121 1.69397 0
M  V30 3833 H 380.576 2.4474 0.803762 0
M  V30 3834 H 380.534 1.95602 2.46145 0
M  V30 3835 N 384.306 0.507319 1.49211 0
M  V30 3836 C 385.552 -0.0269732 2.03382 0
M  V30 3837 C 385.907 -1.34111 1.37957 0
M  V30 3838 O 385.2 -1.84733 0.508351 0
M  V30 3839 C 385.394 -0.229513 3.56662 0
M  V30 3840 C 385.223 1.06344 4.36945 0
M  V30 3841 C 383.993 1.617 4.78729 0
M  V30 3842 C 386.191 1.96833 4.75143 0
M  V30 3843 N 384.173 2.8552 5.43463 0
M  V30 3844 C 385.544 3.0523 5.39661 0
M  V30 3845 C 387.599 1.97434 4.57082 0
M  V30 3846 C 386.302 4.14265 5.88028 0
M  V30 3847 C 388.328 3.05448 5.06414 0
M  V30 3848 C 387.69 4.12564 5.70938 0
M  V30 3849 H 383.789 0.0310673 0.781383 0
M  V30 3850 H 386.373 0.683579 1.82305 0
M  V30 3851 H 384.544 -0.909127 3.7761 0
M  V30 3852 H 386.276 -0.761377 3.97473 0
M  V30 3853 H 383.031 1.16132 4.59141 0
M  V30 3854 H 383.455 3.48499 5.80412 0
M  V30 3855 H 388.097 1.15924 4.06597 0
M  V30 3856 H 385.815 4.96569 6.3753 0
M  V30 3857 H 389.401 3.06941 4.94246 0
M  V30 3858 H 388.281 4.94767 6.0842 0
M  V30 3859 N 385.784 -1.5574 0.241426 0
M  V30 3860 C 387.032 -1.98417 -0.384075 0
M  V30 3861 C 387.353 -1.13078 -1.58866 0
M  V30 3862 O 386.623 -0.212312 -1.94746 0
M  V30 3863 H 385.203 -0.732813 -0.144894 0
M  V30 3864 H 387.865 -1.9193 0.338943 0
M  V30 3865 H 386.961 -3.04219 -0.696939 0
M  V30 3866 N 387.262 0.0317525 -1.57568 0
M  V30 3867 C 388.678 0.38735 -1.54828 0
M  V30 3868 C 388.878 1.7677 -0.967187 0
M  V30 3869 O 387.934 2.45581 -0.587063 0
M  V30 3870 C 389.247 0.291667 -2.99282 0
M  V30 3871 C 390.795 0.368946 -3.10818 0
M  V30 3872 C 391.27 0.302741 -4.56998 0
M  V30 3873 N 392.761 0.361617 -4.61786 0
M  V30 3874 C 393.496 0.333238 -5.72431 0
M  V30 3875 N 392.992 0.257308 -6.92322 0
M  V30 3876 N 394.785 0.382769 -5.60795 0
M  V30 3877 H 386.936 -0.871609 -1.93692 0
M  V30 3878 H 389.199 -0.331161 -0.888277 0
M  V30 3879 H 388.905 -0.656794 -3.45513 0
M  V30 3880 H 388.779 1.08638 -3.61217 0
M  V30 3881 H 391.166 1.30784 -2.64536 0
M  V30 3882 H 391.247 -0.455066 -2.5172 0
M  V30 3883 H 390.891 -0.632473 -5.03947 0
M  V30 3884 H 390.821 1.14482 -5.14005 0
M  V30 3885 H 393.312 0.422923 -3.75526 0
M  V30 3886 H 393.625 0.24068 -7.72425 0
M  V30 3887 H 391.97 0.223396 -6.94641 0
M  V30 3888 H 395.161 0.44006 -4.66027 0
M  V30 3889 H 395.334 0.357184 -6.47015 0
M  V30 3890 N 388.74 1.54641 0.303973 0
M  V30 3891 C 389.989 1.7299 1.03717 0
M  V30 3892 C 390.302 0.521168 1.88529 0
M  V30 3893 O 391.508 0.586408 2.65092 0
M  V30 3894 C 389.964 3.06051 1.89369 0
M  V30 3895 C 389.572 4.34393 1.09574 0
M  V30 3896 C 391.316 3.3376 2.62306 0
M  V30 3897 C 389.223 5.58506 1.94486 0
M  V30 3898 H 388.153 0.64473 0.390947 0
M  V30 3899 H 390.804 1.81124 0.294328 0
M  V30 3900 H 389.186 2.91874 2.67629 0
M  V30 3901 H 390.36 4.59396 0.359485 0
M  V30 3902 H 388.675 4.13597 0.482324 0
M  V30 3903 H 391.272 4.23687 3.26181 0
M  V30 3904 H 391.615 2.52503 3.3098 0
M  V30 3905 H 392.148 3.48894 1.91097 0
M  V30 3906 H 388.887 6.42422 1.30287 0
M  V30 3907 H 388.407 5.37694 2.65792 0
M  V30 3908 H 390.086 5.95651 2.52605 0
M  V30 3909 N 390.218 -0.567019 1.47046 0
M  V30 3910 C 391.464 -1.32658 1.53394 0
M  V30 3911 C 391.797 -1.93254 0.19148 0
M  V30 3912 O 391.072 -1.77338 -0.798844 0
M  V30 3913 C 391.355 -2.44412 2.64452 0
M  V30 3914 C 391.208 -1.88749 4.08282 0
M  V30 3915 C 392.527 -3.46387 2.71485 0
M  V30 3916 H 389.646 -0.48098 0.558415 0
M  V30 3917 H 392.288 -0.635481 1.79058 0
M  V30 3918 H 390.438 -3.03363 2.427 0
M  V30 3919 H 392.11 -1.34134 4.41368 0
M  V30 3920 H 390.353 -1.19481 4.17021 0
M  V30 3921 H 391.024 -2.69491 4.81745 0
M  V30 3922 H 393.5 -2.9734 2.91081 0
M  V30 3923 H 392.376 -4.2202 3.50985 0
M  V30 3924 H 392.637 -4.04616 1.78153 0
M  V30 3925 N 391.696 -1.35014 -0.812953 0
M  V30 3926 C 392.924 -1.31031 -1.6012 0
M  V30 3927 C 393.339 0.113558 -1.88458 0
M  V30 3928 O 392.696 1.06363 -1.48301 0
M  V30 3929 C 392.747 -2.10872 -2.93624 0
M  V30 3930 O 392.468 -3.47706 -2.66518 0
M  V30 3931 C 393.969 -2.14401 -3.88004 0
M  V30 3932 H 391.189 -0.45037 -0.497401 0
M  V30 3933 H 393.733 -1.77775 -1.01076 0
M  V30 3934 H 391.888 -1.67744 -3.492 0
M  V30 3935 H 392.302 -3.89097 -3.51715 0
M  V30 3936 H 393.776 -2.74669 -4.78812 0
M  V30 3937 H 394.253 -1.14105 -4.24119 0
M  V30 3938 H 394.859 -2.57662 -3.38364 0
M  V30 3939 N 393.175 1.03435 -1.18907 0
M  V30 3940 C 394.105 2.13503 -0.945448 0
M  V30 3941 C 395.086 1.69682 0.119189 0
M  V30 3942 O 396.271 1.94169 -0.034707 0
M  V30 3943 C 393.401 3.44004 -0.477316 0
M  V30 3944 C 392.355 4.0148 -1.48316 0
M  V30 3945 C 391.681 5.27537 -0.872311 0
M  V30 3946 C 392.981 4.36921 -2.86177 0
M  V30 3947 H 394.675 2.34141 -1.86597 0
M  V30 3948 H 392.221 1.12523 -0.898584 0
M  V30 3949 H 394.174 4.20372 -0.294204 0
M  V30 3950 H 392.898 3.23072 0.478786 0
M  V30 3951 H 391.557 3.27201 -1.65332 0
M  V30 3952 H 391.205 5.02917 0.0911752 0
M  V30 3953 H 390.905 5.66954 -1.54393 0
M  V30 3954 H 392.429 6.06576 -0.699871 0
M  V30 3955 H 393.843 5.04248 -2.72776 0
M  V30 3956 H 392.24 4.87405 -3.50081 0
M  V30 3957 H 393.31 3.46466 -3.39248 0
M  V30 3958 N 394.653 0.992116 1.22453 0
M  V30 3959 C 395.902 0.662992 1.90492 0
M  V30 3960 C 396.215 -0.808407 1.78113 0
M  V30 3961 O 397.421 -1.24908 2.41061 0
M  V30 3962 C 395.877 1.1353 3.41524 0
M  V30 3963 C 395.485 2.63187 3.62542 0
M  V30 3964 C 397.229 0.880465 4.15269 0
M  V30 3965 C 395.136 3.04024 5.0727 0
M  V30 3966 H 394.066 0.244278 0.713333 0
M  V30 3967 H 396.717 1.20157 1.38688 0
M  V30 3968 H 395.099 0.52485 3.92506 0
M  V30 3969 H 396.273 3.2957 3.22056 0
M  V30 3970 H 394.588 2.86543 3.02129 0
M  V30 3971 H 397.185 1.16128 5.21937 0
M  V30 3972 H 397.528 -0.183408 4.15896 0
M  V30 3973 H 398.061 1.45307 3.70312 0
M  V30 3974 H 394.8 4.09584 5.11782 0
M  V30 3975 H 394.32 2.42343 5.48662 0
M  V30 3976 H 395.999 2.95282 5.75689 0
M  V30 3977 N 396.131 -1.37776 0.765217 0
M  V30 3978 C 397.356 -2.04651 0.336537 0
M  V30 3979 C 397.781 -1.57337 -1.03086 0
M  V30 3980 O 397.139 -0.730621 -1.65927 0
M  V30 3981 C 397.187 -3.58577 0.381468 0
M  V30 3982 O 396.291 -4.07706 -0.62042 0
M  V30 3983 H 395.632 -0.64756 0.146838 0
M  V30 3984 H 398.162 -1.76221 1.03959 0
M  V30 3985 H 398.172 -4.07314 0.236448 0
M  V30 3986 H 396.847 -3.9237 1.37907 0
M  V30 3987 H 395.424 -3.70306 -0.439056 0
M  V30 3988 N 397.609 -0.515225 -1.4894 0
M  V30 3989 C 398.856 0.024215 -2.02486 0
M  V30 3990 C 399.184 1.35671 -1.39368 0
M  V30 3991 O 398.439 1.88566 -0.523574 0
M  V30 3992 C 398.738 0.210595 -3.56779 0
M  V30 3993 C 398.404 -1.04569 -4.38607 0
M  V30 3994 C 397.066 -1.39002 -4.60686 0
M  V30 3995 C 399.418 -1.88008 -4.86109 0
M  V30 3996 C 396.746 -2.568 -5.27514 0
M  V30 3997 C 399.098 -3.04972 -5.54234 0
M  V30 3998 C 397.762 -3.39768 -5.74555 0
M  V30 3999 H 397.032 0.00886088 -0.740947 0
M  V30 4000 H 399.679 -0.678263 -1.79086 0
M  V30 4001 H 397.984 0.99572 -3.78936 0
M  V30 4002 H 399.681 0.642659 -3.95817 0
M  V30 4003 H 396.271 -0.767497 -4.21672 0
M  V30 4004 H 400.455 -1.62719 -4.68867 0
M  V30 4005 H 395.711 -2.8398 -5.41447 0
M  V30 4006 H 399.885 -3.69943 -5.90013 0
M  V30 4007 H 397.512 -4.31148 -6.26112 0
M  V30 4008 N 399.087 1.5561 -0.249682 0
M  V30 4009 C 400.335 1.98618 0.373548 0
M  V30 4010 C 400.656 1.13919 1.58264 0
M  V30 4011 O 399.926 0.222637 1.94631 0
M  V30 4012 H 398.506 0.733571 0.141006 0
M  V30 4013 H 401.168 1.91748 -0.349117 0
M  V30 4014 H 400.264 3.04584 0.680796 0
M  V30 4015 N 400.565 -0.0233959 1.57583 0
M  V30 4016 C 401.528 -1.00693 2.05897 0
M  V30 4017 C 402.528 -1.28693 0.964092 0
M  V30 4018 O 403.718 -1.23602 1.22753 0
M  V30 4019 C 400.85 -2.33825 2.4807 0
M  V30 4020 H 402.043 -0.589476 2.9405 0
M  V30 4021 H 399.596 -0.270354 1.53944 0
M  V30 4022 H 400.331 -2.80307 1.6309 0
M  V30 4023 H 400.116 -2.1483 3.2801 0
M  V30 4024 H 401.606 -3.04426 2.85857 0
M  V30 4025 N 402.043 -1.548 -0.295768 0
M  V30 4026 C 403.29 -1.74329 -1.03032 0
M  V30 4027 C 403.618 -0.531915 -1.87085 0
M  V30 4028 O 402.873 0.486052 -1.89568 0
M  V30 4029 C 403.172 -2.98797 -1.961 0
M  V30 4030 C 402.838 -4.32356 -1.2798 0
M  V30 4031 C 401.5 -4.68661 -1.09135 0
M  V30 4032 C 403.852 -5.15128 -0.793243 0
M  V30 4033 C 401.18 -5.85312 -0.403269 0
M  V30 4034 C 403.532 -6.32488 -0.118854 0
M  V30 4035 C 402.196 -6.6745 0.0815043 0
M  V30 4036 H 401.466 -0.637916 -0.37702 0
M  V30 4037 H 404.113 -1.8906 -0.304696 0
M  V30 4038 H 402.418 -2.78869 -2.75207 0
M  V30 4039 H 404.115 -3.11102 -2.53015 0
M  V30 4040 H 400.705 -4.03808 -1.43655 0
M  V30 4041 H 404.889 -4.87575 -0.92653 0
M  V30 4042 H 400.145 -6.1094 -0.237098 0
M  V30 4043 H 404.319 -6.95892 0.266035 0
M  V30 4044 H 401.946 -7.57695 0.616685 0
M  V30 4045 N 403.521 0.559213 -1.47345 0
M  V30 4046 C 404.767 1.31843 -1.54095 0
M  V30 4047 C 405.1 1.93149 -0.201726 0
M  V30 4048 O 404.375 1.77759 0.789428 0
M  V30 4049 C 404.658 2.43006 -2.65744 0
M  V30 4050 C 404.511 1.86581 -4.09277 0
M  V30 4051 C 405.83 3.44943 -2.73318 0
M  V30 4052 H 402.949 0.478012 -0.560957 0
M  V30 4053 H 405.591 0.625977 -1.79392 0
M  V30 4054 H 403.741 3.02072 -2.44305 0
M  V30 4055 H 405.413 1.31792 -4.42073 0
M  V30 4056 H 403.656 1.17268 -4.17649 0
M  V30 4057 H 404.327 2.66933 -4.83168 0
M  V30 4058 H 406.803 2.95793 -2.92653 0
M  V30 4059 H 405.679 4.20153 -3.53218 0
M  V30 4060 H 405.94 4.03665 -1.80296 0
M  V30 4061 N 404.999 1.35443 0.805782 0
M  V30 4062 C 405.962 1.28301 1.89925 0
M  V30 4063 C 406.962 0.194285 1.59622 0
M  V30 4064 O 408.152 0.448036 1.6834 0
M  V30 4065 C 405.284 0.984997 3.2636 0
M  V30 4066 H 406.477 2.2553 1.97677 0
M  V30 4067 H 404.03 1.19979 1.00173 0
M  V30 4068 H 404.765 0.016603 3.24296 0
M  V30 4069 H 404.55 1.77269 3.4974 0
M  V30 4070 H 406.04 0.960651 4.064 0
M  V30 4071 N 406.477 -1.02803 1.19454 0
M  V30 4072 C 407.424 -2.11099 0.933046 0
M  V30 4073 C 408.394 -1.65571 -0.132447 0
M  V30 4074 O 409.579 -1.90797 0.00987576 0
M  V30 4075 C 406.719 -3.41763 0.478747 0
M  V30 4076 C 405.832 -4.00833 1.6111 0
M  V30 4077 C 404.967 -5.19511 1.10825 0
M  V30 4078 C 404.006 -5.70639 2.21445 0
M  V30 4079 N 403.143 -6.80589 1.72461 0
M  V30 4080 H 407.983 -2.32804 1.86028 0
M  V30 4081 H 405.52 -1.14179 0.927441 0
M  V30 4082 H 407.478 -4.16736 0.196745 0
M  V30 4083 H 406.108 -3.20166 -0.411493 0
M  V30 4084 H 405.16 -3.23066 2.00829 0
M  V30 4085 H 406.472 -4.34794 2.4445 0
M  V30 4086 H 405.626 -6.01645 0.781533 0
M  V30 4087 H 404.365 -4.87086 0.244606 0
M  V30 4088 H 403.37 -4.87116 2.54947 0
M  V30 4089 H 404.595 -6.05102 3.08267 0
M  V30 4090 H 402.541 -6.50016 0.884056 0
M  V30 4091 H 402.458 -7.13681 2.49389 0
M  V30 4092 H 403.726 -7.66317 1.42755 0
M  V30 4093 N 407.956 -0.998596 -1.21925 0
M  V30 4094 C 408.906 -0.524743 -2.21879 0
M  V30 4095 C 409.89 0.41017 -1.55584 0
M  V30 4096 O 411.082 0.236063 -1.75419 0
M  V30 4097 C 408.211 0.153636 -3.42956 0
M  V30 4098 C 407.297 -0.801918 -4.16449 0
M  V30 4099 N 407.688 -1.95211 -4.66611 0
M  V30 4100 C 405.986 -0.618972 -4.41684 0
M  V30 4101 C 406.687 -2.55234 -5.22715 0
M  V30 4102 N 405.663 -1.83451 -5.1171 0
M  V30 4103 H 409.465 -1.40189 -2.58311 0
M  V30 4104 H 406.979 -0.86159 -1.3766 0
M  V30 4105 H 408.976 0.510534 -4.13762 0
M  V30 4106 H 407.636 1.02684 -3.08036 0
M  V30 4107 H 408.647 -2.33271 -4.62391 0
M  V30 4108 H 405.324 0.207694 -4.16983 0
M  V30 4109 H 406.714 -3.52471 -5.72026 0
M  V30 4110 N 409.434 1.37368 -0.772513 0
M  V30 4111 C 410.364 2.32856 -0.173304 0
M  V30 4112 C 411.345 1.55818 0.682262 0
M  V30 4113 O 412.53 1.84052 0.619566 0
M  V30 4114 C 409.66 3.40048 0.706007 0
M  V30 4115 C 408.614 4.27973 -0.0483144 0
M  V30 4116 C 407.94 5.26184 0.950491 0
M  V30 4117 C 409.24 5.07665 -1.22776 0
M  V30 4118 H 410.934 2.83217 -0.971002 0
M  V30 4119 H 408.48 1.3617 -0.468377 0
M  V30 4120 H 410.433 4.05827 1.13501 0
M  V30 4121 H 409.157 2.88214 1.53623 0
M  V30 4122 H 407.816 3.63726 -0.458107 0
M  V30 4123 H 407.464 4.7063 1.77529 0
M  V30 4124 H 407.164 5.85872 0.450314 0
M  V30 4125 H 408.688 5.94838 1.37842 0
M  V30 4126 H 410.102 5.66578 -0.875366 0
M  V30 4127 H 408.499 5.76681 -1.66007 0
M  V30 4128 H 409.569 4.40294 -2.03149 0
M  V30 4129 N 410.912 0.523116 1.48665 0
M  V30 4130 C 411.859 -0.243398 2.29513 0
M  V30 4131 C 412.829 -0.940139 1.36933 0
M  V30 4132 O 414.014 -0.942503 1.65896 0
M  V30 4133 C 411.154 -1.28855 3.20141 0
M  V30 4134 C 410.267 -0.60135 4.27794 0
M  V30 4135 C 409.402 -1.62884 5.05611 0
M  V30 4136 C 408.441 -0.924726 6.05075 0
M  V30 4137 N 407.578 -1.89744 6.75975 0
M  V30 4138 H 412.418 0.452234 2.94549 0
M  V30 4139 H 409.955 0.234858 1.45213 0
M  V30 4140 H 411.913 -1.90674 3.71079 0
M  V30 4141 H 410.543 -1.95266 2.57043 0
M  V30 4142 H 409.595 0.130623 3.80176 0
M  V30 4143 H 410.907 -0.0481585 4.98777 0
M  V30 4144 H 410.061 -2.32149 5.60528 0
M  V30 4145 H 408.8 -2.21592 4.34452 0
M  V30 4146 H 407.805 -0.217966 5.49368 0
M  V30 4147 H 409.03 -0.343851 6.78229 0
M  V30 4148 H 406.976 -2.47373 6.07571 0
M  V30 4149 H 406.893 -1.3955 7.43009 0
M  V30 4150 H 408.161 -2.58229 7.35485 0
M  V30 4151 N 412.39 -1.55475 0.257931 0
M  V30 4152 C 413.618 -2.03609 -0.367559 0
M  V30 4153 C 414.033 -1.13687 -1.50734 0
M  V30 4154 O 413.39 -0.153479 -1.81853 0
M  V30 4155 C 413.441 -3.51001 -0.864908 0
M  V30 4156 O 413.162 -4.37499 0.229465 0
M  V30 4157 C 414.663 -4.14946 -1.55997 0
M  V30 4158 H 411.883 -0.665459 -0.0860521 0
M  V30 4159 H 414.427 -2.00843 0.385014 0
M  V30 4160 H 412.582 -3.54266 -1.56762 0
M  V30 4161 H 412.996 -5.24286 -0.14998 0
M  V30 4162 H 414.47 -5.19735 -1.85956 0
M  V30 4163 H 414.947 -3.6209 -2.4857 0
M  V30 4164 H 415.553 -4.15635 -0.901543 0
M  V30 4165 N 413.868 0.0150385 -1.57593 0
M  V30 4166 C 415.117 0.702115 -1.89085 0
M  V30 4167 C 415.43 1.75764 -0.858277 0
M  V30 4168 O 416.636 2.49829 -1.0629 0
M  V30 4169 C 415.092 1.29992 -3.35604 0
M  V30 4170 C 414.7 0.280007 -4.47124 0
M  V30 4171 C 416.444 1.96606 -3.76227 0
M  V30 4172 C 414.351 0.886949 -5.84711 0
M  V30 4173 H 413.281 0.265997 -0.705522 0
M  V30 4174 H 415.932 -0.0430408 -1.8345 0
M  V30 4175 H 414.314 2.09525 -3.36029 0
M  V30 4176 H 415.488 -0.489631 -4.58191 0
M  V30 4177 H 413.803 -0.284835 -4.15425 0
M  V30 4178 H 416.4 2.42893 -4.76347 0
M  V30 4179 H 416.743 2.79024 -3.08952 0
M  V30 4180 H 417.276 1.23828 -3.78036 0
M  V30 4181 H 414.015 0.101876 -6.55421 0
M  V30 4182 H 413.535 1.6261 -5.77337 0
M  V30 4183 H 415.214 1.39011 -6.3189 0
M  V30 4184 N 415.346 1.54954 0.287554 0
M  V30 4185 C 416.294 1.87606 1.37502 0
M  V30 4186 C 417.288 0.751001 1.51843 0
M  V30 4187 O 418.494 0.935169 1.53801 0
M  V30 4188 H 414.869 0.595231 0.459569 0
M  V30 4189 H 416.84 2.78477 1.07206 0
M  V30 4190 C 415.589 2.15183 2.73115 0
M  V30 4191 H 414.912 3.01234 2.62866 0
M  V30 4192 H 416.352 2.4196 3.48183 0
M  V30 4193 C 414.811 0.954686 3.2309 0
M  V30 4194 O 415.341 0.181949 4.01288 0
M  V30 4195 N 413.547 0.756368 2.80584 0
M  V30 4196 H 413.094 1.38643 2.17108 0
M  V30 4197 H 413.052 -0.0430391 3.14371 0
M  V30 4198 N 416.824 -0.551391 1.4764 0
M  V30 4199 C 417.756 -1.67333 1.56628 0
M  V30 4200 C 418.769 -1.56398 0.452045 0
M  V30 4201 O 419.958 -1.6325 0.721926 0
M  V30 4202 C 417.058 -3.05841 1.45994 0
M  V30 4203 C 416.231 -3.42472 2.72088 0
M  V30 4204 C 415.29 -4.60168 2.55209 0
M  V30 4205 O 414.316 -4.64458 3.2904 0
M  V30 4206 N 415.518 -5.57024 1.63416 0
M  V30 4207 H 418.283 -1.60066 2.53375 0
M  V30 4208 H 415.844 -0.738169 1.44093 0
M  V30 4209 H 417.836 -3.8242 1.32428 0
M  V30 4210 H 416.406 -3.07302 0.573071 0
M  V30 4211 H 415.626 -2.55284 3.00373 0
M  V30 4212 H 416.914 -3.63723 3.55785 0
M  V30 4213 H 416.312 -5.56319 1.02594 0
M  V30 4214 H 414.869 -6.32906 1.558 0
M  V30 4215 N 418.302 -1.35869 -0.798587 0
M  V30 4216 C 419.212 -1.31578 -1.94228 0
M  V30 4217 C 420.228 -0.21939 -1.72611 0
M  V30 4218 O 421.404 -0.450167 -1.96305 0
M  V30 4219 C 418.469 -1.09528 -3.28944 0
M  V30 4220 C 417.53 -2.28556 -3.63402 0
M  V30 4221 C 416.763 -2.07549 -4.9169 0
M  V30 4222 O 416.986 -1.046 -5.60727 0
M  V30 4223 O 415.92 -2.95106 -5.24591 0
M  V30 4224 H 419.746 -2.27847 -2.00796 0
M  V30 4225 H 417.331 -1.16322 -0.937526 0
M  V30 4226 H 419.213 -0.991127 -4.09579 0
M  V30 4227 H 417.888 -0.16315 -3.23289 0
M  V30 4228 H 416.795 -2.44538 -2.83112 0
M  V30 4229 H 418.128 -3.20244 -3.73771 0
M  V30 4230 N 419.78 1.02168 -1.19998 0
M  V30 4231 C 421.005 1.79833 -1.03319 0
M  V30 4232 C 421.43 1.83504 0.413281 0
M  V30 4233 O 420.788 1.26635 1.29743 0
M  V30 4234 C 420.836 3.22396 -1.61533 0
M  V30 4235 O 419.94 4.03555 -0.849519 0
M  V30 4236 H 419.281 0.554872 -0.364709 0
M  V30 4237 H 421.811 1.28542 -1.59179 0
M  V30 4238 H 421.821 3.73124 -1.65054 0
M  V30 4239 H 420.496 3.19039 -2.66809 0
M  V30 4240 H 419.073 3.62169 -0.888129 0
M  V30 4241 N 421.258 1.00505 1.21394 0
M  V30 4242 C 422.498 0.696149 1.9218 0
M  V30 4243 C 422.862 -0.759099 1.76357 0
M  V30 4244 O 424.063 -1.17998 2.41516 0
M  V30 4245 C 422.334 1.10571 3.39866 0
M  V30 4246 S 423.893 0.91702 4.29111 0
M  V30 4247 H 420.711 0.254147 0.664026 0
M  V30 4248 H 423.313 1.28988 1.46909 0
M  V30 4249 H 422.017 2.16096 3.489 0
M  V30 4250 H 421.548 0.504268 3.90155 0
M  V30 4251 H 423.563 -0.185855 4.95852 0
M  V30 4252 N 422.737 -1.36956 0.779787 0
M  V30 4253 C 423.986 -1.98738 0.344405 0
M  V30 4254 C 424.299 -1.62596 -1.08728 0
M  V30 4255 O 425.505 -2.1754 -1.62445 0
M  V30 4256 C 423.961 -3.5544 0.564829 0
M  V30 4257 C 423.569 -4.00514 2.0073 0
M  V30 4258 C 425.313 -4.24059 0.193471 0
M  V30 4259 C 423.22 -5.49957 2.17489 0
M  V30 4260 H 422.15 -0.743561 0.12503 0
M  V30 4261 H 424.801 -1.56381 0.960057 0
M  V30 4262 H 423.183 -3.95817 -0.120397 0
M  V30 4263 H 424.357 -3.71362 2.72814 0
M  V30 4264 H 422.672 -3.44703 2.336 0
M  V30 4265 H 425.269 -5.33874 0.297097 0
M  V30 4266 H 425.612 -4.07378 -0.857263 0
M  V30 4267 H 426.145 -3.89012 0.831556 0
M  V30 4268 H 422.884 -5.71574 3.2091 0
M  V30 4269 H 422.404 -5.80767 1.49899 0
M  V30 4270 H 424.083 -6.16043 1.97738 0
M  V30 4271 N 424.215 -0.530993 -1.48385 0
M  V30 4272 C 425.125 0.23503 -2.3342 0
M  V30 4273 C 426.141 0.93801 -1.46552 0
M  V30 4274 O 427.317 0.912745 -1.7953 0
M  V30 4275 C 424.382 1.26778 -3.22689 0
M  V30 4276 C 423.443 0.575038 -4.25431 0
M  V30 4277 C 422.676 1.55858 -5.10435 0
M  V30 4278 O 422.899 2.79129 -4.97437 0
M  V30 4279 O 421.833 1.09742 -5.91811 0
M  V30 4280 H 425.659 -0.461794 -3.00169 0
M  V30 4281 H 423.244 -0.291903 -1.46521 0
M  V30 4282 H 425.126 1.86457 -3.77904 0
M  V30 4283 H 423.801 1.94699 -2.586 0
M  V30 4284 H 422.708 -0.0622782 -3.74048 0
M  V30 4285 H 424.041 -0.062253 -4.92161 0
M  V30 4286 N 425.693 1.55336 -0.266172 0
M  V30 4287 C 427.104 1.85236 0.233315 0
M  V30 4288 C 427.455 1.18816 1.56132 0
M  V30 4289 O 426.58 0.473307 2.11161 0
M  V30 4290 C 427.175 3.36059 0.430113 0
M  V30 4291 C 425.734 3.66116 0.873842 0
M  V30 4292 C 424.881 2.77274 -0.0380016 0
M  V30 4293 H 427.832 1.51004 -0.488214 0
M  V30 4294 H 427.853 3.58681 1.26998 0
M  V30 4295 H 427.365 3.84373 -0.536588 0
M  V30 4296 H 425.466 3.23295 1.85233 0
M  V30 4297 H 425.579 4.73699 0.717358 0
M  V30 4298 H 423.943 2.50198 0.476759 0
M  V30 4299 H 424.726 3.284 -1.00042 0
M  V30 4300 N 427.171 -0.0066808 1.57599 0
M  V30 4301 C 428.101 -0.999296 2.11036 0
M  V30 4302 C 429.082 -1.36278 1.01795 0
M  V30 4303 O 430.267 -1.4477 1.29442 0
M  V30 4304 C 427.397 -2.29328 2.60818 0
M  V30 4305 C 426.351 -2.07159 3.74525 0
M  V30 4306 C 425.677 -3.42512 4.10596 0
M  V30 4307 C 426.977 -1.43959 5.02069 0
M  V30 4308 H 428.671 -0.554382 2.94223 0
M  V30 4309 H 426.217 -0.265221 1.41536 0
M  V30 4310 H 428.17 -2.99117 2.96828 0
M  V30 4311 H 426.894 -2.7592 1.74745 0
M  V30 4312 H 425.553 -1.39797 3.38899 0
M  V30 4313 H 425.201 -3.86795 3.21556 0
M  V30 4314 H 424.901 -3.28498 4.87199 0
M  V30 4315 H 426.425 -4.13628 4.4916 0
M  V30 4316 H 427.839 -2.03696 5.35893 0
M  V30 4317 H 426.236 -1.40452 5.83432 0
M  V30 4318 H 427.306 -0.407992 4.83181 0
M  V30 4319 N 428.649 -1.55105 -0.279332 0
M  V30 4320 C 429.612 -1.86783 -1.32834 0
M  V30 4321 C 430.612 -0.74199 -1.42657 0
M  V30 4322 O 431.802 -1.0102 -1.41918 0
M  V30 4323 C 428.934 -2.06746 -2.71052 0
M  V30 4324 H 430.127 -2.8055 -1.05979 0
M  V30 4325 H 427.68 -1.47499 -0.517087 0
M  V30 4326 H 428.415 -1.15339 -3.03097 0
M  V30 4327 H 428.2 -2.88711 -2.65309 0
M  V30 4328 H 429.69 -2.32549 -3.46858 0
M  V30 4329 N 430.127 0.543554 -1.4793 0
M  V30 4330 C 431.037 1.67657 -1.64098 0
M  V30 4331 C 432.053 1.65934 -0.523622 0
M  V30 4332 O 433.229 1.85133 -0.792943 0
M  V30 4333 C 430.294 3.04146 -1.66421 0
M  V30 4334 C 429.355 3.16831 -2.89684 0
M  V30 4335 C 428.588 4.46809 -2.91886 0
M  V30 4336 O 428.811 5.33095 -2.02895 0
M  V30 4337 O 427.745 4.63573 -3.83906 0
M  V30 4338 H 431.571 1.56957 -2.59997 0
M  V30 4339 H 429.156 0.715116 -1.31173 0
M  V30 4340 H 431.038 3.85346 -1.70548 0
M  V30 4341 H 429.713 3.152 -0.736923 0
M  V30 4342 H 428.62 2.34977 -2.91095 0
M  V30 4343 H 429.953 3.10687 -3.81752 0
M  V30 4344 N 431.605 1.3629 0.791371 0
M  V30 4345 C 432.83 1.33726 1.58531 0
M  V30 4346 C 433.255 -0.0794933 1.87932 0
M  V30 4347 O 432.613 -1.05087 1.47738 0
M  V30 4348 C 432.661 2.16425 2.88431 0
M  V30 4349 O 431.765 1.5554 3.81944 0
M  V30 4350 H 431.106 0.457793 0.480959 0
M  V30 4351 H 433.636 1.79547 0.981031 0
M  V30 4352 H 433.646 2.28933 3.37718 0
M  V30 4353 H 432.321 3.19415 2.66359 0
M  V30 4354 H 430.898 1.51961 3.40532 0
M  V30 4355 N 433.083 -1.0153 1.20538 0
M  V30 4356 C 434.332 -1.74558 1.01057 0
M  V30 4357 C 434.645 -1.90168 -0.457756 0
M  V30 4358 O 435.851 -2.60301 -0.771722 0
M  V30 4359 C 434.307 -3.13963 1.75941 0
M  V30 4360 C 433.915 -3.06361 3.26875 0
M  V30 4361 C 435.659 -3.91191 1.64832 0
M  V30 4362 C 433.566 -4.40782 3.94291 0
M  V30 4363 H 432.496 -0.654417 0.374505 0
M  V30 4364 H 435.147 -1.13521 1.44171 0
M  V30 4365 H 433.529 -3.75549 1.25614 0
M  V30 4366 H 434.703 -2.54074 3.84425 0
M  V30 4367 H 433.018 -2.42625 3.38411 0
M  V30 4368 H 435.615 -4.90644 2.12539 0
M  V30 4369 H 435.958 -4.11884 0.604745 0
M  V30 4370 H 436.491 -3.36236 2.12579 0
M  V30 4371 H 433.23 -4.25292 4.98805 0
M  V30 4372 H 432.75 -4.9307 3.41529 0
M  V30 4373 H 434.429 -5.09621 3.98617 0
M  V30 4374 N 434.561 -1.01147 -1.20859 0
M  V30 4375 C 435.789 -0.716911 -1.94082 0
M  V30 4376 C 436.204 0.721568 -1.74467 0
M  V30 4377 O 435.561 1.48889 -1.05539 0
M  V30 4378 C 435.612 -1.03662 -3.46318 0
M  V30 4379 O 435.333 -2.4186 -3.65288 0
M  V30 4380 C 436.834 -0.762386 -4.36695 0
M  V30 4381 H 434.054 -0.26367 -0.617024 0
M  V30 4382 H 436.598 -1.35127 -1.53496 0
M  V30 4383 H 434.753 -0.447757 -3.84804 0
M  V30 4384 H 435.167 -2.53224 -4.59323 0
M  V30 4385 H 436.641 -1.03621 -5.42187 0
M  V30 4386 H 437.118 0.303514 -4.3815 0
M  V30 4387 H 437.724 -1.33316 -4.03865 0
M  V30 4388 N 436.039 1.36541 -0.78704 0
M  V30 4389 C 437.316 1.9355 -0.282424 0
M  V30 4390 C 437.696 1.71919 1.22503 0
M  V30 4391 O 437.044 1.07677 2.01539 0
M  V30 4392 C 437.254 3.4246 -0.672462 0
M  V30 4393 C 438.602 4.19582 -0.650863 0
M  V30 4394 O 439.626 3.50889 -0.612789 0
M  V30 4395 O 438.485 5.42106 -0.691623 0
M  V30 4396 H 435.579 0.824091 -0.0693 0
M  V30 4397 H 438.125 1.45736 -0.869423 0
M  V30 4398 H 436.897 3.51851 -1.71221 0
M  V30 4399 H 436.52 3.97556 -0.0592211 0
M  V30 4400 N 437.518 0.538854 1.48102 0
M  V30 4401 C 438.764 0.00801365 2.02798 0
M  V30 4402 C 439.097 -1.3309 1.41424 0
M  V30 4403 O 438.372 -1.86169 0.563158 0
M  V30 4404 C 438.655 -0.104589 3.59948 0
M  V30 4405 C 438.508 1.26012 4.31788 0
M  V30 4406 C 439.827 -0.827055 4.32259 0
M  V30 4407 H 436.946 0.00438624 0.736987 0
M  V30 4408 H 439.588 0.6976 1.7673 0
M  V30 4409 H 437.738 -0.691893 3.82289 0
M  V30 4410 H 439.41 1.88922 4.2084 0
M  V30 4411 H 437.653 1.83968 3.92859 0
M  V30 4412 H 438.324 1.13424 5.40221 0
M  V30 4413 H 440.8 -0.328578 4.14801 0
M  V30 4414 H 439.676 -0.87476 5.41885 0
M  V30 4415 H 439.937 -1.87927 4.0017 0
M  V30 4416 N 438.996 -1.55193 0.274407 0
M  V30 4417 C 439.926 -2.25471 -0.607032 0
M  V30 4418 C 440.907 -1.24461 -1.15946 0
M  V30 4419 O 442.092 -1.53179 -1.19373 0
M  V30 4420 C 439.222 -2.97526 -1.79153 0
M  V30 4421 C 438.176 -4.05459 -1.37067 0
M  V30 4422 C 437.502 -4.65084 -2.6382 0
M  V30 4423 C 438.802 -5.19691 -0.521389 0
M  V30 4424 H 440.496 -2.99393 -0.0209343 0
M  V30 4425 H 438.042 -1.43997 -0.00862866 0
M  V30 4426 H 439.995 -3.45402 -2.41404 0
M  V30 4427 H 438.719 -2.21138 -2.40344 0
M  V30 4428 H 437.378 -3.58393 -0.771355 0
M  V30 4429 H 437.026 -3.85365 -3.23268 0
M  V30 4430 H 436.726 -5.37961 -2.36372 0
M  V30 4431 H 438.25 -5.15708 -3.26921 0
M  V30 4432 H 439.664 -5.63623 -1.04889 0
M  V30 4433 H 438.061 -5.99126 -0.341825 0
M  V30 4434 H 439.131 -4.82713 0.46 0
M  V30 4435 N 440.474 -0.00167713 -1.576 0
M  V30 4436 C 441.72 0.683832 -1.90923 0
M  V30 4437 C 442.053 1.7333 -0.875799 0
M  V30 4438 O 441.328 1.94215 0.10525 0
M  V30 4439 C 441.611 1.32543 -3.3482 0
M  V30 4440 C 441.464 0.287387 -4.48881 0
M  V30 4441 C 442.783 2.25114 -3.78169 0
M  V30 4442 H 439.902 0.247125 -0.694333 0
M  V30 4443 H 442.544 -0.0533149 -1.89925 0
M  V30 4444 H 440.694 1.95372 -3.35801 0
M  V30 4445 H 442.366 -0.341346 -4.60035 0
M  V30 4446 H 440.609 -0.39017 -4.32042 0
M  V30 4447 H 441.28 0.775393 -5.46527 0
M  V30 4448 H 443.756 1.723 -3.7875 0
M  V30 4449 H 442.632 2.66971 -4.79602 0
M  V30 4450 H 442.893 3.13092 -3.12131 0
M  V30 4451 N 441.952 1.55251 0.271103 0
M  V30 4452 C 443.368 1.47133 0.618393 0
M  V30 4453 C 443.568 0.686994 1.89427 0
M  V30 4454 O 442.624 0.206609 2.51653 0
M  V30 4455 C 443.937 2.91361 0.743593 0
M  V30 4456 C 445.485 3.01587 0.837522 0
M  V30 4457 C 445.96 4.47073 0.994483 0
M  V30 4458 N 447.451 4.50909 1.05996 0
M  V30 4459 C 448.186 5.60698 1.20024 0
M  V30 4460 N 447.682 6.80348 1.30759 0
M  V30 4461 N 449.475 5.48444 1.23149 0
M  V30 4462 H 441.626 2.04698 -0.566784 0
M  V30 4463 H 443.889 0.928319 -0.192165 0
M  V30 4464 H 443.595 3.51483 -0.123493 0
M  V30 4465 H 443.469 3.40484 1.62328 0
M  V30 4466 H 445.856 2.4156 1.69507 0
M  V30 4467 H 445.937 2.55713 -0.0668086 0
M  V30 4468 H 445.581 5.07703 0.141582 0
M  V30 4469 H 445.511 4.90605 1.91349 0
M  V30 4470 H 448.002 3.6472 0.989316 0
M  V30 4471 H 448.315 7.59772 1.41303 0
M  V30 4472 H 446.66 6.83156 1.27761 0
M  V30 4473 H 449.851 4.53907 1.14394 0
M  V30 4474 H 450.024 6.34049 1.33738 0
M  V30 4475 N 443.43 -0.535701 1.48216 0
M  V30 4476 C 444.658 -1.31671 1.59594 0
M  V30 4477 C 445.073 -1.87083 0.254056 0
M  V30 4478 O 444.43 -1.66112 -0.755854 0
M  V30 4479 C 444.481 -2.47158 2.63809 0
M  V30 4480 O 444.202 -1.94032 3.92789 0
M  V30 4481 C 445.703 -3.39062 2.85573 0
M  V30 4482 H 442.923 -0.400623 0.538277 0
M  V30 4483 H 445.467 -0.646827 1.94001 0
M  V30 4484 H 443.622 -3.10043 2.32276 0
M  V30 4485 H 444.036 -2.69585 4.49916 0
M  V30 4486 H 445.51 -4.16459 3.62306 0
M  V30 4487 H 445.987 -3.93941 1.94184 0
M  V30 4488 H 446.593 -2.81975 3.18387 0
M  V30 4489 N 444.908 -1.36708 -0.784132 0
M  V30 4490 C 445.855 -1.31466 -1.89698 0
M  V30 4491 C 446.825 -0.18239 -1.65096 0
M  V30 4492 O 448.01 -0.369762 -1.87183 0
M  V30 4493 C 445.15 -1.1151 -3.26588 0
M  V30 4494 C 444.263 -2.33859 -3.63227 0
M  V30 4495 C 443.398 -2.06873 -4.89262 0
M  V30 4496 C 442.437 -3.25154 -5.18595 0
M  V30 4497 N 441.574 -2.978 -6.35814 0
M  V30 4498 H 446.414 -2.26619 -1.93515 0
M  V30 4499 H 443.951 -1.12625 -0.946256 0
M  V30 4500 H 445.909 -0.979653 -4.05535 0
M  V30 4501 H 444.539 -0.200103 -3.22179 0
M  V30 4502 H 443.591 -2.58188 -2.79362 0
M  V30 4503 H 444.903 -3.22109 -3.8085 0
M  V30 4504 H 444.057 -1.90289 -5.76086 0
M  V30 4505 H 442.796 -1.15942 -4.73718 0
M  V30 4506 H 441.801 -3.42292 -4.30251 0
M  V30 4507 H 443.026 -4.1692 -5.36055 0
M  V30 4508 H 440.972 -2.09485 -6.21653 0
M  V30 4509 H 440.889 -3.7959 -6.53794 0
M  V30 4510 H 442.157 -2.84805 -7.25607 0
M  V30 4511 N 446.386 1.0089 -1.21074 0
M  V30 4512 C 447.802 1.2695 -0.967257 0
M  V30 4513 C 448.002 1.9846 0.348673 0
M  V30 4514 O 447.058 2.28459 1.0753 0
M  V30 4515 C 448.371 2.09697 -2.15517 0
M  V30 4516 C 449.919 2.22937 -2.197 0
M  V30 4517 C 450.394 3.09064 -3.37999 0
M  V30 4518 N 451.885 3.16653 -3.38061 0
M  V30 4519 C 452.62 3.8354 -4.26245 0
M  V30 4520 N 452.116 4.52488 -5.2462 0
M  V30 4521 N 453.909 3.80141 -4.14064 0
M  V30 4522 H 446.06 0.529005 -2.05707 0
M  V30 4523 H 448.323 0.296148 -0.900556 0
M  V30 4524 H 448.029 1.64497 -3.10859 0
M  V30 4525 H 447.903 3.10444 -2.14253 0
M  V30 4526 H 450.29 2.67357 -1.24916 0
M  V30 4527 H 450.371 1.21673 -2.2501 0
M  V30 4528 H 450.015 2.65347 -4.33074 0
M  V30 4529 H 449.945 4.10433 -3.29928 0
M  V30 4530 H 452.436 2.67566 -2.66865 0
M  V30 4531 H 452.749 5.01219 -5.88217 0
M  V30 4532 H 451.094 4.51288 -5.28549 0
M  V30 4533 H 454.285 3.25427 -3.36474 0
M  V30 4534 H 454.458 4.31992 -4.82998 0
M  V30 4535 N 447.864 1.01787 1.20321 0
M  V30 4536 C 449.141 0.622978 1.85414 0
M  V30 4537 C 449.521 -0.898887 1.91006 0
M  V30 4538 O 448.869 -1.79112 1.41884 0
M  V30 4539 C 449.079 1.27226 3.24984 0
M  V30 4540 C 450.427 1.3885 4.01255 0
M  V30 4541 O 451.451 1.22857 3.34342 0
M  V30 4542 O 450.31 1.64705 5.2109 0
M  V30 4543 H 447.404 0.215116 0.798533 0
M  V30 4544 H 449.95 1.11533 1.27901 0
M  V30 4545 H 448.722 2.31209 3.15687 0
M  V30 4546 H 448.345 0.767069 3.90131 0
M  V30 4547 N 449.342 -1.36122 0.79427 0
M  V30 4548 C 450.588 -1.99846 0.378542 0
M  V30 4549 C 450.943 -1.61898 -1.03955 0
M  V30 4550 O 450.236 -0.866013 -1.70912 0
M  V30 4551 C 450.43 -3.5409 0.48527 0
M  V30 4552 C 450.259 -4.0702 1.91219 0
M  V30 4553 C 449.029 -4.36944 2.53787 0
M  V30 4554 C 451.227 -4.26435 2.87502 0
M  V30 4555 N 449.209 -4.75727 3.88017 0
M  V30 4556 C 450.58 -4.68077 4.06576 0
M  V30 4557 C 452.635 -4.08616 2.84495 0
M  V30 4558 C 451.338 -4.93765 5.23057 0
M  V30 4559 C 453.364 -4.35453 4.00169 0
M  V30 4560 C 452.726 -4.77355 5.17988 0
M  V30 4561 H 448.825 -0.759549 0.186034 0
M  V30 4562 H 451.409 -1.65043 1.0329 0
M  V30 4563 H 449.58 -3.88151 -0.139023 0
M  V30 4564 H 451.312 -4.04675 0.0453192 0
M  V30 4565 H 448.067 -4.26822 2.05231 0
M  V30 4566 H 448.491 -4.99396 4.57092 0
M  V30 4567 H 453.133 -3.75373 1.94564 0
M  V30 4568 H 450.851 -5.25887 6.1357 0
M  V30 4569 H 454.437 -4.2323 3.99208 0
M  V30 4570 H 453.317 -4.97718 6.06008 0
M  V30 4571 N 450.82 -0.546701 -1.47814 0
M  V30 4572 C 451.75 0.195317 -2.32682 0
M  V30 4573 C 452.731 0.918981 -1.43139 0
M  V30 4574 O 453.916 0.901501 -1.72008 0
M  V30 4575 C 451.046 1.23237 -3.247 0
M  V30 4576 C 450 0.625818 -4.234 0
M  V30 4577 C 449.326 1.76674 -5.04669 0
M  V30 4578 C 450.626 -0.413515 -5.2066 0
M  V30 4579 H 452.32 -0.513184 -2.94969 0
M  V30 4580 H 449.866 -0.248241 -1.41844 0
M  V30 4581 H 451.819 1.75955 -3.82907 0
M  V30 4582 H 450.543 1.97067 -2.60446 0
M  V30 4583 H 449.202 0.120023 -3.66403 0
M  V30 4584 H 448.85 2.49383 -4.36826 0
M  V30 4585 H 448.55 1.36673 -5.71484 0
M  V30 4586 H 450.074 2.29738 -5.65732 0
M  V30 4587 H 451.488 0.0272042 -5.73294 0
M  V30 4588 H 449.885 -0.731825 -5.95621 0
M  V30 4589 H 450.955 -1.31325 -4.66778 0
M  V30 4590 N 452.299 1.55045 -0.282633 0
M  V30 4591 C 453.545 2.00056 0.332481 0
M  V30 4592 C 453.878 1.1708 1.54939 0
M  V30 4593 O 453.153 0.2427 1.9298 0
M  V30 4594 C 453.436 3.53086 0.70725 0
M  V30 4595 C 453.289 4.46813 -0.517521 0
M  V30 4596 C 454.608 4.12245 1.54084 0
M  V30 4597 H 451.727 0.727268 0.119373 0
M  V30 4598 H 454.369 1.85932 -0.391076 0
M  V30 4599 H 452.519 3.65253 1.32372 0
M  V30 4600 H 454.191 4.46579 -1.15607 0
M  V30 4601 H 452.434 4.18163 -1.1542 0
M  V30 4602 H 453.105 5.51595 -0.211426 0
M  V30 4603 H 455.581 4.03401 1.02013 0
M  V30 4604 H 454.457 5.19515 1.77186 0
M  V30 4605 H 454.718 3.62951 2.52427 0
M  V30 4606 N 453.777 0.010035 1.57597 0
M  V30 4607 C 454.724 -0.978122 2.09049 0
M  V30 4608 C 455.694 -1.33509 0.988159 0
M  V30 4609 O 456.879 -1.43172 1.26121 0
M  V30 4610 C 454.019 -2.26158 2.60666 0
M  V30 4611 C 453.132 -1.96275 3.84838 0
M  V30 4612 C 452.267 -3.18776 4.24918 0
M  V30 4613 C 451.306 -2.84625 5.41899 0
M  V30 4614 N 450.443 -3.99693 5.77226 0
M  V30 4615 H 455.283 -0.532431 2.93205 0
M  V30 4616 H 452.82 -0.251234 1.44939 0
M  V30 4617 H 454.778 -3.01202 2.88675 0
M  V30 4618 H 453.408 -2.68378 1.79369 0
M  V30 4619 H 452.46 -1.11555 3.63675 0
M  V30 4620 H 453.772 -1.67111 4.69974 0
M  V30 4621 H 452.926 -4.02157 4.54262 0
M  V30 4622 H 451.665 -3.51087 3.38511 0
M  V30 4623 H 450.67 -1.99653 5.12268 0
M  V30 4624 H 451.895 -2.53551 6.29991 0
M  V30 4625 H 449.841 -4.31882 4.93776 0
M  V30 4626 H 449.758 -3.74087 6.56959 0
M  V30 4627 H 451.026 -4.83834 6.11167 0
M  V30 4628 N 455.255 -1.55392 -0.262866 0
M  V30 4629 C 456.187 -1.85392 -1.34768 0
M  V30 4630 C 457.2 -0.739069 -1.45057 0
M  V30 4631 O 458.389 -1.01703 -1.46693 0
M  V30 4632 C 455.489 -2.01088 -2.72795 0
M  V30 4633 C 454.662 -3.31828 -2.84972 0
M  V30 4634 C 453.721 -3.37464 -4.03738 0
M  V30 4635 O 452.747 -4.10778 -3.94018 0
M  V30 4636 N 453.949 -2.65599 -5.16176 0
M  V30 4637 H 456.714 -2.79029 -1.09375 0
M  V30 4638 H 454.275 -1.55434 -0.452981 0
M  V30 4639 H 456.267 -2.02217 -3.50557 0
M  V30 4640 H 454.837 -1.1427 -2.90966 0
M  V30 4641 H 454.057 -3.43152 -1.94012 0
M  V30 4642 H 455.345 -4.18032 -2.90045 0
M  V30 4643 H 454.743 -2.05736 -5.26962 0
M  V30 4644 H 453.3 -2.72439 -5.92132 0
M  V30 4645 N 456.733 0.527833 -1.48498 0
M  V30 4646 C 458.149 0.856571 -1.34666 0
M  V30 4647 C 458.349 1.98271 -0.35931 0
M  V30 4648 O 457.405 2.51551 0.218703 0
M  V30 4649 C 458.718 1.22207 -2.74747 0
M  V30 4650 C 460.266 1.33183 -2.83251 0
M  V30 4651 C 460.741 1.73075 -4.24039 0
M  V30 4652 N 462.232 1.80174 -4.26722 0
M  V30 4653 C 462.967 2.1243 -5.32598 0
M  V30 4654 N 462.463 2.43096 -6.4875 0
M  V30 4655 N 464.256 2.13454 -5.19994 0
M  V30 4656 H 456.407 -0.215174 -2.11307 0
M  V30 4657 H 458.67 -0.0336281 -0.947403 0
M  V30 4658 H 458.376 0.468195 -3.4857 0
M  V30 4659 H 458.25 2.17173 -3.08409 0
M  V30 4660 H 460.637 2.07647 -2.09683 0
M  V30 4661 H 460.718 0.363333 -2.53206 0
M  V30 4662 H 460.362 0.991712 -4.98124 0
M  V30 4663 H 460.292 2.70979 -4.51529 0
M  V30 4664 H 462.783 1.58744 -3.42942 0
M  V30 4665 H 463.096 2.6682 -7.25277 0
M  V30 4666 H 461.441 2.40611 -6.52021 0
M  V30 4667 H 464.632 1.88956 -4.28268 0
M  V30 4668 H 464.805 2.38261 -6.02608 0
M  V30 4669 N 458.211 1.37122 0.776871 0
M  V30 4670 C 459.459 1.31787 1.53221 0
M  V30 4671 C 459.78 -0.0987589 1.9475 0
M  V30 4672 O 459.05 -1.0417 1.65908 0
M  V30 4673 H 457.63 0.484839 0.568278 0
M  V30 4674 H 460.292 1.71556 0.924917 0
M  V30 4675 H 459.388 1.95355 2.43398 0
M  V30 4676 N 459.689 -1.00246 1.21608 0
M  V30 4677 C 460.935 -1.74417 1.04643 0
M  V30 4678 C 461.29 -1.87862 -0.415387 0
M  V30 4679 O 460.583 -1.40373 -1.30407 0
M  V30 4680 C 460.777 -3.15448 1.68009 0
M  V30 4681 C 460.606 -3.15755 3.20201 0
M  V30 4682 C 459.376 -3.2219 3.89258 0
M  V30 4683 C 461.574 -3.00668 4.17257 0
M  V30 4684 N 459.556 -3.1215 5.28617 0
M  V30 4685 C 460.927 -2.98553 5.43384 0
M  V30 4686 C 462.982 -2.84989 4.08272 0
M  V30 4687 C 461.685 -2.82364 6.61561 0
M  V30 4688 C 463.711 -2.70158 5.26088 0
M  V30 4689 C 463.073 -2.68721 6.51128 0
M  V30 4690 H 459.172 -0.648317 0.437274 0
M  V30 4691 H 461.756 -1.19129 1.54001 0
M  V30 4692 H 459.927 -3.69001 1.21215 0
M  V30 4693 H 461.659 -3.78128 1.44226 0
M  V30 4694 H 458.414 -3.29488 3.40198 0
M  V30 4695 H 458.838 -3.10465 6.01615 0
M  V30 4696 H 463.48 -2.84904 3.12393 0
M  V30 4697 H 461.198 -2.81196 7.57598 0
M  V30 4698 H 464.784 -2.59022 5.20959 0
M  V30 4699 H 463.664 -2.57382 7.40759 0
M  V30 4700 N 461.167 -1.02423 -1.1978 0
M  V30 4701 C 462.444 -0.632802 -1.85081 0
M  V30 4702 C 462.824 0.888745 -1.9148 0
M  V30 4703 O 462.172 1.78357 -1.42832 0
M  V30 4704 C 462.382 -1.28947 -3.24305 0
M  V30 4705 C 463.73 -1.40976 -4.00513 0
M  V30 4706 O 464.754 -1.24628 -3.33686 0
M  V30 4707 O 463.613 -1.67467 -5.20209 0
M  V30 4708 H 460.707 -0.219348 -0.79738 0
M  V30 4709 H 463.253 -1.12209 -1.27307 0
M  V30 4710 H 462.025 -2.3288 -3.14456 0
M  V30 4711 H 461.648 -0.787748 -3.89718 0
M  V30 4712 N 462.645 1.35699 -0.801477 0
M  V30 4713 C 463.893 1.9852 -0.37871 0
M  V30 4714 C 464.214 1.63907 1.05638 0
M  V30 4715 O 463.484 0.919013 1.73006 0
M  V30 4716 H 462.064 0.734322 -0.137042 0
M  V30 4717 H 464.726 1.65697 -1.02619 0
M  V30 4718 H 463.822 3.08382 -0.480284 0
M  V30 4719 N 464.123 0.554532 1.47522 0
M  V30 4720 C 465.37 0.029479 2.02479 0
M  V30 4721 C 465.698 -1.31929 1.42916 0
M  V30 4722 O 464.953 -1.87112 0.573385 0
M  V30 4723 C 465.252 -0.115927 3.57212 0
M  V30 4724 C 464.918 1.16161 4.3568 0
M  V30 4725 C 463.58 1.51168 4.56839 0
M  V30 4726 C 465.932 2.0083 4.80954 0
M  V30 4727 C 463.26 2.70696 5.2052 0
M  V30 4728 C 465.612 3.19559 5.45953 0
M  V30 4729 C 464.276 3.54882 5.65345 0
M  V30 4730 H 463.546 0.0107871 0.740921 0
M  V30 4731 H 466.193 0.725506 1.77225 0
M  V30 4732 H 464.498 -0.894902 3.81443 0
M  V30 4733 H 466.195 -0.53749 3.97381 0
M  V30 4734 H 462.785 0.879026 4.19489 0
M  V30 4735 H 466.969 1.75093 4.64388 0
M  V30 4736 H 462.225 2.98236 5.33728 0
M  V30 4737 H 466.399 3.85456 5.79997 0
M  V30 4738 H 464.026 4.47596 6.1446 0
M  V30 4739 N 465.601 -1.54893 0.290851 0
M  V30 4740 C 466.847 -2.0023 -0.321867 0
M  V30 4741 C 467.18 -1.179 -1.54316 0
M  V30 4742 O 466.455 -0.25293 -1.92848 0
M  V30 4743 C 466.738 -3.53456 -0.688515 0
M  V30 4744 C 466.591 -4.46532 0.541209 0
M  V30 4745 C 467.91 -4.13057 -1.51895 0
M  V30 4746 H 465.029 -0.727891 -0.115515 0
M  V30 4747 H 467.671 -1.85722 0.400931 0
M  V30 4748 H 465.821 -3.6595 -1.30433 0
M  V30 4749 H 467.493 -4.4596 1.17973 0
M  V30 4750 H 465.736 -4.17545 1.17636 0
M  V30 4751 H 466.407 -5.51475 0.240675 0
M  V30 4752 H 468.883 -4.03937 -0.99872 0
M  V30 4753 H 467.759 -5.20448 -1.74429 0
M  V30 4754 H 468.02 -3.64284 -2.50498 0
M  V30 4755 N 467.08 -0.0183926 -1.57589 0
M  V30 4756 C 467.99 0.982943 -2.13015 0
M  V30 4757 C 469.006 1.36443 -1.07979 0
M  V30 4758 O 470.182 1.44802 -1.3998 0
M  V30 4759 C 467.247 2.25024 -2.63752 0
M  V30 4760 C 466.308 1.93018 -3.83461 0
M  V30 4761 C 465.541 3.13706 -4.31769 0
M  V30 4762 O 465.764 4.2601 -3.79305 0
M  V30 4763 O 464.698 2.96629 -5.23732 0
M  V30 4764 H 468.524 0.541709 -2.9883 0
M  V30 4765 H 466.109 0.201565 -1.48034 0
M  V30 4766 H 467.991 2.99441 -2.96502 0
M  V30 4767 H 466.666 2.68349 -1.81026 0
M  V30 4768 H 465.573 1.16019 -3.55655 0
M  V30 4769 H 466.906 1.54516 -4.67317 0
M  V30 4770 N 468.558 1.5553 0.254621 0
M  V30 4771 C 469.805 1.77 0.983736 0
M  V30 4772 C 470.133 0.58133 1.85609 0
M  V30 4773 O 469.388 -0.435621 1.9079 0
M  V30 4774 C 469.687 3.03891 1.88109 0
M  V30 4775 C 469.353 4.35597 1.16472 0
M  V30 4776 C 468.015 4.7139 0.966714 0
M  V30 4777 C 470.367 5.1705 0.656387 0
M  V30 4778 C 467.695 5.86176 0.247942 0
M  V30 4779 C 470.047 6.32581 -0.0488807 0
M  V30 4780 C 468.711 6.67 -0.258438 0
M  V30 4781 H 467.981 0.647688 0.359974 0
M  V30 4782 H 470.628 1.89802 0.254463 0
M  V30 4783 H 468.933 2.86068 2.67717 0
M  V30 4784 H 470.63 3.17701 2.44677 0
M  V30 4785 H 467.22 4.07475 1.32899 0
M  V30 4786 H 471.404 4.8986 0.796933 0
M  V30 4787 H 466.66 6.11354 0.075035 0
M  V30 4788 H 470.834 6.94942 -0.450444 0
M  V30 4789 H 468.461 7.55793 -0.817358 0
M  V30 4790 N 470.036 -0.519951 1.48776 0
M  V30 4791 C 471.283 -1.27522 1.57303 0
M  V30 4792 C 471.611 -1.92869 0.251328 0
M  V30 4793 O 470.866 -1.80372 -0.759243 0
M  V30 4794 C 471.165 -2.37864 2.6675 0
M  V30 4795 C 470.831 -1.90103 4.08867 0
M  V30 4796 C 469.493 -1.76795 4.47546 0
M  V30 4797 C 471.845 -1.54133 4.97888 0
M  V30 4798 C 469.173 -1.25868 5.73039 0
M  V30 4799 C 471.525 -1.04665 6.23881 0
M  V30 4800 C 470.189 -0.899823 6.61407 0
M  V30 4801 H 469.459 -0.466636 0.575614 0
M  V30 4802 H 472.106 -0.579109 1.82534 0
M  V30 4803 H 470.411 -3.13186 2.35418 0
M  V30 4804 H 472.108 -2.95969 2.70561 0
M  V30 4805 H 468.698 -2.01414 3.78326 0
M  V30 4806 H 472.882 -1.6327 4.68675 0
M  V30 4807 H 468.138 -1.13196 6.0083 0
M  V30 4808 H 472.312 -0.759074 6.92251 0
M  V30 4809 H 469.939 -0.503011 7.58534 0
M  V30 4810 N 471.514 -1.37532 -0.769588 0
M  V30 4811 C 472.464 -1.29984 -1.87318 0
M  V30 4812 C 473.448 -0.187242 -1.59807 0
M  V30 4813 O 474.64 -0.421827 -1.719 0
M  V30 4814 C 471.769 -1.11126 -3.24817 0
M  V30 4815 C 470.855 -2.26939 -3.58273 0
M  V30 4816 N 471.246 -3.52336 -3.62895 0
M  V30 4817 C 469.544 -2.19141 -3.8845 0
M  V30 4818 C 470.245 -4.28719 -3.9316 0
M  V30 4819 N 469.221 -3.57884 -4.0917 0
M  V30 4820 H 473.023 -2.24946 -1.89147 0
M  V30 4821 H 470.537 -1.30535 -0.966143 0
M  V30 4822 H 472.534 -1.03803 -4.0377 0
M  V30 4823 H 471.194 -0.17083 -3.2425 0
M  V30 4824 H 472.205 -3.86216 -3.45048 0
M  V30 4825 H 468.882 -1.33167 -3.95693 0
M  V30 4826 H 470.272 -5.37254 -4.03494 0
M  V30 4827 N 472.992 0.995999 -1.22138 0
M  V30 4828 C 474.238 1.73767 -1.04561 0
M  V30 4829 C 474.571 1.89633 0.418698 0
M  V30 4830 O 473.846 1.43723 1.3105 0
M  V30 4831 C 474.129 3.14505 -1.75382 0
M  V30 4832 C 473.982 3.06306 -3.29388 0
M  V30 4833 C 475.301 4.13615 -1.50369 0
M  V30 4834 H 472.42 0.630728 -0.38125 0
M  V30 4835 H 475.062 1.16057 -1.50435 0
M  V30 4836 H 473.212 3.63775 -1.36383 0
M  V30 4837 H 474.884 2.64681 -3.77812 0
M  V30 4838 H 473.127 2.43186 -3.59226 0
M  V30 4839 H 473.798 4.05884 -3.74116 0
M  V30 4840 H 476.274 3.73089 -1.84239 0
M  V30 4841 H 475.15 5.10212 -2.02421 0
M  V30 4842 H 475.411 4.39949 -0.435611 0
M  V30 4843 N 474.47 1.03057 1.19235 0
M  V30 4844 C 475.38 0.622922 2.26179 0
M  V30 4845 C 476.396 -0.346113 1.70523 0
M  V30 4846 O 477.572 -0.203572 2.00369 0
M  V30 4847 C 474.637 -0.0182063 3.46695 0
M  V30 4848 C 473.698 0.998546 4.17526 0
M  V30 4849 C 472.931 0.387917 5.32288 0
M  V30 4850 O 473.154 -0.808668 5.64639 0
M  V30 4851 O 472.088 1.1116 5.91546 0
M  V30 4852 H 475.914 1.51363 2.63292 0
M  V30 4853 H 473.499 0.800856 1.26122 0
M  V30 4854 H 475.381 -0.375606 4.19723 0
M  V30 4855 H 474.056 -0.882895 3.11427 0
M  V30 4856 H 472.963 1.40756 3.4661 0
M  V30 4857 H 474.296 1.83366 4.56769 0
M  V30 4858 N 475.948 -1.35272 0.808662 0
M  V30 4859 C 477.225 -1.93077 0.313181 0
M  V30 4860 C 477.605 -1.73847 -1.19752 0
M  V30 4861 O 476.953 -1.1087 -1.998 0
M  V30 4862 C 477.163 -3.41347 0.726859 0
M  V30 4863 C 478.511 -4.18493 0.717532 0
M  V30 4864 O 479.535 -3.4987 0.668535 0
M  V30 4865 O 478.394 -5.40937 0.777779 0
M  V30 4866 H 475.488 -0.822885 0.0824018 0
M  V30 4867 H 478.034 -1.44335 0.892499 0
M  V30 4868 H 476.806 -3.49082 1.76797 0
M  V30 4869 H 476.429 -3.97411 0.122461 0
M  V30 4870 N 477.426 -0.562348 -1.47226 0
M  V30 4871 C 478.356 0.170627 -2.32876 0
M  V30 4872 C 479.337 0.903748 -1.44106 0
M  V30 4873 O 480.522 0.883206 -1.72954 0
M  V30 4874 C 477.652 1.19786 -3.25989 0
M  V30 4875 C 476.606 0.580875 -4.2404 0
M  V30 4876 C 475.932 1.71311 -5.06514 0
M  V30 4877 C 477.232 -0.468714 -5.20193 0
M  V30 4878 H 478.926 -0.544441 -2.94408 0
M  V30 4879 H 476.472 -0.263271 -1.41573 0
M  V30 4880 H 478.425 1.71884 -3.84752 0
M  V30 4881 H 477.149 1.94294 -2.62521 0
M  V30 4882 H 475.808 0.0811538 -3.6651 0
M  V30 4883 H 475.456 2.44736 -4.39447 0
M  V30 4884 H 475.156 1.30604 -5.72902 0
M  V30 4885 H 476.68 2.23725 -5.68137 0
M  V30 4886 H 478.094 -0.0336028 -5.7329 0
M  V30 4887 H 476.491 -0.794957 -5.94811 0
M  V30 4888 H 477.561 -1.36269 -4.65359 0
M  V30 4889 N 478.904 1.54736 -0.299062 0
M  V30 4890 C 479.814 2.27127 0.587413 0
M  V30 4891 C 480.83 1.30575 1.15005 0
M  V30 4892 O 482.006 1.63554 1.17525 0
M  V30 4893 C 479.071 2.99645 1.74395 0
M  V30 4894 C 478.132 4.11731 1.21559 0
M  V30 4895 C 477.365 4.80781 2.317 0
M  V30 4896 O 477.588 4.4918 3.51558 0
M  V30 4897 O 476.522 5.68226 1.98501 0
M  V30 4898 H 480.348 3.037 0.000250109 0
M  V30 4899 H 477.933 1.49256 -0.0655919 0
M  V30 4900 H 479.815 3.45138 2.4178 0
M  V30 4901 H 478.49 2.25969 2.31775 0
M  V30 4902 H 477.397 3.70641 0.507514 0
M  V30 4903 H 478.73 4.87379 0.687233 0
M  V30 4904 N 480.382 0.0267497 1.57577 0
M  V30 4905 C 481.63 -0.651116 1.91324 0
M  V30 4906 C 481.951 -1.72804 0.90353 0
M  V30 4907 O 481.221 -1.95822 -0.0552946 0
M  V30 4908 H 479.801 -0.243491 0.706202 0
M  V30 4909 H 482.463 0.0739935 1.94759 0
M  V30 4910 H 481.559 -1.10536 2.9187 0
M  V30 4911 N 481.861 -1.55662 -0.24637 0
M  V30 4912 C 483.109 -1.77168 -0.972411 0
M  V30 4913 C 483.43 -0.590827 -1.85834 0
M  V30 4914 O 482.7 0.393365 -1.9191 0
M  V30 4915 H 481.28 -0.653405 -0.362038 0
M  V30 4916 H 483.942 -1.93101 -0.264189 0
M  V30 4917 H 483.038 -2.68335 -1.59382 0
M  V30 4918 N 483.339 0.512053 -1.4905 0
M  V30 4919 C 484.588 1.26343 -1.57227 0
M  V30 4920 C 484.901 1.93876 -0.259155 0
M  V30 4921 O 486.107 2.70612 -0.219358 0
M  V30 4922 C 484.563 2.29343 -2.77362 0
M  V30 4923 C 484.171 1.67799 -4.15388 0
M  V30 4924 C 485.915 3.05378 -2.94864 0
M  V30 4925 C 483.822 2.68845 -5.2676 0
M  V30 4926 H 482.752 0.475231 -0.585382 0
M  V30 4927 H 485.403 0.53862 -1.75417 0
M  V30 4928 H 483.785 3.04938 -2.52643 0
M  V30 4929 H 484.959 0.982715 -4.50199 0
M  V30 4930 H 483.274 1.04194 -4.03153 0
M  V30 4931 H 485.871 3.80921 -3.75238 0
M  V30 4932 H 486.214 3.62327 -2.05 0
M  V30 4933 H 486.747 2.36898 -3.19569 0
M  V30 4934 H 483.486 2.16692 -6.18647 0
M  V30 4935 H 483.006 3.36647 -4.96416 0
M  V30 4936 H 484.685 3.31487 -5.5563 0
M  V30 4937 N 484.817 1.37938 0.762283 0
M  V30 4938 C 486.233 1.18945 1.06415 0
M  V30 4939 C 486.433 0.0321163 2.01474 0
M  V30 4940 O 485.489 -0.624844 2.44647 0
M  V30 4941 C 486.802 2.51218 1.65258 0
M  V30 4942 C 488.35 2.57824 1.7747 0
M  V30 4943 C 488.825 3.90251 2.39725 0
M  V30 4944 N 490.316 3.91744 2.47166 0
M  V30 4945 C 491.051 4.90966 2.96209 0
M  V30 4946 N 490.547 6.00585 3.45354 0
M  V30 4947 N 492.34 4.78363 2.9517 0
M  V30 4948 H 484.491 2.11994 0.131301 0
M  V30 4949 H 486.754 0.940262 0.120879 0
M  V30 4950 H 486.46 3.36317 1.02878 0
M  V30 4951 H 486.334 2.68989 2.64433 0
M  V30 4952 H 488.721 1.73126 2.3898 0
M  V30 4953 H 488.802 2.43928 0.770241 0
M  V30 4954 H 488.446 4.75368 1.78852 0
M  V30 4955 H 488.376 4.01454 3.40796 0
M  V30 4956 H 490.867 3.12563 2.12397 0
M  V30 4957 H 491.18 6.72236 3.81207 0
M  V30 4958 H 489.525 6.04217 3.43434 0
M  V30 4959 H 492.716 3.91841 2.56082 0
M  V30 4960 H 492.889 5.55843 3.33081 0
M  V30 4961 N 486.295 -0.989507 1.22664 0
M  V30 4962 C 487.243 -2.10148 0.997035 0
M  V30 4963 C 488.237 -1.6929 -0.0609783 0
M  V30 4964 O 489.443 -1.79766 0.0917523 0
M  V30 4965 H 485.818 -0.687256 0.305259 0
M  V30 4966 H 487.789 -2.26685 1.94053 0
M  V30 4967 C 486.538 -3.4257 0.595085 0
M  V30 4968 H 485.861 -3.74453 1.40089 0
M  V30 4969 H 487.301 -4.21344 0.473869 0
M  V30 4970 C 485.76 -3.29638 -0.695725 0
M  V30 4971 O 486.29 -3.61709 -1.74727 0
M  V30 4972 N 484.496 -2.82814 -0.668173 0
M  V30 4973 H 484.043 -2.56914 0.18787 0
M  V30 4974 H 484.001 -2.74544 -1.5321 0
M  V30 4975 N 487.773 -1.03688 -1.18687 0
M  V30 4976 C 489.019 -0.739123 -1.88851 0
M  V30 4977 C 489.352 0.731042 -1.79915 0
M  V30 4978 O 488.627 1.53313 -1.19688 0
M  V30 4979 C 488.91 -1.20106 -3.3948 0
M  V30 4980 C 488.763 -2.73304 -3.57246 0
M  V30 4981 C 490.082 -0.788134 -4.32986 0
M  V30 4982 H 487.201 -0.269978 -0.68577 0
M  V30 4983 H 489.843 -1.28822 -1.3966 0
M  V30 4984 H 487.993 -0.733915 -3.81505 0
M  V30 4985 H 489.665 -3.28027 -3.24339 0
M  V30 4986 H 487.908 -3.13313 -3.00029 0
M  V30 4987 H 488.579 -3.00684 -4.62918 0
M  V30 4988 H 491.055 -1.19005 -3.98719 0
M  V30 4989 H 489.931 -1.13915 -5.36949 0
M  V30 4990 H 490.192 0.308988 -4.41019 0
M  V30 4991 N 489.251 1.34841 -0.815825 0
M  V30 4992 C 490.181 2.32187 -0.247298 0
M  V30 4993 C 491.162 1.5791 0.632344 0
M  V30 4994 O 492.347 1.8593 0.560698 0
M  V30 4995 C 489.477 3.42122 0.597466 0
M  V30 4996 C 488.431 4.27602 -0.184446 0
M  V30 4997 C 487.757 5.28942 0.782609 0
M  V30 4998 C 489.057 5.03502 -1.38865 0
M  V30 4999 H 490.751 2.79985 -1.06061 0
M  V30 5000 H 488.297 1.34611 -0.511461 0
M  V30 5001 H 490.25 4.09232 1.00533 0
M  V30 5002 H 488.974 2.92956 1.44376 0
M  V30 5003 H 487.633 3.62085 -0.573592 0
M  V30 5004 H 487.281 4.7604 1.62466 0
M  V30 5005 H 486.981 5.87008 0.263695 0
M  V30 5006 H 488.505 5.98922 1.18848 0
M  V30 5007 H 489.919 5.63506 -1.05518 0
M  V30 5008 H 488.316 5.71108 -1.8427 0
M  V30 5009 H 489.386 4.33608 -2.17054 0
M  V30 5010 N 490.729 0.570148 1.46925 0
M  V30 5011 C 491.659 -0.158274 2.32963 0
M  V30 5012 C 492.64 -0.896093 1.44583 0
M  V30 5013 O 493.825 -0.874022 1.7342 0
M  V30 5014 C 490.955 -1.18055 3.26619 0
M  V30 5015 C 489.909 -0.558379 4.24342 0
M  V30 5016 C 489.235 -1.68623 5.07415 0
M  V30 5017 C 490.535 0.496295 5.19937 0
M  V30 5018 H 492.229 0.560046 2.94115 0
M  V30 5019 H 489.775 0.270775 1.41431 0
M  V30 5020 H 491.728 -1.69841 3.85658 0
M  V30 5021 H 490.452 -1.92899 2.63548 0
M  V30 5022 H 489.111 -0.0617157 3.66548 0
M  V30 5023 H 488.759 -2.42402 4.40738 0
M  V30 5024 H 488.459 -1.27564 5.73586 0
M  V30 5025 H 489.983 -2.20709 5.69315 0
M  V30 5026 H 491.397 0.0640052 5.73264 0
M  V30 5027 H 489.794 0.82649 5.94381 0
M  V30 5028 H 490.864 1.38735 4.6463 0
M  V30 5029 N 492.207 -1.54576 0.307264 0
M  V30 5030 C 493.17 -2.22423 -0.553224 0
M  V30 5031 C 494.17 -1.21231 -1.05639 0
M  V30 5032 O 495.36 -1.45923 -0.951419 0
M  V30 5033 C 492.492 -2.91552 -1.76664 0
M  V30 5034 H 493.685 -2.99874 0.0396484 0
M  V30 5035 H 491.238 -1.56192 0.0581629 0
M  V30 5036 H 491.973 -2.18196 -2.39918 0
M  V30 5037 H 491.758 -3.65738 -1.41343 0
M  V30 5038 H 493.248 -3.43292 -2.37783 0
M  V30 5039 N 493.685 -0.035106 -1.57561 0
M  V30 5040 C 494.932 0.642229 -1.92046 0
M  V30 5041 C 495.26 1.7179 -0.91206 0
M  V30 5042 O 494.515 1.95544 0.0781153 0
M  V30 5043 C 494.814 1.29149 -3.3325 0
M  V30 5044 C 494.48 0.345604 -4.49574 0
M  V30 5045 C 493.142 0.0852775 -4.81124 0
M  V30 5046 C 495.494 -0.303569 -5.20315 0
M  V30 5047 C 492.822 -0.831927 -5.80772 0
M  V30 5048 C 495.174 -1.20886 -6.20942 0
M  V30 5049 C 493.838 -1.47802 -6.50931 0
M  V30 5050 H 493.108 0.235008 -0.702746 0
M  V30 5051 H 495.755 -0.0981529 -1.91248 0
M  V30 5052 H 494.06 2.10676 -3.30337 0
M  V30 5053 H 495.757 1.82223 -3.57205 0
M  V30 5054 H 492.347 0.558683 -4.24943 0
M  V30 5055 H 496.531 -0.115515 -4.96166 0
M  V30 5056 H 491.787 -1.0481 -6.02349 0
M  V30 5057 H 495.961 -1.71804 -6.74875 0
M  V30 5058 H 493.588 -2.19039 -7.2796 0
M  V30 5059 N 495.163 1.55791 0.238111 0
M  V30 5060 C 496.126 1.90239 1.27835 0
M  V30 5061 C 497.126 0.779552 1.4064 0
M  V30 5062 O 498.316 1.04747 1.3919 0
M  V30 5063 C 495.448 2.13859 2.65475 0
M  V30 5064 H 496.641 2.83262 0.985034 0
M  V30 5065 H 494.194 1.48818 0.477799 0
M  V30 5066 H 494.929 1.23334 2.99932 0
M  V30 5067 H 494.714 2.95643 2.57561 0
M  V30 5068 H 496.204 2.41664 3.40571 0
M  V30 5069 N 496.642 -0.504142 1.49319 0
M  V30 5070 C 497.89 -1.25598 1.58334 0
M  V30 5071 C 498.211 -1.93114 0.270538 0
M  V30 5072 O 497.481 -1.82585 -0.709891 0
M  V30 5073 H 496.061 -0.466571 0.58337 0
M  V30 5074 H 498.723 -0.584547 1.85928 0
M  V30 5075 H 497.819 -2.02159 2.37778 0
M  V30 5076 N 498.12 -1.38341 -0.754957 0
M  V30 5077 C 499.366 -1.34672 -1.51628 0
M  V30 5078 C 499.699 0.0636036 -1.94096 0
M  V30 5079 O 498.974 1.0245 -1.6533 0
M  V30 5080 C 499.257 -2.30116 -2.76981 0
M  V30 5081 C 499.11 -3.80003 -2.4066 0
M  V30 5082 C 500.429 -2.23715 -3.78998 0
M  V30 5083 H 497.548 -0.490517 -0.550056 0
M  V30 5084 H 500.19 -1.69178 -0.864807 0
M  V30 5085 H 498.34 -2.00821 -3.3257 0
M  V30 5086 H 500.012 -4.19966 -1.90856 0
M  V30 5087 H 498.255 -3.97751 -1.73137 0
M  V30 5088 H 498.926 -4.42244 -3.30339 0
M  V30 5089 H 501.402 -2.49574 -3.32945 0
M  V30 5090 H 500.278 -2.9261 -4.64403 0
M  V30 5091 H 500.539 -1.23554 -4.24484 0
M  V30 5092 N 499.598 0.982988 -1.23187 0
M  V30 5093 C 500.561 2.05649 -1.01198 0
M  V30 5094 C 501.561 1.6078 0.0252464 0
M  V30 5095 O 502.751 1.72878 -0.214243 0
M  V30 5096 C 499.883 3.36744 -0.530656 0
M  V30 5097 H 501.076 2.2659 -1.96461 0
M  V30 5098 H 498.629 1.15602 -1.05195 0
M  V30 5099 H 499.364 3.21492 0.425873 0
M  V30 5100 H 499.149 3.7065 -1.2791 0
M  V30 5101 H 500.639 4.15705 -0.397366 0
M  V30 5102 N 501.076 1.04316 1.18135 0
M  V30 5103 C 502.324 0.746542 1.87806 0
M  V30 5104 C 502.645 -0.728082 1.80898 0
M  V30 5105 O 501.915 -1.52554 1.22899 0
M  V30 5106 H 500.495 0.273157 0.695265 0
M  V30 5107 H 503.157 1.32044 1.43354 0
M  V30 5108 H 502.253 1.05362 2.93778 0
M  V30 5109 N 502.554 -1.34406 0.822964 0
M  V30 5110 C 503.8 -1.98578 0.411666 0
M  V30 5111 C 504.133 -1.65093 -1.02264 0
M  V30 5112 O 503.408 -0.92258 -1.71227 0
M  V30 5113 C 503.691 -3.54823 0.614235 0
M  V30 5114 C 503.544 -3.9805 2.09466 0
M  V30 5115 C 504.863 -4.40071 0.050221 0
M  V30 5116 H 501.982 -0.721355 0.151047 0
M  V30 5117 H 504.624 -1.59301 1.03554 0
M  V30 5118 H 502.774 -3.88411 0.0831774 0
M  V30 5119 H 504.446 -3.74795 2.68936 0
M  V30 5120 H 502.689 -3.4836 2.5851 0
M  V30 5121 H 503.36 -5.06819 2.18721 0
M  V30 5122 H 505.836 -4.13037 0.503953 0
M  V30 5123 H 504.712 -5.48452 0.221759 0
M  V30 5124 H 504.973 -4.29576 -1.04482 0
M  V30 5125 N 504.032 -0.577932 -1.46621 0
M  V30 5126 C 505.28 -0.061566 -2.02006 0
M  V30 5127 C 505.601 1.30117 -1.4524 0
M  V30 5128 O 504.871 1.85313 -0.63529 0
M  V30 5129 H 503.451 -0.0197692 -0.746738 0
M  V30 5130 H 506.113 -0.752631 -1.79782 0
M  V30 5131 H 505.209 0.0110238 -3.12098 0
M  V30 5132 N 505.51 1.54411 -0.315457 0
M  V30 5133 C 506.473 2.22713 0.54142 0
M  V30 5134 C 507.473 1.2179 1.04995 0
M  V30 5135 O 508.663 1.46426 0.943667 0
M  V30 5136 C 505.795 2.92485 1.75116 0
M  V30 5137 H 506.988 2.99849 -0.0555508 0
M  V30 5138 H 504.541 1.56159 -0.0664453 0
M  V30 5139 H 505.276 2.19466 2.38758 0
M  V30 5140 H 505.061 3.66483 1.39401 0
M  V30 5141 H 506.551 3.44548 2.35959 0
M  V30 5142 N 506.988 0.0434614 1.5754 0
M  V30 5143 C 508.236 -0.630786 1.92004 0
M  V30 5144 C 508.557 -1.71836 0.921807 0
M  V30 5145 O 507.827 -1.9587 -0.034522 0
M  V30 5146 H 506.407 -0.235988 0.708745 0
M  V30 5147 H 509.069 0.0946462 1.9467 0
M  V30 5148 H 508.165 -1.07434 2.93026 0
M  V30 5149 N 508.466 -1.55915 -0.229846 0
M  V30 5150 C 509.396 -1.94754 -1.28815 0
M  V30 5151 C 510.377 -0.814657 -1.49323 0
M  V30 5152 O 511.562 -1.07631 -1.61645 0
M  V30 5153 C 508.692 -2.25705 -2.63959 0
M  V30 5154 C 507.646 -3.41406 -2.5812 0
M  V30 5155 C 506.972 -3.57941 -3.97218 0
M  V30 5156 C 508.272 -4.76616 -2.13623 0
M  V30 5157 H 509.966 -2.83404 -0.965547 0
M  V30 5158 H 507.512 -1.36353 -0.463028 0
M  V30 5159 H 509.465 -2.51467 -3.38146 0
M  V30 5160 H 508.189 -1.339 -2.9789 0
M  V30 5161 H 506.848 -3.1568 -1.86391 0
M  V30 5162 H 506.496 -2.63526 -4.28443 0
M  V30 5163 H 506.196 -4.35757 -3.94195 0
M  V30 5164 H 507.72 -3.86042 -4.73079 0
M  V30 5165 H 509.134 -5.01637 -2.77549 0
M  V30 5166 H 507.531 -5.57655 -2.21677 0
M  V30 5167 H 508.601 -4.7253 -1.08829 0
M  V30 5168 N 509.944 0.496216 -1.49584 0
M  V30 5169 C 510.907 1.57952 -1.66084 0
M  V30 5170 C 511.907 1.51729 -0.53244 0
M  V30 5171 O 513.097 1.54796 -0.79899 0
M  V30 5172 C 510.229 2.97604 -1.66268 0
M  V30 5173 H 511.422 1.44649 -2.6271 0
M  V30 5174 H 508.975 0.7208 -1.38687 0
M  V30 5175 H 509.71 3.16378 -0.712432 0
M  V30 5176 H 509.495 3.03528 -2.4822 0
M  V30 5177 H 510.985 3.76301 -1.81073 0
M  V30 5178 N 511.423 1.38739 0.74761 0
M  V30 5179 C 512.653 1.3832 1.53464 0
M  V30 5180 C 513.061 -0.0273464 1.8918 0
M  V30 5181 O 512.404 -1.00588 1.53713 0
M  V30 5182 C 512.466 2.18007 2.85855 0
M  V30 5183 C 512.13 3.66762 2.72644 0
M  V30 5184 C 513.127 4.60124 2.42037 0
M  V30 5185 C 510.812 4.10193 2.89909 0
M  V30 5186 C 512.806 5.94897 2.28859 0
M  V30 5187 C 510.493 5.45045 2.7635 0
M  V30 5188 C 511.491 6.37211 2.45869 0
M  V30 5189 O 511.179 7.69581 2.3238 0
M  V30 5190 H 510.911 0.474718 0.481268 0
M  V30 5191 H 513.465 1.83012 0.932518 0
M  V30 5192 H 511.695 1.68043 3.48279 0
M  V30 5193 H 513.384 2.09921 3.47402 0
M  V30 5194 H 514.15 4.27874 2.28361 0
M  V30 5195 H 510.029 3.38797 3.1263 0
M  V30 5196 H 513.573 6.66802 2.04989 0
M  V30 5197 H 509.47 5.76889 2.89601 0
M  V30 5198 H 510.238 7.80169 2.47546 0
M  V30 5199 N 512.901 -0.976442 1.23707 0
M  V30 5200 C 513.831 -2.08749 1.04624 0
M  V30 5201 C 514.812 -1.70057 -0.0380956 0
M  V30 5202 O 515.997 -1.93782 0.127308 0
M  V30 5203 C 513.127 -3.41335 0.640902 0
M  V30 5204 C 512.081 -3.93947 1.67302 0
M  V30 5205 C 511.407 -5.22774 1.12301 0
M  V30 5206 C 512.707 -4.22769 3.06697 0
M  V30 5207 H 514.401 -2.24972 1.97555 0
M  V30 5208 H 511.947 -1.08108 0.951247 0
M  V30 5209 H 513.9 -4.18489 0.494434 0
M  V30 5210 H 512.624 -3.24988 -0.324099 0
M  V30 5211 H 511.283 -3.18941 1.80755 0
M  V30 5212 H 510.931 -5.0278 0.148877 0
M  V30 5213 H 510.631 -5.58942 1.81267 0
M  V30 5214 H 512.155 -6.02546 0.988479 0
M  V30 5215 H 513.569 -4.90659 2.96524 0
M  V30 5216 H 511.966 -4.70147 3.72937 0
M  V30 5217 H 513.036 -3.29885 3.55392 0
M  V30 5218 N 514.379 -1.04941 -1.1758 0
M  V30 5219 C 515.628 -0.753124 -1.87112 0
M  V30 5220 C 515.941 0.722507 -1.81767 0
M  V30 5221 O 517.147 1.13265 -2.46746 0
M  V30 5222 C 515.603 -1.29695 -3.35719 0
M  V30 5223 C 515.211 -2.80184 -3.49572 0
M  V30 5224 C 516.955 -1.07759 -4.10595 0
M  V30 5225 C 514.862 -3.2788 -4.92187 0
M  V30 5226 H 513.792 -0.278034 -0.700866 0
M  V30 5227 H 516.443 -1.26637 -1.32798 0
M  V30 5228 H 514.825 -0.711522 -3.89555 0
M  V30 5229 H 515.999 -3.44561 -3.05965 0
M  V30 5230 H 514.314 -3.00632 -2.88113 0
M  V30 5231 H 516.911 -1.40899 -5.15802 0
M  V30 5232 H 517.254 -0.0152302 -4.16297 0
M  V30 5233 H 517.787 -1.62809 -3.62957 0
M  V30 5234 H 514.526 -4.33535 -4.91658 0
M  V30 5235 H 514.046 -2.68245 -5.36475 0
M  V30 5236 H 515.725 -3.22412 -5.60945 0
M  V30 5237 N 515.857 1.33968 -0.830081 0
M  V30 5238 C 517.273 1.51003 -0.516742 0
M  V30 5239 C 517.473 1.77286 0.957694 0
M  V30 5240 O 516.529 1.82797 1.74188 0
M  V30 5241 C 517.842 2.67036 -1.38247 0
M  V30 5242 C 519.39 2.80919 -1.38034 0
M  V30 5243 C 519.865 4.00004 -2.23071 0
M  V30 5244 N 521.356 4.07224 -2.20733 0
M  V30 5245 C 522.091 4.98541 -2.83275 0
M  V30 5246 N 521.587 5.95033 -3.54835 0
M  V30 5247 N 523.38 4.91469 -2.72791 0
M  V30 5248 H 515.531 1.15168 -1.78466 0
M  V30 5249 H 517.794 0.565443 -0.760906 0
M  V30 5250 H 517.5 2.54266 -2.42985 0
M  V30 5251 H 517.374 3.62226 -1.05225 0
M  V30 5252 H 519.761 2.93127 -0.340713 0
M  V30 5253 H 519.842 1.86517 -1.75057 0
M  V30 5254 H 519.486 3.88557 -3.27087 0
M  V30 5255 H 519.416 4.93634 -1.83394 0
M  V30 5256 H 521.907 3.38162 -1.68687 0
M  V30 5257 H 522.22 6.61357 -3.99784 0
M  V30 5258 H 520.565 5.95135 -3.58942 0
M  V30 5259 H 523.756 4.15048 -2.16456 0
M  V30 5260 H 523.929 5.62439 -3.21818 0
M  V30 5261 O 517.374 0.726383 1.44243 0
M  V30 5262 H 518.065 0.275111 1.91736 0
M  V30 END ATOM
M  V30 BEGIN BOND
M  V30 END BOND
M  V30 END CTAB
M  END
$$$$
