drugbank_target|Q05599 Bifunctional adenosylcobalamin biosynthesis protein CobU (DB01972)
 OpenBabel12092120233D

  0  0  0     0  0            999 V3000
M  V30 BEGIN CTAB
M  V30 COUNTS 2796 2819 0 0 0
M  V30 BEGIN ATOM
M  V30 1 H -0.908 1.98254 -0.117106 0
M  V30 2 N 0 1.576 0 0
M  V30 3 C 0.933 2.03868 1.02534 0
M  V30 4 C 1.911 0.928543 1.3348 0
M  V30 5 O 3.095 1.19667 1.45644 0
M  V30 6 C 0.222 2.43627 2.35294 0
M  V30 7 C -0.732 3.65373 2.2001 0
M  V30 8 S 0.101 5.13292 1.52614 0
M  V30 9 C 1.257 5.56322 2.86805 0
M  V30 10 H 1.49 2.90518 0.631377 0
M  V30 11 H -0.977 1.52953 0.210867 0
M  V30 12 H 0.981 2.67203 3.11629 0
M  V30 13 H -0.358 1.57376 2.7183 0
M  V30 14 H -1.165 3.90944 3.18086 0
M  V30 15 H -1.563 3.418 1.51819 0
M  V30 16 H 0.729 5.58782 3.83104 0
M  V30 17 H 1.672 6.56266 2.65933 0
M  V30 18 H 2.08 4.83886 2.90714 0
M  V30 19 N 1.4781 -0.272755 1.55222 0
M  V30 20 C 2.4111 -1.3627 1.83046 0
M  V30 21 C 3.3891 -1.47536 0.683521 0
M  V30 22 O 4.5731 -1.64157 0.926545 0
M  V30 23 C 1.7001 -2.73908 1.99229 0
M  V30 24 C 0.7461 -2.79925 3.21783 0
M  V30 25 S 1.5791 -2.39146 4.79134 0
M  V30 26 C 2.7351 -3.78758 4.9829 0
M  V30 27 H 2.9681 -1.12464 2.75207 0
M  V30 28 H 0.5011 -0.472398 1.46996 0
M  V30 29 H 2.4591 -3.53171 2.09238 0
M  V30 30 H 1.1201 -2.94965 1.07956 0
M  V30 31 H 0.3131 -3.80946 3.29994 0
M  V30 32 H -0.0849 -2.08683 3.10367 0
M  V30 33 H 2.2071 -4.7403 4.84047 0
M  V30 34 H 3.1501 -3.75499 6.00338 0
M  V30 35 H 3.5581 -3.70072 4.26271 0
M  V30 36 N 2.9562 -1.48159 -0.537278 0
M  V30 37 C 4.2052 -1.5506 -1.28993 0
M  V30 38 C 4.5182 -0.226211 -1.94288 0
M  V30 39 O 5.7242 -0.173395 -2.70946 0
M  V30 40 C 4.1802 -2.73429 -2.34018 0
M  V30 41 C 3.7882 -4.1248 -1.74825 0
M  V30 42 C 5.5322 -2.89638 -3.10339 0
M  V30 43 C 3.4392 -5.22121 -2.77747 0
M  V30 44 H 2.3692 -0.577231 -0.485098 0
M  V30 45 H 5.0202 -1.74478 -0.568317 0
M  V30 46 H 3.4022 -2.47431 -3.09182 0
M  V30 47 H 4.5762 -4.48466 -1.05899 0
M  V30 48 H 2.8912 -4.01327 -1.11022 0
M  V30 49 H 5.4882 -3.68718 -3.87235 0
M  V30 50 H 5.8312 -1.9882 -3.65754 0
M  V30 51 H 6.3642 -3.15502 -2.42288 0
M  V30 52 H 3.1032 -6.1488 -2.27161 0
M  V30 53 H 2.6232 -4.90631 -3.45024 0
M  V30 54 H 4.3022 -5.49924 -3.4087 0
M  V30 55 N 4.4343 0.785586 -1.36625 0
M  V30 56 C 5.3643 1.91259 -1.33949 0
M  V30 57 C 6.3453 1.68795 -0.210325 0
M  V30 58 O 7.5303 1.89854 -0.408561 0
M  V30 59 C 4.6603 3.28339 -1.13186 0
M  V30 60 C 3.6143 3.65335 -2.22967 0
M  V30 61 C 2.9403 5.00806 -1.87342 0
M  V30 62 C 4.2403 3.7352 -3.65075 0
M  V30 63 H 5.9343 1.93755 -2.28253 0
M  V30 64 H 3.4803 0.930788 -1.09874 0
M  V30 65 H 5.4333 4.06804 -1.09948 0
M  V30 66 H 4.1573 3.2624 -0.153332 0
M  V30 67 H 2.8163 2.89169 -2.25337 0
M  V30 68 H 2.4643 4.95233 -0.880545 0
M  V30 69 H 2.1643 5.26529 -2.60846 0
M  V30 70 H 3.6883 5.81687 -1.85667 0
M  V30 71 H 5.1023 4.42168 -3.64911 0
M  V30 72 H 3.4993 4.10731 -4.37516 0
M  V30 73 H 4.5693 2.74527 -3.99703 0
M  V30 74 N 5.9124 1.20967 1.01018 0
M  V30 75 C 7.1584 1.02526 1.74975 0
M  V30 76 C 7.4914 -0.4408 1.89131 0
M  V30 77 O 6.7664 -1.32718 1.42184 0
M  V30 78 C 7.0494 1.71699 3.1653 0
M  V30 79 C 6.9024 3.25791 3.10129 0
M  V30 80 C 8.2214 1.45531 4.15342 0
M  V30 81 H 5.3404 0.373863 0.635134 0
M  V30 82 H 7.9824 1.49071 1.17805 0
M  V30 83 H 6.1324 1.32128 3.65341 0
M  V30 84 H 7.8044 3.74697 2.69072 0
M  V30 85 H 6.0474 3.56363 2.47362 0
M  V30 86 H 6.7184 3.69353 4.10222 0
M  V30 87 H 9.1944 1.79872 3.75213 0
M  V30 88 H 8.0704 1.96453 5.1254 0
M  V30 89 H 8.3314 0.384237 4.40427 0
M  V30 90 N 7.3905 -1.2043 1.01659 0
M  V30 91 C 8.6185 -1.93777 0.725132 0
M  V30 92 C 9.0335 -1.74772 -0.714166 0
M  V30 93 O 8.3905 -1.06169 -1.4844 0
M  V30 94 C 8.4415 -3.45876 1.05129 0
M  V30 95 O 8.1625 -3.6426 2.43406 0
M  V30 96 C 9.6635 -4.36368 0.780891 0
M  V30 97 H 6.8835 -0.615901 0.266284 0
M  V30 98 H 9.4275 -1.52922 1.35776 0
M  V30 99 H 7.5825 -3.8461 0.464065 0
M  V30 100 H 7.9965 -4.58246 2.55169 0
M  V30 101 H 9.4705 -5.41743 1.05918 0
M  V30 102 H 9.9475 -4.38275 -0.284937 0
M  V30 103 H 10.5535 -4.03296 1.35027 0
M  V30 104 N 8.8686 -0.792821 -1.36206 0
M  V30 105 C 10.1166 -0.366062 -1.98757 0
M  V30 106 C 10.4376 1.0668 -1.63231 0
M  V30 107 O 9.7076 1.73587 -0.907978 0
M  V30 108 H 8.2876 -0.132364 -0.735179 0
M  V30 109 H 10.9496 -1.01562 -1.66347 0
M  V30 110 H 10.0456 -0.460638 -3.08682 0
M  V30 111 N 10.3467 1.47872 -0.545128 0
M  V30 112 C 11.5947 2.02093 -0.016553 0
M  V30 113 C 11.9157 1.42305 1.3332 0
M  V30 114 O 11.1857 0.593853 1.86682 0
M  V30 115 H 9.7657 0.746993 -0.00313038 0
M  V30 116 H 12.4277 1.81414 -0.712397 0
M  V30 117 H 11.5237 3.11996 0.0805422 0
M  V30 118 N 11.8248 0.280983 1.55075 0
M  V30 119 C 12.7878 -0.590896 2.21452 0
M  V30 120 C 13.7878 -1.07682 1.19421 0
M  V30 121 O 14.9778 -0.97605 1.44288 0
M  V30 122 C 12.1098 -1.81587 2.88511 0
M  V30 123 H 13.3028 -0.0112554 2.99898 0
M  V30 124 H 10.8558 0.0316438 1.56268 0
M  V30 125 H 11.5908 -2.43587 2.14093 0
M  V30 126 H 11.3758 -1.4753 3.63287 0
M  V30 127 H 12.8658 -2.43575 3.39206 0
M  V30 128 N 13.3029 -1.57598 0.00835791 0
M  V30 129 C 14.7189 -1.55764 -0.347822 0
M  V30 130 C 14.9189 -1.01186 -1.74252 0
M  V30 131 O 13.9749 -0.649371 -2.44007 0
M  V30 132 C 15.2879 -2.99927 -0.215407 0
M  V30 133 C 16.8359 -3.11656 -0.289725 0
M  V30 134 C 17.3109 -4.57621 -0.18634 0
M  V30 135 N 18.8019 -4.62557 -0.243978 0
M  V30 136 C 19.5369 -5.73094 -0.18745 0
M  V30 137 N 19.0329 -6.92753 -0.0810331 0
M  V30 138 N 20.8259 -5.61588 -0.239925 0
M  V30 139 H 12.9769 -1.91411 0.92062 0
M  V30 140 H 15.2399 -0.879562 0.353659 0
M  V30 141 H 14.9459 -3.43729 0.744512 0
M  V30 142 H 14.8199 -3.63865 -0.994097 0
M  V30 143 H 17.2069 -2.67779 -1.24009 0
M  V30 144 H 17.2879 -2.5048 0.51898 0
M  V30 145 H 16.9319 -5.02174 0.760519 0
M  V30 146 H 16.8619 -5.16752 -1.01364 0
M  V30 147 H 19.3529 -3.76481 -0.327217 0
M  V30 148 H 19.6659 -7.72787 -0.0440241 0
M  V30 149 H 18.0109 -6.94984 -0.0465419 0
M  V30 150 H 21.2019 -4.66996 -0.321317 0
M  V30 151 H 21.3749 -6.47714 -0.192407 0
M  V30 152 N 14.781 0.264519 -1.55364 0
M  V30 153 C 16.006 1.01726 -1.80739 0
M  V30 154 C 16.431 1.78836 -0.583044 0
M  V30 155 O 15.789 1.75167 0.467566 0
M  V30 156 C 15.837 1.94482 -3.03659 0
M  V30 157 O 14.941 3.03386 -2.7934 0
M  V30 158 H 14.282 0.290395 -0.597132 0
M  V30 159 H 16.812 0.290854 -2.02522 0
M  V30 160 H 16.822 2.36278 -3.32621 0
M  V30 161 H 15.497 1.37772 -3.92418 0
M  V30 162 H 14.074 2.65844 -2.61498 0
M  V30 163 N 16.2591 1.48442 0.529413 0
M  V30 164 C 17.5071 1.56179 1.28267 0
M  V30 165 C 17.8281 0.237721 1.93546 0
M  V30 166 O 17.0981 -0.740779 1.81354 0
M  V30 167 H 15.6781 0.575367 0.476405 0
M  V30 168 H 18.3401 1.84909 0.61602 0
M  V30 169 H 17.4361 2.34312 2.06165 0
M  V30 170 N 17.7372 -0.778329 1.37039 0
M  V30 171 C 18.6842 -1.89139 1.32269 0
M  V30 172 C 19.6542 -1.65017 0.189387 0
M  V30 173 O 20.8392 -1.87024 0.377693 0
M  V30 174 C 17.9792 -3.26112 1.12894 0
M  V30 175 C 17.0922 -3.62233 2.35396 0
M  V30 176 C 16.2272 -4.8838 2.08946 0
M  V30 177 C 15.2662 -5.17212 3.2735 0
M  V30 178 N 14.4032 -6.34546 3.00492 0
M  V30 179 H 19.2432 -1.92552 2.27437 0
M  V30 180 H 16.7802 -0.941473 1.13025 0
M  V30 181 H 18.7382 -4.05116 0.996835 0
M  V30 182 H 17.3682 -3.22091 0.213758 0
M  V30 183 H 16.4202 -2.78265 2.5937 0
M  V30 184 H 17.7322 -3.79481 3.23721 0
M  V30 185 H 16.8862 -5.75274 1.92729 0
M  V30 186 H 15.6252 -4.73222 1.17949 0
M  V30 187 H 14.6302 -4.28796 3.44113 0
M  V30 188 H 15.8552 -5.34283 4.19188 0
M  V30 189 H 13.8012 -6.20759 2.12118 0
M  V30 190 H 13.7182 -6.52179 3.82358 0
M  V30 191 H 14.9862 -7.24394 2.87879 0
M  V30 192 N 19.2153 -1.21501 -1.00376 0
M  V30 193 C 20.4403 -1.05977 -1.78279 0
M  V30 194 C 20.8653 0.385994 -1.84097 0
M  V30 195 O 20.2233 1.27849 -1.28547 0
M  V30 196 C 20.2713 -1.66302 -3.19963 0
M  V30 197 O 19.3753 -0.909333 -4.0225 0
M  V30 198 H 18.7163 -0.372906 -0.549397 0
M  V30 199 H 21.2463 -1.6107 -1.26165 0
M  V30 200 H 21.2563 -1.70574 -3.70632 0
M  V30 201 H 19.9313 -2.71515 -3.15043 0
M  V30 202 H 18.5083 -0.941795 -3.60811 0
M  V30 203 N 20.6934 1.19889 -1.02296 0
M  V30 204 C 22.1094 1.41462 -0.738954 0
M  V30 205 C 22.3094 1.89721 0.678846 0
M  V30 206 O 21.3654 2.07016 1.4457 0
M  V30 207 C 22.6784 2.43083 -1.77005 0
M  V30 208 C 24.2264 2.5684 -1.78892 0
M  V30 209 C 24.7014 3.61709 -2.80945 0
M  V30 210 N 26.1924 3.69199 -2.79725 0
M  V30 211 C 26.9274 4.50019 -3.55345 0
M  V30 212 N 26.4234 5.34592 -4.40662 0
M  V30 213 N 28.2164 4.44612 -3.43914 0
M  V30 214 H 20.3674 0.868827 -1.93817 0
M  V30 215 H 22.6304 0.44399 -0.837602 0
M  V30 216 H 22.3364 2.14636 -2.78612 0
M  V30 217 H 22.2104 3.4217 -1.58744 0
M  V30 218 H 24.5974 2.84614 -0.779674 0
M  V30 219 H 24.6784 1.57927 -2.01228 0
M  V30 220 H 24.3224 3.34678 -3.82038 0
M  V30 221 H 24.2524 4.60259 -2.5587 0
M  V30 222 H 26.7434 3.08794 -2.17842 0
M  V30 223 H 27.0564 5.93363 -4.95116 0
M  V30 224 H 25.4014 5.34073 -4.44737 0
M  V30 225 H 28.5924 3.7758 -2.76679 0
M  V30 226 H 28.7654 5.0736 -4.031 0
M  V30 227 N 22.1715 0.800033 1.35784 0
M  V30 228 C 23.1215 0.178654 2.27299 0
M  V30 229 C 24.1055 -0.643667 1.47464 0
M  V30 230 O 25.2975 -0.502 1.69732 0
M  V30 231 C 22.4265 -0.677194 3.36555 0
M  V30 232 C 21.5125 0.154497 4.23818 0
M  V30 233 N 21.9035 1.21427 4.91008 0
M  V30 234 C 20.2015 -0.0649462 4.45953 0
M  V30 235 C 20.9025 1.72147 5.55644 0
M  V30 236 N 19.8785 1.02897 5.33773 0
M  V30 237 H 23.6805 0.989637 2.76737 0
M  V30 238 H 21.1945 0.64054 1.49234 0
M  V30 239 H 23.1915 -1.13835 4.01058 0
M  V30 240 H 21.8515 -1.4866 2.8867 0
M  V30 241 H 22.8625 1.59684 4.92668 0
M  V30 242 H 19.5395 -0.844016 4.0888 0
M  V30 243 H 20.9295 2.60683 6.19269 0
M  V30 244 N 23.6496 -1.47581 0.552962 0
M  V30 245 C 24.6126 -2.28439 -0.186605 0
M  V30 246 C 25.6126 -1.36706 -0.84665 0
M  V30 247 O 26.8026 -1.59378 -0.703164 0
M  V30 248 C 23.9346 -3.16264 -1.2724 0
M  V30 249 H 25.1276 -2.95294 0.523609 0
M  V30 250 H 22.6806 -1.532 0.309745 0
M  V30 251 H 23.4156 -2.54091 -2.01514 0
M  V30 252 H 23.2006 -3.83769 -0.803968 0
M  V30 253 H 24.6906 -3.77198 -1.79196 0
M  V30 254 N 25.1277 -0.289203 -1.54924 0
M  V30 255 C 26.0377 0.601863 -2.26748 0
M  V30 256 C 27.0537 1.15834 -1.2984 0
M  V30 257 O 28.2297 1.18564 -1.62802 0
M  V30 258 C 25.2947 1.76299 -2.98529 0
M  V30 259 C 24.3557 1.24178 -4.10948 0
M  V30 260 C 23.5887 2.34757 -4.79296 0
M  V30 261 O 23.8117 3.54411 -4.46933 0
M  V30 262 O 22.7457 2.02115 -5.66951 0
M  V30 263 H 26.5717 0.0195879 -3.03694 0
M  V30 264 H 24.1567 -0.0560868 -1.49295 0
M  V30 265 H 26.0387 2.43973 -3.43592 0
M  V30 266 H 24.7137 2.33209 -2.24488 0
M  V30 267 H 23.6207 0.531104 -3.70311 0
M  V30 268 H 24.9537 0.718252 -4.86931 0
M  V30 269 N 26.6058 1.57591 -0.0167156 0
M  V30 270 C 27.5688 2.08393 0.954204 0
M  V30 271 C 28.5688 0.996531 1.26198 0
M  V30 272 O 29.7588 1.25858 1.20438 0
M  V30 273 C 26.8908 2.5394 2.27436 0
M  V30 274 H 28.0838 2.95455 0.514451 0
M  V30 275 H 25.6368 1.54582 0.231089 0
M  V30 276 H 26.3718 1.70171 2.76066 0
M  V30 277 H 26.1568 3.33371 2.06412 0
M  V30 278 H 27.6468 2.93512 2.97053 0
M  V30 279 N 28.0839 -0.256276 1.55502 0
M  V30 280 C 29.0139 -1.32102 1.92539 0
M  V30 281 C 29.9949 -1.50684 0.789194 0
M  V30 282 O 31.1799 -1.63449 1.04872 0
M  V30 283 C 28.3099 -2.67752 2.21192 0
M  V30 284 C 27.2639 -2.63878 3.36975 0
M  V30 285 C 26.5899 -4.03236 3.51147 0
M  V30 286 C 27.8899 -2.21682 4.72921 0
M  V30 287 H 29.5839 -1.01351 2.81724 0
M  V30 288 H 27.1299 -0.486105 1.35547 0
M  V30 289 H 29.0829 -3.42365 2.45691 0
M  V30 290 H 27.8069 -3.0012 1.28824 0
M  V30 291 H 26.4659 -1.91722 3.12471 0
M  V30 292 H 26.1139 -4.32854 2.56216 0
M  V30 293 H 25.8139 -4.01535 4.29003 0
M  V30 294 H 27.3379 -4.79563 3.77957 0
M  V30 295 H 28.7519 -2.86023 4.96854 0
M  V30 296 H 27.1489 -2.3111 5.53812 0
M  V30 297 H 28.2189 -1.16833 4.70615 0
M  V30 298 N 29.562 -1.4872 -0.521534 0
M  V30 299 C 30.811 -1.56419 -1.27341 0
M  V30 300 C 31.124 -0.246805 -1.94037 0
M  V30 301 O 32.33 -0.202122 -2.70747 0
M  V30 302 C 30.786 -2.75896 -2.31105 0
M  V30 303 C 30.394 -4.14311 -1.70441 0
M  V30 304 C 32.138 -2.92913 -3.07249 0
M  V30 305 C 30.045 -5.25038 -2.72194 0
M  V30 306 H 28.975 -0.582344 -0.478949 0
M  V30 307 H 31.626 -1.75071 -0.549779 0
M  V30 308 H 30.008 -2.50697 -3.06541 0
M  V30 309 H 31.182 -4.49564 -1.01136 0
M  V30 310 H 29.497 -4.02482 -1.06759 0
M  V30 311 H 32.094 -3.72805 -3.83302 0
M  V30 312 H 32.437 -2.02689 -3.63625 0
M  V30 313 H 32.97 -3.18054 -2.38928 0
M  V30 314 H 29.709 -6.17255 -2.20627 0
M  V30 315 H 29.229 -4.94263 -3.39801 0
M  V30 316 H 30.908 -5.53508 -3.35019 0
M  V30 317 N 31.0401 0.771051 -1.3745 0
M  V30 318 C 32.2881 1.52661 -1.32435 0
M  V30 319 C 32.6091 1.9479 0.0905024 0
M  V30 320 O 31.8791 1.66348 1.03466 0
M  V30 321 H 30.4591 0.566218 -0.487244 0
M  V30 322 H 33.1211 0.917636 -1.71946 0
M  V30 323 H 32.2171 2.42568 -1.96385 0
M  V30 324 N 32.5182 1.22032 0.997298 0
M  V30 325 C 33.7952 0.950823 1.70935 0
M  V30 326 C 34.1752 -0.535292 2.042 0
M  V30 327 O 33.5232 -1.50217 1.72183 0
M  V30 328 C 33.7332 1.84386 2.96315 0
M  V30 329 C 35.0812 2.09732 3.69185 0
M  V30 330 O 36.1052 1.81798 3.06314 0
M  V30 331 O 34.9642 2.57018 4.82291 0
M  V30 332 H 32.0582 0.357204 0.745878 0
M  V30 333 H 34.6042 1.32997 1.05404 0
M  V30 334 H 33.3762 2.84928 2.68201 0
M  V30 335 H 32.9992 1.46602 3.69586 0
M  V30 336 N 33.9963 -1.19345 1.0293 0
M  V30 337 C 34.9593 -2.20793 0.615069 0
M  V30 338 C 35.9593 -1.57553 -0.321533 0
M  V30 339 O 37.1493 -1.73862 -0.108483 0
M  V30 340 C 34.2813 -3.40754 -0.0999222 0
M  V30 341 H 35.4743 -2.58955 1.51269 0
M  V30 342 H 33.0273 -1.3303 0.820534 0
M  V30 343 H 33.7623 -3.0811 -1.01187 0
M  V30 344 H 33.5473 -3.87889 0.57309 0
M  V30 345 H 35.0373 -4.15898 -0.376645 0
M  V30 346 N 35.4744 -0.807222 -1.35358 0
M  V30 347 C 36.8854 -0.44876 -1.81226 0
M  V30 348 C 37.2364 1.02929 -1.67033 0
M  V30 349 O 36.3614 1.79991 -1.20133 0
M  V30 350 C 36.9564 -0.807774 -3.2903 0
M  V30 351 C 35.5154 -0.501901 -3.73039 0
M  V30 352 C 34.6624 -1.03304 -2.57339 0
M  V30 353 H 37.6134 -0.998808 -1.23327 0
M  V30 354 H 37.6344 -0.10554 -3.80354 0
M  V30 355 H 37.1464 -1.88357 -3.39328 0
M  V30 356 H 35.2474 0.565128 -3.68289 0
M  V30 357 H 35.3604 -1.03497 -4.67787 0
M  V30 358 H 33.7244 -0.455339 -2.50597 0
M  V30 359 H 34.5074 -2.11496 -2.70415 0
M  V30 360 N 36.9525 1.47285 -0.560781 0
M  V30 361 C 37.8845 2.28118 0.222438 0
M  V30 362 C 38.8975 1.37219 0.876056 0
M  V30 363 O 40.0865 1.62011 0.749307 0
M  V30 364 C 37.1865 3.1159 1.33285 0
M  V30 365 C 36.3595 4.30473 0.77534 0
M  V30 366 C 35.4185 4.95513 1.77069 0
M  V30 367 O 34.4445 5.53792 1.31539 0
M  V30 368 N 35.6465 4.90531 3.10418 0
M  V30 369 H 38.4115 2.95976 -0.470958 0
M  V30 370 H 35.9725 1.56955 -0.39709 0
M  V30 371 H 37.9645 3.51967 1.99752 0
M  V30 372 H 36.5345 2.45951 1.92943 0
M  V30 373 H 35.7545 3.94144 -0.0662113 0
M  V30 374 H 37.0425 5.07362 0.382272 0
M  V30 375 H 36.4405 4.44389 3.5005 0
M  V30 376 H 34.9975 5.34917 3.72434 0
M  V30 377 N 38.4306 0.297415 1.54768 0
M  V30 378 C 39.6766 -0.313376 2.00364 0
M  V30 379 C 40.0096 -1.53815 1.18553 0
M  V30 380 O 39.2846 -1.92739 0.261103 0
M  V30 381 C 39.5676 -0.673525 3.53745 0
M  V30 382 C 39.4206 0.560133 4.46299 0
M  V30 383 C 40.7396 -1.50143 4.13697 0
M  V30 384 H 37.8586 -0.112428 0.728374 0
M  V30 385 H 40.5006 0.4088 1.8555 0
M  V30 386 H 38.6506 -1.28881 3.665 0
M  V30 387 H 40.3226 1.19863 4.45455 0
M  V30 388 H 38.5656 1.19405 4.17043 0
M  V30 389 H 39.2366 0.26405 5.51368 0
M  V30 390 H 41.7126 -0.981588 4.04356 0
M  V30 391 H 40.5886 -1.72221 5.21182 0
M  V30 392 H 40.8496 -2.48952 3.65343 0
M  V30 393 N 39.9087 -1.5758 0.0250728 0
M  V30 394 C 40.8387 -2.13007 -0.956575 0
M  V30 395 C 41.8197 -1.0452 -1.342 0
M  V30 396 O 43.0047 -1.32332 -1.42133 0
M  V30 397 C 40.1347 -2.65386 -2.24026 0
M  V30 398 C 39.0887 -3.78623 -1.99571 0
M  V30 399 C 38.4147 -4.17414 -3.3417 0
M  V30 400 C 39.7147 -5.04867 -1.33814 0
M  V30 401 H 41.4087 -2.9528 -0.494991 0
M  V30 402 H 38.9547 -1.42042 -0.236651 0
M  V30 403 H 40.9077 -3.02794 -2.93076 0
M  V30 404 H 39.6317 -1.80268 -2.72343 0
M  V30 405 H 38.2907 -3.41646 -1.32941 0
M  V30 406 H 37.9387 -3.29284 -3.80238 0
M  V30 407 H 37.6387 -4.93719 -3.18615 0
M  V30 408 H 39.1627 -4.57402 -4.04495 0
M  V30 409 H 40.5767 -5.39888 -1.92857 0
M  V30 410 H 38.9737 -5.86144 -1.28669 0
M  V30 411 H 40.0437 -4.83904 -0.310561 0
M  V30 412 N 41.3868 0.248026 -1.55636 0
M  V30 413 C 42.6168 0.992367 -1.81206 0
M  V30 414 C 43.0248 1.7949 -0.598324 0
M  V30 415 O 42.3678 1.78292 0.442434 0
M  V30 416 C 42.4298 1.97926 -3.00109 0
M  V30 417 C 42.0938 1.36377 -4.36177 0
M  V30 418 C 43.0908 0.76682 -5.14214 0
M  V30 419 C 40.7758 1.38347 -4.82872 0
M  V30 420 C 42.7698 0.197778 -6.37093 0
M  V30 421 C 40.4568 0.810574 -6.057 0
M  V30 422 C 41.4548 0.218754 -6.8265 0
M  V30 423 O 41.1428 -0.345298 -8.03158 0
M  V30 424 H 40.8748 0.297704 -0.606917 0
M  V30 425 H 43.4288 0.276517 -2.0353 0
M  V30 426 H 41.6588 2.73339 -2.73538 0
M  V30 427 H 43.3478 2.58694 -3.12781 0
M  V30 428 H 44.1138 0.744114 -4.79258 0
M  V30 429 H 39.9928 1.8335 -4.2297 0
M  V30 430 H 43.5368 -0.264788 -6.97097 0
M  V30 431 H 39.4338 0.830604 -6.40134 0
M  V30 432 H 40.2018 -0.237055 -8.18157 0
M  V30 433 N 42.8649 1.48995 0.513639 0
M  V30 434 C 44.1139 1.57093 1.2651 0
M  V30 435 C 44.4269 0.257091 1.93903 0
M  V30 436 O 45.6329 0.216478 2.70636 0
M  V30 437 C 44.0889 2.77118 2.29638 0
M  V30 438 C 43.6969 4.15209 1.68241 0
M  V30 439 C 45.4409 2.94538 3.05692 0
M  V30 440 C 43.3479 5.26474 2.69406 0
M  V30 441 H 42.2779 0.584876 0.475854 0
M  V30 442 H 44.9289 1.7536 0.540487 0
M  V30 443 H 43.3109 2.52319 3.05207 0
M  V30 444 H 44.4849 4.50094 0.987505 0
M  V30 445 H 42.7999 4.03042 1.04623 0
M  V30 446 H 45.3969 3.74832 3.8132 0
M  V30 447 H 45.7399 2.04614 3.62545 0
M  V30 448 H 46.2729 3.19316 2.37238 0
M  V30 449 H 43.0119 6.18417 2.17351 0
M  V30 450 H 42.5319 4.96058 3.37175 0
M  V30 451 H 44.2109 5.55277 3.32078 0
M  V30 452 N 44.343 -0.763751 1.37857 0
M  V30 453 C 45.306 -1.85889 1.34081 0
M  V30 454 C 46.306 -1.58949 0.243277 0
M  V30 455 O 47.496 -1.66882 0.499589 0
M  V30 456 C 44.628 -3.23176 1.08489 0
M  V30 457 H 45.821 -1.90648 2.31502 0
M  V30 458 H 43.374 -0.964367 1.23003 0
M  V30 459 H 44.109 -3.24091 0.116318 0
M  V30 460 H 43.894 -3.44124 1.8794 0
M  V30 461 H 45.384 -4.03254 1.08517 0
M  V30 462 N 45.8211 -1.22559 -0.990812 0
M  V30 463 C 47.0491 -1.07779 -1.76611 0
M  V30 464 C 47.4641 0.371513 -1.85109 0
M  V30 465 O 46.8211 1.25737 -1.32274 0
M  V30 466 C 46.8721 -1.68512 -3.19822 0
M  V30 467 O 46.5931 -3.07774 -3.1178 0
M  V30 468 C 48.0941 -1.59035 -4.13791 0
M  V30 469 H 45.3141 -0.377729 -0.554583 0
M  V30 470 H 47.8581 -1.62195 -1.24551 0
M  V30 471 H 46.0131 -1.18154 -3.68942 0
M  V30 472 H 46.4271 -3.37062 -4.01858 0
M  V30 473 H 47.9011 -2.0625 -5.1202 0
M  V30 474 H 48.3781 -0.547273 -4.35777 0
M  V30 475 H 48.9841 -2.08709 -3.70568 0
M  V30 476 N 47.2992 1.18797 -1.03562 0
M  V30 477 C 48.5242 1.9314 -0.755764 0
M  V30 478 C 48.9492 1.7537 0.68022 0
M  V30 479 O 48.3072 1.06046 1.47051 0
M  V30 480 C 48.3552 3.42747 -1.12058 0
M  V30 481 O 47.4592 4.11683 -0.243124 0
M  V30 482 H 46.8002 0.602724 -0.278604 0
M  V30 483 H 49.3302 1.50678 -1.3841 0
M  V30 484 H 49.3402 3.93437 -1.08035 0
M  V30 485 H 48.0152 3.55002 -2.16672 0
M  V30 486 H 46.5922 3.71323 -0.342539 0
M  V30 487 N 48.7773 0.814389 1.34928 0
M  V30 488 C 49.7093 0.187834 2.28429 0
M  V30 489 C 50.7223 -0.617374 1.5064 0
M  V30 490 O 51.9113 -0.448454 1.72775 0
M  V30 491 C 49.0113 -0.755962 3.30361 0
M  V30 492 C 48.1843 0.00456686 4.374 0
M  V30 493 C 47.2433 -0.858876 5.19143 0
M  V30 494 O 46.2693 -0.306968 5.68372 0
M  V30 495 N 47.4713 -2.17988 5.38016 0
M  V30 496 H 50.2363 0.991105 2.82838 0
M  V30 497 H 47.7973 0.670561 1.4736 0
M  V30 498 H 49.7893 -1.338 3.81942 0
M  V30 499 H 48.3593 -1.46001 2.7641 0
M  V30 500 H 47.5793 0.767865 3.86649 0
M  V30 501 H 48.8673 0.528422 5.06049 0
M  V30 502 H 48.2653 -2.65212 4.99679 0
M  V30 503 H 46.8223 -2.71098 5.92747 0
M  V30 504 N 50.2554 -1.46986 0.568584 0
M  V30 505 C 51.5044 -2.01646 0.0465894 0
M  V30 506 C 51.8174 -1.44721 -1.31587 0
M  V30 507 O 53.0234 -1.91113 -1.92842 0
M  V30 508 C 51.4794 -3.59885 0.032752 0
M  V30 509 C 51.0874 -4.25804 1.39266 0
M  V30 510 C 52.8314 -4.22255 -0.436038 0
M  V30 511 C 50.7384 -5.76081 1.33732 0
M  V30 512 H 49.6684 -0.753876 0.013647 0
M  V30 513 H 52.3194 -1.68864 0.718131 0
M  V30 514 H 50.7014 -3.8968 -0.704669 0
M  V30 515 H 51.8754 -4.07637 2.1487 0
M  V30 516 H 50.1904 -3.7547 1.80032 0
M  V30 517 H 52.7874 -5.32394 -0.49602 0
M  V30 518 H 53.1304 -3.90212 -1.45053 0
M  V30 519 H 53.6634 -3.97033 0.246877 0
M  V30 520 H 50.4024 -6.12761 2.32817 0
M  V30 521 H 49.9224 -5.96553 0.623267 0
M  V30 522 H 51.6014 -6.38518 1.0442 0
M  V30 523 N 51.7335 -0.305618 -1.54608 0
M  V30 524 C 52.6635 0.561482 -2.26649 0
M  V30 525 C 53.6445 1.13415 -1.26772 0
M  V30 526 O 54.8295 1.16262 -1.55553 0
M  V30 527 C 51.9595 1.73122 -3.01075 0
M  V30 528 C 50.9135 1.2887 -4.08138 0
M  V30 529 C 50.2395 2.54396 -4.70305 0
M  V30 530 C 51.5395 0.416578 -5.20636 0
M  V30 531 H 53.2335 -0.0393902 -2.99374 0
M  V30 532 H 50.7795 -0.020385 -1.43986 0
M  V30 533 H 52.7325 2.34396 -3.50195 0
M  V30 534 H 51.4565 2.3584 -2.25936 0
M  V30 535 H 50.1155 0.698991 -3.59875 0
M  V30 536 H 49.7635 3.15439 -3.918 0
M  V30 537 H 49.4635 2.25486 -5.42614 0
M  V30 538 H 50.9875 3.16464 -5.2219 0
M  V30 539 H 52.4015 0.935116 -5.65622 0
M  V30 540 H 50.7985 0.221046 -5.99693 0
M  V30 541 H 51.8685 -0.557162 -4.81688 0
M  V30 542 N 53.2116 1.57565 -0.0334293 0
M  V30 543 C 54.4886 1.83282 0.683163 0
M  V30 544 C 54.8686 0.91823 1.90084 0
M  V30 545 O 54.2166 -0.025113 2.28486 0
M  V30 546 C 54.4266 3.32599 1.0573 0
M  V30 547 C 55.7746 3.99179 1.44711 0
M  V30 548 O 56.7986 3.3712 1.15015 0
M  V30 549 O 55.6576 5.08565 2.0006 0
M  V30 550 H 52.7516 0.755869 0.335546 0
M  V30 551 H 55.2976 1.69589 -0.0614402 0
M  V30 552 H 54.0696 3.90834 0.190828 0
M  V30 553 H 53.6926 3.51415 1.85993 0
M  V30 554 N 54.6897 -0.239769 1.55765 0
M  V30 555 C 55.9667 -0.990056 1.68693 0
M  V30 556 C 56.3467 -2.03107 0.5754 0
M  V30 557 O 55.6947 -2.24604 -0.42017 0
M  V30 558 C 55.9047 -1.61696 3.09282 0
M  V30 559 C 57.2527 -2.11613 3.6811 0
M  V30 560 O 58.2767 -1.71624 3.12127 0
M  V30 561 O 57.1357 -2.85057 4.66267 0
M  V30 562 H 54.2297 -0.461299 0.686391 0
M  V30 563 H 56.7757 -0.232991 1.68093 0
M  V30 564 H 55.5477 -0.864357 3.81634 0
M  V30 565 H 55.1707 -2.44005 3.13923 0
M  V30 566 N 56.1678 -1.49265 -0.50573 0
M  V30 567 C 57.0778 -1.68312 -1.63427 0
M  V30 568 C 58.0938 -0.565682 -1.64548 0
M  V30 569 O 59.2698 -0.839801 -1.83055 0
M  V30 570 C 56.3348 -1.74107 -2.99813 0
M  V30 571 C 55.3958 -2.97653 -3.09356 0
M  V30 572 C 54.6288 -3.03163 -4.39236 0
M  V30 573 O 54.8518 -2.16396 -5.27758 0
M  V30 574 O 53.7858 -3.9558 -4.53652 0
M  V30 575 H 57.6118 -2.63907 -1.50289 0
M  V30 576 H 55.1968 -1.32951 -0.681502 0
M  V30 577 H 57.0788 -1.803 -3.80881 0
M  V30 578 H 55.7538 -0.816901 -3.13223 0
M  V30 579 H 54.6608 -2.96981 -2.27493 0
M  V30 580 H 55.9938 -3.89535 -3.00871 0
M  V30 581 N 57.6459 0.756429 -1.3826 0
M  V30 582 C 58.5789 1.87802 -1.29637 0
M  V30 583 C 59.5569 1.61667 -0.173939 0
M  V30 584 O 60.7409 1.85208 -0.350775 0
M  V30 585 C 57.8679 3.23354 -1.00797 0
M  V30 586 C 56.9139 3.68379 -2.14939 0
M  V30 587 S 57.7469 3.8025 -3.77054 0
M  V30 588 C 58.9029 5.18626 -3.50396 0
M  V30 589 H 59.1359 1.94829 -2.24564 0
M  V30 590 H 56.6689 0.919117 -1.24063 0
M  V30 591 H 58.6269 4.01637 -0.848413 0
M  V30 592 H 57.2879 3.14008 -0.0759369 0
M  V30 593 H 56.4809 4.66693 -1.90299 0
M  V30 594 H 56.0829 2.97242 -2.26988 0
M  V30 595 H 58.3749 6.04289 -3.06334 0
M  V30 596 H 59.3179 5.48286 -4.48094 0
M  V30 597 H 59.7259 4.87289 -2.84973 0
M  V30 598 N 59.124 1.23083 0.984299 0
M  V30 599 C 60.087 1.00979 2.05757 0
M  V30 600 C 61.087 -0.0269573 1.60777 0
M  V30 601 O 62.277 0.212403 1.729 0
M  V30 602 C 59.409 0.527072 3.36801 0
M  V30 603 H 60.602 1.9622 2.26799 0
M  V30 604 H 58.155 1.05072 1.15714 0
M  V30 605 H 58.89 -0.429294 3.21446 0
M  V30 606 H 58.675 1.27515 3.70786 0
M  V30 607 H 60.165 0.392942 4.15747 0
M  V30 608 N 60.6021 -1.18246 1.0419 0
M  V30 609 C 61.5651 -2.20128 0.638452 0
M  V30 610 C 62.5651 -1.57885 -0.304805 0
M  V30 611 O 63.7551 -1.73967 -0.0900369 0
M  V30 612 C 60.8871 -3.4084 -0.0637751 0
M  V30 613 H 62.0801 -2.57336 1.54007 0
M  V30 614 H 59.6331 -1.32152 0.834598 0
M  V30 615 H 60.3681 -3.09166 -0.979136 0
M  V30 616 H 60.1531 -3.8726 0.614198 0
M  V30 617 H 61.6431 -4.16274 -0.332512 0
M  V30 618 N 62.0802 -0.821533 -1.34494 0
M  V30 619 C 63.4962 -0.507117 -1.51329 0
M  V30 620 C 63.6962 0.968964 -1.76673 0
M  V30 621 O 62.7522 1.75348 -1.81685 0
M  V30 622 C 64.0652 -1.36544 -2.67911 0
M  V30 623 C 65.6132 -1.36242 -2.81793 0
M  V30 624 C 66.0882 -2.2052 -4.01416 0
M  V30 625 N 67.5792 -2.18136 -4.08621 0
M  V30 626 C 68.3142 -2.80095 -5.00334 0
M  V30 627 N 67.8102 -3.51039 -5.9728 0
M  V30 628 N 69.6032 -2.69656 -4.93196 0
M  V30 629 H 61.7542 -1.77729 -1.16302 0
M  V30 630 H 64.0172 -0.757291 -0.570276 0
M  V30 631 H 63.7232 -2.41361 -2.55808 0
M  V30 632 H 63.5972 -1.02917 -3.62888 0
M  V30 633 H 65.9842 -0.322041 -2.93338 0
M  V30 634 H 66.0652 -1.73866 -1.87628 0
M  V30 635 H 65.7092 -3.24607 -3.90631 0
M  V30 636 H 65.6392 -1.80247 -4.94791 0
M  V30 637 H 68.1302 -1.6653 -3.39229 0
M  V30 638 H 68.4432 -3.95565 -6.63889 0
M  V30 639 H 66.7882 -3.55145 -5.97409 0
M  V30 640 H 69.9792 -2.13808 -4.16418 0
M  V30 641 H 70.1522 -3.1823 -5.64476 0
M  V30 642 N 63.5583 1.46682 -0.576371 0
M  V30 643 C 64.8073 2.01619 -0.0572825 0
M  V30 644 C 65.1203 1.45417 1.30818 0
M  V30 645 O 66.3263 1.92133 1.91825 0
M  V30 646 C 64.7823 3.59863 -0.0518371 0
M  V30 647 C 64.3903 4.25059 -1.41523 0
M  V30 648 C 66.1343 4.2248 0.413639 0
M  V30 649 C 64.0413 5.75364 -1.36785 0
M  V30 650 H 62.9713 0.753794 -0.0176448 0
M  V30 651 H 65.6223 1.68481 -0.727076 0
M  V30 652 H 64.0043 3.90048 0.683994 0
M  V30 653 H 65.1783 4.06491 -2.17029 0
M  V30 654 H 63.4933 3.7451 -1.8202 0
M  V30 655 H 66.0903 5.3265 0.467779 0
M  V30 656 H 66.4333 3.90976 1.42982 0
M  V30 657 H 66.9663 3.96897 -0.267929 0
M  V30 658 H 63.7053 6.11518 -2.36063 0
M  V30 659 H 63.2253 5.96214 -0.654895 0
M  V30 660 H 64.9043 6.37955 -1.07805 0
M  V30 661 N 65.0364 0.313813 1.54444 0
M  V30 662 C 65.9684 -0.590425 2.21465 0
M  V30 663 C 66.9814 -1.08753 1.21147 0
M  V30 664 O 68.1704 -1.00278 1.4767 0
M  V30 665 C 65.2704 -1.82179 2.85769 0
M  V30 666 C 64.4434 -1.46502 4.12136 0
M  V30 667 C 63.5024 -2.55288 4.60124 0
M  V30 668 O 62.5284 -2.19842 5.25032 0
M  V30 669 N 63.7304 -3.86053 4.33525 0
M  V30 670 H 66.4954 -0.0166033 2.99695 0
M  V30 671 H 64.0564 0.136578 1.61323 0
M  V30 672 H 66.0484 -2.54328 3.14801 0
M  V30 673 H 64.6184 -2.30369 2.11303 0
M  V30 674 H 63.8384 -0.575595 3.89975 0
M  V30 675 H 65.1264 -1.20221 4.94393 0
M  V30 676 H 64.5244 -4.17654 3.81552 0
M  V30 677 H 63.0814 -4.54461 4.67235 0
M  V30 678 N 66.5145 -1.57545 0.0417849 0
M  V30 679 C 67.4645 -2.07483 -0.945247 0
M  V30 680 C 68.4485 -0.977983 -1.27767 0
M  V30 681 O 69.6405 -1.24142 -1.26166 0
M  V30 682 C 66.7695 -2.61576 -2.22335 0
M  V30 683 C 65.8555 -3.78213 -1.91874 0
M  V30 684 N 66.2465 -4.88344 -1.31733 0
M  V30 685 C 64.5445 -3.8694 -2.21796 0
M  V30 686 C 65.2455 -5.69462 -1.1869 0
M  V30 687 N 64.2215 -5.16771 -1.68666 0
M  V30 688 H 68.0235 -2.90029 -0.475441 0
M  V30 689 H 65.5375 -1.61581 -0.162911 0
M  V30 690 H 67.5345 -2.95651 -2.93932 0
M  V30 691 H 66.1945 -1.80465 -2.69931 0
M  V30 692 H 67.2055 -5.08335 -0.990729 0
M  V30 693 H 63.8825 -3.16757 -2.71977 0
M  V30 694 H 65.2725 -6.68023 -0.720793 0
M  V30 695 N 67.9926 0.231505 -1.5589 0
M  V30 696 C 68.9426 1.29007 -1.87993 0
M  V30 697 C 69.9266 1.42764 -0.742102 0
M  V30 698 O 71.1186 1.45747 -1.00433 0
M  V30 699 C 68.2476 2.6425 -2.1915 0
M  V30 700 C 67.3336 2.54435 -3.39299 0
M  V30 701 N 67.7246 2.14262 -4.58176 0
M  V30 702 C 66.0226 2.85416 -3.42715 0
M  V30 703 C 66.7236 2.15455 -5.40328 0
M  V30 704 N 65.6996 2.55558 -4.79783 0
M  V30 705 H 69.5016 0.970213 -2.77424 0
M  V30 706 H 67.0156 0.440097 -1.56323 0
M  V30 707 H 69.0126 3.40665 -2.40319 0
M  V30 708 H 67.6726 2.9709 -1.31025 0
M  V30 709 H 68.6836 1.85554 -4.83518 0
M  V30 710 H 65.3606 3.22693 -2.64906 0
M  V30 711 H 66.7506 1.86605 -6.45467 0
M  V30 712 N 69.4707 1.49531 0.497807 0
M  V30 713 C 70.4177 1.66436 1.59899 0
M  V30 714 C 71.3877 0.505793 1.58212 0
M  V30 715 O 72.5727 0.733202 1.7615 0
M  V30 716 C 69.7127 1.7399 2.98029 0
M  V30 717 C 68.8257 3.01172 3.09708 0
M  V30 718 C 67.9607 2.99686 4.38591 0
M  V30 719 C 66.9997 4.21434 4.43914 0
M  V30 720 N 66.1367 4.1784 5.64229 0
M  V30 721 H 70.9767 2.60459 1.44793 0
M  V30 722 H 68.5137 1.29137 0.704423 0
M  V30 723 H 70.4717 1.76352 3.78095 0
M  V30 724 H 69.1017 0.834301 3.11832 0
M  V30 725 H 68.1537 3.08408 2.22685 0
M  V30 726 H 69.4657 3.91165 3.09502 0
M  V30 727 H 68.6197 3.00628 5.2698 0
M  V30 728 H 67.3587 2.07477 4.41367 0
M  V30 729 H 66.3637 4.20733 3.53926 0
M  V30 730 H 67.5887 5.14839 4.42851 0
M  V30 731 H 65.5347 3.28469 5.67841 0
M  V30 732 H 65.4517 5.01571 5.65652 0
M  V30 733 H 66.7197 4.22889 6.54817 0
M  V30 734 N 70.9488 -0.749086 1.3866 0
M  V30 735 C 72.2258 -1.4992 1.25632 0
M  V30 736 C 72.6058 -2.10633 -0.140317 0
M  V30 737 O 71.9538 -1.97437 -1.15025 0
M  V30 738 C 72.1638 -2.56195 2.36992 0
M  V30 739 C 73.5118 -3.22972 2.75634 0
M  V30 740 O 74.5358 -2.66502 2.36337 0
M  V30 741 O 73.3948 -4.25122 3.43415 0
M  V30 742 H 70.4888 -0.665067 0.491544 0
M  V30 743 H 73.0348 -0.784113 1.50498 0
M  V30 744 H 71.8068 -2.09612 3.30422 0
M  V30 745 H 71.4298 -3.35279 2.13714 0
M  V30 746 N 72.4269 -1.23603 -0.977757 0
M  V30 747 C 73.6749 -1.06759 -1.71601 0
M  V30 748 C 73.9959 0.395929 -1.90938 0
M  V30 749 O 73.2659 1.28356 -1.47992 0
M  V30 750 H 71.8459 -0.392062 -0.635843 0
M  V30 751 H 74.5079 -1.55362 -1.1768 0
M  V30 752 H 73.6039 -1.55763 -2.70452 0
M  V30 753 N 73.905 1.17692 -1.04816 0
M  V30 754 C 75.321 1.39863 -0.768794 0
M  V30 755 C 75.521 1.91118 0.638451 0
M  V30 756 O 74.577 2.10036 1.40146 0
M  V30 757 C 75.89 2.39274 -1.82122 0
M  V30 758 C 77.438 2.52987 -1.843 0
M  V30 759 C 77.913 3.55669 -2.88555 0
M  V30 760 N 79.404 3.63183 -2.87493 0
M  V30 761 C 80.139 4.42381 -3.64811 0
M  V30 762 N 79.635 5.25125 -4.51903 0
M  V30 763 N 81.428 4.37217 -3.53267 0
M  V30 764 H 73.579 0.82752 -1.95617 0
M  V30 765 H 75.842 0.426123 -0.846831 0
M  V30 766 H 75.548 2.08678 -2.83102 0
M  V30 767 H 75.422 3.38725 -1.65967 0
M  V30 768 H 77.809 2.82896 -0.839869 0
M  V30 769 H 77.89 1.53623 -2.04532 0
M  V30 770 H 77.534 3.26499 -3.89051 0
M  V30 771 H 77.464 4.54728 -2.65575 0
M  V30 772 H 79.955 3.04103 -2.24343 0
M  V30 773 H 80.268 5.82728 -5.07591 0
M  V30 774 H 78.613 5.24519 -4.55966 0
M  V30 775 H 81.804 3.71626 -2.84625 0
M  V30 776 H 81.977 4.98696 -4.13771 0
M  V30 777 N 75.3831 0.828654 1.34056 0
M  V30 778 C 76.7941 0.477534 1.8049 0
M  V30 779 C 77.1451 -1.00258 1.6865 0
M  V30 780 O 76.2701 -1.78057 1.22982 0
M  V30 781 C 76.8651 0.860018 3.27703 0
M  V30 782 C 75.4241 0.561185 3.72193 0
M  V30 783 C 74.5711 1.07385 2.55663 0
M  V30 784 H 77.5221 1.0183 1.21722 0
M  V30 785 H 77.5431 0.166038 3.80138 0
M  V30 786 H 77.0551 1.93731 3.36288 0
M  V30 787 H 75.1561 -0.506465 3.69142 0
M  V30 788 H 75.2691 1.10926 4.66082 0
M  V30 789 H 73.6331 0.495149 2.49841 0
M  V30 790 H 74.4161 2.15771 2.67016 0
M  V30 791 N 76.8612 -1.46375 0.584142 0
M  V30 792 C 77.8242 -2.28784 -0.138108 0
M  V30 793 C 78.8242 -1.38471 -0.817462 0
M  V30 794 O 80.0142 -1.60833 -0.669199 0
M  V30 795 C 77.1462 -3.18892 -1.20503 0
M  V30 796 H 78.3392 -2.94117 0.586127 0
M  V30 797 H 75.8922 -1.52509 0.342171 0
M  V30 798 H 76.6272 -2.58309 -1.96079 0
M  V30 799 H 76.4122 -3.85388 -0.722384 0
M  V30 800 H 77.9022 -3.80914 -1.71155 0
M  V30 801 N 78.3393 -0.321999 -1.54275 0
M  V30 802 C 79.2893 0.560185 -2.21011 0
M  V30 803 C 80.2733 1.08283 -1.19011 0
M  V30 804 O 81.4653 1.02011 -1.44647 0
M  V30 805 C 78.5943 1.72137 -2.97025 0
M  V30 806 C 77.6803 1.21369 -4.06363 0
M  V30 807 N 78.0713 0.425566 -5.04007 0
M  V30 808 C 76.3693 1.49255 -4.20284 0
M  V30 809 C 77.0703 0.152601 -5.815 0
M  V30 810 N 76.0463 0.738294 -5.38563 0
M  V30 811 H 79.8483 -0.049265 -2.93859 0
M  V30 812 H 77.3623 -0.127779 -1.61897 0
M  V30 813 H 79.3593 2.36512 -3.43319 0
M  V30 814 H 78.0193 2.33431 -2.25699 0
M  V30 815 H 79.0303 0.068551 -5.17855 0
M  V30 816 H 75.7073 2.11145 -3.60172 0
M  V30 817 H 77.0973 -0.481764 -6.70171 0
M  V30 818 N 79.8174 1.5752 -0.0501392 0
M  V30 819 C 81.0634 1.93755 0.618901 0
M  V30 820 C 81.4184 0.928514 1.68512 0
M  V30 821 O 80.7114 -0.0524613 1.91528 0
M  V30 822 C 80.9054 3.34467 1.25963 0
M  V30 823 C 80.7344 4.48965 0.257 0
M  V30 824 C 79.5044 5.05075 -0.150656 0
M  V30 825 C 81.7024 5.11891 -0.497166 0
M  V30 826 N 79.6844 6.03104 -1.14626 0
M  V30 827 C 81.0554 6.05216 -1.34588 0
M  V30 828 C 83.1104 4.9479 -0.55559 0
M  V30 829 C 81.8134 6.83277 -2.24778 0
M  V30 830 C 83.8394 5.73477 -1.44492 0
M  V30 831 C 83.2014 6.66433 -2.28136 0
M  V30 832 H 79.3004 0.756479 0.198149 0
M  V30 833 H 81.8844 1.94316 -0.122229 0
M  V30 834 H 80.0554 3.34685 1.97079 0
M  V30 835 H 81.7874 3.57994 1.88739 0
M  V30 836 H 78.5424 4.7305 0.228094 0
M  V30 837 H 78.9664 6.56813 -1.64092 0
M  V30 838 H 83.6084 4.2273 0.0768625 0
M  V30 839 H 81.3264 7.54629 -2.89069 0
M  V30 840 H 84.9124 5.62273 -1.49468 0
M  V30 841 H 83.7924 7.26258 -2.95835 0
M  V30 842 N 81.2955 -0.223234 1.56011 0
M  V30 843 C 82.7115 -0.572856 1.48965 0
M  V30 844 C 82.9115 -1.87225 0.74492 0
M  V30 845 O 81.9675 -2.50899 0.283896 0
M  V30 846 C 83.2805 -0.653646 2.9351 0
M  V30 847 C 84.8285 -0.744386 3.0402 0
M  V30 848 C 85.3035 -0.856535 4.49919 0
M  V30 849 N 86.7945 -0.9208 4.53955 0
M  V30 850 C 87.5295 -1.02726 5.64123 0
M  V30 851 N 87.0255 -1.09777 6.84047 0
M  V30 852 N 88.8185 -1.06226 5.51971 0
M  V30 853 H 80.9695 0.629462 2.02858 0
M  V30 854 H 83.2325 0.220621 0.921971 0
M  V30 855 H 82.9385 0.231518 3.50937 0
M  V30 856 H 82.8125 -1.51781 3.45315 0
M  V30 857 H 85.1995 -1.61999 2.46658 0
M  V30 858 H 85.2805 0.14541 2.55386 0
M  V30 859 H 84.9245 0.0146069 5.07898 0
M  V30 860 H 84.8545 -1.76172 4.96257 0
M  V30 861 H 87.3455 -0.876694 3.6759 0
M  V30 862 H 87.6585 -1.17872 7.63758 0
M  V30 863 H 86.0035 -1.06693 6.86762 0
M  V30 864 H 89.1945 -1.00382 4.5721 0
M  V30 865 H 89.3675 -1.14177 6.37862 0
M  V30 866 N 82.7736 -1.49793 -0.48987 0
M  V30 867 C 84.0016 -1.63568 -1.26701 0
M  V30 868 C 84.4166 -0.311465 -1.86213 0
M  V30 869 O 83.7736 0.704416 -1.68357 0
M  V30 870 C 83.8246 -2.71284 -2.38929 0
M  V30 871 O 83.5456 -3.9857 -1.81861 0
M  V30 872 C 85.0466 -2.95864 -3.3012 0
M  V30 873 H 82.2666 -0.550342 -0.383881 0
M  V30 874 H 84.8106 -1.95898 -0.586864 0
M  V30 875 H 82.9656 -2.417 -3.02753 0
M  V30 876 H 83.3796 -4.57993 -2.55622 0
M  V30 877 H 84.8536 -3.74941 -4.05121 0
M  V30 878 H 85.3306 -2.06206 -3.87783 0
M  V30 879 H 85.9366 -3.26907 -2.72051 0
M  V30 880 N 84.2517 0.741722 -1.39055 0
M  V30 881 C 85.2147 1.83733 -1.37021 0
M  V30 882 C 86.2147 1.58542 -0.268534 0
M  V30 883 O 87.4047 1.66067 -0.526076 0
M  V30 884 C 84.5367 3.2141 -1.13617 0
M  V30 885 H 85.7297 1.86941 -2.34506 0
M  V30 886 H 83.2827 0.944676 -1.24521 0
M  V30 887 H 84.0177 3.23865 -0.167863 0
M  V30 888 H 83.8027 3.4109 -1.93391 0
M  V30 889 H 85.2927 4.01477 -1.14918 0
M  V30 890 N 85.7298 1.2412 0.971189 0
M  V30 891 C 86.6398 1.04747 2.09917 0
M  V30 892 C 87.6558 -0.0107162 1.73997 0
M  V30 893 O 88.8318 0.186714 2.00533 0
M  V30 894 C 85.8968 0.650828 3.40537 0
M  V30 895 C 84.9578 1.7851 3.90426 0
M  V30 896 C 84.1908 1.40729 5.14812 0
M  V30 897 O 84.4138 0.29557 5.69634 0
M  V30 898 O 83.3478 2.23168 5.58999 0
M  V30 899 H 87.1738 1.99304 2.29154 0
M  V30 900 H 84.7588 1.02908 1.08307 0
M  V30 901 H 86.6408 0.440992 4.19086 0
M  V30 902 H 85.3158 -0.265649 3.22608 0
M  V30 903 H 84.2228 2.04966 3.12953 0
M  V30 904 H 85.5558 2.68023 4.12825 0
M  V30 905 N 87.2079 -1.17134 1.05439 0
M  V30 906 C 88.4479 -1.89137 0.77502 0
M  V30 907 C 88.8119 -1.79345 -0.685526 0
M  V30 908 O 90.0129 -2.46188 -1.0791 0
M  V30 909 C 88.2839 -3.35003 1.2453 0
M  V30 910 S 89.8429 -4.24952 1.09367 0
M  V30 911 H 86.6609 -0.652949 0.281387 0
M  V30 912 H 89.2629 -1.4145 1.34953 0
M  V30 913 H 87.9669 -3.39666 2.30338 0
M  V30 914 H 87.4979 -3.87736 0.665166 0
M  V30 915 H 89.5129 -4.96196 0.0193397 0
M  V30 916 N 88.686 -0.835752 -1.33615 0
M  V30 917 C 89.932 -0.439817 -1.98588 0
M  V30 918 C 90.287 0.989274 -1.65019 0
M  V30 919 O 89.58 1.68168 -0.918159 0
M  V30 920 C 89.774 -0.593925 -3.52431 0
M  V30 921 C 89.603 -2.03644 -4.00948 0
M  V30 922 C 88.373 -2.67103 -4.28934 0
M  V30 923 C 90.571 -3.00479 -4.17393 0
M  V30 924 N 88.553 -4.02462 -4.6357 0
M  V30 925 C 89.924 -4.20777 -4.55353 0
M  V30 926 C 91.979 -2.96926 -3.99674 0
M  V30 927 C 90.682 -5.37994 -4.77447 0
M  V30 928 C 92.708 -4.1337 -4.22941 0
M  V30 929 C 92.07 -5.32422 -4.61201 0
M  V30 930 H 88.169 -0.209303 -0.75347 0
M  V30 931 H 90.753 -1.08316 -1.61789 0
M  V30 932 H 88.924 0.019599 -3.88395 0
M  V30 933 H 90.656 -0.169738 -4.04344 0
M  V30 934 H 87.411 -2.18259 -4.20309 0
M  V30 935 H 87.835 -4.72232 -4.85104 0
M  V30 936 H 92.477 -2.06015 -3.69212 0
M  V30 937 H 90.195 -6.29451 -5.06771 0
M  V30 938 H 93.781 -4.12034 -4.10754 0
M  V30 939 H 92.661 -6.21027 -4.78848 0
M  V30 940 N 90.1641 1.46063 -0.591896 0
M  V30 941 C 91.5801 1.57561 -0.254288 0
M  V30 942 C 91.7801 1.58565 1.24336 0
M  V30 943 O 90.8361 1.50753 2.02558 0
M  V30 944 C 92.1491 2.86549 -0.911611 0
M  V30 945 C 93.6971 3.00197 -0.886059 0
M  V30 946 C 94.1721 4.31933 -1.5231 0
M  V30 947 N 95.6631 4.38654 -1.48786 0
M  V30 948 C 96.3981 5.39222 -1.95006 0
M  V30 949 N 95.8941 6.46414 -2.49241 0
M  V30 950 N 97.6871 5.3048 -1.85868 0
M  V30 951 H 89.8381 1.43655 -1.56451 0
M  V30 952 H 92.1011 0.68583 -0.654478 0
M  V30 953 H 91.8071 2.91651 -1.96551 0
M  V30 954 H 91.6811 3.74794 -0.425368 0
M  V30 955 H 94.0681 2.9467 0.159246 0
M  V30 956 H 94.1491 2.13403 -1.41041 0
M  V30 957 H 93.7931 4.38217 -2.56765 0
M  V30 958 H 93.7231 5.17516 -0.973891 0
M  V30 959 H 96.2141 3.61793 -1.09151 0
M  V30 960 H 96.5271 7.19376 -2.82344 0
M  V30 961 H 94.8721 6.47208 -2.53272 0
M  V30 962 H 98.0631 4.45643 -1.43248 0
M  V30 963 H 98.2361 6.08711 -2.22204 0
M  V30 964 N 91.6422 0.330177 1.54103 0
M  V30 965 C 92.5922 -0.548456 2.21305 0
M  V30 966 C 93.5762 -1.07651 1.19583 0
M  V30 967 O 94.7682 -1.01243 1.45186 0
M  V30 968 C 91.8972 -1.70559 2.97934 0
M  V30 969 C 90.9832 -1.19212 4.07 0
M  V30 970 N 91.3742 -0.398831 5.04225 0
M  V30 971 C 89.6722 -1.47024 4.2107 0
M  V30 972 C 90.3732 -0.121761 5.81573 0
M  V30 973 N 89.3492 -0.709722 5.38947 0
M  V30 974 H 93.1512 0.0648483 2.93828 0
M  V30 975 H 90.6652 0.136363 1.61826 0
M  V30 976 H 92.6622 -2.34688 3.44568 0
M  V30 977 H 91.3222 -2.32231 2.26934 0
M  V30 978 H 92.3332 -0.0410869 5.17884 0
M  V30 979 H 89.0102 -2.09232 3.61287 0
M  V30 980 H 90.4002 0.517298 6.69906 0
M  V30 981 N 93.1203 -1.57491 0.0584922 0
M  V30 982 C 94.0503 -2.14988 -0.911178 0
M  V30 983 C 95.0313 -1.07343 -1.31952 0
M  V30 984 O 96.2163 -1.35318 -1.39294 0
M  V30 985 C 93.3463 -2.70078 -2.18347 0
M  V30 986 C 92.3003 -3.82771 -1.91495 0
M  V30 987 C 91.6263 -4.24408 -3.25241 0
M  V30 988 C 92.9263 -5.07592 -1.23075 0
M  V30 989 H 94.6203 -2.96263 -0.432246 0
M  V30 990 H 92.1663 -1.42512 -0.206469 0
M  V30 991 H 94.1193 -3.08943 -2.86587 0
M  V30 992 H 92.8433 -1.86005 -2.68458 0
M  V30 993 H 91.5023 -3.44389 -1.25664 0
M  V30 994 H 91.1503 -3.37275 -3.73168 0
M  V30 995 H 90.8503 -5.00366 -3.08071 0
M  V30 996 H 92.3743 -4.65879 -3.94701 0
M  V30 997 H 93.7883 -5.43857 -1.81362 0
M  V30 998 H 92.1853 -5.88741 -1.16207 0
M  V30 999 H 93.2553 -4.84454 -0.207847 0
M  V30 1000 N 94.5984 0.214957 -1.56127 0
M  V30 1001 C 95.8754 0.963093 -1.70247 0
M  V30 1002 C 96.2554 2.02166 -0.60764 0
M  V30 1003 O 95.6034 2.25244 0.384385 0
M  V30 1004 C 95.8134 1.56756 -3.11815 0
M  V30 1005 C 97.1614 2.0573 -3.7143 0
M  V30 1006 O 98.1854 1.66637 -3.14818 0
M  V30 1007 O 97.0444 2.77603 -4.70743 0
M  V30 1008 H 94.1384 0.450321 -0.693643 0
M  V30 1009 H 96.6844 0.206219 -1.68442 0
M  V30 1010 H 95.4564 0.803533 -3.82961 0
M  V30 1011 H 95.0794 2.3898 -3.17765 0
M  V30 1012 N 96.0765 1.50051 0.48192 0
M  V30 1013 C 97.3045 1.64237 1.25832 0
M  V30 1014 C 97.7195 0.321336 1.86045 0
M  V30 1015 O 97.0765 -0.695478 1.68729 0
M  V30 1016 C 97.1275 2.72548 2.37487 0
M  V30 1017 O 96.8485 3.99529 1.79745 0
M  V30 1018 C 98.3495 2.9761 3.28547 0
M  V30 1019 H 95.5695 0.55237 0.380957 0
M  V30 1020 H 98.1135 1.96207 0.576467 0
M  V30 1021 H 96.2685 2.43303 3.01467 0
M  V30 1022 H 96.6825 4.59342 2.5319 0
M  V30 1023 H 98.1565 3.77084 4.03127 0
M  V30 1024 H 98.6335 2.0826 3.86684 0
M  V30 1025 H 99.2395 3.28345 2.70314 0
M  V30 1026 N 97.5546 -0.734337 1.39446 0
M  V30 1027 C 98.4846 -1.86155 1.40955 0
M  V30 1028 C 99.4656 -1.67898 0.272827 0
M  V30 1029 O 100.651 -1.88207 0.478743 0
M  V30 1030 C 97.7806 -3.23912 1.25294 0
M  V30 1031 C 96.7346 -3.56808 2.36373 0
M  V30 1032 C 96.0606 -4.93508 2.058 0
M  V30 1033 C 97.3606 -3.59713 3.78687 0
M  V30 1034 H 99.0546 -1.8515 2.35287 0
M  V30 1035 H 96.6006 -0.889367 1.13253 0
M  V30 1036 H 98.5536 -4.02443 1.2497 0
M  V30 1037 H 97.2776 -3.25446 0.274308 0
M  V30 1038 H 95.9366 -2.80606 2.35914 0
M  V30 1039 H 95.5846 -4.91623 1.06374 0
M  V30 1040 H 95.2846 -5.16486 2.80208 0
M  V30 1041 H 96.8086 -5.74396 2.07128 0
M  V30 1042 H 98.2226 -4.2832 3.81071 0
M  V30 1043 H 96.6196 -3.94209 4.52459 0
M  V30 1044 H 97.6896 -2.59504 4.09617 0
M  V30 1045 N 99.0327 -1.24633 -0.964593 0
M  V30 1046 C 100.282 -1.08188 -1.7023 0
M  V30 1047 C 100.595 0.37873 -1.91898 0
M  V30 1048 O 101.801 0.663427 -2.6327 0
M  V30 1049 C 100.257 -1.88773 -3.06419 0
M  V30 1050 C 99.8647 -3.39263 -2.92582 0
M  V30 1051 C 101.609 -1.80867 -3.84041 0
M  V30 1052 C 99.5157 -4.1218 -4.24101 0
M  V30 1053 H 98.4457 -0.401245 -0.638372 0
M  V30 1054 H 101.097 -1.48742 -1.07462 0
M  V30 1055 H 99.4787 -1.41035 -3.70034 0
M  V30 1056 H 100.653 -3.94603 -2.37961 0
M  V30 1057 H 98.9677 -3.48154 -2.28424 0
M  V30 1058 H 101.565 -2.32646 -4.81435 0
M  V30 1059 H 101.908 -0.774543 -4.09031 0
M  V30 1060 H 102.441 -2.26301 -3.27159 0
M  V30 1061 H 99.1797 -5.15965 -4.04303 0
M  V30 1062 H 98.6997 -3.61626 -4.78526 0
M  V30 1063 H 100.379 -4.19349 -4.92702 0
M  V30 1064 N 100.511 1.16574 -1.06058 0
M  V30 1065 C 101.739 1.90952 -0.796552 0
M  V30 1066 C 102.154 1.77302 0.648808 0
M  V30 1067 O 101.511 1.11605 1.44397 0
M  V30 1068 C 101.562 3.41736 -1.17894 0
M  V30 1069 O 101.283 3.54975 -2.56758 0
M  V30 1070 C 102.784 4.33169 -0.942308 0
M  V30 1071 H 100.004 0.605594 -0.288959 0
M  V30 1072 H 102.548 1.47777 -1.41358 0
M  V30 1073 H 100.703 3.82623 -0.606491 0
M  V30 1074 H 101.117 4.4846 -2.72 0
M  V30 1075 H 102.591 5.37439 -1.25952 0
M  V30 1076 H 103.068 4.3903 0.122078 0
M  V30 1077 H 103.674 3.98007 -1.49902 0
M  V30 1078 N 101.989 0.842826 1.3317 0
M  V30 1079 C 102.952 0.284065 2.27433 0
M  V30 1080 C 103.952 -0.54948 1.5112 0
M  V30 1081 O 105.142 -0.362699 1.70382 0
M  V30 1082 C 102.274 -0.599384 3.35589 0
M  V30 1083 H 103.467 1.11589 2.78366 0
M  V30 1084 H 101.02 0.616221 1.4364 0
M  V30 1085 H 101.755 -1.45349 2.89904 0
M  V30 1086 H 101.54 -0.00291266 3.921 0
M  V30 1087 H 103.03 -0.983488 4.05854 0
M  V30 1088 N 103.467 -1.45747 0.599634 0
M  V30 1089 C 104.744 -1.95585 0.0240846 0
M  V30 1090 C 105.124 -1.54217 -1.44154 0
M  V30 1091 O 104.472 -0.800903 -2.14004 0
M  V30 1092 C 104.682 -3.48344 0.21385 0
M  V30 1093 C 106.03 -4.24504 0.0904902 0
M  V30 1094 O 107.054 -3.55911 0.143558 0
M  V30 1095 O 105.913 -5.46491 -0.0310766 0
M  V30 1096 H 103.007 -0.82602 -0.0402478 0
M  V30 1097 H 105.553 -1.55951 0.669139 0
M  V30 1098 H 104.325 -3.71397 1.23206 0
M  V30 1099 H 103.948 -3.9485 -0.466842 0
M  V30 1100 N 104.945 -0.338344 -1.53925 0
M  V30 1101 C 105.875 0.51328 -2.27789 0
M  V30 1102 C 106.856 1.107 -1.29149 0
M  V30 1103 O 108.041 1.12937 -1.57984 0
M  V30 1104 C 105.171 1.66697 -3.04679 0
M  V30 1105 C 104.125 1.20183 -4.1078 0
M  V30 1106 C 103.451 2.44363 -4.75595 0
M  V30 1107 C 104.751 0.30605 -5.21403 0
M  V30 1108 H 106.445 -0.102883 -2.99223 0
M  V30 1109 H 103.991 -0.0509219 -1.4391 0
M  V30 1110 H 105.944 2.26915 -3.55088 0
M  V30 1111 H 104.668 2.30995 -2.30887 0
M  V30 1112 H 103.327 0.622499 -3.61276 0
M  V30 1113 H 102.975 3.07057 -3.98403 0
M  V30 1114 H 102.675 2.13925 -5.47275 0
M  V30 1115 H 104.199 3.05317 -5.28786 0
M  V30 1116 H 105.613 0.814929 -5.67478 0
M  V30 1117 H 104.01 0.0937929 -6.00027 0
M  V30 1118 H 105.08 -0.65921 -4.80398 0
M  V30 1119 N 106.423 1.57458 -0.0668435 0
M  V30 1120 C 107.386 2.11323 0.887422 0
M  V30 1121 C 108.386 1.03618 1.22964 0
M  V30 1122 O 109.576 1.29626 1.16373 0
M  V30 1123 C 106.708 2.61048 2.19242 0
M  V30 1124 H 107.901 2.96942 0.420194 0
M  V30 1125 H 105.454 1.55239 0.181793 0
M  V30 1126 H 106.189 1.78868 2.70512 0
M  V30 1127 H 105.974 3.39769 1.95702 0
M  V30 1128 H 107.464 3.02814 2.87565 0
M  V30 1129 N 107.901 -0.206675 1.56239 0
M  V30 1130 C 109.312 -0.772383 1.69974 0
M  V30 1131 C 109.663 -1.84353 0.671436 0
M  V30 1132 O 108.788 -2.15695 -0.174491 0
M  V30 1133 C 109.383 -1.40779 3.08167 0
M  V30 1134 C 107.942 -1.92072 3.23706 0
M  V30 1135 C 107.089 -0.786347 2.65917 0
M  V30 1136 H 110.04 0.0182223 1.5869 0
M  V30 1137 H 110.061 -2.27696 3.04852 0
M  V30 1138 H 109.573 -0.627958 3.82986 0
M  V30 1139 H 107.674 -2.7281 2.53782 0
M  V30 1140 H 107.787 -2.09046 4.31087 0
M  V30 1141 H 106.151 -1.1976 2.24788 0
M  V30 1142 H 106.934 -0.0189416 3.43295 0
M  V30 1143 N 109.379 -1.50304 -0.473955 0
M  V30 1144 C 110.656 -1.51667 -1.23518 0
M  V30 1145 C 111.036 -0.259701 -2.09496 0
M  V30 1146 O 110.384 0.756986 -2.15597 0
M  V30 1147 C 110.594 -2.81082 -2.06868 0
M  V30 1148 C 111.942 -3.31631 -2.65153 0
M  V30 1149 O 112.966 -2.82384 -2.17113 0
M  V30 1150 O 111.825 -4.17471 -3.52675 0
M  V30 1151 H 108.919 -0.60822 -0.560355 0
M  V30 1152 H 111.465 -1.62592 -0.486011 0
M  V30 1153 H 110.237 -3.64041 -1.4349 0
M  V30 1154 H 109.86 -2.73146 -2.88924 0
M  V30 1155 N 110.857 0.726932 -1.39834 0
M  V30 1156 C 112.134 1.47902 -1.28001 0
M  V30 1157 C 112.514 2.1083 0.106789 0
M  V30 1158 O 111.862 1.99242 1.11869 0
M  V30 1159 C 112.072 2.52392 -2.41038 0
M  V30 1160 C 113.42 3.18546 -2.80737 0
M  V30 1161 O 114.444 2.62708 -2.40547 0
M  V30 1162 O 113.303 4.19604 -3.50135 0
M  V30 1163 H 110.397 0.657163 -0.502062 0
M  V30 1164 H 112.943 0.760071 -1.51727 0
M  V30 1165 H 111.715 2.04329 -3.33715 0
M  V30 1166 H 111.338 3.31837 -2.19021 0
M  V30 1167 N 112.336 1.25143 0.95797 0
M  V30 1168 C 113.299 1.05321 2.03569 0
M  V30 1169 C 114.299 0.007152 1.60798 0
M  V30 1170 O 115.489 0.24903 1.72411 0
M  V30 1171 C 112.621 0.598394 3.35607 0
M  V30 1172 H 113.814 2.00986 2.22586 0
M  V30 1173 H 111.367 1.07502 1.13459 0
M  V30 1174 H 112.102 -0.361014 3.22284 0
M  V30 1175 H 111.887 1.35351 3.67998 0
M  V30 1176 H 113.377 0.48104 4.1482 0
M  V30 1177 N 113.814 -1.1601 1.06675 0
M  V30 1178 C 115.063 -1.85973 0.780818 0
M  V30 1179 C 115.376 -1.82819 -0.695444 0
M  V30 1180 O 116.582 -2.484 -1.09589 0
M  V30 1181 C 115.038 -3.33757 1.34665 0
M  V30 1182 C 114.646 -3.45374 2.85343 0
M  V30 1183 C 116.39 -4.0895 1.13843 0
M  V30 1184 C 114.297 -4.87266 3.35151 0
M  V30 1185 H 113.227 -0.696661 0.288407 0
M  V30 1186 H 115.878 -1.30903 1.28595 0
M  V30 1187 H 114.26 -3.88456 0.769274 0
M  V30 1188 H 115.434 -3.00816 3.49065 0
M  V30 1189 H 113.749 -2.83619 3.04876 0
M  V30 1190 H 116.346 -5.13654 1.4854 0
M  V30 1191 H 116.689 -4.16229 0.0770282 0
M  V30 1192 H 117.222 -3.605 1.68179 0
M  V30 1193 H 113.961 -4.85168 4.40786 0
M  V30 1194 H 113.481 -5.32433 2.76179 0
M  V30 1195 H 115.16 -5.56097 3.30704 0
M  V30 1196 N 115.292 -0.849877 -1.32721 0
M  V30 1197 C 116.222 -0.306308 -2.31482 0
M  V30 1198 C 117.203 0.591952 -1.59468 0
M  V30 1199 O 118.388 0.513199 -1.87296 0
M  V30 1200 C 115.518 0.510204 -3.43532 0
M  V30 1201 C 114.472 -0.293209 -4.26994 0
M  V30 1202 C 113.798 0.647743 -5.30762 0
M  V30 1203 C 115.098 -1.51634 -4.99804 0
M  V30 1204 H 116.792 -1.13153 -2.77195 0
M  V30 1205 H 114.338 -0.545553 -1.33266 0
M  V30 1206 H 116.291 0.900856 -4.11658 0
M  V30 1207 H 115.015 1.36874 -2.96535 0
M  V30 1208 H 113.674 -0.665555 -3.60508 0
M  V30 1209 H 113.322 1.50299 -4.8002 0
M  V30 1210 H 113.022 0.11422 -5.87489 0
M  V30 1211 H 114.546 1.03567 -6.01753 0
M  V30 1212 H 115.96 -1.19824 -5.60638 0
M  V30 1213 H 114.357 -1.98745 -5.66234 0
M  V30 1214 H 115.427 -2.28018 -4.27943 0
M  V30 1215 N 116.77 1.45427 -0.607355 0
M  V30 1216 C 117.7 2.3329 0.0989352 0
M  V30 1217 C 118.681 1.46816 0.859007 0
M  V30 1218 O 119.866 1.75588 0.829604 0
M  V30 1219 C 116.996 3.29518 1.09705 0
M  V30 1220 C 115.95 4.25626 0.450206 0
M  V30 1221 C 115.276 5.11542 1.55655 0
M  V30 1222 C 116.576 5.18505 -0.628455 0
M  V30 1223 H 118.27 2.92595 -0.634716 0
M  V30 1224 H 115.816 1.40696 -0.306681 0
M  V30 1225 H 117.769 3.89855 1.59971 0
M  V30 1226 H 116.493 2.68372 1.86129 0
M  V30 1227 H 115.152 3.66586 -0.0315886 0
M  V30 1228 H 114.8 4.46765 2.31107 0
M  V30 1229 H 114.5 5.76647 1.12925 0
M  V30 1230 H 116.024 5.74748 2.06148 0
M  V30 1231 H 117.438 5.72916 -0.209877 0
M  V30 1232 H 115.835 5.92085 -0.977489 0
M  V30 1233 H 116.905 4.60948 -1.50514 0
M  V30 1234 N 118.248 0.346503 1.53744 0
M  V30 1235 C 119.158 -0.517293 2.28826 0
M  V30 1236 C 120.174 -1.10935 1.3405 0
M  V30 1237 O 121.35 -1.1244 1.6709 0
M  V30 1238 C 118.415 -1.65098 3.04866 0
M  V30 1239 C 117.476 -1.0884 4.15274 0
M  V30 1240 C 116.709 -2.16806 4.87679 0
M  V30 1241 O 116.932 -3.3758 4.59778 0
M  V30 1242 O 115.866 -1.80934 5.74061 0
M  V30 1243 H 119.692 0.0931396 3.03557 0
M  V30 1244 H 117.277 0.111458 1.48984 0
M  V30 1245 H 119.159 -2.31053 3.5241 0
M  V30 1246 H 117.834 -2.24717 2.32989 0
M  V30 1247 H 116.741 -0.3933 3.72027 0
M  V30 1248 H 118.074 -0.537036 4.89261 0
M  V30 1249 N 119.726 -1.57421 0.075193 0
M  V30 1250 C 120.966 -1.95495 -0.596757 0
M  V30 1251 C 121.33 -0.954886 -1.66571 0
M  V30 1252 O 122.531 -1.22341 -2.39345 0
M  V30 1253 C 120.802 -3.382 -1.15566 0
M  V30 1254 S 122.361 -3.98254 -1.84226 0
M  V30 1255 H 119.179 -0.683649 -0.195307 0
M  V30 1256 H 121.781 -1.94925 0.149859 0
M  V30 1257 H 120.485 -4.08766 -0.36588 0
M  V30 1258 H 120.016 -3.42321 -1.93856 0
M  V30 1259 H 122.031 -3.85435 -3.12497 0
M  V30 1260 N 121.204 0.198386 -1.56346 0
M  V30 1261 C 122.453 0.917451 -1.79627 0
M  V30 1262 C 122.766 1.8456 -0.64784 0
M  V30 1263 O 123.972 2.60504 -0.764859 0
M  V30 1264 C 122.428 1.68175 -3.18191 0
M  V30 1265 C 122.036 0.798589 -4.40825 0
M  V30 1266 C 123.78 2.39065 -3.50782 0
M  V30 1267 C 121.687 1.56157 -5.70411 0
M  V30 1268 H 120.617 0.346317 -0.669762 0
M  V30 1269 H 123.268 0.170801 -1.82703 0
M  V30 1270 H 121.65 2.47216 -3.09354 0
M  V30 1271 H 122.824 0.0470665 -4.60776 0
M  V30 1272 H 121.139 0.200686 -4.15916 0
M  V30 1273 H 123.736 2.96692 -4.44835 0
M  V30 1274 H 124.079 3.13091 -2.74371 0
M  V30 1275 H 124.612 1.66993 -3.61052 0
M  V30 1276 H 121.351 0.864142 -6.49779 0
M  V30 1277 H 120.871 2.2871 -5.54483 0
M  V30 1278 H 122.55 2.11622 -6.11412 0
M  V30 1279 N 122.682 1.50554 0.465978 0
M  V30 1280 C 123.91 1.65563 1.24083 0
M  V30 1281 C 124.325 0.341051 1.85694 0
M  V30 1282 O 123.682 -0.677543 1.69457 0
M  V30 1283 C 123.733 2.75051 2.34583 0
M  V30 1284 O 123.454 4.01413 1.75497 0
M  V30 1285 C 124.955 3.01078 3.25372 0
M  V30 1286 H 122.175 0.55638 0.375077 0
M  V30 1287 H 124.719 1.96807 0.555624 0
M  V30 1288 H 122.874 2.46486 2.9887 0
M  V30 1289 H 123.288 4.62002 2.48303 0
M  V30 1290 H 124.762 3.81339 3.99105 0
M  V30 1291 H 125.239 2.12349 3.84453 0
M  V30 1292 H 125.845 3.31194 2.66816 0
M  V30 1293 N 124.16 -0.719506 1.40217 0
M  V30 1294 C 125.388 -1.50864 1.41589 0
M  V30 1295 C 125.803 -1.88794 0.0145275 0
M  V30 1296 O 125.16 -1.55174 -0.960594 0
M  V30 1297 C 125.211 -2.78646 2.30302 0
M  V30 1298 O 124.932 -2.42321 3.64983 0
M  V30 1299 C 126.433 -3.72569 2.40224 0
M  V30 1300 H 123.653 -0.465709 0.48307 0
M  V30 1301 H 126.197 -0.88785 1.84221 0
M  V30 1302 H 124.352 -3.37019 1.91042 0
M  V30 1303 H 124.766 -3.24514 4.12057 0
M  V30 1304 H 126.24 -4.5908 3.06512 0
M  V30 1305 H 126.717 -4.15403 1.42608 0
M  V30 1306 H 127.323 -3.20109 2.80019 0
M  V30 1307 N 125.638 -1.25649 -0.95132 0
M  V30 1308 C 126.571 -1.00644 -2.04807 0
M  V30 1309 C 127.549 0.0654271 -1.62468 0
M  V30 1310 O 128.733 -0.074911 -1.88351 0
M  V30 1311 C 125.86 -0.522052 -3.34653 0
M  V30 1312 C 124.906 -1.58495 -3.95957 0
M  V30 1313 S 125.739 -3.17108 -4.31512 0
M  V30 1314 C 126.895 -2.70412 -5.64471 0
M  V30 1315 H 127.128 -1.93508 -2.25703 0
M  V30 1316 H 124.661 -1.09216 -1.09139 0
M  V30 1317 H 126.619 -0.24923 -4.09743 0
M  V30 1318 H 125.28 0.386146 -3.11717 0
M  V30 1319 H 124.473 -1.1968 -4.89584 0
M  V30 1320 H 124.075 -1.80862 -3.2736 0
M  V30 1321 H 126.367 -2.14245 -6.42733 0
M  V30 1322 H 127.31 -3.62693 -6.08161 0
M  V30 1323 H 127.718 -2.10302 -5.23864 0
M  V30 1324 N 127.117 1.15442 -1.07289 0
M  V30 1325 C 128.363 1.86489 -0.796846 0
M  V30 1326 C 128.696 1.82078 0.675371 0
M  V30 1327 O 127.971 1.24346 1.4956 0
M  V30 1328 C 128.254 3.35626 -1.30489 0
M  V30 1329 C 128.107 3.48673 -2.84161 0
M  V30 1330 C 129.426 4.30357 -0.920907 0
M  V30 1331 H 126.545 0.677144 -0.290939 0
M  V30 1332 H 129.187 1.35633 -1.33056 0
M  V30 1333 H 127.337 3.79068 -0.850883 0
M  V30 1334 H 129.009 3.14099 -3.37846 0
M  V30 1335 H 127.252 2.90253 -3.22391 0
M  V30 1336 H 127.923 4.53453 -3.14777 0
M  V30 1337 H 130.399 3.94871 -1.3121 0
M  V30 1338 H 129.275 5.33193 -1.30372 0
M  V30 1339 H 129.536 4.4176 0.173226 0
M  V30 1340 N 128.595 0.856903 1.32268 0
M  V30 1341 C 129.823 0.475439 2.01363 0
M  V30 1342 C 130.238 -0.928486 1.64392 0
M  V30 1343 O 129.595 -1.60624 0.866387 0
M  V30 1344 C 129.646 0.607545 3.56358 0
M  V30 1345 O 129.367 1.95617 3.92002 0
M  V30 1346 C 130.868 0.225382 4.42727 0
M  V30 1347 H 128.088 0.186636 0.644521 0
M  V30 1348 H 130.632 1.15446 1.68797 0
M  V30 1349 H 128.787 -0.0237719 3.87393 0
M  V30 1350 H 129.201 1.95455 4.86721 0
M  V30 1351 H 130.675 0.368813 5.50767 0
M  V30 1352 H 131.152 -0.834369 4.31202 0
M  V30 1353 H 131.758 0.831864 4.17085 0
M  V30 1354 N 130.073 -1.45103 0.615059 0
M  V30 1355 C 131.021 -2.32331 -0.111791 0
M  V30 1356 C 132.015 -1.46409 -0.852102 0
M  V30 1357 O 133.221 -1.62849 -0.766821 0
M  V30 1358 H 129.596 -0.749993 -0.0549072 0
M  V30 1359 H 131.567 -2.91407 0.642225 0
M  V30 1360 C 130.316 -3.3015 -1.09071 0
M  V30 1361 H 129.639 -3.96265 -0.530485 0
M  V30 1362 H 131.079 -3.93898 -1.56908 0
M  V30 1363 C 129.538 -2.57875 -2.168 0
M  V30 1364 O 130.068 -2.36567 -3.24652 0
M  V30 1365 N 128.274 -2.17884 -1.92289 0
M  V30 1366 H 127.821 -2.35413 -1.04587 0
M  V30 1367 H 127.779 -1.6985 -2.64572 0
M  V30 1368 N 131.551 -0.354651 -1.53558 0
M  V30 1369 C 132.481 0.489091 -2.2832 0
M  V30 1370 C 133.462 1.09324 -1.30316 0
M  V30 1371 O 134.647 1.11255 -1.59173 0
M  V30 1372 C 131.777 1.63456 -3.0643 0
M  V30 1373 C 130.731 1.1582 -4.12031 0
M  V30 1374 C 130.057 2.39305 -4.7816 0
M  V30 1375 C 131.357 0.250731 -5.21698 0
M  V30 1376 H 133.051 -0.134614 -2.99097 0
M  V30 1377 H 130.597 -0.0661826 -1.43848 0
M  V30 1378 H 132.55 2.23136 -3.57475 0
M  V30 1379 H 131.274 2.28533 -2.33325 0
M  V30 1380 H 129.933 0.584146 -3.61916 0
M  V30 1381 H 129.581 3.02814 -4.01637 0
M  V30 1382 H 129.281 2.08109 -5.49513 0
M  V30 1383 H 130.805 2.99691 -5.31994 0
M  V30 1384 H 132.219 0.754695 -5.68311 0
M  V30 1385 H 130.616 0.0301468 -6.00092 0
M  V30 1386 H 131.686 -0.710125 -4.79672 0
M  V30 1387 N 133.029 1.57378 -0.0835403 0
M  V30 1388 C 133.959 2.1641 0.87686 0
M  V30 1389 C 134.94 1.09429 1.30228 0
M  V30 1390 O 136.125 1.37516 1.37124 0
M  V30 1391 C 133.255 2.73517 2.14022 0
M  V30 1392 C 132.209 3.85769 1.85381 0
M  V30 1393 C 131.535 4.29529 3.18448 0
M  V30 1394 C 132.835 5.09486 1.14984 0
M  V30 1395 H 134.529 2.96914 0.385059 0
M  V30 1396 H 132.075 1.42823 0.18377 0
M  V30 1397 H 134.028 3.13463 2.81636 0
M  V30 1398 H 132.752 1.90252 2.65465 0
M  V30 1399 H 131.411 3.46345 1.20169 0
M  V30 1400 H 131.059 3.43169 3.67755 0
M  V30 1401 H 130.759 5.05204 3.00071 0
M  V30 1402 H 132.283 4.72099 3.8724 0
M  V30 1403 H 133.697 5.46674 1.72687 0
M  V30 1404 H 132.094 5.90515 1.06826 0
M  V30 1405 H 133.164 4.84724 0.130749 0
M  V30 1406 N 134.507 -0.190092 1.56449 0
M  V30 1407 C 135.754 -0.909705 1.80916 0
M  V30 1408 C 136.082 -1.83047 0.657583 0
M  V30 1409 O 135.337 -1.92428 -0.356356 0
M  V30 1410 C 135.636 -1.75382 3.1141 0
M  V30 1411 C 135.302 -0.983606 4.40041 0
M  V30 1412 C 133.964 -0.770967 4.74984 0
M  V30 1413 C 136.316 -0.442024 5.19322 0
M  V30 1414 C 133.644 -0.0053448 5.867 0
M  V30 1415 C 135.996 0.310412 6.31838 0
M  V30 1416 C 134.66 0.534023 6.6536 0
M  V30 1417 H 133.93 -0.332885 0.662019 0
M  V30 1418 H 136.577 -0.175762 1.90692 0
M  V30 1419 H 134.882 -2.55659 2.96893 0
M  V30 1420 H 136.579 -2.31331 3.27547 0
M  V30 1421 H 133.169 -1.15936 4.12622 0
M  V30 1422 H 137.353 -0.593693 4.92736 0
M  V30 1423 H 132.609 0.177825 6.11141 0
M  V30 1424 H 136.783 0.737419 6.92485 0
M  V30 1425 H 134.41 1.12918 7.51767 0
M  V30 1426 N 135.985 -1.50799 -0.457987 0
M  V30 1427 C 136.948 -1.7005 -1.53674 0
M  V30 1428 C 137.948 -0.570881 -1.50325 0
M  V30 1429 O 139.138 -0.838126 -1.52712 0
M  V30 1430 C 136.27 -1.73788 -2.93276 0
M  V30 1431 H 137.463 -2.66306 -1.37917 0
M  V30 1432 H 135.016 -1.40477 -0.685271 0
M  V30 1433 H 135.751 -0.792717 -3.14462 0
M  V30 1434 H 135.536 -2.55864 -2.97113 0
M  V30 1435 H 137.026 -1.90591 -3.71571 0
M  V30 1436 N 137.463 0.71206 -1.40597 0
M  V30 1437 C 138.393 1.83889 -1.43899 0
M  V30 1438 C 139.374 1.67442 -0.299504 0
M  V30 1439 O 140.559 1.87421 -0.508624 0
M  V30 1440 C 137.689 3.21877 -1.30431 0
M  V30 1441 C 136.643 3.53002 -2.42019 0
M  V30 1442 C 135.969 4.90172 -2.13626 0
M  V30 1443 C 137.269 3.53643 -3.84362 0
M  V30 1444 H 138.963 1.81383 -2.38203 0
M  V30 1445 H 136.509 0.871237 -1.14654 0
M  V30 1446 H 138.462 4.00404 -1.31357 0
M  V30 1447 H 137.186 3.24968 -0.326049 0
M  V30 1448 H 135.845 2.76818 -2.40349 0
M  V30 1449 H 135.493 4.89869 -1.14182 0
M  V30 1450 H 135.193 5.11962 -2.88389 0
M  V30 1451 H 136.717 5.71028 -2.1624 0
M  V30 1452 H 138.131 4.22203 -3.87837 0
M  V30 1453 H 136.528 3.86961 -4.58673 0
M  V30 1454 H 137.598 2.52954 -4.13693 0
M  V30 1455 N 138.941 1.26152 0.944643 0
M  V30 1456 C 140.189 1.11271 1.6871 0
M  V30 1457 C 140.51 -0.345166 1.91921 0
M  V30 1458 O 139.78 -1.24387 1.51343 0
M  V30 1459 H 138.36 0.408783 0.625224 0
M  V30 1460 H 141.022 1.58427 1.1352 0
M  V30 1461 H 140.118 1.62879 2.66227 0
M  V30 1462 N 140.419 -1.14872 1.07899 0
M  V30 1463 C 141.667 -1.85422 0.803941 0
M  V30 1464 C 141.988 -1.83051 -0.67211 0
M  V30 1465 O 141.258 -1.27532 -1.48703 0
M  V30 1466 H 139.838 -0.686537 0.294408 0
M  V30 1467 H 142.5 -1.39226 1.3639 0
M  V30 1468 H 141.596 -2.90399 1.14346 0
M  V30 1469 N 141.898 -0.863906 -1.31812 0
M  V30 1470 C 142.808 -0.318461 -2.32428 0
M  V30 1471 C 143.824 0.568496 -1.64451 0
M  V30 1472 O 145 0.46666 -1.95919 0
M  V30 1473 C 142.065 0.476355 -3.43412 0
M  V30 1474 C 141.126 -0.43784 -4.27061 0
M  V30 1475 C 140.359 0.319138 -5.32745 0
M  V30 1476 O 140.582 1.54799 -5.48993 0
M  V30 1477 O 139.516 -0.319861 -6.01049 0
M  V30 1478 H 143.342 -1.15229 -2.80991 0
M  V30 1479 H 140.927 -0.627103 -1.35602 0
M  V30 1480 H 142.809 0.927156 -4.11074 0
M  V30 1481 H 141.484 1.28683 -2.97022 0
M  V30 1482 H 140.391 -0.937013 -3.62175 0
M  V30 1483 H 141.724 -1.21375 -4.77 0
M  V30 1484 N 143.376 1.44774 -0.622745 0
M  V30 1485 C 144.324 2.32387 0.0994683 0
M  V30 1486 C 145.318 1.46859 0.844326 0
M  V30 1487 O 146.524 1.63254 0.758174 0
M  V30 1488 H 142.899 0.750273 0.0509291 0
M  V30 1489 H 144.87 2.91062 -0.65767 0
M  V30 1490 C 143.619 3.30723 1.07319 0
M  V30 1491 H 142.942 3.96541 0.509462 0
M  V30 1492 H 144.382 3.94725 1.54817 0
M  V30 1493 C 142.841 2.59021 2.15429 0
M  V30 1494 O 143.371 2.38286 3.23393 0
M  V30 1495 N 141.577 2.189 1.91131 0
M  V30 1496 H 141.124 2.35964 1.03337 0
M  V30 1497 H 141.082 1.71251 2.63668 0
M  V30 1498 N 144.854 0.36279 1.53368 0
M  V30 1499 C 146.131 -0.284021 1.93527 0
M  V30 1500 C 146.511 -1.66628 1.29608 0
M  V30 1501 O 145.859 -2.23942 0.45413 0
M  V30 1502 C 146.069 -0.337028 3.47369 0
M  V30 1503 C 147.417 -0.578708 4.20638 0
M  V30 1504 O 148.441 -0.418352 3.53735 0
M  V30 1505 O 147.3 -0.89074 5.39192 0
M  V30 1506 H 144.394 -0.169743 0.809393 0
M  V30 1507 H 146.94 0.41537 1.64538 0
M  V30 1508 H 145.712 0.632217 3.86159 0
M  V30 1509 H 145.335 -1.08243 3.82582 0
M  V30 1510 N 146.332 -1.57332 0.0918853 0
M  V30 1511 C 147.743 -1.81496 -0.437739 0
M  V30 1512 C 148.094 -1.00727 -1.6837 0
M  V30 1513 O 147.219 -0.235694 -2.15113 0
M  V30 1514 C 147.814 -3.29197 -0.800939 0
M  V30 1515 C 146.373 -3.54136 -1.27532 0
M  V30 1516 C 145.52 -2.75979 -0.270392 0
M  V30 1517 H 148.471 -1.55494 0.317366 0
M  V30 1518 H 148.492 -3.42344 -1.66074 0
M  V30 1519 H 148.004 -3.87955 0.106078 0
M  V30 1520 H 146.105 -3.00705 -2.20016 0
M  V30 1521 H 146.218 -4.62792 -1.23938 0
M  V30 1522 H 144.582 -2.43349 -0.751872 0
M  V30 1523 H 145.365 -3.37484 0.629248 0
M  V30 1524 N 147.81 0.181792 -1.56548 0
M  V30 1525 C 148.72 1.24538 -1.98815 0
M  V30 1526 C 149.736 1.49045 -0.897861 0
M  V30 1527 O 150.912 1.61399 -1.20467 0
M  V30 1528 C 147.977 2.56683 -2.33055 0
M  V30 1529 C 147.038 2.40131 -3.55859 0
M  V30 1530 C 146.271 3.65975 -3.88456 0
M  V30 1531 O 146.494 4.70711 -3.22161 0
M  V30 1532 O 145.428 3.6071 -4.81842 0
M  V30 1533 H 149.254 0.916647 -2.89536 0
M  V30 1534 H 146.839 0.387842 -1.44278 0
M  V30 1535 H 148.721 3.34655 -2.56094 0
M  V30 1536 H 147.396 2.89157 -1.45498 0
M  V30 1537 H 146.303 1.60226 -3.38051 0
M  V30 1538 H 147.636 2.12585 -4.43924 0
M  V30 1539 N 149.288 1.51039 0.449983 0
M  V30 1540 C 150.22 1.67617 1.56324 0
M  V30 1541 C 151.233 0.557083 1.52972 0
M  V30 1542 O 152.422 0.830989 1.57977 0
M  V30 1543 C 149.522 1.66402 2.95235 0
M  V30 1544 C 148.695 2.9469 3.23229 0
M  V30 1545 C 147.754 2.85832 4.41799 0
M  V30 1546 O 146.78 3.59785 4.41071 0
M  V30 1547 N 147.982 2.00821 5.44657 0
M  V30 1548 H 150.747 2.63648 1.42512 0
M  V30 1549 H 148.308 1.48767 0.638737 0
M  V30 1550 H 150.3 1.58062 3.72557 0
M  V30 1551 H 148.87 0.780182 3.02708 0
M  V30 1552 H 148.09 3.16996 2.34323 0
M  V30 1553 H 149.378 3.79636 3.38754 0
M  V30 1554 H 148.776 1.40091 5.48079 0
M  V30 1555 H 147.333 1.98368 6.20881 0
M  V30 1556 N 150.766 -0.704594 1.40972 0
M  V30 1557 C 152.012 -1.46546 1.41053 0
M  V30 1558 C 152.367 -1.92393 0.0159714 0
M  V30 1559 O 151.66 -1.66017 -0.956506 0
M  V30 1560 C 151.854 -2.698 2.34399 0
M  V30 1561 C 151.683 -2.36008 3.82793 0
M  V30 1562 C 150.453 -2.26812 4.51536 0
M  V30 1563 C 152.651 -1.99565 4.74003 0
M  V30 1564 N 150.633 -1.8581 5.85105 0
M  V30 1565 C 152.004 -1.69251 5.96451 0
M  V30 1566 C 154.059 -1.86296 4.61734 0
M  V30 1567 C 152.762 -1.27003 7.07999 0
M  V30 1568 C 154.788 -1.45452 5.73234 0
M  V30 1569 C 154.15 -1.16043 6.94776 0
M  V30 1570 H 150.249 -0.533896 0.571383 0
M  V30 1571 H 152.833 -0.816061 1.76773 0
M  V30 1572 H 151.004 -3.32473 2.00789 0
M  V30 1573 H 152.736 -3.36214 2.25261 0
M  V30 1574 H 149.491 -2.44913 4.05357 0
M  V30 1575 H 149.915 -1.67817 6.55871 0
M  V30 1576 H 154.557 -2.0769 3.68273 0
M  V30 1577 H 152.275 -1.04353 8.01334 0
M  V30 1578 H 155.861 -1.35748 5.65742 0
M  V30 1579 H 154.741 -0.84915 7.79589 0
M  V30 1580 N 152.244 -1.26651 -0.937939 0
M  V30 1581 C 153.521 -1.0313 -1.66204 0
M  V30 1582 C 153.901 0.437256 -2.06522 0
M  V30 1583 O 153.249 1.41831 -1.79154 0
M  V30 1584 C 153.459 -1.98314 -2.87181 0
M  V30 1585 C 154.807 -2.27107 -3.58758 0
M  V30 1586 O 155.831 -1.96205 -2.97291 0
M  V30 1587 O 154.69 -2.79736 -4.69479 0
M  V30 1588 H 151.784 -0.392384 -0.727986 0
M  V30 1589 H 154.33 -1.37874 -0.989382 0
M  V30 1590 H 153.102 -2.97399 -2.54302 0
M  V30 1591 H 152.725 -1.64068 -3.6217 0
M  V30 1592 N 153.722 1.14298 -1.08507 0
M  V30 1593 C 154.952 1.88945 -0.835663 0
M  V30 1594 C 155.36 1.78894 0.615928 0
M  V30 1595 O 154.703 1.1468 1.43506 0
M  V30 1596 C 154.765 3.39585 -1.17994 0
M  V30 1597 C 154.429 3.7342 -2.63451 0
M  V30 1598 C 155.426 3.73454 -3.61702 0
M  V30 1599 C 153.111 4.03368 -2.99332 0
M  V30 1600 C 155.105 4.02961 -4.93864 0
M  V30 1601 C 152.792 4.32538 -4.31687 0
M  V30 1602 C 153.79 4.32318 -5.28763 0
M  V30 1603 O 153.478 4.6078 -6.58739 0
M  V30 1604 H 153.21 0.605307 -0.300965 0
M  V30 1605 H 155.764 1.45673 -1.44806 0
M  V30 1606 H 153.994 3.83315 -0.51055 0
M  V30 1607 H 155.683 3.9554 -0.911182 0
M  V30 1608 H 156.449 3.50403 -3.35325 0
M  V30 1609 H 152.328 4.02692 -2.24411 0
M  V30 1610 H 155.872 4.02704 -5.69627 0
M  V30 1611 H 151.769 4.55059 -4.57812 0
M  V30 1612 H 152.537 4.78492 -6.64069 0
M  V30 1613 N 155.201 0.870884 1.31352 0
M  V30 1614 C 156.164 0.332243 2.26779 0
M  V30 1615 C 157.164 -0.517302 1.52252 0
M  V30 1616 O 158.354 -0.326477 1.71113 0
M  V30 1617 C 155.486 -0.528066 3.36785 0
M  V30 1618 H 156.679 1.17469 2.75937 0
M  V30 1619 H 154.232 0.64655 1.423 0
M  V30 1620 H 154.967 -1.39167 2.92922 0
M  V30 1621 H 154.752 0.0802582 3.92018 0
M  V30 1622 H 156.242 -0.897179 4.07849 0
M  V30 1623 N 156.679 -1.44442 0.630414 0
M  V30 1624 C 157.642 -2.29107 -0.0652523 0
M  V30 1625 C 158.642 -1.41002 -0.772995 0
M  V30 1626 O 159.832 -1.62881 -0.617692 0
M  V30 1627 C 156.964 -3.22564 -1.10296 0
M  V30 1628 H 158.157 -2.92103 0.679401 0
M  V30 1629 H 155.71 -1.51343 0.390517 0
M  V30 1630 H 156.445 -2.64416 -1.87762 0
M  V30 1631 H 156.23 -3.87491 -0.59941 0
M  V30 1632 H 157.72 -3.86167 -1.5895 0
M  V30 1633 N 158.157 -0.370918 -1.53173 0
M  V30 1634 C 159.09 0.516727 -2.22273 0
M  V30 1635 C 160.068 1.07877 -1.21661 0
M  V30 1636 O 161.252 1.13389 -1.50583 0
M  V30 1637 C 158.379 1.71346 -2.92161 0
M  V30 1638 C 157.425 1.27838 -4.0689 0
M  V30 1639 S 158.258 0.275217 -5.34792 0
M  V30 1640 C 159.414 1.47816 -6.08195 0
M  V30 1641 H 159.647 -0.0701054 -2.97217 0
M  V30 1642 H 157.18 -0.155038 -1.5362 0
M  V30 1643 H 159.138 2.39988 -3.3304 0
M  V30 1644 H 157.799 2.27156 -2.16931 0
M  V30 1645 H 156.992 2.17141 -4.54825 0
M  V30 1646 H 156.594 0.671105 -3.6793 0
M  V30 1647 H 158.886 2.40831 -6.33251 0
M  V30 1648 H 159.829 1.04008 -7.0042 0
M  V30 1649 H 160.237 1.68663 -5.38714 0
M  V30 1650 N 159.635 1.57281 -0.100228 0
M  V30 1651 C 160.545 2.17833 0.870965 0
M  V30 1652 C 161.561 1.14921 1.30649 0
M  V30 1653 O 162.737 1.47313 1.37335 0
M  V30 1654 C 159.802 2.75085 2.1102 0
M  V30 1655 C 158.863 3.9297 1.72838 0
M  V30 1656 C 158.096 4.47482 2.90854 0
M  V30 1657 O 158.319 4.00922 4.05731 0
M  V30 1658 O 157.253 5.38433 2.69023 0
M  V30 1659 H 161.079 3.0124 0.38575 0
M  V30 1660 H 158.664 1.48881 0.124397 0
M  V30 1661 H 160.546 3.11656 2.83634 0
M  V30 1662 H 159.221 1.94721 2.58584 0
M  V30 1663 H 158.128 3.61201 0.973883 0
M  V30 1664 H 159.461 4.74713 1.30033 0
M  V30 1665 N 161.113 -0.173488 1.56642 0
M  V30 1666 C 162.529 -0.525174 1.50712 0
M  V30 1667 C 162.729 -1.8476 0.804107 0
M  V30 1668 O 161.785 -2.49869 0.363574 0
M  V30 1669 C 163.098 -0.559937 2.95441 0
M  V30 1670 C 164.646 -0.647288 3.06234 0
M  V30 1671 C 165.121 -0.712963 4.52417 0
M  V30 1672 N 166.612 -0.775911 4.56655 0
M  V30 1673 C 167.347 -0.847264 5.67106 0
M  V30 1674 N 166.843 -0.879585 6.87194 0
M  V30 1675 N 168.636 -0.886117 5.55071 0
M  V30 1676 H 160.787 0.693681 2.00753 0
M  V30 1677 H 163.05 0.249841 0.914485 0
M  V30 1678 H 162.756 0.343049 3.50023 0
M  V30 1679 H 162.63 -1.40718 3.49969 0
M  V30 1680 H 165.017 -1.5407 2.51687 0
M  V30 1681 H 165.098 0.226586 2.54794 0
M  V30 1682 H 164.742 0.176183 5.07594 0
M  V30 1683 H 164.672 -1.60295 5.0161 0
M  V30 1684 H 167.163 -0.759304 3.70193 0
M  V30 1685 H 167.476 -0.935144 7.67121 0
M  V30 1686 H 165.821 -0.847898 6.89808 0
M  V30 1687 H 169.012 -0.857853 4.60172 0
M  V30 1688 H 169.185 -0.938263 6.41171 0
M  V30 1689 N 162.591 -1.51276 -0.441967 0
M  V30 1690 C 163.554 -1.7167 -1.51862 0
M  V30 1691 C 164.554 -0.586793 -1.49711 0
M  V30 1692 O 165.744 -0.854276 -1.51815 0
M  V30 1693 C 162.876 -1.76889 -2.91416 0
M  V30 1694 H 164.069 -2.67754 -1.35084 0
M  V30 1695 H 161.622 -1.41196 -0.670333 0
M  V30 1696 H 162.357 -0.826026 -3.13604 0
M  V30 1697 H 162.142 -2.59001 -2.94382 0
M  V30 1698 H 163.632 -1.94522 -3.69528 0
M  V30 1699 N 164.069 0.697108 -1.41344 0
M  V30 1700 C 165.318 1.45279 -1.39918 0
M  V30 1701 C 165.631 1.95597 -0.0109624 0
M  V30 1702 O 166.837 2.71208 0.125919 0
M  V30 1703 C 165.293 2.62695 -2.46007 0
M  V30 1704 C 164.901 2.19169 -3.90729 0
M  V30 1705 C 166.645 3.40336 -2.53715 0
M  V30 1706 C 164.552 3.33535 -4.88373 0
M  V30 1707 H 163.482 0.545692 -0.520323 0
M  V30 1708 H 166.133 0.756929 -1.67161 0
M  V30 1709 H 164.515 3.34541 -2.11892 0
M  V30 1710 H 165.689 1.54623 -4.34083 0
M  V30 1711 H 164.004 1.54525 -3.86666 0
M  V30 1712 H 166.601 4.2547 -3.2385 0
M  V30 1713 H 166.944 3.85418 -1.5735 0
M  V30 1714 H 167.477 2.75546 -2.86913 0
M  V30 1715 H 164.216 2.93468 -5.86137 0
M  V30 1716 H 163.736 3.96936 -4.49668 0
M  V30 1717 H 165.415 3.99335 -5.09059 0
M  V30 1718 N 165.547 1.27147 0.931209 0
M  V30 1719 C 166.824 1.0401 1.65654 0
M  V30 1720 C 167.204 -0.426297 2.06751 0
M  V30 1721 O 166.552 -1.40879 1.79904 0
M  V30 1722 C 166.762 1.99834 2.86125 0
M  V30 1723 C 168.11 2.29007 3.57549 0
M  V30 1724 O 169.134 1.97779 2.96246 0
M  V30 1725 O 167.993 2.82222 4.67989 0
M  V30 1726 H 165.087 0.396239 0.725895 0
M  V30 1727 H 167.633 1.38397 0.982056 0
M  V30 1728 H 166.405 2.98744 2.52721 0
M  V30 1729 H 166.028 1.65987 3.61295 0
M  V30 1730 N 167.025 -1.13721 1.09112 0
M  V30 1731 C 168.302 -1.81155 0.737706 0
M  V30 1732 C 168.682 -1.96253 -0.777683 0
M  V30 1733 O 168.03 -1.52807 -1.69889 0
M  V30 1734 C 168.24 -3.16392 1.47299 0
M  V30 1735 C 169.588 -3.91787 1.63671 0
M  V30 1736 O 170.612 -3.26005 1.43524 0
M  V30 1737 O 169.471 -5.0977 1.96969 0
M  V30 1738 H 166.565 -0.783518 0.26463 0
M  V30 1739 H 169.111 -1.20676 1.19312 0
M  V30 1740 H 167.883 -3.0061 2.50498 0
M  V30 1741 H 167.506 -3.8457 1.00953 0
M  V30 1742 N 168.503 -0.877838 -1.30888 0
M  V30 1743 C 169.413 -0.343096 -2.32078 0
M  V30 1744 C 170.429 0.551022 -1.65045 0
M  V30 1745 O 171.605 0.445854 -1.96403 0
M  V30 1746 C 168.67 0.439905 -3.43898 0
M  V30 1747 C 167.731 -0.483111 -4.26573 0
M  V30 1748 C 166.964 0.262616 -5.33053 0
M  V30 1749 O 167.187 1.48967 -5.50604 0
M  V30 1750 O 166.121 -0.383593 -6.00676 0
M  V30 1751 H 169.947 -1.18203 -2.79753 0
M  V30 1752 H 167.532 -0.64145 -1.34929 0
M  V30 1753 H 169.414 0.883504 -4.12034 0
M  V30 1754 H 168.089 1.25526 -2.98371 0
M  V30 1755 H 166.996 -0.975374 -3.61161 0
M  V30 1756 H 168.329 -1.26427 -4.75686 0
M  V30 1757 N 169.982 1.44106 -0.638065 0
M  V30 1758 C 171.231 2.01194 -0.142744 0
M  V30 1759 C 171.544 1.50835 1.24532 0
M  V30 1760 O 172.75 2.00096 1.83504 0
M  V30 1761 C 171.206 3.59319 -0.20442 0
M  V30 1762 C 170.814 4.18674 -1.59423 0
M  V30 1763 C 172.558 4.23854 0.234079 0
M  V30 1764 C 170.465 5.69045 -1.61065 0
M  V30 1765 H 169.395 0.752367 -0.0495998 0
M  V30 1766 H 172.046 1.65246 -0.797881 0
M  V30 1767 H 170.428 3.92598 0.517946 0
M  V30 1768 H 171.602 3.96921 -2.34074 0
M  V30 1769 H 169.917 3.66453 -1.97741 0
M  V30 1770 H 172.514 5.34155 0.241443 0
M  V30 1771 H 172.857 3.96688 1.2627 0
M  V30 1772 H 173.39 3.95403 -0.436025 0
M  V30 1773 H 170.129 6.00956 -2.61787 0
M  V30 1774 H 169.649 5.929 -0.90718 0
M  V30 1775 H 171.328 6.32809 -1.34766 0
M  V30 1776 N 171.46 0.379036 1.52974 0
M  V30 1777 C 172.392 -0.495963 2.2377 0
M  V30 1778 C 173.405 -1.03517 1.25651 0
M  V30 1779 O 174.594 -0.939249 1.51791 0
M  V30 1780 C 171.694 -1.69894 2.93239 0
M  V30 1781 C 170.867 -1.2889 4.17979 0
M  V30 1782 C 169.926 -2.35543 4.70538 0
M  V30 1783 O 168.952 -1.97375 5.33883 0
M  V30 1784 N 170.154 -3.67318 4.49508 0
M  V30 1785 H 172.919 0.110523 2.99496 0
M  V30 1786 H 170.48 0.204878 1.60598 0
M  V30 1787 H 172.472 -2.40747 3.25304 0
M  V30 1788 H 171.042 -2.212 2.20883 0
M  V30 1789 H 170.262 -0.409676 3.92065 0
M  V30 1790 H 171.55 -0.991443 4.99047 0
M  V30 1791 H 170.948 -4.01095 3.98923 0
M  V30 1792 H 169.505 -4.34235 4.8609 0
M  V30 1793 N 172.938 -1.57226 0.108567 0
M  V30 1794 C 174.187 -1.94008 -0.551703 0
M  V30 1795 C 174.5 -0.993442 -1.68494 0
M  V30 1796 O 175.706 -1.25551 -2.40726 0
M  V30 1797 C 174.162 -3.44763 -1.03279 0
M  V30 1798 C 173.77 -4.47943 0.0714193 0
M  V30 1799 C 175.514 -3.90483 -1.66503 0
M  V30 1800 C 173.421 -5.89865 -0.425779 0
M  V30 1801 H 172.351 -0.724206 -0.209863 0
M  V30 1802 H 175.002 -1.82547 0.186741 0
M  V30 1803 H 173.384 -3.51422 -1.82533 0
M  V30 1804 H 174.558 -4.52942 0.847365 0
M  V30 1805 H 172.873 -4.11913 0.609669 0
M  V30 1806 H 175.47 -4.93925 -2.04798 0
M  V30 1807 H 175.813 -3.29877 -2.53942 0
M  V30 1808 H 176.346 -3.86581 -0.938074 0
M  V30 1809 H 173.085 -6.54202 0.412316 0
M  V30 1810 H 172.605 -5.88309 -1.16843 0
M  V30 1811 H 174.284 -6.40844 -0.890397 0
M  V30 1812 N 174.416 0.165178 -1.56732 0
M  V30 1813 C 175.346 1.20651 -1.99914 0
M  V30 1814 C 176.327 1.45827 -0.875705 0
M  V30 1815 O 177.512 1.57057 -1.14223 0
M  V30 1816 C 174.642 2.54401 -2.36427 0
M  V30 1817 C 173.596 2.43782 -3.51787 0
M  V30 1818 C 172.922 3.82078 -3.7406 0
M  V30 1819 C 174.222 1.93732 -4.85041 0
M  V30 1820 H 175.916 0.847534 -2.87154 0
M  V30 1821 H 173.462 0.40625 -1.38151 0
M  V30 1822 H 175.415 3.27458 -2.65234 0
M  V30 1823 H 174.139 2.92098 -1.46103 0
M  V30 1824 H 172.798 1.73178 -3.23117 0
M  V30 1825 H 172.446 4.17179 -2.81017 0
M  V30 1826 H 172.146 3.7584 -4.51684 0
M  V30 1827 H 173.67 4.56712 -4.05274 0
M  V30 1828 H 175.084 2.56569 -5.12684 0
M  V30 1829 H 173.481 1.98428 -5.66345 0
M  V30 1830 H 174.551 0.891962 -4.76626 0
M  V30 1831 N 175.894 1.51508 0.433938 0
M  V30 1832 C 177.143 1.63578 1.18005 0
M  V30 1833 C 177.456 0.359514 1.92268 0
M  V30 1834 O 178.662 0.359632 2.69108 0
M  V30 1835 C 177.118 2.88901 2.14626 0
M  V30 1836 C 176.726 4.23544 1.45995 0
M  V30 1837 C 178.47 3.10328 2.89649 0
M  V30 1838 C 176.377 5.40014 2.4112 0
M  V30 1839 H 175.307 0.609277 0.444182 0
M  V30 1840 H 177.958 1.77978 0.446773 0
M  V30 1841 H 176.34 2.68142 2.91403 0
M  V30 1842 H 177.514 4.54696 0.747532 0
M  V30 1843 H 175.829 4.08021 0.831115 0
M  V30 1844 H 178.426 3.94518 3.60915 0
M  V30 1845 H 178.769 2.23544 3.51189 0
M  V30 1846 H 179.302 3.31443 2.19978 0
M  V30 1847 H 176.041 6.29068 1.84264 0
M  V30 1848 H 175.561 5.13233 3.10406 0
M  V30 1849 H 177.24 5.72099 3.02177 0
M  V30 1850 N 177.372 -0.689602 1.41712 0
M  V30 1851 C 178.335 -1.78521 1.43746 0
M  V30 1852 C 179.335 -1.57436 0.327191 0
M  V30 1853 O 180.525 -1.64 0.587348 0
M  V30 1854 C 177.657 -3.16971 1.25467 0
M  V30 1855 H 178.85 -1.78108 2.41283 0
M  V30 1856 H 176.403 -0.89781 1.27942 0
M  V30 1857 H 177.138 -3.23019 0.287948 0
M  V30 1858 H 176.923 -3.33678 2.05917 0
M  V30 1859 H 178.413 -3.96935 1.2974 0
M  V30 1860 N 178.85 -1.27639 -0.924453 0
M  V30 1861 C 179.813 -1.10681 -2.00705 0
M  V30 1862 C 180.813 -0.0497823 -1.60723 0
M  V30 1863 O 182.003 -0.294654 -1.7169 0
M  V30 1864 C 179.135 -0.687164 -3.33902 0
M  V30 1865 H 180.328 -2.06817 -2.17179 0
M  V30 1866 H 177.881 -1.10473 -1.10569 0
M  V30 1867 H 178.616 0.275439 -3.23128 0
M  V30 1868 H 178.401 -1.45061 -3.6428 0
M  V30 1869 H 179.891 -0.590853 -4.13399 0
M  V30 1870 N 180.328 1.1314 -1.09713 0
M  V30 1871 C 181.568 1.8613 -0.844683 0
M  V30 1872 C 181.932 1.81765 0.618491 0
M  V30 1873 O 183.133 2.50024 0.98699 0
M  V30 1874 C 181.404 3.30151 -1.36877 0
M  V30 1875 S 182.963 4.206 -1.25064 0
M  V30 1876 H 179.781 0.642056 -0.305427 0
M  V30 1877 H 182.383 1.36343 -1.4011 0
M  V30 1878 H 181.087 3.30883 -2.42786 0
M  V30 1879 H 180.618 3.85 -0.808614 0
M  V30 1880 H 182.633 4.95783 -0.203486 0
M  V30 1881 N 181.806 0.884767 1.30421 0
M  V30 1882 C 182.738 0.308655 2.27112 0
M  V30 1883 C 183.751 -0.536655 1.53701 0
M  V30 1884 O 184.94 -0.35624 1.74909 0
M  V30 1885 C 182.04 -0.579782 3.33904 0
M  V30 1886 C 181.213 0.236417 4.36761 0
M  V30 1887 C 180.272 -0.582482 5.22966 0
M  V30 1888 O 179.298 -0.00525502 5.692 0
M  V30 1889 N 180.5 -1.89163 5.48815 0
M  V30 1890 H 183.265 1.13964 2.77186 0
M  V30 1891 H 180.826 0.747731 1.43599 0
M  V30 1892 H 182.818 -1.13366 3.88497 0
M  V30 1893 H 181.388 -1.31144 2.83761 0
M  V30 1894 H 180.608 0.97174 3.82035 0
M  V30 1895 H 181.896 0.795924 5.02536 0
M  V30 1896 H 181.294 -2.38352 5.13035 0
M  V30 1897 H 179.851 -2.39296 6.06284 0
M  V30 1898 N 183.284 -1.43765 0.645699 0
M  V30 1899 C 184.7 -1.56509 0.312591 0
M  V30 1900 C 184.9 -1.6307 -1.18365 0
M  V30 1901 O 183.956 -1.58167 -1.96824 0
M  V30 1902 C 185.269 -2.82968 1.01733 0
M  V30 1903 C 186.817 -2.96701 0.996865 0
M  V30 1904 C 187.292 -4.25982 1.68236 0
M  V30 1905 N 188.783 -4.32829 1.64964 0
M  V30 1906 C 189.518 -5.31613 2.14885 0
M  V30 1907 N 189.014 -6.36718 2.73061 0
M  V30 1908 N 190.807 -5.23217 2.05428 0
M  V30 1909 H 182.958 -1.3775 1.61675 0
M  V30 1910 H 185.221 -0.661067 0.679481 0
M  V30 1911 H 184.927 -2.84156 2.0724 0
M  V30 1912 H 184.801 -3.72957 0.564177 0
M  V30 1913 H 187.188 -2.95058 -0.0497719 0
M  V30 1914 H 187.269 -2.08022 1.48865 0
M  V30 1915 H 186.913 -4.28386 2.72852 0
M  V30 1916 H 186.843 -5.13545 1.16529 0
M  V30 1917 H 189.334 -3.57493 1.22503 0
M  V30 1918 H 189.647 -7.08401 3.08848 0
M  V30 1919 H 187.992 -6.37362 2.77118 0
M  V30 1920 H 191.183 -4.40019 1.59689 0
M  V30 1921 H 191.356 -6.00045 2.44643 0
M  V30 1922 N 184.763 -0.387143 -1.52771 0
M  V30 1923 C 186.003 0.195537 -2.03463 0
M  V30 1924 C 186.367 1.44222 -1.26744 0
M  V30 1925 O 187.568 2.10192 -1.67549 0
M  V30 1926 C 185.839 0.459097 -3.54439 0
M  V30 1927 S 187.398 1.01237 -4.26962 0
M  V30 1928 H 184.216 0.0552675 -0.708849 0
M  V30 1929 H 186.818 -0.534992 -1.88037 0
M  V30 1930 H 185.522 -0.455382 -4.07866 0
M  V30 1931 H 185.053 1.21811 -3.74066 0
M  V30 1932 H 187.068 2.29492 -4.39941 0
M  V30 1933 N 186.241 1.57166 -0.116904 0
M  V30 1934 C 187.652 1.82169 0.408809 0
M  V30 1935 C 188.003 1.03393 1.66746 0
M  V30 1936 O 187.128 0.269886 2.1471 0
M  V30 1937 C 187.723 3.30429 0.748466 0
M  V30 1938 C 186.282 3.5612 1.21882 0
M  V30 1939 C 185.429 2.76374 0.226452 0
M  V30 1940 H 188.38 1.5497 -0.342063 0
M  V30 1941 H 188.401 3.44943 1.60607 0
M  V30 1942 H 187.913 3.87737 -0.167784 0
M  V30 1943 H 186.014 3.04168 2.15204 0
M  V30 1944 H 186.127 4.64705 1.16559 0
M  V30 1945 H 184.491 2.44515 0.713063 0
M  V30 1946 H 185.274 3.3644 -0.682859 0
M  V30 1947 N 187.719 -0.156864 1.56817 0
M  V30 1948 C 188.682 -1.17781 1.96622 0
M  V30 1949 C 189.682 -1.36401 0.851555 0
M  V30 1950 O 190.872 -1.33561 1.11836 0
M  V30 1951 C 188.004 -2.54008 2.27361 0
M  V30 1952 H 189.197 -0.836564 2.87996 0
M  V30 1953 H 186.75 -0.39985 1.51099 0
M  V30 1954 H 187.485 -2.9312 1.38748 0
M  V30 1955 H 187.27 -2.41856 3.08623 0
M  V30 1956 H 188.76 -3.27558 2.59029 0
M  V30 1957 N 189.197 -1.51736 -0.425897 0
M  V30 1958 C 190.144 -1.73875 -1.51776 0
M  V30 1959 C 191.114 -0.580702 -1.55618 0
M  V30 1960 O 192.299 -0.81641 -1.72451 0
M  V30 1961 C 189.439 -1.88012 -2.89388 0
M  V30 1962 C 188.552 -3.15606 -2.94986 0
M  V30 1963 C 187.687 -3.20271 -4.23793 0
M  V30 1964 C 186.726 -4.42134 -4.23302 0
M  V30 1965 N 185.863 -4.44284 -5.43651 0
M  V30 1966 H 190.703 -2.67071 -1.32201 0
M  V30 1967 H 188.24 -1.32351 -0.642008 0
M  V30 1968 H 190.198 -1.9419 -3.69251 0
M  V30 1969 H 188.828 -0.98213 -3.07496 0
M  V30 1970 H 187.88 -3.18681 -2.07717 0
M  V30 1971 H 189.192 -4.05486 -2.90486 0
M  V30 1972 H 188.346 -3.25428 -5.12036 0
M  V30 1973 H 187.085 -2.28299 -4.30965 0
M  V30 1974 H 186.09 -4.3714 -3.3345 0
M  V30 1975 H 187.315 -5.35382 -4.17783 0
M  V30 1976 H 185.261 -3.55188 -5.51523 0
M  V30 1977 H 185.178 -5.27988 -5.41078 0
M  V30 1978 H 186.446 -4.53649 -6.33895 0
M  V30 1979 N 190.675 0.682077 -1.42076 0
M  V30 1980 C 191.921 1.44428 -1.42367 0
M  V30 1981 C 192.254 1.94164 -0.0373056 0
M  V30 1982 O 191.529 1.70429 0.937239 0
M  V30 1983 C 191.812 2.64654 -2.44194 0
M  V30 1984 C 191.665 2.20596 -3.91991 0
M  V30 1985 C 192.984 3.66865 -2.431 0
M  V30 1986 H 190.103 0.523834 -0.518428 0
M  V30 1987 H 192.745 0.77576 -1.73442 0
M  V30 1988 H 190.895 3.2169 -2.17826 0
M  V30 1989 H 192.567 1.68783 -4.29313 0
M  V30 1990 H 190.81 1.52242 -4.06208 0
M  V30 1991 H 191.481 3.06921 -4.58807 0
M  V30 1992 H 193.957 3.19531 -2.66532 0
M  V30 1993 H 192.833 4.48577 -3.16339 0
M  V30 1994 H 193.094 4.17493 -1.45437 0
M  V30 1995 N 192.153 1.28127 0.917671 0
M  V30 1996 C 193.399 1.15223 1.66888 0
M  V30 1997 C 193.732 -0.299293 1.9188 0
M  V30 1998 O 193.007 -1.21805 1.51637 0
M  V30 1999 C 193.29 1.94706 3.02922 0
M  V30 2000 C 193.143 3.47898 2.85109 0
M  V30 2001 C 194.462 1.75939 4.03402 0
M  V30 2002 H 191.581 0.419946 0.605652 0
M  V30 2003 H 194.223 1.57398 1.06423 0
M  V30 2004 H 192.373 1.58864 3.54534 0
M  V30 2005 H 194.045 3.93624 2.40537 0
M  V30 2006 H 192.288 3.7373 2.20246 0
M  V30 2007 H 192.959 3.98765 3.81694 0
M  V30 2008 H 195.435 2.07209 3.60837 0
M  V30 2009 H 194.311 2.33931 4.96556 0
M  V30 2010 H 194.572 0.709877 4.36364 0
M  V30 2011 N 193.631 -1.12557 1.10312 0
M  V30 2012 C 194.561 -2.20341 0.772798 0
M  V30 2013 C 195.542 -1.68198 -0.25365 0
M  V30 2014 O 196.727 -1.93831 -0.119699 0
M  V30 2015 C 193.857 -3.46709 0.202443 0
M  V30 2016 C 192.811 -4.11996 1.15943 0
M  V30 2017 C 192.137 -5.328 0.450345 0
M  V30 2018 C 193.437 -4.5828 2.50552 0
M  V30 2019 H 195.131 -2.48229 1.674 0
M  V30 2020 H 192.677 -1.19308 0.806326 0
M  V30 2021 H 194.63 -4.2138 -0.0407752 0
M  V30 2022 H 193.354 -3.18245 -0.734001 0
M  V30 2023 H 192.013 -3.39305 1.38808 0
M  V30 2024 H 191.661 -5.00602 -0.490531 0
M  V30 2025 H 191.361 -5.7743 1.08851 0
M  V30 2026 H 192.885 -6.10219 0.215642 0
M  V30 2027 H 194.299 -5.2433 2.31843 0
M  V30 2028 H 192.696 -5.13683 3.10242 0
M  V30 2029 H 193.766 -3.72329 3.10643 0
M  V30 2030 N 195.109 -0.891671 -1.2995 0
M  V30 2031 C 196.355 -0.514261 -1.96171 0
M  V30 2032 C 196.688 0.935506 -1.70182 0
M  V30 2033 O 195.963 1.66204 -1.01028 0
M  V30 2034 C 196.246 -0.797719 -3.51153 0
M  V30 2035 C 196.099 -2.2986 -3.86632 0
M  V30 2036 C 197.418 -0.278749 -4.39216 0
M  V30 2037 H 194.537 -0.188314 -0.712535 0
M  V30 2038 H 197.179 -1.11689 -1.53706 0
M  V30 2039 H 195.329 -0.284826 -3.87455 0
M  V30 2040 H 197.001 -2.88042 -3.60319 0
M  V30 2041 H 195.244 -2.76257 -3.34462 0
M  V30 2042 H 195.915 -2.44753 -4.94773 0
M  V30 2043 H 198.391 -0.717825 -4.09862 0
M  V30 2044 H 197.267 -0.506353 -5.46559 0
M  V30 2045 H 197.528 0.820266 -4.34424 0
M  V30 2046 N 196.587 1.43421 -0.653314 0
M  V30 2047 C 197.815 2.06163 -0.174491 0
M  V30 2048 C 198.23 1.48969 1.1599 0
M  V30 2049 O 197.587 0.621042 1.71608 0
M  V30 2050 C 197.638 3.61417 -0.0774865 0
M  V30 2051 O 197.359 4.16485 -1.35912 0
M  V30 2052 C 198.86 4.41235 0.427402 0
M  V30 2053 H 196.08 0.664946 -0.0899353 0
M  V30 2054 H 198.624 1.83924 -0.893988 0
M  V30 2055 H 196.779 3.82841 0.59257 0
M  V30 2056 H 197.193 5.10153 -1.21839 0
M  V30 2057 H 198.667 5.5021 0.44423 0
M  V30 2058 H 199.144 4.14268 1.45873 0
M  V30 2059 H 199.75 4.2478 -0.210167 0
M  V30 2060 N 198.065 0.39524 1.52563 0
M  V30 2061 C 199.013 -0.451859 2.28169 0
M  V30 2062 C 200.007 -1.05792 1.32304 0
M  V30 2063 O 201.213 -0.997718 1.49818 0
M  V30 2064 H 197.588 -0.164481 0.733792 0
M  V30 2065 H 199.559 0.207199 2.9768 0
M  V30 2066 C 198.308 -1.56385 3.10546 0
M  V30 2067 H 197.631 -1.10682 3.84174 0
M  V30 2068 H 199.071 -2.13067 3.66577 0
M  V30 2069 C 197.53 -2.52328 2.23231 0
M  V30 2070 O 198.06 -3.5588 1.86312 0
M  V30 2071 N 196.266 -2.22209 1.87274 0
M  V30 2072 H 195.813 -1.38033 2.17496 0
M  V30 2073 H 195.771 -2.86652 1.29143 0
M  V30 2074 N 199.544 -1.57102 0.125237 0
M  V30 2075 C 200.454 -2.19191 -0.8362 0
M  V30 2076 C 201.47 -1.16985 -1.28805 0
M  V30 2077 O 202.646 -1.49479 -1.34974 0
M  V30 2078 C 199.711 -2.78407 -2.06617 0
M  V30 2079 C 198.772 -3.9567 -1.66565 0
M  V30 2080 C 198.005 -4.52052 -2.83698 0
M  V30 2081 O 198.228 -4.07326 -3.99302 0
M  V30 2082 O 197.162 -5.42645 -2.60423 0
M  V30 2083 H 200.988 -3.01816 -0.337776 0
M  V30 2084 H 198.573 -1.4906 -0.100695 0
M  V30 2085 H 200.455 -3.16129 -2.7864 0
M  V30 2086 H 199.13 -1.9881 -2.55453 0
M  V30 2087 H 198.037 -3.62705 -0.916296 0
M  V30 2088 H 199.37 -4.76722 -1.22464 0
M  V30 2089 N 201.022 0.148545 -1.56898 0
M  V30 2090 C 202.268 0.862694 -1.83536 0
M  V30 2091 C 202.601 1.80889 -0.706604 0
M  V30 2092 O 201.876 1.92328 0.289885 0
M  V30 2093 C 202.159 1.63853 -3.20662 0
M  V30 2094 C 202.012 0.713925 -4.44098 0
M  V30 2095 C 203.331 2.60133 -3.54991 0
M  V30 2096 H 200.45 0.312179 -0.667618 0
M  V30 2097 H 203.092 0.127953 -1.89569 0
M  V30 2098 H 201.242 2.26489 -3.1565 0
M  V30 2099 H 202.914 0.098686 -4.61194 0
M  V30 2100 H 201.157 0.0234019 -4.33794 0
M  V30 2101 H 201.828 1.29278 -5.36648 0
M  V30 2102 H 204.304 2.07616 -3.60603 0
M  V30 2103 H 203.18 3.11468 -4.51972 0
M  V30 2104 H 203.441 3.41417 -2.80868 0
M  V30 2105 N 202.5 1.5196 0.417844 0
M  V30 2106 C 203.748 1.65263 1.16329 0
M  V30 2107 C 204.069 0.380634 1.91249 0
M  V30 2108 O 203.339 -0.604214 1.86349 0
M  V30 2109 H 201.919 0.60912 0.432414 0
M  V30 2110 H 204.581 1.88969 0.477162 0
M  V30 2111 H 203.677 2.4896 1.88217 0
M  V30 2112 N 203.978 -0.674533 1.42435 0
M  V30 2113 C 204.911 -1.79924 1.40366 0
M  V30 2114 C 205.889 -1.60378 0.267899 0
M  V30 2115 O 207.073 -1.82847 0.458159 0
M  V30 2116 C 204.2 -3.16927 1.19478 0
M  V30 2117 C 203.246 -3.55221 2.36051 0
M  V30 2118 S 204.079 -3.5762 3.98583 0
M  V30 2119 C 205.235 -4.97315 3.80038 0
M  V30 2120 H 205.468 -1.81405 2.35541 0
M  V30 2121 H 203.001 -0.845221 1.29211 0
M  V30 2122 H 204.959 -3.96007 1.08114 0
M  V30 2123 H 203.62 -3.13031 0.258883 0
M  V30 2124 H 202.813 -4.54804 2.17185 0
M  V30 2125 H 202.415 -2.83502 2.43932 0
M  V30 2126 H 204.707 -5.85401 3.41045 0
M  V30 2127 H 205.65 -5.21228 4.79298 0
M  V30 2128 H 206.058 -4.69845 3.12899 0
M  V30 2129 N 205.456 -1.28612 -0.910864 0
M  V30 2130 C 206.704 -1.15705 -1.65701 0
M  V30 2131 C 207.025 0.29416 -1.92769 0
M  V30 2132 O 206.295 1.20331 -1.54588 0
M  V30 2133 H 204.875 -0.425216 -0.614167 0
M  V30 2134 H 207.537 -1.61381 -1.0928 0
M  V30 2135 H 206.633 -1.6988 -2.61815 0
M  V30 2136 N 206.934 1.1197 -1.10907 0
M  V30 2137 C 208.183 1.82947 -0.849302 0
M  V30 2138 C 208.496 1.85275 0.627112 0
M  V30 2139 O 209.702 2.52296 1.00295 0
M  V30 2140 C 208.158 3.28529 -1.46959 0
M  V30 2141 C 207.766 3.34546 -2.97965 0
M  V30 2142 C 209.51 4.04443 -1.28942 0
M  V30 2143 C 207.417 4.74491 -3.53004 0
M  V30 2144 H 206.347 0.685477 -0.314065 0
M  V30 2145 H 208.998 1.2604 -1.33365 0
M  V30 2146 H 207.38 3.85333 -0.912917 0
M  V30 2147 H 208.554 2.87654 -3.59989 0
M  V30 2148 H 206.869 2.72108 -3.15192 0
M  V30 2149 H 209.466 5.07787 -1.67502 0
M  V30 2150 H 209.809 4.15656 -0.231456 0
M  V30 2151 H 210.342 3.5401 -1.81443 0
M  V30 2152 H 207.081 4.68474 -4.58489 0
M  V30 2153 H 206.601 5.21816 -2.9575 0
M  V30 2154 H 208.28 5.4344 -3.51115 0
M  V30 2155 N 208.412 0.89855 1.29475 0
M  V30 2156 C 209.658 0.524658 1.95896 0
M  V30 2157 C 209.991 -0.926468 1.70676 0
M  V30 2158 O 209.266 -1.65665 1.01908 0
M  V30 2159 C 209.549 0.81633 3.50725 0
M  V30 2160 C 209.402 2.31907 3.85408 0
M  V30 2161 C 210.721 0.302038 4.39062 0
M  V30 2162 H 207.84 0.19209 0.711527 0
M  V30 2163 H 210.482 1.12502 1.53112 0
M  V30 2164 H 208.632 0.305369 3.87298 0
M  V30 2165 H 210.304 2.89949 3.58786 0
M  V30 2166 H 208.547 2.78027 3.32992 0
M  V30 2167 H 209.218 2.47373 4.93468 0
M  V30 2168 H 211.694 0.739551 4.09475 0
M  V30 2169 H 210.57 0.535331 5.46283 0
M  V30 2170 H 210.831 -0.797216 4.34853 0
M  V30 2171 N 209.89 -1.43072 0.660911 0
M  V30 2172 C 211.301 -1.84932 0.256348 0
M  V30 2173 C 211.652 -1.55325 -1.19868 0
M  V30 2174 O 210.777 -1.00607 -1.91591 0
M  V30 2175 C 211.372 -3.35684 0.458475 0
M  V30 2176 C 209.931 -3.76245 0.108161 0
M  V30 2177 C 209.078 -2.66749 0.757641 0
M  V30 2178 H 212.029 -1.33116 0.864051 0
M  V30 2179 H 212.05 -3.79365 -0.293683 0
M  V30 2180 H 211.562 -3.572 1.51755 0
M  V30 2181 H 209.663 -3.60338 -0.948014 0
M  V30 2182 H 209.776 -4.76058 0.538992 0
M  V30 2183 H 208.14 -2.53989 0.190185 0
M  V30 2184 H 208.923 -2.91092 1.81989 0
M  V30 2185 N 211.368 -0.403325 -1.52352 0
M  V30 2186 C 212.278 0.432009 -2.30588 0
M  V30 2187 C 213.294 1.05884 -1.38075 0
M  V30 2188 O 214.47 1.06161 -1.71148 0
M  V30 2189 C 211.535 1.53669 -3.10784 0
M  V30 2190 C 210.596 0.933525 -4.19027 0
M  V30 2191 C 209.829 1.98557 -4.9539 0
M  V30 2192 O 210.052 3.20283 -4.71991 0
M  V30 2193 O 208.986 1.59504 -5.80381 0
M  V30 2194 H 212.812 -0.205739 -3.03002 0
M  V30 2195 H 210.397 -0.166675 -1.48467 0
M  V30 2196 H 212.279 2.17814 -3.60742 0
M  V30 2197 H 210.954 2.15915 -2.41169 0
M  V30 2198 H 209.861 0.254954 -3.7323 0
M  V30 2199 H 211.194 0.35508 -4.90918 0
M  V30 2200 N 212.846 1.57033 -0.133567 0
M  V30 2201 C 213.794 2.17348 0.828412 0
M  V30 2202 C 214.788 1.12671 1.26498 0
M  V30 2203 O 215.994 1.30947 1.23502 0
M  V30 2204 H 212.369 0.695775 0.285309 0
M  V30 2205 H 214.34 2.96935 0.295372 0
M  V30 2206 C 213.089 2.79893 2.06289 0
M  V30 2207 H 212.412 3.60147 1.73592 0
M  V30 2208 H 213.852 3.25615 2.71572 0
M  V30 2209 C 212.311 1.77713 2.86216 0
M  V30 2210 O 212.841 1.23937 3.82103 0
M  V30 2211 N 211.047 1.47321 2.50489 0
M  V30 2212 H 210.594 1.91243 1.7258 0
M  V30 2213 H 210.552 0.79199 3.04261 0
M  V30 2214 N 214.325 -0.140222 1.56975 0
M  V30 2215 C 215.741 -0.493088 1.51792 0
M  V30 2216 C 215.941 -1.83013 0.843116 0
M  V30 2217 O 214.997 -2.49041 0.416493 0
M  V30 2218 C 216.31 -0.497144 2.96562 0
M  V30 2219 C 217.858 -0.582186 3.07538 0
M  V30 2220 C 218.333 -0.616838 4.53827 0
M  V30 2221 N 219.824 -0.678873 4.58198 0
M  V30 2222 C 220.559 -0.726782 5.68775 0
M  V30 2223 N 220.055 -0.733623 6.88905 0
M  V30 2224 N 221.848 -0.768179 5.56826 0
M  V30 2225 H 213.999 0.736108 1.99237 0
M  V30 2226 H 216.262 0.269182 0.90898 0
M  V30 2227 H 215.968 0.417217 3.49217 0
M  V30 2228 H 215.842 -1.33263 3.52875 0
M  V30 2229 H 218.229 -1.48697 2.54899 0
M  V30 2230 H 218.31 0.280581 2.54257 0
M  V30 2231 H 217.954 0.283812 5.07106 0
M  V30 2232 H 217.884 -1.49619 5.04898 0
M  V30 2233 H 220.375 -0.68061 3.7172 0
M  V30 2234 H 220.688 -0.772215 7.68932 0
M  V30 2235 H 219.033 -0.701389 6.91452 0
M  V30 2236 H 222.224 -0.760051 4.61888 0
M  V30 2237 H 222.397 -0.80205 6.43017 0
M  V30 2238 N 215.803 -1.52179 -0.40978 0
M  V30 2239 C 216.733 -1.78435 -1.5061 0
M  V30 2240 C 217.714 -0.635295 -1.57791 0
M  V30 2241 O 218.899 -0.880823 -1.73076 0
M  V30 2242 C 216.029 -1.93444 -2.88439 0
M  V30 2243 C 214.983 -3.09038 -2.96108 0
M  V30 2244 C 214.309 -3.09268 -4.36185 0
M  V30 2245 C 215.609 -4.48508 -2.67652 0
M  V30 2246 H 217.303 -2.70237 -1.28889 0
M  V30 2247 H 214.849 -1.30036 -0.618605 0
M  V30 2248 H 216.802 -2.10394 -3.65119 0
M  V30 2249 H 215.526 -0.983129 -3.11452 0
M  V30 2250 H 214.185 -2.91837 -2.21872 0
M  V30 2251 H 213.833 -2.11861 -4.56206 0
M  V30 2252 H 213.533 -3.86907 -4.42241 0
M  V30 2253 H 215.057 -3.28348 -5.14801 0
M  V30 2254 H 216.471 -4.65918 -3.34056 0
M  V30 2255 H 214.868 -5.28059 -2.85085 0
M  V30 2256 H 215.938 -4.56649 -1.63095 0
M  V30 2257 N 217.281 0.66697 -1.42791 0
M  V30 2258 C 218.244 1.76211 -1.46568 0
M  V30 2259 C 219.244 1.56896 -0.352196 0
M  V30 2260 O 220.434 1.63044 -0.613364 0
M  V30 2261 C 217.566 3.14935 -1.30494 0
M  V30 2262 H 218.759 1.74247 -2.44086 0
M  V30 2263 H 216.312 0.877342 -1.29354 0
M  V30 2264 H 217.047 3.2252 -0.339301 0
M  V30 2265 H 216.832 3.30359 -2.11199 0
M  V30 2266 H 218.322 3.94821 -1.36038 0
M  V30 2267 N 218.759 1.29093 0.90403 0
M  V30 2268 C 220.175 1.07011 1.1841 0
M  V30 2269 C 220.375 -0.181358 2.00682 0
M  V30 2270 O 219.431 -0.880331 2.36657 0
M  V30 2271 C 220.744 2.32311 1.90924 0
M  V30 2272 C 222.292 2.37587 2.03768 0
M  V30 2273 C 222.767 3.62679 2.79693 0
M  V30 2274 N 224.258 3.63376 2.87249 0
M  V30 2275 C 224.993 4.56848 3.46522 0
M  V30 2276 N 224.489 5.60648 4.06996 0
M  V30 2277 N 226.282 4.44426 3.44154 0
M  V30 2278 H 218.433 2.09412 0.354993 0
M  V30 2279 H 220.696 0.922181 0.219742 0
M  V30 2280 H 220.402 3.23536 1.37905 0
M  V30 2281 H 220.276 2.39483 2.91424 0
M  V30 2282 H 222.663 1.46853 2.55965 0
M  V30 2283 H 222.744 2.34403 1.02415 0
M  V30 2284 H 222.388 4.53762 2.28173 0
M  V30 2285 H 222.318 3.63119 3.81381 0
M  V30 2286 H 224.809 2.88321 2.44293 0
M  V30 2287 H 225.122 6.28101 4.50232 0
M  V30 2288 H 223.467 5.64463 4.05471 0
M  V30 2289 H 226.658 3.62529 2.96126 0
M  V30 2290 H 226.831 5.17457 3.90054 0
M  V30 2291 N 220.237 -1.11381 1.11499 0
M  V30 2292 C 221.187 -2.15555 0.74298 0
M  V30 2293 C 222.171 -1.58894 -0.253276 0
M  V30 2294 O 223.363 -1.76897 -0.0602918 0
M  V30 2295 C 220.492 -3.42782 0.188481 0
M  V30 2296 C 219.578 -4.064 1.21244 0
M  V30 2297 N 219.969 -4.44864 2.40685 0
M  V30 2298 C 218.267 -4.3333 1.05552 0
M  V30 2299 C 218.968 -4.94715 3.05994 0
M  V30 2300 N 217.944 -4.90909 2.33472 0
M  V30 2301 H 221.746 -2.43074 1.65203 0
M  V30 2302 H 219.26 -1.28401 0.994329 0
M  V30 2303 H 221.257 -4.16789 -0.0961693 0
M  V30 2304 H 219.917 -3.16727 -0.715149 0
M  V30 2305 H 220.928 -4.36876 2.78136 0
M  V30 2306 H 217.605 -4.1698 0.208372 0
M  V30 2307 H 218.995 -5.34103 4.07656 0
M  V30 2308 N 221.715 -0.905404 -1.28997 0
M  V30 2309 C 222.962 -0.534248 -1.95325 0
M  V30 2310 C 223.29 0.920535 -1.71337 0
M  V30 2311 O 222.545 1.66861 -1.02254 0
M  V30 2312 C 222.844 -0.779906 -3.48787 0
M  V30 2313 C 222.51 -2.21293 -3.92861 0
M  V30 2314 C 221.172 -2.60475 -4.04606 0
M  V30 2315 C 223.524 -3.14587 -4.15553 0
M  V30 2316 C 220.852 -3.9212 -4.36416 0
M  V30 2317 C 223.204 -4.45787 -4.48839 0
M  V30 2318 C 221.868 -4.84834 -4.58794 0
M  V30 2319 H 221.138 -0.195495 -0.714747 0
M  V30 2320 H 223.785 -1.14514 -1.53488 0
M  V30 2321 H 222.09 -0.0861365 -3.91705 0
M  V30 2322 H 223.787 -0.472029 -3.98212 0
M  V30 2323 H 220.377 -1.89887 -3.84241 0
M  V30 2324 H 224.561 -2.85528 -4.0594 0
M  V30 2325 H 219.817 -4.22086 -4.42327 0
M  V30 2326 H 223.991 -5.18098 -4.65346 0
M  V30 2327 H 221.618 -5.86877 -4.83197 0
M  V30 2328 N 223.193 1.4272 -0.668489 0
M  V30 2329 C 224.609 1.55992 -0.33745 0
M  V30 2330 C 224.809 1.64933 1.15756 0
M  V30 2331 O 223.865 1.61278 1.94282 0
M  V30 2332 C 225.178 2.81314 -1.06222 0
M  V30 2333 C 226.726 2.95078 -1.04394 0
M  V30 2334 C 227.201 4.23252 -1.74991 0
M  V30 2335 N 228.692 4.3015 -1.71829 0
M  V30 2336 C 229.427 5.28127 -2.23315 0
M  V30 2337 N 228.923 6.32293 -2.83156 0
M  V30 2338 N 230.716 5.19882 -2.13726 0
M  V30 2339 H 222.867 1.3516 -1.63846 0
M  V30 2340 H 225.13 0.650174 -0.689912 0
M  V30 2341 H 224.836 2.80823 -2.11734 0
M  V30 2342 H 224.71 3.72012 -0.62344 0
M  V30 2343 H 227.097 2.951 0.0028244 0
M  V30 2344 H 227.178 2.05627 -1.52155 0
M  V30 2345 H 226.822 4.2399 -2.79633 0
M  V30 2346 H 226.752 5.11626 -1.24685 0
M  V30 2347 H 229.243 3.55499 -1.28175 0
M  V30 2348 H 229.556 7.03398 -3.20079 0
M  V30 2349 H 227.901 6.32873 -2.87223 0
M  V30 2350 H 231.092 4.37423 -1.66669 0
M  V30 2351 H 231.265 5.96077 -2.54158 0
M  V30 2352 N 224.671 0.411399 1.52136 0
M  V30 2353 C 225.948 -0.222308 1.94333 0
M  V30 2354 C 226.328 -1.6242 1.34844 0
M  V30 2355 O 225.676 -2.22384 0.525145 0
M  V30 2356 C 225.886 -0.226345 3.48265 0
M  V30 2357 C 227.234 -0.444592 4.22266 0
M  V30 2358 O 228.258 -0.305602 3.54887 0
M  V30 2359 O 227.117 -0.718749 5.41753 0
M  V30 2360 H 224.211 -0.143907 0.814383 0
M  V30 2361 H 226.757 0.467506 1.63133 0
M  V30 2362 H 225.529 0.75475 3.83952 0
M  V30 2363 H 225.152 -0.960163 3.85832 0
M  V30 2364 N 226.149 -1.5696 0.141893 0
M  V30 2365 C 227.398 -1.95135 -0.510427 0
M  V30 2366 C 227.711 -1.02896 -1.66348 0
M  V30 2367 O 228.917 -1.30629 -2.38009 0
M  V30 2368 C 227.373 -3.46876 -0.959427 0
M  V30 2369 C 226.981 -4.47691 0.166419 0
M  V30 2370 C 228.725 -3.93927 -1.58183 0
M  V30 2371 C 226.632 -5.90636 -0.300565 0
M  V30 2372 H 225.562 -0.728494 -0.194454 0
M  V30 2373 H 228.213 -1.8211 0.22542 0
M  V30 2374 H 226.595 -3.55215 -1.75038 0
M  V30 2375 H 227.769 -4.51043 0.94325 0
M  V30 2376 H 226.084 -4.10527 0.696905 0
M  V30 2377 H 228.681 -4.98158 -1.94275 0
M  V30 2378 H 229.024 -3.3519 -2.46888 0
M  V30 2379 H 229.557 -3.88484 -0.855863 0
M  V30 2380 H 226.296 -6.5318 0.550989 0
M  V30 2381 H 225.816 -5.90655 -1.04338 0
M  V30 2382 H 227.495 -6.42588 -0.754265 0
M  V30 2383 N 227.627 0.131896 -1.57047 0
M  V30 2384 C 228.59 1.14638 -1.98471 0
M  V30 2385 C 229.59 1.35029 -0.873148 0
M  V30 2386 O 230.78 1.31764 -1.13946 0
M  V30 2387 C 227.912 2.50358 -2.31373 0
M  V30 2388 H 229.105 0.79064 -2.8929 0
M  V30 2389 H 226.658 0.375761 -1.51716 0
M  V30 2390 H 227.393 2.90876 -1.43393 0
M  V30 2391 H 227.178 2.36915 -3.12432 0
M  V30 2392 H 228.668 3.23395 -2.64207 0
M  V30 2393 N 229.106 1.52395 0.401703 0
M  V30 2394 C 230.354 1.66488 1.14569 0
M  V30 2395 C 230.675 0.400897 1.90835 0
M  V30 2396 O 229.945 -0.584415 1.8698 0
M  V30 2397 H 228.525 0.613672 0.425929 0
M  V30 2398 H 231.187 1.89464 0.457093 0
M  V30 2399 H 230.283 2.50942 1.85566 0
M  V30 2400 N 230.584 -0.659388 1.43143 0
M  V30 2401 C 232 -0.974337 1.26407 0
M  V30 2402 C 232.2 -2.007 0.179341 0
M  V30 2403 O 231.256 -2.4856 -0.444295 0
M  V30 2404 C 232.569 -1.46447 2.62628 0
M  V30 2405 C 234.117 -1.58144 2.7011 0
M  V30 2406 C 234.592 -2.1055 4.06734 0
M  V30 2407 N 236.083 -2.17861 4.08767 0
M  V30 2408 C 236.818 -2.59519 5.1131 0
M  V30 2409 N 236.314 -3.00518 6.24228 0
M  V30 2410 N 238.107 -2.59404 4.98664 0
M  V30 2411 H 230.258 0.0240528 2.12386 0
M  V30 2412 H 232.521 -0.0518065 0.946583 0
M  V30 2413 H 232.227 -0.780123 3.42939 0
M  V30 2414 H 232.101 -2.44058 2.87603 0
M  V30 2415 H 234.488 -2.25682 1.90136 0
M  V30 2416 H 234.569 -0.589828 2.48907 0
M  V30 2417 H 234.213 -1.43616 4.87172 0
M  V30 2418 H 234.143 -3.10531 4.25298 0
M  V30 2419 H 236.634 -1.88975 3.27257 0
M  V30 2420 H 236.947 -3.31036 6.98309 0
M  V30 2421 H 235.292 -2.98337 6.2771 0
M  V30 2422 H 238.483 -2.26747 4.09516 0
M  V30 2423 H 238.656 -2.91548 5.78709 0
M  V30 2424 N 232.062 -1.29571 -0.897171 0
M  V30 2425 C 233.308 -1.17863 -1.65034 0
M  V30 2426 C 233.641 0.268729 -1.92332 0
M  V30 2427 O 232.916 1.19378 -1.53555 0
M  V30 2428 C 233.199 -1.995 -2.99786 0
M  V30 2429 C 233.052 -3.5239 -2.79538 0
M  V30 2430 C 234.371 -1.82335 -4.00552 0
M  V30 2431 H 231.49 -0.429528 -0.598895 0
M  V30 2432 H 234.132 -1.59072 -1.03905 0
M  V30 2433 H 232.282 -1.64485 -3.51962 0
M  V30 2434 H 233.954 -3.97401 -2.34244 0
M  V30 2435 H 232.197 -3.77187 -2.14273 0
M  V30 2436 H 232.868 -4.04787 -3.75302 0
M  V30 2437 H 235.344 -2.12924 -3.57495 0
M  V30 2438 H 234.22 -2.41801 -4.92771 0
M  V30 2439 H 234.481 -0.779209 -4.35179 0
M  V30 2440 N 233.54 1.10788 -1.12088 0
M  V30 2441 C 234.488 2.19111 -0.780587 0
M  V30 2442 C 235.482 1.67818 0.230961 0
M  V30 2443 O 236.688 1.79777 0.0895427 0
M  V30 2444 H 233.063 0.714477 -0.234578 0
M  V30 2445 H 235.034 2.45055 -1.70266 0
M  V30 2446 C 233.783 3.46818 -0.24747 0
M  V30 2447 H 233.106 3.86646 -1.01712 0
M  V30 2448 H 234.546 4.23973 -0.0476291 0
M  V30 2449 C 233.005 3.20968 1.02378 0
M  V30 2450 O 233.535 3.42298 2.10226 0
M  V30 2451 N 231.741 2.74658 0.949271 0
M  V30 2452 H 231.288 2.57501 0.0715173 0
M  V30 2453 H 231.246 2.57739 1.80049 0
M  V30 2454 N 235.018 0.912232 1.28515 0
M  V30 2455 C 235.95 0.35676 2.26406 0
M  V30 2456 C 236.963 -0.503933 1.54804 0
M  V30 2457 O 238.152 -0.319059 1.75625 0
M  V30 2458 C 235.252 -0.508825 3.35058 0
M  V30 2459 C 234.425 0.329007 4.36161 0
M  V30 2460 C 233.484 -0.471422 5.24084 0
M  V30 2461 O 232.51 0.115482 5.69083 0
M  V30 2462 N 233.712 -1.77479 5.52704 0
M  V30 2463 H 236.477 1.19818 2.74707 0
M  V30 2464 H 234.038 0.778022 1.4198 0
M  V30 2465 H 236.03 -1.051 3.90815 0
M  V30 2466 H 234.6 -1.25095 2.86478 0
M  V30 2467 H 233.82 1.05256 3.79888 0
M  V30 2468 H 235.108 0.90234 5.00735 0
M  V30 2469 H 234.506 -2.27417 5.17975 0
M  V30 2470 H 233.063 -2.26382 6.11224 0
M  V30 2471 N 236.496 -1.42363 0.676048 0
M  V30 2472 C 237.912 -1.55811 0.345718 0
M  V30 2473 C 238.112 -1.65544 -1.14879 0
M  V30 2474 O 237.168 -1.62306 -1.93424 0
M  V30 2475 C 238.481 -2.80746 1.07713 0
M  V30 2476 C 240.029 -2.9452 1.05958 0
M  V30 2477 C 240.504 -4.22318 1.77233 0
M  V30 2478 N 241.995 -4.29233 1.74108 0
M  V30 2479 C 242.73 -5.26935 2.26113 0
M  V30 2480 N 242.226 -6.30783 2.86505 0
M  V30 2481 N 244.019 -5.18741 2.1648 0
M  V30 2482 H 236.17 -1.34289 1.6456 0
M  V30 2483 H 238.433 -0.646506 0.69335 0
M  V30 2484 H 238.139 -2.79696 2.13221 0
M  V30 2485 H 238.013 -3.71676 0.64316 0
M  V30 2486 H 240.4 -2.95097 0.0128255 0
M  V30 2487 H 240.481 -2.04817 1.53244 0
M  V30 2488 H 240.125 -4.22502 2.81877 0
M  V30 2489 H 240.055 -5.10958 1.27396 0
M  V30 2490 H 242.546 -3.54814 1.30059 0
M  V30 2491 H 242.859 -7.01691 3.23805 0
M  V30 2492 H 241.204 -6.31341 2.90575 0
M  V30 2493 H 244.395 -4.36533 1.68987 0
M  V30 2494 H 244.568 -5.94721 2.57316 0
M  V30 2495 N 237.974 -0.419461 -1.51915 0
M  V30 2496 C 238.904 0.391813 -2.30189 0
M  V30 2497 C 239.885 1.03699 -1.34836 0
M  V30 2498 O 241.07 1.04403 -1.63748 0
M  V30 2499 C 238.2 1.50312 -3.13087 0
M  V30 2500 C 237.154 0.9824 -4.16573 0
M  V30 2501 C 236.48 2.18809 -4.8788 0
M  V30 2502 C 237.78 0.0292356 -5.22292 0
M  V30 2503 H 239.474 -0.26135 -2.98257 0
M  V30 2504 H 237.02 -0.127134 -1.43438 0
M  V30 2505 H 238.973 2.07773 -3.66617 0
M  V30 2506 H 237.697 2.18431 -2.42807 0
M  V30 2507 H 236.356 0.430119 -3.64068 0
M  V30 2508 H 236.004 2.85507 -4.14119 0
M  V30 2509 H 235.704 1.84615 -5.57845 0
M  V30 2510 H 237.228 2.76858 -5.44226 0
M  V30 2511 H 238.642 0.512976 -5.71 0
M  V30 2512 H 237.039 -0.2244 -5.9968 0
M  V30 2513 H 238.109 -0.912931 -4.76228 0
M  V30 2514 N 239.452 1.56882 -0.150215 0
M  V30 2515 C 240.415 2.1573 0.774157 0
M  V30 2516 C 241.415 1.0999 1.17298 0
M  V30 2517 O 242.605 1.35613 1.09338 0
M  V30 2518 C 239.737 2.72302 2.05096 0
M  V30 2519 H 240.93 2.98752 0.262201 0
M  V30 2520 H 238.483 1.55985 0.099248 0
M  V30 2521 H 239.218 1.92956 2.6065 0
M  V30 2522 H 239.003 3.49665 1.77416 0
M  V30 2523 H 240.493 3.17632 2.71109 0
M  V30 2524 N 240.93 -0.123565 1.57115 0
M  V30 2525 C 241.893 -1.13583 1.99076 0
M  V30 2526 C 242.893 -1.34564 0.880296 0
M  V30 2527 O 244.083 -1.31158 1.14644 0
M  V30 2528 C 241.215 -2.49128 2.32698 0
M  V30 2529 H 242.408 -0.775287 2.89706 0
M  V30 2530 H 239.961 -0.36771 1.51913 0
M  V30 2531 H 240.696 -2.90111 1.44934 0
M  V30 2532 H 240.481 -2.35255 3.13684 0
M  V30 2533 H 241.971 -3.2199 2.65918 0
M  V30 2534 N 242.408 -1.52605 -0.393616 0
M  V30 2535 C 243.371 -1.76415 -1.46323 0
M  V30 2536 C 244.371 -0.634126 -1.47768 0
M  V30 2537 O 245.561 -0.902142 -1.4902 0
M  V30 2538 C 242.693 -1.8607 -2.85641 0
M  V30 2539 H 243.886 -2.71916 -1.26498 0
M  V30 2540 H 241.439 -1.43257 -0.625073 0
M  V30 2541 H 242.174 -0.925378 -3.10817 0
M  V30 2542 H 241.959 -2.68235 -2.85993 0
M  V30 2543 H 243.449 -2.06179 -3.63153 0
M  V30 2544 N 243.887 0.651787 -1.4349 0
M  V30 2545 C 244.85 1.74647 -1.48429 0
M  V30 2546 C 245.85 1.56513 -0.368817 0
M  V30 2547 O 247.04 1.62385 -0.630623 0
M  V30 2548 C 244.172 3.13533 -1.33827 0
M  V30 2549 H 245.365 1.71649 -2.4592 0
M  V30 2550 H 242.918 0.863573 -1.30277 0
M  V30 2551 H 243.653 3.22142 -0.37349 0
M  V30 2552 H 243.438 3.28101 -2.14691 0
M  V30 2553 H 244.928 3.93356 -1.40218 0
M  V30 2554 N 245.365 1.30045 0.890287 0
M  V30 2555 C 246.642 1.09227 1.62262 0
M  V30 2556 C 247.022 -0.360305 2.08002 0
M  V30 2557 O 246.37 -1.35084 1.84295 0
M  V30 2558 C 246.58 2.08835 2.79623 0
M  V30 2559 C 247.928 2.40266 3.50082 0
M  V30 2560 O 248.952 2.07104 2.89804 0
M  V30 2561 O 247.811 2.96967 4.58773 0
M  V30 2562 H 244.905 0.419132 0.712922 0
M  V30 2563 H 247.451 1.41451 0.937529 0
M  V30 2564 H 246.223 3.06633 2.43089 0
M  V30 2565 H 245.846 1.77397 3.55832 0
M  V30 2566 N 246.843 -1.10192 1.12674 0
M  V30 2567 C 247.753 -2.20172 0.810026 0
M  V30 2568 C 248.769 -1.72821 -0.202188 0
M  V30 2569 O 249.945 -2.01369 -0.0351691 0
M  V30 2570 C 247.01 -3.45631 0.272007 0
M  V30 2571 C 246.071 -4.07704 1.34447 0
M  V30 2572 C 245.304 -5.27175 0.832029 0
M  V30 2573 O 245.527 -5.69425 -0.333284 0
M  V30 2574 O 244.461 -5.80168 1.60277 0
M  V30 2575 H 248.287 -2.49701 1.72867 0
M  V30 2576 H 245.872 -1.18977 0.903597 0
M  V30 2577 H 247.754 -4.21394 -0.0230219 0
M  V30 2578 H 246.429 -3.17723 -0.619164 0
M  V30 2579 H 245.336 -3.33614 1.6927 0
M  V30 2580 H 246.669 -4.3982 2.2095 0
M  V30 2581 N 248.321 -0.919034 -1.28029 0
M  V30 2582 C 249.567 -0.555757 -1.95036 0
M  V30 2583 C 249.9 0.899198 -1.72128 0
M  V30 2584 O 249.175 1.64023 -1.04531 0
M  V30 2585 C 249.458 -0.872024 -3.49382 0
M  V30 2586 C 249.311 -2.3801 -3.81669 0
M  V30 2587 C 250.63 -0.37185 -4.38526 0
M  V30 2588 H 247.749 -0.203386 -0.708381 0
M  V30 2589 H 250.391 -1.14924 -1.51303 0
M  V30 2590 H 248.541 -0.366946 -3.86763 0
M  V30 2591 H 250.213 -2.9562 -3.54128 0
M  V30 2592 H 248.456 -2.83289 -3.28526 0
M  V30 2593 H 249.127 -2.55192 -4.8947 0
M  V30 2594 H 251.603 -0.804602 -4.08247 0
M  V30 2595 H 250.479 -0.622173 -5.45362 0
M  V30 2596 H 250.74 0.727934 -4.36066 0
M  V30 2597 N 249.799 1.42003 -0.683588 0
M  V30 2598 C 251.045 2.02223 -0.218536 0
M  V30 2599 C 251.4 1.53126 1.16492 0
M  V30 2600 O 250.693 0.727459 1.77253 0
M  V30 2601 C 250.887 3.56827 -0.202357 0
M  V30 2602 C 250.716 4.20928 -1.5827 0
M  V30 2603 C 249.486 4.5573 -2.18262 0
M  V30 2604 C 251.684 4.47933 -2.52706 0
M  V30 2605 N 249.666 5.05056 -3.48986 0
M  V30 2606 C 251.037 4.98906 -3.68094 0
M  V30 2607 C 253.092 4.29931 -2.51125 0
M  V30 2608 C 251.795 5.33768 -4.82166 0
M  V30 2609 C 253.821 4.65875 -3.643 0
M  V30 2610 C 253.183 5.17008 -4.78417 0
M  V30 2611 H 249.282 0.771931 -0.125088 0
M  V30 2612 H 251.866 1.72729 -0.898479 0
M  V30 2613 H 250.037 3.85819 0.447029 0
M  V30 2614 H 251.769 4.03755 0.276399 0
M  V30 2615 H 248.524 4.41781 -1.70665 0
M  V30 2616 H 248.948 5.34139 -4.15962 0
M  V30 2617 H 253.59 3.89647 -1.6412 0
M  V30 2618 H 251.308 5.72981 -5.6984 0
M  V30 2619 H 254.894 4.53615 -3.64314 0
M  V30 2620 H 253.774 5.44301 -5.64541 0
M  V30 2621 N 251.277 0.427512 1.51691 0
M  V30 2622 C 252.207 -0.3796 2.30394 0
M  V30 2623 C 253.188 -1.02982 1.35384 0
M  V30 2624 O 254.373 -1.03534 1.643 0
M  V30 2625 C 251.503 -1.48649 3.1388 0
M  V30 2626 C 250.457 -0.960294 4.17088 0
M  V30 2627 C 249.783 -2.16219 4.89033 0
M  V30 2628 C 251.083 -0.00153679 5.223 0
M  V30 2629 H 252.777 0.277164 2.98114 0
M  V30 2630 H 250.323 0.134739 1.43368 0
M  V30 2631 H 252.276 -2.05826 3.67714 0
M  V30 2632 H 251 -2.1714 2.43962 0
M  V30 2633 H 249.659 -0.410806 3.64291 0
M  V30 2634 H 249.307 -2.83307 4.15628 0
M  V30 2635 H 249.007 -1.81654 5.58816 0
M  V30 2636 H 250.531 -2.73968 5.45687 0
M  V30 2637 H 251.945 -0.482687 5.71264 0
M  V30 2638 H 250.342 0.256199 5.99553 0
M  V30 2639 H 251.412 0.938174 4.75738 0
M  V30 2640 N 252.755 -1.56801 0.158532 0
M  V30 2641 C 254.001 -1.96781 -0.490405 0
M  V30 2642 C 254.334 -1.04397 -1.63753 0
M  V30 2643 O 253.609 -0.0885805 -1.94298 0
M  V30 2644 C 253.892 -3.4635 -0.985594 0
M  V30 2645 C 253.745 -4.49512 0.160824 0
M  V30 2646 C 255.064 -3.98697 -1.86355 0
M  V30 2647 H 252.183 -0.715482 -0.176788 0
M  V30 2648 H 254.825 -1.88451 0.242088 0
M  V30 2649 H 252.975 -3.53579 -1.60978 0
M  V30 2650 H 254.647 -4.54353 0.797537 0
M  V30 2651 H 252.89 -4.26013 0.818256 0
M  V30 2652 H 253.561 -5.51531 -0.227569 0
M  V30 2653 H 256.037 -3.94019 -1.33746 0
M  V30 2654 H 254.913 -5.03792 -2.17909 0
M  V30 2655 H 255.174 -3.41744 -2.8047 0
M  V30 2656 N 254.233 0.115231 -1.57178 0
M  V30 2657 C 255.479 0.82357 -1.85325 0
M  V30 2658 C 255.812 1.79349 -0.744814 0
M  V30 2659 O 255.087 1.92899 0.249024 0
M  V30 2660 C 255.37 1.57014 -3.24066 0
M  V30 2661 C 255.223 0.619565 -4.45513 0
M  V30 2662 C 256.542 2.52545 -3.60429 0
M  V30 2663 H 253.661 0.297948 -0.674089 0
M  V30 2664 H 256.303 0.0877138 -1.89797 0
M  V30 2665 H 254.453 2.19742 -3.20383 0
M  V30 2666 H 256.125 0.000837639 -4.613 0
M  V30 2667 H 254.368 -0.0686174 -4.33746 0
M  V30 2668 H 255.039 1.17866 -5.3927 0
M  V30 2669 H 257.515 1.9992 -3.64926 0
M  V30 2670 H 256.391 3.01811 -4.58477 0
M  V30 2671 H 256.652 3.35383 -2.88047 0
M  V30 2672 N 255.711 1.52812 0.385517 0
M  V30 2673 C 256.936 1.72207 1.15583 0
M  V30 2674 C 257.361 0.441034 1.82857 0
M  V30 2675 O 256.719 -0.603465 1.70962 0
M  V30 2676 C 256.767 2.87476 2.17692 0
M  V30 2677 O 255.871 2.54693 3.24354 0
M  V30 2678 H 255.212 0.572526 0.336319 0
M  V30 2679 H 257.742 1.99618 0.448744 0
M  V30 2680 H 257.752 3.13072 2.6163 0
M  V30 2681 H 256.427 3.80408 1.68115 0
M  V30 2682 H 255.004 2.3985 2.85529 0
M  V30 2683 N 257.189 -0.644168 1.43834 0
M  V30 2684 C 258.437 -1.40117 1.45642 0
M  V30 2685 C 258.758 -1.94814 0.0852413 0
M  V30 2686 O 258.028 -1.74988 -0.880688 0
M  V30 2687 H 256.608 -0.52005 0.536243 0
M  V30 2688 H 259.27 -0.7591 1.7951 0
M  V30 2689 H 258.366 -2.23902 2.17427 0
M  V30 2690 N 258.668 -1.30515 -0.883378 0
M  V30 2691 C 259.917 -1.18795 -1.63005 0
M  V30 2692 C 260.23 0.255923 -1.93919 0
M  V30 2693 O 261.436 0.494654 -2.66956 0
M  V30 2694 C 259.892 -2.07878 -2.93794 0
M  V30 2695 C 259.5 -3.57184 -2.70414 0
M  V30 2696 C 261.244 -2.04924 -3.71761 0
M  V30 2697 C 259.151 -4.38317 -3.97029 0
M  V30 2698 H 258.081 -0.441031 -0.611562 0
M  V30 2699 H 260.732 -1.55275 -0.977854 0
M  V30 2700 H 259.114 -1.64283 -3.60315 0
M  V30 2701 H 260.288 -4.08937 -2.12384 0
M  V30 2702 H 258.603 -3.61976 -2.0582 0
M  V30 2703 H 261.2 -2.62792 -4.65665 0
M  V30 2704 H 261.543 -1.0331 -4.03277 0
M  V30 2705 H 262.076 -2.46649 -3.12104 0
M  V30 2706 H 258.815 -5.40632 -3.70671 0
M  V30 2707 H 258.335 -3.91326 -4.54559 0
M  V30 2708 H 260.014 -4.49834 -4.65036 0
M  V30 2709 N 260.146 1.09593 -1.13257 0
M  V30 2710 C 261.394 1.81375 -0.891492 0
M  V30 2711 C 261.715 1.86049 0.584009 0
M  V30 2712 O 260.985 1.34481 1.42449 0
M  V30 2713 H 259.565 0.671708 -0.326828 0
M  V30 2714 H 262.227 1.3256 -1.42877 0
M  V30 2715 H 261.323 2.84612 -1.28071 0
M  V30 2716 N 261.624 0.925811 1.2754 0
M  V30 2717 C 262.87 0.566092 1.94739 0
M  V30 2718 C 263.203 -0.890057 1.72603 0
M  V30 2719 O 262.478 -1.63467 1.05399 0
M  V30 2720 C 262.761 0.89054 3.48915 0
M  V30 2721 C 262.614 2.4003 3.80402 0
M  V30 2722 C 263.933 0.395101 4.38323 0
M  V30 2723 H 261.052 0.20714 0.707292 0
M  V30 2724 H 263.694 1.15725 1.50691 0
M  V30 2725 H 261.844 0.387452 3.86563 0
M  V30 2726 H 263.516 2.97494 3.52555 0
M  V30 2727 H 261.759 2.85028 3.2702 0
M  V30 2728 H 262.43 2.57785 4.8811 0
M  V30 2729 H 264.906 0.826241 4.07814 0
M  V30 2730 H 263.782 0.651086 5.45025 0
M  V30 2731 H 264.043 -0.704798 4.36446 0
M  V30 2732 N 263.102 -1.41638 0.69111 0
M  V30 2733 C 264.049 -2.30789 0.0229705 0
M  V30 2734 C 265.019 -1.46863 -0.775911 0
M  V30 2735 O 266.204 -1.75661 -0.74485 0
M  V30 2736 C 263.344 -3.32868 -0.910666 0
M  V30 2737 C 262.457 -4.31875 -0.103874 0
M  V30 2738 C 261.592 -5.21024 -1.03475 0
M  V30 2739 C 260.631 -6.11702 -0.220598 0
M  V30 2740 N 259.768 -6.93349 -1.10504 0
M  V30 2741 H 264.608 -2.87366 0.788978 0
M  V30 2742 H 262.145 -1.41535 0.400794 0
M  V30 2743 H 264.103 -3.90596 -1.46597 0
M  V30 2744 H 262.733 -2.77851 -1.64312 0
M  V30 2745 H 261.785 -3.76131 0.568285 0
M  V30 2746 H 263.097 -4.96003 0.527504 0
M  V30 2747 H 262.251 -5.83565 -1.65943 0
M  V30 2748 H 260.99 -4.57112 -1.69999 0
M  V30 2749 H 259.995 -5.48215 0.417187 0
M  V30 2750 H 261.22 -6.77668 0.440784 0
M  V30 2751 H 259.166 -6.3205 -1.75638 0
M  V30 2752 H 259.083 -7.54146 -0.529125 0
M  V30 2753 H 260.351 -7.60362 -1.71667 0
M  V30 2754 N 264.58 -0.43555 -1.51462 0
M  V30 2755 C 265.829 0.133007 -2.01261 0
M  V30 2756 C 266.142 1.43942 -1.32439 0
M  V30 2757 O 267.348 2.09081 -1.73198 0
M  V30 2758 C 265.804 0.287581 -3.58749 0
M  V30 2759 C 265.412 -1.00829 -4.36506 0
M  V30 2760 C 267.156 0.810004 -4.167 0
M  V30 2761 C 265.063 -0.819454 -5.85695 0
M  V30 2762 H 263.993 0.0534822 -0.752101 0
M  V30 2763 H 266.644 -0.565038 -1.74584 0
M  V30 2764 H 265.026 1.04859 -3.81865 0
M  V30 2765 H 266.2 -1.77749 -4.25138 0
M  V30 2766 H 264.515 -1.45911 -3.89999 0
M  V30 2767 H 267.112 0.967743 -5.2587 0
M  V30 2768 H 267.455 1.79196 -3.75758 0
M  V30 2769 H 267.988 0.107357 -3.97655 0
M  V30 2770 H 264.727 -1.77374 -6.31046 0
M  V30 2771 H 264.247 -0.0900208 -5.99732 0
M  V30 2772 H 265.926 -0.471949 -6.45276 0
M  V30 2773 N 266.058 1.56714 -0.166846 0
M  V30 2774 C 267.005 2.17746 0.765193 0
M  V30 2775 C 267.975 1.11614 1.23011 0
M  V30 2776 O 269.16 1.39745 1.29908 0
M  V30 2777 C 266.3 2.81882 1.9909 0
M  V30 2778 C 265.413 4.02462 1.56997 0
M  V30 2779 C 264.548 4.54537 2.749 0
M  V30 2780 C 263.587 5.67538 2.29275 0
M  V30 2781 N 262.724 6.14142 3.40255 0
M  V30 2782 H 267.564 2.97048 0.237952 0
M  V30 2783 H 265.101 1.4672 0.105725 0
M  V30 2784 H 267.059 3.17221 2.70974 0
M  V30 2785 H 265.689 2.05191 2.49192 0
M  V30 2786 H 264.741 3.72973 0.748037 0
M  V30 2787 H 266.053 4.84273 1.19503 0
M  V30 2788 H 265.207 4.92035 3.54946 0
M  V30 2789 H 263.946 3.71774 3.1565 0
M  V30 2790 H 262.951 5.29597 1.47674 0
M  V30 2791 H 264.176 6.52099 1.89588 0
M  V30 2792 H 262.122 5.3431 3.8059 0
M  V30 2793 H 262.039 6.9093 3.06841 0
M  V30 2794 H 263.307 6.56289 4.206 0
M  V30 2795 O 267.575 0.0288451 1.61474 0
M  V30 2796 H 268.266 -0.583771 1.84694 0
M  V30 END ATOM
M  V30 BEGIN BOND
M  V30 END BOND
M  V30 END CTAB
M  END
$$$$
