drugbank_target|Q8Y7N7 Glutamate racemase (DB02343)
 OpenBabel12092120403D

  0  0  0     0  0            999 V3000
M  V30 BEGIN CTAB
M  V30 COUNTS 4145 4180 0 0 0
M  V30 BEGIN ATOM
M  V30 1 H -0.908 1.98254 -0.117106 0
M  V30 2 N 0 1.576 0 0
M  V30 3 C 0.933 2.03868 1.02534 0
M  V30 4 C 1.911 0.928543 1.3348 0
M  V30 5 O 3.095 1.19667 1.45644 0
M  V30 6 C 0.222 2.43627 2.35294 0
M  V30 7 C -0.732 3.65373 2.2001 0
M  V30 8 S 0.101 5.13292 1.52614 0
M  V30 9 C 1.257 5.56322 2.86805 0
M  V30 10 H 1.49 2.90518 0.631377 0
M  V30 11 H -0.977 1.52953 0.210867 0
M  V30 12 H 0.981 2.67203 3.11629 0
M  V30 13 H -0.358 1.57376 2.7183 0
M  V30 14 H -1.165 3.90944 3.18086 0
M  V30 15 H -1.563 3.418 1.51819 0
M  V30 16 H 0.729 5.58782 3.83104 0
M  V30 17 H 1.672 6.56266 2.65933 0
M  V30 18 H 2.08 4.83886 2.90714 0
M  V30 19 N 1.4781 -0.272755 1.55222 0
M  V30 20 C 2.4251 -1.33716 1.88119 0
M  V30 21 C 3.3951 -1.49066 0.73271 0
M  V30 22 O 4.5801 -1.63469 0.984002 0
M  V30 23 C 1.7201 -2.69238 2.15882 0
M  V30 24 C 0.8331 -2.62108 3.43399 0
M  V30 25 C -0.0319 -3.89811 3.60861 0
M  V30 26 C -0.9929 -3.77193 4.8207 0
M  V30 27 N -1.8559 -4.9673 4.96189 0
M  V30 28 H 2.9841 -1.04962 2.78903 0
M  V30 29 H 0.5211 -0.507088 1.38083 0
M  V30 30 H 2.4791 -3.48089 2.29978 0
M  V30 31 H 1.1091 -2.96194 1.28331 0
M  V30 32 H 0.1611 -1.74967 3.37773 0
M  V30 33 H 1.4731 -2.48685 4.32386 0
M  V30 34 H 0.6271 -4.77103 3.74777 0
M  V30 35 H -0.6339 -4.06102 2.7006 0
M  V30 36 H -1.6289 -2.88284 4.68159 0
M  V30 37 H -0.4039 -3.62421 5.74307 0
M  V30 38 H -2.4579 -5.13431 4.08319 0
M  V30 39 H -2.5409 -4.85839 5.79221 0
M  V30 40 H -1.2729 -5.85594 5.1449 0
M  V30 41 N 2.9562 -1.48159 -0.537278 0
M  V30 42 C 3.8882 -1.58218 -1.65831 0
M  V30 43 C 4.9012 -0.466948 -1.5596 0
M  V30 44 O 6.0902 -0.73747 -1.62553 0
M  V30 45 C 3.1902 -1.48906 -3.04434 0
M  V30 46 C 2.3632 -2.75343 -3.3986 0
M  V30 47 C 1.4222 -2.59588 -4.57712 0
M  V30 48 O 0.4482 -3.33457 -4.61297 0
M  V30 49 N 1.6502 -1.68724 -5.55439 0
M  V30 50 H 4.4152 -2.54891 -1.57641 0
M  V30 51 H 1.9762 -1.4479 -0.724386 0
M  V30 52 H 3.9682 -1.36072 -3.81139 0
M  V30 53 H 2.5382 -0.602368 -3.06741 0
M  V30 54 H 1.7582 -3.02795 -2.52406 0
M  V30 55 H 3.0462 -3.5924 -3.60311 0
M  V30 56 H 2.4442 -1.07898 -5.55315 0
M  V30 57 H 1.0012 -1.61832 -6.3139 0
M  V30 58 N 4.4343 0.785586 -1.36625 0
M  V30 59 C 5.3973 1.87999 -1.31107 0
M  V30 60 C 6.3973 1.59316 -0.217959 0
M  V30 61 O 7.5873 1.67656 -0.472977 0
M  V30 62 C 4.7193 3.24861 -1.03334 0
M  V30 63 H 5.9123 1.94307 -2.2844 0
M  V30 64 H 3.4653 0.983813 -1.21453 0
M  V30 65 H 4.2003 3.24235 -0.0647432 0
M  V30 66 H 3.9853 3.4707 -1.82441 0
M  V30 67 H 5.4753 4.04929 -1.02088 0
M  V30 68 N 5.9124 1.20967 1.01018 0
M  V30 69 C 7.1614 1.01796 1.74128 0
M  V30 70 C 7.4744 -0.449691 1.90361 0
M  V30 71 O 8.6804 -0.76068 2.60626 0
M  V30 72 C 7.1364 1.7727 3.13215 0
M  V30 73 C 6.7444 3.28171 3.04972 0
M  V30 74 C 8.4884 1.66489 3.90489 0
M  V30 75 C 6.3954 3.96156 4.39107 0
M  V30 76 H 5.3254 0.377276 0.652824 0
M  V30 77 H 7.9764 1.44651 1.12909 0
M  V30 78 H 6.3584 1.27205 3.75013 0
M  V30 79 H 7.5324 3.85499 2.52443 0
M  V30 80 H 5.8474 3.39437 2.41188 0
M  V30 81 H 8.4444 2.14617 4.89738 0
M  V30 82 H 8.7874 0.6222 4.11624 0
M  V30 83 H 9.3204 2.14003 3.35332 0
M  V30 84 H 6.0594 5.00604 4.23174 0
M  V30 85 H 5.5794 3.43617 4.91617 0
M  V30 86 H 7.2584 4.00774 5.07926 0
M  V30 87 N 7.3905 -1.2043 1.01659 0
M  V30 88 C 8.6385 -1.89423 0.704522 0
M  V30 89 C 8.9595 -1.79231 -0.768197 0
M  V30 90 O 8.2295 -1.1947 -1.55254 0
M  V30 91 H 6.8095 -0.701178 0.257602 0
M  V30 92 H 9.4715 -1.4626 1.28818 0
M  V30 93 H 8.5675 -2.96052 0.987916 0
M  V30 94 N 8.8686 -0.792821 -1.36206 0
M  V30 95 C 10.1156 -0.366786 -1.99151 0
M  V30 96 C 10.4436 1.06243 -1.62919 0
M  V30 97 O 9.6986 1.74927 -0.877442 0
M  V30 98 C 9.9976 -0.481501 -3.54142 0
M  V30 99 C 9.6636 -1.87202 -4.10203 0
M  V30 100 C 8.3256 -2.25248 -4.25226 0
M  V30 101 C 10.6776 -2.78237 -4.40719 0
M  V30 102 C 8.0056 -3.53723 -4.68078 0
M  V30 103 C 10.3576 -4.06144 -4.85005 0
M  V30 104 C 9.0216 -4.44207 -4.98234 0
M  V30 105 H 8.2916 -0.134217 -0.728743 0
M  V30 106 H 10.9386 -1.01094 -1.62641 0
M  V30 107 H 9.2436 0.246146 -3.91026 0
M  V30 108 H 10.9406 -0.132844 -4.0078 0
M  V30 109 H 7.5306 -1.56639 -3.98951 0
M  V30 110 H 11.7146 -2.50097 -4.28679 0
M  V30 111 H 6.9706 -3.8308 -4.76508 0
M  V30 112 H 11.1446 -4.76796 -5.07581 0
M  V30 113 H 8.7716 -5.43814 -5.31197 0
M  V30 114 N 10.3467 1.47872 -0.545128 0
M  V30 115 C 11.5957 2.01695 -0.0145033 0
M  V30 116 C 11.9087 1.42609 1.33873 0
M  V30 117 O 13.1147 1.88021 1.95858 0
M  V30 118 C 11.5707 3.59892 0.0245068 0
M  V30 119 C 11.1787 4.27966 -1.32475 0
M  V30 120 C 12.9227 4.21507 0.50316 0
M  V30 121 C 10.8297 5.78136 -1.2455 0
M  V30 122 H 9.7597 0.753998 -0.00165172 0
M  V30 123 H 12.4107 1.69985 -0.691175 0
M  V30 124 H 10.7927 3.88509 0.766575 0
M  V30 125 H 11.9667 4.11003 -2.08357 0
M  V30 126 H 10.2817 3.78286 -1.74036 0
M  V30 127 H 12.8787 5.31538 0.580656 0
M  V30 128 H 13.2217 3.87855 1.51243 0
M  V30 129 H 13.7547 3.97376 -0.183681 0
M  V30 130 H 10.4937 6.16388 -2.23039 0
M  V30 131 H 10.0137 5.97469 -0.528282 0
M  V30 132 H 11.6927 6.40099 -0.942488 0
M  V30 133 N 11.8248 0.280983 1.55075 0
M  V30 134 C 13.1018 -0.386207 1.91749 0
M  V30 135 C 13.4818 -1.73264 1.20594 0
M  V30 136 O 12.8298 -2.26034 0.334784 0
M  V30 137 C 13.0398 -0.520687 3.45094 0
M  V30 138 C 14.3878 -0.800865 4.16979 0
M  V30 139 O 15.4118 -0.605271 3.5102 0
M  V30 140 O 14.2708 -1.1753 5.33712 0
M  V30 141 H 11.3648 -0.212408 0.799257 0
M  V30 142 H 13.9108 0.327568 1.66509 0
M  V30 143 H 12.6828 0.426633 3.88967 0
M  V30 144 H 12.3058 -1.2837 3.76307 0
M  V30 145 N 13.3029 -1.57598 0.00835791 0
M  V30 146 C 14.5279 -1.95617 -0.689103 0
M  V30 147 C 14.9529 -0.883753 -1.66046 0
M  V30 148 O 14.3109 0.157352 -1.80616 0
M  V30 149 C 14.3589 -3.32736 -1.38994 0
M  V30 150 O 13.4629 -3.27631 -2.50463 0
M  V30 151 H 12.8039 -0.638379 -0.182668 0
M  V30 152 H 15.3339 -2.045 0.064036 0
M  V30 153 H 15.3439 -3.68494 -1.75147 0
M  V30 154 H 14.0189 -4.1034 -0.677778 0
M  V30 155 H 12.5959 -3.03561 -2.16576 0
M  V30 156 N 14.781 0.264519 -1.55364 0
M  V30 157 C 16.029 0.993021 -1.76021 0
M  V30 158 C 16.35 1.86511 -0.569099 0
M  V30 159 O 15.62 1.91438 0.415735 0
M  V30 160 H 14.2 0.369639 -0.649135 0
M  V30 161 H 16.862 0.286707 -1.9278 0
M  V30 162 H 15.958 1.62502 -2.66457 0
M  V30 163 N 16.2591 1.48442 0.529413 0
M  V30 164 C 17.5051 1.5672 1.28711 0
M  V30 165 C 17.8381 0.2406 1.92704 0
M  V30 166 O 17.1131 -0.753454 1.79313 0
M  V30 167 C 17.3961 2.70587 2.37603 0
M  V30 168 C 17.2491 4.12953 1.78297 0
M  V30 169 C 18.5681 2.80212 3.39366 0
M  V30 170 H 15.6871 0.570474 0.466613 0
M  V30 171 H 18.3291 1.80617 0.589706 0
M  V30 172 H 16.4791 2.50342 2.97088 0
M  V30 173 H 18.1511 4.44639 1.22858 0
M  V30 174 H 16.3941 4.19927 1.0883 0
M  V30 175 H 17.0651 4.88448 2.57144 0
M  V30 176 H 19.5411 2.98553 2.89836 0
M  V30 177 H 18.4171 3.61611 4.12951 0
M  V30 178 H 18.6781 1.88393 3.99951 0
M  V30 179 N 17.7372 -0.778329 1.37039 0
M  V30 180 C 18.9852 -1.53361 1.31623 0
M  V30 181 C 19.3062 -1.94739 -0.100831 0
M  V30 182 O 18.5762 -1.65797 -1.04347 0
M  V30 183 H 17.1562 -0.568794 0.484234 0
M  V30 184 H 19.8182 -0.926742 1.71457 0
M  V30 185 H 18.9142 -2.43606 1.95096 0
M  V30 186 N 19.2153 -1.21501 -1.00376 0
M  V30 187 C 20.4633 -1.03095 -1.73827 0
M  V30 188 C 20.7843 0.436341 -1.90055 0
M  V30 189 O 20.0543 1.31466 -1.45236 0
M  V30 190 H 18.6343 -0.378487 -0.644016 0
M  V30 191 H 21.2963 -1.52831 -1.20949 0
M  V30 192 H 20.3923 -1.49991 -2.73695 0
M  V30 193 N 20.6934 1.19889 -1.02296 0
M  V30 194 C 21.6234 2.25141 -0.619174 0
M  V30 195 C 22.6044 1.66051 0.368915 0
M  V30 196 O 23.7894 1.92546 0.252941 0
M  V30 197 C 20.9194 3.4728 0.0368783 0
M  V30 198 C 19.8734 4.19005 -0.872865 0
M  V30 199 C 19.1994 5.34637 -0.0822402 0
M  V30 200 C 20.4994 4.74452 -2.18387 0
M  V30 201 H 22.1934 2.59171 -1.49903 0
M  V30 202 H 19.7394 1.24579 -0.722222 0
M  V30 203 H 21.6924 4.20098 0.330958 0
M  V30 204 H 20.4164 3.12433 0.95149 0
M  V30 205 H 19.0754 3.48061 -1.15105 0
M  V30 206 H 18.7234 4.96034 0.83422 0
M  V30 207 H 18.4234 5.83557 -0.688149 0
M  V30 208 H 19.9474 6.10255 0.205238 0
M  V30 209 H 21.3614 5.39055 -1.95172 0
M  V30 210 H 19.7584 5.33834 -2.74119 0
M  V30 211 H 20.8284 3.92844 -2.84257 0
M  V30 212 N 22.1715 0.800033 1.35784 0
M  V30 213 C 23.3995 0.389606 2.03199 0
M  V30 214 C 23.8145 -0.997375 1.60306 0
M  V30 215 O 23.1715 -1.64154 0.797481 0
M  V30 216 C 23.2225 0.455855 3.58614 0
M  V30 217 O 22.9435 1.78815 3.99946 0
M  V30 218 C 24.4445 0.0374032 4.43284 0
M  V30 219 H 21.6645 0.159132 0.651857 0
M  V30 220 H 24.2085 1.08183 1.73541 0
M  V30 221 H 22.3635 -0.188057 3.86943 0
M  V30 222 H 22.7775 1.74636 4.94573 0
M  V30 223 H 24.2515 0.134882 5.51835 0
M  V30 224 H 24.7285 -1.01651 4.27275 0
M  V30 225 H 25.3345 0.654215 4.20238 0
M  V30 226 N 23.6496 -1.47581 0.552962 0
M  V30 227 C 24.8956 -2.02782 0.0273648 0
M  V30 228 C 25.2286 -1.42687 -1.31734 0
M  V30 229 O 24.5036 -0.580897 -1.85623 0
M  V30 230 C 24.7866 -3.60031 -0.0702371 0
M  V30 231 C 24.6396 -4.30566 1.30126 0
M  V30 232 C 25.9586 -4.33028 -0.785771 0
M  V30 233 H 23.0776 -0.736912 0.0114185 0
M  V30 234 H 25.7196 -1.76056 0.714432 0
M  V30 235 H 23.8696 -3.82932 -0.655382 0
M  V30 236 H 25.5416 -4.19018 1.92929 0
M  V30 237 H 23.7846 -3.91086 1.87709 0
M  V30 238 H 24.4556 -5.39114 1.18573 0
M  V30 239 H 26.9316 -4.15095 -0.288982 0
M  V30 240 H 25.8076 -5.42695 -0.823013 0
M  V30 241 H 26.0686 -4.01945 -1.841 0
M  V30 242 N 25.1277 -0.289203 -1.54924 0
M  V30 243 C 26.3737 0.323998 -2.00195 0
M  V30 244 C 26.7067 1.54441 -1.17735 0
M  V30 245 O 25.9817 1.92875 -0.250878 0
M  V30 246 C 26.2647 0.692276 -3.53383 0
M  V30 247 C 26.1177 -0.536457 -4.46589 0
M  V30 248 C 27.4367 1.52335 -4.12895 0
M  V30 249 H 24.5557 0.116289 -0.727768 0
M  V30 250 H 27.1977 -0.398954 -1.85764 0
M  V30 251 H 25.3477 1.30822 -3.65811 0
M  V30 252 H 27.0197 -1.17499 -4.46085 0
M  V30 253 H 25.2627 -1.17192 -4.1767 0
M  V30 254 H 25.9337 -0.234806 -5.515 0
M  V30 255 H 28.4097 1.00302 -4.0383 0
M  V30 256 H 27.2857 1.74982 -5.20262 0
M  V30 257 H 27.5467 2.50886 -3.64018 0
M  V30 258 N 26.6058 1.57591 -0.0167156 0
M  V30 259 C 28.0218 1.55946 0.339557 0
M  V30 260 C 28.2218 1.02109 1.73713 0
M  V30 261 O 27.2778 0.662303 2.43659 0
M  V30 262 C 28.5908 3.00037 0.199499 0
M  V30 263 C 30.1388 3.11805 0.273193 0
M  V30 264 C 30.6138 4.57713 0.162068 0
M  V30 265 N 32.1048 4.6268 0.219444 0
M  V30 266 C 32.8398 5.73185 0.157054 0
M  V30 267 N 32.3358 6.92786 0.0442936 0
M  V30 268 N 34.1288 5.61707 0.21014 0
M  V30 269 H 26.2798 1.90921 -0.930758 0
M  V30 270 H 28.5428 0.877674 -0.358319 0
M  V30 271 H 28.2488 3.4333 -0.76273 0
M  V30 272 H 28.1228 3.64387 0.974786 0
M  V30 273 H 30.5098 2.68433 1.22587 0
M  V30 274 H 30.5908 2.50201 -0.532256 0
M  V30 275 H 30.2348 5.01763 -0.78714 0
M  V30 276 H 30.1648 5.17283 0.986222 0
M  V30 277 H 32.6558 3.76649 0.307246 0
M  V30 278 H 32.9688 7.728 0.00304069 0
M  V30 279 H 31.3138 6.94999 0.00968457 0
M  V30 280 H 34.5048 4.6716 0.296546 0
M  V30 281 H 34.6778 6.47807 0.158054 0
M  V30 282 N 28.0839 -0.256276 1.55502 0
M  V30 283 C 28.9939 -1.33882 1.92647 0
M  V30 284 C 30.0099 -1.53159 0.825727 0
M  V30 285 O 31.1859 -1.66963 1.12629 0
M  V30 286 C 28.2509 -2.6751 2.20543 0
M  V30 287 C 27.3119 -2.56836 3.43997 0
M  V30 288 C 26.5449 -3.84092 3.70553 0
M  V30 289 O 26.7679 -4.85545 2.99336 0
M  V30 290 O 25.7019 -3.83288 4.64084 0
M  V30 291 H 29.5279 -1.05374 2.84833 0
M  V30 292 H 27.1129 -0.456237 1.42263 0
M  V30 293 H 28.9949 -3.46492 2.39835 0
M  V30 294 H 27.6699 -2.9577 1.31536 0
M  V30 295 H 26.5769 -1.76172 3.30021 0
M  V30 296 H 27.9099 -2.33523 4.33275 0
M  V30 297 N 29.562 -1.4872 -0.521534 0
M  V30 298 C 30.808 -1.574 -1.27879 0
M  V30 299 C 31.141 -0.250817 -1.92573 0
M  V30 300 O 30.416 0.743934 -1.79711 0
M  V30 301 C 30.699 -2.71843 -2.36164 0
M  V30 302 C 30.552 -4.13893 -1.76105 0
M  V30 303 C 31.871 -2.82008 -3.37875 0
M  V30 304 H 28.99 -0.572941 -0.463581 0
M  V30 305 H 31.632 -1.80927 -0.580119 0
M  V30 306 H 29.782 -2.51914 -2.95756 0
M  V30 307 H 31.454 -4.45284 -1.20499 0
M  V30 308 H 29.697 -4.20498 -1.06601 0
M  V30 309 H 30.368 -4.89804 -2.5455 0
M  V30 310 H 32.844 -3.00086 -2.88249 0
M  V30 311 H 31.72 -3.63796 -4.11028 0
M  V30 312 H 31.981 -1.90511 -3.98946 0
M  V30 313 N 31.0401 0.771051 -1.3745 0
M  V30 314 C 31.9701 1.89827 -1.3597 0
M  V30 315 C 32.9511 1.68562 -0.228216 0
M  V30 316 O 34.1361 1.8941 -0.428675 0
M  V30 317 C 31.2661 3.2712 -1.16662 0
M  V30 318 C 30.2201 3.6295 -2.2683 0
M  V30 319 C 29.5461 4.98791 -1.92644 0
M  V30 320 C 30.8461 3.69627 -3.69017 0
M  V30 321 H 32.5401 1.91323 -2.30295 0
M  V30 322 H 30.0861 0.919082 -1.10855 0
M  V30 323 H 32.0391 4.05615 -1.14256 0
M  V30 324 H 30.7631 3.26059 -0.187926 0
M  V30 325 H 29.4221 2.86763 -2.28392 0
M  V30 326 H 29.0701 4.94271 -0.933021 0
M  V30 327 H 28.7701 5.23733 -2.66416 0
M  V30 328 H 30.2941 5.79685 -1.91826 0
M  V30 329 H 31.7081 4.38273 -3.69581 0
M  V30 330 H 30.1051 4.06067 -4.41848 0
M  V30 331 H 31.1751 2.70273 -4.02592 0
M  V30 332 N 32.5182 1.22032 0.997298 0
M  V30 333 C 33.4652 0.986467 2.08656 0
M  V30 334 C 34.4352 -0.0902671 1.65855 0
M  V30 335 O 35.6202 0.0584294 1.90711 0
M  V30 336 C 32.7602 0.565569 3.40434 0
M  V30 337 C 31.8732 1.71259 3.96604 0
M  V30 338 C 31.0082 1.24011 5.16522 0
M  V30 339 C 30.0472 2.35896 5.64818 0
M  V30 340 N 29.1842 1.89726 6.7598 0
M  V30 341 H 34.0242 1.91892 2.27994 0
M  V30 342 H 31.5612 0.956199 1.11782 0
M  V30 343 H 33.5192 0.302738 4.161 0
M  V30 344 H 32.1492 -0.329879 3.2111 0
M  V30 345 H 31.2012 2.08986 3.17851 0
M  V30 346 H 32.5132 2.55436 4.28432 0
M  V30 347 H 31.6672 0.934395 5.99461 0
M  V30 348 H 30.4062 0.368487 4.86306 0
M  V30 349 H 29.4112 2.67261 4.8047 0
M  V30 350 H 30.6362 3.23567 5.97061 0
M  V30 351 H 28.5822 1.0492 6.47555 0
M  V30 352 H 28.4992 2.67471 7.07103 0
M  V30 353 H 29.7672 1.62211 7.62435 0
M  V30 354 N 33.9963 -1.19345 1.0293 0
M  V30 355 C 34.9283 -2.22036 0.56857 0
M  V30 356 C 35.9413 -1.58865 -0.355779 0
M  V30 357 O 37.1303 -1.77851 -0.152103 0
M  V30 358 C 34.2303 -3.38363 -0.190752 0
M  V30 359 C 33.4033 -4.31118 0.738643 0
M  V30 360 C 32.4623 -5.26194 0.0246497 0
M  V30 361 O 31.4883 -5.65461 0.651354 0
M  V30 362 N 32.6903 -5.66971 -1.24594 0
M  V30 363 H 35.4553 -2.6219 1.45177 0
M  V30 364 H 33.0163 -1.34015 0.908381 0
M  V30 365 H 35.0083 -3.98981 -0.677961 0
M  V30 366 H 33.5783 -2.96994 -0.975366 0
M  V30 367 H 32.7983 -3.68276 1.40593 0
M  V30 368 H 34.0863 -4.90001 1.37029 0
M  V30 369 H 33.4843 -5.37104 -1.77583 0
M  V30 370 H 32.0413 -6.2984 -1.67764 0
M  V30 371 N 35.4744 -0.807222 -1.35358 0
M  V30 372 C 36.4044 -0.232509 -2.3234 0
M  V30 373 C 37.3854 0.642386 -1.57504 0
M  V30 374 O 38.5704 0.572526 -1.85569 0
M  V30 375 C 35.7004 0.619238 -3.41735 0
M  V30 376 C 34.6544 -0.157215 -4.27711 0
M  V30 377 C 33.9804 0.816273 -5.28433 0
M  V30 378 C 35.2804 -1.35656 -5.04376 0
M  V30 379 H 36.9744 -1.04276 -2.80654 0
M  V30 380 H 34.5204 -0.50288 -1.34934 0
M  V30 381 H 36.4734 1.03137 -4.08584 0
M  V30 382 H 35.1974 1.46239 -2.92031 0
M  V30 383 H 33.8564 -0.550525 -3.62443 0
M  V30 384 H 33.5044 1.65494 -4.74996 0
M  V30 385 H 33.2044 0.301067 -5.86828 0
M  V30 386 H 34.7284 1.22659 -5.98153 0
M  V30 387 H 36.1424 -1.01927 -5.64166 0
M  V30 388 H 34.5394 -1.8063 -5.7227 0
M  V30 389 H 35.6094 -2.14288 -4.34981 0
M  V30 390 N 36.9525 1.47285 -0.560781 0
M  V30 391 C 38.3635 1.86258 -0.128343 0
M  V30 392 C 38.7145 1.46699 1.30284 0
M  V30 393 O 37.8395 0.871698 1.98067 0
M  V30 394 C 38.4345 3.38044 -0.22614 0
M  V30 395 C 36.9935 3.76096 0.151283 0
M  V30 396 C 36.1405 2.71335 -0.572084 0
M  V30 397 H 39.0915 1.38752 -0.770297 0
M  V30 398 H 39.1125 3.76441 0.554322 0
M  V30 399 H 38.6245 3.66806 -1.26788 0
M  V30 400 H 36.7255 3.52951 1.19399 0
M  V30 401 H 36.8385 4.78641 -0.209765 0
M  V30 402 H 35.2025 2.54696 -0.0147653 0
M  V30 403 H 35.9855 3.02938 -1.61504 0
M  V30 404 N 38.4306 0.297415 1.54768 0
M  V30 405 C 39.3806 -0.595275 2.20092 0
M  V30 406 C 40.3646 -1.10163 1.17273 0
M  V30 407 O 41.5566 -1.043 1.43006 0
M  V30 408 C 38.6856 -1.7684 2.94249 0
M  V30 409 C 37.7716 -1.27818 4.0438 0
M  V30 410 N 38.1626 -0.505695 5.03266 0
M  V30 411 C 36.4606 -1.55923 4.17857 0
M  V30 412 C 37.1616 -0.245094 5.81183 0
M  V30 413 N 36.1376 -0.823881 5.3732 0
M  V30 414 H 39.9396 0.00250837 2.939 0
M  V30 415 H 37.4536 0.102007 1.62079 0
M  V30 416 H 39.4506 -2.41944 3.39513 0
M  V30 417 H 38.1106 -2.36992 2.21957 0
M  V30 418 H 39.1216 -0.150928 5.1768 0
M  V30 419 H 35.7986 -2.16849 3.56767 0
M  V30 420 H 37.1886 0.375084 6.70852 0
M  V30 421 N 39.9087 -1.5758 0.0250728 0
M  V30 422 C 40.8187 -2.1343 -0.973905 0
M  V30 423 C 41.8347 -1.08556 -1.35984 0
M  V30 424 O 43.0107 -1.40592 -1.44207 0
M  V30 425 C 40.0757 -2.64703 -2.23904 0
M  V30 426 C 39.1367 -3.84276 -1.91391 0
M  V30 427 C 38.3697 -4.33095 -3.11873 0
M  V30 428 O 38.5927 -3.81107 -4.24398 0
M  V30 429 O 37.5267 -5.24984 -2.94406 0
M  V30 430 H 41.3527 -2.99057 -0.529036 0
M  V30 431 H 38.9377 -1.48118 -0.195288 0
M  V30 432 H 40.8197 -2.97769 -2.98181 0
M  V30 433 H 39.4947 -1.82161 -2.6758 0
M  V30 434 H 38.4017 -3.56143 -1.14511 0
M  V30 435 H 39.7347 -4.67968 -1.52534 0
M  V30 436 N 41.3868 0.248026 -1.55636 0
M  V30 437 C 42.3188 1.32993 -1.8667 0
M  V30 438 C 43.3318 1.44345 -0.752877 0
M  V30 439 O 44.5208 1.45715 -1.03098 0
M  V30 440 C 41.6208 2.70863 -2.03682 0
M  V30 441 C 40.7938 2.81792 -3.34532 0
M  V30 442 C 39.8528 4.005 -3.41301 0
M  V30 443 O 38.8788 3.9008 -4.14519 0
M  V30 444 N 40.0808 5.13618 -2.70512 0
M  V30 445 H 42.8458 1.06707 -2.8006 0
M  V30 446 H 40.4068 0.438129 -1.55859 0
M  V30 447 H 42.3988 3.48612 -2.05553 0
M  V30 448 H 40.9688 2.89862 -1.17041 0
M  V30 449 H 40.1888 1.90729 -3.44987 0
M  V30 450 H 41.4768 2.86043 -4.20781 0
M  V30 451 H 40.8748 5.24975 -2.10755 0
M  V30 452 H 39.4318 5.89505 -2.78077 0
M  V30 453 N 42.8649 1.48995 0.513639 0
M  V30 454 C 44.1109 1.58076 1.27042 0
M  V30 455 C 44.4439 0.261026 1.92438 0
M  V30 456 O 43.7189 -0.734393 1.80103 0
M  V30 457 C 44.0019 2.73091 2.34719 0
M  V30 458 C 43.8549 4.14821 1.73907 0
M  V30 459 C 45.1739 2.83796 3.36375 0
M  V30 460 H 42.2929 0.575391 0.460536 0
M  V30 461 H 44.9349 1.81232 0.570516 0
M  V30 462 H 43.0849 2.53479 2.94416 0
M  V30 463 H 44.7569 4.45917 1.18135 0
M  V30 464 H 42.9999 4.21058 1.0437 0
M  V30 465 H 43.6709 4.91147 2.51949 0
M  V30 466 H 46.1469 3.01611 2.86653 0
M  V30 467 H 45.0229 3.65971 4.09093 0
M  V30 468 H 45.2839 1.92624 3.9793 0
M  V30 469 N 44.343 -0.763751 1.37857 0
M  V30 470 C 45.573 -1.55067 1.3652 0
M  V30 471 C 45.981 -1.89135 -0.0494227 0
M  V30 472 O 45.324 -1.52529 -1.02375 0
M  V30 473 C 45.386 -2.8838 2.14656 0
M  V30 474 C 45.05 -2.76905 3.63555 0
M  V30 475 C 46.047 -2.4739 4.57268 0
M  V30 476 C 43.732 -2.94676 4.06781 0
M  V30 477 C 45.726 -2.35786 5.92186 0
M  V30 478 C 43.413 -2.82692 5.41782 0
M  V30 479 C 44.411 -2.53289 6.34298 0
M  V30 480 O 44.099 -2.41345 7.66817 0
M  V30 481 H 43.831 -0.486776 0.469069 0
M  V30 482 H 46.385 -0.953812 1.81911 0
M  V30 483 H 44.615 -3.50217 1.63967 0
M  V30 484 H 46.304 -3.49828 2.05852 0
M  V30 485 H 47.07 -2.33339 4.2518 0
M  V30 486 H 42.949 -3.16563 3.35126 0
M  V30 487 H 46.493 -2.12757 6.64365 0
M  V30 488 H 42.39 -2.96314 5.7347 0
M  V30 489 H 43.158 -2.56634 7.77226 0
M  V30 490 N 45.8211 -1.22559 -0.990812 0
M  V30 491 C 47.0511 -1.07623 -1.76355 0
M  V30 492 C 47.4591 0.37601 -1.85426 0
M  V30 493 O 46.8021 1.27228 -1.32509 0
M  V30 494 C 46.8641 -1.61507 -3.21179 0
M  V30 495 C 46.5281 -3.10146 -3.35646 0
M  V30 496 C 47.5251 -4.07553 -3.22796 0
M  V30 497 C 45.2101 -3.49644 -3.60631 0
M  V30 498 C 47.2041 -5.42442 -3.34716 0
M  V30 499 C 44.8911 -4.84682 -3.72192 0
M  V30 500 C 45.8891 -5.8089 -3.59243 0
M  V30 501 O 45.5771 -7.13476 -3.70415 0
M  V30 502 H 45.3091 -0.377745 -0.560611 0
M  V30 503 H 47.8631 -1.62658 -1.25425 0
M  V30 504 H 46.0931 -1.00881 -3.73309 0
M  V30 505 H 47.7821 -1.42202 -3.80175 0
M  V30 506 H 48.5481 -3.78381 -3.03403 0
M  V30 507 H 44.4271 -2.75282 -3.69785 0
M  V30 508 H 47.9711 -6.17518 -3.24526 0
M  V30 509 H 43.8681 -5.13534 -3.91092 0
M  V30 510 H 44.6361 -7.21083 -3.87275 0
M  V30 511 N 47.2992 1.18797 -1.03562 0
M  V30 512 C 48.2292 2.24472 -0.643019 0
M  V30 513 C 49.2102 1.66433 0.351283 0
M  V30 514 O 50.3952 1.92803 0.232505 0
M  V30 515 C 47.5252 3.473 4.24935e-05 0
M  V30 516 C 46.4792 4.18055 -0.917257 0
M  V30 517 C 45.8052 5.34519 -0.138941 0
M  V30 518 C 47.1052 4.72109 -2.23407 0
M  V30 519 H 48.7992 2.57566 -1.52643 0
M  V30 520 H 46.3452 1.23806 -0.735394 0
M  V30 521 H 48.2982 4.20426 0.286383 0
M  V30 522 H 47.0222 3.13424 0.918299 0
M  V30 523 H 45.6812 3.46821 -1.1879 0
M  V30 524 H 45.3292 4.96891 0.781562 0
M  V30 525 H 45.0292 5.82794 -0.750005 0
M  V30 526 H 46.5532 6.10438 0.1405 0
M  V30 527 H 47.9672 5.36955 -2.00879 0
M  V30 528 H 46.3642 5.30897 -2.79765 0
M  V30 529 H 47.4342 3.89807 -2.88407 0
M  V30 530 N 48.7773 0.814389 1.34928 0
M  V30 531 C 50.0253 0.397636 1.9815 0
M  V30 532 C 50.3463 -1.04069 1.64908 0
M  V30 533 O 49.6163 -1.72121 0.93548 0
M  V30 534 H 48.1963 0.144043 0.732981 0
M  V30 535 H 50.8583 1.04195 1.6471 0
M  V30 536 H 49.9543 0.509688 3.0791 0
M  V30 537 N 50.2554 -1.46986 0.568584 0
M  V30 538 C 51.5324 -1.95592 -0.0174074 0
M  V30 539 C 51.9124 -1.51124 -1.47393 0
M  V30 540 O 51.2604 -0.755329 -2.15655 0
M  V30 541 C 51.4704 -3.48719 0.139913 0
M  V30 542 C 52.8184 -4.246 0.000426376 0
M  V30 543 O 53.8424 -3.56135 0.0680316 0
M  V30 544 O 52.7014 -5.46302 -0.146988 0
M  V30 545 H 49.7954 -0.82498 -0.0577599 0
M  V30 546 H 52.3414 -1.57335 0.635909 0
M  V30 547 H 51.1134 -3.73927 1.15301 0
M  V30 548 H 50.7364 -3.93771 -0.550491 0
M  V30 549 N 51.7335 -0.305618 -1.54608 0
M  V30 550 C 52.9615 0.304775 -2.04643 0
M  V30 551 C 53.3765 1.47167 -1.18268 0
M  V30 552 O 52.7335 1.81296 -0.209328 0
M  V30 553 C 52.7845 0.756564 -3.53495 0
M  V30 554 O 52.5055 -0.36389 -4.36586 0
M  V30 555 C 54.0065 1.43163 -4.19546 0
M  V30 556 H 51.2265 0.0655481 -0.667791 0
M  V30 557 H 53.7705 -0.446592 -1.99564 0
M  V30 558 H 51.9255 1.45794 -3.58919 0
M  V30 559 H 52.3395 -0.0113121 -5.24499 0
M  V30 560 H 53.8135 1.69886 -5.25207 0
M  V30 561 H 54.2905 2.37318 -3.69563 0
M  V30 562 H 54.8965 0.773307 -4.18211 0
M  V30 563 N 53.2116 1.57565 -0.0334293 0
M  V30 564 C 54.1746 2.09393 0.932048 0
M  V30 565 C 55.1746 1.00986 1.25134 0
M  V30 566 O 56.3646 1.27129 1.19096 0
M  V30 567 C 53.4966 2.56338 2.2473 0
M  V30 568 H 54.6896 2.95984 0.483085 0
M  V30 569 H 52.2426 1.54819 0.21468 0
M  V30 570 H 52.9776 1.7309 2.74245 0
M  V30 571 H 52.7626 3.35542 2.02865 0
M  V30 572 H 54.2526 2.96646 2.93923 0
M  V30 573 N 54.6897 -0.239769 1.55765 0
M  V30 574 C 56.1057 -0.588624 1.48349 0
M  V30 575 C 56.3057 -1.88005 0.72502 0
M  V30 576 O 55.3617 -2.51186 0.257269 0
M  V30 577 C 56.6747 -0.68474 2.928 0
M  V30 578 C 58.2227 -0.77659 3.03213 0
M  V30 579 C 58.6977 -0.904207 4.48986 0
M  V30 580 N 60.1887 -0.968896 4.52953 0
M  V30 581 C 60.9237 -1.08703 5.63002 0
M  V30 582 N 60.4197 -1.17026 6.82845 0
M  V30 583 N 62.2127 -1.12074 5.50814 0
M  V30 584 H 54.3637 0.607911 2.03515 0
M  V30 585 H 56.6267 0.21083 0.924259 0
M  V30 586 H 56.3327 0.194284 3.51163 0
M  V30 587 H 56.2067 -1.55435 3.43686 0
M  V30 588 H 58.5937 -1.64606 2.44926 0
M  V30 589 H 58.6747 0.118315 2.55526 0
M  V30 590 H 58.3187 -0.0392633 5.07885 0
M  V30 591 H 58.2487 -1.81426 4.9436 0
M  V30 592 H 60.7397 -0.915633 3.6664 0
M  V30 593 H 61.0527 -1.25966 7.62465 0
M  V30 594 H 59.3977 -1.13971 6.85591 0
M  V30 595 H 62.5887 -1.05226 4.5612 0
M  V30 596 H 62.7617 -1.20936 6.36615 0
M  V30 597 N 56.1678 -1.49265 -0.50573 0
M  V30 598 C 57.4078 -1.60128 -1.27038 0
M  V30 599 C 57.7718 -0.279557 -1.89954 0
M  V30 600 O 58.9728 -0.263329 -2.67507 0
M  V30 601 C 57.2438 -2.72507 -2.31246 0
M  V30 602 S 58.8028 -3.0329 -3.17113 0
M  V30 603 H 55.6208 -0.564863 -0.4318 0
M  V30 604 H 58.2228 -1.86902 -0.573397 0
M  V30 605 H 56.9268 -3.67068 -1.83546 0
M  V30 606 H 56.4578 -2.4771 -3.05619 0
M  V30 607 H 58.4728 -2.44448 -4.31809 0
M  V30 608 N 57.6459 0.756429 -1.3826 0
M  V30 609 C 59.0569 1.33359 -1.30661 0
M  V30 610 C 59.4079 1.96161 0.0388875 0
M  V30 611 O 58.5329 1.94874 0.940918 0
M  V30 612 C 59.1279 2.42477 -2.36622 0
M  V30 613 C 57.6869 2.95922 -2.3261 0
M  V30 614 C 56.8339 1.69275 -2.19639 0
M  V30 615 H 59.7849 0.55552 -1.4866 0
M  V30 616 H 59.8059 3.22345 -2.02174 0
M  V30 617 H 59.3179 1.96739 -3.34538 0
M  V30 618 H 57.4189 3.45996 -1.38267 0
M  V30 619 H 57.5319 3.50494 -3.26636 0
M  V30 620 H 55.8959 1.92793 -1.66442 0
M  V30 621 H 56.6789 1.25619 -3.19491 0
M  V30 622 N 59.124 1.23083 0.984299 0
M  V30 623 C 60.354 1.08556 1.75781 0
M  V30 624 C 60.762 -0.366171 1.85623 0
M  V30 625 O 60.105 -1.26524 1.33182 0
M  V30 626 C 60.167 1.63208 3.20318 0
M  V30 627 C 59.831 3.11922 3.33997 0
M  V30 628 C 60.828 4.09259 3.2063 0
M  V30 629 C 58.513 3.51552 3.58771 0
M  V30 630 C 60.507 5.4421 3.31835 0
M  V30 631 C 58.194 4.86649 3.69616 0
M  V30 632 C 59.192 5.82787 3.56157 0
M  V30 633 O 58.88 7.15431 3.66626 0
M  V30 634 H 58.612 0.380713 0.5586 0
M  V30 635 H 61.166 1.63321 1.2456 0
M  V30 636 H 59.396 1.0286 3.72769 0
M  V30 637 H 61.085 1.44216 3.79416 0
M  V30 638 H 61.851 3.79984 3.01392 0
M  V30 639 H 57.73 2.77239 3.6832 0
M  V30 640 H 61.274 6.1923 3.21247 0
M  V30 641 H 57.171 5.15601 3.88363 0
M  V30 642 H 57.939 7.23127 3.83445 0
M  V30 643 N 60.6021 -1.18246 1.0419 0
M  V30 644 C 61.8501 -1.87886 0.744543 0
M  V30 645 C 62.1711 -1.8082 -0.730006 0
M  V30 646 O 61.4411 -1.22736 -1.52685 0
M  V30 647 H 60.0211 -0.695556 0.272417 0
M  V30 648 H 62.6831 -1.43494 1.31892 0
M  V30 649 H 61.7791 -2.9389 1.05049 0
M  V30 650 N 62.0802 -0.821533 -1.34494 0
M  V30 651 C 63.4912 -0.467956 -1.8074 0
M  V30 652 C 63.8422 1.01151 -1.68116 0
M  V30 653 O 62.9672 1.78707 -1.22036 0
M  V30 654 C 63.5622 -0.842627 -3.28154 0
M  V30 655 C 62.1212 -0.541439 -3.72485 0
M  V30 656 C 61.2682 -1.06028 -2.56229 0
M  V30 657 H 64.2192 -1.01183 -1.22261 0
M  V30 658 H 64.2402 -0.145876 -3.8022 0
M  V30 659 H 63.7522 -1.91945 -3.37311 0
M  V30 660 H 61.8532 0.526034 -3.68868 0
M  V30 661 H 61.9662 -1.08453 -4.66663 0
M  V30 662 H 60.3302 -0.481892 -2.501 0
M  V30 663 H 61.1132 -2.14352 -2.68157 0
M  V30 664 N 63.5583 1.46682 -0.576371 0
M  V30 665 C 64.9743 1.57822 -0.237562 0
M  V30 666 C 65.1743 1.57237 1.26011 0
M  V30 667 O 64.2303 1.48596 2.04146 0
M  V30 668 C 65.5433 2.87499 -0.881168 0
M  V30 669 C 67.0913 3.01119 -0.85417 0
M  V30 670 C 67.5663 4.33524 -1.4772 0
M  V30 671 N 69.0573 4.40207 -1.44125 0
M  V30 672 C 69.7923 5.4126 -1.89276 0
M  V30 673 N 69.2883 6.49021 -2.42371 0
M  V30 674 N 71.0813 5.32422 -1.80231 0
M  V30 675 H 63.2323 1.45306 -1.54919 0
M  V30 676 H 65.4953 0.692733 -0.647167 0
M  V30 677 H 65.2013 2.9372 -1.93447 0
M  V30 678 H 65.0753 3.75224 -0.385592 0
M  V30 679 H 67.4623 2.94485 0.190491 0
M  V30 680 H 67.5433 2.14887 -1.3877 0
M  V30 681 H 67.1873 4.40916 -2.52103 0
M  V30 682 H 67.1173 5.1852 -0.918947 0
M  V30 683 H 69.6083 3.62931 -1.05307 0
M  V30 684 H 69.9213 7.2233 -2.74698 0
M  V30 685 H 68.2663 6.49858 -2.46393 0
M  V30 686 H 71.4573 4.47137 -1.38514 0
M  V30 687 H 71.6303 6.11034 -2.15735 0
M  V30 688 N 65.0364 0.313813 1.54444 0
M  V30 689 C 66.3134 -0.345447 1.92525 0
M  V30 690 C 66.6934 -1.70667 1.24242 0
M  V30 691 O 66.0414 -2.25273 0.382654 0
M  V30 692 C 66.2514 -0.44737 3.46121 0
M  V30 693 C 67.5994 -0.712238 4.18584 0
M  V30 694 O 68.6234 -0.530678 3.52225 0
M  V30 695 O 67.4824 -1.06183 5.36085 0
M  V30 696 H 64.5764 -0.195407 0.803583 0
M  V30 697 H 67.1224 0.362813 1.65776 0
M  V30 698 H 65.8944 0.509043 3.87975 0
M  V30 699 H 65.5174 -1.20359 3.78945 0
M  V30 700 N 66.5145 -1.57545 0.0417849 0
M  V30 701 C 67.4615 -2.10977 -0.935805 0
M  V30 702 C 68.4315 -1.01486 -1.31491 0
M  V30 703 O 69.6165 -1.2898 -1.40602 0
M  V30 704 C 66.7565 -2.65169 -2.2086 0
M  V30 705 C 65.8695 -3.88714 -1.88482 0
M  V30 706 C 65.0045 -4.31254 -3.1015 0
M  V30 707 C 64.0435 -5.47524 -2.7365 0
M  V30 708 N 63.1805 -5.85162 -3.87982 0
M  V30 709 H 68.0205 -2.94218 -0.473249 0
M  V30 710 H 65.5575 -1.45415 -0.221981 0
M  V30 711 H 67.5155 -2.94685 -2.95325 0
M  V30 712 H 66.1455 -1.8474 -2.64709 0
M  V30 713 H 65.1975 -3.65849 -1.04205 0
M  V30 714 H 66.5095 -4.73245 -1.57608 0
M  V30 715 H 65.6635 -4.62273 -3.92923 0
M  V30 716 H 64.4025 -3.45516 -3.44195 0
M  V30 717 H 63.4075 -5.16187 -1.89291 0
M  V30 718 H 64.6325 -6.34971 -2.40807 0
M  V30 719 H 62.5785 -5.02377 -4.21846 0
M  V30 720 H 62.4955 -6.64362 -3.60775 0
M  V30 721 H 63.7635 -6.20791 -4.71422 0
M  V30 722 N 67.9926 0.231505 -1.5589 0
M  V30 723 C 68.9026 1.308 -1.94752 0
M  V30 724 C 69.9186 1.51826 -0.849989 0
M  V30 725 O 71.0946 1.6515 -1.15271 0
M  V30 726 C 68.1596 2.63968 -2.24771 0
M  V30 727 C 67.2206 2.51331 -3.48039 0
M  V30 728 C 66.4536 3.78148 -3.76616 0
M  V30 729 O 66.6766 4.80722 -3.07022 0
M  V30 730 O 65.6106 3.75857 -4.70123 0
M  V30 731 H 69.4366 1.0083 -2.86474 0
M  V30 732 H 67.0216 0.433547 -1.42971 0
M  V30 733 H 68.9036 3.42633 -2.45318 0
M  V30 734 H 67.5786 2.9364 -1.36225 0
M  V30 735 H 66.4856 1.709 -3.32782 0
M  V30 736 H 67.8186 2.26601 -4.36936 0
M  V30 737 N 69.4707 1.49531 0.497807 0
M  V30 738 C 70.3807 1.69176 1.62532 0
M  V30 739 C 71.3967 0.5744 1.64246 0
M  V30 740 O 72.5727 0.849497 1.82608 0
M  V30 741 C 69.6377 1.75695 2.98885 0
M  V30 742 C 68.6987 2.9929 3.07773 0
M  V30 743 C 67.9317 3.05488 4.37622 0
M  V30 744 O 68.1547 2.19192 5.26603 0
M  V30 745 O 67.0887 3.9798 4.51548 0
M  V30 746 H 70.9147 2.647 1.48887 0
M  V30 747 H 68.4997 1.3331 0.674441 0
M  V30 748 H 70.3817 1.82317 3.79919 0
M  V30 749 H 69.0567 0.8335 3.12785 0
M  V30 750 H 67.9637 2.98183 2.25915 0
M  V30 751 H 69.2967 3.91125 2.98801 0
M  V30 752 N 70.9488 -0.749086 1.3866 0
M  V30 753 C 72.1948 -1.51056 1.35314 0
M  V30 754 C 72.5278 -1.94121 -0.0553751 0
M  V30 755 O 71.8028 -1.65763 -1.01749 0
M  V30 756 C 72.0858 -2.76003 2.31288 0
M  V30 757 C 71.9388 -2.39047 3.8102 0
M  V30 758 C 73.2578 -3.78046 2.2532 0
M  V30 759 H 70.3768 -0.547972 0.492844 0
M  V30 760 H 73.0188 -0.857628 1.69543 0
M  V30 761 H 71.1688 -3.31716 2.02229 0
M  V30 762 H 72.8408 -1.89074 4.20771 0
M  V30 763 H 71.0838 -1.71449 3.98482 0
M  V30 764 H 71.7548 -3.28462 4.4364 0
M  V30 765 H 74.2308 -3.31884 2.50983 0
M  V30 766 H 73.1068 -4.63159 2.94576 0
M  V30 767 H 73.3678 -4.23957 1.25352 0
M  V30 768 N 72.4269 -1.23603 -0.977757 0
M  V30 769 C 73.3899 -1.02069 -2.05218 0
M  V30 770 C 74.3899 0.0184305 -1.60789 0
M  V30 771 O 75.5799 -0.221569 -1.72785 0
M  V30 772 C 72.7119 -0.544926 -3.36517 0
M  V30 773 H 73.9049 -1.9742 -2.25755 0
M  V30 774 H 71.4579 -1.05684 -1.15155 0
M  V30 775 H 72.1929 0.412241 -3.21669 0
M  V30 776 H 71.9779 -1.2948 -3.70105 0
M  V30 777 H 73.4679 -0.414985 -4.15533 0
M  V30 778 N 73.905 1.17692 -1.04816 0
M  V30 779 C 74.852 2.21581 -0.645797 0
M  V30 780 C 75.822 1.62367 0.350159 0
M  V30 781 O 77.007 1.89254 0.242433 0
M  V30 782 C 74.147 3.45092 -0.0227568 0
M  V30 783 C 73.26 4.18613 -1.06709 0
M  V30 784 C 72.395 5.29602 -0.411767 0
M  V30 785 C 71.434 5.94904 -1.44067 0
M  V30 786 N 70.571 6.97414 -0.809781 0
M  V30 787 H 75.411 2.55353 -1.5362 0
M  V30 788 H 72.948 1.25438 -0.768364 0
M  V30 789 H 74.906 4.15679 0.35588 0
M  V30 790 H 73.536 3.11917 0.831122 0
M  V30 791 H 72.588 3.46779 -1.5636 0
M  V30 792 H 73.9 4.63293 -1.84827 0
M  V30 793 H 73.054 6.06696 0.0206623 0
M  V30 794 H 71.793 4.86045 0.401438 0
M  V30 795 H 70.798 5.16544 -1.88316 0
M  V30 796 H 72.023 6.40542 -2.25571 0
M  V30 797 H 69.969 6.55998 -0.0170186 0
M  V30 798 H 69.886 7.40386 -1.52856 0
M  V30 799 H 71.154 7.78463 -0.401999 0
M  V30 800 N 75.3831 0.828654 1.34056 0
M  V30 801 C 76.6301 0.419458 1.98108 0
M  V30 802 C 76.9581 -1.01886 1.65679 0
M  V30 803 O 76.2131 -1.72539 0.923512 0
M  V30 804 C 76.5121 0.575226 3.52741 0
M  V30 805 C 76.1781 1.98012 4.05095 0
M  V30 806 C 74.8401 2.36442 4.19104 0
M  V30 807 C 77.1921 2.89824 4.33188 0
M  V30 808 C 74.5201 3.66009 4.58535 0
M  V30 809 C 76.8721 4.1886 4.74066 0
M  V30 810 C 75.5361 4.5726 4.86281 0
M  V30 811 H 74.8061 0.153491 0.724929 0
M  V30 812 H 77.4531 1.05371 1.59904 0
M  V30 813 H 75.7581 -0.142385 3.91541 0
M  V30 814 H 77.4551 0.239057 4.00287 0
M  V30 815 H 74.0451 1.67162 3.94658 0
M  V30 816 H 78.2291 2.61375 4.21897 0
M  V30 817 H 73.4851 3.95579 4.66184 0
M  V30 818 H 77.6591 4.90086 4.94761 0
M  V30 819 H 75.2861 5.57707 5.16592 0
M  V30 820 N 76.8612 -1.46375 0.584142 0
M  V30 821 C 78.0892 -2.06761 0.0759296 0
M  V30 822 C 78.5042 -1.43266 -1.22965 0
M  V30 823 O 77.8612 -0.538458 -1.74376 0
M  V30 824 C 77.9122 -3.61375 -0.0950384 0
M  V30 825 O 77.6332 -4.22495 1.15887 0
M  V30 826 C 79.1342 -4.38693 -0.637434 0
M  V30 827 H 76.3542 -0.668479 0.0581075 0
M  V30 828 H 78.8982 -1.8798 0.805218 0
M  V30 829 H 77.0532 -3.79578 -0.774554 0
M  V30 830 H 77.4672 -5.15385 0.973598 0
M  V30 831 H 78.9412 -5.47464 -0.706237 0
M  V30 832 H 79.4182 -4.06836 -1.65472 0
M  V30 833 H 80.0242 -4.25299 0.00725967 0
M  V30 834 N 78.3393 -0.321999 -1.54275 0
M  V30 835 C 79.5853 0.274234 -2.01543 0
M  V30 836 C 79.9403 1.499 -1.20614 0
M  V30 837 O 79.2333 1.89546 -0.279804 0
M  V30 838 C 79.4273 0.661769 -3.5122 0
M  V30 839 C 79.2563 -0.523892 -4.46638 0
M  V30 840 C 78.0263 -1.02251 -4.94846 0
M  V30 841 C 80.2243 -1.37558 -4.95563 0
M  V30 842 N 78.2063 -2.17274 -5.74165 0
M  V30 843 C 79.5773 -2.37301 -5.7279 0
M  V30 844 C 81.6323 -1.40353 -4.77709 0
M  V30 845 C 80.3353 -3.3964 -6.34064 0
M  V30 846 C 82.3613 -2.41562 -5.39817 0
M  V30 847 C 81.7233 -3.40031 -6.16894 0
M  V30 848 H 77.8223 0.0642367 -0.779357 0
M  V30 849 H 80.4063 -0.456683 -1.89268 0
M  V30 850 H 78.5773 1.36182 -3.63743 0
M  V30 851 H 80.3093 1.23934 -3.85256 0
M  V30 852 H 77.0643 -0.594046 -4.6986 0
M  V30 853 H 77.4883 -2.75289 -6.18502 0
M  V30 854 H 82.1303 -0.655907 -4.17681 0
M  V30 855 H 79.8483 -4.15309 -6.93213 0
M  V30 856 H 83.4343 -2.44524 -5.2792 0
M  V30 857 H 82.3143 -4.17063 -6.64099 0
M  V30 858 N 79.8174 1.5752 -0.0501392 0
M  V30 859 C 80.7274 2.14952 0.939827 0
M  V30 860 C 81.7434 1.10706 1.34239 0
M  V30 861 O 82.9194 1.42869 1.41952 0
M  V30 862 C 79.9844 2.68232 2.19665 0
M  V30 863 C 79.0454 3.87272 1.85253 0
M  V30 864 C 78.2784 4.38002 3.04943 0
M  V30 865 O 78.5014 3.87811 4.18281 0
M  V30 866 O 77.4354 5.29602 2.86017 0
M  V30 867 H 81.2614 2.9986 0.481392 0
M  V30 868 H 78.8464 1.4841 0.171699 0
M  V30 869 H 80.7284 3.02475 2.93406 0
M  V30 870 H 79.4034 1.86395 2.64648 0
M  V30 871 H 78.3104 3.5792 1.0883 0
M  V30 872 H 79.6434 4.70336 1.4507 0
M  V30 873 N 81.2955 -0.223234 1.56011 0
M  V30 874 C 82.2285 -1.30377 1.87289 0
M  V30 875 C 83.2065 -1.45286 0.730112 0
M  V30 876 O 84.3905 -1.61126 0.978302 0
M  V30 877 C 81.5175 -2.67431 2.07843 0
M  V30 878 C 80.5635 -2.69546 3.30526 0
M  V30 879 S 81.3965 -2.23781 4.865 0
M  V30 880 C 82.5525 -3.62714 5.10088 0
M  V30 881 H 82.7855 -1.03652 2.78646 0
M  V30 882 H 80.3185 -0.425393 1.48424 0
M  V30 883 H 82.2765 -3.46336 2.20368 0
M  V30 884 H 80.9375 -2.91381 1.17285 0
M  V30 885 H 80.1305 -3.70255 3.41947 0
M  V30 886 H 79.7325 -1.98703 3.16849 0
M  V30 887 H 82.0245 -4.58391 4.98883 0
M  V30 888 H 82.9675 -3.5621 6.11981 0
M  V30 889 H 83.3755 -3.56323 4.37829 0
M  V30 890 N 82.7736 -1.49793 -0.48987 0
M  V30 891 C 84.0016 -1.63568 -1.26701 0
M  V30 892 C 84.4166 -0.311465 -1.86213 0
M  V30 893 O 83.7736 0.704416 -1.68357 0
M  V30 894 C 83.8246 -2.71284 -2.38929 0
M  V30 895 O 83.5456 -3.9857 -1.81861 0
M  V30 896 C 85.0466 -2.95864 -3.3012 0
M  V30 897 H 82.2666 -0.550342 -0.383881 0
M  V30 898 H 84.8106 -1.95898 -0.586864 0
M  V30 899 H 82.9656 -2.417 -3.02753 0
M  V30 900 H 83.3796 -4.57993 -2.55622 0
M  V30 901 H 84.8536 -3.74941 -4.05121 0
M  V30 902 H 85.3306 -2.06206 -3.87783 0
M  V30 903 H 85.9366 -3.26907 -2.72051 0
M  V30 904 N 84.2517 0.741722 -1.39055 0
M  V30 905 C 85.1997 1.87702 -1.3737 0
M  V30 906 C 86.1937 1.67427 -0.257812 0
M  V30 907 O 87.3997 1.7485 -0.427489 0
M  V30 908 H 83.7747 0.617757 -0.428812 0
M  V30 909 H 85.7457 1.86239 -2.33147 0
M  V30 910 C 84.4947 3.25315 -1.22741 0
M  V30 911 H 83.8177 3.41509 -2.07873 0
M  V30 912 H 85.2577 4.04964 -1.25618 0
M  V30 913 C 83.7167 3.36838 0.0647316 0
M  V30 914 O 84.2467 3.88073 1.03741 0
M  V30 915 N 82.4527 2.90329 0.125544 0
M  V30 916 H 81.9997 2.48823 -0.666682 0
M  V30 917 H 81.9577 2.98418 0.989639 0
M  V30 918 N 85.7298 1.2412 0.971189 0
M  V30 919 C 86.9768 1.07881 1.71371 0
M  V30 920 C 87.3048 -0.382901 1.90694 0
M  V30 921 O 86.5598 -1.29945 1.46331 0
M  V30 922 C 86.8588 1.75983 3.11071 0
M  V30 923 C 86.5248 3.25909 3.11599 0
M  V30 924 C 85.1868 3.66813 3.11451 0
M  V30 925 C 87.5388 4.21771 3.062 0
M  V30 926 C 84.8668 5.02021 3.03631 0
M  V30 927 C 87.2188 5.56982 2.99923 0
M  V30 928 C 85.8828 5.97237 2.98102 0
M  V30 929 H 85.1528 0.394764 0.62709 0
M  V30 930 H 87.7998 1.54176 1.13587 0
M  V30 931 H 86.1048 1.22072 3.72298 0
M  V30 932 H 87.8018 1.60887 3.6731 0
M  V30 933 H 84.3918 2.93353 3.12477 0
M  V30 934 H 88.5758 3.91172 3.05447 0
M  V30 935 H 83.8318 5.32411 3.0058 0
M  V30 936 H 88.0058 6.30969 2.94704 0
M  V30 937 H 85.6328 7.01967 2.91798 0
M  V30 938 N 87.2079 -1.17134 1.05439 0
M  V30 939 C 88.1379 -2.2342 0.678649 0
M  V30 940 C 89.1189 -1.66971 -0.32476 0
M  V30 941 O 90.3039 -1.93149 -0.201802 0
M  V30 942 C 87.4339 -3.47256 0.0552099 0
M  V30 943 C 86.3879 -4.16543 0.98365 0
M  V30 944 C 85.7139 -5.34231 0.223961 0
M  V30 945 C 87.0139 -4.68495 2.3089 0
M  V30 946 H 88.7079 -2.55105 1.56722 0
M  V30 947 H 86.2539 -1.2262 0.754998 0
M  V30 948 H 88.2069 -4.20828 -0.21946 0
M  V30 949 H 86.9309 -3.14846 -0.868319 0
M  V30 950 H 85.5899 -3.44887 1.24293 0
M  V30 951 H 85.2379 -4.98071 -0.702412 0
M  V30 952 H 84.9379 -5.81527 0.842627 0
M  V30 953 H 86.4619 -6.10585 -0.0433671 0
M  V30 954 H 87.8759 -5.33691 2.09396 0
M  V30 955 H 86.2729 -5.26379 2.88176 0
M  V30 956 H 87.3429 -3.85169 2.94572 0
M  V30 957 N 88.686 -0.835752 -1.33615 0
M  V30 958 C 89.932 -0.430596 -1.98176 0
M  V30 959 C 90.265 1.00684 -1.66061 0
M  V30 960 O 89.54 1.70339 -0.938877 0
M  V30 961 C 89.823 -0.648065 -3.5422 0
M  V30 962 C 89.676 -2.13255 -3.96033 0
M  V30 963 C 90.995 -0.0922113 -4.40003 0
M  V30 964 H 88.114 -0.157924 -0.719881 0
M  V30 965 H 90.756 -1.05069 -1.58305 0
M  V30 966 H 88.906 -0.120237 -3.88314 0
M  V30 967 H 90.578 -2.725 -3.72211 0
M  V30 968 H 88.821 -2.61823 -3.45878 0
M  V30 969 H 89.492 -2.23547 -5.04708 0
M  V30 970 H 91.968 -0.543343 -4.12537 0
M  V30 971 H 90.844 -0.274083 -5.48215 0
M  V30 972 H 91.105 1.00378 -4.30554 0
M  V30 973 N 90.1641 1.46063 -0.591896 0
M  V30 974 C 91.4411 1.95595 -0.0137119 0
M  V30 975 C 91.8211 1.5345 1.4497 0
M  V30 976 O 91.1691 0.789543 2.14426 0
M  V30 977 C 91.3791 3.48453 -0.195373 0
M  V30 978 C 92.7271 4.24546 -0.0679765 0
M  V30 979 O 93.7511 3.55982 -0.124681 0
M  V30 980 O 92.6101 5.46467 0.0600579 0
M  V30 981 H 89.7041 0.825795 0.0446279 0
M  V30 982 H 92.2501 1.56303 -0.660859 0
M  V30 983 H 91.0221 3.72045 -1.21235 0
M  V30 984 H 90.6451 3.94597 0.487775 0
M  V30 985 N 91.6422 0.330177 1.54103 0
M  V30 986 C 93.0582 -0.0222371 1.59585 0
M  V30 987 C 93.2582 -1.49902 1.34654 0
M  V30 988 O 92.3142 -2.25592 1.13421 0
M  V30 989 C 93.6272 0.401932 2.98002 0
M  V30 990 C 95.1752 0.353145 3.11001 0
M  V30 991 C 95.6502 0.752576 4.51775 0
M  V30 992 N 97.1412 0.706239 4.57784 0
M  V30 993 C 97.8762 0.987417 5.64834 0
M  V30 994 N 97.3722 1.33607 6.79795 0
M  V30 995 N 99.1652 0.91254 5.54643 0
M  V30 996 H 91.3162 1.29228 1.68564 0
M  V30 997 H 93.5792 0.525906 0.78875 0
M  V30 998 H 93.2852 1.4311 3.21267 0
M  V30 999 H 93.1592 -0.229699 3.765 0
M  V30 1000 H 95.5462 -0.666822 2.87467 0
M  V30 1001 H 95.6272 1.0198 2.34593 0
M  V30 1002 H 95.2712 1.77049 4.76042 0
M  V30 1003 H 95.2012 0.0635409 5.26562 0
M  V30 1004 H 97.6922 0.44889 3.75224 0
M  V30 1005 H 98.0052 1.53582 7.57385 0
M  V30 1006 H 96.3502 1.37439 6.81275 0
M  V30 1007 H 99.5412 0.639601 4.6371 0
M  V30 1008 H 99.7142 1.13503 6.37982 0
M  V30 1009 N 93.1203 -1.57491 0.0584922 0
M  V30 1010 C 94.3683 -1.92597 -0.612436 0
M  V30 1011 C 94.6893 -0.938162 -1.70949 0
M  V30 1012 O 93.9593 0.0158301 -1.95894 0
M  V30 1013 H 92.5393 -0.710964 -0.229214 0
M  V30 1014 H 95.2013 -1.94571 0.113218 0
M  V30 1015 H 94.2973 -2.94038 -1.04633 0
M  V30 1016 N 94.5984 0.214957 -1.56127 0
M  V30 1017 C 95.8474 0.936451 -1.78643 0
M  V30 1018 C 96.1604 1.85237 -0.628229 0
M  V30 1019 O 97.3664 2.613 -0.737186 0
M  V30 1020 C 95.8224 1.7154 -3.16389 0
M  V30 1021 C 95.4304 0.845299 -4.39953 0
M  V30 1022 C 97.1744 2.42772 -3.48227 0
M  V30 1023 C 95.0814 1.62198 -5.68723 0
M  V30 1024 H 94.0114 0.353401 -0.666051 0
M  V30 1025 H 96.6624 0.190169 -1.82512 0
M  V30 1026 H 95.0444 2.50484 -3.06715 0
M  V30 1027 H 96.2184 0.0959353 -4.607 0
M  V30 1028 H 94.5334 0.244789 -4.1568 0
M  V30 1029 H 97.1304 3.01394 -4.41663 0
M  V30 1030 H 97.4734 3.15984 -2.71035 0
M  V30 1031 H 98.0064 1.70813 -3.5926 0
M  V30 1032 H 94.7454 0.933011 -6.48826 0
M  V30 1033 H 94.2654 2.34579 -5.52026 0
M  V30 1034 H 95.9444 2.18095 -6.09133 0
M  V30 1035 N 96.0765 1.50051 0.48192 0
M  V30 1036 C 97.0235 1.68122 1.58125 0
M  V30 1037 C 97.9935 0.522545 1.57666 0
M  V30 1038 O 99.1785 0.751844 1.75362 0
M  V30 1039 C 96.3185 1.77142 2.96167 0
M  V30 1040 C 95.4315 3.0444 3.06497 0
M  V30 1041 C 94.5665 3.04321 4.35387 0
M  V30 1042 C 93.6055 4.26118 4.3942 0
M  V30 1043 N 92.7425 4.238 5.59766 0
M  V30 1044 H 97.5825 2.6198 1.42022 0
M  V30 1045 H 95.1195 1.29877 0.690687 0
M  V30 1046 H 97.0775 1.80352 3.76203 0
M  V30 1047 H 95.7075 0.867329 3.1093 0
M  V30 1048 H 94.7595 3.10752 2.19402 0
M  V30 1049 H 96.0715 3.94426 3.05336 0
M  V30 1050 H 95.2255 3.062 5.23762 0
M  V30 1051 H 93.9645 2.12147 4.39141 0
M  V30 1052 H 92.9695 4.24463 3.49444 0
M  V30 1053 H 94.1945 5.19507 4.37366 0
M  V30 1054 H 92.1405 3.34474 5.64326 0
M  V30 1055 H 92.0575 5.07542 5.60301 0
M  V30 1056 H 93.3255 4.2981 6.50295 0
M  V30 1057 N 97.5546 -0.734337 1.39446 0
M  V30 1058 C 98.4876 -1.85715 1.32609 0
M  V30 1059 C 99.4656 -1.6137 0.199636 0
M  V30 1060 O 100.65 -1.84626 0.380195 0
M  V30 1061 C 97.7766 -3.21709 1.05929 0
M  V30 1062 C 96.8226 -3.64913 2.20773 0
M  V30 1063 S 97.6556 -3.74203 3.83056 0
M  V30 1064 C 98.8116 -5.12986 3.58603 0
M  V30 1065 H 99.0446 -1.91232 2.27635 0
M  V30 1066 H 96.5776 -0.899263 1.25509 0
M  V30 1067 H 98.5356 -4.00236 0.912203 0
M  V30 1068 H 97.1966 -3.13848 0.125883 0
M  V30 1069 H 96.3896 -4.63606 1.97699 0
M  V30 1070 H 95.9916 -2.93593 2.31688 0
M  V30 1071 H 98.2836 -5.99339 3.15909 0
M  V30 1072 H 99.2266 -5.41088 4.5676 0
M  V30 1073 H 99.6346 -4.82694 2.9269 0
M  V30 1074 N 99.0327 -1.24633 -0.964593 0
M  V30 1075 C 99.9627 -1.06611 -2.07741 0
M  V30 1076 C 100.944 0.0218666 -1.70086 0
M  V30 1077 O 102.129 -0.145793 -1.93652 0
M  V30 1078 C 99.2587 -0.673444 -3.40708 0
M  V30 1079 C 98.2127 -1.71054 -3.92332 0
M  V30 1080 C 97.5387 -1.17285 -5.21678 0
M  V30 1081 C 98.8387 -3.10718 -4.19824 0
M  V30 1082 H 100.533 -1.99693 -2.23076 0
M  V30 1083 H 98.0787 -0.96152 -1.07195 0
M  V30 1084 H 100.032 -0.534345 -4.17998 0
M  V30 1085 H 98.7557 0.293073 -3.25282 0
M  V30 1086 H 97.4147 -1.83791 -3.17201 0
M  V30 1087 H 97.0627 -0.196847 -5.02615 0
M  V30 1088 H 96.7627 -1.86592 -5.57187 0
M  V30 1089 H 98.2867 -1.04593 -6.01575 0
M  V30 1090 H 99.7007 -3.01192 -4.87808 0
M  V30 1091 H 98.0977 -3.77406 -4.66567 0
M  V30 1092 H 99.1677 -3.58524 -3.26479 0
M  V30 1093 N 100.511 1.16574 -1.06058 0
M  V30 1094 C 101.757 1.87324 -0.777022 0
M  V30 1095 C 102.09 1.81351 0.694645 0
M  V30 1096 O 101.365 1.22753 1.50871 0
M  V30 1097 C 101.648 3.36991 -1.26922 0
M  V30 1098 C 101.501 3.51667 -2.80447 0
M  V30 1099 C 102.82 4.3131 -0.87521 0
M  V30 1100 H 99.9388 0.680191 -0.28374 0
M  V30 1101 H 102.581 1.37036 -1.3161 0
M  V30 1102 H 100.731 3.79949 -0.81063 0
M  V30 1103 H 102.403 3.17664 -3.34495 0
M  V30 1104 H 100.646 2.93656 -3.19294 0
M  V30 1105 H 101.317 4.56766 -3.0995 0
M  V30 1106 H 103.793 3.9624 -1.27014 0
M  V30 1107 H 102.669 5.34545 -1.2471 0
M  V30 1108 H 102.93 4.41552 0.220071 0
M  V30 1109 N 101.989 0.842826 1.3317 0
M  V30 1110 C 103.238 0.436738 1.96915 0
M  V30 1111 C 103.551 -1.01025 1.67491 0
M  V30 1112 O 104.757 -1.5212 2.24881 0
M  V30 1113 C 103.213 0.730021 3.52418 0
M  V30 1114 C 102.821 2.19195 3.90714 0
M  V30 1115 C 104.565 0.391076 4.22695 0
M  V30 1116 C 102.472 2.42907 5.39212 0
M  V30 1117 H 101.402 0.15958 0.736919 0
M  V30 1118 H 104.053 1.03196 1.51733 0
M  V30 1119 H 102.435 0.0643755 3.95948 0
M  V30 1120 H 103.609 2.8984 3.58231 0
M  V30 1121 H 101.924 2.49425 3.33431 0
M  V30 1122 H 104.521 0.545817 5.31907 0
M  V30 1123 H 104.864 -0.666294 4.10933 0
M  V30 1124 H 105.397 1.01212 3.84709 0
M  V30 1125 H 102.136 3.47224 5.55982 0
M  V30 1126 H 101.656 1.76827 5.73142 0
M  V30 1127 H 103.335 2.2626 6.06148 0
M  V30 1128 N 103.467 -1.45747 0.599634 0
M  V30 1129 C 104.43 -2.28917 -0.113835 0
M  V30 1130 C 105.43 -1.3933 -0.802729 0
M  V30 1131 O 106.62 -1.61534 -0.652103 0
M  V30 1132 C 103.752 -3.20152 -1.17114 0
M  V30 1133 H 104.945 -2.93478 0.617289 0
M  V30 1134 H 102.498 -1.52137 0.358327 0
M  V30 1135 H 103.233 -2.60374 -1.93329 0
M  V30 1136 H 103.018 -3.86133 -0.681468 0
M  V30 1137 H 104.508 -3.82708 -1.67105 0
M  V30 1138 N 104.945 -0.338344 -1.53925 0
M  V30 1139 C 106.185 0.260168 -2.02737 0
M  V30 1140 C 106.549 1.48181 -1.22092 0
M  V30 1141 O 107.75 2.15416 -1.60777 0
M  V30 1142 C 106.021 0.571627 -3.52799 0
M  V30 1143 S 107.58 1.14769 -4.23525 0
M  V30 1144 H 104.398 0.077791 -0.706732 0
M  V30 1145 H 107 -0.474899 -1.89644 0
M  V30 1146 H 105.704 -0.325392 -4.09108 0
M  V30 1147 H 105.235 1.3365 -3.70002 0
M  V30 1148 H 107.25 2.43372 -4.32417 0
M  V30 1149 N 106.423 1.57458 -0.0668435 0
M  V30 1150 C 107.371 2.13639 0.919851 0
M  V30 1151 C 108.365 1.07204 1.31163 0
M  V30 1152 O 109.571 1.25591 1.28945 0
M  V30 1153 H 105.946 0.683048 0.314562 0
M  V30 1154 H 107.917 2.95415 0.421047 0
M  V30 1155 C 106.666 2.70892 2.17975 0
M  V30 1156 H 105.989 3.5246 1.88711 0
M  V30 1157 H 107.429 3.13803 2.85138 0
M  V30 1158 C 105.888 1.65414 2.93496 0
M  V30 1159 O 106.418 1.07619 3.87015 0
M  V30 1160 N 104.624 1.36564 2.56512 0
M  V30 1161 H 104.171 1.83751 1.80536 0
M  V30 1162 H 104.129 0.66223 3.07347 0
M  V30 1163 N 107.901 -0.206675 1.56239 0
M  V30 1164 C 109.129 -0.945345 1.8404 0
M  V30 1165 C 109.544 -1.77336 0.647885 0
M  V30 1166 O 108.901 -1.78425 -0.383511 0
M  V30 1167 C 108.952 -1.8509 3.10522 0
M  V30 1168 O 108.673 -1.05634 4.25174 0
M  V30 1169 C 110.174 -2.70222 3.51418 0
M  V30 1170 H 107.394 -0.276372 0.61144 0
M  V30 1171 H 109.938 -0.217417 2.03341 0
M  V30 1172 H 108.093 -2.53259 2.93153 0
M  V30 1173 H 108.507 -1.67238 4.97124 0
M  V30 1174 H 109.981 -3.29438 4.42916 0
M  V30 1175 H 110.458 -3.43358 2.73864 0
M  V30 1176 H 111.064 -2.07443 3.71278 0
M  V30 1177 N 109.379 -1.50304 -0.473955 0
M  V30 1178 C 110.342 -1.6841 -1.55469 0
M  V30 1179 C 111.342 -0.554905 -1.50922 0
M  V30 1180 O 112.532 -0.821882 -1.53593 0
M  V30 1181 C 109.664 -1.70667 -2.95102 0
M  V30 1182 H 110.857 -2.64828 -1.40733 0
M  V30 1183 H 108.41 -1.39742 -0.700132 0
M  V30 1184 H 109.145 -0.75932 -3.15285 0
M  V30 1185 H 108.93 -2.52698 -2.9981 0
M  V30 1186 H 110.42 -1.8664 -3.73571 0
M  V30 1187 N 110.857 0.726932 -1.39834 0
M  V30 1188 C 112.085 1.51613 -1.40787 0
M  V30 1189 C 112.5 1.88799 -0.00451505 0
M  V30 1190 O 111.857 1.54662 0.968809 0
M  V30 1191 C 111.908 2.79863 -2.28821 0
M  V30 1192 O 111.629 2.44253 -3.63692 0
M  V30 1193 C 113.13 3.73837 -2.38245 0
M  V30 1194 H 110.35 0.468264 -0.480593 0
M  V30 1195 H 112.894 0.897607 -1.83748 0
M  V30 1196 H 111.049 3.38027 -1.89252 0
M  V30 1197 H 111.463 3.26695 -4.1033 0
M  V30 1198 H 112.937 4.60699 -3.04073 0
M  V30 1199 H 113.414 4.16153 -1.40403 0
M  V30 1200 H 114.02 3.21589 -2.78317 0
M  V30 1201 N 112.336 1.25143 0.95797 0
M  V30 1202 C 113.299 1.05321 2.03569 0
M  V30 1203 C 114.299 0.007152 1.60798 0
M  V30 1204 O 115.489 0.24903 1.72411 0
M  V30 1205 C 112.621 0.598394 3.35607 0
M  V30 1206 H 113.814 2.00986 2.22586 0
M  V30 1207 H 111.367 1.07502 1.13459 0
M  V30 1208 H 112.102 -0.361014 3.22284 0
M  V30 1209 H 111.887 1.35351 3.67998 0
M  V30 1210 H 113.377 0.48104 4.1482 0
M  V30 1211 N 113.814 -1.1601 1.06675 0
M  V30 1212 C 114.777 -2.18724 0.685001 0
M  V30 1213 C 115.777 -1.58496 -0.271246 0
M  V30 1214 O 116.967 -1.74119 -0.0531156 0
M  V30 1215 C 114.099 -3.40899 0.00853648 0
M  V30 1216 H 115.292 -2.54011 1.59431 0
M  V30 1217 H 112.845 -1.30352 0.862441 0
M  V30 1218 H 113.58 -3.11173 -0.913337 0
M  V30 1219 H 113.365 -3.8587 0.696204 0
M  V30 1220 H 114.855 -4.16886 -0.24414 0
M  V30 1221 N 115.292 -0.849877 -1.32721 0
M  V30 1222 C 116.255 -0.296122 -2.27279 0
M  V30 1223 C 117.255 0.541458 -1.5141 0
M  V30 1224 O 118.445 0.353658 -1.70572 0
M  V30 1225 C 115.577 0.581579 -3.35902 0
M  V30 1226 H 116.77 -1.13064 -2.77771 0
M  V30 1227 H 114.323 -0.62383 -1.43311 0
M  V30 1228 H 115.058 1.43809 -2.9067 0
M  V30 1229 H 114.843 -0.0178814 -3.92096 0
M  V30 1230 H 116.333 0.961951 -4.0637 0
M  V30 1231 N 116.77 1.45427 -0.607355 0
M  V30 1232 C 117.7 2.3329 0.0989352 0
M  V30 1233 C 118.681 1.46816 0.859007 0
M  V30 1234 O 119.866 1.75588 0.829604 0
M  V30 1235 C 116.996 3.29518 1.09705 0
M  V30 1236 C 115.95 4.25626 0.450206 0
M  V30 1237 C 115.276 5.11542 1.55655 0
M  V30 1238 C 116.576 5.18505 -0.628455 0
M  V30 1239 H 118.27 2.92595 -0.634716 0
M  V30 1240 H 115.816 1.40696 -0.306681 0
M  V30 1241 H 117.769 3.89855 1.59971 0
M  V30 1242 H 116.493 2.68372 1.86129 0
M  V30 1243 H 115.152 3.66586 -0.0315886 0
M  V30 1244 H 114.8 4.46765 2.31107 0
M  V30 1245 H 114.5 5.76647 1.12925 0
M  V30 1246 H 116.024 5.74748 2.06148 0
M  V30 1247 H 117.438 5.72916 -0.209877 0
M  V30 1248 H 115.835 5.92085 -0.977489 0
M  V30 1249 H 116.905 4.60948 -1.50514 0
M  V30 1250 N 118.248 0.346503 1.53744 0
M  V30 1251 C 119.478 -0.250047 2.05081 0
M  V30 1252 C 119.886 -1.44529 1.22098 0
M  V30 1253 O 119.229 -1.81992 0.249917 0
M  V30 1254 C 119.291 -0.725934 3.52094 0
M  V30 1255 C 118.955 0.350053 4.55657 0
M  V30 1256 C 119.952 1.19372 5.0601 0
M  V30 1257 C 117.637 0.504827 4.99757 0
M  V30 1258 C 119.631 2.17768 5.99046 0
M  V30 1259 C 117.318 1.49218 5.92602 0
M  V30 1260 C 118.316 2.32706 6.42135 0
M  V30 1261 O 118.004 3.2976 7.33153 0
M  V30 1262 H 117.736 -0.0515469 0.674032 0
M  V30 1263 H 120.29 0.497559 1.99282 0
M  V30 1264 H 118.52 -1.52483 3.55367 0
M  V30 1265 H 120.209 -1.24336 3.86388 0
M  V30 1266 H 120.975 1.08525 4.72702 0
M  V30 1267 H 116.854 -0.135178 4.60802 0
M  V30 1268 H 120.398 2.82971 6.37631 0
M  V30 1269 H 116.295 1.6012 6.25325 0
M  V30 1270 H 117.063 3.25265 7.51096 0
M  V30 1271 N 119.726 -1.57421 0.075193 0
M  V30 1272 C 121.003 -1.85029 -0.634329 0
M  V30 1273 C 121.383 -0.968305 -1.87582 0
M  V30 1274 O 120.731 -0.0354749 -2.28472 0
M  V30 1275 C 120.941 -3.35286 -0.968742 0
M  V30 1276 C 122.289 -4.02875 -1.34077 0
M  V30 1277 O 123.313 -3.40051 -1.06037 0
M  V30 1278 O 122.172 -5.13691 -1.86506 0
M  V30 1279 H 119.266 -0.7645 -0.315387 0
M  V30 1280 H 121.812 -1.69366 0.106382 0
M  V30 1281 H 120.584 -3.91203 -0.0871376 0
M  V30 1282 H 120.207 -3.56223 -1.7661 0
M  V30 1283 N 121.204 0.198386 -1.56346 0
M  V30 1284 C 122.453 0.917451 -1.79627 0
M  V30 1285 C 122.766 1.8456 -0.64784 0
M  V30 1286 O 123.972 2.60504 -0.764859 0
M  V30 1287 C 122.428 1.68175 -3.18191 0
M  V30 1288 C 122.036 0.798589 -4.40825 0
M  V30 1289 C 123.78 2.39065 -3.50782 0
M  V30 1290 C 121.687 1.56157 -5.70411 0
M  V30 1291 H 120.617 0.346317 -0.669762 0
M  V30 1292 H 123.268 0.170801 -1.82703 0
M  V30 1293 H 121.65 2.47216 -3.09354 0
M  V30 1294 H 122.824 0.0470665 -4.60776 0
M  V30 1295 H 121.139 0.200686 -4.15916 0
M  V30 1296 H 123.736 2.96692 -4.44835 0
M  V30 1297 H 124.079 3.13091 -2.74371 0
M  V30 1298 H 124.612 1.66993 -3.61052 0
M  V30 1299 H 121.351 0.864142 -6.49779 0
M  V30 1300 H 120.871 2.2871 -5.54483 0
M  V30 1301 H 122.55 2.11622 -6.11412 0
M  V30 1302 N 122.682 1.50554 0.465978 0
M  V30 1303 C 124.098 1.38093 0.800154 0
M  V30 1304 C 124.298 0.440988 1.96615 0
M  V30 1305 O 123.354 -0.114499 2.5224 0
M  V30 1306 C 124.667 2.79565 1.10742 0
M  V30 1307 C 126.215 2.88516 1.21357 0
M  V30 1308 C 126.69 4.30833 1.55393 0
M  V30 1309 N 128.181 4.33807 1.62375 0
M  V30 1310 C 128.916 5.40927 1.90225 0
M  V30 1311 N 128.412 6.58247 2.16062 0
M  V30 1312 N 130.205 5.28376 1.9177 0
M  V30 1313 H 122.356 2.10237 -0.302366 0
M  V30 1314 H 124.619 0.945203 -0.0727746 0
M  V30 1315 H 124.325 3.50208 0.323661 0
M  V30 1316 H 124.199 3.17125 2.04234 0
M  V30 1317 H 126.586 2.1809 1.98799 0
M  V30 1318 H 126.667 2.54492 0.258321 0
M  V30 1319 H 126.311 5.01799 0.784889 0
M  V30 1320 H 126.241 4.62347 2.52076 0
M  V30 1321 H 128.732 3.49212 1.44427 0
M  V30 1322 H 129.045 7.3569 2.36601 0
M  V30 1323 H 127.39 6.61413 2.13444 0
M  V30 1324 H 130.581 4.35715 1.71085 0
M  V30 1325 H 130.754 6.11944 2.13139 0
M  V30 1326 N 124.16 -0.719506 1.40217 0
M  V30 1327 C 125.07 -1.86378 1.42479 0
M  V30 1328 C 126.086 -1.71073 0.317834 0
M  V30 1329 O 127.262 -1.93406 0.561794 0
M  V30 1330 C 124.327 -3.22136 1.28178 0
M  V30 1331 C 123.388 -3.49723 2.48982 0
M  V30 1332 C 122.621 -4.79004 2.35353 0
M  V30 1333 O 122.844 -5.53821 1.36524 0
M  V30 1334 O 121.778 -5.06839 3.2465 0
M  V30 1335 H 125.604 -1.87425 2.38968 0
M  V30 1336 H 123.189 -0.869405 1.21498 0
M  V30 1337 H 125.071 -4.03234 1.22395 0
M  V30 1338 H 123.746 -3.21825 0.347934 0
M  V30 1339 H 122.653 -2.6865 2.60342 0
M  V30 1340 H 123.986 -3.54828 3.41113 0
M  V30 1341 N 125.638 -1.25649 -0.95132 0
M  V30 1342 C 126.585 -1.06323 -2.04851 0
M  V30 1343 C 127.555 0.0286491 -1.66075 0
M  V30 1344 O 128.74 -0.12917 -1.90362 0
M  V30 1345 C 125.88 -0.691529 -3.381 0
M  V30 1346 C 124.993 -1.85861 -3.89974 0
M  V30 1347 C 124.128 -1.43096 -5.11563 0
M  V30 1348 C 123.167 -2.56696 -5.55674 0
M  V30 1349 N 122.304 -2.14684 -6.68472 0
M  V30 1350 H 127.144 -2.00222 -2.20715 0
M  V30 1351 H 124.681 -0.997027 -1.08156 0
M  V30 1352 H 126.639 -0.456963 -4.1469 0
M  V30 1353 H 125.269 0.210474 -3.22113 0
M  V30 1354 H 124.321 -2.20639 -3.09875 0
M  V30 1355 H 125.633 -2.71161 -4.18657 0
M  V30 1356 H 124.787 -1.15624 -5.9558 0
M  V30 1357 H 123.526 -0.548722 -4.84603 0
M  V30 1358 H 122.531 -2.84909 -4.7022 0
M  V30 1359 H 123.756 -3.45503 -5.8464 0
M  V30 1360 H 121.702 -1.28881 -6.43215 0
M  V30 1361 H 121.619 -2.9353 -6.96689 0
M  V30 1362 H 122.887 -1.90397 -7.5589 0
M  V30 1363 N 127.117 1.15442 -1.07289 0
M  V30 1364 C 128.047 2.22312 -0.714107 0
M  V30 1365 C 129.028 1.67467 0.298155 0
M  V30 1366 O 130.213 1.93445 0.171048 0
M  V30 1367 C 127.343 3.47124 -0.110448 0
M  V30 1368 C 126.297 4.14926 -1.04979 0
M  V30 1369 C 125.623 5.33807 -0.308924 0
M  V30 1370 C 126.923 4.64762 -2.38314 0
M  V30 1371 H 128.617 2.5258 -1.6076 0
M  V30 1372 H 126.163 1.21404 -0.77441 0
M  V30 1373 H 128.116 4.21124 0.152482 0
M  V30 1374 H 126.84 3.16187 0.81812 0
M  V30 1375 H 125.499 3.42866 -1.29764 0
M  V30 1376 H 125.147 4.99126 0.623084 0
M  V30 1377 H 124.847 5.80113 -0.935036 0
M  V30 1378 H 126.371 6.10576 -0.0537771 0
M  V30 1379 H 127.785 5.30292 -2.1786 0
M  V30 1380 H 126.182 5.21728 -2.96514 0
M  V30 1381 H 127.252 3.80434 -3.00663 0
M  V30 1382 N 128.595 0.856903 1.32268 0
M  V30 1383 C 129.872 0.382583 1.91822 0
M  V30 1384 C 130.252 -1.13407 1.78051 0
M  V30 1385 O 129.6 -1.95673 1.18001 0
M  V30 1386 C 129.81 0.849446 3.38505 0
M  V30 1387 C 131.158 0.867936 4.15634 0
M  V30 1388 O 132.182 0.794232 3.47232 0
M  V30 1389 O 131.041 0.972286 5.37781 0
M  V30 1390 H 128.135 0.112014 0.819379 0
M  V30 1391 H 130.681 0.943952 1.41024 0
M  V30 1392 H 129.453 1.89267 3.42482 0
M  V30 1393 H 129.076 0.265652 3.96712 0
M  V30 1394 N 130.073 -1.45103 0.615059 0
M  V30 1395 C 131.322 -2.01396 0.110718 0
M  V30 1396 C 131.635 -1.48834 -1.26916 0
M  V30 1397 O 132.841 -1.97152 -1.86664 0
M  V30 1398 C 131.297 -3.59599 0.14723 0
M  V30 1399 C 130.905 -4.21158 1.52743 0
M  V30 1400 C 132.649 -4.23428 -0.30148 0
M  V30 1401 C 130.556 -5.71535 1.51992 0
M  V30 1402 H 129.486 -0.753061 0.0376241 0
M  V30 1403 H 132.137 -1.66494 0.77149 0
M  V30 1404 H 130.519 -3.91724 -0.580339 0
M  V30 1405 H 131.693 -4.00594 2.2773 0
M  V30 1406 H 130.008 -3.69552 1.91886 0
M  V30 1407 H 132.605 -5.33703 -0.326392 0
M  V30 1408 H 132.948 -3.94629 -1.32565 0
M  V30 1409 H 133.481 -3.96047 0.373065 0
M  V30 1410 H 130.22 -6.05044 2.52193 0
M  V30 1411 H 129.74 -5.94268 0.81274 0
M  V30 1412 H 131.419 -6.34873 1.24681 0
M  V30 1413 N 131.551 -0.354651 -1.53558 0
M  V30 1414 C 132.962 0.126902 -1.86268 0
M  V30 1415 C 133.313 1.49075 -1.27558 0
M  V30 1416 O 132.438 2.08105 -0.5934 0
M  V30 1417 C 133.033 0.237046 -3.3797 0
M  V30 1418 C 131.592 0.662842 -3.70518 0
M  V30 1419 C 130.739 -0.196652 -2.76602 0
M  V30 1420 H 133.69 -0.573849 -1.47962 0
M  V30 1421 H 133.711 1.06259 -3.65362 0
M  V30 1422 H 133.223 -0.755725 -3.80671 0
M  V30 1423 H 131.324 1.66424 -3.33367 0
M  V30 1424 H 131.437 0.445034 -4.77029 0
M  V30 1425 H 129.801 0.332763 -2.52517 0
M  V30 1426 H 130.584 -1.18676 -3.22135 0
M  V30 1427 N 133.029 1.57378 -0.0835403 0
M  V30 1428 C 134.275 1.94217 0.583733 0
M  V30 1429 C 134.608 0.964653 1.68547 0
M  V30 1430 O 133.883 -0.00422258 1.945 0
M  V30 1431 C 134.166 3.41253 1.14972 0
M  V30 1432 C 134.019 4.49768 0.0538277 0
M  V30 1433 C 135.338 3.89352 2.05166 0
M  V30 1434 H 132.457 0.706233 0.210724 0
M  V30 1435 H 135.099 1.89392 -0.1519 0
M  V30 1436 H 133.249 3.45496 1.77665 0
M  V30 1437 H 134.921 4.57641 -0.579851 0
M  V30 1438 H 133.164 4.29432 -0.614068 0
M  V30 1439 H 133.835 5.49817 0.490452 0
M  V30 1440 H 136.311 3.87189 1.52393 0
M  V30 1441 H 135.187 4.92822 2.41698 0
M  V30 1442 H 135.448 3.27973 2.96456 0
M  V30 1443 N 134.507 -0.190092 1.56449 0
M  V30 1444 C 135.756 -0.907912 1.80111 0
M  V30 1445 C 136.069 -1.84214 0.657619 0
M  V30 1446 O 137.275 -2.60094 0.778663 0
M  V30 1447 C 135.731 -1.66485 3.19078 0
M  V30 1448 C 135.339 -0.7752 4.41242 0
M  V30 1449 C 137.083 -2.37201 3.52045 0
M  V30 1450 C 134.99 -1.53129 5.71231 0
M  V30 1451 H 133.92 -0.34276 0.671589 0
M  V30 1452 H 136.571 -0.161109 1.82791 0
M  V30 1453 H 134.953 -2.45572 3.10661 0
M  V30 1454 H 136.127 -0.0226298 4.60794 0
M  V30 1455 H 134.442 -0.178627 4.16017 0
M  V30 1456 H 137.039 -2.94329 4.46402 0
M  V30 1457 H 137.382 -3.11632 2.76028 0
M  V30 1458 H 137.915 -1.65075 3.61932 0
M  V30 1459 H 134.654 -0.82967 6.50228 0
M  V30 1460 H 134.174 -2.25767 5.55688 0
M  V30 1461 H 135.853 -2.08377 6.12526 0
M  V30 1462 N 135.985 -1.50799 -0.457987 0
M  V30 1463 C 137.233 -1.62121 -1.2067 0
M  V30 1464 C 137.554 -0.329793 -1.92191 0
M  V30 1465 O 136.824 0.653409 -1.84682 0
M  V30 1466 H 135.404 -0.597441 -0.448411 0
M  V30 1467 H 138.066 -1.87637 -0.527096 0
M  V30 1468 H 137.162 -2.43882 -1.94751 0
M  V30 1469 N 137.463 0.71206 -1.40597 0
M  V30 1470 C 138.709 1.47416 -1.39271 0
M  V30 1471 C 139.042 1.942 0.00388791 0
M  V30 1472 O 138.317 1.68403 0.973179 0
M  V30 1473 C 138.6 2.69774 -2.38525 0
M  V30 1474 C 138.453 2.28861 -3.87224 0
M  V30 1475 C 139.772 3.71939 -2.35264 0
M  V30 1476 H 136.891 0.534713 -0.5072 0
M  V30 1477 H 139.533 0.812375 -1.71757 0
M  V30 1478 H 137.683 3.26238 -2.10953 0
M  V30 1479 H 139.355 1.77852 -4.25636 0
M  V30 1480 H 137.598 1.60824 -4.02887 0
M  V30 1481 H 138.269 3.16584 -4.52193 0
M  V30 1482 H 140.745 3.25113 -2.59694 0
M  V30 1483 H 139.621 4.55186 -3.06753 0
M  V30 1484 H 139.882 4.20484 -1.36549 0
M  V30 1485 N 138.941 1.26152 0.944643 0
M  V30 1486 C 140.19 1.10883 1.68487 0
M  V30 1487 C 140.503 -0.348153 1.92477 0
M  V30 1488 O 141.709 -0.621459 2.64292 0
M  V30 1489 C 140.165 1.93624 3.03377 0
M  V30 1490 C 139.773 3.43875 2.87148 0
M  V30 1491 C 141.517 1.86954 3.81115 0
M  V30 1492 C 139.424 4.18875 4.1749 0
M  V30 1493 H 138.354 0.41135 0.631907 0
M  V30 1494 H 141.005 1.50433 1.05082 0
M  V30 1495 H 139.387 1.46904 3.67743 0
M  V30 1496 H 140.561 3.98338 2.31653 0
M  V30 1497 H 138.876 3.51744 2.22856 0
M  V30 1498 H 141.473 2.40275 4.77673 0
M  V30 1499 H 141.816 0.839518 4.07747 0
M  V30 1500 H 142.349 2.31477 3.23517 0
M  V30 1501 H 139.088 5.22332 3.96043 0
M  V30 1502 H 138.608 3.69193 4.72712 0
M  V30 1503 H 140.287 4.27134 4.85968 0
M  V30 1504 N 140.419 -1.14872 1.07899 0
M  V30 1505 C 141.351 -2.19425 0.662231 0
M  V30 1506 C 142.364 -1.60231 -0.288079 0
M  V30 1507 O 143.553 -1.78336 -0.076534 0
M  V30 1508 C 140.653 -3.38867 -0.0470695 0
M  V30 1509 C 139.826 -4.27597 0.920831 0
M  V30 1510 C 138.885 -5.25616 0.247805 0
M  V30 1511 O 137.911 -5.62189 0.890599 0
M  V30 1512 N 139.113 -5.71746 -1.00435 0
M  V30 1513 H 141.878 -2.55797 1.56166 0
M  V30 1514 H 139.439 -1.30042 0.964404 0
M  V30 1515 H 141.431 -4.01497 -0.50813 0
M  V30 1516 H 140.001 -3.00864 -0.848523 0
M  V30 1517 H 139.221 -3.61982 1.56087 0
M  V30 1518 H 140.509 -4.83748 1.57688 0
M  V30 1519 H 139.907 -5.44153 -1.54642 0
M  V30 1520 H 138.464 -6.36389 -1.40899 0
M  V30 1521 N 141.898 -0.863906 -1.31812 0
M  V30 1522 C 143.309 -0.52522 -1.7916 0
M  V30 1523 C 143.66 0.957518 -1.71248 0
M  V30 1524 O 142.785 1.74734 -1.27659 0
M  V30 1525 C 143.38 -0.9466 -3.25307 0
M  V30 1526 C 141.939 -0.659668 -3.70574 0
M  V30 1527 C 141.086 -1.14126 -2.52726 0
M  V30 1528 H 144.037 -1.05022 -1.1898 0
M  V30 1529 H 144.058 -0.266766 -3.79564 0
M  V30 1530 H 143.57 -2.02579 -3.31034 0
M  V30 1531 H 141.671 0.408416 -3.70355 0
M  V30 1532 H 141.784 -1.23245 -4.62977 0
M  V30 1533 H 140.148 -0.561216 -2.4844 0
M  V30 1534 H 140.931 -2.22775 -2.61201 0
M  V30 1535 N 143.376 1.44774 -0.622745 0
M  V30 1536 C 144.624 2.01721 -0.123655 0
M  V30 1537 C 144.945 1.49172 1.25589 0
M  V30 1538 O 144.215 0.691974 1.83272 0
M  V30 1539 H 142.795 0.745777 -0.0427225 0
M  V30 1540 H 145.457 1.77382 -0.807559 0
M  V30 1541 H 144.553 3.11984 -0.0849534 0
M  V30 1542 N 144.854 0.36279 1.53368 0
M  V30 1543 C 146.079 -0.231226 2.06107 0
M  V30 1544 C 146.504 -1.419 1.23474 0
M  V30 1545 O 145.862 -1.79524 0.253128 0
M  V30 1546 C 145.91 -0.605523 3.5548 0
M  V30 1547 O 145.014 -1.70312 3.7559 0
M  V30 1548 H 144.355 -0.034327 0.663112 0
M  V30 1549 H 146.885 0.522584 1.97814 0
M  V30 1550 H 146.895 -0.877314 3.98456 0
M  V30 1551 H 145.57 0.263004 4.15068 0
M  V30 1552 H 144.147 -1.4271 3.44512 0
M  V30 1553 N 146.332 -1.57332 0.0918853 0
M  V30 1554 C 147.748 -1.57389 -0.264766 0
M  V30 1555 C 147.948 -1.10281 -1.68643 0
M  V30 1556 O 147.004 -0.777801 -2.40222 0
M  V30 1557 C 148.317 -3.00648 -0.0561195 0
M  V30 1558 C 149.865 -3.12754 -0.124116 0
M  V30 1559 C 150.34 -4.57965 0.0564972 0
M  V30 1560 N 151.831 -4.632 0.00155611 0
M  V30 1561 C 152.566 -5.73281 0.116598 0
M  V30 1562 N 152.062 -6.92208 0.286294 0
M  V30 1563 N 153.855 -5.6207 0.0580973 0
M  V30 1564 H 146.006 -1.86262 1.02079 0
M  V30 1565 H 148.269 -0.859579 0.399786 0
M  V30 1566 H 147.975 -3.393 0.925669 0
M  V30 1567 H 147.849 -3.68623 -0.799823 0
M  V30 1568 H 150.236 -2.73976 -1.09641 0
M  V30 1569 H 150.317 -2.47377 0.651024 0
M  V30 1570 H 149.961 -4.97436 1.02564 0
M  V30 1571 H 149.891 -5.21399 -0.738297 0
M  V30 1572 H 152.382 -3.77686 -0.127192 0
M  V30 1573 H 152.695 -7.71934 0.365676 0
M  V30 1574 H 151.04 -6.94254 0.32192 0
M  V30 1575 H 154.231 -4.68043 -0.0733204 0
M  V30 1576 H 154.404 -6.47824 0.151203 0
M  V30 1577 N 147.81 0.181792 -1.56548 0
M  V30 1578 C 148.773 1.20894 -1.94724 0
M  V30 1579 C 149.773 1.37738 -0.829747 0
M  V30 1580 O 150.963 1.35323 -1.09697 0
M  V30 1581 C 148.095 2.57593 -2.23291 0
M  V30 1582 H 149.288 0.882275 -2.86629 0
M  V30 1583 H 146.841 0.423838 -1.50444 0
M  V30 1584 H 147.576 2.95291 -1.34067 0
M  V30 1585 H 147.361 2.46735 -3.04736 0
M  V30 1586 H 148.851 3.31637 -2.53785 0
M  V30 1587 N 149.288 1.51039 0.449983 0
M  V30 1588 C 150.251 1.70863 1.5277 0
M  V30 1589 C 151.251 0.578846 1.5002 0
M  V30 1590 O 152.441 0.846213 1.52266 0
M  V30 1591 C 149.573 1.75341 2.9235 0
M  V30 1592 H 150.766 2.67034 1.36502 0
M  V30 1593 H 148.319 1.40838 0.677812 0
M  V30 1594 H 149.054 0.809383 3.14037 0
M  V30 1595 H 148.839 2.57436 2.95752 0
M  V30 1596 H 150.329 1.92559 3.70555 0
M  V30 1597 N 150.766 -0.704594 1.40972 0
M  V30 1598 C 151.696 -1.83124 1.44872 0
M  V30 1599 C 152.677 -1.67281 0.30838 0
M  V30 1600 O 153.862 -1.87149 0.518556 0
M  V30 1601 C 150.992 -3.21181 1.32136 0
M  V30 1602 C 149.946 -3.51714 2.43888 0
M  V30 1603 C 149.272 -4.89032 2.16222 0
M  V30 1604 C 150.572 -3.516 3.86232 0
M  V30 1605 H 152.266 -1.80117 2.39161 0
M  V30 1606 H 149.812 -0.865145 1.15114 0
M  V30 1607 H 151.765 -3.99702 1.33479 0
M  V30 1608 H 150.489 -3.24791 0.343279 0
M  V30 1609 H 149.148 -2.75539 2.41813 0
M  V30 1610 H 148.796 -4.89256 1.16778 0
M  V30 1611 H 148.496 -5.10426 2.911 0
M  V30 1612 H 150.02 -5.69873 2.19265 0
M  V30 1613 H 151.434 -4.2014 3.9007 0
M  V30 1614 H 149.831 -3.84523 4.60719 0
M  V30 1615 H 150.901 -2.50757 4.15029 0
M  V30 1616 N 152.244 -1.26651 -0.937939 0
M  V30 1617 C 153.191 -1.0849 -2.03712 0
M  V30 1618 C 154.161 0.011033 -1.66096 0
M  V30 1619 O 155.346 -0.149353 -1.90215 0
M  V30 1620 C 152.486 -0.72735 -3.37348 0
M  V30 1621 C 151.599 -1.89986 -3.87981 0
M  V30 1622 C 150.734 -1.48513 -5.10017 0
M  V30 1623 C 149.773 -2.62575 -5.5292 0
M  V30 1624 N 148.91 -2.21762 -6.66158 0
M  V30 1625 H 153.75 -2.02551 -2.18579 0
M  V30 1626 H 151.287 -1.00844 -1.07093 0
M  V30 1627 H 153.245 -0.50092 -4.14182 0
M  V30 1628 H 151.875 0.176298 -3.22318 0
M  V30 1629 H 150.927 -2.23913 -3.07518 0
M  V30 1630 H 152.239 -2.75586 -4.15757 0
M  V30 1631 H 151.393 -1.21934 -5.94321 0
M  V30 1632 H 150.132 -0.60009 -4.83994 0
M  V30 1633 H 149.137 -2.8988 -4.67172 0
M  V30 1634 H 150.362 -3.51685 -5.80943 0
M  V30 1635 H 148.308 -1.35696 -6.41812 0
M  V30 1636 H 148.225 -3.00903 -6.93537 0
M  V30 1637 H 149.493 -1.98403 -7.53828 0
M  V30 1638 N 153.722 1.14298 -1.08507 0
M  V30 1639 C 154.685 2.17607 -0.719711 0
M  V30 1640 C 155.685 1.58907 0.245997 0
M  V30 1641 O 156.875 1.74181 0.0254081 0
M  V30 1642 C 154.007 3.40842 -0.0627695 0
M  V30 1643 H 155.2 2.51443 -1.63452 0
M  V30 1644 H 152.753 1.28963 -0.88307 0
M  V30 1645 H 153.488 3.12587 0.863716 0
M  V30 1646 H 153.273 3.84713 -0.757504 0
M  V30 1647 H 154.763 4.17221 0.177786 0
M  V30 1648 N 155.201 0.870884 1.31352 0
M  V30 1649 C 156.429 0.49677 2.00848 0
M  V30 1650 C 156.844 -0.910998 1.65367 0
M  V30 1651 O 156.201 -1.59696 0.883374 0
M  V30 1652 C 156.252 0.645308 3.55694 0
M  V30 1653 O 155.973 1.99764 3.89905 0
M  V30 1654 C 157.474 0.272326 4.42463 0
M  V30 1655 H 154.694 0.193462 0.642506 0
M  V30 1656 H 157.238 1.1723 1.67563 0
M  V30 1657 H 155.393 0.0173176 3.87396 0
M  V30 1658 H 155.807 2.00607 4.84621 0
M  V30 1659 H 157.281 0.427208 5.50344 0
M  V30 1660 H 157.758 -0.788587 4.32062 0
M  V30 1661 H 158.364 0.876054 4.1618 0
M  V30 1662 N 156.679 -1.44442 0.630414 0
M  V30 1663 C 158.095 -1.56832 0.295973 0
M  V30 1664 C 158.295 -1.61806 -1.20088 0
M  V30 1665 O 157.351 -1.5607 -1.9849 0
M  V30 1666 C 158.664 -2.84031 0.987264 0
M  V30 1667 C 160.212 -2.97742 0.96534 0
M  V30 1668 C 160.687 -4.27743 1.63708 0
M  V30 1669 N 162.178 -4.34555 1.60364 0
M  V30 1670 C 162.913 -5.33862 2.09234 0
M  V30 1671 N 162.409 -6.39578 2.66292 0
M  V30 1672 N 164.202 -5.25366 1.99867 0
M  V30 1673 H 156.353 -1.39457 1.60205 0
M  V30 1674 H 158.616 -0.668237 0.672431 0
M  V30 1675 H 158.322 -2.86338 2.04215 0
M  V30 1676 H 158.196 -3.73534 0.524588 0
M  V30 1677 H 160.583 -2.94989 -0.0810639 0
M  V30 1678 H 160.664 -2.09589 1.4665 0
M  V30 1679 H 160.308 -4.31255 2.68293 0
M  V30 1680 H 160.238 -5.14752 1.11076 0
M  V30 1681 H 162.729 -3.58772 1.18705 0
M  V30 1682 H 163.042 -7.11637 3.01317 0
M  V30 1683 H 161.387 -6.40265 2.70343 0
M  V30 1684 H 164.578 -4.41688 1.55013 0
M  V30 1685 H 164.751 -6.02606 2.38265 0
M  V30 1686 N 158.157 -0.370918 -1.53173 0
M  V30 1687 C 159.105 0.488101 -2.27421 0
M  V30 1688 C 160.099 1.07884 -1.30604 0
M  V30 1689 O 161.305 1.02143 -1.48212 0
M  V30 1690 H 157.68 0.176134 -0.731082 0
M  V30 1691 H 159.651 -0.159815 -2.97972 0
M  V30 1692 C 158.4 1.61306 -3.08019 0
M  V30 1693 H 157.723 1.1678 -3.82364 0
M  V30 1694 H 159.163 2.18872 -3.63141 0
M  V30 1695 C 157.622 2.55848 -2.19188 0
M  V30 1696 O 158.152 3.58799 -1.80626 0
M  V30 1697 N 156.358 2.2516 -1.83715 0
M  V30 1698 H 155.905 1.41476 -2.15273 0
M  V30 1699 H 155.863 2.8867 -1.24567 0
M  V30 1700 N 159.635 1.57281 -0.100228 0
M  V30 1701 C 160.583 2.15542 0.874328 0
M  V30 1702 C 161.577 1.09962 1.28859 0
M  V30 1703 O 162.783 1.28298 1.26252 0
M  V30 1704 H 159.158 0.689567 0.300003 0
M  V30 1705 H 161.129 2.96241 0.35829 0
M  V30 1706 C 159.878 2.75454 2.1218 0
M  V30 1707 H 159.201 3.56384 1.81193 0
M  V30 1708 H 160.641 3.19781 2.78417 0
M  V30 1709 C 159.1 1.71602 2.89921 0
M  V30 1710 O 159.63 1.15804 3.84646 0
M  V30 1711 N 157.836 1.41975 2.53558 0
M  V30 1712 H 157.383 1.87539 1.76598 0
M  V30 1713 H 157.341 0.727274 3.05873 0
M  V30 1714 N 161.113 -0.173488 1.56642 0
M  V30 1715 C 162.06 -1.21482 1.96242 0
M  V30 1716 C 163.03 -1.44104 0.826027 0
M  V30 1717 O 164.215 -1.5688 1.08597 0
M  V30 1718 C 161.355 -2.54964 2.32567 0
M  V30 1719 C 160.468 -2.39739 3.59373 0
M  V30 1720 C 159.603 -3.66072 3.84921 0
M  V30 1721 C 158.642 -3.45771 5.05083 0
M  V30 1722 N 157.779 -4.64169 5.26775 0
M  V30 1723 H 162.619 -0.870123 2.85014 0
M  V30 1724 H 160.156 -0.418245 1.41029 0
M  V30 1725 H 162.114 -3.32758 2.5165 0
M  V30 1726 H 160.744 -2.87433 1.46908 0
M  V30 1727 H 159.796 -1.53131 3.48217 0
M  V30 1728 H 161.108 -2.20683 4.47326 0
M  V30 1729 H 160.262 -4.52303 4.0436 0
M  V30 1730 H 159.001 -3.88105 2.9534 0
M  V30 1731 H 158.006 -2.57927 4.85545 0
M  V30 1732 H 159.231 -3.25163 5.96193 0
M  V30 1733 H 157.177 -4.86425 4.40144 0
M  V30 1734 H 157.094 -4.48019 6.08946 0
M  V30 1735 H 158.362 -5.51689 5.5069 0
M  V30 1736 N 162.591 -1.51276 -0.441967 0
M  V30 1737 C 163.84 -1.6295 -1.18871 0
M  V30 1738 C 164.153 -0.349312 -1.92456 0
M  V30 1739 O 165.359 -0.345355 -2.69295 0
M  V30 1740 C 163.815 -2.87759 -2.16155 0
M  V30 1741 C 163.423 -4.22764 -1.48239 0
M  V30 1742 C 165.167 -3.08788 -2.91291 0
M  V30 1743 C 163.074 -5.38728 -2.4398 0
M  V30 1744 H 162.004 -0.606913 -0.447406 0
M  V30 1745 H 164.655 -1.77739 -0.456205 0
M  V30 1746 H 163.037 -2.66593 -2.92821 0
M  V30 1747 H 164.211 -4.54293 -0.771635 0
M  V30 1748 H 162.526 -4.07575 -0.852741 0
M  V30 1749 H 165.123 -3.92599 -3.63002 0
M  V30 1750 H 165.466 -2.21679 -3.5237 0
M  V30 1751 H 165.999 -3.30272 -2.21733 0
M  V30 1752 H 162.738 -6.28082 -1.87598 0
M  V30 1753 H 162.258 -5.1158 -3.13123 0
M  V30 1754 H 163.937 -5.70489 -3.05207 0
M  V30 1755 N 164.069 0.697108 -1.41344 0
M  V30 1756 C 165.317 1.45426 -1.40341 0
M  V30 1757 C 165.638 1.94996 -0.0128787 0
M  V30 1758 O 164.908 1.71599 0.945027 0
M  V30 1759 H 163.488 0.539594 -0.516573 0
M  V30 1760 H 166.15 0.825201 -1.76569 0
M  V30 1761 H 165.246 2.31817 -2.08967 0
M  V30 1762 N 165.547 1.27147 0.931209 0
M  V30 1763 C 166.793 1.13446 1.68101 0
M  V30 1764 C 167.126 -0.319628 1.91552 0
M  V30 1765 O 166.401 -1.23407 1.50336 0
M  V30 1766 C 166.684 1.91482 3.0497 0
M  V30 1767 C 166.537 3.44855 2.88782 0
M  V30 1768 C 167.856 1.71651 4.05246 0
M  V30 1769 H 164.975 0.413498 0.610072 0
M  V30 1770 H 167.617 1.56261 1.08086 0
M  V30 1771 H 165.767 1.55095 3.56199 0
M  V30 1772 H 167.439 3.9105 2.44698 0
M  V30 1773 H 165.682 3.71373 2.24198 0
M  V30 1774 H 166.353 3.94694 3.85902 0
M  V30 1775 H 168.829 2.0337 3.63015 0
M  V30 1776 H 167.705 2.28651 4.99009 0
M  V30 1777 H 167.966 0.663555 4.37092 0
M  V30 1778 N 167.025 -1.13721 1.09112 0
M  V30 1779 C 167.955 -2.21148 0.749385 0
M  V30 1780 C 168.936 -1.6792 -0.271475 0
M  V30 1781 O 170.121 -1.93693 -0.140251 0
M  V30 1782 C 167.251 -3.46905 0.165659 0
M  V30 1783 C 166.205 -4.13203 1.11567 0
M  V30 1784 C 165.531 -5.33248 0.393809 0
M  V30 1785 C 166.831 -4.60912 2.45678 0
M  V30 1786 H 168.525 -2.4999 1.64758 0
M  V30 1787 H 166.071 -1.20156 0.793626 0
M  V30 1788 H 168.024 -4.21313 -0.085466 0
M  V30 1789 H 166.748 -3.17449 -0.767714 0
M  V30 1790 H 165.407 -3.40758 1.35202 0
M  V30 1791 H 165.055 -5.00054 -0.543599 0
M  V30 1792 H 164.755 -5.78552 1.02721 0
M  V30 1793 H 166.279 -6.10413 0.150908 0
M  V30 1794 H 167.693 -5.26759 2.26269 0
M  V30 1795 H 166.09 -5.16944 3.04776 0
M  V30 1796 H 167.16 -3.75603 3.06677 0
M  V30 1797 N 168.503 -0.877838 -1.30888 0
M  V30 1798 C 169.751 -0.491723 -1.96027 0
M  V30 1799 C 170.072 0.960827 -1.69685 0
M  V30 1800 O 169.342 1.67462 -1.01654 0
M  V30 1801 H 167.922 -0.17885 -0.725273 0
M  V30 1802 H 170.584 -1.11935 -1.59551 0
M  V30 1803 H 169.68 -0.656016 -3.05128 0
M  V30 1804 N 169.982 1.44106 -0.638065 0
M  V30 1805 C 171.21 2.06336 -0.152615 0
M  V30 1806 C 171.625 1.47731 1.17563 0
M  V30 1807 O 170.982 0.602806 1.72257 0
M  V30 1808 C 171.033 3.61479 -0.0391491 0
M  V30 1809 O 170.754 4.17903 -1.31487 0
M  V30 1810 C 172.255 4.40757 0.474176 0
M  V30 1811 H 169.475 0.665862 -0.0828776 0
M  V30 1812 H 172.019 1.84862 -0.87443 0
M  V30 1813 H 170.174 3.82191 0.633142 0
M  V30 1814 H 170.588 5.11416 -1.16421 0
M  V30 1815 H 172.062 5.49707 0.502562 0
M  V30 1816 H 172.539 4.12697 1.50258 0
M  V30 1817 H 173.145 4.24979 -0.165102 0
M  V30 1818 N 171.46 0.379036 1.52974 0
M  V30 1819 C 172.39 -0.452706 2.29069 0
M  V30 1820 C 173.371 -1.07237 1.32039 0
M  V30 1821 O 174.556 -1.08708 1.60923 0
M  V30 1822 C 171.686 -1.5856 3.08992 0
M  V30 1823 C 170.64 -1.0925 4.13822 0
M  V30 1824 C 169.966 -2.31668 4.81907 0
M  V30 1825 C 171.266 -0.167702 5.22031 0
M  V30 1826 H 172.96 0.182181 2.98845 0
M  V30 1827 H 170.506 0.0890592 1.43724 0
M  V30 1828 H 172.459 -2.1742 3.6098 0
M  V30 1829 H 171.183 -2.24792 2.36931 0
M  V30 1830 H 169.842 -0.526494 3.628 0
M  V30 1831 H 169.49 -2.96386 4.06404 0
M  V30 1832 H 169.19 -1.9934 5.52754 0
M  V30 1833 H 170.714 -2.91189 5.36695 0
M  V30 1834 H 172.128 -0.664186 5.6944 0
M  V30 1835 H 170.525 0.0653265 6.00064 0
M  V30 1836 H 171.595 0.786347 4.78482 0
M  V30 1837 N 172.938 -1.57226 0.108567 0
M  V30 1838 C 174.186 -1.94448 -0.550853 0
M  V30 1839 C 174.507 -0.992074 -1.67878 0
M  V30 1840 O 173.777 -0.0465 -1.95845 0
M  V30 1841 H 172.357 -0.717897 -0.206479 0
M  V30 1842 H 175.019 -1.94112 0.175062 0
M  V30 1843 H 174.115 -2.97218 -0.952259 0
M  V30 1844 N 174.416 0.165178 -1.56732 0
M  V30 1845 C 175.644 0.896218 -1.86482 0
M  V30 1846 C 176.059 1.75555 -0.694675 0
M  V30 1847 O 175.416 1.79379 0.33607 0
M  V30 1848 C 175.467 1.76792 -3.1532 0
M  V30 1849 O 175.188 0.943239 -4.27825 0
M  V30 1850 C 176.689 2.6081 -3.58459 0
M  V30 1851 H 173.909 0.260064 -0.618553 0
M  V30 1852 H 176.453 0.163428 -2.03846 0
M  V30 1853 H 174.608 2.45398 -2.99764 0
M  V30 1854 H 175.022 1.53998 -5.01383 0
M  V30 1855 H 176.496 3.17579 -4.51495 0
M  V30 1856 H 176.973 3.35977 -2.82872 0
M  V30 1857 H 177.579 1.97526 -3.76648 0
M  V30 1858 N 175.894 1.51508 0.433938 0
M  V30 1859 C 177.14 1.64588 1.18484 0
M  V30 1860 C 177.473 0.362666 1.90784 0
M  V30 1861 O 176.748 -0.637892 1.83742 0
M  V30 1862 C 177.031 2.85149 2.19913 0
M  V30 1863 C 176.884 4.23456 1.51674 0
M  V30 1864 C 178.203 3.01227 3.20858 0
M  V30 1865 H 175.322 0.598994 0.429389 0
M  V30 1866 H 177.964 1.84002 0.473647 0
M  V30 1867 H 176.114 2.68729 2.80566 0
M  V30 1868 H 177.786 4.51552 0.943322 0
M  V30 1869 H 176.029 4.25998 0.819035 0
M  V30 1870 H 176.7 5.03812 2.2556 0
M  V30 1871 H 179.176 3.16382 2.70263 0
M  V30 1872 H 178.052 3.87141 3.89118 0
M  V30 1873 H 178.313 2.13447 3.8716 0
M  V30 1874 N 177.372 -0.689602 1.41712 0
M  V30 1875 C 178.282 -1.83314 1.46401 0
M  V30 1876 C 179.298 -1.7036 0.35405 0
M  V30 1877 O 180.474 -1.92171 0.602692 0
M  V30 1878 C 177.539 -3.19344 1.34982 0
M  V30 1879 C 176.6 -3.44363 2.56344 0
M  V30 1880 C 175.833 -4.73904 2.45461 0
M  V30 1881 O 176.056 -5.508 1.48241 0
M  V30 1882 O 174.99 -4.99839 3.35328 0
M  V30 1883 H 178.816 -1.82314 2.42889 0
M  V30 1884 H 176.401 -0.843438 1.23315 0
M  V30 1885 H 178.283 -4.00547 1.3092 0
M  V30 1886 H 176.958 -3.21014 0.41612 0
M  V30 1887 H 175.865 -2.63067 2.65982 0
M  V30 1888 H 177.198 -3.47512 3.48563 0
M  V30 1889 N 178.85 -1.27639 -0.924453 0
M  V30 1890 C 180.075 -1.17101 -1.71179 0
M  V30 1891 C 180.5 0.268134 -1.86179 0
M  V30 1892 O 179.858 1.19415 -1.36418 0
M  V30 1893 C 179.906 -1.86313 -3.08739 0
M  V30 1894 O 179.01 -1.16331 -3.95652 0
M  V30 1895 H 178.351 -0.407091 -0.524569 0
M  V30 1896 H 180.881 -1.68767 -1.15666 0
M  V30 1897 H 180.891 -1.938 -3.59034 0
M  V30 1898 H 179.566 -2.91001 -2.97138 0
M  V30 1899 H 178.143 -1.16935 -3.54091 0
M  V30 1900 N 180.328 1.1314 -1.09713 0
M  V30 1901 C 181.261 2.17735 -0.683137 0
M  V30 1902 C 182.239 1.59582 0.311841 0
M  V30 1903 O 183.423 1.87298 0.212514 0
M  V30 1904 C 180.55 3.38699 -0.00684324 0
M  V30 1905 C 179.596 4.1546 -0.964102 0
M  V30 1906 S 180.429 4.74733 -2.47767 0
M  V30 1907 C 181.585 5.9904 -1.81387 0
M  V30 1908 H 181.818 2.52515 -1.56918 0
M  V30 1909 H 179.351 1.24484 -0.913404 0
M  V30 1910 H 181.309 4.08765 0.377044 0
M  V30 1911 H 179.97 3.02214 0.85589 0
M  V30 1912 H 179.163 5.02093 -0.43803 0
M  V30 1913 H 178.765 3.51066 -1.28953 0
M  V30 1914 H 181.057 6.67846 -1.13967 0
M  V30 1915 H 182 6.56261 -2.65947 0
M  V30 1916 H 182.408 5.4976 -1.28155 0
M  V30 1917 N 181.806 0.884767 1.30421 0
M  V30 1918 C 182.769 0.356277 2.26414 0
M  V30 1919 C 183.769 -0.501124 1.52792 0
M  V30 1920 O 184.959 -0.30831 1.7145 0
M  V30 1921 C 182.091 -0.492316 3.37326 0
M  V30 1922 H 183.284 1.20389 2.74675 0
M  V30 1923 H 180.837 0.661607 1.41607 0
M  V30 1924 H 181.572 -1.36052 2.94381 0
M  V30 1925 H 181.357 0.121832 3.91911 0
M  V30 1926 H 182.847 -0.853871 4.08777 0
M  V30 1927 N 183.284 -1.43765 0.645699 0
M  V30 1928 C 184.514 -2.05953 0.163318 0
M  V30 1929 C 184.922 -1.48432 -1.17322 0
M  V30 1930 O 184.265 -0.607295 -1.73371 0
M  V30 1931 C 184.327 -3.59499 -0.0103065 0
M  V30 1932 C 183.991 -4.39563 1.25035 0
M  V30 1933 C 184.988 -4.72108 2.17739 0
M  V30 1934 C 182.673 -4.79697 1.48983 0
M  V30 1935 C 184.667 -5.43688 3.3269 0
M  V30 1936 C 182.354 -5.51023 2.64229 0
M  V30 1937 C 183.352 -5.8294 3.55908 0
M  V30 1938 O 183.04 -6.5281 4.69142 0
M  V30 1939 H 182.772 -0.670798 0.0836986 0
M  V30 1940 H 185.326 -1.85384 0.884407 0
M  V30 1941 H 183.556 -3.78613 -0.78669 0
M  V30 1942 H 185.245 -4.03408 -0.449087 0
M  V30 1943 H 186.011 -4.41627 2.00476 0
M  V30 1944 H 181.89 -4.54266 0.785078 0
M  V30 1945 H 185.434 -5.68517 4.04269 0
M  V30 1946 H 181.331 -5.8092 2.81429 0
M  V30 1947 H 182.099 -6.71288 4.6831 0
M  V30 1948 N 184.763 -0.387143 -1.52771 0
M  V30 1949 C 186.174 0.0873634 -1.86495 0
M  V30 1950 C 186.525 1.46336 -1.30691 0
M  V30 1951 O 185.65 2.068 -0.637409 0
M  V30 1952 C 186.245 0.165305 -3.38396 0
M  V30 1953 C 184.804 0.584101 -3.7184 0
M  V30 1954 C 183.951 -0.255279 -2.76122 0
M  V30 1955 H 186.902 -0.605104 -1.46711 0
M  V30 1956 H 186.923 0.984848 -3.67534 0
M  V30 1957 H 186.435 -0.836301 -3.78982 0
M  V30 1958 H 184.536 1.59315 -3.36823 0
M  V30 1959 H 184.649 0.343749 -4.77865 0
M  V30 1960 H 183.013 0.279126 -2.53166 0
M  V30 1961 H 183.796 -1.25482 -3.19545 0
M  V30 1962 N 186.241 1.57166 -0.116904 0
M  V30 1963 C 187.469 1.99473 0.549383 0
M  V30 1964 C 187.884 0.996541 1.60357 0
M  V30 1965 O 187.241 -0.0108731 1.82497 0
M  V30 1966 C 187.292 3.41788 1.17741 0
M  V30 1967 O 187.013 4.37788 0.165362 0
M  V30 1968 C 188.514 3.99216 1.92722 0
M  V30 1969 H 185.734 0.655009 0.145616 0
M  V30 1970 H 188.278 2.03494 -0.202625 0
M  V30 1971 H 186.433 3.38713 1.88021 0
M  V30 1972 H 186.847 5.20806 0.621403 0
M  V30 1973 H 188.321 5.00882 2.31995 0
M  V30 1974 H 188.798 3.3824 2.80161 0
M  V30 1975 H 189.404 4.0583 1.27209 0
M  V30 1976 N 187.719 -0.156864 1.56817 0
M  V30 1977 C 188.682 -1.17781 1.96622 0
M  V30 1978 C 189.682 -1.36401 0.851555 0
M  V30 1979 O 190.872 -1.33561 1.11836 0
M  V30 1980 C 188.004 -2.54008 2.27361 0
M  V30 1981 H 189.197 -0.836564 2.87996 0
M  V30 1982 H 186.75 -0.39985 1.51099 0
M  V30 1983 H 187.485 -2.9312 1.38748 0
M  V30 1984 H 187.27 -2.41856 3.08623 0
M  V30 1985 H 188.76 -3.27558 2.59029 0
M  V30 1986 N 189.197 -1.51736 -0.425897 0
M  V30 1987 C 190.127 -1.76827 -1.52494 0
M  V30 1988 C 191.108 -0.618524 -1.58456 0
M  V30 1989 O 192.293 -0.862416 -1.74 0
M  V30 1990 C 189.423 -1.90374 -2.90474 0
M  V30 1991 C 188.377 -3.0588 -2.99369 0
M  V30 1992 C 187.703 -3.04625 -4.3944 0
M  V30 1993 C 189.003 -4.45644 -2.72394 0
M  V30 1994 H 190.697 -2.68855 -1.31748 0
M  V30 1995 H 188.243 -1.29372 -0.632362 0
M  V30 1996 H 190.196 -2.0651 -3.6733 0
M  V30 1997 H 188.92 -0.95004 -3.12477 0
M  V30 1998 H 187.579 -2.89467 -2.24954 0
M  V30 1999 H 187.227 -2.0701 -4.58428 0
M  V30 2000 H 186.927 -3.82195 -4.46319 0
M  V30 2001 H 188.451 -3.22869 -5.18255 0
M  V30 2002 H 189.865 -4.62348 -3.38979 0
M  V30 2003 H 188.262 -5.25006 -2.9067 0
M  V30 2004 H 189.332 -4.54893 -1.67929 0
M  V30 2005 N 190.675 0.682077 -1.42076 0
M  V30 2006 C 191.622 1.79578 -1.44984 0
M  V30 2007 C 192.592 1.6332 -0.302614 0
M  V30 2008 O 193.777 1.83978 -0.505633 0
M  V30 2009 C 190.917 3.1756 -1.35091 0
M  V30 2010 C 190.03 3.45156 -2.59791 0
M  V30 2011 C 189.165 4.72826 -2.42093 0
M  V30 2012 C 188.204 4.93433 -3.62202 0
M  V30 2013 N 187.341 6.12338 -3.43491 0
M  V30 2014 H 192.181 1.76427 -2.40161 0
M  V30 2015 H 189.718 0.861376 -1.19242 0
M  V30 2016 H 191.676 3.97287 -1.27354 0
M  V30 2017 H 190.306 3.19854 -0.435133 0
M  V30 2018 H 189.358 2.59736 -2.77923 0
M  V30 2019 H 190.67 3.5628 -3.49094 0
M  V30 2020 H 189.824 5.60631 -2.319 0
M  V30 2021 H 188.563 4.63973 -1.50268 0
M  V30 2022 H 187.568 4.04073 -3.72834 0
M  V30 2023 H 188.793 5.04136 -4.54998 0
M  V30 2024 H 186.739 6.04672 -2.54377 0
M  V30 2025 H 186.656 6.2429 -4.26377 0
M  V30 2026 H 187.924 7.02841 -3.37097 0
M  V30 2027 N 192.153 1.28127 0.917671 0
M  V30 2028 C 193.401 1.14825 1.66312 0
M  V30 2029 C 193.722 -0.304379 1.9261 0
M  V30 2030 O 192.992 -1.21149 1.53947 0
M  V30 2031 H 191.572 0.421953 0.616413 0
M  V30 2032 H 194.234 1.608 1.10134 0
M  V30 2033 H 193.33 1.68489 2.62712 0
M  V30 2034 N 193.631 -1.12557 1.10312 0
M  V30 2035 C 194.561 -2.20341 0.772798 0
M  V30 2036 C 195.542 -1.68198 -0.25365 0
M  V30 2037 O 196.727 -1.93831 -0.119699 0
M  V30 2038 C 193.857 -3.46709 0.202443 0
M  V30 2039 C 192.811 -4.11996 1.15943 0
M  V30 2040 C 192.137 -5.328 0.450345 0
M  V30 2041 C 193.437 -4.5828 2.50552 0
M  V30 2042 H 195.131 -2.48229 1.674 0
M  V30 2043 H 192.677 -1.19308 0.806326 0
M  V30 2044 H 194.63 -4.2138 -0.0407752 0
M  V30 2045 H 193.354 -3.18245 -0.734001 0
M  V30 2046 H 192.013 -3.39305 1.38808 0
M  V30 2047 H 191.661 -5.00602 -0.490531 0
M  V30 2048 H 191.361 -5.7743 1.08851 0
M  V30 2049 H 192.885 -6.10219 0.215642 0
M  V30 2050 H 194.299 -5.2433 2.31843 0
M  V30 2051 H 192.696 -5.13683 3.10242 0
M  V30 2052 H 193.766 -3.72329 3.10643 0
M  V30 2053 N 195.109 -0.891671 -1.2995 0
M  V30 2054 C 196.057 -0.353066 -2.29905 0
M  V30 2055 C 197.051 0.543509 -1.60444 0
M  V30 2056 O 198.257 0.4272 -1.74857 0
M  V30 2057 H 194.632 -0.095531 -0.745907 0
M  V30 2058 H 196.603 -1.20961 -2.72784 0
M  V30 2059 C 195.352 0.411475 -3.45257 0
M  V30 2060 H 194.675 -0.269182 -3.98893 0
M  V30 2061 H 196.115 0.753328 -4.17254 0
M  V30 2062 C 194.574 1.6111 -2.9588 0
M  V30 2063 O 195.104 2.71045 -2.96475 0
M  V30 2064 N 193.31 1.45054 -2.51809 0
M  V30 2065 H 192.857 0.556175 -2.51524 0
M  V30 2066 H 192.815 2.25453 -2.1913 0
M  V30 2067 N 196.587 1.43421 -0.653314 0
M  V30 2068 C 198.003 1.56341 -0.320886 0
M  V30 2069 C 198.203 1.63696 1.17499 0
M  V30 2070 O 197.259 1.59208 1.95982 0
M  V30 2071 C 198.572 2.82424 -1.03233 0
M  V30 2072 C 200.12 2.96168 -1.01259 0
M  V30 2073 C 200.595 4.25084 -1.70492 0
M  V30 2074 N 202.086 4.31948 -1.67257 0
M  V30 2075 C 202.821 5.30466 -2.17701 0
M  V30 2076 N 202.317 6.35261 -2.76434 0
M  V30 2077 N 204.11 5.2212 -2.082 0
M  V30 2078 H 196.261 1.3689 -1.62403 0
M  V30 2079 H 198.524 0.657455 -0.682977 0
M  V30 2080 H 198.23 2.83053 -2.08744 0
M  V30 2081 H 198.104 3.72653 -0.583948 0
M  V30 2082 H 200.491 2.9508 0.0341235 0
M  V30 2083 H 200.572 2.07229 -1.49966 0
M  V30 2084 H 200.216 4.26932 -2.7512 0
M  V30 2085 H 200.146 5.1292 -1.19251 0
M  V30 2086 H 202.637 3.56838 -1.24398 0
M  V30 2087 H 202.95 7.06754 -3.12601 0
M  V30 2088 H 201.295 6.35884 -2.80495 0
M  V30 2089 H 204.486 4.39166 -1.62021 0
M  V30 2090 H 204.659 5.98739 -2.47822 0
M  V30 2091 N 198.065 0.39524 1.52563 0
M  V30 2092 C 199.481 0.0454682 1.59535 0
M  V30 2093 C 199.681 -1.44056 1.4089 0
M  V30 2094 O 198.737 -2.20579 1.22888 0
M  V30 2095 C 200.05 0.527963 2.96029 0
M  V30 2096 C 201.598 0.484733 3.09224 0
M  V30 2097 C 202.073 0.943512 4.48176 0
M  V30 2098 N 203.564 0.899765 4.54377 0
M  V30 2099 C 204.299 1.22609 5.60138 0
M  V30 2100 N 203.795 1.62319 6.73516 0
M  V30 2101 N 205.588 1.14696 5.50274 0
M  V30 2102 H 197.739 1.36261 1.62931 0
M  V30 2103 H 200.002 0.558887 0.765735 0
M  V30 2104 H 199.708 1.56607 3.14908 0
M  V30 2105 H 199.582 -0.0698056 3.77135 0
M  V30 2106 H 201.969 -0.544298 2.90037 0
M  V30 2107 H 202.05 1.11838 2.30056 0
M  V30 2108 H 201.694 1.9708 4.68104 0
M  V30 2109 H 201.624 0.286817 5.25818 0
M  V30 2110 H 204.115 0.607632 3.72983 0
M  V30 2111 H 204.428 1.85567 7.5019 0
M  V30 2112 H 202.773 1.66211 6.74833 0
M  V30 2113 H 205.964 0.835701 4.6058 0
M  V30 2114 H 206.137 1.40459 6.32594 0
M  V30 2115 N 199.544 -1.57102 0.125237 0
M  V30 2116 C 200.79 -1.95697 -0.532035 0
M  V30 2117 C 201.123 -1.009 -1.6593 0
M  V30 2118 O 200.398 -0.047347 -1.94442 0
M  V30 2119 C 200.681 -3.44181 -1.05884 0
M  V30 2120 C 200.534 -4.49752 0.0654392 0
M  V30 2121 C 201.853 -3.94655 -1.9477 0
M  V30 2122 H 198.972 -0.711571 -0.191925 0
M  V30 2123 H 201.614 -1.88923 0.20206 0
M  V30 2124 H 199.764 -3.50085 -1.68442 0
M  V30 2125 H 201.436 -4.55943 0.700982 0
M  V30 2126 H 199.679 -4.27653 0.727709 0
M  V30 2127 H 200.35 -5.50924 -0.344505 0
M  V30 2128 H 202.826 -3.91094 -1.42074 0
M  V30 2129 H 201.702 -4.99057 -2.28546 0
M  V30 2130 H 201.963 -3.35718 -2.87656 0
M  V30 2131 N 201.022 0.148545 -1.56898 0
M  V30 2132 C 201.932 1.20293 -2.01412 0
M  V30 2133 C 202.948 1.47107 -0.929273 0
M  V30 2134 O 204.124 1.58807 -1.23863 0
M  V30 2135 C 201.189 2.51682 -2.38447 0
M  V30 2136 C 200.25 2.32529 -3.60872 0
M  V30 2137 C 199.483 3.57653 -3.96132 0
M  V30 2138 O 199.706 4.63771 -3.32073 0
M  V30 2139 O 198.64 3.50408 -4.89385 0
M  V30 2140 H 202.466 0.855025 -2.91416 0
M  V30 2141 H 200.051 0.357151 -1.45068 0
M  V30 2142 H 201.933 3.29147 -2.63135 0
M  V30 2143 H 200.608 2.86006 -1.51599 0
M  V30 2144 H 199.515 1.53019 -3.41373 0
M  V30 2145 H 200.848 2.03121 -4.48333 0
M  V30 2146 N 202.5 1.5196 0.417844 0
M  V30 2147 C 203.746 1.65836 1.16732 0
M  V30 2148 C 204.079 0.382881 1.90388 0
M  V30 2149 O 203.354 -0.618368 1.84408 0
M  V30 2150 C 203.637 2.87466 2.16876 0
M  V30 2151 C 203.49 4.25041 1.47174 0
M  V30 2152 C 204.809 3.04613 3.17646 0
M  V30 2153 H 201.928 0.603515 0.423011 0
M  V30 2154 H 204.57 1.84494 0.454105 0
M  V30 2155 H 202.72 2.71689 2.777 0
M  V30 2156 H 204.392 4.52527 0.895376 0
M  V30 2157 H 202.635 4.26843 0.773806 0
M  V30 2158 H 203.306 5.06176 2.20204 0
M  V30 2159 H 205.782 3.1923 2.66892 0
M  V30 2160 H 204.658 3.91247 3.8499 0
M  V30 2161 H 204.919 2.17541 3.84874 0
M  V30 2162 N 203.978 -0.674533 1.42435 0
M  V30 2163 C 205.255 -1.4305 1.33402 0
M  V30 2164 C 205.635 -2.11081 -0.0284674 0
M  V30 2165 O 204.983 -2.03257 -1.04397 0
M  V30 2166 C 205.193 -2.43272 2.50239 0
M  V30 2167 C 206.541 -3.07907 2.92367 0
M  V30 2168 O 207.565 -2.53599 2.50132 0
M  V30 2169 O 206.424 -4.0632 3.65467 0
M  V30 2170 H 203.518 -0.638076 0.526106 0
M  V30 2171 H 206.064 -0.703235 1.54443 0
M  V30 2172 H 204.836 -1.91803 3.41068 0
M  V30 2173 H 204.459 -3.23479 2.31186 0
M  V30 2174 N 205.456 -1.28612 -0.910864 0
M  V30 2175 C 206.681 -1.1891 -1.69927 0
M  V30 2176 C 207.106 0.248372 -1.86453 0
M  V30 2177 O 206.464 1.17961 -1.37676 0
M  V30 2178 C 206.512 -1.89578 -3.06745 0
M  V30 2179 O 205.616 -1.20521 -3.94396 0
M  V30 2180 H 204.957 -0.412632 -0.520222 0
M  V30 2181 H 207.487 -1.69985 -1.1387 0
M  V30 2182 H 207.497 -1.97597 -3.56958 0
M  V30 2183 H 206.172 -2.94136 -2.94035 0
M  V30 2184 H 204.749 -1.20684 -3.52831 0
M  V30 2185 N 206.934 1.1197 -1.10907 0
M  V30 2186 C 207.864 2.19928 -0.784473 0
M  V30 2187 C 208.845 1.6833 0.244726 0
M  V30 2188 O 210.03 1.93892 0.109418 0
M  V30 2189 C 207.16 3.46597 -0.220827 0
M  V30 2190 C 206.114 4.11376 -1.18127 0
M  V30 2191 C 205.44 5.32554 -0.478594 0
M  V30 2192 C 206.74 4.56945 -2.52979 0
M  V30 2193 H 208.434 2.47337 -1.68715 0
M  V30 2194 H 205.98 1.18879 -0.812642 0
M  V30 2195 H 207.933 4.21396 0.0184278 0
M  V30 2196 H 206.657 3.1863 0.717113 0
M  V30 2197 H 205.316 3.38564 -1.40606 0
M  V30 2198 H 204.964 5.00856 0.463976 0
M  V30 2199 H 204.664 5.76844 -1.11912 0
M  V30 2200 H 206.188 6.10096 -0.248 0
M  V30 2201 H 207.602 5.23093 -2.3462 0
M  V30 2202 H 205.999 5.1203 -3.12962 0
M  V30 2203 H 207.069 3.70676 -3.12614 0
M  V30 2204 N 208.412 0.89855 1.29475 0
M  V30 2205 C 209.375 0.380272 2.26023 0
M  V30 2206 C 210.375 -0.484891 1.53315 0
M  V30 2207 O 211.565 -0.290108 1.71767 0
M  V30 2208 C 208.697 -0.45651 3.3783 0
M  V30 2209 H 209.89 1.23295 2.73383 0
M  V30 2210 H 207.443 0.676589 1.40897 0
M  V30 2211 H 208.178 -1.32922 2.95808 0
M  V30 2212 H 207.963 0.163393 3.91759 0
M  V30 2213 H 209.453 -0.810466 4.0966 0
M  V30 2214 N 209.89 -1.43072 0.660911 0
M  V30 2215 C 211.13 -2.03596 0.181146 0
M  V30 2216 C 211.494 -1.51057 -1.18515 0
M  V30 2217 O 212.695 -2.03275 -1.75877 0
M  V30 2218 C 210.966 -3.56845 0.19911 0
M  V30 2219 S 212.525 -4.38289 -0.211684 0
M  V30 2220 H 209.343 -0.706954 0.0757479 0
M  V30 2221 H 211.945 -1.75027 0.870965 0
M  V30 2222 H 210.649 -3.92583 1.1961 0
M  V30 2223 H 210.18 -3.90067 -0.510996 0
M  V30 2224 H 212.195 -4.74583 -1.44863 0
M  V30 2225 N 211.368 -0.403325 -1.52352 0
M  V30 2226 C 212.779 0.0675782 -1.86578 0
M  V30 2227 C 213.13 1.44941 -1.32236 0
M  V30 2228 O 212.255 2.06112 -0.659307 0
M  V30 2229 C 212.85 0.129404 -3.38553 0
M  V30 2230 C 211.409 0.544629 -3.72439 0
M  V30 2231 C 210.556 -0.284551 -2.75836 0
M  V30 2232 H 213.507 -0.620631 -1.46061 0
M  V30 2233 H 213.528 0.94581 -3.68558 0
M  V30 2234 H 213.04 -0.87645 -3.78074 0
M  V30 2235 H 211.141 1.55734 -3.38493 0
M  V30 2236 H 211.254 0.293046 -4.78203 0
M  V30 2237 H 209.618 0.252258 -2.53448 0
M  V30 2238 H 210.401 -1.28865 -3.18196 0
M  V30 2239 N 212.846 1.57033 -0.133567 0
M  V30 2240 C 213.793 2.16074 0.811208 0
M  V30 2241 C 214.763 1.08979 1.2535 0
M  V30 2242 O 215.948 1.36958 1.32843 0
M  V30 2243 C 213.088 2.77595 2.05024 0
M  V30 2244 C 212.201 3.99042 1.65498 0
M  V30 2245 C 211.336 4.48603 2.84479 0
M  V30 2246 C 210.375 5.62547 2.41262 0
M  V30 2247 N 209.512 6.06787 3.53206 0
M  V30 2248 H 214.352 2.96477 0.300906 0
M  V30 2249 H 211.889 1.46462 0.136822 0
M  V30 2250 H 213.847 3.11402 2.77642 0
M  V30 2251 H 212.477 1.99859 2.53488 0
M  V30 2252 H 211.529 3.71302 0.826981 0
M  V30 2253 H 212.841 4.81629 1.29748 0
M  V30 2254 H 211.995 4.84395 3.65303 0
M  V30 2255 H 210.734 3.64995 3.23465 0
M  V30 2256 H 209.739 5.26345 1.58874 0
M  V30 2257 H 210.964 6.47931 2.03377 0
M  V30 2258 H 208.91 5.26117 3.91838 0
M  V30 2259 H 208.827 6.84266 3.21427 0
M  V30 2260 H 210.095 6.4722 4.34427 0
M  V30 2261 N 214.325 -0.140222 1.56975 0
M  V30 2262 C 215.572 -0.851687 1.83719 0
M  V30 2263 C 215.9 -1.80862 0.715485 0
M  V30 2264 O 215.155 -1.93464 -0.294956 0
M  V30 2265 C 215.454 -1.65386 3.16832 0
M  V30 2266 C 215.12 -0.843112 4.42947 0
M  V30 2267 C 213.782 -0.619464 4.77196 0
M  V30 2268 C 216.134 -0.276582 5.20466 0
M  V30 2269 C 213.462 0.181312 5.8642 0
M  V30 2270 C 215.814 0.51127 6.30531 0
M  V30 2271 C 214.478 0.745432 6.63325 0
M  V30 2272 H 213.748 -0.311654 0.672274 0
M  V30 2273 H 216.395 -0.115006 1.91154 0
M  V30 2274 H 214.7 -2.46084 3.04877 0
M  V30 2275 H 216.397 -2.20793 3.34741 0
M  V30 2276 H 212.987 -1.0275 4.16101 0
M  V30 2277 H 217.171 -0.436632 4.94376 0
M  V30 2278 H 212.427 0.372165 6.10266 0
M  V30 2279 H 216.601 0.957354 6.89788 0
M  V30 2280 H 214.228 1.36778 7.47794 0
M  V30 2281 N 215.803 -1.52179 -0.40978 0
M  V30 2282 C 217.049 -1.66453 -1.15851 0
M  V30 2283 C 217.382 -0.392972 -1.90182 0
M  V30 2284 O 216.657 0.608579 -1.84734 0
M  V30 2285 C 216.94 -2.88612 -2.15349 0
M  V30 2286 C 216.793 -4.25815 -1.44918 0
M  V30 2287 C 218.112 -3.06294 -3.16026 0
M  V30 2288 H 215.231 -0.60575 -0.419805 0
M  V30 2289 H 217.873 -1.84732 -0.444314 0
M  V30 2290 H 216.023 -2.73158 -2.76255 0
M  V30 2291 H 217.695 -4.52995 -0.871365 0
M  V30 2292 H 215.938 -4.27247 -0.751159 0
M  V30 2293 H 216.609 -5.07337 -2.17516 0
M  V30 2294 H 219.085 -3.20641 -2.65195 0
M  V30 2295 H 217.961 -3.93283 -3.8291 0
M  V30 2296 H 218.222 -2.19579 -3.83715 0
M  V30 2297 N 217.281 0.66697 -1.42791 0
M  V30 2298 C 218.506 1.46004 -1.47301 0
M  V30 2299 C 218.931 1.87894 -0.0880317 0
M  V30 2300 O 218.289 1.56502 0.915253 0
M  V30 2301 C 218.337 2.68031 -2.41229 0
M  V30 2302 O 217.441 3.6659 -1.88906 0
M  V30 2303 H 216.782 0.43832 -0.49877 0
M  V30 2304 H 219.312 0.817391 -1.87563 0
M  V30 2305 H 219.322 3.1601 -2.58073 0
M  V30 2306 H 217.997 2.36883 -3.41847 0
M  V30 2307 H 216.574 3.25661 -1.81656 0
M  V30 2308 N 218.759 1.29093 0.90403 0
M  V30 2309 C 220.005 1.16986 1.65656 0
M  V30 2310 C 220.338 -0.278925 1.92186 0
M  V30 2311 O 219.613 -1.2019 1.5292 0
M  V30 2312 C 219.896 1.97908 3.0084 0
M  V30 2313 C 219.749 3.50903 2.81403 0
M  V30 2314 C 221.068 1.80208 4.01513 0
M  V30 2315 H 218.187 0.426346 0.601164 0
M  V30 2316 H 220.829 1.58518 1.04747 0
M  V30 2317 H 218.979 1.62616 3.52829 0
M  V30 2318 H 220.651 3.96153 2.36348 0
M  V30 2319 H 218.894 3.76045 2.1627 0
M  V30 2320 H 219.565 4.02791 3.77443 0
M  V30 2321 H 222.041 2.11025 3.58619 0
M  V30 2322 H 220.917 2.39184 4.94047 0
M  V30 2323 H 221.178 0.756119 4.35586 0
M  V30 2324 N 220.237 -1.11381 1.11499 0
M  V30 2325 C 221.483 -1.83403 0.865512 0
M  V30 2326 C 221.816 -1.84459 -0.607329 0
M  V30 2327 O 221.091 -1.29811 -1.44842 0
M  V30 2328 C 221.374 -3.30552 1.42855 0
M  V30 2329 C 221.227 -3.37886 2.96906 0
M  V30 2330 C 222.546 -4.26643 1.08 0
M  V30 2331 H 219.665 -0.665879 0.31587 0
M  V30 2332 H 222.307 -1.30601 1.37998 0
M  V30 2333 H 220.457 -3.75648 0.990985 0
M  V30 2334 H 222.129 -3.01343 3.49271 0
M  V30 2335 H 220.372 -2.78088 3.32941 0
M  V30 2336 H 221.043 -4.41458 3.31389 0
M  V30 2337 H 223.519 -3.89729 1.45775 0
M  V30 2338 H 222.395 -5.27986 1.50072 0
M  V30 2339 H 222.656 -4.42099 -0.00915037 0
M  V30 2340 N 221.715 -0.905404 -1.28997 0
M  V30 2341 C 222.625 -0.392246 -2.31298 0
M  V30 2342 C 223.641 0.515889 -1.66176 0
M  V30 2343 O 224.817 0.404093 -1.97304 0
M  V30 2344 C 221.882 0.36686 -3.44754 0
M  V30 2345 C 220.943 -0.573485 -4.25452 0
M  V30 2346 C 220.176 0.149488 -5.33491 0
M  V30 2347 O 220.399 1.37255 -5.5364 0
M  V30 2348 O 219.333 -0.510919 -5.99728 0
M  V30 2349 H 223.159 -1.2411 -2.77183 0
M  V30 2350 H 220.744 -0.669926 -1.33538 0
M  V30 2351 H 222.626 0.795907 -4.13816 0
M  V30 2352 H 221.301 1.19169 -3.00966 0
M  V30 2353 H 220.208 -1.05176 -3.59011 0
M  V30 2354 H 221.541 -1.36489 -4.72897 0
M  V30 2355 N 223.193 1.4272 -0.668489 0
M  V30 2356 C 224.418 2.06484 -0.194758 0
M  V30 2357 C 224.843 1.49862 1.13679 0
M  V30 2358 O 224.201 0.614582 1.70565 0
M  V30 2359 C 224.249 3.60353 -0.133546 0
M  V30 2360 O 223.353 4.02464 0.899806 0
M  V30 2361 H 222.694 0.656137 -0.10188 0
M  V30 2362 H 225.224 1.82964 -0.915722 0
M  V30 2363 H 225.234 4.07976 0.0447041 0
M  V30 2364 H 223.909 4.00938 -1.1055 0
M  V30 2365 H 222.486 3.66402 0.693109 0
M  V30 2366 N 224.671 0.411399 1.52136 0
M  V30 2367 C 225.919 -0.163322 2.01439 0
M  V30 2368 C 226.24 -1.45453 1.29879 0
M  V30 2369 O 225.51 -1.91225 0.4254 0
M  V30 2370 H 224.09 -0.0633447 0.744309 0
M  V30 2371 H 226.752 0.548161 1.87033 0
M  V30 2372 H 225.848 -0.357817 3.10042 0
M  V30 2373 N 226.149 -1.5696 0.141893 0
M  V30 2374 C 227.059 -2.20066 -0.812905 0
M  V30 2375 C 228.075 -1.18344 -1.27557 0
M  V30 2376 O 229.251 -1.50902 -1.33381 0
M  V30 2377 C 226.316 -2.80583 -2.03652 0
M  V30 2378 C 225.377 -3.97414 -1.62359 0
M  V30 2379 C 224.61 -4.55036 -2.78887 0
M  V30 2380 O 224.833 -4.11538 -3.94959 0
M  V30 2381 O 223.767 -5.45376 -2.54653 0
M  V30 2382 H 227.593 -3.02157 -0.305746 0
M  V30 2383 H 225.178 -1.49159 -0.0848799 0
M  V30 2384 H 227.06 -3.19067 -2.75272 0
M  V30 2385 H 225.735 -2.01508 -2.5333 0
M  V30 2386 H 224.642 -3.63656 -0.877775 0
M  V30 2387 H 225.975 -4.77994 -1.17401 0
M  V30 2388 N 227.627 0.131896 -1.57047 0
M  V30 2389 C 228.857 0.855219 -1.88068 0
M  V30 2390 C 229.265 1.74557 -0.729817 0
M  V30 2391 O 228.608 1.81083 0.308962 0
M  V30 2392 C 228.67 1.75119 -3.13964 0
M  V30 2393 C 228.334 1.03646 -4.45091 0
M  V30 2394 C 229.331 0.383276 -5.18485 0
M  V30 2395 C 227.016 1.02148 -4.91804 0
M  V30 2396 C 229.01 -0.275347 -6.36805 0
M  V30 2397 C 226.697 0.359047 -6.10044 0
M  V30 2398 C 227.695 -0.288222 -6.82392 0
M  V30 2399 O 227.383 -0.94011 -7.98384 0
M  V30 2400 H 227.115 0.251864 -0.627328 0
M  V30 2401 H 229.669 0.124782 -2.05021 0
M  V30 2402 H 227.899 2.52295 -2.9306 0
M  V30 2403 H 229.588 2.3478 -3.31109 0
M  V30 2404 H 230.354 0.386562 -4.83457 0
M  V30 2405 H 226.233 1.5147 -4.35405 0
M  V30 2406 H 229.777 -0.781148 -6.93213 0
M  V30 2407 H 225.674 0.35348 -6.44531 0
M  V30 2408 H 226.442 -0.84329 -8.14144 0
M  V30 2409 N 229.106 1.52395 0.401703 0
M  V30 2410 C 230.053 1.76268 1.48991 0
M  V30 2411 C 231.023 0.605386 1.54675 0
M  V30 2412 O 232.208 0.843742 1.7113 0
M  V30 2413 C 229.348 1.92592 2.86361 0
M  V30 2414 C 228.461 3.20259 2.89928 0
M  V30 2415 C 227.596 3.26972 4.18644 0
M  V30 2416 C 226.635 4.48812 4.16214 0
M  V30 2417 N 225.772 4.52877 5.36514 0
M  V30 2418 H 230.612 2.6914 1.27935 0
M  V30 2419 H 228.149 1.33355 0.620871 0
M  V30 2420 H 230.107 2.0004 3.66115 0
M  V30 2421 H 228.737 1.03093 3.05895 0
M  V30 2422 H 227.789 3.21945 2.02621 0
M  V30 2423 H 229.101 4.10056 2.83999 0
M  V30 2424 H 228.255 3.33533 5.06794 0
M  V30 2425 H 226.994 2.35126 4.27278 0
M  V30 2426 H 225.999 4.4239 3.26453 0
M  V30 2427 H 227.224 5.41961 4.09213 0
M  V30 2428 H 225.17 3.63917 5.45802 0
M  V30 2429 H 225.087 5.36529 5.32609 0
M  V30 2430 H 226.355 4.63676 6.26597 0
M  V30 2431 N 230.584 -0.659388 1.43143 0
M  V30 2432 C 231.809 -1.45221 1.48073 0
M  V30 2433 C 232.234 -1.87845 0.097995 0
M  V30 2434 O 231.592 -1.56985 -0.90694 0
M  V30 2435 C 231.64 -2.66748 2.42647 0
M  V30 2436 O 230.744 -3.65583 1.90848 0
M  V30 2437 H 230.085 -0.435669 0.501088 0
M  V30 2438 H 232.615 -0.807432 1.87994 0
M  V30 2439 H 232.625 -3.14637 2.59745 0
M  V30 2440 H 231.3 -2.35067 3.43098 0
M  V30 2441 H 229.877 -3.24693 1.83381 0
M  V30 2442 N 232.062 -1.29571 -0.897171 0
M  V30 2443 C 233.025 -1.14913 -1.98312 0
M  V30 2444 C 234.025 -0.0838629 -1.60581 0
M  V30 2445 O 235.215 -0.331006 -1.71026 0
M  V30 2446 C 232.347 -0.757835 -3.3237 0
M  V30 2447 H 233.54 -2.11377 -2.12743 0
M  V30 2448 H 231.093 -1.12793 -1.08201 0
M  V30 2449 H 231.828 0.206837 -3.2364 0
M  V30 2450 H 231.613 -1.52755 -3.61121 0
M  V30 2451 H 233.103 -0.678408 -4.12053 0
M  V30 2452 N 233.54 1.10788 -1.12088 0
M  V30 2453 C 234.789 1.82036 -0.868659 0
M  V30 2454 C 235.102 1.85929 0.607426 0
M  V30 2455 O 236.308 2.53346 0.97613 0
M  V30 2456 C 234.764 3.26951 -1.50435 0
M  V30 2457 C 234.372 3.31367 -3.01496 0
M  V30 2458 C 236.116 4.03053 -1.33225 0
M  V30 2459 C 234.023 4.7072 -3.58017 0
M  V30 2460 H 232.953 0.682108 -0.321318 0
M  V30 2461 H 235.604 1.24618 -1.34694 0
M  V30 2462 H 233.986 3.84343 -0.953735 0
M  V30 2463 H 235.16 2.83819 -3.6302 0
M  V30 2464 H 233.475 2.6875 -3.18061 0
M  V30 2465 H 236.072 5.05981 -1.72878 0
M  V30 2466 H 236.415 4.15387 -0.275529 0
M  V30 2467 H 236.948 3.52066 -1.85188 0
M  V30 2468 H 233.687 4.63585 -4.63432 0
M  V30 2469 H 233.207 5.1865 -3.01268 0
M  V30 2470 H 234.886 5.39685 -3.56859 0
M  V30 2471 N 235.018 0.912232 1.28515 0
M  V30 2472 C 235.981 0.404223 2.25607 0
M  V30 2473 C 236.981 -0.468602 1.53821 0
M  V30 2474 O 238.171 -0.271873 1.72065 0
M  V30 2475 C 235.303 -0.420653 3.38295 0
M  V30 2476 H 236.496 1.26188 2.7206 0
M  V30 2477 H 234.049 0.691495 1.40171 0
M  V30 2478 H 234.784 -1.29777 2.97201 0
M  V30 2479 H 234.569 0.204935 3.91564 0
M  V30 2480 H 236.059 -0.766971 4.10496 0
M  V30 2481 N 236.496 -1.42363 0.676048 0
M  V30 2482 C 237.443 -2.308 -0.00150904 0
M  V30 2483 C 238.413 -1.46032 -0.791444 0
M  V30 2484 O 239.598 -1.74861 -0.76344 0
M  V30 2485 C 236.738 -3.31883 -0.945919 0
M  V30 2486 C 235.851 -4.31741 -0.149675 0
M  V30 2487 C 234.986 -5.19898 -1.08995 0
M  V30 2488 C 234.025 -6.11434 -0.285465 0
M  V30 2489 N 233.162 -6.92138 -1.17851 0
M  V30 2490 H 238.002 -2.88187 0.758455 0
M  V30 2491 H 235.539 -1.41952 0.38576 0
M  V30 2492 H 237.497 -3.89019 -1.50731 0
M  V30 2493 H 236.127 -2.76093 -1.6725 0
M  V30 2494 H 235.179 -3.76713 0.528359 0
M  V30 2495 H 236.491 -4.96534 0.474866 0
M  V30 2496 H 235.645 -5.81772 -1.72123 0
M  V30 2497 H 234.384 -4.55284 -1.74837 0
M  V30 2498 H 233.389 -5.48627 0.359018 0
M  V30 2499 H 234.614 -6.78097 0.368883 0
M  V30 2500 H 232.56 -6.30152 -1.82332 0
M  V30 2501 H 232.477 -7.53542 -0.609082 0
M  V30 2502 H 233.745 -7.58499 -1.79722 0
M  V30 2503 N 237.974 -0.419461 -1.51915 0
M  V30 2504 C 238.921 0.400927 -2.27291 0
M  V30 2505 C 239.891 1.03224 -1.30131 0
M  V30 2506 O 241.076 1.05455 -1.59009 0
M  V30 2507 C 238.216 1.50603 -3.10504 0
M  V30 2508 C 237.329 0.89462 -4.22635 0
M  V30 2509 C 236.464 1.97328 -4.93189 0
M  V30 2510 C 235.503 1.33935 -5.97267 0
M  V30 2511 N 234.64 2.3586 -6.61298 0
M  V30 2512 H 239.48 -0.248251 -2.96964 0
M  V30 2513 H 237.017 -0.134266 -1.46486 0
M  V30 2514 H 238.975 2.15783 -3.57062 0
M  V30 2515 H 237.605 2.12509 -2.42981 0
M  V30 2516 H 236.657 0.131583 -3.80172 0
M  V30 2517 H 237.969 0.391641 -4.9726 0
M  V30 2518 H 237.123 2.70211 -5.43204 0
M  V30 2519 H 235.862 2.50994 -4.18155 0
M  V30 2520 H 234.867 0.595896 -5.46561 0
M  V30 2521 H 236.092 0.810252 -6.74249 0
M  V30 2522 H 234.038 2.88639 -5.89087 0
M  V30 2523 H 233.955 1.90403 -7.3163 0
M  V30 2524 H 235.223 3.08282 -7.15949 0
M  V30 2525 N 239.452 1.56882 -0.150215 0
M  V30 2526 C 240.698 1.96518 0.500834 0
M  V30 2527 C 241.031 1.03527 1.64304 0
M  V30 2528 O 240.306 0.0782751 1.94342 0
M  V30 2529 C 240.589 3.45822 1.00395 0
M  V30 2530 C 240.442 4.49591 -0.136983 0
M  V30 2531 C 241.761 3.97704 1.88467 0
M  V30 2532 H 238.88 0.714535 0.18058 0
M  V30 2533 H 241.522 1.88577 -0.232091 0
M  V30 2534 H 239.672 3.5272 1.62851 0
M  V30 2535 H 241.344 4.5477 -0.77343 0
M  V30 2536 H 239.587 4.26441 -0.795652 0
M  V30 2537 H 240.258 5.51402 0.256815 0
M  V30 2538 H 242.734 3.93304 1.35834 0
M  V30 2539 H 241.61 5.0263 2.20578 0
M  V30 2540 H 241.871 3.40252 2.82279 0
M  V30 2541 N 240.93 -0.123565 1.57115 0
M  V30 2542 C 242.176 -0.833386 1.84885 0
M  V30 2543 C 242.509 -1.79742 0.735292 0
M  V30 2544 O 241.784 -1.92764 -0.25925 0
M  V30 2545 C 242.067 -1.5873 3.23228 0
M  V30 2546 C 241.92 -0.643183 4.45178 0
M  V30 2547 C 243.239 -2.54453 3.59085 0
M  V30 2548 H 240.358 -0.301518 0.6725 0
M  V30 2549 H 243 -0.097778 1.89748 0
M  V30 2550 H 241.15 -2.21438 3.19214 0
M  V30 2551 H 242.822 -0.0253015 4.61293 0
M  V30 2552 H 241.065 0.0456139 4.33776 0
M  V30 2553 H 241.736 -1.20724 5.38637 0
M  V30 2554 H 244.212 -2.01853 3.63861 0
M  V30 2555 H 243.088 -3.04238 4.5687 0
M  V30 2556 H 243.349 -3.36906 2.86264 0
M  V30 2557 N 242.408 -1.52605 -0.393616 0
M  V30 2558 C 243.371 -1.76415 -1.46323 0
M  V30 2559 C 244.371 -0.634126 -1.47768 0
M  V30 2560 O 245.561 -0.902142 -1.4902 0
M  V30 2561 C 242.693 -1.8607 -2.85641 0
M  V30 2562 H 243.886 -2.71916 -1.26498 0
M  V30 2563 H 241.439 -1.43257 -0.625073 0
M  V30 2564 H 242.174 -0.925378 -3.10817 0
M  V30 2565 H 241.959 -2.68235 -2.85993 0
M  V30 2566 H 243.449 -2.06179 -3.63153 0
M  V30 2567 N 243.887 0.651787 -1.4349 0
M  V30 2568 C 244.797 1.79368 -1.5121 0
M  V30 2569 C 245.813 1.69361 -0.399093 0
M  V30 2570 O 246.989 1.90505 -0.653431 0
M  V30 2571 C 244.054 3.15653 -1.43401 0
M  V30 2572 C 243.115 3.37446 -2.65384 0
M  V30 2573 C 242.348 4.67229 -2.57939 0
M  V30 2574 O 242.571 5.46676 -1.62792 0
M  V30 2575 O 241.505 4.90773 -3.48462 0
M  V30 2576 H 245.331 1.7581 -2.47638 0
M  V30 2577 H 242.916 0.810447 -1.25507 0
M  V30 2578 H 244.798 3.96935 -1.41494 0
M  V30 2579 H 243.473 3.19798 -0.501085 0
M  V30 2580 H 242.38 2.55923 -2.72863 0
M  V30 2581 H 243.713 3.38148 -3.57654 0
M  V30 2582 N 245.365 1.30045 0.890287 0
M  V30 2583 C 246.59 1.21598 1.68014 0
M  V30 2584 C 247.015 -0.218678 1.86825 0
M  V30 2585 O 246.373 -1.15756 1.39536 0
M  V30 2586 C 246.421 1.94434 3.03691 0
M  V30 2587 O 245.525 1.2678 3.92429 0
M  V30 2588 H 244.866 0.420856 0.513592 0
M  V30 2589 H 247.396 1.71775 1.11151 0
M  V30 2590 H 247.406 2.03251 3.5377 0
M  V30 2591 H 246.081 2.98777 2.89318 0
M  V30 2592 H 244.658 1.26282 3.50866 0
M  V30 2593 N 246.843 -1.10192 1.12674 0
M  V30 2594 C 247.773 -2.18652 0.819362 0
M  V30 2595 C 248.754 -1.68698 -0.217915 0
M  V30 2596 O 249.939 -1.94041 -0.0785581 0
M  V30 2597 C 247.069 -3.46202 0.27594 0
M  V30 2598 C 246.023 -4.09444 1.24656 0
M  V30 2599 C 245.349 -5.31725 0.563258 0
M  V30 2600 C 246.649 -4.52863 2.60217 0
M  V30 2601 H 248.343 -2.44622 1.72628 0
M  V30 2602 H 245.889 -1.17571 0.831451 0
M  V30 2603 H 247.842 -4.21372 0.0486149 0
M  V30 2604 H 246.566 -3.1973 -0.666331 0
M  V30 2605 H 245.225 -3.36284 1.45974 0
M  V30 2606 H 244.873 -5.0153 -0.384235 0
M  V30 2607 H 244.573 -5.74991 1.21075 0
M  V30 2608 H 246.097 -6.09624 0.34503 0
M  V30 2609 H 247.511 -5.19294 2.42913 0
M  V30 2610 H 245.908 -5.06986 3.21068 0
M  V30 2611 H 246.978 -3.65656 3.18471 0
M  V30 2612 N 248.321 -0.919034 -1.28029 0
M  V30 2613 C 249.251 -0.428581 -2.29533 0
M  V30 2614 C 250.232 0.50659 -1.62381 0
M  V30 2615 O 251.417 0.413195 -1.89753 0
M  V30 2616 C 248.547 0.327388 -3.45753 0
M  V30 2617 C 247.501 -0.519137 -4.2484 0
M  V30 2618 C 246.827 0.365486 -5.33449 0
M  V30 2619 C 248.127 -1.77914 -4.91064 0
M  V30 2620 H 249.821 -1.27687 -2.70807 0
M  V30 2621 H 247.367 -0.615428 -1.30186 0
M  V30 2622 H 249.32 0.681378 -4.15855 0
M  V30 2623 H 248.044 1.20963 -3.03374 0
M  V30 2624 H 246.703 -0.855717 -3.56473 0
M  V30 2625 H 246.351 1.24642 -4.87312 0
M  V30 2626 H 246.051 -0.197356 -5.87268 0
M  V30 2627 H 247.575 0.715241 -6.06396 0
M  V30 2628 H 248.989 -1.49374 -5.53498 0
M  V30 2629 H 247.386 -2.2848 -5.54903 0
M  V30 2630 H 248.456 -2.50382 -4.15255 0
M  V30 2631 N 249.799 1.42003 -0.683588 0
M  V30 2632 C 251.21 1.84501 -0.285736 0
M  V30 2633 C 251.561 1.57213 1.17382 0
M  V30 2634 O 250.686 1.03642 1.89966 0
M  V30 2635 C 251.281 3.34912 -0.511821 0
M  V30 2636 C 249.84 3.76025 -0.168005 0
M  V30 2637 C 248.987 2.6551 -0.799983 0
M  V30 2638 H 251.938 1.31724 -0.885119 0
M  V30 2639 H 251.959 3.79784 0.233292 0
M  V30 2640 H 251.471 3.54741 -1.57418 0
M  V30 2641 H 249.572 3.61801 0.890567 0
M  V30 2642 H 249.685 4.75141 -0.614661 0
M  V30 2643 H 248.049 2.53654 -0.230568 0
M  V30 2644 H 248.832 2.8816 -1.86597 0
M  V30 2645 N 251.277 0.427512 1.51691 0
M  V30 2646 C 252.207 -0.3796 2.30394 0
M  V30 2647 C 253.188 -1.02982 1.35384 0
M  V30 2648 O 254.373 -1.03534 1.643 0
M  V30 2649 C 251.503 -1.48649 3.1388 0
M  V30 2650 C 250.457 -0.960294 4.17088 0
M  V30 2651 C 249.783 -2.16219 4.89033 0
M  V30 2652 C 251.083 -0.00153679 5.223 0
M  V30 2653 H 252.777 0.277164 2.98114 0
M  V30 2654 H 250.323 0.134739 1.43368 0
M  V30 2655 H 252.276 -2.05826 3.67714 0
M  V30 2656 H 251 -2.1714 2.43962 0
M  V30 2657 H 249.659 -0.410806 3.64291 0
M  V30 2658 H 249.307 -2.83307 4.15628 0
M  V30 2659 H 249.007 -1.81654 5.58816 0
M  V30 2660 H 250.531 -2.73968 5.45687 0
M  V30 2661 H 251.945 -0.482687 5.71264 0
M  V30 2662 H 250.342 0.256199 5.99553 0
M  V30 2663 H 251.412 0.938174 4.75738 0
M  V30 2664 N 252.755 -1.56801 0.158532 0
M  V30 2665 C 253.702 -2.17337 -0.776729 0
M  V30 2666 C 254.672 -1.1096 -1.23601 0
M  V30 2667 O 255.857 -1.39054 -1.30647 0
M  V30 2668 C 252.997 -2.80822 -2.00582 0
M  V30 2669 C 252.11 -4.01624 -1.59129 0
M  V30 2670 C 251.245 -4.53072 -2.77306 0
M  V30 2671 C 250.284 -5.66314 -2.32282 0
M  V30 2672 N 249.421 -6.12329 -3.43508 0
M  V30 2673 H 254.261 -2.96918 -0.253701 0
M  V30 2674 H 251.798 -1.46661 -0.113504 0
M  V30 2675 H 253.756 -3.15779 -2.72652 0
M  V30 2676 H 252.386 -2.03866 -2.50277 0
M  V30 2677 H 251.438 -3.72571 -0.767806 0
M  V30 2678 H 252.75 -4.83633 -1.2207 0
M  V30 2679 H 251.904 -4.90145 -3.57551 0
M  V30 2680 H 250.643 -3.70095 -3.17617 0
M  V30 2681 H 249.648 -5.28806 -1.5048 0
M  V30 2682 H 250.873 -6.51085 -1.93043 0
M  V30 2683 H 248.819 -5.32284 -3.83418 0
M  V30 2684 H 248.736 -6.89293 -3.105 0
M  V30 2685 H 250.004 -6.5405 -4.24075 0
M  V30 2686 N 254.233 0.115231 -1.57178 0
M  V30 2687 C 255.458 0.840354 -1.89612 0
M  V30 2688 C 255.883 1.72464 -0.750845 0
M  V30 2689 O 255.241 1.78826 0.298478 0
M  V30 2690 C 255.289 1.64654 -3.20814 0
M  V30 2691 O 254.393 2.7538 -3.06985 0
M  V30 2692 H 253.734 0.232158 -0.622092 0
M  V30 2693 H 256.264 0.0964977 -2.04372 0
M  V30 2694 H 256.274 2.03499 -3.53627 0
M  V30 2695 H 254.949 0.997416 -4.03763 0
M  V30 2696 H 253.526 2.3971 -2.85646 0
M  V30 2697 N 255.711 1.52812 0.385517 0
M  V30 2698 C 256.939 1.71907 1.15133 0
M  V30 2699 C 257.354 0.439004 1.83625 0
M  V30 2700 O 256.711 -0.586765 1.7281 0
M  V30 2701 C 256.762 2.87099 2.19673 0
M  V30 2702 O 256.483 4.10151 1.53973 0
M  V30 2703 C 257.984 3.17902 3.08955 0
M  V30 2704 H 255.204 0.575479 0.345057 0
M  V30 2705 H 257.748 1.99476 0.45052 0
M  V30 2706 H 255.903 2.61982 2.85384 0
M  V30 2707 H 256.317 4.74514 2.23465 0
M  V30 2708 H 257.791 4.01959 3.7833 0
M  V30 2709 H 258.268 2.3243 3.72657 0
M  V30 2710 H 258.874 3.44871 2.48885 0
M  V30 2711 N 257.189 -0.644168 1.43834 0
M  V30 2712 C 258.136 -1.75671 1.49694 0
M  V30 2713 C 259.106 -1.6246 0.345809 0
M  V30 2714 O 260.291 -1.82573 0.554234 0
M  V30 2715 C 257.431 -3.13867 1.43463 0
M  V30 2716 C 256.544 -3.38147 2.6885 0
M  V30 2717 C 255.679 -4.66241 2.54544 0
M  V30 2718 C 254.718 -4.83657 3.75157 0
M  V30 2719 N 253.855 -6.03016 3.59605 0
M  V30 2720 H 258.695 -1.69998 2.44754 0
M  V30 2721 H 256.232 -0.829458 1.21484 0
M  V30 2722 H 258.19 -3.9377 1.37843 0
M  V30 2723 H 256.82 -3.18588 0.519783 0
M  V30 2724 H 255.872 -2.52276 2.84712 0
M  V30 2725 H 257.184 -3.46899 3.58417 0
M  V30 2726 H 256.338 -5.54285 2.46683 0
M  V30 2727 H 255.077 -4.59826 1.62516 0
M  V30 2728 H 254.082 -3.94046 3.83416 0
M  V30 2729 H 255.307 -4.91896 4.68204 0
M  V30 2730 H 253.253 -5.97715 2.7032 0
M  V30 2731 H 253.17 -6.12766 4.42779 0
M  V30 2732 H 254.438 -6.93657 3.55613 0
M  V30 2733 N 258.668 -1.30515 -0.883378 0
M  V30 2734 C 259.917 -1.18795 -1.63005 0
M  V30 2735 C 260.23 0.255923 -1.93919 0
M  V30 2736 O 261.436 0.494654 -2.66956 0
M  V30 2737 C 259.892 -2.07878 -2.93794 0
M  V30 2738 C 259.5 -3.57184 -2.70414 0
M  V30 2739 C 261.244 -2.04924 -3.71761 0
M  V30 2740 C 259.151 -4.38317 -3.97029 0
M  V30 2741 H 258.081 -0.441031 -0.611562 0
M  V30 2742 H 260.732 -1.55275 -0.977854 0
M  V30 2743 H 259.114 -1.64283 -3.60315 0
M  V30 2744 H 260.288 -4.08937 -2.12384 0
M  V30 2745 H 258.603 -3.61976 -2.0582 0
M  V30 2746 H 261.2 -2.62792 -4.65665 0
M  V30 2747 H 261.543 -1.0331 -4.03277 0
M  V30 2748 H 262.076 -2.46649 -3.12104 0
M  V30 2749 H 258.815 -5.40632 -3.70671 0
M  V30 2750 H 258.335 -3.91326 -4.54559 0
M  V30 2751 H 260.014 -4.49834 -4.65036 0
M  V30 2752 N 260.146 1.09593 -1.13257 0
M  V30 2753 C 261.423 1.78293 -0.804432 0
M  V30 2754 C 261.803 1.99004 0.70431 0
M  V30 2755 O 261.151 1.59007 1.641 0
M  V30 2756 C 261.361 3.10707 -1.5894 0
M  V30 2757 C 262.709 3.85443 -1.78099 0
M  V30 2758 O 263.733 3.20454 -1.55525 0
M  V30 2759 O 262.592 5.02108 -2.15753 0
M  V30 2760 H 259.686 0.773156 -0.293528 0
M  V30 2761 H 262.232 1.16164 -1.23709 0
M  V30 2762 H 261.004 2.91106 -2.61482 0
M  V30 2763 H 260.627 3.80558 -1.15157 0
M  V30 2764 N 261.624 0.925811 1.2754 0
M  V30 2765 C 262.852 0.581509 1.9856 0
M  V30 2766 C 263.267 -0.840041 1.69082 0
M  V30 2767 O 262.624 -1.55805 0.950312 0
M  V30 2768 C 262.675 0.795589 3.52637 0
M  V30 2769 O 262.396 2.16121 3.81082 0
M  V30 2770 C 263.897 0.459744 4.4091 0
M  V30 2771 H 261.117 0.220538 0.633722 0
M  V30 2772 H 263.661 1.24232 1.6244 0
M  V30 2773 H 261.816 0.18161 3.86974 0
M  V30 2774 H 262.23 2.2098 4.75676 0
M  V30 2775 H 263.704 0.660244 5.48037 0
M  V30 2776 H 264.181 -0.604625 4.35018 0
M  V30 2777 H 264.787 1.05178 4.12089 0
M  V30 2778 N 263.102 -1.41638 0.69111 0
M  V30 2779 C 264.348 -2.01598 0.220519 0
M  V30 2780 C 264.681 -1.54594 -1.17535 0
M  V30 2781 O 263.956 -0.755177 -1.79241 0
M  V30 2782 C 264.239 -3.59062 0.273243 0
M  V30 2783 C 264.092 -4.16203 1.70573 0
M  V30 2784 C 265.411 -4.38546 -0.369457 0
M  V30 2785 H 262.53 -0.732468 0.0816045 0
M  V30 2786 H 265.172 -1.68445 0.878986 0
M  V30 2787 H 263.322 -3.87435 -0.287411 0
M  V30 2788 H 264.994 -3.98722 2.31989 0
M  V30 2789 H 263.237 -3.71414 2.2413 0
M  V30 2790 H 263.908 -5.25358 1.69419 0
M  V30 2791 H 266.384 -4.1596 0.107977 0
M  V30 2792 H 265.26 -5.48069 -0.302002 0
M  V30 2793 H 265.521 -4.17662 -1.44951 0
M  V30 2794 N 264.58 -0.43555 -1.51462 0
M  V30 2795 C 265.829 0.133007 -2.01261 0
M  V30 2796 C 266.142 1.43942 -1.32439 0
M  V30 2797 O 267.348 2.09081 -1.73198 0
M  V30 2798 C 265.804 0.287581 -3.58749 0
M  V30 2799 C 265.412 -1.00829 -4.36506 0
M  V30 2800 C 267.156 0.810004 -4.167 0
M  V30 2801 C 265.063 -0.819454 -5.85695 0
M  V30 2802 H 263.993 0.0534822 -0.752101 0
M  V30 2803 H 266.644 -0.565038 -1.74584 0
M  V30 2804 H 265.026 1.04859 -3.81865 0
M  V30 2805 H 266.2 -1.77749 -4.25138 0
M  V30 2806 H 264.515 -1.45911 -3.89999 0
M  V30 2807 H 267.112 0.967743 -5.2587 0
M  V30 2808 H 267.455 1.79196 -3.75758 0
M  V30 2809 H 267.988 0.107357 -3.97655 0
M  V30 2810 H 264.727 -1.77374 -6.31046 0
M  V30 2811 H 264.247 -0.0900208 -5.99732 0
M  V30 2812 H 265.926 -0.471949 -6.45276 0
M  V30 2813 N 266.058 1.56714 -0.166846 0
M  V30 2814 C 266.988 2.20754 0.760913 0
M  V30 2815 C 267.969 1.16178 1.24244 0
M  V30 2816 O 269.154 1.44592 1.29641 0
M  V30 2817 C 266.284 2.84478 1.99223 0
M  V30 2818 C 265.238 3.95053 1.64672 0
M  V30 2819 C 264.564 4.45805 2.95232 0
M  V30 2820 C 265.864 5.14865 0.878155 0
M  V30 2821 H 267.558 2.98537 0.22713 0
M  V30 2822 H 265.104 1.43596 0.107805 0
M  V30 2823 H 267.057 3.27951 2.64624 0
M  V30 2824 H 265.781 2.04056 2.55007 0
M  V30 2825 H 264.44 3.52228 1.01641 0
M  V30 2826 H 264.088 3.62181 3.49047 0
M  V30 2827 H 263.788 5.204 2.7287 0
M  V30 2828 H 265.312 4.91962 3.6167 0
M  V30 2829 H 266.726 5.55059 1.43466 0
M  V30 2830 H 265.123 5.95348 0.753738 0
M  V30 2831 H 266.193 4.84735 -0.126377 0
M  V30 2832 N 267.536 -0.106894 1.57237 0
M  V30 2833 C 268.784 -0.810921 1.85117 0
M  V30 2834 C 269.105 -1.7984 0.753827 0
M  V30 2835 O 268.375 -1.94649 -0.221056 0
M  V30 2836 H 266.955 -0.302466 0.683025 0
M  V30 2837 H 269.617 -0.0913324 1.94686 0
M  V30 2838 H 268.713 -1.34875 2.81452 0
M  V30 2839 N 269.014 -1.53014 -0.377408 0
M  V30 2840 C 270.254 -1.70318 -1.1301 0
M  V30 2841 C 270.618 -0.439538 -1.86901 0
M  V30 2842 O 271.819 -0.489095 -2.64313 0
M  V30 2843 C 270.09 -2.91125 -2.07319 0
M  V30 2844 S 271.649 -3.29075 -2.90268 0
M  V30 2845 H 268.467 -0.599426 -0.382374 0
M  V30 2846 H 271.069 -1.91089 -0.412933 0
M  V30 2847 H 269.773 -3.81303 -1.51777 0
M  V30 2848 H 269.304 -2.7272 -2.83526 0
M  V30 2849 H 271.319 -2.80165 -4.09539 0
M  V30 2850 N 270.492 0.636531 -1.44174 0
M  V30 2851 C 271.72 1.42353 -1.50144 0
M  V30 2852 C 272.135 1.88389 -0.124575 0
M  V30 2853 O 271.492 1.6051 0.868489 0
M  V30 2854 C 271.543 2.64744 -2.46156 0
M  V30 2855 O 271.264 2.20629 -3.7849 0
M  V30 2856 C 272.765 3.57929 -2.61537 0
M  V30 2857 H 269.985 0.436752 -0.5094 0
M  V30 2858 H 272.529 0.778933 -1.89084 0
M  V30 2859 H 270.684 3.25307 -2.10366 0
M  V30 2860 H 271.098 2.99938 -4.30276 0
M  V30 2861 H 272.572 4.40428 -3.32757 0
M  V30 2862 H 273.049 4.06382 -1.66585 0
M  V30 2863 H 273.655 3.03238 -2.98206 0
M  V30 2864 N 271.97 1.30982 0.876444 0
M  V30 2865 C 272.92 1.14688 1.97055 0
M  V30 2866 C 273.904 0.0596593 1.60789 0
M  V30 2867 O 275.096 0.283892 1.74708 0
M  V30 2868 C 272.225 0.849627 3.3262 0
M  V30 2869 C 271.311 1.97752 3.75173 0
M  V30 2870 N 271.702 3.22384 3.89746 0
M  V30 2871 C 270 1.8758 4.04635 0
M  V30 2872 C 270.701 3.96121 4.25985 0
M  V30 2873 N 269.677 3.24237 4.36315 0
M  V30 2874 H 273.479 2.09204 2.06424 0
M  V30 2875 H 270.993 1.22445 1.06682 0
M  V30 2876 H 272.99 0.713895 4.10742 0
M  V30 2877 H 271.65 -0.087376 3.24582 0
M  V30 2878 H 272.661 3.57575 3.74647 0
M  V30 2879 H 269.338 1.01303 4.05024 0
M  V30 2880 H 270.728 5.03491 4.44911 0
M  V30 2881 N 273.449 -1.08991 1.13837 0
M  V30 2882 C 274.679 -1.84743 0.924859 0
M  V30 2883 C 275.087 -1.81629 -0.529874 0
M  V30 2884 O 274.43 -1.21397 -1.37872 0
M  V30 2885 C 274.492 -3.33568 1.34061 0
M  V30 2886 C 274.156 -3.60425 2.80968 0
M  V30 2887 C 275.153 -3.55771 3.79108 0
M  V30 2888 C 272.838 -3.88627 3.18236 0
M  V30 2889 C 274.832 -3.78939 5.12527 0
M  V30 2890 C 272.519 -4.11449 4.51833 0
M  V30 2891 C 273.517 -4.06598 5.48787 0
M  V30 2892 O 273.205 -4.28826 6.79973 0
M  V30 2893 H 272.937 -0.590258 0.329502 0
M  V30 2894 H 275.491 -1.38598 1.51591 0
M  V30 2895 H 273.721 -3.80442 0.692853 0
M  V30 2896 H 275.41 -3.90743 1.09886 0
M  V30 2897 H 276.176 -3.34005 3.51661 0
M  V30 2898 H 272.055 -3.91526 2.43369 0
M  V30 2899 H 275.599 -3.75068 5.88192 0
M  V30 2900 H 271.496 -4.32698 4.79002 0
M  V30 2901 H 272.264 -4.46264 6.86142 0
M  V30 2902 N 274.927 -0.932562 -1.27047 0
M  V30 2903 C 276.338 -0.619451 -1.76124 0
M  V30 2904 C 276.689 0.865397 -1.76083 0
M  V30 2905 O 275.814 1.67722 -1.36742 0
M  V30 2906 C 276.409 -1.11771 -3.19832 0
M  V30 2907 C 274.968 -0.855174 -3.66557 0
M  V30 2908 C 274.115 -1.27362 -2.46321 0
M  V30 2909 H 277.066 -1.11181 -1.13245 0
M  V30 2910 H 277.087 -0.46759 -3.77616 0
M  V30 2911 H 276.599 -2.19842 -3.1983 0
M  V30 2912 H 274.7 0.211524 -3.71999 0
M  V30 2913 H 274.813 -1.47613 -4.55793 0
M  V30 2914 H 273.177 -0.692119 -2.45116 0
M  V30 2915 H 273.96 -2.36307 -2.49025 0
M  V30 2916 N 276.405 1.4127 -0.698611 0
M  V30 2917 C 277.335 2.33447 -0.049629 0
M  V30 2918 C 278.316 1.51982 0.763898 0
M  V30 2919 O 279.501 1.80509 0.716257 0
M  V30 2920 C 276.631 3.35828 0.885267 0
M  V30 2921 C 275.585 4.27627 0.178613 0
M  V30 2922 C 274.911 5.20406 1.22807 0
M  V30 2923 C 276.211 5.13459 -0.956933 0
M  V30 2924 H 277.905 2.87966 -0.81951 0
M  V30 2925 H 275.451 1.38461 -0.395538 0
M  V30 2926 H 277.404 3.9924 1.34854 0
M  V30 2927 H 276.128 2.79666 1.68685 0
M  V30 2928 H 274.787 3.65643 -0.26466 0
M  V30 2929 H 274.435 4.60558 2.02226 0
M  V30 2930 H 274.135 5.82661 0.760239 0
M  V30 2931 H 275.659 5.86695 1.69179 0
M  V30 2932 H 277.073 5.70421 -0.573805 0
M  V30 2933 H 275.47 5.8467 -1.35205 0
M  V30 2934 H 276.54 4.50443 -1.79524 0
M  V30 2935 N 277.883 0.443576 1.51229 0
M  V30 2936 C 278.813 -0.355142 2.30783 0
M  V30 2937 C 279.794 -1.0154 1.36468 0
M  V30 2938 O 280.979 -1.01785 1.65389 0
M  V30 2939 C 278.109 -1.45312 3.15439 0
M  V30 2940 C 277.063 -0.916002 4.18083 0
M  V30 2941 C 276.389 -2.1102 4.91299 0
M  V30 2942 C 277.689 0.0538602 5.22272 0
M  V30 2943 H 279.383 0.308767 2.97804 0
M  V30 2944 H 276.929 0.149937 1.43217 0
M  V30 2945 H 278.882 -2.01914 3.69876 0
M  V30 2946 H 277.606 -2.14541 2.46252 0
M  V30 2947 H 276.265 -0.372145 3.64706 0
M  V30 2948 H 275.913 -2.78882 4.18609 0
M  V30 2949 H 275.613 -1.75717 5.60712 0
M  V30 2950 H 277.137 -2.68164 5.48562 0
M  V30 2951 H 278.551 -0.422069 5.71744 0
M  V30 2952 H 276.948 0.319776 5.99247 0
M  V30 2953 H 278.018 0.98858 4.74716 0
M  V30 2954 N 279.361 -1.56624 0.175154 0
M  V30 2955 C 280.308 -2.18149 -0.753634 0
M  V30 2956 C 281.278 -1.12265 -1.22417 0
M  V30 2957 O 282.463 -1.40432 -1.29165 0
M  V30 2958 C 279.603 -2.82933 -1.97592 0
M  V30 2959 C 278.716 -4.03289 -1.5486 0
M  V30 2960 C 277.851 -4.55988 -2.72485 0
M  V30 2961 C 276.89 -5.68746 -2.26262 0
M  V30 2962 N 276.027 -6.15938 -3.36994 0
M  V30 2963 H 280.867 -2.9717 -0.222195 0
M  V30 2964 H 278.404 -1.46774 -0.0979422 0
M  V30 2965 H 280.362 -3.18653 -2.69288 0
M  V30 2966 H 278.992 -2.06509 -2.481 0
M  V30 2967 H 278.044 -3.73364 -0.728246 0
M  V30 2968 H 279.356 -4.849 -1.16933 0
M  V30 2969 H 278.51 -4.9391 -3.52332 0
M  V30 2970 H 277.249 -3.73443 -3.13674 0
M  V30 2971 H 276.254 -5.30372 -1.44863 0
M  V30 2972 H 277.479 -6.53095 -1.86127 0
M  V30 2973 H 275.425 -5.36321 -3.77751 0
M  V30 2974 H 275.342 -6.92548 -3.03172 0
M  V30 2975 H 276.61 -6.58511 -4.17114 0
M  V30 2976 N 280.839 0.0985539 -1.57292 0
M  V30 2977 C 282.25 0.653457 -1.74891 0
M  V30 2978 C 282.601 1.7929 -0.796838 0
M  V30 2979 O 281.726 2.16385 0.0254886 0
M  V30 2980 C 282.321 1.19216 -3.17133 0
M  V30 2981 C 280.88 1.69316 -3.36168 0
M  V30 2982 C 280.027 0.601294 -2.70702 0
M  V30 2983 H 282.978 -0.127497 -1.58187 0
M  V30 2984 H 282.999 2.06154 -3.19814 0
M  V30 2985 H 282.511 0.362635 -3.86402 0
M  V30 2986 H 280.612 2.5468 -2.71972 0
M  V30 2987 H 280.725 1.78853 -4.44464 0
M  V30 2988 H 279.089 1.0399 -2.32504 0
M  V30 2989 H 279.872 -0.217592 -3.4261 0
M  V30 2990 N 282.317 1.53212 0.369288 0
M  V30 2991 C 283.566 1.68436 1.10961 0
M  V30 2992 C 283.879 0.440738 1.9057 0
M  V30 2993 O 285.085 0.473446 2.6734 0
M  V30 2994 C 283.541 2.97744 2.0218 0
M  V30 2995 C 283.149 4.29355 1.279 0
M  V30 2996 C 284.893 3.22334 2.76226 0
M  V30 2997 C 282.8 5.49755 2.17999 0
M  V30 2998 H 281.73 0.627568 0.41794 0
M  V30 2999 H 284.381 1.79713 0.370884 0
M  V30 3000 H 282.763 2.8026 2.79768 0
M  V30 3001 H 283.937 4.57458 0.554007 0
M  V30 3002 H 282.252 4.11179 0.657311 0
M  V30 3003 H 284.849 4.09471 3.43857 0
M  V30 3004 H 285.192 2.38238 3.41392 0
M  V30 3005 H 285.725 3.40475 2.05723 0
M  V30 3006 H 282.464 6.36318 1.57417 0
M  V30 3007 H 281.984 5.25937 2.88359 0
M  V30 3008 H 283.663 5.84401 2.77641 0
M  V30 3009 N 283.795 -0.628877 1.44509 0
M  V30 3010 C 285.044 -1.38437 1.4669 0
M  V30 3011 C 285.357 -1.95322 0.104272 0
M  V30 3012 O 286.563 -2.715 0.00362163 0
M  V30 3013 C 285.019 -2.50659 2.5826 0
M  V30 3014 C 284.627 -2.00277 4.0074 0
M  V30 3015 C 286.371 -3.27844 2.69664 0
M  V30 3016 C 284.278 -3.09854 5.0373 0
M  V30 3017 H 283.208 -0.520245 0.545766 0
M  V30 3018 H 285.859 -0.676313 1.70582 0
M  V30 3019 H 284.241 -3.2405 2.27612 0
M  V30 3020 H 285.415 -1.33736 4.40966 0
M  V30 3021 H 283.73 -1.35901 3.93599 0
M  V30 3022 H 286.327 -4.09534 3.43781 0
M  V30 3023 H 286.67 -3.77471 1.75559 0
M  V30 3024 H 287.203 -2.61543 2.99733 0
M  V30 3025 H 283.942 -2.65168 5.99472 0
M  V30 3026 H 283.462 -3.7503 4.68095 0
M  V30 3027 H 285.141 -3.74592 5.27532 0
M  V30 3028 N 285.273 -1.31445 -0.869486 0
M  V30 3029 C 286.183 -1.21097 -2.0093 0
M  V30 3030 C 287.199 -0.127584 -1.73532 0
M  V30 3031 O 288.375 -0.345477 -1.98415 0
M  V30 3032 C 285.44 -0.919378 -3.34288 0
M  V30 3033 C 284.501 -2.08971 -3.75006 0
M  V30 3034 C 283.734 -1.81194 -5.02001 0
M  V30 3035 O 283.957 -0.747296 -5.65484 0
M  V30 3036 O 282.891 -2.66883 -5.39497 0
M  V30 3037 H 286.717 -2.16883 -2.12592 0
M  V30 3038 H 284.302 -1.11189 -0.997868 0
M  V30 3039 H 286.184 -0.772625 -4.14257 0
M  V30 3040 H 284.859 0.00844772 -3.23699 0
M  V30 3041 H 283.766 -2.29187 -2.95676 0
M  V30 3042 H 285.099 -2.9998 -3.90221 0
M  V30 3043 N 286.751 1.08385 -1.14413 0
M  V30 3044 C 287.699 2.17406 -0.826888 0
M  V30 3045 C 288.693 1.6827 0.195312 0
M  V30 3046 O 289.899 1.79927 0.0513892 0
M  V30 3047 H 286.274 0.70934 -0.249681 0
M  V30 3048 H 288.245 2.41388 -1.75426 0
M  V30 3049 C 286.994 3.46215 -0.320979 0
M  V30 3050 H 286.317 3.84401 -1.0989 0
M  V30 3051 H 287.757 4.23777 -0.137549 0
M  V30 3052 C 286.216 3.23067 0.955472 0
M  V30 3053 O 286.746 3.4668 2.02918 0
M  V30 3054 N 284.952 2.7661 0.890798 0
M  V30 3055 H 284.499 2.57594 0.0168815 0
M  V30 3056 H 284.457 2.61501 1.74542 0
M  V30 3057 N 288.23 0.939286 1.26551 0
M  V30 3058 C 289.477 0.585847 1.9384 0
M  V30 3059 C 289.805 -0.874784 1.73718 0
M  V30 3060 O 289.06 -1.64092 1.06642 0
M  V30 3061 C 289.359 0.872106 3.46596 0
M  V30 3062 C 289.025 2.31632 3.86856 0
M  V30 3063 C 287.687 2.71111 3.97558 0
M  V30 3064 C 290.039 3.25494 4.07066 0
M  V30 3065 C 287.367 4.03553 4.25866 0
M  V30 3066 C 289.719 4.57531 4.36862 0
M  V30 3067 C 288.383 4.96828 4.45778 0
M  V30 3068 H 287.653 0.214377 0.709312 0
M  V30 3069 H 290.3 1.18544 1.50398 0
M  V30 3070 H 288.605 0.18996 3.91339 0
M  V30 3071 H 290.302 0.577442 3.96821 0
M  V30 3072 H 286.892 2.00008 3.79071 0
M  V30 3073 H 291.076 2.9619 3.98227 0
M  V30 3074 H 286.332 4.33665 4.30981 0
M  V30 3075 H 290.506 5.30254 4.51446 0
M  V30 3076 H 288.133 5.99482 4.67468 0
M  V30 3077 N 289.708 -1.40897 0.706093 0
M  V30 3078 C 290.641 -2.282 -0.00328781 0
M  V30 3079 C 291.619 -1.42816 -0.77732 0
M  V30 3080 O 292.803 -1.72237 -0.765944 0
M  V30 3081 C 289.93 -3.23226 -1.01205 0
M  V30 3082 C 288.976 -4.25222 -0.329955 0
M  V30 3083 S 289.809 -5.27269 0.935298 0
M  V30 3084 C 290.965 -6.25859 -0.0716061 0
M  V30 3085 H 291.198 -2.88016 0.737143 0
M  V30 3086 H 288.731 -1.46191 0.496756 0
M  V30 3087 H 290.689 -3.78503 -1.58888 0
M  V30 3088 H 289.35 -2.62485 -1.72513 0
M  V30 3089 H 288.543 -4.92023 -1.09221 0
M  V30 3090 H 288.145 -3.73595 0.174069 0
M  V30 3091 H 290.437 -6.71204 -0.921521 0
M  V30 3092 H 291.38 -7.0586 0.562765 0
M  V30 3093 H 291.788 -5.62852 -0.431088 0
M  V30 3094 N 291.186 -0.45159 -1.50991 0
M  V30 3095 C 292.434 0.109857 -2.01801 0
M  V30 3096 C 292.755 1.41958 -1.3369 0
M  V30 3097 O 292.025 1.9003 -0.475951 0
M  V30 3098 H 290.605 0.0435884 -0.745727 0
M  V30 3099 H 293.267 -0.597557 -1.85514 0
M  V30 3100 H 292.363 0.275489 -3.10882 0
M  V30 3101 N 292.664 1.56529 -0.183458 0
M  V30 3102 C 293.941 1.88959 0.50536 0
M  V30 3103 C 294.321 1.09523 1.80466 0
M  V30 3104 O 293.669 0.19278 2.27685 0
M  V30 3105 C 293.879 3.41162 0.73547 0
M  V30 3106 C 295.227 4.11155 1.06005 0
M  V30 3107 O 296.251 3.46548 0.823594 0
M  V30 3108 O 295.11 5.25318 1.50675 0
M  V30 3109 H 292.204 0.78441 0.261973 0
M  V30 3110 H 294.75 1.68231 -0.222802 0
M  V30 3111 H 293.522 3.90874 -0.182561 0
M  V30 3112 H 293.145 3.67543 1.51651 0
M  V30 3113 N 294.142 -0.090211 1.57342 0
M  V30 3114 C 295.39 -0.791241 1.85967 0
M  V30 3115 C 295.711 -1.7903 0.772859 0
M  V30 3116 O 294.981 -1.94872 -0.200398 0
M  V30 3117 H 293.561 -0.295205 0.686195 0
M  V30 3118 H 296.223 -0.0706782 1.94772 0
M  V30 3119 H 295.319 -1.31882 2.82867 0
M  V30 3120 N 295.62 -1.53406 -0.361157 0
M  V30 3121 C 296.866 -1.70054 -1.10496 0
M  V30 3122 C 297.199 -0.453278 -1.88836 0
M  V30 3123 O 296.474 0.5495 -1.86576 0
M  V30 3124 C 296.757 -2.95317 -2.06058 0
M  V30 3125 C 296.61 -4.3021 -1.31298 0
M  V30 3126 C 297.929 -3.16193 -3.06121 0
M  V30 3127 H 295.048 -0.618799 -0.400321 0
M  V30 3128 H 297.69 -1.86052 -0.385318 0
M  V30 3129 H 295.84 -2.81809 -2.67425 0
M  V30 3130 H 297.512 -4.55538 -0.726807 0
M  V30 3131 H 295.755 -4.29421 -0.614853 0
M  V30 3132 H 296.426 -5.14 -2.01265 0
M  V30 3133 H 298.902 -3.28916 -2.5486 0
M  V30 3134 H 297.778 -4.05266 -3.70204 0
M  V30 3135 H 298.039 -2.31676 -3.76535 0
M  V30 3136 N 297.098 0.621204 -1.44841 0
M  V30 3137 C 298.061 1.71459 -1.521 0
M  V30 3138 C 299.061 1.55696 -0.401933 0
M  V30 3139 O 300.251 1.61011 -0.664925 0
M  V30 3140 C 297.383 3.10624 -1.40447 0
M  V30 3141 H 298.576 1.66394 -2.49506 0
M  V30 3142 H 296.129 0.835745 -1.3208 0
M  V30 3143 H 296.864 3.21277 -0.441737 0
M  V30 3144 H 296.649 3.23473 -2.21602 0
M  V30 3145 H 298.139 3.90293 -1.4853 0
M  V30 3146 N 298.576 1.31904 0.862503 0
M  V30 3147 C 299.822 1.22197 1.61851 0
M  V30 3148 C 300.155 -0.217641 1.92977 0
M  V30 3149 O 299.43 -1.15264 1.56666 0
M  V30 3150 C 299.713 2.07378 2.94391 0
M  V30 3151 C 299.566 3.59678 2.70096 0
M  V30 3152 C 300.885 1.92891 3.95577 0
M  V30 3153 H 298.004 0.445255 0.587296 0
M  V30 3154 H 300.646 1.6177 0.99651 0
M  V30 3155 H 298.796 1.73758 3.47477 0
M  V30 3156 H 300.468 4.03472 2.23625 0
M  V30 3157 H 298.711 3.82735 2.04197 0
M  V30 3158 H 299.382 4.14595 3.64438 0
M  V30 3159 H 301.858 2.22327 3.51724 0
M  V30 3160 H 300.734 2.54781 4.86187 0
M  V30 3161 H 300.995 0.894315 4.3296 0
M  V30 3162 N 300.054 -1.07777 1.14986 0
M  V30 3163 C 301.303 -1.79669 0.916617 0
M  V30 3164 C 301.616 -1.87474 -0.557917 0
M  V30 3165 O 302.822 -2.55845 -0.908617 0
M  V30 3166 C 301.278 -3.22848 1.59051 0
M  V30 3167 C 300.886 -3.23257 3.10176 0
M  V30 3168 C 302.63 -3.99379 1.43864 0
M  V30 3169 C 300.537 -4.61063 3.70372 0
M  V30 3170 H 299.467 -0.673349 0.33929 0
M  V30 3171 H 302.118 -1.21003 1.37951 0
M  V30 3172 H 300.5 -3.8168 1.0553 0
M  V30 3173 H 301.674 -2.74095 3.70417 0
M  V30 3174 H 299.989 -2.60222 3.25074 0
M  V30 3175 H 302.586 -5.0122 1.86232 0
M  V30 3176 H 302.929 -4.14511 0.385564 0
M  V30 3177 H 303.462 -3.47032 1.94457 0
M  V30 3178 H 300.201 -4.51135 4.7556 0
M  V30 3179 H 299.721 -5.1048 3.14913 0
M  V30 3180 H 301.4 -5.30034 3.71043 0
M  V30 3181 N 301.532 -0.945985 -1.26051 0
M  V30 3182 C 302.48 -0.450259 -2.282 0
M  V30 3183 C 303.474 0.47497 -1.62605 0
M  V30 3184 O 304.68 0.352653 -1.76512 0
M  V30 3185 H 301.055 -0.127081 -0.741184 0
M  V30 3186 H 303.026 -1.32422 -2.67408 0
M  V30 3187 C 301.775 0.26467 -3.46691 0
M  V30 3188 H 301.098 -0.438123 -3.97392 0
M  V30 3189 H 302.538 0.575678 -4.20074 0
M  V30 3190 C 300.997 1.48416 -3.02447 0
M  V30 3191 O 301.527 2.58227 -3.07704 0
M  V30 3192 N 299.733 1.34243 -2.57735 0
M  V30 3193 H 299.28 0.448994 -2.53657 0
M  V30 3194 H 299.238 2.15957 -2.28495 0
M  V30 3195 N 303.011 1.40521 -0.713556 0
M  V30 3196 C 304.236 2.05759 -0.26035 0
M  V30 3197 C 304.661 1.53403 1.08854 0
M  V30 3198 O 304.019 0.668535 1.68524 0
M  V30 3199 C 304.067 3.59745 -0.248122 0
M  V30 3200 O 303.171 4.05123 0.77131 0
M  V30 3201 H 302.512 0.652564 -0.122703 0
M  V30 3202 H 305.042 1.79958 -0.973467 0
M  V30 3203 H 305.052 4.07911 -0.0851129 0
M  V30 3204 H 303.727 3.97218 -1.2325 0
M  V30 3205 H 302.304 3.68422 0.57619 0
M  V30 3206 N 304.489 0.459591 1.5075 0
M  V30 3207 C 305.737 -0.0991532 2.01857 0
M  V30 3208 C 306.058 -1.41247 1.34441 0
M  V30 3209 O 305.328 -1.89775 0.486022 0
M  V30 3210 H 303.908 -0.039633 0.745948 0
M  V30 3211 H 306.57 0.607387 1.85194 0
M  V30 3212 H 305.666 -0.258998 3.11023 0
M  V30 3213 N 305.967 -1.56429 0.191757 0
M  V30 3214 C 306.877 -2.22541 -0.742481 0
M  V30 3215 C 307.893 -1.22342 -1.23727 0
M  V30 3216 O 309.069 -1.55069 -1.28513 0
M  V30 3217 C 306.134 -2.8692 -1.94623 0
M  V30 3218 C 305.195 -4.02378 -1.49633 0
M  V30 3219 C 304.428 -4.63678 -2.6427 0
M  V30 3220 O 304.651 -4.23895 -3.81666 0
M  V30 3221 O 303.585 -5.53202 -2.37174 0
M  V30 3222 H 307.411 -3.02977 -0.209462 0
M  V30 3223 H 304.996 -1.49353 -0.0373832 0
M  V30 3224 H 306.878 -3.27663 -2.64982 0
M  V30 3225 H 305.553 -2.09466 -2.46791 0
M  V30 3226 H 304.46 -3.66265 -0.761636 0
M  V30 3227 H 305.793 -4.81487 -1.02134 0
M  V30 3228 N 307.445 0.0818655 -1.57387 0
M  V30 3229 C 308.355 1.11642 -2.06333 0
M  V30 3230 C 309.371 1.43033 -0.99083 0
M  V30 3231 O 310.547 1.53411 -1.30488 0
M  V30 3232 C 307.612 2.41342 -2.48907 0
M  V30 3233 C 306.673 2.17014 -3.7041 0
M  V30 3234 C 305.906 3.4053 -4.10944 0
M  V30 3235 O 306.129 4.4927 -3.51444 0
M  V30 3236 O 305.063 3.29336 -5.03807 0
M  V30 3237 H 308.889 0.730657 -2.9478 0
M  V30 3238 H 306.474 0.295301 -1.46452 0
M  V30 3239 H 308.356 3.17691 -2.76858 0
M  V30 3240 H 307.031 2.79319 -1.63593 0
M  V30 3241 H 305.938 1.38403 -3.47556 0
M  V30 3242 H 307.271 1.83923 -4.56545 0
M  V30 3243 N 308.923 1.53595 0.353017 0
M  V30 3244 C 310.151 1.74311 1.1146 0
M  V30 3245 C 310.566 0.477854 1.82653 0
M  V30 3246 O 309.923 -0.549977 1.74016 0
M  V30 3247 C 309.974 2.91694 2.13534 0
M  V30 3248 O 309.695 4.13325 1.45238 0
M  V30 3249 C 311.196 3.24384 3.02142 0
M  V30 3250 H 308.416 0.582669 0.332773 0
M  V30 3251 H 310.96 2.00386 0.408107 0
M  V30 3252 H 309.115 2.67977 2.79763 0
M  V30 3253 H 309.529 4.79148 2.13349 0
M  V30 3254 H 311.003 4.09893 3.69718 0
M  V30 3255 H 311.48 2.40282 3.67643 0
M  V30 3256 H 312.086 3.50073 2.41514 0
M  V30 3257 N 310.401 -0.613514 1.45168 0
M  V30 3258 C 311.364 -1.7065 1.53007 0
M  V30 3259 C 312.364 -1.5548 0.410184 0
M  V30 3260 O 313.554 -1.60656 0.673455 0
M  V30 3261 C 310.686 -3.09875 1.42093 0
M  V30 3262 H 311.879 -1.65068 2.50385 0
M  V30 3263 H 309.432 -0.828728 1.32521 0
M  V30 3264 H 310.167 -3.21039 0.458769 0
M  V30 3265 H 309.952 -3.22293 2.23315 0
M  V30 3266 H 311.442 -3.895 1.50598 0
M  V30 3267 N 311.879 -1.3236 -0.855495 0
M  V30 3268 C 313.104 -1.2601 -1.64731 0
M  V30 3269 C 313.529 0.169068 -1.87339 0
M  V30 3270 O 312.887 1.12016 -1.42556 0
M  V30 3271 C 312.935 -2.02417 -2.98429 0
M  V30 3272 O 312.039 -1.3714 -3.8893 0
M  V30 3273 H 311.38 -0.434325 -0.502253 0
M  V30 3274 H 313.91 -1.74661 -1.06558 0
M  V30 3275 H 313.92 -2.12559 -3.48257 0
M  V30 3276 H 312.595 -3.06343 -2.81295 0
M  V30 3277 H 311.172 -1.3554 -3.47395 0
M  V30 3278 N 313.357 1.07166 -1.15556 0
M  V30 3279 C 314.267 2.17947 -0.868116 0
M  V30 3280 C 315.283 1.73297 0.156297 0
M  V30 3281 O 316.459 2.01392 -0.0182327 0
M  V30 3282 C 313.524 3.44789 -0.36355 0
M  V30 3283 C 312.585 4.03996 -1.45209 0
M  V30 3284 C 311.818 5.24783 -0.971508 0
M  V30 3285 O 312.041 5.70109 0.182194 0
M  V30 3286 O 310.975 5.75715 -1.75603 0
M  V30 3287 H 314.801 2.4503 -1.79427 0
M  V30 3288 H 312.386 1.16539 -0.934824 0
M  V30 3289 H 314.268 4.21307 -0.0887113 0
M  V30 3290 H 312.943 3.19253 0.534708 0
M  V30 3291 H 311.85 3.29009 -1.78056 0
M  V30 3292 H 313.183 4.33808 -2.32533 0
M  V30 3293 N 314.835 0.952656 1.25548 0
M  V30 3294 C 316.081 0.607272 1.93494 0
M  V30 3295 C 316.414 -0.853245 1.74452 0
M  V30 3296 O 315.689 -1.61194 1.08843 0
M  V30 3297 C 315.972 0.96435 3.46947 0
M  V30 3298 C 315.825 2.48045 3.75225 0
M  V30 3299 C 317.144 0.487987 4.37386 0
M  V30 3300 H 314.263 0.222096 0.702739 0
M  V30 3301 H 316.905 1.18895 1.48203 0
M  V30 3302 H 315.055 0.469361 3.85654 0
M  V30 3303 H 316.727 3.04905 3.46166 0
M  V30 3304 H 314.97 2.919 3.209 0
M  V30 3305 H 315.641 2.6808 4.82532 0
M  V30 3306 H 318.117 0.912558 4.0597 0
M  V30 3307 H 316.993 0.766547 5.43521 0
M  V30 3308 H 317.254 -0.612063 4.37843 0
M  V30 3309 N 316.313 -1.40141 0.720998 0
M  V30 3310 C 317.538 -2.05618 0.271258 0
M  V30 3311 C 317.963 -1.53978 -1.08039 0
M  V30 3312 O 317.321 -0.677463 -1.68167 0
M  V30 3313 C 317.369 -3.59609 0.267197 0
M  V30 3314 O 316.473 -4.05526 -0.749814 0
M  V30 3315 H 315.814 -0.651904 0.126162 0
M  V30 3316 H 318.344 -1.79439 0.982997 0
M  V30 3317 H 318.354 -4.0786 0.106744 0
M  V30 3318 H 317.029 -3.96559 1.25354 0
M  V30 3319 H 315.606 -3.68722 -0.556644 0
M  V30 3320 N 317.792 -0.46758 -1.50504 0
M  V30 3321 C 318.755 0.317059 -2.26996 0
M  V30 3322 C 319.755 0.923513 -1.31635 0
M  V30 3323 O 320.945 0.793239 -1.55091 0
M  V30 3324 C 318.077 1.45134 -3.08462 0
M  V30 3325 H 319.27 -0.353723 -2.97807 0
M  V30 3326 H 316.823 -0.221545 -1.54722 0
M  V30 3327 H 317.558 2.15728 -2.4214 0
M  V30 3328 H 317.343 1.02232 -3.78538 0
M  V30 3329 H 318.833 2.00493 -3.66323 0
M  V30 3330 N 319.27 1.56325 -0.20005 0
M  V30 3331 C 320.2 2.22318 0.713916 0
M  V30 3332 C 321.181 1.18788 1.21752 0
M  V30 3333 O 322.366 1.47309 1.26545 0
M  V30 3334 C 319.496 2.88639 1.93144 0
M  V30 3335 C 318.45 3.98457 1.56255 0
M  V30 3336 C 317.776 4.51967 2.85709 0
M  V30 3337 C 319.076 5.16612 0.768747 0
M  V30 3338 H 320.77 2.98952 0.163755 0
M  V30 3339 H 318.316 1.43792 0.0773219 0
M  V30 3340 H 320.269 3.33491 2.57608 0
M  V30 3341 H 318.993 2.09419 2.50621 0
M  V30 3342 H 317.652 3.54305 0.941471 0
M  V30 3343 H 317.3 3.69503 3.41287 0
M  V30 3344 H 317 5.26071 2.6177 0
M  V30 3345 H 318.524 4.99523 3.51154 0
M  V30 3346 H 319.938 5.57977 1.3166 0
M  V30 3347 H 318.335 5.96812 0.627286 0
M  V30 3348 H 319.405 4.84358 -0.229168 0
M  V30 3349 N 320.748 -0.0735177 1.57428 0
M  V30 3350 C 321.678 -1.0879 2.06608 0
M  V30 3351 C 322.659 -1.40473 0.959237 0
M  V30 3352 O 323.844 -1.5013 1.23185 0
M  V30 3353 C 320.974 -2.40183 2.50857 0
M  V30 3354 C 319.928 -2.22858 3.65402 0
M  V30 3355 C 319.254 -3.59619 3.957 0
M  V30 3356 C 320.554 -1.65123 4.95511 0
M  V30 3357 H 322.248 -0.678673 2.91607 0
M  V30 3358 H 319.794 -0.325013 1.40284 0
M  V30 3359 H 321.747 -3.11437 2.83874 0
M  V30 3360 H 320.471 -2.83083 1.62885 0
M  V30 3361 H 319.13 -1.54045 3.32664 0
M  V30 3362 H 318.778 -4.00086 3.04861 0
M  V30 3363 H 318.478 -3.48866 4.72828 0
M  V30 3364 H 320.002 -4.32306 4.31212 0
M  V30 3365 H 321.416 -2.26241 5.26771 0
M  V30 3366 H 319.813 -1.65071 5.7695 0
M  V30 3367 H 320.883 -0.612559 4.81015 0
M  V30 3368 N 322.226 -1.5378 -0.344866 0
M  V30 3369 C 323.503 -1.61589 -1.10219 0
M  V30 3370 C 323.883 -0.436316 -2.06542 0
M  V30 3371 O 323.231 0.571543 -2.21237 0
M  V30 3372 C 323.441 -2.97602 -1.82301 0
M  V30 3373 C 324.789 -3.5291 -2.36093 0
M  V30 3374 O 325.813 -2.99768 -1.924 0
M  V30 3375 O 324.672 -4.45859 -3.16026 0
M  V30 3376 H 321.766 -0.653522 -0.506792 0
M  V30 3377 H 324.312 -1.66126 -0.346465 0
M  V30 3378 H 323.084 -3.74893 -1.12121 0
M  V30 3379 H 322.707 -2.9665 -2.64735 0
M  V30 3380 N 323.704 0.605807 -1.45491 0
M  V30 3381 C 324.934 1.38934 -1.52908 0
M  V30 3382 C 325.342 1.88513 -0.161086 0
M  V30 3383 O 324.685 1.62962 0.847891 0
M  V30 3384 C 324.747 2.62737 -2.45376 0
M  V30 3385 C 324.411 2.34785 -3.92078 0
M  V30 3386 C 325.408 1.95038 -4.8193 0
M  V30 3387 C 323.093 2.47642 -4.37011 0
M  V30 3388 C 325.087 1.68511 -6.14722 0
M  V30 3389 C 322.774 2.20728 -5.69844 0
M  V30 3390 C 323.772 1.81225 -6.58519 0
M  V30 3391 O 323.46 1.54627 -7.88889 0
M  V30 3392 H 323.192 0.431629 -0.520262 0
M  V30 3393 H 325.746 0.74573 -1.91384 0
M  V30 3394 H 323.976 3.29824 -2.01874 0
M  V30 3395 H 325.665 3.24783 -2.43456 0
M  V30 3396 H 326.431 1.84639 -4.48479 0
M  V30 3397 H 322.31 2.77356 -3.68232 0
M  V30 3398 H 325.854 1.37602 -6.83894 0
M  V30 3399 H 321.751 2.30744 -6.02849 0
M  V30 3400 H 322.519 1.68665 -8.00933 0
M  V30 3401 N 325.182 1.32811 0.848464 0
M  V30 3402 C 326.132 1.18842 1.94578 0
M  V30 3403 C 327.116 0.0937517 1.60627 0
M  V30 3404 O 328.308 0.320887 1.74067 0
M  V30 3405 C 325.437 0.91999 3.30743 0
M  V30 3406 C 324.523 2.05665 3.70894 0
M  V30 3407 N 324.914 3.30579 3.8282 0
M  V30 3408 C 323.212 1.9612 4.00566 0
M  V30 3409 C 323.913 4.05067 4.17487 0
M  V30 3410 N 322.889 3.33419 4.2934 0
M  V30 3411 H 326.691 2.13536 2.0194 0
M  V30 3412 H 324.205 1.2468 1.0406 0
M  V30 3413 H 326.202 0.800859 4.09136 0
M  V30 3414 H 324.862 -0.0185076 3.24695 0
M  V30 3415 H 325.873 3.65441 3.66978 0
M  V30 3416 H 322.55 1.09871 4.02784 0
M  V30 3417 H 323.94 5.12815 4.34131 0
M  V30 3418 N 326.66 -1.06551 1.16123 0
M  V30 3419 C 327.608 -2.16063 0.861371 0
M  V30 3420 C 328.602 -1.6856 -0.168517 0
M  V30 3421 O 329.808 -1.79986 -0.0227579 0
M  V30 3422 H 326.183 -0.705278 0.260934 0
M  V30 3423 H 328.154 -2.38567 1.79244 0
M  V30 3424 C 326.903 -3.45661 0.376018 0
M  V30 3425 H 326.226 -3.82604 1.15992 0
M  V30 3426 H 327.666 -4.23504 0.204951 0
M  V30 3427 C 326.125 -3.24546 -0.903954 0
M  V30 3428 O 326.655 -3.49865 -1.97377 0
M  V30 3429 N 324.861 -2.77992 -0.846679 0
M  V30 3430 H 324.408 -2.57589 0.0241017 0
M  V30 3431 H 324.366 -2.64244 -1.70359 0
M  V30 3432 N 328.138 -0.959301 -1.25041 0
M  V30 3433 C 329.068 -0.501388 -2.28053 0
M  V30 3434 C 330.049 0.454673 -1.63911 0
M  V30 3435 O 331.234 0.352618 -1.90972 0
M  V30 3436 C 328.364 0.217224 -3.4662 0
M  V30 3437 C 327.318 -0.654034 -4.22973 0
M  V30 3438 C 326.644 0.195589 -5.34342 0
M  V30 3439 C 327.944 -1.93447 -4.85155 0
M  V30 3440 H 329.638 -1.36238 -2.66608 0
M  V30 3441 H 327.184 -0.656534 -1.28163 0
M  V30 3442 H 329.137 0.548732 -4.17812 0
M  V30 3443 H 327.861 1.1125 -3.07068 0
M  V30 3444 H 326.52 -0.968693 -3.5357 0
M  V30 3445 H 326.168 1.09076 -4.91031 0
M  V30 3446 H 325.868 -0.384091 -5.86343 0
M  V30 3447 H 327.392 0.521958 -6.08365 0
M  V30 3448 H 328.806 -1.66908 -5.48466 0
M  V30 3449 H 327.203 -2.46018 -5.47353 0
M  V30 3450 H 328.273 -2.63466 -4.07079 0
M  V30 3451 N 329.616 1.39756 -0.72842 0
M  V30 3452 C 330.546 2.33289 -0.0991354 0
M  V30 3453 C 331.527 1.53568 0.731489 0
M  V30 3454 O 332.712 1.81987 0.677807 0
M  V30 3455 C 329.842 3.3763 0.813834 0
M  V30 3456 C 328.796 4.2791 0.0878663 0
M  V30 3457 C 328.122 5.22894 1.11741 0
M  V30 3458 C 329.422 5.11314 -1.06563 0
M  V30 3459 H 331.116 2.86163 -0.880408 0
M  V30 3460 H 328.662 1.37591 -0.424819 0
M  V30 3461 H 330.615 4.0201 1.26355 0
M  V30 3462 H 329.339 2.83181 1.62715 0
M  V30 3463 H 327.998 3.65 -0.342159 0
M  V30 3464 H 327.646 4.64744 1.92412 0
M  V30 3465 H 327.346 5.84143 0.636477 0
M  V30 3466 H 328.87 5.90151 1.56697 0
M  V30 3467 H 330.284 5.69076 -0.694671 0
M  V30 3468 H 328.681 5.81671 -1.47577 0
M  V30 3469 H 329.751 4.46534 -1.89038 0
M  V30 3470 N 331.094 0.475555 1.50254 0
M  V30 3471 C 332.371 -0.139685 1.95101 0
M  V30 3472 C 332.751 -1.56555 1.41611 0
M  V30 3473 O 332.099 -2.19956 0.618993 0
M  V30 3474 C 332.309 -0.0784298 3.48912 0
M  V30 3475 C 333.657 -0.265095 4.23772 0
M  V30 3476 O 334.681 -0.154808 3.55863 0
M  V30 3477 O 333.54 -0.488327 5.44314 0
M  V30 3478 H 330.634 -0.109236 0.819754 0
M  V30 3479 H 333.18 0.536276 1.61004 0
M  V30 3480 H 331.952 0.916918 3.80405 0
M  V30 3481 H 331.575 -0.795655 3.89558 0
M  V30 3482 N 332.573 -1.56217 0.208337 0
M  V30 3483 C 333.536 -2.18455 -0.693557 0
M  V30 3484 C 334.536 -1.14268 -1.13135 0
M  V30 3485 O 335.726 -1.39577 -1.0423 0
M  V30 3486 C 332.858 -2.79727 -1.94848 0
M  V30 3487 H 334.051 -2.99519 -0.15114 0
M  V30 3488 H 331.604 -1.56245 -0.041287 0
M  V30 3489 H 332.339 -2.02497 -2.53309 0
M  V30 3490 H 332.124 -3.56009 -1.64316 0
M  V30 3491 H 333.614 -3.27475 -2.59133 0
M  V30 3492 N 334.051 0.0651679 -1.57465 0
M  V30 3493 C 335.279 0.775808 -1.91804 0
M  V30 3494 C 335.694 1.70782 -0.804916 0
M  V30 3495 O 335.051 1.81153 0.221311 0
M  V30 3496 C 335.102 1.56381 -3.25925 0
M  V30 3497 O 334.823 0.669248 -4.32958 0
M  V30 3498 C 336.324 2.37485 -3.7432 0
M  V30 3499 H 333.544 0.2202 -0.63384 0
M  V30 3500 H 336.088 0.0334587 -2.04473 0
M  V30 3501 H 334.243 2.25837 -3.14764 0
M  V30 3502 H 334.657 1.21801 -5.10162 0
M  V30 3503 H 336.131 2.88223 -4.70778 0
M  V30 3504 H 336.608 3.17307 -3.03666 0
M  V30 3505 H 337.214 1.73173 -3.88447 0
M  V30 3506 N 335.529 1.53961 0.336706 0
M  V30 3507 C 336.806 1.62171 1.09361 0
M  V30 3508 C 337.186 0.447263 2.06307 0
M  V30 3509 O 336.534 -0.559802 2.21537 0
M  V30 3510 C 336.744 2.98565 1.80721 0
M  V30 3511 C 338.092 3.54157 2.34218 0
M  V30 3512 O 339.116 3.00784 1.90807 0
M  V30 3513 O 337.975 4.47528 3.13657 0
M  V30 3514 H 335.069 0.6562 0.503319 0
M  V30 3515 H 337.615 1.66307 0.33765 0
M  V30 3516 H 336.387 3.75482 1.10132 0
M  V30 3517 H 336.01 2.9805 2.63158 0
M  V30 3518 N 337.007 -0.598083 1.45811 0
M  V30 3519 C 337.917 -1.73632 1.57763 0
M  V30 3520 C 338.933 -1.67763 0.461676 0
M  V30 3521 O 340.109 -1.87949 0.723685 0
M  V30 3522 C 337.174 -3.10114 1.55018 0
M  V30 3523 C 336.235 -3.27364 2.77726 0
M  V30 3524 C 335.468 -4.57334 2.75102 0
M  V30 3525 O 335.691 -5.40258 1.8297 0
M  V30 3526 O 334.625 -4.77502 3.66437 0
M  V30 3527 H 338.451 -1.66498 2.53992 0
M  V30 3528 H 336.036 -0.763308 1.28429 0
M  V30 3529 H 337.918 -3.9141 1.56129 0
M  V30 3530 H 336.593 -3.17718 0.619431 0
M  V30 3531 H 335.5 -2.45619 2.82174 0
M  V30 3532 H 336.833 -3.24641 3.69958 0
M  V30 3533 N 338.485 -1.33259 -0.841409 0
M  V30 3534 C 339.395 -1.25332 -1.98316 0
M  V30 3535 C 340.411 -0.164364 -1.73222 0
M  V30 3536 O 341.587 -0.387486 -1.97637 0
M  V30 3537 C 338.652 -0.990078 -3.32262 0
M  V30 3538 C 337.713 -2.16879 -3.70489 0
M  V30 3539 C 336.946 -1.91801 -4.98044 0
M  V30 3540 O 337.169 -0.867075 -5.63771 0
M  V30 3541 O 336.103 -2.78267 -5.33714 0
M  V30 3542 H 339.929 -2.21344 -2.07944 0
M  V30 3543 H 337.514 -1.1328 -0.974058 0
M  V30 3544 H 339.396 -0.860321 -4.12524 0
M  V30 3545 H 338.071 -0.0602155 -3.23644 0
M  V30 3546 H 336.978 -2.35407 -2.90748 0
M  V30 3547 H 338.311 -3.0819 -3.8377 0
M  V30 3548 N 339.963 1.05934 -1.16686 0
M  V30 3549 C 341.212 1.78188 -0.945085 0
M  V30 3550 C 341.525 1.88338 0.528021 0
M  V30 3551 O 342.731 2.57258 0.867799 0
M  V30 3552 C 341.187 3.20277 -1.64167 0
M  V30 3553 C 340.795 3.18281 -3.15279 0
M  V30 3554 C 342.539 3.97039 -1.502 0
M  V30 3555 C 340.446 4.55112 -3.7766 0
M  V30 3556 H 339.376 0.667866 -0.349959 0
M  V30 3557 H 342.027 1.18794 -1.39858 0
M  V30 3558 H 340.409 3.79952 -1.11589 0
M  V30 3559 H 341.583 2.68167 -3.74731 0
M  V30 3560 H 339.898 2.55018 -3.29173 0
M  V30 3561 H 342.495 4.98194 -1.94183 0
M  V30 3562 H 342.838 4.13845 -0.451461 0
M  V30 3563 H 343.371 3.43894 -1.99954 0
M  V30 3564 H 340.11 4.43512 -4.82677 0
M  V30 3565 H 339.63 5.05406 -3.22994 0
M  V30 3566 H 341.309 5.24064 -3.79428 0
M  V30 3567 N 341.441 0.965919 1.2453 0
M  V30 3568 C 342.351 0.502154 2.29163 0
M  V30 3569 C 343.367 -0.436017 1.68448 0
M  V30 3570 O 344.543 -0.309497 1.99008 0
M  V30 3571 C 341.608 -0.201956 3.46111 0
M  V30 3572 C 340.669 0.775821 4.22232 0
M  V30 3573 C 339.902 0.105217 5.33596 0
M  V30 3574 O 340.125 -1.10683 5.59558 0
M  V30 3575 O 339.059 0.796475 5.96607 0
M  V30 3576 H 342.885 1.37194 2.70946 0
M  V30 3577 H 340.47 0.732875 1.30189 0
M  V30 3578 H 342.352 -0.597564 4.17142 0
M  V30 3579 H 341.027 -1.04673 3.06309 0
M  V30 3580 H 339.934 1.22185 3.53584 0
M  V30 3581 H 341.267 1.58896 4.65846 0
M  V30 3582 N 342.919 -1.39368 0.735821 0
M  V30 3583 C 343.869 -2.27885 0.0724287 0
M  V30 3584 C 344.853 -1.44301 -0.711756 0
M  V30 3585 O 346.045 -1.67206 -0.58063 0
M  V30 3586 C 343.174 -3.33029 -0.833454 0
M  V30 3587 C 342.26 -4.24078 -0.0433749 0
M  V30 3588 N 342.651 -4.96138 0.983903 0
M  V30 3589 C 340.949 -4.45164 -0.272905 0
M  V30 3590 C 341.65 -5.63069 1.4604 0
M  V30 3591 N 340.626 -5.37991 0.778857 0
M  V30 3592 H 344.428 -2.81052 0.859467 0
M  V30 3593 H 341.942 -1.5206 0.570227 0
M  V30 3594 H 343.939 -3.95311 -1.32419 0
M  V30 3595 H 342.599 -2.81421 -1.61964 0
M  V30 3596 H 343.61 -4.9958 1.36528 0
M  V30 3597 H 340.287 -4.04497 -1.03383 0
M  V30 3598 H 341.677 -6.30755 2.31511 0
M  V30 3599 N 344.397 -0.483516 -1.5 0
M  V30 3600 C 345.813 -0.138404 -1.58999 0
M  V30 3601 C 346.013 1.35597 -1.4905 0
M  V30 3602 O 345.069 2.13039 -1.35539 0
M  V30 3603 C 346.382 -0.699658 -2.92447 0
M  V30 3604 C 347.93 -0.664195 -3.05872 0
M  V30 3605 C 348.405 -1.20321 -4.41913 0
M  V30 3606 N 349.896 -1.16315 -4.48358 0
M  V30 3607 C 350.631 -1.55058 -5.52037 0
M  V30 3608 N 350.127 -2.01311 -6.62907 0
M  V30 3609 N 351.92 -1.46584 -5.42651 0
M  V30 3610 H 344.071 -1.45529 -1.5471 0
M  V30 3611 H 346.334 -0.60258 -0.731848 0
M  V30 3612 H 346.04 -1.747 -3.05242 0
M  V30 3613 H 345.914 -0.150194 -3.76901 0
M  V30 3614 H 348.301 0.374272 -2.92717 0
M  V30 3615 H 348.382 -1.25061 -2.23144 0
M  V30 3616 H 348.026 -2.24037 -4.55818 0
M  V30 3617 H 347.956 -0.592896 -5.23252 0
M  V30 3618 H 350.447 -0.824058 -3.68806 0
M  V30 3619 H 350.76 -2.2899 -7.38095 0
M  V30 3620 H 349.105 -2.05273 -6.63994 0
M  V30 3621 H 352.296 -1.10281 -4.54924 0
M  V30 3622 H 352.469 -1.77103 -6.23329 0
M  V30 3623 N 345.875 1.56104 -0.216619 0
M  V30 3624 C 347.122 1.98172 0.416416 0
M  V30 3625 C 347.45 1.10413 1.60122 0
M  V30 3626 O 346.705 0.147967 1.9514 0
M  V30 3627 C 347.004 3.45923 0.898464 0
M  V30 3628 C 346.67 4.50559 -0.175288 0
M  V30 3629 C 345.332 4.78897 -0.470271 0
M  V30 3630 C 347.684 5.1334 -0.901728 0
M  V30 3631 C 345.012 5.67299 -1.4963 0
M  V30 3632 C 347.364 6.02853 -1.91705 0
M  V30 3633 C 346.028 6.29537 -2.21901 0
M  V30 3634 H 345.298 0.725164 0.152377 0
M  V30 3635 H 347.945 1.88839 -0.318103 0
M  V30 3636 H 346.25 3.52434 1.71165 0
M  V30 3637 H 347.947 3.75841 1.39803 0
M  V30 3638 H 344.537 4.28551 0.0647806 0
M  V30 3639 H 348.721 4.91521 -0.687072 0
M  V30 3640 H 343.977 5.86239 -1.73592 0
M  V30 3641 H 348.151 6.50552 -2.48505 0
M  V30 3642 H 345.778 6.97835 -3.01548 0
M  V30 3643 N 347.353 -0.0568162 1.57498 0
M  V30 3644 C 348.6 -0.753104 1.87975 0
M  V30 3645 C 348.928 -1.76815 0.81035 0
M  V30 3646 O 348.183 -1.94756 -0.19199 0
M  V30 3647 C 348.482 -1.48359 3.25153 0
M  V30 3648 C 348.148 -0.60713 4.46794 0
M  V30 3649 C 346.81 -0.365642 4.79809 0
M  V30 3650 C 349.162 -0.000305978 5.212 0
M  V30 3651 C 346.49 0.491905 5.84634 0
M  V30 3652 C 348.842 0.844781 6.26934 0
M  V30 3653 C 347.506 1.096 6.58441 0
M  V30 3654 H 346.776 -0.27558 0.687849 0
M  V30 3655 H 349.423 -0.0135173 1.91495 0
M  V30 3656 H 347.728 -2.29577 3.17492 0
M  V30 3657 H 349.425 -2.02739 3.45974 0
M  V30 3658 H 346.015 -0.805487 4.20963 0
M  V30 3659 H 350.199 -0.173961 4.95995 0
M  V30 3660 H 345.455 0.695131 6.07436 0
M  V30 3661 H 349.629 1.32165 6.83744 0
M  V30 3662 H 347.256 1.76224 7.39492 0
M  V30 3663 N 348.832 -1.54138 -0.328536 0
M  V30 3664 C 350.06 -1.76062 -1.08673 0
M  V30 3665 C 350.475 -0.506852 -1.81869 0
M  V30 3666 O 349.832 0.522223 -1.74869 0
M  V30 3667 C 349.883 -2.95054 -2.08866 0
M  V30 3668 O 349.604 -4.15583 -1.38644 0
M  V30 3669 C 351.105 -3.2915 -2.96943 0
M  V30 3670 H 348.325 -0.587889 -0.323461 0
M  V30 3671 H 350.869 -2.0101 -0.376175 0
M  V30 3672 H 349.024 -2.72394 -2.75464 0
M  V30 3673 H 349.438 -4.82481 -2.05699 0
M  V30 3674 H 350.912 -4.15723 -3.63151 0
M  V30 3675 H 351.389 -2.461 -3.63774 0
M  V30 3676 H 351.995 -3.53871 -2.35914 0
M  V30 3677 N 350.31 0.590341 -1.46126 0
M  V30 3678 C 351.538 1.37504 -1.54597 0
M  V30 3679 C 351.953 1.87897 -0.184447 0
M  V30 3680 O 351.31 1.63192 0.816984 0
M  V30 3681 C 351.361 2.56779 -2.54454 0
M  V30 3682 O 351.082 2.08476 -3.85317 0
M  V30 3683 C 352.583 3.49427 -2.72792 0
M  V30 3684 H 349.803 0.420325 -0.523037 0
M  V30 3685 H 352.347 0.718383 -1.91467 0
M  V30 3686 H 350.502 3.1845 -2.20609 0
M  V30 3687 H 350.916 2.86097 -4.396 0
M  V30 3688 H 352.39 4.29619 -3.466 0
M  V30 3689 H 352.867 4.00876 -1.79429 0
M  V30 3690 H 353.473 2.93598 -3.07702 0
M  V30 3691 N 351.788 1.33704 0.83433 0
M  V30 3692 C 353.036 1.25169 1.58673 0
M  V30 3693 C 353.357 -0.18127 1.94156 0
M  V30 3694 O 352.627 -1.11113 1.6134 0
M  V30 3695 H 351.207 0.4603 0.58833 0
M  V30 3696 H 353.869 1.67478 0.996847 0
M  V30 3697 H 352.965 1.84856 2.51465 0
M  V30 3698 N 353.266 -1.05314 1.17247 0
M  V30 3699 C 354.491 -1.82509 0.985148 0
M  V30 3700 C 354.916 -1.82343 -0.461788 0
M  V30 3701 O 354.274 -1.23151 -1.33055 0
M  V30 3702 C 354.322 -3.26566 1.52929 0
M  V30 3703 O 353.426 -4.05666 0.742225 0
M  V30 3704 H 352.767 -0.564347 0.349869 0
M  V30 3705 H 355.297 -1.32718 1.55715 0
M  V30 3706 H 355.307 -3.77369 1.55103 0
M  V30 3707 H 353.982 -3.26001 2.58256 0
M  V30 3708 H 352.559 -3.64397 0.791794 0
M  V30 3709 N 354.744 -0.972509 -1.24016 0
M  V30 3710 C 355.972 -0.654803 -1.96265 0
M  V30 3711 C 356.387 0.776708 -1.72083 0
M  V30 3712 O 355.744 1.52171 -1.00748 0
M  V30 3713 C 355.795 -0.92592 -3.49441 0
M  V30 3714 O 355.516 -2.30116 -3.72798 0
M  V30 3715 C 357.017 -0.623068 -4.38899 0
M  V30 3716 H 354.237 -0.243907 -0.6251 0
M  V30 3717 H 356.781 -1.30175 -1.57717 0
M  V30 3718 H 354.936 -0.325108 -3.86033 0
M  V30 3719 H 355.35 -2.38483 -4.67147 0
M  V30 3720 H 356.824 -0.863189 -5.45209 0
M  V30 3721 H 357.301 0.442754 -4.36963 0
M  V30 3722 H 357.907 -1.204 -4.07902 0
M  V30 3723 N 356.222 1.38976 -0.743202 0
M  V30 3724 C 357.154 2.29096 -0.0689228 0
M  V30 3725 C 358.167 1.47229 0.694791 0
M  V30 3726 O 359.356 1.70212 0.537597 0
M  V30 3727 C 356.456 3.25988 0.926548 0
M  V30 3728 C 355.629 4.36833 0.222647 0
M  V30 3729 C 354.688 5.13981 1.12739 0
M  V30 3730 O 353.714 5.6601 0.601795 0
M  V30 3731 N 354.916 5.25966 2.45641 0
M  V30 3732 H 357.681 2.87604 -0.842846 0
M  V30 3733 H 355.242 1.50645 -0.593109 0
M  V30 3734 H 357.234 3.74476 1.5346 0
M  V30 3735 H 355.804 2.68453 1.60162 0
M  V30 3736 H 355.024 3.90116 -0.565983 0
M  V30 3737 H 356.312 5.0811 -0.264841 0
M  V30 3738 H 355.71 4.85228 2.9081 0
M  V30 3739 H 354.267 5.77865 3.01522 0
M  V30 3740 N 357.7 0.491464 1.49741 0
M  V30 3741 C 358.949 -0.0582189 2.01616 0
M  V30 3742 C 359.262 -1.38927 1.3769 0
M  V30 3743 O 360.468 -2.02509 1.80838 0
M  V30 3744 C 358.924 -0.154235 3.59569 0
M  V30 3745 C 358.532 1.1696 4.32463 0
M  V30 3746 C 360.276 -0.65479 4.1942 0
M  V30 3747 C 358.183 1.03627 5.8225 0
M  V30 3748 H 357.113 -0.0255317 0.753568 0
M  V30 3749 H 359.764 0.629445 1.72367 0
M  V30 3750 H 358.146 -0.906138 3.85493 0
M  V30 3751 H 359.32 1.93405 4.18248 0
M  V30 3752 H 357.635 1.60285 3.84315 0
M  V30 3753 H 360.232 -0.771903 5.29099 0
M  V30 3754 H 360.575 -1.65127 3.8215 0
M  V30 3755 H 361.108 0.040304 3.9778 0
M  V30 3756 H 357.847 2.00672 6.24028 0
M  V30 3757 H 357.367 0.312546 5.98985 0
M  V30 3758 H 359.046 0.711114 6.4308 0
M  V30 3759 N 359.178 -1.55987 0.224894 0
M  V30 3760 C 360.425 -1.9839 -0.4059 0
M  V30 3761 C 360.753 -1.11261 -1.59535 0
M  V30 3762 O 360.008 -0.158314 -1.95059 0
M  V30 3763 C 360.307 -3.46394 -0.880106 0
M  V30 3764 C 359.973 -4.5046 0.19918 0
M  V30 3765 C 358.635 -4.7864 0.495661 0
M  V30 3766 C 360.987 -5.12855 0.928939 0
M  V30 3767 C 358.315 -5.66497 1.52636 0
M  V30 3768 C 360.667 -6.01828 1.949 0
M  V30 3769 C 359.331 -6.28351 2.25236 0
M  V30 3770 H 358.601 -0.725961 -0.148529 0
M  V30 3771 H 361.248 -1.88668 0.328113 0
M  V30 3772 H 359.553 -3.53337 -1.69294 0
M  V30 3773 H 361.25 -3.76577 -1.37808 0
M  V30 3774 H 357.84 -4.28579 -0.0420526 0
M  V30 3775 H 362.024 -4.9115 0.713129 0
M  V30 3776 H 357.28 -5.8531 1.76698 0
M  V30 3777 H 361.454 -6.49225 2.51951 0
M  V30 3778 H 359.081 -6.96226 3.05244 0
M  V30 3779 N 360.656 0.0484629 -1.57525 0
M  V30 3780 C 361.603 1.05504 -2.05275 0
M  V30 3781 C 362.573 1.37084 -0.937927 0
M  V30 3782 O 363.758 1.47754 -1.2072 0
M  V30 3783 C 360.898 2.35676 -2.52093 0
M  V30 3784 C 360.011 2.10423 -3.77288 0
M  V30 3785 C 359.146 3.34327 -4.12794 0
M  V30 3786 C 358.185 3.04542 -5.30962 0
M  V30 3787 N 357.322 4.20841 -5.61994 0
M  V30 3788 H 362.162 0.640885 -2.91027 0
M  V30 3789 H 359.699 0.304854 -1.43906 0
M  V30 3790 H 361.657 3.11709 -2.77297 0
M  V30 3791 H 360.287 2.7485 -1.69285 0
M  V30 3792 H 359.339 1.24976 -3.59284 0
M  V30 3793 H 360.651 1.84438 -4.63448 0
M  V30 3794 H 359.805 4.1874 -4.39024 0
M  V30 3795 H 358.544 3.63408 -3.25247 0
M  V30 3796 H 357.549 2.18528 -5.04505 0
M  V30 3797 H 358.774 2.76758 -6.20146 0
M  V30 3798 H 356.72 4.4991 -4.77406 0
M  V30 3799 H 356.637 3.98212 -6.42622 0
M  V30 3800 H 357.905 5.06184 -5.92789 0
M  V30 3801 N 362.134 1.5431 0.320358 0
M  V30 3802 C 363.411 1.63322 1.07635 0
M  V30 3803 C 363.791 0.46912 2.05821 0
M  V30 3804 O 363.139 -0.536274 2.22118 0
M  V30 3805 C 363.349 3.00465 1.77544 0
M  V30 3806 C 364.697 3.56621 2.30449 0
M  V30 3807 O 365.721 3.02791 1.87606 0
M  V30 3808 O 364.58 4.5083 3.08892 0
M  V30 3809 H 361.674 0.661502 0.496331 0
M  V30 3810 H 364.22 1.66656 0.319992 0
M  V30 3811 H 362.992 3.76629 1.06143 0
M  V30 3812 H 362.615 3.00824 2.59982 0
M  V30 3813 N 363.613 -0.582584 1.46437 0
M  V30 3814 C 364.862 -1.337 1.5102 0
M  V30 3815 C 365.175 -1.94891 0.166359 0
M  V30 3816 O 366.381 -2.71351 0.0899954 0
M  V30 3817 C 364.837 -2.42315 2.66104 0
M  V30 3818 C 364.445 -1.87427 4.06909 0
M  V30 3819 C 366.189 -3.19099 2.79958 0
M  V30 3820 C 364.096 -2.93672 5.13333 0
M  V30 3821 H 363.026 -0.502619 0.562041 0
M  V30 3822 H 365.677 -0.621701 1.72647 0
M  V30 3823 H 364.059 -3.16645 2.37807 0
M  V30 3824 H 365.233 -1.19639 4.44998 0
M  V30 3825 H 363.548 -1.2331 3.97723 0
M  V30 3826 H 366.145 -3.9839 3.56636 0
M  V30 3827 H 366.488 -3.71695 1.87479 0
M  V30 3828 H 367.021 -2.51875 3.07902 0
M  V30 3829 H 363.76 -2.45962 6.07604 0
M  V30 3830 H 363.28 -3.59948 4.79789 0
M  V30 3831 H 364.959 -3.5762 5.39182 0
M  V30 3832 N 365.091 -1.34144 -0.827227 0
M  V30 3833 C 366.054 -1.25264 -1.91942 0
M  V30 3834 C 367.054 -0.168866 -1.59911 0
M  V30 3835 O 368.244 -0.421198 -1.69031 0
M  V30 3836 C 365.376 -0.932952 -3.27885 0
M  V30 3837 H 366.569 -2.22357 -2.0124 0
M  V30 3838 H 364.122 -1.1837 -1.0207 0
M  V30 3839 H 364.857 0.0349917 -3.24281 0
M  V30 3840 H 364.642 -1.71682 -3.52516 0
M  V30 3841 H 366.132 -0.895874 -4.07877 0
M  V30 3842 N 366.569 1.04691 -1.17803 0
M  V30 3843 C 367.516 2.12557 -0.899343 0
M  V30 3844 C 368.486 1.65339 0.158771 0
M  V30 3845 O 369.671 1.90789 0.0204797 0
M  V30 3846 C 366.811 3.42481 -0.424315 0
M  V30 3847 C 365.924 4.03346 -1.54713 0
M  V30 3848 C 365.059 5.21208 -1.02546 0
M  V30 3849 C 364.098 5.74089 -2.12339 0
M  V30 3850 N 363.235 6.83247 -1.61612 0
M  V30 3851 H 368.075 2.35734 -1.823 0
M  V30 3852 H 365.612 1.1564 -0.909159 0
M  V30 3853 H 367.57 4.16996 -0.130421 0
M  V30 3854 H 366.2 3.19471 0.462377 0
M  V30 3855 H 365.252 3.2622 -1.95664 0
M  V30 3856 H 366.564 4.38628 -2.37501 0
M  V30 3857 H 365.718 6.02812 -0.685718 0
M  V30 3858 H 364.457 4.87414 -0.167084 0
M  V30 3859 H 363.462 4.91111 -2.47165 0
M  V30 3860 H 364.687 6.0993 -2.98601 0
M  V30 3861 H 362.633 6.5134 -0.780533 0
M  V30 3862 H 362.55 7.17559 -2.38003 0
M  V30 3863 H 363.818 7.68491 -1.30545 0
M  V30 3864 N 368.047 0.979072 1.23499 0
M  V30 3865 C 369.324 0.563674 1.87302 0
M  V30 3866 C 369.704 -0.959199 1.88049 0
M  V30 3867 O 369.052 -1.83535 1.36114 0
M  V30 3868 C 369.262 1.16822 3.28867 0
M  V30 3869 C 370.61 1.26014 4.0547 0
M  V30 3870 O 371.634 1.12158 3.38082 0
M  V30 3871 O 370.493 1.48044 5.26066 0
M  V30 3872 H 367.587 0.189602 0.804972 0
M  V30 3873 H 370.133 1.07407 1.31384 0
M  V30 3874 H 368.905 2.21049 3.22883 0
M  V30 3875 H 368.528 0.642564 3.92373 0
M  V30 3876 N 369.525 -1.3858 0.750561 0
M  V30 3877 C 370.771 -2.0095 0.31477 0
M  V30 3878 C 371.126 -1.58509 -1.09053 0
M  V30 3879 O 370.419 -0.8112 -1.7358 0
M  V30 3880 C 370.613 -3.55455 0.372373 0
M  V30 3881 C 370.442 -4.12898 1.78173 0
M  V30 3882 C 369.212 -4.44797 2.39757 0
M  V30 3883 C 371.41 -4.35366 2.7379 0
M  V30 3884 N 369.392 -4.87831 3.72685 0
M  V30 3885 C 370.763 -4.80775 3.91478 0
M  V30 3886 C 372.818 -4.1746 2.71351 0
M  V30 3887 C 371.521 -5.10155 5.07084 0
M  V30 3888 C 373.547 -4.47963 3.86113 0
M  V30 3889 C 372.909 -4.93593 5.02539 0
M  V30 3890 H 369.008 -0.765083 0.161776 0
M  V30 3891 H 371.592 -1.68246 0.979867 0
M  V30 3892 H 369.763 -3.87512 -0.26244 0
M  V30 3893 H 371.495 -4.04614 -0.0834479 0
M  V30 3894 H 368.25 -4.33135 1.91548 0
M  V30 3895 H 368.674 -5.13685 4.40972 0
M  V30 3896 H 373.316 -3.81372 1.82524 0
M  V30 3897 H 371.034 -5.45141 5.96529 0
M  V30 3898 H 374.62 -4.35717 3.85542 0
M  V30 3899 H 373.5 -5.16746 5.89867 0
M  V30 3900 N 371.003 -0.499398 -1.49478 0
M  V30 3901 C 371.933 0.269244 -2.31943 0
M  V30 3902 C 372.914 0.964054 -1.40143 0
M  V30 3903 O 374.099 0.955767 -1.69052 0
M  V30 3904 C 371.229 1.33504 -3.20615 0
M  V30 3905 C 370.183 0.760202 -4.21195 0
M  V30 3906 C 369.509 1.9264 -4.98792 0
M  V30 3907 C 370.809 -0.247661 -5.21712 0
M  V30 3908 H 372.503 -0.419082 -2.96452 0
M  V30 3909 H 370.049 -0.202988 -1.42562 0
M  V30 3910 H 372.002 1.88048 -3.77115 0
M  V30 3911 H 370.726 2.05253 -2.54045 0
M  V30 3912 H 369.385 0.23653 -3.65836 0
M  V30 3913 H 369.033 2.63154 -4.28671 0
M  V30 3914 H 368.733 1.54785 -5.66847 0
M  V30 3915 H 370.257 2.4762 -5.58137 0
M  V30 3916 H 371.671 0.209579 -5.72917 0
M  V30 3917 H 370.068 -0.541962 -5.97648 0
M  V30 3918 H 371.138 -1.16409 -4.7072 0
M  V30 3919 N 372.481 1.55866 -0.233164 0
M  V30 3920 C 373.429 2.22176 0.68851 0
M  V30 3921 C 374.423 1.20487 1.19076 0
M  V30 3922 O 375.629 1.38536 1.14925 0
M  V30 3923 H 372.004 0.712511 0.240483 0
M  V30 3924 H 373.975 2.98212 0.105935 0
M  V30 3925 C 372.724 2.92446 1.88071 0
M  V30 3926 H 372.047 3.70458 1.50337 0
M  V30 3927 H 373.487 3.42226 2.50314 0
M  V30 3928 C 371.946 1.95555 2.74335 0
M  V30 3929 O 372.476 1.47986 3.73447 0
M  V30 3930 N 370.682 1.62953 2.40613 0
M  V30 3931 H 370.229 2.01831 1.60069 0
M  V30 3932 H 370.187 0.983886 2.98609 0
M  V30 3933 N 373.959 -0.0401083 1.57549 0
M  V30 3934 C 374.892 -1.07689 2.01192 0
M  V30 3935 C 375.87 -1.358 0.894273 0
M  V30 3936 O 377.054 -1.48642 1.15921 0
M  V30 3937 C 374.181 -2.41418 2.3756 0
M  V30 3938 C 373.227 -2.29237 3.59656 0
M  V30 3939 S 374.06 -1.65628 5.09242 0
M  V30 3940 C 375.216 -3.0087 5.48843 0
M  V30 3941 H 375.449 -0.705108 2.88817 0
M  V30 3942 H 372.982 -0.249724 1.52367 0
M  V30 3943 H 374.94 -3.18329 2.59186 0
M  V30 3944 H 373.601 -2.75747 1.50407 0
M  V30 3945 H 372.794 -3.27932 3.82722 0
M  V30 3946 H 372.396 -1.60469 3.37825 0
M  V30 3947 H 374.688 -3.97201 5.48851 0
M  V30 3948 H 375.631 -2.82549 6.49286 0
M  V30 3949 H 376.039 -3.02934 4.76331 0
M  V30 3950 N 375.437 -1.54477 -0.31217 0
M  V30 3951 C 376.848 -1.64344 -0.885891 0
M  V30 3952 C 377.199 -0.54485 -1.88483 0
M  V30 3953 O 376.324 0.320387 -2.14015 0
M  V30 3954 C 376.919 -2.97908 -1.61357 0
M  V30 3955 C 375.478 -3.09933 -2.13585 0
M  V30 3956 C 374.625 -2.59971 -0.964897 0
M  V30 3957 H 377.576 -1.58448 -0.0894528 0
M  V30 3958 H 377.597 -2.88706 -2.47848 0
M  V30 3959 H 377.109 -3.77845 -0.886277 0
M  V30 3960 H 375.21 -2.34694 -2.89395 0
M  V30 3961 H 375.323 -4.15916 -2.37804 0
M  V30 3962 H 373.687 -2.16147 -1.34731 0
M  V30 3963 H 374.47 -3.42376 -0.251742 0
M  V30 3964 N 376.915 0.57481 -1.46744 0
M  V30 3965 C 378.192 1.3352 -1.4294 0
M  V30 3966 C 378.572 2.10775 -0.117009 0
M  V30 3967 O 377.92 2.09966 0.901474 0
M  V30 3968 C 378.13 2.25456 -2.66403 0
M  V30 3969 C 379.478 2.87035 -3.12883 0
M  V30 3970 O 380.502 2.35766 -2.67007 0
M  V30 3971 O 379.361 3.80179 -3.92589 0
M  V30 3972 H 376.455 0.600318 -0.568812 0
M  V30 3973 H 379.001 0.595171 -1.58921 0
M  V30 3974 H 377.773 1.67851 -3.53471 0
M  V30 3975 H 377.396 3.06785 -2.52921 0
M  V30 3976 N 378.394 1.34581 0.820102 0
M  V30 3977 C 379.327 1.20735 1.93644 0
M  V30 3978 C 380.305 0.0983343 1.62302 0
M  V30 3979 O 381.489 0.263997 1.86642 0
M  V30 3980 C 378.616 0.856037 3.27704 0
M  V30 3981 C 377.662 1.97521 3.78005 0
M  V30 3982 S 378.495 3.58906 3.97425 0
M  V30 3983 C 379.651 3.25822 5.34407 0
M  V30 3984 H 379.884 2.15231 2.05093 0
M  V30 3985 H 377.417 1.1964 0.97599 0
M  V30 3986 H 379.375 0.660133 4.05157 0
M  V30 3987 H 378.036 -0.0706253 3.14021 0
M  V30 3988 H 377.229 1.68321 4.75062 0
M  V30 3989 H 376.831 2.12875 3.07507 0
M  V30 3990 H 379.123 2.77812 6.17922 0
M  V30 3991 H 380.066 4.22029 5.68592 0
M  V30 3992 H 380.474 2.61932 5.00052 0
M  V30 3993 N 379.872 -1.04064 1.18357 0
M  V30 3994 C 381.1 -1.80916 1.00384 0
M  V30 3995 C 381.515 -1.83414 -0.447738 0
M  V30 3996 O 380.872 -1.26962 -1.31099 0
M  V30 3997 C 380.923 -3.26516 1.55144 0
M  V30 3998 O 380.644 -3.2424 2.94618 0
M  V30 3999 C 382.145 -4.20013 1.41789 0
M  V30 4000 H 379.365 -0.569728 0.354474 0
M  V30 4001 H 381.909 -1.31151 1.56906 0
M  V30 4002 H 380.064 -3.73512 1.02798 0
M  V30 4003 H 380.478 -4.15452 3.20156 0
M  V30 4004 H 381.952 -5.20111 1.84901 0
M  V30 4005 H 382.429 -4.37667 0.36661 0
M  V30 4006 H 383.035 -3.78881 1.93207 0
M  V30 4007 N 381.35 -0.985608 -1.22978 0
M  V30 4008 C 382.596 -0.65836 -1.91816 0
M  V30 4009 C 382.929 0.806692 -1.76653 0
M  V30 4010 O 382.204 1.58252 -1.13078 0
M  V30 4011 C 382.487 -1.056 -3.44268 0
M  V30 4012 C 382.34 -2.57906 -3.68516 0
M  V30 4013 C 383.659 -0.603781 -4.35939 0
M  V30 4014 H 380.778 -0.24065 -0.696604 0
M  V30 4015 H 383.42 -1.22783 -1.44998 0
M  V30 4016 H 381.57 -0.571445 -3.84274 0
M  V30 4017 H 383.242 -3.13976 -3.3796 0
M  V30 4018 H 381.485 -3.00305 -3.13048 0
M  V30 4019 H 382.156 -2.80779 -4.75255 0
M  V30 4020 H 384.632 -1.01987 -4.03408 0
M  V30 4021 H 383.508 -0.910383 -5.41298 0
M  V30 4022 H 383.769 0.495761 -4.39312 0
M  V30 4023 N 382.828 1.3818 -0.7579 0
M  V30 4024 C 383.738 2.3421 -0.135247 0
M  V30 4025 C 384.754 1.59487 0.695683 0
M  V30 4026 O 385.93 1.91657 0.618832 0
M  V30 4027 C 382.995 3.3862 0.744139 0
M  V30 4028 C 382.056 4.2918 -0.101658 0
M  V30 4029 C 381.289 5.28603 0.735851 0
M  V30 4030 O 381.512 5.35166 1.97366 0
M  V30 4031 O 380.446 6.01707 0.152372 0
M  V30 4032 H 384.272 2.8916 -0.928436 0
M  V30 4033 H 381.857 1.40101 -0.518855 0
M  V30 4034 H 383.739 4.02539 1.2466 0
M  V30 4035 H 382.414 2.86019 1.51575 0
M  V30 4036 H 381.321 3.68407 -0.650167 0
M  V30 4037 H 382.654 4.85048 -0.836024 0
M  V30 4038 N 384.306 0.507319 1.49211 0
M  V30 4039 C 385.256 -0.287112 2.26185 0
M  V30 4040 C 386.24 -0.929983 1.31302 0
M  V30 4041 O 387.432 -0.836538 1.55984 0
M  V30 4042 C 384.561 -1.34718 3.15763 0
M  V30 4043 C 383.647 -0.710235 4.18111 0
M  V30 4044 N 384.038 0.190836 5.0544 0
M  V30 4045 C 382.336 -0.97009 4.35322 0
M  V30 4046 C 383.037 0.55606 5.79036 0
M  V30 4047 N 382.013 -0.0775232 5.43545 0
M  V30 4048 H 385.815 0.406445 2.91076 0
M  V30 4049 H 383.329 0.323814 1.59139 0
M  V30 4050 H 385.326 -1.92982 3.69545 0
M  V30 4051 H 383.986 -2.04235 2.52424 0
M  V30 4052 H 384.997 0.562047 5.14841 0
M  V30 4053 H 381.674 -1.65753 3.83187 0
M  V30 4054 H 383.064 1.2936 6.5933 0
M  V30 4055 N 385.784 -1.5574 0.241426 0
M  V30 4056 C 387.033 -1.97986 -0.385295 0
M  V30 4057 C 387.346 -1.13267 -1.59468 0
M  V30 4058 O 388.552 -1.45501 -2.2922 0
M  V30 4059 C 387.008 -3.52275 -0.736884 0
M  V30 4060 C 386.616 -4.45726 0.450796 0
M  V30 4061 C 388.36 -4.03189 -1.3281 0
M  V30 4062 C 386.267 -5.91352 0.0756662 0
M  V30 4063 H 385.197 -0.739386 -0.147731 0
M  V30 4064 H 387.848 -1.80308 0.340779 0
M  V30 4065 H 386.23 -3.65628 -1.52094 0
M  V30 4066 H 387.404 -4.44131 1.22819 0
M  V30 4067 H 385.719 -4.05264 0.956573 0
M  V30 4068 H 388.316 -5.09505 -1.62201 0
M  V30 4069 H 388.659 -3.50212 -2.25071 0
M  V30 4070 H 389.192 -3.93141 -0.607069 0
M  V30 4071 H 385.931 -6.48354 0.965272 0
M  V30 4072 H 385.451 -5.96095 -0.665635 0
M  V30 4073 H 387.13 -6.46084 -0.344075 0
M  V30 4074 N 387.262 0.0317525 -1.57568 0
M  V30 4075 C 388.209 1.0332 -2.06382 0
M  V30 4076 C 389.179 1.36082 -0.952414 0
M  V30 4077 O 390.364 1.46466 -1.2228 0
M  V30 4078 C 387.504 2.32989 -2.54578 0
M  V30 4079 C 386.617 2.0641 -3.79498 0
M  V30 4080 C 385.752 3.2993 -4.16317 0
M  V30 4081 C 384.791 2.98893 -5.34162 0
M  V30 4082 N 383.928 4.14857 -5.66426 0
M  V30 4083 H 388.768 0.609982 -2.9169 0
M  V30 4084 H 386.305 0.289573 -1.44222 0
M  V30 4085 H 388.263 3.0875 -2.80587 0
M  V30 4086 H 386.893 2.73039 -1.7219 0
M  V30 4087 H 385.945 1.21158 -3.6059 0
M  V30 4088 H 387.257 1.79513 -4.65378 0
M  V30 4089 H 386.411 4.1406 -4.4344 0
M  V30 4090 H 385.15 3.59938 -3.29083 0
M  V30 4091 H 384.155 2.13164 -5.06795 0
M  V30 4092 H 385.38 2.70165 -6.23047 0
M  V30 4093 H 383.326 4.44821 -4.82151 0
M  V30 4094 H 383.243 3.91374 -6.4681 0
M  V30 4095 H 384.511 4.99868 -5.98124 0
M  V30 4096 N 388.74 1.54641 0.303973 0
M  V30 4097 C 389.67 1.88386 1.3796 0
M  V30 4098 C 390.651 0.742485 1.5304 0
M  V30 4099 O 391.836 0.997959 1.66597 0
M  V30 4100 C 388.966 2.12854 2.74427 0
M  V30 4101 C 387.92 3.28702 2.74115 0
M  V30 4102 C 387.246 3.38582 4.13844 0
M  V30 4103 C 388.546 4.65881 2.3612 0
M  V30 4104 H 390.24 2.78474 1.09966 0
M  V30 4105 H 387.786 1.33988 0.527556 0
M  V30 4106 H 389.739 2.35047 3.49758 0
M  V30 4107 H 388.463 1.19535 3.03939 0
M  V30 4108 H 387.122 3.06428 2.0124 0
M  V30 4109 H 386.77 2.42784 4.40528 0
M  V30 4110 H 386.47 4.16453 4.14537 0
M  V30 4111 H 387.994 3.63031 4.90959 0
M  V30 4112 H 389.408 4.87823 3.01167 0
M  V30 4113 H 387.805 5.46444 2.48031 0
M  V30 4114 H 388.875 4.66799 1.3125 0
M  V30 4115 N 390.218 -0.567019 1.47046 0
M  V30 4116 C 391.466 -1.322 1.52864 0
M  V30 4117 C 391.787 -1.94088 0.188388 0
M  V30 4118 O 391.057 -1.7941 -0.786693 0
M  V30 4119 H 389.637 -0.490894 0.563056 0
M  V30 4120 H 392.299 -0.662879 1.83281 0
M  V30 4121 H 391.395 -2.12062 2.2899 0
M  V30 4122 N 391.696 -1.35014 -0.812953 0
M  V30 4123 C 392.643 -1.27412 -1.92444 0
M  V30 4124 C 393.613 -0.14733 -1.65445 0
M  V30 4125 O 394.798 -0.329974 -1.87925 0
M  V30 4126 C 391.938 -1.04558 -3.28879 0
M  V30 4127 C 391.051 -2.26101 -3.68106 0
M  V30 4128 C 390.186 -1.96449 -4.9354 0
M  V30 4129 C 389.225 -3.14081 -5.25376 0
M  V30 4130 N 388.362 -2.84246 -6.41988 0
M  V30 4131 H 393.202 -2.22463 -1.98278 0
M  V30 4132 H 390.739 -1.10593 -0.969933 0
M  V30 4133 H 392.697 -0.893413 -4.07522 0
M  V30 4134 H 391.327 -0.131719 -3.22531 0
M  V30 4135 H 390.379 -2.52204 -2.84775 0
M  V30 4136 H 391.691 -3.13959 -3.87597 0
M  V30 4137 H 390.845 -1.78026 -5.79993 0
M  V30 4138 H 389.584 -1.05867 -4.76071 0
M  V30 4139 H 388.589 -3.33089 -4.37415 0
M  V30 4140 H 389.814 -4.05455 -5.44778 0
M  V30 4141 H 387.76 -1.96252 -6.25956 0
M  V30 4142 H 387.677 -3.65637 -6.61699 0
M  V30 4143 H 388.945 -2.6935 -7.31485 0
M  V30 4144 O 393.213 0.951708 -1.30479 0
M  V30 4145 H 393.904 1.58029 -1.12012 0
M  V30 END ATOM
M  V30 BEGIN BOND
M  V30 END BOND
M  V30 END CTAB
M  END
$$$$
