drugbank_target|P46663 B1 bradykinin receptor (DB00178; DB01197; DB01593; DB09477; DB14487; DB14533; DB14548)
 OpenBabel12092121033D

  0  0  0     0  0            999 V3000
M  V30 BEGIN CTAB
M  V30 COUNTS 5803 5886 0 0 0
M  V30 BEGIN ATOM
M  V30 1 H -0.908 1.98254 -0.117106 0
M  V30 2 N 0 1.576 0 0
M  V30 3 C 0.933 2.03868 1.02534 0
M  V30 4 C 1.911 0.928543 1.3348 0
M  V30 5 O 3.095 1.19667 1.45644 0
M  V30 6 C 0.222 2.43627 2.35294 0
M  V30 7 C -0.732 3.65373 2.2001 0
M  V30 8 S 0.101 5.13292 1.52614 0
M  V30 9 C 1.257 5.56322 2.86805 0
M  V30 10 H 1.49 2.90518 0.631377 0
M  V30 11 H -0.977 1.52953 0.210867 0
M  V30 12 H 0.981 2.67203 3.11629 0
M  V30 13 H -0.358 1.57376 2.7183 0
M  V30 14 H -1.165 3.90944 3.18086 0
M  V30 15 H -1.563 3.418 1.51819 0
M  V30 16 H 0.729 5.58782 3.83104 0
M  V30 17 H 1.672 6.56266 2.65933 0
M  V30 18 H 2.08 4.83886 2.90714 0
M  V30 19 N 1.4781 -0.272755 1.55222 0
M  V30 20 C 2.4411 -1.32041 1.87344 0
M  V30 21 C 3.4411 -1.42342 0.74803 0
M  V30 22 O 4.6311 -1.41488 1.0162 0
M  V30 23 C 1.7631 -2.70173 2.07893 0
M  V30 24 H 2.9561 -1.04789 2.80997 0
M  V30 25 H 0.5091 -0.51083 1.47717 0
M  V30 26 H 1.2441 -3.02605 1.16622 0
M  V30 27 H 1.0291 -2.64082 2.89833 0
M  V30 28 H 2.5191 -3.45869 2.34017 0
M  V30 29 N 2.9562 -1.48159 -0.537278 0
M  V30 30 C 4.1812 -1.59707 -1.32319 0
M  V30 31 C 4.6062 -0.254859 -1.86365 0
M  V30 32 O 3.9642 0.772378 -1.64024 0
M  V30 33 C 4.0122 -2.6412 -2.45505 0
M  V30 34 O 3.1162 -2.20774 -3.48328 0
M  V30 35 H 2.4572 -0.535791 -0.392204 0
M  V30 36 H 4.9872 -1.94092 -0.647268 0
M  V30 37 H 4.9972 -2.85166 -2.91795 0
M  V30 38 H 3.6722 -3.61567 -2.05528 0
M  V30 39 H 2.2492 -2.09911 -3.08207 0
M  V30 40 N 4.4343 0.785586 -1.36625 0
M  V30 41 C 5.6593 1.57963 -1.34397 0
M  V30 42 C 6.0843 1.87964 0.071526 0
M  V30 43 O 5.4423 1.48182 1.0446 0
M  V30 44 C 5.4903 2.87511 -2.17646 0
M  V30 45 O 4.5943 3.81281 -1.57158 0
M  V30 46 H 3.9353 0.479014 -0.459828 0
M  V30 47 H 6.4653 0.973411 -1.79961 0
M  V30 48 H 6.4753 3.36745 -2.30362 0
M  V30 49 H 5.1503 2.65002 -3.20541 0
M  V30 50 H 3.7273 3.39885 -1.53403 0
M  V30 51 N 5.9124 1.20967 1.01018 0
M  V30 52 C 7.1584 1.0353 1.7508 0
M  V30 53 C 7.5134 -0.42734 1.87594 0
M  V30 54 O 6.8064 -1.31298 1.3954 0
M  V30 55 C 7.0004 1.65997 3.16512 0
M  V30 56 C 6.8294 3.18184 3.17788 0
M  V30 57 C 5.5994 3.87198 3.24662 0
M  V30 58 C 7.7974 4.15334 3.03319 0
M  V30 59 N 5.7794 5.26618 3.15509 0
M  V30 60 C 7.1504 5.41472 3.02007 0
M  V30 61 C 9.2054 4.06449 2.87583 0
M  V30 62 C 7.9084 6.5975 2.86571 0
M  V30 63 C 9.9344 5.24357 2.73503 0
M  V30 64 C 9.2964 6.49404 2.72862 0
M  V30 65 H 5.3954 0.433137 0.651089 0
M  V30 66 H 7.9794 1.5324 1.20107 0
M  V30 67 H 6.1504 1.18863 3.69765 0
M  V30 68 H 7.8824 1.41816 3.79039 0
M  V30 69 H 4.6374 3.38093 3.31648 0
M  V30 70 H 5.0614 5.99626 3.14289 0
M  V30 71 H 9.7034 3.10573 2.86887 0
M  V30 72 H 7.4214 7.55792 2.86015 0
M  V30 73 H 11.0074 5.19299 2.62334 0
M  V30 74 H 9.8874 7.39105 2.62093 0
M  V30 75 N 7.3905 -1.2043 1.01659 0
M  V30 76 C 8.8015 -1.71517 0.737482 0
M  V30 77 C 9.1525 -1.81547 -0.743973 0
M  V30 78 O 8.2775 -1.47803 -1.58061 0
M  V30 79 C 8.8725 -3.11515 1.33206 0
M  V30 80 C 7.4315 -3.59912 1.10183 0
M  V30 81 C 6.5785 -2.37116 1.43776 0
M  V30 82 H 9.5295 -1.05444 1.18606 0
M  V30 83 H 9.5505 -3.73575 0.722636 0
M  V30 84 H 9.0625 -3.04182 2.41028 0
M  V30 85 H 7.1635 -3.72577 0.0412756 0
M  V30 86 H 7.2765 -4.44731 1.78188 0
M  V30 87 H 5.6405 -2.39857 0.856778 0
M  V30 88 H 6.4235 -2.32424 2.52654 0
M  V30 89 N 8.8686 -0.792821 -1.36206 0
M  V30 90 C 10.2796 -0.429513 -1.81692 0
M  V30 91 C 10.6306 1.04695 -1.65932 0
M  V30 92 O 9.7556 1.81256 -1.18218 0
M  V30 93 C 10.3506 -0.772831 -3.29868 0
M  V30 94 C 8.9096 -0.462307 -3.7355 0
M  V30 95 C 8.0566 -1.00569 -2.5842 0
M  V30 96 H 11.0076 -0.985672 -1.24379 0
M  V30 97 H 11.0286 -0.0651928 -3.80444 0
M  V30 98 H 10.5406 -1.84747 -3.41307 0
M  V30 99 H 8.6416 0.604158 -3.67669 0
M  V30 100 H 8.7546 -0.985299 -4.68859 0
M  V30 101 H 7.1186 -0.428734 -2.51066 0
M  V30 102 H 7.9016 -2.08616 -2.72643 0
M  V30 103 N 10.3467 1.47872 -0.545128 0
M  V30 104 C 11.2767 2.32661 0.197793 0
M  V30 105 C 12.2577 1.43041 0.920504 0
M  V30 106 O 13.4427 1.71912 0.90333 0
M  V30 107 C 10.5727 3.24569 1.23582 0
M  V30 108 C 9.5267 4.23333 0.630323 0
M  V30 109 C 8.8527 5.0448 1.77211 0
M  V30 110 C 10.1527 5.20704 -0.407974 0
M  V30 111 H 11.8467 2.95024 -0.510045 0
M  V30 112 H 9.3927 1.4187 -0.246731 0
M  V30 113 H 11.3457 3.8272 1.76362 0
M  V30 114 H 10.0697 2.60236 1.97344 0
M  V30 115 H 8.7287 3.6639 0.123922 0
M  V30 116 H 8.3767 4.36561 2.49847 0
M  V30 117 H 8.0767 5.71339 1.37281 0
M  V30 118 H 9.6007 5.65487 2.3034 0
M  V30 119 H 11.0147 5.7329 0.033305 0
M  V30 120 H 9.4117 5.95699 -0.725486 0
M  V30 121 H 10.4817 4.66917 -1.30828 0
M  V30 122 N 11.8248 0.280983 1.55075 0
M  V30 123 C 12.7348 -0.61388 2.26426 0
M  V30 124 C 13.7508 -1.16521 1.29224 0
M  V30 125 O 14.9268 -1.19426 1.62171 0
M  V30 126 C 11.9918 -1.7788 2.9759 0
M  V30 127 C 11.0528 -1.26355 4.10284 0
M  V30 128 C 10.2858 -2.37295 4.78045 0
M  V30 129 O 10.5088 -3.56777 4.45047 0
M  V30 130 O 9.4428 -2.05119 5.65871 0
M  V30 131 H 13.2688 -0.0356932 3.03679 0
M  V30 132 H 10.8538 0.0481686 1.49322 0
M  V30 133 H 12.7358 -2.45791 3.42293 0
M  V30 134 H 11.4108 -2.34397 2.23249 0
M  V30 135 H 10.3178 -0.550735 3.70024 0
M  V30 136 H 11.6508 -0.744065 4.86543 0
M  V30 137 N 13.3029 -1.57598 0.00835791 0
M  V30 138 C 14.2329 -2.1198 -0.979113 0
M  V30 139 C 15.2139 -1.03091 -1.35301 0
M  V30 140 O 16.3989 -1.30818 -1.43528 0
M  V30 141 C 13.5289 -2.62995 -2.26828 0
M  V30 142 C 12.4829 -3.76485 -2.03576 0
M  V30 143 C 11.8089 -4.13846 -3.38579 0
M  V30 144 C 13.1089 -5.0342 -1.39161 0
M  V30 145 H 14.8029 -2.94738 -0.526281 0
M  V30 146 H 12.3489 -1.41783 -0.251704 0
M  V30 147 H 14.3019 -2.99669 -2.96271 0
M  V30 148 H 13.0259 -1.7737 -2.7424 0
M  V30 149 H 11.6849 -3.40217 -1.36557 0
M  V30 150 H 11.3329 -3.25232 -3.83709 0
M  V30 151 H 11.0329 -4.90312 -3.23834 0
M  V30 152 H 12.5569 -4.53086 -4.09323 0
M  V30 153 H 13.9709 -5.37812 -1.98573 0
M  V30 154 H 12.3679 -5.84746 -1.34878 0
M  V30 155 H 13.4379 -4.83548 -0.361868 0
M  V30 156 N 14.781 0.264519 -1.55364 0
M  V30 157 C 15.713 1.34965 -1.85248 0
M  V30 158 C 16.726 1.45136 -0.737525 0
M  V30 159 O 17.915 1.46801 -1.01547 0
M  V30 160 C 15.015 2.73008 -2.00797 0
M  V30 161 C 14.188 2.85324 -3.31525 0
M  V30 162 C 13.247 4.04097 -3.37034 0
M  V30 163 O 12.273 3.94455 -4.10358 0
M  V30 164 N 13.475 5.16458 -2.65049 0
M  V30 165 H 16.24 1.09672 -2.78913 0
M  V30 166 H 13.801 0.454635 -1.55386 0
M  V30 167 H 15.793 3.50772 -2.01844 0
M  V30 168 H 14.363 2.91087 -1.1396 0
M  V30 169 H 13.583 1.94377 -3.42945 0
M  V30 170 H 14.871 2.9049 -4.17724 0
M  V30 171 H 14.269 5.27181 -2.05175 0
M  V30 172 H 12.826 5.92422 -2.71809 0
M  V30 173 N 16.2591 1.48442 0.529413 0
M  V30 174 C 17.4841 1.60406 1.31471 0
M  V30 175 C 17.9091 0.264738 1.86228 0
M  V30 176 O 17.2671 -0.763668 1.64432 0
M  V30 177 C 17.3151 2.65419 2.44101 0
M  V30 178 O 16.4191 2.22618 3.47153 0
M  V30 179 H 15.7601 0.537863 0.389357 0
M  V30 180 H 18.2901 1.94432 0.636965 0
M  V30 181 H 18.3001 2.86709 2.90279 0
M  V30 182 H 16.9751 3.62652 2.03608 0
M  V30 183 H 15.5521 2.11543 3.0709 0
M  V30 184 N 17.7372 -0.778329 1.37039 0
M  V30 185 C 18.9622 -1.57248 1.35233 0
M  V30 186 C 19.3872 -1.87999 -0.0615568 0
M  V30 187 O 18.7452 -1.48734 -1.03672 0
M  V30 188 C 18.7932 -2.86353 2.19167 0
M  V30 189 O 17.8972 -3.80442 1.59178 0
M  V30 190 H 17.2382 -0.476569 0.462362 0
M  V30 191 H 19.7682 -0.963853 1.80474 0
M  V30 192 H 19.7782 -3.35519 2.32145 0
M  V30 193 H 18.4532 -2.63299 3.21942 0
M  V30 194 H 17.0302 -3.39067 1.55203 0
M  V30 195 N 19.2153 -1.21501 -1.00376 0
M  V30 196 C 20.1633 -0.972442 -2.11297 0
M  V30 197 C 21.1573 0.080731 -1.69208 0
M  V30 198 O 22.3633 -0.0707666 -1.79861 0
M  V30 199 H 18.7383 -0.297218 -0.690772 0
M  V30 200 H 20.7093 -1.91394 -2.28934 0
M  V30 201 C 19.4583 -0.555065 -3.43241 0
M  V30 202 H 18.7813 -1.35709 -3.76062 0
M  V30 203 H 20.2213 -0.424664 -4.21868 0
M  V30 204 C 18.6803 0.734147 -3.28804 0
M  V30 205 O 19.2103 1.78937 -3.59645 0
M  V30 206 N 17.4163 0.701133 -2.82015 0
M  V30 207 H 16.9633 -0.157874 -2.57116 0
M  V30 208 H 16.9213 1.56403 -2.72737 0
M  V30 209 N 20.6934 1.19889 -1.02296 0
M  V30 210 C 21.6254 2.22334 -0.556787 0
M  V30 211 C 22.6384 1.58674 0.364199 0
M  V30 212 O 23.8274 1.77768 0.161533 0
M  V30 213 C 20.9274 3.38257 0.208694 0
M  V30 214 C 20.1004 4.31504 -0.71577 0
M  V30 215 C 19.1594 5.262 0.00325597 0
M  V30 216 O 18.1854 5.65798 -0.621357 0
M  V30 217 N 19.3874 5.66303 1.27599 0
M  V30 218 H 22.1524 2.62957 -1.43784 0
M  V30 219 H 19.7134 1.34495 -0.901261 0
M  V30 220 H 21.7054 3.98616 0.699111 0
M  V30 221 H 20.2754 2.96472 0.991102 0
M  V30 222 H 19.4954 3.69016 -1.38638 0
M  V30 223 H 20.7834 4.9072 -1.34428 0
M  V30 224 H 20.1814 5.36155 1.80429 0
M  V30 225 H 18.7384 6.28942 1.71102 0
M  V30 226 N 22.1715 0.800033 1.35784 0
M  V30 227 C 23.3965 0.388511 2.03729 0
M  V30 228 C 23.8215 -0.990481 1.5991 0
M  V30 229 O 23.1795 -1.64013 0.772612 0
M  V30 230 C 23.2275 0.4726 3.5749 0
M  V30 231 O 22.3315 -0.51646 4.09153 0
M  V30 232 H 21.6725 0.163271 0.643614 0
M  V30 233 H 24.2025 1.0841 1.73518 0
M  V30 234 H 24.2125 0.34003 4.06581 0
M  V30 235 H 22.8875 1.47848 3.88734 0
M  V30 236 H 21.4645 -0.344673 3.71304 0
M  V30 237 N 23.6496 -1.47581 0.552962 0
M  V30 238 C 24.5816 -2.27997 -0.234533 0
M  V30 239 C 25.5946 -1.36753 -0.883321 0
M  V30 240 O 26.7836 -1.61612 -0.757889 0
M  V30 241 C 23.8836 -3.10879 -1.34935 0
M  V30 242 C 23.0566 -4.30056 -0.798158 0
M  V30 243 C 22.1156 -4.94567 -1.79694 0
M  V30 244 O 21.1416 -5.53087 -1.34474 0
M  V30 245 N 22.3436 -4.88878 -3.13015 0
M  V30 246 H 25.1086 -2.96222 0.455255 0
M  V30 247 H 22.6696 -1.57163 0.388761 0
M  V30 248 H 24.6616 -3.50903 -2.01616 0
M  V30 249 H 23.2316 -2.44924 -1.94244 0
M  V30 250 H 22.4516 -3.94174 0.0453079 0
M  V30 251 H 23.7396 -5.07152 -0.409173 0
M  V30 252 H 23.1376 -4.42526 -3.52402 0
M  V30 253 H 21.6946 -5.32934 -3.75266 0
M  V30 254 N 25.1277 -0.289203 -1.54924 0
M  V30 255 C 26.0577 0.58549 -2.2604 0
M  V30 256 C 27.0387 1.14753 -1.25562 0
M  V30 257 O 28.2237 1.17906 -1.54311 0
M  V30 258 C 25.3537 1.76305 -2.99222 0
M  V30 259 C 24.3077 1.33191 -4.06748 0
M  V30 260 C 23.6337 2.5937 -4.6758 0
M  V30 261 C 24.9337 0.471775 -5.20165 0
M  V30 262 H 26.6277 -0.00763532 -2.99399 0
M  V30 263 H 24.1737 -0.00511229 -1.43999 0
M  V30 264 H 26.1267 2.38097 -3.47689 0
M  V30 265 H 24.8507 2.38223 -2.23422 0
M  V30 266 H 23.5097 0.737121 -3.59113 0
M  V30 267 H 23.1577 3.19576 -3.88433 0
M  V30 268 H 22.8577 2.31228 -5.40192 0
M  V30 269 H 24.3817 3.21985 -5.18804 0
M  V30 270 H 25.7957 0.995056 -5.64599 0
M  V30 271 H 24.1927 0.284639 -5.99425 0
M  V30 272 H 25.2627 -0.506041 -4.82252 0
M  V30 273 N 26.6058 1.57591 -0.0167156 0
M  V30 274 C 27.8528 1.91283 0.664597 0
M  V30 275 C 28.1808 0.891949 1.72842 0
M  V30 276 O 27.4358 -0.100931 1.9544 0
M  V30 277 C 27.7348 3.3172 1.33029 0
M  V30 278 C 27.4008 4.4914 0.398047 0
M  V30 279 C 26.0628 4.80992 0.141421 0
M  V30 280 C 28.4148 5.20634 -0.242825 0
M  V30 281 C 25.7428 5.81703 -0.764092 0
M  V30 282 C 28.0948 6.22311 -1.13632 0
M  V30 283 C 26.7588 6.52611 -1.40196 0
M  V30 284 H 26.0288 0.699956 0.243193 0
M  V30 285 H 28.6758 1.9135 -0.0758267 0
M  V30 286 H 26.9808 3.27856 2.14517 0
M  V30 287 H 28.6778 3.55055 1.86379 0
M  V30 288 H 25.2678 4.24262 0.608238 0
M  V30 289 H 29.4518 4.96267 -0.0576019 0
M  V30 290 H 24.7078 6.03532 -0.977732 0
M  V30 291 H 28.8818 6.76834 -1.63917 0
M  V30 292 H 26.5088 7.30467 -2.10529 0
M  V30 293 N 28.0839 -0.256276 1.55502 0
M  V30 294 C 29.4949 -0.826068 1.67431 0
M  V30 295 C 29.8459 -1.86396 0.612446 0
M  V30 296 O 28.9709 -2.15031 -0.243025 0
M  V30 297 C 29.5659 -1.50512 3.03532 0
M  V30 298 C 28.1249 -2.02273 3.17431 0
M  V30 299 C 27.2719 -0.870548 2.63281 0
M  V30 300 H 30.2229 -0.0322728 1.58667 0
M  V30 301 H 30.2439 -2.37279 2.97454 0
M  V30 302 H 29.7559 -0.749484 3.80794 0
M  V30 303 H 27.8569 -2.80746 2.44974 0
M  V30 304 H 27.9699 -2.22655 4.24219 0
M  V30 305 H 26.3339 -1.26851 2.20864 0
M  V30 306 H 27.1169 -0.128149 3.43061 0
M  V30 307 N 29.562 -1.4872 -0.521534 0
M  V30 308 C 30.494 -1.59968 -1.64143 0
M  V30 309 C 31.507 -0.483463 -1.55456 0
M  V30 310 O 32.696 -0.75467 -1.61762 0
M  V30 311 C 29.796 -1.52127 -3.02838 0
M  V30 312 C 28.969 -2.78932 -3.36921 0
M  V30 313 C 28.028 -2.64428 -4.54933 0
M  V30 314 O 27.054 -3.38331 -4.57735 0
M  V30 315 N 28.256 -1.74606 -5.53618 0
M  V30 316 H 31.021 -2.56548 -1.54929 0
M  V30 317 H 28.582 -1.45551 -0.708988 0
M  V30 318 H 30.574 -1.40106 -3.79674 0
M  V30 319 H 29.144 -0.634868 -3.06085 0
M  V30 320 H 28.364 -3.05455 -2.4918 0
M  V30 321 H 29.652 -3.63041 -3.56481 0
M  V30 322 H 29.05 -1.13782 -5.54139 0
M  V30 323 H 27.607 -1.6852 -6.29638 0
M  V30 324 N 31.0401 0.771051 -1.3745 0
M  V30 325 C 31.9881 1.90574 -1.33358 0
M  V30 326 C 32.9821 1.67936 -0.22224 0
M  V30 327 O 34.1881 1.75717 -0.390304 0
M  V30 328 H 30.5631 0.626714 -0.415612 0
M  V30 329 H 32.5341 1.91142 -2.29144 0
M  V30 330 C 31.2831 3.27845 -1.15813 0
M  V30 331 H 30.6061 3.45842 -2.00583 0
M  V30 332 H 32.0461 4.07538 -1.17 0
M  V30 333 C 30.5051 3.36625 0.136165 0
M  V30 334 O 31.0351 3.85785 1.11949 0
M  V30 335 N 29.2411 2.89997 0.187099 0
M  V30 336 H 28.7881 2.50182 -0.613753 0
M  V30 337 H 28.7461 2.96252 1.05272 0
M  V30 338 N 32.5182 1.22032 0.997298 0
M  V30 339 C 33.4812 0.987909 2.06816 0
M  V30 340 C 34.4812 -0.0440084 1.6074 0
M  V30 341 O 35.6712 0.194053 1.73116 0
M  V30 342 C 32.8032 0.49132 3.37341 0
M  V30 343 H 33.9962 1.93803 2.28868 0
M  V30 344 H 31.5492 1.03838 1.16822 0
M  V30 345 H 32.2842 -0.463364 3.20973 0
M  V30 346 H 32.0692 1.23575 3.72118 0
M  V30 347 H 33.5592 0.348824 4.16141 0
M  V30 348 N 33.9963 -1.19345 1.0293 0
M  V30 349 C 35.2243 -1.92997 0.745644 0
M  V30 350 C 35.6393 -1.75519 -0.695589 0
M  V30 351 O 34.9963 -1.07737 -1.47306 0
M  V30 352 C 35.0473 -3.44741 1.08792 0
M  V30 353 O 34.7683 -3.61658 2.47256 0
M  V30 354 C 36.2693 -4.35515 0.827129 0
M  V30 355 H 33.4893 -0.613042 0.272801 0
M  V30 356 H 36.0333 -1.51473 1.3739 0
M  V30 357 H 34.1883 -3.84097 0.504832 0
M  V30 358 H 34.6023 -4.55514 2.60015 0
M  V30 359 H 36.0763 -5.40589 1.11658 0
M  V30 360 H 36.5533 -4.38552 -0.238436 0
M  V30 361 H 37.1593 -4.01841 1.39297 0
M  V30 362 N 35.4744 -0.807222 -1.35358 0
M  V30 363 C 36.4374 -0.223665 -2.28106 0
M  V30 364 C 37.4374 0.589354 -1.4961 0
M  V30 365 O 38.6274 0.407745 -1.69361 0
M  V30 366 C 35.7594 0.688149 -3.33882 0
M  V30 367 H 36.9524 -1.04169 -2.81227 0
M  V30 368 H 34.5054 -0.577921 -1.45223 0
M  V30 369 H 35.2404 1.52984 -2.85948 0
M  V30 370 H 35.0254 0.10687 -3.91954 0
M  V30 371 H 36.5154 1.09075 -4.03104 0
M  V30 372 N 36.9525 1.47285 -0.560781 0
M  V30 373 C 38.1925 2.0436 -0.0404627 0
M  V30 374 C 38.5565 1.42534 1.28639 0
M  V30 375 O 39.7575 1.90677 1.89462 0
M  V30 376 C 38.0285 3.57369 0.0471856 0
M  V30 377 S 39.5875 4.3579 0.513109 0
M  V30 378 H 36.4055 0.710492 -0.0268674 0
M  V30 379 H 39.0075 1.80611 -0.748323 0
M  V30 380 H 37.7115 3.9989 -0.922817 0
M  V30 381 H 37.2425 3.8562 0.778491 0
M  V30 382 H 39.2575 4.63476 1.77212 0
M  V30 383 N 38.4306 0.297415 1.54768 0
M  V30 384 C 39.7076 -0.365847 1.92148 0
M  V30 385 C 40.0876 -1.71975 1.22424 0
M  V30 386 O 39.4356 -2.25666 0.358739 0
M  V30 387 C 39.6456 -0.484056 3.45627 0
M  V30 388 C 40.9936 -0.756594 4.17805 0
M  V30 389 O 42.0176 -0.568007 3.51642 0
M  V30 390 O 40.8766 -1.11863 5.34929 0
M  V30 391 H 37.9706 -0.203919 0.801465 0
M  V30 392 H 40.5166 0.34521 1.66152 0
M  V30 393 H 39.2886 0.467865 3.88493 0
M  V30 394 H 38.9116 -1.24372 3.77647 0
M  V30 395 N 39.9087 -1.5758 0.0250728 0
M  V30 396 C 40.8567 -2.11125 -0.97617 0
M  V30 397 C 41.8507 -1.03689 -1.33959 0
M  V30 398 O 43.0567 -1.22128 -1.3223 0
M  V30 399 H 39.4317 -0.674468 -0.332561 0
M  V30 400 H 41.4027 -2.94194 -0.499223 0
M  V30 401 C 40.1517 -2.65017 -2.2508 0
M  V30 402 H 39.4747 -3.47333 -1.9799 0
M  V30 403 H 40.9147 -3.06133 -2.93357 0
M  V30 404 C 39.3737 -1.57574 -2.97779 0
M  V30 405 O 39.9037 -0.973203 -3.89733 0
M  V30 406 N 38.1097 -1.29716 -2.60043 0
M  V30 407 H 37.6567 -1.789 -1.85345 0
M  V30 408 H 37.6147 -0.58051 -3.08994 0
M  V30 409 N 41.3868 0.248026 -1.55636 0
M  V30 410 C 42.3498 1.29044 -1.89421 0
M  V30 411 C 43.3498 1.41134 -0.770581 0
M  V30 412 O 44.5398 1.39854 -1.03858 0
M  V30 413 C 41.6718 2.66831 -2.12165 0
M  V30 414 H 42.8648 1.00305 -2.82629 0
M  V30 415 H 40.4178 0.487265 -1.48511 0
M  V30 416 H 41.1528 3.00711 -1.21422 0
M  V30 417 H 40.9378 2.59438 -2.93997 0
M  V30 418 H 42.4278 3.42103 -2.3949 0
M  V30 419 N 42.8649 1.48995 0.513639 0
M  V30 420 C 44.2759 1.5119 1.09537 0
M  V30 421 C 44.6269 0.290906 1.94031 0
M  V30 422 O 43.7519 -0.60049 2.07902 0
M  V30 423 C 44.3469 2.73964 1.99322 0
M  V30 424 C 42.9059 2.78978 2.52682 0
M  V30 425 C 42.0529 2.44934 1.30009 0
M  V30 426 H 45.0039 1.55875 0.298125 0
M  V30 427 H 45.0249 2.53409 2.83838 0
M  V30 428 H 44.5369 3.62813 1.37799 0
M  V30 429 H 42.6379 1.94378 3.1788 0
M  V30 430 H 42.7509 3.8083 2.90698 0
M  V30 431 H 41.1149 1.9644 1.62122 0
M  V30 432 H 41.8979 3.36043 0.702131 0
M  V30 433 N 44.343 -0.763751 1.37857 0
M  V30 434 C 45.253 -1.90817 1.36478 0
M  V30 435 C 46.269 -1.71997 0.263248 0
M  V30 436 O 47.445 -1.95095 0.499979 0
M  V30 437 C 44.51 -3.2605 1.17864 0
M  V30 438 C 43.571 -3.57467 2.3773 0
M  V30 439 C 42.804 -4.86249 2.19995 0
M  V30 440 O 43.027 -5.57884 1.18836 0
M  V30 441 O 41.961 -5.16911 3.08361 0
M  V30 442 H 45.787 -1.94933 2.32884 0
M  V30 443 H 43.372 -0.907619 1.1867 0
M  V30 444 H 45.254 -4.06924 1.09504 0
M  V30 445 H 43.929 -3.22769 0.245372 0
M  V30 446 H 42.836 -2.76796 2.51664 0
M  V30 447 H 44.169 -3.655 3.29652 0
M  V30 448 N 45.8211 -1.22559 -0.990812 0
M  V30 449 C 46.7841 -0.998863 -2.0629 0
M  V30 450 C 47.7841 0.0354834 -1.60761 0
M  V30 451 O 48.9741 -0.203231 -1.7301 0
M  V30 452 C 46.1061 -0.509203 -3.37076 0
M  V30 453 H 47.2991 -1.95014 -2.27837 0
M  V30 454 H 44.8521 -1.04456 -1.16269 0
M  V30 455 H 45.5871 0.446335 -3.21214 0
M  V30 456 H 45.3721 -1.25547 -3.71457 0
M  V30 457 H 46.8621 -0.370888 -4.1595 0
M  V30 458 N 47.2992 1.18797 -1.03562 0
M  V30 459 C 48.5452 1.89192 -0.746867 0
M  V30 460 C 48.9002 1.78531 0.717245 0
M  V30 461 O 48.1932 1.17137 1.51622 0
M  V30 462 C 48.3872 3.38692 -1.14117 0
M  V30 463 C 48.2162 3.63902 -2.64207 0
M  V30 464 C 46.9862 3.81553 -3.31279 0
M  V30 465 C 49.1842 3.64903 -3.62423 0
M  V30 466 N 47.1662 3.94455 -4.70402 0
M  V30 467 C 48.5372 3.83458 -4.87196 0
M  V30 468 C 50.5922 3.47965 -3.56125 0
M  V30 469 C 49.2952 3.86829 -6.06429 0
M  V30 470 C 51.3212 3.52616 -4.7478 0
M  V30 471 C 50.6832 3.71663 -5.9837 0
M  V30 472 H 46.7822 0.711141 -0.325273 0
M  V30 473 H 49.3662 1.42727 -1.32428 0
M  V30 474 H 47.5372 3.83864 -0.591889 0
M  V30 475 H 49.2692 3.96634 -0.803966 0
M  V30 476 H 46.0242 3.80723 -2.81686 0
M  V30 477 H 46.4482 4.0474 -5.42692 0
M  V30 478 H 51.0902 3.32189 -2.61553 0
M  V30 479 H 48.8082 4.01395 -7.01362 0
M  V30 480 H 52.3942 3.40791 -4.71543 0
M  V30 481 H 51.2742 3.75145 -6.88648 0
M  V30 482 N 48.7773 0.814389 1.34928 0
M  V30 483 C 50.0543 0.321363 1.92942 0
M  V30 484 C 50.4343 -1.19014 1.74353 0
M  V30 485 O 49.7823 -1.99328 1.11716 0
M  V30 486 C 49.9923 0.741323 3.41036 0
M  V30 487 C 51.3403 0.735266 4.18185 0
M  V30 488 O 52.3643 0.68336 3.49584 0
M  V30 489 O 51.2233 0.800703 5.40602 0
M  V30 490 H 48.3173 0.0858893 0.822528 0
M  V30 491 H 50.8633 0.898609 1.43955 0
M  V30 492 H 49.6353 1.78276 3.4833 0
M  V30 493 H 49.2583 0.139307 3.97356 0
M  V30 494 N 50.2554 -1.46986 0.568584 0
M  V30 495 C 51.1854 -2.32946 -0.160753 0
M  V30 496 C 52.1664 -1.44487 -0.897631 0
M  V30 497 O 53.3514 -1.73327 -0.875867 0
M  V30 498 C 50.4814 -3.26494 -1.18403 0
M  V30 499 C 49.4354 -4.24282 -0.562895 0
M  V30 500 C 48.7614 -5.07236 -1.69163 0
M  V30 501 C 50.0614 -5.19989 0.490761 0
M  V30 502 H 51.7554 -2.94175 0.556916 0
M  V30 503 H 49.3014 -1.4146 0.26927 0
M  V30 504 H 51.2544 -3.85477 -1.70251 0
M  V30 505 H 49.9784 -2.63343 -1.93179 0
M  V30 506 H 48.6374 -3.66541 -0.0656164 0
M  V30 507 H 48.2854 -4.4048 -2.42871 0
M  V30 508 H 47.9854 -5.7345 -1.28174 0
M  V30 509 H 49.5094 -5.6908 -2.21314 0
M  V30 510 H 50.9234 -5.73271 0.0579047 0
M  V30 511 H 49.3204 -5.94469 0.820165 0
M  V30 512 H 50.3904 -4.64777 1.3824 0
M  V30 513 N 51.7335 -0.305618 -1.54608 0
M  V30 514 C 52.6635 0.561482 -2.26649 0
M  V30 515 C 53.6445 1.13415 -1.26772 0
M  V30 516 O 54.8295 1.16262 -1.55553 0
M  V30 517 C 51.9595 1.73122 -3.01075 0
M  V30 518 C 50.9135 1.2887 -4.08138 0
M  V30 519 C 50.2395 2.54396 -4.70305 0
M  V30 520 C 51.5395 0.416578 -5.20636 0
M  V30 521 H 53.2335 -0.0393902 -2.99374 0
M  V30 522 H 50.7795 -0.020385 -1.43986 0
M  V30 523 H 52.7325 2.34396 -3.50195 0
M  V30 524 H 51.4565 2.3584 -2.25936 0
M  V30 525 H 50.1155 0.698991 -3.59875 0
M  V30 526 H 49.7635 3.15439 -3.918 0
M  V30 527 H 49.4635 2.25486 -5.42614 0
M  V30 528 H 50.9875 3.16464 -5.2219 0
M  V30 529 H 52.4015 0.935116 -5.65622 0
M  V30 530 H 50.7985 0.221046 -5.99693 0
M  V30 531 H 51.8685 -0.557162 -4.81688 0
M  V30 532 N 53.2116 1.57565 -0.0334293 0
M  V30 533 C 54.1616 2.06978 0.956237 0
M  V30 534 C 55.1456 0.971193 1.28283 0
M  V30 535 O 56.3376 1.23471 1.26822 0
M  V30 536 C 53.4666 2.60393 2.23719 0
M  V30 537 C 52.5526 3.7719 1.93877 0
M  V30 538 N 52.9436 4.87639 1.34321 0
M  V30 539 C 51.2416 3.85758 2.23845 0
M  V30 540 C 51.9426 5.68825 1.21709 0
M  V30 541 N 50.9186 5.1587 1.71404 0
M  V30 542 H 54.7206 2.89773 0.490815 0
M  V30 543 H 52.2346 1.61492 0.171478 0
M  V30 544 H 54.2316 2.94088 2.95496 0
M  V30 545 H 52.8916 1.79031 2.70884 0
M  V30 546 H 53.9026 5.07803 1.01767 0
M  V30 547 H 50.5796 3.1531 2.73653 0
M  V30 548 H 51.9696 6.67631 0.75621 0
M  V30 549 N 54.6897 -0.239769 1.55765 0
M  V30 550 C 56.1057 -0.588624 1.48349 0
M  V30 551 C 56.3057 -1.88005 0.72502 0
M  V30 552 O 55.3617 -2.51186 0.257269 0
M  V30 553 C 56.6747 -0.68474 2.928 0
M  V30 554 C 58.2227 -0.77659 3.03213 0
M  V30 555 C 58.6977 -0.904207 4.48986 0
M  V30 556 N 60.1887 -0.968896 4.52953 0
M  V30 557 C 60.9237 -1.08703 5.63002 0
M  V30 558 N 60.4197 -1.17026 6.82845 0
M  V30 559 N 62.2127 -1.12074 5.50814 0
M  V30 560 H 54.3637 0.607911 2.03515 0
M  V30 561 H 56.6267 0.21083 0.924259 0
M  V30 562 H 56.3327 0.194284 3.51163 0
M  V30 563 H 56.2067 -1.55435 3.43686 0
M  V30 564 H 58.5937 -1.64606 2.44926 0
M  V30 565 H 58.6747 0.118315 2.55526 0
M  V30 566 H 58.3187 -0.0392633 5.07885 0
M  V30 567 H 58.2487 -1.81426 4.9436 0
M  V30 568 H 60.7397 -0.915633 3.6664 0
M  V30 569 H 61.0527 -1.25966 7.62465 0
M  V30 570 H 59.3977 -1.13971 6.85591 0
M  V30 571 H 62.5887 -1.05226 4.5612 0
M  V30 572 H 62.7617 -1.20936 6.36615 0
M  V30 573 N 56.1678 -1.49265 -0.50573 0
M  V30 574 C 57.4138 -1.58748 -1.26202 0
M  V30 575 C 57.7468 -0.271227 -1.92297 0
M  V30 576 O 57.0218 0.724831 -1.80489 0
M  V30 577 C 57.3048 -2.74332 -2.33268 0
M  V30 578 C 57.1578 -4.15737 -1.71705 0
M  V30 579 C 58.4768 -2.85576 -3.34865 0
M  V30 580 H 55.5958 -0.577826 -0.457478 0
M  V30 581 H 58.2378 -1.81532 -0.560897 0
M  V30 582 H 56.3878 -2.55036 -2.93068 0
M  V30 583 H 58.0598 -4.46537 -1.15769 0
M  V30 584 H 56.3028 -4.21605 -1.02135 0
M  V30 585 H 56.9738 -4.92477 -2.49341 0
M  V30 586 H 59.4498 -3.03127 -2.8505 0
M  V30 587 H 58.3258 -3.68135 -4.07146 0
M  V30 588 H 58.5868 -1.94732 -3.96903 0
M  V30 589 N 57.6459 0.756429 -1.3826 0
M  V30 590 C 58.5759 1.88374 -1.37976 0
M  V30 591 C 59.5569 1.68311 -0.246082 0
M  V30 592 O 60.7419 1.88944 -0.44874 0
M  V30 593 C 57.8719 3.25864 -1.20125 0
M  V30 594 C 56.8259 3.60523 -2.30666 0
M  V30 595 C 56.1519 4.9672 -1.97923 0
M  V30 596 C 57.4519 3.65692 -3.72916 0
M  V30 597 H 59.1459 1.88869 -2.32312 0
M  V30 598 H 56.6919 0.907272 -1.11824 0
M  V30 599 H 58.6449 4.0438 -1.18552 0
M  V30 600 H 57.3689 3.25841 -0.222498 0
M  V30 601 H 56.0279 2.84324 -2.3142 0
M  V30 602 H 55.6759 4.93253 -0.985393 0
M  V30 603 H 55.3759 5.20878 -2.71955 0
M  V30 604 H 56.8999 5.77618 -1.97964 0
M  V30 605 H 58.3139 4.34328 -3.74208 0
M  V30 606 H 56.7109 4.01358 -4.4613 0
M  V30 607 H 57.7809 2.65987 -4.05436 0
M  V30 608 N 59.124 1.23083 0.984299 0
M  V30 609 C 60.535 1.05609 1.5396 0
M  V30 610 C 60.886 -0.377793 1.92528 0
M  V30 611 O 60.011 -1.26398 1.75649 0
M  V30 612 C 60.606 1.91087 2.7977 0
M  V30 613 C 59.165 1.77885 3.31713 0
M  V30 614 C 58.312 1.87028 2.04733 0
M  V30 615 H 61.263 1.36802 0.804419 0
M  V30 616 H 61.284 1.43336 3.5247 0
M  V30 617 H 60.796 2.9544 2.51668 0
M  V30 618 H 58.897 0.762995 3.64704 0
M  V30 619 H 59.01 2.61047 4.01735 0
M  V30 620 H 57.374 1.30565 2.18689 0
M  V30 621 H 58.157 2.92929 1.79017 0
M  V30 622 N 60.6021 -1.18246 1.0419 0
M  V30 623 C 61.8301 -1.92195 0.766072 0
M  V30 624 C 62.2451 -1.76247 -0.676933 0
M  V30 625 O 61.6021 -1.09293 -1.46155 0
M  V30 626 C 61.6531 -3.43568 1.12442 0
M  V30 627 O 61.3741 -3.59015 2.51078 0
M  V30 628 C 62.8751 -4.34613 0.873275 0
M  V30 629 H 60.0951 -0.610114 0.279288 0
M  V30 630 H 62.6391 -1.50007 1.38989 0
M  V30 631 H 60.7941 -3.8354 0.545542 0
M  V30 632 H 61.2081 -4.5273 2.64831 0
M  V30 633 H 62.6821 -5.39374 1.17385 0
M  V30 634 H 63.1591 -4.38781 -0.191909 0
M  V30 635 H 63.7651 -4.00341 1.43551 0
M  V30 636 N 62.0802 -0.821533 -1.34494 0
M  V30 637 C 63.3272 -0.408946 -1.98328 0
M  V30 638 C 63.6552 1.02764 -1.65136 0
M  V30 639 O 62.9102 1.73026 -0.914349 0
M  V30 640 C 63.2092 -0.556512 -3.53041 0
M  V30 641 C 62.8752 -1.95861 -4.0614 0
M  V30 642 C 61.5372 -2.34217 -4.20352 0
M  V30 643 C 63.8892 -2.87523 -4.34718 0
M  V30 644 C 61.2172 -3.63572 -4.6047 0
M  V30 645 C 63.5692 -4.1634 -4.76281 0
M  V30 646 C 62.2332 -4.54675 -4.88699 0
M  V30 647 H 61.5032 -0.149644 -0.725732 0
M  V30 648 H 64.1502 -1.04521 -1.6046 0
M  V30 649 H 62.4552 0.163148 -3.9146 0
M  V30 650 H 64.1522 -0.217826 -4.00408 0
M  V30 651 H 60.7422 -1.65066 -3.95539 0
M  V30 652 H 64.9262 -2.59133 -4.23277 0
M  V30 653 H 60.1822 -3.93101 -4.68275 0
M  V30 654 H 64.3562 -4.87455 -4.97354 0
M  V30 655 H 61.9832 -5.54959 -5.19542 0
M  V30 656 N 63.5583 1.46682 -0.576371 0
M  V30 657 C 64.8073 2.01619 -0.0572825 0
M  V30 658 C 65.1203 1.45417 1.30818 0
M  V30 659 O 66.3263 1.92133 1.91825 0
M  V30 660 C 64.7823 3.59863 -0.0518371 0
M  V30 661 C 64.3903 4.25059 -1.41523 0
M  V30 662 C 66.1343 4.2248 0.413639 0
M  V30 663 C 64.0413 5.75364 -1.36785 0
M  V30 664 H 62.9713 0.753794 -0.0176448 0
M  V30 665 H 65.6223 1.68481 -0.727076 0
M  V30 666 H 64.0043 3.90048 0.683994 0
M  V30 667 H 65.1783 4.06491 -2.17029 0
M  V30 668 H 63.4933 3.7451 -1.8202 0
M  V30 669 H 66.0903 5.3265 0.467779 0
M  V30 670 H 66.4333 3.90976 1.42982 0
M  V30 671 H 66.9663 3.96897 -0.267929 0
M  V30 672 H 63.7053 6.11518 -2.36063 0
M  V30 673 H 63.2253 5.96214 -0.654895 0
M  V30 674 H 64.9043 6.37955 -1.07805 0
M  V30 675 N 65.0364 0.313813 1.54444 0
M  V30 676 C 66.2854 -0.292519 1.99568 0
M  V30 677 C 66.5984 -1.54011 1.20582 0
M  V30 678 O 67.8044 -2.22183 1.56035 0
M  V30 679 C 66.2604 -0.571752 3.55329 0
M  V30 680 C 65.8684 0.658229 4.43138 0
M  V30 681 C 67.6124 -1.13857 4.08946 0
M  V30 682 C 65.5194 0.351439 5.90355 0
M  V30 683 H 64.4494 -0.113079 0.745472 0
M  V30 684 H 67.1004 0.424518 1.78522 0
M  V30 685 H 65.4824 -1.34872 3.72325 0
M  V30 686 H 66.6564 1.43403 4.37918 0
M  V30 687 H 64.9714 1.14458 4.0036 0
M  V30 688 H 67.5684 -1.38257 5.16516 0
M  V30 689 H 67.9114 -2.08489 3.6033 0
M  V30 690 H 68.4444 -0.423015 3.95544 0
M  V30 691 H 65.1834 1.26667 6.43145 0
M  V30 692 H 64.7034 -0.386842 5.98551 0
M  V30 693 H 66.3824 -0.0423134 6.46986 0
M  V30 694 N 66.5145 -1.57545 0.0417849 0
M  V30 695 C 67.7395 -1.97035 -0.647455 0
M  V30 696 C 68.1645 -0.918775 -1.64135 0
M  V30 697 O 67.5225 0.119006 -1.80909 0
M  V30 698 C 67.5705 -3.35609 -1.31905 0
M  V30 699 O 66.6745 -3.3287 -2.43457 0
M  V30 700 H 66.0155 -0.64211 -0.169086 0
M  V30 701 H 68.5455 -2.04318 0.107399 0
M  V30 702 H 68.5555 -3.72126 -1.67291 0
M  V30 703 H 67.2305 -4.11685 -0.590586 0
M  V30 704 H 65.8075 -3.08087 -2.10088 0
M  V30 705 N 67.9926 0.231505 -1.5589 0
M  V30 706 C 69.2416 0.955346 -1.7764 0
M  V30 707 C 69.5546 1.85893 -0.608546 0
M  V30 708 O 70.7606 2.62067 -0.70943 0
M  V30 709 C 69.2166 1.74886 -3.14552 0
M  V30 710 C 68.8246 0.891915 -4.39032 0
M  V30 711 C 70.5686 2.46452 -3.45633 0
M  V30 712 C 68.4756 1.68221 -5.66971 0
M  V30 713 H 67.4056 0.360446 -0.662265 0
M  V30 714 H 70.0566 0.209516 -1.823 0
M  V30 715 H 68.4386 2.53723 -3.04041 0
M  V30 716 H 69.6126 0.144793 -4.60572 0
M  V30 717 H 67.9276 0.288863 -4.15397 0
M  V30 718 H 70.5246 3.06061 -4.38441 0
M  V30 719 H 70.8676 3.18841 -2.67668 0
M  V30 720 H 71.4006 1.74613 -3.57428 0
M  V30 721 H 68.1396 1.00178 -6.478 0
M  V30 722 H 67.6596 2.4042 -5.49507 0
M  V30 723 H 69.3386 2.24544 -6.06786 0
M  V30 724 N 69.4707 1.49531 0.497807 0
M  V30 725 C 70.7107 1.60799 1.26187 0
M  V30 726 C 71.0747 0.289627 1.89803 0
M  V30 727 O 72.2757 0.277512 2.67364 0
M  V30 728 C 70.5467 2.73729 2.29798 0
M  V30 729 S 72.1057 3.04968 3.155 0
M  V30 730 H 68.9237 0.567145 0.428798 0
M  V30 731 H 71.5257 1.87204 0.563477 0
M  V30 732 H 70.2297 3.68036 1.81597 0
M  V30 733 H 69.7607 2.49328 3.04301 0
M  V30 734 H 71.7757 2.46735 4.30507 0
M  V30 735 N 70.9488 -0.749086 1.3866 0
M  V30 736 C 72.1958 -1.50833 1.35114 0
M  V30 737 C 72.5238 -1.94415 -0.0574049 0
M  V30 738 O 71.7788 -1.66065 -1.03541 0
M  V30 739 C 72.0778 -2.7712 2.25697 0
M  V30 740 C 71.7438 -2.52477 3.73585 0
M  V30 741 C 70.4058 -2.45466 4.13884 0
M  V30 742 C 72.7578 -2.31066 4.67181 0
M  V30 743 C 70.0858 -2.15064 5.45861 0
M  V30 744 C 72.4378 -2.02183 5.9942 0
M  V30 745 C 71.1018 -1.93631 6.38798 0
M  V30 746 H 70.3718 -0.551936 0.494416 0
M  V30 747 H 73.0188 -0.860979 1.71054 0
M  V30 748 H 71.3238 -3.46528 1.82827 0
M  V30 749 H 73.0208 -3.35096 2.20254 0
M  V30 750 H 69.6108 -2.58807 3.41638 0
M  V30 751 H 73.7948 -2.35459 4.3689 0
M  V30 752 H 69.0508 -2.06954 5.75308 0
M  V30 753 H 73.2248 -1.8462 6.71482 0
M  V30 754 H 70.8518 -1.69839 7.40985 0
M  V30 755 N 72.4269 -1.23603 -0.977757 0
M  V30 756 C 73.6739 -1.06971 -1.71941 0
M  V30 757 C 74.0019 0.393009 -1.90488 0
M  V30 758 O 73.2569 1.30719 -1.4564 0
M  V30 759 C 73.5559 -1.7433 -3.11999 0
M  V30 760 C 73.2219 -3.24252 -3.13323 0
M  V30 761 C 71.8839 -3.65156 -3.13392 0
M  V30 762 C 74.2359 -4.20141 -3.08433 0
M  V30 763 C 71.5639 -5.00403 -3.0629 0
M  V30 764 C 73.9159 -5.55384 -3.02873 0
M  V30 765 C 72.5799 -5.95647 -3.01265 0
M  V30 766 H 71.8499 -0.391433 -0.629175 0
M  V30 767 H 74.4969 -1.53572 -1.14403 0
M  V30 768 H 72.8019 -1.20096 -3.7294 0
M  V30 769 H 74.4989 -1.58936 -3.68158 0
M  V30 770 H 71.0889 -2.91692 -3.14029 0
M  V30 771 H 75.2729 -3.89547 -3.07517 0
M  V30 772 H 70.5289 -5.3081 -3.03399 0
M  V30 773 H 74.7029 -6.29398 -2.98046 0
M  V30 774 H 72.3299 -7.0041 -2.95516 0
M  V30 775 N 73.905 1.17692 -1.04816 0
M  V30 776 C 75.153 1.87488 -0.754497 0
M  V30 777 C 75.474 1.81205 0.720407 0
M  V30 778 O 74.744 1.23544 1.52032 0
M  V30 779 H 73.324 0.694101 -0.276102 0
M  V30 780 H 75.986 1.42793 -1.32651 0
M  V30 781 H 75.082 2.93328 -1.06606 0
M  V30 782 N 75.3831 0.828654 1.34056 0
M  V30 783 C 76.3131 0.269443 2.3194 0
M  V30 784 C 77.2941 -0.617247 1.58506 0
M  V30 785 O 78.4791 -0.542931 1.86456 0
M  V30 786 C 75.6091 -0.564793 3.42677 0
M  V30 787 C 74.5631 0.225241 4.27407 0
M  V30 788 C 73.8891 -0.7321 5.29664 0
M  V30 789 C 75.1891 1.43663 5.02154 0
M  V30 790 H 76.8831 1.08728 2.7896 0
M  V30 791 H 74.4291 0.524283 1.34117 0
M  V30 792 H 76.3821 -0.966233 4.10173 0
M  V30 793 H 75.1061 -1.41574 2.9432 0
M  V30 794 H 73.7651 0.608117 3.61521 0
M  V30 795 H 73.4131 -1.57916 4.77568 0
M  V30 796 H 73.1131 -0.20767 5.87233 0
M  V30 797 H 74.6371 -1.13128 6.00029 0
M  V30 798 H 76.0511 1.1089 5.62473 0
M  V30 799 H 74.4481 1.89711 5.69324 0
M  V30 800 H 75.5181 2.21181 4.31517 0
M  V30 801 N 76.8612 -1.46375 0.584142 0
M  V30 802 C 77.7912 -2.33103 -0.136037 0
M  V30 803 C 78.7722 -1.45431 -0.882255 0
M  V30 804 O 79.9572 -1.74246 -0.857434 0
M  V30 805 C 77.0872 -3.27731 -1.14933 0
M  V30 806 C 76.0412 -4.24855 -0.517862 0
M  V30 807 C 75.3672 -5.09001 -1.63773 0
M  V30 808 C 76.6672 -5.19439 0.545886 0
M  V30 809 H 78.3612 -2.93568 0.588086 0
M  V30 810 H 75.9072 -1.41166 0.284259 0
M  V30 811 H 77.8602 -3.87261 -1.66153 0
M  V30 812 H 76.5842 -2.65377 -1.90375 0
M  V30 813 H 75.2432 -3.6659 -0.0267361 0
M  V30 814 H 74.8912 -4.43031 -2.38185 0
M  V30 815 H 74.5912 -5.74777 -1.22085 0
M  V30 816 H 76.1152 -5.71396 -2.15266 0
M  V30 817 H 77.5292 -5.73177 0.118704 0
M  V30 818 H 75.9262 -5.93566 0.88317 0
M  V30 819 H 76.9962 -4.63285 1.43162 0
M  V30 820 N 78.3393 -0.321999 -1.54275 0
M  V30 821 C 79.5873 0.280489 -2.00144 0
M  V30 822 C 79.9083 1.52777 -1.21178 0
M  V30 823 O 79.1783 1.9338 -0.313187 0
M  V30 824 H 77.7583 0.106632 -0.73935 0
M  V30 825 H 80.4203 -0.438184 -1.8991 0
M  V30 826 H 79.5163 0.537972 -3.07428 0
M  V30 827 N 79.8174 1.5752 -0.0501392 0
M  V30 828 C 80.7654 2.12651 0.942459 0
M  V30 829 C 81.7594 1.05807 1.32292 0
M  V30 830 O 82.9654 1.24217 1.3027 0
M  V30 831 H 79.3404 0.679673 0.321789 0
M  V30 832 H 81.3114 2.94951 0.452356 0
M  V30 833 C 80.0604 2.68565 2.20836 0
M  V30 834 H 79.3834 3.50439 1.92439 0
M  V30 835 H 80.8234 3.10761 2.8845 0
M  V30 836 C 79.2824 1.62291 2.95234 0
M  V30 837 O 79.8124 1.03508 3.88135 0
M  V30 838 N 78.0184 1.33836 2.57946 0
M  V30 839 H 77.5654 1.81826 1.82475 0
M  V30 840 H 77.5234 0.629595 3.08032 0
M  V30 841 N 81.2955 -0.223234 1.56011 0
M  V30 842 C 82.2255 -1.27988 1.95298 0
M  V30 843 C 83.2065 -1.48976 0.820979 0
M  V30 844 O 84.3915 -1.61188 1.08315 0
M  V30 845 C 81.5215 -2.63 2.26822 0
M  V30 846 C 80.4755 -2.56671 3.42497 0
M  V30 847 C 79.8015 -3.95697 3.59622 0
M  V30 848 C 81.1015 -2.11601 4.77517 0
M  V30 849 H 82.7955 -0.953525 2.8381 0
M  V30 850 H 80.3415 -0.457244 1.36548 0
M  V30 851 H 82.2945 -3.37077 2.52898 0
M  V30 852 H 81.0185 -2.9732 1.35161 0
M  V30 853 H 79.6775 -1.85051 3.16467 0
M  V30 854 H 79.3255 -4.27322 2.6534 0
M  V30 855 H 79.0255 -3.92345 4.37424 0
M  V30 856 H 80.5495 -4.71438 3.88044 0
M  V30 857 H 81.9635 -2.7542 5.02809 0
M  V30 858 H 80.3605 -2.19311 5.5859 0
M  V30 859 H 81.4305 -1.06824 4.72987 0
M  V30 860 N 82.7736 -1.49793 -0.48987 0
M  V30 861 C 84.0206 -1.59841 -1.24327 0
M  V30 862 C 84.3486 -0.290135 -1.92324 0
M  V30 863 O 83.6036 0.722749 -1.81865 0
M  V30 864 C 83.9026 -2.71488 -2.32441 0
M  V30 865 C 83.5686 -4.12614 -1.81826 0
M  V30 866 C 82.2306 -4.51017 -1.67742 0
M  V30 867 C 84.5826 -5.00892 -1.4407 0
M  V30 868 C 81.9106 -5.75459 -1.14297 0
M  V30 869 C 84.2626 -6.25863 -0.920742 0
M  V30 870 C 82.9266 -6.63086 -0.766383 0
M  V30 871 H 82.1966 -0.584899 -0.454944 0
M  V30 872 H 84.8436 -1.83663 -0.542215 0
M  V30 873 H 83.1486 -2.4168 -3.0838 0
M  V30 874 H 84.8456 -2.76469 -2.90458 0
M  V30 875 H 81.4356 -3.82307 -1.93751 0
M  V30 876 H 85.6196 -4.7187 -1.53794 0
M  V30 877 H 80.8756 -6.02989 -1.01068 0
M  V30 878 H 85.0496 -6.9364 -0.619448 0
M  V30 879 H 82.6766 -7.59393 -0.350083 0
M  V30 880 N 84.2517 0.741722 -1.39055 0
M  V30 881 C 85.4977 1.50336 -1.36113 0
M  V30 882 C 85.8307 1.94148 0.0450796 0
M  V30 883 O 85.1057 1.66301 1.00868 0
M  V30 884 C 85.3887 2.74773 -2.32749 0
M  V30 885 C 85.2417 2.37023 -3.82283 0
M  V30 886 C 86.5607 3.76846 -2.27322 0
M  V30 887 H 83.6797 0.545351 -0.495743 0
M  V30 888 H 86.3217 0.848624 -1.69995 0
M  V30 889 H 84.4717 3.30639 -2.03986 0
M  V30 890 H 86.1437 1.8684 -4.21768 0
M  V30 891 H 84.3867 1.69334 -3.99385 0
M  V30 892 H 85.0577 3.26104 -4.45376 0
M  V30 893 H 87.5337 3.30548 -2.5274 0
M  V30 894 H 86.4097 4.6159 -2.97028 0
M  V30 895 H 86.6707 4.23286 -1.27599 0
M  V30 896 N 85.7298 1.2412 0.971189 0
M  V30 897 C 86.6598 1.05508 2.08304 0
M  V30 898 C 87.6408 -0.0308864 1.70072 0
M  V30 899 O 88.8258 0.135521 1.93727 0
M  V30 900 C 85.9558 0.655365 3.4106 0
M  V30 901 C 84.9098 1.68971 3.93234 0
M  V30 902 C 84.2358 1.14516 5.22293 0
M  V30 903 C 85.5358 3.08487 4.21465 0
M  V30 904 H 87.2298 1.98507 2.24132 0
M  V30 905 H 84.7758 0.955821 1.07704 0
M  V30 906 H 86.7288 0.51217 4.18276 0
M  V30 907 H 85.4528 -0.31032 3.25122 0
M  V30 908 H 84.1118 1.82106 3.18171 0
M  V30 909 H 83.7598 0.170189 5.02712 0
M  V30 910 H 83.4598 1.83635 5.58168 0
M  V30 911 H 84.9838 1.01401 6.02121 0
M  V30 912 H 86.3978 2.98601 4.89398 0
M  V30 913 H 84.7948 3.74926 4.68562 0
M  V30 914 H 85.8648 3.56787 3.28376 0
M  V30 915 N 87.2079 -1.17134 1.05439 0
M  V30 916 C 88.1379 -2.2342 0.678649 0
M  V30 917 C 89.1189 -1.66971 -0.32476 0
M  V30 918 O 90.3039 -1.93149 -0.201802 0
M  V30 919 C 87.4339 -3.47256 0.0552099 0
M  V30 920 C 86.3879 -4.16543 0.98365 0
M  V30 921 C 85.7139 -5.34231 0.223961 0
M  V30 922 C 87.0139 -4.68495 2.3089 0
M  V30 923 H 88.7079 -2.55105 1.56722 0
M  V30 924 H 86.2539 -1.2262 0.754998 0
M  V30 925 H 88.2069 -4.20828 -0.21946 0
M  V30 926 H 86.9309 -3.14846 -0.868319 0
M  V30 927 H 85.5899 -3.44887 1.24293 0
M  V30 928 H 85.2379 -4.98071 -0.702412 0
M  V30 929 H 84.9379 -5.81527 0.842627 0
M  V30 930 H 86.4619 -6.10585 -0.0433671 0
M  V30 931 H 87.8759 -5.33691 2.09396 0
M  V30 932 H 86.2729 -5.26379 2.88176 0
M  V30 933 H 87.3429 -3.85169 2.94572 0
M  V30 934 N 88.686 -0.835752 -1.33615 0
M  V30 935 C 89.932 -0.430596 -1.98176 0
M  V30 936 C 90.265 1.00684 -1.66061 0
M  V30 937 O 89.54 1.70339 -0.938877 0
M  V30 938 C 89.823 -0.648065 -3.5422 0
M  V30 939 C 89.676 -2.13255 -3.96033 0
M  V30 940 C 90.995 -0.0922113 -4.40003 0
M  V30 941 H 88.114 -0.157924 -0.719881 0
M  V30 942 H 90.756 -1.05069 -1.58305 0
M  V30 943 H 88.906 -0.120237 -3.88314 0
M  V30 944 H 90.578 -2.725 -3.72211 0
M  V30 945 H 88.821 -2.61823 -3.45878 0
M  V30 946 H 89.492 -2.23547 -5.04708 0
M  V30 947 H 91.968 -0.543343 -4.12537 0
M  V30 948 H 90.844 -0.274083 -5.48215 0
M  V30 949 H 91.105 1.00378 -4.30554 0
M  V30 950 N 90.1641 1.46063 -0.591896 0
M  V30 951 C 91.4111 2.02338 -0.0809991 0
M  V30 952 C 91.7391 1.46228 1.28249 0
M  V30 953 O 90.9941 0.620818 1.85592 0
M  V30 954 C 91.2931 3.57391 0.0249813 0
M  V30 955 C 90.9591 4.32583 -1.27211 0
M  V30 956 C 89.6211 4.52844 -1.62745 0
M  V30 957 C 91.9731 4.75687 -2.13005 0
M  V30 958 C 89.3011 5.13462 -2.83855 0
M  V30 959 C 91.6531 5.37644 -3.3335 0
M  V30 960 C 90.3171 5.5613 -3.69155 0
M  V30 961 H 89.5871 0.740407 -0.0296397 0
M  V30 962 H 92.2341 1.75321 -0.770374 0
M  V30 963 H 90.5391 3.83597 0.797537 0
M  V30 964 H 92.2361 3.98621 0.436184 0
M  V30 965 H 88.8261 4.17116 -0.985499 0
M  V30 966 H 93.0101 4.59782 -1.86855 0
M  V30 967 H 88.2661 5.25965 -3.11722 0
M  V30 968 H 92.4401 5.7 -4.00092 0
M  V30 969 H 90.0671 6.0287 -4.63089 0
M  V30 970 N 91.6422 0.330177 1.54103 0
M  V30 971 C 92.5722 -0.525353 2.27513 0
M  V30 972 C 93.5532 -1.11383 1.2856 0
M  V30 973 O 94.7382 -1.13773 1.57383 0
M  V30 974 C 91.8682 -1.6831 3.03791 0
M  V30 975 C 90.8222 -1.2236 4.10137 0
M  V30 976 C 90.1482 -2.46882 4.74293 0
M  V30 977 C 91.4482 -0.333697 5.21233 0
M  V30 978 H 93.1422 0.087013 2.99274 0
M  V30 979 H 90.6882 0.0432893 1.43935 0
M  V30 980 H 92.6412 -2.28795 3.5388 0
M  V30 981 H 91.3652 -2.32216 2.29659 0
M  V30 982 H 90.0242 -0.64165 3.60941 0
M  V30 983 H 89.6722 -3.09165 3.96769 0
M  V30 984 H 89.3722 -2.16825 5.46133 0
M  V30 985 H 90.8962 -3.08117 5.27159 0
M  V30 986 H 92.3102 -0.845013 5.67038 0
M  V30 987 H 90.7072 -0.125612 5.99969 0
M  V30 988 H 91.7772 0.633724 4.80741 0
M  V30 989 N 93.1203 -1.57491 0.0584922 0
M  V30 990 C 94.0503 -2.14988 -0.911178 0
M  V30 991 C 95.0313 -1.07343 -1.31952 0
M  V30 992 O 96.2163 -1.35318 -1.39294 0
M  V30 993 C 93.3463 -2.70078 -2.18347 0
M  V30 994 C 92.3003 -3.82771 -1.91495 0
M  V30 995 C 91.6263 -4.24408 -3.25241 0
M  V30 996 C 92.9263 -5.07592 -1.23075 0
M  V30 997 H 94.6203 -2.96263 -0.432246 0
M  V30 998 H 92.1663 -1.42512 -0.206469 0
M  V30 999 H 94.1193 -3.08943 -2.86587 0
M  V30 1000 H 92.8433 -1.86005 -2.68458 0
M  V30 1001 H 91.5023 -3.44389 -1.25664 0
M  V30 1002 H 91.1503 -3.37275 -3.73168 0
M  V30 1003 H 90.8503 -5.00366 -3.08071 0
M  V30 1004 H 92.3743 -4.65879 -3.94701 0
M  V30 1005 H 93.7883 -5.43857 -1.81362 0
M  V30 1006 H 92.1853 -5.88741 -1.16207 0
M  V30 1007 H 93.2553 -4.84454 -0.207847 0
M  V30 1008 N 94.5984 0.214957 -1.56127 0
M  V30 1009 C 96.0094 0.781386 -1.69562 0
M  V30 1010 C 96.3604 1.84707 -0.66165 0
M  V30 1011 O 95.4854 2.156 0.185927 0
M  V30 1012 C 96.0804 1.42411 -3.07416 0
M  V30 1013 C 94.6394 1.93786 -3.22683 0
M  V30 1014 C 93.7864 0.800438 -2.65496 0
M  V30 1015 H 96.7374 -0.00980633 -1.58697 0
M  V30 1016 H 96.7584 2.29309 -3.0364 0
M  V30 1017 H 96.2704 0.64826 -3.82648 0
M  V30 1018 H 94.3714 2.74152 -2.52332 0
M  V30 1019 H 94.4844 2.1133 -4.29973 0
M  V30 1020 H 92.8484 1.2095 -2.2415 0
M  V30 1021 H 93.6314 0.0371471 -3.4328 0
M  V30 1022 N 96.0765 1.50051 0.48192 0
M  V30 1023 C 97.4925 1.37237 0.814756 0
M  V30 1024 C 97.6925 0.420109 1.97072 0
M  V30 1025 O 96.7485 -0.141246 2.52105 0
M  V30 1026 C 98.0615 2.78375 1.13701 0
M  V30 1027 C 99.6095 2.87213 1.2441 0
M  V30 1028 C 100.084 4.29161 1.59954 0
M  V30 1029 N 101.575 4.32061 1.66967 0
M  V30 1030 C 102.31 5.38879 1.95952 0
M  V30 1031 N 101.806 6.55918 2.23031 0
M  V30 1032 N 103.599 5.26312 1.97363 0
M  V30 1033 H 95.7505 2.10546 -0.28005 0
M  V30 1034 H 98.0135 0.945921 -0.0627454 0
M  V30 1035 H 97.7195 3.49845 0.360787 0
M  V30 1036 H 97.5935 3.14941 2.07586 0
M  V30 1037 H 99.9805 2.15969 2.01101 0
M  V30 1038 H 100.061 2.54204 0.285299 0
M  V30 1039 H 99.7055 5.00938 0.838067 0
M  V30 1040 H 99.6355 4.59648 2.56966 0
M  V30 1041 H 102.126 3.47661 1.48123 0
M  V30 1042 H 102.439 7.33139 2.44391 0
M  V30 1043 H 100.784 6.59112 2.20447 0
M  V30 1044 H 103.975 4.33876 1.75697 0
M  V30 1045 H 104.148 6.09649 2.19618 0
M  V30 1046 N 97.5546 -0.734337 1.39446 0
M  V30 1047 C 98.9706 -1.03997 1.21065 0
M  V30 1048 C 99.1706 -2.01369 0.0727019 0
M  V30 1049 O 98.2266 -2.45856 -0.575426 0
M  V30 1050 C 99.5396 -1.60163 2.54496 0
M  V30 1051 C 101.088 -1.7224 2.61347 0
M  V30 1052 C 101.563 -2.31814 3.95002 0
M  V30 1053 N 103.054 -2.39223 3.96644 0
M  V30 1054 C 103.789 -2.86258 4.96834 0
M  V30 1055 N 103.285 -3.33184 6.07421 0
M  V30 1056 N 105.078 -2.85473 4.84213 0
M  V30 1057 H 97.2286 -0.0885624 2.12215 0
M  V30 1058 H 99.4916 -0.10191 0.942506 0
M  V30 1059 H 99.1976 -0.960811 3.38321 0
M  V30 1060 H 99.0716 -2.5896 2.74262 0
M  V30 1061 H 101.459 -2.35443 1.77906 0
M  V30 1062 H 101.54 -0.720939 2.4543 0
M  V30 1063 H 101.184 -1.69238 4.78875 0
M  V30 1064 H 101.114 -3.32638 4.08239 0
M  V30 1065 H 103.605 -2.06057 3.16779 0
M  V30 1066 H 103.918 -3.67586 6.7978 0
M  V30 1067 H 102.263 -3.31191 6.11013 0
M  V30 1068 H 105.454 -2.48136 3.96921 0
M  V30 1069 H 105.627 -3.21814 5.62441 0
M  V30 1070 N 99.0327 -1.24633 -0.964593 0
M  V30 1071 C 99.9647 -0.999302 -2.06268 0
M  V30 1072 C 100.978 0.0323226 -1.62768 0
M  V30 1073 O 102.167 -0.205079 -1.77318 0
M  V30 1074 C 99.2667 -0.486816 -3.35385 0
M  V30 1075 C 98.4397 -1.5823 -4.07777 0
M  V30 1076 C 97.4987 -1.07191 -5.15166 0
M  V30 1077 O 96.5247 -1.76426 -5.41168 0
M  V30 1078 N 97.7267 0.0920373 -5.80427 0
M  V30 1079 H 100.492 -1.94477 -2.28033 0
M  V30 1080 H 98.0527 -1.15704 -1.13244 0
M  V30 1081 H 100.045 -0.130066 -4.04491 0
M  V30 1082 H 98.6147 0.364459 -3.10468 0
M  V30 1083 H 97.8347 -2.11109 -3.32906 0
M  V30 1084 H 99.1227 -2.31854 -4.52903 0
M  V30 1085 H 98.5207 0.670784 -5.61709 0
M  V30 1086 H 97.0777 0.389905 -6.50633 0
M  V30 1087 N 100.511 1.16574 -1.06058 0
M  V30 1088 C 101.441 2.23057 -0.690488 0
M  V30 1089 C 102.422 1.67141 0.315901 0
M  V30 1090 O 103.607 1.93253 0.191556 0
M  V30 1091 C 100.737 3.47222 -0.073625 0
M  V30 1092 C 99.6908 4.16016 -1.00573 0
M  V30 1093 C 99.0168 5.34104 -0.252289 0
M  V30 1094 C 100.317 4.67264 -2.33371 0
M  V30 1095 H 102.011 2.54271 -1.58072 0
M  V30 1096 H 99.5568 1.22218 -0.76149 0
M  V30 1097 H 101.51 4.20939 0.19714 0
M  V30 1098 H 100.234 3.15302 0.85161 0
M  V30 1099 H 98.8928 3.44223 -1.2612 0
M  V30 1100 H 98.5408 4.98437 0.675988 0
M  V30 1101 H 98.2408 5.81072 -0.873455 0
M  V30 1102 H 99.7648 6.10599 0.0109857 0
M  V30 1103 H 101.179 5.32573 -2.12223 0
M  V30 1104 H 99.5758 5.24843 -2.90963 0
M  V30 1105 H 100.646 3.83602 -2.96611 0
M  V30 1106 N 101.989 0.842826 1.3317 0
M  V30 1107 C 102.937 0.267495 2.31057 0
M  V30 1108 C 103.931 -0.602682 1.58316 0
M  V30 1109 O 105.137 -0.491803 1.73151 0
M  V30 1110 H 101.512 0.0677813 0.748939 0
M  V30 1111 H 103.483 1.10754 2.77085 0
M  V30 1112 C 102.232 -0.539331 3.43492 0
M  V30 1113 H 101.555 0.12095 3.99617 0
M  V30 1114 H 102.995 -0.90767 4.14171 0
M  V30 1115 C 101.454 -1.71981 2.89697 0
M  V30 1116 O 101.984 -2.81862 2.86211 0
M  V30 1117 N 100.19 -1.54299 2.46252 0
M  V30 1118 H 99.7369 -0.649143 2.49287 0
M  V30 1119 H 99.6949 -2.33431 2.10612 0
M  V30 1120 N 103.467 -1.45747 0.599634 0
M  V30 1121 C 104.713 -2.02592 0.0918643 0
M  V30 1122 C 105.046 -1.46806 -1.27128 0
M  V30 1123 O 104.321 -0.639658 -1.83681 0
M  V30 1124 C 104.604 -3.60073 0.0443398 0
M  V30 1125 C 104.457 -4.26208 1.43759 0
M  V30 1126 C 105.776 -4.35309 -0.647608 0
M  V30 1127 H 102.895 -0.736175 0.034857 0
M  V30 1128 H 105.537 -1.73694 0.770081 0
M  V30 1129 H 103.687 -3.84823 -0.533224 0
M  V30 1130 H 105.359 -4.12668 2.06162 0
M  V30 1131 H 103.602 -3.84916 2.00056 0
M  V30 1132 H 104.273 -5.35069 1.35665 0
M  V30 1133 H 106.749 -4.15805 -0.156776 0
M  V30 1134 H 105.625 -5.45038 -0.649942 0
M  V30 1135 H 105.886 -4.07598 -1.71219 0
M  V30 1136 N 104.945 -0.338344 -1.53925 0
M  V30 1137 C 105.908 0.508299 -2.23493 0
M  V30 1138 C 106.908 1.03175 -1.23335 0
M  V30 1139 O 108.098 0.921826 -1.47811 0
M  V30 1140 C 105.23 1.70754 -2.95052 0
M  V30 1141 H 106.423 -0.100058 -2.99733 0
M  V30 1142 H 103.976 -0.0896198 -1.56043 0
M  V30 1143 H 104.711 2.35474 -2.22986 0
M  V30 1144 H 104.496 1.33946 -3.68512 0
M  V30 1145 H 105.986 2.30818 -3.48013 0
M  V30 1146 N 106.423 1.57458 -0.0668435 0
M  V30 1147 C 107.333 2.15937 0.916975 0
M  V30 1148 C 108.349 1.12123 1.33058 0
M  V30 1149 O 109.525 1.44366 1.40429 0
M  V30 1150 C 106.59 2.70547 2.16807 0
M  V30 1151 C 105.651 3.89215 1.81135 0
M  V30 1152 C 104.884 4.41211 3.0028 0
M  V30 1153 O 105.107 3.92225 4.14144 0
M  V30 1154 O 104.041 5.32605 2.80384 0
M  V30 1155 H 107.867 3.00354 0.449561 0
M  V30 1156 H 105.452 1.48584 0.155949 0
M  V30 1157 H 107.334 3.0557 2.90181 0
M  V30 1158 H 106.009 1.89192 2.62656 0
M  V30 1159 H 104.916 3.59054 1.05028 0
M  V30 1160 H 106.249 4.71848 1.40073 0
M  V30 1161 N 107.901 -0.206675 1.56239 0
M  V30 1162 C 109.15 -0.926964 1.79138 0
M  V30 1163 C 109.463 -1.84901 0.638043 0
M  V30 1164 O 110.669 -2.60906 0.751033 0
M  V30 1165 C 109.125 -1.6986 3.17294 0
M  V30 1166 C 108.733 -0.821956 4.40395 0
M  V30 1167 C 110.477 -2.40922 3.4951 0
M  V30 1168 C 108.384 -1.59179 5.69575 0
M  V30 1169 H 107.314 -0.349864 0.667915 0
M  V30 1170 H 109.965 -0.180487 1.8261 0
M  V30 1171 H 108.347 -2.48853 3.08039 0
M  V30 1172 H 109.521 -0.0715019 4.60745 0
M  V30 1173 H 107.836 -0.222741 4.15804 0
M  V30 1174 H 110.433 -2.99047 4.43255 0
M  V30 1175 H 110.776 -3.14542 2.72707 0
M  V30 1176 H 111.309 -1.68905 3.60161 0
M  V30 1177 H 108.048 -0.898589 6.49312 0
M  V30 1178 H 107.568 -2.31648 5.53262 0
M  V30 1179 H 109.247 -2.14862 6.10281 0
M  V30 1180 N 109.379 -1.50304 -0.473955 0
M  V30 1181 C 110.609 -1.64663 -1.24778 0
M  V30 1182 C 111.017 -0.328174 -1.86332 0
M  V30 1183 O 110.36 0.699536 -1.69859 0
M  V30 1184 C 110.422 -2.6778 -2.39863 0
M  V30 1185 C 110.086 -4.11413 -1.98969 0
M  V30 1186 C 111.083 -4.97372 -1.51385 0
M  V30 1187 C 108.768 -4.57312 -2.07777 0
M  V30 1188 C 110.762 -6.27277 -1.13148 0
M  V30 1189 C 108.449 -5.87223 -1.69152 0
M  V30 1190 C 109.447 -6.72031 -1.21915 0
M  V30 1191 O 109.135 -7.99518 -0.838237 0
M  V30 1192 H 108.867 -0.556602 -0.383627 0
M  V30 1193 H 111.421 -1.9726 -0.572491 0
M  V30 1194 H 109.651 -2.30419 -3.10554 0
M  V30 1195 H 111.34 -2.71388 -3.01833 0
M  V30 1196 H 112.106 -4.63128 -1.44004 0
M  V30 1197 H 107.985 -3.91449 -2.43493 0
M  V30 1198 H 111.529 -6.93425 -0.762077 0
M  V30 1199 H 107.426 -6.20989 -1.76191 0
M  V30 1200 H 108.194 -8.12764 -0.967339 0
M  V30 1201 N 110.857 0.726932 -1.39834 0
M  V30 1202 C 111.787 1.85405 -1.41941 0
M  V30 1203 C 112.768 1.67751 -0.281728 0
M  V30 1204 O 113.953 1.8795 -0.488717 0
M  V30 1205 C 111.083 3.23243 -1.2701 0
M  V30 1206 C 110.037 3.55549 -2.38262 0
M  V30 1207 C 109.363 4.9241 -2.08415 0
M  V30 1208 C 110.663 3.577 -3.80589 0
M  V30 1209 H 112.357 1.83899 -2.36266 0
M  V30 1210 H 109.903 0.883349 -1.13723 0
M  V30 1211 H 111.856 4.01775 -1.27103 0
M  V30 1212 H 110.58 3.25296 -0.291564 0
M  V30 1213 H 109.239 2.79351 -2.37399 0
M  V30 1214 H 108.887 4.91052 -1.0898 0
M  V30 1215 H 108.587 5.14992 -2.82943 0
M  V30 1216 H 110.111 5.73289 -2.10171 0
M  V30 1217 H 111.525 4.26293 -3.83337 0
M  V30 1218 H 109.922 3.91804 -4.54543 0
M  V30 1219 H 110.992 2.57328 -4.10987 0
M  V30 1220 N 112.336 1.25143 0.95797 0
M  V30 1221 C 113.299 1.05321 2.03569 0
M  V30 1222 C 114.299 0.007152 1.60798 0
M  V30 1223 O 115.489 0.24903 1.72411 0
M  V30 1224 C 112.621 0.598394 3.35607 0
M  V30 1225 H 113.814 2.00986 2.22586 0
M  V30 1226 H 111.367 1.07502 1.13459 0
M  V30 1227 H 112.102 -0.361014 3.22284 0
M  V30 1228 H 111.887 1.35351 3.67998 0
M  V30 1229 H 113.377 0.48104 4.1482 0
M  V30 1230 N 113.814 -1.1601 1.06675 0
M  V30 1231 C 114.762 -2.22586 0.675157 0
M  V30 1232 C 115.756 -1.66525 -0.310766 0
M  V30 1233 O 116.962 -1.79145 -0.175215 0
M  V30 1234 H 113.337 -0.724855 0.200223 0
M  V30 1235 H 115.308 -2.52899 1.58381 0
M  V30 1236 C 114.057 -3.47604 0.0817162 0
M  V30 1237 H 113.38 -3.91058 0.831484 0
M  V30 1238 H 114.82 -4.23718 -0.154708 0
M  V30 1239 C 113.279 -3.15718 -1.17576 0
M  V30 1240 O 113.809 -3.31878 -2.26318 0
M  V30 1241 N 112.015 -2.69816 -1.07923 0
M  V30 1242 H 111.562 -2.56866 -0.194293 0
M  V30 1243 H 111.52 -2.48855 -1.92141 0
M  V30 1244 N 115.292 -0.849877 -1.32721 0
M  V30 1245 C 116.222 -0.306308 -2.31482 0
M  V30 1246 C 117.203 0.591952 -1.59468 0
M  V30 1247 O 118.388 0.513199 -1.87296 0
M  V30 1248 C 115.518 0.510204 -3.43532 0
M  V30 1249 C 114.472 -0.293209 -4.26994 0
M  V30 1250 C 113.798 0.647743 -5.30762 0
M  V30 1251 C 115.098 -1.51634 -4.99804 0
M  V30 1252 H 116.792 -1.13153 -2.77195 0
M  V30 1253 H 114.338 -0.545553 -1.33266 0
M  V30 1254 H 116.291 0.900856 -4.11658 0
M  V30 1255 H 115.015 1.36874 -2.96535 0
M  V30 1256 H 113.674 -0.665555 -3.60508 0
M  V30 1257 H 113.322 1.50299 -4.8002 0
M  V30 1258 H 113.022 0.11422 -5.87489 0
M  V30 1259 H 114.546 1.03567 -6.01753 0
M  V30 1260 H 115.96 -1.19824 -5.60638 0
M  V30 1261 H 114.357 -1.98745 -5.66234 0
M  V30 1262 H 115.427 -2.28018 -4.27943 0
M  V30 1263 N 116.77 1.45427 -0.607355 0
M  V30 1264 C 117.733 2.28974 0.101693 0
M  V30 1265 C 118.733 1.39754 0.795329 0
M  V30 1266 O 119.923 1.61878 0.643527 0
M  V30 1267 C 117.055 3.20768 1.15414 0
M  V30 1268 H 118.248 2.93147 -0.632844 0
M  V30 1269 H 115.801 1.51945 -0.366391 0
M  V30 1270 H 116.536 2.61395 1.91945 0
M  V30 1271 H 116.321 3.86489 0.66098 0
M  V30 1272 H 117.811 3.83589 1.65073 0
M  V30 1273 N 118.248 0.346503 1.53744 0
M  V30 1274 C 119.211 -0.496439 2.23759 0
M  V30 1275 C 120.211 -1.0252 1.2388 0
M  V30 1276 O 121.401 -0.913974 1.48297 0
M  V30 1277 C 118.533 -1.69187 2.95954 0
M  V30 1278 H 119.726 0.115952 2.99676 0
M  V30 1279 H 117.279 0.0978939 1.55993 0
M  V30 1280 H 118.014 -2.34288 2.24231 0
M  V30 1281 H 117.799 -1.31989 3.69217 0
M  V30 1282 H 119.289 -2.28969 3.49232 0
M  V30 1283 N 119.726 -1.57421 0.075193 0
M  V30 1284 C 120.951 -1.98364 -0.605515 0
M  V30 1285 C 121.376 -0.953383 -1.62149 0
M  V30 1286 O 120.734 0.0806053 -1.81121 0
M  V30 1287 C 120.782 -3.38332 -1.24756 0
M  V30 1288 O 119.886 -3.37959 -2.36342 0
M  V30 1289 H 119.227 -0.645553 -0.155428 0
M  V30 1290 H 121.757 -2.04044 0.150714 0
M  V30 1291 H 121.767 -3.75591 -1.5936 0
M  V30 1292 H 120.442 -4.12846 -0.503129 0
M  V30 1293 H 119.019 -3.12474 -2.03506 0
M  V30 1294 N 121.204 0.198386 -1.56346 0
M  V30 1295 C 122.481 0.944982 -1.71258 0
M  V30 1296 C 122.861 2.0151 -0.629048 0
M  V30 1297 O 122.209 2.25639 0.360473 0
M  V30 1298 C 122.419 1.5344 -3.1346 0
M  V30 1299 C 123.767 2.01778 -3.73591 0
M  V30 1300 O 124.791 1.63288 -3.16568 0
M  V30 1301 O 123.65 2.72594 -4.73661 0
M  V30 1302 H 120.744 0.442939 -0.69838 0
M  V30 1303 H 123.29 0.188342 -1.68652 0
M  V30 1304 H 122.062 0.762869 -3.83792 0
M  V30 1305 H 121.685 2.35596 -3.20282 0
M  V30 1306 N 122.682 1.50554 0.465978 0
M  V30 1307 C 123.612 1.72722 1.57128 0
M  V30 1308 C 124.593 0.576294 1.6004 0
M  V30 1309 O 125.778 0.81598 1.76225 0
M  V30 1310 C 122.908 1.82605 2.95419 0
M  V30 1311 C 121.862 2.97835 3.07373 0
M  V30 1312 C 121.188 2.92867 4.47363 0
M  V30 1313 C 122.488 4.38265 2.84114 0
M  V30 1314 H 124.182 2.65267 1.38829 0
M  V30 1315 H 121.728 1.2765 0.666441 0
M  V30 1316 H 123.681 1.96698 3.72677 0
M  V30 1317 H 122.405 0.866858 3.14886 0
M  V30 1318 H 121.064 2.83401 2.3255 0
M  V30 1319 H 120.712 1.94783 4.63755 0
M  V30 1320 H 120.412 3.70227 4.56296 0
M  V30 1321 H 121.936 3.09015 5.26633 0
M  V30 1322 H 123.35 4.53198 3.51118 0
M  V30 1323 H 121.747 5.17115 3.04487 0
M  V30 1324 H 122.817 4.50281 1.7993 0
M  V30 1325 N 124.16 -0.719506 1.40217 0
M  V30 1326 C 125.406 -1.48152 1.38488 0
M  V30 1327 C 125.739 -1.94195 -0.0141867 0
M  V30 1328 O 125.014 -1.67884 -0.982096 0
M  V30 1329 C 125.297 -2.71035 2.37091 0
M  V30 1330 C 125.15 -2.30912 3.86005 0
M  V30 1331 C 126.469 -3.73182 2.33288 0
M  V30 1332 H 123.588 -0.537395 0.504357 0
M  V30 1333 H 126.23 -0.821472 1.71324 0
M  V30 1334 H 124.38 -3.27352 2.0922 0
M  V30 1335 H 126.052 -1.80107 4.24687 0
M  V30 1336 H 124.295 -1.62958 4.02029 0
M  V30 1337 H 124.966 -3.18978 4.50508 0
M  V30 1338 H 127.442 -3.26485 2.57966 0
M  V30 1339 H 126.318 -4.56806 3.04334 0
M  V30 1340 H 126.579 -4.21202 1.34317 0
M  V30 1341 N 125.638 -1.25649 -0.95132 0
M  V30 1342 C 126.885 -1.10594 -1.69633 0
M  V30 1343 C 127.213 0.352515 -1.91279 0
M  V30 1344 O 126.468 1.27601 -1.4838 0
M  V30 1345 C 126.767 -1.80909 -3.08231 0
M  V30 1346 C 126.433 -3.30825 -3.06375 0
M  V30 1347 C 125.095 -3.71722 -3.05576 0
M  V30 1348 C 127.447 -4.26589 -2.99452 0
M  V30 1349 C 124.775 -5.06788 -2.95606 0
M  V30 1350 C 127.127 -5.61683 -2.91024 0
M  V30 1351 C 125.791 -6.01904 -2.88562 0
M  V30 1352 H 125.061 -0.404691 -0.620731 0
M  V30 1353 H 127.708 -1.55964 -1.11119 0
M  V30 1354 H 126.013 -1.27979 -3.70309 0
M  V30 1355 H 127.71 -1.6671 -3.64704 0
M  V30 1356 H 124.3 -2.98287 -3.07771 0
M  V30 1357 H 128.484 -3.95982 -2.99185 0
M  V30 1358 H 123.74 -5.37126 -2.92071 0
M  V30 1359 H 127.914 -6.35578 -2.84629 0
M  V30 1360 H 125.541 -7.06521 -2.80593 0
M  V30 1361 N 127.117 1.15442 -1.07289 0
M  V30 1362 C 128.363 1.86489 -0.796846 0
M  V30 1363 C 128.696 1.82078 0.675371 0
M  V30 1364 O 127.971 1.24346 1.4956 0
M  V30 1365 C 128.254 3.35626 -1.30489 0
M  V30 1366 C 128.107 3.48673 -2.84161 0
M  V30 1367 C 129.426 4.30357 -0.920907 0
M  V30 1368 H 126.545 0.677144 -0.290939 0
M  V30 1369 H 129.187 1.35633 -1.33056 0
M  V30 1370 H 127.337 3.79068 -0.850883 0
M  V30 1371 H 129.009 3.14099 -3.37846 0
M  V30 1372 H 127.252 2.90253 -3.22391 0
M  V30 1373 H 127.923 4.53453 -3.14777 0
M  V30 1374 H 130.399 3.94871 -1.3121 0
M  V30 1375 H 129.275 5.33193 -1.30372 0
M  V30 1376 H 129.536 4.4176 0.173226 0
M  V30 1377 N 128.595 0.856903 1.32268 0
M  V30 1378 C 129.525 0.31858 2.31316 0
M  V30 1379 C 130.506 -0.583487 1.59779 0
M  V30 1380 O 131.691 -0.503259 1.87566 0
M  V30 1381 C 128.821 -0.491979 3.43798 0
M  V30 1382 C 127.775 0.315849 4.26833 0
M  V30 1383 C 127.101 -0.619586 5.31098 0
M  V30 1384 C 128.401 1.54282 4.98993 0
M  V30 1385 H 130.095 1.14621 2.76591 0
M  V30 1386 H 127.641 0.552613 1.32974 0
M  V30 1387 H 129.594 -0.879012 4.1213 0
M  V30 1388 H 128.318 -1.35299 2.97257 0
M  V30 1389 H 126.977 0.684664 3.6015 0
M  V30 1390 H 126.625 -1.47751 4.8081 0
M  V30 1391 H 126.325 -0.0830621 5.87541 0
M  V30 1392 H 127.849 -1.00375 6.02293 0
M  V30 1393 H 129.263 1.22796 5.59995 0
M  V30 1394 H 127.66 2.01745 5.65172 0
M  V30 1395 H 128.73 2.30285 4.26728 0
M  V30 1396 N 130.073 -1.45103 0.615059 0
M  V30 1397 C 131.321 -2.01784 0.112955 0
M  V30 1398 C 131.642 -1.48504 -1.26378 0
M  V30 1399 O 130.912 -0.682245 -1.83636 0
M  V30 1400 H 129.492 -0.745993 0.0387668 0
M  V30 1401 H 132.154 -1.77808 0.798141 0
M  V30 1402 H 131.25 -3.12025 0.0684069 0
M  V30 1403 N 131.551 -0.354651 -1.53558 0
M  V30 1404 C 132.481 0.489091 -2.2832 0
M  V30 1405 C 133.462 1.09324 -1.30316 0
M  V30 1406 O 134.647 1.11255 -1.59173 0
M  V30 1407 C 131.777 1.63456 -3.0643 0
M  V30 1408 C 130.731 1.1582 -4.12031 0
M  V30 1409 C 130.057 2.39305 -4.7816 0
M  V30 1410 C 131.357 0.250731 -5.21698 0
M  V30 1411 H 133.051 -0.134614 -2.99097 0
M  V30 1412 H 130.597 -0.0661826 -1.43848 0
M  V30 1413 H 132.55 2.23136 -3.57475 0
M  V30 1414 H 131.274 2.28533 -2.33325 0
M  V30 1415 H 129.933 0.584146 -3.61916 0
M  V30 1416 H 129.581 3.02814 -4.01637 0
M  V30 1417 H 129.281 2.08109 -5.49513 0
M  V30 1418 H 130.805 2.99691 -5.31994 0
M  V30 1419 H 132.219 0.754695 -5.68311 0
M  V30 1420 H 130.616 0.0301468 -6.00092 0
M  V30 1421 H 131.686 -0.710125 -4.79672 0
M  V30 1422 N 133.029 1.57378 -0.0835403 0
M  V30 1423 C 134.44 1.81261 0.447358 0
M  V30 1424 C 134.791 0.998331 1.68902 0
M  V30 1425 O 133.916 0.224282 2.15235 0
M  V30 1426 C 134.511 3.28767 0.818386 0
M  V30 1427 C 133.07 3.53455 1.29409 0
M  V30 1428 C 132.217 2.75831 0.285024 0
M  V30 1429 H 135.168 1.5566 -0.309115 0
M  V30 1430 H 135.189 3.41459 1.67887 0
M  V30 1431 H 134.701 3.88006 -0.0855019 0
M  V30 1432 H 132.802 2.99534 2.21608 0
M  V30 1433 H 132.915 4.62128 1.2639 0
M  V30 1434 H 131.279 2.42947 0.764767 0
M  V30 1435 H 132.062 3.37813 -0.611341 0
M  V30 1436 N 134.507 -0.190092 1.56449 0
M  V30 1437 C 135.754 -0.909705 1.80916 0
M  V30 1438 C 136.082 -1.83047 0.657583 0
M  V30 1439 O 135.337 -1.92428 -0.356356 0
M  V30 1440 C 135.636 -1.75382 3.1141 0
M  V30 1441 C 135.302 -0.983606 4.40041 0
M  V30 1442 C 133.964 -0.770967 4.74984 0
M  V30 1443 C 136.316 -0.442024 5.19322 0
M  V30 1444 C 133.644 -0.0053448 5.867 0
M  V30 1445 C 135.996 0.310412 6.31838 0
M  V30 1446 C 134.66 0.534023 6.6536 0
M  V30 1447 H 133.93 -0.332885 0.662019 0
M  V30 1448 H 136.577 -0.175762 1.90692 0
M  V30 1449 H 134.882 -2.55659 2.96893 0
M  V30 1450 H 136.579 -2.31331 3.27547 0
M  V30 1451 H 133.169 -1.15936 4.12622 0
M  V30 1452 H 137.353 -0.593693 4.92736 0
M  V30 1453 H 132.609 0.177825 6.11141 0
M  V30 1454 H 136.783 0.737419 6.92485 0
M  V30 1455 H 134.41 1.12918 7.51767 0
M  V30 1456 N 135.985 -1.50799 -0.457987 0
M  V30 1457 C 137.231 -1.63648 -1.20792 0
M  V30 1458 C 137.586 -0.338662 -1.89396 0
M  V30 1459 O 136.879 0.664291 -1.79716 0
M  V30 1460 C 137.073 -2.76358 -2.2663 0
M  V30 1461 C 136.902 -4.16974 -1.68411 0
M  V30 1462 C 135.672 -4.83199 -1.47807 0
M  V30 1463 C 137.87 -5.00774 -1.17176 0
M  V30 1464 N 135.852 -6.07991 -0.849692 0
M  V30 1465 C 137.223 -6.16397 -0.667403 0
M  V30 1466 C 139.278 -4.86452 -1.06155 0
M  V30 1467 C 137.981 -7.19272 -0.0636908 0
M  V30 1468 C 140.007 -5.89515 -0.471759 0
M  V30 1469 C 139.369 -7.04397 0.0221557 0
M  V30 1470 H 135.468 -0.652888 -0.43042 0
M  V30 1471 H 138.052 -1.87962 -0.507785 0
M  V30 1472 H 136.223 -2.53744 -2.94056 0
M  V30 1473 H 137.955 -2.78496 -2.93636 0
M  V30 1474 H 134.71 -4.40714 -1.73403 0
M  V30 1475 H 135.134 -6.74733 -0.553537 0
M  V30 1476 H 139.776 -3.97907 -1.42932 0
M  V30 1477 H 137.494 -8.07481 0.316253 0
M  V30 1478 H 141.08 -5.805 -0.388671 0
M  V30 1479 H 139.96 -7.82782 0.471375 0
M  V30 1480 N 137.463 0.71206 -1.40597 0
M  V30 1481 C 138.426 1.80785 -1.40888 0
M  V30 1482 C 139.426 1.57937 -0.302103 0
M  V30 1483 O 140.616 1.64913 -0.561182 0
M  V30 1484 C 137.748 3.18927 -1.20409 0
M  V30 1485 H 138.941 1.81924 -2.38419 0
M  V30 1486 H 136.494 0.91805 -1.26497 0
M  V30 1487 H 137.229 3.23436 -0.236522 0
M  V30 1488 H 137.014 3.36911 -2.00582 0
M  V30 1489 H 138.504 3.98949 -1.23408 0
M  V30 1490 N 138.941 1.26152 0.944643 0
M  V30 1491 C 139.851 1.09176 2.07648 0
M  V30 1492 C 140.867 0.0261935 1.7398 0
M  V30 1493 O 142.043 0.229208 2.00091 0
M  V30 1494 C 139.108 0.722915 3.39079 0
M  V30 1495 C 138.169 1.86752 3.86552 0
M  V30 1496 C 137.402 1.51617 5.11711 0
M  V30 1497 O 137.625 0.416331 5.68879 0
M  V30 1498 O 136.559 2.34975 5.54139 0
M  V30 1499 H 140.385 2.0412 2.24875 0
M  V30 1500 H 137.97 1.05182 1.061 0
M  V30 1501 H 139.852 0.529787 4.18056 0
M  V30 1502 H 138.527 -0.197159 3.23099 0
M  V30 1503 H 137.434 2.11558 3.08535 0
M  V30 1504 H 138.767 2.76719 4.07047 0
M  V30 1505 N 140.419 -1.14872 1.07899 0
M  V30 1506 C 141.367 -2.21857 0.698727 0
M  V30 1507 C 142.361 -1.66845 -0.293086 0
M  V30 1508 O 143.567 -1.79321 -0.156204 0
M  V30 1509 H 139.942 -0.722691 0.207899 0
M  V30 1510 H 141.913 -2.51205 1.61054 0
M  V30 1511 C 140.662 -3.47498 0.11858 0
M  V30 1512 H 139.985 -3.90154 0.872914 0
M  V30 1513 H 141.425 -4.23858 -0.109759 0
M  V30 1514 C 139.884 -3.16947 -1.1422 0
M  V30 1515 O 140.414 -3.3426 -2.22785 0
M  V30 1516 N 138.62 -2.70946 -1.05055 0
M  V30 1517 H 138.167 -2.57058 -0.167038 0
M  V30 1518 H 138.125 -2.50879 -1.89491 0
M  V30 1519 N 141.898 -0.863906 -1.31812 0
M  V30 1520 C 143.147 -0.46801 -1.96195 0
M  V30 1521 C 143.46 0.983474 -1.69077 0
M  V30 1522 O 144.666 1.48523 -2.27273 0
M  V30 1523 C 143.122 -0.785995 -3.51212 0
M  V30 1524 C 142.73 -2.25383 -3.87178 0
M  V30 1525 C 144.474 -0.458274 -4.22019 0
M  V30 1526 C 142.381 -2.51455 -5.3528 0
M  V30 1527 H 141.311 -0.171283 -0.734287 0
M  V30 1528 H 143.962 -1.05597 -1.50072 0
M  V30 1529 H 142.344 -0.127359 -3.95795 0
M  V30 1530 H 143.518 -2.95502 -3.53575 0
M  V30 1531 H 141.833 -2.54698 -3.2942 0
M  V30 1532 H 144.43 -0.630369 -5.30971 0
M  V30 1533 H 144.773 0.600834 -4.11941 0
M  V30 1534 H 145.306 -1.07319 -3.8305 0
M  V30 1535 H 142.045 -3.56025 -5.50387 0
M  V30 1536 H 141.565 -1.85923 -5.70257 0
M  V30 1537 H 143.244 -2.35874 -6.02472 0
M  V30 1538 N 143.376 1.44774 -0.622745 0
M  V30 1539 C 144.622 2.02968 -0.13257 0
M  V30 1540 C 144.977 1.48047 1.22881 0
M  V30 1541 O 144.27 0.651625 1.80179 0
M  V30 1542 C 144.464 3.57364 -0.0508323 0
M  V30 1543 C 144.293 4.27262 -1.40275 0
M  V30 1544 C 143.063 4.64577 -1.98737 0
M  V30 1545 C 145.261 4.58248 -2.3348 0
M  V30 1546 N 143.243 5.19404 -3.27251 0
M  V30 1547 C 144.614 5.14069 -3.46603 0
M  V30 1548 C 146.669 4.40195 -2.32664 0
M  V30 1549 C 145.372 5.53738 -4.59093 0
M  V30 1550 C 147.398 4.80907 -3.44213 0
M  V30 1551 C 146.76 5.36834 -4.56058 0
M  V30 1552 H 142.859 0.776541 -0.0922354 0
M  V30 1553 H 145.443 1.76385 -0.82441 0
M  V30 1554 H 143.614 3.83576 0.610265 0
M  V30 1555 H 145.346 4.02219 0.447397 0
M  V30 1556 H 142.101 4.48622 -1.51774 0
M  V30 1557 H 142.525 5.51301 -3.92933 0
M  V30 1558 H 147.167 3.96257 -1.47446 0
M  V30 1559 H 144.885 5.96635 -5.45025 0
M  V30 1560 H 148.471 4.68659 -3.44747 0
M  V30 1561 H 147.351 5.67755 -5.40947 0
M  V30 1562 N 144.854 0.36279 1.53368 0
M  V30 1563 C 145.802 -0.500155 2.27159 0
M  V30 1564 C 146.796 -1.08575 1.3003 0
M  V30 1565 O 148.002 -1.02927 1.47668 0
M  V30 1566 H 144.377 -0.180009 0.730138 0
M  V30 1567 H 146.348 0.14401 2.98052 0
M  V30 1568 C 145.097 -1.62937 3.07159 0
M  V30 1569 H 144.42 -1.18806 3.8174 0
M  V30 1570 H 145.86 -2.20795 3.61975 0
M  V30 1571 C 144.319 -2.57007 2.17829 0
M  V30 1572 O 144.849 -3.59752 1.78721 0
M  V30 1573 N 143.055 -2.26131 1.82518 0
M  V30 1574 H 142.602 -1.42616 2.14519 0
M  V30 1575 H 142.56 -2.89327 1.23034 0
M  V30 1576 N 146.332 -1.57332 0.0918853 0
M  V30 1577 C 147.264 -2.10869 -0.898168 0
M  V30 1578 C 148.277 -1.04521 -1.24817 0
M  V30 1579 O 149.466 -1.31977 -1.20184 0
M  V30 1580 C 146.566 -2.57083 -2.2082 0
M  V30 1581 C 145.739 -3.87229 -2.03402 0
M  V30 1582 C 144.798 -4.19324 -3.17889 0
M  V30 1583 O 143.824 -4.88598 -2.91994 0
M  V30 1584 N 145.026 -3.74471 -4.43567 0
M  V30 1585 H 147.791 -2.96439 -0.440943 0
M  V30 1586 H 145.352 -1.61631 -0.0933064 0
M  V30 1587 H 147.344 -2.75602 -2.96354 0
M  V30 1588 H 145.914 -1.76541 -2.57977 0
M  V30 1589 H 145.134 -3.7789 -1.12218 0
M  V30 1590 H 146.422 -4.72379 -1.89038 0
M  V30 1591 H 145.82 -3.18546 -4.67488 0
M  V30 1592 H 144.377 -3.98151 -5.16061 0
M  V30 1593 N 147.81 0.181792 -1.56548 0
M  V30 1594 C 149.057 0.900097 -1.81396 0
M  V30 1595 C 149.385 1.82695 -0.667281 0
M  V30 1596 O 148.64 1.92614 0.346146 0
M  V30 1597 C 148.939 1.73728 -3.12335 0
M  V30 1598 C 148.605 0.960255 -4.40556 0
M  V30 1599 C 147.267 0.745766 -4.75386 0
M  V30 1600 C 149.619 0.414477 -5.19549 0
M  V30 1601 C 146.947 -0.0257694 -5.86694 0
M  V30 1602 C 149.299 -0.343916 -6.31664 0
M  V30 1603 C 147.963 -0.569301 -6.65068 0
M  V30 1604 H 147.233 0.329369 -0.663775 0
M  V30 1605 H 149.88 0.165647 -1.90782 0
M  V30 1606 H 148.185 2.54081 -2.98245 0
M  V30 1607 H 149.882 2.29591 -3.28769 0
M  V30 1608 H 146.472 1.13746 -4.13231 0
M  V30 1609 H 150.656 0.567554 -4.93044 0
M  V30 1610 H 145.912 -0.210233 -6.11038 0
M  V30 1611 H 150.086 -0.774133 -6.92084 0
M  V30 1612 H 147.713 -1.16903 -7.51158 0
M  V30 1613 N 149.288 1.51039 0.449983 0
M  V30 1614 C 150.236 1.71995 1.5659 0
M  V30 1615 C 151.23 0.586029 1.5894 0
M  V30 1616 O 152.436 0.76709 1.62837 0
M  V30 1617 H 148.811 0.543233 0.520001 0
M  V30 1618 H 150.782 2.65562 1.36085 0
M  V30 1619 C 149.531 1.8506 2.9436 0
M  V30 1620 H 148.854 2.71712 2.93279 0
M  V30 1621 H 150.294 2.0374 3.71842 0
M  V30 1622 C 148.753 0.607277 3.31382 0
M  V30 1623 O 149.283 -0.243903 4.00959 0
M  V30 1624 N 147.489 0.455073 2.87015 0
M  V30 1625 H 147.036 1.14879 2.30566 0
M  V30 1626 H 146.994 -0.375611 3.12148 0
M  V30 1627 N 150.766 -0.704594 1.40972 0
M  V30 1628 C 152.012 -1.46546 1.41053 0
M  V30 1629 C 152.367 -1.92393 0.0159714 0
M  V30 1630 O 151.66 -1.66017 -0.956506 0
M  V30 1631 C 151.854 -2.698 2.34399 0
M  V30 1632 C 151.683 -2.36008 3.82793 0
M  V30 1633 C 150.453 -2.26812 4.51536 0
M  V30 1634 C 152.651 -1.99565 4.74003 0
M  V30 1635 N 150.633 -1.8581 5.85105 0
M  V30 1636 C 152.004 -1.69251 5.96451 0
M  V30 1637 C 154.059 -1.86296 4.61734 0
M  V30 1638 C 152.762 -1.27003 7.07999 0
M  V30 1639 C 154.788 -1.45452 5.73234 0
M  V30 1640 C 154.15 -1.16043 6.94776 0
M  V30 1641 H 150.249 -0.533896 0.571383 0
M  V30 1642 H 152.833 -0.816061 1.76773 0
M  V30 1643 H 151.004 -3.32473 2.00789 0
M  V30 1644 H 152.736 -3.36214 2.25261 0
M  V30 1645 H 149.491 -2.44913 4.05357 0
M  V30 1646 H 149.915 -1.67817 6.55871 0
M  V30 1647 H 154.557 -2.0769 3.68273 0
M  V30 1648 H 152.275 -1.04353 8.01334 0
M  V30 1649 H 155.861 -1.35748 5.65742 0
M  V30 1650 H 154.741 -0.84915 7.79589 0
M  V30 1651 N 152.244 -1.26651 -0.937939 0
M  V30 1652 C 153.655 -1.1125 -1.49934 0
M  V30 1653 C 154.006 0.306077 -1.93798 0
M  V30 1654 O 153.131 1.19792 -1.80219 0
M  V30 1655 C 153.726 -2.01339 -2.72485 0
M  V30 1656 C 152.285 -1.90074 -3.24883 0
M  V30 1657 C 151.432 -1.94498 -1.97651 0
M  V30 1658 H 154.383 -1.39693 -0.753091 0
M  V30 1659 H 154.404 -1.56319 -3.46907 0
M  V30 1660 H 153.916 -3.04577 -2.40529 0
M  V30 1661 H 152.017 -0.897827 -3.61621 0
M  V30 1662 H 152.13 -2.75778 -3.9177 0
M  V30 1663 H 150.494 -1.38591 -2.13693 0
M  V30 1664 H 151.277 -2.99372 -1.68022 0
M  V30 1665 N 153.722 1.14298 -1.08507 0
M  V30 1666 C 154.969 1.85359 -0.815373 0
M  V30 1667 C 155.297 1.83001 0.658865 0
M  V30 1668 O 154.552 1.25655 1.50031 0
M  V30 1669 C 154.851 3.33547 -1.28379 0
M  V30 1670 C 154.517 3.56093 -2.76602 0
M  V30 1671 C 153.179 3.61955 -3.17084 0
M  V30 1672 C 155.531 3.64834 -3.72217 0
M  V30 1673 C 152.859 3.74082 -4.51973 0
M  V30 1674 C 155.211 3.78487 -5.06883 0
M  V30 1675 C 153.875 3.82598 -5.46969 0
M  V30 1676 H 153.145 0.678276 -0.298366 0
M  V30 1677 H 155.792 1.35002 -1.35819 0
M  V30 1678 H 154.097 3.86191 -0.660593 0
M  V30 1679 H 155.794 3.86959 -1.05186 0
M  V30 1680 H 152.384 3.52179 -2.4427 0
M  V30 1681 H 156.568 3.59595 -3.42061 0
M  V30 1682 H 151.824 3.75527 -4.82483 0
M  V30 1683 H 155.998 3.84193 -5.80834 0
M  V30 1684 H 153.625 3.91747 -6.51489 0
M  V30 1685 N 155.201 0.870884 1.31352 0
M  V30 1686 C 156.449 0.48132 1.96285 0
M  V30 1687 C 156.77 -0.969813 1.69173 0
M  V30 1688 O 156.04 -1.67998 1.00764 0
M  V30 1689 H 154.62 0.175002 0.726212 0
M  V30 1690 H 157.282 1.11087 1.60143 0
M  V30 1691 H 156.378 0.639825 3.05471 0
M  V30 1692 N 156.679 -1.44442 0.630414 0
M  V30 1693 C 157.642 -2.29107 -0.0652523 0
M  V30 1694 C 158.642 -1.41002 -0.772995 0
M  V30 1695 O 159.832 -1.62881 -0.617692 0
M  V30 1696 C 156.964 -3.22564 -1.10296 0
M  V30 1697 H 158.157 -2.92103 0.679401 0
M  V30 1698 H 155.71 -1.51343 0.390517 0
M  V30 1699 H 156.445 -2.64416 -1.87762 0
M  V30 1700 H 156.23 -3.87491 -0.59941 0
M  V30 1701 H 157.72 -3.86167 -1.5895 0
M  V30 1702 N 158.157 -0.370918 -1.53173 0
M  V30 1703 C 159.087 0.464847 -2.28826 0
M  V30 1704 C 160.068 1.07936 -1.31468 0
M  V30 1705 O 161.253 1.0956 -1.60344 0
M  V30 1706 C 158.383 1.60196 -3.08147 0
M  V30 1707 C 157.337 1.11443 -4.13237 0
M  V30 1708 C 156.663 2.3422 -4.80672 0
M  V30 1709 C 157.963 0.195384 -5.21934 0
M  V30 1710 H 159.657 -0.166329 -2.98938 0
M  V30 1711 H 157.203 -0.0814359 -1.4377 0
M  V30 1712 H 159.156 2.19332 -3.59822 0
M  V30 1713 H 157.88 2.26045 -2.35735 0
M  V30 1714 H 156.539 0.545727 -3.62515 0
M  V30 1715 H 156.187 2.98537 -4.04827 0
M  V30 1716 H 155.887 2.02269 -5.51689 0
M  V30 1717 H 157.411 2.94032 -5.35143 0
M  V30 1718 H 158.825 0.694375 -5.69079 0
M  V30 1719 H 157.222 -0.0335027 -6.00091 0
M  V30 1720 H 158.292 -0.760961 -4.78892 0
M  V30 1721 N 159.635 1.57281 -0.100228 0
M  V30 1722 C 160.565 2.17328 0.853857 0
M  V30 1723 C 161.546 1.10804 1.2906 0
M  V30 1724 O 162.731 1.38963 1.35657 0
M  V30 1725 C 159.861 2.75772 2.11109 0
M  V30 1726 C 158.815 3.87713 1.81279 0
M  V30 1727 C 158.141 4.32882 3.13874 0
M  V30 1728 C 159.441 5.10677 1.09574 0
M  V30 1729 H 161.135 2.97305 0.353545 0
M  V30 1730 H 158.681 1.43009 0.168612 0
M  V30 1731 H 160.634 3.16433 2.78296 0
M  V30 1732 H 159.358 1.93057 2.63432 0
M  V30 1733 H 158.017 3.476 1.16489 0
M  V30 1734 H 157.665 3.47051 3.64095 0
M  V30 1735 H 157.365 5.08358 2.94696 0
M  V30 1736 H 158.889 4.7618 3.82211 0
M  V30 1737 H 160.303 5.48474 1.66879 0
M  V30 1738 H 158.7 5.91615 1.00557 0
M  V30 1739 H 159.77 4.84835 0.0793299 0
M  V30 1740 N 161.113 -0.173488 1.56642 0
M  V30 1741 C 162.353 -0.896984 1.83667 0
M  V30 1742 C 162.717 -1.79523 0.680842 0
M  V30 1743 O 163.918 -2.55616 0.831488 0
M  V30 1744 C 162.189 -1.67351 3.15798 0
M  V30 1745 S 163.748 -2.44607 3.64298 0
M  V30 1746 H 160.566 -0.300464 0.644393 0
M  V30 1747 H 163.168 -0.158775 1.94854 0
M  V30 1748 H 161.872 -1.00462 3.97914 0
M  V30 1749 H 161.403 -2.45313 3.07546 0
M  V30 1750 H 163.418 -3.69261 3.31452 0
M  V30 1751 N 162.591 -1.51276 -0.441967 0
M  V30 1752 C 164.007 -1.39349 -0.778083 0
M  V30 1753 C 164.207 -0.472212 -1.95889 0
M  V30 1754 O 163.263 0.0743551 -2.5239 0
M  V30 1755 C 164.576 -2.81292 -1.0628 0
M  V30 1756 C 166.124 -2.9041 -1.16751 0
M  V30 1757 C 166.599 -4.33251 -1.48519 0
M  V30 1758 N 168.09 -4.36336 -1.55453 0
M  V30 1759 C 168.825 -5.43885 -1.81596 0
M  V30 1760 N 168.321 -6.61601 -2.05562 0
M  V30 1761 N 170.114 -5.3136 -1.8334 0
M  V30 1762 H 162.265 -2.09729 0.335774 0
M  V30 1763 H 164.528 -0.943925 0.0878028 0
M  V30 1764 H 164.234 -3.50678 -0.267905 0
M  V30 1765 H 164.108 -3.20334 -1.99163 0
M  V30 1766 H 166.495 -2.21225 -1.95304 0
M  V30 1767 H 166.576 -2.54871 -0.217801 0
M  V30 1768 H 166.22 -5.02984 -0.704958 0
M  V30 1769 H 166.15 -4.66299 -2.44689 0
M  V30 1770 H 168.641 -3.51466 -1.38853 0
M  V30 1771 H 168.954 -7.39361 -2.24867 0
M  V30 1772 H 167.299 -6.64725 -2.02894 0
M  V30 1773 H 170.49 -4.38382 -1.64132 0
M  V30 1774 H 170.663 -6.15258 -2.03377 0
M  V30 1775 N 164.069 0.697108 -1.41344 0
M  V30 1776 C 165.315 1.4593 -1.40827 0
M  V30 1777 C 165.648 1.94193 -0.0167098 0
M  V30 1778 O 164.923 1.69425 0.955263 0
M  V30 1779 C 165.206 2.67229 -2.41373 0
M  V30 1780 C 165.059 2.24741 -3.8963 0
M  V30 1781 C 166.378 3.69423 -2.39196 0
M  V30 1782 H 163.497 0.529303 -0.512842 0
M  V30 1783 H 166.139 0.794112 -1.72609 0
M  V30 1784 H 164.289 3.23982 -2.14401 0
M  V30 1785 H 165.961 1.73327 -4.27499 0
M  V30 1786 H 164.204 1.56542 -4.0457 0
M  V30 1787 H 164.875 3.1177 -4.55525 0
M  V30 1788 H 167.351 3.2234 -2.63128 0
M  V30 1789 H 166.227 4.51907 -3.11563 0
M  V30 1790 H 166.488 4.19012 -1.41001 0
M  V30 1791 N 165.547 1.27147 0.931209 0
M  V30 1792 C 166.796 1.12664 1.67302 0
M  V30 1793 C 167.109 -0.327718 1.92835 0
M  V30 1794 O 168.315 -0.593392 2.64936 0
M  V30 1795 C 166.771 1.9683 3.01307 0
M  V30 1796 C 166.379 3.46901 2.83485 0
M  V30 1797 C 168.123 1.90985 3.79111 0
M  V30 1798 C 166.03 4.23279 4.13024 0
M  V30 1799 H 164.96 0.41803 0.627509 0
M  V30 1800 H 167.611 1.51539 1.03481 0
M  V30 1801 H 165.993 1.50797 3.66164 0
M  V30 1802 H 167.167 4.00773 2.27415 0
M  V30 1803 H 165.482 3.54088 2.19113 0
M  V30 1804 H 168.079 2.45328 4.75098 0
M  V30 1805 H 168.422 0.882718 4.06834 0
M  V30 1806 H 168.955 2.34895 3.21044 0
M  V30 1807 H 165.694 5.26503 3.90481 0
M  V30 1808 H 165.214 3.74186 4.6877 0
M  V30 1809 H 166.893 4.32265 4.81411 0
M  V30 1810 N 167.025 -1.13721 1.09112 0
M  V30 1811 C 167.973 -2.21103 0.722219 0
M  V30 1812 C 168.967 -1.67147 -0.275374 0
M  V30 1813 O 170.173 -1.79477 -0.137176 0
M  V30 1814 H 166.548 -0.720445 0.215553 0
M  V30 1815 H 168.519 -2.49483 1.63709 0
M  V30 1816 C 167.268 -3.47352 0.15543 0
M  V30 1817 H 166.591 -3.89206 0.914246 0
M  V30 1818 H 168.031 -4.2395 -0.0647967 0
M  V30 1819 C 166.49 -3.1814 -1.10852 0
M  V30 1820 O 167.02 -3.36604 -2.19227 0
M  V30 1821 N 165.226 -2.72045 -1.02176 0
M  V30 1822 H 164.773 -2.57221 -0.139764 0
M  V30 1823 H 164.731 -2.52875 -1.8682 0
M  V30 1824 N 168.503 -0.877838 -1.30888 0
M  V30 1825 C 169.751 -0.491723 -1.96027 0
M  V30 1826 C 170.072 0.960827 -1.69685 0
M  V30 1827 O 169.342 1.67462 -1.01654 0
M  V30 1828 H 167.922 -0.17885 -0.725273 0
M  V30 1829 H 170.584 -1.11935 -1.59551 0
M  V30 1830 H 169.68 -0.656016 -3.05128 0
M  V30 1831 N 169.982 1.44106 -0.638065 0
M  V30 1832 C 171.228 2.02277 -0.145546 0
M  V30 1833 C 171.561 1.50125 1.23191 0
M  V30 1834 O 170.836 0.688133 1.8192 0
M  V30 1835 C 171.119 3.59829 -0.139791 0
M  V30 1836 C 170.972 4.22247 -1.55008 0
M  V30 1837 C 172.291 4.36873 0.531966 0
M  V30 1838 H 169.41 0.734992 -0.0543632 0
M  V30 1839 H 172.052 1.71592 -0.815863 0
M  V30 1840 H 170.202 3.86102 0.431007 0
M  V30 1841 H 171.874 4.07057 -2.1703 0
M  V30 1842 H 170.117 3.79476 -2.10191 0
M  V30 1843 H 170.788 5.31284 -1.49804 0
M  V30 1844 H 173.264 4.16074 0.0464781 0
M  V30 1845 H 172.14 5.4657 0.505206 0
M  V30 1846 H 172.401 4.11995 1.60352 0
M  V30 1847 N 171.46 0.379036 1.52974 0
M  V30 1848 C 172.709 -0.207612 2.00629 0
M  V30 1849 C 173.022 -1.48758 1.27006 0
M  V30 1850 O 174.228 -2.15365 1.65318 0
M  V30 1851 C 172.684 -0.42053 3.57435 0
M  V30 1852 C 172.292 0.845587 4.39948 0
M  V30 1853 C 174.036 -0.964102 4.13407 0
M  V30 1854 C 171.943 0.601513 5.88333 0
M  V30 1855 H 170.873 -0.0813591 0.749598 0
M  V30 1856 H 173.524 0.499853 1.76561 0
M  V30 1857 H 171.906 -1.18959 3.7771 0
M  V30 1858 H 173.08 1.61848 4.31442 0
M  V30 1859 H 171.395 1.31336 3.95145 0
M  V30 1860 H 173.992 -1.16225 5.21916 0
M  V30 1861 H 174.335 -1.93019 3.68849 0
M  V30 1862 H 174.868 -0.25487 3.96983 0
M  V30 1863 H 171.607 1.53831 6.37194 0
M  V30 1864 H 171.127 -0.132628 5.99653 0
M  V30 1865 H 172.806 0.232134 6.46583 0
M  V30 1866 N 172.938 -1.57226 0.108567 0
M  V30 1867 C 173.885 -2.14756 -0.845481 0
M  V30 1868 C 174.855 -1.06971 -1.27068 0
M  V30 1869 O 176.04 -1.34827 -1.35005 0
M  V30 1870 C 173.18 -2.74298 -2.09415 0
M  V30 1871 C 172.293 -3.96358 -1.71826 0
M  V30 1872 C 171.428 -4.44021 -2.9158 0
M  V30 1873 C 170.467 -5.58637 -2.50181 0
M  V30 1874 N 169.604 -6.01091 -3.62814 0
M  V30 1875 H 174.444 -2.95961 -0.348035 0
M  V30 1876 H 171.981 -1.46226 -0.160106 0
M  V30 1877 H 173.939 -3.06945 -2.82561 0
M  V30 1878 H 172.569 -1.95801 -2.56636 0
M  V30 1879 H 171.621 -3.69939 -0.885947 0
M  V30 1880 H 172.933 -4.79504 -1.37394 0
M  V30 1881 H 172.087 -4.78522 -3.72963 0
M  V30 1882 H 170.826 -3.59803 -3.29231 0
M  V30 1883 H 169.831 -5.23751 -1.67228 0
M  V30 1884 H 171.056 -6.44613 -2.13659 0
M  V30 1885 H 169.002 -5.19817 -4.00158 0
M  V30 1886 H 168.919 -6.79066 -3.32273 0
M  V30 1887 H 170.187 -6.40227 -4.44668 0
M  V30 1888 N 174.416 0.165178 -1.56732 0
M  V30 1889 C 175.379 1.18822 -1.95995 0
M  V30 1890 C 176.379 1.3685 -0.84431 0
M  V30 1891 O 177.569 1.34152 -1.11126 0
M  V30 1892 C 174.701 2.5521 -2.26011 0
M  V30 1893 H 175.894 0.851825 -2.87548 0
M  V30 1894 H 173.447 0.407857 -1.50885 0
M  V30 1895 H 174.182 2.93852 -1.37191 0
M  V30 1896 H 173.967 2.43489 -3.07336 0
M  V30 1897 H 175.457 3.28927 -2.57288 0
M  V30 1898 N 175.894 1.51508 0.433938 0
M  V30 1899 C 176.842 1.73646 1.54757 0
M  V30 1900 C 177.836 0.602854 1.5831 0
M  V30 1901 O 179.042 0.784318 1.62014 0
M  V30 1902 H 175.417 0.548718 0.51421 0
M  V30 1903 H 177.388 2.66991 1.33261 0
M  V30 1904 C 176.137 1.88172 2.92381 0
M  V30 1905 H 175.46 2.74808 2.90381 0
M  V30 1906 H 176.9 2.07672 3.6966 0
M  V30 1907 C 175.359 0.64239 3.30719 0
M  V30 1908 O 175.889 -0.201362 4.01195 0
M  V30 1909 N 174.095 0.485489 2.86516 0
M  V30 1910 H 173.642 1.17318 2.29334 0
M  V30 1911 H 173.6 -0.342482 3.12529 0
M  V30 1912 N 177.372 -0.689602 1.41712 0
M  V30 1913 C 178.302 -1.81577 1.46806 0
M  V30 1914 C 179.283 -1.66945 0.326105 0
M  V30 1915 O 180.468 -1.86588 0.538377 0
M  V30 1916 C 177.598 -3.19762 1.35535 0
M  V30 1917 C 176.552 -3.49107 2.47605 0
M  V30 1918 C 175.878 -4.86711 2.21397 0
M  V30 1919 C 177.178 -3.47483 3.89939 0
M  V30 1920 H 178.872 -1.7757 2.41058 0
M  V30 1921 H 176.418 -0.852887 1.16025 0
M  V30 1922 H 178.371 -3.98263 1.3771 0
M  V30 1923 H 177.095 -3.24409 0.377708 0
M  V30 1924 H 175.754 -2.72959 2.44722 0
M  V30 1925 H 175.402 -4.8799 1.21961 0
M  V30 1926 H 175.102 -5.0731 2.96497 0
M  V30 1927 H 176.626 -5.67515 2.25297 0
M  V30 1928 H 178.04 -4.1598 3.94505 0
M  V30 1929 H 176.437 -3.79615 4.64771 0
M  V30 1930 H 177.507 -2.46341 4.17665 0
M  V30 1931 N 178.85 -1.27639 -0.924453 0
M  V30 1932 C 180.097 -1.14167 -1.67249 0
M  V30 1933 C 180.425 0.311863 -1.91984 0
M  V30 1934 O 179.68 1.24425 -1.51053 0
M  V30 1935 C 179.979 -1.87407 -3.04325 0
M  V30 1936 C 179.645 -3.37249 -2.99289 0
M  V30 1937 C 178.307 -3.7812 -2.97622 0
M  V30 1938 C 180.659 -4.32845 -2.90336 0
M  V30 1939 C 177.987 -5.12944 -2.8479 0
M  V30 1940 C 180.339 -5.6773 -2.79045 0
M  V30 1941 C 179.003 -6.07889 -2.7573 0
M  V30 1942 H 178.273 -0.417766 -0.612007 0
M  V30 1943 H 180.92 -1.58286 -1.07786 0
M  V30 1944 H 179.225 -1.35805 -3.67511 0
M  V30 1945 H 180.922 -1.74408 -3.61086 0
M  V30 1946 H 177.512 -3.04748 -3.01374 0
M  V30 1947 H 181.696 -4.02239 -2.90719 0
M  V30 1948 H 176.952 -5.432 -2.80612 0
M  V30 1949 H 181.126 -6.41472 -2.71083 0
M  V30 1950 H 178.753 -7.12314 -2.65544 0
M  V30 1951 N 180.328 1.1314 -1.09713 0
M  V30 1952 C 181.577 1.83838 -0.829851 0
M  V30 1953 C 181.89 1.84599 0.646728 0
M  V30 1954 O 183.096 2.51218 1.02965 0
M  V30 1955 C 181.552 3.30069 -1.43466 0
M  V30 1956 C 181.16 3.37688 -2.94399 0
M  V30 1957 C 182.904 4.05788 -1.24645 0
M  V30 1958 C 180.811 4.78209 -3.47952 0
M  V30 1959 H 179.741 0.68877 -0.306777 0
M  V30 1960 H 182.392 1.27448 -1.3202 0
M  V30 1961 H 180.774 3.8628 -0.871996 0
M  V30 1962 H 181.948 2.91456 -3.56918 0
M  V30 1963 H 180.263 2.75436 -3.12289 0
M  V30 1964 H 182.86 5.09535 -1.62107 0
M  V30 1965 H 183.203 4.15878 -0.187357 0
M  V30 1966 H 183.736 3.55915 -1.77678 0
M  V30 1967 H 180.475 4.73311 -4.53495 0
M  V30 1968 H 179.995 5.24924 -2.90198 0
M  V30 1969 H 181.674 5.47133 -3.45332 0
M  V30 1970 N 181.806 0.884767 1.30421 0
M  V30 1971 C 183.031 0.517288 2.00845 0
M  V30 1972 C 183.456 -0.886779 1.65885 0
M  V30 1973 O 182.814 -1.58768 0.875354 0
M  V30 1974 C 182.862 0.698994 3.5376 0
M  V30 1975 O 181.966 -0.255208 4.1161 0
M  V30 1976 H 181.307 0.203872 0.631927 0
M  V30 1977 H 183.837 1.19225 1.66272 0
M  V30 1978 H 183.847 0.597912 4.03595 0
M  V30 1979 H 182.522 1.72271 3.78544 0
M  V30 1980 H 181.099 -0.10784 3.72744 0
M  V30 1981 N 183.284 -1.43765 0.645699 0
M  V30 1982 C 184.533 -2.01116 0.153412 0
M  V30 1983 C 184.846 -1.51493 -1.23731 0
M  V30 1984 O 186.052 -2.01067 -1.8244 0
M  V30 1985 C 184.508 -3.59206 0.223473 0
M  V30 1986 C 184.116 -4.17823 1.61642 0
M  V30 1987 C 185.86 -4.23972 -0.211597 0
M  V30 1988 C 183.767 -5.68183 1.64081 0
M  V30 1989 H 182.697 -0.752093 0.0535891 0
M  V30 1990 H 185.348 -1.6482 0.806633 0
M  V30 1991 H 183.73 -3.92867 -0.497118 0
M  V30 1992 H 184.904 -3.95674 2.36176 0
M  V30 1993 H 183.219 -3.65399 1.99681 0
M  V30 1994 H 185.816 -5.34275 -0.213112 0
M  V30 1995 H 186.159 -3.97352 -1.24165 0
M  V30 1996 H 186.692 -3.95166 0.456988 0
M  V30 1997 H 183.431 -5.99559 2.64971 0
M  V30 1998 H 182.951 -5.9241 0.938611 0
M  V30 1999 H 184.63 -6.32085 1.3812 0
M  V30 2000 N 184.763 -0.387143 -1.52771 0
M  V30 2001 C 186.01 0.195735 -2.01552 0
M  V30 2002 C 186.338 1.46995 -1.27369 0
M  V30 2003 O 185.593 1.92325 -0.361879 0
M  V30 2004 C 185.892 0.512209 -3.53711 0
M  V30 2005 C 185.558 -0.670202 -4.45891 0
M  V30 2006 C 184.22 -0.994586 -4.70809 0
M  V30 2007 C 186.572 -1.46134 -5.00294 0
M  V30 2008 C 183.9 -2.11169 -5.4738 0
M  V30 2009 C 186.252 -2.56903 -5.78086 0
M  V30 2010 C 184.916 -2.89852 -6.01284 0
M  V30 2011 H 184.186 0.0716246 -0.73753 0
M  V30 2012 H 186.833 -0.524046 -1.8419 0
M  V30 2013 H 185.138 1.31329 -3.69134 0
M  V30 2014 H 186.835 0.975804 -3.88946 0
M  V30 2015 H 183.425 -0.407366 -4.2666 0
M  V30 2016 H 187.609 -1.22397 -4.80971 0
M  V30 2017 H 182.865 -2.3707 -5.63567 0
M  V30 2018 H 187.039 -3.18608 -6.19243 0
M  V30 2019 H 184.666 -3.76533 -6.60399 0
M  V30 2020 N 186.241 1.57166 -0.116904 0
M  V30 2021 C 187.171 2.18222 0.830759 0
M  V30 2022 C 188.152 1.12167 1.27877 0
M  V30 2023 O 189.337 1.40394 1.34176 0
M  V30 2024 C 186.467 2.77996 2.08172 0
M  V30 2025 C 185.421 3.89614 1.77157 0
M  V30 2026 C 184.747 4.36187 3.09265 0
M  V30 2027 C 186.047 5.1181 1.04151 0
M  V30 2028 H 187.741 2.97664 0.321992 0
M  V30 2029 H 185.287 1.4318 0.153434 0
M  V30 2030 H 187.24 3.19366 2.74924 0
M  V30 2031 H 185.964 1.9584 2.6137 0
M  V30 2032 H 184.623 3.48816 1.12796 0
M  V30 2033 H 184.271 3.50893 3.60393 0
M  V30 2034 H 183.971 5.11455 2.89288 0
M  V30 2035 H 185.495 4.80207 3.77139 0
M  V30 2036 H 186.909 5.50214 1.61052 0
M  V30 2037 H 185.306 5.92648 0.942762 0
M  V30 2038 H 186.376 4.84892 0.0279022 0
M  V30 2039 N 187.719 -0.156864 1.56817 0
M  V30 2040 C 188.965 -0.872416 1.83076 0
M  V30 2041 C 189.298 -1.81261 0.697001 0
M  V30 2042 O 188.573 -1.92171 -0.30008 0
M  V30 2043 C 188.856 -1.65551 3.19789 0
M  V30 2044 C 188.709 -0.737467 4.43713 0
M  V30 2045 C 190.028 -2.62012 3.53606 0
M  V30 2046 H 187.147 -0.315715 0.665953 0
M  V30 2047 H 189.789 -0.138004 1.89498 0
M  V30 2048 H 187.939 -2.28159 3.14445 0
M  V30 2049 H 189.611 -0.123143 4.61136 0
M  V30 2050 H 187.854 -0.0464067 4.33775 0
M  V30 2051 H 188.525 -1.32122 5.35955 0
M  V30 2052 H 191.001 -2.09525 3.59497 0
M  V30 2053 H 189.877 -3.13861 4.50314 0
M  V30 2054 H 190.138 -3.42902 2.79053 0
M  V30 2055 N 189.197 -1.51736 -0.425897 0
M  V30 2056 C 190.443 -1.65214 -1.1761 0
M  V30 2057 C 190.776 -0.372778 -1.90589 0
M  V30 2058 O 190.051 0.628139 -1.84078 0
M  V30 2059 C 190.334 -2.86312 -2.18398 0
M  V30 2060 C 190.187 -4.24254 -1.49426 0
M  V30 2061 C 191.506 -3.02925 -3.19256 0
M  V30 2062 H 188.625 -0.601263 -0.426206 0
M  V30 2063 H 191.267 -1.8425 -0.463882 0
M  V30 2064 H 189.417 -2.70213 -2.79137 0
M  V30 2065 H 191.089 -4.52046 -0.919362 0
M  V30 2066 H 189.332 -4.26426 -0.796432 0
M  V30 2067 H 190.003 -5.05001 -2.22885 0
M  V30 2068 H 192.479 -3.1781 -2.68581 0
M  V30 2069 H 191.355 -3.89199 -3.8706 0
M  V30 2070 H 191.616 -2.15497 -3.86023 0
M  V30 2071 N 190.675 0.682077 -1.42076 0
M  V30 2072 C 191.638 1.77756 -1.44691 0
M  V30 2073 C 192.638 1.5726 -0.335535 0
M  V30 2074 O 193.828 1.63686 -0.596037 0
M  V30 2075 C 190.96 3.16301 -1.27146 0
M  V30 2076 H 192.153 1.76826 -2.42224 0
M  V30 2077 H 189.706 0.891012 -1.28416 0
M  V30 2078 H 190.441 3.22862 -0.305075 0
M  V30 2079 H 190.226 3.32581 -2.07683 0
M  V30 2080 H 191.716 3.96241 -1.31843 0
M  V30 2081 N 192.153 1.28127 0.917671 0
M  V30 2082 C 193.402 1.14432 1.66097 0
M  V30 2083 C 193.715 -0.307247 1.93172 0
M  V30 2084 O 194.921 -0.565259 2.65551 0
M  V30 2085 C 193.377 2.00015 2.99202 0
M  V30 2086 C 192.985 3.49889 2.79789 0
M  V30 2087 C 194.729 1.94996 3.77064 0
M  V30 2088 C 192.636 4.27636 4.08511 0
M  V30 2089 H 191.566 0.424662 0.62304 0
M  V30 2090 H 194.217 1.52628 1.01868 0
M  V30 2091 H 192.599 1.54672 3.64544 0
M  V30 2092 H 193.773 4.03162 2.23152 0
M  V30 2093 H 192.088 3.56392 2.15345 0
M  V30 2094 H 194.685 2.50354 4.72469 0
M  V30 2095 H 195.028 0.925819 4.05875 0
M  V30 2096 H 195.561 2.38287 3.18534 0
M  V30 2097 H 192.3 5.30615 3.84874 0
M  V30 2098 H 191.82 3.79137 4.64774 0
M  V30 2099 H 193.499 4.37346 4.76799 0
M  V30 2100 N 193.631 -1.12557 1.10312 0
M  V30 2101 C 194.856 -1.88405 0.867085 0
M  V30 2102 C 195.281 -1.79038 -0.576817 0
M  V30 2103 O 194.639 -1.14439 -1.40618 0
M  V30 2104 C 194.687 -3.3563 1.31851 0
M  V30 2105 O 193.791 -4.09565 0.482734 0
M  V30 2106 H 193.132 -0.585455 0.313271 0
M  V30 2107 H 195.662 -1.42352 1.4696 0
M  V30 2108 H 195.672 -3.86469 1.3079 0
M  V30 2109 H 194.347 -3.41765 2.37001 0
M  V30 2110 H 192.924 -3.68695 0.558448 0
M  V30 2111 N 195.109 -0.891671 -1.2995 0
M  V30 2112 C 196.041 -0.320695 -2.26945 0
M  V30 2113 C 197.054 0.528497 -1.53983 0
M  V30 2114 O 198.243 0.346959 -1.75096 0
M  V30 2115 C 195.343 0.562066 -3.34207 0
M  V30 2116 C 194.516 -0.259576 -4.36629 0
M  V30 2117 C 193.575 0.554739 -5.23268 0
M  V30 2118 O 192.601 -0.0249311 -5.69195 0
M  V30 2119 N 193.803 1.8625 -5.4981 0
M  V30 2120 H 196.568 -1.15432 -2.76578 0
M  V30 2121 H 194.129 -0.755336 -1.432 0
M  V30 2122 H 196.121 1.11304 -3.89093 0
M  V30 2123 H 194.691 1.29637 -2.84452 0
M  V30 2124 H 193.911 -0.991986 -3.81514 0
M  V30 2125 H 195.199 -0.822564 -5.02107 0
M  V30 2126 H 194.597 2.35628 -5.14292 0
M  V30 2127 H 193.154 2.36078 -6.07545 0
M  V30 2128 N 196.587 1.43421 -0.653314 0
M  V30 2129 C 197.864 1.95361 -0.0966581 0
M  V30 2130 C 198.244 1.59461 1.38331 0
M  V30 2131 O 197.592 0.879777 2.10884 0
M  V30 2132 C 197.802 3.47311 -0.342988 0
M  V30 2133 C 199.15 4.23875 -0.24798 0
M  V30 2134 O 200.174 3.55133 -0.275553 0
M  V30 2135 O 199.033 5.4623 -0.171771 0
M  V30 2136 H 196.127 0.826945 0.00956291 0
M  V30 2137 H 198.673 1.5336 -0.726558 0
M  V30 2138 H 197.445 3.66569 -1.36906 0
M  V30 2139 H 197.068 3.9631 0.319975 0
M  V30 2140 N 198.065 0.39524 1.52563 0
M  V30 2141 C 199.481 0.0454682 1.59535 0
M  V30 2142 C 199.681 -1.44056 1.4089 0
M  V30 2143 O 198.737 -2.20579 1.22888 0
M  V30 2144 C 200.05 0.527963 2.96029 0
M  V30 2145 C 201.598 0.484733 3.09224 0
M  V30 2146 C 202.073 0.943512 4.48176 0
M  V30 2147 N 203.564 0.899765 4.54377 0
M  V30 2148 C 204.299 1.22609 5.60138 0
M  V30 2149 N 203.795 1.62319 6.73516 0
M  V30 2150 N 205.588 1.14696 5.50274 0
M  V30 2151 H 197.739 1.36261 1.62931 0
M  V30 2152 H 200.002 0.558887 0.765735 0
M  V30 2153 H 199.708 1.56607 3.14908 0
M  V30 2154 H 199.582 -0.0698056 3.77135 0
M  V30 2155 H 201.969 -0.544298 2.90037 0
M  V30 2156 H 202.05 1.11838 2.30056 0
M  V30 2157 H 201.694 1.9708 4.68104 0
M  V30 2158 H 201.624 0.286817 5.25818 0
M  V30 2159 H 204.115 0.607632 3.72983 0
M  V30 2160 H 204.428 1.85567 7.5019 0
M  V30 2161 H 202.773 1.66211 6.74833 0
M  V30 2162 H 205.964 0.835701 4.6058 0
M  V30 2163 H 206.137 1.40459 6.32594 0
M  V30 2164 N 199.544 -1.57102 0.125237 0
M  V30 2165 C 200.774 -1.99472 -0.538015 0
M  V30 2166 C 201.182 -1.00395 -1.60366 0
M  V30 2167 O 200.525 0.0103875 -1.83697 0
M  V30 2168 C 200.587 -3.38262 -1.21734 0
M  V30 2169 C 200.251 -4.56021 -0.298897 0
M  V30 2170 C 201.248 -5.17817 0.464943 0
M  V30 2171 C 198.933 -5.01869 -0.208149 0
M  V30 2172 C 200.927 -6.23852 1.3072 0
M  V30 2173 C 198.614 -6.07763 0.637736 0
M  V30 2174 C 199.612 -6.68622 1.39403 0
M  V30 2175 O 199.3 -7.7247 2.22586 0
M  V30 2176 H 199.032 -0.659934 -0.146501 0
M  V30 2177 H 201.586 -2.04321 0.210267 0
M  V30 2178 H 199.816 -3.30185 -2.01282 0
M  V30 2179 H 201.505 -3.6488 -1.77813 0
M  V30 2180 H 202.271 -4.83308 0.404741 0
M  V30 2181 H 198.15 -4.54241 -0.786522 0
M  V30 2182 H 201.694 -6.71284 1.898 0
M  V30 2183 H 197.591 -6.41701 0.699309 0
M  V30 2184 H 198.359 -7.89595 2.15596 0
M  V30 2185 N 201.022 0.148545 -1.56898 0
M  V30 2186 C 202.438 0.501131 -1.51528 0
M  V30 2187 C 202.638 1.83458 -0.833399 0
M  V30 2188 O 201.694 2.49259 -0.40328 0
M  V30 2189 C 203.007 0.512864 -2.96294 0
M  V30 2190 C 204.555 0.598487 -3.07225 0
M  V30 2191 C 205.03 0.640897 -4.53494 0
M  V30 2192 N 206.521 0.703163 -4.57832 0
M  V30 2193 C 207.256 0.756935 -5.68382 0
M  V30 2194 N 206.752 0.770147 -6.88506 0
M  V30 2195 N 208.545 0.797698 -5.56411 0
M  V30 2196 H 200.696 -0.725532 -1.99624 0
M  V30 2197 H 202.959 -0.264358 -0.910395 0
M  V30 2198 H 202.665 -0.398691 -3.49433 0
M  V30 2199 H 202.539 1.35133 -3.52163 0
M  V30 2200 H 204.926 1.50046 -2.54106 0
M  V30 2201 H 205.007 -0.267093 -2.54402 0
M  V30 2202 H 204.651 -0.256915 -5.0725 0
M  V30 2203 H 204.581 1.52295 -5.04097 0
M  V30 2204 H 207.072 0.700314 -3.71354 0
M  V30 2205 H 207.385 0.812983 -7.68512 0
M  V30 2206 H 205.73 0.738049 -6.9107 0
M  V30 2207 H 208.921 0.784535 -4.61479 0
M  V30 2208 H 209.094 0.83614 -6.42583 0
M  V30 2209 N 202.5 1.5196 0.417844 0
M  V30 2210 C 203.746 1.65836 1.16732 0
M  V30 2211 C 204.079 0.382881 1.90388 0
M  V30 2212 O 203.354 -0.618368 1.84408 0
M  V30 2213 C 203.637 2.87466 2.16876 0
M  V30 2214 C 203.49 4.25041 1.47174 0
M  V30 2215 C 204.809 3.04613 3.17646 0
M  V30 2216 H 201.928 0.603515 0.423011 0
M  V30 2217 H 204.57 1.84494 0.454105 0
M  V30 2218 H 202.72 2.71689 2.777 0
M  V30 2219 H 204.392 4.52527 0.895376 0
M  V30 2220 H 202.635 4.26843 0.773806 0
M  V30 2221 H 203.306 5.06176 2.20204 0
M  V30 2222 H 205.782 3.1923 2.66892 0
M  V30 2223 H 204.658 3.91247 3.8499 0
M  V30 2224 H 204.919 2.17541 3.84874 0
M  V30 2225 N 203.978 -0.674533 1.42435 0
M  V30 2226 C 204.908 -1.80009 1.48724 0
M  V30 2227 C 205.889 -1.6659 0.343793 0
M  V30 2228 O 207.074 -1.86007 0.558137 0
M  V30 2229 C 204.204 -3.18306 1.38919 0
M  V30 2230 C 203.158 -3.46461 2.51294 0
M  V30 2231 C 202.484 -4.84335 2.26547 0
M  V30 2232 C 203.784 -3.43328 3.93603 0
M  V30 2233 H 205.478 -1.75004 2.42928 0
M  V30 2234 H 203.024 -0.840533 1.16923 0
M  V30 2235 H 204.977 -3.9678 1.41927 0
M  V30 2236 H 203.701 -3.2399 0.412094 0
M  V30 2237 H 202.36 -2.70348 2.47604 0
M  V30 2238 H 202.008 -4.86669 1.2713 0
M  V30 2239 H 201.708 -5.04136 3.01861 0
M  V30 2240 H 203.232 -5.65094 2.31304 0
M  V30 2241 H 204.646 -4.11772 3.98894 0
M  V30 2242 H 203.043 -3.74664 4.68771 0
M  V30 2243 H 204.113 -2.41897 4.20255 0
M  V30 2244 N 205.456 -1.28612 -0.910864 0
M  V30 2245 C 206.702 -1.16106 -1.66274 0
M  V30 2246 C 207.035 0.289113 -1.92036 0
M  V30 2247 O 206.31 1.21 -1.52281 0
M  V30 2248 C 206.593 -1.96309 -3.01885 0
M  V30 2249 C 206.446 -3.49405 -2.8326 0
M  V30 2250 C 207.765 -1.78076 -4.02463 0
M  V30 2251 H 204.884 -0.423152 -0.603417 0
M  V30 2252 H 207.526 -1.57961 -1.05586 0
M  V30 2253 H 205.676 -1.60742 -3.53687 0
M  V30 2254 H 207.348 -3.94894 -2.38446 0
M  V30 2255 H 205.591 -3.74893 -2.18261 0
M  V30 2256 H 206.262 -4.00784 -3.79574 0
M  V30 2257 H 208.738 -2.0912 -3.59733 0
M  V30 2258 H 207.614 -2.36561 -4.95308 0
M  V30 2259 H 207.875 -0.733008 -4.35981 0
M  V30 2260 N 206.934 1.1197 -1.10907 0
M  V30 2261 C 207.884 2.15946 -0.731538 0
M  V30 2262 C 208.868 1.58758 0.261699 0
M  V30 2263 O 210.06 1.76863 0.0696722 0
M  V30 2264 C 207.189 3.42877 -0.170299 0
M  V30 2265 C 206.275 4.07037 -1.19087 0
M  V30 2266 N 206.666 4.46135 -2.38322 0
M  V30 2267 C 204.964 4.33884 -1.03252 0
M  V30 2268 C 205.665 4.96331 -3.03366 0
M  V30 2269 N 204.641 4.9214 -2.30865 0
M  V30 2270 H 208.443 2.43947 -1.63912 0
M  V30 2271 H 205.957 1.28927 -0.987505 0
M  V30 2272 H 207.954 4.16732 0.118271 0
M  V30 2273 H 206.614 3.16343 0.731935 0
M  V30 2274 H 207.625 4.38345 -2.75815 0
M  V30 2275 H 204.302 4.17084 -0.186256 0
M  V30 2276 H 205.692 5.36257 -4.04818 0
M  V30 2277 N 208.412 0.89855 1.29475 0
M  V30 2278 C 209.823 0.572537 1.77705 0
M  V30 2279 C 210.174 -0.911778 1.73727 0
M  V30 2280 O 209.299 -1.71288 1.32247 0
M  V30 2281 C 209.894 1.03252 3.22683 0
M  V30 2282 C 208.453 0.757687 3.68695 0
M  V30 2283 C 207.6 1.20787 2.49612 0
M  V30 2284 H 210.551 1.08139 1.16153 0
M  V30 2285 H 210.572 0.367307 3.78723 0
M  V30 2286 H 210.084 2.11285 3.25546 0
M  V30 2287 H 208.185 -0.310079 3.71308 0
M  V30 2288 H 208.298 1.35476 4.59547 0
M  V30 2289 H 206.662 0.626888 2.46865 0
M  V30 2290 H 207.445 2.29622 2.55203 0
M  V30 2291 N 209.89 -1.43072 0.660911 0
M  V30 2292 C 210.823 -2.28074 -0.0758862 0
M  V30 2293 C 211.801 -1.40271 -0.822362 0
M  V30 2294 O 212.985 -1.69713 -0.820352 0
M  V30 2295 C 210.112 -3.19843 -1.11437 0
M  V30 2296 C 209.158 -4.23957 -0.465069 0
M  V30 2297 S 209.991 -5.29978 0.767078 0
M  V30 2298 C 211.147 -6.25314 -0.270682 0
M  V30 2299 H 211.38 -2.90216 0.645139 0
M  V30 2300 H 208.913 -1.47697 0.449995 0
M  V30 2301 H 210.871 -3.73257 -1.70849 0
M  V30 2302 H 209.532 -2.56863 -1.80776 0
M  V30 2303 H 208.725 -4.88299 -1.24819 0
M  V30 2304 H 208.327 -3.73959 0.0551242 0
M  V30 2305 H 210.619 -6.67932 -1.13459 0
M  V30 2306 H 211.562 -7.07293 0.337916 0
M  V30 2307 H 211.97 -5.61195 -0.609937 0
M  V30 2308 N 211.368 -0.403325 -1.52352 0
M  V30 2309 C 212.331 0.413051 -2.25447 0
M  V30 2310 C 213.331 0.978513 -1.276 0
M  V30 2311 O 214.521 0.858305 -1.51587 0
M  V30 2312 C 211.653 1.58087 -3.02029 0
M  V30 2313 H 212.846 -0.227094 -2.99039 0
M  V30 2314 H 210.399 -0.155722 -1.55522 0
M  V30 2315 H 211.134 2.25804 -2.32772 0
M  V30 2316 H 210.919 1.18195 -3.73861 0
M  V30 2317 H 212.409 2.1585 -3.57489 0
M  V30 2318 N 212.846 1.57033 -0.133567 0
M  V30 2319 C 214.071 2.00475 0.531477 0
M  V30 2320 C 214.496 1.01291 1.58499 0
M  V30 2321 O 213.854 -0.0133279 1.81295 0
M  V30 2322 C 213.902 3.42729 1.12113 0
M  V30 2323 O 213.006 3.46498 2.23636 0
M  V30 2324 H 212.347 0.650876 0.131362 0
M  V30 2325 H 214.877 2.03344 -0.22634 0
M  V30 2326 H 214.887 3.81246 1.4531 0
M  V30 2327 H 213.562 4.14428 0.349557 0
M  V30 2328 H 212.139 3.19811 1.91769 0
M  V30 2329 N 214.325 -0.140222 1.56975 0
M  V30 2330 C 215.741 -0.493088 1.51792 0
M  V30 2331 C 215.941 -1.83013 0.843116 0
M  V30 2332 O 214.997 -2.49041 0.416493 0
M  V30 2333 C 216.31 -0.497144 2.96562 0
M  V30 2334 C 217.858 -0.582186 3.07538 0
M  V30 2335 C 218.333 -0.616838 4.53827 0
M  V30 2336 N 219.824 -0.678873 4.58198 0
M  V30 2337 C 220.559 -0.726782 5.68775 0
M  V30 2338 N 220.055 -0.733623 6.88905 0
M  V30 2339 N 221.848 -0.768179 5.56826 0
M  V30 2340 H 213.999 0.736108 1.99237 0
M  V30 2341 H 216.262 0.269182 0.90898 0
M  V30 2342 H 215.968 0.417217 3.49217 0
M  V30 2343 H 215.842 -1.33263 3.52875 0
M  V30 2344 H 218.229 -1.48697 2.54899 0
M  V30 2345 H 218.31 0.280581 2.54257 0
M  V30 2346 H 217.954 0.283812 5.07106 0
M  V30 2347 H 217.884 -1.49619 5.04898 0
M  V30 2348 H 220.375 -0.68061 3.7172 0
M  V30 2349 H 220.688 -0.772215 7.68932 0
M  V30 2350 H 219.033 -0.701389 6.91452 0
M  V30 2351 H 222.224 -0.760051 4.61888 0
M  V30 2352 H 222.397 -0.80205 6.43017 0
M  V30 2353 N 215.803 -1.52179 -0.40978 0
M  V30 2354 C 217.219 -1.40968 -0.74835 0
M  V30 2355 C 217.419 -0.513657 -1.94843 0
M  V30 2356 O 216.475 0.0208026 -2.52491 0
M  V30 2357 C 217.788 -2.83483 -1.0029 0
M  V30 2358 C 219.336 -2.92821 -1.10565 0
M  V30 2359 C 219.811 -4.36303 -1.39296 0
M  V30 2360 N 221.302 -4.39535 -1.46162 0
M  V30 2361 C 222.037 -5.47614 -1.70018 0
M  V30 2362 N 221.533 -6.65812 -1.91483 0
M  V30 2363 N 223.326 -5.35129 -1.72027 0
M  V30 2364 H 215.477 -2.0897 0.380186 0
M  V30 2365 H 217.74 -0.94185 0.107805 0
M  V30 2366 H 217.446 -3.51168 -0.193461 0
M  V30 2367 H 217.32 -3.24487 -1.92323 0
M  V30 2368 H 219.707 -2.25318 -1.90568 0
M  V30 2369 H 219.788 -2.55276 -0.16369 0
M  V30 2370 H 219.432 -5.04366 -0.598109 0
M  V30 2371 H 219.362 -4.71385 -2.34743 0
M  V30 2372 H 221.853 -3.54332 -1.31367 0
M  V30 2373 H 222.166 -7.43964 -2.09134 0
M  V30 2374 H 220.511 -6.68879 -1.88749 0
M  V30 2375 H 223.702 -4.41764 -1.54796 0
M  V30 2376 H 223.875 -6.19433 -1.9028 0
M  V30 2377 N 217.281 0.66697 -1.42791 0
M  V30 2378 C 218.213 1.7925 -1.42836 0
M  V30 2379 C 219.226 1.59496 -0.326333 0
M  V30 2380 O 220.415 1.6847 -0.589916 0
M  V30 2381 C 217.515 3.16476 -1.21229 0
M  V30 2382 C 216.688 3.63011 -2.44013 0
M  V30 2383 C 215.747 4.78993 -2.17834 0
M  V30 2384 O 214.773 4.89137 -2.91091 0
M  V30 2385 N 215.975 5.68248 -1.18635 0
M  V30 2386 H 218.74 1.79695 -2.39854 0
M  V30 2387 H 216.301 0.850338 -1.37771 0
M  V30 2388 H 218.293 3.91734 -1.01621 0
M  V30 2389 H 216.863 3.10884 -0.32706 0
M  V30 2390 H 216.083 2.78346 -2.79137 0
M  V30 2391 H 217.371 3.90845 -3.25757 0
M  V30 2392 H 216.769 5.62712 -0.580615 0
M  V30 2393 H 215.326 6.43285 -1.05013 0
M  V30 2394 N 218.759 1.29093 0.90403 0
M  V30 2395 C 219.691 1.09658 2.01266 0
M  V30 2396 C 220.704 0.0453729 1.62737 0
M  V30 2397 O 221.893 0.289446 1.76138 0
M  V30 2398 C 218.993 0.646278 3.32681 0
M  V30 2399 C 218.166 1.77505 3.99763 0
M  V30 2400 C 217.225 1.31649 5.09465 0
M  V30 2401 O 216.251 2.02045 5.32134 0
M  V30 2402 N 217.453 0.184997 5.80205 0
M  V30 2403 H 220.218 2.05135 2.18494 0
M  V30 2404 H 217.779 1.20975 1.07594 0
M  V30 2405 H 219.771 0.322906 4.0341 0
M  V30 2406 H 218.341 -0.215916 3.11853 0
M  V30 2407 H 217.561 2.26752 3.22455 0
M  V30 2408 H 218.849 2.53198 4.41325 0
M  V30 2409 H 218.247 -0.402021 5.6427 0
M  V30 2410 H 216.804 -0.0790358 6.51752 0
M  V30 2411 N 220.237 -1.11381 1.11499 0
M  V30 2412 C 221.653 -1.35143 0.849031 0
M  V30 2413 C 221.853 -1.94515 -0.525938 0
M  V30 2414 O 220.909 -2.1785 -1.27662 0
M  V30 2415 C 222.222 -2.28249 1.95762 0
M  V30 2416 C 223.77 -2.41812 1.98736 0
M  V30 2417 C 224.245 -3.3824 3.088 0
M  V30 2418 N 225.736 -3.45803 3.08179 0
M  V30 2419 C 226.471 -4.20358 3.89982 0
M  V30 2420 N 225.967 -4.97884 4.8175 0
M  V30 2421 N 227.76 -4.15877 3.78157 0
M  V30 2422 H 219.911 -0.712062 2.00109 0
M  V30 2423 H 222.174 -0.376025 0.870235 0
M  V30 2424 H 221.88 -1.91817 2.94787 0
M  V30 2425 H 221.754 -3.28473 1.85433 0
M  V30 2426 H 224.141 -2.77518 1.00338 0
M  V30 2427 H 224.222 -1.41437 2.13141 0
M  V30 2428 H 223.866 -3.03261 4.07425 0
M  V30 2429 H 223.796 -4.38471 2.91635 0
M  V30 2430 H 226.287 -2.90506 2.41691 0
M  V30 2431 H 226.6 -5.52142 5.40702 0
M  V30 2432 H 224.945 -4.97043 4.85771 0
M  V30 2433 H 228.136 -3.544 3.05808 0
M  V30 2434 H 228.309 -4.73723 4.42143 0
M  V30 2435 N 221.715 -0.905404 -1.28997 0
M  V30 2436 C 223.131 -0.60233 -1.47798 0
M  V30 2437 C 223.331 0.854645 -1.82478 0
M  V30 2438 O 222.387 1.63439 -1.92468 0
M  V30 2439 C 223.7 -1.53306 -2.58685 0
M  V30 2440 C 225.248 -1.53887 -2.72558 0
M  V30 2441 C 225.723 -2.45602 -3.86579 0
M  V30 2442 N 227.214 -2.43681 -3.93921 0
M  V30 2443 C 227.949 -3.11347 -4.81509 0
M  V30 2444 N 227.445 -3.88313 -5.73746 0
M  V30 2445 N 229.238 -3.00476 -4.75048 0
M  V30 2446 H 221.389 -1.84765 -1.04764 0
M  V30 2447 H 223.652 -0.792025 -0.520961 0
M  V30 2448 H 223.358 -2.57141 -2.39941 0
M  V30 2449 H 223.232 -1.25787 -3.55609 0
M  V30 2450 H 225.619 -0.507941 -2.90696 0
M  V30 2451 H 225.7 -1.85447 -1.76191 0
M  V30 2452 H 225.344 -3.48792 -3.69197 0
M  V30 2453 H 225.274 -2.11349 -4.82327 0
M  V30 2454 H 227.765 -1.87767 -3.27951 0
M  V30 2455 H 228.078 -4.36985 -6.37389 0
M  V30 2456 H 226.423 -3.92419 -5.73614 0
M  V30 2457 H 229.614 -2.39858 -4.01977 0
M  V30 2458 H 229.787 -3.53485 -5.43095 0
M  V30 2459 N 223.193 1.4272 -0.668489 0
M  V30 2460 C 224.609 1.55992 -0.33745 0
M  V30 2461 C 224.809 1.64933 1.15756 0
M  V30 2462 O 223.865 1.61278 1.94282 0
M  V30 2463 C 225.178 2.81314 -1.06222 0
M  V30 2464 C 226.726 2.95078 -1.04394 0
M  V30 2465 C 227.201 4.23252 -1.74991 0
M  V30 2466 N 228.692 4.3015 -1.71829 0
M  V30 2467 C 229.427 5.28127 -2.23315 0
M  V30 2468 N 228.923 6.32293 -2.83156 0
M  V30 2469 N 230.716 5.19882 -2.13726 0
M  V30 2470 H 222.867 1.3516 -1.63846 0
M  V30 2471 H 225.13 0.650174 -0.689912 0
M  V30 2472 H 224.836 2.80823 -2.11734 0
M  V30 2473 H 224.71 3.72012 -0.62344 0
M  V30 2474 H 227.097 2.951 0.0028244 0
M  V30 2475 H 227.178 2.05627 -1.52155 0
M  V30 2476 H 226.822 4.2399 -2.79633 0
M  V30 2477 H 226.752 5.11626 -1.24685 0
M  V30 2478 H 229.243 3.55499 -1.28175 0
M  V30 2479 H 229.556 7.03398 -3.20079 0
M  V30 2480 H 227.901 6.32873 -2.87223 0
M  V30 2481 H 231.092 4.37423 -1.66669 0
M  V30 2482 H 231.265 5.96077 -2.54158 0
M  V30 2483 N 224.671 0.411399 1.52136 0
M  V30 2484 C 225.603 -0.448386 2.24771 0
M  V30 2485 C 226.616 -1.00828 1.27818 0
M  V30 2486 O 227.805 -0.906841 1.53749 0
M  V30 2487 C 224.905 -1.63636 2.96777 0
M  V30 2488 C 224.078 -1.19995 4.20618 0
M  V30 2489 C 223.137 -2.25509 4.75428 0
M  V30 2490 O 222.163 -1.86007 5.3795 0
M  V30 2491 N 223.365 -3.577 4.57199 0
M  V30 2492 H 226.13 0.174025 2.99194 0
M  V30 2493 H 223.691 0.238897 1.60128 0
M  V30 2494 H 225.683 -2.33793 3.30338 0
M  V30 2495 H 224.253 -2.16465 2.25526 0
M  V30 2496 H 223.473 -0.326421 3.92846 0
M  V30 2497 H 224.761 -0.885365 5.01038 0
M  V30 2498 H 224.159 -3.92543 4.07341 0
M  V30 2499 H 222.716 -4.23827 4.95191 0
M  V30 2500 N 226.149 -1.5696 0.141893 0
M  V30 2501 C 227.112 -2.15316 -0.785587 0
M  V30 2502 C 228.112 -1.09366 -1.1788 0
M  V30 2503 O 229.302 -1.35031 -1.10056 0
M  V30 2504 C 226.434 -2.71211 -2.06537 0
M  V30 2505 H 227.627 -2.98608 -0.278041 0
M  V30 2506 H 225.18 -1.5593 -0.107519 0
M  V30 2507 H 225.915 -1.91571 -2.6167 0
M  V30 2508 H 225.7 -3.4872 -1.79268 0
M  V30 2509 H 227.19 -3.16189 -2.72789 0
M  V30 2510 N 227.627 0.131896 -1.57047 0
M  V30 2511 C 229.043 0.485031 -1.52051 0
M  V30 2512 C 229.243 1.82563 -0.85281 0
M  V30 2513 O 228.299 2.48817 -0.429694 0
M  V30 2514 C 229.612 0.481409 -2.96821 0
M  V30 2515 C 231.16 0.565868 -3.07842 0
M  V30 2516 C 231.635 0.592762 -4.54148 0
M  V30 2517 N 233.126 0.654564 -4.58552 0
M  V30 2518 C 233.861 0.696608 -5.69153 0
M  V30 2519 N 233.357 0.697078 -6.89284 0
M  V30 2520 N 235.15 0.738639 -5.57226 0
M  V30 2521 H 227.301 -0.746664 -1.98843 0
M  V30 2522 H 229.564 -0.273999 -0.90754 0
M  V30 2523 H 229.27 -0.435731 -3.4899 0
M  V30 2524 H 229.144 1.3139 -3.53577 0
M  V30 2525 H 231.531 1.47343 -2.55684 0
M  V30 2526 H 231.612 -0.29406 -2.54104 0
M  V30 2527 H 231.256 -0.310701 -5.06949 0
M  V30 2528 H 231.186 1.46939 -5.05684 0
M  V30 2529 H 233.677 0.660887 -3.72076 0
M  V30 2530 H 233.99 0.731426 -7.69331 0
M  V30 2531 H 232.335 0.66471 -6.91814 0
M  V30 2532 H 235.526 0.735545 -4.62285 0
M  V30 2533 H 235.699 0.767938 -6.43434 0
M  V30 2534 N 229.106 1.52395 0.401703 0
M  V30 2535 C 230.352 1.67065 1.14966 0
M  V30 2536 C 230.685 0.403052 1.89971 0
M  V30 2537 O 229.96 -0.598774 1.85054 0
M  V30 2538 C 230.243 2.8975 2.13815 0
M  V30 2539 C 230.096 4.26578 1.42658 0
M  V30 2540 C 231.415 3.07965 3.14397 0
M  V30 2541 H 228.534 0.607968 0.416587 0
M  V30 2542 H 231.176 1.84965 0.434511 0
M  V30 2543 H 229.326 2.74619 2.74803 0
M  V30 2544 H 230.998 4.53451 0.847329 0
M  V30 2545 H 229.241 4.27639 0.72849 0
M  V30 2546 H 229.912 5.08483 2.14823 0
M  V30 2547 H 232.388 3.22043 2.63491 0
M  V30 2548 H 231.264 3.95308 3.80819 0
M  V30 2549 H 231.525 2.21611 3.82545 0
M  V30 2550 N 230.584 -0.659388 1.43143 0
M  V30 2551 C 231.812 -1.44723 1.47861 0
M  V30 2552 C 232.227 -1.88563 0.0945886 0
M  V30 2553 O 231.584 -1.59108 -0.893915 0
M  V30 2554 C 231.635 -2.68627 2.41913 0
M  V30 2555 O 231.356 -2.26623 3.74932 0
M  V30 2556 C 232.857 -3.62045 2.55809 0
M  V30 2557 H 230.077 -0.444801 0.502387 0
M  V30 2558 H 232.621 -0.808916 1.87821 0
M  V30 2559 H 230.776 -3.28613 2.05164 0
M  V30 2560 H 231.19 -3.06745 4.2545 0
M  V30 2561 H 232.664 -4.45666 3.25708 0
M  V30 2562 H 233.141 -4.08981 1.60099 0
M  V30 2563 H 233.747 -3.07944 2.93344 0
M  V30 2564 N 232.062 -1.29571 -0.897171 0
M  V30 2565 C 233.302 -1.18959 -1.66217 0
M  V30 2566 C 233.666 0.254271 -1.90309 0
M  V30 2567 O 234.867 0.483407 -2.64417 0
M  V30 2568 C 233.138 -1.98302 -2.9734 0
M  V30 2569 S 234.697 -2.04253 -3.88364 0
M  V30 2570 H 231.515 -0.424137 -0.570639 0
M  V30 2571 H 234.117 -1.6389 -1.06585 0
M  V30 2572 H 232.821 -3.02342 -2.77521 0
M  V30 2573 H 232.352 -1.53986 -3.62011 0
M  V30 2574 H 234.367 -1.16105 -4.82425 0
M  V30 2575 N 233.54 1.10788 -1.12088 0
M  V30 2576 C 234.786 1.82942 -0.875226 0
M  V30 2577 C 235.119 1.84779 0.597538 0
M  V30 2578 O 234.394 1.30578 1.44152 0
M  V30 2579 C 234.677 3.29789 -1.44606 0
M  V30 2580 C 234.53 3.36307 -2.98693 0
M  V30 2581 C 235.849 4.26064 -1.10261 0
M  V30 2582 H 232.968 0.664195 -0.319397 0
M  V30 2583 H 235.61 1.29867 -1.38689 0
M  V30 2584 H 233.76 3.75118 -1.01089 0
M  V30 2585 H 235.432 2.99487 -3.50864 0
M  V30 2586 H 233.675 2.76318 -3.34411 0
M  V30 2587 H 234.346 4.39694 -3.33726 0
M  V30 2588 H 236.822 3.88951 -1.4784 0
M  V30 2589 H 235.698 5.27183 -1.52869 0
M  V30 2590 H 235.959 4.42098 -0.0142953 0
M  V30 2591 N 235.018 0.912232 1.28515 0
M  V30 2592 C 235.948 0.416403 2.29757 0
M  V30 2593 C 236.929 -0.515194 1.6211 0
M  V30 2594 O 238.114 -0.423253 1.89532 0
M  V30 2595 C 235.244 -0.34572 3.45575 0
M  V30 2596 C 234.198 0.496599 4.25109 0
M  V30 2597 C 233.524 -0.393771 5.33248 0
M  V30 2598 C 234.824 1.75307 4.92001 0
M  V30 2599 H 236.518 1.26249 2.7148 0
M  V30 2600 H 234.064 0.608515 1.30511 0
M  V30 2601 H 236.017 -0.703422 4.15488 0
M  V30 2602 H 234.741 -1.2257 3.02728 0
M  V30 2603 H 233.4 0.8368 3.56922 0
M  V30 2604 H 233.048 -1.27225 4.86644 0
M  V30 2605 H 232.748 0.166209 5.87365 0
M  V30 2606 H 234.272 -0.747389 6.06009 0
M  V30 2607 H 235.686 1.46437 5.54283 0
M  V30 2608 H 234.083 2.25534 5.56106 0
M  V30 2609 H 235.153 2.48176 4.16577 0
M  V30 2610 N 236.496 -1.42363 0.676048 0
M  V30 2611 C 237.745 -2.00745 0.196037 0
M  V30 2612 C 238.058 -1.54083 -1.20489 0
M  V30 2613 O 239.264 -2.04891 -1.78134 0
M  V30 2614 C 237.72 -3.58651 0.299616 0
M  V30 2615 C 237.328 -4.143 1.70468 0
M  V30 2616 C 239.072 -4.24326 -0.121619 0
M  V30 2617 C 236.979 -5.64574 1.76096 0
M  V30 2618 H 235.909 -0.750787 0.0695301 0
M  V30 2619 H 238.56 -1.63072 0.841412 0
M  V30 2620 H 236.942 -3.93833 -0.413673 0
M  V30 2621 H 238.116 -3.90575 2.44515 0
M  V30 2622 H 236.431 -3.61081 2.07387 0
M  V30 2623 H 239.028 -5.34607 -0.0997362 0
M  V30 2624 H 239.371 -3.99897 -1.15708 0
M  V30 2625 H 239.904 -3.94108 0.540706 0
M  V30 2626 H 236.643 -5.93804 2.77628 0
M  V30 2627 H 236.163 -5.90286 1.06406 0
M  V30 2628 H 237.842 -6.29013 1.51496 0
M  V30 2629 N 237.974 -0.419461 -1.51915 0
M  V30 2630 C 239.22 0.145505 -2.02879 0
M  V30 2631 C 239.575 1.41926 -1.29903 0
M  V30 2632 O 238.868 1.87383 -0.399782 0
M  V30 2633 C 239.062 0.437067 -3.54717 0
M  V30 2634 C 238.891 -0.806877 -4.42402 0
M  V30 2635 C 237.661 -1.33514 -4.87342 0
M  V30 2636 C 239.859 -1.68796 -4.85811 0
M  V30 2637 N 237.841 -2.53349 -5.59185 0
M  V30 2638 C 239.212 -2.73247 -5.56539 0
M  V30 2639 C 241.267 -1.70449 -4.67816 0
M  V30 2640 C 239.97 -3.79276 -6.11181 0
M  V30 2641 C 241.996 -2.75403 -5.23361 0
M  V30 2642 C 241.358 -3.78575 -5.9402 0
M  V30 2643 H 237.457 0.0145424 -0.781865 0
M  V30 2644 H 240.041 -0.576126 -1.85981 0
M  V30 2645 H 238.212 1.12774 -3.71667 0
M  V30 2646 H 239.944 0.99182 -3.92358 0
M  V30 2647 H 236.699 -0.891657 -4.65131 0
M  V30 2648 H 237.123 -3.14066 -5.99743 0
M  V30 2649 H 241.765 -0.920209 -4.12664 0
M  V30 2650 H 239.483 -4.58554 -6.65397 0
M  V30 2651 H 243.069 -2.77603 -5.113 0
M  V30 2652 H 241.949 -4.58453 -6.36231 0
M  V30 2653 N 239.452 1.56882 -0.150215 0
M  V30 2654 C 240.698 1.96518 0.500834 0
M  V30 2655 C 241.031 1.03527 1.64304 0
M  V30 2656 O 240.306 0.0782751 1.94342 0
M  V30 2657 C 240.589 3.45822 1.00395 0
M  V30 2658 C 240.442 4.49591 -0.136983 0
M  V30 2659 C 241.761 3.97704 1.88467 0
M  V30 2660 H 238.88 0.714535 0.18058 0
M  V30 2661 H 241.522 1.88577 -0.232091 0
M  V30 2662 H 239.672 3.5272 1.62851 0
M  V30 2663 H 241.344 4.5477 -0.77343 0
M  V30 2664 H 239.587 4.26441 -0.795652 0
M  V30 2665 H 240.258 5.51402 0.256815 0
M  V30 2666 H 242.734 3.93304 1.35834 0
M  V30 2667 H 241.61 5.0263 2.20578 0
M  V30 2668 H 241.871 3.40252 2.82279 0
M  V30 2669 N 240.93 -0.123565 1.57115 0
M  V30 2670 C 242.176 -0.833386 1.84885 0
M  V30 2671 C 242.509 -1.79742 0.735292 0
M  V30 2672 O 241.784 -1.92764 -0.25925 0
M  V30 2673 C 242.067 -1.5873 3.23228 0
M  V30 2674 C 241.92 -0.643183 4.45178 0
M  V30 2675 C 243.239 -2.54453 3.59085 0
M  V30 2676 H 240.358 -0.301518 0.6725 0
M  V30 2677 H 243 -0.097778 1.89748 0
M  V30 2678 H 241.15 -2.21438 3.19214 0
M  V30 2679 H 242.822 -0.0253015 4.61293 0
M  V30 2680 H 241.065 0.0456139 4.33776 0
M  V30 2681 H 241.736 -1.20724 5.38637 0
M  V30 2682 H 244.212 -2.01853 3.63861 0
M  V30 2683 H 243.088 -3.04238 4.5687 0
M  V30 2684 H 243.349 -3.36906 2.86264 0
M  V30 2685 N 242.408 -1.52605 -0.393616 0
M  V30 2686 C 243.656 -1.67093 -1.13685 0
M  V30 2687 C 243.977 -0.411011 -1.90619 0
M  V30 2688 O 243.247 0.574491 -1.87287 0
M  V30 2689 H 241.827 -0.615923 -0.422668 0
M  V30 2690 H 244.489 -1.89704 -0.447039 0
M  V30 2691 H 243.585 -2.51922 -1.84232 0
M  V30 2692 N 243.887 0.651787 -1.4349 0
M  V30 2693 C 245.135 1.40888 -1.44897 0
M  V30 2694 C 245.456 1.94856 -0.0749086 0
M  V30 2695 O 244.726 1.74518 0.889956 0
M  V30 2696 H 243.306 0.522887 -0.533478 0
M  V30 2697 H 245.968 0.768609 -1.79104 0
M  V30 2698 H 245.064 2.25052 -2.16236 0
M  V30 2699 N 245.365 1.30045 0.890287 0
M  V30 2700 C 246.295 1.18541 2.01172 0
M  V30 2701 C 247.276 0.0773356 1.69924 0
M  V30 2702 O 248.461 0.25845 1.92473 0
M  V30 2703 C 245.591 0.870941 3.36202 0
M  V30 2704 C 244.545 1.93637 3.81692 0
M  V30 2705 C 243.871 1.475 5.13953 0
M  V30 2706 C 245.171 3.34666 4.00994 0
M  V30 2707 H 246.865 2.12359 2.11054 0
M  V30 2708 H 244.411 1.02238 1.01407 0
M  V30 2709 H 246.364 0.777141 4.14172 0
M  V30 2710 H 245.088 -0.102926 3.26438 0
M  V30 2711 H 243.747 2.01972 3.05946 0
M  V30 2712 H 243.395 0.489551 5.00612 0
M  V30 2713 H 243.095 2.1876 5.4536 0
M  V30 2714 H 244.619 1.39489 5.94454 0
M  V30 2715 H 246.033 3.2912 4.69417 0
M  V30 2716 H 244.43 4.03966 4.43769 0
M  V30 2717 H 245.5 3.76949 3.05021 0
M  V30 2718 N 246.843 -1.10192 1.12674 0
M  V30 2719 C 247.773 -2.18652 0.819362 0
M  V30 2720 C 248.754 -1.68698 -0.217915 0
M  V30 2721 O 249.939 -1.94041 -0.0785581 0
M  V30 2722 C 247.069 -3.46202 0.27594 0
M  V30 2723 C 246.023 -4.09444 1.24656 0
M  V30 2724 C 245.349 -5.31725 0.563258 0
M  V30 2725 C 246.649 -4.52863 2.60217 0
M  V30 2726 H 248.343 -2.44622 1.72628 0
M  V30 2727 H 245.889 -1.17571 0.831451 0
M  V30 2728 H 247.842 -4.21372 0.0486149 0
M  V30 2729 H 246.566 -3.1973 -0.666331 0
M  V30 2730 H 245.225 -3.36284 1.45974 0
M  V30 2731 H 244.873 -5.0153 -0.384235 0
M  V30 2732 H 244.573 -5.74991 1.21075 0
M  V30 2733 H 246.097 -6.09624 0.34503 0
M  V30 2734 H 247.511 -5.19294 2.42913 0
M  V30 2735 H 245.908 -5.06986 3.21068 0
M  V30 2736 H 246.978 -3.65656 3.18471 0
M  V30 2737 N 248.321 -0.919034 -1.28029 0
M  V30 2738 C 249.546 -0.570357 -1.99403 0
M  V30 2739 C 249.971 0.842486 -1.68178 0
M  V30 2740 O 249.329 1.56391 -0.917141 0
M  V30 2741 C 249.377 -0.792541 -3.51783 0
M  V30 2742 O 248.481 0.145988 -4.12142 0
M  V30 2743 H 247.822 -0.220555 -0.6263 0
M  V30 2744 H 250.352 -1.23592 -1.63053 0
M  V30 2745 H 250.362 -0.704708 -4.01868 0
M  V30 2746 H 249.037 -1.82247 -3.73844 0
M  V30 2747 H 247.614 0.00897528 -3.72899 0
M  V30 2748 N 249.799 1.42003 -0.683588 0
M  V30 2749 C 251.048 2.00638 -0.206681 0
M  V30 2750 C 251.361 1.5472 1.19671 0
M  V30 2751 O 252.567 2.05833 1.77045 0
M  V30 2752 C 251.023 3.58487 -0.318632 0
M  V30 2753 C 250.631 4.1339 -1.72663 0
M  V30 2754 C 252.375 4.24384 0.0991141 0
M  V30 2755 C 250.282 5.63633 -1.79087 0
M  V30 2756 H 249.212 0.750408 -0.0735107 0
M  V30 2757 H 251.863 1.62624 -0.850048 0
M  V30 2758 H 250.245 3.94047 0.392781 0
M  V30 2759 H 251.419 3.89273 -2.46583 0
M  V30 2760 H 249.734 3.59976 -2.09299 0
M  V30 2761 H 252.331 5.34652 0.0713833 0
M  V30 2762 H 252.674 4.00505 1.13586 0
M  V30 2763 H 253.207 3.93816 -0.561599 0
M  V30 2764 H 249.946 5.92323 -2.80774 0
M  V30 2765 H 249.466 5.89714 -1.09535 0
M  V30 2766 H 251.145 6.28201 -1.5483 0
M  V30 2767 N 251.277 0.427512 1.51691 0
M  V30 2768 C 252.688 -0.0378867 1.86662 0
M  V30 2769 C 253.039 -1.42819 1.34525 0
M  V30 2770 O 252.164 -2.05037 0.692014 0
M  V30 2771 C 252.759 -0.0755266 3.38716 0
M  V30 2772 C 251.318 -0.485309 3.73258 0
M  V30 2773 C 250.465 0.328399 2.75349 0
M  V30 2774 H 253.416 0.64379 1.45055 0
M  V30 2775 H 253.437 -0.887056 3.70016 0
M  V30 2776 H 252.949 0.936487 3.76632 0
M  V30 2777 H 251.05 -1.50329 3.40928 0
M  V30 2778 H 251.163 -0.21693 4.78609 0
M  V30 2779 H 249.527 -0.211905 2.53817 0
M  V30 2780 H 250.31 1.3391 3.16106 0
M  V30 2781 N 252.755 -1.56801 0.158532 0
M  V30 2782 C 253.983 -2.00859 -0.496303 0
M  V30 2783 C 254.398 -1.03871 -1.57659 0
M  V30 2784 O 253.755 -0.0375165 -1.82461 0
M  V30 2785 C 253.806 -3.4479 -1.08638 0
M  V30 2786 O 253.527 -4.38072 -0.0492322 0
M  V30 2787 C 255.028 -4.04185 -1.8207 0
M  V30 2788 H 252.248 -0.65864 -0.128199 0
M  V30 2789 H 254.792 -2.02885 0.256506 0
M  V30 2790 H 252.947 -3.43579 -1.78975 0
M  V30 2791 H 253.361 -5.2227 -0.483102 0
M  V30 2792 H 254.835 -5.06857 -2.18633 0
M  V30 2793 H 255.312 -3.45549 -2.71095 0
M  V30 2794 H 255.918 -4.0906 -1.16405 0
M  V30 2795 N 254.233 0.115231 -1.57178 0
M  V30 2796 C 255.48 0.822351 -1.8505 0
M  V30 2797 C 255.808 1.79701 -0.744168 0
M  V30 2798 O 255.063 1.93909 0.26414 0
M  V30 2799 C 255.362 1.60324 -3.19423 0
M  V30 2800 C 255.028 0.772536 -4.44233 0
M  V30 2801 C 253.69 0.543468 -4.78121 0
M  V30 2802 C 256.042 0.193746 -5.2084 0
M  V30 2803 C 253.37 -0.274583 -5.86057 0
M  V30 2804 C 255.722 -0.611517 -6.29637 0
M  V30 2805 C 254.386 -0.850867 -6.62055 0
M  V30 2806 H 253.656 0.30092 -0.677147 0
M  V30 2807 H 256.303 0.0845802 -1.91313 0
M  V30 2808 H 254.608 2.41203 -3.08753 0
M  V30 2809 H 256.305 2.1544 -3.38211 0
M  V30 2810 H 252.895 0.96117 -4.17683 0
M  V30 2811 H 257.079 0.357926 -4.95008 0
M  V30 2812 H 252.335 -0.469206 -6.09597 0
M  V30 2813 H 256.509 -1.06697 -6.88178 0
M  V30 2814 H 254.136 -1.48657 -7.45523 0
M  V30 2815 N 255.711 1.52812 0.385517 0
M  V30 2816 C 256.641 1.80808 1.47752 0
M  V30 2817 C 257.622 0.660318 1.5676 0
M  V30 2818 O 258.807 0.908246 1.71652 0
M  V30 2819 C 255.937 1.98008 2.85324 0
M  V30 2820 C 254.891 3.13709 2.91154 0
M  V30 2821 C 254.217 3.16169 4.31209 0
M  V30 2822 C 255.517 4.52709 2.60483 0
M  V30 2823 H 257.211 2.72253 1.24573 0
M  V30 2824 H 254.757 1.31003 0.597839 0
M  V30 2825 H 256.71 2.16176 3.61726 0
M  V30 2826 H 255.434 1.03255 3.09848 0
M  V30 2827 H 254.093 2.95329 2.17201 0
M  V30 2828 H 253.741 2.19092 4.52778 0
M  V30 2829 H 253.441 3.93894 4.36029 0
M  V30 2830 H 254.965 3.36496 5.09512 0
M  V30 2831 H 256.379 4.71173 3.26602 0
M  V30 2832 H 254.776 5.32528 2.76648 0
M  V30 2833 H 255.846 4.59186 1.55809 0
M  V30 2834 N 257.189 -0.644168 1.43834 0
M  V30 2835 C 258.119 -1.76814 1.52509 0
M  V30 2836 C 259.1 -1.65823 0.379052 0
M  V30 2837 O 260.285 -1.84781 0.597466 0
M  V30 2838 C 257.415 -3.15288 1.4564 0
M  V30 2839 C 256.369 -3.41053 2.58586 0
M  V30 2840 C 255.695 -4.79421 2.36769 0
M  V30 2841 C 256.995 -3.34902 4.00797 0
M  V30 2842 H 258.689 -1.69812 2.46586 0
M  V30 2843 H 256.235 -0.815542 1.1868 0
M  V30 2844 H 258.188 -3.93681 1.50311 0
M  V30 2845 H 256.912 -3.23043 0.480725 0
M  V30 2846 H 255.571 -2.65035 2.53282 0
M  V30 2847 H 255.219 -4.83863 1.37424 0
M  V30 2848 H 254.919 -4.9762 3.12487 0
M  V30 2849 H 256.443 -5.6006 2.43238 0
M  V30 2850 H 257.857 -4.03218 4.07539 0
M  V30 2851 H 256.254 -3.64637 4.76613 0
M  V30 2852 H 257.324 -2.32928 4.25291 0
M  V30 2853 N 258.668 -1.30515 -0.883378 0
M  V30 2854 C 260.084 -1.08881 -1.16692 0
M  V30 2855 C 260.284 0.149409 -2.00945 0
M  V30 2856 O 259.34 0.84257 -2.38027 0
M  V30 2857 C 260.653 -2.35319 -1.87204 0
M  V30 2858 C 262.201 -2.40799 -1.99962 0
M  V30 2859 C 262.676 -3.67083 -2.73887 0
M  V30 2860 N 264.167 -3.679 -2.81432 0
M  V30 2861 C 264.902 -4.62303 -3.3921 0
M  V30 2862 N 264.398 -5.67052 -3.98025 0
M  V30 2863 N 266.191 -4.49845 -3.3704 0
M  V30 2864 H 258.342 -2.09951 -0.321633 0
M  V30 2865 H 260.605 -0.92556 -0.205043 0
M  V30 2866 H 260.311 -3.25689 -1.3274 0
M  V30 2867 H 260.185 -2.44089 -2.87577 0
M  V30 2868 H 262.572 -1.50907 -2.53597 0
M  V30 2869 H 262.653 -2.36003 -0.98673 0
M  V30 2870 H 262.297 -4.57334 -2.20925 0
M  V30 2871 H 262.227 -3.69141 -3.75556 0
M  V30 2872 H 264.718 -2.92171 -2.39676 0
M  V30 2873 H 265.031 -6.35184 -4.40183 0
M  V30 2874 H 263.376 -5.70842 -3.96439 0
M  V30 2875 H 266.567 -3.67194 -2.90321 0
M  V30 2876 H 266.74 -5.23597 -3.81772 0
M  V30 2877 N 260.146 1.09593 -1.13257 0
M  V30 2878 C 261.371 1.8604 -0.916732 0
M  V30 2879 C 261.796 1.80504 0.529146 0
M  V30 2880 O 261.154 1.18127 1.37534 0
M  V30 2881 C 261.202 3.32017 -1.40703 0
M  V30 2882 O 260.306 4.08141 -0.591153 0
M  V30 2883 H 259.647 0.576943 -0.328683 0
M  V30 2884 H 262.177 1.38405 -1.50682 0
M  V30 2885 H 262.187 3.82865 -1.4099 0
M  V30 2886 H 260.862 3.35361 -2.45979 0
M  V30 2887 H 259.439 3.67084 -0.656005 0
M  V30 2888 N 261.624 0.925811 1.2754 0
M  V30 2889 C 262.873 0.561084 1.93739 0
M  V30 2890 C 263.186 -0.901685 1.73577 0
M  V30 2891 O 264.392 -1.37511 2.34101 0
M  V30 2892 C 262.848 0.952668 3.47062 0
M  V30 2893 C 262.456 2.43599 3.75983 0
M  V30 2894 C 264.2 0.659103 4.19352 0
M  V30 2895 C 262.107 2.76707 5.22673 0
M  V30 2896 H 261.037 0.206122 0.725279 0
M  V30 2897 H 263.688 1.12637 1.44863 0
M  V30 2898 H 262.07 0.316053 3.94737 0
M  V30 2899 H 263.244 3.12035 3.39073 0
M  V30 2900 H 261.559 2.70125 3.16893 0
M  V30 2901 H 264.156 0.882985 5.27359 0
M  V30 2902 H 264.499 -0.403607 4.14339 0
M  V30 2903 H 265.032 1.25473 3.77494 0
M  V30 2904 H 261.771 3.8188 5.32774 0
M  V30 2905 H 261.291 2.12919 5.60737 0
M  V30 2906 H 262.97 2.6435 5.90532 0
M  V30 2907 N 263.102 -1.41638 0.69111 0
M  V30 2908 C 264.034 -2.29194 -0.0161523 0
M  V30 2909 C 265.047 -1.44549 -0.748955 0
M  V30 2910 O 266.236 -1.681 -0.6004 0
M  V30 2911 C 263.336 -3.22325 -1.0469 0
M  V30 2912 C 262.509 -4.35706 -0.384621 0
M  V30 2913 C 261.568 -5.09443 -1.31737 0
M  V30 2914 O 260.594 -5.63386 -0.811451 0
M  V30 2915 N 261.796 -5.16487 -2.64993 0
M  V30 2916 H 264.561 -2.90534 0.735523 0
M  V30 2917 H 262.122 -1.52742 0.53679 0
M  V30 2918 H 264.114 -3.68522 -1.67252 0
M  V30 2919 H 262.684 -2.62323 -1.70015 0
M  V30 2920 H 261.904 -3.91948 0.420804 0
M  V30 2921 H 263.192 -5.08743 0.0760765 0
M  V30 2922 H 262.59 -4.741 -3.08619 0
M  V30 2923 H 261.147 -5.66276 -3.22761 0
M  V30 2924 N 264.58 -0.43555 -1.51462 0
M  V30 2925 C 265.543 0.365137 -2.26273 0
M  V30 2926 C 266.543 0.951227 -1.29647 0
M  V30 2927 O 267.733 0.825958 -1.53374 0
M  V30 2928 C 264.865 1.51645 -3.05314 0
M  V30 2929 H 266.058 -0.290474 -2.9849 0
M  V30 2930 H 263.611 -0.188676 -1.55157 0
M  V30 2931 H 264.346 2.20816 -2.3751 0
M  V30 2932 H 264.131 1.10238 -3.76284 0
M  V30 2933 H 265.621 2.08218 -3.61987 0
M  V30 2934 N 266.058 1.56714 -0.166846 0
M  V30 2935 C 267.304 1.97039 0.479962 0
M  V30 2936 C 267.637 1.05264 1.63197 0
M  V30 2937 O 266.912 0.0988833 1.94248 0
M  V30 2938 C 267.195 3.46867 0.967212 0
M  V30 2939 C 267.048 4.49421 -0.18466 0
M  V30 2940 C 268.367 3.9968 1.84238 0
M  V30 2941 H 265.486 0.71641 0.172992 0
M  V30 2942 H 268.128 1.8832 -0.252079 0
M  V30 2943 H 266.278 3.54428 1.59101 0
M  V30 2944 H 267.95 4.53924 -0.821621 0
M  V30 2945 H 266.193 4.25573 -0.840837 0
M  V30 2946 H 266.864 5.51644 0.198317 0
M  V30 2947 H 269.34 3.94723 1.31655 0
M  V30 2948 H 268.216 5.04941 2.15234 0
M  V30 2949 H 268.477 3.43226 2.78654 0
M  V30 2950 N 267.536 -0.106894 1.57237 0
M  V30 2951 C 268.947 -0.662723 1.74542 0
M  V30 2952 C 269.298 -1.7971 0.787319 0
M  V30 2953 O 268.423 -2.16368 -0.0369636 0
M  V30 2954 C 269.018 -1.20896 3.16496 0
M  V30 2955 C 267.577 -1.71096 3.35266 0
M  V30 2956 C 266.724 -0.615642 2.7038 0
M  V30 2957 H 269.675 0.119106 1.58252 0
M  V30 2958 H 269.696 -2.07847 3.18716 0
M  V30 2959 H 269.208 -0.383122 3.86204 0
M  V30 2960 H 267.309 -2.56119 2.70618 0
M  V30 2961 H 267.422 -1.81208 4.43509 0
M  V30 2962 H 265.786 -1.05222 2.31949 0
M  V30 2963 H 266.569 0.199419 3.4272 0
M  V30 2964 N 269.014 -1.53014 -0.377408 0
M  V30 2965 C 270.291 -1.59215 -1.13622 0
M  V30 2966 C 270.671 -0.392407 -2.07421 0
M  V30 2967 O 270.019 0.618342 -2.19975 0
M  V30 2968 C 270.229 -2.93669 -1.88573 0
M  V30 2969 C 271.577 -3.47822 -2.43526 0
M  V30 2970 O 272.601 -2.9562 -1.98715 0
M  V30 2971 O 271.46 -4.39055 -3.25412 0
M  V30 2972 H 268.554 -0.642625 -0.52054 0
M  V30 2973 H 271.1 -1.65353 -0.381625 0
M  V30 2974 H 269.872 -3.7243 -1.20048 0
M  V30 2975 H 269.495 -2.90968 -2.70968 0
M  V30 2976 N 270.492 0.636531 -1.44174 0
M  V30 2977 C 271.422 1.76003 -1.53444 0
M  V30 2978 C 272.403 1.65619 -0.387841 0
M  V30 2979 O 273.588 1.84461 -0.607257 0
M  V30 2980 C 270.718 3.14511 -1.4731 0
M  V30 2981 C 269.672 3.39677 -2.60391 0
M  V30 2982 C 268.998 4.78159 -2.39308 0
M  V30 2983 C 270.298 3.32772 -4.02567 0
M  V30 2984 H 271.992 1.68501 -2.47483 0
M  V30 2985 H 269.538 0.809237 -1.19111 0
M  V30 2986 H 271.491 3.92878 -1.52397 0
M  V30 2987 H 270.215 3.22783 -0.49785 0
M  V30 2988 H 268.874 2.63688 -2.54684 0
M  V30 2989 H 268.522 4.83128 -1.39988 0
M  V30 2990 H 268.222 4.95956 -3.15122 0
M  V30 2991 H 269.746 5.58762 -2.46205 0
M  V30 2992 H 271.16 4.01051 -4.09672 0
M  V30 2993 H 269.557 3.62104 -4.7854 0
M  V30 2994 H 270.627 2.30669 -4.2652 0
M  V30 2995 N 271.97 1.30982 0.876444 0
M  V30 2996 C 272.918 1.18006 2.00443 0
M  V30 2997 C 273.912 0.0898871 1.69161 0
M  V30 2998 O 275.118 0.251333 1.78237 0
M  V30 2999 H 271.493 0.365196 0.65737 0
M  V30 3000 H 273.464 2.13453 2.0852 0
M  V30 3001 C 272.213 0.897521 3.35916 0
M  V30 3002 H 271.536 1.7285 3.60504 0
M  V30 3003 H 272.976 0.846874 4.15456 0
M  V30 3004 C 271.435 -0.399674 3.34521 0
M  V30 3005 O 271.965 -1.41852 3.7582 0
M  V30 3006 N 270.171 -0.413893 2.87637 0
M  V30 3007 H 269.718 0.41571 2.54224 0
M  V30 3008 H 269.676 -1.28175 2.87086 0
M  V30 3009 N 273.449 -1.08991 1.13837 0
M  V30 3010 C 274.698 -1.80631 0.897509 0
M  V30 3011 C 275.011 -1.86872 -0.57777 0
M  V30 3012 O 276.217 -2.54866 -0.935701 0
M  V30 3013 C 274.673 -3.24517 1.55618 0
M  V30 3014 C 274.281 -3.26529 3.0673 0
M  V30 3015 C 276.025 -4.00882 1.3962 0
M  V30 3016 C 273.932 -4.64965 3.65461 0
M  V30 3017 H 272.862 -0.67691 0.332129 0
M  V30 3018 H 275.513 -1.2246 1.3666 0
M  V30 3019 H 273.895 -3.82778 1.01476 0
M  V30 3020 H 275.069 -2.78008 3.67489 0
M  V30 3021 H 273.384 -2.63656 3.22296 0
M  V30 3022 H 275.981 -5.03167 1.80906 0
M  V30 3023 H 276.324 -4.14896 0.341578 0
M  V30 3024 H 276.857 -3.49075 1.90766 0
M  V30 3025 H 273.596 -4.56153 4.70749 0
M  V30 3026 H 273.116 -5.13792 3.09481 0
M  V30 3027 H 274.795 -5.3394 3.654 0
M  V30 3028 N 274.927 -0.932562 -1.27047 0
M  V30 3029 C 276.155 -0.592031 -1.98249 0
M  V30 3030 C 276.57 0.831062 -1.69525 0
M  V30 3031 O 275.927 1.55299 -0.958561 0
M  V30 3032 C 275.978 -0.814279 -3.5221 0
M  V30 3033 O 275.699 -2.18139 -3.7993 0
M  V30 3034 C 277.2 -0.483121 -4.4066 0
M  V30 3035 H 274.42 -0.223896 -0.632544 0
M  V30 3036 H 276.964 -1.25091 -1.61779 0
M  V30 3037 H 275.119 -0.20213 -3.86872 0
M  V30 3038 H 275.533 -2.235 -4.74498 0
M  V30 3039 H 277.007 -0.689298 -5.47679 0
M  V30 3040 H 277.484 0.581546 -4.35333 0
M  V30 3041 H 278.09 -1.07362 -4.11526 0
M  V30 3042 N 276.405 1.4127 -0.698611 0
M  V30 3043 C 277.368 2.29158 -0.044132 0
M  V30 3044 C 278.368 1.44529 0.704841 0
M  V30 3045 O 279.558 1.65643 0.539276 0
M  V30 3046 C 276.69 3.27459 0.947809 0
M  V30 3047 H 277.883 2.88529 -0.817994 0
M  V30 3048 H 275.436 1.49307 -0.46228 0
M  V30 3049 H 276.171 2.73073 1.74933 0
M  V30 3050 H 275.956 3.8991 0.41385 0
M  V30 3051 H 277.446 3.93311 1.40344 0
M  V30 3052 N 277.883 0.443576 1.51229 0
M  V30 3053 C 279.123 -0.119889 2.04048 0
M  V30 3054 C 279.487 -1.39418 1.32009 0
M  V30 3055 O 280.688 -2.03829 1.75235 0
M  V30 3056 C 278.959 -0.327233 3.55899 0
M  V30 3057 S 280.518 -0.853208 4.30425 0
M  V30 3058 H 277.336 -0.028921 0.710412 0
M  V30 3059 H 279.938 0.604413 1.85922 0
M  V30 3060 H 278.642 0.606445 4.05895 0
M  V30 3061 H 278.173 -1.07844 3.7833 0
M  V30 3062 H 280.188 -2.13005 4.48155 0
M  V30 3063 N 279.361 -1.56624 0.175154 0
M  V30 3064 C 280.61 -1.96173 -0.468921 0
M  V30 3065 C 280.923 -1.06401 -1.64128 0
M  V30 3066 O 282.129 -1.35648 -2.35185 0
M  V30 3067 C 280.585 -3.48833 -0.885633 0
M  V30 3068 C 280.193 -4.47237 0.261343 0
M  V30 3069 C 281.937 -3.97194 -1.49791 0
M  V30 3070 C 279.844 -5.9114 -0.175214 0
M  V30 3071 H 278.774 -0.732455 -0.178958 0
M  V30 3072 H 281.425 -1.81591 0.263997 0
M  V30 3073 H 279.807 -3.58848 -1.67464 0
M  V30 3074 H 280.981 -4.4894 1.03871 0
M  V30 3075 H 279.296 -4.08956 0.783827 0
M  V30 3076 H 281.893 -5.02167 -1.83665 0
M  V30 3077 H 282.236 -3.40351 -2.39722 0
M  V30 3078 H 282.769 -3.90212 -0.773267 0
M  V30 3079 H 279.508 -6.51865 0.689414 0
M  V30 3080 H 279.028 -5.92735 -0.91786 0
M  V30 3081 H 280.707 -6.44044 -0.617792 0
M  V30 3082 N 280.839 0.0985539 -1.57292 0
M  V30 3083 C 281.769 1.12064 -2.04851 0
M  V30 3084 C 282.75 1.41981 -0.936767 0
M  V30 3085 O 283.935 1.52071 -1.20781 0
M  V30 3086 C 281.065 2.44144 -2.47004 0
M  V30 3087 C 280.019 2.28643 -3.6181 0
M  V30 3088 C 279.345 3.65869 -3.89929 0
M  V30 3089 C 280.645 1.72986 -4.92822 0
M  V30 3090 H 282.339 0.724979 -2.9049 0
M  V30 3091 H 279.885 0.34729 -1.39749 0
M  V30 3092 H 281.838 3.15914 -2.78884 0
M  V30 3093 H 280.562 2.85639 -1.5836 0
M  V30 3094 H 279.221 1.59318 -3.30172 0
M  V30 3095 H 278.869 4.04885 -2.98458 0
M  V30 3096 H 278.569 3.56344 -4.67218 0
M  V30 3097 H 280.093 4.39112 -4.2428 0
M  V30 3098 H 281.507 2.34593 -5.23105 0
M  V30 3099 H 279.904 1.74229 -5.74251 0
M  V30 3100 H 280.974 0.689007 -4.7998 0
M  V30 3101 N 282.317 1.53212 0.369288 0
M  V30 3102 C 283.247 1.82365 1.45826 0
M  V30 3103 C 284.228 0.676907 1.56051 0
M  V30 3104 O 285.413 0.926401 1.70679 0
M  V30 3105 C 282.543 2.01023 2.83208 0
M  V30 3106 C 281.497 3.1678 2.8781 0
M  V30 3107 C 280.823 3.20724 4.27832 0
M  V30 3108 C 282.123 4.55447 2.55667 0
M  V30 3109 H 283.817 2.73559 1.21678 0
M  V30 3110 H 281.363 1.3163 0.583911 0
M  V30 3111 H 283.316 2.20001 3.59413 0
M  V30 3112 H 282.04 1.06536 3.08736 0
M  V30 3113 H 280.699 2.97616 2.14056 0
M  V30 3114 H 280.347 2.23882 4.50429 0
M  V30 3115 H 280.047 3.98496 4.31827 0
M  V30 3116 H 281.571 3.41881 5.05915 0
M  V30 3117 H 282.985 4.74611 3.21586 0
M  V30 3118 H 281.382 5.35432 2.70984 0
M  V30 3119 H 282.452 4.60812 1.5093 0
M  V30 3120 N 283.795 -0.628877 1.44509 0
M  V30 3121 C 284.725 -1.75187 1.54376 0
M  V30 3122 C 285.706 -1.65411 0.396618 0
M  V30 3123 O 286.891 -1.84137 0.617031 0
M  V30 3124 C 284.021 -3.13725 1.48976 0
M  V30 3125 C 282.975 -3.38291 2.62189 0
M  V30 3126 C 282.301 -4.76883 2.41841 0
M  V30 3127 C 283.601 -3.30632 4.04326 0
M  V30 3128 H 285.295 -1.67187 2.48373 0
M  V30 3129 H 282.841 -0.802909 1.19538 0
M  V30 3130 H 284.794 -3.92064 1.54478 0
M  V30 3131 H 283.518 -3.22515 0.514961 0
M  V30 3132 H 282.177 -2.62334 2.56079 0
M  V30 3133 H 281.825 -4.82378 1.42548 0
M  V30 3134 H 281.525 -4.94278 3.17747 0
M  V30 3135 H 283.049 -5.57449 2.49165 0
M  V30 3136 H 284.463 -3.98873 4.11793 0
M  V30 3137 H 282.86 -3.59561 4.80454 0
M  V30 3138 H 283.93 -2.28404 4.27738 0
M  V30 3139 N 285.273 -1.31445 -0.869486 0
M  V30 3140 C 286.684 -1.19042 -1.43826 0
M  V30 3141 C 287.035 0.202919 -1.95148 0
M  V30 3142 O 286.16 1.10071 -1.86315 0
M  V30 3143 C 286.755 -2.15499 -2.6143 0
M  V30 3144 C 285.314 -2.07028 -3.14351 0
M  V30 3145 C 284.461 -2.04701 -1.87063 0
M  V30 3146 H 287.412 -1.43489 -0.677984 0
M  V30 3147 H 287.433 -1.74488 -3.38134 0
M  V30 3148 H 286.945 -3.16899 -2.24046 0
M  V30 3149 H 285.046 -1.08825 -3.56354 0
M  V30 3150 H 285.159 -2.96157 -3.766 0
M  V30 3151 H 283.523 -1.49724 -2.06046 0
M  V30 3152 H 284.306 -3.07857 -1.51917 0
M  V30 3153 N 286.751 1.08385 -1.14413 0
M  V30 3154 C 287.701 2.13509 -0.79987 0
M  V30 3155 C 288.685 1.5951 0.211059 0
M  V30 3156 O 289.877 1.76995 0.0133694 0
M  V30 3157 C 287.006 3.42162 -0.279297 0
M  V30 3158 C 286.092 4.03042 -1.31976 0
M  V30 3159 N 286.483 4.38327 -2.52395 0
M  V30 3160 C 284.781 4.30379 -1.17004 0
M  V30 3161 C 285.482 4.86428 -3.19003 0
M  V30 3162 N 284.458 4.84547 -2.46405 0
M  V30 3163 H 288.26 2.38609 -1.7159 0
M  V30 3164 H 285.774 1.2572 -1.02802 0
M  V30 3165 H 287.771 4.16898 -0.0143688 0
M  V30 3166 H 286.431 3.18511 0.630923 0
M  V30 3167 H 287.442 4.29349 -2.89621 0
M  V30 3168 H 284.119 4.16281 -0.318854 0
M  V30 3169 H 285.509 5.23107 -4.21674 0
M  V30 3170 N 288.23 0.939286 1.26551 0
M  V30 3171 C 289.14 0.453432 2.30176 0
M  V30 3172 C 290.156 -0.471649 1.67486 0
M  V30 3173 O 291.332 -0.35164 1.98306 0
M  V30 3174 C 288.397 -0.275326 3.45605 0
M  V30 3175 C 287.458 0.686084 4.23782 0
M  V30 3176 C 286.691 -0.00798994 5.33699 0
M  V30 3177 O 286.914 -1.22528 5.57085 0
M  V30 3178 O 285.848 0.669746 5.98162 0
M  V30 3179 H 289.674 1.31416 2.73795 0
M  V30 3180 H 287.259 0.705095 1.31715 0
M  V30 3181 H 289.141 -0.685911 4.1578 0
M  V30 3182 H 287.816 -1.11147 3.0402 0
M  V30 3183 H 286.723 1.14658 3.56096 0
M  V30 3184 H 288.056 1.48979 4.69112 0
M  V30 3185 N 289.708 -1.40897 0.706093 0
M  V30 3186 C 290.671 -2.29131 0.0562841 0
M  V30 3187 C 291.671 -1.44901 -0.697166 0
M  V30 3188 O 292.861 -1.65926 -0.530484 0
M  V30 3189 C 289.993 -3.27957 -0.93043 0
M  V30 3190 H 291.186 -2.88091 0.833284 0
M  V30 3191 H 288.739 -1.4906 0.470192 0
M  V30 3192 H 289.474 -2.73997 -1.73482 0
M  V30 3193 H 289.259 -3.90124 -0.393166 0
M  V30 3194 H 290.749 -3.94049 -1.38256 0
M  V30 3195 N 291.186 -0.45159 -1.50991 0
M  V30 3196 C 292.432 0.102439 -2.03142 0
M  V30 3197 C 292.787 1.39138 -1.32884 0
M  V30 3198 O 292.08 1.86493 -0.439438 0
M  V30 3199 C 292.274 0.361728 -3.55565 0
M  V30 3200 C 292.103 -0.900535 -4.40591 0
M  V30 3201 C 290.873 -1.43821 -4.844 0
M  V30 3202 C 293.071 -1.79063 -4.82121 0
M  V30 3203 N 291.053 -2.65153 -5.53685 0
M  V30 3204 C 292.424 -2.84991 -5.50618 0
M  V30 3205 C 294.479 -1.80334 -4.64095 0
M  V30 3206 C 293.182 -3.92155 -6.02998 0
M  V30 3207 C 295.208 -2.86442 -5.17402 0
M  V30 3208 C 294.57 -3.9109 -5.85857 0
M  V30 3209 H 290.669 -0.00204537 -0.781997 0
M  V30 3210 H 293.253 -0.615446 -1.84717 0
M  V30 3211 H 291.424 1.04865 -3.73976 0
M  V30 3212 H 293.156 0.908372 -3.94374 0
M  V30 3213 H 289.911 -0.990117 -4.63135 0
M  V30 3214 H 290.335 -3.26717 -5.92946 0
M  V30 3215 H 294.977 -1.00753 -4.1062 0
M  V30 3216 H 292.695 -4.72565 -6.55521 0
M  V30 3217 H 296.281 -2.88386 -5.05297 0
M  V30 3218 H 295.161 -4.71845 -6.26364 0
M  V30 3219 N 292.664 1.56529 -0.183458 0
M  V30 3220 C 293.614 2.1515 0.754605 0
M  V30 3221 C 294.598 1.08904 1.18443 0
M  V30 3222 O 295.79 1.34997 1.14476 0
M  V30 3223 C 292.919 2.80531 1.97881 0
M  V30 3224 C 292.005 3.93952 1.57043 0
M  V30 3225 N 292.396 4.98221 0.87231 0
M  V30 3226 C 290.694 4.05338 1.86057 0
M  V30 3227 C 291.395 5.77836 0.669377 0
M  V30 3228 N 290.371 5.29858 1.21454 0
M  V30 3229 H 294.173 2.93132 0.212387 0
M  V30 3230 H 291.687 1.62391 0.0167725 0
M  V30 3231 H 293.684 3.20914 2.6612 0
M  V30 3232 H 292.344 2.04035 2.52586 0
M  V30 3233 H 293.355 5.15191 0.529033 0
M  V30 3234 H 290.032 3.39957 2.42354 0
M  V30 3235 H 291.422 6.71799 0.116422 0
M  V30 3236 N 294.142 -0.090211 1.57342 0
M  V30 3237 C 295.389 -0.792807 1.86335 0
M  V30 3238 C 295.717 -1.78494 0.772662 0
M  V30 3239 O 294.972 -1.94305 -0.233258 0
M  V30 3240 C 295.271 -1.55222 3.21933 0
M  V30 3241 C 294.937 -0.701765 4.45406 0
M  V30 3242 C 293.599 -0.467334 4.78925 0
M  V30 3243 C 295.951 -0.11086 5.21082 0
M  V30 3244 C 293.279 0.367785 5.85546 0
M  V30 3245 C 295.631 0.711609 6.28585 0
M  V30 3246 C 294.295 0.956086 6.60617 0
M  V30 3247 H 293.565 -0.290109 0.681849 0
M  V30 3248 H 296.212 -0.0541332 1.91423 0
M  V30 3249 H 294.517 -2.3626 3.12551 0
M  V30 3250 H 296.214 -2.10032 3.41595 0
M  V30 3251 H 292.804 -0.894598 4.1916 0
M  V30 3252 H 296.988 -0.279129 4.95514 0
M  V30 3253 H 292.244 0.566128 6.08773 0
M  V30 3254 H 296.418 1.17632 6.86393 0
M  V30 3255 H 294.045 1.60499 7.43064 0
M  V30 3256 N 295.62 -1.53406 -0.361157 0
M  V30 3257 C 296.583 -1.79479 -1.42548 0
M  V30 3258 C 297.583 -0.665327 -1.4639 0
M  V30 3259 O 298.773 -0.933549 -1.47073 0
M  V30 3260 C 295.905 -1.92087 -2.8163 0
M  V30 3261 H 297.098 -2.74538 -1.20701 0
M  V30 3262 H 294.651 -1.4455 -0.594546 0
M  V30 3263 H 295.386 -0.991099 -3.08784 0
M  V30 3264 H 295.171 -2.74241 -2.80239 0
M  V30 3265 H 296.661 -2.13836 -3.58697 0
M  V30 3266 N 297.098 0.621204 -1.44841 0
M  V30 3267 C 298.514 0.94048 -1.28946 0
M  V30 3268 C 298.714 2.00154 -0.23249 0
M  V30 3269 O 297.77 2.49651 0.378237 0
M  V30 3270 C 299.083 1.39433 -2.66419 0
M  V30 3271 C 300.631 1.50927 -2.74208 0
M  V30 3272 C 301.106 1.99692 -4.12174 0
M  V30 3273 N 302.597 2.06947 -4.144 0
M  V30 3274 C 303.332 2.45871 -5.1801 0
M  V30 3275 N 302.828 2.83862 -6.31977 0
M  V30 3276 N 304.621 2.46092 -5.05366 0
M  V30 3277 H 296.772 -0.0803548 -2.12248 0
M  V30 3278 H 299.035 0.0266913 -0.947624 0
M  V30 3279 H 298.741 0.688925 -3.44887 0
M  V30 3280 H 298.615 2.36347 -2.93973 0
M  V30 3281 H 301.002 2.20561 -1.96053 0
M  V30 3282 H 301.083 0.523627 -2.50383 0
M  V30 3283 H 300.727 1.30649 -4.90809 0
M  V30 3284 H 300.657 2.99146 -4.33381 0
M  V30 3285 H 303.148 1.80232 -3.32152 0
M  V30 3286 H 303.461 3.12405 -7.0684 0
M  V30 3287 H 301.806 2.8159 -6.35399 0
M  V30 3288 H 304.997 2.1581 -4.15384 0
M  V30 3289 H 305.17 2.76102 -5.86235 0
M  V30 3290 N 298.576 1.31904 0.862503 0
M  V30 3291 C 299.825 1.21373 1.61094 0
M  V30 3292 C 300.138 -0.22504 1.94301 0
M  V30 3293 O 301.344 -0.452121 2.67709 0
M  V30 3294 C 299.8 2.12525 2.9045 0
M  V30 3295 C 299.408 3.61441 2.64697 0
M  V30 3296 C 301.152 2.10813 3.68454 0
M  V30 3297 C 299.059 4.44578 3.90006 0
M  V30 3298 H 297.989 0.450705 0.604468 0
M  V30 3299 H 300.64 1.56811 0.953027 0
M  V30 3300 H 299.022 1.69994 3.57656 0
M  V30 3301 H 300.196 4.12264 2.05851 0
M  V30 3302 H 298.511 3.65205 2.00036 0
M  V30 3303 H 301.108 2.70167 4.61426 0
M  V30 3304 H 301.451 1.09713 4.01583 0
M  V30 3305 H 301.984 2.51583 3.08141 0
M  V30 3306 H 298.723 5.46461 3.62023 0
M  V30 3307 H 298.243 3.98508 4.48276 0
M  V30 3308 H 299.922 4.57176 4.5782 0
M  V30 3309 N 300.054 -1.07777 1.14986 0
M  V30 3310 C 301.3 -1.80557 0.923422 0
M  V30 3311 C 301.633 -1.86298 -0.548337 0
M  V30 3312 O 300.908 -1.34354 -1.40639 0
M  V30 3313 C 301.191 -3.25839 1.53299 0
M  V30 3314 C 301.044 -3.28269 3.07505 0
M  V30 3315 C 302.363 -4.22991 1.21518 0
M  V30 3316 H 299.482 -0.655493 0.336894 0
M  V30 3317 H 302.124 -1.26144 1.42083 0
M  V30 3318 H 300.274 -3.72306 1.10999 0
M  V30 3319 H 301.946 -2.90079 3.58681 0
M  V30 3320 H 300.189 -2.67355 3.4162 0
M  V30 3321 H 300.86 -4.30691 3.45266 0
M  V30 3322 H 303.336 -3.84894 1.581 0
M  V30 3323 H 302.212 -5.22945 1.66793 0
M  V30 3324 H 302.473 -4.41904 0.131505 0
M  V30 3325 N 301.532 -0.945985 -1.26051 0
M  V30 3326 C 302.442 -0.465633 -2.29933 0
M  V30 3327 C 303.458 0.462761 -1.67733 0
M  V30 3328 O 304.634 0.341118 -1.9849 0
M  V30 3329 C 301.699 0.256994 -3.45746 0
M  V30 3330 C 300.76 -0.708549 -4.23412 0
M  V30 3331 C 299.993 -0.0203135 -5.33696 0
M  V30 3332 O 300.216 1.19571 -5.57726 0
M  V30 3333 O 299.15 -0.701459 -5.97799 0
M  V30 3334 H 302.976 -1.32866 -2.73094 0
M  V30 3335 H 300.561 -0.712071 -1.31339 0
M  V30 3336 H 302.443 0.663852 -4.16138 0
M  V30 3337 H 301.118 1.09533 -3.04605 0
M  V30 3338 H 300.025 -1.16545 -3.55483 0
M  V30 3339 H 301.358 -1.51465 -4.68315 0
M  V30 3340 N 303.011 1.40521 -0.713556 0
M  V30 3341 C 303.941 2.33381 -0.0743864 0
M  V30 3342 C 304.922 1.52784 0.747735 0
M  V30 3343 O 306.107 1.81258 0.697071 0
M  V30 3344 C 303.237 3.36748 0.849598 0
M  V30 3345 C 302.191 4.27793 0.133247 0
M  V30 3346 C 301.517 5.21679 1.17281 0
M  V30 3347 C 302.817 5.12415 -1.01134 0
M  V30 3348 H 304.511 2.87081 -0.850007 0
M  V30 3349 H 302.057 1.38034 -0.410201 0
M  V30 3350 H 304.01 4.00648 1.30612 0
M  V30 3351 H 302.734 2.81439 1.65709 0
M  V30 3352 H 301.393 3.65342 -0.303426 0
M  V30 3353 H 301.041 4.62677 1.9733 0
M  V30 3354 H 300.741 5.83435 0.698397 0
M  V30 3355 H 302.265 5.88456 1.62947 0
M  V30 3356 H 303.679 5.69781 -0.634274 0
M  V30 3357 H 302.076 5.83203 -1.41399 0
M  V30 3358 H 303.146 4.48514 -1.84292 0
M  V30 3359 N 304.489 0.459591 1.5075 0
M  V30 3360 C 305.437 -0.354678 2.2988 0
M  V30 3361 C 306.431 -1.00086 1.36672 0
M  V30 3362 O 307.637 -0.933277 1.53915 0
M  V30 3363 H 304.012 -0.13321 0.740107 0
M  V30 3364 H 305.983 0.333269 2.96533 0
M  V30 3365 C 304.732 -1.43073 3.169 0
M  V30 3366 H 304.055 -0.942882 3.88523 0
M  V30 3367 H 305.495 -1.97328 3.75284 0
M  V30 3368 C 303.954 -2.42633 2.33732 0
M  V30 3369 O 304.484 -3.47658 2.01238 0
M  V30 3370 N 302.69 -2.14066 1.9653 0
M  V30 3371 H 302.237 -1.28685 2.23155 0
M  V30 3372 H 302.195 -2.80917 1.41185 0
M  V30 3373 N 305.967 -1.56429 0.191757 0
M  V30 3374 C 307.216 -1.9666 -0.448088 0
M  V30 3375 C 307.529 -1.08136 -1.62991 0
M  V30 3376 O 308.735 -1.38135 -2.33733 0
M  V30 3377 C 307.191 -3.49753 -0.848585 0
M  V30 3378 C 306.799 -4.46935 0.308764 0
M  V30 3379 C 308.543 -3.9876 -1.4557 0
M  V30 3380 C 306.45 -5.91293 -0.112506 0
M  V30 3381 H 305.38 -0.734312 -0.171179 0
M  V30 3382 H 308.031 -1.81301 0.283242 0
M  V30 3383 H 306.413 -3.60604 -1.63649 0
M  V30 3384 H 307.587 -4.47813 1.08627 0
M  V30 3385 H 305.902 -4.08102 0.827158 0
M  V30 3386 H 308.499 -5.04086 -1.78328 0
M  V30 3387 H 308.842 -3.42875 -2.36099 0
M  V30 3388 H 309.375 -3.9101 -0.731836 0
M  V30 3389 H 306.114 -6.51097 0.758514 0
M  V30 3390 H 305.634 -5.93676 -0.854941 0
M  V30 3391 H 307.313 -6.44663 -0.549448 0
M  V30 3392 N 307.445 0.0818655 -1.57387 0
M  V30 3393 C 308.375 1.09885 -2.06028 0
M  V30 3394 C 309.356 1.4098 -0.951774 0
M  V30 3395 O 310.541 1.50781 -1.22387 0
M  V30 3396 C 307.671 2.4151 -2.4958 0
M  V30 3397 C 306.625 2.24792 -3.64215 0
M  V30 3398 C 305.951 3.61712 -3.93787 0
M  V30 3399 C 307.251 1.67749 -4.94629 0
M  V30 3400 H 308.945 0.694128 -2.91243 0
M  V30 3401 H 306.491 0.332448 -1.4011 0
M  V30 3402 H 308.444 3.12939 -2.82219 0
M  V30 3403 H 307.168 2.83943 -1.61381 0
M  V30 3404 H 305.827 1.55807 -3.31843 0
M  V30 3405 H 305.475 4.01697 -3.02735 0
M  V30 3406 H 305.175 3.51368 -4.70971 0
M  V30 3407 H 306.699 4.34587 -4.28913 0
M  V30 3408 H 308.113 2.29032 -5.25564 0
M  V30 3409 H 306.51 1.68128 -5.76067 0
M  V30 3410 H 307.58 0.638059 -4.80684 0
M  V30 3411 N 308.923 1.53595 0.353017 0
M  V30 3412 C 310.171 1.70049 1.09215 0
M  V30 3413 C 310.492 0.461406 1.89463 0
M  V30 3414 O 309.762 -0.524633 1.88744 0
M  V30 3415 H 308.342 0.626912 0.40619 0
M  V30 3416 H 311.004 1.90822 0.396585 0
M  V30 3417 H 310.1 2.56718 1.77488 0
M  V30 3418 N 310.401 -0.613514 1.45168 0
M  V30 3419 C 311.648 -1.37268 1.48875 0
M  V30 3420 C 311.976 -1.94077 0.128161 0
M  V30 3421 O 311.231 -1.75178 -0.872416 0
M  V30 3422 C 311.53 -2.54347 2.51083 0
M  V30 3423 C 311.196 -2.1572 3.95949 0
M  V30 3424 C 309.858 -2.04899 4.35396 0
M  V30 3425 C 312.21 -1.85485 4.87078 0
M  V30 3426 C 309.538 -1.62057 5.63875 0
M  V30 3427 C 311.89 -1.4413 6.15962 0
M  V30 3428 C 310.554 -1.31863 6.54346 0
M  V30 3429 H 309.824 -0.502299 0.544773 0
M  V30 3430 H 312.471 -0.694021 1.78481 0
M  V30 3431 H 310.776 -3.27524 2.15024 0
M  V30 3432 H 312.473 -3.12577 2.51191 0
M  V30 3433 H 309.063 -2.25066 3.64751 0
M  V30 3434 H 313.247 -1.92745 4.57343 0
M  V30 3435 H 308.503 -1.51177 5.92415 0
M  V30 3436 H 312.677 -1.19778 6.86022 0
M  V30 3437 H 310.304 -0.984392 7.538 0
M  V30 3438 N 311.879 -1.3236 -0.855495 0
M  V30 3439 C 312.809 -1.23833 -1.97958 0
M  V30 3440 C 313.79 -0.122361 -1.69659 0
M  V30 3441 O 314.975 -0.30939 -1.9172 0
M  V30 3442 C 312.105 -0.959772 -3.33775 0
M  V30 3443 C 311.059 -2.03689 -3.76424 0
M  V30 3444 C 310.385 -1.61075 -5.09862 0
M  V30 3445 C 311.685 -3.4518 -3.9198 0
M  V30 3446 H 313.379 -2.1788 -2.0535 0
M  V30 3447 H 310.925 -1.04891 -0.986605 0
M  V30 3448 H 312.878 -0.886678 -4.11966 0
M  V30 3449 H 311.602 0.0163404 -3.26596 0
M  V30 3450 H 310.261 -2.10012 -3.00484 0
M  V30 3451 H 309.909 -0.622107 -4.99138 0
M  V30 3452 H 309.609 -2.33143 -5.39368 0
M  V30 3453 H 311.133 -1.55201 -5.90546 0
M  V30 3454 H 312.547 -3.4145 -4.60526 0
M  V30 3455 H 310.944 -4.1559 -4.32903 0
M  V30 3456 H 312.014 -3.84903 -2.94919 0
M  V30 3457 N 313.357 1.07166 -1.15556 0
M  V30 3458 C 314.287 2.16403 -0.877046 0
M  V30 3459 C 315.268 1.69217 0.173111 0
M  V30 3460 O 316.453 1.94181 0.027084 0
M  V30 3461 C 313.583 3.45349 -0.367632 0
M  V30 3462 C 312.537 4.05995 -1.35468 0
M  V30 3463 C 311.863 5.30045 -0.704038 0
M  V30 3464 C 313.163 4.45804 -2.72132 0
M  V30 3465 H 314.857 2.39959 -1.79053 0
M  V30 3466 H 312.403 1.15325 -0.862331 0
M  V30 3467 H 314.356 4.21095 -0.160317 0
M  V30 3468 H 313.08 3.21385 0.581326 0
M  V30 3469 H 311.739 3.32296 -1.54839 0
M  V30 3470 H 311.387 5.02373 0.251128 0
M  V30 3471 H 311.087 5.71579 -1.36277 0
M  V30 3472 H 312.611 6.08495 -0.50654 0
M  V30 3473 H 314.025 5.12671 -2.56595 0
M  V30 3474 H 312.422 4.98296 -3.34397 0
M  V30 3475 H 313.492 3.57083 -3.28054 0
M  V30 3476 N 314.835 0.952656 1.25548 0
M  V30 3477 C 316.246 0.647392 1.75116 0
M  V30 3478 C 316.597 -0.837274 1.77438 0
M  V30 3479 O 315.722 -1.65525 1.39393 0
M  V30 3480 C 316.317 1.16845 3.18014 0
M  V30 3481 C 314.876 0.913382 3.6515 0
M  V30 3482 C 314.023 1.31265 2.44264 0
M  V30 3483 H 316.974 1.12968 1.11462 0
M  V30 3484 H 316.995 0.527606 3.76824 0
M  V30 3485 H 316.507 2.24902 3.16292 0
M  V30 3486 H 314.608 -0.152316 3.72289 0
M  V30 3487 H 314.721 1.54845 4.53387 0
M  V30 3488 H 313.085 0.731028 2.43984 0
M  V30 3489 H 313.868 2.40239 2.45234 0
M  V30 3490 N 316.313 -1.40141 0.720998 0
M  V30 3491 C 317.243 -2.33339 0.0867621 0
M  V30 3492 C 318.224 -1.53178 -0.739622 0
M  V30 3493 O 319.409 -1.81625 -0.687449 0
M  V30 3494 C 316.539 -3.37194 -0.831728 0
M  V30 3495 C 315.493 -4.27857 -0.110558 0
M  V30 3496 C 314.819 -5.22294 -1.14513 0
M  V30 3497 C 316.119 -5.11872 1.0385 0
M  V30 3498 H 317.813 -2.86626 0.865219 0
M  V30 3499 H 315.359 -1.37814 0.417516 0
M  V30 3500 H 317.312 -4.01335 -1.28485 0
M  V30 3501 H 316.036 -2.82314 -1.64214 0
M  V30 3502 H 314.695 -3.65176 0.322797 0
M  V30 3503 H 314.343 -4.63717 -1.94874 0
M  V30 3504 H 314.043 -5.83797 -0.667446 0
M  V30 3505 H 315.567 -5.89312 -1.59824 0
M  V30 3506 H 316.981 -5.69436 0.664482 0
M  V30 3507 H 315.378 -5.82445 1.4449 0
M  V30 3508 H 316.448 -4.4753 1.86668 0
M  V30 3509 N 317.792 -0.46758 -1.50504 0
M  V30 3510 C 318.755 0.317059 -2.26996 0
M  V30 3511 C 319.755 0.923513 -1.31635 0
M  V30 3512 O 320.945 0.793239 -1.55091 0
M  V30 3513 C 318.077 1.45134 -3.08462 0
M  V30 3514 H 319.27 -0.353723 -2.97807 0
M  V30 3515 H 316.823 -0.221545 -1.54722 0
M  V30 3516 H 317.558 2.15728 -2.4214 0
M  V30 3517 H 317.343 1.02232 -3.78538 0
M  V30 3518 H 318.833 2.00493 -3.66323 0
M  V30 3519 N 319.27 1.56325 -0.20005 0
M  V30 3520 C 320.233 2.18084 0.705132 0
M  V30 3521 C 321.233 1.13666 1.1374 0
M  V30 3522 O 322.423 1.39023 1.04968 0
M  V30 3523 C 319.555 2.78689 1.96329 0
M  V30 3524 H 320.748 2.99435 0.167023 0
M  V30 3525 H 318.301 1.56221 0.0495725 0
M  V30 3526 H 319.036 2.0115 2.5438 0
M  V30 3527 H 318.821 3.55133 1.66202 0
M  V30 3528 H 320.311 3.26096 2.60866 0
M  V30 3529 N 320.748 -0.0735177 1.57428 0
M  V30 3530 C 321.997 -0.771809 1.86349 0
M  V30 3531 C 322.31 -1.78828 0.792452 0
M  V30 3532 O 323.516 -2.53602 0.96945 0
M  V30 3533 C 321.972 -1.42358 3.30548 0
M  V30 3534 C 321.58 -0.445761 4.45777 0
M  V30 3535 C 323.324 -2.10434 3.6867 0
M  V30 3536 C 321.231 -1.10335 5.81016 0
M  V30 3537 H 320.161 -0.291999 0.695164 0
M  V30 3538 H 322.812 -0.0250749 1.83483 0
M  V30 3539 H 321.194 -2.21852 3.28021 0
M  V30 3540 H 322.368 0.319239 4.59693 0
M  V30 3541 H 320.683 0.130457 4.16196 0
M  V30 3542 H 323.28 -2.60405 4.67004 0
M  V30 3543 H 323.623 -2.90298 2.98383 0
M  V30 3544 H 324.156 -1.37773 3.7318 0
M  V30 3545 H 320.895 -0.345061 6.54591 0
M  V30 3546 H 320.415 -1.83925 5.70904 0
M  V30 3547 H 322.094 -1.62367 6.26295 0
M  V30 3548 N 322.226 -1.5378 -0.344866 0
M  V30 3549 C 323.472 -1.71216 -1.08687 0
M  V30 3550 C 323.805 -0.473281 -1.88345 0
M  V30 3551 O 323.08 0.52968 -1.87149 0
M  V30 3552 C 323.363 -2.97486 -2.02914 0
M  V30 3553 C 323.216 -4.31579 -1.26727 0
M  V30 3554 C 324.535 -3.19422 -3.0275 0
M  V30 3555 H 321.654 -0.62301 -0.393735 0
M  V30 3556 H 324.296 -1.8645 -0.365563 0
M  V30 3557 H 322.446 -2.84629 -2.64421 0
M  V30 3558 H 324.118 -4.56284 -0.67845 0
M  V30 3559 H 322.361 -4.30049 -0.569273 0
M  V30 3560 H 323.032 -5.16106 -1.95803 0
M  V30 3561 H 325.508 -3.316 -2.51357 0
M  V30 3562 H 324.384 -4.09169 -3.65885 0
M  V30 3563 H 324.645 -2.35656 -3.74057 0
M  V30 3564 N 323.704 0.605807 -1.45491 0
M  V30 3565 C 324.951 1.36476 -1.49601 0
M  V30 3566 C 325.279 1.94007 -0.138452 0
M  V30 3567 O 324.534 1.75638 0.863114 0
M  V30 3568 C 324.833 2.53012 -2.52428 0
M  V30 3569 C 324.499 2.13617 -3.97087 0
M  V30 3570 C 323.161 2.02587 -4.36477 0
M  V30 3571 C 325.513 1.82899 -4.88055 0
M  V30 3572 C 322.841 1.59064 -5.64726 0
M  V30 3573 C 325.193 1.40861 -6.16718 0
M  V30 3574 C 323.857 1.28391 -6.55036 0
M  V30 3575 H 323.127 0.499402 -0.547429 0
M  V30 3576 H 325.774 0.684546 -1.78847 0
M  V30 3577 H 324.079 3.26379 -2.16758 0
M  V30 3578 H 325.776 3.1124 -2.52845 0
M  V30 3579 H 322.366 2.23129 -3.65939 0
M  V30 3580 H 326.55 1.90317 -4.58359 0
M  V30 3581 H 321.806 1.48034 -5.93208 0
M  V30 3582 H 325.98 1.16138 -6.86648 0
M  V30 3583 H 323.607 0.944403 -7.54311 0
M  V30 3584 N 325.182 1.32811 0.848464 0
M  V30 3585 C 326.429 1.23724 1.60308 0
M  V30 3586 C 326.757 -0.1994 1.93475 0
M  V30 3587 O 326.012 -1.15406 1.5805 0
M  V30 3588 C 326.311 2.04831 2.92881 0
M  V30 3589 C 325.977 3.54125 2.79117 0
M  V30 3590 C 324.639 3.94829 2.7507 0
M  V30 3591 C 326.991 4.49036 2.64606 0
M  V30 3592 C 324.319 5.28675 2.544 0
M  V30 3593 C 326.671 5.83033 2.4547 0
M  V30 3594 C 325.335 6.22931 2.39819 0
M  V30 3595 H 324.605 0.452737 0.586609 0
M  V30 3596 H 327.252 1.64301 0.983743 0
M  V30 3597 H 325.557 1.57001 3.58968 0
M  V30 3598 H 327.254 1.95164 3.50303 0
M  V30 3599 H 323.844 3.21801 2.83094 0
M  V30 3600 H 328.028 4.18505 2.66772 0
M  V30 3601 H 323.284 5.58637 2.48465 0
M  V30 3602 H 327.458 6.56186 2.33222 0
M  V30 3603 H 325.085 7.26584 2.23562 0
M  V30 3604 N 326.66 -1.06551 1.16123 0
M  V30 3605 C 327.608 -2.16063 0.861371 0
M  V30 3606 C 328.602 -1.6856 -0.168517 0
M  V30 3607 O 329.808 -1.79986 -0.0227579 0
M  V30 3608 H 326.183 -0.705278 0.260934 0
M  V30 3609 H 328.154 -2.38567 1.79244 0
M  V30 3610 C 326.903 -3.45661 0.376018 0
M  V30 3611 H 326.226 -3.82604 1.15992 0
M  V30 3612 H 327.666 -4.23504 0.204951 0
M  V30 3613 C 326.125 -3.24546 -0.903954 0
M  V30 3614 O 326.655 -3.49865 -1.97377 0
M  V30 3615 N 324.861 -2.77992 -0.846679 0
M  V30 3616 H 324.408 -2.57589 0.0241017 0
M  V30 3617 H 324.366 -2.64244 -1.70359 0
M  V30 3618 N 328.138 -0.959301 -1.25041 0
M  V30 3619 C 329.368 -0.63303 -1.96663 0
M  V30 3620 C 329.776 0.800031 -1.71453 0
M  V30 3621 O 329.119 1.54736 -0.99008 0
M  V30 3622 C 329.181 -0.817523 -3.50081 0
M  V30 3623 C 328.845 -2.22863 -3.98975 0
M  V30 3624 C 329.842 -3.20569 -4.09306 0
M  V30 3625 C 327.527 -2.55407 -4.32519 0
M  V30 3626 C 329.521 -4.4891 -4.52503 0
M  V30 3627 C 327.208 -3.83976 -4.754 0
M  V30 3628 C 328.206 -4.8054 -4.85356 0
M  V30 3629 O 327.894 -6.06817 -5.27284 0
M  V30 3630 H 327.626 -0.235866 -0.633516 0
M  V30 3631 H 330.18 -1.2874 -1.60047 0
M  V30 3632 H 328.41 -0.105992 -3.86555 0
M  V30 3633 H 330.099 -0.491604 -4.02912 0
M  V30 3634 H 330.865 -2.96753 -3.83618 0
M  V30 3635 H 326.744 -1.8097 -4.23994 0
M  V30 3636 H 330.288 -5.24283 -4.60188 0
M  V30 3637 H 326.185 -4.07596 -5.00535 0
M  V30 3638 H 326.953 -6.10262 -5.45457 0
M  V30 3639 N 329.616 1.39756 -0.72842 0
M  V30 3640 C 330.566 2.2792 -0.0603424 0
M  V30 3641 C 331.55 1.43922 0.719399 0
M  V30 3642 O 332.742 1.66895 0.589489 0
M  V30 3643 C 329.871 3.32582 0.851104 0
M  V30 3644 C 328.957 4.24049 0.0658641 0
M  V30 3645 N 329.348 4.96653 -0.957578 0
M  V30 3646 C 327.646 4.45013 0.296509 0
M  V30 3647 C 328.347 5.63836 -1.43052 0
M  V30 3648 N 327.323 5.38397 -0.750315 0
M  V30 3649 H 331.125 2.81504 -0.84455 0
M  V30 3650 H 328.639 1.5236 -0.562155 0
M  V30 3651 H 330.636 3.94603 1.34514 0
M  V30 3652 H 329.296 2.80558 1.63454 0
M  V30 3653 H 330.307 5.00297 -1.33877 0
M  V30 3654 H 326.984 4.03943 1.05527 0
M  V30 3655 H 328.374 6.31974 -2.28163 0
M  V30 3656 N 331.094 0.475555 1.50254 0
M  V30 3657 C 332.343 -0.0795996 2.01543 0
M  V30 3658 C 332.656 -1.4038 1.36209 0
M  V30 3659 O 333.862 -2.04415 1.7868 0
M  V30 3660 C 332.318 -0.192363 3.59386 0
M  V30 3661 C 331.926 1.12367 4.33679 0
M  V30 3662 C 333.67 -0.699238 4.18701 0
M  V30 3663 C 331.577 0.974453 5.83317 0
M  V30 3664 H 330.507 -0.0335228 0.753254 0
M  V30 3665 H 333.158 0.611128 1.73025 0
M  V30 3666 H 331.54 -0.946974 3.84511 0
M  V30 3667 H 332.714 1.88958 4.20276 0
M  V30 3668 H 331.029 1.562 3.85993 0
M  V30 3669 H 333.626 -0.827978 5.28251 0
M  V30 3670 H 333.969 -1.69171 3.80377 0
M  V30 3671 H 334.502 -0.00188807 3.978 0
M  V30 3672 H 331.241 1.94042 6.26121 0
M  V30 3673 H 330.761 0.248998 5.99283 0
M  V30 3674 H 332.44 0.642867 6.43798 0
M  V30 3675 N 332.573 -1.56217 0.208337 0
M  V30 3676 C 333.503 -2.22694 -0.702116 0
M  V30 3677 C 334.484 -1.19432 -1.2112 0
M  V30 3678 O 335.669 -1.47978 -1.25762 0
M  V30 3679 C 332.799 -2.8966 -1.9161 0
M  V30 3680 C 331.753 -3.9928 -1.5414 0
M  V30 3681 C 331.079 -4.53476 -2.83308 0
M  V30 3682 C 332.379 -5.17012 -0.741339 0
M  V30 3683 H 334.073 -2.99034 -0.147898 0
M  V30 3684 H 331.619 -1.43831 -0.0696951 0
M  V30 3685 H 333.572 -3.34852 -2.55836 0
M  V30 3686 H 332.296 -2.10746 -2.49507 0
M  V30 3687 H 330.955 -3.54799 -0.922668 0
M  V30 3688 H 330.603 -3.71308 -3.39322 0
M  V30 3689 H 330.303 -5.27451 -2.58976 0
M  V30 3690 H 331.827 -5.01378 -3.485 0
M  V30 3691 H 333.241 -5.58667 -1.28699 0
M  V30 3692 H 331.638 -5.97137 -0.595627 0
M  V30 3693 H 332.708 -4.8423 0.254851 0
M  V30 3694 N 334.051 0.0651679 -1.57465 0
M  V30 3695 C 335.014 1.06117 -2.03155 0
M  V30 3696 C 336.014 1.31204 -0.929632 0
M  V30 3697 O 337.204 1.26813 -1.19432 0
M  V30 3698 C 334.336 2.4032 -2.41783 0
M  V30 3699 H 335.529 0.667231 -2.92383 0
M  V30 3700 H 333.082 0.311075 -1.53173 0
M  V30 3701 H 333.817 2.84532 -1.55601 0
M  V30 3702 H 333.602 2.23451 -3.22199 0
M  V30 3703 H 335.092 3.11898 -2.77685 0
M  V30 3704 N 335.529 1.53961 0.336706 0
M  V30 3705 C 336.754 1.75797 1.10046 0
M  V30 3706 C 337.179 0.498985 1.81361 0
M  V30 3707 O 336.537 -0.548769 1.72795 0
M  V30 3708 C 336.585 2.94257 2.08436 0
M  V30 3709 O 335.689 2.64883 3.16087 0
M  V30 3710 H 335.03 0.582936 0.317934 0
M  V30 3711 H 337.56 2.00945 0.38501 0
M  V30 3712 H 337.57 3.21237 2.51537 0
M  V30 3713 H 336.245 3.85564 1.55927 0
M  V30 3714 H 334.822 2.48812 2.77753 0
M  V30 3715 N 337.007 -0.598083 1.45811 0
M  V30 3716 C 337.937 -1.71873 1.58057 0
M  V30 3717 C 338.918 -1.64533 0.431615 0
M  V30 3718 O 340.103 -1.82787 0.65595 0
M  V30 3719 C 337.233 -3.10495 1.55597 0
M  V30 3720 C 336.187 -3.32654 2.69305 0
M  V30 3721 C 335.513 -4.71646 2.51902 0
M  V30 3722 C 336.813 -3.21981 4.11248 0
M  V30 3723 H 338.507 -1.61881 2.51863 0
M  V30 3724 H 336.053 -0.777372 1.21214 0
M  V30 3725 H 338.006 -3.88699 1.6276 0
M  V30 3726 H 336.73 -3.2135 0.583255 0
M  V30 3727 H 335.389 -2.56843 2.61586 0
M  V30 3728 H 335.037 -4.79246 1.52748 0
M  V30 3729 H 334.737 -4.87426 3.2816 0
M  V30 3730 H 336.261 -5.52038 2.60933 0
M  V30 3731 H 337.675 -3.90049 4.20161 0
M  V30 3732 H 336.072 -3.49289 4.87972 0
M  V30 3733 H 337.142 -2.1928 4.32486 0
M  V30 3734 N 338.485 -1.33259 -0.841409 0
M  V30 3735 C 339.901 -1.12538 -1.13169 0
M  V30 3736 C 340.101 0.0854037 -2.01319 0
M  V30 3737 O 339.157 0.766417 -2.40587 0
M  V30 3738 C 340.47 -2.41156 -1.79623 0
M  V30 3739 C 342.018 -2.47038 -1.922 0
M  V30 3740 C 342.493 -3.7561 -2.6207 0
M  V30 3741 N 343.984 -3.76667 -2.69585 0
M  V30 3742 C 344.719 -4.72861 -3.2433 0
M  V30 3743 N 344.215 -5.79428 -3.79783 0
M  V30 3744 N 346.008 -4.6034 -3.22558 0
M  V30 3745 H 338.159 -2.10868 -0.254676 0
M  V30 3746 H 340.422 -0.931615 -0.175493 0
M  V30 3747 H 340.128 -3.29747 -1.22311 0
M  V30 3748 H 340.002 -2.53114 -2.79666 0
M  V30 3749 H 342.389 -1.58898 -2.48667 0
M  V30 3750 H 342.47 -2.39022 -0.911148 0
M  V30 3751 H 342.114 -4.64131 -2.06263 0
M  V30 3752 H 342.044 -3.80902 -3.63622 0
M  V30 3753 H 344.535 -2.99648 -2.30259 0
M  V30 3754 H 344.848 -6.48867 -4.19752 0
M  V30 3755 H 343.193 -5.83166 -3.78078 0
M  V30 3756 H 346.384 -3.76244 -2.78492 0
M  V30 3757 H 346.557 -5.35478 -3.64921 0
M  V30 3758 N 339.963 1.05934 -1.16686 0
M  V30 3759 C 341.191 1.8249 -0.974929 0
M  V30 3760 C 341.606 1.82679 0.476861 0
M  V30 3761 O 340.963 1.2486 1.33103 0
M  V30 3762 C 341.014 3.28943 -1.49929 0
M  V30 3763 O 340.735 3.28886 -2.89423 0
M  V30 3764 C 342.236 4.22215 -1.35089 0
M  V30 3765 H 339.456 0.575295 -0.345365 0
M  V30 3766 H 342 1.33631 -1.548 0
M  V30 3767 H 340.155 3.751 -0.968423 0
M  V30 3768 H 340.569 4.20493 -3.13506 0
M  V30 3769 H 342.043 5.22987 -1.76603 0
M  V30 3770 H 342.52 4.38195 -0.296935 0
M  V30 3771 H 343.126 3.81907 -1.87155 0
M  V30 3772 N 341.441 0.965919 1.2453 0
M  V30 3773 C 342.857 0.67216 1.44756 0
M  V30 3774 C 343.057 -0.766609 1.86347 0
M  V30 3775 O 342.113 -1.5407 2.00047 0
M  V30 3776 C 343.426 1.65473 2.51076 0
M  V30 3777 C 344.974 1.66716 2.64905 0
M  V30 3778 C 345.449 2.63766 3.74421 0
M  V30 3779 N 346.94 2.62198 3.81846 0
M  V30 3780 C 347.675 3.33966 4.66106 0
M  V30 3781 N 347.171 4.15245 5.54566 0
M  V30 3782 N 348.964 3.22799 4.60171 0
M  V30 3783 H 341.115 1.89553 0.958293 0
M  V30 3784 H 343.378 0.815979 0.482579 0
M  V30 3785 H 343.084 2.68296 2.27399 0
M  V30 3786 H 342.958 1.4261 3.49202 0
M  V30 3787 H 345.345 0.646057 2.87941 0
M  V30 3788 H 345.426 1.93642 1.67142 0
M  V30 3789 H 345.07 3.6601 3.52135 0
M  V30 3790 H 345 2.34121 4.71694 0
M  V30 3791 H 347.491 2.032 3.18619 0
M  V30 3792 H 347.804 4.66898 6.15814 0
M  V30 3793 H 346.149 4.1934 5.54237 0
M  V30 3794 H 349.34 2.58764 3.90075 0
M  V30 3795 H 349.513 3.78994 5.25612 0
M  V30 3796 N 342.919 -1.39368 0.735821 0
M  V30 3797 C 343.829 -2.34395 0.0979693 0
M  V30 3798 C 344.845 -1.58361 -0.720968 0
M  V30 3799 O 346.021 -1.90648 -0.649245 0
M  V30 3800 C 343.086 -3.37393 -0.797916 0
M  V30 3801 C 342.147 -4.29287 0.0333662 0
M  V30 3802 C 341.38 -5.27365 -0.819854 0
M  V30 3803 O 341.603 -5.31959 -2.05855 0
M  V30 3804 O 340.537 -6.01389 -0.248079 0
M  V30 3805 H 344.363 -2.90601 0.882315 0
M  V30 3806 H 341.948 -1.40909 0.4965 0
M  V30 3807 H 343.83 -4.00505 -1.31048 0
M  V30 3808 H 342.505 -2.83571 -1.56106 0
M  V30 3809 H 341.412 -3.69395 0.591475 0
M  V30 3810 H 342.745 -4.86317 0.758752 0
M  V30 3811 N 344.397 -0.483516 -1.5 0
M  V30 3812 C 345.307 0.309172 -2.32554 0
M  V30 3813 C 346.323 0.984159 -1.43493 0
M  V30 3814 O 347.499 0.969399 -1.76535 0
M  V30 3815 C 344.564 1.36979 -3.18493 0
M  V30 3816 C 343.625 0.710095 -4.23387 0
M  V30 3817 C 342.858 1.72018 -5.05218 0
M  V30 3818 O 343.081 2.94813 -4.88305 0
M  V30 3819 O 342.015 1.28515 -5.8802 0
M  V30 3820 H 345.841 -0.366064 -3.01486 0
M  V30 3821 H 343.426 -0.24514 -1.47375 0
M  V30 3822 H 345.308 1.98385 -3.71781 0
M  V30 3823 H 343.983 2.02828 -2.52275 0
M  V30 3824 H 342.89 0.0567539 -3.74057 0
M  V30 3825 H 344.223 0.0943557 -4.9211 0
M  V30 3826 N 345.875 1.56104 -0.216619 0
M  V30 3827 C 347.121 1.98466 0.417033 0
M  V30 3828 C 347.454 1.10403 1.59765 0
M  V30 3829 O 346.729 0.160632 1.93836 0
M  V30 3830 C 347.012 3.49769 0.85637 0
M  V30 3831 C 346.865 4.48606 -0.327546 0
M  V30 3832 C 348.184 4.05339 1.7143 0
M  V30 3833 H 345.303 0.721551 0.150112 0
M  V30 3834 H 347.945 1.87423 -0.311864 0
M  V30 3835 H 346.095 3.5931 1.47745 0
M  V30 3836 H 347.767 4.5108 -0.965618 0
M  V30 3837 H 346.01 4.22682 -0.975805 0
M  V30 3838 H 346.681 5.51995 0.0227149 0
M  V30 3839 H 349.157 3.98712 1.19031 0
M  V30 3840 H 348.033 5.11533 1.99061 0
M  V30 3841 H 348.294 3.51918 2.67593 0
M  V30 3842 N 347.353 -0.0568162 1.57498 0
M  V30 3843 C 348.578 -0.769402 1.92601 0
M  V30 3844 C 349.003 -1.69559 0.814336 0
M  V30 3845 O 348.361 -1.79811 -0.231903 0
M  V30 3846 C 348.409 -1.52634 3.26704 0
M  V30 3847 O 347.513 -2.63797 3.16994 0
M  V30 3848 H 346.854 -0.208909 0.63028 0
M  V30 3849 H 349.384 -0.0205798 2.0459 0
M  V30 3850 H 349.394 -1.90234 3.60936 0
M  V30 3851 H 348.069 -0.846875 4.07186 0
M  V30 3852 H 346.646 -2.28943 2.94346 0
M  V30 3853 N 348.832 -1.54138 -0.328536 0
M  V30 3854 C 350.248 -1.44736 -0.672574 0
M  V30 3855 C 350.448 -0.616217 -1.91846 0
M  V30 3856 O 349.504 -0.113067 -2.52247 0
M  V30 3857 C 350.817 -2.884 -0.851217 0
M  V30 3858 C 352.365 -2.98271 -0.948877 0
M  V30 3859 C 352.84 -4.43074 -1.15973 0
M  V30 3860 N 354.331 -4.46665 -1.22658 0
M  V30 3861 C 355.066 -5.55857 -1.40751 0
M  V30 3862 N 354.562 -6.75026 -1.5592 0
M  V30 3863 N 356.355 -5.43495 -1.4342 0
M  V30 3864 H 348.506 -2.06661 0.490421 0
M  V30 3865 H 350.769 -0.934812 0.157579 0
M  V30 3866 H 350.475 -3.51699 -0.00704236 0
M  V30 3867 H 350.349 -3.34225 -1.74853 0
M  V30 3868 H 352.736 -2.35102 -1.78356 0
M  V30 3869 H 352.817 -2.55785 -0.0281435 0
M  V30 3870 H 352.461 -5.06827 -0.329915 0
M  V30 3871 H 352.391 -4.83165 -2.09426 0
M  V30 3872 H 354.882 -3.60797 -1.124 0
M  V30 3873 H 355.195 -7.54004 -1.69404 0
M  V30 3874 H 353.54 -6.77944 -1.53027 0
M  V30 3875 H 356.731 -4.49349 -1.31162 0
M  V30 3876 H 356.904 -6.28649 -1.57178 0
M  V30 3877 N 350.31 0.590341 -1.46126 0
M  V30 3878 C 351.538 1.37504 -1.54597 0
M  V30 3879 C 351.953 1.87897 -0.184447 0
M  V30 3880 O 351.31 1.63192 0.816984 0
M  V30 3881 C 351.361 2.56779 -2.54454 0
M  V30 3882 O 351.082 2.08476 -3.85317 0
M  V30 3883 C 352.583 3.49427 -2.72792 0
M  V30 3884 H 349.803 0.420325 -0.523037 0
M  V30 3885 H 352.347 0.718383 -1.91467 0
M  V30 3886 H 350.502 3.1845 -2.20609 0
M  V30 3887 H 350.916 2.86097 -4.396 0
M  V30 3888 H 352.39 4.29619 -3.466 0
M  V30 3889 H 352.867 4.00876 -1.79429 0
M  V30 3890 H 353.473 2.93598 -3.07702 0
M  V30 3891 N 351.788 1.33704 0.83433 0
M  V30 3892 C 353.204 1.13137 1.12571 0
M  V30 3893 C 353.404 -0.0747261 2.01361 0
M  V30 3894 O 352.46 -0.753647 2.4099 0
M  V30 3895 C 353.773 2.42105 1.78342 0
M  V30 3896 C 355.321 2.48054 1.90888 0
M  V30 3897 C 355.796 3.76995 2.60075 0
M  V30 3898 N 357.287 3.78092 2.67584 0
M  V30 3899 C 358.022 4.74574 3.21818 0
M  V30 3900 N 357.518 5.81434 3.76705 0
M  V30 3901 N 359.311 4.62044 3.20112 0
M  V30 3902 H 351.462 2.11 0.243489 0
M  V30 3903 H 353.725 0.932532 0.17055 0
M  V30 3904 H 353.431 3.30391 1.20561 0
M  V30 3905 H 353.305 2.54594 2.7832 0
M  V30 3906 H 355.692 1.60215 2.47821 0
M  V30 3907 H 355.773 2.39502 0.898459 0
M  V30 3908 H 355.417 4.65219 2.03799 0
M  V30 3909 H 355.347 3.82825 3.61597 0
M  V30 3910 H 357.838 3.00865 2.28667 0
M  V30 3911 H 358.151 6.51084 4.16305 0
M  V30 3912 H 356.496 5.85163 3.7498 0
M  V30 3913 H 359.687 3.77716 2.76493 0
M  V30 3914 H 359.86 5.37406 3.62076 0
M  V30 3915 N 353.266 -1.05314 1.17247 0
M  V30 3916 C 354.506 -1.79869 0.970898 0
M  V30 3917 C 354.87 -1.85594 -0.491808 0
M  V30 3918 O 356.071 -2.56229 -0.812409 0
M  V30 3919 C 354.342 -3.19937 1.59295 0
M  V30 3920 S 355.901 -4.10986 1.53741 0
M  V30 3921 H 352.719 -0.61949 0.348931 0
M  V30 3922 H 355.321 -1.26368 1.49169 0
M  V30 3923 H 354.025 -3.13372 2.65003 0
M  V30 3924 H 353.556 -3.78515 1.07191 0
M  V30 3925 H 355.571 -4.93203 0.544537 0
M  V30 3926 N 354.744 -0.972509 -1.24016 0
M  V30 3927 C 355.992 -0.635776 -1.91839 0
M  V30 3928 C 356.313 0.832312 -1.76345 0
M  V30 3929 O 355.583 1.5946 -1.13795 0
M  V30 3930 H 354.163 -0.232157 -0.710009 0
M  V30 3931 H 356.825 -1.23462 -1.50809 0
M  V30 3932 H 355.921 -0.880545 -2.99421 0
M  V30 3933 N 356.222 1.38976 -0.743202 0
M  V30 3934 C 357.47 1.99948 -0.29417 0
M  V30 3935 C 357.791 1.59279 1.12495 0
M  V30 3936 O 357.061 0.844808 1.76748 0
M  V30 3937 H 355.641 0.739473 -0.105774 0
M  V30 3938 H 358.303 1.699 -0.954986 0
M  V30 3939 H 357.399 3.10142 -0.349056 0
M  V30 3940 N 357.7 0.491464 1.49741 0
M  V30 3941 C 359.116 0.146835 1.58923 0
M  V30 3942 C 359.316 -1.34804 1.49767 0
M  V30 3943 O 358.372 -2.12317 1.36667 0
M  V30 3944 C 359.685 0.715157 2.92072 0
M  V30 3945 C 361.233 0.680407 3.05515 0
M  V30 3946 C 361.708 1.22663 4.41269 0
M  V30 3947 N 363.199 1.18691 4.47735 0
M  V30 3948 C 363.934 1.57984 5.51207 0
M  V30 3949 N 363.43 2.04824 6.6183 0
M  V30 3950 N 365.223 1.49459 5.41866 0
M  V30 3951 H 357.374 1.46347 1.53936 0
M  V30 3952 H 359.637 0.606453 0.728642 0
M  V30 3953 H 359.343 1.76317 3.04311 0
M  V30 3954 H 359.217 0.17018 3.76816 0
M  V30 3955 H 361.604 -0.358743 2.92911 0
M  V30 3956 H 361.685 1.26242 2.22478 0
M  V30 3957 H 361.329 2.26451 4.54623 0
M  V30 3958 H 361.259 0.620637 5.2293 0
M  V30 3959 H 363.75 0.843605 3.68364 0
M  V30 3960 H 364.063 2.32901 7.3687 0
M  V30 3961 H 362.408 2.08791 6.62896 0
M  V30 3962 H 365.599 1.12692 4.54333 0
M  V30 3963 H 365.772 1.80406 6.22381 0
M  V30 3964 N 359.178 -1.55987 0.224894 0
M  V30 3965 C 360.125 -2.20436 -0.68385 0
M  V30 3966 C 361.095 -1.16102 -1.18783 0
M  V30 3967 O 362.28 -1.4447 -1.24632 0
M  V30 3968 C 359.42 -2.89076 -1.88491 0
M  V30 3969 C 358.533 -4.08012 -1.41951 0
M  V30 3970 C 357.668 -4.64426 -2.5784 0
M  V30 3971 C 356.707 -5.75656 -2.08053 0
M  V30 3972 N 355.844 -6.26347 -3.17227 0
M  V30 3973 H 360.684 -2.97727 -0.12754 0
M  V30 3974 H 358.221 -1.47011 -0.0511978 0
M  V30 3975 H 360.179 -3.27059 -2.59014 0
M  V30 3976 H 358.809 -2.14298 -2.41405 0
M  V30 3977 H 357.861 -3.75492 -0.609095 0
M  V30 3978 H 359.173 -4.88375 -1.01447 0
M  V30 3979 H 358.327 -5.04869 -3.3644 0
M  V30 3980 H 357.066 -3.83233 -3.01635 0
M  V30 3981 H 356.071 -5.34712 -1.27916 0
M  V30 3982 H 357.296 -6.58686 -1.65255 0
M  V30 3983 H 355.242 -5.48067 -3.60497 0
M  V30 3984 H 355.159 -7.01843 -2.80986 0
M  V30 3985 H 356.427 -6.71447 -3.95953 0
M  V30 3986 N 360.656 0.0484629 -1.57525 0
M  V30 3987 C 361.933 0.777447 -1.79486 0
M  V30 3988 C 362.313 1.94597 -0.818251 0
M  V30 3989 O 361.661 2.28047 0.143767 0
M  V30 3990 C 361.871 1.22864 -3.26658 0
M  V30 3991 C 363.219 1.65251 -3.91123 0
M  V30 3992 O 364.243 1.32372 -3.3069 0
M  V30 3993 O 363.102 2.26207 -4.97486 0
M  V30 3994 H 360.196 0.374357 -0.737419 0
M  V30 3995 H 362.742 0.0267359 -1.69679 0
M  V30 3996 H 361.514 0.393589 -3.89316 0
M  V30 3997 H 361.137 2.03996 -3.41279 0
M  V30 3998 N 362.134 1.5431 0.320358 0
M  V30 3999 C 363.359 1.76954 1.08175 0
M  V30 4000 C 363.784 0.518193 1.80821 0
M  V30 4001 O 363.142 -0.530411 1.73368 0
M  V30 4002 C 363.19 2.96451 2.05303 0
M  V30 4003 O 362.294 2.68221 3.13259 0
M  V30 4004 H 361.635 0.586275 0.311733 0
M  V30 4005 H 364.165 2.01342 0.363676 0
M  V30 4006 H 364.175 3.23887 2.48116 0
M  V30 4007 H 362.85 3.87196 1.51829 0
M  V30 4008 H 361.427 2.51744 2.75099 0
M  V30 4009 N 363.613 -0.582584 1.46437 0
M  V30 4010 C 364.56 -1.69164 1.5701 0
M  V30 4011 C 365.53 -1.60847 0.414403 0
M  V30 4012 O 366.715 -1.80058 0.631171 0
M  V30 4013 C 363.855 -3.075 1.56646 0
M  V30 4014 C 362.968 -3.2644 2.82951 0
M  V30 4015 C 362.103 -4.55026 2.7409 0
M  V30 4016 C 361.142 -4.6731 3.95333 0
M  V30 4017 N 360.279 -5.87221 3.84858 0
M  V30 4018 H 365.119 -1.59464 2.51744 0
M  V30 4019 H 362.656 -0.777186 1.24893 0
M  V30 4020 H 364.614 -3.8757 1.5442 0
M  V30 4021 H 363.244 -3.16096 0.654439 0
M  V30 4022 H 362.296 -2.39974 2.95155 0
M  V30 4023 H 363.608 -3.31385 3.72808 0
M  V30 4024 H 362.762 -5.43324 2.6997 0
M  V30 4025 H 361.501 -4.52519 1.81873 0
M  V30 4026 H 360.506 -3.77429 3.99784 0
M  V30 4027 H 361.731 -4.71595 4.88646 0
M  V30 4028 H 359.677 -5.85712 2.95427 0
M  V30 4029 H 359.594 -5.93435 4.6837 0
M  V30 4030 H 360.862 -6.7795 3.84713 0
M  V30 4031 N 365.091 -1.34144 -0.827227 0
M  V30 4032 C 366.319 -1.29325 -1.61501 0
M  V30 4033 C 366.734 0.13354 -1.88327 0
M  V30 4034 O 366.091 1.0793 -1.47164 0
M  V30 4035 C 366.142 -2.07746 -2.95844 0
M  V30 4036 O 365.863 -3.4486 -2.70191 0
M  V30 4037 C 367.364 -2.10273 -3.90256 0
M  V30 4038 H 364.584 -0.445069 -0.50215 0
M  V30 4039 H 367.128 -1.76693 -1.02955 0
M  V30 4040 H 365.283 -1.6403 -3.5096 0
M  V30 4041 H 365.697 -3.85345 -3.55822 0
M  V30 4042 H 367.171 -2.69575 -4.81698 0
M  V30 4043 H 367.648 -1.096 -4.25305 0
M  V30 4044 H 368.254 -2.54059 -3.41078 0
M  V30 4045 N 366.569 1.04691 -1.17803 0
M  V30 4046 C 367.797 1.81446 -0.99423 0
M  V30 4047 C 368.212 1.83174 0.457459 0
M  V30 4048 O 367.569 1.26265 1.31771 0
M  V30 4049 C 367.62 3.27334 -1.5341 0
M  V30 4050 O 367.341 3.25798 -2.92895 0
M  V30 4051 C 368.842 4.20759 -1.39559 0
M  V30 4052 H 366.062 0.571599 -0.351447 0
M  V30 4053 H 368.606 1.31982 -1.56208 0
M  V30 4054 H 366.761 3.74052 -1.00815 0
M  V30 4055 H 367.175 4.17144 -3.17949 0
M  V30 4056 H 368.649 5.21084 -1.82141 0
M  V30 4057 H 369.126 4.37856 -0.343394 0
M  V30 4058 H 369.732 3.79901 -1.91195 0
M  V30 4059 N 368.047 0.979072 1.23499 0
M  V30 4060 C 369.01 0.523244 2.23147 0
M  V30 4061 C 370.01 -0.386406 1.56088 0
M  V30 4062 O 371.2 -0.180283 1.73265 0
M  V30 4063 C 368.332 -0.240739 3.40049 0
M  V30 4064 H 369.525 1.40432 2.64989 0
M  V30 4065 H 367.078 0.764824 1.36309 0
M  V30 4066 H 367.813 -1.13841 3.03662 0
M  V30 4067 H 367.598 0.412207 3.89927 0
M  V30 4068 H 369.088 -0.548297 4.13985 0
M  V30 4069 N 369.525 -1.3858 0.750561 0
M  V30 4070 C 370.455 -2.33102 0.136237 0
M  V30 4071 C 371.436 -1.54713 -0.706965 0
M  V30 4072 O 372.621 -1.83043 -0.648769 0
M  V30 4073 C 369.751 -3.38882 -0.760017 0
M  V30 4074 C 368.705 -4.27995 -0.0197785 0
M  V30 4075 C 368.031 -5.24605 -1.03408 0
M  V30 4076 C 369.331 -5.09554 1.14684 0
M  V30 4077 H 371.025 -2.84726 0.925822 0
M  V30 4078 H 368.571 -1.36898 0.446654 0
M  V30 4079 H 370.524 -4.0397 -1.19943 0
M  V30 4080 H 369.248 -2.85734 -1.58189 0
M  V30 4081 H 367.907 -3.64409 0.400184 0
M  V30 4082 H 367.555 -4.67746 -1.84994 0
M  V30 4083 H 367.255 -5.85081 -0.543464 0
M  V30 4084 H 368.779 -5.9257 -1.47288 0
M  V30 4085 H 370.193 -5.67899 0.785118 0
M  V30 4086 H 368.59 -5.7925 1.56812 0
M  V30 4087 H 369.66 -4.4347 1.96118 0
M  V30 4088 N 371.003 -0.499398 -1.49478 0
M  V30 4089 C 372.252 0.0475259 -2.01644 0
M  V30 4090 C 372.565 1.38195 -1.38425 0
M  V30 4091 O 373.771 2.01547 -1.8191 0
M  V30 4092 C 372.227 0.135164 -3.59646 0
M  V30 4093 C 371.835 -1.19252 -4.31837 0
M  V30 4094 C 373.579 0.632538 -4.19761 0
M  V30 4095 C 371.486 -1.06713 -5.81693 0
M  V30 4096 H 370.416 0.0215349 -0.753692 0
M  V30 4097 H 373.067 -0.638577 -1.7203 0
M  V30 4098 H 371.449 0.885681 -3.85969 0
M  V30 4099 H 372.623 -1.9562 -4.17216 0
M  V30 4100 H 370.938 -1.62321 -3.83459 0
M  V30 4101 H 373.535 0.743833 -5.29501 0
M  V30 4102 H 373.878 1.63098 -3.83021 0
M  V30 4103 H 374.411 -0.0613987 -3.97753 0
M  V30 4104 H 371.15 -2.03979 -6.22955 0
M  V30 4105 H 370.67 -0.344307 -5.98811 0
M  V30 4106 H 372.349 -0.745208 -6.42694 0
M  V30 4107 N 372.481 1.55866 -0.233164 0
M  V30 4108 C 373.411 2.23783 0.666599 0
M  V30 4109 C 374.392 1.21343 1.19205 0
M  V30 4110 O 375.577 1.4996 1.23392 0
M  V30 4111 C 372.707 2.92671 1.86978 0
M  V30 4112 C 371.661 4.01682 1.47768 0
M  V30 4113 C 370.987 4.57926 2.76058 0
M  V30 4114 C 372.287 5.18126 0.658993 0
M  V30 4115 H 373.981 2.99232 0.100306 0
M  V30 4116 H 371.527 1.43924 0.046804 0
M  V30 4117 H 373.48 3.3888 2.50476 0
M  V30 4118 H 372.204 2.14688 2.46123 0
M  V30 4119 H 370.863 3.56222 0.866106 0
M  V30 4120 H 370.511 3.76659 3.33372 0
M  V30 4121 H 370.211 5.31505 2.50552 0
M  V30 4122 H 371.735 5.06859 3.40479 0
M  V30 4123 H 373.149 5.60644 1.19795 0
M  V30 4124 H 371.546 5.98009 0.500552 0
M  V30 4125 H 372.616 4.83763 -0.331856 0
M  V30 4126 N 373.959 -0.0401083 1.57549 0
M  V30 4127 C 375.187 -0.745196 1.93014 0
M  V30 4128 C 375.602 -1.6948 0.831984 0
M  V30 4129 O 374.959 -1.81482 -0.192463 0
M  V30 4130 C 375.01 -1.51176 3.28372 0
M  V30 4131 O 374.731 -0.600284 4.33968 0
M  V30 4132 C 376.232 -2.315 3.78051 0
M  V30 4133 H 373.452 -0.210088 0.637263 0
M  V30 4134 H 375.996 -0.000924689 2.045 0
M  V30 4135 H 374.151 -2.20801 3.18317 0
M  V30 4136 H 374.565 -1.13669 5.12035 0
M  V30 4137 H 376.039 -2.80697 4.75303 0
M  V30 4138 H 376.516 -3.12436 3.08675 0
M  V30 4139 H 377.122 -1.66971 3.91153 0
M  V30 4140 N 375.437 -1.54477 -0.31217 0
M  V30 4141 C 376.367 -1.87652 -1.38957 0
M  V30 4142 C 377.348 -0.734358 -1.53431 0
M  V30 4143 O 378.533 -0.98911 -1.67123 0
M  V30 4144 C 375.663 -2.11396 -2.75552 0
M  V30 4145 C 374.617 -3.27243 -2.75855 0
M  V30 4146 C 373.943 -3.36382 -4.15633 0
M  V30 4147 C 375.243 -4.64622 -2.38587 0
M  V30 4148 H 376.937 -2.77887 -1.11442 0
M  V30 4149 H 374.483 -1.33707 -0.534655 0
M  V30 4150 H 376.436 -2.33189 -3.51 0
M  V30 4151 H 375.16 -1.17921 -3.04569 0
M  V30 4152 H 373.819 -3.05356 -2.02863 0
M  V30 4153 H 373.467 -2.40445 -4.41809 0
M  V30 4154 H 373.167 -4.14249 -4.1674 0
M  V30 4155 H 374.691 -3.60422 -4.92877 0
M  V30 4156 H 376.105 -4.86219 -3.03749 0
M  V30 4157 H 374.502 -5.45121 -2.50925 0
M  V30 4158 H 375.572 -4.66097 -1.33723 0
M  V30 4159 N 376.915 0.57481 -1.46744 0
M  V30 4160 C 378.161 1.3347 -1.52688 0
M  V30 4161 C 378.494 1.93353 -0.181229 0
M  V30 4162 O 377.769 1.76912 0.808237 0
M  V30 4163 C 378.052 2.45811 -2.63152 0
M  V30 4164 C 377.905 1.90912 -4.07275 0
M  V30 4165 C 379.224 3.47822 -2.69644 0
M  V30 4166 H 376.343 0.483935 -0.555856 0
M  V30 4167 H 378.985 0.644968 -1.78718 0
M  V30 4168 H 377.135 3.04646 -2.41088 0
M  V30 4169 H 378.807 1.36473 -4.4065 0
M  V30 4170 H 377.05 1.21691 -4.16382 0
M  V30 4171 H 377.721 2.72042 -4.80309 0
M  V30 4172 H 380.197 2.9888 -2.895 0
M  V30 4173 H 379.073 4.23876 -3.48742 0
M  V30 4174 H 379.334 4.05555 -1.76005 0
M  V30 4175 N 378.394 1.34581 0.820102 0
M  V30 4176 C 379.64 1.27285 1.57881 0
M  V30 4177 C 379.973 -0.156137 1.93571 0
M  V30 4178 O 379.248 -1.10222 1.60254 0
M  V30 4179 C 379.531 2.16639 2.87645 0
M  V30 4180 C 379.384 3.68088 2.58517 0
M  V30 4181 C 380.703 2.05378 3.8924 0
M  V30 4182 H 377.822 0.463714 0.572833 0
M  V30 4183 H 380.464 1.64859 0.944539 0
M  V30 4184 H 378.614 1.84725 3.41773 0
M  V30 4185 H 380.286 4.10382 2.10676 0
M  V30 4186 H 378.529 3.89038 1.91917 0
M  V30 4187 H 379.2 4.2598 3.51063 0
M  V30 4188 H 381.676 2.33404 3.44473 0
M  V30 4189 H 380.552 2.7012 4.77835 0
M  V30 4190 H 380.813 1.0316 4.29896 0
M  V30 4191 N 379.872 -1.04064 1.18357 0
M  V30 4192 C 380.835 -2.10243 0.912707 0
M  V30 4193 C 381.835 -1.60477 -0.101928 0
M  V30 4194 O 383.025 -1.73703 0.131517 0
M  V30 4195 C 380.157 -3.38893 0.369387 0
M  V30 4196 H 381.35 -2.35706 1.85426 0
M  V30 4197 H 378.903 -1.20489 0.995594 0
M  V30 4198 H 379.638 -3.19094 -0.578776 0
M  V30 4199 H 379.423 -3.76331 1.1008 0
M  V30 4200 H 380.913 -4.17128 0.198575 0
M  V30 4201 N 381.35 -0.985608 -1.22978 0
M  V30 4202 C 382.597 -0.657386 -1.91532 0
M  V30 4203 C 382.925 0.809707 -1.76845 0
M  V30 4204 O 382.18 1.60021 -1.12658 0
M  V30 4205 C 382.479 -1.00014 -3.43121 0
M  V30 4206 C 382.145 -2.4583 -3.77993 0
M  V30 4207 C 380.807 -2.85679 -3.87222 0
M  V30 4208 C 383.159 -3.40378 -3.94705 0
M  V30 4209 C 380.487 -4.19081 -4.10595 0
M  V30 4210 C 382.839 -4.73429 -4.1958 0
M  V30 4211 C 381.503 -5.1303 -4.27032 0
M  V30 4212 H 380.773 -0.240555 -0.700867 0
M  V30 4213 H 383.42 -1.24044 -1.45895 0
M  V30 4214 H 381.725 -0.335072 -3.90365 0
M  V30 4215 H 383.422 -0.724322 -3.94404 0
M  V30 4216 H 380.012 -2.13939 -3.71387 0
M  V30 4217 H 384.196 -3.10766 -3.8696 0
M  V30 4218 H 379.452 -4.49362 -4.14589 0
M  V30 4219 H 383.626 -5.46644 -4.31455 0
M  V30 4220 H 381.253 -6.16418 -4.44896 0
M  V30 4221 N 382.828 1.3818 -0.7579 0
M  V30 4222 C 383.758 2.33027 -0.148597 0
M  V30 4223 C 384.739 1.55085 0.69875 0
M  V30 4224 O 385.924 1.83384 0.639053 0
M  V30 4225 C 383.054 3.3928 0.742034 0
M  V30 4226 C 382.008 4.28 -0.00291946 0
M  V30 4227 C 381.334 5.25146 1.00625 0
M  V30 4228 C 382.634 5.08938 -1.17385 0
M  V30 4229 H 384.328 2.84231 -0.940909 0
M  V30 4230 H 381.874 1.36659 -0.453908 0
M  V30 4231 H 383.827 4.046 1.17799 0
M  V30 4232 H 382.551 2.86569 1.56671 0
M  V30 4233 H 381.21 3.64192 -0.419504 0
M  V30 4234 H 380.858 4.68721 1.8251 0
M  V30 4235 H 380.558 5.85361 0.512428 0
M  V30 4236 H 382.082 5.93342 1.44143 0
M  V30 4237 H 383.496 5.67474 -0.815224 0
M  V30 4238 H 381.893 5.7841 -1.59882 0
M  V30 4239 H 382.963 4.42424 -1.98468 0
M  V30 4240 N 384.306 0.507319 1.49211 0
M  V30 4241 C 385.552 -0.0350047 2.0277 0
M  V30 4242 C 385.885 -1.3606 1.38569 0
M  V30 4243 O 385.16 -1.87321 0.523542 0
M  V30 4244 C 385.443 -0.180916 3.59645 0
M  V30 4245 C 385.296 1.16825 4.34364 0
M  V30 4246 C 386.615 -0.918558 4.30407 0
M  V30 4247 H 383.734 -0.0112473 0.736914 0
M  V30 4248 H 386.376 0.659956 1.7817 0
M  V30 4249 H 384.526 -0.772826 3.80736 0
M  V30 4250 H 386.198 1.79952 4.24753 0
M  V30 4251 H 384.441 1.75594 3.96673 0
M  V30 4252 H 385.112 1.01939 5.42506 0
M  V30 4253 H 387.588 -0.41649 4.1401 0
M  V30 4254 H 386.464 -0.989505 5.39907 0
M  V30 4255 H 386.725 -1.96373 3.96093 0
M  V30 4256 N 385.784 -1.5574 0.241426 0
M  V30 4257 C 387.024 -2.00714 -0.38644 0
M  V30 4258 C 387.388 -1.12586 -1.55526 0
M  V30 4259 O 388.589 -1.46992 -2.25048 0
M  V30 4260 C 386.86 -3.48534 -0.791128 0
M  V30 4261 S 388.419 -4.15519 -1.41029 0
M  V30 4262 H 385.237 -0.700484 -0.121834 0
M  V30 4263 H 387.839 -1.92243 0.355377 0
M  V30 4264 H 386.543 -4.10342 0.0689225 0
M  V30 4265 H 386.074 -3.6092 -1.56526 0
M  V30 4266 H 388.089 -4.16352 -2.69936 0
M  V30 4267 N 387.262 0.0317525 -1.57568 0
M  V30 4268 C 388.508 0.718712 -1.90279 0
M  V30 4269 C 388.863 1.73108 -0.839727 0
M  V30 4270 O 388.156 1.90997 0.15188 0
M  V30 4271 C 388.35 1.43167 -3.27472 0
M  V30 4272 C 388.179 0.489869 -4.47024 0
M  V30 4273 C 386.949 0.111909 -5.05176 0
M  V30 4274 C 389.147 -0.230592 -5.13783 0
M  V30 4275 N 387.129 -0.831427 -6.08244 0
M  V30 4276 C 388.5 -1.02968 -6.1139 0
M  V30 4277 C 390.555 -0.297821 -4.97008 0
M  V30 4278 C 389.258 -1.88982 -6.9403 0
M  V30 4279 C 391.284 -1.14507 -5.80209 0
M  V30 4280 C 390.646 -1.9321 -6.77384 0
M  V30 4281 H 386.745 0.237177 -0.745165 0
M  V30 4282 H 389.329 -0.0211267 -1.94689 0
M  V30 4283 H 387.5 2.14199 -3.23996 0
M  V30 4284 H 389.232 2.0708 -3.47707 0
M  V30 4285 H 385.987 0.473513 -4.71227 0
M  V30 4286 H 386.411 -1.29752 -6.6445 0
M  V30 4287 H 391.053 0.296346 -4.2176 0
M  V30 4288 H 388.771 -2.4948 -7.68626 0
M  V30 4289 H 392.357 -1.20059 -5.69278 0
M  V30 4290 H 391.237 -2.57711 -7.40645 0
M  V30 4291 N 388.74 1.54641 0.303973 0
M  V30 4292 C 389.703 1.84646 1.35789 0
M  V30 4293 C 390.703 0.7192 1.4382 0
M  V30 4294 O 391.893 0.987491 1.43507 0
M  V30 4295 C 389.025 2.02407 2.74307 0
M  V30 4296 H 390.218 2.78829 1.10429 0
M  V30 4297 H 387.771 1.46658 0.540487 0
M  V30 4298 H 388.506 1.10502 3.04893 0
M  V30 4299 H 388.291 2.84453 2.69868 0
M  V30 4300 H 389.781 2.27002 3.50514 0
M  V30 4301 N 390.218 -0.567019 1.47046 0
M  V30 4302 C 391.629 -1.14916 1.47143 0
M  V30 4303 C 391.98 -1.94954 0.220767 0
M  V30 4304 O 391.105 -2.05602 -0.67505 0
M  V30 4305 C 391.7 -2.09069 2.666 0
M  V30 4306 C 390.259 -2.62575 2.69687 0
M  V30 4307 C 389.406 -1.38755 2.40088 0
M  V30 4308 H 392.357 -0.354126 1.54699 0
M  V30 4309 H 392.378 -2.92789 2.43011 0
M  V30 4310 H 391.89 -1.50789 3.57609 0
M  V30 4311 H 389.991 -3.24681 1.82792 0
M  V30 4312 H 390.104 -3.04239 3.70102 0
M  V30 4313 H 388.468 -1.69098 1.90468 0
M  V30 4314 H 389.251 -0.822822 3.33293 0
M  V30 4315 N 391.696 -1.35014 -0.812953 0
M  V30 4316 C 392.926 -1.30841 -1.59888 0
M  V30 4317 C 393.334 0.117576 -1.88834 0
M  V30 4318 O 392.677 1.07807 -1.48739 0
M  V30 4319 C 392.739 -2.0412 -2.95931 0
M  V30 4320 C 392.403 -3.53336 -2.89832 0
M  V30 4321 C 393.4 -4.48052 -2.63714 0
M  V30 4322 C 391.085 -3.95894 -3.0915 0
M  V30 4323 C 393.079 -5.833 -2.56982 0
M  V30 4324 C 390.766 -5.31239 -3.0204 0
M  V30 4325 C 391.764 -6.24754 -2.75991 0
M  V30 4326 O 391.452 -7.57617 -2.68833 0
M  V30 4327 H 391.184 -0.451215 -0.50337 0
M  V30 4328 H 393.738 -1.78354 -1.01877 0
M  V30 4329 H 391.968 -1.51235 -3.559 0
M  V30 4330 H 393.657 -1.93107 -3.57022 0
M  V30 4331 H 394.423 -4.16492 -2.48515 0
M  V30 4332 H 390.302 -3.23495 -3.28438 0
M  V30 4333 H 393.846 -6.56263 -2.36569 0
M  V30 4334 H 389.743 -5.62415 -3.16796 0
M  V30 4335 H 390.511 -7.67469 -2.84487 0
M  V30 4336 N 393.175 1.03435 -1.18907 0
M  V30 4337 C 394.125 2.09924 -0.889706 0
M  V30 4338 C 395.109 1.60261 0.143216 0
M  V30 4339 O 396.301 1.76892 -0.0617122 0
M  V30 4340 C 393.43 3.40669 -0.424168 0
M  V30 4341 C 392.516 3.97082 -1.48952 0
M  V30 4342 N 392.907 4.27227 -2.70759 0
M  V30 4343 C 391.205 4.25029 -1.35152 0
M  V30 4344 C 391.906 4.7246 -3.39347 0
M  V30 4345 N 390.882 4.7366 -2.66735 0
M  V30 4346 H 394.684 2.31116 -1.81555 0
M  V30 4347 H 392.198 1.21246 -1.08042 0
M  V30 4348 H 394.195 4.16461 -0.191176 0
M  V30 4349 H 392.855 3.20901 0.495263 0
M  V30 4350 H 393.866 4.16678 -3.0757 0
M  V30 4351 H 390.543 4.14554 -0.495126 0
M  V30 4352 H 391.933 5.04751 -4.43481 0
M  V30 4353 N 394.653 0.992116 1.22453 0
M  V30 4354 C 395.9 0.667534 1.91181 0
M  V30 4355 C 396.228 -0.800317 1.77271 0
M  V30 4356 O 395.483 -1.59421 1.13505 0
M  V30 4357 C 395.782 1.01832 3.42586 0
M  V30 4358 C 395.448 2.47831 3.76684 0
M  V30 4359 C 394.11 2.87729 3.85701 0
M  V30 4360 C 396.462 3.42466 3.92895 0
M  V30 4361 C 393.79 4.21252 4.08367 0
M  V30 4362 C 396.142 4.75648 4.17064 0
M  V30 4363 C 394.806 5.15288 4.24305 0
M  V30 4364 H 394.076 0.244268 0.699581 0
M  V30 4365 H 396.723 1.24816 1.45235 0
M  V30 4366 H 395.028 0.355769 3.90181 0
M  V30 4367 H 396.725 0.745228 3.94014 0
M  V30 4368 H 393.315 2.15905 3.70247 0
M  V30 4369 H 397.499 3.12814 3.85307 0
M  V30 4370 H 392.755 4.51554 4.122 0
M  V30 4371 H 396.929 5.48924 4.2855 0
M  V30 4372 H 394.556 6.18769 4.41621 0
M  V30 4373 N 396.131 -1.37776 0.765217 0
M  V30 4374 C 397.378 -1.99849 0.326588 0
M  V30 4375 C 397.706 -1.60746 -1.09504 0
M  V30 4376 O 396.961 -0.84202 -1.76659 0
M  V30 4377 C 397.26 -3.5504 0.410053 0
M  V30 4378 C 396.926 -4.13891 1.78899 0
M  V30 4379 C 395.588 -4.29678 2.16635 0
M  V30 4380 C 397.94 -4.46236 2.69301 0
M  V30 4381 C 395.268 -4.7511 3.44221 0
M  V30 4382 C 397.62 -4.93089 3.9629 0
M  V30 4383 C 396.284 -5.07082 4.34078 0
M  V30 4384 H 395.554 -0.7313 0.119507 0
M  V30 4385 H 398.201 -1.64645 0.977968 0
M  V30 4386 H 396.506 -3.90451 -0.324878 0
M  V30 4387 H 398.203 -4.00966 0.0520699 0
M  V30 4388 H 394.793 -4.02026 1.48569 0
M  V30 4389 H 398.977 -4.3363 2.41409 0
M  V30 4390 H 394.233 -4.84129 3.73402 0
M  V30 4391 H 398.407 -5.17084 4.66472 0
M  V30 4392 H 396.034 -5.42046 5.33001 0
M  V30 4393 N 397.609 -0.515225 -1.4894 0
M  V30 4394 C 398.572 0.244681 -2.2789 0
M  V30 4395 C 399.572 0.881166 -1.34507 0
M  V30 4396 O 400.762 0.743497 -1.57537 0
M  V30 4397 C 397.894 1.35247 -3.12923 0
M  V30 4398 H 399.087 -0.448289 -2.96531 0
M  V30 4399 H 396.64 -0.270656 -1.53939 0
M  V30 4400 H 397.375 2.07916 -2.48881 0
M  V30 4401 H 397.16 0.901374 -3.81599 0
M  V30 4402 H 398.65 1.88737 -3.72516 0
M  V30 4403 N 399.087 1.5561 -0.249682 0
M  V30 4404 C 400.334 1.99011 0.374287 0
M  V30 4405 C 400.662 1.13785 1.57744 0
M  V30 4406 O 399.917 0.189326 1.94782 0
M  V30 4407 C 400.216 3.4775 0.824887 0
M  V30 4408 C 399.882 4.50086 -0.270819 0
M  V30 4409 C 398.544 4.77791 -0.571746 0
M  V30 4410 C 400.896 5.11312 -1.01041 0
M  V30 4411 C 398.224 5.63997 -1.61629 0
M  V30 4412 C 400.576 5.98651 -2.0445 0
M  V30 4413 C 399.24 6.24688 -2.35204 0
M  V30 4414 H 398.51 0.728233 0.136961 0
M  V30 4415 H 401.157 1.88122 -0.358087 0
M  V30 4416 H 399.462 3.55985 1.63651 0
M  V30 4417 H 401.159 3.78721 1.31799 0
M  V30 4418 H 397.749 4.28592 -0.026136 0
M  V30 4419 H 401.933 4.89953 -0.791177 0
M  V30 4420 H 397.189 5.82425 -1.85988 0
M  V30 4421 H 401.363 6.45135 -2.62248 0
M  V30 4422 H 398.99 6.91281 -3.16282 0
M  V30 4423 N 400.565 -0.0233959 1.57583 0
M  V30 4424 C 401.495 -1.02162 2.09965 0
M  V30 4425 C 402.476 -1.3735 1.00344 0
M  V30 4426 O 403.661 -1.46135 1.27899 0
M  V30 4427 C 400.791 -2.32081 2.58371 0
M  V30 4428 C 399.745 -2.1112 3.72307 0
M  V30 4429 C 399.071 -3.46848 4.06941 0
M  V30 4430 C 400.371 -1.49276 5.00514 0
M  V30 4431 H 402.065 -0.585557 2.93618 0
M  V30 4432 H 399.611 -0.280218 1.41247 0
M  V30 4433 H 401.564 -3.02249 2.93639 0
M  V30 4434 H 400.288 -2.77758 1.71808 0
M  V30 4435 H 398.947 -1.43384 3.37397 0
M  V30 4436 H 398.595 -3.90184 3.17436 0
M  V30 4437 H 398.295 -3.33646 4.83688 0
M  V30 4438 H 399.819 -4.18369 4.44747 0
M  V30 4439 H 401.233 -2.09368 5.33702 0
M  V30 4440 H 399.63 -1.46632 5.8191 0
M  V30 4441 H 400.7 -0.459217 4.82721 0
M  V30 4442 N 402.043 -1.548 -0.295768 0
M  V30 4443 C 402.953 -1.89177 -1.38742 0
M  V30 4444 C 403.969 -0.786481 -1.55211 0
M  V30 4445 O 405.145 -1.08344 -1.69775 0
M  V30 4446 C 402.21 -2.13663 -2.73036 0
M  V30 4447 C 401.271 -3.37349 -2.65508 0
M  V30 4448 C 400.504 -3.60658 -3.93398 0
M  V30 4449 O 400.727 -2.86882 -4.93006 0
M  V30 4450 O 399.661 -4.54179 -3.94975 0
M  V30 4451 H 403.487 -2.82059 -1.12589 0
M  V30 4452 H 401.072 -1.41056 -0.492295 0
M  V30 4453 H 402.954 -2.3094 -3.52484 0
M  V30 4454 H 401.629 -1.23967 -2.99022 0
M  V30 4455 H 400.536 -3.25431 -1.84514 0
M  V30 4456 H 401.869 -4.27192 -2.44474 0
M  V30 4457 N 403.521 0.559213 -1.47345 0
M  V30 4458 C 404.768 1.31648 -1.53867 0
M  V30 4459 C 405.096 1.93468 -0.200104 0
M  V30 4460 O 404.351 1.78295 0.806799 0
M  V30 4461 C 404.65 2.44853 -2.6035 0
M  V30 4462 C 404.316 2.00876 -4.03683 0
M  V30 4463 C 402.978 1.88599 -4.42701 0
M  V30 4464 C 405.33 1.67279 -4.93626 0
M  V30 4465 C 402.658 1.41017 -5.69501 0
M  V30 4466 C 405.01 1.21169 -6.20887 0
M  V30 4467 C 403.674 1.07487 -6.58789 0
M  V30 4468 H 402.944 0.481734 -0.56304 0
M  V30 4469 H 405.591 0.627301 -1.80934 0
M  V30 4470 H 403.896 3.19318 -2.27032 0
M  V30 4471 H 405.593 3.03039 -2.62619 0
M  V30 4472 H 402.183 2.11374 -3.72853 0
M  V30 4473 H 406.367 1.75638 -4.64182 0
M  V30 4474 H 401.623 1.29086 -5.97618 0
M  V30 4475 H 405.797 0.942345 -6.89995 0
M  V30 4476 H 403.424 0.703946 -7.56934 0
M  V30 4477 N 404.999 1.35443 0.805782 0
M  V30 4478 C 405.929 1.31095 1.93226 0
M  V30 4479 C 406.91 0.185244 1.69088 0
M  V30 4480 O 408.095 0.380332 1.90439 0
M  V30 4481 C 405.225 1.08299 3.29983 0
M  V30 4482 C 404.179 2.17519 3.68605 0
M  V30 4483 C 403.505 1.79887 5.03532 0
M  V30 4484 C 404.805 3.5949 3.78898 0
M  V30 4485 H 406.499 2.25352 1.97122 0
M  V30 4486 H 404.045 1.0848 0.946996 0
M  V30 4487 H 405.998 1.03897 4.08391 0
M  V30 4488 H 404.722 0.104885 3.26432 0
M  V30 4489 H 403.381 2.2102 2.92482 0
M  V30 4490 H 403.029 0.80693 4.96485 0
M  V30 4491 H 402.729 2.53001 5.30344 0
M  V30 4492 H 404.253 1.77011 5.84379 0
M  V30 4493 H 405.667 3.58307 4.47536 0
M  V30 4494 H 404.064 4.31371 4.1718 0
M  V30 4495 H 405.134 3.95584 2.80431 0
M  V30 4496 N 406.477 -1.02803 1.19454 0
M  V30 4497 C 407.724 -1.76217 0.997693 0
M  V30 4498 C 408.052 -1.887 -0.47144 0
M  V30 4499 O 407.307 -1.4011 -1.3663 0
M  V30 4500 C 407.606 -3.18941 1.6128 0
M  V30 4501 C 407.272 -3.26463 3.11019 0
M  V30 4502 C 405.934 -3.28223 3.51885 0
M  V30 4503 C 408.286 -3.25542 4.07028 0
M  V30 4504 C 405.614 -3.26719 4.8731 0
M  V30 4505 C 407.966 -3.25579 5.42385 0
M  V30 4506 C 406.63 -3.25637 5.82681 0
M  V30 4507 H 405.9 -0.644823 0.365082 0
M  V30 4508 H 408.547 -1.20655 1.4871 0
M  V30 4509 H 406.852 -3.77587 1.04572 0
M  V30 4510 H 408.549 -3.74415 1.43577 0
M  V30 4511 H 405.139 -3.25822 2.78457 0
M  V30 4512 H 409.323 -3.23362 3.76498 0
M  V30 4513 H 404.579 -3.25089 5.1781 0
M  V30 4514 H 408.753 -3.23817 6.16535 0
M  V30 4515 H 406.38 -3.24226 6.87591 0
M  V30 4516 N 407.956 -0.998596 -1.21925 0
M  V30 4517 C 408.888 -0.511879 -2.23411 0
M  V30 4518 C 409.901 0.396094 -1.57908 0
M  V30 4519 O 411.09 0.197316 -1.77406 0
M  V30 4520 C 408.19 0.276802 -3.37768 0
M  V30 4521 C 407.363 -0.628687 -4.32858 0
M  V30 4522 C 406.422 0.109272 -5.26087 0
M  V30 4523 O 405.448 -0.507237 -5.66935 0
M  V30 4524 N 406.65 1.38983 -5.63617 0
M  V30 4525 H 409.415 -1.38457 -2.658 0
M  V30 4526 H 406.976 -0.873981 -1.36283 0
M  V30 4527 H 408.968 0.77928 -3.97126 0
M  V30 4528 H 407.538 1.05063 -2.94415 0
M  V30 4529 H 406.758 -1.31175 -3.71735 0
M  V30 4530 H 408.046 -1.24514 -4.93329 0
M  V30 4531 H 407.444 1.91194 -5.32411 0
M  V30 4532 H 406.001 1.83739 -6.25367 0
M  V30 4533 N 409.434 1.37368 -0.772513 0
M  V30 4534 C 410.68 1.99969 -0.337681 0
M  V30 4535 C 411.013 1.61184 1.08321 0
M  V30 4536 O 410.288 0.858395 1.74533 0
M  V30 4537 C 410.571 3.56858 -0.482121 0
M  V30 4538 C 410.424 4.0555 -1.94549 0
M  V30 4539 C 411.743 4.39955 0.113143 0
M  V30 4540 H 408.862 0.726464 -0.124171 0
M  V30 4541 H 411.504 1.63034 -0.975699 0
M  V30 4542 H 409.654 3.88452 0.0610361 0
M  V30 4543 H 411.326 3.84518 -2.54841 0
M  V30 4544 H 409.569 3.57715 -2.45403 0
M  V30 4545 H 410.24 5.14587 -1.9976 0
M  V30 4546 H 412.716 4.14623 -0.35031 0
M  V30 4547 H 411.592 5.48897 -0.0180514 0
M  V30 4548 H 411.853 4.25403 1.20354 0
M  V30 4549 N 410.912 0.523116 1.48665 0
M  V30 4550 C 411.844 -0.280421 2.27478 0
M  V30 4551 C 412.857 -0.910694 1.34945 0
M  V30 4552 O 414.046 -0.790295 1.60052 0
M  V30 4553 C 411.146 -1.41171 3.08097 0
M  V30 4554 C 410.319 -0.884642 4.28361 0
M  V30 4555 C 409.378 -1.89622 4.90846 0
M  V30 4556 O 408.404 -1.4559 5.50265 0
M  V30 4557 N 409.606 -3.22801 4.82472 0
M  V30 4558 H 412.371 0.395481 2.97079 0
M  V30 4559 H 409.932 0.357018 1.57915 0
M  V30 4560 H 411.924 -2.08645 3.4677 0
M  V30 4561 H 410.494 -1.99139 2.40961 0
M  V30 4562 H 409.714 -0.0341177 3.94185 0
M  V30 4563 H 411.002 -0.511268 5.06225 0
M  V30 4564 H 410.4 -3.61246 4.35336 0
M  V30 4565 H 408.957 -3.85927 5.25265 0
M  V30 4566 N 412.39 -1.55475 0.257931 0
M  V30 4567 C 413.353 -2.20551 -0.623706 0
M  V30 4568 C 414.353 -1.17809 -1.09443 0
M  V30 4569 O 415.543 -1.42823 -0.997362 0
M  V30 4570 C 412.675 -2.85784 -1.8585 0
M  V30 4571 H 413.868 -2.99848 -0.0557743 0
M  V30 4572 H 411.421 -1.56298 0.0084422 0
M  V30 4573 H 412.156 -2.10453 -2.46739 0
M  V30 4574 H 411.941 -3.61057 -1.52907 0
M  V30 4575 H 413.431 -3.35553 -2.48584 0
M  V30 4576 N 413.868 0.0150385 -1.57593 0
M  V30 4577 C 415.114 0.704043 -1.90187 0
M  V30 4578 C 415.447 1.74249 -0.857366 0
M  V30 4579 O 414.722 1.94092 0.125843 0
M  V30 4580 C 415.005 1.36087 -3.33395 0
M  V30 4581 C 414.858 0.334981 -4.48551 0
M  V30 4582 C 416.177 2.29112 -3.7576 0
M  V30 4583 H 413.296 0.254475 -0.691673 0
M  V30 4584 H 415.938 -0.0331678 -1.89971 0
M  V30 4585 H 414.088 1.98922 -3.3371 0
M  V30 4586 H 415.76 -0.292534 -4.60372 0
M  V30 4587 H 414.003 -0.344325 -4.32431 0
M  V30 4588 H 414.674 0.833316 -5.45674 0
M  V30 4589 H 417.15 1.76308 -3.76902 0
M  V30 4590 H 416.026 2.72043 -4.76743 0
M  V30 4591 H 416.287 3.16385 -3.08793 0
M  V30 4592 N 415.346 1.54954 0.287554 0
M  V30 4593 C 416.762 1.46469 0.633964 0
M  V30 4594 C 416.962 0.666865 1.90145 0
M  V30 4595 O 416.018 0.179906 2.51858 0
M  V30 4596 C 417.331 2.90556 0.774454 0
M  V30 4597 C 418.879 3.00681 0.869462 0
M  V30 4598 C 419.354 4.45993 1.04184 0
M  V30 4599 N 420.845 4.4976 1.10772 0
M  V30 4600 C 421.58 5.59393 1.25964 0
M  V30 4601 N 421.076 6.78923 1.37968 0
M  V30 4602 N 422.869 5.47107 1.28959 0
M  V30 4603 H 415.02 2.05288 -0.545041 0
M  V30 4604 H 417.283 0.930305 -0.182308 0
M  V30 4605 H 416.989 3.51594 -0.086207 0
M  V30 4606 H 416.863 3.38743 1.6593 0
M  V30 4607 H 419.25 2.39749 1.7206 0
M  V30 4608 H 419.331 2.55769 -0.0396831 0
M  V30 4609 H 418.975 5.07524 0.195422 0
M  V30 4610 H 418.905 4.88548 1.96542 0
M  V30 4611 H 421.396 3.63651 1.02794 0
M  V30 4612 H 421.709 7.58231 1.49353 0
M  V30 4613 H 420.054 6.81763 1.34999 0
M  V30 4614 H 423.245 4.52668 1.19202 0
M  V30 4615 H 423.418 6.32595 1.40455 0
M  V30 4616 N 416.824 -0.551391 1.4764 0
M  V30 4617 C 418.072 -1.30572 1.54258 0
M  V30 4618 C 418.393 -1.93877 0.208963 0
M  V30 4619 O 417.663 -1.80234 -0.767619 0
M  V30 4620 H 416.243 -0.484894 0.568231 0
M  V30 4621 H 418.905 -0.643402 1.83974 0
M  V30 4622 H 418.001 -2.09621 2.31226 0
M  V30 4623 N 418.302 -1.35869 -0.798587 0
M  V30 4624 C 419.542 -1.30961 -1.56935 0
M  V30 4625 C 419.906 0.112404 -1.91671 0
M  V30 4626 O 421.107 0.285937 -2.67275 0
M  V30 4627 C 419.378 -2.19811 -2.81811 0
M  V30 4628 S 420.937 -2.32498 -3.72143 0
M  V30 4629 H 417.755 -0.465297 -0.537606 0
M  V30 4630 H 420.357 -1.71344 -0.941346 0
M  V30 4631 H 419.061 -3.22095 -2.54329 0
M  V30 4632 H 418.592 -1.80415 -3.49591 0
M  V30 4633 H 420.607 -1.5157 -4.72484 0
M  V30 4634 N 419.78 1.02168 -1.19998 0
M  V30 4635 C 421.027 1.75685 -1.00702 0
M  V30 4636 C 421.355 1.88947 0.461426 0
M  V30 4637 O 420.61 1.40832 1.35885 0
M  V30 4638 C 420.909 3.18081 -1.62969 0
M  V30 4639 C 420.575 3.24809 -3.12746 0
M  V30 4640 C 419.237 3.26352 -3.53621 0
M  V30 4641 C 421.589 3.23379 -4.08749 0
M  V30 4642 C 418.917 3.2413 -4.89036 0
M  V30 4643 C 421.269 3.22698 -5.44104 0
M  V30 4644 C 419.933 3.22542 -5.84399 0
M  V30 4645 H 419.203 0.642877 -0.368496 0
M  V30 4646 H 421.85 1.19865 -1.49348 0
M  V30 4647 H 420.155 3.77027 -1.06573 0
M  V30 4648 H 421.852 3.73648 -1.45561 0
M  V30 4649 H 418.442 3.2434 -2.80181 0
M  V30 4650 H 422.626 3.21361 -3.78207 0
M  V30 4651 H 417.882 3.22338 -5.19527 0
M  V30 4652 H 422.056 3.20543 -6.18244 0
M  V30 4653 H 419.683 3.20575 -6.89301 0
M  V30 4654 N 421.258 1.00505 1.21394 0
M  V30 4655 C 422.504 0.698477 1.91031 0
M  V30 4656 C 422.859 -0.762448 1.76648 0
M  V30 4657 O 422.152 -1.54554 1.13241 0
M  V30 4658 C 422.346 1.0546 3.41486 0
M  V30 4659 C 422.175 2.5486 3.70508 0
M  V30 4660 C 420.945 3.21461 3.8986 0
M  V30 4661 C 423.143 3.53019 3.74008 0
M  V30 4662 N 421.125 4.60211 4.06299 0
M  V30 4663 C 422.496 4.77279 3.95733 0
M  V30 4664 C 424.551 3.47154 3.56915 0
M  V30 4665 C 423.254 5.96388 4.02137 0
M  V30 4666 C 425.28 4.65652 3.64585 0
M  V30 4667 C 424.642 5.88717 3.86771 0
M  V30 4668 H 420.741 0.30707 0.719189 0
M  V30 4669 H 423.325 1.28753 1.46051 0
M  V30 4670 H 421.496 0.494007 3.85246 0
M  V30 4671 H 423.228 0.702765 3.98552 0
M  V30 4672 H 419.983 2.71906 3.87768 0
M  V30 4673 H 420.407 5.32216 4.1842 0
M  V30 4674 H 425.049 2.53015 3.38738 0
M  V30 4675 H 422.767 6.90919 4.19114 0
M  V30 4676 H 426.353 4.62717 3.52681 0
M  V30 4677 H 425.233 6.78877 3.92549 0
M  V30 4678 N 422.737 -1.36956 0.779787 0
M  V30 4679 C 423.647 -2.33965 0.172491 0
M  V30 4680 C 424.663 -1.60574 -0.670222 0
M  V30 4681 O 425.839 -1.92617 -0.588263 0
M  V30 4682 C 422.904 -3.39761 -0.690173 0
M  V30 4683 C 421.965 -4.28964 0.169924 0
M  V30 4684 C 421.198 -5.29707 -0.651662 0
M  V30 4685 O 421.421 -5.38238 -1.88827 0
M  V30 4686 O 420.355 -6.01873 -0.0566264 0
M  V30 4687 H 424.181 -2.87647 0.974321 0
M  V30 4688 H 421.766 -1.39258 0.541078 0
M  V30 4689 H 423.648 -4.04471 -1.1824 0
M  V30 4690 H 422.323 -2.88394 -1.47006 0
M  V30 4691 H 421.23 -3.67326 0.708696 0
M  V30 4692 H 422.563 -4.83656 0.913085 0
M  V30 4693 N 424.215 -0.530993 -1.48385 0
M  V30 4694 C 425.492 0.0671788 -1.95485 0
M  V30 4695 C 425.872 1.51191 -1.47324 0
M  V30 4696 O 425.22 2.17507 -0.700202 0
M  V30 4697 C 425.43 -0.0511206 -3.48963 0
M  V30 4698 C 426.778 0.107632 -4.24464 0
M  V30 4699 O 427.802 0.0226248 -3.56193 0
M  V30 4700 O 426.661 0.285972 -5.45751 0
M  V30 4701 H 423.755 0.0787365 -0.823243 0
M  V30 4702 H 426.301 -0.595662 -1.58902 0
M  V30 4703 H 425.073 -1.05747 -3.7674 0
M  V30 4704 H 424.696 0.650525 -3.92242 0
M  V30 4705 N 425.693 1.55336 -0.266172 0
M  V30 4706 C 426.94 1.99397 0.353158 0
M  V30 4707 C 427.268 1.15451 1.56529 0
M  V30 4708 O 426.523 0.209974 1.9457 0
M  V30 4709 C 426.822 3.48606 0.787957 0
M  V30 4710 C 426.488 4.49773 -0.318541 0
M  V30 4711 C 425.15 4.77158 -0.62239 0
M  V30 4712 C 427.502 5.10212 -1.06459 0
M  V30 4713 C 424.83 5.62251 -1.67602 0
M  V30 4714 C 427.182 5.96449 -2.10788 0
M  V30 4715 C 425.846 6.22158 -2.41817 0
M  V30 4716 H 425.116 0.729644 0.12923 0
M  V30 4717 H 427.763 1.87732 -0.37802 0
M  V30 4718 H 426.068 3.57701 1.59866 0
M  V30 4719 H 427.765 3.80098 1.27775 0
M  V30 4720 H 424.355 4.2854 -0.0715925 0
M  V30 4721 H 428.539 4.89086 -0.843098 0
M  V30 4722 H 423.795 5.80419 -1.92155 0
M  V30 4723 H 427.969 6.42317 -2.69076 0
M  V30 4724 H 425.596 6.87888 -3.23596 0
M  V30 4725 N 427.171 -0.0066808 1.57599 0
M  V30 4726 C 428.42 -0.692078 1.89455 0
M  V30 4727 C 428.733 -1.75306 0.867586 0
M  V30 4728 O 429.939 -2.49262 1.07614 0
M  V30 4729 C 428.395 -1.2821 3.36289 0
M  V30 4730 C 428.003 -0.256291 4.47266 0
M  V30 4731 C 429.747 -1.94608 3.77264 0
M  V30 4732 C 427.654 -0.855927 5.85173 0
M  V30 4733 H 426.584 -0.262252 0.706923 0
M  V30 4734 H 429.235 0.052769 1.83424 0
M  V30 4735 H 427.617 -2.0774 3.37135 0
M  V30 4736 H 428.791 0.513923 4.57925 0
M  V30 4737 H 427.106 0.306862 4.15268 0
M  V30 4738 H 429.703 -2.40364 4.77629 0
M  V30 4739 H 430.046 -2.77382 3.10427 0
M  V30 4740 H 430.579 -1.21822 3.78688 0
M  V30 4741 H 427.318 -0.0671161 6.55466 0
M  V30 4742 H 426.838 -1.59546 5.78191 0
M  V30 4743 H 428.517 -1.35658 6.32618 0
M  V30 4744 N 428.649 -1.55105 -0.279332 0
M  V30 4745 C 429.926 -1.66119 -1.03267 0
M  V30 4746 C 430.306 -0.523525 -2.04505 0
M  V30 4747 O 429.654 0.477194 -2.23462 0
M  V30 4748 C 429.864 -3.05067 -1.69515 0
M  V30 4749 C 431.212 -3.62606 -2.20912 0
M  V30 4750 O 432.236 -3.07659 -1.79512 0
M  V30 4751 O 431.095 -4.58861 -2.96831 0
M  V30 4752 H 428.189 -0.674429 -0.478618 0
M  V30 4753 H 430.735 -1.67446 -0.275694 0
M  V30 4754 H 429.507 -3.79311 -0.9612 0
M  V30 4755 H 429.13 -3.07611 -2.51915 0
M  V30 4756 N 430.127 0.543554 -1.4793 0
M  V30 4757 C 431.057 1.65888 -1.64327 0
M  V30 4758 C 432.038 1.62818 -0.492383 0
M  V30 4759 O 433.223 1.80226 -0.723338 0
M  V30 4760 C 430.353 3.04506 -1.67013 0
M  V30 4761 C 429.307 3.2243 -2.81466 0
M  V30 4762 C 428.633 4.61972 -2.69233 0
M  V30 4763 C 429.933 3.06496 -4.22915 0
M  V30 4764 H 431.627 1.52421 -2.57698 0
M  V30 4765 H 429.173 0.731849 -1.24016 0
M  V30 4766 H 431.126 3.82391 -1.77074 0
M  V30 4767 H 429.85 3.18964 -0.70212 0
M  V30 4768 H 428.509 2.46957 -2.70938 0
M  V30 4769 H 428.157 4.73247 -1.7043 0
M  V30 4770 H 427.857 4.74911 -3.46025 0
M  V30 4771 H 429.381 5.41974 -2.81242 0
M  V30 4772 H 430.795 3.74186 -4.34348 0
M  V30 4773 H 429.192 3.30938 -5.006 0
M  V30 4774 H 430.262 2.03077 -4.40327 0
M  V30 4775 N 431.605 1.3629 0.791371 0
M  V30 4776 C 432.853 1.30154 1.5461 0
M  V30 4777 C 433.174 -0.119409 1.94634 0
M  V30 4778 O 432.444 -1.05924 1.64794 0
M  V30 4779 H 431.024 0.478784 0.573389 0
M  V30 4780 H 433.686 1.70565 0.94306 0
M  V30 4781 H 432.782 1.92762 2.45457 0
M  V30 4782 N 433.083 -1.0153 1.20538 0
M  V30 4783 C 434.013 -2.11972 0.979295 0
M  V30 4784 C 434.994 -1.6985 -0.0921787 0
M  V30 4785 O 436.179 -1.94089 0.0655932 0
M  V30 4786 C 433.309 -3.43201 0.531984 0
M  V30 4787 C 432.263 -3.9907 1.54685 0
M  V30 4788 C 431.589 -5.26082 0.956127 0
M  V30 4789 C 432.889 -4.32313 2.93092 0
M  V30 4790 H 434.583 -2.31143 1.90298 0
M  V30 4791 H 432.129 -1.11079 0.916372 0
M  V30 4792 H 434.082 -4.1985 0.361044 0
M  V30 4793 H 432.806 -3.23792 -0.427327 0
M  V30 4794 H 431.465 -3.2453 1.70517 0
M  V30 4795 H 431.113 -5.02999 -0.0111538 0
M  V30 4796 H 430.813 -5.64426 1.63393 0
M  V30 4797 H 432.337 -6.05386 0.796284 0
M  V30 4798 H 433.751 -4.99845 2.80763 0
M  V30 4799 H 432.148 -4.81774 3.57791 0
M  V30 4800 H 433.218 -3.41025 3.44717 0
M  V30 4801 N 434.561 -1.01147 -1.20859 0
M  V30 4802 C 435.493 -0.535546 -2.22855 0
M  V30 4803 C 436.506 0.379323 -1.58319 0
M  V30 4804 O 437.695 0.178489 -1.77605 0
M  V30 4805 C 434.795 0.240962 -3.38042 0
M  V30 4806 C 433.968 -0.674562 -4.32167 0
M  V30 4807 C 433.027 0.053467 -5.26173 0
M  V30 4808 O 432.053 -0.567339 -5.66366 0
M  V30 4809 N 433.255 1.32997 -5.65059 0
M  V30 4810 H 436.02 -1.41268 -2.64317 0
M  V30 4811 H 433.581 -0.888386 -1.35349 0
M  V30 4812 H 435.573 0.737115 -3.97931 0
M  V30 4813 H 434.143 1.01935 -2.95513 0
M  V30 4814 H 433.363 -1.35111 -3.70322 0
M  V30 4815 H 434.651 -1.2974 -4.91981 0
M  V30 4816 H 434.049 1.85536 -5.34409 0
M  V30 4817 H 432.606 1.77095 -6.2728 0
M  V30 4818 N 436.039 1.36541 -0.78704 0
M  V30 4819 C 436.969 2.32659 -0.197992 0
M  V30 4820 C 437.95 1.56533 0.665697 0
M  V30 4821 O 439.135 1.84698 0.60001 0
M  V30 4822 C 436.265 3.40778 0.669901 0
M  V30 4823 C 435.219 4.27897 -0.0937039 0
M  V30 4824 C 434.545 5.27163 0.894629 0
M  V30 4825 C 435.845 5.06334 -1.28154 0
M  V30 4826 H 437.539 2.82171 -1.00099 0
M  V30 4827 H 435.085 1.35665 -0.482793 0
M  V30 4828 H 437.038 4.07008 1.09191 0
M  V30 4829 H 435.762 2.89827 1.50558 0
M  V30 4830 H 434.421 3.6322 -0.49666 0
M  V30 4831 H 434.069 4.72486 1.72527 0
M  V30 4832 H 433.769 5.86317 0.388149 0
M  V30 4833 H 435.293 5.96266 1.31525 0
M  V30 4834 H 436.707 5.65617 -0.93541 0
M  V30 4835 H 435.104 5.74888 -1.72115 0
M  V30 4836 H 436.174 4.38114 -2.07807 0
M  V30 4837 N 437.518 0.538854 1.48102 0
M  V30 4838 C 438.481 -0.208395 2.28251 0
M  V30 4839 C 439.481 -0.859656 1.35892 0
M  V30 4840 O 440.671 -0.71834 1.58699 0
M  V30 4841 C 437.803 -1.30252 3.15035 0
M  V30 4842 H 438.996 0.495407 2.9578 0
M  V30 4843 H 436.549 0.295112 1.53489 0
M  V30 4844 H 437.284 -2.0393 2.52157 0
M  V30 4845 H 437.069 -0.840551 3.82985 0
M  V30 4846 H 438.559 -1.82787 3.75471 0
M  V30 4847 N 438.996 -1.55193 0.274407 0
M  V30 4848 C 439.944 -2.23924 -0.629362 0
M  V30 4849 C 440.938 -1.23602 -1.1584 0
M  V30 4850 O 442.144 -1.41535 -1.11211 0
M  V30 4851 H 438.519 -0.718637 -0.221507 0
M  V30 4852 H 440.49 -2.98388 -0.0268322 0
M  V30 4853 C 439.239 -2.97329 -1.80252 0
M  V30 4854 H 438.562 -3.74313 -1.40462 0
M  V30 4855 H 440.002 -3.48743 -2.41152 0
M  V30 4856 C 438.461 -2.0276 -2.69054 0
M  V30 4857 O 438.991 -1.57836 -3.69392 0
M  V30 4858 N 437.197 -1.69275 -2.36208 0
M  V30 4859 H 436.744 -2.06004 -1.54661 0
M  V30 4860 H 436.702 -1.06271 -2.95895 0
M  V30 4861 N 440.474 -0.00167713 -1.576 0
M  V30 4862 C 441.721 0.68282 -1.90641 0
M  V30 4863 C 442.049 1.73686 -0.875415 0
M  V30 4864 O 441.304 1.95334 0.119575 0
M  V30 4865 C 441.603 1.36189 -3.30435 0
M  V30 4866 C 441.269 0.440887 -4.48739 0
M  V30 4867 C 439.931 0.187312 -4.80835 0
M  V30 4868 C 442.283 -0.193134 -5.20842 0
M  V30 4869 C 439.611 -0.70855 -5.82406 0
M  V30 4870 C 441.963 -1.07688 -6.23367 0
M  V30 4871 C 440.627 -1.33962 -6.53919 0
M  V30 4872 H 439.897 0.249862 -0.697603 0
M  V30 4873 H 442.544 -0.0575642 -1.91413 0
M  V30 4874 H 440.849 2.17636 -3.25794 0
M  V30 4875 H 442.546 1.89759 -3.5326 0
M  V30 4876 H 439.136 0.648694 -4.23663 0
M  V30 4877 H 443.32 -0.0102445 -4.96299 0
M  V30 4878 H 438.576 -0.920097 -6.04437 0
M  V30 4879 H 442.75 -1.57451 -6.78367 0
M  V30 4880 H 440.377 -2.03549 -7.32442 0
M  V30 4881 N 441.952 1.55251 0.271103 0
M  V30 4882 C 443.199 1.75946 1.00245 0
M  V30 4883 C 443.527 0.561611 1.86215 0
M  V30 4884 O 442.782 -0.455832 1.90317 0
M  V30 4885 C 443.081 3.01879 1.91321 0
M  V30 4886 C 442.747 4.34337 1.21086 0
M  V30 4887 C 441.409 4.70338 1.01666 0
M  V30 4888 C 443.761 5.16325 0.71119 0
M  V30 4889 C 441.089 5.8588 0.310099 0
M  V30 4890 C 443.441 6.32597 0.0182157 0
M  V30 4891 C 442.105 6.67236 -0.18768 0
M  V30 4892 H 441.375 0.643833 0.366824 0
M  V30 4893 H 444.022 1.89521 0.27458 0
M  V30 4894 H 442.327 2.83212 2.70736 0
M  V30 4895 H 444.024 3.15088 2.48033 0
M  V30 4896 H 440.614 4.06043 1.37213 0
M  V30 4897 H 444.798 4.88987 0.848844 0
M  V30 4898 H 440.054 6.1124 0.139873 0
M  V30 4899 H 444.228 6.9538 -0.376711 0
M  V30 4900 H 441.855 7.56618 -0.73715 0
M  V30 4901 N 443.43 -0.535701 1.48216 0
M  V30 4902 C 444.393 -1.623 1.61838 0
M  V30 4903 C 445.393 -1.53087 0.492024 0
M  V30 4904 O 446.583 -1.5686 0.757668 0
M  V30 4905 C 443.715 -3.01907 1.58319 0
M  V30 4906 H 444.908 -1.51564 2.58783 0
M  V30 4907 H 442.461 -0.757317 1.36727 0
M  V30 4908 H 443.196 -3.18155 0.628299 0
M  V30 4909 H 442.981 -3.10003 2.40085 0
M  V30 4910 H 444.471 -3.80969 1.71033 0
M  V30 4911 N 444.908 -1.36708 -0.784132 0
M  V30 4912 C 446.155 -1.31231 -1.54222 0
M  V30 4913 C 446.483 0.106864 -1.94206 0
M  V30 4914 O 445.738 1.07734 -1.63376 0
M  V30 4915 C 446.037 -2.18571 -2.82774 0
M  V30 4916 C 445.703 -3.67039 -2.61903 0
M  V30 4917 C 444.365 -4.07503 -2.55919 0
M  V30 4918 C 446.717 -4.61149 -2.4288 0
M  V30 4919 C 444.045 -5.40211 -2.28886 0
M  V30 4920 C 446.397 -5.94081 -2.17373 0
M  V30 4921 C 445.061 -6.33664 -2.09825 0
M  V30 4922 H 444.331 -0.48021 -0.56434 0
M  V30 4923 H 446.978 -1.68807 -0.904233 0
M  V30 4924 H 445.283 -1.73949 -3.51068 0
M  V30 4925 H 446.98 -2.11655 -3.40592 0
M  V30 4926 H 443.57 -3.34941 -2.67418 0
M  V30 4927 H 447.754 -4.30756 -2.46501 0
M  V30 4928 H 443.01 -5.69855 -2.21529 0
M  V30 4929 H 447.184 -6.66566 -2.01649 0
M  V30 4930 H 444.811 -7.36423 -1.88641 0
M  V30 4931 N 446.386 1.0089 -1.21074 0
M  V30 4932 C 447.614 1.78191 -1.05145 0
M  V30 4933 C 448.029 1.84537 0.398952 0
M  V30 4934 O 447.386 1.30393 1.27687 0
M  V30 4935 C 447.437 3.22288 -1.63746 0
M  V30 4936 O 447.158 3.16315 -3.03111 0
M  V30 4937 C 448.659 4.16106 -1.52875 0
M  V30 4938 H 445.879 0.560129 -0.369454 0
M  V30 4939 H 448.423 1.26945 -1.60328 0
M  V30 4940 H 446.578 3.70655 -1.12664 0
M  V30 4941 H 446.992 4.06817 -3.31059 0
M  V30 4942 H 448.466 5.15026 -1.98626 0
M  V30 4943 H 448.943 4.36541 -0.482521 0
M  V30 4944 H 449.549 3.73625 -2.03185 0
M  V30 4945 N 447.864 1.01787 1.20321 0
M  V30 4946 C 448.812 0.58254 2.25187 0
M  V30 4947 C 449.806 -0.379359 1.65098 0
M  V30 4948 O 451.012 -0.249142 1.78267 0
M  V30 4949 H 447.387 0.170078 0.732514 0
M  V30 4950 H 449.358 1.47788 2.59232 0
M  V30 4951 C 448.107 -0.0620885 3.47645 0
M  V30 4952 H 447.43 0.669069 3.94162 0
M  V30 4953 H 448.87 -0.329784 4.22716 0
M  V30 4954 C 447.329 -1.3053 3.10586 0
M  V30 4955 O 447.859 -2.39848 3.22236 0
M  V30 4956 N 446.065 -1.18988 2.65123 0
M  V30 4957 H 445.612 -0.300341 2.55843 0
M  V30 4958 H 445.57 -2.02267 2.40698 0
M  V30 4959 N 449.342 -1.36122 0.79427 0
M  V30 4960 C 450.567 -2.03891 0.379871 0
M  V30 4961 C 450.992 -1.59488 -0.997251 0
M  V30 4962 O 450.35 -0.765652 -1.64339 0
M  V30 4963 C 450.398 -3.57687 0.457442 0
M  V30 4964 O 449.502 -4.08931 -0.5338 0
M  V30 4965 H 448.843 -0.6443 0.160541 0
M  V30 4966 H 451.373 -1.73976 1.07673 0
M  V30 4967 H 451.383 -4.06721 0.322792 0
M  V30 4968 H 450.058 -3.89357 1.46199 0
M  V30 4969 H 448.635 -3.71154 -0.360409 0
M  V30 4970 N 450.82 -0.546701 -1.47814 0
M  V30 4971 C 452.045 -0.021268 -2.07389 0
M  V30 4972 C 452.47 1.25822 -1.39822 0
M  V30 4973 O 451.828 1.75111 -0.46968 0
M  V30 4974 C 451.876 0.168502 -3.60206 0
M  V30 4975 O 450.98 1.23347 -3.93522 0
M  V30 4976 H 450.321 -0.0466108 -0.662362 0
M  V30 4977 H 452.851 -0.759387 -1.89985 0
M  V30 4978 H 452.861 0.385982 -4.0617 0
M  V30 4979 H 451.536 -0.766075 -4.08784 0
M  V30 4980 H 450.113 0.997319 -3.59316 0
M  V30 4981 N 452.299 1.55045 -0.282633 0
M  V30 4982 C 453.229 2.2579 0.595066 0
M  V30 4983 C 454.21 1.25074 1.15284 0
M  V30 4984 O 455.395 1.5381 1.18559 0
M  V30 4985 C 452.525 2.98472 1.77572 0
M  V30 4986 C 451.479 4.0618 1.34914 0
M  V30 4987 C 450.805 4.66477 2.6135 0
M  V30 4988 C 452.105 5.1996 0.493821 0
M  V30 4989 H 453.799 2.994 0.00505653 0
M  V30 4990 H 451.345 1.44 0.000992001 0
M  V30 4991 H 453.298 3.46677 2.39568 0
M  V30 4992 H 452.022 2.2241 2.39168 0
M  V30 4993 H 450.681 3.58797 0.752338 0
M  V30 4994 H 450.329 3.87074 3.2122 0
M  V30 4995 H 450.029 5.39207 2.33516 0
M  V30 4996 H 451.553 5.17435 3.24181 0
M  V30 4997 H 452.967 5.64172 1.01898 0
M  V30 4998 H 451.364 5.99299 0.310047 0
M  V30 4999 H 452.434 4.82462 -0.485593 0
M  V30 5000 N 453.777 0.010035 1.57597 0
M  V30 5001 C 454.725 -0.996272 2.10184 0
M  V30 5002 C 455.719 -1.34942 1.02406 0
M  V30 5003 O 456.925 -1.33389 1.20861 0
M  V30 5004 H 453.3 -0.338982 0.671264 0
M  V30 5005 H 455.271 -0.527272 2.93705 0
M  V30 5006 C 454.02 -2.27599 2.62857 0
M  V30 5007 H 453.343 -2.01295 3.45428 0
M  V30 5008 H 454.783 -2.96265 3.0332 0
M  V30 5009 C 453.242 -2.99269 1.54725 0
M  V30 5010 O 453.772 -3.90644 0.93597 0
M  V30 5011 N 451.978 -2.61269 1.27228 0
M  V30 5012 H 451.525 -1.87043 1.77123 0
M  V30 5013 H 451.483 -3.09534 0.550999 0
M  V30 5014 N 455.255 -1.55392 -0.262866 0
M  V30 5015 C 456.666 -1.67079 -0.833158 0
M  V30 5016 C 457.017 -0.604539 -1.86654 0
M  V30 5017 O 456.142 0.252138 -2.14926 0
M  V30 5018 C 456.737 -3.02891 -1.51797 0
M  V30 5019 C 455.296 -3.16571 -2.03617 0
M  V30 5020 C 454.443 -2.62909 -0.881701 0
M  V30 5021 H 457.394 -1.58652 -0.0389986 0
M  V30 5022 H 457.415 -2.96445 -2.38538 0
M  V30 5023 H 456.927 -3.80473 -0.765619 0
M  V30 5024 H 455.028 -2.43782 -2.81782 0
M  V30 5025 H 455.141 -4.23271 -2.24452 0
M  V30 5026 H 453.505 -2.20324 -1.27786 0
M  V30 5027 H 454.288 -3.43003 -0.14269 0
M  V30 5028 N 456.733 0.527833 -1.48498 0
M  V30 5029 C 457.979 1.28545 -1.56857 0
M  V30 5030 C 458.312 1.92678 -0.242651 0
M  V30 5031 O 457.587 1.79394 0.751545 0
M  V30 5032 C 457.87 2.37314 -2.70839 0
M  V30 5033 C 457.723 1.77858 -4.13142 0
M  V30 5034 C 459.042 3.39068 -2.80573 0
M  V30 5035 H 456.161 0.466006 -0.570971 0
M  V30 5036 H 458.803 0.587784 -1.8068 0
M  V30 5037 H 456.953 2.96821 -2.50658 0
M  V30 5038 H 458.625 1.22385 -4.44769 0
M  V30 5039 H 456.868 1.08383 -4.20042 0
M  V30 5040 H 457.539 2.56624 -4.88721 0
M  V30 5041 H 460.015 2.89518 -2.98862 0
M  V30 5042 H 458.891 4.12566 -3.6205 0
M  V30 5043 H 459.152 3.9975 -1.88818 0
M  V30 5044 N 458.211 1.37122 0.776871 0
M  V30 5045 C 459.46 1.31373 1.53049 0
M  V30 5046 C 459.773 -0.101016 1.95339 0
M  V30 5047 O 460.979 -0.280953 2.70042 0
M  V30 5048 C 459.435 2.30567 2.76346 0
M  V30 5049 C 459.043 3.77543 2.41175 0
M  V30 5050 C 460.787 2.33818 3.54301 0
M  V30 5051 C 458.694 4.68481 3.60943 0
M  V30 5052 H 457.624 0.488234 0.574581 0
M  V30 5053 H 460.275 1.62554 0.851372 0
M  V30 5054 H 458.657 1.92396 3.46121 0
M  V30 5055 H 459.831 4.24521 1.79216 0
M  V30 5056 H 458.146 3.77187 1.76405 0
M  V30 5057 H 460.743 2.98965 4.4331 0
M  V30 5058 H 461.086 1.3503 3.93793 0
M  V30 5059 H 461.619 2.7067 2.91518 0
M  V30 5060 H 458.358 5.68378 3.26537 0
M  V30 5061 H 457.878 4.2621 4.22025 0
M  V30 5062 H 459.557 4.85366 4.27819 0
M  V30 5063 N 459.689 -1.00246 1.21608 0
M  V30 5064 C 460.919 -1.77373 1.05935 0
M  V30 5065 C 461.327 -1.85059 -0.393686 0
M  V30 5066 O 460.67 -1.31289 -1.28487 0
M  V30 5067 C 460.732 -3.22705 1.58435 0
M  V30 5068 C 460.396 -3.38591 3.06929 0
M  V30 5069 C 461.393 -3.2667 4.04454 0
M  V30 5070 C 459.078 -3.6395 3.46187 0
M  V30 5071 C 461.072 -3.39877 5.39224 0
M  V30 5072 C 458.759 -3.768 4.81108 0
M  V30 5073 C 459.757 -3.6477 5.77436 0
M  V30 5074 O 459.445 -3.77206 7.09909 0
M  V30 5075 H 459.177 -0.56419 0.372378 0
M  V30 5076 H 461.731 -1.26971 1.61454 0
M  V30 5077 H 459.961 -3.74255 0.973147 0
M  V30 5078 H 461.65 -3.81515 1.38568 0
M  V30 5079 H 462.416 -3.06999 3.75468 0
M  V30 5080 H 458.295 -3.72395 2.71741 0
M  V30 5081 H 461.839 -3.30404 6.14393 0
M  V30 5082 H 457.736 -3.95975 5.09779 0
M  V30 5083 H 458.504 -3.94138 7.17355 0
M  V30 5084 N 461.167 -1.02423 -1.1978 0
M  V30 5085 C 462.413 -0.719051 -1.89625 0
M  V30 5086 C 462.746 0.750083 -1.7913 0
M  V30 5087 O 462.021 1.54574 -1.18056 0
M  V30 5088 C 462.304 -1.16499 -3.40735 0
M  V30 5089 C 462.157 -2.695 -3.60125 0
M  V30 5090 C 463.476 -0.742166 -4.33797 0
M  V30 5091 H 460.595 -0.26269 -0.688595 0
M  V30 5092 H 463.237 -1.27333 -1.41018 0
M  V30 5093 H 461.387 -0.69341 -3.82262 0
M  V30 5094 H 463.059 -3.24569 -3.278 0
M  V30 5095 H 461.302 -3.10113 -3.03336 0
M  V30 5096 H 461.973 -2.95757 -4.66081 0
M  V30 5097 H 464.449 -1.1477 -3.99959 0
M  V30 5098 H 463.325 -1.08213 -5.38127 0
M  V30 5099 H 463.586 0.355747 -4.40666 0
M  V30 5100 N 462.645 1.35699 -0.801477 0
M  V30 5101 C 463.892 1.98913 -0.379459 0
M  V30 5102 C 464.22 1.63592 1.05204 0
M  V30 5103 O 463.475 0.888563 1.74365 0
M  V30 5104 C 463.774 3.53828 -0.504041 0
M  V30 5105 C 463.44 4.09002 -1.8981 0
M  V30 5106 C 462.102 4.23783 -2.27951 0
M  V30 5107 C 464.454 4.38939 -2.81038 0
M  V30 5108 C 461.782 4.65816 -3.56696 0
M  V30 5109 C 464.134 4.82409 -4.09224 0
M  V30 5110 C 462.798 4.95395 -4.4737 0
M  V30 5111 H 462.068 0.727874 -0.138854 0
M  V30 5112 H 464.715 1.61994 -1.02128 0
M  V30 5113 H 463.02 3.91175 0.221242 0
M  V30 5114 H 464.717 4.00687 -0.158361 0
M  V30 5115 H 461.307 3.97946 -1.59176 0
M  V30 5116 H 465.491 4.27077 -2.52821 0
M  V30 5117 H 460.747 4.74059 -3.86106 0
M  V30 5118 H 464.921 5.04535 -4.80018 0
M  V30 5119 H 462.548 5.27724 -5.47185 0
M  V30 5120 N 464.123 0.554532 1.47522 0
M  V30 5121 C 465.369 0.0295227 2.02779 0
M  V30 5122 C 465.702 -1.31582 1.42828 0
M  V30 5123 O 464.977 -1.85561 0.582872 0
M  V30 5124 C 465.26 -0.0664057 3.60039 0
M  V30 5125 C 465.113 1.30585 4.30427 0
M  V30 5126 C 466.432 -0.781162 4.33112 0
M  V30 5127 H 463.551 0.0122027 0.736899 0
M  V30 5128 H 466.193 0.716305 1.7598 0
M  V30 5129 H 464.343 -0.651307 3.83002 0
M  V30 5130 H 466.015 1.93374 4.18813 0
M  V30 5131 H 464.258 1.88125 3.90886 0
M  V30 5132 H 464.929 1.19147 5.38988 0
M  V30 5133 H 467.405 -0.284565 4.15126 0
M  V30 5134 H 466.281 -0.817237 5.42782 0
M  V30 5135 H 466.542 -1.83672 4.0214 0
M  V30 5136 N 465.601 -1.54893 0.290851 0
M  V30 5137 C 466.849 -1.99538 -0.320756 0
M  V30 5138 C 467.17 -1.18075 -1.55188 0
M  V30 5139 O 466.44 -0.274162 -1.93972 0
M  V30 5140 H 465.02 -0.737052 -0.121507 0
M  V30 5141 H 467.682 -1.90755 0.399832 0
M  V30 5142 H 466.778 -3.06282 -0.599802 0
M  V30 5143 N 467.08 -0.0183926 -1.57589 0
M  V30 5144 C 468.496 0.337897 -1.55982 0
M  V30 5145 C 468.696 1.73604 -1.02294 0
M  V30 5146 O 467.752 2.43589 -0.664895 0
M  V30 5147 C 469.065 0.196305 -3.00059 0
M  V30 5148 C 470.613 0.269875 -3.11834 0
M  V30 5149 C 471.088 0.157197 -4.5773 0
M  V30 5150 N 472.579 0.214521 -4.62703 0
M  V30 5151 C 473.314 0.150955 -5.73201 0
M  V30 5152 N 472.81 0.0369212 -6.9279 0
M  V30 5153 N 474.603 0.204162 -5.61729 0
M  V30 5154 H 466.754 -0.93279 -1.90821 0
M  V30 5155 H 469.017 -0.359253 -0.877292 0
M  V30 5156 H 468.723 -0.766383 -3.43248 0
M  V30 5157 H 468.597 0.970908 -3.6449 0
M  V30 5158 H 470.984 1.22302 -2.68563 0
M  V30 5159 H 471.065 -0.534918 -2.50144 0
M  V30 5160 H 470.709 -0.792479 -5.01679 0
M  V30 5161 H 470.639 0.980717 -5.17387 0
M  V30 5162 H 473.13 0.303238 -3.76681 0
M  V30 5163 H 473.443 -0.00518321 -7.728 0
M  V30 5164 H 471.788 0.0022886 -6.95 0
M  V30 5165 H 474.979 0.291575 -4.67191 0
M  V30 5166 H 475.152 0.15116 -6.47824 0
M  V30 5167 N 468.558 1.5553 0.254621 0
M  V30 5168 C 469.488 1.9268 1.31897 0
M  V30 5169 C 470.469 0.790797 1.506 0
M  V30 5170 O 471.654 1.05045 1.63337 0
M  V30 5171 C 468.784 2.21477 2.67517 0
M  V30 5172 C 467.738 3.37256 2.63519 0
M  V30 5173 C 467.064 3.51576 4.02862 0
M  V30 5174 C 468.364 4.73157 2.21179 0
M  V30 5175 H 470.058 2.81832 1.01051 0
M  V30 5176 H 467.604 1.35599 0.484662 0
M  V30 5177 H 469.557 2.46055 3.42104 0
M  V30 5178 H 468.281 1.29144 2.99982 0
M  V30 5179 H 466.94 3.12675 1.9139 0
M  V30 5180 H 466.588 2.56676 4.32581 0
M  V30 5181 H 466.288 4.2943 4.01078 0
M  V30 5182 H 467.812 3.78467 4.79161 0
M  V30 5183 H 469.226 4.97158 2.85494 0
M  V30 5184 H 467.623 5.54058 2.30521 0
M  V30 5185 H 468.693 4.70739 1.16332 0
M  V30 5186 N 470.036 -0.519951 1.48776 0
M  V30 5187 C 471.283 -1.27522 1.57303 0
M  V30 5188 C 471.611 -1.92869 0.251328 0
M  V30 5189 O 470.866 -1.80372 -0.759243 0
M  V30 5190 C 471.165 -2.37864 2.6675 0
M  V30 5191 C 470.831 -1.90103 4.08867 0
M  V30 5192 C 469.493 -1.76795 4.47546 0
M  V30 5193 C 471.845 -1.54133 4.97888 0
M  V30 5194 C 469.173 -1.25868 5.73039 0
M  V30 5195 C 471.525 -1.04665 6.23881 0
M  V30 5196 C 470.189 -0.899823 6.61407 0
M  V30 5197 H 469.459 -0.466636 0.575614 0
M  V30 5198 H 472.106 -0.579109 1.82534 0
M  V30 5199 H 470.411 -3.13186 2.35418 0
M  V30 5200 H 472.108 -2.95969 2.70561 0
M  V30 5201 H 468.698 -2.01414 3.78326 0
M  V30 5202 H 472.882 -1.6327 4.68675 0
M  V30 5203 H 468.138 -1.13196 6.0083 0
M  V30 5204 H 472.312 -0.759074 6.92251 0
M  V30 5205 H 469.939 -0.503011 7.58534 0
M  V30 5206 N 471.514 -1.37532 -0.769588 0
M  V30 5207 C 472.93 -1.18379 -1.07045 0
M  V30 5208 C 473.13 -0.0214312 -2.01489 0
M  V30 5209 O 472.186 0.637809 -2.44312 0
M  V30 5210 C 473.499 -2.50338 -1.66588 0
M  V30 5211 C 475.047 -2.56879 -1.78835 0
M  V30 5212 C 475.522 -3.88974 -2.41792 0
M  V30 5213 N 477.013 -3.90428 -2.4924 0
M  V30 5214 C 477.748 -4.89388 -2.98809 0
M  V30 5215 N 477.244 -5.98745 -3.48535 0
M  V30 5216 N 479.037 -4.76791 -2.97703 0
M  V30 5217 H 471.188 -2.11921 -0.142541 0
M  V30 5218 H 473.451 -0.939608 -0.125863 0
M  V30 5219 H 473.157 -3.35767 -1.0466 0
M  V30 5220 H 473.031 -2.67583 -2.65856 0
M  V30 5221 H 475.418 -1.71856 -2.39895 0
M  V30 5222 H 475.499 -2.43516 -0.783166 0
M  V30 5223 H 475.143 -4.74412 -1.81371 0
M  V30 5224 H 475.073 -3.99641 -3.4292 0
M  V30 5225 H 477.564 -3.11433 -2.14052 0
M  V30 5226 H 477.877 -6.70205 -3.84767 0
M  V30 5227 H 476.222 -6.02387 -3.46634 0
M  V30 5228 H 479.413 -3.90478 -2.58157 0
M  V30 5229 H 479.586 -5.54069 -3.36024 0
M  V30 5230 N 472.992 0.995999 -1.22138 0
M  V30 5231 C 474.22 1.77066 -1.07029 0
M  V30 5232 C 474.635 1.8495 0.379357 0
M  V30 5233 O 473.992 1.3174 1.26297 0
M  V30 5234 C 474.043 3.20533 -1.67155 0
M  V30 5235 O 473.764 3.13082 -3.06449 0
M  V30 5236 C 475.265 4.14461 -1.5728 0
M  V30 5237 H 472.485 0.556179 -0.375374 0
M  V30 5238 H 475.029 1.25238 -1.61666 0
M  V30 5239 H 473.184 3.6944 -1.16589 0
M  V30 5240 H 473.598 4.03283 -3.35355 0
M  V30 5241 H 475.072 5.1289 -2.04078 0
M  V30 5242 H 475.549 4.36005 -0.528795 0
M  V30 5243 H 476.155 3.71449 -2.07136 0
M  V30 5244 N 474.47 1.03057 1.19235 0
M  V30 5245 C 475.417 0.612832 2.22515 0
M  V30 5246 C 476.387 -0.374224 1.61829 0
M  V30 5247 O 477.572 -0.270501 1.88873 0
M  V30 5248 C 474.712 -0.028475 3.45088 0
M  V30 5249 C 473.825 1.00483 4.20151 0
M  V30 5250 C 472.96 0.333102 5.30155 0
M  V30 5251 C 471.999 1.3522 5.96977 0
M  V30 5252 N 471.136 0.70616 6.9854 0
M  V30 5253 H 475.976 1.49812 2.57605 0
M  V30 5254 H 473.513 0.749658 1.26564 0
M  V30 5255 H 475.471 -0.417548 4.15105 0
M  V30 5256 H 474.101 -0.877334 3.10649 0
M  V30 5257 H 473.153 1.51194 3.49062 0
M  V30 5258 H 474.465 1.77929 4.65986 0
M  V30 5259 H 473.619 -0.110725 6.06599 0
M  V30 5260 H 472.358 -0.473547 4.85396 0
M  V30 5261 H 471.363 1.80627 5.19282 0
M  V30 5262 H 472.588 2.16037 6.4382 0
M  V30 5263 H 470.534 -0.0803667 6.55951 0
M  V30 5264 H 470.451 1.41848 7.42573 0
M  V30 5265 H 471.719 0.286391 7.78974 0
M  V30 5266 N 475.948 -1.35272 0.808662 0
M  V30 5267 C 477.194 -1.99003 0.390581 0
M  V30 5268 C 477.527 -1.63999 -1.0401 0
M  V30 5269 O 476.802 -0.904368 -1.72196 0
M  V30 5270 C 477.085 -3.55454 0.576566 0
M  V30 5271 C 476.938 -4.00249 2.05233 0
M  V30 5272 C 478.257 -4.401 0.00354277 0
M  V30 5273 H 475.376 -0.722917 0.143388 0
M  V30 5274 H 478.018 -1.6039 1.01858 0
M  V30 5275 H 476.168 -3.88477 0.0419766 0
M  V30 5276 H 477.84 -3.77626 2.64946 0
M  V30 5277 H 476.083 -3.51082 2.54801 0
M  V30 5278 H 476.754 -5.0911 2.13333 0
M  V30 5279 H 479.23 -4.13548 0.460117 0
M  V30 5280 H 478.106 -5.48656 0.163575 0
M  V30 5281 H 478.367 -4.28444 -1.09032 0
M  V30 5282 N 477.426 -0.562348 -1.47226 0
M  V30 5283 C 478.672 -0.0485293 -2.03342 0
M  V30 5284 C 479.027 1.28898 -1.42839 0
M  V30 5285 O 478.32 1.82719 -0.576563 0
M  V30 5286 C 478.514 0.0969817 -3.57268 0
M  V30 5287 C 478.343 -1.22487 -4.32697 0
M  V30 5288 C 477.113 -1.79357 -4.72397 0
M  V30 5289 C 479.311 -2.14332 -4.67511 0
M  V30 5290 N 477.293 -3.05493 -5.32491 0
M  V30 5291 C 478.664 -3.25049 -5.27961 0
M  V30 5292 C 480.719 -2.14263 -4.4944 0
M  V30 5293 C 479.422 -4.35804 -5.72248 0
M  V30 5294 C 481.448 -3.24033 -4.94729 0
M  V30 5295 C 480.81 -4.3347 -5.55233 0
M  V30 5296 H 476.909 -0.0600464 -0.779691 0
M  V30 5297 H 479.493 -0.750769 -1.79643 0
M  V30 5298 H 477.664 0.768353 -3.80724 0
M  V30 5299 H 479.396 0.613333 -4.00025 0
M  V30 5300 H 476.151 -1.33093 -4.54514 0
M  V30 5301 H 476.575 -3.698 -5.67077 0
M  V30 5302 H 481.217 -1.30935 -4.02015 0
M  V30 5303 H 478.935 -5.19888 -6.18661 0
M  V30 5304 H 482.521 -3.25073 -4.82513 0
M  V30 5305 H 481.401 -5.17008 -5.89638 0
M  V30 5306 N 478.904 1.54736 -0.299062 0
M  V30 5307 C 479.814 2.27127 0.587413 0
M  V30 5308 C 480.83 1.30575 1.15005 0
M  V30 5309 O 482.006 1.63554 1.17525 0
M  V30 5310 C 479.071 2.99645 1.74395 0
M  V30 5311 C 478.132 4.11731 1.21559 0
M  V30 5312 C 477.365 4.80781 2.317 0
M  V30 5313 O 477.588 4.4918 3.51558 0
M  V30 5314 O 476.522 5.68226 1.98501 0
M  V30 5315 H 480.348 3.037 0.000250109 0
M  V30 5316 H 477.933 1.49256 -0.0655919 0
M  V30 5317 H 479.815 3.45138 2.4178 0
M  V30 5318 H 478.49 2.25969 2.31775 0
M  V30 5319 H 477.397 3.70641 0.507514 0
M  V30 5320 H 478.73 4.87379 0.687233 0
M  V30 5321 N 480.382 0.0267497 1.57577 0
M  V30 5322 C 481.312 -0.954308 2.13108 0
M  V30 5323 C 482.293 -1.34088 1.04663 0
M  V30 5324 O 483.478 -1.41992 1.32484 0
M  V30 5325 C 480.608 -2.23744 2.65624 0
M  V30 5326 C 479.562 -1.99168 3.78835 0
M  V30 5327 C 478.888 -3.33726 4.17769 0
M  V30 5328 C 480.188 -1.33277 5.0501 0
M  V30 5329 H 481.882 -0.491848 2.95332 0
M  V30 5330 H 479.428 -0.23514 1.42067 0
M  V30 5331 H 481.381 -2.92754 3.03106 0
M  V30 5332 H 480.105 -2.72151 1.80558 0
M  V30 5333 H 478.764 -1.32577 3.41788 0
M  V30 5334 H 478.412 -3.79888 3.29688 0
M  V30 5335 H 478.112 -3.18089 4.94058 0
M  V30 5336 H 479.636 -4.04008 4.57832 0
M  V30 5337 H 481.05 -1.92283 5.40093 0
M  V30 5338 H 479.447 -1.28045 5.8628 0
M  V30 5339 H 480.517 -0.305411 4.83937 0
M  V30 5340 N 481.861 -1.55662 -0.24637 0
M  V30 5341 C 483.091 -1.81312 -0.990438 0
M  V30 5342 C 483.499 -0.600234 -1.79426 0
M  V30 5343 O 482.842 0.440537 -1.78339 0
M  V30 5344 C 482.904 -3.0032 -1.97607 0
M  V30 5345 C 482.568 -4.36322 -1.35912 0
M  V30 5346 C 483.565 -5.14295 -0.761348 0
M  V30 5347 C 481.25 -4.83019 -1.37833 0
M  V30 5348 C 483.244 -6.37114 -0.190998 0
M  V30 5349 C 480.931 -6.05786 -0.804128 0
M  V30 5350 C 481.929 -6.82672 -0.211489 0
M  V30 5351 O 481.617 -8.03121 0.353845 0
M  V30 5352 H 481.349 -0.607233 -0.297058 0
M  V30 5353 H 483.903 -2.0356 -0.274351 0
M  V30 5354 H 482.133 -2.73829 -2.73047 0
M  V30 5355 H 483.822 -3.13057 -2.58361 0
M  V30 5356 H 484.588 -4.79337 -0.739013 0
M  V30 5357 H 480.467 -4.23165 -1.829 0
M  V30 5358 H 484.011 -6.97069 0.272206 0
M  V30 5359 H 479.908 -6.40222 -0.823792 0
M  V30 5360 H 480.676 -8.18131 0.245761 0
M  V30 5361 N 483.339 0.512053 -1.4905 0
M  V30 5362 C 484.286 1.6148 -1.64902 0
M  V30 5363 C 485.256 1.58687 -0.490673 0
M  V30 5364 O 486.441 1.76842 -0.71636 0
M  V30 5365 C 483.581 2.99676 -1.71139 0
M  V30 5366 C 482.694 3.12568 -2.98203 0
M  V30 5367 C 481.829 4.4143 -2.95487 0
M  V30 5368 C 480.868 4.47916 -4.17179 0
M  V30 5369 N 480.005 5.68191 -4.12437 0
M  V30 5370 H 484.845 1.47271 -2.59066 0
M  V30 5371 H 482.382 0.716713 -1.28459 0
M  V30 5372 H 484.34 3.79761 -1.72736 0
M  V30 5373 H 482.97 3.12614 -0.804508 0
M  V30 5374 H 482.022 2.25618 -3.06269 0
M  V30 5375 H 483.334 3.1322 -3.88194 0
M  V30 5376 H 482.488 5.29825 -2.95585 0
M  V30 5377 H 481.227 4.43326 -2.03256 0
M  V30 5378 H 480.232 3.57925 -4.17337 0
M  V30 5379 H 481.457 4.47744 -5.1059 0
M  V30 5380 H 479.403 5.7095 -3.23036 0
M  V30 5381 H 479.32 5.70413 -4.96151 0
M  V30 5382 H 480.588 6.58823 -4.16621 0
M  V30 5383 N 484.817 1.37938 0.762283 0
M  V30 5384 C 485.749 1.30349 1.88525 0
M  V30 5385 C 486.762 0.217402 1.61342 0
M  V30 5386 O 487.951 0.474291 1.72084 0
M  V30 5387 C 485.051 0.994844 3.23969 0
M  V30 5388 C 484.224 2.18829 3.78725 0
M  V30 5389 C 483.283 1.84844 4.92665 0
M  V30 5390 O 482.309 2.57244 5.07754 0
M  V30 5391 N 483.511 0.798201 5.74986 0
M  V30 5392 H 486.276 2.27114 1.95549 0
M  V30 5393 H 483.837 1.31686 0.941825 0
M  V30 5394 H 485.829 0.748168 3.97724 0
M  V30 5395 H 484.399 0.115446 3.12387 0
M  V30 5396 H 483.619 2.59615 2.96637 0
M  V30 5397 H 484.907 2.98497 4.1204 0
M  V30 5398 H 484.305 0.197611 5.65355 0
M  V30 5399 H 482.862 0.611396 6.48926 0
M  V30 5400 N 486.295 -0.989507 1.22664 0
M  V30 5401 C 487.535 -1.7447 1.06488 0
M  V30 5402 C 487.899 -1.8794 -0.392737 0
M  V30 5403 O 489.1 -2.60175 -0.675446 0
M  V30 5404 C 487.371 -3.11043 1.76031 0
M  V30 5405 S 488.93 -4.02258 1.7531 0
M  V30 5406 H 485.748 -0.600123 0.381278 0
M  V30 5407 H 488.35 -1.18283 1.55658 0
M  V30 5408 H 487.054 -2.98884 2.81241 0
M  V30 5409 H 486.585 -3.72301 1.27105 0
M  V30 5410 H 488.6 -4.89623 0.805208 0
M  V30 5411 N 487.773 -1.03688 -1.18687 0
M  V30 5412 C 489.001 -0.757918 -1.92518 0
M  V30 5413 C 489.416 0.684398 -1.75959 0
M  V30 5414 O 488.773 1.46617 -1.08673 0
M  V30 5415 C 488.824 -1.10985 -3.44042 0
M  V30 5416 O 488.545 -2.49554 -3.60076 0
M  V30 5417 C 490.046 -0.854844 -4.3498 0
M  V30 5418 H 487.266 -0.276699 -0.611293 0
M  V30 5419 H 489.81 -1.38352 -1.50595 0
M  V30 5420 H 487.965 -0.529279 -3.83767 0
M  V30 5421 H 488.379 -2.6291 -4.53849 0
M  V30 5422 H 489.853 -1.15098 -5.39867 0
M  V30 5423 H 490.33 0.210507 -4.38695 0
M  V30 5424 H 490.936 -1.41853 -4.00946 0
M  V30 5425 N 489.251 1.34841 -0.815825 0
M  V30 5426 C 490.662 1.80937 -0.46029 0
M  V30 5427 C 491.013 1.67685 1.01863 0
M  V30 5428 O 490.138 1.21277 1.79223 0
M  V30 5429 C 490.733 3.28509 -0.828708 0
M  V30 5430 C 489.292 3.72712 -0.525644 0
M  V30 5431 C 488.439 2.56676 -1.04941 0
M  V30 5432 H 491.39 1.22688 -1.00664 0
M  V30 5433 H 491.411 3.80279 -0.129757 0
M  V30 5434 H 490.923 3.38122 -1.90513 0
M  V30 5435 H 489.024 3.68642 0.541666 0
M  V30 5436 H 489.137 4.67119 -1.06474 0
M  V30 5437 H 487.501 2.50302 -0.471286 0
M  V30 5438 H 488.284 2.69063 -2.13214 0
M  V30 5439 N 490.729 0.570148 1.46925 0
M  V30 5440 C 491.676 -0.170257 2.30171 0
M  V30 5441 C 492.646 -0.896099 1.39855 0
M  V30 5442 O 493.831 -0.889248 1.68811 0
M  V30 5443 C 490.971 -1.18605 3.24079 0
M  V30 5444 C 490.084 -0.464947 4.29491 0
M  V30 5445 C 489.219 -1.46716 5.10537 0
M  V30 5446 C 488.258 -0.731758 6.0771 0
M  V30 5447 N 487.395 -1.68142 6.81669 0
M  V30 5448 H 492.235 0.545713 2.92961 0
M  V30 5449 H 489.772 0.280938 1.44392 0
M  V30 5450 H 491.73 -1.78771 3.76957 0
M  V30 5451 H 490.36 -1.86989 2.63125 0
M  V30 5452 H 489.412 0.251506 3.79568 0
M  V30 5453 H 490.724 0.110548 4.98677 0
M  V30 5454 H 489.878 -2.14199 5.6763 0
M  V30 5455 H 488.617 -2.07658 4.41282 0
M  V30 5456 H 487.622 -0.0430787 5.49783 0
M  V30 5457 H 488.847 -0.127904 6.7898 0
M  V30 5458 H 486.793 -2.27918 6.15134 0
M  V30 5459 H 486.71 -1.15841 7.47072 0
M  V30 5460 H 487.978 -2.347 7.43328 0
M  V30 5461 N 492.207 -1.54576 0.307264 0
M  V30 5462 C 493.432 -2.05139 -0.305379 0
M  V30 5463 C 493.857 -1.18278 -1.46259 0
M  V30 5464 O 493.215 -0.188243 -1.8032 0
M  V30 5465 C 493.263 -3.53066 -0.733283 0
M  V30 5466 O 492.367 -3.69206 -1.83741 0
M  V30 5467 H 491.708 -0.661444 -0.0582105 0
M  V30 5468 H 494.238 -1.99569 0.450931 0
M  V30 5469 H 494.248 -3.95034 -1.02039 0
M  V30 5470 H 492.923 -4.15746 0.113198 0
M  V30 5471 H 491.5 -3.39143 -1.55037 0
M  V30 5472 N 493.685 -0.035106 -1.57561 0
M  V30 5473 C 494.615 0.942993 -2.13612 0
M  V30 5474 C 495.596 1.33531 -1.05373 0
M  V30 5475 O 496.781 1.41287 -1.33235 0
M  V30 5476 C 493.911 2.22332 -2.66807 0
M  V30 5477 C 492.865 1.97156 -3.79886 0
M  V30 5478 C 492.191 3.31506 -4.19533 0
M  V30 5479 C 493.491 1.30596 -5.05709 0
M  V30 5480 H 495.185 0.476179 -2.95589 0
M  V30 5481 H 492.731 0.227602 -1.4219 0
M  V30 5482 H 494.684 2.91142 -3.04654 0
M  V30 5483 H 493.408 2.7119 -1.81999 0
M  V30 5484 H 492.067 1.30763 -3.42486 0
M  V30 5485 H 491.715 3.78134 -3.31698 0
M  V30 5486 H 491.415 3.15465 -4.95738 0
M  V30 5487 H 492.939 4.01574 -4.59968 0
M  V30 5488 H 494.353 1.89416 -5.41105 0
M  V30 5489 H 492.75 1.24934 -5.86951 0
M  V30 5490 H 493.82 0.279742 -4.84092 0
M  V30 5491 N 495.163 1.55791 0.238111 0
M  V30 5492 C 496.126 1.90239 1.27835 0
M  V30 5493 C 497.126 0.779552 1.4064 0
M  V30 5494 O 498.316 1.04747 1.3919 0
M  V30 5495 C 495.448 2.13859 2.65475 0
M  V30 5496 H 496.641 2.83262 0.985034 0
M  V30 5497 H 494.194 1.48818 0.477799 0
M  V30 5498 H 494.929 1.23334 2.99932 0
M  V30 5499 H 494.714 2.95643 2.57561 0
M  V30 5500 H 496.204 2.41664 3.40571 0
M  V30 5501 N 496.642 -0.504142 1.49319 0
M  V30 5502 C 498.053 -1.08572 1.51885 0
M  V30 5503 C 498.404 -1.93842 0.303255 0
M  V30 5504 O 497.529 -2.0828 -0.58724 0
M  V30 5505 C 498.124 -1.97574 2.75227 0
M  V30 5506 C 496.683 -2.509 2.80581 0
M  V30 5507 C 495.83 -1.28447 2.45757 0
M  V30 5508 H 498.781 -0.288194 1.56061 0
M  V30 5509 H 498.802 -2.82219 2.55211 0
M  V30 5510 H 498.314 -1.35486 3.63683 0
M  V30 5511 H 496.415 -3.16636 1.96398 0
M  V30 5512 H 496.528 -2.88268 3.82673 0
M  V30 5513 H 494.892 -1.60868 1.97468 0
M  V30 5514 H 495.675 -0.68072 3.36483 0
M  V30 5515 N 498.12 -1.38341 -0.754957 0
M  V30 5516 C 499.369 -1.33791 -1.5094 0
M  V30 5517 C 499.682 0.0699267 -1.95475 0
M  V30 5518 O 500.888 0.237956 -2.70455 0
M  V30 5519 C 499.344 -2.34934 -2.72643 0
M  V30 5520 C 498.952 -3.81332 -2.35138 0
M  V30 5521 C 500.696 -2.39425 -3.50536 0
M  V30 5522 C 498.603 -4.74164 -3.53444 0
M  V30 5523 H 497.533 -0.497314 -0.566741 0
M  V30 5524 H 500.184 -1.63888 -0.825403 0
M  V30 5525 H 498.566 -1.97878 -3.43017 0
M  V30 5526 H 499.74 -4.27319 -1.7244 0
M  V30 5527 H 498.055 -3.79946 -1.70382 0
M  V30 5528 H 500.652 -3.0598 -4.38498 0
M  V30 5529 H 500.995 -1.41278 -3.91594 0
M  V30 5530 H 501.528 -2.75274 -2.87174 0
M  V30 5531 H 498.267 -5.73501 -3.17453 0
M  V30 5532 H 497.787 -4.3287 -4.15191 0
M  V30 5533 H 499.466 -4.92111 -4.20043 0
M  V30 5534 N 499.598 0.982988 -1.23187 0
M  V30 5535 C 500.823 1.76455 -1.08988 0
M  V30 5536 C 501.248 1.84726 0.354691 0
M  V30 5537 O 500.606 1.30699 1.25649 0
M  V30 5538 C 500.654 3.17094 -1.71708 0
M  V30 5539 O 499.758 4.00648 -0.977477 0
M  V30 5540 H 499.099 0.542988 -0.382177 0
M  V30 5541 H 501.629 1.23413 -1.63188 0
M  V30 5542 H 501.639 3.67684 -1.76841 0
M  V30 5543 H 500.314 3.10389 -2.76823 0
M  V30 5544 H 498.891 3.59161 -1.0029 0
M  V30 5545 N 501.076 1.04316 1.18135 0
M  V30 5546 C 502.301 0.768047 1.92655 0
M  V30 5547 C 502.726 -0.66904 1.758 0
M  V30 5548 O 502.084 -1.46372 1.06981 0
M  V30 5549 C 502.132 1.14239 3.42026 0
M  V30 5550 O 501.236 0.269333 4.1152 0
M  V30 5551 H 500.577 0.282436 0.600937 0
M  V30 5552 H 503.107 1.39367 1.49793 0
M  V30 5553 H 503.117 1.10538 3.92741 0
M  V30 5554 H 501.792 2.18928 3.53615 0
M  V30 5555 H 500.369 0.366175 3.71098 0
M  V30 5556 N 502.554 -1.34406 0.822964 0
M  V30 5557 C 503.779 -2.0304 0.423034 0
M  V30 5558 C 504.204 -1.61568 -0.963196 0
M  V30 5559 O 503.562 -0.800339 -1.62678 0
M  V30 5560 C 503.61 -3.56636 0.53321 0
M  V30 5561 O 502.714 -4.09971 -0.446939 0
M  V30 5562 H 502.055 -0.64075 0.174171 0
M  V30 5563 H 504.585 -1.71653 1.11339 0
M  V30 5564 H 504.595 -4.05945 0.408991 0
M  V30 5565 H 503.27 -3.86168 1.54425 0
M  V30 5566 H 501.847 -3.71835 -0.281601 0
M  V30 5567 N 504.032 -0.577932 -1.46621 0
M  V30 5568 C 504.982 0.178869 -2.27297 0
M  V30 5569 C 505.966 0.866279 -1.35589 0
M  V30 5570 O 507.158 0.761163 -1.59798 0
M  V30 5571 C 504.287 1.19499 -3.2183 0
M  V30 5572 C 503.373 0.50994 -4.21023 0
M  V30 5573 N 503.764 -0.43177 -5.03954 0
M  V30 5574 C 502.062 0.761287 -4.39455 0
M  V30 5575 C 502.763 -0.831693 -5.75724 0
M  V30 5576 N 501.739 -0.181897 -5.43296 0
M  V30 5577 H 505.541 -0.544859 -2.88805 0
M  V30 5578 H 503.055 -0.399373 -1.57413 0
M  V30 5579 H 505.052 1.75131 -3.78332 0
M  V30 5580 H 503.712 1.91959 -2.61881 0
M  V30 5581 H 504.723 -0.807045 -5.11573 0
M  V30 5582 H 501.4 1.47282 -3.90659 0
M  V30 5583 H 502.79 -1.6067 -6.52407 0
M  V30 5584 N 505.51 1.54411 -0.315457 0
M  V30 5585 C 506.926 1.59556 0.037464 0
M  V30 5586 C 507.126 1.33217 1.5118 0
M  V30 5587 O 506.182 1.11264 2.26664 0
M  V30 5588 C 507.495 2.98372 -0.373477 0
M  V30 5589 C 509.043 3.11324 -0.323452 0
M  V30 5590 C 509.518 4.52472 -0.709433 0
M  V30 5591 N 511.009 4.58437 -0.662524 0
M  V30 5592 C 511.744 5.65751 -0.933474 0
M  V30 5593 N 511.24 6.81039 -1.27114 0
M  V30 5594 N 513.033 5.55489 -0.859573 0
M  V30 5595 H 505.184 1.6979 -1.27614 0
M  V30 5596 H 507.447 0.793732 -0.518356 0
M  V30 5597 H 507.153 3.22618 -1.40037 0
M  V30 5598 H 507.027 3.76264 0.265615 0
M  V30 5599 H 509.414 2.86818 0.694223 0
M  V30 5600 H 509.495 2.35555 -0.997367 0
M  V30 5601 H 509.139 4.7771 -1.72498 0
M  V30 5602 H 509.069 5.26598 -0.0132923 0
M  V30 5603 H 511.56 3.75636 -0.413065 0
M  V30 5604 H 511.873 7.58816 -1.46348 0
M  V30 5605 H 510.218 6.82555 -1.30932 0
M  V30 5606 H 513.409 4.64299 -0.595324 0
M  V30 5607 H 513.582 6.39036 -1.0741 0
M  V30 5608 N 506.988 0.0434614 1.5754 0
M  V30 5609 C 507.935 -0.93356 2.11077 0
M  V30 5610 C 508.905 -1.31383 1.01626 0
M  V30 5611 O 510.09 -1.40465 1.29129 0
M  V30 5612 C 507.23 -2.20578 2.65404 0
M  V30 5613 C 506.343 -1.88068 3.88914 0
M  V30 5614 C 505.478 -3.09691 4.31584 0
M  V30 5615 C 504.517 -2.73067 5.47815 0
M  V30 5616 N 503.654 -3.87359 5.85574 0
M  V30 5617 H 508.494 -0.470118 2.94268 0
M  V30 5618 H 506.031 -0.220434 1.45439 0
M  V30 5619 H 507.989 -2.95011 2.94999 0
M  V30 5620 H 506.619 -2.64513 1.85021 0
M  V30 5621 H 505.671 -1.03816 3.6596 0
M  V30 5622 H 506.983 -1.57104 4.73413 0
M  V30 5623 H 506.137 -3.92431 4.62691 0
M  V30 5624 H 504.876 -3.43827 3.45882 0
M  V30 5625 H 503.881 -1.88742 5.16388 0
M  V30 5626 H 505.106 -2.40131 6.35227 0
M  V30 5627 H 503.052 -4.21311 5.02825 0
M  V30 5628 H 502.969 -3.60068 6.64746 0
M  V30 5629 H 504.237 -4.70761 6.21292 0
M  V30 5630 N 508.466 -1.55915 -0.229846 0
M  V30 5631 C 509.376 -1.94891 -1.30593 0
M  V30 5632 C 510.392 -0.851604 -1.51736 0
M  V30 5633 O 511.568 -1.15447 -1.65027 0
M  V30 5634 C 508.633 -2.25052 -2.63728 0
M  V30 5635 C 507.694 -3.48306 -2.5096 0
M  V30 5636 C 506.927 -3.77019 -3.77747 0
M  V30 5637 O 507.15 -3.07534 -4.80395 0
M  V30 5638 O 506.084 -4.70523 -3.75356 0
M  V30 5639 H 509.91 -2.86581 -1.00525 0
M  V30 5640 H 507.495 -1.43017 -0.432025 0
M  V30 5641 H 509.377 -2.45682 -3.42372 0
M  V30 5642 H 508.052 -1.36538 -2.93495 0
M  V30 5643 H 506.959 -3.32964 -1.70546 0
M  V30 5644 H 508.292 -4.37177 -2.26136 0
M  V30 5645 N 509.944 0.496216 -1.49584 0
M  V30 5646 C 511.193 1.24668 -1.58558 0
M  V30 5647 C 511.506 1.9359 -0.279703 0
M  V30 5648 O 512.712 2.70365 -0.248048 0
M  V30 5649 C 511.168 2.26388 -2.79779 0
M  V30 5650 C 510.776 1.63384 -4.17145 0
M  V30 5651 C 512.52 3.02233 -2.98086 0
M  V30 5652 C 510.427 2.63243 -5.29582 0
M  V30 5653 H 509.357 0.468995 -0.590389 0
M  V30 5654 H 512.008 0.519985 -1.75978 0
M  V30 5655 H 510.39 3.02241 -2.55863 0
M  V30 5656 H 511.564 0.93491 -4.51216 0
M  V30 5657 H 509.879 0.999121 -4.04236 0
M  V30 5658 H 512.476 3.76919 -3.79257 0
M  V30 5659 H 512.819 3.60132 -2.08831 0
M  V30 5660 H 513.352 2.33495 -3.22063 0
M  V30 5661 H 510.091 2.10119 -6.20911 0
M  V30 5662 H 509.611 3.31363 -4.99959 0
M  V30 5663 H 511.29 3.25575 -5.59115 0
M  V30 5664 N 511.423 1.38739 0.74761 0
M  V30 5665 C 512.67 1.35274 1.50689 0
M  V30 5666 C 512.998 -0.0553359 1.94421 0
M  V30 5667 O 512.253 -1.03365 1.66175 0
M  V30 5668 C 512.552 2.25992 2.7688 0
M  V30 5669 C 512.218 3.73854 2.5208 0
M  V30 5670 C 510.88 4.14145 2.45025 0
M  V30 5671 C 513.232 4.67427 2.30568 0
M  V30 5672 C 510.56 5.4609 2.14483 0
M  V30 5673 C 512.912 5.99635 2.01545 0
M  V30 5674 C 511.576 6.39004 1.92951 0
M  V30 5675 H 510.846 0.495003 0.55141 0
M  V30 5676 H 513.493 1.71145 0.859158 0
M  V30 5677 H 511.798 1.83196 3.46333 0
M  V30 5678 H 513.495 2.20611 3.34861 0
M  V30 5679 H 510.085 3.41913 2.58444 0
M  V30 5680 H 514.269 4.3714 2.34994 0
M  V30 5681 H 509.525 5.75528 2.06342 0
M  V30 5682 H 513.699 6.71678 1.83906 0
M  V30 5683 H 511.326 7.41165 1.6905 0
M  V30 5684 N 512.901 -0.976442 1.23707 0
M  V30 5685 C 513.833 -2.07212 0.979574 0
M  V30 5686 C 514.846 -1.6273 -0.0478528 0
M  V30 5687 O 516.035 -1.77506 0.18815 0
M  V30 5688 C 513.135 -3.35835 0.45479 0
M  V30 5689 C 512.308 -4.09268 1.54331 0
M  V30 5690 C 511.367 -5.16166 1.02271 0
M  V30 5691 O 510.393 -5.42827 1.71254 0
M  V30 5692 N 511.595 -5.80313 -0.147419 0
M  V30 5693 H 514.36 -2.29878 1.92292 0
M  V30 5694 H 511.921 -1.14343 1.14618 0
M  V30 5695 H 513.913 -4.04597 0.0914631 0
M  V30 5696 H 512.483 -3.10106 -0.394068 0
M  V30 5697 H 511.703 -3.34906 2.07923 0
M  V30 5698 H 512.991 -4.55095 2.27522 0
M  V30 5699 H 512.389 -5.61043 -0.724353 0
M  V30 5700 H 510.946 -6.50231 -0.451972 0
M  V30 5701 N 514.379 -1.04941 -1.1758 0
M  V30 5702 C 515.309 -0.669172 -2.23706 0
M  V30 5703 C 516.29 0.331835 -1.66832 0
M  V30 5704 O 517.475 0.209988 -1.93061 0
M  V30 5705 C 514.605 -0.0404889 -3.47276 0
M  V30 5706 C 513.559 -0.965983 -4.16957 0
M  V30 5707 C 512.885 -0.201312 -5.34321 0
M  V30 5708 C 514.185 -2.28902 -4.69469 0
M  V30 5709 H 515.879 -1.55639 -2.55767 0
M  V30 5710 H 513.425 -0.749793 -1.22939 0
M  V30 5711 H 515.378 0.237298 -4.20731 0
M  V30 5712 H 514.102 0.881658 -3.14475 0
M  V30 5713 H 512.761 -1.22829 -3.45411 0
M  V30 5714 H 512.409 0.723519 -4.97769 0
M  V30 5715 H 512.109 -0.817968 -5.81879 0
M  V30 5716 H 513.633 0.0692499 -6.10561 0
M  V30 5717 H 515.047 -2.07132 -5.34574 0
M  V30 5718 H 513.444 -2.85942 -5.27596 0
M  V30 5719 H 514.514 -2.92937 -3.86414 0
M  V30 5720 N 515.857 1.33968 -0.830081 0
M  V30 5721 C 517.104 1.98063 -0.421566 0
M  V30 5722 C 517.432 1.65787 1.0171 0
M  V30 5723 O 516.687 0.925348 1.72441 0
M  V30 5724 C 516.986 3.52679 -0.57898 0
M  V30 5725 C 516.652 4.04884 -1.98443 0
M  V30 5726 C 515.314 4.18852 -2.36888 0
M  V30 5727 C 517.666 4.32879 -2.90285 0
M  V30 5728 C 514.994 4.58145 -3.66497 0
M  V30 5729 C 517.346 4.7362 -4.19364 0
M  V30 5730 C 516.01 4.85794 -4.57778 0
M  V30 5731 H 515.28 0.724765 -0.154262 0
M  V30 5732 H 517.927 1.59792 -1.05541 0
M  V30 5733 H 516.232 3.91556 0.138219 0
M  V30 5734 H 517.929 4.00261 -0.243317 0
M  V30 5735 H 514.519 3.9448 -1.67581 0
M  V30 5736 H 518.703 4.21619 -2.61823 0
M  V30 5737 H 513.959 4.65762 -3.96075 0
M  V30 5738 H 518.133 4.9424 -4.90612 0
M  V30 5739 H 515.76 5.15998 -5.58256 0
M  V30 5740 N 517.335 0.585699 1.46312 0
M  V30 5741 C 518.581 0.0808731 2.03239 0
M  V30 5742 C 518.936 -1.26609 1.44872 0
M  V30 5743 O 518.229 -1.81779 0.60556 0
M  V30 5744 C 518.423 -0.0401312 3.57377 0
M  V30 5745 C 518.252 1.29356 4.30694 0
M  V30 5746 C 517.022 1.86849 4.69484 0
M  V30 5747 C 519.22 2.21742 4.64042 0
M  V30 5748 N 517.202 3.13926 5.27564 0
M  V30 5749 C 518.573 3.33408 5.22723 0
M  V30 5750 C 520.628 2.21386 4.45974 0
M  V30 5751 C 519.331 4.44852 5.65242 0
M  V30 5752 C 521.357 3.31862 4.89511 0
M  V30 5753 C 520.719 4.42248 5.48266 0
M  V30 5754 H 516.818 0.072443 0.778637 0
M  V30 5755 H 519.402 0.779254 1.78426 0
M  V30 5756 H 517.573 -0.707686 3.81898 0
M  V30 5757 H 519.305 -0.549615 4.00951 0
M  V30 5758 H 516.06 1.40307 4.52339 0
M  V30 5759 H 516.484 3.78775 5.61122 0
M  V30 5760 H 521.126 1.37314 3.99881 0
M  V30 5761 H 518.844 5.29665 6.10312 0
M  V30 5762 H 522.43 3.32708 4.7728 0
M  V30 5763 H 521.31 5.26323 5.81338 0
M  V30 5764 N 518.813 -1.54241 0.323641 0
M  V30 5765 C 520.229 -1.59574 -0.0290018 0
M  V30 5766 C 520.429 -1.34017 -1.50472 0
M  V30 5767 O 519.485 -1.12464 -2.26071 0
M  V30 5768 C 520.798 -2.98169 0.389295 0
M  V30 5769 C 522.346 -3.11148 0.339958 0
M  V30 5770 C 522.821 -4.5209 0.733418 0
M  V30 5771 N 524.312 -4.5808 0.686827 0
M  V30 5772 C 525.047 -5.65248 0.963464 0
M  V30 5773 N 524.543 -6.80355 1.30724 0
M  V30 5774 N 526.336 -5.55025 0.88902 0
M  V30 5775 H 518.487 -1.6911 1.28512 0
M  V30 5776 H 520.75 -0.790972 0.522558 0
M  V30 5777 H 520.456 -3.21871 1.41746 0
M  V30 5778 H 520.33 -3.76399 -0.245657 0
M  V30 5779 H 522.717 -2.87182 -0.679002 0
M  V30 5780 H 522.798 -2.35023 1.00985 0
M  V30 5781 H 522.442 -4.76788 1.75029 0
M  V30 5782 H 522.372 -5.26584 0.0412189 0
M  V30 5783 H 524.863 -3.75411 0.43298 0
M  V30 5784 H 525.176 -7.58029 1.5037 0
M  V30 5785 H 523.521 -6.81851 1.3455 0
M  V30 5786 H 526.712 -4.63977 0.619939 0
M  V30 5787 H 526.885 -6.38458 1.10797 0
M  V30 5788 N 520.291 -0.0518155 -1.57515 0
M  V30 5789 C 521.239 0.940195 -2.12751 0
M  V30 5790 C 522.233 1.3218 -1.05948 0
M  V30 5791 O 523.439 1.30138 -1.24355 0
M  V30 5792 H 519.814 0.321066 -0.680015 0
M  V30 5793 H 521.785 0.449217 -2.94999 0
M  V30 5794 C 520.534 2.2055 -2.68799 0
M  V30 5795 H 519.857 1.92066 -3.50643 0
M  V30 5796 H 521.297 2.88119 -3.11068 0
M  V30 5797 C 519.756 2.95061 -1.62605 0
M  V30 5798 O 520.286 3.88025 -1.03921 0
M  V30 5799 N 518.492 2.57804 -1.34111 0
M  V30 5800 H 518.039 1.82281 -1.8202 0
M  V30 5801 H 517.997 3.07964 -0.632872 0
M  V30 5802 O 521.808 1.61253 0.0892961 0
M  V30 5803 H 522.499 1.79931 0.717249 0
M  V30 END ATOM
M  V30 BEGIN BOND
M  V30 END BOND
M  V30 END CTAB
M  END
$$$$
