drugbank_target|P17181 Interferon alpha/beta receptor 1 (DB00008; DB00011; DB00018; DB00022; DB00034; DB00060; DB00068; DB00069; DB00105; DB05258; DB05472; DB14999)
 OpenBabel12092119363D

  0  0  0     0  0            999 V3000
M  V30 BEGIN CTAB
M  V30 COUNTS 8918 9026 0 0 0
M  V30 BEGIN ATOM
M  V30 1 H -0.908 1.98254 -0.117106 0
M  V30 2 N 0 1.576 0 0
M  V30 3 C 0.933 2.03868 1.02534 0
M  V30 4 C 1.911 0.928543 1.3348 0
M  V30 5 O 3.095 1.19667 1.45644 0
M  V30 6 C 0.222 2.43627 2.35294 0
M  V30 7 C -0.732 3.65373 2.2001 0
M  V30 8 S 0.101 5.13292 1.52614 0
M  V30 9 C 1.257 5.56322 2.86805 0
M  V30 10 H 1.49 2.90518 0.631377 0
M  V30 11 H -0.977 1.52953 0.210867 0
M  V30 12 H 0.981 2.67203 3.11629 0
M  V30 13 H -0.358 1.57376 2.7183 0
M  V30 14 H -1.165 3.90944 3.18086 0
M  V30 15 H -1.563 3.418 1.51819 0
M  V30 16 H 0.729 5.58782 3.83104 0
M  V30 17 H 1.672 6.56266 2.65933 0
M  V30 18 H 2.08 4.83886 2.90714 0
M  V30 19 N 1.4781 -0.272755 1.55222 0
M  V30 20 C 2.4111 -1.3627 1.83046 0
M  V30 21 C 3.3891 -1.47536 0.683521 0
M  V30 22 O 4.5731 -1.64157 0.926545 0
M  V30 23 C 1.7001 -2.73908 1.99229 0
M  V30 24 C 0.7461 -2.79925 3.21783 0
M  V30 25 S 1.5791 -2.39146 4.79134 0
M  V30 26 C 2.7351 -3.78758 4.9829 0
M  V30 27 H 2.9681 -1.12464 2.75207 0
M  V30 28 H 0.5011 -0.472398 1.46996 0
M  V30 29 H 2.4591 -3.53171 2.09238 0
M  V30 30 H 1.1201 -2.94965 1.07956 0
M  V30 31 H 0.3131 -3.80946 3.29994 0
M  V30 32 H -0.0849 -2.08683 3.10367 0
M  V30 33 H 2.2071 -4.7403 4.84047 0
M  V30 34 H 3.1501 -3.75499 6.00338 0
M  V30 35 H 3.5581 -3.70072 4.26271 0
M  V30 36 N 2.9562 -1.48159 -0.537278 0
M  V30 37 C 4.2022 -1.56035 -1.29541 0
M  V30 38 C 4.5352 -0.230377 -1.92829 0
M  V30 39 O 3.8102 0.762952 -1.78911 0
M  V30 40 C 4.0932 -2.69323 -2.39034 0
M  V30 41 C 3.9462 -4.12002 -1.80485 0
M  V30 42 C 5.2652 -2.78408 -3.40847 0
M  V30 43 H 2.3842 -0.567992 -0.469632 0
M  V30 44 H 5.0262 -1.80302 -0.599277 0
M  V30 45 H 3.1762 -2.48763 -2.98412 0
M  V30 46 H 4.8482 -4.43981 -1.25215 0
M  V30 47 H 3.0912 -4.19344 -1.11055 0
M  V30 48 H 3.7622 -4.87077 -2.59731 0
M  V30 49 H 6.2382 -2.97012 -2.91416 0
M  V30 50 H 5.1142 -3.59416 -4.14863 0
M  V30 51 H 5.3752 -1.86269 -4.00944 0
M  V30 52 N 4.4343 0.785586 -1.36625 0
M  V30 53 C 5.6803 1.54591 -1.31261 0
M  V30 54 C 6.0133 1.93906 0.106823 0
M  V30 55 O 5.2883 1.63007 1.06108 0
M  V30 56 C 5.5713 2.82038 -2.23889 0
M  V30 57 C 5.4243 2.49066 -3.74548 0
M  V30 58 C 6.7433 3.83887 -2.15217 0
M  V30 59 H 3.8623 0.560846 -0.478143 0
M  V30 60 H 6.5043 0.902278 -1.67209 0
M  V30 61 H 4.6543 3.36961 -1.93363 0
M  V30 62 H 6.3263 2.00164 -4.15611 0
M  V30 63 H 4.5693 1.81954 -3.93796 0
M  V30 64 H 5.2403 3.40109 -4.34776 0
M  V30 65 H 7.7163 3.38421 -2.42096 0
M  V30 66 H 6.5923 4.70806 -2.82193 0
M  V30 67 H 6.8533 4.27131 -1.14068 0
M  V30 68 N 5.9124 1.20967 1.01018 0
M  V30 69 C 6.8424 0.988272 2.11555 0
M  V30 70 C 7.8234 -0.0849778 1.69888 0
M  V30 71 O 9.0084 0.0738202 1.9406 0
M  V30 72 C 6.1384 0.546528 3.42973 0
M  V30 73 C 5.0924 1.56375 3.9841 0
M  V30 74 C 4.4184 0.97842 5.25672 0
M  V30 75 C 5.7184 2.94922 4.31066 0
M  V30 76 H 7.4124 1.91276 2.30334 0
M  V30 77 H 4.9584 0.921073 1.1069 0
M  V30 78 H 6.9114 0.378839 4.19694 0
M  V30 79 H 5.6354 -0.413598 3.23971 0
M  V30 80 H 4.2944 1.71891 3.23804 0
M  V30 81 H 3.9424 0.0101688 5.02999 0
M  V30 82 H 3.6424 1.65784 5.63728 0
M  V30 83 H 5.1664 0.821939 6.05043 0
M  V30 84 H 6.5804 2.8288 4.9865 0
M  V30 85 H 4.9774 3.5983 4.80253 0
M  V30 86 H 6.0474 3.4616 3.39561 0
M  V30 87 N 7.3905 -1.2043 1.01659 0
M  V30 88 C 8.3205 -2.25466 0.607226 0
M  V30 89 C 9.3015 -1.65853 -0.377716 0
M  V30 90 O 10.4865 -1.92409 -0.263149 0
M  V30 91 C 7.6165 -3.47256 -0.0552949 0
M  V30 92 C 6.5705 -4.19462 0.850632 0
M  V30 93 C 5.8965 -5.34673 0.0538859 0
M  V30 94 C 7.1965 -4.75603 2.15868 0
M  V30 95 H 8.8905 -2.59962 1.48526 0
M  V30 96 H 6.4365 -1.2496 0.715605 0
M  V30 97 H 8.3895 -4.19917 -0.353233 0
M  V30 98 H 7.1135 -3.11924 -0.968045 0
M  V30 99 H 5.7725 -3.48667 1.13257 0
M  V30 100 H 5.4205 -4.95585 -0.860514 0
M  V30 101 H 5.1205 -5.83913 0.657192 0
M  V30 102 H 6.6445 -6.10138 -0.237598 0
M  V30 103 H 8.0585 -5.40083 1.92311 0
M  V30 104 H 6.4555 -5.3528 2.71284 0
M  V30 105 H 7.5255 -3.94346 2.82169 0
M  V30 106 N 8.8686 -0.792821 -1.36206 0
M  V30 107 C 10.1166 -0.366062 -1.98757 0
M  V30 108 C 10.4376 1.0668 -1.63231 0
M  V30 109 O 9.7076 1.73587 -0.907978 0
M  V30 110 H 8.2876 -0.132364 -0.735179 0
M  V30 111 H 10.9496 -1.01562 -1.66347 0
M  V30 112 H 10.0456 -0.460638 -3.08682 0
M  V30 113 N 10.3467 1.47872 -0.545128 0
M  V30 114 C 11.3097 2.28337 0.198717 0
M  V30 115 C 12.3097 1.36255 0.853888 0
M  V30 116 O 13.4997 1.59003 0.711606 0
M  V30 117 C 10.6317 3.15585 1.28915 0
M  V30 118 H 11.8247 2.95567 -0.507941 0
M  V30 119 H 9.3777 1.53362 -0.301616 0
M  V30 120 H 10.1127 2.53019 2.02859 0
M  V30 121 H 9.8977 3.83337 0.824309 0
M  V30 122 H 11.3877 3.76243 1.81194 0
M  V30 123 N 11.8248 0.280983 1.55075 0
M  V30 124 C 13.0528 -0.337293 2.04132 0
M  V30 125 C 13.4678 -1.4903 1.15912 0
M  V30 126 O 12.8248 -1.81606 0.180459 0
M  V30 127 C 12.8758 -0.812706 3.52246 0
M  V30 128 O 12.5968 0.294387 4.3711 0
M  V30 129 C 14.0978 -1.4982 4.17216 0
M  V30 130 H 11.3178 -0.0761638 0.666663 0
M  V30 131 H 13.8618 0.414787 2.00249 0
M  V30 132 H 12.0168 -1.51486 3.56554 0
M  V30 133 H 12.4308 -0.0721325 5.2445 0
M  V30 134 H 13.9048 -1.7822 5.22438 0
M  V30 135 H 14.3818 -2.43168 3.65741 0
M  V30 136 H 14.9878 -0.839742 4.16927 0
M  V30 137 N 13.3029 -1.57598 0.00835791 0
M  V30 138 C 14.5309 -1.95214 -0.68549 0
M  V30 139 C 14.9459 -0.883706 -1.66841 0
M  V30 140 O 14.3029 0.136565 -1.81988 0
M  V30 141 C 14.3539 -3.32865 -1.41007 0
M  V30 142 O 14.0749 -4.35609 -0.466552 0
M  V30 143 C 15.5759 -3.84991 -2.19765 0
M  V30 144 H 12.7959 -0.643422 -0.190392 0
M  V30 145 H 15.3399 -2.04406 0.0619607 0
M  V30 146 H 13.4949 -3.24956 -2.10908 0
M  V30 147 H 13.9089 -5.15288 -0.978699 0
M  V30 148 H 15.3829 -4.8371 -2.65948 0
M  V30 149 H 15.8599 -3.18137 -3.02796 0
M  V30 150 H 16.4659 -3.96103 -1.54864 0
M  V30 151 N 14.781 0.264519 -1.55364 0
M  V30 152 C 15.711 1.33121 -1.91836 0
M  V30 153 C 16.692 1.51101 -0.781192 0
M  V30 154 O 17.877 1.64003 -1.04003 0
M  V30 155 C 15.007 2.68921 -2.19769 0
M  V30 156 C 13.961 2.65661 -3.35571 0
M  V30 157 C 13.287 4.05093 -3.49004 0
M  V30 158 C 14.587 2.24187 -4.71739 0
M  V30 159 H 16.281 1.02844 -2.81182 0
M  V30 160 H 13.827 0.493286 -1.35287 0
M  V30 161 H 15.78 3.43663 -2.43872 0
M  V30 162 H 14.504 3.00799 -1.27231 0
M  V30 163 H 13.163 1.93377 -3.1145 0
M  V30 164 H 12.811 4.34206 -2.53917 0
M  V30 165 H 12.511 4.03804 -4.26868 0
M  V30 166 H 14.035 4.81561 -3.75408 0
M  V30 167 H 15.449 2.88654 -4.9533 0
M  V30 168 H 13.846 2.34044 -5.52579 0
M  V30 169 H 14.916 1.19327 -4.69988 0
M  V30 170 N 16.2591 1.48442 0.529413 0
M  V30 171 C 17.5051 1.5672 1.28711 0
M  V30 172 C 17.8381 0.2406 1.92704 0
M  V30 173 O 17.1131 -0.753454 1.79313 0
M  V30 174 C 17.3961 2.70587 2.37603 0
M  V30 175 C 17.2491 4.12953 1.78297 0
M  V30 176 C 18.5681 2.80212 3.39366 0
M  V30 177 H 15.6871 0.570474 0.466613 0
M  V30 178 H 18.3291 1.80617 0.589706 0
M  V30 179 H 16.4791 2.50342 2.97088 0
M  V30 180 H 18.1511 4.44639 1.22858 0
M  V30 181 H 16.3941 4.19927 1.0883 0
M  V30 182 H 17.0651 4.88448 2.57144 0
M  V30 183 H 19.5411 2.98553 2.89836 0
M  V30 184 H 18.4171 3.61611 4.12951 0
M  V30 185 H 18.6781 1.88393 3.99951 0
M  V30 186 N 17.7372 -0.778329 1.37039 0
M  V30 187 C 18.6672 -1.90546 1.34962 0
M  V30 188 C 19.6482 -1.68681 0.219274 0
M  V30 189 O 20.8332 -1.89634 0.418624 0
M  V30 190 C 17.9632 -3.27734 1.14925 0
M  V30 191 C 16.9172 -3.64147 2.24902 0
M  V30 192 C 16.2432 -4.99806 1.89996 0
M  V30 193 C 17.5432 -3.71579 3.67051 0
M  V30 194 H 19.2372 -1.92541 2.29277 0
M  V30 195 H 16.7832 -0.924948 1.10366 0
M  V30 196 H 18.7362 -4.06215 1.12104 0
M  V30 197 H 17.4602 -3.26154 0.170631 0
M  V30 198 H 16.1192 -2.8797 2.26868 0
M  V30 199 H 15.7672 -4.94759 0.906796 0
M  V30 200 H 15.4672 -5.25139 2.63634 0
M  V30 201 H 16.9912 -5.80694 1.88749 0
M  V30 202 H 18.4052 -4.40227 3.67251 0
M  V30 203 H 16.8022 -4.08405 4.39688 0
M  V30 204 H 17.8722 -2.72404 4.01154 0
M  V30 205 N 19.2153 -1.21501 -1.00376 0
M  V30 206 C 20.4613 -1.03452 -1.74429 0
M  V30 207 C 20.7943 0.430764 -1.89362 0
M  V30 208 O 20.0693 1.31962 -1.42886 0
M  V30 209 C 20.3523 -1.73375 -3.15615 0
M  V30 210 C 20.2053 -3.27431 -3.08397 0
M  V30 211 C 21.5243 -1.47732 -4.14564 0
M  V30 212 H 18.6433 -0.377226 -0.633143 0
M  V30 213 H 21.2853 -1.49693 -1.17013 0
M  V30 214 H 19.4353 -1.34064 -3.64636 0
M  V30 215 H 21.1073 -3.76119 -2.67081 0
M  V30 216 H 19.3503 -3.5767 -2.45468 0
M  V30 217 H 20.0213 -3.71524 -4.08258 0
M  V30 218 H 22.4973 -1.8186 -3.74254 0
M  V30 219 H 21.3733 -1.99169 -5.11491 0
M  V30 220 H 21.6343 -0.407589 -4.40217 0
M  V30 221 N 20.6934 1.19889 -1.02296 0
M  V30 222 C 21.6564 2.21116 -0.603351 0
M  V30 223 C 22.6564 1.5738 0.329884 0
M  V30 224 O 23.8464 1.73802 0.117702 0
M  V30 225 C 20.9784 3.40696 0.117992 0
M  V30 226 H 22.1714 2.59754 -1.49893 0
M  V30 227 H 19.7244 1.33463 -0.813468 0
M  V30 228 H 20.4594 3.07569 1.0282 0
M  V30 229 H 20.2444 3.88188 -0.552511 0
M  V30 230 H 21.7344 4.15692 0.398696 0
M  V30 231 N 22.1715 0.800033 1.35784 0
M  V30 232 C 23.4175 0.377901 1.99248 0
M  V30 233 C 23.7505 -1.05052 1.63333 0
M  V30 234 O 23.0255 -1.72768 0.893385 0
M  V30 235 C 23.3085 0.553922 3.55814 0
M  V30 236 C 23.1615 2.0268 4.01548 0
M  V30 237 C 24.4805 -0.0244802 4.40093 0
M  V30 238 H 21.5995 0.138782 0.723815 0
M  V30 239 H 24.2415 1.00835 1.61035 0
M  V30 240 H 22.3915 0.0172398 3.88496 0
M  V30 241 H 24.0635 2.62536 3.79305 0
M  V30 242 H 22.3065 2.5256 3.52698 0
M  V30 243 H 22.9775 2.10087 5.10458 0
M  V30 244 H 25.4535 0.433775 4.13833 0
M  V30 245 H 24.3295 0.128637 5.48749 0
M  V30 246 H 24.5905 -1.11758 4.27741 0
M  V30 247 N 23.6496 -1.47581 0.552962 0
M  V30 248 C 24.6126 -2.28439 -0.186605 0
M  V30 249 C 25.6126 -1.36706 -0.84665 0
M  V30 250 O 26.8026 -1.59378 -0.703164 0
M  V30 251 C 23.9346 -3.16264 -1.2724 0
M  V30 252 H 25.1276 -2.95294 0.523609 0
M  V30 253 H 22.6806 -1.532 0.309745 0
M  V30 254 H 23.4156 -2.54091 -2.01514 0
M  V30 255 H 23.2006 -3.83769 -0.803968 0
M  V30 256 H 24.6906 -3.77198 -1.79196 0
M  V30 257 N 25.1277 -0.289203 -1.54924 0
M  V30 258 C 26.5387 0.205791 -1.85562 0
M  V30 259 C 26.8897 1.54351 -1.2112 0
M  V30 260 O 26.0147 2.10435 -0.504601 0
M  V30 261 C 26.6097 0.380177 -3.3666 0
M  V30 262 C 25.1687 0.819395 -3.67373 0
M  V30 263 C 24.3157 -0.079159 -2.77187 0
M  V30 264 H 27.2667 -0.510577 -1.50262 0
M  V30 265 H 27.2877 1.21659 -3.60526 0
M  V30 266 H 26.7997 -0.593589 -3.83534 0
M  V30 267 H 24.9007 1.80413 -3.26009 0
M  V30 268 H 25.0137 0.646957 -4.74712 0
M  V30 269 H 23.3777 0.439565 -2.50878 0
M  V30 270 H 24.1607 -1.04906 -3.26878 0
M  V30 271 N 26.6058 1.57591 -0.0167156 0
M  V30 272 C 27.8518 1.92399 0.659861 0
M  V30 273 C 28.2068 0.892561 1.70444 0
M  V30 274 O 27.4998 -0.0930755 1.91374 0
M  V30 275 C 27.6938 3.3172 1.33029 0
M  V30 276 C 27.5228 4.48319 0.352174 0
M  V30 277 C 26.2928 5.05281 -0.0434883 0
M  V30 278 C 28.4908 5.12831 -0.388474 0
M  V30 279 N 26.4728 6.05399 -1.01807 0
M  V30 280 C 27.8438 6.07934 -1.2172 0
M  V30 281 C 29.8988 4.95858 -0.450513 0
M  V30 282 C 28.6018 6.87891 -2.10235 0
M  V30 283 C 30.6278 5.76413 -1.32295 0
M  V30 284 C 29.9898 6.71123 -2.13948 0
M  V30 285 H 26.0888 0.752106 0.21415 0
M  V30 286 H 28.6728 1.94532 -0.0809846 0
M  V30 287 H 26.8438 3.3043 2.04134 0
M  V30 288 H 28.5758 3.5391 1.9629 0
M  V30 289 H 25.3308 4.7246 0.328384 0
M  V30 290 H 25.7548 6.60145 -1.50123 0
M  V30 291 H 30.3968 4.22472 0.166512 0
M  V30 292 H 28.1148 7.60591 -2.72997 0
M  V30 293 H 31.7008 5.65317 -1.37508 0
M  V30 294 H 30.5808 7.3237 -2.80364 0
M  V30 295 N 28.0839 -0.256276 1.55502 0
M  V30 296 C 29.3299 -0.987079 1.77157 0
M  V30 297 C 29.6629 -1.85327 0.580315 0
M  V30 298 O 28.9379 -1.89874 -0.421686 0
M  V30 299 C 29.2209 -1.85553 3.08613 0
M  V30 300 C 29.0739 -1.01816 4.38125 0
M  V30 301 C 30.3929 -2.8397 3.36228 0
M  V30 302 H 27.5119 -0.357428 0.644526 0
M  V30 303 H 30.1539 -0.258239 1.88237 0
M  V30 304 H 28.3039 -2.47695 2.99298 0
M  V30 305 H 29.9759 -0.416159 4.59419 0
M  V30 306 H 28.2189 -0.322178 4.32602 0
M  V30 307 H 28.8899 -1.65939 5.26468 0
M  V30 308 H 31.3659 -2.31964 3.45445 0
M  V30 309 H 30.2419 -3.41864 4.29442 0
M  V30 310 H 30.5029 -3.59955 2.56681 0
M  V30 311 N 29.562 -1.4872 -0.521534 0
M  V30 312 C 30.492 -1.66771 -1.63431 0
M  V30 313 C 31.473 -0.516499 -1.62069 0
M  V30 314 O 32.658 -0.750013 -1.79132 0
M  V30 315 C 29.788 -1.71515 -3.01993 0
M  V30 316 C 28.742 -2.86222 -3.18216 0
M  V30 317 C 28.068 -2.76061 -4.57924 0
M  V30 318 C 29.368 -4.27419 -3.00184 0
M  V30 319 H 31.062 -2.59932 -1.48579 0
M  V30 320 H 28.608 -1.25089 -0.713358 0
M  V30 321 H 30.561 -1.82731 -3.7972 0
M  V30 322 H 29.285 -0.749393 -3.17886 0
M  V30 323 H 27.944 -2.74575 -2.42908 0
M  V30 324 H 27.592 -1.77437 -4.70665 0
M  V30 325 H 27.292 -3.53037 -4.69722 0
M  V30 326 H 28.816 -2.89256 -5.37739 0
M  V30 327 H 30.23 -4.39855 -3.67697 0
M  V30 328 H 28.627 -5.05458 -3.2347 0
M  V30 329 H 29.697 -4.43293 -1.96518 0
M  V30 330 N 31.0401 0.771051 -1.3745 0
M  V30 331 C 32.2651 1.56529 -1.36065 0
M  V30 332 C 32.6901 1.88029 0.0515859 0
M  V30 333 O 32.0481 1.49282 1.02882 0
M  V30 334 C 32.0961 2.85187 -2.20683 0
M  V30 335 O 31.2001 3.79593 -1.61193 0
M  V30 336 H 30.5411 0.47411 -0.464883 0
M  V30 337 H 33.0711 0.954269 -1.80983 0
M  V30 338 H 33.0811 3.34283 -2.33921 0
M  V30 339 H 31.7561 2.61588 -3.23334 0
M  V30 340 H 30.3331 3.38239 -1.56999 0
M  V30 341 N 32.5182 1.22032 0.997298 0
M  V30 342 C 33.4812 0.987909 2.06816 0
M  V30 343 C 34.4812 -0.0440084 1.6074 0
M  V30 344 O 35.6712 0.194053 1.73116 0
M  V30 345 C 32.8032 0.49132 3.37341 0
M  V30 346 H 33.9962 1.93803 2.28868 0
M  V30 347 H 31.5492 1.03838 1.16822 0
M  V30 348 H 32.2842 -0.463364 3.20973 0
M  V30 349 H 32.0692 1.23575 3.72118 0
M  V30 350 H 33.5592 0.348824 4.16141 0
M  V30 351 N 33.9963 -1.19345 1.0293 0
M  V30 352 C 34.9593 -2.20793 0.615069 0
M  V30 353 C 35.9593 -1.57553 -0.321533 0
M  V30 354 O 37.1493 -1.73862 -0.108483 0
M  V30 355 C 34.2813 -3.40754 -0.0999222 0
M  V30 356 H 35.4743 -2.58955 1.51269 0
M  V30 357 H 33.0273 -1.3303 0.820534 0
M  V30 358 H 33.7623 -3.0811 -1.01187 0
M  V30 359 H 33.5473 -3.87889 0.57309 0
M  V30 360 H 35.0373 -4.15898 -0.376645 0
M  V30 361 N 35.4744 -0.807222 -1.35358 0
M  V30 362 C 36.4374 -0.223665 -2.28106 0
M  V30 363 C 37.4374 0.589354 -1.4961 0
M  V30 364 O 38.6274 0.407745 -1.69361 0
M  V30 365 C 35.7594 0.688149 -3.33882 0
M  V30 366 H 36.9524 -1.04169 -2.81227 0
M  V30 367 H 34.5054 -0.577921 -1.45223 0
M  V30 368 H 35.2404 1.52984 -2.85948 0
M  V30 369 H 35.0254 0.10687 -3.91954 0
M  V30 370 H 36.5154 1.09075 -4.03104 0
M  V30 371 N 36.9525 1.47285 -0.560781 0
M  V30 372 C 38.2005 2.02064 -0.0379868 0
M  V30 373 C 38.5215 1.43711 1.31803 0
M  V30 374 O 37.7915 0.61362 1.86042 0
M  V30 375 H 36.3715 0.746918 -0.0110531 0
M  V30 376 H 39.0335 1.80648 -0.731598 0
M  V30 377 H 38.1295 3.12064 0.0474463 0
M  V30 378 N 38.4306 0.297415 1.54768 0
M  V30 379 C 39.6786 -0.312295 1.99673 0
M  V30 380 C 39.9996 -1.54686 1.18732 0
M  V30 381 O 39.2696 -1.93854 0.282382 0
M  V30 382 H 37.8496 -0.118381 0.73756 0
M  V30 383 H 40.5116 0.407915 1.90583 0
M  V30 384 H 39.6076 -0.586813 3.06534 0
M  V30 385 N 39.9087 -1.5758 0.0250728 0
M  V30 386 C 40.8557 -2.09973 -0.958129 0
M  V30 387 C 41.8257 -1.00085 -1.3256 0
M  V30 388 O 43.0107 -1.27481 -1.41962 0
M  V30 389 C 40.1507 -2.62812 -2.2366 0
M  V30 390 C 39.2637 -3.86693 -1.92594 0
M  V30 391 C 38.3987 -4.27941 -3.14707 0
M  V30 392 C 37.4377 -5.44591 -2.79442 0
M  V30 393 N 36.5747 -5.81014 -3.94167 0
M  V30 394 H 41.4147 -2.937 -0.504428 0
M  V30 395 H 38.9517 -1.45172 -0.237392 0
M  V30 396 H 40.9097 -2.91536 -2.98434 0
M  V30 397 H 39.5397 -1.81922 -2.66654 0
M  V30 398 H 38.5917 -3.64723 -1.0808 0
M  V30 399 H 39.9037 -4.71547 -1.62619 0
M  V30 400 H 39.0577 -4.58079 -3.97804 0
M  V30 401 H 37.7967 -3.41845 -3.4784 0
M  V30 402 H 36.8017 -5.1415 -1.94755 0
M  V30 403 H 38.0267 -6.32382 -2.47528 0
M  V30 404 H 35.9727 -4.97874 -4.2715 0
M  V30 405 H 35.8897 -6.60498 -3.67801 0
M  V30 406 H 37.1577 -6.15756 -4.7798 0
M  V30 407 N 41.3868 0.248026 -1.55636 0
M  V30 408 C 42.3348 1.32683 -1.91045 0
M  V30 409 C 43.3288 1.49883 -0.789401 0
M  V30 410 O 44.5348 1.51371 -0.974007 0
M  V30 411 H 40.9098 0.444272 -0.606734 0
M  V30 412 H 42.8808 1.00085 -2.81115 0
M  V30 413 C 41.6298 2.6755 -2.22064 0
M  V30 414 H 40.9528 2.55114 -3.07826 0
M  V30 415 H 42.3928 3.41912 -2.50743 0
M  V30 416 C 40.8518 3.20556 -1.0366 0
M  V30 417 O 41.3818 4.00695 -0.284016 0
M  V30 418 N 39.5878 2.78568 -0.82753 0
M  V30 419 H 39.1348 2.1351 -1.44123 0
M  V30 420 H 39.0928 3.14378 -0.0369803 0
M  V30 421 N 42.8649 1.48995 0.513639 0
M  V30 422 C 43.7949 1.67636 1.62544 0
M  V30 423 C 44.7759 0.525087 1.61793 0
M  V30 424 O 45.9609 0.759502 1.78732 0
M  V30 425 C 43.0909 1.73114 3.01079 0
M  V30 426 C 42.0449 2.87905 3.16693 0
M  V30 427 C 41.3709 2.78486 4.56453 0
M  V30 428 C 42.6709 4.29005 2.97913 0
M  V30 429 H 44.3649 2.60716 1.47198 0
M  V30 430 H 41.9109 1.25465 0.706714 0
M  V30 431 H 43.8639 1.84742 3.78746 0
M  V30 432 H 42.5879 0.766241 3.17484 0
M  V30 433 H 41.2469 2.75859 2.41448 0
M  V30 434 H 40.8949 1.7993 4.69717 0
M  V30 435 H 40.5949 3.55523 4.67843 0
M  V30 436 H 42.1189 2.92104 5.36197 0
M  V30 437 H 43.5329 4.41798 3.65359 0
M  V30 438 H 41.9299 5.07166 3.20785 0
M  V30 439 H 42.9999 4.44329 1.94165 0
M  V30 440 N 44.343 -0.763751 1.37857 0
M  V30 441 C 45.29 -1.87726 1.34267 0
M  V30 442 C 46.26 -1.64807 0.206879 0
M  V30 443 O 47.445 -1.86613 0.397508 0
M  V30 444 C 44.585 -3.24896 1.16346 0
M  V30 445 C 43.698 -3.59716 2.39225 0
M  V30 446 C 42.833 -4.86137 2.14114 0
M  V30 447 C 41.872 -5.13711 3.32817 0
M  V30 448 N 41.009 -6.31323 3.07206 0
M  V30 449 H 45.849 -1.90129 2.29466 0
M  V30 450 H 43.386 -0.929433 1.14017 0
M  V30 451 H 45.344 -4.04036 1.03975 0
M  V30 452 H 43.974 -3.21847 0.247909 0
M  V30 453 H 43.026 -2.75498 2.62307 0
M  V30 454 H 44.338 -3.76027 3.27728 0
M  V30 455 H 43.492 -5.73198 1.9882 0
M  V30 456 H 42.231 -4.71945 1.22961 0
M  V30 457 H 41.236 -4.25123 3.48641 0
M  V30 458 H 42.461 -5.29807 4.24832 0
M  V30 459 H 40.407 -6.18474 2.1869 0
M  V30 460 H 40.324 -6.48087 3.89254 0
M  V30 461 H 41.592 -7.213 2.95546 0
M  V30 462 N 45.8211 -1.22559 -0.990812 0
M  V30 463 C 47.0461 -1.07862 -1.77145 0
M  V30 464 C 47.4711 0.366447 -1.84496 0
M  V30 465 O 46.8291 1.26478 -1.29896 0
M  V30 466 C 46.8771 -1.69686 -3.18181 0
M  V30 467 O 45.9811 -0.951946 -4.01263 0
M  V30 468 H 45.3221 -0.378712 -0.545411 0
M  V30 469 H 47.8521 -1.62399 -1.2445 0
M  V30 470 H 47.8621 -1.74496 -3.68802 0
M  V30 471 H 46.5371 -2.74841 -3.12146 0
M  V30 472 H 45.1141 -0.980011 -3.59792 0
M  V30 473 N 47.2992 1.18797 -1.03562 0
M  V30 474 C 48.7102 1.70322 -0.764676 0
M  V30 475 C 49.0612 1.82708 0.714996 0
M  V30 476 O 48.1862 1.50299 1.55689 0
M  V30 477 C 48.7812 3.09356 -1.38145 0
M  V30 478 C 47.3402 3.58114 -1.15895 0
M  V30 479 C 46.4872 2.34798 -1.4753 0
M  V30 480 H 49.4382 1.03543 -1.20268 0
M  V30 481 H 49.4592 3.72378 -0.781977 0
M  V30 482 H 48.9712 3.00309 -2.45837 0
M  V30 483 H 47.0722 3.72464 -0.100544 0
M  V30 484 H 47.1852 4.4184 -1.8524 0
M  V30 485 H 45.5492 2.38464 -0.894829 0
M  V30 486 H 46.3322 2.28375 -2.56319 0
M  V30 487 N 48.7773 0.814389 1.34928 0
M  V30 488 C 49.7093 0.187834 2.28429 0
M  V30 489 C 50.7223 -0.617374 1.5064 0
M  V30 490 O 51.9113 -0.448454 1.72775 0
M  V30 491 C 49.0113 -0.755962 3.30361 0
M  V30 492 C 48.1843 0.00456686 4.374 0
M  V30 493 C 47.2433 -0.858876 5.19143 0
M  V30 494 O 46.2693 -0.306968 5.68372 0
M  V30 495 N 47.4713 -2.17988 5.38016 0
M  V30 496 H 50.2363 0.991105 2.82838 0
M  V30 497 H 47.7973 0.670561 1.4736 0
M  V30 498 H 49.7893 -1.338 3.81942 0
M  V30 499 H 48.3593 -1.46001 2.7641 0
M  V30 500 H 47.5793 0.767865 3.86649 0
M  V30 501 H 48.8673 0.528422 5.06049 0
M  V30 502 H 48.2653 -2.65212 4.99679 0
M  V30 503 H 46.8223 -2.71098 5.92747 0
M  V30 504 N 50.2554 -1.46986 0.568584 0
M  V30 505 C 51.2024 -2.30153 -0.172707 0
M  V30 506 C 52.1724 -1.39759 -0.897586 0
M  V30 507 O 53.3574 -1.68716 -0.891044 0
M  V30 508 C 50.4974 -3.23952 -1.1895 0
M  V30 509 C 49.6104 -4.29441 -0.469517 0
M  V30 510 C 48.7454 -5.1038 -1.47259 0
M  V30 511 C 47.7844 -6.07632 -0.738225 0
M  V30 512 N 46.9214 -6.8149 -1.68868 0
M  V30 513 H 51.7614 -2.93019 0.542596 0
M  V30 514 H 49.2984 -1.44422 0.279401 0
M  V30 515 H 51.2564 -3.76767 -1.79173 0
M  V30 516 H 49.8864 -2.62926 -1.87269 0
M  V30 517 H 48.9384 -3.79594 0.247467 0
M  V30 518 H 50.2504 -4.98689 0.105241 0
M  V30 519 H 49.4044 -5.67402 -2.14803 0
M  V30 520 H 48.1434 -4.4106 -2.08128 0
M  V30 521 H 47.1484 -5.49778 -0.0489293 0
M  V30 522 H 48.3734 -6.78966 -0.135129 0
M  V30 523 H 46.3194 -6.14891 -2.28573 0
M  V30 524 H 46.2364 -7.46948 -1.16636 0
M  V30 525 H 47.5044 -7.43078 -2.3549 0
M  V30 526 N 51.7335 -0.305618 -1.54608 0
M  V30 527 C 52.9795 0.302746 -2.00528 0
M  V30 528 C 53.3125 1.53184 -1.19367 0
M  V30 529 O 52.5875 1.92598 -0.271321 0
M  V30 530 C 52.8705 0.654756 -3.54097 0
M  V30 531 C 52.7235 -0.583793 -4.45995 0
M  V30 532 C 54.0425 1.47947 -4.14487 0
M  V30 533 H 51.1615 0.108564 -0.72896 0
M  V30 534 H 53.8035 -0.418634 -1.85331 0
M  V30 535 H 51.9535 1.26935 -3.67178 0
M  V30 536 H 53.6255 -1.22224 -4.44814 0
M  V30 537 H 51.8685 -1.21615 -4.16404 0
M  V30 538 H 52.5395 -0.293287 -5.5122 0
M  V30 539 H 55.0155 0.96013 -4.04871 0
M  V30 540 H 53.8915 1.69454 -5.22088 0
M  V30 541 H 54.1525 2.47011 -3.66658 0
M  V30 542 N 53.2116 1.57565 -0.0334293 0
M  V30 543 C 54.1216 2.13943 0.962572 0
M  V30 544 C 55.1376 1.09276 1.35406 0
M  V30 545 O 56.3136 1.41355 1.4346 0
M  V30 546 C 53.3786 2.65887 2.22497 0
M  V30 547 C 52.4396 3.85286 1.8935 0
M  V30 548 C 51.6726 4.34743 3.09571 0
M  V30 549 O 51.8956 3.83352 4.22371 0
M  V30 550 O 50.8296 5.26538 2.91618 0
M  V30 551 H 54.6556 2.99333 0.513169 0
M  V30 552 H 52.2406 1.4822 0.18743 0
M  V30 553 H 54.1226 2.99346 2.96598 0
M  V30 554 H 52.7976 1.83578 2.6661 0
M  V30 555 H 51.7046 3.56746 1.1262 0
M  V30 556 H 53.0376 4.68771 1.5005 0
M  V30 557 N 54.6897 -0.239769 1.55765 0
M  V30 558 C 55.9357 -0.968234 1.78194 0
M  V30 559 C 56.2687 -1.84701 0.599938 0
M  V30 560 O 55.5437 -1.9031 -0.401524 0
M  V30 561 C 55.8267 -1.8227 3.10564 0
M  V30 562 C 55.6797 -0.971633 4.3918 0
M  V30 563 C 56.9987 -2.80388 3.39221 0
M  V30 564 H 54.1177 -0.350572 0.648281 0
M  V30 565 H 56.7597 -0.238259 1.885 0
M  V30 566 H 54.9097 -2.44507 3.01908 0
M  V30 567 H 56.5817 -0.367408 4.59835 0
M  V30 568 H 54.8247 -0.276276 4.32919 0
M  V30 569 H 55.4957 -1.60346 5.28198 0
M  V30 570 H 57.9717 -2.28287 3.47885 0
M  V30 571 H 56.8477 -3.3729 4.33044 0
M  V30 572 H 57.1087 -3.57212 2.60484 0
M  V30 573 N 56.1678 -1.49265 -0.50573 0
M  V30 574 C 57.4448 -1.49012 -1.26707 0
M  V30 575 C 57.8248 -0.215205 -2.1 0
M  V30 576 O 57.1728 0.802547 -2.13943 0
M  V30 577 C 57.3828 -2.7663 -2.12783 0
M  V30 578 C 58.7308 -3.25932 -2.72127 0
M  V30 579 O 59.7548 -2.77715 -2.23054 0
M  V30 580 O 58.6138 -4.09897 -3.61451 0
M  V30 581 H 55.7078 -0.596197 -0.57313 0
M  V30 582 H 58.2538 -1.61524 -0.52039 0
M  V30 583 H 57.0258 -3.60916 -1.5118 0
M  V30 584 H 56.6488 -2.66956 -2.94653 0
M  V30 585 N 57.6459 0.756429 -1.3826 0
M  V30 586 C 58.8949 1.51082 -1.3363 0
M  V30 587 C 59.2079 1.95467 0.0720068 0
M  V30 588 O 60.4139 2.7043 0.240834 0
M  V30 589 C 58.8699 2.72893 -2.34644 0
M  V30 590 C 58.4779 2.35544 -3.81081 0
M  V30 591 C 60.2219 3.50791 -2.39052 0
M  V30 592 C 58.1289 3.53948 -4.73787 0
M  V30 593 H 57.0589 0.56727 -0.49671 0
M  V30 594 H 59.7099 0.827147 -1.638 0
M  V30 595 H 58.0919 3.43227 -1.97513 0
M  V30 596 H 59.2659 1.72894 -4.27135 0
M  V30 597 H 57.5809 1.70786 -3.79764 0
M  V30 598 H 60.1779 4.38823 -3.05513 0
M  V30 599 H 60.5209 3.91745 -1.40861 0
M  V30 600 H 61.0539 2.87467 -2.74968 0
M  V30 601 H 57.7929 3.18064 -5.73163 0
M  V30 602 H 57.3129 4.15651 -4.32428 0
M  V30 603 H 58.9919 4.20566 -4.91663 0
M  V30 604 N 59.124 1.23083 0.984299 0
M  V30 605 C 60.373 1.05466 1.71929 0
M  V30 606 C 60.686 -0.409211 1.91272 0
M  V30 607 O 61.892 -0.705226 2.62181 0
M  V30 608 C 60.348 1.83874 3.09384 0
M  V30 609 C 59.956 3.34566 2.97943 0
M  V30 610 C 61.7 1.74734 3.8687 0
M  V30 611 C 59.607 4.05381 4.30605 0
M  V30 612 H 58.537 0.391039 0.644674 0
M  V30 613 H 61.188 1.47013 1.09815 0
M  V30 614 H 59.57 1.35131 3.72231 0
M  V30 615 H 60.744 3.90767 2.44209 0
M  V30 616 H 59.059 3.44476 2.33934 0
M  V30 617 H 61.656 2.24957 4.85076 0
M  V30 618 H 61.999 0.709372 4.10212 0
M  V30 619 H 62.532 2.21067 3.30717 0
M  V30 620 H 59.271 5.09467 4.1246 0
M  V30 621 H 58.791 3.53967 4.84218 0
M  V30 622 H 60.47 4.11458 4.99311 0
M  V30 623 N 60.6021 -1.18246 1.0419 0
M  V30 624 C 61.8791 -1.84121 0.660208 0
M  V30 625 C 62.2591 -1.92778 -0.860221 0
M  V30 626 O 61.6071 -1.45464 -1.76217 0
M  V30 627 C 61.8171 -3.22355 1.33747 0
M  V30 628 C 63.1651 -3.98376 1.46906 0
M  V30 629 O 64.1891 -3.31799 1.29568 0
M  V30 630 O 63.0481 -5.17665 1.75171 0
M  V30 631 H 60.1421 -0.794036 0.231161 0
M  V30 632 H 62.6881 -1.25628 1.14087 0
M  V30 633 H 61.4601 -3.10964 2.37522 0
M  V30 634 H 61.0831 -3.88506 0.845515 0
M  V30 635 N 62.0802 -0.821533 -1.34494 0
M  V30 636 C 63.3572 -0.33159 -1.92769 0
M  V30 637 C 63.7372 1.18088 -1.74981 0
M  V30 638 O 63.0852 1.98733 -1.12772 0
M  V30 639 C 63.2952 -0.759398 -3.40638 0
M  V30 640 C 64.6432 -0.757433 -4.1779 0
M  V30 641 O 65.6672 -0.70189 -3.49216 0
M  V30 642 O 64.5262 -0.829361 -5.4017 0
M  V30 643 H 61.6202 -0.0902502 -0.822061 0
M  V30 644 H 64.1662 -0.906231 -1.43477 0
M  V30 645 H 62.9382 -1.8012 -3.47379 0
M  V30 646 H 62.5612 -0.160378 -3.97276 0
M  V30 647 N 63.5583 1.46682 -0.576371 0
M  V30 648 C 64.5063 2.31953 0.17335 0
M  V30 649 C 65.5003 1.44098 0.89062 0
M  V30 650 O 66.7063 1.60759 0.809728 0
M  V30 651 H 63.0813 0.748273 0.0747727 0
M  V30 652 H 65.0523 2.93007 -0.564738 0
M  V30 653 C 63.8013 3.27142 1.17786 0
M  V30 654 H 63.1243 3.94719 0.635361 0
M  V30 655 H 64.5643 3.896 1.67296 0
M  V30 656 C 63.0233 2.52036 2.23561 0
M  V30 657 O 63.5533 2.27877 3.3081 0
M  V30 658 N 61.7593 2.12709 1.97998 0
M  V30 659 H 61.3063 2.32557 1.10792 0
M  V30 660 H 61.2643 1.62776 2.68982 0
M  V30 661 N 65.0364 0.313813 1.54444 0
M  V30 662 C 66.2834 -0.291675 2.00388 0
M  V30 663 C 66.6114 -1.52904 1.2021 0
M  V30 664 O 65.8664 -1.93833 0.269707 0
M  V30 665 C 66.1654 -0.680386 3.50864 0
M  V30 666 C 65.8314 0.456699 4.48581 0
M  V30 667 C 64.4934 0.768824 4.75018 0
M  V30 668 C 66.8454 1.22098 5.06697 0
M  V30 669 C 64.1734 1.84812 5.56831 0
M  V30 670 C 66.5254 2.29029 5.89685 0
M  V30 671 C 65.1894 2.60834 6.14428 0
M  V30 672 H 64.4594 -0.106732 0.733273 0
M  V30 673 H 67.1064 0.43557 1.86481 0
M  V30 674 H 65.4114 -1.48791 3.62448 0
M  V30 675 H 67.1084 -1.16026 3.83847 0
M  V30 676 H 63.6984 0.203337 4.28117 0
M  V30 677 H 67.8824 0.993096 4.86263 0
M  V30 678 H 63.1384 2.09912 5.74236 0
M  V30 679 H 67.3124 2.887 6.33739 0
M  V30 680 H 64.9394 3.44596 6.77612 0
M  V30 681 N 66.5145 -1.57545 0.0417849 0
M  V30 682 C 67.7635 -1.91494 -0.633492 0
M  V30 683 C 68.0765 -0.921084 -1.72556 0
M  V30 684 O 69.2825 -1.15228 -2.45835 0
M  V30 685 C 67.7385 -3.40072 -1.17808 0
M  V30 686 C 67.3465 -4.47843 -0.118633 0
M  V30 687 C 69.0905 -3.8307 -1.82915 0
M  V30 688 C 66.9975 -5.87529 -0.675578 0
M  V30 689 H 65.9275 -0.714653 -0.24039 0
M  V30 690 H 68.5785 -1.83175 0.109148 0
M  V30 691 H 66.9605 -3.43364 -1.97274 0
M  V30 692 H 68.1345 -4.56128 0.654494 0
M  V30 693 H 66.4495 -4.14128 0.434414 0
M  V30 694 H 69.0465 -4.84794 -2.25563 0
M  V30 695 H 69.3895 -3.1881 -2.67705 0
M  V30 696 H 69.9225 -3.82255 -1.10119 0
M  V30 697 H 66.6615 -6.55362 0.134475 0
M  V30 698 H 66.1815 -5.82824 -1.4169 0
M  V30 699 H 67.8605 -6.36491 -1.1614 0
M  V30 700 N 67.9926 0.231505 -1.5589 0
M  V30 701 C 68.9226 1.29022 -1.94617 0
M  V30 702 C 69.9036 1.4941 -0.813067 0
M  V30 703 O 71.0886 1.6176 -1.07459 0
M  V30 704 C 68.2186 2.64199 -2.25424 0
M  V30 705 C 67.1726 2.58484 -3.41131 0
M  V30 706 C 66.4986 3.97599 -3.57518 0
M  V30 707 C 67.7986 2.1413 -4.76388 0
M  V30 708 H 69.4926 0.968563 -2.83301 0
M  V30 709 H 67.0386 0.464479 -1.36303 0
M  V30 710 H 68.9916 3.38413 -2.51107 0
M  V30 711 H 67.7156 2.98032 -1.33583 0
M  V30 712 H 66.3746 1.86727 -3.15481 0
M  V30 713 H 66.0226 4.28723 -2.6307 0
M  V30 714 H 65.7226 3.94659 -4.35337 0
M  V30 715 H 67.2466 4.7349 -3.85538 0
M  V30 716 H 68.6606 2.78083 -5.01341 0
M  V30 717 H 67.0576 2.2227 -5.57419 0
M  V30 718 H 68.1276 1.09331 -4.72414 0
M  V30 719 N 69.4707 1.49531 0.497807 0
M  V30 720 C 70.8867 1.36365 0.829266 0
M  V30 721 C 71.0867 0.399184 1.97506 0
M  V30 722 O 70.1427 -0.167977 2.51941 0
M  V30 723 C 71.4557 2.77153 1.16647 0
M  V30 724 C 73.0037 2.85877 1.27449 0
M  V30 725 C 73.4787 4.2744 1.64497 0
M  V30 726 N 74.9697 4.30265 1.7154 0
M  V30 727 C 75.7047 5.3677 2.01656 0
M  V30 728 N 75.2007 6.53516 2.29976 0
M  V30 729 N 76.9937 5.24189 2.02934 0
M  V30 730 H 69.1447 2.10831 -0.257703 0
M  V30 731 H 71.4077 0.946534 -0.0527091 0
M  V30 732 H 71.1137 3.49442 0.397872 0
M  V30 733 H 70.9877 3.12722 2.10915 0
M  V30 734 H 73.3747 2.13824 2.0338 0
M  V30 735 H 73.4557 2.53887 0.312244 0
M  V30 736 H 73.0997 5.00021 0.891151 0
M  V30 737 H 73.0297 4.56896 2.61827 0
M  V30 738 H 75.5207 3.4607 1.51802 0
M  V30 739 H 75.8337 7.30506 2.52153 0
M  V30 740 H 74.1787 6.56737 2.27425 0
M  V30 741 H 77.3697 4.31988 1.80289 0
M  V30 742 H 77.5427 6.07286 2.26071 0
M  V30 743 N 70.9488 -0.749086 1.3866 0
M  V30 744 C 72.1948 -1.50959 1.36319 0
M  V30 745 C 72.5498 -1.92347 -0.0452451 0
M  V30 746 O 71.8428 -1.6289 -1.00884 0
M  V30 747 C 72.0368 -2.7712 2.25697 0
M  V30 748 C 71.8658 -2.48067 3.7509 0
M  V30 749 C 70.6358 -2.41062 4.44091 0
M  V30 750 C 72.8338 -2.14544 4.67414 0
M  V30 751 N 70.8158 -2.04331 5.78897 0
M  V30 752 C 72.1868 -1.88141 5.90765 0
M  V30 753 C 74.2418 -2.00892 4.55573 0
M  V30 754 C 72.9448 -1.49463 7.036 0
M  V30 755 C 74.9708 -1.63616 5.68317 0
M  V30 756 C 74.3328 -1.38088 6.90732 0
M  V30 757 H 70.4318 -0.551804 0.554108 0
M  V30 758 H 73.0158 -0.871886 1.74087 0
M  V30 759 H 71.1868 -3.38693 1.9011 0
M  V30 760 H 72.9188 -3.4321 2.1445 0
M  V30 761 H 69.6738 -2.57685 3.9736 0
M  V30 762 H 70.0978 -1.88598 6.502 0
M  V30 763 H 74.7398 -2.19301 3.61479 0
M  V30 764 H 72.4578 -1.29794 7.97608 0
M  V30 765 H 76.0438 -1.53678 5.61137 0
M  V30 766 H 74.9238 -1.09674 7.76493 0
M  V30 767 N 72.4269 -1.23603 -0.977757 0
M  V30 768 C 73.3749 -1.01704 -2.09187 0
M  V30 769 C 74.3689 0.0448214 -1.69341 0
M  V30 770 O 75.5749 -0.108902 -1.7967 0
M  V30 771 H 71.9499 -0.311803 -0.684312 0
M  V30 772 H 73.9209 -1.96207 -2.24823 0
M  V30 773 C 72.6699 -0.627746 -3.41986 0
M  V30 774 H 71.9929 -1.43656 -3.73099 0
M  V30 775 H 73.4329 -0.514053 -4.20872 0
M  V30 776 C 71.8919 0.664238 -3.30287 0
M  V30 777 O 72.4219 1.71268 -3.6336 0
M  V30 778 N 70.6279 0.641156 -2.83439 0
M  V30 779 H 70.1749 -0.212376 -2.56723 0
M  V30 780 H 70.1329 1.50583 -2.75993 0
M  V30 781 N 73.905 1.17692 -1.04816 0
M  V30 782 C 75.321 1.39863 -0.768794 0
M  V30 783 C 75.521 1.91118 0.638451 0
M  V30 784 O 74.577 2.10036 1.40146 0
M  V30 785 C 75.89 2.39274 -1.82122 0
M  V30 786 C 77.438 2.52987 -1.843 0
M  V30 787 C 77.913 3.55669 -2.88555 0
M  V30 788 N 79.404 3.63183 -2.87493 0
M  V30 789 C 80.139 4.42381 -3.64811 0
M  V30 790 N 79.635 5.25125 -4.51903 0
M  V30 791 N 81.428 4.37217 -3.53267 0
M  V30 792 H 73.579 0.82752 -1.95617 0
M  V30 793 H 75.842 0.426123 -0.846831 0
M  V30 794 H 75.548 2.08678 -2.83102 0
M  V30 795 H 75.422 3.38725 -1.65967 0
M  V30 796 H 77.809 2.82896 -0.839869 0
M  V30 797 H 77.89 1.53623 -2.04532 0
M  V30 798 H 77.534 3.26499 -3.89051 0
M  V30 799 H 77.464 4.54728 -2.65575 0
M  V30 800 H 79.955 3.04103 -2.24343 0
M  V30 801 H 80.268 5.82728 -5.07591 0
M  V30 802 H 78.613 5.24519 -4.55966 0
M  V30 803 H 81.804 3.71626 -2.84625 0
M  V30 804 H 81.977 4.98696 -4.13771 0
M  V30 805 N 75.3831 0.828654 1.34056 0
M  V30 806 C 76.6081 0.431637 2.02859 0
M  V30 807 C 77.0331 -0.956339 1.61975 0
M  V30 808 O 76.3911 -1.62338 0.807228 0
M  V30 809 C 76.4391 0.548323 3.56407 0
M  V30 810 O 75.5431 -0.429556 4.10157 0
M  V30 811 H 74.8841 0.176886 0.640006 0
M  V30 812 H 77.4141 1.12066 1.71179 0
M  V30 813 H 77.4241 0.426196 4.05768 0
M  V30 814 H 76.0991 1.5606 3.8551 0
M  V30 815 H 74.6761 -0.265836 3.71951 0
M  V30 816 N 76.8612 -1.46375 0.584142 0
M  V30 817 C 78.1382 -1.956 0.0033388 0
M  V30 818 C 78.5182 -1.52679 -1.45782 0
M  V30 819 O 77.8662 -0.77816 -2.14842 0
M  V30 820 C 78.0762 -3.48551 0.176891 0
M  V30 821 C 79.4242 -4.24576 0.0454609 0
M  V30 822 O 80.4482 -3.56043 0.105801 0
M  V30 823 O 79.3072 -5.46427 -0.0890376 0
M  V30 824 H 76.4012 -0.825547 -0.0490066 0
M  V30 825 H 78.9472 -1.56652 0.65256 0
M  V30 826 H 77.7192 -3.72683 1.1926 0
M  V30 827 H 77.3422 -3.94332 -0.508695 0
M  V30 828 N 78.3393 -0.321999 -1.54275 0
M  V30 829 C 79.2493 0.553631 -2.27974 0
M  V30 830 C 80.2653 1.13054 -1.32268 0
M  V30 831 O 81.4413 1.15084 -1.6528 0
M  V30 832 C 78.5063 1.69927 -3.02201 0
M  V30 833 C 77.5673 1.15433 -4.1349 0
M  V30 834 C 76.8003 2.24537 -4.84168 0
M  V30 835 O 77.0233 3.44852 -4.5435 0
M  V30 836 O 75.9573 1.90044 -5.7111 0
M  V30 837 H 79.7833 -0.0448345 -3.03667 0
M  V30 838 H 77.3683 -0.0877418 -1.49142 0
M  V30 839 H 79.2503 2.3663 -3.48689 0
M  V30 840 H 77.9253 2.28395 -2.29385 0
M  V30 841 H 76.8323 0.452436 -3.71354 0
M  V30 842 H 78.1653 0.614805 -4.88345 0
M  V30 843 N 79.8174 1.5752 -0.0501392 0
M  V30 844 C 81.0424 1.97376 0.636997 0
M  V30 845 C 81.4674 0.927466 1.63645 0
M  V30 846 O 80.8254 -0.10941 1.8097 0
M  V30 847 C 80.8734 3.36304 1.30123 0
M  V30 848 O 79.9774 3.34156 2.41689 0
M  V30 849 H 79.3184 0.642998 0.165679 0
M  V30 850 H 81.8484 2.04258 -0.118233 0
M  V30 851 H 81.8584 3.73008 1.65315 0
M  V30 852 H 80.5334 4.11993 0.568746 0
M  V30 853 H 79.1104 3.09196 2.08451 0
M  V30 854 N 81.2955 -0.223234 1.56011 0
M  V30 855 C 82.5415 -0.949279 1.79211 0
M  V30 856 C 82.8745 -1.84054 0.619494 0
M  V30 857 O 82.1495 -1.90726 -0.381317 0
M  V30 858 C 82.4325 -1.78965 3.12479 0
M  V30 859 C 82.2855 -0.924997 4.40186 0
M  V30 860 C 83.6045 -2.76774 3.42175 0
M  V30 861 H 80.7235 -0.343676 0.651963 0
M  V30 862 H 83.3655 -0.218253 1.88742 0
M  V30 863 H 81.5155 -2.41291 3.04485 0
M  V30 864 H 83.1875 -0.318615 4.60198 0
M  V30 865 H 81.4305 -0.230344 4.33188 0
M  V30 866 H 82.1015 -1.54735 5.29869 0
M  V30 867 H 84.5775 -2.24584 3.50287 0
M  V30 868 H 83.4535 -3.32678 4.36597 0
M  V30 869 H 83.7145 -3.54429 2.64258 0
M  V30 870 N 82.7736 -1.49793 -0.48987 0
M  V30 871 C 84.0216 -1.59525 -1.24081 0
M  V30 872 C 84.3426 -0.288953 -1.92847 0
M  V30 873 O 83.6126 0.692436 -1.83254 0
M  V30 874 H 82.1926 -0.587796 -0.460983 0
M  V30 875 H 84.8546 -1.86477 -0.566778 0
M  V30 876 H 83.9506 -2.39696 -1.99881 0
M  V30 877 N 84.2517 0.741722 -1.39055 0
M  V30 878 C 85.1997 1.87702 -1.3737 0
M  V30 879 C 86.1937 1.67427 -0.257812 0
M  V30 880 O 87.3997 1.7485 -0.427489 0
M  V30 881 H 83.7747 0.617757 -0.428812 0
M  V30 882 H 85.7457 1.86239 -2.33147 0
M  V30 883 C 84.4947 3.25315 -1.22741 0
M  V30 884 H 83.8177 3.41509 -2.07873 0
M  V30 885 H 85.2577 4.04964 -1.25618 0
M  V30 886 C 83.7167 3.36838 0.0647316 0
M  V30 887 O 84.2467 3.88073 1.03741 0
M  V30 888 N 82.4527 2.90329 0.125544 0
M  V30 889 H 81.9997 2.48823 -0.666682 0
M  V30 890 H 81.9577 2.98418 0.989639 0
M  V30 891 N 85.7298 1.2412 0.971189 0
M  V30 892 C 86.9758 1.08041 1.71625 0
M  V30 893 C 87.3088 -0.380407 1.90438 0
M  V30 894 O 86.5838 -1.28127 1.46334 0
M  V30 895 C 86.8668 1.81682 3.10908 0
M  V30 896 C 86.7198 3.35493 2.99608 0
M  V30 897 C 88.0388 1.58671 4.10501 0
M  V30 898 H 85.1578 0.39388 0.622919 0
M  V30 899 H 87.7998 1.52743 1.13003 0
M  V30 900 H 85.9498 1.43684 3.60953 0
M  V30 901 H 87.6218 3.83068 2.57015 0
M  V30 902 H 85.8648 3.64052 2.35899 0
M  V30 903 H 86.5358 3.82217 3.98264 0
M  V30 904 H 89.0118 1.91719 3.69301 0
M  V30 905 H 87.8878 2.1266 5.06031 0
M  V30 906 H 88.1488 0.524161 4.38982 0
M  V30 907 N 87.2079 -1.17134 1.05439 0
M  V30 908 C 88.4359 -1.91372 0.786414 0
M  V30 909 C 88.8509 -1.76955 -0.658202 0
M  V30 910 O 88.2079 -1.10838 -1.44987 0
M  V30 911 C 88.2589 -3.42356 1.1608 0
M  V30 912 O 87.9799 -3.56332 2.54871 0
M  V30 913 C 89.4809 -4.33663 0.919322 0
M  V30 914 H 86.7009 -0.607118 0.285743 0
M  V30 915 H 89.2449 -1.48525 1.40572 0
M  V30 916 H 87.3999 -3.82939 0.586191 0
M  V30 917 H 87.8139 -4.49896 2.69618 0
M  V30 918 H 89.2879 -5.38099 1.231 0
M  V30 919 H 89.7649 -4.38959 -0.145359 0
M  V30 920 H 90.3709 -3.98796 1.47789 0
M  V30 921 N 88.686 -0.835752 -1.33615 0
M  V30 922 C 89.933 -0.429959 -1.97883 0
M  V30 923 C 90.261 1.01006 -1.66217 0
M  V30 924 O 89.516 1.72047 -0.93265 0
M  V30 925 C 89.815 -0.593925 -3.52431 0
M  V30 926 C 89.481 -2.00158 -4.04039 0
M  V30 927 C 88.143 -2.38662 -4.17844 0
M  V30 928 C 90.495 -2.92117 -4.31644 0
M  V30 929 C 87.823 -3.68435 -4.56588 0
M  V30 930 C 90.175 -4.21368 -4.71838 0
M  V30 931 C 88.839 -4.59833 -4.83849 0
M  V30 932 H 88.109 -0.157333 -0.724104 0
M  V30 933 H 90.756 -1.06217 -1.59343 0
M  V30 934 H 89.061 0.121619 -3.91611 0
M  V30 935 H 90.758 -0.260282 -4.00154 0
M  V30 936 H 87.348 -1.69252 -3.93766 0
M  V30 937 H 91.532 -2.63608 -4.20505 0
M  V30 938 H 86.788 -3.98046 -4.64079 0
M  V30 939 H 90.962 -4.92703 -4.92155 0
M  V30 940 H 88.589 -5.60438 -5.13627 0
M  V30 941 N 90.1641 1.46063 -0.591896 0
M  V30 942 C 91.3891 2.07226 -0.0850314 0
M  V30 943 C 91.8141 1.43625 1.21463 0
M  V30 944 O 91.1721 0.523305 1.73583 0
M  V30 945 C 91.2201 3.60554 0.0576567 0
M  V30 946 O 90.3241 3.97128 1.11188 0
M  V30 947 H 89.6651 0.660615 -0.0669568 0
M  V30 948 H 92.1951 1.8756 -0.81745 0
M  V30 949 H 92.2051 4.07165 0.2609 0
M  V30 950 H 90.8801 4.06235 -0.891416 0
M  V30 951 H 89.4571 3.62213 0.886356 0
M  V30 952 N 91.6422 0.330177 1.54103 0
M  V30 953 C 92.8892 -0.270405 2.00686 0
M  V30 954 C 93.2172 -1.51621 1.21825 0
M  V30 955 O 92.4722 -1.93536 0.29025 0
M  V30 956 C 92.7712 -0.643134 3.51566 0
M  V30 957 C 92.4372 0.504251 4.48072 0
M  V30 958 C 91.0992 0.819163 4.74176 0
M  V30 959 C 93.4512 1.27465 5.05373 0
M  V30 960 C 90.7792 1.90708 5.5484 0
M  V30 961 C 93.1312 2.35271 5.87223 0
M  V30 962 C 91.7952 2.67336 6.11627 0
M  V30 963 H 91.0652 -0.0989482 0.734364 0
M  V30 964 H 93.7122 0.455324 1.86008 0
M  V30 965 H 92.0172 -1.44938 3.64006 0
M  V30 966 H 93.7142 -1.11949 3.85056 0
M  V30 967 H 90.3042 0.248733 4.27878 0
M  V30 968 H 94.4882 1.04462 4.85182 0
M  V30 969 H 89.7442 2.15991 5.71977 0
M  V30 970 H 93.9182 2.95405 6.30641 0
M  V30 971 H 91.5452 3.51763 6.73919 0
M  V30 972 N 93.1203 -1.57491 0.0584922 0
M  V30 973 C 94.3973 -1.84346 -0.653918 0
M  V30 974 C 94.7773 -0.948355 -1.88599 0
M  V30 975 O 94.1253 -0.0112403 -2.28497 0
M  V30 976 C 94.3353 -3.34239 -1.00425 0
M  V30 977 C 95.6833 -4.01431 -1.38342 0
M  V30 978 O 96.7073 -3.38907 -1.09637 0
M  V30 979 O 95.5663 -5.11683 -1.91943 0
M  V30 980 H 92.6603 -0.761112 -0.323478 0
M  V30 981 H 95.2063 -1.6947 0.0884125 0
M  V30 982 H 93.9783 -3.91089 -0.128625 0
M  V30 983 H 93.6013 -3.54329 -1.80378 0
M  V30 984 N 94.5984 0.214957 -1.56127 0
M  V30 985 C 95.8284 0.953707 -1.8327 0
M  V30 986 C 96.2364 1.78181 -0.636262 0
M  V30 987 O 95.5794 1.79191 0.404516 0
M  V30 988 C 95.6414 1.91516 -3.0424 0
M  V30 989 C 95.3054 1.27094 -4.38972 0
M  V30 990 C 96.3024 0.657575 -5.15725 0
M  V30 991 C 93.9874 1.28073 -4.85698 0
M  V30 992 C 95.9814 0.0625968 -6.37369 0
M  V30 993 C 93.6684 0.681914 -6.07283 0
M  V30 994 C 94.6664 0.0739046 -6.8296 0
M  V30 995 O 94.3544 -0.515582 -8.02245 0
M  V30 996 H 94.0864 0.284764 -0.613095 0
M  V30 997 H 96.6404 0.233283 -2.04071 0
M  V30 998 H 94.8704 2.67475 -2.79274 0
M  V30 999 H 96.5594 2.52001 -3.18198 0
M  V30 1000 H 97.3254 0.642288 -4.80728 0
M  V30 1001 H 93.2044 1.74337 -4.26764 0
M  V30 1002 H 96.7484 -0.412593 -6.96379 0
M  V30 1003 H 92.6454 0.694636 -6.41752 0
M  V30 1004 H 93.4134 -0.410544 -8.1747 0
M  V30 1005 N 96.0765 1.50051 0.48192 0
M  V30 1006 C 97.0085 1.64263 1.59844 0
M  V30 1007 C 98.0215 0.52451 1.54119 0
M  V30 1008 O 99.2105 0.797293 1.59704 0
M  V30 1009 C 96.3105 1.60102 2.98698 0
M  V30 1010 C 95.4835 2.87767 3.29407 0
M  V30 1011 C 94.5425 2.76397 4.47762 0
M  V30 1012 O 93.5685 3.50348 4.48603 0
M  V30 1013 N 94.7705 1.89222 5.48794 0
M  V30 1014 H 97.5355 2.60566 1.48073 0
M  V30 1015 H 95.0965 1.47379 0.670149 0
M  V30 1016 H 97.0885 1.50123 3.75826 0
M  V30 1017 H 95.6585 0.715798 3.04294 0
M  V30 1018 H 94.8785 3.11954 2.40994 0
M  V30 1019 H 96.1665 3.72365 3.4673 0
M  V30 1020 H 95.5645 1.28434 5.50928 0
M  V30 1021 H 94.1215 1.85154 6.24949 0
M  V30 1022 N 97.5546 -0.734337 1.39446 0
M  V30 1023 C 98.5016 -1.84835 1.38219 0
M  V30 1024 C 99.4716 -1.64331 0.24179 0
M  V30 1025 O 100.657 -1.85728 0.437002 0
M  V30 1026 C 97.7966 -3.22355 1.23212 0
M  V30 1027 C 96.9096 -3.5456 2.46801 0
M  V30 1028 C 96.0446 -4.81485 2.24377 0
M  V30 1029 C 95.0836 -5.06536 3.43639 0
M  V30 1030 N 94.2206 -6.24665 3.20528 0
M  V30 1031 H 99.0606 -1.85219 2.33448 0
M  V30 1032 H 96.5976 -0.905039 1.15963 0
M  V30 1033 H 98.5556 -4.0174 1.12522 0
M  V30 1034 H 97.1856 -3.21248 0.316121 0
M  V30 1035 H 96.2376 -2.69872 2.68092 0
M  V30 1036 H 97.5496 -3.6899 3.3563 0
M  V30 1037 H 96.7036 -5.68852 2.10933 0
M  V30 1038 H 95.4426 -4.6923 1.32944 0
M  V30 1039 H 94.4476 -4.17632 3.5758 0
M  V30 1040 H 95.6726 -5.20676 4.35974 0
M  V30 1041 H 93.6186 -6.13696 2.3176 0
M  V30 1042 H 93.5356 -6.39685 4.02913 0
M  V30 1043 H 94.8036 -7.14868 3.10779 0
M  V30 1044 N 99.0327 -1.24633 -0.964593 0
M  V30 1045 C 100.261 -1.11501 -1.74285 0
M  V30 1046 C 100.676 0.332165 -1.85855 0
M  V30 1047 O 100.033 1.22903 -1.34911 0
M  V30 1048 C 100.084 -1.75258 -3.16175 0
M  V30 1049 O 99.8047 -3.14318 -3.05182 0
M  V30 1050 C 101.306 -1.67776 -4.10324 0
M  V30 1051 H 98.5257 -0.389407 -0.546446 0
M  V30 1052 H 101.07 -1.64801 -1.21083 0
M  V30 1053 H 99.2247 -1.25954 -3.66353 0
M  V30 1054 H 99.6387 -3.4551 -3.94618 0
M  V30 1055 H 101.113 -2.17064 -5.0753 0
M  V30 1056 H 101.59 -0.639584 -4.34518 0
M  V30 1057 H 102.196 -2.16522 -3.66058 0
M  V30 1058 N 100.511 1.16574 -1.06058 0
M  V30 1059 C 101.759 1.86677 -0.77434 0
M  V30 1060 C 102.08 1.81959 0.701147 0
M  V30 1061 O 101.35 1.2515 1.50713 0
M  V30 1062 H 99.9298 0.691134 -0.283449 0
M  V30 1063 H 102.592 1.41378 -1.34158 0
M  V30 1064 H 101.688 2.92181 -1.09711 0
M  V30 1065 N 101.989 0.842826 1.3317 0
M  V30 1066 C 102.922 0.223862 2.27099 0
M  V30 1067 C 103.9 -0.631311 1.49844 0
M  V30 1068 O 105.084 -0.590708 1.79005 0
M  V30 1069 C 102.211 -0.685313 3.31694 0
M  V30 1070 C 101.257 0.094919 4.26394 0
M  V30 1071 S 102.09 1.45546 5.15341 0
M  V30 1072 C 103.246 0.551685 6.23464 0
M  V30 1073 H 103.479 1.02015 2.79249 0
M  V30 1074 H 101.012 0.639797 1.4052 0
M  V30 1075 H 102.97 -1.20426 3.92438 0
M  V30 1076 H 101.631 -1.4553 2.78352 0
M  V30 1077 H 100.824 -0.597059 5.00451 0
M  V30 1078 H 100.426 0.545054 3.70007 0
M  V30 1079 H 102.718 -0.248877 6.77043 0
M  V30 1080 H 103.661 1.26253 6.96754 0
M  V30 1081 H 104.069 0.131275 5.64347 0
M  V30 1082 N 103.467 -1.45747 0.599634 0
M  V30 1083 C 104.744 -1.95585 0.0240846 0
M  V30 1084 C 105.124 -1.54217 -1.44154 0
M  V30 1085 O 104.472 -0.800903 -2.14004 0
M  V30 1086 C 104.682 -3.48344 0.21385 0
M  V30 1087 C 106.03 -4.24504 0.0904902 0
M  V30 1088 O 107.054 -3.55911 0.143558 0
M  V30 1089 O 105.913 -5.46491 -0.0310766 0
M  V30 1090 H 103.007 -0.82602 -0.0402478 0
M  V30 1091 H 105.553 -1.55951 0.669139 0
M  V30 1092 H 104.325 -3.71397 1.23206 0
M  V30 1093 H 103.948 -3.9485 -0.466842 0
M  V30 1094 N 104.945 -0.338344 -1.53925 0
M  V30 1095 C 105.893 0.536231 -2.26335 0
M  V30 1096 C 106.887 1.1063 -1.28286 0
M  V30 1097 O 108.093 1.05264 -1.46012 0
M  V30 1098 H 104.468 0.191602 -0.727181 0
M  V30 1099 H 106.439 -0.0965747 -2.98244 0
M  V30 1100 C 105.188 1.67803 -3.04528 0
M  V30 1101 H 104.511 1.24864 -3.79801 0
M  V30 1102 H 105.951 2.26526 -3.58416 0
M  V30 1103 C 104.41 2.60439 -2.13712 0
M  V30 1104 O 104.94 3.6255 -1.72975 0
M  V30 1105 N 103.146 2.29006 -1.78898 0
M  V30 1106 H 102.693 1.46011 -2.12223 0
M  V30 1107 H 102.651 2.91248 -1.18416 0
M  V30 1108 N 106.423 1.57458 -0.0668435 0
M  V30 1109 C 107.669 1.94401 0.598316 0
M  V30 1110 C 108.024 0.946335 1.67518 0
M  V30 1111 O 107.317 -0.0321442 1.91573 0
M  V30 1112 C 107.511 3.35784 1.22409 0
M  V30 1113 C 107.34 4.49212 0.209367 0
M  V30 1114 C 106.11 5.04887 -0.204218 0
M  V30 1115 C 108.308 5.11335 -0.551431 0
M  V30 1116 N 106.29 6.01854 -1.21016 0
M  V30 1117 C 107.661 6.03754 -1.41 0
M  V30 1118 C 109.716 4.94173 -0.608038 0
M  V30 1119 C 108.419 6.80854 -2.32013 0
M  V30 1120 C 110.445 5.71912 -1.50566 0
M  V30 1121 C 109.807 6.63976 -2.35191 0
M  V30 1122 H 105.906 0.758538 0.190114 0
M  V30 1123 H 108.49 1.94175 -0.142832 0
M  V30 1124 H 106.661 3.36757 1.93518 0
M  V30 1125 H 108.393 3.59976 1.84931 0
M  V30 1126 H 105.148 4.73266 0.177908 0
M  V30 1127 H 105.572 6.55035 -1.71049 0
M  V30 1128 H 110.214 4.22788 0.032022 0
M  V30 1129 H 107.932 7.5152 -2.97057 0
M  V30 1130 H 111.518 5.60656 -1.55423 0
M  V30 1131 H 110.398 7.2308 -3.03522 0
M  V30 1132 N 107.901 -0.206675 1.56239 0
M  V30 1133 C 109.15 -0.926964 1.79138 0
M  V30 1134 C 109.463 -1.84901 0.638043 0
M  V30 1135 O 110.669 -2.60906 0.751033 0
M  V30 1136 C 109.125 -1.6986 3.17294 0
M  V30 1137 C 108.733 -0.821956 4.40395 0
M  V30 1138 C 110.477 -2.40922 3.4951 0
M  V30 1139 C 108.384 -1.59179 5.69575 0
M  V30 1140 H 107.314 -0.349864 0.667915 0
M  V30 1141 H 109.965 -0.180487 1.8261 0
M  V30 1142 H 108.347 -2.48853 3.08039 0
M  V30 1143 H 109.521 -0.0715019 4.60745 0
M  V30 1144 H 107.836 -0.222741 4.15804 0
M  V30 1145 H 110.433 -2.99047 4.43255 0
M  V30 1146 H 110.776 -3.14542 2.72707 0
M  V30 1147 H 111.309 -1.68905 3.60161 0
M  V30 1148 H 108.048 -0.898589 6.49312 0
M  V30 1149 H 107.568 -2.31648 5.53262 0
M  V30 1150 H 109.247 -2.14862 6.10281 0
M  V30 1151 N 109.379 -1.50304 -0.473955 0
M  V30 1152 C 110.326 -1.68959 -1.57231 0
M  V30 1153 C 111.296 -0.530899 -1.57387 0
M  V30 1154 O 112.481 -0.761133 -1.74961 0
M  V30 1155 C 109.621 -1.7871 -2.95223 0
M  V30 1156 C 108.734 -3.06061 -3.04878 0
M  V30 1157 C 107.869 -3.06626 -4.33767 0
M  V30 1158 C 106.908 -4.28443 -4.37154 0
M  V30 1159 N 106.045 -4.26763 -5.5751 0
M  V30 1160 H 110.885 -2.6273 -1.40631 0
M  V30 1161 H 108.422 -1.30241 -0.683789 0
M  V30 1162 H 110.38 -1.82344 -3.75242 0
M  V30 1163 H 109.01 -0.883806 -3.10465 0
M  V30 1164 H 108.062 -3.11911 -2.17751 0
M  V30 1165 H 109.374 -3.96039 -3.0324 0
M  V30 1166 H 108.528 -3.08973 -5.22131 0
M  V30 1167 H 107.267 -2.14473 -4.3801 0
M  V30 1168 H 106.272 -4.2631 -3.47188 0
M  V30 1169 H 107.497 -5.2182 -4.34605 0
M  V30 1170 H 105.443 -3.37462 -5.62544 0
M  V30 1171 H 105.36 -5.10507 -5.57601 0
M  V30 1172 H 106.628 -4.33253 -6.48006 0
M  V30 1173 N 110.857 0.726932 -1.39834 0
M  V30 1174 C 111.787 1.85405 -1.41941 0
M  V30 1175 C 112.768 1.67751 -0.281728 0
M  V30 1176 O 113.953 1.8795 -0.488717 0
M  V30 1177 C 111.083 3.23243 -1.2701 0
M  V30 1178 C 110.037 3.55549 -2.38262 0
M  V30 1179 C 109.363 4.9241 -2.08415 0
M  V30 1180 C 110.663 3.577 -3.80589 0
M  V30 1181 H 112.357 1.83899 -2.36266 0
M  V30 1182 H 109.903 0.883349 -1.13723 0
M  V30 1183 H 111.856 4.01775 -1.27103 0
M  V30 1184 H 110.58 3.25296 -0.291564 0
M  V30 1185 H 109.239 2.79351 -2.37399 0
M  V30 1186 H 108.887 4.91052 -1.0898 0
M  V30 1187 H 108.587 5.14992 -2.82943 0
M  V30 1188 H 110.111 5.73289 -2.10171 0
M  V30 1189 H 111.525 4.26293 -3.83337 0
M  V30 1190 H 109.922 3.91804 -4.54543 0
M  V30 1191 H 110.992 2.57328 -4.10987 0
M  V30 1192 N 112.336 1.25143 0.95797 0
M  V30 1193 C 113.561 1.12521 1.74223 0
M  V30 1194 C 113.986 -0.317402 1.85403 0
M  V30 1195 O 113.344 -1.2299 1.33204 0
M  V30 1196 C 113.392 1.78062 3.1357 0
M  V30 1197 O 112.496 1.058 3.98598 0
M  V30 1198 H 111.837 0.39304 0.535178 0
M  V30 1199 H 114.367 1.65641 1.201 0
M  V30 1200 H 114.377 1.84213 3.64046 0
M  V30 1201 H 113.052 2.83021 3.04749 0
M  V30 1202 H 111.629 1.07506 3.57067 0
M  V30 1203 N 113.814 -1.1601 1.06675 0
M  V30 1204 C 115.062 -1.86264 0.784229 0
M  V30 1205 C 115.383 -1.82328 -0.691488 0
M  V30 1206 O 114.653 -1.25947 -1.50047 0
M  V30 1207 H 113.233 -0.689621 0.28711 0
M  V30 1208 H 115.895 -1.40664 1.34906 0
M  V30 1209 H 114.991 -2.91595 1.11259 0
M  V30 1210 N 115.292 -0.849877 -1.32721 0
M  V30 1211 C 116.532 -0.457146 -1.99222 0
M  V30 1212 C 116.896 0.968038 -1.6581 0
M  V30 1213 O 118.097 1.46507 -2.25364 0
M  V30 1214 C 116.368 -0.683966 -3.50794 0
M  V30 1215 S 117.927 -0.388095 -4.3708 0
M  V30 1216 H 114.745 -0.171464 -0.690015 0
M  V30 1217 H 117.347 -1.10155 -1.61512 0
M  V30 1218 H 116.051 -1.72038 -3.726 0
M  V30 1219 H 115.582 -0.0258086 -3.93392 0
M  V30 1220 H 117.597 0.787791 -4.89906 0
M  V30 1221 N 116.77 1.45427 -0.607355 0
M  V30 1222 C 117.702 2.2871 0.149752 0
M  V30 1223 C 118.715 1.39937 0.831958 0
M  V30 1224 O 119.904 1.64313 0.697385 0
M  V30 1225 C 117.004 3.15673 1.23304 0
M  V30 1226 C 116.177 4.32722 0.637996 0
M  V30 1227 C 115.236 5.00895 1.61215 0
M  V30 1228 O 114.262 5.57697 1.13854 0
M  V30 1229 N 115.464 5.00159 2.94655 0
M  V30 1230 H 118.229 2.94328 -0.564882 0
M  V30 1231 H 115.79 1.55612 -0.446823 0
M  V30 1232 H 117.782 3.58144 1.88454 0
M  V30 1233 H 116.352 2.51965 1.8502 0
M  V30 1234 H 115.572 3.93734 -0.191572 0
M  V30 1235 H 116.86 5.08321 0.220665 0
M  V30 1236 H 116.258 4.553 3.35735 0
M  V30 1237 H 114.815 5.46495 3.55228 0
M  V30 1238 N 118.248 0.346503 1.53744 0
M  V30 1239 C 119.196 -0.52422 2.26616 0
M  V30 1240 C 120.19 -1.09948 1.28871 0
M  V30 1241 O 121.396 -1.04488 1.46568 0
M  V30 1242 H 117.771 -0.187743 0.728187 0
M  V30 1243 H 119.742 0.11239 2.98188 0
M  V30 1244 C 118.491 -1.66186 3.05414 0
M  V30 1245 H 117.814 -1.22848 3.80458 0
M  V30 1246 H 119.254 -2.24622 3.59612 0
M  V30 1247 C 117.713 -2.59302 2.1509 0
M  V30 1248 O 118.243 -3.61628 1.74895 0
M  V30 1249 N 116.449 -2.28055 1.8011 0
M  V30 1250 H 115.996 -1.44883 2.12994 0
M  V30 1251 H 115.954 -2.90615 1.19958 0
M  V30 1252 N 119.726 -1.57421 0.075193 0
M  V30 1253 C 120.975 -1.92794 -0.592731 0
M  V30 1254 C 121.288 -0.957478 -1.70563 0
M  V30 1255 O 122.494 -1.20417 -2.43335 0
M  V30 1256 C 120.95 -3.42495 -1.10569 0
M  V30 1257 C 120.558 -4.47994 -0.0236121 0
M  V30 1258 C 122.302 -3.86864 -1.74748 0
M  V30 1259 C 120.209 -5.88829 -0.550803 0
M  V30 1260 H 119.139 -0.719591 -0.225177 0
M  V30 1261 H 121.79 -1.82902 0.147978 0
M  V30 1262 H 120.172 -3.47471 -1.89947 0
M  V30 1263 H 121.346 -4.54637 0.751099 0
M  V30 1264 H 119.661 -4.13113 0.522159 0
M  V30 1265 H 122.258 -4.8947 -2.15229 0
M  V30 1266 H 122.601 -3.24417 -2.60882 0
M  V30 1267 H 123.134 -3.84504 -1.01986 0
M  V30 1268 H 119.873 -6.54929 0.273457 0
M  V30 1269 H 119.393 -5.85698 -1.29296 0
M  V30 1270 H 121.072 -6.38811 -1.02613 0
M  V30 1271 N 121.204 0.198386 -1.56346 0
M  V30 1272 C 122.432 0.935572 -1.84539 0
M  V30 1273 C 122.847 1.76989 -0.657281 0
M  V30 1274 O 122.204 1.78626 0.374043 0
M  V30 1275 C 122.255 1.8344 -3.11499 0
M  V30 1276 O 121.976 1.03377 -4.25728 0
M  V30 1277 C 123.477 2.68355 -3.52846 0
M  V30 1278 H 120.697 0.273126 -0.612897 0
M  V30 1279 H 123.241 0.20663 -2.03453 0
M  V30 1280 H 121.396 2.51701 -2.94492 0
M  V30 1281 H 121.81 1.64599 -4.98003 0
M  V30 1282 H 123.284 3.27085 -4.44657 0
M  V30 1283 H 123.761 3.41901 -2.75681 0
M  V30 1284 H 124.367 2.05471 -3.72373 0
M  V30 1285 N 122.682 1.50554 0.465978 0
M  V30 1286 C 123.907 1.65838 1.24549 0
M  V30 1287 C 124.332 0.343486 1.84937 0
M  V30 1288 O 123.69 -0.69324 1.67523 0
M  V30 1289 C 123.738 2.75533 2.32624 0
M  V30 1290 O 122.842 2.37142 3.37398 0
M  V30 1291 H 122.183 0.553893 0.366194 0
M  V30 1292 H 124.713 1.96959 0.553927 0
M  V30 1293 H 124.723 2.98763 2.77857 0
M  V30 1294 H 123.398 3.70962 1.88043 0
M  V30 1295 H 121.975 2.24377 2.97841 0
M  V30 1296 N 124.16 -0.719506 1.40217 0
M  V30 1297 C 125.388 -1.50864 1.41589 0
M  V30 1298 C 125.803 -1.88794 0.0145275 0
M  V30 1299 O 125.16 -1.55174 -0.960594 0
M  V30 1300 C 125.211 -2.78646 2.30302 0
M  V30 1301 O 124.932 -2.42321 3.64983 0
M  V30 1302 C 126.433 -3.72569 2.40224 0
M  V30 1303 H 123.653 -0.465709 0.48307 0
M  V30 1304 H 126.197 -0.88785 1.84221 0
M  V30 1305 H 124.352 -3.37019 1.91042 0
M  V30 1306 H 124.766 -3.24514 4.12057 0
M  V30 1307 H 126.24 -4.5908 3.06512 0
M  V30 1308 H 126.717 -4.15403 1.42608 0
M  V30 1309 H 127.323 -3.20109 2.80019 0
M  V30 1310 N 125.638 -1.25649 -0.95132 0
M  V30 1311 C 126.585 -1.06323 -2.04851 0
M  V30 1312 C 127.555 0.0286491 -1.66075 0
M  V30 1313 O 128.74 -0.12917 -1.90362 0
M  V30 1314 C 125.88 -0.691529 -3.381 0
M  V30 1315 C 124.993 -1.85861 -3.89974 0
M  V30 1316 C 124.128 -1.43096 -5.11563 0
M  V30 1317 C 123.167 -2.56696 -5.55674 0
M  V30 1318 N 122.304 -2.14684 -6.68472 0
M  V30 1319 H 127.144 -2.00222 -2.20715 0
M  V30 1320 H 124.681 -0.997027 -1.08156 0
M  V30 1321 H 126.639 -0.456963 -4.1469 0
M  V30 1322 H 125.269 0.210474 -3.22113 0
M  V30 1323 H 124.321 -2.20639 -3.09875 0
M  V30 1324 H 125.633 -2.71161 -4.18657 0
M  V30 1325 H 124.787 -1.15624 -5.9558 0
M  V30 1326 H 123.526 -0.548722 -4.84603 0
M  V30 1327 H 122.531 -2.84909 -4.7022 0
M  V30 1328 H 123.756 -3.45503 -5.8464 0
M  V30 1329 H 121.702 -1.28881 -6.43215 0
M  V30 1330 H 121.619 -2.9353 -6.96689 0
M  V30 1331 H 122.887 -1.90397 -7.5589 0
M  V30 1332 N 127.117 1.15442 -1.07289 0
M  V30 1333 C 128.357 1.8788 -0.805012 0
M  V30 1334 C 128.721 1.80413 0.656907 0
M  V30 1335 O 129.922 2.47874 1.0398 0
M  V30 1336 C 128.193 3.3298 -1.29843 0
M  V30 1337 S 129.752 4.23158 -1.16114 0
M  V30 1338 H 126.57 0.64839 -0.291739 0
M  V30 1339 H 129.172 1.39285 -1.37186 0
M  V30 1340 H 127.876 3.35958 -2.35712 0
M  V30 1341 H 127.407 3.86629 -0.726767 0
M  V30 1342 H 129.422 4.96103 -0.0982778 0
M  V30 1343 N 128.595 0.856903 1.32268 0
M  V30 1344 C 129.543 0.291987 2.3076 0
M  V30 1345 C 130.537 -0.585857 1.58947 0
M  V30 1346 O 131.743 -0.47341 1.73663 0
M  V30 1347 H 128.118 0.075721 0.748178 0
M  V30 1348 H 130.089 1.13687 2.75895 0
M  V30 1349 C 128.838 -0.502869 3.44044 0
M  V30 1350 H 128.161 0.163328 3.99466 0
M  V30 1351 H 129.601 -0.863691 4.1511 0
M  V30 1352 C 128.06 -1.68898 2.91505 0
M  V30 1353 O 128.59 -2.78811 2.89184 0
M  V30 1354 N 126.796 -1.51679 2.47875 0
M  V30 1355 H 126.343 -0.622666 2.49961 0
M  V30 1356 H 126.301 -2.31184 2.13076 0
M  V30 1357 N 130.073 -1.45103 0.615059 0
M  V30 1358 C 131.32 -2.02183 0.113179 0
M  V30 1359 C 131.648 -1.48249 -1.25906 0
M  V30 1360 O 130.903 -0.650265 -1.84581 0
M  V30 1361 C 131.202 -3.57386 0.0318797 0
M  V30 1362 C 130.868 -4.30505 1.34077 0
M  V30 1363 C 129.53 -4.50197 1.69929 0
M  V30 1364 C 131.882 -4.72238 2.20546 0
M  V30 1365 C 129.21 -5.08881 2.91988 0
M  V30 1366 C 131.562 -5.32272 3.41861 0
M  V30 1367 C 130.226 -5.50187 3.77956 0
M  V30 1368 H 129.496 -0.739842 0.0414151 0
M  V30 1369 H 132.143 -1.74073 0.798168 0
M  V30 1370 H 130.448 -3.84817 -0.736409 0
M  V30 1371 H 132.145 -3.99264 -0.372712 0
M  V30 1372 H 128.735 -4.15496 1.05173 0
M  V30 1373 H 132.919 -4.56751 1.94146 0
M  V30 1374 H 128.175 -5.20939 3.2005 0
M  V30 1375 H 132.349 -5.63563 4.09109 0
M  V30 1376 H 129.976 -5.95427 4.72622 0
M  V30 1377 N 131.551 -0.354651 -1.53558 0
M  V30 1378 C 132.776 0.242153 -2.05981 0
M  V30 1379 C 133.201 1.42553 -1.2272 0
M  V30 1380 O 132.559 1.79656 -0.243604 0
M  V30 1381 C 132.607 0.624367 -3.55154 0
M  V30 1382 O 131.711 1.72301 -3.74681 0
M  V30 1383 H 131.052 0.0378432 -0.662921 0
M  V30 1384 H 133.582 -0.512087 -1.98088 0
M  V30 1385 H 133.592 0.898433 -3.97985 0
M  V30 1386 H 132.267 -0.240989 -4.15201 0
M  V30 1387 H 130.844 1.44535 -3.4375 0
M  V30 1388 N 133.029 1.57378 -0.0835403 0
M  V30 1389 C 134.254 1.98682 0.594987 0
M  V30 1390 C 134.679 0.961969 1.61641 0
M  V30 1391 O 134.037 -0.0709989 1.81161 0
M  V30 1392 C 134.085 3.38988 1.2296 0
M  V30 1393 O 133.189 3.39208 2.34546 0
M  V30 1394 H 132.53 0.646368 0.152002 0
M  V30 1395 H 135.06 2.03961 -0.161533 0
M  V30 1396 H 135.07 3.76431 1.57366 0
M  V30 1397 H 133.745 4.13107 0.481228 0
M  V30 1398 H 132.322 3.13548 2.01846 0
M  V30 1399 N 134.507 -0.190092 1.56449 0
M  V30 1400 C 135.437 -1.23816 1.97969 0
M  V30 1401 C 136.418 -1.47201 0.852395 0
M  V30 1402 O 137.603 -1.58854 1.1171 0
M  V30 1403 C 134.733 -2.5813 2.3235 0
M  V30 1404 C 133.687 -2.49348 3.47864 0
M  V30 1405 C 133.013 -3.8798 3.67934 0
M  V30 1406 C 134.313 -2.01424 4.81898 0
M  V30 1407 H 136.007 -0.89311 2.85769 0
M  V30 1408 H 133.553 -0.428177 1.37487 0
M  V30 1409 H 135.506 -3.31637 2.59991 0
M  V30 1410 H 134.23 -2.94386 1.41438 0
M  V30 1411 H 132.889 -1.78297 3.20321 0
M  V30 1412 H 132.537 -4.21597 2.74344 0
M  V30 1413 H 132.237 -3.82978 4.45648 0
M  V30 1414 H 133.761 -4.63101 3.97957 0
M  V30 1415 H 135.175 -2.64693 5.08538 0
M  V30 1416 H 133.572 -2.07413 5.63116 0
M  V30 1417 H 134.642 -0.967677 4.75146 0
M  V30 1418 N 135.985 -1.50799 -0.457987 0
M  V30 1419 C 136.932 -1.70617 -1.5543 0
M  V30 1420 C 137.902 -0.547562 -1.56815 0
M  V30 1421 O 139.087 -0.779647 -1.74144 0
M  V30 1422 C 136.227 -1.81831 -2.93311 0
M  V30 1423 C 135.34 -3.09278 -3.01615 0
M  V30 1424 C 134.475 -3.11209 -4.30491 0
M  V30 1425 C 133.514 -4.33055 -4.32585 0
M  V30 1426 N 132.651 -4.32652 -5.52952 0
M  V30 1427 H 137.491 -2.64207 -1.37836 0
M  V30 1428 H 135.028 -1.30959 -0.669937 0
M  V30 1429 H 136.986 -1.86314 -3.73287 0
M  V30 1430 H 135.616 -0.916685 -3.0951 0
M  V30 1431 H 134.668 -3.14203 -2.1443 0
M  V30 1432 H 135.98 -3.99233 -2.99022 0
M  V30 1433 H 135.134 -3.14494 -5.18824 0
M  V30 1434 H 133.873 -2.19106 -4.35711 0
M  V30 1435 H 132.878 -4.29969 -3.42647 0
M  V30 1436 H 134.103 -5.264 -4.29046 0
M  V30 1437 H 132.049 -3.43409 -5.58933 0
M  V30 1438 H 131.966 -5.16392 -5.52155 0
M  V30 1439 H 133.234 -4.40101 -6.43375 0
M  V30 1440 N 137.463 0.71206 -1.40597 0
M  V30 1441 C 138.393 1.83889 -1.43899 0
M  V30 1442 C 139.374 1.67442 -0.299504 0
M  V30 1443 O 140.559 1.87421 -0.508624 0
M  V30 1444 C 137.689 3.21877 -1.30431 0
M  V30 1445 C 136.643 3.53002 -2.42019 0
M  V30 1446 C 135.969 4.90172 -2.13626 0
M  V30 1447 C 137.269 3.53643 -3.84362 0
M  V30 1448 H 138.963 1.81383 -2.38203 0
M  V30 1449 H 136.509 0.871237 -1.14654 0
M  V30 1450 H 138.462 4.00404 -1.31357 0
M  V30 1451 H 137.186 3.24968 -0.326049 0
M  V30 1452 H 135.845 2.76818 -2.40349 0
M  V30 1453 H 135.493 4.89869 -1.14182 0
M  V30 1454 H 135.193 5.11962 -2.88389 0
M  V30 1455 H 136.717 5.71028 -2.1624 0
M  V30 1456 H 138.131 4.22203 -3.87837 0
M  V30 1457 H 136.528 3.86961 -4.58673 0
M  V30 1458 H 137.598 2.52954 -4.13693 0
M  V30 1459 N 138.941 1.26152 0.944643 0
M  V30 1460 C 139.889 1.07215 2.06417 0
M  V30 1461 C 140.883 9.2007e-05 1.694 0
M  V30 1462 O 142.089 0.1565 1.79318 0
M  V30 1463 H 138.464 0.329837 0.675805 0
M  V30 1464 H 140.435 2.02099 2.19541 0
M  V30 1465 C 139.184 0.718197 3.40202 0
M  V30 1466 H 138.507 1.53497 3.69159 0
M  V30 1467 H 139.947 0.625459 4.19361 0
M  V30 1468 C 138.406 -0.576435 3.31932 0
M  V30 1469 O 138.936 -1.61574 3.67773 0
M  V30 1470 N 137.142 -0.565781 2.85039 0
M  V30 1471 H 136.689 0.280367 2.5607 0
M  V30 1472 H 136.647 -1.43213 2.79888 0
M  V30 1473 N 140.419 -1.14872 1.07899 0
M  V30 1474 C 141.665 -1.86064 0.806725 0
M  V30 1475 C 141.998 -1.82434 -0.665706 0
M  V30 1476 O 141.273 -1.25138 -1.48899 0
M  V30 1477 C 141.556 -3.34929 1.32267 0
M  V30 1478 C 141.409 -3.47161 2.86006 0
M  V30 1479 C 142.728 -4.29863 0.943717 0
M  V30 1480 H 139.847 -0.675591 0.294526 0
M  V30 1481 H 142.489 -1.34925 1.33773 0
M  V30 1482 H 140.639 -3.78611 0.870974 0
M  V30 1483 H 142.311 -3.12302 3.39507 0
M  V30 1484 H 140.554 -2.88539 3.23925 0
M  V30 1485 H 141.225 -4.51777 3.17177 0
M  V30 1486 H 143.701 -3.9417 1.33302 0
M  V30 1487 H 142.577 -5.32494 1.33198 0
M  V30 1488 H 142.838 -4.41846 -0.149796 0
M  V30 1489 N 141.898 -0.863906 -1.31812 0
M  V30 1490 C 143.128 -0.485406 -2.00817 0
M  V30 1491 C 143.536 0.925007 -1.65046 0
M  V30 1492 O 142.879 1.61653 -0.872574 0
M  V30 1493 C 142.941 -0.555589 -3.55181 0
M  V30 1494 C 142.605 -1.92654 -4.14407 0
M  V30 1495 C 143.602 -2.89324 -4.31958 0
M  V30 1496 C 141.287 -2.2262 -4.50273 0
M  V30 1497 C 143.281 -4.14108 -4.84555 0
M  V30 1498 C 140.968 -3.47654 -5.02573 0
M  V30 1499 C 141.966 -4.43214 -5.19664 0
M  V30 1500 O 141.654 -5.66033 -5.70843 0
M  V30 1501 H 141.386 -0.188224 -0.649267 0
M  V30 1502 H 143.94 -1.16514 -1.69156 0
M  V30 1503 H 142.17 0.181037 -3.86276 0
M  V30 1504 H 143.859 -0.19138 -4.05449 0
M  V30 1505 H 144.625 -2.6748 -4.04573 0
M  V30 1506 H 140.504 -1.4902 -4.3625 0
M  V30 1507 H 144.048 -4.88703 -4.9781 0
M  V30 1508 H 139.945 -3.69345 -5.29391 0
M  V30 1509 H 140.713 -5.6812 -5.89222 0
M  V30 1510 N 143.376 1.44774 -0.622745 0
M  V30 1511 C 144.286 2.34433 0.0886031 0
M  V30 1512 C 145.302 1.52131 0.844529 0
M  V30 1513 O 146.478 1.84886 0.798691 0
M  V30 1514 C 143.543 3.29986 1.0635 0
M  V30 1515 C 142.604 4.28195 0.307873 0
M  V30 1516 C 141.837 5.19183 1.23633 0
M  V30 1517 O 142.06 5.13918 2.47476 0
M  V30 1518 O 140.994 5.97515 0.725189 0
M  V30 1519 H 144.82 2.96693 -0.648599 0
M  V30 1520 H 142.405 1.44408 -0.382957 0
M  V30 1521 H 144.287 3.88825 1.6246 0
M  V30 1522 H 142.962 2.70269 1.78146 0
M  V30 1523 H 141.869 3.72927 -0.296064 0
M  V30 1524 H 143.202 4.90808 -0.3699 0
M  V30 1525 N 144.854 0.36279 1.53368 0
M  V30 1526 C 145.764 -0.492994 2.29362 0
M  V30 1527 C 146.78 -1.09507 1.35219 0
M  V30 1528 O 147.956 -1.10662 1.68273 0
M  V30 1529 C 145.021 -1.61855 3.066 0
M  V30 1530 C 144.082 -1.04429 4.16405 0
M  V30 1531 C 143.315 -2.11621 4.89951 0
M  V30 1532 O 143.538 -3.32684 4.63333 0
M  V30 1533 O 142.472 -1.74835 5.75948 0
M  V30 1534 H 146.298 0.125331 3.03441 0
M  V30 1535 H 143.883 0.127253 1.48857 0
M  V30 1536 H 145.765 -2.27302 3.54841 0
M  V30 1537 H 144.44 -2.22233 2.3536 0
M  V30 1538 H 143.347 -0.353819 3.72423 0
M  V30 1539 H 144.68 -0.485113 4.89804 0
M  V30 1540 N 146.332 -1.57332 0.0918853 0
M  V30 1541 C 147.581 -1.93412 -0.572249 0
M  V30 1542 C 147.894 -0.975515 -1.69538 0
M  V30 1543 O 149.1 -1.22991 -2.42045 0
M  V30 1544 C 147.556 -3.43648 -1.0693 0
M  V30 1545 C 147.164 -4.47994 0.0239049 0
M  V30 1546 C 148.908 -3.88695 -1.70635 0
M  V30 1547 C 146.815 -5.89381 -0.488319 0
M  V30 1548 H 145.745 -0.721939 -0.217532 0
M  V30 1549 H 148.396 -1.82735 0.167369 0
M  V30 1550 H 146.778 -3.49466 -1.8625 0
M  V30 1551 H 147.952 -4.53815 0.799277 0
M  V30 1552 H 146.267 -4.12536 0.565946 0
M  V30 1553 H 148.864 -4.91725 -2.10025 0
M  V30 1554 H 149.207 -3.27166 -2.57426 0
M  V30 1555 H 149.74 -3.85564 -0.979023 0
M  V30 1556 H 146.479 -6.54602 0.342906 0
M  V30 1557 H 145.999 -5.87037 -1.23077 0
M  V30 1558 H 147.678 -6.39863 -0.958317 0
M  V30 1559 N 147.81 0.181792 -1.56548 0
M  V30 1560 C 148.757 1.22521 -1.95595 0
M  V30 1561 C 149.727 1.4454 -0.818373 0
M  V30 1562 O 150.912 1.57454 -1.07763 0
M  V30 1563 C 148.052 2.56193 -2.31212 0
M  V30 1564 C 147.165 2.41641 -3.58097 0
M  V30 1565 C 146.3 3.68108 -3.82975 0
M  V30 1566 C 145.339 3.48445 -5.03242 0
M  V30 1567 N 144.476 4.66956 -5.24306 0
M  V30 1568 H 149.316 0.885226 -2.84548 0
M  V30 1569 H 146.853 0.425718 -1.40805 0
M  V30 1570 H 148.811 3.34088 -2.49882 0
M  V30 1571 H 147.441 2.88208 -1.45382 0
M  V30 1572 H 146.493 1.54976 -3.474 0
M  V30 1573 H 147.805 2.23052 -4.46149 0
M  V30 1574 H 146.959 4.54441 -4.01956 0
M  V30 1575 H 145.698 3.89666 -2.93278 0
M  V30 1576 H 144.703 2.60499 -4.8417 0
M  V30 1577 H 145.928 3.2832 -5.9446 0
M  V30 1578 H 143.874 4.88752 -4.37559 0
M  V30 1579 H 143.791 4.51242 -6.06561 0
M  V30 1580 H 145.059 5.54602 -5.47756 0
M  V30 1581 N 149.288 1.51039 0.449983 0
M  V30 1582 C 150.218 1.74379 1.55288 0
M  V30 1583 C 151.199 0.593236 1.5942 0
M  V30 1584 O 152.384 0.834625 1.7535 0
M  V30 1585 C 149.514 1.85728 2.93466 0
M  V30 1586 C 148.468 3.01078 3.04197 0
M  V30 1587 C 147.794 2.97595 4.44231 0
M  V30 1588 C 149.094 4.41254 2.7945 0
M  V30 1589 H 150.788 2.66725 1.36008 0
M  V30 1590 H 148.334 1.2835 0.652864 0
M  V30 1591 H 150.287 2.0064 3.70569 0
M  V30 1592 H 149.011 0.900207 3.13949 0
M  V30 1593 H 147.67 2.85851 2.29531 0
M  V30 1594 H 147.318 1.99691 4.61663 0
M  V30 1595 H 147.018 3.75046 4.52343 0
M  V30 1596 H 148.542 3.14583 5.23326 0
M  V30 1597 H 149.956 4.56897 3.46292 0
M  V30 1598 H 148.353 5.20315 2.98985 0
M  V30 1599 H 149.423 4.52164 1.75144 0
M  V30 1600 N 150.766 -0.704594 1.40972 0
M  V30 1601 C 152.182 -1.01406 1.23244 0
M  V30 1602 C 152.382 -2.01169 0.115399 0
M  V30 1603 O 151.438 -2.47021 -0.523147 0
M  V30 1604 C 152.751 -1.54728 2.57836 0
M  V30 1605 C 154.299 -1.66658 2.64942 0
M  V30 1606 C 154.774 -2.23383 3.9983 0
M  V30 1607 N 156.265 -2.30756 4.01629 0
M  V30 1608 C 157 -2.75655 5.02794 0
M  V30 1609 N 156.496 -3.20225 6.14352 0
M  V30 1610 N 158.289 -2.75138 4.90159 0
M  V30 1611 H 150.44 -0.0435285 2.12355 0
M  V30 1612 H 152.703 -0.0818951 0.944456 0
M  V30 1613 H 152.409 -0.888832 3.40283 0
M  V30 1614 H 152.283 -2.53084 2.79693 0
M  V30 1615 H 154.67 -2.31617 1.8286 0
M  V30 1616 H 154.751 -0.668717 2.46904 0
M  V30 1617 H 154.395 -1.59043 4.82357 0
M  V30 1618 H 154.325 -3.23904 4.15203 0
M  V30 1619 H 156.816 -1.99291 3.21079 0
M  V30 1620 H 157.129 -3.53084 6.87424 0
M  V30 1621 H 155.474 -3.18156 6.17901 0
M  V30 1622 H 158.665 -2.39661 4.02095 0
M  V30 1623 H 158.838 -3.09812 5.6914 0
M  V30 1624 N 152.244 -1.26651 -0.937939 0
M  V30 1625 C 153.493 -1.11775 -1.67897 0
M  V30 1626 C 153.806 0.33794 -1.92659 0
M  V30 1627 O 155.012 0.607434 -2.64618 0
M  V30 1628 C 153.468 -1.9523 -3.02346 0
M  V30 1629 C 153.076 -3.45393 -2.8532 0
M  V30 1630 C 154.82 -1.88972 -3.80118 0
M  V30 1631 C 152.727 -4.21083 -4.15263 0
M  V30 1632 H 151.657 -0.414696 -0.629717 0
M  V30 1633 H 154.308 -1.50988 -1.04283 0
M  V30 1634 H 152.69 -1.48853 -3.66959 0
M  V30 1635 H 153.864 -3.99561 -2.29537 0
M  V30 1636 H 152.179 -3.52921 -2.20988 0
M  V30 1637 H 154.776 -2.42805 -4.76392 0
M  V30 1638 H 155.119 -0.86113 -4.07296 0
M  V30 1639 H 155.652 -2.33189 -3.22285 0
M  V30 1640 H 152.391 -5.24425 -3.93267 0
M  V30 1641 H 151.911 -3.71695 -4.70747 0
M  V30 1642 H 153.59 -4.29706 -4.83696 0
M  V30 1643 N 153.722 1.14298 -1.08507 0
M  V30 1644 C 155.138 1.37347 -0.812901 0
M  V30 1645 C 155.338 1.93052 0.577325 0
M  V30 1646 O 154.394 2.14389 1.33393 0
M  V30 1647 C 155.707 2.33359 -1.89642 0
M  V30 1648 C 157.255 2.46996 -1.92255 0
M  V30 1649 C 157.73 3.46309 -2.99724 0
M  V30 1650 N 159.221 3.53853 -2.98902 0
M  V30 1651 C 159.956 4.3055 -3.787 0
M  V30 1652 N 159.452 5.10482 -4.6838 0
M  V30 1653 N 161.245 4.25757 -3.66998 0
M  V30 1654 H 153.396 0.764867 -1.9815 0
M  V30 1655 H 155.659 0.398966 -0.859959 0
M  V30 1656 H 155.365 1.99565 -2.89597 0
M  V30 1657 H 155.239 3.33274 -1.76659 0
M  V30 1658 H 157.626 2.80081 -0.929445 0
M  V30 1659 H 157.707 1.47039 -2.09316 0
M  V30 1660 H 157.351 3.13957 -3.99241 0
M  V30 1661 H 157.281 4.46049 -2.79907 0
M  V30 1662 H 159.772 2.96812 -2.33904 0
M  V30 1663 H 160.085 5.66284 -5.25873 0
M  V30 1664 H 158.43 5.09747 -4.72422 0
M  V30 1665 H 161.621 3.62383 -2.96304 0
M  V30 1666 H 161.794 4.85279 -4.29427 0
M  V30 1667 N 155.201 0.870884 1.31352 0
M  V30 1668 C 156.164 0.332243 2.26779 0
M  V30 1669 C 157.164 -0.517302 1.52252 0
M  V30 1670 O 158.354 -0.326477 1.71113 0
M  V30 1671 C 155.486 -0.528066 3.36785 0
M  V30 1672 H 156.679 1.17469 2.75937 0
M  V30 1673 H 154.232 0.64655 1.423 0
M  V30 1674 H 154.967 -1.39167 2.92922 0
M  V30 1675 H 154.752 0.0802582 3.92018 0
M  V30 1676 H 156.242 -0.897179 4.07849 0
M  V30 1677 N 156.679 -1.44442 0.630414 0
M  V30 1678 C 157.589 -2.34476 -0.0761693 0
M  V30 1679 C 158.605 -1.52576 -0.836449 0
M  V30 1680 O 159.781 -1.85307 -0.788874 0
M  V30 1681 C 156.846 -3.30545 -1.04599 0
M  V30 1682 C 155.907 -4.28352 -0.28516 0
M  V30 1683 C 155.14 -5.19831 -1.20878 0
M  V30 1684 O 155.363 -5.15223 -2.44747 0
M  V30 1685 O 154.297 -5.97892 -0.693491 0
M  V30 1686 H 158.123 -2.96345 0.664324 0
M  V30 1687 H 155.708 -1.44203 0.39061 0
M  V30 1688 H 157.59 -3.89681 -1.60396 0
M  V30 1689 H 156.265 -2.7121 -1.76711 0
M  V30 1690 H 155.172 -3.72764 0.315837 0
M  V30 1691 H 156.505 -4.90605 0.395924 0
M  V30 1692 N 158.157 -0.370918 -1.53173 0
M  V30 1693 C 159.104 0.473035 -2.259 0
M  V30 1694 C 160.074 1.07311 -1.26781 0
M  V30 1695 O 161.259 1.1046 -1.55574 0
M  V30 1696 C 158.399 1.60405 -3.05556 0
M  V30 1697 C 157.512 1.02863 -4.19575 0
M  V30 1698 C 156.647 2.12918 -4.86661 0
M  V30 1699 C 155.686 1.52869 -5.92704 0
M  V30 1700 N 154.823 2.56779 -6.53459 0
M  V30 1701 H 159.663 -0.153649 -2.97604 0
M  V30 1702 H 157.2 -0.0875946 -1.46839 0
M  V30 1703 H 159.158 2.27034 -3.50016 0
M  V30 1704 H 157.788 2.20131 -2.36097 0
M  V30 1705 H 156.84 0.252465 -3.79561 0
M  V30 1706 H 158.152 0.549642 -4.95762 0
M  V30 1707 H 157.306 2.87356 -5.34333 0
M  V30 1708 H 156.045 2.6417 -4.09958 0
M  V30 1709 H 155.05 0.769479 -5.44389 0
M  V30 1710 H 156.275 1.02435 -6.7133 0
M  V30 1711 H 154.221 3.07235 -5.79606 0
M  V30 1712 H 154.138 2.13583 -7.25202 0
M  V30 1713 H 155.406 3.30903 -7.05779 0
M  V30 1714 N 159.635 1.57281 -0.100228 0
M  V30 1715 C 160.545 2.17833 0.870965 0
M  V30 1716 C 161.561 1.14921 1.30649 0
M  V30 1717 O 162.737 1.47313 1.37335 0
M  V30 1718 C 159.802 2.75085 2.1102 0
M  V30 1719 C 158.863 3.9297 1.72838 0
M  V30 1720 C 158.096 4.47482 2.90854 0
M  V30 1721 O 158.319 4.00922 4.05731 0
M  V30 1722 O 157.253 5.38433 2.69023 0
M  V30 1723 H 161.079 3.0124 0.38575 0
M  V30 1724 H 158.664 1.48881 0.124397 0
M  V30 1725 H 160.546 3.11656 2.83634 0
M  V30 1726 H 159.221 1.94721 2.58584 0
M  V30 1727 H 158.128 3.61201 0.973883 0
M  V30 1728 H 159.461 4.74713 1.30033 0
M  V30 1729 N 161.113 -0.173488 1.56642 0
M  V30 1730 C 162.061 -1.23417 1.97157 0
M  V30 1731 C 163.055 -1.45946 0.860013 0
M  V30 1732 O 164.261 -1.46551 1.04512 0
M  V30 1733 H 160.636 -0.414818 0.62724 0
M  V30 1734 H 162.607 -0.865582 2.8557 0
M  V30 1735 C 161.356 -2.5665 2.34576 0
M  V30 1736 H 160.679 -2.40137 3.19647 0
M  V30 1737 H 162.119 -3.2956 2.6677 0
M  V30 1738 C 160.578 -3.15245 1.18836 0
M  V30 1739 O 161.108 -3.98883 0.474869 0
M  V30 1740 N 159.314 -2.74303 0.959497 0
M  V30 1741 H 158.861 -2.0639 1.54146 0
M  V30 1742 H 158.819 -3.13844 0.186932 0
M  V30 1743 N 162.591 -1.51276 -0.441967 0
M  V30 1744 C 163.819 -1.67516 -1.21434 0
M  V30 1745 C 164.234 -0.37055 -1.85128 0
M  V30 1746 O 163.591 0.650498 -1.70513 0
M  V30 1747 C 163.642 -2.78748 -2.30177 0
M  V30 1748 O 163.363 -4.04154 -1.69089 0
M  V30 1749 C 164.864 -3.06217 -3.20541 0
M  V30 1750 H 162.084 -0.562276 -0.366178 0
M  V30 1751 H 164.628 -1.97666 -0.524244 0
M  V30 1752 H 162.783 -2.5121 -2.94911 0
M  V30 1753 H 163.197 -4.65894 -2.40922 0
M  V30 1754 H 164.671 -3.8764 -3.92987 0
M  V30 1755 H 165.148 -2.18439 -3.81026 0
M  V30 1756 H 165.754 -3.35397 -2.61513 0
M  V30 1757 N 164.069 0.697108 -1.41344 0
M  V30 1758 C 165.294 1.49096 -1.44171 0
M  V30 1759 C 165.719 1.88038 -0.0481568 0
M  V30 1760 O 165.077 1.54525 0.948243 0
M  V30 1761 C 165.125 2.73088 -2.3549 0
M  V30 1762 O 164.229 3.70514 -1.81088 0
M  V30 1763 H 163.57 0.448801 -0.489361 0
M  V30 1764 H 166.1 0.856992 -1.85787 0
M  V30 1765 H 166.11 3.21413 -2.51312 0
M  V30 1766 H 164.785 2.44081 -3.36745 0
M  V30 1767 H 163.362 3.29441 -1.74708 0
M  V30 1768 N 165.547 1.27147 0.931209 0
M  V30 1769 C 166.772 1.16191 1.71797 0
M  V30 1770 C 167.197 -0.278004 1.86034 0
M  V30 1771 O 166.555 -1.20137 1.35782 0
M  V30 1772 C 166.603 1.84673 3.09723 0
M  V30 1773 O 165.707 1.14231 3.96264 0
M  V30 1774 H 165.048 0.404303 0.526721 0
M  V30 1775 H 167.578 1.68152 1.1656 0
M  V30 1776 H 167.588 1.91893 3.60057 0
M  V30 1777 H 166.263 2.89421 2.98677 0
M  V30 1778 H 164.84 1.15056 3.54706 0
M  V30 1779 N 167.025 -1.13721 1.09112 0
M  V30 1780 C 168.271 -1.85413 0.836283 0
M  V30 1781 C 168.626 -1.8175 -0.631249 0
M  V30 1782 O 167.919 -1.24238 -1.45861 0
M  V30 1783 C 168.113 -3.32861 1.30146 0
M  V30 1784 C 167.942 -3.50882 2.81268 0
M  V30 1785 C 166.712 -3.65312 3.49106 0
M  V30 1786 C 168.91 -3.47196 3.7942 0
M  V30 1787 N 166.892 -3.71563 4.88686 0
M  V30 1788 C 168.263 -3.59777 5.04936 0
M  V30 1789 C 170.318 -3.30577 3.72321 0
M  V30 1790 C 169.021 -3.57455 6.24194 0
M  V30 1791 C 171.047 -3.29562 4.91063 0
M  V30 1792 C 170.409 -3.42691 6.15421 0
M  V30 1793 H 166.508 -0.694812 0.358832 0
M  V30 1794 H 169.092 -1.36246 1.39087 0
M  V30 1795 H 167.263 -3.80602 0.774361 0
M  V30 1796 H 168.995 -3.92346 0.99229 0
M  V30 1797 H 165.75 -3.6685 2.9953 0
M  V30 1798 H 166.174 -3.78387 5.61384 0
M  V30 1799 H 170.816 -3.19332 2.77105 0
M  V30 1800 H 168.534 -3.67475 7.19714 0
M  V30 1801 H 172.12 -3.17905 4.87266 0
M  V30 1802 H 171 -3.41862 7.05762 0
M  V30 1803 N 168.503 -0.877838 -1.30888 0
M  V30 1804 C 169.733 -0.506678 -2.00291 0
M  V30 1805 C 170.141 0.907449 -1.66018 0
M  V30 1806 O 169.484 1.60719 -0.88967 0
M  V30 1807 C 169.546 -0.59323 -3.54572 0
M  V30 1808 C 169.21 -1.97038 -4.12341 0
M  V30 1809 C 170.207 -2.93889 -4.28865 0
M  V30 1810 C 167.892 -2.27383 -4.47886 0
M  V30 1811 C 169.886 -4.19224 -4.80136 0
M  V30 1812 C 167.573 -3.52965 -4.98857 0
M  V30 1813 C 168.571 -4.48701 -5.14934 0
M  V30 1814 O 168.259 -5.72056 -5.64808 0
M  V30 1815 H 167.991 -0.1951 -0.647234 0
M  V30 1816 H 170.545 -1.18301 -1.6791 0
M  V30 1817 H 168.775 0.140057 -3.86446 0
M  V30 1818 H 170.464 -0.234372 -4.05223 0
M  V30 1819 H 171.23 -2.71756 -4.01714 0
M  V30 1820 H 167.109 -1.53639 -4.34645 0
M  V30 1821 H 170.653 -4.93956 -4.92599 0
M  V30 1822 H 166.55 -3.74939 -5.25443 0
M  V30 1823 H 167.318 -5.74337 -5.83163 0
M  V30 1824 N 169.982 1.44106 -0.638065 0
M  V30 1825 C 170.892 2.34513 0.0637334 0
M  V30 1826 C 171.908 1.53018 0.828346 0
M  V30 1827 O 173.084 1.85723 0.779036 0
M  V30 1828 C 170.149 3.31095 1.02844 0
M  V30 1829 C 169.21 4.28497 0.26244 0
M  V30 1830 C 168.443 5.20465 1.1812 0
M  V30 1831 O 168.666 5.16514 2.42011 0
M  V30 1832 O 167.6 5.98251 0.661774 0
M  V30 1833 H 171.426 2.95989 -0.68003 0
M  V30 1834 H 169.011 1.43994 -0.398252 0
M  V30 1835 H 170.893 3.90526 1.58327 0
M  V30 1836 H 169.568 2.72144 1.7527 0
M  V30 1837 H 168.475 3.72592 -0.335602 0
M  V30 1838 H 169.808 4.90388 -0.421936 0
M  V30 1839 N 171.46 0.379036 1.52974 0
M  V30 1840 C 172.706 -0.206727 2.01744 0
M  V30 1841 C 173.039 -1.47314 1.26539 0
M  V30 1842 O 172.314 -1.91084 0.362903 0
M  V30 1843 C 172.597 -0.485066 3.56818 0
M  V30 1844 C 172.45 0.795919 4.42702 0
M  V30 1845 C 173.769 -1.28003 4.21074 0
M  V30 1846 H 170.888 -0.0736607 0.73331 0
M  V30 1847 H 173.53 0.506581 1.83122 0
M  V30 1848 H 171.68 -1.09272 3.72816 0
M  V30 1849 H 173.352 1.43307 4.38476 0
M  V30 1850 H 171.595 1.41344 4.10127 0
M  V30 1851 H 172.266 0.555947 5.49193 0
M  V30 1852 H 174.742 -0.765867 4.08991 0
M  V30 1853 H 173.618 -1.44352 5.29579 0
M  V30 1854 H 173.879 -2.29236 3.78026 0
M  V30 1855 N 172.938 -1.57226 0.108567 0
M  V30 1856 C 174.215 -1.86333 -0.594939 0
M  V30 1857 C 174.595 -1.00788 -1.85486 0
M  V30 1858 O 173.943 -0.0839293 -2.28346 0
M  V30 1859 C 174.153 -3.37265 -0.897405 0
M  V30 1860 C 175.501 -4.05629 -1.25501 0
M  V30 1861 O 176.525 -3.42224 -0.987998 0
M  V30 1862 O 175.384 -5.17531 -1.75567 0
M  V30 1863 H 172.478 -0.771018 -0.2991 0
M  V30 1864 H 175.024 -1.69102 0.142283 0
M  V30 1865 H 173.796 -3.913 -0.00413806 0
M  V30 1866 H 173.419 -3.59889 -1.69014 0
M  V30 1867 N 174.416 0.165178 -1.56732 0
M  V30 1868 C 175.641 0.900253 -1.86843 0
M  V30 1869 C 176.066 1.74766 -0.695596 0
M  V30 1870 O 175.424 1.77786 0.35522 0
M  V30 1871 C 175.472 1.74777 -3.15413 0
M  V30 1872 O 174.576 2.85007 -2.98068 0
M  V30 1873 H 173.917 0.251832 -0.614391 0
M  V30 1874 H 176.447 0.161468 -2.03962 0
M  V30 1875 H 176.457 2.14646 -3.46974 0
M  V30 1876 H 175.132 1.12537 -4.00385 0
M  V30 1877 H 173.709 2.48676 -2.77875 0
M  V30 1878 N 175.894 1.51508 0.433938 0
M  V30 1879 C 177.141 1.64345 1.18309 0
M  V30 1880 C 177.469 0.361315 1.91115 0
M  V30 1881 O 176.724 -0.654753 1.84422 0
M  V30 1882 C 177.023 2.79928 2.22205 0
M  V30 1883 C 176.689 4.19078 1.66387 0
M  V30 1884 C 175.351 4.56932 1.50887 0
M  V30 1885 C 177.703 5.05894 1.25381 0
M  V30 1886 C 175.031 5.79305 0.928608 0
M  V30 1887 C 177.383 6.2885 0.687823 0
M  V30 1888 C 176.047 6.65473 0.519755 0
M  V30 1889 H 175.317 0.601381 0.432923 0
M  V30 1890 H 177.964 1.85549 0.473676 0
M  V30 1891 H 176.269 2.52959 2.99197 0
M  V30 1892 H 177.966 2.87059 2.79997 0
M  V30 1893 H 174.556 3.89234 1.79428 0
M  V30 1894 H 178.74 4.77253 1.36175 0
M  V30 1895 H 173.996 6.06324 0.786186 0
M  V30 1896 H 178.17 6.95461 0.361581 0
M  V30 1897 H 175.797 7.6017 0.0679979 0
M  V30 1898 N 177.372 -0.689602 1.41712 0
M  V30 1899 C 178.6 -1.47827 1.44758 0
M  V30 1900 C 179.015 -1.88721 0.0545703 0
M  V30 1901 O 178.372 -1.57176 -0.927463 0
M  V30 1902 C 178.423 -2.73698 2.3616 0
M  V30 1903 O 178.144 -2.34524 3.7004 0
M  V30 1904 C 179.645 -3.67389 2.48072 0
M  V30 1905 H 176.865 -0.455357 0.49284 0
M  V30 1906 H 179.409 -0.848574 1.86063 0
M  V30 1907 H 177.564 -3.32891 1.98148 0
M  V30 1908 H 177.978 -3.15701 4.18847 0
M  V30 1909 H 179.452 -4.52475 3.16181 0
M  V30 1910 H 179.929 -4.12284 1.51388 0
M  V30 1911 H 180.535 -3.14097 2.86746 0
M  V30 1912 N 178.85 -1.27639 -0.924453 0
M  V30 1913 C 180.261 -1.12834 -1.48746 0
M  V30 1914 C 180.612 0.285505 -1.94112 0
M  V30 1915 O 179.737 1.17874 -1.81479 0
M  V30 1916 C 180.332 -2.04217 -2.70334 0
M  V30 1917 C 178.891 -1.93509 -3.22848 0
M  V30 1918 C 178.038 -1.96583 -1.95577 0
M  V30 1919 H 180.989 -1.40484 -0.738233 0
M  V30 1920 H 181.01 -1.59989 -3.4523 0
M  V30 1921 H 180.522 -3.07111 -2.37285 0
M  V30 1922 H 178.623 -0.936131 -3.60649 0
M  V30 1923 H 178.736 -2.79917 -3.88823 0
M  V30 1924 H 177.1 -1.4085 -2.12211 0
M  V30 1925 H 177.883 -3.01137 -1.64837 0
M  V30 1926 N 180.328 1.1314 -1.09713 0
M  V30 1927 C 181.575 1.84484 -0.834987 0
M  V30 1928 C 181.903 1.83689 0.639418 0
M  V30 1929 O 181.158 1.2724 1.4869 0
M  V30 1930 C 181.457 3.32167 -1.3191 0
M  V30 1931 C 181.123 3.53139 -2.80363 0
M  V30 1932 C 179.785 3.58571 -3.20905 0
M  V30 1933 C 182.137 3.60866 -3.76065 0
M  V30 1934 C 179.465 3.69267 -4.55916 0
M  V30 1935 C 181.817 3.73089 -5.10869 0
M  V30 1936 C 180.481 3.76775 -5.50996 0
M  V30 1937 H 179.751 0.675073 -0.305544 0
M  V30 1938 H 182.398 1.33554 -1.37243 0
M  V30 1939 H 180.703 3.85469 -0.701517 0
M  V30 1940 H 182.4 3.85821 -1.09284 0
M  V30 1941 H 178.99 3.49569 -2.47991 0
M  V30 1942 H 183.174 3.55946 -3.45855 0
M  V30 1943 H 178.43 3.70388 -4.86438 0
M  V30 1944 H 182.604 3.78011 -5.84877 0
M  V30 1945 H 180.231 3.84815 -6.55608 0
M  V30 1946 N 181.806 0.884767 1.30421 0
M  V30 1947 C 183.222 0.57874 1.48737 0
M  V30 1948 C 183.422 -0.883567 1.81095 0
M  V30 1949 O 182.478 -1.6648 1.89844 0
M  V30 1950 C 183.791 1.49171 2.61091 0
M  V30 1951 C 185.339 1.49532 2.74971 0
M  V30 1952 C 185.814 2.39421 3.90438 0
M  V30 1953 N 187.305 2.37383 3.97748 0
M  V30 1954 C 188.04 3.03647 4.86401 0
M  V30 1955 N 187.536 3.79136 5.79852 0
M  V30 1956 N 189.329 2.9288 4.79768 0
M  V30 1957 H 181.48 1.83075 1.0769 0
M  V30 1958 H 183.743 0.783637 0.533495 0
M  V30 1959 H 183.449 2.53291 2.44001 0
M  V30 1960 H 183.323 1.20113 3.57565 0
M  V30 1961 H 185.71 0.46163 2.91467 0
M  V30 1962 H 185.791 1.8262 1.79119 0
M  V30 1963 H 185.435 3.42874 3.74699 0
M  V30 1964 H 185.365 2.03649 4.85628 0
M  V30 1965 H 187.856 1.82525 3.30897 0
M  V30 1966 H 188.169 4.26789 6.4426 0
M  V30 1967 H 186.514 3.83243 5.79784 0
M  V30 1968 H 189.705 2.33433 4.05742 0
M  V30 1969 H 189.878 3.448 5.4865 0
M  V30 1970 N 183.284 -1.43765 0.645699 0
M  V30 1971 C 184.231 -2.30745 -0.0504648 0
M  V30 1972 C 185.201 -1.4432 -0.822241 0
M  V30 1973 O 186.386 -1.73202 -0.800358 0
M  V30 1974 C 183.526 -3.29802 -1.0161 0
M  V30 1975 C 182.639 -4.31326 -0.241219 0
M  V30 1976 C 181.774 -5.17469 -1.19998 0
M  V30 1977 C 180.813 -6.10691 -0.415094 0
M  V30 1978 N 179.95 -6.89483 -1.32506 0
M  V30 1979 H 184.79 -2.8973 0.697155 0
M  V30 1980 H 182.327 -1.42738 0.355563 0
M  V30 1981 H 184.285 -3.85734 -1.58949 0
M  V30 1982 H 182.915 -2.72483 -1.73069 0
M  V30 1983 H 181.967 -3.77749 0.448334 0
M  V30 1984 H 183.279 -4.9743 0.369437 0
M  V30 1985 H 182.433 -5.7799 -1.84424 0
M  V30 1986 H 181.172 -4.51473 -1.84455 0
M  V30 1987 H 180.177 -5.49265 0.242565 0
M  V30 1988 H 181.402 -6.78727 0.224966 0
M  V30 1989 H 179.348 -6.26142 -1.95657 0
M  V30 1990 H 179.265 -7.52081 -0.768783 0
M  V30 1991 H 180.533 -7.54516 -1.9577 0
M  V30 1992 N 184.763 -0.387143 -1.52771 0
M  V30 1993 C 185.726 0.436939 -2.24997 0
M  V30 1994 C 186.726 0.991991 -1.26555 0
M  V30 1995 O 187.916 0.874335 -1.50669 0
M  V30 1996 C 185.048 1.61281 -3.00335 0
M  V30 1997 H 186.241 -0.195365 -2.99263 0
M  V30 1998 H 183.794 -0.139218 -1.55679 0
M  V30 1999 H 184.529 2.2826 -2.30364 0
M  V30 2000 H 184.314 1.22154 -3.72587 0
M  V30 2001 H 185.804 2.19629 -3.5518 0
M  V30 2002 N 186.241 1.57166 -0.116904 0
M  V30 2003 C 187.173 2.12271 0.864507 0
M  V30 2004 C 188.186 1.06494 1.23138 0
M  V30 2005 O 189.375 1.33873 1.18069 0
M  V30 2006 C 186.475 2.60564 2.16702 0
M  V30 2007 C 185.648 3.90416 1.97216 0
M  V30 2008 C 184.707 4.24329 3.11178 0
M  V30 2009 O 183.733 4.93182 2.84184 0
M  V30 2010 N 184.935 3.8148 4.37554 0
M  V30 2011 H 187.7 2.97102 0.393726 0
M  V30 2012 H 185.261 1.61759 0.0675805 0
M  V30 2013 H 187.253 2.80282 2.91932 0
M  V30 2014 H 185.823 1.80623 2.55135 0
M  V30 2015 H 185.043 3.79627 1.06192 0
M  V30 2016 H 186.331 4.75327 1.81499 0
M  V30 2017 H 185.729 3.25943 4.62361 0
M  V30 2018 H 184.286 4.06311 5.09661 0
M  V30 2019 N 187.719 -0.156864 1.56817 0
M  V30 2020 C 188.968 -0.869504 1.81996 0
M  V30 2021 C 189.281 -1.82777 0.696545 0
M  V30 2022 O 190.487 -2.58384 0.833658 0
M  V30 2023 C 188.943 -1.59679 3.22538 0
M  V30 2024 C 188.551 -0.681431 4.42787 0
M  V30 2025 C 190.295 -2.2968 3.56997 0
M  V30 2026 C 188.202 -1.40978 5.74351 0
M  V30 2027 H 187.132 -0.328438 0.678708 0
M  V30 2028 H 189.783 -0.1223 1.83092 0
M  V30 2029 H 188.165 -2.38927 3.158 0
M  V30 2030 H 189.339 0.0751166 4.60739 0
M  V30 2031 H 187.654 -0.0903431 4.16302 0
M  V30 2032 H 190.251 -2.84794 4.52544 0
M  V30 2033 H 190.594 -3.05707 2.82576 0
M  V30 2034 H 191.127 -1.57361 3.65352 0
M  V30 2035 H 187.866 -0.691561 6.51842 0
M  V30 2036 H 187.386 -2.13929 5.60352 0
M  V30 2037 H 189.065 -1.95337 6.16808 0
M  V30 2038 N 189.197 -1.51736 -0.425897 0
M  V30 2039 C 190.445 -1.64644 -1.17204 0
M  V30 2040 C 190.766 -0.370486 -1.91448 0
M  V30 2041 O 190.036 0.614088 -1.86026 0
M  V30 2042 H 188.616 -0.606819 -0.435638 0
M  V30 2043 H 191.278 -1.88713 -0.487177 0
M  V30 2044 H 190.374 -2.47958 -1.89534 0
M  V30 2045 N 190.675 0.682077 -1.42076 0
M  V30 2046 C 192.086 1.26246 -1.37546 0
M  V30 2047 C 192.437 1.96092 -0.0651481 0
M  V30 2048 O 191.562 1.99587 0.836297 0
M  V30 2049 C 192.157 2.29594 -2.49143 0
M  V30 2050 C 190.716 2.83175 -2.47969 0
M  V30 2051 C 189.863 1.57395 -2.28303 0
M  V30 2052 H 192.814 0.475937 -1.51395 0
M  V30 2053 H 192.835 3.11175 -2.18976 0
M  V30 2054 H 192.347 1.78729 -3.44496 0
M  V30 2055 H 190.448 3.3818 -1.56413 0
M  V30 2056 H 190.561 3.32687 -3.44755 0
M  V30 2057 H 188.925 1.83699 -1.76428 0
M  V30 2058 H 189.708 1.08507 -3.25701 0
M  V30 2059 N 192.153 1.28127 0.917671 0
M  V30 2060 C 193.564 1.13622 1.48145 0
M  V30 2061 C 193.915 -0.275207 1.9426 0
M  V30 2062 O 193.04 -1.1691 1.82102 0
M  V30 2063 C 193.635 2.05648 2.69248 0
M  V30 2064 C 192.194 1.95219 3.21818 0
M  V30 2065 C 191.341 1.97618 1.94532 0
M  V30 2066 H 194.292 1.40874 0.730772 0
M  V30 2067 H 194.313 1.61818 3.44377 0
M  V30 2068 H 193.825 3.08365 2.35653 0
M  V30 2069 H 191.926 0.955244 3.60147 0
M  V30 2070 H 192.039 2.81976 3.87333 0
M  V30 2071 H 190.403 1.41973 2.11461 0
M  V30 2072 H 191.186 3.02007 1.63238 0
M  V30 2073 N 193.631 -1.12557 1.10312 0
M  V30 2074 C 194.541 -2.21841 0.763142 0
M  V30 2075 C 195.557 -1.72354 -0.238801 0
M  V30 2076 O 196.733 -2.01249 -0.0778746 0
M  V30 2077 C 193.798 -3.46131 0.198632 0
M  V30 2078 C 192.859 -4.10464 1.25769 0
M  V30 2079 C 192.092 -5.28821 0.72002 0
M  V30 2080 O 192.315 -5.6859 -0.453993 0
M  V30 2081 O 191.249 -5.83437 1.47935 0
M  V30 2082 H 195.075 -2.53312 1.67532 0
M  V30 2083 H 192.66 -1.20867 0.878157 0
M  V30 2084 H 194.542 -4.2125 -0.112401 0
M  V30 2085 H 193.217 -3.16338 -0.686419 0
M  V30 2086 H 192.124 -3.3713 1.62156 0
M  V30 2087 H 193.457 -4.44408 2.11571 0
M  V30 2088 N 195.109 -0.891671 -1.2995 0
M  V30 2089 C 196.355 -0.514261 -1.96171 0
M  V30 2090 C 196.688 0.935506 -1.70182 0
M  V30 2091 O 195.963 1.66204 -1.01028 0
M  V30 2092 C 196.246 -0.797719 -3.51153 0
M  V30 2093 C 196.099 -2.2986 -3.86632 0
M  V30 2094 C 197.418 -0.278749 -4.39216 0
M  V30 2095 H 194.537 -0.188314 -0.712535 0
M  V30 2096 H 197.179 -1.11689 -1.53706 0
M  V30 2097 H 195.329 -0.284826 -3.87455 0
M  V30 2098 H 197.001 -2.88042 -3.60319 0
M  V30 2099 H 195.244 -2.76257 -3.34462 0
M  V30 2100 H 195.915 -2.44753 -4.94773 0
M  V30 2101 H 198.391 -0.717825 -4.09862 0
M  V30 2102 H 197.267 -0.506353 -5.46559 0
M  V30 2103 H 197.528 0.820266 -4.34424 0
M  V30 2104 N 196.587 1.43421 -0.653314 0
M  V30 2105 C 197.537 2.2792 0.060558 0
M  V30 2106 C 198.521 1.39906 0.794677 0
M  V30 2107 O 199.713 1.63536 0.677128 0
M  V30 2108 C 196.842 3.27603 1.0262 0
M  V30 2109 C 195.928 4.23104 0.290551 0
M  V30 2110 N 196.319 5.01031 -0.692967 0
M  V30 2111 C 194.617 4.42816 0.531984 0
M  V30 2112 C 195.318 5.70626 -1.12963 0
M  V30 2113 N 194.294 5.41617 -0.463867 0
M  V30 2114 H 198.096 2.85585 -0.694143 0
M  V30 2115 H 195.61 1.55126 -0.480602 0
M  V30 2116 H 197.607 3.86918 1.55242 0
M  V30 2117 H 196.267 2.71499 1.78096 0
M  V30 2118 H 197.278 5.0669 -1.07169 0
M  V30 2119 H 193.955 3.97782 1.26791 0
M  V30 2120 H 195.345 6.4318 -1.94343 0
M  V30 2121 N 198.065 0.39524 1.52563 0
M  V30 2122 C 198.995 -0.428384 2.29537 0
M  V30 2123 C 199.976 -1.05831 1.33169 0
M  V30 2124 O 201.161 -1.06995 1.62067 0
M  V30 2125 C 198.291 -1.55274 3.10656 0
M  V30 2126 C 197.245 -1.04855 4.14957 0
M  V30 2127 C 196.571 -2.26543 4.84337 0
M  V30 2128 C 197.871 -0.112324 5.22179 0
M  V30 2129 H 199.565 0.213867 2.98635 0
M  V30 2130 H 197.111 0.104298 1.43622 0
M  V30 2131 H 199.064 -2.1358 3.63265 0
M  V30 2132 H 197.788 -2.22266 2.39302 0
M  V30 2133 H 196.447 -0.487985 3.63338 0
M  V30 2134 H 196.095 -2.92059 4.09525 0
M  V30 2135 H 195.795 -1.93466 5.54837 0
M  V30 2136 H 197.319 -2.85481 5.39753 0
M  V30 2137 H 198.733 -0.603752 5.70112 0
M  V30 2138 H 197.13 0.128968 5.99961 0
M  V30 2139 H 198.2 0.837052 4.77621 0
M  V30 2140 N 199.544 -1.57102 0.125237 0
M  V30 2141 C 200.454 -2.19191 -0.8362 0
M  V30 2142 C 201.47 -1.16985 -1.28805 0
M  V30 2143 O 202.646 -1.49479 -1.34974 0
M  V30 2144 C 199.711 -2.78407 -2.06617 0
M  V30 2145 C 198.772 -3.9567 -1.66565 0
M  V30 2146 C 198.005 -4.52052 -2.83698 0
M  V30 2147 O 198.228 -4.07326 -3.99302 0
M  V30 2148 O 197.162 -5.42645 -2.60423 0
M  V30 2149 H 200.988 -3.01816 -0.337776 0
M  V30 2150 H 198.573 -1.4906 -0.100695 0
M  V30 2151 H 200.455 -3.16129 -2.7864 0
M  V30 2152 H 199.13 -1.9881 -2.55453 0
M  V30 2153 H 198.037 -3.62705 -0.916296 0
M  V30 2154 H 199.37 -4.76722 -1.22464 0
M  V30 2155 N 201.022 0.148545 -1.56898 0
M  V30 2156 C 201.985 1.16736 -1.97244 0
M  V30 2157 C 202.985 1.35947 -0.858777 0
M  V30 2158 O 204.175 1.32966 -1.12542 0
M  V30 2159 C 201.307 2.52798 -2.28705 0
M  V30 2160 H 202.5 0.821279 -2.88435 0
M  V30 2161 H 200.053 0.391831 -1.51309 0
M  V30 2162 H 200.788 2.92381 -1.403 0
M  V30 2163 H 200.573 2.40216 -3.09901 0
M  V30 2164 H 202.063 3.26179 -2.60762 0
M  V30 2165 N 202.5 1.5196 0.417844 0
M  V30 2166 C 203.41 1.77554 1.53336 0
M  V30 2167 C 204.426 0.660655 1.6097 0
M  V30 2168 O 205.602 0.945099 1.77848 0
M  V30 2169 C 202.667 1.91291 2.89152 0
M  V30 2170 C 201.728 3.15183 2.91475 0
M  V30 2171 C 200.961 3.28256 4.20813 0
M  V30 2172 O 201.184 2.46798 5.14244 0
M  V30 2173 O 200.118 4.21356 4.29817 0
M  V30 2174 H 203.944 2.7222 1.34647 0
M  V30 2175 H 201.529 1.36698 0.602828 0
M  V30 2176 H 203.411 2.02199 3.69721 0
M  V30 2177 H 202.086 0.998129 3.07927 0
M  V30 2178 H 200.993 3.09739 2.09791 0
M  V30 2179 H 202.326 4.06414 2.77648 0
M  V30 2180 N 203.978 -0.674533 1.42435 0
M  V30 2181 C 205.255 -1.4305 1.33402 0
M  V30 2182 C 205.635 -2.11081 -0.0284674 0
M  V30 2183 O 204.983 -2.03257 -1.04397 0
M  V30 2184 C 205.193 -2.43272 2.50239 0
M  V30 2185 C 206.541 -3.07907 2.92367 0
M  V30 2186 O 207.565 -2.53599 2.50132 0
M  V30 2187 O 206.424 -4.0632 3.65467 0
M  V30 2188 H 203.518 -0.638076 0.526106 0
M  V30 2189 H 206.064 -0.703235 1.54443 0
M  V30 2190 H 204.836 -1.91803 3.41068 0
M  V30 2191 H 204.459 -3.23479 2.31186 0
M  V30 2192 N 205.456 -1.28612 -0.910864 0
M  V30 2193 C 206.403 -1.12786 -2.01365 0
M  V30 2194 C 207.373 -0.024201 -1.66082 0
M  V30 2195 O 208.558 -0.189667 -1.89855 0
M  V30 2196 C 205.698 -0.798743 -3.35729 0
M  V30 2197 C 204.811 -1.98173 -3.83864 0
M  V30 2198 C 203.946 -1.59298 -5.06752 0
M  V30 2199 C 202.985 -2.74245 -5.47226 0
M  V30 2200 N 202.122 -2.35842 -6.61304 0
M  V30 2201 H 206.962 -2.07142 -2.14234 0
M  V30 2202 H 204.499 -1.03093 -1.0493 0
M  V30 2203 H 206.457 -0.588662 -4.13026 0
M  V30 2204 H 205.087 0.10789 -3.2262 0
M  V30 2205 H 204.139 -2.30386 -3.02699 0
M  V30 2206 H 205.451 -2.84343 -4.09818 0
M  V30 2207 H 204.605 -1.34513 -5.916 0
M  V30 2208 H 203.344 -0.702618 -4.82612 0
M  V30 2209 H 202.349 -2.99725 -4.60918 0
M  V30 2210 H 203.574 -3.63928 -5.73353 0
M  V30 2211 H 201.52 -1.49279 -6.38789 0
M  V30 2212 H 201.437 -3.15546 -6.86998 0
M  V30 2213 H 202.705 -2.14348 -7.4945 0
M  V30 2214 N 206.934 1.1197 -1.10907 0
M  V30 2215 C 207.897 2.16031 -0.765707 0
M  V30 2216 C 208.897 1.59393 0.212235 0
M  V30 2217 O 210.087 1.74196 -0.0115441 0
M  V30 2218 C 207.219 3.40632 -0.135053 0
M  V30 2219 H 208.412 2.47919 -1.68748 0
M  V30 2220 H 205.965 1.27061 -0.910226 0
M  V30 2221 H 206.7 3.14348 0.797218 0
M  V30 2222 H 206.485 3.8302 -0.838937 0
M  V30 2223 H 207.975 4.17505 0.0892469 0
M  V30 2224 N 208.412 0.89855 1.29475 0
M  V30 2225 C 209.661 0.519863 1.94885 0
M  V30 2226 C 209.974 -0.9383 1.71625 0
M  V30 2227 O 211.18 -1.42445 2.31131 0
M  V30 2228 C 209.636 0.878836 3.49005 0
M  V30 2229 C 209.244 2.35569 3.81066 0
M  V30 2230 C 210.988 0.570004 4.20656 0
M  V30 2231 C 208.895 2.65558 5.28425 0
M  V30 2232 H 207.825 0.190692 0.729488 0
M  V30 2233 H 210.476 1.09539 1.47219 0
M  V30 2234 H 208.858 0.232253 3.95318 0
M  V30 2235 H 210.032 3.04773 3.45616 0
M  V30 2236 H 208.347 2.63343 3.22552 0
M  V30 2237 H 210.944 0.770925 5.29113 0
M  V30 2238 H 211.287 -0.491404 4.1339 0
M  V30 2239 H 211.82 1.17438 3.8007 0
M  V30 2240 H 208.559 3.70493 5.40754 0
M  V30 2241 H 208.079 2.00977 5.65127 0
M  V30 2242 H 209.758 2.51765 5.96006 0
M  V30 2243 N 209.89 -1.43072 0.660911 0
M  V30 2244 C 211.136 -2.0202 0.177708 0
M  V30 2245 C 211.469 -1.52066 -1.20787 0
M  V30 2246 O 210.744 -0.716987 -1.80802 0
M  V30 2247 C 211.027 -3.59561 0.197019 0
M  V30 2248 C 210.88 -4.19727 1.61706 0
M  V30 2249 C 212.199 -4.37664 -0.462396 0
M  V30 2250 H 209.318 -0.734034 0.0660494 0
M  V30 2251 H 211.96 -1.70272 0.843058 0
M  V30 2252 H 210.11 -3.86739 -0.369527 0
M  V30 2253 H 211.782 -4.03553 2.23479 0
M  V30 2254 H 210.025 -3.76084 2.16201 0
M  V30 2255 H 210.696 -5.28834 1.58237 0
M  V30 2256 H 213.172 -4.16095 0.0197215 0
M  V30 2257 H 212.048 -5.47305 -0.418188 0
M  V30 2258 H 212.309 -4.14493 -1.53778 0
M  V30 2259 N 211.368 -0.403325 -1.52352 0
M  V30 2260 C 212.617 0.175668 -2.00934 0
M  V30 2261 C 212.93 1.46718 -1.29356 0
M  V30 2262 O 214.136 2.12708 -1.68724 0
M  V30 2263 C 212.592 0.363612 -3.58058 0
M  V30 2264 C 212.2 -0.915472 -4.38547 0
M  V30 2265 C 213.944 0.89821 -4.14888 0
M  V30 2266 C 211.851 -0.695035 -5.87302 0
M  V30 2267 H 210.781 0.0694234 -0.750797 0
M  V30 2268 H 213.432 -0.527879 -1.75743 0
M  V30 2269 H 211.814 1.12935 -3.79555 0
M  V30 2270 H 212.988 -1.68691 -4.28812 0
M  V30 2271 H 211.303 -1.37606 -3.93006 0
M  V30 2272 H 213.9 1.07907 -5.23699 0
M  V30 2273 H 214.243 1.87126 -3.71873 0
M  V30 2274 H 214.776 0.191681 -3.97338 0
M  V30 2275 H 211.515 -1.63948 -6.34666 0
M  V30 2276 H 211.035 0.0372116 -5.99788 0
M  V30 2277 H 212.714 -0.33497 -6.46132 0
M  V30 2278 N 212.846 1.57033 -0.133567 0
M  V30 2279 C 213.796 2.12641 0.822671 0
M  V30 2280 C 214.78 1.05081 1.21847 0
M  V30 2281 O 215.972 1.31287 1.18713 0
M  V30 2282 C 213.101 2.74094 2.06706 0
M  V30 2283 C 212.187 3.88757 1.69497 0
M  V30 2284 N 212.578 4.95194 1.03037 0
M  V30 2285 C 210.876 3.99213 1.98859 0
M  V30 2286 C 211.577 5.75414 0.852873 0
M  V30 2287 N 210.553 5.25726 1.3825 0
M  V30 2288 H 214.355 2.92308 0.305537 0
M  V30 2289 H 211.869 1.62256 0.0684276 0
M  V30 2290 H 213.866 3.12285 2.76195 0
M  V30 2291 H 212.526 1.95896 2.5895 0
M  V30 2292 H 213.537 5.13247 0.692669 0
M  V30 2293 H 210.214 3.32075 2.53047 0
M  V30 2294 H 211.604 6.71089 0.330091 0
M  V30 2295 N 214.325 -0.140222 1.56975 0
M  V30 2296 C 215.574 -0.850152 1.82908 0
M  V30 2297 C 215.887 -1.82028 0.715892 0
M  V30 2298 O 217.093 -2.57485 0.861016 0
M  V30 2299 C 215.549 -1.5625 3.24213 0
M  V30 2300 C 215.157 -0.63443 4.43485 0
M  V30 2301 C 216.901 -2.25881 3.59413 0
M  V30 2302 C 214.808 -1.34879 5.75814 0
M  V30 2303 H 213.738 -0.321221 0.682153 0
M  V30 2304 H 216.389 -0.102874 1.83211 0
M  V30 2305 H 214.771 -2.35565 3.18316 0
M  V30 2306 H 215.945 0.12398 4.60633 0
M  V30 2307 H 214.26 -0.0461836 4.16374 0
M  V30 2308 H 216.857 -2.79978 4.5554 0
M  V30 2309 H 217.2 -3.02693 2.85802 0
M  V30 2310 H 217.733 -1.53477 3.67001 0
M  V30 2311 H 214.472 -0.622385 6.52539 0
M  V30 2312 H 213.992 -2.07974 5.6259 0
M  V30 2313 H 215.671 -1.88784 6.18845 0
M  V30 2314 N 215.803 -1.52179 -0.40978 0
M  V30 2315 C 217.028 -1.70347 -1.18308 0
M  V30 2316 C 217.453 -0.411887 -1.83535 0
M  V30 2317 O 216.811 0.630587 -1.6998 0
M  V30 2318 C 216.859 -2.83977 -2.22238 0
M  V30 2319 O 215.963 -2.495 -3.28365 0
M  V30 2320 H 215.304 -0.567103 -0.345384 0
M  V30 2321 H 217.834 -1.98879 -0.480445 0
M  V30 2322 H 217.844 -3.0887 -2.66577 0
M  V30 2323 H 216.519 -3.77685 -1.74146 0
M  V30 2324 H 215.096 -2.35277 -2.89308 0
M  V30 2325 N 217.281 0.66697 -1.42791 0
M  V30 2326 C 218.692 1.2478 -1.38877 0
M  V30 2327 C 219.043 1.96012 -0.0859426 0
M  V30 2328 O 218.168 2.00463 0.815081 0
M  V30 2329 C 218.763 2.26938 -2.51564 0
M  V30 2330 C 217.322 2.80529 -2.50959 0
M  V30 2331 C 216.469 1.54965 -2.29959 0
M  V30 2332 H 219.42 0.459853 -1.51892 0
M  V30 2333 H 219.441 3.08834 -2.22265 0
M  V30 2334 H 218.953 1.75065 -3.46372 0
M  V30 2335 H 217.054 3.36502 -1.59991 0
M  V30 2336 H 217.167 3.29012 -3.48265 0
M  V30 2337 H 215.531 1.81817 -1.78366 0
M  V30 2338 H 216.314 1.05047 -3.26833 0
M  V30 2339 N 218.759 1.29093 0.90403 0
M  V30 2340 C 220.007 1.16583 1.65085 0
M  V30 2341 C 220.328 -0.283933 1.92922 0
M  V30 2342 O 219.598 -1.19509 1.55224 0
M  V30 2343 H 218.178 0.428467 0.611903 0
M  V30 2344 H 220.84 1.61959 1.08422 0
M  V30 2345 H 219.936 1.71266 2.6091 0
M  V30 2346 N 220.237 -1.11381 1.11499 0
M  V30 2347 C 221.465 -1.86934 0.88675 0
M  V30 2348 C 221.88 -1.80195 -0.563476 0
M  V30 2349 O 221.237 -1.18367 -1.38908 0
M  V30 2350 C 221.288 -3.35722 1.34064 0
M  V30 2351 O 221.009 -3.4232 2.73401 0
M  V30 2352 C 222.51 -4.2818 1.14791 0
M  V30 2353 H 219.73 -0.591117 0.317523 0
M  V30 2354 H 222.274 -1.40865 1.48248 0
M  V30 2355 H 220.429 -3.79294 0.788355 0
M  V30 2356 H 220.843 -4.34971 2.93087 0
M  V30 2357 H 222.317 -5.30817 1.5145 0
M  V30 2358 H 222.794 -4.39113 0.0875279 0
M  V30 2359 H 223.4 -3.90402 1.68721 0
M  V30 2360 N 221.715 -0.905404 -1.28997 0
M  V30 2361 C 222.662 -0.385892 -2.27551 0
M  V30 2362 C 223.632 0.535113 -1.57244 0
M  V30 2363 O 224.817 0.459119 -1.85194 0
M  V30 2364 C 221.957 0.375461 -3.43051 0
M  V30 2365 C 221.07 -0.577092 -4.28128 0
M  V30 2366 C 220.205 0.201879 -5.30816 0
M  V30 2367 C 219.244 -0.744829 -6.07551 0
M  V30 2368 N 218.381 9.42587e-05 -7.021 0
M  V30 2369 H 223.221 -1.23139 -2.71368 0
M  V30 2370 H 220.758 -0.618542 -1.33463 0
M  V30 2371 H 222.716 0.832992 -4.088 0
M  V30 2372 H 221.346 1.18537 -3.00248 0
M  V30 2373 H 220.398 -1.15315 -3.62501 0
M  V30 2374 H 221.71 -1.30152 -4.8152 0
M  V30 2375 H 220.864 0.720351 -6.02408 0
M  V30 2376 H 219.603 0.959413 -4.7817 0
M  V30 2377 H 218.608 -1.27475 -5.34818 0
M  V30 2378 H 219.833 -1.50178 -6.62286 0
M  V30 2379 H 217.779 0.739791 -6.51815 0
M  V30 2380 H 217.696 -0.664321 -7.53076 0
M  V30 2381 H 218.964 0.498644 -7.77903 0
M  V30 2382 N 223.193 1.4272 -0.668489 0
M  V30 2383 C 224.47 1.95248 -0.117373 0
M  V30 2384 C 224.85 1.60919 1.36632 0
M  V30 2385 O 224.198 0.902095 2.09939 0
M  V30 2386 C 224.408 3.46927 -0.379806 0
M  V30 2387 C 225.756 4.23588 -0.292923 0
M  V30 2388 O 226.78 3.5482 -0.313204 0
M  V30 2389 O 225.639 5.46017 -0.229697 0
M  V30 2390 H 222.733 0.827 0.00079152 0
M  V30 2391 H 225.279 1.52581 -0.742783 0
M  V30 2392 H 224.051 3.65096 -1.40786 0
M  V30 2393 H 223.674 3.96627 0.277923 0
M  V30 2394 N 224.671 0.411399 1.52136 0
M  V30 2395 C 225.896 -0.165538 2.06738 0
M  V30 2396 C 226.321 -1.379 1.27926 0
M  V30 2397 O 225.679 -1.78628 0.310114 0
M  V30 2398 C 225.727 -0.492124 3.57226 0
M  V30 2399 O 224.831 -1.58276 3.80818 0
M  V30 2400 H 224.172 -0.0132132 0.663869 0
M  V30 2401 H 226.702 0.585253 1.96051 0
M  V30 2402 H 226.712 -0.750104 4.01045 0
M  V30 2403 H 225.387 0.394922 4.14021 0
M  V30 2404 H 223.964 -1.31677 3.48877 0
M  V30 2405 N 226.149 -1.5696 0.141893 0
M  V30 2406 C 227.395 -1.9625 -0.511248 0
M  V30 2407 C 227.728 -1.02654 -1.64851 0
M  V30 2408 O 227.003 -0.0679676 -1.94381 0
M  V30 2409 C 227.286 -3.45285 -1.02227 0
M  V30 2410 C 227.139 -4.49658 0.113138 0
M  V30 2411 C 228.458 -3.96698 -1.90574 0
M  V30 2412 H 225.577 -0.713567 -0.184367 0
M  V30 2413 H 228.219 -1.88698 0.222087 0
M  V30 2414 H 226.369 -3.51852 -1.64719 0
M  V30 2415 H 228.041 -4.55174 0.749302 0
M  V30 2416 H 226.284 -4.26857 0.773026 0
M  V30 2417 H 226.955 -5.51258 -0.286053 0
M  V30 2418 H 229.431 -3.92578 -1.37918 0
M  V30 2419 H 228.307 -5.01453 -2.2324 0
M  V30 2420 H 228.568 -3.3875 -2.84079 0
M  V30 2421 N 227.627 0.131896 -1.57047 0
M  V30 2422 C 228.56 1.19236 -1.94571 0
M  V30 2423 C 229.538 1.40782 -0.813576 0
M  V30 2424 O 230.722 1.55148 -1.07058 0
M  V30 2425 C 227.849 2.54858 -2.23081 0
M  V30 2426 C 226.895 2.49817 -3.45679 0
M  V30 2427 S 227.728 1.95036 -4.98719 0
M  V30 2428 C 228.884 3.32357 -5.30367 0
M  V30 2429 H 229.117 0.872297 -2.84215 0
M  V30 2430 H 226.65 0.338134 -1.50652 0
M  V30 2431 H 228.608 3.32898 -2.40185 0
M  V30 2432 H 227.269 2.84047 -1.34074 0
M  V30 2433 H 226.462 3.49688 -3.62952 0
M  V30 2434 H 226.064 1.79892 -3.27895 0
M  V30 2435 H 228.356 4.28525 -5.2476 0
M  V30 2436 H 229.299 3.19923 -6.31708 0
M  V30 2437 H 229.707 3.3019 -4.57859 0
M  V30 2438 N 229.106 1.52395 0.401703 0
M  V30 2439 C 230.352 1.68019 1.14635 0
M  V30 2440 C 230.707 0.408722 1.88009 0
M  V30 2441 O 230 -0.597133 1.82057 0
M  V30 2442 C 230.194 2.84578 2.16217 0
M  V30 2443 C 230.023 4.22938 1.5282 0
M  V30 2444 C 228.793 4.88352 1.29772 0
M  V30 2445 C 230.991 5.04778 0.985094 0
M  V30 2446 N 228.973 6.10726 0.623455 0
M  V30 2447 C 230.344 6.1845 0.438172 0
M  V30 2448 C 232.399 4.90057 0.880275 0
M  V30 2449 C 231.102 7.19013 -0.203306 0
M  V30 2450 C 233.128 5.9086 0.252639 0
M  V30 2451 C 232.49 7.03829 -0.283573 0
M  V30 2452 H 228.589 0.668413 0.405892 0
M  V30 2453 H 231.173 1.89717 0.437674 0
M  V30 2454 H 229.344 2.64483 2.84435 0
M  V30 2455 H 231.076 2.89202 2.83098 0
M  V30 2456 H 227.831 4.46846 1.56926 0
M  V30 2457 H 228.255 6.76323 0.302733 0
M  V30 2458 H 232.897 4.02938 1.28065 0
M  V30 2459 H 230.615 8.05751 -0.615726 0
M  V30 2460 H 234.201 5.81543 0.172954 0
M  V30 2461 H 233.081 7.80493 -0.761575 0
M  V30 2462 N 230.584 -0.659388 1.43143 0
M  V30 2463 C 231.547 -1.75432 1.47501 0
M  V30 2464 C 232.547 -1.56707 0.360512 0
M  V30 2465 O 233.737 -1.62717 0.622002 0
M  V30 2466 C 230.869 -3.14239 1.32162 0
M  V30 2467 H 232.062 -1.7295 2.45006 0
M  V30 2468 H 229.615 -0.870469 1.29817 0
M  V30 2469 H 230.35 -3.22336 0.356401 0
M  V30 2470 H 230.135 -3.29235 2.12948 0
M  V30 2471 H 231.625 -3.94094 1.3813 0
M  V30 2472 N 232.062 -1.29571 -0.897171 0
M  V30 2473 C 232.992 -1.17473 -2.01798 0
M  V30 2474 C 233.973 -0.068323 -1.69963 0
M  V30 2475 O 235.158 -0.248239 -1.92607 0
M  V30 2476 C 232.288 -0.853099 -3.36659 0
M  V30 2477 C 231.242 -1.9161 -3.82713 0
M  V30 2478 C 230.568 -1.44773 -5.14728 0
M  V30 2479 C 231.868 -3.32535 -4.02763 0
M  V30 2480 H 233.562 -2.11237 -2.12177 0
M  V30 2481 H 231.108 -1.01699 -1.01948 0
M  V30 2482 H 233.061 -0.755165 -4.14578 0
M  V30 2483 H 231.785 0.120236 -3.26379 0
M  V30 2484 H 230.444 -2.00346 -3.07013 0
M  V30 2485 H 230.092 -0.462995 -5.00865 0
M  V30 2486 H 229.792 -2.15865 -5.46513 0
M  V30 2487 H 231.316 -1.36334 -5.95185 0
M  V30 2488 H 232.73 -3.26626 -4.71156 0
M  V30 2489 H 231.127 -4.01607 -4.45905 0
M  V30 2490 H 232.197 -3.75326 -3.07016 0
M  V30 2491 N 233.54 1.10788 -1.12088 0
M  V30 2492 C 234.817 1.79136 -0.785476 0
M  V30 2493 C 235.197 1.98246 0.725377 0
M  V30 2494 O 234.545 1.57258 1.65778 0
M  V30 2495 C 234.755 3.12375 -1.55636 0
M  V30 2496 C 236.103 3.8731 -1.74001 0
M  V30 2497 O 237.127 3.22085 -1.52117 0
M  V30 2498 O 235.986 5.04369 -2.10415 0
M  V30 2499 H 233.08 0.776226 -0.285311 0
M  V30 2500 H 235.626 1.1747 -1.2247 0
M  V30 2501 H 234.398 2.93863 -2.5838 0
M  V30 2502 H 234.021 3.81758 -1.11114 0
M  V30 2503 N 235.018 0.912232 1.28515 0
M  V30 2504 C 236.266 0.543523 1.94654 0
M  V30 2505 C 236.587 -0.9155 1.72173 0
M  V30 2506 O 235.857 -1.64708 1.06058 0
M  V30 2507 H 234.437 0.198017 0.720277 0
M  V30 2508 H 237.099 1.16126 1.56527 0
M  V30 2509 H 236.195 0.736684 3.03281 0
M  V30 2510 N 236.496 -1.42363 0.676048 0
M  V30 2511 C 237.426 -2.33497 0.0124832 0
M  V30 2512 C 238.407 -1.50748 -0.787981 0
M  V30 2513 O 239.592 -1.79346 -0.744884 0
M  V30 2514 C 236.722 -3.34377 -0.938582 0
M  V30 2515 C 235.676 -4.27289 -0.246622 0
M  V30 2516 C 235.002 -5.18386 -1.31071 0
M  V30 2517 C 236.302 -5.14916 0.875125 0
M  V30 2518 H 237.996 -2.89233 0.773593 0
M  V30 2519 H 235.542 -1.39073 0.37346 0
M  V30 2520 H 237.495 -3.97044 -1.41188 0
M  V30 2521 H 236.219 -2.76947 -1.73113 0
M  V30 2522 H 234.878 -3.66018 0.206456 0
M  V30 2523 H 234.526 -4.57282 -2.09528 0
M  V30 2524 H 234.226 -5.81378 -0.852839 0
M  V30 2525 H 235.75 -5.83929 -1.78492 0
M  V30 2526 H 237.164 -5.71262 0.482983 0
M  V30 2527 H 235.561 -5.86747 1.25887 0
M  V30 2528 H 236.631 -4.53242 1.72335 0
M  V30 2529 N 237.974 -0.419461 -1.51915 0
M  V30 2530 C 239.199 0.154572 -2.06823 0
M  V30 2531 C 239.624 1.3722 -1.28656 0
M  V30 2532 O 238.982 1.78461 -0.319583 0
M  V30 2533 C 239.03 0.473172 -3.57482 0
M  V30 2534 O 238.134 1.56255 -3.81652 0
M  V30 2535 H 237.475 0.0096924 -0.663929 0
M  V30 2536 H 240.005 -0.595642 -1.95738 0
M  V30 2537 H 240.015 0.728825 -4.01438 0
M  V30 2538 H 238.69 -0.416873 -4.13805 0
M  V30 2539 H 237.267 1.29825 -3.49571 0
M  V30 2540 N 239.452 1.56882 -0.150215 0
M  V30 2541 C 240.699 1.96228 0.500093 0
M  V30 2542 C 241.027 1.03522 1.64661 0
M  V30 2543 O 240.282 0.0650683 1.95592 0
M  V30 2544 C 240.581 3.41801 1.04437 0
M  V30 2545 C 240.247 4.50897 0.0159671 0
M  V30 2546 C 238.909 4.8046 -0.266731 0
M  V30 2547 C 241.261 5.16703 -0.683192 0
M  V30 2548 C 238.589 5.73135 -1.25434 0
M  V30 2549 C 240.941 6.10441 -1.65964 0
M  V30 2550 C 239.605 6.38382 -1.95 0
M  V30 2551 H 238.875 0.718048 0.182997 0
M  V30 2552 H 241.522 1.90019 -0.237724 0
M  V30 2553 H 239.827 3.44857 1.85959 0
M  V30 2554 H 241.524 3.69573 1.55618 0
M  V30 2555 H 238.114 4.27891 0.246485 0
M  V30 2556 H 242.298 4.93993 -0.477983 0
M  V30 2557 H 237.554 5.93074 -1.48571 0
M  V30 2558 H 241.728 6.60507 -2.20689 0
M  V30 2559 H 239.355 7.09996 -2.71679 0
M  V30 2560 N 240.93 -0.123565 1.57115 0
M  V30 2561 C 242.158 -0.846461 1.88793 0
M  V30 2562 C 242.573 -1.73652 0.740976 0
M  V30 2563 O 241.93 -1.80207 -0.288393 0
M  V30 2564 C 241.981 -1.6837 3.19897 0
M  V30 2565 O 241.702 -0.829477 4.30176 0
M  V30 2566 C 243.203 -2.51214 3.65248 0
M  V30 2567 H 240.423 -0.243573 0.625231 0
M  V30 2568 H 242.967 -0.109324 2.04208 0
M  V30 2569 H 241.122 -2.37364 3.06165 0
M  V30 2570 H 241.536 -1.40651 5.0529 0
M  V30 2571 H 243.01 -3.05497 4.59756 0
M  V30 2572 H 243.487 -3.28359 2.9168 0
M  V30 2573 H 244.093 -1.8747 3.81752 0
M  V30 2574 N 242.408 -1.52605 -0.393616 0
M  V30 2575 C 243.638 -1.71046 -1.15874 0
M  V30 2576 C 244.046 -0.426483 -1.84331 0
M  V30 2577 O 243.389 0.608513 -1.73329 0
M  V30 2578 C 243.451 -2.80118 -2.25332 0
M  V30 2579 C 243.115 -4.21381 -1.76881 0
M  V30 2580 C 244.112 -5.04697 -1.24808 0
M  V30 2581 C 241.797 -4.67683 -1.83244 0
M  V30 2582 C 243.791 -6.32393 -0.797387 0
M  V30 2583 C 241.478 -5.95364 -1.37787 0
M  V30 2584 C 242.476 -6.77549 -0.861208 0
M  V30 2585 O 242.164 -8.02837 -0.413252 0
M  V30 2586 H 241.896 -0.576155 -0.353583 0
M  V30 2587 H 244.45 -2.00018 -0.467123 0
M  V30 2588 H 242.68 -2.46557 -2.97904 0
M  V30 2589 H 244.369 -2.87006 -2.87023 0
M  V30 2590 H 245.135 -4.70111 -1.19252 0
M  V30 2591 H 241.014 -4.03805 -2.22401 0
M  V30 2592 H 244.558 -6.9649 -0.393437 0
M  V30 2593 H 240.455 -6.29455 -1.43026 0
M  V30 2594 H 241.223 -8.16749 -0.53515 0
M  V30 2595 N 243.887 0.651787 -1.4349 0
M  V30 2596 C 245.112 1.44434 -1.48841 0
M  V30 2597 C 245.537 1.8779 -0.107955 0
M  V30 2598 O 244.895 1.57464 0.898602 0
M  V30 2599 C 244.943 2.65458 -2.44059 0
M  V30 2600 O 244.047 3.64566 -1.92784 0
M  V30 2601 H 243.388 0.433005 -0.503391 0
M  V30 2602 H 245.918 0.797451 -1.88419 0
M  V30 2603 H 245.928 3.13255 -2.6141 0
M  V30 2604 H 244.603 2.33244 -3.4434 0
M  V30 2605 H 243.18 3.23716 -1.851 0
M  V30 2606 N 245.365 1.30045 0.890287 0
M  V30 2607 C 246.295 1.18541 2.01172 0
M  V30 2608 C 247.276 0.0773356 1.69924 0
M  V30 2609 O 248.461 0.25845 1.92473 0
M  V30 2610 C 245.591 0.870941 3.36202 0
M  V30 2611 C 244.545 1.93637 3.81692 0
M  V30 2612 C 243.871 1.475 5.13953 0
M  V30 2613 C 245.171 3.34666 4.00994 0
M  V30 2614 H 246.865 2.12359 2.11054 0
M  V30 2615 H 244.411 1.02238 1.01407 0
M  V30 2616 H 246.364 0.777141 4.14172 0
M  V30 2617 H 245.088 -0.102926 3.26438 0
M  V30 2618 H 243.747 2.01972 3.05946 0
M  V30 2619 H 243.395 0.489551 5.00612 0
M  V30 2620 H 243.095 2.1876 5.4536 0
M  V30 2621 H 244.619 1.39489 5.94454 0
M  V30 2622 H 246.033 3.2912 4.69417 0
M  V30 2623 H 244.43 4.03966 4.43769 0
M  V30 2624 H 245.5 3.76949 3.05021 0
M  V30 2625 N 246.843 -1.10192 1.12674 0
M  V30 2626 C 248.089 -1.82475 0.884915 0
M  V30 2627 C 248.422 -1.85093 -0.58773 0
M  V30 2628 O 247.697 -1.3134 -1.43457 0
M  V30 2629 C 247.98 -3.29018 1.46353 0
M  V30 2630 C 247.833 -3.34718 3.00473 0
M  V30 2631 C 249.152 -4.25473 1.12519 0
M  V30 2632 H 246.271 -0.662492 0.322915 0
M  V30 2633 H 248.913 -1.2913 1.39375 0
M  V30 2634 H 247.063 -3.74576 1.03077 0
M  V30 2635 H 248.735 -2.97622 3.52447 0
M  V30 2636 H 246.978 -2.74541 3.35872 0
M  V30 2637 H 247.649 -4.37918 3.36053 0
M  V30 2638 H 250.125 -3.88161 1.499 0
M  V30 2639 H 249.001 -5.26365 1.55663 0
M  V30 2640 H 249.262 -4.42084 0.0377407 0
M  V30 2641 N 248.321 -0.919034 -1.28029 0
M  V30 2642 C 249.57 -0.550802 -1.94034 0
M  V30 2643 C 249.883 0.910877 -1.73096 0
M  V30 2644 O 251.089 1.3875 -2.33368 0
M  V30 2645 C 249.545 -0.934249 -3.47563 0
M  V30 2646 C 249.153 -2.41602 -3.7727 0
M  V30 2647 C 250.897 -0.636854 -4.19696 0
M  V30 2648 C 248.804 -2.73932 -5.24133 0
M  V30 2649 H 247.734 -0.202273 -0.726362 0
M  V30 2650 H 250.385 -1.11867 -1.45458 0
M  V30 2651 H 248.767 -0.295115 -3.94899 0
M  V30 2652 H 249.941 -3.10233 -3.40723 0
M  V30 2653 H 248.256 -2.68441 -3.18321 0
M  V30 2654 H 250.853 -0.855005 -5.2782 0
M  V30 2655 H 251.196 0.425575 -4.14119 0
M  V30 2656 H 251.729 -1.23469 -3.78154 0
M  V30 2657 H 248.468 -3.79049 -5.34792 0
M  V30 2658 H 247.988 -2.09942 -5.61858 0
M  V30 2659 H 249.667 -2.61215 -5.91925 0
M  V30 2660 N 249.799 1.42003 -0.683588 0
M  V30 2661 C 251.045 2.02223 -0.218536 0
M  V30 2662 C 251.4 1.53126 1.16492 0
M  V30 2663 O 250.693 0.727459 1.77253 0
M  V30 2664 C 250.887 3.56827 -0.202357 0
M  V30 2665 C 250.716 4.20928 -1.5827 0
M  V30 2666 C 249.486 4.5573 -2.18262 0
M  V30 2667 C 251.684 4.47933 -2.52706 0
M  V30 2668 N 249.666 5.05056 -3.48986 0
M  V30 2669 C 251.037 4.98906 -3.68094 0
M  V30 2670 C 253.092 4.29931 -2.51125 0
M  V30 2671 C 251.795 5.33768 -4.82166 0
M  V30 2672 C 253.821 4.65875 -3.643 0
M  V30 2673 C 253.183 5.17008 -4.78417 0
M  V30 2674 H 249.282 0.771931 -0.125088 0
M  V30 2675 H 251.866 1.72729 -0.898479 0
M  V30 2676 H 250.037 3.85819 0.447029 0
M  V30 2677 H 251.769 4.03755 0.276399 0
M  V30 2678 H 248.524 4.41781 -1.70665 0
M  V30 2679 H 248.948 5.34139 -4.15962 0
M  V30 2680 H 253.59 3.89647 -1.6412 0
M  V30 2681 H 251.308 5.72981 -5.6984 0
M  V30 2682 H 254.894 4.53615 -3.64314 0
M  V30 2683 H 253.774 5.44301 -5.64541 0
M  V30 2684 N 251.277 0.427512 1.51691 0
M  V30 2685 C 252.224 -0.388867 2.275 0
M  V30 2686 C 253.194 -1.02532 1.30677 0
M  V30 2687 O 254.379 -1.0461 1.59566 0
M  V30 2688 C 251.519 -1.48954 3.11298 0
M  V30 2689 C 250.632 -0.872194 4.23104 0
M  V30 2690 C 249.767 -1.94709 4.94228 0
M  V30 2691 C 248.806 -1.30766 5.97969 0
M  V30 2692 N 247.943 -2.32349 6.62539 0
M  V30 2693 H 252.783 0.263997 2.96828 0
M  V30 2694 H 250.32 0.142033 1.46413 0
M  V30 2695 H 252.278 -2.13887 3.58201 0
M  V30 2696 H 250.908 -2.11217 2.44105 0
M  V30 2697 H 249.96 -0.111419 3.80237 0
M  V30 2698 H 251.272 -0.365264 4.97461 0
M  V30 2699 H 250.426 -2.67327 5.44629 0
M  V30 2700 H 249.165 -2.48773 4.1948 0
M  V30 2701 H 248.17 -0.566902 5.4687 0
M  V30 2702 H 249.395 -0.774483 6.74669 0
M  V30 2703 H 247.341 -2.85511 5.90609 0
M  V30 2704 H 247.258 -1.8652 7.3263 0
M  V30 2705 H 248.526 -3.04481 7.17574 0
M  V30 2706 N 252.755 -1.56801 0.158532 0
M  V30 2707 C 253.703 -2.18638 -0.793729 0
M  V30 2708 C 254.697 -1.14669 -1.24689 0
M  V30 2709 O 255.903 -1.32895 -1.21403 0
M  V30 2710 H 252.278 -0.700226 -0.274204 0
M  V30 2711 H 254.249 -2.97367 -0.248095 0
M  V30 2712 C 252.998 -2.83139 -2.0181 0
M  V30 2713 H 252.321 -3.62863 -1.67841 0
M  V30 2714 H 253.761 -3.29894 -2.66357 0
M  V30 2715 C 252.22 -1.82244 -2.83353 0
M  V30 2716 O 252.75 -1.3 -3.80083 0
M  V30 2717 N 250.956 -1.51288 -2.48114 0
M  V30 2718 H 250.503 -1.93964 -1.69516 0
M  V30 2719 H 250.461 -0.840296 -3.02963 0
M  V30 2720 N 254.233 0.115231 -1.57178 0
M  V30 2721 C 255.458 0.840354 -1.89612 0
M  V30 2722 C 255.883 1.72464 -0.750845 0
M  V30 2723 O 255.241 1.78826 0.298478 0
M  V30 2724 C 255.289 1.64654 -3.20814 0
M  V30 2725 O 254.393 2.7538 -3.06985 0
M  V30 2726 H 253.734 0.232158 -0.622092 0
M  V30 2727 H 256.264 0.0964977 -2.04372 0
M  V30 2728 H 256.274 2.03499 -3.53627 0
M  V30 2729 H 254.949 0.997416 -4.03763 0
M  V30 2730 H 253.526 2.3971 -2.85646 0
M  V30 2731 N 255.711 1.52812 0.385517 0
M  V30 2732 C 256.936 1.72207 1.15583 0
M  V30 2733 C 257.361 0.441034 1.82857 0
M  V30 2734 O 256.719 -0.603465 1.70962 0
M  V30 2735 C 256.767 2.87476 2.17692 0
M  V30 2736 O 255.871 2.54693 3.24354 0
M  V30 2737 H 255.212 0.572526 0.336319 0
M  V30 2738 H 257.742 1.99618 0.448744 0
M  V30 2739 H 257.752 3.13072 2.6163 0
M  V30 2740 H 256.427 3.80408 1.68115 0
M  V30 2741 H 255.004 2.3985 2.85529 0
M  V30 2742 N 257.189 -0.644168 1.43834 0
M  V30 2743 C 258.437 -1.40117 1.45642 0
M  V30 2744 C 258.758 -1.94814 0.0852413 0
M  V30 2745 O 258.028 -1.74988 -0.880688 0
M  V30 2746 H 256.608 -0.52005 0.536243 0
M  V30 2747 H 259.27 -0.7591 1.7951 0
M  V30 2748 H 258.366 -2.23902 2.17427 0
M  V30 2749 N 258.668 -1.30515 -0.883378 0
M  V30 2750 C 259.914 -1.19607 -1.63774 0
M  V30 2751 C 260.247 0.248314 -1.92606 0
M  V30 2752 O 259.522 1.17742 -1.54813 0
M  V30 2753 C 259.805 -2.02669 -2.97653 0
M  V30 2754 C 259.658 -3.55335 -2.75784 0
M  V30 2755 C 260.977 -1.86573 -3.98596 0
M  V30 2756 H 258.096 -0.435856 -0.594305 0
M  V30 2757 H 260.738 -1.60165 -1.02212 0
M  V30 2758 H 258.888 -1.68208 -3.50197 0
M  V30 2759 H 260.56 -3.99863 -2.30016 0
M  V30 2760 H 258.803 -3.79438 -2.1026 0
M  V30 2761 H 259.474 -4.08745 -3.70988 0
M  V30 2762 H 261.95 -2.16703 -3.55217 0
M  V30 2763 H 260.826 -2.47014 -4.90179 0
M  V30 2764 H 261.087 -0.825321 -4.34328 0
M  V30 2765 N 260.146 1.09593 -1.13257 0
M  V30 2766 C 261.056 2.19739 -0.821691 0
M  V30 2767 C 262.072 1.72926 0.19302 0
M  V30 2768 O 263.248 2.01385 0.0244895 0
M  V30 2769 C 260.313 3.45482 -0.290333 0
M  V30 2770 C 259.374 4.06985 -1.36607 0
M  V30 2771 C 258.607 5.26726 -0.859975 0
M  V30 2772 O 258.83 5.69594 0.303082 0
M  V30 2773 O 257.764 5.7931 -1.63351 0
M  V30 2774 H 261.59 2.48781 -1.74189 0
M  V30 2775 H 259.175 1.18496 -0.909894 0
M  V30 2776 H 261.057 4.214 0.000674022 0
M  V30 2777 H 259.732 3.18047 0.602306 0
M  V30 2778 H 258.639 3.32712 -1.71037 0
M  V30 2779 H 259.972 4.38643 -2.23279 0
M  V30 2780 N 261.624 0.925811 1.2754 0
M  V30 2781 C 262.534 0.428993 2.30644 0
M  V30 2782 C 263.55 -0.489387 1.66976 0
M  V30 2783 O 264.726 -0.372653 1.97922 0
M  V30 2784 C 261.791 -0.311967 3.45294 0
M  V30 2785 C 260.852 0.641098 4.24486 0
M  V30 2786 C 260.085 -0.0645955 5.33661 0
M  V30 2787 O 260.308 -1.28429 5.55754 0
M  V30 2788 O 259.242 0.606265 5.98839 0
M  V30 2789 H 263.068 1.28504 2.75173 0
M  V30 2790 H 260.653 0.691086 1.32455 0
M  V30 2791 H 262.535 -0.729972 4.15029 0
M  V30 2792 H 261.21 -1.14365 3.02824 0
M  V30 2793 H 260.117 1.10874 3.57292 0
M  V30 2794 H 261.45 1.43995 4.70666 0
M  V30 2795 N 263.102 -1.41638 0.69111 0
M  V30 2796 C 264.518 -1.55435 0.362224 0
M  V30 2797 C 264.718 -1.66754 -1.13117 0
M  V30 2798 O 263.774 -1.64348 -1.91692 0
M  V30 2799 C 265.087 -2.79588 1.10684 0
M  V30 2800 C 266.635 -2.9338 1.09075 0
M  V30 2801 C 267.11 -4.20414 1.81703 0
M  V30 2802 N 268.601 -4.27362 1.7865 0
M  V30 2803 C 269.336 -5.24507 2.31689 0
M  V30 2804 N 268.832 -6.27708 2.93179 0
M  V30 2805 N 270.625 -5.16416 2.2197 0
M  V30 2806 H 262.776 -1.32536 1.65976 0
M  V30 2807 H 265.039 -0.639115 0.700168 0
M  V30 2808 H 264.745 -2.77419 2.16175 0
M  V30 2809 H 264.619 -3.70973 0.682545 0
M  V30 2810 H 267.006 -2.95067 0.0441238 0
M  V30 2811 H 267.087 -2.0318 1.55407 0
M  V30 2812 H 266.731 -4.19488 2.86343 0
M  V30 2813 H 266.661 -5.09578 1.32808 0
M  V30 2814 H 269.152 -3.53415 1.33815 0
M  V30 2815 H 269.465 -6.98217 3.31229 0
M  V30 2816 H 267.81 -6.28223 2.97255 0
M  V30 2817 H 271.001 -4.34716 1.73607 0
M  V30 2818 H 271.174 -5.91958 2.63609 0
M  V30 2819 N 264.58 -0.43555 -1.51462 0
M  V30 2820 C 265.829 0.133007 -2.01261 0
M  V30 2821 C 266.142 1.43942 -1.32439 0
M  V30 2822 O 267.348 2.09081 -1.73198 0
M  V30 2823 C 265.804 0.287581 -3.58749 0
M  V30 2824 C 265.412 -1.00829 -4.36506 0
M  V30 2825 C 267.156 0.810004 -4.167 0
M  V30 2826 C 265.063 -0.819454 -5.85695 0
M  V30 2827 H 263.993 0.0534822 -0.752101 0
M  V30 2828 H 266.644 -0.565038 -1.74584 0
M  V30 2829 H 265.026 1.04859 -3.81865 0
M  V30 2830 H 266.2 -1.77749 -4.25138 0
M  V30 2831 H 264.515 -1.45911 -3.89999 0
M  V30 2832 H 267.112 0.967743 -5.2587 0
M  V30 2833 H 267.455 1.79196 -3.75758 0
M  V30 2834 H 267.988 0.107357 -3.97655 0
M  V30 2835 H 264.727 -1.77374 -6.31046 0
M  V30 2836 H 264.247 -0.0900208 -5.99732 0
M  V30 2837 H 265.926 -0.471949 -6.45276 0
M  V30 2838 N 266.058 1.56714 -0.166846 0
M  V30 2839 C 266.968 2.21331 0.777791 0
M  V30 2840 C 267.984 1.20358 1.25658 0
M  V30 2841 O 269.16 1.53005 1.30964 0
M  V30 2842 C 266.225 2.83787 1.99163 0
M  V30 2843 C 265.286 3.99947 1.56016 0
M  V30 2844 C 264.519 4.59415 2.71613 0
M  V30 2845 O 264.742 4.17769 3.88362 0
M  V30 2846 O 263.676 5.49359 2.45945 0
M  V30 2847 H 267.502 3.02605 0.257636 0
M  V30 2848 H 265.087 1.49275 0.0611393 0
M  V30 2849 H 266.969 3.23405 2.70161 0
M  V30 2850 H 265.644 2.05513 2.50092 0
M  V30 2851 H 264.551 3.65007 0.819809 0
M  V30 2852 H 265.884 4.79801 1.09782 0
M  V30 2853 N 267.536 -0.106894 1.57237 0
M  V30 2854 C 268.484 -1.14944 2.02215 0
M  V30 2855 C 269.478 -1.42167 0.92114 0
M  V30 2856 O 270.684 -1.41987 1.10634 0
M  V30 2857 H 267.059 -0.387841 0.64427 0
M  V30 2858 H 269.03 -0.743683 2.88984 0
M  V30 2859 C 267.779 -2.4647 2.4525 0
M  V30 2860 H 267.102 -2.26363 3.29545 0
M  V30 2861 H 268.542 -3.17948 2.80508 0
M  V30 2862 C 267.001 -3.09921 1.321 0
M  V30 2863 O 267.531 -3.9651 0.643622 0
M  V30 2864 N 265.737 -2.69986 1.07497 0
M  V30 2865 H 265.284 -1.99667 1.62761 0
M  V30 2866 H 265.242 -3.12769 0.319876 0
M  V30 2867 N 269.014 -1.53014 -0.377408 0
M  V30 2868 C 270.263 -1.67845 -1.11853 0
M  V30 2869 C 270.576 -0.430625 -1.90801 0
M  V30 2870 O 271.782 -0.459261 -2.67587 0
M  V30 2871 C 270.238 -2.96668 -2.03756 0
M  V30 2872 C 269.846 -4.28671 -1.30175 0
M  V30 2873 C 271.59 -3.20865 -2.77932 0
M  V30 2874 C 269.497 -5.48591 -2.20911 0
M  V30 2875 H 268.427 -0.625343 -0.421263 0
M  V30 2876 H 271.078 -1.79514 -0.380409 0
M  V30 2877 H 269.46 -2.78773 -2.8125 0
M  V30 2878 H 270.634 -4.57157 -0.578259 0
M  V30 2879 H 268.949 -4.10825 -0.679108 0
M  V30 2880 H 271.546 -4.07642 -3.46024 0
M  V30 2881 H 271.889 -2.36424 -3.4265 0
M  V30 2882 H 272.422 -3.39379 -2.07525 0
M  V30 2883 H 269.161 -6.35474 -1.6079 0
M  V30 2884 H 268.681 -5.244 -2.91144 0
M  V30 2885 H 270.36 -5.8292 -2.80736 0
M  V30 2886 N 270.492 0.636531 -1.44174 0
M  V30 2887 C 271.722 1.42146 -1.49927 0
M  V30 2888 C 272.13 1.88812 -0.121063 0
M  V30 2889 O 271.473 1.61126 0.882267 0
M  V30 2890 C 271.535 2.67883 -2.39748 0
M  V30 2891 C 271.199 2.43048 -3.8701 0
M  V30 2892 C 272.196 2.05216 -4.77684 0
M  V30 2893 C 269.881 2.56856 -4.3166 0
M  V30 2894 C 271.875 1.81512 -6.11009 0
M  V30 2895 C 269.562 2.32766 -5.65034 0
M  V30 2896 C 270.56 1.95152 -6.54526 0
M  V30 2897 O 270.248 1.71326 -7.85431 0
M  V30 2898 H 269.98 0.442567 -0.51099 0
M  V30 2899 H 272.534 0.786158 -1.8976 0
M  V30 2900 H 270.764 3.34032 -1.94832 0
M  V30 2901 H 272.453 3.29874 -2.36513 0
M  V30 2902 H 273.219 1.94111 -4.44462 0
M  V30 2903 H 269.098 2.85104 -3.62266 0
M  V30 2904 H 272.642 1.52077 -6.80822 0
M  V30 2905 H 268.539 2.43479 -5.97819 0
M  V30 2906 H 269.307 1.85616 -7.97176 0
M  V30 2907 N 271.97 1.30982 0.876444 0
M  V30 2908 C 273.195 1.23373 1.66715 0
M  V30 2909 C 273.62 -0.19885 1.87046 0
M  V30 2910 O 272.978 -1.1427 1.40756 0
M  V30 2911 C 273.026 1.97644 3.01611 0
M  V30 2912 O 272.13 1.30935 3.91062 0
M  V30 2913 H 271.471 0.426279 0.509099 0
M  V30 2914 H 274.001 1.72944 1.09323 0
M  V30 2915 H 274.011 2.06992 3.51594 0
M  V30 2916 H 272.686 3.01829 2.86133 0
M  V30 2917 H 271.263 1.29996 3.49507 0
M  V30 2918 N 273.449 -1.08991 1.13837 0
M  V30 2919 C 274.865 -1.33312 0.877506 0
M  V30 2920 C 275.065 -1.95587 -0.48456 0
M  V30 2921 O 274.121 -2.20509 -1.23013 0
M  V30 2922 C 275.434 -2.24045 2.0056 0
M  V30 2923 C 276.982 -2.37542 2.03821 0
M  V30 2924 C 277.457 -3.31614 3.15905 0
M  V30 2925 N 278.948 -3.39189 3.15445 0
M  V30 2926 C 279.683 -4.11992 3.98811 0
M  V30 2927 N 279.179 -4.87553 4.92203 0
M  V30 2928 N 280.972 -4.07762 3.86894 0
M  V30 2929 H 273.123 -0.669456 2.01574 0
M  V30 2930 H 275.386 -0.357482 0.878015 0
M  V30 2931 H 275.092 -1.85521 2.98789 0
M  V30 2932 H 274.966 -3.24466 1.92359 0
M  V30 2933 H 277.353 -2.75327 1.06202 0
M  V30 2934 H 277.434 -1.36884 2.16093 0
M  V30 2935 H 277.078 -2.94551 4.13766 0
M  V30 2936 H 277.008 -4.32186 3.0087 0
M  V30 2937 H 279.499 -2.85314 2.47799 0
M  V30 2938 H 279.812 -5.40549 5.52292 0
M  V30 2939 H 278.157 -4.86627 4.96205 0
M  V30 2940 H 281.348 -3.47833 3.13257 0
M  V30 2941 H 281.521 -4.64238 4.52092 0
M  V30 2942 N 274.927 -0.932562 -1.27047 0
M  V30 2943 C 275.877 -0.406392 -2.24349 0
M  V30 2944 C 276.861 0.492066 -1.53191 0
M  V30 2945 O 278.053 0.328717 -1.73921 0
M  V30 2946 C 275.182 0.335214 -3.41659 0
M  V30 2947 C 274.268 -0.58004 -4.20115 0
M  V30 2948 N 274.659 -1.70203 -4.76303 0
M  V30 2949 C 272.957 -0.383974 -4.44344 0
M  V30 2950 C 273.658 -2.27167 -5.35509 0
M  V30 2951 N 272.634 -1.56068 -5.20715 0
M  V30 2952 H 276.436 -1.26299 -2.65378 0
M  V30 2953 H 273.95 -0.787408 -1.42034 0
M  V30 2954 H 275.947 0.729142 -4.10474 0
M  V30 2955 H 274.607 1.18868 -3.0216 0
M  V30 2956 H 275.618 -2.08433 -4.74106 0
M  V30 2957 H 272.295 0.428436 -4.15296 0
M  V30 2958 H 273.685 -3.21654 -5.89905 0
M  V30 2959 N 276.405 1.4127 -0.698611 0
M  V30 2960 C 277.352 2.30773 -0.0352094 0
M  V30 2961 C 278.322 1.47273 0.768111 0
M  V30 2962 O 279.507 1.76053 0.735524 0
M  V30 2963 C 276.647 3.33346 0.893 0
M  V30 2964 C 275.76 4.31924 0.0809695 0
M  V30 2965 C 274.895 5.21566 1.0071 0
M  V30 2966 C 273.934 6.11811 0.188155 0
M  V30 2967 N 273.071 6.93926 1.06825 0
M  V30 2968 H 277.911 2.86943 -0.804207 0
M  V30 2969 H 275.448 1.4132 -0.408294 0
M  V30 2970 H 277.406 3.91368 1.44523 0
M  V30 2971 H 276.036 2.78719 1.62836 0
M  V30 2972 H 275.088 3.75825 -0.588224 0
M  V30 2973 H 276.4 4.95716 -0.553801 0
M  V30 2974 H 275.554 5.84437 1.62845 0
M  V30 2975 H 274.293 4.58008 1.67572 0
M  V30 2976 H 273.298 5.47986 -0.446254 0
M  V30 2977 H 274.523 6.77425 -0.476716 0
M  V30 2978 H 272.469 6.32973 1.72283 0
M  V30 2979 H 272.386 7.54416 0.489123 0
M  V30 2980 H 273.654 7.61262 1.67632 0
M  V30 2981 N 277.883 0.443576 1.51229 0
M  V30 2982 C 279.132 -0.122332 2.01329 0
M  V30 2983 C 279.445 -1.43237 1.33201 0
M  V30 2984 O 280.651 -2.0816 1.74304 0
M  V30 2985 C 279.107 -0.268551 3.58897 0
M  V30 2986 C 278.715 1.03142 4.35965 0
M  V30 2987 C 280.459 -0.787894 4.17124 0
M  V30 2988 C 278.366 0.850504 5.85252 0
M  V30 2989 H 277.296 -0.0494929 0.752374 0
M  V30 2990 H 279.947 0.574289 1.74282 0
M  V30 2991 H 278.329 -1.02832 3.82415 0
M  V30 2992 H 279.503 1.80001 4.24189 0
M  V30 2993 H 277.818 1.47977 3.89219 0
M  V30 2994 H 280.415 -0.939841 5.26375 0
M  V30 2995 H 280.758 -1.77201 3.76703 0
M  V30 2996 H 281.291 -0.0862669 3.97706 0
M  V30 2997 H 278.03 1.80718 6.30096 0
M  V30 2998 H 277.55 0.121825 5.99676 0
M  V30 2999 H 279.229 0.506163 6.45017 0
M  V30 3000 N 279.361 -1.56624 0.175154 0
M  V30 3001 C 280.591 -2.01082 -0.474283 0
M  V30 3002 C 280.999 -1.05447 -1.57091 0
M  V30 3003 O 280.342 -0.0480595 -1.83637 0
M  V30 3004 C 280.404 -3.41963 -1.10911 0
M  V30 3005 C 280.068 -4.56742 -0.153666 0
M  V30 3006 C 281.065 -5.16076 0.629448 0
M  V30 3007 C 278.75 -5.02277 -0.0483776 0
M  V30 3008 C 280.744 -6.19377 1.50501 0
M  V30 3009 C 278.431 -6.05427 0.830768 0
M  V30 3010 C 279.429 -6.63849 1.60605 0
M  V30 3011 O 279.117 -7.64998 2.47049 0
M  V30 3012 H 278.849 -0.664261 -0.125432 0
M  V30 3013 H 281.403 -2.03549 0.275163 0
M  V30 3014 H 279.633 -3.36422 -1.90676 0
M  V30 3015 H 281.322 -3.70352 -1.66114 0
M  V30 3016 H 282.088 -4.81776 0.558297 0
M  V30 3017 H 277.967 -4.56513 -0.641611 0
M  V30 3018 H 281.511 -6.64906 2.1106 0
M  V30 3019 H 277.408 -6.39151 0.903107 0
M  V30 3020 H 278.176 -7.82336 2.40607 0
M  V30 3021 N 280.839 0.0985539 -1.57292 0
M  V30 3022 C 281.786 1.11981 -2.01814 0
M  V30 3023 C 282.756 1.39999 -0.89384 0
M  V30 3024 O 283.941 1.5152 -1.15958 0
M  V30 3025 C 281.081 2.43577 -2.44467 0
M  V30 3026 C 280.194 2.2232 -3.70402 0
M  V30 3027 C 279.329 3.4729 -4.01949 0
M  V30 3028 C 278.368 3.2128 -5.21005 0
M  V30 3029 N 277.505 4.38507 -5.48321 0
M  V30 3030 H 282.345 0.733149 -2.88841 0
M  V30 3031 H 279.882 0.350482 -1.42864 0
M  V30 3032 H 281.84 3.20373 -2.6724 0
M  V30 3033 H 280.47 2.80097 -1.60455 0
M  V30 3034 H 279.522 1.36343 -3.55126 0
M  V30 3035 H 280.834 1.99089 -4.57345 0
M  V30 3036 H 279.988 4.32495 -4.25479 0
M  V30 3037 H 278.727 3.73572 -3.13521 0
M  V30 3038 H 277.732 2.34468 -4.97298 0
M  V30 3039 H 278.957 2.96348 -6.11028 0
M  V30 3040 H 276.903 4.64871 -4.62851 0
M  V30 3041 H 276.82 4.18455 -6.29628 0
M  V30 3042 H 278.088 5.24787 -5.76385 0
M  V30 3043 N 282.317 1.53212 0.369288 0
M  V30 3044 C 283.247 1.82365 1.45826 0
M  V30 3045 C 284.228 0.676907 1.56051 0
M  V30 3046 O 285.413 0.926401 1.70679 0
M  V30 3047 C 282.543 2.01023 2.83208 0
M  V30 3048 C 281.497 3.1678 2.8781 0
M  V30 3049 C 280.823 3.20724 4.27832 0
M  V30 3050 C 282.123 4.55447 2.55667 0
M  V30 3051 H 283.817 2.73559 1.21678 0
M  V30 3052 H 281.363 1.3163 0.583911 0
M  V30 3053 H 283.316 2.20001 3.59413 0
M  V30 3054 H 282.04 1.06536 3.08736 0
M  V30 3055 H 280.699 2.97616 2.14056 0
M  V30 3056 H 280.347 2.23882 4.50429 0
M  V30 3057 H 280.047 3.98496 4.31827 0
M  V30 3058 H 281.571 3.41881 5.05915 0
M  V30 3059 H 282.985 4.74611 3.21586 0
M  V30 3060 H 281.382 5.35432 2.70984 0
M  V30 3061 H 282.452 4.60812 1.5093 0
M  V30 3062 N 283.795 -0.628877 1.44509 0
M  V30 3063 C 285.02 -1.42048 1.5112 0
M  V30 3064 C 285.445 -1.87594 0.137818 0
M  V30 3065 O 284.803 -1.58873 -0.873437 0
M  V30 3066 C 284.851 -2.61541 2.48251 0
M  V30 3067 O 283.955 -3.61453 1.98559 0
M  V30 3068 H 283.296 -0.424942 0.510216 0
M  V30 3069 H 285.826 -0.767374 1.89664 0
M  V30 3070 H 285.836 -3.09057 2.66361 0
M  V30 3071 H 284.511 -2.27736 3.48007 0
M  V30 3072 H 283.088 -3.20731 1.90227 0
M  V30 3073 N 285.273 -1.31445 -0.869486 0
M  V30 3074 C 286.684 -1.19042 -1.43826 0
M  V30 3075 C 287.035 0.202919 -1.95148 0
M  V30 3076 O 286.16 1.10071 -1.86315 0
M  V30 3077 C 286.755 -2.15499 -2.6143 0
M  V30 3078 C 285.314 -2.07028 -3.14351 0
M  V30 3079 C 284.461 -2.04701 -1.87063 0
M  V30 3080 H 287.412 -1.43489 -0.677984 0
M  V30 3081 H 287.433 -1.74488 -3.38134 0
M  V30 3082 H 286.945 -3.16899 -2.24046 0
M  V30 3083 H 285.046 -1.08825 -3.56354 0
M  V30 3084 H 285.159 -2.96157 -3.766 0
M  V30 3085 H 283.523 -1.49724 -2.06046 0
M  V30 3086 H 284.306 -3.07857 -1.51917 0
M  V30 3087 N 286.751 1.08385 -1.14413 0
M  V30 3088 C 287.661 2.18856 -0.844951 0
M  V30 3089 C 288.677 1.73121 0.174668 0
M  V30 3090 O 289.853 2.014 0.00312857 0
M  V30 3091 C 286.918 3.45155 -0.32696 0
M  V30 3092 C 285.979 4.05513 -1.40916 0
M  V30 3093 C 285.212 5.25784 -0.915793 0
M  V30 3094 O 285.435 5.69884 0.242651 0
M  V30 3095 O 284.369 5.77545 -1.69487 0
M  V30 3096 H 288.195 2.46919 -1.76818 0
M  V30 3097 H 285.78 1.17524 -0.922411 0
M  V30 3098 H 287.662 4.21377 -0.0440211 0
M  V30 3099 H 286.337 3.18668 0.568539 0
M  V30 3100 H 285.244 3.30879 -1.74556 0
M  V30 3101 H 286.577 4.3625 -2.27919 0
M  V30 3102 N 288.23 0.939286 1.26551 0
M  V30 3103 C 289.458 0.602536 1.97932 0
M  V30 3104 C 289.873 -0.82206 1.69964 0
M  V30 3105 O 289.23 -1.54789 0.966784 0
M  V30 3106 C 289.281 0.832946 3.51773 0
M  V30 3107 O 289.002 2.20151 3.78768 0
M  V30 3108 C 290.503 0.506483 4.40397 0
M  V30 3109 H 287.723 0.227248 0.631347 0
M  V30 3110 H 290.267 1.25948 1.61113 0
M  V30 3111 H 288.422 0.222644 3.8676 0
M  V30 3112 H 288.836 2.26013 4.73306 0
M  V30 3113 H 290.31 0.718333 5.47306 0
M  V30 3114 H 290.787 -0.558451 4.35635 0
M  V30 3115 H 291.393 1.09543 4.10951 0
M  V30 3116 N 289.708 -1.40897 0.706093 0
M  V30 3117 C 290.936 -2.05373 0.250887 0
M  V30 3118 C 291.351 -1.53172 -1.10381 0
M  V30 3119 O 290.708 -0.684305 -1.69185 0
M  V30 3120 C 290.759 -3.6088 0.211571 0
M  V30 3121 O 290.48 -4.11153 1.51276 0
M  V30 3122 C 291.981 -4.42517 -0.263346 0
M  V30 3123 H 289.201 -0.66115 0.114552 0
M  V30 3124 H 291.745 -1.80479 0.961635 0
M  V30 3125 H 289.9 -3.84777 -0.450073 0
M  V30 3126 H 290.314 -5.05279 1.40689 0
M  V30 3127 H 291.788 -5.51479 -0.239718 0
M  V30 3128 H 292.265 -4.19396 -1.30397 0
M  V30 3129 H 292.871 -4.23708 0.367677 0
M  V30 3130 N 291.186 -0.45159 -1.50991 0
M  V30 3131 C 292.416 0.108177 -2.06317 0
M  V30 3132 C 292.824 1.35774 -1.31765 0
M  V30 3133 O 292.167 1.79838 -0.374694 0
M  V30 3134 C 292.229 0.481659 -3.56259 0
M  V30 3135 C 291.893 -0.663114 -4.52163 0
M  V30 3136 C 292.89 -1.53947 -4.96585 0
M  V30 3137 C 290.575 -0.8479 -4.95092 0
M  V30 3138 C 292.569 -2.58518 -5.82621 0
M  V30 3139 C 290.256 -1.89686 -5.80915 0
M  V30 3140 C 291.254 -2.76388 -6.24579 0
M  V30 3141 O 290.942 -3.79482 -7.08695 0
M  V30 3142 H 290.674 0.00499183 -0.675982 0
M  V30 3143 H 293.228 -0.633659 -1.95381 0
M  V30 3144 H 291.458 1.27641 -3.65027 0
M  V30 3145 H 293.147 0.974233 -3.94035 0
M  V30 3146 H 293.913 -1.4083 -4.64103 0
M  V30 3147 H 289.792 -0.18258 -4.60638 0
M  V30 3148 H 293.336 -3.26224 -6.16623 0
M  V30 3149 H 289.233 -2.02817 -6.12809 0
M  V30 3150 H 290.001 -3.76234 -7.26905 0
M  V30 3151 N 292.664 1.56529 -0.183458 0
M  V30 3152 C 293.904 1.99141 0.460667 0
M  V30 3153 C 294.268 1.06736 1.59597 0
M  V30 3154 O 295.469 1.38538 2.30349 0
M  V30 3155 C 293.74 3.45358 0.919939 0
M  V30 3156 S 295.299 4.09999 1.56354 0
M  V30 3157 H 292.117 0.695479 0.147748 0
M  V30 3158 H 294.719 1.93429 -0.283782 0
M  V30 3159 H 293.423 4.10315 0.0834208 0
M  V30 3160 H 292.954 3.54862 1.69814 0
M  V30 3161 H 294.969 4.06046 2.85203 0
M  V30 3162 N 294.142 -0.090211 1.57342 0
M  V30 3163 C 295.072 -1.10976 2.05443 0
M  V30 3164 C 296.053 -1.41482 0.944284 0
M  V30 3165 O 297.238 -1.51428 1.21586 0
M  V30 3166 C 294.368 -2.42831 2.48295 0
M  V30 3167 C 293.322 -2.26721 3.63018 0
M  V30 3168 C 292.648 -3.63796 3.91863 0
M  V30 3169 C 293.948 -1.7037 4.93732 0
M  V30 3170 H 295.642 -0.709564 2.9087 0
M  V30 3171 H 293.188 -0.339874 1.39932 0
M  V30 3172 H 295.141 -3.14431 2.80555 0
M  V30 3173 H 293.865 -2.84795 1.59873 0
M  V30 3174 H 292.524 -1.57565 3.31012 0
M  V30 3175 H 292.172 -4.03297 3.00601 0
M  V30 3176 H 291.872 -3.53861 4.69101 0
M  V30 3177 H 293.396 -4.36855 4.26603 0
M  V30 3178 H 294.81 -2.31816 5.24342 0
M  V30 3179 H 293.207 -1.71181 5.75167 0
M  V30 3180 H 294.277 -0.663542 4.80339 0
M  V30 3181 N 295.62 -1.53406 -0.361157 0
M  V30 3182 C 296.567 -1.80156 -1.44265 0
M  V30 3183 C 297.537 -0.646183 -1.53015 0
M  V30 3184 O 298.722 -0.888818 -1.68833 0
M  V30 3185 C 295.862 -2.00116 -2.81154 0
M  V30 3186 C 294.975 -3.27833 -2.81335 0
M  V30 3187 C 294.11 -3.37957 -4.09828 0
M  V30 3188 C 293.149 -4.59689 -4.04168 0
M  V30 3189 N 292.286 -4.66942 -5.24318 0
M  V30 3190 H 297.126 -2.72438 -1.20754 0
M  V30 3191 H 294.663 -1.34954 -0.585296 0
M  V30 3192 H 296.621 -2.09677 -3.60682 0
M  V30 3193 H 295.251 -1.11167 -3.03054 0
M  V30 3194 H 294.303 -3.27204 -1.94014 0
M  V30 3195 H 295.615 -4.17442 -2.73027 0
M  V30 3196 H 294.769 -3.46853 -4.97773 0
M  V30 3197 H 293.508 -2.46372 -4.20894 0
M  V30 3198 H 292.513 -4.50889 -3.14609 0
M  V30 3199 H 293.738 -5.5262 -3.947 0
M  V30 3200 H 291.684 -3.7826 -5.35962 0
M  V30 3201 H 291.601 -5.50462 -5.18197 0
M  V30 3202 H 292.869 -4.80127 -6.14084 0
M  V30 3203 N 297.098 0.621204 -1.44841 0
M  V30 3204 C 298.344 1.3826 -1.48365 0
M  V30 3205 C 298.677 1.93831 -0.119624 0
M  V30 3206 O 297.952 1.74251 0.864111 0
M  V30 3207 C 298.235 2.54058 -2.55199 0
M  V30 3208 C 298.088 2.03772 -4.00995 0
M  V30 3209 C 299.407 3.56225 -2.58442 0
M  V30 3210 H 296.526 0.501374 -0.540179 0
M  V30 3211 H 299.168 0.7015 -1.76576 0
M  V30 3212 H 297.318 3.12162 -2.31274 0
M  V30 3213 H 298.99 1.50423 -4.36086 0
M  V30 3214 H 297.233 1.34876 -4.12299 0
M  V30 3215 H 297.904 2.87185 -4.71411 0
M  V30 3216 H 300.38 3.07939 -2.79844 0
M  V30 3217 H 299.256 4.34756 -3.3508 0
M  V30 3218 H 299.517 4.10949 -1.63013 0
M  V30 3219 N 298.576 1.31904 0.862503 0
M  V30 3220 C 299.523 1.20182 1.9704 0
M  V30 3221 C 300.493 0.0858247 1.65878 0
M  V30 3222 O 301.678 0.26 1.8902 0
M  V30 3223 C 298.818 0.922797 3.32533 0
M  V30 3224 C 297.931 2.12284 3.76244 0
M  V30 3225 C 297.066 1.77996 5.00491 0
M  V30 3226 C 296.105 2.94366 5.36671 0
M  V30 3227 N 295.242 2.60223 6.52095 0
M  V30 3228 H 300.082 2.14951 2.06398 0
M  V30 3229 H 297.619 1.06917 1.01031 0
M  V30 3230 H 299.577 0.741548 4.10557 0
M  V30 3231 H 298.207 0.0119227 3.22798 0
M  V30 3232 H 297.259 2.41461 2.9394 0
M  V30 3233 H 298.571 2.99357 3.98982 0
M  V30 3234 H 297.725 1.56377 5.862 0
M  V30 3235 H 296.464 0.881252 4.79672 0
M  V30 3236 H 295.469 3.16625 4.49476 0
M  V30 3237 H 296.694 3.84957 5.59451 0
M  V30 3238 H 294.64 1.72884 6.32809 0
M  V30 3239 H 294.557 3.40827 6.74814 0
M  V30 3240 H 295.825 2.42016 7.40978 0
M  V30 3241 N 300.054 -1.07777 1.14986 0
M  V30 3242 C 301.017 -2.13041 0.845358 0
M  V30 3243 C 302.017 -1.60071 -0.152931 0
M  V30 3244 O 303.207 -1.74033 0.0761879 0
M  V30 3245 C 300.339 -3.39896 0.261383 0
M  V30 3246 H 301.532 -2.41485 1.77834 0
M  V30 3247 H 299.085 -1.23595 0.956757 0
M  V30 3248 H 299.82 -3.17091 -0.68 0
M  V30 3249 H 299.605 -3.79642 0.980514 0
M  V30 3250 H 301.095 -4.17548 0.0657687 0
M  V30 3251 N 301.532 -0.945985 -1.26051 0
M  V30 3252 C 302.495 -0.463897 -2.24456 0
M  V30 3253 C 303.495 0.427655 -1.55009 0
M  V30 3254 O 304.685 0.226157 -1.72726 0
M  V30 3255 C 301.817 0.330812 -3.39291 0
M  V30 3256 H 303.01 -1.33357 -2.68619 0
M  V30 3257 H 300.563 -0.728416 -1.38289 0
M  V30 3258 H 301.298 1.21852 -3.00537 0
M  V30 3259 H 301.083 -0.308679 -3.90883 0
M  V30 3260 H 302.573 0.657865 -4.12386 0
M  V30 3261 N 303.011 1.40521 -0.713556 0
M  V30 3262 C 303.941 2.33381 -0.0743864 0
M  V30 3263 C 304.922 1.52784 0.747735 0
M  V30 3264 O 306.107 1.81258 0.697071 0
M  V30 3265 C 303.237 3.36748 0.849598 0
M  V30 3266 C 302.191 4.27793 0.133247 0
M  V30 3267 C 301.517 5.21679 1.17281 0
M  V30 3268 C 302.817 5.12415 -1.01134 0
M  V30 3269 H 304.511 2.87081 -0.850007 0
M  V30 3270 H 302.057 1.38034 -0.410201 0
M  V30 3271 H 304.01 4.00648 1.30612 0
M  V30 3272 H 302.734 2.81439 1.65709 0
M  V30 3273 H 301.393 3.65342 -0.303426 0
M  V30 3274 H 301.041 4.62677 1.9733 0
M  V30 3275 H 300.741 5.83435 0.698397 0
M  V30 3276 H 302.265 5.88456 1.62947 0
M  V30 3277 H 303.679 5.69781 -0.634274 0
M  V30 3278 H 302.076 5.83203 -1.41399 0
M  V30 3279 H 303.146 4.48514 -1.84292 0
M  V30 3280 N 304.489 0.459591 1.5075 0
M  V30 3281 C 305.419 -0.330644 2.31147 0
M  V30 3282 C 306.4 -1.00087 1.37538 0
M  V30 3283 O 307.585 -1.00025 1.66459 0
M  V30 3284 C 304.715 -1.41958 3.16962 0
M  V30 3285 C 303.669 -0.871608 4.19031 0
M  V30 3286 C 302.995 -2.05797 4.9351 0
M  V30 3287 C 304.295 0.109251 5.22186 0
M  V30 3288 H 305.989 0.340336 2.97459 0
M  V30 3289 H 303.535 0.165119 1.4305 0
M  V30 3290 H 305.488 -1.9798 3.71997 0
M  V30 3291 H 304.212 -2.11917 2.48513 0
M  V30 3292 H 302.871 -0.333442 3.6508 0
M  V30 3293 H 302.519 -2.74427 4.21544 0
M  V30 3294 H 302.219 -1.6976 5.62544 0
M  V30 3295 H 303.743 -2.62331 5.51375 0
M  V30 3296 H 305.157 -0.361405 5.7216 0
M  V30 3297 H 303.554 0.383316 5.98875 0
M  V30 3298 H 304.624 1.03887 4.73641 0
M  V30 3299 N 305.967 -1.56429 0.191757 0
M  V30 3300 C 307.195 -2.01867 -0.453586 0
M  V30 3301 C 307.61 -1.07191 -1.5542 0
M  V30 3302 O 306.967 -0.0762108 -1.82341 0
M  V30 3303 C 307.018 -3.47017 -1.013 0
M  V30 3304 O 306.739 -4.38078 0.0437005 0
M  V30 3305 C 308.24 -4.07956 -1.73456 0
M  V30 3306 H 305.46 -0.661211 -0.114199 0
M  V30 3307 H 308.004 -2.02295 0.299483 0
M  V30 3308 H 306.159 -3.47298 -1.71647 0
M  V30 3309 H 306.573 -5.23178 -0.372212 0
M  V30 3310 H 308.047 -5.1138 -2.07833 0
M  V30 3311 H 308.524 -3.51222 -2.63704 0
M  V30 3312 H 309.13 -4.11437 -1.07702 0
M  V30 3313 N 307.445 0.0818655 -1.57387 0
M  V30 3314 C 308.67 0.799946 -1.91352 0
M  V30 3315 C 309.095 1.70833 -0.787258 0
M  V30 3316 O 308.453 1.79419 0.26048 0
M  V30 3317 C 308.501 1.57812 -3.24234 0
M  V30 3318 O 307.605 2.68806 -3.12757 0
M  V30 3319 H 306.946 0.21891 -0.626877 0
M  V30 3320 H 309.476 0.0531256 -2.04531 0
M  V30 3321 H 309.486 1.95952 -3.57864 0
M  V30 3322 H 308.161 0.911548 -4.05788 0
M  V30 3323 H 306.738 2.33597 -2.90666 0
M  V30 3324 N 308.923 1.53595 0.353017 0
M  V30 3325 C 310.169 1.71581 1.09232 0
M  V30 3326 C 310.524 0.468328 1.86613 0
M  V30 3327 O 309.817 -0.538911 1.83865 0
M  V30 3328 C 310.011 2.91313 2.07054 0
M  V30 3329 C 309.84 4.27585 1.39287 0
M  V30 3330 C 308.61 4.92233 1.1417 0
M  V30 3331 C 310.808 5.07656 0.824005 0
M  V30 3332 N 308.79 6.124 0.428841 0
M  V30 3333 C 310.161 6.19531 0.241195 0
M  V30 3334 C 312.216 4.92609 0.723922 0
M  V30 3335 C 310.919 7.18002 -0.431952 0
M  V30 3336 C 312.945 5.91365 0.0645334 0
M  V30 3337 C 312.307 7.02571 -0.507347 0
M  V30 3338 H 308.406 0.680987 0.384422 0
M  V30 3339 H 310.99 1.91013 0.377096 0
M  V30 3340 H 309.161 2.73398 2.75877 0
M  V30 3341 H 310.893 2.98062 2.73753 0
M  V30 3342 H 307.648 4.51612 1.42631 0
M  V30 3343 H 308.072 6.76944 0.0874131 0
M  V30 3344 H 312.714 4.06808 1.15181 0
M  V30 3345 H 310.432 8.03384 -0.871758 0
M  V30 3346 H 314.018 5.81799 -0.0121469 0
M  V30 3347 H 312.898 7.77675 -1.0095 0
M  V30 3348 N 310.401 -0.613514 1.45168 0
M  V30 3349 C 311.348 -1.72456 1.53387 0
M  V30 3350 C 312.318 -1.6169 0.380191 0
M  V30 3351 O 313.503 -1.81356 0.592836 0
M  V30 3352 C 310.643 -3.10753 1.50088 0
M  V30 3353 C 309.756 -3.32368 2.75963 0
M  V30 3354 C 308.891 -4.60737 2.64376 0
M  V30 3355 C 307.93 -4.7559 3.85332 0
M  V30 3356 N 307.067 -5.95253 3.72315 0
M  V30 3357 H 311.907 -1.64768 2.48305 0
M  V30 3358 H 309.444 -0.803503 1.23216 0
M  V30 3359 H 311.402 -3.90758 1.46164 0
M  V30 3360 H 310.032 -3.17413 0.587243 0
M  V30 3361 H 309.084 -2.4618 2.89999 0
M  V30 3362 H 310.396 -3.39218 3.65695 0
M  V30 3363 H 309.55 -5.48928 2.58385 0
M  V30 3364 H 308.289 -4.56275 1.72233 0
M  V30 3365 H 307.294 -3.85824 3.91688 0
M  V30 3366 H 308.519 -4.81854 4.78533 0
M  V30 3367 H 306.465 -5.91847 2.82937 0
M  V30 3368 H 306.382 -6.03236 4.55677 0
M  V30 3369 H 307.65 -6.85958 3.70246 0
M  V30 3370 N 311.879 -1.3236 -0.855495 0
M  V30 3371 C 313.128 -1.22226 -1.60448 0
M  V30 3372 C 313.441 0.214733 -1.94418 0
M  V30 3373 O 314.647 0.437917 -2.67945 0
M  V30 3374 C 313.103 -2.14063 -2.89318 0
M  V30 3375 C 312.711 -3.62839 -2.62777 0
M  V30 3376 C 314.455 -2.12764 -3.67331 0
M  V30 3377 C 312.362 -4.4664 -3.87643 0
M  V30 3378 H 311.292 -0.453904 -0.602069 0
M  V30 3379 H 313.943 -1.57314 -0.944698 0
M  V30 3380 H 312.325 -1.71889 -3.5675 0
M  V30 3381 H 313.499 -4.1335 -2.03662 0
M  V30 3382 H 311.814 -3.66261 -1.98096 0
M  V30 3383 H 314.411 -2.72611 -4.59987 0
M  V30 3384 H 314.754 -1.11841 -4.00995 0
M  V30 3385 H 315.287 -2.53214 -3.06802 0
M  V30 3386 H 312.026 -5.48373 -3.5912 0
M  V30 3387 H 311.546 -4.0088 -4.46156 0
M  V30 3388 H 313.225 -4.59597 -4.55389 0
M  V30 3389 N 313.357 1.07166 -1.15556 0
M  V30 3390 C 314.605 1.79443 -0.929764 0
M  V30 3391 C 314.926 1.87246 0.544414 0
M  V30 3392 O 314.196 1.37473 1.39564 0
M  V30 3393 H 312.776 0.664625 -0.341003 0
M  V30 3394 H 315.438 1.29499 -1.45657 0
M  V30 3395 H 314.534 2.81832 -1.34079 0
M  V30 3396 N 314.835 0.952656 1.25548 0
M  V30 3397 C 316.081 0.607272 1.93494 0
M  V30 3398 C 316.414 -0.853245 1.74452 0
M  V30 3399 O 315.689 -1.61194 1.08843 0
M  V30 3400 C 315.972 0.96435 3.46947 0
M  V30 3401 C 315.825 2.48045 3.75225 0
M  V30 3402 C 317.144 0.487987 4.37386 0
M  V30 3403 H 314.263 0.222096 0.702739 0
M  V30 3404 H 316.905 1.18895 1.48203 0
M  V30 3405 H 315.055 0.469361 3.85654 0
M  V30 3406 H 316.727 3.04905 3.46166 0
M  V30 3407 H 314.97 2.919 3.209 0
M  V30 3408 H 315.641 2.6808 4.82532 0
M  V30 3409 H 318.117 0.912558 4.0597 0
M  V30 3410 H 316.993 0.766547 5.43521 0
M  V30 3411 H 317.254 -0.612063 4.37843 0
M  V30 3412 N 316.313 -1.40141 0.720998 0
M  V30 3413 C 317.543 -2.04798 0.27226 0
M  V30 3414 C 317.951 -1.54442 -1.09289 0
M  V30 3415 O 317.294 -0.698342 -1.69908 0
M  V30 3416 C 317.356 -3.59048 0.18027 0
M  V30 3417 C 317.02 -4.32317 1.48159 0
M  V30 3418 C 318.017 -4.59902 2.42458 0
M  V30 3419 C 315.702 -4.71125 1.74202 0
M  V30 3420 C 317.696 -5.25288 3.61042 0
M  V30 3421 C 315.383 -5.36242 2.93066 0
M  V30 3422 C 316.381 -5.63254 3.86308 0
M  V30 3423 O 316.069 -6.27024 5.03086 0
M  V30 3424 H 315.801 -0.665419 0.119139 0
M  V30 3425 H 318.355 -1.80436 0.981432 0
M  V30 3426 H 316.585 -3.82251 -0.58489 0
M  V30 3427 H 318.274 -4.05221 -0.234618 0
M  V30 3428 H 319.04 -4.30379 2.23604 0
M  V30 3429 H 314.919 -4.49466 1.02477 0
M  V30 3430 H 318.463 -5.46289 4.33837 0
M  V30 3431 H 314.36 -5.65185 3.11826 0
M  V30 3432 H 315.128 -6.4552 5.03235 0
M  V30 3433 N 317.792 -0.46758 -1.50504 0
M  V30 3434 C 319.017 0.0886943 -2.0721 0
M  V30 3435 C 319.442 1.33057 -1.32956 0
M  V30 3436 O 318.8 1.77354 -0.376197 0
M  V30 3437 C 318.848 0.359202 -3.58806 0
M  V30 3438 O 317.952 1.44034 -3.8643 0
M  V30 3439 H 317.293 -0.0114349 -0.663902 0
M  V30 3440 H 319.823 -0.657613 -1.93744 0
M  V30 3441 H 319.833 0.600742 -4.03553 0
M  V30 3442 H 318.508 -0.548311 -4.1227 0
M  V30 3443 H 317.085 1.18638 -3.53524 0
M  V30 3444 N 319.27 1.56325 -0.20005 0
M  V30 3445 C 320.681 1.8408 0.31167 0
M  V30 3446 C 321.032 1.12087 1.61031 0
M  V30 3447 O 320.157 0.38332 2.12978 0
M  V30 3448 C 320.752 3.33932 0.57226 0
M  V30 3449 C 319.311 3.6208 1.02834 0
M  V30 3450 C 318.458 2.77186 0.079634 0
M  V30 3451 H 321.409 1.52939 -0.423729 0
M  V30 3452 H 321.43 3.52971 1.42096 0
M  V30 3453 H 320.942 3.86303 -0.37308 0
M  V30 3454 H 319.043 3.15147 1.98778 0
M  V30 3455 H 319.156 4.7023 0.917624 0
M  V30 3456 H 317.52 2.47951 0.582448 0
M  V30 3457 H 318.303 3.32347 -0.860238 0
M  V30 3458 N 320.748 -0.0735177 1.57428 0
M  V30 3459 C 321.994 -0.774145 1.87443 0
M  V30 3460 C 322.327 -1.77311 0.792103 0
M  V30 3461 O 321.602 -1.93492 -0.197793 0
M  V30 3462 C 321.885 -1.48367 3.28115 0
M  V30 3463 C 321.738 -0.501227 4.46999 0
M  V30 3464 C 323.057 -2.429 3.66998 0
M  V30 3465 H 320.176 -0.279971 0.681752 0
M  V30 3466 H 322.818 -0.0373616 1.89963 0
M  V30 3467 H 320.968 -2.11171 3.26097 0
M  V30 3468 H 322.64 0.121468 4.6114 0
M  V30 3469 H 320.883 0.183593 4.33411 0
M  V30 3470 H 321.554 -1.03526 5.42205 0
M  V30 3471 H 324.03 -1.90175 3.70098 0
M  V30 3472 H 322.906 -2.89549 4.66318 0
M  V30 3473 H 323.167 -3.27628 2.96837 0
M  V30 3474 N 322.226 -1.5378 -0.344866 0
M  V30 3475 C 323.176 -1.78057 -1.42407 0
M  V30 3476 C 324.16 -0.635732 -1.47808 0
M  V30 3477 O 325.352 -0.89508 -1.527 0
M  V30 3478 C 322.481 -1.99242 -2.79566 0
M  V30 3479 C 321.567 -3.19787 -2.78562 0
M  V30 3480 N 321.958 -4.41284 -2.47189 0
M  V30 3481 C 320.256 -3.2093 -3.0971 0
M  V30 3482 C 320.957 -5.23128 -2.54385 0
M  V30 3483 N 319.933 -4.59813 -2.89953 0
M  V30 3484 H 323.735 -2.69588 -1.17046 0
M  V30 3485 H 321.249 -1.52687 -0.553217 0
M  V30 3486 H 323.246 -2.14768 -3.57324 0
M  V30 3487 H 321.906 -1.08953 -3.05875 0
M  V30 3488 H 322.917 -4.68657 -2.20411 0
M  V30 3489 H 319.594 -2.40603 -3.41199 0
M  V30 3490 H 320.984 -6.30096 -2.333 0
M  V30 3491 N 323.704 0.605807 -1.45491 0
M  V30 3492 C 324.944 1.37606 -1.51142 0
M  V30 3493 C 325.308 1.91413 -0.150075 0
M  V30 3494 O 326.509 2.68677 -0.0812828 0
M  V30 3495 C 324.78 2.49197 -2.56195 0
M  V30 3496 S 326.339 3.36953 -2.81083 0
M  V30 3497 H 323.157 0.469118 -0.534275 0
M  V30 3498 H 325.759 0.698845 -1.82583 0
M  V30 3499 H 324.463 2.0802 -3.53773 0
M  V30 3500 H 323.994 3.21717 -2.26411 0
M  V30 3501 H 326.009 4.47395 -2.14598 0
M  V30 3502 N 325.182 1.32811 0.848464 0
M  V30 3503 C 326.431 1.23075 1.59798 0
M  V30 3504 C 326.744 -0.204419 1.94529 0
M  V30 3505 O 327.95 -0.423701 2.68173 0
M  V30 3506 C 326.406 2.15594 2.88179 0
M  V30 3507 C 326.014 3.64228 2.60849 0
M  V30 3508 C 327.758 2.14709 3.66197 0
M  V30 3509 C 325.665 4.48689 3.85269 0
M  V30 3510 H 324.595 0.457091 0.599653 0
M  V30 3511 H 327.246 1.57813 0.936342 0
M  V30 3512 H 325.628 1.73778 3.55833 0
M  V30 3513 H 326.802 4.14424 2.01467 0
M  V30 3514 H 325.117 3.67306 1.96151 0
M  V30 3515 H 327.714 2.75046 4.58534 0
M  V30 3516 H 328.057 1.13966 4.00397 0
M  V30 3517 H 328.59 2.54837 3.05455 0
M  V30 3518 H 325.329 5.5027 3.56207 0
M  V30 3519 H 324.849 4.03241 4.44024 0
M  V30 3520 H 326.528 4.62006 4.52946 0
M  V30 3521 N 326.66 -1.06551 1.16123 0
M  V30 3522 C 327.607 -2.13961 0.865414 0
M  V30 3523 C 328.577 -1.65066 -0.185055 0
M  V30 3524 O 329.762 -1.90732 -0.05083 0
M  V30 3525 C 326.902 -3.43113 0.369776 0
M  V30 3526 C 326.015 -4.05756 1.48276 0
M  V30 3527 C 325.15 -5.22773 0.942414 0
M  V30 3528 C 324.189 -5.77395 2.03179 0
M  V30 3529 N 323.326 -6.85731 1.50721 0
M  V30 3530 H 328.166 -2.38605 1.78527 0
M  V30 3531 H 325.703 -1.17072 0.890646 0
M  V30 3532 H 327.661 -4.17151 0.0640643 0
M  V30 3533 H 326.291 -3.18695 -0.513143 0
M  V30 3534 H 325.343 -3.29292 1.9045 0
M  V30 3535 H 326.655 -4.42351 2.30493 0
M  V30 3536 H 325.809 -6.03827 0.589729 0
M  V30 3537 H 324.548 -4.87618 0.0895191 0
M  V30 3538 H 323.553 -4.94981 2.3932 0
M  V30 3539 H 324.778 -6.14603 2.8886 0
M  V30 3540 H 322.724 -6.52499 0.676811 0
M  V30 3541 H 322.641 -7.21254 2.26557 0
M  V30 3542 H 323.909 -7.7047 1.18303 0
M  V30 3543 N 328.138 -0.959301 -1.25041 0
M  V30 3544 C 329.366 -0.633949 -1.96948 0
M  V30 3545 C 329.781 0.794916 -1.7125 0
M  V30 3546 O 329.138 1.53231 -0.991287 0
M  V30 3547 C 329.189 -0.888805 -3.50403 0
M  V30 3548 O 328.91 -2.26149 -3.75218 0
M  V30 3549 C 330.411 -0.576482 -4.39536 0
M  V30 3550 H 327.631 -0.237263 -0.627652 0
M  V30 3551 H 330.175 -1.28495 -1.59089 0
M  V30 3552 H 328.33 -0.284145 -3.86357 0
M  V30 3553 H 328.744 -2.33514 -4.6965 0
M  V30 3554 H 330.218 -0.805314 -5.46094 0
M  V30 3555 H 330.695 0.489075 -4.36468 0
M  V30 3556 H 331.301 -1.16067 -4.09156 0
M  V30 3557 N 329.616 1.39756 -0.72842 0
M  V30 3558 C 330.844 2.04948 -0.283528 0
M  V30 3559 C 331.259 1.54908 1.0793 0
M  V30 3560 O 330.616 0.711135 1.68075 0
M  V30 3561 C 330.667 3.60498 -0.268957 0
M  V30 3562 O 330.388 4.08695 -1.57798 0
M  V30 3563 C 331.889 4.4288 0.192912 0
M  V30 3564 H 329.109 0.659243 -0.125056 0
M  V30 3565 H 331.653 1.78927 -0.990226 0
M  V30 3566 H 329.808 3.85444 0.388801 0
M  V30 3567 H 330.222 5.02977 -1.48709 0
M  V30 3568 H 331.696 5.51791 0.151952 0
M  V30 3569 H 332.173 4.21418 1.23708 0
M  V30 3570 H 332.779 4.23069 -0.435039 0
M  V30 3571 N 331.094 0.475555 1.50254 0
M  V30 3572 C 332.34 -0.0780073 2.0265 0
M  V30 3573 C 332.673 -1.38968 1.35652 0
M  V30 3574 O 331.948 -1.8839 0.483691 0
M  V30 3575 C 332.231 -0.257161 3.59181 0
M  V30 3576 C 332.084 1.07585 4.36744 0
M  V30 3577 C 333.403 -1.00965 4.28362 0
M  V30 3578 H 330.522 -0.0268758 0.73651 0
M  V30 3579 H 333.164 0.622015 1.7953 0
M  V30 3580 H 331.314 -0.853412 3.79011 0
M  V30 3581 H 332.986 1.70902 4.28474 0
M  V30 3582 H 331.229 1.6714 4.00308 0
M  V30 3583 H 331.9 0.904088 5.44546 0
M  V30 3584 H 334.376 -0.504214 4.13034 0
M  V30 3585 H 333.252 -1.10381 5.37687 0
M  V30 3586 H 333.513 -2.04731 3.91839 0
M  V30 3587 N 332.573 -1.56217 0.208337 0
M  V30 3588 C 333.483 -2.23316 -0.718836 0
M  V30 3589 C 334.499 -1.23648 -1.22422 0
M  V30 3590 O 335.675 -1.56423 -1.26861 0
M  V30 3591 C 332.74 -2.88968 -1.91568 0
M  V30 3592 C 331.801 -4.03943 -1.45357 0
M  V30 3593 C 331.034 -4.66455 -2.59337 0
M  V30 3594 O 331.257 -4.27919 -3.77149 0
M  V30 3595 O 330.191 -5.55686 -2.31293 0
M  V30 3596 H 334.017 -3.03182 -0.177315 0
M  V30 3597 H 331.602 -1.49384 -0.0215402 0
M  V30 3598 H 333.484 -3.30455 -2.61491 0
M  V30 3599 H 332.159 -2.12071 -2.44556 0
M  V30 3600 H 331.066 -3.67052 -0.722746 0
M  V30 3601 H 332.399 -4.82543 -0.970219 0
M  V30 3602 N 334.051 0.0651679 -1.57465 0
M  V30 3603 C 334.999 1.09542 -2.05191 0
M  V30 3604 C 335.993 1.39675 -0.958509 0
M  V30 3605 O 337.199 1.39003 -1.14359 0
M  V30 3606 H 333.574 0.370623 -0.654326 0
M  V30 3607 H 335.545 0.666802 -2.90854 0
M  V30 3608 C 334.294 2.39881 -2.51699 0
M  V30 3609 H 333.617 2.17547 -3.3543 0
M  V30 3610 H 335.057 3.104 -2.88839 0
M  V30 3611 C 333.516 3.0631 -1.40271 0
M  V30 3612 O 334.046 3.94664 -0.748523 0
M  V30 3613 N 332.252 2.67041 -1.14618 0
M  V30 3614 H 331.799 1.95281 -1.67997 0
M  V30 3615 H 331.757 3.1181 -0.402688 0
M  V30 3616 N 335.529 1.53961 0.336706 0
M  V30 3617 C 336.439 1.85432 1.43708 0
M  V30 3618 C 337.455 0.745053 1.57242 0
M  V30 3619 O 338.631 1.03804 1.72588 0
M  V30 3620 C 335.696 2.06349 2.78605 0
M  V30 3621 C 334.757 3.30191 2.74358 0
M  V30 3622 C 333.99 3.50101 4.02822 0
M  V30 3623 O 334.213 2.7371 5.00439 0
M  V30 3624 O 333.147 4.43547 4.06878 0
M  V30 3625 H 336.973 2.78975 1.20028 0
M  V30 3626 H 334.558 1.39701 0.52952 0
M  V30 3627 H 336.44 2.21513 3.58483 0
M  V30 3628 H 335.115 1.15995 3.02203 0
M  V30 3629 H 334.022 3.20425 1.93078 0
M  V30 3630 H 335.355 4.2056 2.55715 0
M  V30 3631 N 337.007 -0.598083 1.45811 0
M  V30 3632 C 337.937 -1.71873 1.58057 0
M  V30 3633 C 338.918 -1.64533 0.431615 0
M  V30 3634 O 340.103 -1.82787 0.65595 0
M  V30 3635 C 337.233 -3.10495 1.55597 0
M  V30 3636 C 336.187 -3.32654 2.69305 0
M  V30 3637 C 335.513 -4.71646 2.51902 0
M  V30 3638 C 336.813 -3.21981 4.11248 0
M  V30 3639 H 338.507 -1.61881 2.51863 0
M  V30 3640 H 336.053 -0.777372 1.21214 0
M  V30 3641 H 338.006 -3.88699 1.6276 0
M  V30 3642 H 336.73 -3.2135 0.583255 0
M  V30 3643 H 335.389 -2.56843 2.61586 0
M  V30 3644 H 335.037 -4.79246 1.52748 0
M  V30 3645 H 334.737 -4.87426 3.2816 0
M  V30 3646 H 336.261 -5.52038 2.60933 0
M  V30 3647 H 337.675 -3.90049 4.20161 0
M  V30 3648 H 336.072 -3.49289 4.87972 0
M  V30 3649 H 337.142 -2.1928 4.32486 0
M  V30 3650 N 338.485 -1.33259 -0.841409 0
M  V30 3651 C 339.896 -1.22066 -1.41269 0
M  V30 3652 C 340.247 0.161479 -1.95534 0
M  V30 3653 O 339.372 1.06094 -1.88608 0
M  V30 3654 C 339.967 -2.20996 -2.568 0
M  V30 3655 C 338.526 -2.13649 -3.09888 0
M  V30 3656 C 337.673 -2.08623 -1.82679 0
M  V30 3657 H 340.624 -1.44895 -0.647395 0
M  V30 3658 H 340.645 -1.81621 -3.34356 0
M  V30 3659 H 340.157 -3.2158 -2.17274 0
M  V30 3660 H 338.258 -1.16359 -3.53965 0
M  V30 3661 H 338.371 -3.04079 -3.70234 0
M  V30 3662 H 336.735 -1.54061 -2.02824 0
M  V30 3663 H 337.518 -3.1101 -1.45353 0
M  V30 3664 N 339.963 1.05934 -1.16686 0
M  V30 3665 C 341.374 1.60263 -0.957745 0
M  V30 3666 C 341.725 1.89789 0.49745 0
M  V30 3667 O 340.85 1.67401 1.37135 0
M  V30 3668 C 341.445 2.91172 -1.73218 0
M  V30 3669 C 340.004 3.42188 -1.56794 0
M  V30 3670 C 339.151 2.16028 -1.73859 0
M  V30 3671 H 342.102 0.888392 -1.31504 0
M  V30 3672 H 342.123 3.60744 -1.21014 0
M  V30 3673 H 341.635 2.6965 -2.79124 0
M  V30 3674 H 339.736 3.68762 -0.533437 0
M  V30 3675 H 339.849 4.17273 -2.35414 0
M  V30 3676 H 338.213 2.26426 -1.16633 0
M  V30 3677 H 338.996 1.96985 -2.81161 0
M  V30 3678 N 341.441 0.965919 1.2453 0
M  V30 3679 C 342.852 0.665929 1.7442 0
M  V30 3680 C 343.203 -0.818407 1.78316 0
M  V30 3681 O 342.328 -1.64037 1.41141 0
M  V30 3682 C 342.923 1.20211 3.16757 0
M  V30 3683 C 341.482 0.952059 3.6416 0
M  V30 3684 C 340.629 1.33848 2.42858 0
M  V30 3685 H 343.58 1.14144 1.10258 0
M  V30 3686 H 343.601 0.567544 3.76244 0
M  V30 3687 H 343.113 2.28244 3.13889 0
M  V30 3688 H 341.214 -0.112821 3.72429 0
M  V30 3689 H 341.327 1.59645 4.51719 0
M  V30 3690 H 339.691 0.756864 2.43195 0
M  V30 3691 H 340.474 2.42827 2.42673 0
M  V30 3692 N 342.919 -1.39368 0.735821 0
M  V30 3693 C 343.829 -2.34395 0.0979693 0
M  V30 3694 C 344.845 -1.58361 -0.720968 0
M  V30 3695 O 346.021 -1.90648 -0.649245 0
M  V30 3696 C 343.086 -3.37393 -0.797916 0
M  V30 3697 C 342.147 -4.29287 0.0333662 0
M  V30 3698 C 341.38 -5.27365 -0.819854 0
M  V30 3699 O 341.603 -5.31959 -2.05855 0
M  V30 3700 O 340.537 -6.01389 -0.248079 0
M  V30 3701 H 344.363 -2.90601 0.882315 0
M  V30 3702 H 341.948 -1.40909 0.4965 0
M  V30 3703 H 343.83 -4.00505 -1.31048 0
M  V30 3704 H 342.505 -2.83571 -1.56106 0
M  V30 3705 H 341.412 -3.69395 0.591475 0
M  V30 3706 H 342.745 -4.86317 0.758752 0
M  V30 3707 N 344.397 -0.483516 -1.5 0
M  V30 3708 C 345.345 0.318061 -2.30415 0
M  V30 3709 C 346.339 0.978988 -1.38247 0
M  V30 3710 O 347.545 0.908673 -1.55381 0
M  V30 3711 H 343.92 0.121419 -0.742133 0
M  V30 3712 H 345.891 -0.380403 -2.95965 0
M  V30 3713 C 344.64 1.38013 -3.19136 0
M  V30 3714 H 343.963 0.880952 -3.89973 0
M  V30 3715 H 345.403 1.91332 -3.78375 0
M  V30 3716 C 343.862 2.38884 -2.37563 0
M  V30 3717 O 344.392 3.44412 -2.06744 0
M  V30 3718 N 342.598 2.10912 -1.99911 0
M  V30 3719 H 342.145 1.25118 -2.25174 0
M  V30 3720 H 342.103 2.78635 -1.45636 0
M  V30 3721 N 345.875 1.56104 -0.216619 0
M  V30 3722 C 347.124 1.97348 0.416744 0
M  V30 3723 C 347.437 1.10715 1.6125 0
M  V30 3724 O 348.643 1.41836 2.31506 0
M  V30 3725 C 347.099 3.51059 0.792835 0
M  V30 3726 C 346.707 4.46387 -0.379828 0
M  V30 3727 C 348.451 4.01026 1.39208 0
M  V30 3728 C 346.358 5.91397 0.0184223 0
M  V30 3729 H 345.288 0.736942 0.159475 0
M  V30 3730 H 347.939 1.80827 -0.31205 0
M  V30 3731 H 346.321 3.63162 1.57891 0
M  V30 3732 H 347.495 4.46029 -1.15737 0
M  V30 3733 H 345.81 4.06734 -0.891979 0
M  V30 3734 H 348.407 5.0686 1.70286 0
M  V30 3735 H 348.75 3.46587 2.30614 0
M  V30 3736 H 349.283 3.92125 0.669537 0
M  V30 3737 H 346.022 6.49807 -0.862002 0
M  V30 3738 H 345.542 5.94961 0.760384 0
M  V30 3739 H 347.221 6.45455 0.446818 0
M  V30 3740 N 347.353 -0.0568162 1.57498 0
M  V30 3741 C 348.263 -1.08346 2.08083 0
M  V30 3742 C 349.279 -1.41439 1.01346 0
M  V30 3743 O 350.455 -1.51316 1.32912 0
M  V30 3744 C 347.52 -2.37352 2.52715 0
M  V30 3745 C 346.581 -2.11093 3.73816 0
M  V30 3746 C 345.814 -3.33949 4.1631 0
M  V30 3747 O 346.037 -4.43622 3.58547 0
M  V30 3748 O 344.971 -3.21279 5.08983 0
M  V30 3749 H 348.797 -0.683667 2.95905 0
M  V30 3750 H 346.382 -0.271965 1.46904 0
M  V30 3751 H 348.264 -3.13246 2.81877 0
M  V30 3752 H 346.939 -2.76681 1.68016 0
M  V30 3753 H 345.846 -1.32856 3.49714 0
M  V30 3754 H 347.179 -1.76637 4.59413 0
M  V30 3755 N 348.832 -1.54138 -0.328536 0
M  V30 3756 C 350.078 -1.7236 -1.06865 0
M  V30 3757 C 350.411 -0.493231 -1.87832 0
M  V30 3758 O 349.686 0.5098 -1.877 0
M  V30 3759 C 349.969 -2.99621 -1.99747 0
M  V30 3760 C 349.822 -4.32899 -1.22143 0
M  V30 3761 C 351.141 -3.22615 -2.99345 0
M  V30 3762 H 348.26 -0.627151 -0.387105 0
M  V30 3763 H 350.902 -1.86827 -0.345767 0
M  V30 3764 H 349.052 -2.87418 -2.61387 0
M  V30 3765 H 350.724 -4.56978 -0.630017 0
M  V30 3766 H 348.967 -4.30628 -0.523628 0
M  V30 3767 H 349.638 -5.18154 -1.90318 0
M  V30 3768 H 352.114 -3.34248 -2.47826 0
M  V30 3769 H 350.99 -4.13027 -3.61524 0
M  V30 3770 H 351.251 -2.3961 -3.71536 0
M  V30 3771 N 350.31 0.590341 -1.46126 0
M  V30 3772 C 351.535 1.37991 -1.54833 0
M  V30 3773 C 351.96 1.87163 -0.187506 0
M  V30 3774 O 351.318 1.61133 0.831008 0
M  V30 3775 C 351.366 2.54867 -2.55098 0
M  V30 3776 O 350.47 3.56061 -2.08073 0
M  V30 3777 H 349.811 0.411265 -0.521303 0
M  V30 3778 H 352.341 0.716819 -1.91632 0
M  V30 3779 H 352.351 3.01886 -2.74461 0
M  V30 3780 H 351.026 2.18429 -3.53923 0
M  V30 3781 H 349.603 3.15574 -1.98664 0
M  V30 3782 N 351.788 1.33704 0.83433 0
M  V30 3783 C 353.034 1.25603 1.59222 0
M  V30 3784 C 353.367 -0.176659 1.93395 0
M  V30 3785 O 352.642 -1.11915 1.59076 0
M  V30 3786 C 352.925 2.13576 2.89926 0
M  V30 3787 C 352.778 3.65326 2.62406 0
M  V30 3788 C 354.097 2.01238 3.91397 0
M  V30 3789 H 351.216 0.457613 0.577719 0
M  V30 3790 H 353.858 1.63848 0.961972 0
M  V30 3791 H 352.008 1.8109 3.43713 0
M  V30 3792 H 353.68 4.08124 2.15017 0
M  V30 3793 H 351.923 3.8698 1.96033 0
M  V30 3794 H 352.594 4.22232 3.55562 0
M  V30 3795 H 355.07 2.29738 3.46929 0
M  V30 3796 H 353.946 2.65036 4.80673 0
M  V30 3797 H 354.207 0.985951 4.30966 0
M  V30 3798 N 353.266 -1.05314 1.17247 0
M  V30 3799 C 354.198 -2.13023 0.845812 0
M  V30 3800 C 355.211 -1.62096 -0.151246 0
M  V30 3801 O 356.4 -1.78343 0.0748818 0
M  V30 3802 C 353.5 -3.38047 0.240292 0
M  V30 3803 C 352.673 -4.18255 1.27991 0
M  V30 3804 C 351.732 -5.21625 0.692375 0
M  V30 3805 O 350.758 -5.52619 1.36385 0
M  V30 3806 N 351.96 -5.78201 -0.516178 0
M  V30 3807 H 354.725 -2.41642 1.77283 0
M  V30 3808 H 352.286 -1.21401 1.07115 0
M  V30 3809 H 354.278 -4.04359 -0.16603 0
M  V30 3810 H 352.848 -3.06972 -0.590487 0
M  V30 3811 H 352.068 -3.47451 1.86203 0
M  V30 3812 H 353.356 -4.68643 1.98119 0
M  V30 3813 H 352.754 -5.55301 -1.07969 0
M  V30 3814 H 351.311 -6.4604 -0.86458 0
M  V30 3815 N 354.744 -0.972509 -1.24016 0
M  V30 3816 C 355.692 -0.498562 -2.27194 0
M  V30 3817 C 356.686 0.440372 -1.63576 0
M  V30 3818 O 357.892 0.315133 -1.7722 0
M  V30 3819 H 354.267 -0.142775 -0.738322 0
M  V30 3820 H 356.238 -1.38065 -2.64539 0
M  V30 3821 C 354.987 0.191072 -3.47175 0
M  V30 3822 H 354.31 -0.522318 -3.96373 0
M  V30 3823 H 355.75 0.486445 -4.212 0
M  V30 3824 C 354.209 1.41967 -3.05527 0
M  V30 3825 O 354.739 2.51642 -3.13112 0
M  V30 3826 N 352.945 1.28746 -2.60524 0
M  V30 3827 H 352.492 0.395089 -2.54552 0
M  V30 3828 H 352.45 2.11061 -2.33025 0
M  V30 3829 N 356.222 1.38976 -0.743202 0
M  V30 3830 C 357.154 2.29096 -0.0689228 0
M  V30 3831 C 358.167 1.47229 0.694791 0
M  V30 3832 O 359.356 1.70212 0.537597 0
M  V30 3833 C 356.456 3.25988 0.926548 0
M  V30 3834 C 355.629 4.36833 0.222647 0
M  V30 3835 C 354.688 5.13981 1.12739 0
M  V30 3836 O 353.714 5.6601 0.601795 0
M  V30 3837 N 354.916 5.25966 2.45641 0
M  V30 3838 H 357.681 2.87604 -0.842846 0
M  V30 3839 H 355.242 1.50645 -0.593109 0
M  V30 3840 H 357.234 3.74476 1.5346 0
M  V30 3841 H 355.804 2.68453 1.60162 0
M  V30 3842 H 355.024 3.90116 -0.565983 0
M  V30 3843 H 356.312 5.0811 -0.264841 0
M  V30 3844 H 355.71 4.85228 2.9081 0
M  V30 3845 H 354.267 5.77865 3.01522 0
M  V30 3846 N 357.7 0.491464 1.49741 0
M  V30 3847 C 358.648 -0.305837 2.30581 0
M  V30 3848 C 359.642 -0.971642 1.38764 0
M  V30 3849 O 360.848 -0.90042 1.5586 0
M  V30 3850 H 357.223 -0.117482 0.742767 0
M  V30 3851 H 359.194 0.396093 2.95759 0
M  V30 3852 C 357.943 -1.36319 3.19863 0
M  V30 3853 H 357.266 -0.860258 3.90435 0
M  V30 3854 H 358.706 -1.89323 3.79385 0
M  V30 3855 C 357.165 -2.37621 2.38826 0
M  V30 3856 O 357.695 -3.43311 2.08567 0
M  V30 3857 N 355.901 -2.09849 2.01026 0
M  V30 3858 H 355.448 -1.23922 2.25834 0
M  V30 3859 H 355.406 -2.77859 1.47112 0
M  V30 3860 N 359.178 -1.55987 0.224894 0
M  V30 3861 C 360.408 -2.02489 -0.41007 0
M  V30 3862 C 360.816 -1.10391 -1.53657 0
M  V30 3863 O 360.159 -0.106458 -1.83391 0
M  V30 3864 C 360.221 -3.45319 -0.999757 0
M  V30 3865 C 359.885 -4.56999 -0.00827976 0
M  V30 3866 C 360.882 -5.13812 0.793314 0
M  V30 3867 C 358.567 -5.02176 0.111442 0
M  V30 3868 C 360.561 -6.14276 1.7013 0
M  V30 3869 C 358.248 -6.02477 1.02296 0
M  V30 3870 C 359.246 -6.58403 1.81643 0
M  V30 3871 O 358.934 -7.56751 2.71262 0
M  V30 3872 H 358.666 -0.667915 -0.104235 0
M  V30 3873 H 361.22 -2.0257 0.339782 0
M  V30 3874 H 359.45 -3.42318 -1.79876 0
M  V30 3875 H 361.139 -3.7545 -1.54248 0
M  V30 3876 H 361.905 -4.79756 0.711288 0
M  V30 3877 H 357.784 -4.58323 -0.49605 0
M  V30 3878 H 361.328 -6.57854 2.32107 0
M  V30 3879 H 357.225 -6.35954 1.10599 0
M  V30 3880 H 357.993 -7.74286 2.65375 0
M  V30 3881 N 360.656 0.0484629 -1.57525 0
M  V30 3882 C 361.902 0.744226 -1.88651 0
M  V30 3883 C 362.235 1.76029 -0.820212 0
M  V30 3884 O 361.51 1.93782 0.166985 0
M  V30 3885 C 361.793 1.43128 -3.30434 0
M  V30 3886 C 361.646 0.43005 -4.47739 0
M  V30 3887 C 362.965 2.37031 -3.70816 0
M  V30 3888 H 360.084 0.269089 -0.68612 0
M  V30 3889 H 362.726 0.00713532 -1.89999 0
M  V30 3890 H 360.876 2.05956 -3.29415 0
M  V30 3891 H 362.548 -0.194816 -4.60888 0
M  V30 3892 H 360.791 -0.252522 -4.33064 0
M  V30 3893 H 361.462 0.948874 -5.43783 0
M  V30 3894 H 363.938 1.84263 -3.73077 0
M  V30 3895 H 362.814 2.82094 -4.70865 0
M  V30 3896 H 363.075 3.22864 -3.02012 0
M  V30 3897 N 362.134 1.5431 0.320358 0
M  V30 3898 C 363.064 1.86912 1.3995 0
M  V30 3899 C 364.045 0.726211 1.53819 0
M  V30 3900 O 365.23 0.980233 1.67646 0
M  V30 3901 C 362.36 2.09932 2.7667 0
M  V30 3902 C 361.314 3.25776 2.77586 0
M  V30 3903 C 360.64 3.34173 4.17412 0
M  V30 3904 C 361.94 4.6335 2.41048 0
M  V30 3905 H 363.634 2.77292 1.12914 0
M  V30 3906 H 361.18 1.33421 0.541738 0
M  V30 3907 H 363.133 2.31324 3.52232 0
M  V30 3908 H 361.857 1.16304 3.0519 0
M  V30 3909 H 360.516 3.04276 2.04479 0
M  V30 3910 H 360.164 2.38098 4.43078 0
M  V30 3911 H 359.864 4.12033 4.18931 0
M  V30 3912 H 361.388 3.57803 4.94782 0
M  V30 3913 H 362.802 4.84602 3.06324 0
M  V30 3914 H 361.199 5.43782 2.53813 0
M  V30 3915 H 362.269 4.65381 1.36193 0
M  V30 3916 N 363.613 -0.582584 1.46437 0
M  V30 3917 C 364.56 -1.69164 1.5701 0
M  V30 3918 C 365.53 -1.60847 0.414403 0
M  V30 3919 O 366.715 -1.80058 0.631171 0
M  V30 3920 C 363.855 -3.075 1.56646 0
M  V30 3921 C 362.968 -3.2644 2.82951 0
M  V30 3922 C 362.103 -4.55026 2.7409 0
M  V30 3923 C 361.142 -4.6731 3.95333 0
M  V30 3924 N 360.279 -5.87221 3.84858 0
M  V30 3925 H 365.119 -1.59464 2.51744 0
M  V30 3926 H 362.656 -0.777186 1.24893 0
M  V30 3927 H 364.614 -3.8757 1.5442 0
M  V30 3928 H 363.244 -3.16096 0.654439 0
M  V30 3929 H 362.296 -2.39974 2.95155 0
M  V30 3930 H 363.608 -3.31385 3.72808 0
M  V30 3931 H 362.762 -5.43324 2.6997 0
M  V30 3932 H 361.501 -4.52519 1.81873 0
M  V30 3933 H 360.506 -3.77429 3.99784 0
M  V30 3934 H 361.731 -4.71595 4.88646 0
M  V30 3935 H 359.677 -5.85712 2.95427 0
M  V30 3936 H 359.594 -5.93435 4.6837 0
M  V30 3937 H 360.862 -6.7795 3.84713 0
M  V30 3938 N 365.091 -1.34144 -0.827227 0
M  V30 3939 C 366.337 -1.27455 -1.58515 0
M  V30 3940 C 366.692 0.155271 -1.91772 0
M  V30 3941 O 365.985 1.10042 -1.56848 0
M  V30 3942 C 366.179 -2.09464 -2.89585 0
M  V30 3943 C 366.008 -3.60276 -2.69131 0
M  V30 3944 C 364.778 -4.29565 -2.66087 0
M  V30 3945 C 366.976 -4.54367 -2.40947 0
M  V30 3946 N 364.958 -5.66252 -2.37132 0
M  V30 3947 C 366.329 -5.79027 -2.21648 0
M  V30 3948 C 368.384 -4.43327 -2.26639 0
M  V30 3949 C 367.087 -6.93891 -1.89492 0
M  V30 3950 C 369.113 -5.58019 -1.95878 0
M  V30 3951 C 368.475 -6.81695 -1.774 0
M  V30 3952 H 364.574 -0.521614 -0.582617 0
M  V30 3953 H 367.158 -1.68811 -0.970105 0
M  V30 3954 H 365.329 -1.70411 -3.49019 0
M  V30 3955 H 367.061 -1.94453 -3.54923 0
M  V30 3956 H 363.816 -3.81959 -2.80008 0
M  V30 3957 H 364.24 -6.38338 -2.25507 0
M  V30 3958 H 368.882 -3.48333 -2.39633 0
M  V30 3959 H 366.6 -7.88871 -1.75236 0
M  V30 3960 H 370.186 -5.5142 -1.85546 0
M  V30 3961 H 369.066 -7.68942 -1.53941 0
M  V30 3962 N 366.569 1.04691 -1.17803 0
M  V30 3963 C 367.846 1.7472 -0.879328 0
M  V30 3964 C 368.226 2.01812 0.619271 0
M  V30 3965 O 367.574 1.65824 1.57209 0
M  V30 3966 C 367.784 3.03686 -1.71976 0
M  V30 3967 C 369.132 3.77542 -1.94286 0
M  V30 3968 O 370.156 3.13569 -1.68976 0
M  V30 3969 O 369.015 4.92506 -2.36855 0
M  V30 3970 H 366.109 0.760011 -0.326056 0
M  V30 3971 H 368.655 1.10813 -1.28525 0
M  V30 3972 H 367.427 2.79754 -2.73594 0
M  V30 3973 H 367.05 3.75332 -1.31194 0
M  V30 3974 N 368.047 0.979072 1.23499 0
M  V30 3975 C 369.277 0.664237 1.95631 0
M  V30 3976 C 369.685 -0.772653 1.72704 0
M  V30 3977 O 369.028 -1.53141 1.01457 0
M  V30 3978 C 369.09 0.873115 3.48736 0
M  V30 3979 C 368.754 2.29182 3.95379 0
M  V30 3980 C 369.751 3.2704 4.04155 0
M  V30 3981 C 367.436 2.62256 4.28401 0
M  V30 3982 C 369.43 4.56052 4.45304 0
M  V30 3983 C 367.117 3.91491 4.69231 0
M  V30 3984 C 368.115 4.88201 4.77649 0
M  V30 3985 O 367.803 6.15129 5.17563 0
M  V30 3986 H 367.535 0.245915 0.629684 0
M  V30 3987 H 370.089 1.3127 1.57979 0
M  V30 3988 H 368.319 0.167476 3.86337 0
M  V30 3989 H 370.008 0.555642 4.02079 0
M  V30 3990 H 370.774 3.02819 3.78848 0
M  V30 3991 H 366.653 1.87692 4.21061 0
M  V30 3992 H 370.197 5.31538 4.51789 0
M  V30 3993 H 366.094 4.15508 4.93987 0
M  V30 3994 H 366.862 6.18862 5.35679 0
M  V30 3995 N 369.525 -1.3858 0.750561 0
M  V30 3996 C 370.753 -2.04471 0.316098 0
M  V30 3997 C 371.168 -1.56606 -1.05452 0
M  V30 3998 O 370.525 -0.737784 -1.66922 0
M  V30 3999 C 370.576 -3.60025 0.326275 0
M  V30 4000 O 370.297 -4.06133 1.6428 0
M  V30 4001 C 371.798 -4.43131 -0.122429 0
M  V30 4002 H 369.018 -0.65717 0.135528 0
M  V30 4003 H 371.562 -1.77329 1.01857 0
M  V30 4004 H 369.717 -3.86014 -0.327431 0
M  V30 4005 H 370.131 -5.00547 1.56693 0
M  V30 4006 H 371.605 -5.51963 -0.0641473 0
M  V30 4007 H 372.082 -4.23333 -1.16988 0
M  V30 4008 H 372.688 -4.22323 0.50229 0
M  V30 4009 N 371.003 -0.499398 -1.49478 0
M  V30 4010 C 372.233 0.0424839 -2.06556 0
M  V30 4011 C 372.641 1.31514 -1.36018 0
M  V30 4012 O 371.984 1.78555 -0.431718 0
M  V30 4013 C 372.046 0.368074 -3.57611 0
M  V30 4014 C 371.71 -0.806631 -4.49825 0
M  V30 4015 C 372.707 -1.69667 -4.91436 0
M  V30 4016 C 370.392 -1.00498 -4.92144 0
M  V30 4017 C 372.386 -2.76923 -5.74101 0
M  V30 4018 C 370.073 -2.08072 -5.74586 0
M  V30 4019 C 371.071 -2.96119 -6.15469 0
M  V30 4020 O 370.759 -4.01836 -6.96264 0
M  V30 4021 H 370.491 -0.0165165 -0.675798 0
M  V30 4022 H 373.045 -0.695497 -1.93267 0
M  V30 4023 H 371.275 1.15963 -3.68903 0
M  V30 4024 H 372.964 0.848381 -3.96935 0
M  V30 4025 H 373.73 -1.55524 -4.59388 0
M  V30 4026 H 369.609 -0.329036 -4.59824 0
M  V30 4027 H 373.153 -3.45676 -6.05932 0
M  V30 4028 H 369.05 -2.22211 -6.06047 0
M  V30 4029 H 369.818 -3.9917 -7.14567 0
M  V30 4030 N 372.481 1.55866 -0.233164 0
M  V30 4031 C 373.444 2.1953 0.658715 0
M  V30 4032 C 374.444 1.16053 1.11303 0
M  V30 4033 O 375.634 1.41218 1.01996 0
M  V30 4034 C 372.766 2.82791 1.90373 0
M  V30 4035 H 373.959 2.99721 0.10347 0
M  V30 4036 H 371.512 1.56291 0.0164245 0
M  V30 4037 H 372.247 2.06501 2.50056 0
M  V30 4038 H 372.032 3.58578 1.58632 0
M  V30 4039 H 373.522 3.31556 2.53891 0
M  V30 4040 N 373.959 -0.0401083 1.57549 0
M  V30 4041 C 374.907 -1.06264 2.06908 0
M  V30 4042 C 375.901 -1.38132 0.980608 0
M  V30 4043 O 377.107 -1.37167 1.16556 0
M  V30 4044 H 373.482 -0.360166 0.660139 0
M  V30 4045 H 375.453 -0.620445 2.91878 0
M  V30 4046 C 374.202 -2.35846 2.55483 0
M  V30 4047 H 373.525 -2.12183 3.38849 0
M  V30 4048 H 374.965 -3.05765 2.93741 0
M  V30 4049 C 373.424 -3.0404 1.45126 0
M  V30 4050 O 373.954 -3.93424 0.811216 0
M  V30 4051 N 372.16 -2.65184 1.18852 0
M  V30 4052 H 371.707 -1.92584 1.71083 0
M  V30 4053 H 371.665 -3.1113 0.452244 0
M  V30 4054 N 375.437 -1.54477 -0.31217 0
M  V30 4055 C 376.37 -1.79519 -1.40884 0
M  V30 4056 C 377.348 -0.645753 -1.49227 0
M  V30 4057 O 378.532 -0.884468 -1.66461 0
M  V30 4058 C 375.659 -1.92194 -2.78889 0
M  V30 4059 C 374.705 -3.14555 -2.88023 0
M  V30 4060 S 375.538 -4.72893 -2.51262 0
M  V30 4061 C 376.694 -4.8849 -3.91317 0
M  V30 4062 H 376.927 -2.72256 -1.19432 0
M  V30 4063 H 374.46 -1.45746 -0.509654 0
M  V30 4064 H 376.418 -2.00182 -3.58382 0
M  V30 4065 H 375.079 -1.00414 -2.97617 0
M  V30 4066 H 374.272 -3.20193 -3.89221 0
M  V30 4067 H 373.874 -3.04955 -2.16514 0
M  V30 4068 H 376.166 -4.71826 -4.86196 0
M  V30 4069 H 377.109 -5.90588 -3.90656 0
M  V30 4070 H 377.517 -4.16715 -3.80801 0
M  V30 4071 N 376.915 0.57481 -1.46744 0
M  V30 4072 C 378.143 1.35856 -1.56047 0
M  V30 4073 C 378.558 1.87691 -0.204365 0
M  V30 4074 O 377.915 1.64049 0.79963 0
M  V30 4075 C 377.966 2.54066 -2.57163 0
M  V30 4076 O 377.687 2.04377 -3.87507 0
M  V30 4077 C 379.188 3.46514 -2.76483 0
M  V30 4078 H 376.408 0.414754 -0.527466 0
M  V30 4079 H 378.952 0.698035 -1.92218 0
M  V30 4080 H 377.107 3.16092 -2.23974 0
M  V30 4081 H 377.521 2.81419 -4.4261 0
M  V30 4082 H 378.995 4.25919 -3.51137 0
M  V30 4083 H 379.472 3.98951 -1.83671 0
M  V30 4084 H 380.078 2.90318 -3.10799 0
M  V30 4085 N 378.394 1.34581 0.820102 0
M  V30 4086 C 379.641 1.27096 1.57648 0
M  V30 4087 C 379.969 -0.158317 1.93855 0
M  V30 4088 O 379.224 -1.12028 1.60463 0
M  V30 4089 C 379.523 2.10997 2.8847 0
M  V30 4090 C 379.189 3.59966 2.71543 0
M  V30 4091 C 377.851 4.00575 2.66634 0
M  V30 4092 C 380.203 4.54548 2.55021 0
M  V30 4093 C 377.531 5.33953 2.43128 0
M  V30 4094 C 379.883 5.88109 2.33047 0
M  V30 4095 C 378.547 6.27878 2.26552 0
M  V30 4096 H 377.817 0.465078 0.576874 0
M  V30 4097 H 380.464 1.6635 0.948671 0
M  V30 4098 H 378.769 1.6458 3.55557 0
M  V30 4099 H 380.466 2.0255 3.46084 0
M  V30 4100 H 377.056 3.27733 2.76205 0
M  V30 4101 H 381.24 4.24069 2.57835 0
M  V30 4102 H 376.496 5.63781 2.3656 0
M  V30 4103 H 380.67 6.60985 2.19251 0
M  V30 4104 H 378.297 7.31162 2.081 0
M  V30 4105 N 379.872 -1.04064 1.18357 0
M  V30 4106 C 380.804 -2.12114 0.868358 0
M  V30 4107 C 381.817 -1.62247 -0.134045 0
M  V30 4108 O 383.006 -1.78253 0.0937933 0
M  V30 4109 C 380.106 -3.37773 0.276132 0
M  V30 4110 C 379.279 -4.16874 1.3242 0
M  V30 4111 C 378.338 -5.20861 0.747662 0
M  V30 4112 O 377.364 -5.51141 1.42239 0
M  V30 4113 N 378.566 -5.78715 -0.454823 0
M  V30 4114 H 381.331 -2.39748 1.79836 0
M  V30 4115 H 378.892 -1.20258 1.08396 0
M  V30 4116 H 380.884 -4.04513 -0.123133 0
M  V30 4117 H 379.454 -3.07581 -0.557895 0
M  V30 4118 H 378.674 -3.45456 1.89878 0
M  V30 4119 H 379.962 -4.66516 2.03078 0
M  V30 4120 H 379.36 -5.56415 -1.02073 0
M  V30 4121 H 377.917 -6.46921 -0.79601 0
M  V30 4122 N 381.35 -0.985608 -1.22978 0
M  V30 4123 C 382.596 -0.65836 -1.91816 0
M  V30 4124 C 382.929 0.806692 -1.76653 0
M  V30 4125 O 382.204 1.58252 -1.13078 0
M  V30 4126 C 382.487 -1.056 -3.44268 0
M  V30 4127 C 382.34 -2.57906 -3.68516 0
M  V30 4128 C 383.659 -0.603781 -4.35939 0
M  V30 4129 H 380.778 -0.24065 -0.696604 0
M  V30 4130 H 383.42 -1.22783 -1.44998 0
M  V30 4131 H 381.57 -0.571445 -3.84274 0
M  V30 4132 H 383.242 -3.13976 -3.3796 0
M  V30 4133 H 381.485 -3.00305 -3.13048 0
M  V30 4134 H 382.156 -2.80779 -4.75255 0
M  V30 4135 H 384.632 -1.01987 -4.03408 0
M  V30 4136 H 383.508 -0.910383 -5.41298 0
M  V30 4137 H 383.769 0.495761 -4.39312 0
M  V30 4138 N 382.828 1.3818 -0.7579 0
M  V30 4139 C 383.76 2.2901 -0.0932177 0
M  V30 4140 C 384.773 1.47958 0.679136 0
M  V30 4141 O 385.962 1.70773 0.519514 0
M  V30 4142 C 383.062 3.26953 0.89192 0
M  V30 4143 C 382.235 4.37045 0.176303 0
M  V30 4144 C 381.294 5.15148 1.07281 0
M  V30 4145 O 380.32 5.66616 0.541728 0
M  V30 4146 N 381.522 5.28542 2.40049 0
M  V30 4147 H 384.287 2.86694 -0.873303 0
M  V30 4148 H 381.848 1.50007 -0.609054 0
M  V30 4149 H 383.84 3.76083 1.49479 0
M  V30 4150 H 382.41 2.70136 1.57306 0
M  V30 4151 H 381.63 3.89493 -0.607328 0
M  V30 4152 H 382.918 5.07801 -0.318718 0
M  V30 4153 H 382.316 4.88285 2.85647 0
M  V30 4154 H 380.873 5.8103 2.95376 0
M  V30 4155 N 384.306 0.507319 1.49211 0
M  V30 4156 C 385.552 -0.0269732 2.03382 0
M  V30 4157 C 385.907 -1.34111 1.37957 0
M  V30 4158 O 385.2 -1.84733 0.508351 0
M  V30 4159 C 385.394 -0.229513 3.56662 0
M  V30 4160 C 385.223 1.06344 4.36945 0
M  V30 4161 C 383.993 1.617 4.78729 0
M  V30 4162 C 386.191 1.96833 4.75143 0
M  V30 4163 N 384.173 2.8552 5.43463 0
M  V30 4164 C 385.544 3.0523 5.39661 0
M  V30 4165 C 387.599 1.97434 4.57082 0
M  V30 4166 C 386.302 4.14265 5.88028 0
M  V30 4167 C 388.328 3.05448 5.06414 0
M  V30 4168 C 387.69 4.12564 5.70938 0
M  V30 4169 H 383.789 0.0310673 0.781383 0
M  V30 4170 H 386.373 0.683579 1.82305 0
M  V30 4171 H 384.544 -0.909127 3.7761 0
M  V30 4172 H 386.276 -0.761377 3.97473 0
M  V30 4173 H 383.031 1.16132 4.59141 0
M  V30 4174 H 383.455 3.48499 5.80412 0
M  V30 4175 H 388.097 1.15924 4.06597 0
M  V30 4176 H 385.815 4.96569 6.3753 0
M  V30 4177 H 389.401 3.06941 4.94246 0
M  V30 4178 H 388.281 4.94767 6.0842 0
M  V30 4179 N 385.784 -1.5574 0.241426 0
M  V30 4180 C 386.714 -2.24133 -0.654722 0
M  V30 4181 C 387.695 -1.21974 -1.1856 0
M  V30 4182 O 388.88 -1.50612 -1.22595 0
M  V30 4183 C 386.01 -2.93659 -1.85423 0
M  V30 4184 C 384.964 -4.0246 -1.45636 0
M  V30 4185 C 384.29 -4.59383 -2.73626 0
M  V30 4186 C 385.59 -5.18468 -0.631506 0
M  V30 4187 H 387.284 -2.99281 -0.0844353 0
M  V30 4188 H 384.83 -1.43947 -0.0391707 0
M  V30 4189 H 386.783 -3.40203 -2.48676 0
M  V30 4190 H 385.507 -2.15991 -2.44981 0
M  V30 4191 H 384.166 -3.56676 -0.847202 0
M  V30 4192 H 383.814 -3.78422 -3.3137 0
M  V30 4193 H 383.514 -5.32826 -2.4773 0
M  V30 4194 H 385.038 -5.08658 -3.37786 0
M  V30 4195 H 386.452 -5.61272 -1.1682 0
M  V30 4196 H 384.849 -5.98266 -0.468831 0
M  V30 4197 H 385.919 -4.8358 0.357506 0
M  V30 4198 N 387.262 0.0317525 -1.57568 0
M  V30 4199 C 388.212 1.04101 -2.02847 0
M  V30 4200 C 389.196 1.3219 -0.917317 0
M  V30 4201 O 390.388 1.31819 -1.18121 0
M  V30 4202 C 387.517 2.34295 -2.5092 0
M  V30 4203 C 386.603 2.09308 -3.68851 0
M  V30 4204 N 386.994 1.5437 -4.81667 0
M  V30 4205 C 385.292 2.39604 -3.76172 0
M  V30 4206 C 385.993 1.45126 -5.63306 0
M  V30 4207 N 384.969 1.92589 -5.08341 0
M  V30 4208 H 388.771 0.610217 -2.87495 0
M  V30 4209 H 386.285 0.238108 -1.60645 0
M  V30 4210 H 388.282 3.07404 -2.81617 0
M  V30 4211 H 386.942 2.78055 -1.67677 0
M  V30 4212 H 387.953 1.22678 -5.03161 0
M  V30 4213 H 384.63 2.86457 -3.03724 0
M  V30 4214 H 386.02 1.03163 -6.63933 0
M  V30 4215 N 388.74 1.54641 0.303973 0
M  V30 4216 C 389.703 1.84646 1.35789 0
M  V30 4217 C 390.703 0.7192 1.4382 0
M  V30 4218 O 391.893 0.987491 1.43507 0
M  V30 4219 C 389.025 2.02407 2.74307 0
M  V30 4220 H 390.218 2.78829 1.10429 0
M  V30 4221 H 387.771 1.46658 0.540487 0
M  V30 4222 H 388.506 1.10502 3.04893 0
M  V30 4223 H 388.291 2.84453 2.69868 0
M  V30 4224 H 389.781 2.27002 3.50514 0
M  V30 4225 N 390.218 -0.567019 1.47046 0
M  V30 4226 C 391.465 -1.32462 1.53167 0
M  V30 4227 C 391.793 -1.93571 0.189841 0
M  V30 4228 O 391.048 -1.77865 -0.816243 0
M  V30 4229 C 391.347 -2.4623 2.59047 0
M  V30 4230 C 391.013 -2.03014 4.02612 0
M  V30 4231 C 389.675 -1.90944 4.41694 0
M  V30 4232 C 392.027 -1.69895 4.92732 0
M  V30 4233 C 389.355 -1.44035 5.68745 0
M  V30 4234 C 391.707 -1.2446 6.20236 0
M  V30 4235 C 390.371 -1.10979 6.5821 0
M  V30 4236 H 389.641 -0.484713 0.560477 0
M  V30 4237 H 392.288 -0.636888 1.80599 0
M  V30 4238 H 390.593 -3.20517 2.25335 0
M  V30 4239 H 392.29 -3.04427 2.61008 0
M  V30 4240 H 388.88 -2.13348 3.71726 0
M  V30 4241 H 393.064 -1.78098 4.63244 0
M  V30 4242 H 388.32 -1.32254 5.96925 0
M  V30 4243 H 392.494 -0.978924 6.89485 0
M  V30 4244 H 390.121 -0.744078 7.5655 0
M  V30 4245 N 391.696 -1.35014 -0.812953 0
M  V30 4246 C 392.626 -1.30069 -1.93919 0
M  V30 4247 C 393.607 -0.176275 -1.69184 0
M  V30 4248 O 394.792 -0.370227 -1.90638 0
M  V30 4249 C 391.922 -1.06547 -3.30552 0
M  V30 4250 C 390.876 -2.15561 -3.69753 0
M  V30 4251 C 390.202 -1.77214 -5.04479 0
M  V30 4252 C 391.502 -3.57476 -3.808 0
M  V30 4253 H 393.196 -2.24303 -1.98314 0
M  V30 4254 H 390.742 -1.07977 -0.952736 0
M  V30 4255 H 392.695 -1.01729 -4.08937 0
M  V30 4256 H 391.419 -0.0875719 -3.26483 0
M  V30 4257 H 390.078 -2.19466 -2.9365 0
M  V30 4258 H 389.726 -0.780589 -4.96906 0
M  V30 4259 H 389.426 -2.50184 -5.31678 0
M  V30 4260 H 390.95 -1.7391 -5.8531 0
M  V30 4261 H 392.364 -3.55929 -4.4943 0
M  V30 4262 H 390.761 -4.29152 -4.19462 0
M  V30 4263 H 391.831 -3.94091 -2.82525 0
M  V30 4264 N 393.175 1.03435 -1.18907 0
M  V30 4265 C 394.122 2.11591 -0.921837 0
M  V30 4266 C 395.092 1.65499 0.141226 0
M  V30 4267 O 396.277 1.908 0.000242829 0
M  V30 4268 C 393.417 3.42012 -0.460616 0
M  V30 4269 C 392.53 4.01682 -1.58982 0
M  V30 4270 C 391.665 5.20091 -1.08069 0
M  V30 4271 C 390.704 5.71805 -2.18416 0
M  V30 4272 N 389.841 6.81494 -1.68849 0
M  V30 4273 H 394.681 2.33787 -1.8479 0
M  V30 4274 H 392.218 1.1467 -0.921373 0
M  V30 4275 H 394.176 4.16834 -0.174642 0
M  V30 4276 H 392.806 3.19944 0.428467 0
M  V30 4277 H 391.858 3.24127 -1.99113 0
M  V30 4278 H 393.17 4.36084 -2.4214 0
M  V30 4279 H 392.324 6.02051 -0.749615 0
M  V30 4280 H 391.063 4.87209 -0.218771 0
M  V30 4281 H 390.068 4.88461 -2.5236 0
M  V30 4282 H 391.293 6.06728 -3.05054 0
M  V30 4283 H 389.239 6.50475 -0.849572 0
M  V30 4284 H 389.156 7.14994 -2.45601 0
M  V30 4285 H 390.424 7.67063 -1.38689 0
M  V30 4286 N 394.653 0.992116 1.22453 0
M  V30 4287 C 396.069 0.702713 1.43297 0
M  V30 4288 C 396.269 -0.726909 1.87932 0
M  V30 4289 O 395.325 -1.49792 2.0327 0
M  V30 4290 C 396.638 1.70762 2.47509 0
M  V30 4291 C 398.186 1.72298 2.61309 0
M  V30 4292 C 398.661 2.71649 3.68742 0
M  V30 4293 N 400.152 2.70239 3.76199 0
M  V30 4294 C 400.887 3.43778 4.58917 0
M  V30 4295 N 400.383 4.26914 5.45633 0
M  V30 4296 N 402.176 3.32487 4.5322 0
M  V30 4297 H 394.327 1.91543 0.917871 0
M  V30 4298 H 396.59 0.826031 0.465162 0
M  V30 4299 H 396.296 2.73059 2.21657 0
M  V30 4300 H 396.17 1.49985 3.46099 0
M  V30 4301 H 398.557 0.706989 2.86506 0
M  V30 4302 H 398.638 1.97143 1.62997 0
M  V30 4303 H 398.282 3.73397 3.44292 0
M  V30 4304 H 398.212 2.44074 4.66622 0
M  V30 4305 H 400.703 2.09912 3.14237 0
M  V30 4306 H 401.016 4.79855 6.05771 0
M  V30 4307 H 399.361 4.31002 5.45218 0
M  V30 4308 H 402.552 2.6698 3.84499 0
M  V30 4309 H 402.725 3.90058 5.17454 0
M  V30 4310 N 396.131 -1.37776 0.765217 0
M  V30 4311 C 397.079 -2.32209 0.134798 0
M  V30 4312 C 398.073 -1.54607 -0.692315 0
M  V30 4313 O 399.279 -1.70052 -0.590109 0
M  V30 4314 H 395.654 -0.751591 0.0248005 0
M  V30 4315 H 397.625 -2.8297 0.947119 0
M  V30 4316 C 396.374 -3.39841 -0.735063 0
M  V30 4317 H 395.697 -3.99654 -0.107991 0
M  V30 4318 H 397.137 -4.08296 -1.14326 0
M  V30 4319 C 395.596 -2.79378 -1.88281 0
M  V30 4320 O 396.126 -2.69608 -2.97783 0
M  V30 4321 N 394.332 -2.37016 -1.68142 0
M  V30 4322 H 393.879 -2.45162 -0.790772 0
M  V30 4323 H 393.837 -1.96905 -2.45104 0
M  V30 4324 N 397.609 -0.515225 -1.4894 0
M  V30 4325 C 399.02 -0.0710067 -1.86565 0
M  V30 4326 C 399.371 1.34733 -1.42623 0
M  V30 4327 O 398.496 2.00653 -0.810379 0
M  V30 4328 C 399.091 -0.122083 -3.3858 0
M  V30 4329 C 397.65 0.266863 -3.75453 0
M  V30 4330 C 396.797 -0.488376 -2.72966 0
M  V30 4331 H 399.748 -0.727266 -1.41055 0
M  V30 4332 H 399.769 0.669818 -3.74558 0
M  V30 4333 H 399.281 -1.15448 -3.70531 0
M  V30 4334 H 397.382 1.30196 -3.49113 0
M  V30 4335 H 397.495 -0.0624811 -4.79059 0
M  V30 4336 H 395.859 0.0635622 -2.54621 0
M  V30 4337 H 396.642 -1.52113 -3.07761 0
M  V30 4338 N 399.087 1.5561 -0.249682 0
M  V30 4339 C 400.335 1.98618 0.373548 0
M  V30 4340 C 400.656 1.13919 1.58264 0
M  V30 4341 O 399.926 0.222637 1.94631 0
M  V30 4342 H 398.506 0.733571 0.141006 0
M  V30 4343 H 401.168 1.91748 -0.349117 0
M  V30 4344 H 400.264 3.04584 0.680796 0
M  V30 4345 N 400.565 -0.0233959 1.57583 0
M  V30 4346 C 401.513 -1.04063 2.08023 0
M  V30 4347 C 402.507 -1.37084 0.995204 0
M  V30 4348 O 403.713 -1.35923 1.18004 0
M  V30 4349 H 400.088 -0.353144 0.663922 0
M  V30 4350 H 402.059 -0.589453 2.9252 0
M  V30 4351 C 400.808 -2.33123 2.57971 0
M  V30 4352 H 400.131 -2.08577 3.4108 0
M  V30 4353 H 401.571 -3.02632 2.96967 0
M  V30 4354 C 400.03 -3.02483 1.48342 0
M  V30 4355 O 400.56 -3.92541 0.852898 0
M  V30 4356 N 398.766 -2.63909 1.21658 0
M  V30 4357 H 398.313 -1.90758 1.73116 0
M  V30 4358 H 398.271 -3.10633 0.485218 0
M  V30 4359 N 402.043 -1.548 -0.295768 0
M  V30 4360 C 402.993 -1.82497 -1.3667 0
M  V30 4361 C 403.977 -0.682434 -1.45711 0
M  V30 4362 O 405.169 -0.943207 -1.49775 0
M  V30 4363 C 402.298 -2.08036 -2.73086 0
M  V30 4364 C 401.384 -3.28488 -2.68247 0
M  V30 4365 N 401.775 -4.48924 -2.33025 0
M  V30 4366 C 400.073 -3.3062 -2.99343 0
M  V30 4367 C 400.774 -5.30956 -2.37613 0
M  V30 4368 N 399.75 -4.68805 -2.75178 0
M  V30 4369 H 403.552 -2.73175 -1.0841 0
M  V30 4370 H 401.066 -1.5437 -0.504361 0
M  V30 4371 H 403.063 -2.26027 -3.5031 0
M  V30 4372 H 401.723 -1.18629 -3.02254 0
M  V30 4373 H 402.734 -4.75432 -2.05389 0
M  V30 4374 H 399.411 -2.51336 -3.33371 0
M  V30 4375 H 400.801 -6.37199 -2.13135 0
M  V30 4376 N 403.521 0.559213 -1.47345 0
M  V30 4377 C 404.451 1.67622 -1.62558 0
M  V30 4378 C 405.432 1.63331 -0.475087 0
M  V30 4379 O 406.617 1.80983 -0.704182 0
M  V30 4380 C 403.747 3.0626 -1.63774 0
M  V30 4381 C 402.701 3.25397 -2.7803 0
M  V30 4382 C 402.027 4.64801 -2.64318 0
M  V30 4383 C 403.327 3.10965 -4.19641 0
M  V30 4384 H 405.021 1.55146 -2.56067 0
M  V30 4385 H 402.567 0.744961 -1.23233 0
M  V30 4386 H 404.52 3.84247 -1.73008 0
M  V30 4387 H 403.244 3.1969 -0.66825 0
M  V30 4388 H 401.903 2.49817 -2.68304 0
M  V30 4389 H 401.551 4.75028 -1.65401 0
M  V30 4390 H 401.251 4.78555 -3.40968 0
M  V30 4391 H 402.775 5.44926 -2.75478 0
M  V30 4392 H 404.189 3.78772 -4.30354 0
M  V30 4393 H 402.586 3.36229 -4.97062 0
M  V30 4394 H 403.656 2.07736 -4.38148 0
M  V30 4395 N 404.999 1.35443 0.805782 0
M  V30 4396 C 406.229 1.31687 1.59192 0
M  V30 4397 C 406.637 -0.10756 1.88894 0
M  V30 4398 O 405.98 -1.07017 1.49309 0
M  V30 4399 C 406.042 2.05686 2.94845 0
M  V30 4400 C 405.706 3.54868 2.87954 0
M  V30 4401 C 406.703 4.49444 2.61335 0
M  V30 4402 C 404.388 3.97528 3.07046 0
M  V30 4403 C 406.382 5.84655 2.53885 0
M  V30 4404 C 404.069 5.32833 2.99219 0
M  V30 4405 C 405.067 6.26209 2.72674 0
M  V30 4406 O 404.755 7.59032 2.64811 0
M  V30 4407 H 404.487 0.453878 0.50097 0
M  V30 4408 H 407.041 1.78892 1.0093 0
M  V30 4409 H 405.271 1.5312 3.55093 0
M  V30 4410 H 406.96 1.94998 3.55993 0
M  V30 4411 H 407.726 4.17804 2.46303 0
M  V30 4412 H 403.605 3.25233 3.26718 0
M  V30 4413 H 407.149 6.57508 2.33086 0
M  V30 4414 H 403.046 5.64087 3.13809 0
M  V30 4415 H 403.814 7.68967 2.80413 0
M  V30 4416 N 406.477 -1.02803 1.19454 0
M  V30 4417 C 407.424 -2.11099 0.933046 0
M  V30 4418 C 408.394 -1.65571 -0.132447 0
M  V30 4419 O 409.579 -1.90797 0.00987576 0
M  V30 4420 C 406.719 -3.41763 0.478747 0
M  V30 4421 C 405.832 -4.00833 1.6111 0
M  V30 4422 C 404.967 -5.19511 1.10825 0
M  V30 4423 C 404.006 -5.70639 2.21445 0
M  V30 4424 N 403.143 -6.80589 1.72461 0
M  V30 4425 H 407.983 -2.32804 1.86028 0
M  V30 4426 H 405.52 -1.14179 0.927441 0
M  V30 4427 H 407.478 -4.16736 0.196745 0
M  V30 4428 H 406.108 -3.20166 -0.411493 0
M  V30 4429 H 405.16 -3.23066 2.00829 0
M  V30 4430 H 406.472 -4.34794 2.4445 0
M  V30 4431 H 405.626 -6.01645 0.781533 0
M  V30 4432 H 404.365 -4.87086 0.244606 0
M  V30 4433 H 403.37 -4.87116 2.54947 0
M  V30 4434 H 404.595 -6.05102 3.08267 0
M  V30 4435 H 402.541 -6.50016 0.884056 0
M  V30 4436 H 402.458 -7.13681 2.49389 0
M  V30 4437 H 403.726 -7.66317 1.42755 0
M  V30 4438 N 407.956 -0.998596 -1.21925 0
M  V30 4439 C 409.202 -0.688337 -1.91399 0
M  V30 4440 C 409.557 0.771805 -1.76241 0
M  V30 4441 O 408.85 1.55153 -1.1242 0
M  V30 4442 C 409.044 -1.03648 -3.42041 0
M  V30 4443 C 408.873 -2.52892 -3.71855 0
M  V30 4444 C 407.643 -3.19389 -3.91559 0
M  V30 4445 C 409.841 -3.5103 -3.75875 0
M  V30 4446 N 407.823 -4.5805 -4.08734 0
M  V30 4447 C 409.194 -4.75174 -3.98259 0
M  V30 4448 C 411.249 -3.45257 -3.58751 0
M  V30 4449 C 409.952 -5.94247 -4.05294 0
M  V30 4450 C 411.978 -4.63712 -3.67049 0
M  V30 4451 C 411.34 -5.86658 -3.89887 0
M  V30 4452 H 407.439 -0.303251 -0.720807 0
M  V30 4453 H 410.023 -1.27977 -1.46731 0
M  V30 4454 H 408.194 -0.473569 -3.85502 0
M  V30 4455 H 409.926 -0.681619 -3.98919 0
M  V30 4456 H 406.681 -2.69846 -3.89205 0
M  V30 4457 H 407.105 -5.29989 -4.21237 0
M  V30 4458 H 411.747 -2.51215 -3.40075 0
M  V30 4459 H 409.465 -6.88687 -4.22772 0
M  V30 4460 H 413.051 -4.6084 -3.5513 0
M  V30 4461 H 411.931 -6.76786 -3.96144 0
M  V30 4462 N 409.434 1.37368 -0.772513 0
M  V30 4463 C 410.381 2.30262 -0.157488 0
M  V30 4464 C 411.351 1.51137 0.688965 0
M  V30 4465 O 412.536 1.79704 0.641168 0
M  V30 4466 C 409.676 3.37611 0.715045 0
M  V30 4467 C 408.789 4.31746 -0.148098 0
M  V30 4468 C 407.924 5.26171 0.729213 0
M  V30 4469 C 406.963 6.11948 -0.136418 0
M  V30 4470 N 406.1 6.98613 0.698914 0
M  V30 4471 H 410.94 2.82277 -0.955179 0
M  V30 4472 H 408.477 1.38957 -0.482631 0
M  V30 4473 H 410.435 3.98479 1.23575 0
M  V30 4474 H 409.065 2.86959 1.47833 0
M  V30 4475 H 408.117 3.72178 -0.786613 0
M  V30 4476 H 409.429 4.92084 -0.81579 0
M  V30 4477 H 408.583 5.92247 1.31637 0
M  V30 4478 H 407.322 4.66246 1.43059 0
M  V30 4479 H 406.327 5.4485 -0.736102 0
M  V30 4480 H 407.552 6.73945 -0.835134 0
M  V30 4481 H 405.498 6.41215 1.38489 0
M  V30 4482 H 405.415 7.55948 0.0885358 0
M  V30 4483 H 406.683 7.69077 1.27044 0
M  V30 4484 N 410.912 0.523116 1.48665 0
M  V30 4485 C 411.844 -0.280421 2.27478 0
M  V30 4486 C 412.857 -0.910694 1.34945 0
M  V30 4487 O 414.046 -0.790295 1.60052 0
M  V30 4488 C 411.146 -1.41171 3.08097 0
M  V30 4489 C 410.319 -0.884642 4.28361 0
M  V30 4490 C 409.378 -1.89622 4.90846 0
M  V30 4491 O 408.404 -1.4559 5.50265 0
M  V30 4492 N 409.606 -3.22801 4.82472 0
M  V30 4493 H 412.371 0.395481 2.97079 0
M  V30 4494 H 409.932 0.357018 1.57915 0
M  V30 4495 H 411.924 -2.08645 3.4677 0
M  V30 4496 H 410.494 -1.99139 2.40961 0
M  V30 4497 H 409.714 -0.0341177 3.94185 0
M  V30 4498 H 411.002 -0.511268 5.06225 0
M  V30 4499 H 410.4 -3.61246 4.35336 0
M  V30 4500 H 408.957 -3.85927 5.25265 0
M  V30 4501 N 412.39 -1.55475 0.257931 0
M  V30 4502 C 413.639 -1.98383 -0.364275 0
M  V30 4503 C 413.952 -1.14952 -1.58258 0
M  V30 4504 O 415.158 -1.47924 -2.27664 0
M  V30 4505 C 413.614 -3.53037 -0.699479 0
M  V30 4506 C 413.222 -4.45223 0.498046 0
M  V30 4507 C 414.966 -4.04575 -1.28526 0
M  V30 4508 C 412.873 -5.91238 0.138383 0
M  V30 4509 H 411.803 -0.740911 -0.13988 0
M  V30 4510 H 414.454 -1.79936 0.359883 0
M  V30 4511 H 412.836 -3.6722 -1.48207 0
M  V30 4512 H 414.01 -4.42803 1.27522 0
M  V30 4513 H 412.325 -4.04226 0.999503 0
M  V30 4514 H 414.922 -5.11196 -1.56788 0
M  V30 4515 H 415.265 -3.5258 -2.21344 0
M  V30 4516 H 415.798 -3.93762 -0.565337 0
M  V30 4517 H 412.537 -6.47294 1.03398 0
M  V30 4518 H 412.057 -5.96768 -0.602374 0
M  V30 4519 H 413.736 -6.46413 -0.27553 0
M  V30 4520 N 413.868 0.0150385 -1.57593 0
M  V30 4521 C 415.279 0.559832 -1.78109 0
M  V30 4522 C 415.63 1.74814 -0.890756 0
M  V30 4523 O 414.755 2.16216 -0.0892482 0
M  V30 4524 C 415.35 1.02238 -3.23006 0
M  V30 4525 C 413.909 1.51258 -3.44671 0
M  V30 4526 C 413.056 0.456955 -2.73509 0
M  V30 4527 H 416.007 -0.211169 -1.57289 0
M  V30 4528 H 416.028 1.88912 -3.30292 0
M  V30 4529 H 415.54 0.157302 -3.87781 0
M  V30 4530 H 413.641 2.39905 -2.8509 0
M  V30 4531 H 413.754 1.55042 -4.5332 0
M  V30 4532 H 412.118 0.915196 -2.37689 0
M  V30 4533 H 412.901 -0.398896 -3.40975 0
M  V30 4534 N 415.346 1.54954 0.287554 0
M  V30 4535 C 416.623 1.65569 1.04146 0
M  V30 4536 C 417.003 0.512672 2.0478 0
M  V30 4537 O 416.351 -0.489038 2.23205 0
M  V30 4538 C 416.561 3.04163 1.71131 0
M  V30 4539 C 417.909 3.61429 2.22832 0
M  V30 4540 O 418.933 3.06702 1.81141 0
M  V30 4541 O 417.792 4.57281 2.9926 0
M  V30 4542 H 414.886 0.671881 0.482188 0
M  V30 4543 H 417.432 1.67297 0.28457 0
M  V30 4544 H 416.204 3.78796 0.981303 0
M  V30 4545 H 415.827 3.06271 2.53543 0
M  V30 4546 N 416.824 -0.551391 1.4764 0
M  V30 4547 C 418.064 -1.31901 1.56145 0
M  V30 4548 C 418.428 -1.90724 0.221013 0
M  V30 4549 O 419.629 -2.6819 0.180945 0
M  V30 4550 C 417.9 -2.39517 2.65267 0
M  V30 4551 S 419.459 -3.26289 2.93395 0
M  V30 4552 H 416.277 -0.448965 0.551318 0
M  V30 4553 H 418.879 -0.630599 1.85051 0
M  V30 4554 H 417.583 -1.94747 3.6125 0
M  V30 4555 H 417.114 -3.13092 2.38195 0
M  V30 4556 H 419.129 -4.39122 2.31055 0
M  V30 4557 N 418.302 -1.35869 -0.798587 0
M  V30 4558 C 419.212 -1.31578 -1.94228 0
M  V30 4559 C 420.228 -0.21939 -1.72611 0
M  V30 4560 O 421.404 -0.450167 -1.96305 0
M  V30 4561 C 418.469 -1.09528 -3.28944 0
M  V30 4562 C 417.53 -2.28556 -3.63402 0
M  V30 4563 C 416.763 -2.07549 -4.9169 0
M  V30 4564 O 416.986 -1.046 -5.60727 0
M  V30 4565 O 415.92 -2.95106 -5.24591 0
M  V30 4566 H 419.746 -2.27847 -2.00796 0
M  V30 4567 H 417.331 -1.16322 -0.937526 0
M  V30 4568 H 419.213 -0.991127 -4.09579 0
M  V30 4569 H 417.888 -0.16315 -3.23289 0
M  V30 4570 H 416.795 -2.44538 -2.83112 0
M  V30 4571 H 418.128 -3.20244 -3.73771 0
M  V30 4572 N 419.78 1.02168 -1.19998 0
M  V30 4573 C 420.728 2.12717 -0.940967 0
M  V30 4574 C 421.722 1.69069 0.105841 0
M  V30 4575 O 422.928 1.79946 -0.0440583 0
M  V30 4576 H 419.303 0.695108 -0.28693 0
M  V30 4577 H 421.274 2.3175 -1.87975 0
M  V30 4578 C 420.023 3.44027 -0.504049 0
M  V30 4579 H 419.346 3.78036 -1.30112 0
M  V30 4580 H 420.786 4.22452 -0.361991 0
M  V30 4581 C 419.245 3.27678 0.782878 0
M  V30 4582 O 419.775 3.56949 1.84256 0
M  V30 4583 N 417.981 2.80943 0.742921 0
M  V30 4584 H 417.528 2.57322 -0.119687 0
M  V30 4585 H 417.486 2.70385 1.60435 0
M  V30 4586 N 421.258 1.00505 1.21394 0
M  V30 4587 C 422.504 0.688793 1.90745 0
M  V30 4588 C 422.837 -0.778486 1.77914 0
M  V30 4589 O 422.112 -1.56433 1.15581 0
M  V30 4590 C 422.395 1.11063 3.42545 0
M  V30 4591 C 422.248 2.63737 3.64367 0
M  V30 4592 C 423.567 0.673059 4.34923 0
M  V30 4593 H 420.686 0.251702 0.692687 0
M  V30 4594 H 423.328 1.25074 1.43026 0
M  V30 4595 H 421.478 0.632508 3.83317 0
M  V30 4596 H 423.15 3.19313 3.32922 0
M  V30 4597 H 421.393 3.05248 3.08231 0
M  V30 4598 H 422.064 2.88305 4.70727 0
M  V30 4599 H 424.54 1.08392 4.01734 0
M  V30 4600 H 423.416 0.996383 5.39781 0
M  V30 4601 H 423.677 -0.425808 4.40045 0
M  V30 4602 N 422.737 -1.36956 0.779787 0
M  V30 4603 C 423.684 -2.30175 0.169697 0
M  V30 4604 C 424.654 -1.51501 -0.68094 0
M  V30 4605 O 425.839 -1.80042 -0.631629 0
M  V30 4606 C 422.979 -3.37985 -0.697131 0
M  V30 4607 C 422.092 -4.31661 0.170992 0
M  V30 4608 C 421.227 -5.2655 -0.701298 0
M  V30 4609 C 420.266 -6.11867 0.168869 0
M  V30 4610 N 419.403 -6.98973 -0.661855 0
M  V30 4611 H 424.243 -2.81767 0.970135 0
M  V30 4612 H 421.78 -1.38699 0.489994 0
M  V30 4613 H 423.738 -3.99128 -1.2146 0
M  V30 4614 H 422.368 -2.87739 -1.46309 0
M  V30 4615 H 421.42 -3.71756 0.80634 0
M  V30 4616 H 422.732 -4.91644 0.841875 0
M  V30 4617 H 421.886 -5.92937 -1.28494 0
M  V30 4618 H 420.625 -4.66998 -1.40584 0
M  V30 4619 H 419.63 -5.44452 0.764986 0
M  V30 4620 H 420.855 -6.73493 0.870863 0
M  V30 4621 H 418.801 -6.41941 -1.35086 0
M  V30 4622 H 418.718 -7.55984 -0.0484447 0
M  V30 4623 H 419.986 -7.6974 -1.22963 0
M  V30 4624 N 424.215 -0.530993 -1.48385 0
M  V30 4625 C 425.443 -0.00134122 -2.069 0
M  V30 4626 C 425.858 1.2805 -1.3874 0
M  V30 4627 O 425.215 1.76204 -0.475244 0
M  V30 4628 C 425.266 0.225256 -3.60798 0
M  V30 4629 O 424.987 -1.0058 -4.26398 0
M  V30 4630 C 426.488 0.795172 -4.3611 0
M  V30 4631 H 423.708 -0.0339704 -0.67014 0
M  V30 4632 H 426.252 -0.736926 -1.90761 0
M  V30 4633 H 424.407 0.910891 -3.76539 0
M  V30 4634 H 424.821 -0.787165 -5.1856 0
M  V30 4635 H 426.295 0.903143 -5.44562 0
M  V30 4636 H 426.772 1.80031 -4.00606 0
M  V30 4637 H 427.378 0.146069 -4.25049 0
M  V30 4638 N 425.693 1.55336 -0.266172 0
M  V30 4639 C 426.921 2.03801 0.356756 0
M  V30 4640 C 427.336 1.14485 1.50129 0
M  V30 4641 O 426.693 0.163121 1.8177 0
M  V30 4642 C 426.744 3.51455 0.846281 0
M  V30 4643 O 426.465 4.37371 -0.252663 0
M  V30 4644 C 427.966 4.15767 1.53794 0
M  V30 4645 H 425.186 0.665906 0.0825218 0
M  V30 4646 H 427.73 2.00636 -0.39566 0
M  V30 4647 H 425.885 3.55092 1.54881 0
M  V30 4648 H 426.299 5.24358 0.122173 0
M  V30 4649 H 427.773 5.20714 1.83198 0
M  V30 4650 H 428.25 3.63404 2.46646 0
M  V30 4651 H 428.856 4.16107 0.879488 0
M  V30 4652 N 427.171 -0.0066808 1.57599 0
M  V30 4653 C 428.103 -1.02827 2.04839 0
M  V30 4654 C 429.116 -1.31108 0.965113 0
M  V30 4655 O 430.305 -1.28202 1.24203 0
M  V30 4656 C 427.405 -2.36464 2.42771 0
M  V30 4657 C 426.578 -2.27219 3.73751 0
M  V30 4658 C 425.637 -3.43489 3.98625 0
M  V30 4659 O 424.663 -3.21976 4.69382 0
M  V30 4660 N 425.865 -4.66116 3.46 0
M  V30 4661 H 428.63 -0.625455 2.93101 0
M  V30 4662 H 426.191 -0.194198 1.60731 0
M  V30 4663 H 428.183 -3.13008 2.56531 0
M  V30 4664 H 426.753 -2.68512 1.60063 0
M  V30 4665 H 425.973 -1.35629 3.70133 0
M  V30 4666 H 427.261 -2.18208 4.59633 0
M  V30 4667 H 426.659 -4.86493 2.88688 0
M  V30 4668 H 425.216 -5.39949 3.65101 0
M  V30 4669 N 428.649 -1.55105 -0.279332 0
M  V30 4670 C 429.889 -1.7716 -1.01949 0
M  V30 4671 C 430.253 -0.557511 -1.83728 0
M  V30 4672 O 431.454 -0.656198 -2.60667 0
M  V30 4673 C 429.725 -3.0372 -1.88385 0
M  V30 4674 S 431.284 -3.46868 -2.68752 0
M  V30 4675 H 428.102 -0.62253 -0.343478 0
M  V30 4676 H 430.704 -1.93329 -0.290572 0
M  V30 4677 H 429.408 -3.90184 -1.2722 0
M  V30 4678 H 428.939 -2.902 -2.65608 0
M  V30 4679 H 430.954 -3.05643 -3.90892 0
M  V30 4680 N 430.127 0.543554 -1.4793 0
M  V30 4681 C 431.373 1.30201 -1.55485 0
M  V30 4682 C 431.706 1.92925 -0.222201 0
M  V30 4683 O 430.981 1.78586 0.77053 0
M  V30 4684 C 431.264 2.40174 -2.68307 0
M  V30 4685 C 431.117 1.8223 -4.11233 0
M  V30 4686 C 432.436 3.42024 -2.76961 0
M  V30 4687 H 429.555 0.472036 -0.565996 0
M  V30 4688 H 432.197 0.606914 -1.80046 0
M  V30 4689 H 430.347 2.99463 -2.47495 0
M  V30 4690 H 432.019 1.27096 -4.43446 0
M  V30 4691 H 430.262 1.12832 -4.18869 0
M  V30 4692 H 430.933 2.61793 -4.85972 0
M  V30 4693 H 433.409 2.92672 -2.95774 0
M  V30 4694 H 432.285 4.16383 -3.57654 0
M  V30 4695 H 432.546 4.0173 -1.84568 0
M  V30 4696 N 431.605 1.3629 0.791371 0
M  V30 4697 C 432.852 1.30412 1.54916 0
M  V30 4698 C 433.18 -0.117162 1.94147 0
M  V30 4699 O 432.435 -1.08599 1.62803 0
M  V30 4700 C 432.734 2.17068 2.8393 0
M  V30 4701 C 432.4 3.65645 2.63846 0
M  V30 4702 C 431.062 4.0614 2.58077 0
M  V30 4703 C 433.414 4.59855 2.45322 0
M  V30 4704 C 430.742 5.3899 2.31748 0
M  V30 4705 C 433.094 5.9292 2.2052 0
M  V30 4706 C 431.758 6.32542 2.13183 0
M  V30 4707 H 431.028 0.47721 0.566879 0
M  V30 4708 H 433.675 1.68325 0.913172 0
M  V30 4709 H 431.98 1.72085 3.51986 0
M  V30 4710 H 433.677 2.09846 3.4171 0
M  V30 4711 H 430.267 3.33518 2.69191 0
M  V30 4712 H 434.451 4.29443 2.48782 0
M  V30 4713 H 429.707 5.68672 2.24548 0
M  V30 4714 H 433.881 6.65487 2.05182 0
M  V30 4715 H 431.508 7.35412 1.92544 0
M  V30 4716 N 433.083 -1.0153 1.20538 0
M  V30 4717 C 434.494 -1.56598 1.01657 0
M  V30 4718 C 434.845 -1.91505 -0.426668 0
M  V30 4719 O 433.97 -1.72375 -1.30827 0
M  V30 4720 C 434.565 -2.84542 1.83905 0
M  V30 4721 C 433.124 -3.36133 1.69386 0
M  V30 4722 C 432.271 -2.09427 1.81757 0
M  V30 4723 H 435.222 -0.838974 1.34711 0
M  V30 4724 H 435.243 -3.56004 1.34319 0
M  V30 4725 H 434.755 -2.59105 2.8894 0
M  V30 4726 H 432.856 -3.66528 0.669933 0
M  V30 4727 H 432.969 -4.08248 2.50739 0
M  V30 4728 H 431.333 -2.21941 1.24957 0
M  V30 4729 H 432.116 -1.86414 2.88279 0
M  V30 4730 N 434.561 -1.01147 -1.20859 0
M  V30 4731 C 435.493 -0.535546 -2.22855 0
M  V30 4732 C 436.506 0.379323 -1.58319 0
M  V30 4733 O 437.695 0.178489 -1.77605 0
M  V30 4734 C 434.795 0.240962 -3.38042 0
M  V30 4735 C 433.968 -0.674562 -4.32167 0
M  V30 4736 C 433.027 0.053467 -5.26173 0
M  V30 4737 O 432.053 -0.567339 -5.66366 0
M  V30 4738 N 433.255 1.32997 -5.65059 0
M  V30 4739 H 436.02 -1.41268 -2.64317 0
M  V30 4740 H 433.581 -0.888386 -1.35349 0
M  V30 4741 H 435.573 0.737115 -3.97931 0
M  V30 4742 H 434.143 1.01935 -2.95513 0
M  V30 4743 H 433.363 -1.35111 -3.70322 0
M  V30 4744 H 434.651 -1.2974 -4.91981 0
M  V30 4745 H 434.049 1.85536 -5.34409 0
M  V30 4746 H 432.606 1.77095 -6.2728 0
M  V30 4747 N 436.039 1.36541 -0.78704 0
M  V30 4748 C 436.987 2.31965 -0.171724 0
M  V30 4749 C 437.981 1.55689 0.667631 0
M  V30 4750 O 439.187 1.70969 0.562981 0
M  V30 4751 H 435.562 0.751101 -0.0367545 0
M  V30 4752 H 437.533 2.81428 -0.992017 0
M  V30 4753 C 436.282 3.40968 0.680904 0
M  V30 4754 H 435.605 3.99775 0.0443961 0
M  V30 4755 H 437.045 4.10063 1.07815 0
M  V30 4756 C 435.504 2.82338 1.83813 0
M  V30 4757 O 436.034 2.74311 2.93456 0
M  V30 4758 N 434.24 2.39661 1.6435 0
M  V30 4759 H 433.787 2.46389 0.751668 0
M  V30 4760 H 433.745 2.00779 2.4194 0
M  V30 4761 N 437.518 0.538854 1.48102 0
M  V30 4762 C 438.764 0.00801365 2.02798 0
M  V30 4763 C 439.097 -1.3309 1.41424 0
M  V30 4764 O 438.372 -1.86169 0.563158 0
M  V30 4765 C 438.655 -0.104589 3.59948 0
M  V30 4766 C 438.508 1.26012 4.31788 0
M  V30 4767 C 439.827 -0.827055 4.32259 0
M  V30 4768 H 436.946 0.00438624 0.736987 0
M  V30 4769 H 439.588 0.6976 1.7673 0
M  V30 4770 H 437.738 -0.691893 3.82289 0
M  V30 4771 H 439.41 1.88922 4.2084 0
M  V30 4772 H 437.653 1.83968 3.92859 0
M  V30 4773 H 438.324 1.13424 5.40221 0
M  V30 4774 H 440.8 -0.328578 4.14801 0
M  V30 4775 H 439.676 -0.87476 5.41885 0
M  V30 4776 H 439.937 -1.87927 4.0017 0
M  V30 4777 N 438.996 -1.55193 0.274407 0
M  V30 4778 C 440.243 -1.99581 -0.342579 0
M  V30 4779 C 440.571 -1.1628 -1.55914 0
M  V30 4780 O 439.826 -0.22029 -1.94456 0
M  V30 4781 C 440.125 -3.49019 -0.769458 0
M  V30 4782 C 439.791 -4.49598 0.342389 0
M  V30 4783 C 438.453 -4.76821 0.647686 0
M  V30 4784 C 440.805 -5.0964 1.09163 0
M  V30 4785 C 438.133 -5.61354 1.70581 0
M  V30 4786 C 440.485 -5.95323 2.13948 0
M  V30 4787 C 439.149 -6.20867 2.45113 0
M  V30 4788 H 438.419 -0.730319 -0.125358 0
M  V30 4789 H 441.066 -1.87529 0.387971 0
M  V30 4790 H 439.371 -3.58544 -1.57967 0
M  V30 4791 H 441.068 -3.8077 -1.25757 0
M  V30 4792 H 437.658 -4.28496 0.094318 0
M  V30 4793 H 441.842 -4.88632 0.869024 0
M  V30 4794 H 437.098 -5.79392 1.9523 0
M  V30 4795 H 441.272 -6.40881 2.72478 0
M  V30 4796 H 438.899 -6.86162 3.27239 0
M  V30 4797 N 440.474 -0.00167713 -1.576 0
M  V30 4798 C 441.406 1.0174 -2.05382 0
M  V30 4799 C 442.419 1.30595 -0.972052 0
M  V30 4800 O 443.608 1.27542 -1.24882 0
M  V30 4801 C 440.708 2.35174 -2.44022 0
M  V30 4802 C 439.881 2.25234 -3.74951 0
M  V30 4803 C 438.94 3.4137 -4.00441 0
M  V30 4804 O 437.966 3.19483 -4.71083 0
M  V30 4805 N 439.168 4.64275 -3.48467 0
M  V30 4806 H 441.933 0.609902 -2.93428 0
M  V30 4807 H 439.494 0.185672 -1.60832 0
M  V30 4808 H 441.486 3.11643 -2.58187 0
M  V30 4809 H 440.056 2.67659 -1.61485 0
M  V30 4810 H 439.276 1.33664 -3.70847 0
M  V30 4811 H 440.564 2.15767 -4.60784 0
M  V30 4812 H 439.962 4.84955 -2.91264 0
M  V30 4813 H 438.519 5.38005 -3.67959 0
M  V30 4814 N 441.952 1.55251 0.271103 0
M  V30 4815 C 442.899 1.88261 1.33516 0
M  V30 4816 C 443.869 0.734296 1.48988 0
M  V30 4817 O 445.054 0.985741 1.63364 0
M  V30 4818 C 442.194 2.16168 2.69008 0
M  V30 4819 C 441.307 3.43678 2.61743 0
M  V30 4820 C 440.442 3.61276 3.89427 0
M  V30 4821 C 439.481 4.82472 3.7668 0
M  V30 4822 N 438.618 4.96717 4.96202 0
M  V30 4823 H 443.458 2.79015 1.04665 0
M  V30 4824 H 440.995 1.38137 0.505618 0
M  V30 4825 H 442.953 2.30349 3.47844 0
M  V30 4826 H 441.583 1.28646 2.96057 0
M  V30 4827 H 440.635 3.37959 1.74607 0
M  V30 4828 H 441.947 4.3265 2.48224 0
M  V30 4829 H 441.101 3.75284 4.76704 0
M  V30 4830 H 439.84 2.70492 4.05814 0
M  V30 4831 H 438.845 4.68465 2.87786 0
M  V30 4832 H 440.07 5.74692 3.61809 0
M  V30 4833 H 438.016 4.08865 5.12997 0
M  V30 4834 H 437.933 5.79738 4.85222 0
M  V30 4835 H 439.201 5.15113 5.85046 0
M  V30 4836 N 443.43 -0.535701 1.48216 0
M  V30 4837 C 444.678 -1.28928 1.55634 0
M  V30 4838 C 444.999 -1.93645 0.229514 0
M  V30 4839 O 444.269 -1.81038 -0.74846 0
M  V30 4840 H 442.849 -0.47884 0.573342 0
M  V30 4841 H 445.511 -0.623853 1.84646 0
M  V30 4842 H 444.607 -2.07157 2.33436 0
M  V30 4843 N 444.908 -1.36708 -0.784132 0
M  V30 4844 C 446.157 -1.30559 -1.53744 0
M  V30 4845 C 446.47 0.111374 -1.95283 0
M  V30 4846 O 447.676 0.29527 -2.6989 0
M  V30 4847 C 446.132 -2.29098 -2.77565 0
M  V30 4848 C 445.74 -3.76258 -2.43174 0
M  V30 4849 C 447.484 -2.31936 -3.55536 0
M  V30 4850 C 445.391 -4.6656 -3.63422 0
M  V30 4851 H 444.321 -0.48518 -0.577162 0
M  V30 4852 H 446.972 -1.62101 -0.859981 0
M  V30 4853 H 445.354 -1.90557 -3.47137 0
M  V30 4854 H 446.528 -4.23565 -1.81465 0
M  V30 4855 H 444.843 -3.76246 -1.78403 0
M  V30 4856 H 447.44 -2.9661 -4.44889 0
M  V30 4857 H 447.783 -1.3294 -3.94503 0
M  V30 4858 H 448.316 -2.6912 -2.92949 0
M  V30 4859 H 445.055 -5.66638 -3.29547 0
M  V30 4860 H 444.575 -4.23966 -4.24279 0
M  V30 4861 H 446.254 -4.8309 -4.30387 0
M  V30 4862 N 446.386 1.0089 -1.21074 0
M  V30 4863 C 447.616 1.77933 -1.04993 0
M  V30 4864 C 448.024 1.84847 0.403495 0
M  V30 4865 O 447.367 1.30606 1.29181 0
M  V30 4866 C 447.429 3.23541 -1.56722 0
M  V30 4867 C 447.093 3.40214 -3.05129 0
M  V30 4868 C 448.09 3.2881 -4.02716 0
M  V30 4869 C 445.775 3.65781 -3.44252 0
M  V30 4870 C 447.769 3.42732 -5.37414 0
M  V30 4871 C 445.456 3.79346 -4.79103 0
M  V30 4872 C 446.454 3.67827 -5.75493 0
M  V30 4873 O 446.142 3.80965 -7.07899 0
M  V30 4874 H 445.874 0.566157 -0.369381 0
M  V30 4875 H 448.428 1.27826 -1.60779 0
M  V30 4876 H 446.658 3.74766 -0.953285 0
M  V30 4877 H 448.347 3.82245 -1.36543 0
M  V30 4878 H 449.113 3.08986 -3.73835 0
M  V30 4879 H 444.992 3.73831 -2.69762 0
M  V30 4880 H 448.536 3.33658 -6.12632 0
M  V30 4881 H 444.433 3.98672 -5.07672 0
M  V30 4882 H 445.201 3.97937 -7.15254 0
M  V30 4883 N 447.864 1.01787 1.20321 0
M  V30 4884 C 448.794 0.609625 2.25401 0
M  V30 4885 C 449.775 -0.375951 1.65893 0
M  V30 4886 O 450.96 -0.261101 1.92437 0
M  V30 4887 C 448.09 -0.0515995 3.47262 0
M  V30 4888 C 447.044 0.855095 4.19371 0
M  V30 4889 C 446.37 0.0595757 5.34667 0
M  V30 4890 C 447.67 2.16374 4.75373 0
M  V30 4891 H 449.364 1.48803 2.59804 0
M  V30 4892 H 446.91 0.716934 1.24884 0
M  V30 4893 H 448.863 -0.348764 4.19954 0
M  V30 4894 H 447.587 -0.964726 3.12027 0
M  V30 4895 H 446.246 1.13628 3.48546 0
M  V30 4896 H 445.894 -0.85524 4.95676 0
M  V30 4897 H 445.594 0.663406 5.83843 0
M  V30 4898 H 447.118 -0.231105 6.10162 0
M  V30 4899 H 448.532 1.92885 5.39878 0
M  V30 4900 H 446.929 2.71853 5.34991 0
M  V30 4901 H 447.999 2.82589 3.94045 0
M  V30 4902 N 449.342 -1.36122 0.79427 0
M  V30 4903 C 450.272 -2.32551 0.210328 0
M  V30 4904 C 451.253 -1.56884 -0.657386 0
M  V30 4905 O 452.438 -1.85014 -0.590207 0
M  V30 4906 C 449.568 -3.41128 -0.651819 0
M  V30 4907 C 448.522 -4.27842 0.116395 0
M  V30 4908 C 447.848 -5.2763 -0.86666 0
M  V30 4909 C 449.148 -5.05647 1.30837 0
M  V30 4910 H 450.842 -2.81636 1.01594 0
M  V30 4911 H 448.388 -1.35407 0.489981 0
M  V30 4912 H 450.341 -4.07581 -1.07031 0
M  V30 4913 H 449.065 -2.90622 -1.49019 0
M  V30 4914 H 447.724 -3.62952 0.515915 0
M  V30 4915 H 447.372 -4.73395 -1.70019 0
M  V30 4916 H 447.072 -5.86514 -0.35705 0
M  V30 4917 H 448.596 -5.96955 -1.28361 0
M  V30 4918 H 450.01 -5.65113 0.965393 0
M  V30 4919 H 448.407 -5.73967 1.75161 0
M  V30 4920 H 449.477 -4.37006 2.10128 0
M  V30 4921 N 450.82 -0.546701 -1.47814 0
M  V30 4922 C 452.236 -0.205717 -1.58269 0
M  V30 4923 C 452.436 1.29153 -1.54667 0
M  V30 4924 O 451.492 2.07098 -1.44453 0
M  V30 4925 C 452.805 -0.823065 -2.89216 0
M  V30 4926 C 454.353 -0.793328 -3.02779 0
M  V30 4927 C 454.828 -1.38955 -4.36412 0
M  V30 4928 N 456.319 -1.35227 -4.43021 0
M  V30 4929 C 457.054 -1.78333 -5.44963 0
M  V30 4930 N 456.55 -2.29246 -6.53772 0
M  V30 4931 N 458.343 -1.69467 -5.35945 0
M  V30 4932 H 450.494 -1.5196 -1.48398 0
M  V30 4933 H 452.757 -0.633078 -0.705632 0
M  V30 4934 H 452.463 -1.8749 -2.97558 0
M  V30 4935 H 452.337 -0.309915 -3.75925 0
M  V30 4936 H 454.724 0.249784 -2.94041 0
M  V30 4937 H 454.805 -1.34412 -2.17639 0
M  V30 4938 H 454.449 -2.43168 -4.45906 0
M  V30 4939 H 454.379 -0.814291 -5.20266 0
M  V30 4940 H 456.87 -0.979739 -3.64979 0
M  V30 4941 H 457.183 -2.60089 -7.27718 0
M  V30 4942 H 455.528 -2.3325 -6.5469 0
M  V30 4943 H 458.719 -1.29477 -4.49837 0
M  V30 4944 H 458.892 -2.03381 -6.15256 0
M  V30 4945 N 452.299 1.55045 -0.282633 0
M  V30 4946 C 453.545 2.00056 0.332481 0
M  V30 4947 C 453.878 1.1708 1.54939 0
M  V30 4948 O 453.153 0.2427 1.9298 0
M  V30 4949 C 453.436 3.53086 0.70725 0
M  V30 4950 C 453.289 4.46813 -0.517521 0
M  V30 4951 C 454.608 4.12245 1.54084 0
M  V30 4952 H 451.727 0.727268 0.119373 0
M  V30 4953 H 454.369 1.85932 -0.391076 0
M  V30 4954 H 452.519 3.65253 1.32372 0
M  V30 4955 H 454.191 4.46579 -1.15607 0
M  V30 4956 H 452.434 4.18163 -1.1542 0
M  V30 4957 H 453.105 5.51595 -0.211426 0
M  V30 4958 H 455.581 4.03401 1.02013 0
M  V30 4959 H 454.457 5.19515 1.77186 0
M  V30 4960 H 454.718 3.62951 2.52427 0
M  V30 4961 N 453.777 0.010035 1.57597 0
M  V30 4962 C 454.709 -1.00649 2.05918 0
M  V30 4963 C 455.722 -1.30077 0.978964 0
M  V30 4964 O 456.911 -1.26878 1.25556 0
M  V30 4965 C 454.011 -2.33876 2.45265 0
M  V30 4966 C 453.184 -2.23242 3.7614 0
M  V30 4967 C 452.243 -3.39242 4.02245 0
M  V30 4968 O 451.269 -3.1698 4.72771 0
M  V30 4969 N 452.471 -4.6242 3.50924 0
M  V30 4970 H 455.236 -0.594333 2.93748 0
M  V30 4971 H 452.797 -0.17714 1.60928 0
M  V30 4972 H 454.789 -3.1027 2.59836 0
M  V30 4973 H 453.359 -2.66799 1.62902 0
M  V30 4974 H 452.579 -1.31696 3.71551 0
M  V30 4975 H 453.867 -2.13321 4.61922 0
M  V30 4976 H 453.265 -4.83404 2.93832 0
M  V30 4977 H 451.822 -5.36046 3.70807 0
M  V30 4978 N 455.255 -1.55392 -0.262866 0
M  V30 4979 C 456.218 -1.88181 -1.30846 0
M  V30 4980 C 457.218 -0.757079 -1.41862 0
M  V30 4981 O 458.408 -1.02519 -1.40838 0
M  V30 4982 C 455.54 -2.09609 -2.68844 0
M  V30 4983 H 456.733 -2.81659 -1.02997 0
M  V30 4984 H 454.286 -1.48039 -0.501414 0
M  V30 4985 H 455.021 -1.18547 -3.01856 0
M  V30 4986 H 454.806 -2.91508 -2.62231 0
M  V30 4987 H 456.296 -2.36215 -3.44372 0
M  V30 4988 N 456.733 0.527833 -1.48498 0
M  V30 4989 C 457.958 1.313 -1.60546 0
M  V30 4990 C 458.383 1.86199 -0.26672 0
M  V30 4991 O 457.741 1.64513 0.761918 0
M  V30 4992 C 457.789 2.43818 -2.65678 0
M  V30 4993 O 456.893 3.46916 -2.22987 0
M  V30 4994 H 456.234 0.388784 -0.538277 0
M  V30 4995 H 458.764 0.634896 -1.945 0
M  V30 4996 H 458.774 2.89973 -2.87018 0
M  V30 4997 H 457.449 2.03222 -3.62869 0
M  V30 4998 H 456.026 3.06864 -2.11869 0
M  V30 4999 N 458.211 1.37122 0.776871 0
M  V30 5000 C 459.488 1.22586 1.52421 0
M  V30 5001 C 459.868 -0.182726 2.10308 0
M  V30 5002 O 459.216 -1.18979 1.9508 0
M  V30 5003 C 459.426 2.31782 2.60918 0
M  V30 5004 C 460.774 2.69071 3.2846 0
M  V30 5005 O 461.798 2.3092 2.71209 0
M  V30 5006 O 460.657 3.3478 4.31954 0
M  V30 5007 H 457.751 0.478045 0.674835 0
M  V30 5008 H 460.297 1.48888 0.814275 0
M  V30 5009 H 459.069 3.26131 2.16227 0
M  V30 5010 H 458.692 2.06916 3.39517 0
M  V30 5011 N 459.689 -1.00246 1.21608 0
M  V30 5012 C 460.937 -1.73717 1.0328 0
M  V30 5013 C 461.258 -1.90102 -0.434318 0
M  V30 5014 O 460.528 -1.45376 -1.31311 0
M  V30 5015 H 459.108 -0.643613 0.379172 0
M  V30 5016 H 461.77 -1.20787 1.52959 0
M  V30 5017 H 460.866 -2.73535 1.50283 0
M  V30 5018 N 461.167 -1.02423 -1.1978 0
M  V30 5019 C 462.115 -0.594474 -2.24875 0
M  V30 5020 C 463.109 0.370598 -1.65296 0
M  V30 5021 O 464.315 0.239684 -1.78397 0
M  V30 5022 H 460.69 -0.173961 -0.731602 0
M  V30 5023 H 462.661 -1.4916 -2.58445 0
M  V30 5024 C 461.41 0.0436512 -3.47673 0
M  V30 5025 H 460.733 -0.689963 -3.93801 0
M  V30 5026 H 462.173 0.307362 -4.22884 0
M  V30 5027 C 460.632 1.28881 -3.11274 0
M  V30 5028 O 461.162 2.38135 -3.23503 0
M  V30 5029 N 459.368 1.1758 -2.6575 0
M  V30 5030 H 458.915 0.286769 -2.55999 0
M  V30 5031 H 458.873 2.00988 -2.41767 0
M  V30 5032 N 462.645 1.35699 -0.801477 0
M  V30 5033 C 463.593 2.3177 -0.196317 0
M  V30 5034 C 464.587 1.56388 0.651081 0
M  V30 5035 O 465.793 1.71557 0.544815 0
M  V30 5036 H 462.168 0.750669 -0.0447189 0
M  V30 5037 H 464.139 2.8036 -1.02181 0
M  V30 5038 C 462.888 3.41671 0.644702 0
M  V30 5039 H 462.211 3.998 0.0019921 0
M  V30 5040 H 463.651 4.11184 1.0346 0
M  V30 5041 C 462.11 2.84271 1.80808 0
M  V30 5042 O 462.64 2.77408 2.9053 0
M  V30 5043 N 460.846 2.41391 1.61799 0
M  V30 5044 H 460.393 2.47173 0.725493 0
M  V30 5045 H 460.351 2.03334 2.39797 0
M  V30 5046 N 464.123 0.554532 1.47522 0
M  V30 5047 C 465.351 0.034257 2.06872 0
M  V30 5048 C 465.766 -1.25826 1.40759 0
M  V30 5049 O 465.123 -1.75425 0.503217 0
M  V30 5050 C 465.174 -0.167827 3.6111 0
M  V30 5051 O 464.895 1.07351 4.24744 0
M  V30 5052 C 466.396 -0.72569 4.3732 0
M  V30 5053 H 463.616 0.0446275 0.669514 0
M  V30 5054 H 466.16 0.767181 1.89564 0
M  V30 5055 H 464.315 -0.850872 3.7794 0
M  V30 5056 H 464.729 0.869563 5.17242 0
M  V30 5057 H 466.203 -0.816394 5.45929 0
M  V30 5058 H 466.68 -1.73635 4.0342 0
M  V30 5059 H 467.286 -0.0784292 4.25228 0
M  V30 5060 N 465.601 -1.54893 0.290851 0
M  V30 5061 C 466.826 -2.04804 -0.32712 0
M  V30 5062 C 467.251 -1.16721 -1.47506 0
M  V30 5063 O 466.609 -0.169107 -1.8051 0
M  V30 5064 C 466.657 -3.52268 -0.770689 0
M  V30 5065 O 465.761 -3.67236 -1.87647 0
M  V30 5066 H 465.102 -0.660789 -0.0652227 0
M  V30 5067 H 467.632 -2.00036 0.429739 0
M  V30 5068 H 467.642 -3.9393 -1.06223 0
M  V30 5069 H 466.317 -4.15843 0.069096 0
M  V30 5070 H 464.894 -3.37479 -1.58626 0
M  V30 5071 N 467.08 -0.0183926 -1.57589 0
M  V30 5072 C 468.327 0.662562 -1.91354 0
M  V30 5073 C 468.655 1.72747 -0.893788 0
M  V30 5074 O 467.91 1.9545 0.0988509 0
M  V30 5075 C 468.209 1.32676 -3.31861 0
M  V30 5076 C 467.875 0.393267 -4.49182 0
M  V30 5077 C 466.537 0.136302 -4.81007 0
M  V30 5078 C 468.889 -0.248366 -5.20608 0
M  V30 5079 C 466.217 -0.770282 -5.81621 0
M  V30 5080 C 468.569 -1.14294 -6.22189 0
M  V30 5081 C 467.233 -1.4089 -6.52462 0
M  V30 5082 H 466.503 0.242448 -0.700214 0
M  V30 5083 H 469.15 -0.0778629 -1.91342 0
M  V30 5084 H 467.455 2.14168 -3.28084 0
M  V30 5085 H 469.152 1.86001 -3.55253 0
M  V30 5086 H 465.742 0.603723 -4.24327 0
M  V30 5087 H 469.926 -0.062883 -4.9626 0
M  V30 5088 H 465.182 -0.984154 -6.03427 0
M  V30 5089 H 469.356 -1.64637 -6.76659 0
M  V30 5090 H 466.983 -2.11306 -7.30242 0
M  V30 5091 N 468.558 1.5553 0.254621 0
M  V30 5092 C 469.804 1.7818 0.980989 0
M  V30 5093 C 470.159 0.586059 1.83257 0
M  V30 5094 O 469.452 -0.420889 1.8692 0
M  V30 5095 C 469.646 3.03891 1.88109 0
M  V30 5096 C 469.475 4.35578 1.11812 0
M  V30 5097 C 468.245 4.98497 0.826343 0
M  V30 5098 C 470.443 5.11869 0.499486 0
M  V30 5099 N 468.425 6.13888 0.0385095 0
M  V30 5100 C 469.796 6.1981 -0.153292 0
M  V30 5101 C 471.851 4.96216 0.409175 0
M  V30 5102 C 470.554 7.13801 -0.8877 0
M  V30 5103 C 472.58 5.90578 -0.311683 0
M  V30 5104 C 471.942 6.97922 -0.953129 0
M  V30 5105 H 468.041 0.704057 0.340335 0
M  V30 5106 H 470.625 1.93025 0.254855 0
M  V30 5107 H 468.796 2.90389 2.57932 0
M  V30 5108 H 470.528 3.14869 2.54244 0
M  V30 5109 H 467.283 4.59769 1.13621 0
M  V30 5110 H 467.707 6.76129 -0.343275 0
M  V30 5111 H 472.349 4.1331 0.890765 0
M  V30 5112 H 470.067 7.96214 -1.38092 0
M  V30 5113 H 473.653 5.80544 -0.382125 0
M  V30 5114 H 472.533 7.69681 -1.50203 0
M  V30 5115 N 470.036 -0.519951 1.48776 0
M  V30 5116 C 471.261 -1.30447 1.6124 0
M  V30 5117 C 471.686 -1.86055 0.276591 0
M  V30 5118 O 471.044 -1.64915 -0.753183 0
M  V30 5119 C 471.092 -2.42406 2.66967 0
M  V30 5120 O 470.196 -3.45728 2.24824 0
M  V30 5121 H 469.537 -0.385924 0.540332 0
M  V30 5122 H 472.067 -0.624572 1.94834 0
M  V30 5123 H 472.077 -2.88447 2.88552 0
M  V30 5124 H 470.752 -2.01294 3.63941 0
M  V30 5125 H 469.329 -3.05737 2.13494 0
M  V30 5126 N 471.514 -1.37532 -0.769588 0
M  V30 5127 C 472.424 -1.35668 -1.91393 0
M  V30 5128 C 473.44 -0.255954 -1.72107 0
M  V30 5129 O 474.616 -0.491704 -1.95305 0
M  V30 5130 C 471.681 -1.16481 -3.26547 0
M  V30 5131 C 470.742 -2.36212 -3.58472 0
M  V30 5132 C 469.975 -2.17932 -4.87177 0
M  V30 5133 O 470.198 -1.1647 -5.58382 0
M  V30 5134 O 469.132 -3.06167 -5.18214 0
M  V30 5135 H 472.958 -2.32055 -1.95918 0
M  V30 5136 H 470.543 -1.18284 -0.912641 0
M  V30 5137 H 472.425 -1.07778 -4.07384 0
M  V30 5138 H 471.1 -0.231687 -3.2287 0
M  V30 5139 H 470.007 -2.50488 -2.77861 0
M  V30 5140 H 471.34 -3.281 -3.66894 0
M  V30 5141 N 472.992 0.995999 -1.22138 0
M  V30 5142 C 473.902 2.11985 -1.00496 0
M  V30 5143 C 474.918 1.7394 0.0457701 0
M  V30 5144 O 476.094 2.00868 -0.146273 0
M  V30 5145 C 473.159 3.41779 -0.582086 0
M  V30 5146 C 472.22 3.93943 -1.70608 0
M  V30 5147 C 471.453 5.17542 -1.30328 0
M  V30 5148 O 471.676 5.70114 -0.180743 0
M  V30 5149 O 470.61 5.63382 -2.11861 0
M  V30 5150 H 474.436 2.33123 -1.94647 0
M  V30 5151 H 472.021 1.10358 -1.00705 0
M  V30 5152 H 473.903 4.1989 -0.356467 0
M  V30 5153 H 472.578 3.22007 0.330592 0
M  V30 5154 H 471.485 3.17019 -1.98619 0
M  V30 5155 H 472.818 4.18141 -2.59651 0
M  V30 5156 N 474.47 1.03057 1.19235 0
M  V30 5157 C 475.719 0.72326 1.88287 0
M  V30 5158 C 476.032 -0.751333 1.80594 0
M  V30 5159 O 477.238 -1.17176 2.44912 0
M  V30 5160 C 475.694 1.24338 3.3774 0
M  V30 5161 C 475.302 2.74587 3.53986 0
M  V30 5162 C 477.046 1.01213 4.12257 0
M  V30 5163 C 474.953 3.20009 4.97341 0
M  V30 5164 H 473.883 0.266848 0.705201 0
M  V30 5165 H 476.534 1.24509 1.34795 0
M  V30 5166 H 474.916 0.649457 3.90638 0
M  V30 5167 H 476.09 3.39649 3.11408 0
M  V30 5168 H 474.405 2.9601 2.9286 0
M  V30 5169 H 477.002 1.32675 5.17978 0
M  V30 5170 H 477.345 -0.051001 4.16269 0
M  V30 5171 H 477.878 1.57014 3.65501 0
M  V30 5172 H 474.617 4.25659 4.98493 0
M  V30 5173 H 474.137 2.59676 5.40674 0
M  V30 5174 H 475.816 3.13447 5.66003 0
M  V30 5175 N 475.948 -1.35272 0.808662 0
M  V30 5176 C 476.895 -2.29764 0.218482 0
M  V30 5177 C 477.865 -1.52911 -0.648652 0
M  V30 5178 O 479.05 -1.81341 -0.593297 0
M  V30 5179 C 476.19 -3.39388 -0.625282 0
M  V30 5180 C 475.303 -4.31202 0.262516 0
M  V30 5181 C 474.438 -5.27919 -0.589451 0
M  V30 5182 C 473.477 -6.11371 0.298617 0
M  V30 5183 N 472.614 -7.0022 -0.513443 0
M  V30 5184 H 477.454 -2.79645 1.02968 0
M  V30 5185 H 474.991 -1.37629 0.519303 0
M  V30 5186 H 476.949 -4.01615 -1.12966 0
M  V30 5187 H 475.579 -2.90777 -1.40173 0
M  V30 5188 H 474.631 -3.69962 0.885013 0
M  V30 5189 H 475.943 -4.89748 0.945971 0
M  V30 5190 H 475.097 -5.95529 -1.15888 0
M  V30 5191 H 473.836 -4.69875 -1.30647 0
M  V30 5192 H 472.841 -5.42707 0.880301 0
M  V30 5193 H 474.066 -6.71494 1.01352 0
M  V30 5194 H 472.012 -6.44662 -1.21439 0
M  V30 5195 H 471.929 -7.55917 0.111922 0
M  V30 5196 H 473.197 -7.72175 -1.06608 0
M  V30 5197 N 477.426 -0.562348 -1.47226 0
M  V30 5198 C 478.673 -0.0402165 -2.0246 0
M  V30 5199 C 479.001 1.31169 -1.43614 0
M  V30 5200 O 478.256 1.86805 -0.5833 0
M  V30 5201 C 478.555 0.0969817 -3.57268 0
M  V30 5202 C 478.221 -1.1847 -4.35058 0
M  V30 5203 C 476.883 -1.53588 -4.56031 0
M  V30 5204 C 479.235 -2.03378 -4.79882 0
M  V30 5205 C 476.563 -2.73452 -5.19077 0
M  V30 5206 C 478.915 -3.2245 -5.44251 0
M  V30 5207 C 477.579 -3.57876 -5.63455 0
M  V30 5208 H 476.849 -0.0147163 -0.740854 0
M  V30 5209 H 479.496 -0.734895 -1.76838 0
M  V30 5210 H 477.801 0.87466 -3.81912 0
M  V30 5211 H 479.498 0.516408 -3.97661 0
M  V30 5212 H 476.088 -0.90126 -4.19017 0
M  V30 5213 H 480.272 -1.77553 -4.63453 0
M  V30 5214 H 475.528 -3.01062 -5.32139 0
M  V30 5215 H 479.702 -3.88526 -5.77945 0
M  V30 5216 H 477.329 -4.50849 -6.12078 0
M  V30 5217 N 478.904 1.54736 -0.299062 0
M  V30 5218 C 480.181 1.92187 0.363802 0
M  V30 5219 C 480.561 1.22607 1.71845 0
M  V30 5220 O 479.909 0.361141 2.25628 0
M  V30 5221 C 480.119 3.45678 0.480377 0
M  V30 5222 C 481.467 4.17885 0.752147 0
M  V30 5223 O 482.491 3.51702 0.564264 0
M  V30 5224 O 481.35 5.35048 1.11294 0
M  V30 5225 H 478.444 0.801681 0.203066 0
M  V30 5226 H 480.99 1.66115 -0.346978 0
M  V30 5227 H 479.762 3.88443 -0.471999 0
M  V30 5228 H 479.385 3.77779 1.2397 0
M  V30 5229 N 480.382 0.0267497 1.57577 0
M  V30 5230 C 481.61 -0.662661 1.96001 0
M  V30 5231 C 482.025 -1.65799 0.903117 0
M  V30 5232 O 481.382 -1.82135 -0.115317 0
M  V30 5233 C 481.433 -1.37112 3.34488 0
M  V30 5234 O 481.154 -0.415683 4.36123 0
M  V30 5235 C 482.655 -2.15257 3.8753 0
M  V30 5236 H 479.875 -0.18287 0.6456 0
M  V30 5237 H 482.419 0.0858116 2.0432 0
M  V30 5238 H 480.574 -2.07101 3.27395 0
M  V30 5239 H 480.988 -0.918496 5.16395 0
M  V30 5240 H 482.462 -2.60285 4.86781 0
M  V30 5241 H 482.939 -2.99063 3.21649 0
M  V30 5242 H 483.545 -1.50231 3.97883 0
M  V30 5243 N 481.861 -1.55662 -0.24637 0
M  V30 5244 C 482.771 -1.93495 -1.32653 0
M  V30 5245 C 483.787 -0.835462 -1.5263 0
M  V30 5246 O 484.963 -1.1369 -1.66242 0
M  V30 5247 C 482.028 -2.22242 -2.66101 0
M  V30 5248 C 481.089 -3.45625 -2.54641 0
M  V30 5249 C 480.322 -3.72991 -3.81724 0
M  V30 5250 O 480.545 -3.02421 -4.8363 0
M  V30 5251 O 479.479 -4.66515 -3.80325 0
M  V30 5252 H 483.305 -2.85498 -1.03559 0
M  V30 5253 H 480.89 -1.42551 -0.44717 0
M  V30 5254 H 482.772 -2.42037 -3.44958 0
M  V30 5255 H 481.447 -1.33417 -2.94926 0
M  V30 5256 H 480.354 -3.31136 -1.74067 0
M  V30 5257 H 481.687 -4.34754 -2.3076 0
M  V30 5258 N 483.339 0.512053 -1.4905 0
M  V30 5259 C 484.588 1.26343 -1.57227 0
M  V30 5260 C 484.901 1.93876 -0.259155 0
M  V30 5261 O 486.107 2.70612 -0.219358 0
M  V30 5262 C 484.563 2.29343 -2.77362 0
M  V30 5263 C 484.171 1.67799 -4.15388 0
M  V30 5264 C 485.915 3.05378 -2.94864 0
M  V30 5265 C 483.822 2.68845 -5.2676 0
M  V30 5266 H 482.752 0.475231 -0.585382 0
M  V30 5267 H 485.403 0.53862 -1.75417 0
M  V30 5268 H 483.785 3.04938 -2.52643 0
M  V30 5269 H 484.959 0.982715 -4.50199 0
M  V30 5270 H 483.274 1.04194 -4.03153 0
M  V30 5271 H 485.871 3.80921 -3.75238 0
M  V30 5272 H 486.214 3.62327 -2.05 0
M  V30 5273 H 486.747 2.36898 -3.19569 0
M  V30 5274 H 483.486 2.16692 -6.18647 0
M  V30 5275 H 483.006 3.36647 -4.96416 0
M  V30 5276 H 484.685 3.31487 -5.5563 0
M  V30 5277 N 484.817 1.37938 0.762283 0
M  V30 5278 C 485.749 1.30349 1.88525 0
M  V30 5279 C 486.762 0.217402 1.61342 0
M  V30 5280 O 487.951 0.474291 1.72084 0
M  V30 5281 C 485.051 0.994844 3.23969 0
M  V30 5282 C 484.224 2.18829 3.78725 0
M  V30 5283 C 483.283 1.84844 4.92665 0
M  V30 5284 O 482.309 2.57244 5.07754 0
M  V30 5285 N 483.511 0.798201 5.74986 0
M  V30 5286 H 486.276 2.27114 1.95549 0
M  V30 5287 H 483.837 1.31686 0.941825 0
M  V30 5288 H 485.829 0.748168 3.97724 0
M  V30 5289 H 484.399 0.115446 3.12387 0
M  V30 5290 H 483.619 2.59615 2.96637 0
M  V30 5291 H 484.907 2.98497 4.1204 0
M  V30 5292 H 484.305 0.197611 5.65355 0
M  V30 5293 H 482.862 0.611396 6.48926 0
M  V30 5294 N 486.295 -0.989507 1.22664 0
M  V30 5295 C 487.258 -2.06183 1.00106 0
M  V30 5296 C 488.258 -1.60765 -0.0337726 0
M  V30 5297 O 489.448 -1.72989 0.205072 0
M  V30 5298 C 486.58 -3.37021 0.51279 0
M  V30 5299 H 487.773 -2.27629 1.95256 0
M  V30 5300 H 485.326 -1.16158 1.0458 0
M  V30 5301 H 486.061 -3.21261 -0.442917 0
M  V30 5302 H 485.846 -3.71323 1.25942 0
M  V30 5303 H 487.336 -4.1591 0.375315 0
M  V30 5304 N 487.773 -1.03688 -1.18687 0
M  V30 5305 C 489.02 -0.73803 -1.88572 0
M  V30 5306 C 489.348 0.733973 -1.8012 0
M  V30 5307 O 488.603 1.55098 -1.19344 0
M  V30 5308 C 488.902 -1.14477 -3.3857 0
M  V30 5309 C 488.568 -2.61641 -3.67226 0
M  V30 5310 C 487.23 -3.01846 -3.74757 0
M  V30 5311 C 489.582 -3.56812 -3.79914 0
M  V30 5312 C 486.91 -4.36118 -3.92451 0
M  V30 5313 C 489.262 -4.90799 -3.99123 0
M  V30 5314 C 487.926 -5.3068 -4.04888 0
M  V30 5315 H 487.196 -0.270064 -0.690034 0
M  V30 5316 H 489.843 -1.3012 -1.40503 0
M  V30 5317 H 488.148 -0.500337 -3.88592 0
M  V30 5318 H 489.845 -0.89095 -3.90977 0
M  V30 5319 H 486.435 -2.29498 -3.61979 0
M  V30 5320 H 490.619 -3.26899 -3.73431 0
M  V30 5321 H 485.875 -4.66542 -3.95157 0
M  V30 5322 H 490.049 -5.64451 -4.07882 0
M  V30 5323 H 487.676 -6.34733 -4.18351 0
M  V30 5324 N 489.251 1.34841 -0.815825 0
M  V30 5325 C 490.181 2.32187 -0.247298 0
M  V30 5326 C 491.162 1.5791 0.632344 0
M  V30 5327 O 492.347 1.8593 0.560698 0
M  V30 5328 C 489.477 3.42122 0.597466 0
M  V30 5329 C 488.431 4.27602 -0.184446 0
M  V30 5330 C 487.757 5.28942 0.782609 0
M  V30 5331 C 489.057 5.03502 -1.38865 0
M  V30 5332 H 490.751 2.79985 -1.06061 0
M  V30 5333 H 488.297 1.34611 -0.511461 0
M  V30 5334 H 490.25 4.09232 1.00533 0
M  V30 5335 H 488.974 2.92956 1.44376 0
M  V30 5336 H 487.633 3.62085 -0.573592 0
M  V30 5337 H 487.281 4.7604 1.62466 0
M  V30 5338 H 486.981 5.87008 0.263695 0
M  V30 5339 H 488.505 5.98922 1.18848 0
M  V30 5340 H 489.919 5.63506 -1.05518 0
M  V30 5341 H 488.316 5.71108 -1.8427 0
M  V30 5342 H 489.386 4.33608 -2.17054 0
M  V30 5343 N 490.729 0.570148 1.46925 0
M  V30 5344 C 491.659 -0.158274 2.32963 0
M  V30 5345 C 492.64 -0.896093 1.44583 0
M  V30 5346 O 493.825 -0.874022 1.7342 0
M  V30 5347 C 490.955 -1.18055 3.26619 0
M  V30 5348 C 489.909 -0.558379 4.24342 0
M  V30 5349 C 489.235 -1.68623 5.07415 0
M  V30 5350 C 490.535 0.496295 5.19937 0
M  V30 5351 H 492.229 0.560046 2.94115 0
M  V30 5352 H 489.775 0.270775 1.41431 0
M  V30 5353 H 491.728 -1.69841 3.85658 0
M  V30 5354 H 490.452 -1.92899 2.63548 0
M  V30 5355 H 489.111 -0.0617157 3.66548 0
M  V30 5356 H 488.759 -2.42402 4.40738 0
M  V30 5357 H 488.459 -1.27564 5.73586 0
M  V30 5358 H 489.983 -2.20709 5.69315 0
M  V30 5359 H 491.397 0.0640052 5.73264 0
M  V30 5360 H 489.794 0.82649 5.94381 0
M  V30 5361 H 490.864 1.38735 4.6463 0
M  V30 5362 N 492.207 -1.54576 0.307264 0
M  V30 5363 C 493.618 -1.8579 -0.184121 0
M  V30 5364 C 493.969 -1.22914 -1.52927 0
M  V30 5365 O 493.094 -0.529126 -2.09831 0
M  V30 5366 C 493.689 -3.37081 -0.340862 0
M  V30 5367 C 492.248 -3.68304 -0.776465 0
M  V30 5368 C 491.395 -2.77076 0.111503 0
M  V30 5369 H 494.346 -1.49656 0.528078 0
M  V30 5370 H 494.367 -3.61922 -1.17443 0
M  V30 5371 H 493.879 -3.82815 0.638309 0
M  V30 5372 H 491.98 -3.28092 -1.76596 0
M  V30 5373 H 492.093 -4.75434 -0.591512 0
M  V30 5374 H 490.457 -2.51374 -0.410256 0
M  V30 5375 H 491.24 -3.25632 1.08714 0
M  V30 5376 N 493.685 -0.035106 -1.57561 0
M  V30 5377 C 495.096 0.502885 -1.798 0
M  V30 5378 C 495.447 1.71892 -0.945921 0
M  V30 5379 O 494.572 2.15822 -0.157991 0
M  V30 5380 C 495.167 0.919097 -3.26095 0
M  V30 5381 C 493.726 1.40216 -3.49308 0
M  V30 5382 C 492.873 0.369709 -2.74824 0
M  V30 5383 H 495.824 -0.261102 -1.56537 0
M  V30 5384 H 495.845 1.78308 -3.36135 0
M  V30 5385 H 495.357 0.0338526 -3.88085 0
M  V30 5386 H 493.458 2.30714 -2.92578 0
M  V30 5387 H 493.571 1.40541 -4.58023 0
M  V30 5388 H 491.935 0.839113 -2.40481 0
M  V30 5389 H 492.718 -0.507173 -3.39533 0
M  V30 5390 N 495.163 1.55791 0.238111 0
M  V30 5391 C 496.409 1.78297 0.966337 0
M  V30 5392 C 496.742 0.601903 1.84637 0
M  V30 5393 O 496.017 -0.399499 1.90353 0
M  V30 5394 C 496.3 3.10758 1.81939 0
M  V30 5395 C 496.153 4.39283 0.966958 0
M  V30 5396 C 497.472 3.39519 2.80027 0
M  V30 5397 H 494.591 0.648654 0.349882 0
M  V30 5398 H 497.233 1.88525 0.236253 0
M  V30 5399 H 495.383 3.02168 2.44185 0
M  V30 5400 H 497.055 4.59873 0.362514 0
M  V30 5401 H 495.298 4.32948 0.271669 0
M  V30 5402 H 495.969 5.28368 1.59784 0
M  V30 5403 H 498.445 3.48128 2.27917 0
M  V30 5404 H 497.321 4.33402 3.36829 0
M  V30 5405 H 497.582 2.60864 3.56934 0
M  V30 5406 N 496.642 -0.504142 1.49319 0
M  V30 5407 C 497.889 -1.25846 1.58647 0
M  V30 5408 C 498.217 -1.92592 0.27177 0
M  V30 5409 O 497.472 -1.81167 -0.74007 0
M  V30 5410 C 497.771 -2.35021 2.69258 0
M  V30 5411 C 497.437 -1.85755 4.1086 0
M  V30 5412 C 496.099 -1.72038 4.49395 0
M  V30 5413 C 498.451 -1.48844 4.99495 0
M  V30 5414 C 495.779 -1.19783 5.74342 0
M  V30 5415 C 498.131 -0.980422 6.24956 0
M  V30 5416 C 496.795 -0.829622 6.62324 0
M  V30 5417 H 496.065 -0.460505 0.580531 0
M  V30 5418 H 498.712 -0.559716 1.83138 0
M  V30 5419 H 497.017 -3.10672 2.38726 0
M  V30 5420 H 498.714 -2.93083 2.73685 0
M  V30 5421 H 495.304 -1.9739 3.80441 0
M  V30 5422 H 499.488 -1.5829 4.70381 0
M  V30 5423 H 494.744 -1.06817 6.01997 0
M  V30 5424 H 498.918 -0.685608 6.93017 0
M  V30 5425 H 496.545 -0.42253 7.59025 0
M  V30 5426 N 498.12 -1.38341 -0.754957 0
M  V30 5427 C 499.068 -1.35573 -1.89005 0
M  V30 5428 C 500.062 -0.241824 -1.67665 0
M  V30 5429 O 501.268 -0.410785 -1.7525 0
M  V30 5430 H 497.643 -0.422898 -0.621821 0
M  V30 5431 H 499.614 -2.31359 -1.88455 0
M  V30 5432 C 498.363 -1.19631 -3.26471 0
M  V30 5433 H 497.686 -2.04605 -3.43477 0
M  V30 5434 H 499.126 -1.21748 -4.06144 0
M  V30 5435 C 497.585 0.0968705 -3.36761 0
M  V30 5436 O 498.115 1.07439 -3.87066 0
M  V30 5437 N 496.321 0.153242 -2.90196 0
M  V30 5438 H 495.868 -0.642908 -2.49448 0
M  V30 5439 H 495.826 1.01807 -2.9746 0
M  V30 5440 N 499.598 0.982988 -1.23187 0
M  V30 5441 C 500.847 1.71817 -1.05649 0
M  V30 5442 C 501.16 1.91315 0.407176 0
M  V30 5443 O 502.366 2.62256 0.702436 0
M  V30 5444 C 500.822 3.09188 -1.84203 0
M  V30 5445 C 500.43 2.97586 -3.34882 0
M  V30 5446 C 502.174 3.86684 -1.75146 0
M  V30 5447 C 500.081 4.30173 -4.05839 0
M  V30 5448 H 499.011 0.644258 -0.391724 0
M  V30 5449 H 501.662 1.09659 -1.4713 0
M  V30 5450 H 500.044 3.72087 -1.35527 0
M  V30 5451 H 501.218 2.43793 -3.91026 0
M  V30 5452 H 499.533 2.33567 -3.44725 0
M  V30 5453 H 502.13 4.84836 -2.25473 0
M  V30 5454 H 502.473 4.10136 -0.713737 0
M  V30 5455 H 503.006 3.30482 -2.21419 0
M  V30 5456 H 499.745 4.11918 -5.09906 0
M  V30 5457 H 499.265 4.83841 -3.54482 0
M  V30 5458 H 500.944 4.98873 -4.11989 0
M  V30 5459 N 501.076 1.04316 1.18135 0
M  V30 5460 C 502.492 0.762858 1.40188 0
M  V30 5461 C 502.692 -0.646547 1.90846 0
M  V30 5462 O 501.748 -1.41036 2.0944 0
M  V30 5463 C 503.061 1.81106 2.40044 0
M  V30 5464 C 504.609 1.83226 2.53766 0
M  V30 5465 C 505.084 2.87044 3.56889 0
M  V30 5466 N 506.575 2.85951 3.64398 0
M  V30 5467 C 507.31 3.62932 4.43923 0
M  V30 5468 N 506.806 4.49672 5.27036 0
M  V30 5469 N 508.599 3.51411 4.38711 0
M  V30 5470 H 500.75 1.95264 0.835805 0
M  V30 5471 H 503.013 0.845017 0.429709 0
M  V30 5472 H 502.719 2.82214 2.09876 0
M  V30 5473 H 502.593 1.64529 3.39426 0
M  V30 5474 H 504.98 0.827869 2.8325 0
M  V30 5475 H 505.061 2.03879 1.54489 0
M  V30 5476 H 504.705 3.87663 3.28145 0
M  V30 5477 H 504.635 2.63645 4.5585 0
M  V30 5478 H 507.126 2.23051 3.05052 0
M  V30 5479 H 507.439 5.05116 5.84874 0
M  V30 5480 H 505.784 4.53738 5.26447 0
M  V30 5481 H 508.975 2.83047 3.72829 0
M  V30 5482 H 509.148 4.11654 5.00445 0
M  V30 5483 N 502.554 -1.34406 0.822964 0
M  V30 5484 C 503.779 -2.0304 0.423034 0
M  V30 5485 C 504.204 -1.61568 -0.963196 0
M  V30 5486 O 503.562 -0.800339 -1.62678 0
M  V30 5487 C 503.61 -3.56636 0.53321 0
M  V30 5488 O 502.714 -4.09971 -0.446939 0
M  V30 5489 H 502.055 -0.64075 0.174171 0
M  V30 5490 H 504.585 -1.71653 1.11339 0
M  V30 5491 H 504.595 -4.05945 0.408991 0
M  V30 5492 H 503.27 -3.86168 1.54425 0
M  V30 5493 H 501.847 -3.71835 -0.281601 0
M  V30 5494 N 504.032 -0.577932 -1.46621 0
M  V30 5495 C 504.962 0.145917 -2.33044 0
M  V30 5496 C 505.943 0.888412 -1.45056 0
M  V30 5497 O 507.128 0.864812 -1.73881 0
M  V30 5498 C 504.258 1.16322 -3.27241 0
M  V30 5499 C 503.212 0.535868 -4.24632 0
M  V30 5500 C 502.538 1.65929 -5.08303 0
M  V30 5501 C 503.838 -0.523861 -5.19666 0
M  V30 5502 H 505.532 -0.575636 -2.93814 0
M  V30 5503 H 503.078 -0.278272 -1.41286 0
M  V30 5504 H 505.031 1.67793 -3.86553 0
M  V30 5505 H 503.755 1.91498 -2.64567 0
M  V30 5506 H 502.414 0.0422759 -3.66576 0
M  V30 5507 H 502.062 2.40061 -4.42018 0
M  V30 5508 H 501.762 1.2452 -5.74255 0
M  V30 5509 H 503.286 2.17686 -5.70478 0
M  V30 5510 H 504.7 -0.0944059 -5.73222 0
M  V30 5511 H 503.097 -0.858 -5.93935 0
M  V30 5512 H 504.167 -1.41197 -4.63887 0
M  V30 5513 N 505.51 1.54411 -0.315457 0
M  V30 5514 C 506.735 2.05299 0.294496 0
M  V30 5515 C 507.16 1.19052 1.4563 0
M  V30 5516 O 506.518 0.197804 1.80218 0
M  V30 5517 C 506.566 3.5345 0.714549 0
M  V30 5518 O 505.67 3.70175 1.81781 0
M  V30 5519 H 505.011 0.661743 0.0547019 0
M  V30 5520 H 507.541 1.99327 -0.461508 0
M  V30 5521 H 507.551 3.9557 0.999426 0
M  V30 5522 H 506.226 4.1568 -0.135244 0
M  V30 5523 H 504.803 3.3996 1.53236 0
M  V30 5524 N 506.988 0.0434614 1.5754 0
M  V30 5525 C 508.265 -0.671479 1.83713 0
M  V30 5526 C 508.645 -1.89495 0.930315 0
M  V30 5527 O 507.993 -2.28498 -0.0105639 0
M  V30 5528 C 508.203 -1.0361 3.33266 0
M  V30 5529 C 509.551 -1.42167 4.00092 0
M  V30 5530 O 510.575 -1.12866 3.37846 0
M  V30 5531 O 509.434 -1.96817 5.09829 0
M  V30 5532 H 506.528 -0.330726 0.75799 0
M  V30 5533 H 509.074 0.0722373 1.69546 0
M  V30 5534 H 507.846 -0.165938 3.90948 0
M  V30 5535 H 507.469 -1.83751 3.52592 0
M  V30 5536 N 508.466 -1.55915 -0.229846 0
M  V30 5537 C 509.691 -1.8296 -0.976743 0
M  V30 5538 C 510.116 -0.622735 -1.77493 0
M  V30 5539 O 509.474 0.428431 -1.76165 0
M  V30 5540 C 509.522 -3.07916 -1.8767 0
M  V30 5541 O 508.626 -2.86028 -2.97088 0
M  V30 5542 H 507.967 -0.603453 -0.277021 0
M  V30 5543 H 510.497 -2.0312 -0.245669 0
M  V30 5544 H 510.507 -3.37802 -2.2881 0
M  V30 5545 H 509.182 -3.95389 -1.28996 0
M  V30 5546 H 507.759 -2.67355 -2.59954 0
M  V30 5547 N 509.944 0.496216 -1.49584 0
M  V30 5548 C 511.191 1.25003 -1.59312 0
M  V30 5549 C 511.519 1.92445 -0.28198 0
M  V30 5550 O 510.774 1.81557 0.730452 0
M  V30 5551 C 511.073 2.3359 -2.705 0
M  V30 5552 C 510.739 1.83574 -4.11839 0
M  V30 5553 C 509.401 1.69653 -4.50302 0
M  V30 5554 C 511.753 1.46193 -5.00277 0
M  V30 5555 C 509.081 1.16736 -5.74969 0
M  V30 5556 C 511.433 0.947265 -6.25468 0
M  V30 5557 C 510.097 0.794485 -6.62755 0
M  V30 5558 H 509.367 0.45742 -0.582965 0
M  V30 5559 H 512.014 0.549996 -1.83432 0
M  V30 5560 H 510.319 3.09401 -2.40371 0
M  V30 5561 H 512.016 2.91627 -2.75235 0
M  V30 5562 H 508.606 1.9537 -3.81482 0
M  V30 5563 H 512.79 1.55793 -4.71214 0
M  V30 5564 H 508.046 1.03623 -6.02555 0
M  V30 5565 H 512.22 0.648846 -6.93371 0
M  V30 5566 H 509.847 0.382271 -7.59238 0
M  V30 5567 N 511.423 1.38739 0.74761 0
M  V30 5568 C 512.373 1.32948 1.85226 0
M  V30 5569 C 513.357 0.212642 1.59489 0
M  V30 5570 O 514.549 0.449121 1.71207 0
M  V30 5571 C 511.678 1.16279 3.23008 0
M  V30 5572 C 510.764 2.32611 3.54617 0
M  V30 5573 N 511.155 3.58065 3.57244 0
M  V30 5574 C 509.453 2.25293 3.84914 0
M  V30 5575 C 510.154 4.34919 3.8629 0
M  V30 5576 N 509.13 3.64348 4.03425 0
M  V30 5577 H 512.932 2.27927 1.85544 0
M  V30 5578 H 510.446 1.32056 0.945253 0
M  V30 5579 H 512.443 1.10214 4.02068 0
M  V30 5580 H 511.103 0.222394 3.23937 0
M  V30 5581 H 512.114 3.91656 3.3886 0
M  V30 5582 H 508.791 1.39446 3.93524 0
M  V30 5583 H 510.181 5.43605 3.94896 0
M  V30 5584 N 512.901 -0.976442 1.23707 0
M  V30 5585 C 514.15 -1.71254 1.06559 0
M  V30 5586 C 514.463 -1.91528 -0.397024 0
M  V30 5587 O 515.669 -2.62625 -0.688518 0
M  V30 5588 C 514.125 -3.08207 1.8584 0
M  V30 5589 C 513.733 -2.95806 3.36456 0
M  V30 5590 C 515.477 -3.85749 1.77194 0
M  V30 5591 C 513.384 -4.28015 4.08114 0
M  V30 5592 H 512.314 -0.642171 0.395136 0
M  V30 5593 H 514.965 -1.08877 1.4771 0
M  V30 5594 H 513.347 -3.71363 1.37498 0
M  V30 5595 H 514.521 -2.41716 3.92314 0
M  V30 5596 H 512.836 -2.31736 3.45959 0
M  V30 5597 H 515.433 -4.83633 2.28041 0
M  V30 5598 H 515.776 -4.09752 0.735477 0
M  V30 5599 H 516.309 -3.29303 2.23169 0
M  V30 5600 H 513.048 -4.09208 5.12083 0
M  V30 5601 H 512.568 -4.81955 3.57043 0
M  V30 5602 H 514.247 -4.96681 4.14629 0
M  V30 5603 N 514.379 -1.04941 -1.1758 0
M  V30 5604 C 515.609 -0.777166 -1.91425 0
M  V30 5605 C 516.017 0.670647 -1.76915 0
M  V30 5606 O 515.36 1.46965 -1.10213 0
M  V30 5607 C 515.422 -1.07495 -3.43052 0
M  V30 5608 C 515.086 -2.51844 -3.81345 0
M  V30 5609 C 516.083 -3.50047 -3.844 0
M  V30 5610 C 513.768 -2.86787 -4.12382 0
M  V30 5611 C 515.762 -4.81239 -4.17957 0
M  V30 5612 C 513.449 -4.18182 -4.45608 0
M  V30 5613 C 514.447 -5.15219 -4.48373 0
M  V30 5614 O 514.135 -6.44258 -4.80819 0
M  V30 5615 H 513.867 -0.282209 -0.614275 0
M  V30 5616 H 516.421 -1.40258 -1.50056 0
M  V30 5617 H 514.651 -0.392437 -3.84704 0
M  V30 5618 H 516.34 -0.78912 -3.98155 0
M  V30 5619 H 517.106 -3.24391 -3.60548 0
M  V30 5620 H 512.985 -2.11922 -4.09402 0
M  V30 5621 H 516.529 -5.56974 -4.2003 0
M  V30 5622 H 512.426 -4.43602 -4.68922 0
M  V30 5623 H 513.194 -6.49041 -4.98686 0
M  V30 5624 N 515.857 1.33968 -0.830081 0
M  V30 5625 C 517.106 1.97323 -0.417928 0
M  V30 5626 C 517.419 1.6652 1.02618 0
M  V30 5627 O 518.625 2.2342 1.54259 0
M  V30 5628 C 517.081 3.53099 -0.696359 0
M  V30 5629 C 516.689 3.92788 -2.15457 0
M  V30 5630 C 518.433 4.23049 -0.350724 0
M  V30 5631 C 516.34 5.41506 -2.37751 0
M  V30 5632 H 515.27 0.738409 -0.152541 0
M  V30 5633 H 517.921 1.52711 -1.01744 0
M  V30 5634 H 516.303 3.95991 -0.0265904 0
M  V30 5635 H 517.477 3.6098 -2.86408 0
M  V30 5636 H 515.792 3.35795 -2.46232 0
M  V30 5637 H 518.389 5.32403 -0.495036 0
M  V30 5638 H 518.732 4.10279 0.705476 0
M  V30 5639 H 519.265 3.85657 -0.975362 0
M  V30 5640 H 516.004 5.5927 -3.41903 0
M  V30 5641 H 515.524 5.74804 -1.7135 0
M  V30 5642 H 517.203 6.0828 -2.20465 0
M  V30 5643 N 517.335 0.585699 1.46312 0
M  V30 5644 C 518.583 0.072278 2.01971 0
M  V30 5645 C 518.904 -1.29345 1.45928 0
M  V30 5646 O 518.174 -1.84973 0.645109 0
M  V30 5647 H 516.754 0.023729 0.746623 0
M  V30 5648 H 519.416 0.762155 1.7938 0
M  V30 5649 H 518.512 0.00552767 3.121 0
M  V30 5650 N 518.813 -1.54241 0.323641 0
M  V30 5651 C 519.776 -2.22997 -0.529602 0
M  V30 5652 C 520.776 -1.22345 -1.04347 0
M  V30 5653 O 521.966 -1.46924 -0.935889 0
M  V30 5654 C 519.098 -2.93409 -1.73562 0
M  V30 5655 H 520.291 -2.99815 0.0714518 0
M  V30 5656 H 517.844 -1.56121 0.0747258 0
M  V30 5657 H 518.579 -2.20729 -2.37591 0
M  V30 5658 H 518.364 -3.67217 -1.37456 0
M  V30 5659 H 519.854 -3.45794 -2.34128 0
M  V30 5660 N 520.291 -0.0518155 -1.57515 0
M  V30 5661 C 521.702 0.483787 -1.80323 0
M  V30 5662 C 522.053 1.70879 -0.964099 0
M  V30 5663 O 521.178 2.15643 -0.180872 0
M  V30 5664 C 521.773 0.884459 -3.27052 0
M  V30 5665 C 520.332 1.36504 -3.50776 0
M  V30 5666 C 519.479 0.340539 -2.75201 0
M  V30 5667 H 522.43 -0.277691 -1.56252 0
M  V30 5668 H 522.451 1.74733 -3.38007 0
M  V30 5669 H 521.963 -0.00731093 -3.88099 0
M  V30 5670 H 520.064 2.27598 -2.95009 0
M  V30 5671 H 520.177 1.35675 -4.59488 0
M  V30 5672 H 518.541 0.81356 -2.41357 0
M  V30 5673 H 519.324 -0.543156 -3.38976 0
M  V30 5674 N 521.769 1.56035 0.221574 0
M  V30 5675 C 522.716 1.92413 1.27459 0
M  V30 5676 C 523.686 0.781323 1.46576 0
M  V30 5677 O 524.871 1.03721 1.60145 0
M  V30 5678 C 522.011 2.24617 2.61995 0
M  V30 5679 C 521.124 3.51831 2.50677 0
M  V30 5680 C 520.259 3.73482 3.77736 0
M  V30 5681 C 519.298 4.94211 3.6114 0
M  V30 5682 N 518.435 5.12252 4.80148 0
M  V30 5683 H 523.275 2.82203 0.957355 0
M  V30 5684 H 520.812 1.39676 0.461415 0
M  V30 5685 H 522.77 2.41298 3.40339 0
M  V30 5686 H 521.4 1.38 2.91815 0
M  V30 5687 H 520.452 3.43343 1.63767 0
M  V30 5688 H 521.764 4.40328 2.34334 0
M  V30 5689 H 520.918 3.9026 4.64523 0
M  V30 5690 H 519.657 2.83266 3.97003 0
M  V30 5691 H 518.662 4.77384 2.72736 0
M  V30 5692 H 519.887 5.85912 3.43343 0
M  V30 5693 H 517.833 4.24978 4.99729 0
M  V30 5694 H 517.75 5.94881 4.66532 0
M  V30 5695 H 519.018 5.33465 5.68362 0
M  V30 5696 N 523.247 -0.488276 1.49845 0
M  V30 5697 C 524.179 -1.60539 1.63584 0
M  V30 5698 C 525.192 -1.5434 0.517972 0
M  V30 5699 O 526.381 -1.60041 0.790516 0
M  V30 5700 C 523.481 -2.99374 1.58835 0
M  V30 5701 C 522.654 -3.30624 2.86368 0
M  V30 5702 C 521.713 -4.4893 2.74496 0
M  V30 5703 O 520.739 -4.50085 3.48443 0
M  V30 5704 N 521.941 -5.49591 1.86894 0
M  V30 5705 H 524.706 -1.49176 2.59936 0
M  V30 5706 H 522.267 -0.67639 1.47094 0
M  V30 5707 H 524.259 -3.76459 1.48529 0
M  V30 5708 H 522.829 -3.04595 0.702892 0
M  V30 5709 H 522.049 -2.42314 3.1093 0
M  V30 5710 H 523.337 -3.48305 3.70892 0
M  V30 5711 H 522.735 -5.51467 1.26097 0
M  V30 5712 H 521.292 -6.25728 1.82503 0
M  V30 5713 N 524.725 -1.39134 -0.740242 0
M  V30 5714 C 525.95 -1.39518 -1.53459 0
M  V30 5715 C 526.375 0.00968883 -1.88098 0
M  V30 5716 O 525.733 0.995312 -1.51536 0
M  V30 5717 C 525.781 -2.26981 -2.802 0
M  V30 5718 O 524.885 -1.69609 -3.75908 0
M  V30 5719 H 524.226 -0.475328 -0.463637 0
M  V30 5720 H 526.756 -1.83064 -0.913717 0
M  V30 5721 H 526.766 -2.41309 -3.28989 0
M  V30 5722 H 525.441 -3.29081 -2.5432 0
M  V30 5723 H 524.018 -1.64495 -3.34658 0
M  V30 5724 N 526.204 0.969867 -1.24223 0
M  V30 5725 C 527.452 1.70918 -1.0785 0
M  V30 5726 C 527.773 1.91186 0.383763 0
M  V30 5727 O 527.043 1.48806 1.27411 0
M  V30 5728 H 525.623 0.633334 -0.396103 0
M  V30 5729 H 528.285 1.16689 -1.56108 0
M  V30 5730 H 527.381 2.69455 -1.57482 0
M  V30 5731 N 527.682 1.05563 1.17022 0
M  V30 5732 C 528.63 0.653887 2.2322 0
M  V30 5733 C 529.624 -0.326642 1.66221 0
M  V30 5734 O 530.83 -0.192301 1.7897 0
M  V30 5735 H 527.205 0.193297 0.726733 0
M  V30 5736 H 529.176 1.5596 2.54399 0
M  V30 5737 C 527.925 0.0485434 3.47666 0
M  V30 5738 H 527.248 0.79413 3.91834 0
M  V30 5739 H 528.688 -0.195133 4.23551 0
M  V30 5740 C 527.147 -1.20583 3.14581 0
M  V30 5741 O 527.677 -2.29475 3.29703 0
M  V30 5742 N 525.883 -1.10493 2.68774 0
M  V30 5743 H 525.43 -0.218795 2.56669 0
M  V30 5744 H 525.388 -1.94507 2.47011 0
M  V30 5745 N 529.16 -1.33526 0.837174 0
M  V30 5746 C 530.388 -2.02047 0.445494 0
M  V30 5747 C 530.803 -1.62995 -0.952788 0
M  V30 5748 O 530.16 -0.842447 -1.61892 0
M  V30 5749 C 530.211 -3.57221 0.554577 0
M  V30 5750 O 529.932 -3.94863 1.89776 0
M  V30 5751 C 531.433 -4.43012 0.159634 0
M  V30 5752 H 528.653 -0.647221 0.177048 0
M  V30 5753 H 531.197 -1.70492 1.12928 0
M  V30 5754 H 529.352 -3.87315 -0.0812781 0
M  V30 5755 H 529.766 -4.89569 1.88208 0
M  V30 5756 H 531.24 -5.51253 0.28701 0
M  V30 5757 H 531.717 -4.29916 -0.898289 0
M  V30 5758 H 532.323 -4.18274 0.769855 0
M  V30 5759 N 530.638 -0.59345 -1.46 0
M  V30 5760 C 532.049 -0.169801 -1.85926 0
M  V30 5761 C 532.4 1.26984 -1.49565 0
M  V30 5762 O 531.525 1.96076 -0.915602 0
M  V30 5763 C 532.12 -0.301385 -3.37457 0
M  V30 5764 C 530.679 0.0674684 -3.7634 0
M  V30 5765 C 529.826 -0.632383 -2.69993 0
M  V30 5766 H 532.777 -0.801014 -1.37002 0
M  V30 5767 H 532.798 0.470331 -3.77582 0
M  V30 5768 H 532.31 -1.34927 -3.63891 0
M  V30 5769 H 530.411 1.11507 -3.55523 0
M  V30 5770 H 530.524 -0.316332 -4.78055 0
M  V30 5771 H 528.888 -0.0714961 -2.546 0
M  V30 5772 H 529.671 -1.68212 -2.99265 0
M  V30 5773 N 532.116 1.54067 -0.331816 0
M  V30 5774 C 533.362 2.01012 0.268667 0
M  V30 5775 C 533.695 1.2195 1.51136 0
M  V30 5776 O 532.97 0.303972 1.9211 0
M  V30 5777 C 533.253 3.55158 0.59456 0
M  V30 5778 C 533.106 4.4494 -0.659409 0
M  V30 5779 C 534.425 4.16939 1.4089 0
M  V30 5780 H 531.544 0.730698 0.0961756 0
M  V30 5781 H 534.186 1.84593 -0.450031 0
M  V30 5782 H 532.336 3.6928 1.20685 0
M  V30 5783 H 534.008 4.42675 -1.29756 0
M  V30 5784 H 532.251 4.1428 -1.28665 0
M  V30 5785 H 532.922 5.50643 -0.386804 0
M  V30 5786 H 535.398 4.06443 0.891272 0
M  V30 5787 H 534.274 5.24889 1.60569 0
M  V30 5788 H 534.535 3.70798 2.40752 0
M  V30 5789 N 533.594 0.0601682 1.57485 0
M  V30 5790 C 534.843 -0.611101 1.9222 0
M  V30 5791 C 535.156 -1.71469 0.941159 0
M  V30 5792 O 536.362 -2.44473 1.18089 0
M  V30 5793 C 534.818 -1.13832 3.41424 0
M  V30 5794 C 534.426 -0.0663596 4.47951 0
M  V30 5795 C 536.17 -1.78432 3.85178 0
M  V30 5796 C 534.077 -0.606965 5.88277 0
M  V30 5797 H 533.007 -0.232033 0.71741 0
M  V30 5798 H 535.658 0.130518 1.83035 0
M  V30 5799 H 534.04 -1.93254 3.45643 0
M  V30 5800 H 535.214 0.707682 4.55333 0
M  V30 5801 H 533.529 0.482715 4.13593 0
M  V30 5802 H 536.126 -2.1989 4.87394 0
M  V30 5803 H 536.469 -2.63966 3.21913 0
M  V30 5804 H 537.002 -1.05651 3.83514 0
M  V30 5805 H 533.741 0.21095 6.5516 0
M  V30 5806 H 533.261 -1.34879 5.84438 0
M  V30 5807 H 534.94 -1.08704 6.37803 0
M  V30 5808 N 535.072 -1.5615 -0.213296 0
M  V30 5809 C 536.004 -1.89586 -1.28802 0
M  V30 5810 C 537.017 -0.784844 -1.42633 0
M  V30 5811 O 538.206 -1.06319 -1.43383 0
M  V30 5812 C 535.306 -2.09665 -2.66259 0
M  V30 5813 C 534.479 -3.40726 -2.7427 0
M  V30 5814 C 533.538 -3.50137 -3.92798 0
M  V30 5815 O 532.564 -4.23105 -3.8075 0
M  V30 5816 N 533.766 -2.81886 -5.07465 0
M  V30 5817 H 536.531 -2.82368 -1.00442 0
M  V30 5818 H 534.092 -1.56796 -0.403302 0
M  V30 5819 H 536.084 -2.13268 -3.43946 0
M  V30 5820 H 534.654 -1.23469 -2.87183 0
M  V30 5821 H 533.874 -3.4915 -1.82997 0
M  V30 5822 H 535.162 -4.27048 -2.76599 0
M  V30 5823 H 534.56 -2.22397 -5.2015 0
M  V30 5824 H 533.117 -2.91139 -5.83165 0
M  V30 5825 N 536.55 0.480323 -1.50102 0
M  V30 5826 C 537.827 1.24159 -1.51142 0
M  V30 5827 C 538.207 2.09605 -0.250818 0
M  V30 5828 O 537.555 2.15274 0.766118 0
M  V30 5829 C 537.765 2.08057 -2.80202 0
M  V30 5830 C 539.113 2.66556 -3.30504 0
M  V30 5831 O 540.137 2.18308 -2.81461 0
M  V30 5832 O 538.996 3.54442 -4.15973 0
M  V30 5833 H 536.09 0.562928 -0.605839 0
M  V30 5834 H 538.636 0.492899 -1.62384 0
M  V30 5835 H 537.408 1.45032 -3.6343 0
M  V30 5836 H 537.031 2.90079 -2.71919 0
M  V30 5837 N 538.028 1.39524 0.732853 0
M  V30 5838 C 539.258 1.3994 1.51988 0
M  V30 5839 C 539.666 -0.00727973 1.89199 0
M  V30 5840 O 539.009 -0.989521 1.54771 0
M  V30 5841 C 539.071 2.21026 2.83527 0
M  V30 5842 C 538.735 3.69633 2.68738 0
M  V30 5843 C 539.732 4.62665 2.37143 0
M  V30 5844 C 537.417 4.13244 2.85542 0
M  V30 5845 C 539.411 5.97291 2.22536 0
M  V30 5846 C 537.098 5.47945 2.70554 0
M  V30 5847 C 538.096 6.39783 2.39097 0
M  V30 5848 O 537.784 7.72002 2.24204 0
M  V30 5849 H 537.516 0.479795 0.476206 0
M  V30 5850 H 540.07 1.8399 0.913054 0
M  V30 5851 H 538.3 1.71728 3.46477 0
M  V30 5852 H 539.989 2.13594 3.45156 0
M  V30 5853 H 540.755 4.30272 2.2381 0
M  V30 5854 H 536.634 3.42094 3.09019 0
M  V30 5855 H 540.178 6.68939 1.97905 0
M  V30 5856 H 536.075 5.79928 2.83466 0
M  V30 5857 H 536.843 7.8275 2.39258 0
M  V30 5858 N 539.506 -0.963266 1.24736 0
M  V30 5859 C 540.917 -1.52145 1.08207 0
M  V30 5860 C 541.268 -1.93142 -0.345061 0
M  V30 5861 O 540.393 -1.77769 -1.23399 0
M  V30 5862 C 540.988 -2.76486 1.95808 0
M  V30 5863 C 539.547 -3.28646 1.8349 0
M  V30 5864 C 538.694 -2.01529 1.90476 0
M  V30 5865 H 541.645 -0.781083 1.38148 0
M  V30 5866 H 541.666 -3.49986 1.49297 0
M  V30 5867 H 541.178 -2.46617 2.99669 0
M  V30 5868 H 539.279 -3.63357 0.824787 0
M  V30 5869 H 539.392 -3.97246 2.67829 0
M  V30 5870 H 537.756 -2.16442 1.34258 0
M  V30 5871 H 538.539 -1.7402 2.95926 0
M  V30 5872 N 540.985 -1.06182 -1.16461 0
M  V30 5873 C 541.915 -0.692861 -2.22984 0
M  V30 5874 C 542.896 0.314122 -1.67174 0
M  V30 5875 O 544.081 0.189499 -1.93273 0
M  V30 5876 C 541.211 -0.07732 -3.47214 0
M  V30 5877 C 540.165 -1.01015 -4.15909 0
M  V30 5878 C 539.491 -0.257973 -5.34077 0
M  V30 5879 C 540.791 -2.33868 -4.67015 0
M  V30 5880 H 542.485 -1.58343 -2.54102 0
M  V30 5881 H 540.031 -0.76279 -1.22137 0
M  V30 5882 H 541.984 0.19266 -4.20959 0
M  V30 5883 H 540.708 0.848254 -3.15392 0
M  V30 5884 H 539.367 -1.26486 -3.44088 0
M  V30 5885 H 539.015 0.670684 -4.98509 0
M  V30 5886 H 538.715 -0.879638 -5.80979 0
M  V30 5887 H 540.239 0.00448788 -6.106 0
M  V30 5888 H 541.653 -2.1279 -5.32347 0
M  V30 5889 H 540.05 -2.91522 -5.24533 0
M  V30 5890 H 541.12 -2.97019 -3.83286 0
M  V30 5891 N 542.463 1.3308 -0.844243 0
M  V30 5892 C 543.712 1.96868 -0.438833 0
M  V30 5893 C 544.025 1.67599 1.00846 0
M  V30 5894 O 545.231 2.25043 1.51881 0
M  V30 5895 C 543.687 3.5234 -0.73377 0
M  V30 5896 C 543.295 3.90481 -2.1961 0
M  V30 5897 C 545.039 4.22653 -0.395574 0
M  V30 5898 C 542.946 5.38954 -2.43481 0
M  V30 5899 H 541.876 0.736749 -0.160364 0
M  V30 5900 H 544.527 1.51623 -1.03358 0
M  V30 5901 H 542.909 3.95941 -0.068589 0
M  V30 5902 H 544.083 3.57922 -2.90221 0
M  V30 5903 H 542.398 3.33165 -2.4978 0
M  V30 5904 H 544.995 5.31848 -0.551477 0
M  V30 5905 H 545.338 4.11004 0.661921 0
M  V30 5906 H 545.871 3.84601 -1.01621 0
M  V30 5907 H 542.61 5.55612 -3.47816 0
M  V30 5908 H 542.13 5.72954 -1.77437 0
M  V30 5909 H 543.809 6.05907 -2.26905 0
M  V30 5910 N 543.941 0.601185 1.45683 0
M  V30 5911 C 545.171 0.0999093 2.06358 0
M  V30 5912 C 545.579 -1.21831 1.44754 0
M  V30 5913 O 544.922 -1.75157 0.553695 0
M  V30 5914 C 544.984 -0.12085 3.59297 0
M  V30 5915 C 544.648 1.11459 4.432 0
M  V30 5916 C 545.645 2.03118 4.7858 0
M  V30 5917 C 543.33 1.34162 4.84051 0
M  V30 5918 C 545.324 3.15814 5.53661 0
M  V30 5919 C 543.011 2.4716 5.58888 0
M  V30 5920 C 544.009 3.37814 5.93608 0
M  V30 5921 O 543.697 4.48846 6.66928 0
M  V30 5922 H 543.429 0.0630316 0.673055 0
M  V30 5923 H 545.983 0.826982 1.88016 0
M  V30 5924 H 544.213 -0.902744 3.76015 0
M  V30 5925 H 545.902 -0.572925 4.01836 0
M  V30 5926 H 546.668 1.86801 4.47583 0
M  V30 5927 H 542.547 0.645018 4.56465 0
M  V30 5928 H 546.091 3.86596 5.8068 0
M  V30 5929 H 541.988 2.63432 5.89299 0
M  V30 5930 H 542.756 4.47446 6.85371 0
M  V30 5931 N 545.419 -1.53889 0.339982 0
M  V30 5932 C 546.329 -2.28604 -0.526988 0
M  V30 5933 C 547.345 -1.33578 -1.11503 0
M  V30 5934 O 548.521 -1.66612 -1.13148 0
M  V30 5935 C 545.586 -3.04164 -1.66389 0
M  V30 5936 C 544.647 -4.14809 -1.10599 0
M  V30 5937 C 543.88 -4.86756 -2.18871 0
M  V30 5938 O 544.103 -4.58343 -3.39526 0
M  V30 5939 O 543.037 -5.73289 -1.83366 0
M  V30 5940 H 546.863 -3.03594 0.0802707 0
M  V30 5941 H 544.448 -1.4903 0.105141 0
M  V30 5942 H 546.33 -3.51427 -2.32544 0
M  V30 5943 H 545.005 -2.32035 -2.25703 0
M  V30 5944 H 543.912 -3.71857 -0.409067 0
M  V30 5945 H 545.245 -4.89029 -0.557771 0
M  V30 5946 N 546.897 -0.0685191 -1.57451 0
M  V30 5947 C 548.146 0.600898 -1.92541 0
M  V30 5948 C 548.459 1.70967 -0.950239 0
M  V30 5949 O 549.665 2.43844 -1.19384 0
M  V30 5950 C 548.121 1.12019 -3.42023 0
M  V30 5951 C 547.729 0.0426028 -4.4798 0
M  V30 5952 C 549.473 1.76386 -3.86119 0
M  V30 5953 C 547.38 0.575759 -5.88591 0
M  V30 5954 H 546.31 0.228225 -0.71863 0
M  V30 5955 H 548.961 -0.140223 -1.82963 0
M  V30 5956 H 547.343 1.91418 -3.46663 0
M  V30 5957 H 548.517 -0.73182 -4.54952 0
M  V30 5958 H 546.832 -0.504642 -4.13331 0
M  V30 5959 H 549.429 2.17302 -4.88553 0
M  V30 5960 H 549.772 2.62255 -3.23308 0
M  V30 5961 H 550.305 1.03615 -3.84069 0
M  V30 5962 H 547.044 -0.245691 -6.55039 0
M  V30 5963 H 546.564 1.31778 -5.85145 0
M  V30 5964 H 548.243 1.0532 -6.3837 0
M  V30 5965 N 548.375 1.56261 0.205012 0
M  V30 5966 C 549.624 1.79236 0.925058 0
M  V30 5967 C 549.937 0.640011 1.84833 0
M  V30 5968 O 551.143 0.753809 2.60826 0
M  V30 5969 C 549.599 3.17475 1.69522 0
M  V30 5970 C 549.207 4.40482 0.817269 0
M  V30 5971 C 550.951 3.49766 2.4055 0
M  V30 5972 C 548.858 5.69744 1.58573 0
M  V30 5973 H 547.788 0.668287 0.349153 0
M  V30 5974 H 550.439 1.82629 0.178544 0
M  V30 5975 H 548.821 3.08304 2.48526 0
M  V30 5976 H 549.995 4.60752 0.0665988 0
M  V30 5977 H 548.31 4.15827 0.218316 0
M  V30 5978 H 550.907 4.43573 2.98575 0
M  V30 5979 H 551.25 2.73041 3.14252 0
M  V30 5980 H 551.783 3.60341 1.68522 0
M  V30 5981 H 548.522 6.49407 0.891679 0
M  V30 5982 H 548.042 5.53509 2.31059 0
M  V30 5983 H 549.721 6.1051 2.14212 0
M  V30 5984 N 549.853 -0.472356 1.50355 0
M  V30 5985 C 551.1 -1.22453 1.61281 0
M  V30 5986 C 551.428 -1.91972 0.31256 0
M  V30 5987 O 550.683 -1.82696 -0.701475 0
M  V30 5988 C 550.982 -2.29257 2.74182 0
M  V30 5989 C 550.648 -1.76999 4.14708 0
M  V30 5990 C 549.31 -1.62467 4.52944 0
M  V30 5991 C 551.662 -1.38215 5.0254 0
M  V30 5992 C 548.99 -1.07574 5.76754 0
M  V30 5993 C 551.342 -0.847638 6.26895 0
M  V30 5994 C 550.006 -0.688946 6.63935 0
M  V30 5995 H 549.276 -0.448087 0.590168 0
M  V30 5996 H 551.923 -0.520744 1.84284 0
M  V30 5997 H 550.228 -3.05538 2.45263 0
M  V30 5998 H 551.925 -2.87212 2.7984 0
M  V30 5999 H 548.515 -1.89276 3.84542 0
M  V30 6000 H 552.699 -1.48276 4.73633 0
M  V30 6001 H 547.955 -0.940237 6.04127 0
M  V30 6002 H 552.129 -0.538455 6.94315 0
M  V30 6003 H 549.756 -0.261435 7.5975 0
M  V30 6004 N 551.331 -1.39911 -0.725443 0
M  V30 6005 C 552.577 -1.38862 -1.48624 0
M  V30 6006 C 552.932 0.0125913 -1.92396 0
M  V30 6007 O 552.225 0.981046 -1.64578 0
M  V30 6008 C 552.419 -2.30368 -2.7325 0
M  V30 6009 C 552.248 -3.79247 -2.41665 0
M  V30 6010 C 551.018 -4.48119 -2.3349 0
M  V30 6011 C 553.216 -4.70988 -2.06579 0
M  V30 6012 N 551.198 -5.82282 -1.94476 0
M  V30 6013 C 552.569 -5.93873 -1.78087 0
M  V30 6014 C 554.624 -4.58917 -1.9313 0
M  V30 6015 C 553.327 -7.06036 -1.37499 0
M  V30 6016 C 555.353 -5.71012 -1.53946 0
M  V30 6017 C 554.715 -6.92976 -1.26345 0
M  V30 6018 H 550.814 -0.563394 -0.54232 0
M  V30 6019 H 553.398 -1.75542 -0.842213 0
M  V30 6020 H 551.569 -1.95831 -3.35417 0
M  V30 6021 H 553.301 -2.20245 -3.39521 0
M  V30 6022 H 550.056 -4.01677 -2.50904 0
M  V30 6023 H 550.48 -6.53307 -1.77535 0
M  V30 6024 H 555.122 -3.65149 -2.13134 0
M  V30 6025 H 552.84 -7.99697 -1.16237 0
M  V30 6026 H 556.426 -5.63664 -1.44132 0
M  V30 6027 H 555.306 -7.78243 -0.964787 0
M  V30 6028 N 552.809 0.956637 -1.25245 0
M  V30 6029 C 553.719 2.0868 -1.0719 0
M  V30 6030 C 554.735 1.73997 -0.00959074 0
M  V30 6031 O 555.911 2.00301 -0.210104 0
M  V30 6032 C 552.976 3.39754 -0.690526 0
M  V30 6033 C 552.037 3.88316 -1.83055 0
M  V30 6034 C 551.27 5.13134 -1.46728 0
M  V30 6035 O 551.493 5.6925 -0.362029 0
M  V30 6036 O 550.427 5.56356 -2.29677 0
M  V30 6037 H 554.253 2.26813 -2.01965 0
M  V30 6038 H 551.838 1.07098 -1.04165 0
M  V30 6039 H 553.72 4.18543 -0.489871 0
M  V30 6040 H 552.395 3.22896 0.227981 0
M  V30 6041 H 551.302 3.1054 -2.08604 0
M  V30 6042 H 552.635 4.09669 -2.72822 0
M  V30 6043 N 554.287 1.06798 1.15896 0
M  V30 6044 C 555.235 0.677525 2.22514 0
M  V30 6045 C 556.229 -0.308994 1.66558 0
M  V30 6046 O 557.435 -0.173308 1.79164 0
M  V30 6047 H 553.81 0.200994 0.724642 0
M  V30 6048 H 555.781 1.5865 2.52731 0
M  V30 6049 C 554.53 0.0854153 3.47595 0
M  V30 6050 H 553.853 0.835645 3.90969 0
M  V30 6051 H 555.293 -0.150199 4.23734 0
M  V30 6052 C 553.752 -1.1724 3.15843 0
M  V30 6053 O 554.282 -2.25965 3.32119 0
M  V30 6054 N 552.488 -1.07636 2.69931 0
M  V30 6055 H 552.035 -0.191559 2.56887 0
M  V30 6056 H 551.993 -1.91876 2.4906 0
M  V30 6057 N 555.766 -1.3263 0.851289 0
M  V30 6058 C 556.994 -2.01563 0.466899 0
M  V30 6059 C 557.409 -1.63996 -0.935447 0
M  V30 6060 O 556.766 -0.85957 -1.6099 0
M  V30 6061 C 556.817 -3.56613 0.592433 0
M  V30 6062 O 556.538 -3.92828 1.93954 0
M  V30 6063 C 558.039 -4.42818 0.206612 0
M  V30 6064 H 555.259 -0.645307 0.183902 0
M  V30 6065 H 557.803 -1.69285 1.1473 0
M  V30 6066 H 555.958 -3.87379 -0.0401936 0
M  V30 6067 H 556.372 -4.87545 1.9339 0
M  V30 6068 H 557.846 -5.50918 0.345462 0
M  V30 6069 H 558.323 -4.30844 -0.85264 0
M  V30 6070 H 558.929 -4.17434 0.814176 0
M  V30 6071 N 557.244 -0.608902 -1.45362 0
M  V30 6072 C 558.469 -0.10921 -2.07112 0
M  V30 6073 C 558.894 1.19779 -1.45033 0
M  V30 6074 O 558.252 1.72961 -0.543527 0
M  V30 6075 C 558.3 0.0155745 -3.60597 0
M  V30 6076 O 557.404 1.06546 -3.98399 0
M  V30 6077 H 556.745 -0.0746619 -0.659789 0
M  V30 6078 H 559.275 -0.839283 -1.86594 0
M  V30 6079 H 559.285 0.213364 -4.07442 0
M  V30 6080 H 557.96 -0.938765 -4.05167 0
M  V30 6081 H 556.537 0.844024 -3.63223 0
M  V30 6082 N 558.722 1.53707 -0.348139 0
M  V30 6083 C 559.67 2.26671 0.521808 0
M  V30 6084 C 560.664 1.28988 1.09811 0
M  V30 6085 O 561.87 1.4668 1.04332 0
M  V30 6086 H 558.245 0.728387 0.186968 0
M  V30 6087 H 560.216 2.98176 -0.115563 0
M  V30 6088 C 558.965 3.05591 1.6586 0
M  V30 6089 H 558.288 3.80589 1.22443 0
M  V30 6090 H 559.728 3.59851 2.24239 0
M  V30 6091 C 558.187 2.15366 2.59073 0
M  V30 6092 O 558.717 1.7528 3.61441 0
M  V30 6093 N 556.923 1.80352 2.27863 0
M  V30 6094 H 556.47 2.13149 1.44656 0
M  V30 6095 H 556.428 1.20268 2.90488 0
M  V30 6096 N 560.2 0.0768682 1.57412 0
M  V30 6097 C 561.163 -0.873949 2.11884 0
M  V30 6098 C 562.163 -1.22301 1.04398 0
M  V30 6099 O 563.353 -1.15545 1.30365 0
M  V30 6100 C 560.485 -2.17575 2.62438 0
M  V30 6101 H 561.678 -0.401278 2.97203 0
M  V30 6102 H 559.231 -0.171904 1.55352 0
M  V30 6103 H 559.966 -2.69368 1.80587 0
M  V30 6104 H 559.751 -1.93534 3.41009 0
M  V30 6105 H 561.241 -2.85631 3.04639 0
M  V30 6106 N 561.678 -1.56367 -0.196722 0
M  V30 6107 C 562.588 -1.97617 -1.2643 0
M  V30 6108 C 563.604 -0.883598 -1.49895 0
M  V30 6109 O 564.78 -1.18921 -1.62541 0
M  V30 6110 C 561.845 -2.30595 -2.58895 0
M  V30 6111 C 560.906 -3.53551 -2.43516 0
M  V30 6112 C 560.139 -3.84946 -3.69665 0
M  V30 6113 O 560.362 -3.17655 -4.73763 0
M  V30 6114 O 559.296 -4.78379 -3.65291 0
M  V30 6115 H 563.122 -2.88648 -0.944233 0
M  V30 6116 H 560.707 -1.43901 -0.401592 0
M  V30 6117 H 562.589 -2.52889 -3.37083 0
M  V30 6118 H 561.264 -1.42732 -2.90533 0
M  V30 6119 H 560.171 -3.36507 -1.63445 0
M  V30 6120 H 561.504 -4.41875 -2.16812 0
M  V30 6121 N 563.156 0.464375 -1.50603 0
M  V30 6122 C 564.572 0.798684 -1.38178 0
M  V30 6123 C 564.772 1.96568 -0.44308 0
M  V30 6124 O 563.828 2.52252 0.111814 0
M  V30 6125 C 565.141 1.10444 -2.79683 0
M  V30 6126 C 566.689 1.2105 -2.88645 0
M  V30 6127 C 567.164 1.54934 -4.30998 0
M  V30 6128 N 568.655 1.61913 -4.3398 0
M  V30 6129 C 569.39 1.8965 -5.41129 0
M  V30 6130 N 568.886 2.15361 -6.58477 0
M  V30 6131 N 570.679 1.91207 -5.28579 0
M  V30 6132 H 562.83 -0.304603 -2.10204 0
M  V30 6133 H 565.093 -0.0737804 -0.945125 0
M  V30 6134 H 564.799 0.319934 -3.50242 0
M  V30 6135 H 564.673 2.03896 -3.17342 0
M  V30 6136 H 567.06 1.98567 -2.18301 0
M  V30 6137 H 567.141 0.255613 -2.5452 0
M  V30 6138 H 566.785 0.779549 -5.01882 0
M  V30 6139 H 566.715 2.51584 -4.62615 0
M  V30 6140 H 569.206 1.44055 -3.49366 0
M  V30 6141 H 569.519 2.35818 -7.35941 0
M  V30 6142 H 567.864 2.1274 -6.6164 0
M  V30 6143 H 571.055 1.70622 -4.35897 0
M  V30 6144 H 571.228 2.12488 -6.12171 0
M  V30 6145 N 564.634 1.40294 0.718013 0
M  V30 6146 C 565.581 1.40367 1.8321 0
M  V30 6147 C 566.551 0.260952 1.64037 0
M  V30 6148 O 567.736 0.458648 1.85205 0
M  V30 6149 C 564.876 1.26965 3.20895 0
M  V30 6150 C 563.989 2.50922 3.51656 0
M  V30 6151 C 563.124 2.29981 4.78834 0
M  V30 6152 C 562.163 3.49527 5.02491 0
M  V30 6153 N 561.3 3.27796 6.20882 0
M  V30 6154 H 566.14 2.35593 1.82482 0
M  V30 6155 H 563.677 1.17012 0.891444 0
M  V30 6156 H 565.635 1.17202 4.00399 0
M  V30 6157 H 564.265 0.353591 3.20858 0
M  V30 6158 H 563.317 2.71223 2.66725 0
M  V30 6159 H 564.629 3.39913 3.65048 0
M  V30 6160 H 563.783 2.17558 5.66351 0
M  V30 6161 H 562.522 1.38411 4.67647 0
M  V30 6162 H 561.527 3.6243 4.1343 0
M  V30 6163 H 562.752 4.42021 5.15553 0
M  V30 6164 H 560.698 2.38906 6.1095 0
M  V30 6165 H 560.615 4.10351 6.34939 0
M  V30 6166 H 561.883 3.19101 7.11193 0
M  V30 6167 N 566.112 -0.949982 1.2575 0
M  V30 6168 C 567.361 -1.68956 1.10168 0
M  V30 6169 C 567.674 -1.92327 -0.356309 0
M  V30 6170 O 568.88 -2.64026 -0.632657 0
M  V30 6171 C 567.336 -3.04196 1.92336 0
M  V30 6172 C 566.944 -2.88603 3.42655 0
M  V30 6173 C 568.688 -3.81904 1.85336 0
M  V30 6174 C 566.595 -4.19262 4.17101 0
M  V30 6175 H 565.525 -0.633645 0.408668 0
M  V30 6176 H 568.176 -1.05719 1.49986 0
M  V30 6177 H 566.558 -3.68363 1.45344 0
M  V30 6178 H 567.732 -2.3334 3.97353 0
M  V30 6179 H 566.047 -2.24345 3.50796 0
M  V30 6180 H 568.644 -4.78688 2.38248 0
M  V30 6181 H 568.987 -4.08099 0.822226 0
M  V30 6182 H 569.52 -3.24495 2.30104 0
M  V30 6183 H 566.259 -3.98254 5.20648 0
M  V30 6184 H 565.779 -4.74273 3.67186 0
M  V30 6185 H 567.458 -4.87775 4.25071 0
M  V30 6186 N 567.59 -1.07411 -1.15328 0
M  V30 6187 C 568.839 -0.792643 -1.85473 0
M  V30 6188 C 569.152 0.683789 -1.83259 0
M  V30 6189 O 570.358 1.08005 -2.49093 0
M  V30 6190 C 568.814 -1.36787 -3.32892 0
M  V30 6191 C 568.422 -2.87536 -3.43551 0
M  V30 6192 C 570.166 -1.16444 -4.08217 0
M  V30 6193 C 568.073 -3.38247 -4.85122 0
M  V30 6194 H 567.003 -0.292838 -0.694811 0
M  V30 6195 H 569.654 -1.29426 -1.30082 0
M  V30 6196 H 568.036 -0.793993 -3.87958 0
M  V30 6197 H 569.21 -3.50973 -2.98588 0
M  V30 6198 H 567.525 -3.06676 -2.81672 0
M  V30 6199 H 570.122 -1.51808 -5.12697 0
M  V30 6200 H 570.465 -0.10353 -4.16171 0
M  V30 6201 H 570.998 -1.70472 -3.59422 0
M  V30 6202 H 567.737 -4.43866 -4.82351 0
M  V30 6203 H 567.257 -2.79564 -5.30664 0
M  V30 6204 H 568.936 -3.34238 -5.5398 0
M  V30 6205 N 569.068 1.32177 -0.85831 0
M  V30 6206 C 569.978 2.32561 -0.308606 0
M  V30 6207 C 570.994 1.64209 0.575462 0
M  V30 6208 O 572.17 1.95719 0.474961 0
M  V30 6209 C 569.235 3.43207 0.490909 0
M  V30 6210 C 568.296 4.27243 -0.419733 0
M  V30 6211 C 567.529 5.32605 0.341719 0
M  V30 6212 O 567.752 5.48332 1.57125 0
M  V30 6213 O 566.686 6.0118 -0.294379 0
M  V30 6214 H 570.512 2.81477 -1.14037 0
M  V30 6215 H 568.097 1.35866 -0.621349 0
M  V30 6216 H 569.979 4.10677 0.944574 0
M  V30 6217 H 568.654 2.96474 1.29941 0
M  V30 6218 H 567.561 3.62569 -0.921652 0
M  V30 6219 H 568.894 4.7751 -1.19352 0
M  V30 6220 N 570.547 0.616602 1.45037 0
M  V30 6221 C 571.494 -0.0969439 2.30596 0
M  V30 6222 C 572.464 -0.851151 1.42635 0
M  V30 6223 O 573.649 -0.835092 1.71554 0
M  V30 6224 C 570.789 -1.08234 3.27688 0
M  V30 6225 C 569.902 -0.328072 4.30752 0
M  V30 6226 C 569.037 -1.30399 5.14946 0
M  V30 6227 C 568.076 -0.538049 6.09731 0
M  V30 6228 N 567.213 -1.46371 6.86673 0
M  V30 6229 H 572.053 0.63864 2.91076 0
M  V30 6230 H 569.59 0.326733 1.43425 0
M  V30 6231 H 571.548 -1.66688 3.82454 0
M  V30 6232 H 570.178 -1.78523 2.68941 0
M  V30 6233 H 569.23 0.372136 3.78575 0
M  V30 6234 H 570.542 0.269142 4.98073 0
M  V30 6235 H 569.696 -1.96032 5.74157 0
M  V30 6236 H 568.435 -1.93514 4.47665 0
M  V30 6237 H 567.44 0.131852 5.49642 0
M  V30 6238 H 568.665 0.0881732 6.79043 0
M  V30 6239 H 566.611 -2.08233 6.22073 0
M  V30 6240 H 566.528 -0.920152 7.50379 0
M  V30 6241 H 567.796 -2.10932 7.50418 0
M  V30 6242 N 572.025 -1.5352 0.356285 0
M  V30 6243 C 572.972 -2.25439 -0.494569 0
M  V30 6244 C 573.942 -1.25752 -1.08516 0
M  V30 6245 O 575.127 -1.54513 -1.1194 0
M  V30 6246 C 572.267 -3.04011 -1.63313 0
M  V30 6247 C 571.38 -4.18574 -1.06862 0
M  V30 6248 C 570.515 -4.84607 -2.17552 0
M  V30 6249 C 569.554 -5.91218 -1.58518 0
M  V30 6250 N 568.691 -6.50979 -2.63003 0
M  V30 6251 H 573.531 -2.97737 0.125244 0
M  V30 6252 H 571.068 -1.46916 0.0735789 0
M  V30 6253 H 573.026 -3.47834 -2.30363 0
M  V30 6254 H 571.656 -2.33986 -2.22374 0
M  V30 6255 H 570.708 -3.79303 -0.288672 0
M  V30 6256 H 572.02 -4.95215 -0.596924 0
M  V30 6257 H 571.174 -5.31566 -2.92442 0
M  V30 6258 H 569.913 -4.07418 -2.6807 0
M  V30 6259 H 568.918 -5.4363 -0.821391 0
M  V30 6260 H 570.143 -6.70322 -1.08836 0
M  V30 6261 H 568.089 -5.76648 -3.12751 0
M  V30 6262 H 568.006 -7.23131 -2.20493 0
M  V30 6263 H 569.274 -7.02589 -3.37623 0
M  V30 6264 N 573.503 -0.0852151 -1.57369 0
M  V30 6265 C 574.731 0.58946 -1.98325 0
M  V30 6266 C 575.146 1.62333 -0.96403 0
M  V30 6267 O 574.503 1.82438 0.0476395 0
M  V30 6268 C 574.554 1.24604 -3.39347 0
M  V30 6269 O 574.275 0.253532 -4.37366 0
M  V30 6270 C 575.776 2.00726 -3.95252 0
M  V30 6271 H 572.996 0.158783 -0.651942 0
M  V30 6272 H 575.54 -0.161584 -2.03861 0
M  V30 6273 H 573.695 1.94808 -3.34856 0
M  V30 6274 H 574.109 0.726207 -5.19448 0
M  V30 6275 H 575.583 2.42039 -4.96106 0
M  V30 6276 H 576.06 2.86919 -3.32527 0
M  V30 6277 H 576.666 1.3536 -4.03185 0
M  V30 6278 N 574.981 1.5647 0.188427 0
M  V30 6279 C 576.258 1.71857 0.934058 0
M  V30 6280 C 576.638 0.641867 2.01105 0
M  V30 6281 O 575.986 -0.346098 2.25864 0
M  V30 6282 C 576.196 3.14431 1.5144 0
M  V30 6283 C 577.544 3.74869 1.99396 0
M  V30 6284 O 578.568 3.17601 1.61269 0
M  V30 6285 O 577.427 4.75387 2.69573 0
M  V30 6286 H 574.521 0.701186 0.438483 0
M  V30 6287 H 577.067 1.68768 0.177599 0
M  V30 6288 H 575.839 3.8427 0.738416 0
M  V30 6289 H 575.462 3.21775 2.33552 0
M  V30 6290 N 576.459 -0.456382 1.50847 0
M  V30 6291 C 577.705 -1.20914 1.62811 0
M  V30 6292 C 578.038 -1.91301 0.334304 0
M  V30 6293 O 577.313 -1.82775 -0.665098 0
M  V30 6294 C 577.596 -2.24122 2.81853 0
M  V30 6295 C 577.449 -1.57944 4.21158 0
M  V30 6296 C 578.768 -3.25295 2.96431 0
M  V30 6297 H 575.887 -0.438233 0.592554 0
M  V30 6298 H 578.529 -0.50091 1.83278 0
M  V30 6299 H 576.679 -2.84524 2.64534 0
M  V30 6300 H 578.351 -1.01025 4.50102 0
M  V30 6301 H 576.594 -0.882185 4.24735 0
M  V30 6302 H 577.265 -2.33014 5.00408 0
M  V30 6303 H 579.741 -2.7493 3.12335 0
M  V30 6304 H 578.617 -3.94822 3.81322 0
M  V30 6305 H 578.878 -3.90286 2.07676 0
M  V30 6306 N 577.937 -1.40673 -0.710563 0
M  V30 6307 C 579.165 -1.42547 -1.4996 0
M  V30 6308 C 579.58 -0.0265485 -1.88781 0
M  V30 6309 O 578.937 0.950694 -1.55782 0
M  V30 6310 C 578.988 -2.32071 -2.77173 0
M  V30 6311 O 578.709 -3.66518 -2.39992 0
M  V30 6312 C 580.21 -2.42591 -3.71032 0
M  V30 6313 H 577.43 -0.486025 -0.462623 0
M  V30 6314 H 579.974 -1.84783 -0.876102 0
M  V30 6315 H 578.129 -1.93184 -3.35795 0
M  V30 6316 H 578.543 -4.14115 -3.21884 0
M  V30 6317 H 580.017 -3.09429 -4.57119 0
M  V30 6318 H 580.494 -1.4525 -4.14486 0
M  V30 6319 H 581.1 -2.82051 -3.18319 0
M  V30 6320 N 579.415 0.9433 -1.26252 0
M  V30 6321 C 580.661 1.69175 -1.11837 0
M  V30 6322 C 580.994 1.91238 0.337891 0
M  V30 6323 O 580.269 1.49152 1.24836 0
M  V30 6324 C 580.552 3.06783 -1.88563 0
M  V30 6325 C 580.405 2.9206 -3.42083 0
M  V30 6326 C 581.724 4.06865 -1.67776 0
M  V30 6327 H 578.843 0.61399 -0.407658 0
M  V30 6328 H 581.485 1.09572 -1.55222 0
M  V30 6329 H 579.635 3.57663 -1.51689 0
M  V30 6330 H 581.307 2.48419 -3.88698 0
M  V30 6331 H 579.55 2.27731 -3.69217 0
M  V30 6332 H 580.221 3.89651 -3.90994 0
M  V30 6333 H 582.697 3.64939 -1.99897 0
M  V30 6334 H 581.573 5.01168 -2.23879 0
M  V30 6335 H 581.834 4.37705 -0.621816 0
M  V30 6336 N 580.893 1.08022 1.14757 0
M  V30 6337 C 582.304 0.829144 1.67279 0
M  V30 6338 C 582.655 -0.644721 1.85305 0
M  V30 6339 O 581.78 -1.49838 1.56133 0
M  V30 6340 C 582.375 1.49855 3.03857 0
M  V30 6341 C 580.934 1.29482 3.53428 0
M  V30 6342 C 580.081 1.56386 2.28995 0
M  V30 6343 H 583.032 1.24134 0.988762 0
M  V30 6344 H 583.053 0.923572 3.69121 0
M  V30 6345 H 582.565 2.57123 2.90705 0
M  V30 6346 H 580.666 0.242669 3.71809 0
M  V30 6347 H 580.779 2.01974 4.34446 0
M  V30 6348 H 579.143 0.985217 2.34874 0
M  V30 6349 H 579.926 2.64851 2.18423 0
M  V30 6350 N 582.371 -1.3172 0.865308 0
M  V30 6351 C 583.319 -2.30569 0.306674 0
M  V30 6352 C 584.313 -1.59317 -0.575724 0
M  V30 6353 O 585.519 -1.73961 -0.462343 0
M  V30 6354 H 581.894 -0.747681 0.0804834 0
M  V30 6355 H 583.865 -2.75165 1.15441 0
M  V30 6356 C 582.614 -3.44358 -0.480952 0
M  V30 6357 H 581.937 -3.99354 0.18876 0
M  V30 6358 H 583.377 -4.15652 -0.837241 0
M  V30 6359 C 581.836 -2.92574 -1.67039 0
M  V30 6360 O 582.366 -2.90954 -2.76964 0
M  V30 6361 N 580.572 -2.48835 -1.50097 0
M  V30 6362 H 580.119 -2.50353 -0.606738 0
M  V30 6363 H 580.077 -2.14543 -2.29823 0
M  V30 6364 N 583.85 -0.624285 -1.44708 0
M  V30 6365 C 584.779 0.0717025 -2.3339 0
M  V30 6366 C 585.76 0.841814 -1.47809 0
M  V30 6367 O 586.946 0.809056 -1.76544 0
M  V30 6368 C 584.076 1.05852 -3.30776 0
M  V30 6369 C 583.029 0.400503 -4.26122 0
M  V30 6370 C 582.356 1.49674 -5.13324 0
M  V30 6371 C 583.656 -0.688924 -5.17737 0
M  V30 6372 H 585.35 -0.668819 -2.91834 0
M  V30 6373 H 582.896 -0.32308 -1.40329 0
M  V30 6374 H 584.849 1.5541 -3.91696 0
M  V30 6375 H 583.572 1.82984 -2.70526 0
M  V30 6376 H 582.231 -0.0743687 -3.66525 0
M  V30 6377 H 581.88 2.25877 -4.49431 0
M  V30 6378 H 581.58 1.06188 -5.77926 0
M  V30 6379 H 583.104 1.99427 -5.77115 0
M  V30 6380 H 584.518 -0.276724 -5.72632 0
M  V30 6381 H 582.915 -1.04652 -5.90904 0
M  V30 6382 H 583.985 -1.55884 -4.5916 0
M  V30 6383 N 585.328 1.53329 -0.364422 0
M  V30 6384 C 586.275 2.25698 0.482607 0
M  V30 6385 C 587.245 1.26325 1.07848 0
M  V30 6386 O 588.43 1.55104 1.11119 0
M  V30 6387 C 585.57 3.04873 1.61699 0
M  V30 6388 C 584.683 4.19135 1.0464 0
M  V30 6389 C 583.818 4.85754 2.14979 0
M  V30 6390 C 582.857 5.9205 1.5538 0
M  V30 6391 N 581.994 6.52365 2.59547 0
M  V30 6392 H 586.834 2.97666 -0.141032 0
M  V30 6393 H 584.371 1.46875 -0.0813692 0
M  V30 6394 H 586.329 3.49051 2.28516 0
M  V30 6395 H 584.959 2.35162 2.2113 0
M  V30 6396 H 584.011 3.79451 0.268553 0
M  V30 6397 H 585.323 4.95525 0.570653 0
M  V30 6398 H 584.477 5.3311 2.89619 0
M  V30 6399 H 583.216 4.08834 2.65906 0
M  V30 6400 H 582.221 5.44058 0.792549 0
M  V30 6401 H 583.446 6.7089 1.0528 0
M  V30 6402 H 581.392 5.78298 3.09689 0
M  V30 6403 H 581.309 7.2429 2.16655 0
M  V30 6404 H 582.577 7.0437 3.33892 0
M  V30 6405 N 586.806 0.0935595 1.57322 0
M  V30 6406 C 588.217 -0.435807 1.81542 0
M  V30 6407 C 588.568 -1.68263 1.00907 0
M  V30 6408 O 587.693 -2.15087 0.237983 0
M  V30 6409 C 588.288 -0.797436 3.29282 0
M  V30 6410 C 586.847 -1.27155 3.54272 0
M  V30 6411 C 585.994 -0.267455 2.76007 0
M  V30 6412 H 588.945 0.31902 1.5546 0
M  V30 6413 H 588.966 -1.6571 3.42521 0
M  V30 6414 H 588.478 0.110206 3.87943 0
M  V30 6415 H 586.579 -2.19696 3.00939 0
M  V30 6416 H 586.692 -1.23445 4.62923 0
M  V30 6417 H 585.056 -0.749282 2.43429 0
M  V30 6418 H 585.839 0.632839 3.37417 0
M  V30 6419 N 588.284 -1.56567 -0.180126 0
M  V30 6420 C 589.214 -1.98753 -1.22553 0
M  V30 6421 C 590.195 -0.86175 -1.46656 0
M  V30 6422 O 591.38 -1.12719 -1.58139 0
M  V30 6423 C 588.51 -2.33988 -2.56645 0
M  V30 6424 C 587.464 -3.49445 -2.47128 0
M  V30 6425 C 586.79 -3.70397 -3.8563 0
M  V30 6426 C 588.09 -4.83171 -1.98352 0
M  V30 6427 H 589.784 -2.86332 -0.874896 0
M  V30 6428 H 587.33 -1.37757 -0.419414 0
M  V30 6429 H 589.283 -2.62097 -3.29974 0
M  V30 6430 H 588.007 -1.43309 -2.93479 0
M  V30 6431 H 586.666 -3.2145 -1.76254 0
M  V30 6432 H 586.314 -2.77023 -4.19842 0
M  V30 6433 H 586.014 -4.48077 -3.80132 0
M  V30 6434 H 587.538 -4.00897 -4.60558 0
M  V30 6435 H 588.952 -5.10213 -2.61449 0
M  V30 6436 H 587.349 -5.64425 -2.03823 0
M  V30 6437 H 588.419 -4.75753 -0.937402 0
M  V30 6438 N 589.762 0.448376 -1.51087 0
M  V30 6439 C 590.99 1.22143 -1.66999 0
M  V30 6440 C 591.405 1.85283 -0.362699 0
M  V30 6441 O 590.762 1.70236 0.65772 0
M  V30 6442 C 590.813 2.31357 -2.7777 0
M  V30 6443 O 590.534 1.70801 -4.03434 0
M  V30 6444 C 592.035 3.21836 -3.04855 0
M  V30 6445 H 589.255 0.368558 -0.560719 0
M  V30 6446 H 591.799 0.532618 -1.97442 0
M  V30 6447 H 589.954 2.95973 -2.49958 0
M  V30 6448 H 590.368 2.42895 -4.64868 0
M  V30 6449 H 591.842 3.94627 -3.85971 0
M  V30 6450 H 592.319 3.81949 -2.16821 0
M  V30 6451 H 592.925 2.62933 -3.34285 0
M  V30 6452 N 591.24 1.41047 0.703093 0
M  V30 6453 C 592.486 1.40207 1.46526 0
M  V30 6454 C 592.819 0.00847763 1.94198 0
M  V30 6455 O 592.094 -0.962437 1.69019 0
M  V30 6456 C 592.377 2.40238 2.6825 0
M  V30 6457 C 592.23 3.88674 2.26391 0
M  V30 6458 C 593.549 2.37627 3.70434 0
M  V30 6459 H 590.668 0.510594 0.531472 0
M  V30 6460 H 593.31 1.72271 0.801422 0
M  V30 6461 H 591.46 2.13026 3.24888 0
M  V30 6462 H 593.132 4.2676 1.75138 0
M  V30 6463 H 591.375 4.03903 1.58255 0
M  V30 6464 H 592.046 4.542 3.13698 0
M  V30 6465 H 594.522 2.61759 3.23452 0
M  V30 6466 H 593.398 3.09645 4.53223 0
M  V30 6467 H 593.659 1.39223 4.19606 0
M  V30 6468 N 592.718 -0.936591 1.26751 0
M  V30 6469 C 593.948 -1.71509 1.15188 0
M  V30 6470 C 594.356 -1.86885 -0.295037 0
M  V30 6471 O 593.699 -1.37915 -1.21347 0
M  V30 6472 C 593.761 -3.13853 1.75318 0
M  V30 6473 C 593.425 -3.21845 3.24445 0
M  V30 6474 C 594.422 -3.04771 4.21201 0
M  V30 6475 C 592.107 -3.45088 3.64992 0
M  V30 6476 C 594.101 -3.10816 5.56482 0
M  V30 6477 C 591.788 -3.50767 5.00405 0
M  V30 6478 C 592.786 -3.33648 5.9596 0
M  V30 6479 O 592.474 -3.39045 7.28906 0
M  V30 6480 H 592.206 -0.543658 0.401761 0
M  V30 6481 H 594.76 -1.18234 1.67958 0
M  V30 6482 H 592.99 -3.6857 1.17016 0
M  V30 6483 H 594.679 -3.73634 1.58596 0
M  V30 6484 H 595.445 -2.86665 3.91214 0
M  V30 6485 H 591.324 -3.57467 2.91098 0
M  V30 6486 H 594.868 -2.97372 6.31043 0
M  V30 6487 H 590.765 -3.68396 5.30052 0
M  V30 6488 H 591.533 -3.55558 7.37238 0
M  V30 6489 N 594.196 -1.08629 -1.14182 0
M  V30 6490 C 595.436 -0.826884 -1.86928 0
M  V30 6491 C 595.8 0.635808 -1.81167 0
M  V30 6492 O 597.001 1.0108 -2.49071 0
M  V30 6493 C 595.272 -1.33721 -3.31442 0
M  V30 6494 S 596.831 -1.21045 -4.21774 0
M  V30 6495 H 593.649 -0.299286 -0.644941 0
M  V30 6496 H 596.251 -1.38802 -1.37674 0
M  V30 6497 H 594.955 -2.39617 -3.33184 0
M  V30 6498 H 594.486 -0.771839 -3.85754 0
M  V30 6499 H 596.501 -0.156168 -4.95954 0
M  V30 6500 N 595.674 1.31259 -0.872281 0
M  V30 6501 C 596.92 1.96913 -0.485083 0
M  V30 6502 C 597.253 1.68774 0.960667 0
M  V30 6503 O 596.528 0.985495 1.67685 0
M  V30 6504 C 596.811 3.52299 -0.745502 0
M  V30 6505 C 596.664 3.90002 -2.24095 0
M  V30 6506 C 597.983 4.39582 -0.213516 0
M  V30 6507 H 595.102 0.715252 -0.177716 0
M  V30 6508 H 597.744 1.55347 -1.09395 0
M  V30 6509 H 595.894 3.87835 -0.227276 0
M  V30 6510 H 597.566 3.64555 -2.82661 0
M  V30 6511 H 595.809 3.38526 -2.71261 0
M  V30 6512 H 596.48 4.98352 -2.37381 0
M  V30 6513 H 598.956 4.10882 -0.656902 0
M  V30 6514 H 597.832 5.47251 -0.42516 0
M  V30 6515 H 598.093 4.33158 0.884666 0
M  V30 6516 N 597.152 0.631951 1.44375 0
M  V30 6517 C 598.099 -0.0724807 2.30686 0
M  V30 6518 C 599.069 -0.835975 1.43529 0
M  V30 6519 O 600.254 -0.816849 1.7243 0
M  V30 6520 C 597.394 -1.04753 3.28817 0
M  V30 6521 C 596.507 -0.282367 4.31076 0
M  V30 6522 C 595.642 -1.2493 5.163 0
M  V30 6523 C 594.681 -0.473349 6.10267 0
M  V30 6524 N 593.818 -1.39079 6.88187 0
M  V30 6525 H 598.658 0.669477 2.90383 0
M  V30 6526 H 596.195 0.341927 1.43071 0
M  V30 6527 H 598.153 -1.62623 3.842 0
M  V30 6528 H 596.783 -1.75661 2.70819 0
M  V30 6529 H 595.835 0.412268 3.78159 0
M  V30 6530 H 597.147 0.321955 4.9776 0
M  V30 6531 H 596.301 -1.89931 5.76204 0
M  V30 6532 H 595.04 -1.88755 4.49692 0
M  V30 6533 H 594.045 0.190142 5.49471 0
M  V30 6534 H 595.27 0.16019 6.78911 0
M  V30 6535 H 593.216 -2.01623 6.24247 0
M  V30 6536 H 593.133 -0.840513 7.51313 0
M  V30 6537 H 594.401 -2.02961 7.52613 0
M  V30 6538 N 598.631 -1.53133 0.372548 0
M  V30 6539 C 599.594 -2.24569 -0.458389 0
M  V30 6540 C 600.594 -1.25603 -1.00402 0
M  V30 6541 O 601.784 -1.49827 -0.888672 0
M  V30 6542 C 598.916 -2.98783 -1.6414 0
M  V30 6543 H 600.109 -2.99436 0.166799 0
M  V30 6544 H 597.662 -1.55805 0.124357 0
M  V30 6545 H 598.397 -2.28176 -2.30448 0
M  V30 6546 H 598.182 -3.71404 -1.25704 0
M  V30 6547 H 599.672 -3.53068 -2.23008 0
M  V30 6548 N 600.109 -0.101901 -1.5727 0
M  V30 6549 C 601.525 0.254739 -1.57554 0
M  V30 6550 C 601.725 1.67937 -1.11352 0
M  V30 6551 O 600.781 2.39722 -0.793081 0
M  V30 6552 C 602.094 0.036975 -3.00677 0
M  V30 6553 C 603.642 0.104199 -3.12827 0
M  V30 6554 C 604.117 -0.0856565 -4.5792 0
M  V30 6555 N 605.608 -0.0310498 -4.6319 0
M  V30 6556 C 606.343 -0.153099 -5.73196 0
M  V30 6557 N 605.839 -0.330364 -6.92012 0
M  V30 6558 N 607.632 -0.0938854 -5.62022 0
M  V30 6559 H 599.783 -1.03263 -1.85609 0
M  V30 6560 H 602.046 -0.405251 -0.857016 0
M  V30 6561 H 601.752 -0.947254 -3.38703 0
M  V30 6562 H 601.626 0.776335 -3.69124 0
M  V30 6563 H 604.013 1.07894 -2.74669 0
M  V30 6564 H 604.094 -0.666762 -2.46957 0
M  V30 6565 H 603.738 -1.05729 -4.96773 0
M  V30 6566 H 603.668 0.705082 -5.21858 0
M  V30 6567 H 606.159 0.103141 -3.77759 0
M  V30 6568 H 606.472 -0.41482 -7.71686 0
M  V30 6569 H 604.817 -0.366119 -6.94035 0
M  V30 6570 H 608.008 0.0435168 -4.6808 0
M  V30 6571 H 608.181 -0.19245 -6.47714 0
M  V30 6572 N 601.587 1.56661 0.17182 0
M  V30 6573 C 602.55 1.9549 1.19651 0
M  V30 6574 C 603.55 0.838501 1.37207 0
M  V30 6575 O 604.74 1.10556 1.34622 0
M  V30 6576 C 601.872 2.24927 2.56166 0
M  V30 6577 H 603.065 2.87184 0.864007 0
M  V30 6578 H 600.618 1.50711 0.41425 0
M  V30 6579 H 601.353 1.35944 2.94431 0
M  V30 6580 H 601.138 3.06301 2.4479 0
M  V30 6581 H 602.628 2.55891 3.30014 0
M  V30 6582 N 603.065 -0.440357 1.51323 0
M  V30 6583 C 604.015 -1.53263 1.68803 0
M  V30 6584 C 604.999 -1.51494 0.542057 0
M  V30 6585 O 606.191 -1.57999 0.797839 0
M  V30 6586 C 603.32 -2.91479 1.8137 0
M  V30 6587 C 602.406 -2.98015 3.01742 0
M  V30 6588 N 602.797 -2.743 4.24962 0
M  V30 6589 C 601.095 -3.29173 3.00934 0
M  V30 6590 C 601.796 -2.86601 5.06197 0
M  V30 6591 N 600.772 -3.1814 4.40781 0
M  V30 6592 H 604.574 -1.33675 2.61741 0
M  V30 6593 H 602.088 -0.647616 1.48929 0
M  V30 6594 H 604.085 -3.70055 1.92002 0
M  V30 6595 H 602.745 -3.12089 0.896117 0
M  V30 6596 H 603.756 -2.49287 4.53957 0
M  V30 6597 H 600.433 -3.55577 2.18796 0
M  V30 6598 H 601.823 -2.72246 6.14274 0
M  V30 6599 N 604.543 -1.41418 -0.695603 0
M  V30 6600 C 605.771 -1.4413 -1.48439 0
M  V30 6601 C 606.186 -0.0465698 -1.88743 0
M  V30 6602 O 605.543 0.934117 -1.56782 0
M  V30 6603 C 605.594 -2.34998 -2.74696 0
M  V30 6604 O 605.315 -3.69043 -2.36091 0
M  V30 6605 C 606.816 -2.46513 -3.68438 0
M  V30 6606 H 604.036 -0.490905 -0.457442 0
M  V30 6607 H 606.58 -1.85702 -0.856454 0
M  V30 6608 H 604.735 -1.96735 -3.33728 0
M  V30 6609 H 605.149 -4.17505 -3.17474 0
M  V30 6610 H 606.623 -3.1426 -4.53811 0
M  V30 6611 H 607.1 -1.49638 -4.12922 0
M  V30 6612 H 607.706 -2.85412 -3.1531 0
M  V30 6613 N 606.021 0.929856 -1.27246 0
M  V30 6614 C 606.954 2.03069 -1.04106 0
M  V30 6615 C 607.932 1.62556 0.0378417 0
M  V30 6616 O 609.116 1.88197 -0.106869 0
M  V30 6617 C 606.243 3.33718 -0.578778 0
M  V30 6618 C 605.289 3.93209 -1.65193 0
M  V30 6619 S 606.122 4.26068 -3.24386 0
M  V30 6620 C 607.278 5.598 -2.79954 0
M  V30 6621 H 607.511 2.22386 -1.97311 0
M  V30 6622 H 605.044 1.07269 -1.11053 0
M  V30 6623 H 607.002 4.09261 -0.31874 0
M  V30 6624 H 605.663 3.12328 0.333182 0
M  V30 6625 H 604.856 4.87482 -1.27973 0
M  V30 6626 H 604.458 3.24243 -1.86393 0
M  V30 6627 H 606.75 6.39004 -2.25123 0
M  V30 6628 H 607.693 6.01917 -3.72963 0
M  V30 6629 H 608.101 5.20219 -2.19164 0
M  V30 6630 N 607.499 1.09233 1.13605 0
M  V30 6631 C 608.776 0.739633 1.81077 0
M  V30 6632 C 609.156 -0.775595 1.96336 0
M  V30 6633 O 608.504 -1.69726 1.52988 0
M  V30 6634 C 608.714 1.47636 3.16235 0
M  V30 6635 C 610.062 1.64087 3.91613 0
M  V30 6636 O 611.086 1.43871 3.25852 0
M  V30 6637 O 609.945 1.97511 5.0956 0
M  V30 6638 H 607.039 0.265464 0.783236 0
M  V30 6639 H 609.585 1.19441 1.20549 0
M  V30 6640 H 608.357 2.50818 3.00344 0
M  V30 6641 H 607.98 1.01362 3.84462 0
M  V30 6642 N 608.977 -1.30795 0.87923 0
M  V30 6643 C 609.887 -2.32041 0.345565 0
M  V30 6644 C 610.903 -1.65103 -0.549265 0
M  V30 6645 O 612.079 -1.9645 -0.443763 0
M  V30 6646 C 609.144 -3.43944 -0.436245 0
M  V30 6647 C 608.205 -4.26521 0.48765 0
M  V30 6648 C 607.438 -5.33081 -0.256943 0
M  V30 6649 O 607.661 -5.50762 -1.48381 0
M  V30 6650 O 606.595 -6.00635 0.389985 0
M  V30 6651 H 610.421 -2.79627 1.18501 0
M  V30 6652 H 608.006 -1.3486 0.642885 0
M  V30 6653 H 609.888 -4.12128 -0.879119 0
M  V30 6654 H 608.563 -2.98504 -1.25208 0
M  V30 6655 H 607.47 -3.61057 0.979216 0
M  V30 6656 H 608.803 -4.75551 1.26933 0
M  V30 6657 N 610.455 -0.639598 -1.44038 0
M  V30 6658 C 611.402 0.0602458 -2.30721 0
M  V30 6659 C 612.372 0.828352 -1.43971 0
M  V30 6660 O 613.557 0.807693 -1.72861 0
M  V30 6661 C 610.697 1.03008 -3.29368 0
M  V30 6662 C 609.81 0.259502 -4.3122 0
M  V30 6663 C 608.945 1.22191 -5.16955 0
M  V30 6664 C 607.984 0.440978 -6.10509 0
M  V30 6665 N 607.121 1.35428 -6.88915 0
M  V30 6666 H 611.961 -0.684867 -2.90023 0
M  V30 6667 H 609.498 -0.349509 -1.42888 0
M  V30 6668 H 611.456 1.60583 -3.85057 0
M  V30 6669 H 610.086 1.74222 -2.71747 0
M  V30 6670 H 609.138 -0.432317 -3.77935 0
M  V30 6671 H 610.45 -0.348347 -4.97582 0
M  V30 6672 H 609.604 1.86873 -5.77203 0
M  V30 6673 H 608.343 1.86367 -4.50687 0
M  V30 6674 H 607.348 -0.219279 -5.49363 0
M  V30 6675 H 608.573 -0.196192 -6.78817 0
M  V30 6676 H 606.519 1.9831 -6.25307 0
M  V30 6677 H 606.436 0.800657 -7.51748 0
M  V30 6678 H 607.704 1.98967 -7.53679 0
M  V30 6679 N 611.933 1.52934 -0.380664 0
M  V30 6680 C 612.863 2.29118 0.450268 0
M  V30 6681 C 613.844 1.32153 1.07096 0
M  V30 6682 O 615.029 1.61038 1.08537 0
M  V30 6683 C 612.159 3.09161 1.58231 0
M  V30 6684 C 611.113 4.13938 1.0881 0
M  V30 6685 C 610.439 4.82153 2.31155 0
M  V30 6686 C 611.739 5.22048 0.162146 0
M  V30 6687 H 613.433 2.98826 -0.185361 0
M  V30 6688 H 610.979 1.43715 -0.0905886 0
M  V30 6689 H 612.932 3.61211 2.17036 0
M  V30 6690 H 611.656 2.3717 2.2454 0
M  V30 6691 H 610.315 3.62855 0.522633 0
M  V30 6692 H 609.963 4.06719 2.95953 0
M  V30 6693 H 609.663 5.52966 1.98752 0
M  V30 6694 H 611.187 5.37004 2.90618 0
M  V30 6695 H 612.601 5.6951 0.658126 0
M  V30 6696 H 610.998 6.00057 -0.0717122 0
M  V30 6697 H 612.068 4.78398 -0.791438 0
M  V30 6698 N 613.412 0.11024 1.57214 0
M  V30 6699 C 614.36 -0.860586 2.16094 0
M  V30 6700 C 615.354 -1.28156 1.1078 0
M  V30 6701 O 616.56 -1.25433 1.29099 0
M  V30 6702 H 612.935 -0.295606 0.691463 0
M  V30 6703 H 614.906 -0.33942 2.96463 0
M  V30 6704 C 613.655 -2.10421 2.768 0
M  V30 6705 H 612.978 -1.7892 3.5753 0
M  V30 6706 H 614.418 -2.76375 3.21547 0
M  V30 6707 C 612.877 -2.88823 1.73444 0
M  V30 6708 O 613.407 -3.839 1.18251 0
M  V30 6709 N 611.613 -2.52649 1.43586 0
M  V30 6710 H 611.16 -1.754 1.8866 0
M  V30 6711 H 611.118 -3.05403 0.746735 0
M  V30 6712 N 614.89 -1.56749 -0.16351 0
M  V30 6713 C 615.837 -1.97011 -1.2023 0
M  V30 6714 C 616.807 -0.835186 -1.43575 0
M  V30 6715 O 617.992 -1.09594 -1.56185 0
M  V30 6716 C 615.132 -2.34186 -2.53478 0
M  V30 6717 C 614.245 -3.60893 -2.37446 0
M  V30 6718 C 613.38 -3.87245 -3.63614 0
M  V30 6719 C 612.419 -5.07274 -3.42548 0
M  V30 6720 N 611.556 -5.29719 -4.60806 0
M  V30 6721 H 616.396 -2.85562 -0.851958 0
M  V30 6722 H 613.933 -1.41292 -0.409257 0
M  V30 6723 H 615.891 -2.53764 -3.31149 0
M  V30 6724 H 614.521 -1.48736 -2.86492 0
M  V30 6725 H 613.573 -3.49185 -1.50911 0
M  V30 6726 H 614.885 -4.48722 -2.1783 0
M  V30 6727 H 614.039 -4.07232 -4.49719 0
M  V30 6728 H 612.778 -2.97806 -3.86216 0
M  V30 6729 H 611.783 -4.87177 -2.5483 0
M  V30 6730 H 613.008 -5.98251 -3.2136 0
M  V30 6731 H 610.954 -4.43233 -4.83612 0
M  V30 6732 H 610.871 -6.11786 -4.44132 0
M  V30 6733 H 612.139 -5.54192 -5.48171 0
M  V30 6734 N 616.368 0.432326 -1.51554 0
M  V30 6735 C 617.593 1.20824 -1.68571 0
M  V30 6736 C 618.018 1.84126 -0.384596 0
M  V30 6737 O 617.376 1.69025 0.655751 0
M  V30 6738 C 617.424 2.26429 -2.80646 0
M  V30 6739 O 616.528 3.32032 -2.44598 0
M  V30 6740 H 615.869 0.353765 -0.561913 0
M  V30 6741 H 618.399 0.509916 -1.98144 0
M  V30 6742 H 618.409 2.71133 -3.04878 0
M  V30 6743 H 617.084 1.79733 -3.75058 0
M  V30 6744 H 615.661 2.92769 -2.30956 0
M  V30 6745 N 617.846 1.41785 0.688094 0
M  V30 6746 C 619.071 1.45117 1.48175 0
M  V30 6747 C 619.496 0.060129 1.88004 0
M  V30 6748 O 618.854 -0.938385 1.55126 0
M  V30 6749 C 618.902 2.37224 2.71583 0
M  V30 6750 O 618.006 1.83443 3.69354 0
M  V30 6751 H 617.347 0.492208 0.445676 0
M  V30 6752 H 619.877 1.86329 0.845145 0
M  V30 6753 H 619.887 2.53353 3.19806 0
M  V30 6754 H 618.562 3.38293 2.41931 0
M  V30 6755 H 617.139 1.76802 3.28322 0
M  V30 6756 N 619.324 -0.923095 1.27737 0
M  V30 6757 C 620.57 -1.67375 1.14514 0
M  V30 6758 C 620.903 -1.91751 -0.307424 0
M  V30 6759 O 620.178 -1.51119 -1.22447 0
M  V30 6760 C 620.461 -3.03745 1.9342 0
M  V30 6761 C 620.314 -2.86581 3.46686 0
M  V30 6762 C 621.633 -4.04144 1.74228 0
M  V30 6763 H 618.752 -0.607427 0.417374 0
M  V30 6764 H 621.394 -1.07089 1.56946 0
M  V30 6765 H 619.544 -3.55204 1.5736 0
M  V30 6766 H 621.216 -2.42203 3.92601 0
M  V30 6767 H 619.459 -2.21829 3.72793 0
M  V30 6768 H 620.13 -3.83381 3.97143 0
M  V30 6769 H 622.606 -3.61712 2.05678 0
M  V30 6770 H 621.482 -4.97543 2.31824 0
M  V30 6771 H 621.743 -4.36661 0.691373 0
M  V30 6772 N 620.802 -1.09834 -1.13024 0
M  V30 6773 C 622.049 -0.83695 -1.84395 0
M  V30 6774 C 622.377 0.637463 -1.83757 0
M  V30 6775 O 621.632 1.48554 -1.27398 0
M  V30 6776 C 621.931 -1.32263 -3.32026 0
M  V30 6777 C 621.597 -2.80739 -3.52841 0
M  V30 6778 C 620.259 -3.21286 -3.5823 0
M  V30 6779 C 622.611 -3.76449 -3.60466 0
M  V30 6780 C 619.939 -4.56308 -3.68781 0
M  V30 6781 C 622.291 -5.11266 -3.72546 0
M  V30 6782 C 620.955 -5.51397 -3.76189 0
M  V30 6783 H 620.225 -0.306262 -0.674748 0
M  V30 6784 H 622.872 -1.37385 -1.33408 0
M  V30 6785 H 621.177 -0.705618 -3.85394 0
M  V30 6786 H 622.874 -1.09695 -3.85705 0
M  V30 6787 H 619.464 -2.48363 -3.49305 0
M  V30 6788 H 623.648 -3.46234 -3.55578 0
M  V30 6789 H 618.904 -4.86832 -3.69871 0
M  V30 6790 H 623.078 -5.85279 -3.77388 0
M  V30 6791 H 620.705 -6.56017 -3.84117 0
M  V30 6792 N 622.28 1.30327 -0.886154 0
M  V30 6793 C 623.505 2.0079 -0.519425 0
M  V30 6794 C 623.93 1.65979 0.885013 0
M  V30 6795 O 623.288 0.877043 1.58675 0
M  V30 6796 C 623.336 3.53686 -0.702758 0
M  V30 6797 O 622.44 4.11637 0.250828 0
M  V30 6798 H 621.781 0.63171 -0.204544 0
M  V30 6799 H 624.311 1.66145 -1.19402 0
M  V30 6800 H 624.321 4.03531 -0.602207 0
M  V30 6801 H 622.996 3.78361 -1.72673 0
M  V30 6802 H 621.573 3.72755 0.103873 0
M  V30 6803 N 623.758 0.647228 1.43697 0
M  V30 6804 C 625.035 0.0883758 1.954 0
M  V30 6805 C 625.415 -1.39006 1.58873 0
M  V30 6806 O 624.763 -2.11255 0.87083 0
M  V30 6807 C 624.973 0.328263 3.47453 0
M  V30 6808 C 626.321 0.230009 4.23977 0
M  V30 6809 O 627.345 0.260496 3.55246 0
M  V30 6810 O 626.204 0.148615 5.46298 0
M  V30 6811 H 623.298 -0.0130683 0.826897 0
M  V30 6812 H 625.844 0.72005 1.53666 0
M  V30 6813 H 624.616 1.3535 3.67146 0
M  V30 6814 H 624.239 -0.336772 3.96171 0
M  V30 6815 N 625.236 -1.5273 0.388769 0
M  V30 6816 C 626.199 -2.25043 -0.434544 0
M  V30 6817 C 627.199 -1.26661 -0.990644 0
M  V30 6818 O 628.389 -1.50762 -0.872731 0
M  V30 6819 C 625.521 -3.00507 -1.60961 0
M  V30 6820 H 626.714 -2.99242 0.198549 0
M  V30 6821 H 624.267 -1.55664 0.140875 0
M  V30 6822 H 625.002 -2.30607 -2.28015 0
M  V30 6823 H 624.787 -3.72716 -1.21757 0
M  V30 6824 H 626.277 -3.55413 -2.19251 0
M  V30 6825 N 626.714 -0.118576 -1.57153 0
M  V30 6826 C 627.96 0.540326 -1.95469 0
M  V30 6827 C 628.293 1.66356 -1.00196 0
M  V30 6828 O 627.568 1.94461 -0.039104 0
M  V30 6829 C 627.851 1.07342 -3.43729 0
M  V30 6830 C 627.704 -0.0463732 -4.49776 0
M  V30 6831 C 629.023 1.96442 -3.93826 0
M  V30 6832 H 626.142 0.19494 -0.710751 0
M  V30 6833 H 628.784 -0.19405 -1.89006 0
M  V30 6834 H 626.934 1.69925 -3.49368 0
M  V30 6835 H 628.606 -0.681648 -4.56236 0
M  V30 6836 H 626.849 -0.709574 -4.27957 0
M  V30 6837 H 627.52 0.367856 -5.50773 0
M  V30 6838 H 629.996 1.43731 -3.90488 0
M  V30 6839 H 628.872 2.3066 -4.98084 0
M  V30 6840 H 629.133 2.89077 -3.34495 0
M  V30 6841 N 628.193 1.56834 0.155195 0
M  V30 6842 C 629.433 1.84701 0.875488 0
M  V30 6843 C 629.797 0.701747 1.78716 0
M  V30 6844 O 630.998 0.861263 2.54629 0
M  V30 6845 C 629.269 3.1773 1.63654 0
M  V30 6846 S 630.828 3.67128 2.40338 0
M  V30 6847 H 627.646 0.647856 0.292923 0
M  V30 6848 H 630.248 1.95026 0.136024 0
M  V30 6849 H 628.952 3.99059 0.958117 0
M  V30 6850 H 628.483 3.10388 2.41708 0
M  V30 6851 H 630.498 3.35739 3.65368 0
M  V30 6852 N 629.671 -0.424282 1.51781 0
M  V30 6853 C 630.581 -1.54087 1.76902 0
M  V30 6854 C 631.597 -1.61249 0.653826 0
M  V30 6855 O 632.773 -1.78247 0.937552 0
M  V30 6856 C 629.838 -2.8996 1.90063 0
M  V30 6857 C 628.899 -2.92809 3.13945 0
M  V30 6858 C 628.132 -4.22201 3.26469 0
M  V30 6859 O 628.355 -5.15286 2.44616 0
M  V30 6860 O 627.289 -4.31599 4.1953 0
M  V30 6861 H 631.115 -1.358 2.71647 0
M  V30 6862 H 628.7 -0.608618 1.36441 0
M  V30 6863 H 630.582 -3.70575 2.0063 0
M  V30 6864 H 629.257 -3.08347 0.985067 0
M  V30 6865 H 628.164 -2.11102 3.08847 0
M  V30 6866 H 629.497 -2.79369 4.05233 0
M  V30 6867 N 631.149 -1.42148 -0.680565 0
M  V30 6868 C 632.096 -1.45175 -1.79424 0
M  V30 6869 C 633.066 -0.304352 -1.63288 0
M  V30 6870 O 634.251 -0.507591 -1.83924 0
M  V30 6871 C 631.391 -1.35429 -3.17416 0
M  V30 6872 C 630.504 -2.60158 -3.4488 0
M  V30 6873 C 629.639 -2.42596 -4.72568 0
M  V30 6874 C 628.678 -3.62727 -4.93047 0
M  V30 6875 N 627.815 -3.44143 -6.11973 0
M  V30 6876 H 632.655 -2.40349 -1.76172 0
M  V30 6877 H 630.192 -1.19334 -0.860107 0
M  V30 6878 H 632.15 -1.27777 -3.97151 0
M  V30 6879 H 630.78 -0.438536 -3.19807 0
M  V30 6880 H 629.832 -2.78199 -2.5944 0
M  V30 6881 H 631.144 -3.49473 -3.55908 0
M  V30 6882 H 630.298 -2.32497 -5.60384 0
M  V30 6883 H 629.037 -1.50761 -4.63813 0
M  V30 6884 H 628.042 -3.73264 -4.03676 0
M  V30 6885 H 629.267 -4.55534 -5.03652 0
M  V30 6886 H 627.213 -2.5502 -6.04401 0
M  V30 6887 H 627.13 -4.27041 -6.23836 0
M  V30 6888 H 628.398 -3.37845 -7.02482 0
M  V30 6889 N 632.627 0.916307 -1.28225 0
M  V30 6890 C 633.855 1.69901 -1.18073 0
M  V30 6891 C 634.27 1.86988 0.260968 0
M  V30 6892 O 633.627 1.39505 1.17663 0
M  V30 6893 C 633.678 3.09254 -1.87201 0
M  V30 6894 O 633.399 2.92959 -3.2574 0
M  V30 6895 C 634.9 4.0362 -1.83319 0
M  V30 6896 H 632.12 0.531181 -0.409985 0
M  V30 6897 H 634.664 1.14703 -1.69303 0
M  V30 6898 H 632.819 3.61277 -1.39848 0
M  V30 6899 H 633.233 3.81139 -3.60324 0
M  V30 6900 H 634.707 4.98873 -2.36282 0
M  V30 6901 H 635.184 4.3176 -0.805007 0
M  V30 6902 H 635.79 3.57524 -2.3034 0
M  V30 6903 N 634.105 1.10431 1.1244 0
M  V30 6904 C 635.052 0.753103 2.18167 0
M  V30 6905 C 636.022 -0.270549 1.63882 0
M  V30 6906 O 637.207 -0.149837 1.90211 0
M  V30 6907 C 634.347 0.191046 3.44571 0
M  V30 6908 C 633.46 1.26999 4.12911 0
M  V30 6909 C 632.595 0.669586 5.26963 0
M  V30 6910 C 631.634 1.72912 5.87169 0
M  V30 6911 N 630.771 1.14898 6.92635 0
M  V30 6912 H 635.611 1.65892 2.47556 0
M  V30 6913 H 633.148 0.828631 1.21541 0
M  V30 6914 H 635.106 -0.152712 4.1692 0
M  V30 6915 H 633.736 -0.677997 3.15599 0
M  V30 6916 H 632.788 1.73087 3.3874 0
M  V30 6917 H 634.1 2.07204 4.53727 0
M  V30 6918 H 633.254 0.275274 6.06075 0
M  V30 6919 H 631.993 -0.163895 4.87425 0
M  V30 6920 H 630.998 2.13286 5.06744 0
M  V30 6921 H 632.223 2.56544 6.28778 0
M  V30 6922 H 630.169 0.336956 6.55134 0
M  V30 6923 H 630.086 1.88786 7.32049 0
M  V30 6924 H 631.354 0.78121 7.75576 0
M  V30 6925 N 635.583 -1.29855 0.893053 0
M  V30 6926 C 636.994 -1.77946 0.564998 0
M  V30 6927 C 637.345 -1.73339 -0.919134 0
M  V30 6928 O 636.47 -1.3152 -1.71847 0
M  V30 6929 C 637.065 -3.23118 1.01883 0
M  V30 6930 C 635.624 -3.69013 0.742051 0
M  V30 6931 C 634.771 -2.50121 1.19727 0
M  V30 6932 H 637.722 -1.16611 1.07646 0
M  V30 6933 H 637.743 -3.78875 0.351249 0
M  V30 6934 H 637.255 -3.26439 2.09903 0
M  V30 6935 H 635.356 -3.71173 -0.325816 0
M  V30 6936 H 635.469 -4.60117 1.33527 0
M  V30 6937 H 633.833 -2.47128 0.616418 0
M  V30 6938 H 634.616 -2.56174 2.28538 0
M  V30 6939 N 637.061 -0.65484 -1.43351 0
M  V30 6940 C 638.309 -0.168559 -2.01396 0
M  V30 6941 C 638.63 1.22235 -1.51933 0
M  V30 6942 O 637.9 1.81685 -0.732627 0
M  V30 6943 H 636.48 -0.0593244 -0.744641 0
M  V30 6944 H 639.142 -0.846871 -1.75539 0
M  V30 6945 H 638.238 -0.154428 -3.11718 0
M  V30 6946 N 638.539 1.52521 -0.396863 0
M  V30 6947 C 639.487 2.28217 0.44943 0
M  V30 6948 C 640.481 1.32416 1.05652 0
M  V30 6949 O 641.687 1.49925 0.996124 0
M  V30 6950 H 638.062 0.733966 0.1637 0
M  V30 6951 H 640.033 2.97658 -0.210367 0
M  V30 6952 C 638.782 3.10713 1.56054 0
M  V30 6953 H 638.105 3.84291 1.10273 0
M  V30 6954 H 639.545 3.66803 2.12677 0
M  V30 6955 C 638.004 2.23499 2.52091 0
M  V30 6956 O 638.534 1.8669 3.55682 0
M  V30 6957 N 636.74 1.8751 2.2201 0
M  V30 6958 H 636.287 2.17643 1.37802 0
M  V30 6959 H 636.245 1.29448 2.86514 0
M  V30 6960 N 640.017 0.126909 1.57088 0
M  V30 6961 C 641.245 -0.53667 1.99819 0
M  V30 6962 C 641.66 -1.5972 1.00673 0
M  V30 6963 O 641.017 -1.825 0.000747365 0
M  V30 6964 C 641.068 -1.15563 3.42531 0
M  V30 6965 O 640.789 -0.137483 4.37884 0
M  V30 6966 C 642.29 -1.90176 4.00435 0
M  V30 6967 H 639.51 -0.141443 0.655923 0
M  V30 6968 H 642.054 0.215578 2.03361 0
M  V30 6969 H 640.209 -1.85861 3.39904 0
M  V30 6970 H 640.623 -0.588229 5.21191 0
M  V30 6971 H 642.097 -2.28801 5.02349 0
M  V30 6972 H 642.574 -2.78002 3.40017 0
M  V30 6973 H 643.18 -1.24623 4.06632 0
M  V30 6974 N 641.495 -1.56914 -0.146875 0
M  V30 6975 C 642.72 -1.87881 -0.878386 0
M  V30 6976 C 643.145 -0.715945 -1.73942 0
M  V30 6977 O 642.503 0.334447 -1.78189 0
M  V30 6978 C 642.551 -3.17431 -1.71084 0
M  V30 6979 O 641.655 -3.01374 -2.81509 0
M  V30 6980 H 640.996 -0.617289 -0.244644 0
M  V30 6981 H 643.526 -2.04136 -0.137654 0
M  V30 6982 H 643.536 -3.49455 -2.10582 0
M  V30 6983 H 642.211 -4.01671 -1.07856 0
M  V30 6984 H 640.788 -2.80758 -2.45416 0
M  V30 6985 N 642.974 0.416227 -1.52004 0
M  V30 6986 C 643.921 1.50666 -1.74838 0
M  V30 6987 C 644.891 1.55245 -0.590599 0
M  V30 6988 O 646.076 1.71928 -0.827374 0
M  V30 6989 C 643.216 2.88185 -1.89851 0
M  V30 6990 C 642.329 2.92971 -3.17478 0
M  V30 6991 C 641.464 4.21745 -3.22962 0
M  V30 6992 C 640.503 4.20478 -4.4482 0
M  V30 6993 N 639.64 5.40811 -4.47736 0
M  V30 6994 H 644.48 1.30498 -2.67907 0
M  V30 6995 H 642.017 0.633568 -1.32757 0
M  V30 6996 H 643.975 3.68007 -1.96537 0
M  V30 6997 H 642.605 3.06865 -1.00169 0
M  V30 6998 H 641.657 2.05684 -3.19997 0
M  V30 6999 H 642.969 2.87899 -4.07328 0
M  V30 7000 H 642.123 5.09954 -3.28682 0
M  V30 7001 H 640.862 4.29503 -2.31038 0
M  V30 7002 H 639.867 3.30659 -4.39254 0
M  V30 7003 H 641.092 4.14366 -5.38031 0
M  V30 7004 H 639.038 5.4925 -3.58692 0
M  V30 7005 H 638.955 5.37705 -5.31422 0
M  V30 7006 H 640.223 6.30993 -4.57676 0
M  V30 7007 N 644.452 1.42507 0.673017 0
M  V30 7008 C 645.701 1.42364 1.42883 0
M  V30 7009 C 646.014 0.0441598 1.9555 0
M  V30 7010 O 647.22 -0.0798679 2.71382 0
M  V30 7011 C 645.676 2.5043 2.58482 0
M  V30 7012 C 645.284 3.94392 2.12506 0
M  V30 7013 C 647.028 2.59455 3.35981 0
M  V30 7014 C 644.935 4.93964 3.25198 0
M  V30 7015 H 643.865 0.52951 0.536782 0
M  V30 7016 H 646.516 1.68422 0.728448 0
M  V30 7017 H 644.898 2.1754 3.30896 0
M  V30 7018 H 646.072 4.36645 1.47233 0
M  V30 7019 H 644.387 3.89233 1.4794 0
M  V30 7020 H 646.984 3.31025 4.19912 0
M  V30 7021 H 647.327 1.63869 3.82691 0
M  V30 7022 H 647.86 2.91549 2.70637 0
M  V30 7023 H 644.599 5.91034 2.83477 0
M  V30 7024 H 644.119 4.56341 3.89247 0
M  V30 7025 H 645.798 5.15763 3.90637 0
M  V30 7026 N 645.93 -0.909495 1.28709 0
M  V30 7027 C 647.176 -1.66175 1.17293 0
M  V30 7028 C 647.531 -1.90426 -0.274891 0
M  V30 7029 O 646.824 -1.49659 -1.19635 0
M  V30 7030 C 647.018 -3.02117 1.90945 0
M  V30 7031 C 646.847 -2.91134 3.42741 0
M  V30 7032 C 645.617 -2.92429 4.12085 0
M  V30 7033 C 647.815 -2.68889 4.3841 0
M  V30 7034 N 645.797 -2.72078 5.50315 0
M  V30 7035 C 647.168 -2.57423 5.64033 0
M  V30 7036 C 649.223 -2.53919 4.28287 0
M  V30 7037 C 647.926 -2.32513 6.80683 0
M  V30 7038 C 649.952 -2.3039 5.44678 0
M  V30 7039 C 649.314 -2.19682 6.69268 0
M  V30 7040 H 645.413 -0.614095 0.48416 0
M  V30 7041 H 647.997 -1.07377 1.62414 0
M  V30 7042 H 646.168 -3.58993 1.48252 0
M  V30 7043 H 647.9 -3.66388 1.71878 0
M  V30 7044 H 644.655 -3.03345 3.63701 0
M  V30 7045 H 645.079 -2.64983 6.22987 0
M  V30 7046 H 649.721 -2.60946 3.32666 0
M  V30 7047 H 647.439 -2.24225 7.76369 0
M  V30 7048 H 651.025 -2.19665 5.38738 0
M  V30 7049 H 649.905 -2.01725 7.5781 0
M  V30 7050 N 647.408 -1.11026 -1.11852 0
M  V30 7051 C 648.338 -0.786812 -2.19844 0
M  V30 7052 C 649.319 0.242935 -1.68356 0
M  V30 7053 O 650.504 0.107355 -1.93903 0
M  V30 7054 C 647.634 -0.224516 -3.46574 0
M  V30 7055 C 646.588 -1.18564 -4.1125 0
M  V30 7056 C 645.914 -0.484261 -5.32503 0
M  V30 7057 C 647.214 -2.53465 -4.56676 0
M  V30 7058 H 648.908 -1.68978 -2.47158 0
M  V30 7059 H 646.454 -0.813906 -1.18792 0
M  V30 7060 H 648.407 0.0139435 -4.21398 0
M  V30 7061 H 647.131 0.713722 -3.18706 0
M  V30 7062 H 645.79 -1.40966 -3.38414 0
M  V30 7063 H 645.438 0.458646 -5.00905 0
M  V30 7064 H 645.138 -1.12526 -5.76725 0
M  V30 7065 H 646.662 -0.254492 -6.10069 0
M  V30 7066 H 648.076 -2.35177 -5.22843 0
M  V30 7067 H 646.473 -3.13507 -5.11697 0
M  V30 7068 H 647.543 -3.13008 -3.70343 0
M  V30 7069 N 648.886 1.2938 -0.899927 0
M  V30 7070 C 650.135 1.9483 -0.521937 0
M  V30 7071 C 650.448 1.71725 0.936473 0
M  V30 7072 O 651.654 2.31282 1.42199 0
M  V30 7073 C 650.11 3.48911 -0.88255 0
M  V30 7074 C 649.718 3.80815 -2.35974 0
M  V30 7075 C 651.462 4.20595 -0.57448 0
M  V30 7076 C 649.369 5.28142 -2.66121 0
M  V30 7077 H 648.299 0.729285 -0.191468 0
M  V30 7078 H 650.95 1.47103 -1.09695 0
M  V30 7079 H 649.332 3.95293 -0.236459 0
M  V30 7080 H 650.506 3.45291 -3.05141 0
M  V30 7081 H 648.821 3.22271 -2.63686 0
M  V30 7082 H 651.418 5.29031 -0.776556 0
M  V30 7083 H 651.761 4.13442 0.487005 0
M  V30 7084 H 652.294 3.79945 -1.17842 0
M  V30 7085 H 649.033 5.4036 -3.71068 0
M  V30 7086 H 648.553 5.64913 -2.01578 0
M  V30 7087 H 650.232 5.95738 -2.52399 0
M  V30 7088 N 650.364 0.662433 1.43002 0
M  V30 7089 C 651.61 0.179857 2.02001 0
M  V30 7090 C 651.943 -1.20625 1.52195 0
M  V30 7091 O 651.218 -1.80726 0.718911 0
M  V30 7092 C 651.501 0.200845 3.59539 0
M  V30 7093 C 651.354 1.62153 4.19555 0
M  V30 7094 C 652.673 -0.457738 4.37713 0
M  V30 7095 H 649.792 0.0668305 0.733964 0
M  V30 7096 H 652.434 0.84487 1.70182 0
M  V30 7097 H 650.584 -0.365411 3.86778 0
M  V30 7098 H 652.256 2.23908 4.03315 0
M  V30 7099 H 650.499 2.16601 3.75854 0
M  V30 7100 H 651.17 1.58799 5.28665 0
M  V30 7101 H 653.646 0.0241495 4.16093 0
M  V30 7102 H 652.522 -0.412363 5.47349 0
M  V30 7103 H 652.783 -1.53336 4.14657 0
M  V30 7104 N 651.842 -1.52309 0.404946 0
M  V30 7105 C 653.09 -2.01368 -0.17186 0
M  V30 7106 C 653.411 -1.29261 -1.46002 0
M  V30 7107 O 652.681 -0.41729 -1.91404 0
M  V30 7108 H 651.261 -0.744034 -0.0664993 0
M  V30 7109 H 653.923 -1.87263 0.540228 0
M  V30 7110 H 653.019 -3.09888 -0.370957 0
M  V30 7111 N 653.32 -0.135238 -1.57019 0
M  V30 7112 C 654.569 0.518694 -1.94917 0
M  V30 7113 C 654.882 1.66783 -1.0219 0
M  V30 7114 O 656.088 2.38561 -1.29619 0
M  V30 7115 C 654.544 0.974123 -3.46466 0
M  V30 7116 C 654.152 -0.147439 -4.47757 0
M  V30 7117 C 655.896 1.59851 -3.93253 0
M  V30 7118 C 653.803 0.325599 -5.90503 0
M  V30 7119 H 652.733 0.19754 -0.727663 0
M  V30 7120 H 655.384 -0.217698 -1.82204 0
M  V30 7121 H 653.766 1.76542 -3.5447 0
M  V30 7122 H 654.94 -0.924122 -4.51438 0
M  V30 7123 H 653.255 -0.679496 -4.10818 0
M  V30 7124 H 655.852 1.96385 -4.9733 0
M  V30 7125 H 656.195 2.48306 -3.3414 0
M  V30 7126 H 656.728 0.872323 -3.88118 0
M  V30 7127 H 653.467 -0.523295 -6.53408 0
M  V30 7128 H 652.987 1.06841 -5.90208 0
M  V30 7129 H 654.666 0.781498 -6.42263 0
M  V30 7130 N 654.798 1.5699 0.138552 0
M  V30 7131 C 656.038 1.85619 0.855849 0
M  V30 7132 C 656.402 0.720663 1.77962 0
M  V30 7133 O 657.603 0.888221 2.53701 0
M  V30 7134 C 655.874 3.19447 1.60275 0
M  V30 7135 S 657.433 3.69656 2.36431 0
M  V30 7136 H 654.251 0.650926 0.286035 0
M  V30 7137 H 656.853 1.9516 0.115331 0
M  V30 7138 H 655.557 4.00053 0.915737 0
M  V30 7139 H 655.088 3.12935 2.38402 0
M  V30 7140 H 657.103 3.39595 3.61787 0
M  V30 7141 N 656.276 -0.40816 1.52223 0
M  V30 7142 C 657.525 -1.15212 1.65557 0
M  V30 7143 C 657.838 -1.9163 0.392096 0
M  V30 7144 O 659.044 -2.68458 0.405256 0
M  V30 7145 C 657.5 -2.09691 2.92502 0
M  V30 7146 C 657.108 -1.38785 4.25961 0
M  V30 7147 C 658.852 -2.8434 3.152 0
M  V30 7148 C 656.759 -2.31919 5.44029 0
M  V30 7149 H 655.689 -0.433776 0.616729 0
M  V30 7150 H 658.34 -0.4165 1.78711 0
M  V30 7151 H 656.722 -2.8681 2.7305 0
M  V30 7152 H 657.896 -0.670248 4.55899 0
M  V30 7153 H 656.211 -0.761741 4.09373 0
M  V30 7154 H 658.808 -3.54166 4.00587 0
M  V30 7155 H 659.151 -3.47344 2.29473 0
M  V30 7156 H 659.684 -2.14321 3.35129 0
M  V30 7157 H 656.423 -1.7356 6.32105 0
M  V30 7158 H 655.943 -3.0165 5.18428 0
M  V30 7159 H 657.622 -2.92424 5.77146 0
M  V30 7160 N 657.755 -1.42862 -0.66545 0
M  V30 7161 C 658.718 -1.46756 -1.76055 0
M  V30 7162 C 659.718 -0.353866 -1.56858 0
M  V30 7163 O 660.908 -0.615099 -1.62979 0
M  V30 7164 C 658.04 -1.30829 -3.14796 0
M  V30 7165 H 659.233 -2.44271 -1.73987 0
M  V30 7166 H 656.786 -1.29447 -0.875965 0
M  V30 7167 H 657.521 -0.342733 -3.22484 0
M  V30 7168 H 657.306 -2.11551 -3.30134 0
M  V30 7169 H 658.796 -1.36458 -3.94676 0
M  V30 7170 N 659.233 0.902656 -1.29189 0
M  V30 7171 C 660.163 2.02294 -1.16616 0
M  V30 7172 C 661.144 1.6999 -0.0611175 0
M  V30 7173 O 662.329 1.9271 -0.240072 0
M  V30 7174 C 659.459 3.37018 -0.83882 0
M  V30 7175 C 658.413 3.83522 -1.89986 0
M  V30 7176 C 657.739 5.15337 -1.42589 0
M  V30 7177 C 659.039 4.04169 -3.30824 0
M  V30 7178 H 660.733 2.13071 -2.10336 0
M  V30 7179 H 658.279 1.02378 -1.01266 0
M  V30 7180 H 660.232 4.14895 -0.737584 0
M  V30 7181 H 658.956 3.26325 0.134071 0
M  V30 7182 H 657.615 3.07859 -1.99043 0
M  V30 7183 H 657.263 5.01056 -0.441759 0
M  V30 7184 H 656.963 5.47423 -2.13547 0
M  V30 7185 H 658.487 5.95758 -1.3381 0
M  V30 7186 H 659.901 4.72537 -3.24626 0
M  V30 7187 H 658.298 4.47604 -3.99713 0
M  V30 7188 H 659.368 3.08604 -3.74021 0
M  V30 7189 N 660.711 1.11618 1.11262 0
M  V30 7190 C 661.958 0.86618 1.8304 0
M  V30 7191 C 662.286 -0.608149 1.84748 0
M  V30 7192 O 661.541 -1.46508 1.29745 0
M  V30 7193 C 661.84 1.37529 3.2988 0
M  V30 7194 C 661.506 2.86317 3.4833 0
M  V30 7195 C 660.168 3.26945 3.53073 0
M  V30 7196 C 662.52 3.82136 3.54431 0
M  V30 7197 C 659.848 4.62117 3.61475 0
M  V30 7198 C 662.2 5.17128 3.64365 0
M  V30 7199 C 660.864 5.57312 3.67369 0
M  V30 7200 H 660.134 0.316958 0.66979 0
M  V30 7201 H 662.781 1.3949 1.31205 0
M  V30 7202 H 661.086 0.766842 3.84222 0
M  V30 7203 H 662.783 1.15817 3.83911 0
M  V30 7204 H 659.373 2.53889 3.45309 0
M  V30 7205 H 663.557 3.51847 3.50025 0
M  V30 7206 H 658.813 4.92655 3.62079 0
M  V30 7207 H 662.987 5.91208 3.68029 0
M  V30 7208 H 660.614 6.62045 3.73632 0
M  V30 7209 N 662.189 -1.289 0.906776 0
M  V30 7210 C 663.152 -2.25777 0.394656 0
M  V30 7211 C 664.152 -1.53621 -0.475119 0
M  V30 7212 O 665.342 -1.71949 -0.279165 0
M  V30 7213 C 662.474 -3.38113 -0.43499 0
M  V30 7214 H 663.667 -2.72592 1.25033 0
M  V30 7215 H 661.22 -1.40463 0.685547 0
M  V30 7216 H 661.955 -2.96648 -1.31036 0
M  V30 7217 H 661.74 -3.91647 0.188334 0
M  V30 7218 H 663.23 -4.10168 -0.784365 0
M  V30 7219 N 663.667 -0.670007 -1.42649 0
M  V30 7220 C 664.597 -0.00258501 -2.335 0
M  V30 7221 C 665.578 0.794364 -1.50412 0
M  V30 7222 O 666.763 0.75248 -1.79029 0
M  V30 7223 C 663.893 0.952748 -3.33976 0
M  V30 7224 C 662.847 0.264733 -4.2718 0
M  V30 7225 C 662.173 1.33267 -5.17826 0
M  V30 7226 C 663.473 -0.853289 -5.15283 0
M  V30 7227 H 665.167 -0.761326 -2.89559 0
M  V30 7228 H 662.713 -0.367561 -1.3923 0
M  V30 7229 H 664.666 1.4287 -3.96442 0
M  V30 7230 H 663.39 1.74285 -2.7621 0
M  V30 7231 H 662.049 -0.190938 -3.66102 0
M  V30 7232 H 661.697 2.11464 -4.5639 0
M  V30 7233 H 661.397 0.877476 -5.81011 0
M  V30 7234 H 662.921 1.80965 -5.83167 0
M  V30 7235 H 664.335 -0.458763 -5.71462 0
M  V30 7236 H 662.732 -1.23398 -5.87276 0
M  V30 7237 H 663.802 -1.70412 -4.53969 0
M  V30 7238 N 665.145 1.52092 -0.413018 0
M  V30 7239 C 666.556 1.86617 0.0556967 0
M  V30 7240 C 666.907 1.33156 1.44097 0
M  V30 7241 O 666.032 0.672417 2.05688 0
M  V30 7242 C 666.627 3.38628 0.107844 0
M  V30 7243 C 665.186 3.72778 0.520904 0
M  V30 7244 C 664.333 2.75649 -0.302109 0
M  V30 7245 H 667.284 1.45663 -0.629919 0
M  V30 7246 H 667.305 3.69152 0.922324 0
M  V30 7247 H 666.817 3.77508 -0.900506 0
M  V30 7248 H 664.918 3.39478 1.53575 0
M  V30 7249 H 665.031 4.7838 0.262591 0
M  V30 7250 H 663.395 2.53603 0.236115 0
M  V30 7251 H 664.178 3.17369 -1.30888 0
M  V30 7252 N 666.623 0.143563 1.56945 0
M  V30 7253 C 667.87 -0.508407 1.96014 0
M  V30 7254 C 668.198 -1.65099 1.02824 0
M  V30 7255 O 667.453 -1.95618 0.0567764 0
M  V30 7256 C 667.752 -1.05885 3.41355 0
M  V30 7257 C 667.418 -0.0350809 4.50886 0
M  V30 7258 C 666.08 0.246362 4.80569 0
M  V30 7259 C 668.432 0.661282 5.16988 0
M  V30 7260 C 665.76 1.23003 5.73661 0
M  V30 7261 C 668.112 1.63375 6.11139 0
M  V30 7262 C 666.776 1.92292 6.39203 0
M  V30 7263 H 666.046 -0.186039 0.717266 0
M  V30 7264 H 668.693 0.229667 1.90118 0
M  V30 7265 H 666.998 -1.87419 3.44066 0
M  V30 7266 H 668.695 -1.57183 3.6891 0
M  V30 7267 H 665.285 -0.264622 4.27782 0
M  V30 7268 H 669.469 0.457038 4.94191 0
M  V30 7269 H 664.725 1.46056 5.93698 0
M  V30 7270 H 668.899 2.17887 6.61436 0
M  V30 7271 H 666.526 2.68666 7.11142 0
M  V30 7272 N 668.101 -1.57061 -0.130224 0
M  V30 7273 C 669.347 -1.8453 -0.841216 0
M  V30 7274 C 669.68 -0.727666 -1.80052 0
M  V30 7275 O 668.955 0.267419 -1.92653 0
M  V30 7276 C 669.238 -3.22553 -1.60099 0
M  V30 7277 C 669.091 -4.44901 -0.662048 0
M  V30 7278 C 670.41 -3.58003 -2.55973 0
M  V30 7279 H 667.529 -0.671215 -0.304366 0
M  V30 7280 H 670.171 -1.89705 -0.105821 0
M  V30 7281 H 668.321 -3.18272 -2.22789 0
M  V30 7282 H 669.993 -4.61278 -0.0448559 0
M  V30 7283 H 668.236 -4.33791 0.0272253 0
M  V30 7284 H 668.907 -5.3812 -1.23006 0
M  V30 7285 H 671.383 -3.63002 -2.03393 0
M  V30 7286 H 670.259 -4.55576 -3.06172 0
M  V30 7287 H 670.52 -2.84833 -3.38116 0
M  V30 7288 N 669.579 0.400081 -1.52437 0
M  V30 7289 C 670.828 1.14332 -1.66166 0
M  V30 7290 C 671.141 1.91419 -0.402253 0
M  V30 7291 O 672.347 2.6824 -0.419487 0
M  V30 7292 C 670.803 2.08137 -2.9361 0
M  V30 7293 C 670.411 1.36524 -4.26691 0
M  V30 7294 C 672.155 2.82664 -3.16703 0
M  V30 7295 C 670.062 2.29031 -5.45251 0
M  V30 7296 H 668.992 0.430499 -0.61902 0
M  V30 7297 H 671.643 0.407017 -1.78929 0
M  V30 7298 H 670.025 2.85358 -2.74567 0
M  V30 7299 H 671.199 0.646061 -4.56249 0
M  V30 7300 H 669.514 0.74002 -4.09771 0
M  V30 7301 H 672.111 3.52037 -4.0246 0
M  V30 7302 H 672.454 3.46122 -2.31312 0
M  V30 7303 H 672.987 2.12541 -3.36261 0
M  V30 7304 H 669.726 1.70206 -6.33017 0
M  V30 7305 H 669.246 2.98896 -5.2002 0
M  V30 7306 H 670.925 2.89359 -5.78689 0
M  V30 7307 N 671.057 1.43213 0.657864 0
M  V30 7308 C 672.287 1.478 1.44356 0
M  V30 7309 C 672.695 0.0930206 1.88971 0
M  V30 7310 O 672.038 -0.906089 1.59799 0
M  V30 7311 C 672.1 2.35745 2.71412 0
M  V30 7312 C 671.764 3.83359 2.48767 0
M  V30 7313 C 672.761 4.74585 2.12285 0
M  V30 7314 C 670.446 4.27799 2.63235 0
M  V30 7315 C 672.44 6.08247 1.90562 0
M  V30 7316 C 670.127 5.61516 2.41128 0
M  V30 7317 C 671.125 6.51557 2.04847 0
M  V30 7318 O 670.813 7.82802 1.82967 0
M  V30 7319 H 670.545 0.504363 0.450104 0
M  V30 7320 H 673.099 1.88572 0.814241 0
M  V30 7321 H 671.329 1.89852 3.36887 0
M  V30 7322 H 673.018 2.31589 3.33348 0
M  V30 7323 H 673.784 4.41531 2.00687 0
M  V30 7324 H 669.663 3.57993 2.90451 0
M  V30 7325 H 673.207 6.78489 1.62168 0
M  V30 7326 H 669.104 5.94139 2.52327 0
M  V30 7327 H 669.872 7.94332 1.97429 0
M  V30 7328 N 672.536 -0.895792 1.29666 0
M  V30 7329 C 673.499 -1.98189 1.15124 0
M  V30 7330 C 674.499 -1.60572 0.0855717 0
M  V30 7331 O 675.689 -1.70991 0.332826 0
M  V30 7332 C 672.821 -3.32289 0.761372 0
M  V30 7333 H 674.014 -2.12518 2.11603 0
M  V30 7334 H 671.567 -1.0808 1.12908 0
M  V30 7335 H 672.302 -3.23662 -0.203393 0
M  V30 7336 H 672.087 -3.60958 1.53139 0
M  V30 7337 H 673.577 -4.1198 0.682792 0
M  V30 7338 N 674.014 -1.12206 -1.10668 0
M  V30 7339 C 674.977 -0.790867 -2.15123 0
M  V30 7340 C 675.977 0.193618 -1.5963 0
M  V30 7341 O 677.167 -0.0318728 -1.74171 0
M  V30 7342 C 674.299 -0.174797 -3.40452 0
M  V30 7343 H 675.492 -1.7163 -2.45933 0
M  V30 7344 H 673.045 -0.924993 -1.2599 0
M  V30 7345 H 673.78 0.760478 -3.15257 0
M  V30 7346 H 673.565 -0.88358 -3.82015 0
M  V30 7347 H 675.055 0.0405162 -4.1758 0
M  V30 7348 N 675.492 1.28418 -0.913599 0
M  V30 7349 C 676.439 2.27301 -0.400373 0
M  V30 7350 C 677.409 1.57582 0.52509 0
M  V30 7351 O 678.594 1.85482 0.447318 0
M  V30 7352 C 675.734 3.43284 0.35361 0
M  V30 7353 C 674.847 4.27752 -0.604341 0
M  V30 7354 C 673.982 5.30934 0.168075 0
M  V30 7355 C 673.021 6.07065 -0.783499 0
M  V30 7356 N 672.158 7.02086 -0.0446112 0
M  V30 7357 H 676.998 2.70579 -1.24865 0
M  V30 7358 H 674.535 1.33067 -0.627028 0
M  V30 7359 H 676.493 4.09322 0.806945 0
M  V30 7360 H 675.123 3.00997 1.16623 0
M  V30 7361 H 674.175 3.61759 -1.17621 0
M  V30 7362 H 675.487 4.80682 -1.33216 0
M  V30 7363 H 674.641 6.02855 0.681979 0
M  V30 7364 H 673.38 4.78771 0.928947 0
M  V30 7365 H 672.385 5.33995 -1.30878 0
M  V30 7366 H 673.61 6.61317 -1.54392 0
M  V30 7367 H 671.556 6.52273 0.698272 0
M  V30 7368 H 671.473 7.52637 -0.712258 0
M  V30 7369 H 672.741 7.78205 0.449102 0
M  V30 7370 N 676.97 0.677563 1.42291 0
M  V30 7371 C 678.216 0.201272 2.01799 0
M  V30 7372 C 678.549 -1.19004 1.53465 0
M  V30 7373 O 677.824 -1.79953 0.738039 0
M  V30 7374 C 678.107 0.238968 3.59306 0
M  V30 7375 C 677.96 1.66594 4.17812 0
M  V30 7376 C 679.279 -0.411287 4.38174 0
M  V30 7377 H 676.398 0.0746114 0.733214 0
M  V30 7378 H 679.04 0.862872 1.69276 0
M  V30 7379 H 677.19 -0.324368 3.87144 0
M  V30 7380 H 678.862 2.28173 4.00917 0
M  V30 7381 H 677.105 2.20576 3.73536 0
M  V30 7382 H 677.776 1.64398 5.26951 0
M  V30 7383 H 680.252 0.0682804 4.16044 0
M  V30 7384 H 679.128 -0.354286 5.47755 0
M  V30 7385 H 679.389 -1.4893 4.1626 0
M  V30 7386 N 678.448 -1.51871 0.421078 0
M  V30 7387 C 679.695 -2.01938 -0.15079 0
M  V30 7388 C 680.023 -1.30611 -1.44121 0
M  V30 7389 O 679.278 -0.404631 -1.91471 0
M  V30 7390 C 679.577 -3.54764 -0.433292 0
M  V30 7391 C 679.243 -4.44288 0.76936 0
M  V30 7392 C 677.905 -4.68477 1.09921 0
M  V30 7393 C 680.257 -4.96915 1.57242 0
M  V30 7394 C 677.585 -5.4254 2.2331 0
M  V30 7395 C 679.937 -5.7222 2.69716 0
M  V30 7396 C 678.601 -5.94678 3.03174 0
M  V30 7397 H 677.871 -0.738943 -0.0551781 0
M  V30 7398 H 680.518 -1.82977 0.564945 0
M  V30 7399 H 678.823 -3.71968 -1.23074 0
M  V30 7400 H 680.52 -3.91023 -0.888922 0
M  V30 7401 H 677.11 -4.25646 0.502305 0
M  V30 7402 H 681.294 -4.78125 1.3308 0
M  V30 7403 H 676.55 -5.58146 2.49565 0
M  V30 7404 H 680.724 -6.11992 3.32323 0
M  V30 7405 H 678.351 -6.51848 3.9115 0
M  V30 7406 N 679.926 -0.151884 -1.56866 0
M  V30 7407 C 680.856 0.781943 -2.20018 0
M  V30 7408 C 681.837 1.25347 -1.14987 0
M  V30 7409 O 683.022 1.31015 -1.43348 0
M  V30 7410 C 680.152 2.01928 -2.82564 0
M  V30 7411 C 679.106 1.68434 -3.93464 0
M  V30 7412 C 678.432 2.99472 -4.42968 0
M  V30 7413 C 679.732 0.927244 -5.14003 0
M  V30 7414 H 681.426 0.255607 -2.98307 0
M  V30 7415 H 678.972 0.121502 -1.43486 0
M  V30 7416 H 680.925 2.67741 -3.25411 0
M  V30 7417 H 679.649 2.56943 -2.01614 0
M  V30 7418 H 678.308 1.04998 -3.51242 0
M  V30 7419 H 677.956 3.52488 -3.58834 0
M  V30 7420 H 677.656 2.77823 -5.17772 0
M  V30 7421 H 679.18 3.66348 -4.88489 0
M  V30 7422 H 680.594 1.48756 -5.53665 0
M  V30 7423 H 678.991 0.810513 -5.94601 0
M  V30 7424 H 680.061 -0.0801163 -4.84834 0
M  V30 7425 N 681.404 1.57128 0.121893 0
M  V30 7426 C 682.82 1.52357 0.47534 0
M  V30 7427 C 683.02 0.864417 1.82017 0
M  V30 7428 O 682.076 0.445529 2.48538 0
M  V30 7429 C 683.389 2.97122 0.4625 0
M  V30 7430 C 684.937 3.08196 0.546255 0
M  V30 7431 C 685.412 4.54516 0.563833 0
M  V30 7432 N 686.903 4.58959 0.625353 0
M  V30 7433 C 687.638 5.69585 0.660354 0
M  V30 7434 N 687.134 6.89714 0.653175 0
M  V30 7435 N 688.927 5.57685 0.703143 0
M  V30 7436 H 681.078 1.98364 -0.75931 0
M  V30 7437 H 683.341 0.905777 -0.279772 0
M  V30 7438 H 683.047 3.48706 -0.457943 0
M  V30 7439 H 682.921 3.54406 1.29136 0
M  V30 7440 H 685.308 2.56617 1.45712 0
M  V30 7441 H 685.389 2.53912 -0.310234 0
M  V30 7442 H 685.033 5.06741 -0.342974 0
M  V30 7443 H 684.963 5.06609 1.43716 0
M  V30 7444 H 687.454 3.72489 0.637182 0
M  V30 7445 H 687.767 7.69781 0.682425 0
M  V30 7446 H 686.112 6.92223 0.620646 0
M  V30 7447 H 689.303 4.62744 0.706095 0
M  V30 7448 H 689.476 6.43909 0.726952 0
M  V30 7449 N 682.882 -0.391992 1.52647 0
M  V30 7450 C 684.122 -1.1463 1.69232 0
M  V30 7451 C 684.486 -1.87312 0.421684 0
M  V30 7452 O 685.687 -2.64768 0.463852 0
M  V30 7453 C 683.958 -2.10088 2.89133 0
M  V30 7454 S 685.517 -2.93395 3.2629 0
M  V30 7455 H 682.335 -0.388076 0.59575 0
M  V30 7456 H 684.937 -0.431149 1.90687 0
M  V30 7457 H 683.641 -1.55408 3.79837 0
M  V30 7458 H 683.172 -2.86116 2.70003 0
M  V30 7459 H 685.187 -4.12193 2.76244 0
M  V30 7460 N 684.36 -1.4356 -0.65026 0
M  V30 7461 C 685.609 -1.44619 -1.406 0
M  V30 7462 C 685.922 -0.0752645 -1.95455 0
M  V30 7463 O 687.128 0.0366832 -2.71475 0
M  V30 7464 C 685.584 -2.54511 -2.54465 0
M  V30 7465 C 685.192 -3.97723 -2.06204 0
M  V30 7466 C 686.936 -2.64768 -3.31811 0
M  V30 7467 C 684.843 -4.99075 -3.17298 0
M  V30 7468 H 683.773 -0.537983 -0.52829 0
M  V30 7469 H 686.424 -1.69559 -0.701561 0
M  V30 7470 H 684.806 -2.22777 -3.27393 0
M  V30 7471 H 685.98 -4.38932 -1.40267 0
M  V30 7472 H 684.295 -3.91538 -1.41729 0
M  V30 7473 H 686.892 -3.37664 -4.14593 0
M  V30 7474 H 687.235 -1.69936 -3.80036 0
M  V30 7475 H 687.768 -2.95817 -2.65964 0
M  V30 7476 H 684.507 -5.95469 -2.74038 0
M  V30 7477 H 684.027 -4.62476 -3.81937 0
M  V30 7478 H 685.706 -5.21913 -3.82382 0
M  V30 7479 N 685.838 0.888903 -1.30139 0
M  V30 7480 C 686.786 2.0156 -1.16088 0
M  V30 7481 C 687.78 1.69239 -0.0737413 0
M  V30 7482 O 688.986 1.78468 -0.234313 0
M  V30 7483 H 685.361 0.660825 -0.358907 0
M  V30 7484 H 687.332 2.10547 -2.11453 0
M  V30 7485 C 686.081 3.36758 -0.865426 0
M  V30 7486 H 685.404 3.62137 -1.69402 0
M  V30 7487 H 686.844 4.16246 -0.807192 0
M  V30 7488 C 685.303 3.34124 0.431577 0
M  V30 7489 O 685.833 3.7445 1.45431 0
M  V30 7490 N 684.039 2.87229 0.441321 0
M  V30 7491 H 683.586 2.54609 -0.391433 0
M  V30 7492 H 683.544 2.8585 1.30909 0
M  V30 7493 N 687.317 1.12792 1.10072 0
M  V30 7494 C 688.547 0.907189 1.85617 0
M  V30 7495 C 688.955 -0.547181 1.81115 0
M  V30 7496 O 688.298 -1.39024 1.20075 0
M  V30 7497 C 688.36 1.30872 3.34832 0
M  V30 7498 C 688.024 2.77516 3.6309 0
M  V30 7499 C 689.021 3.75696 3.59373 0
M  V30 7500 C 686.706 3.14513 3.91646 0
M  V30 7501 C 688.7 5.08888 3.83812 0
M  V30 7502 C 686.387 4.47886 4.15742 0
M  V30 7503 C 687.385 5.44882 4.11816 0
M  V30 7504 O 687.073 6.7585 4.35295 0
M  V30 7505 H 686.805 0.323855 0.593375 0
M  V30 7506 H 689.359 1.50262 1.40038 0
M  V30 7507 H 687.589 0.656518 3.81086 0
M  V30 7508 H 689.278 1.06153 3.91773 0
M  V30 7509 H 690.044 3.48458 3.37345 0
M  V30 7510 H 685.923 2.39622 3.93831 0
M  V30 7511 H 689.467 5.84586 3.80663 0
M  V30 7512 H 685.364 4.74851 4.37249 0
M  V30 7513 H 686.132 6.81853 4.52791 0
M  V30 7514 N 688.795 -1.27931 0.920396 0
M  V30 7515 C 690.041 -1.94977 0.557832 0
M  V30 7516 C 690.374 -1.72224 -0.897365 0
M  V30 7517 O 689.649 -1.04705 -1.63912 0
M  V30 7518 C 689.932 -3.49289 0.875741 0
M  V30 7519 C 689.785 -3.81416 2.38416 0
M  V30 7520 C 691.104 -4.38486 0.376517 0
M  V30 7521 H 688.223 -0.708164 0.20414 0
M  V30 7522 H 690.865 -1.5118 1.15085 0
M  V30 7523 H 689.015 -3.86724 0.371062 0
M  V30 7524 H 690.687 -3.53813 2.95997 0
M  V30 7525 H 688.93 -3.28225 2.83639 0
M  V30 7526 H 689.601 -4.89198 2.55713 0
M  V30 7527 H 692.077 -4.08161 0.808945 0
M  V30 7528 H 690.953 -5.45296 0.627976 0
M  V30 7529 H 691.214 -4.36143 -0.723293 0
M  V30 7530 N 690.273 -0.685099 -1.4193 0
M  V30 7531 C 691.52 -0.211658 -2.01391 0
M  V30 7532 C 691.848 1.18526 -1.54214 0
M  V30 7533 O 691.103 1.81189 -0.739519 0
M  V30 7534 C 691.402 -0.206154 -3.56805 0
M  V30 7535 C 691.068 -1.54915 -4.23453 0
M  V30 7536 C 689.73 -1.91684 -4.41373 0
M  V30 7537 C 692.082 -2.43317 -4.60919 0
M  V30 7538 C 689.41 -3.16461 -4.94034 0
M  V30 7539 C 691.762 -3.67415 -5.14965 0
M  V30 7540 C 690.426 -4.04341 -5.31098 0
M  V30 7541 H 689.696 -0.0774511 -0.736941 0
M  V30 7542 H 692.343 -0.882121 -1.69973 0
M  V30 7543 H 690.648 0.547841 -3.87951 0
M  V30 7544 H 692.345 0.17753 -4.00607 0
M  V30 7545 H 688.935 -1.25314 -4.09871 0
M  V30 7546 H 693.119 -2.16192 -4.46738 0
M  V30 7547 H 688.375 -3.45078 -5.04709 0
M  V30 7548 H 692.549 -4.3611 -5.42938 0
M  V30 7549 H 690.176 -5.01101 -5.71666 0
M  V30 7550 N 691.751 1.51645 -0.429126 0
M  V30 7551 C 692.998 2.02015 0.140079 0
M  V30 7552 C 693.326 1.31374 1.43427 0
M  V30 7553 O 692.581 0.414779 1.91254 0
M  V30 7554 C 692.88 3.54989 0.414472 0
M  V30 7555 C 692.546 4.43874 -0.792911 0
M  V30 7556 C 691.208 4.67887 -1.12404 0
M  V30 7557 C 693.56 4.96074 -1.59875 0
M  V30 7558 C 690.888 5.41348 -2.26184 0
M  V30 7559 C 693.24 5.70782 -2.72747 0
M  V30 7560 C 691.904 5.93062 -3.06324 0
M  V30 7561 H 691.174 0.739225 0.0512585 0
M  V30 7562 H 693.821 1.82675 -0.574641 0
M  V30 7563 H 692.126 3.72615 1.21099 0
M  V30 7564 H 693.823 3.91489 0.868173 0
M  V30 7565 H 690.413 4.25374 -0.524871 0
M  V30 7566 H 694.597 4.77412 -1.35614 0
M  V30 7567 H 689.853 5.56815 -2.52522 0
M  V30 7568 H 694.027 6.10221 -3.35564 0
M  V30 7569 H 691.654 6.49764 -3.94602 0
M  V30 7570 N 693.229 0.160201 1.56784 0
M  V30 7571 C 694.64 -0.358417 1.83227 0
M  V30 7572 C 694.991 -1.63831 1.07952 0
M  V30 7573 O 694.116 -2.13885 0.328995 0
M  V30 7574 C 694.711 -0.657058 3.32368 0
M  V30 7575 C 693.27 -1.12015 3.59346 0
M  V30 7576 C 692.417 -0.15015 2.76893 0
M  V30 7577 H 695.368 0.384669 1.53967 0
M  V30 7578 H 695.389 -1.51033 3.49241 0
M  V30 7579 H 694.901 0.274647 3.87127 0
M  V30 7580 H 693.002 -2.06734 3.09987 0
M  V30 7581 H 693.115 -1.037 4.67743 0
M  V30 7582 H 691.479 -0.645361 2.46388 0
M  V30 7583 H 692.262 0.775379 3.34429 0
M  V30 7584 N 694.707 -1.5719 -0.113559 0
M  V30 7585 C 695.932 -1.89702 -0.838336 0
M  V30 7586 C 696.357 -0.752679 -1.72384 0
M  V30 7587 O 695.715 0.296575 -1.78858 0
M  V30 7588 C 695.763 -3.20989 -1.64312 0
M  V30 7589 O 694.867 -3.07278 -2.75053 0
M  V30 7590 H 694.208 -0.622339 -0.231496 0
M  V30 7591 H 696.738 -2.04382 -0.0943228 0
M  V30 7592 H 696.748 -3.53843 -2.03123 0
M  V30 7593 H 695.423 -4.03869 -0.993119 0
M  V30 7594 H 694 -2.85901 -2.39406 0
M  V30 7595 N 696.185 0.383891 -1.52853 0
M  V30 7596 C 697.115 1.47559 -1.80965 0
M  V30 7597 C 698.096 1.5669 -0.661986 0
M  V30 7598 O 699.281 1.71556 -0.910072 0
M  V30 7599 C 696.411 2.85114 -1.98312 0
M  V30 7600 C 695.365 2.9082 -3.14019 0
M  V30 7601 C 694.691 4.30873 -3.16627 0
M  V30 7602 C 695.991 2.60001 -4.52986 0
M  V30 7603 H 697.685 1.24283 -2.72386 0
M  V30 7604 H 695.231 0.596445 -1.31067 0
M  V30 7605 H 697.184 3.61496 -2.16561 0
M  V30 7606 H 695.908 3.09738 -1.03585 0
M  V30 7607 H 694.567 2.16886 -2.9556 0
M  V30 7608 H 694.215 4.52545 -2.19573 0
M  V30 7609 H 693.915 4.3561 -3.94357 0
M  V30 7610 H 695.439 5.09154 -3.37038 0
M  V30 7611 H 696.853 3.261 -4.71521 0
M  V30 7612 H 695.25 2.76081 -5.32822 0
M  V30 7613 H 696.32 1.5532 -4.59351 0
M  V30 7614 N 697.663 1.43903 0.642637 0
M  V30 7615 C 698.61 1.49881 1.75512 0
M  V30 7616 C 699.58 0.347538 1.62423 0
M  V30 7617 O 700.765 0.556177 1.82514 0
M  V30 7618 C 697.905 1.43797 3.13714 0
M  V30 7619 C 697.018 2.6921 3.37861 0
M  V30 7620 C 696.153 2.5504 4.6597 0
M  V30 7621 C 695.192 3.75671 4.83257 0
M  V30 7622 N 694.329 3.60247 6.02633 0
M  V30 7623 H 699.169 2.44935 1.69737 0
M  V30 7624 H 696.706 1.21572 0.828165 0
M  V30 7625 H 698.664 1.38262 3.93624 0
M  V30 7626 H 697.294 0.523173 3.18532 0
M  V30 7627 H 696.346 2.8498 2.51973 0
M  V30 7628 H 697.658 3.58786 3.46517 0
M  V30 7629 H 696.812 2.47273 5.54023 0
M  V30 7630 H 695.551 1.63006 4.59653 0
M  V30 7631 H 694.556 3.83836 3.93637 0
M  V30 7632 H 695.781 4.68728 4.91397 0
M  V30 7633 H 693.727 2.70955 5.97427 0
M  V30 7634 H 693.644 4.43431 6.12295 0
M  V30 7635 H 694.912 3.56351 6.93278 0
M  V30 7636 N 699.141 -0.881989 1.30609 0
M  V30 7637 C 700.552 -1.44956 1.17664 0
M  V30 7638 C 700.903 -1.94945 -0.221531 0
M  V30 7639 O 700.028 -1.85257 -1.11844 0
M  V30 7640 C 700.623 -2.63474 2.12995 0
M  V30 7641 C 699.182 -3.16312 2.04019 0
M  V30 7642 C 698.329 -1.89008 2.02907 0
M  V30 7643 H 701.28 -0.691645 1.42835 0
M  V30 7644 H 701.301 -3.39783 1.71253 0
M  V30 7645 H 700.813 -2.2706 3.14746 0
M  V30 7646 H 698.914 -3.57376 1.0542 0
M  V30 7647 H 699.027 -3.79409 2.9255 0
M  V30 7648 H 697.391 -2.07465 1.47751 0
M  V30 7649 H 698.174 -1.54848 3.06394 0
M  V30 7650 N 700.619 -1.13374 -1.09472 0
M  V30 7651 C 701.844 -0.918711 -1.85942 0
M  V30 7652 C 702.269 0.527225 -1.8056 0
M  V30 7653 O 701.627 1.37408 -1.18274 0
M  V30 7654 C 701.675 -1.41056 -3.31867 0
M  V30 7655 O 700.779 -0.595496 -4.08078 0
M  V30 7656 H 700.12 -0.329297 -0.576593 0
M  V30 7657 H 702.65 -1.50829 -1.38245 0
M  V30 7658 H 702.66 -1.41398 -3.82715 0
M  V30 7659 H 701.335 -2.46335 -3.35099 0
M  V30 7660 H 699.912 -0.659911 -3.67014 0
M  V30 7661 N 702.098 1.27442 -0.927168 0
M  V30 7662 C 703.323 1.99036 -0.583042 0
M  V30 7663 C 703.748 1.68711 0.83176 0
M  V30 7664 O 703.106 0.927081 1.55804 0
M  V30 7665 C 703.154 3.51271 -0.814925 0
M  V30 7666 O 702.258 4.12226 0.119742 0
M  V30 7667 H 701.599 0.624883 -0.224538 0
M  V30 7668 H 704.129 1.62263 -1.24628 0
M  V30 7669 H 704.139 4.01411 -0.730282 0
M  V30 7670 H 702.814 3.72676 -1.84623 0
M  V30 7671 H 701.391 3.72897 -0.0147688 0
M  V30 7672 N 703.576 0.692616 1.41565 0
M  V30 7673 C 704.801 0.229776 2.06123 0
M  V30 7674 C 705.226 -1.11119 1.5177 0
M  V30 7675 O 704.584 -1.69498 0.643444 0
M  V30 7676 C 704.632 0.19469 3.60074 0
M  V30 7677 O 703.736 -0.831366 4.03933 0
M  V30 7678 H 703.077 0.113002 0.654314 0
M  V30 7679 H 705.607 0.946645 1.81383 0
M  V30 7680 H 705.617 0.0245487 4.07993 0
M  V30 7681 H 704.292 1.17339 3.99004 0
M  V30 7682 H 702.869 -0.630819 3.67526 0
M  V30 7683 N 705.054 -1.51416 0.437162 0
M  V30 7684 C 706.303 -2.01275 -0.130865 0
M  V30 7685 C 706.616 -1.32593 -1.438 0
M  V30 7686 O 707.822 -1.7342 -2.08897 0
M  V30 7687 C 706.278 -3.5878 -0.283763 0
M  V30 7688 C 705.886 -4.36399 1.01293 0
M  V30 7689 C 707.63 -4.16786 -0.805569 0
M  V30 7690 C 705.537 -5.85608 0.825687 0
M  V30 7691 H 704.467 -0.752157 -0.0526818 0
M  V30 7692 H 707.118 -1.74524 0.566896 0
M  V30 7693 H 705.5 -3.81976 -1.04452 0
M  V30 7694 H 706.674 -4.24948 1.78201 0
M  V30 7695 H 704.989 -3.89843 1.46326 0
M  V30 7696 H 707.586 -5.25972 -0.962146 0
M  V30 7697 H 707.929 -3.75949 -1.78796 0
M  V30 7698 H 708.462 -3.97666 -0.103125 0
M  V30 7699 H 705.201 -6.30857 1.78045 0
M  V30 7700 H 704.721 -5.99723 0.0964029 0
M  V30 7701 H 706.4 -6.45226 0.478815 0
M  V30 7702 N 706.532 -0.168513 -1.56696 0
M  V30 7703 C 707.809 0.523367 -1.88468 0
M  V30 7704 C 708.189 1.81503 -1.07796 0
M  V30 7705 O 707.537 2.27859 -0.171045 0
M  V30 7706 C 707.747 0.767991 -3.40445 0
M  V30 7707 C 709.095 1.09924 -4.10124 0
M  V30 7708 O 710.119 0.856625 -3.45746 0
M  V30 7709 O 708.978 1.55681 -5.23856 0
M  V30 7710 H 706.072 0.269447 -0.781874 0
M  V30 7711 H 708.618 -0.206739 -1.68436 0
M  V30 7712 H 707.39 -0.145254 -3.9103 0
M  V30 7713 H 707.013 1.55151 -3.66079 0
M  V30 7714 N 708.01 1.57248 0.105221 0
M  V30 7715 C 708.92 2.04653 1.14693 0
M  V30 7716 C 709.936 0.969488 1.44489 0
M  V30 7717 O 711.112 1.28196 1.55331 0
M  V30 7718 C 708.177 2.45297 2.45011 0
M  V30 7719 C 707.238 3.67148 2.22489 0
M  V30 7720 C 706.471 4.05844 3.46592 0
M  V30 7721 O 706.694 3.44736 4.54437 0
M  V30 7722 O 705.628 4.98862 3.36779 0
M  V30 7723 H 709.454 2.93663 0.774336 0
M  V30 7724 H 707.039 1.45998 0.31701 0
M  V30 7725 H 708.921 2.72112 3.21766 0
M  V30 7726 H 707.596 1.59429 2.81717 0
M  V30 7727 H 706.503 3.45463 1.43547 0
M  V30 7728 H 707.836 4.53764 1.9068 0
M  V30 7729 N 709.488 -0.375779 1.53054 0
M  V30 7730 C 710.718 -1.1387 1.72386 0
M  V30 7731 C 711.126 -1.8382 0.447966 0
M  V30 7732 O 710.469 -1.74027 -0.588244 0
M  V30 7733 C 710.531 -2.22047 2.82728 0
M  V30 7734 C 710.195 -1.71951 4.23417 0
M  V30 7735 C 711.192 -1.18909 5.06119 0
M  V30 7736 C 708.877 -1.77773 4.69789 0
M  V30 7737 C 710.871 -0.723529 6.3328 0
M  V30 7738 C 708.558 -1.30829 5.96931 0
M  V30 7739 C 709.556 -0.782077 6.78508 0
M  V30 7740 O 709.244 -0.319529 8.03265 0
M  V30 7741 H 708.976 -0.346835 0.580242 0
M  V30 7742 H 711.53 -0.443748 2.00549 0
M  V30 7743 H 709.76 -2.95006 2.50017 0
M  V30 7744 H 711.449 -2.83654 2.90336 0
M  V30 7745 H 712.215 -1.13758 4.7147 0
M  V30 7746 H 708.094 -2.17673 4.06373 0
M  V30 7747 H 711.638 -0.312126 6.96901 0
M  V30 7748 H 707.535 -1.3567 6.31081 0
M  V30 7749 H 708.303 -0.439796 8.17318 0
M  V30 7750 N 710.966 -1.44241 -0.634997 0
M  V30 7751 C 712.213 -1.46821 -1.39463 0
M  V30 7752 C 712.541 -0.0993362 -1.94246 0
M  V30 7753 O 711.796 0.898325 -1.73864 0
M  V30 7754 C 712.095 -2.47279 -2.58046 0
M  V30 7755 C 711.761 -3.92703 -2.21574 0
M  V30 7756 C 710.423 -4.32306 -2.1134 0
M  V30 7757 C 712.775 -4.84271 -1.92695 0
M  V30 7758 C 710.103 -5.61407 -1.70409 0
M  V30 7759 C 712.455 -6.13755 -1.53258 0
M  V30 7760 C 711.119 -6.52316 -1.41562 0
M  V30 7761 H 710.389 -0.537256 -0.51033 0
M  V30 7762 H 713.036 -1.77431 -0.720441 0
M  V30 7763 H 711.341 -2.10138 -3.3068 0
M  V30 7764 H 713.038 -2.46523 -3.16271 0
M  V30 7765 H 709.628 -3.61369 -2.30456 0
M  V30 7766 H 713.812 -4.54432 -1.99513 0
M  V30 7767 H 709.068 -5.90105 -1.59955 0
M  V30 7768 H 713.242 -6.84168 -1.29949 0
M  V30 7769 H 710.869 -7.52255 -1.09619 0
M  V30 7770 N 712.444 0.87505 -1.31075 0
M  V30 7771 C 713.669 1.66583 -1.23551 0
M  V30 7772 C 714.094 1.87067 0.19686 0
M  V30 7773 O 713.452 1.40877 1.1412 0
M  V30 7774 C 713.5 3.01401 -1.97965 0
M  V30 7775 O 712.604 3.90923 -1.31351 0
M  V30 7776 H 711.945 0.508645 -0.426821 0
M  V30 7777 H 714.475 1.09139 -1.7306 0
M  V30 7778 H 714.485 3.51374 -2.07366 0
M  V30 7779 H 713.16 2.85812 -3.02133 0
M  V30 7780 H 711.737 3.49369 -1.30368 0
M  V30 7781 N 713.922 1.13953 1.08869 0
M  V30 7782 C 714.832 0.835666 2.19212 0
M  V30 7783 C 715.848 -0.182005 1.73045 0
M  V30 7784 O 717.024 -0.0116661 2.01397 0
M  V30 7785 C 714.089 0.312325 3.4529 0
M  V30 7786 C 713.15 1.39196 4.06107 0
M  V30 7787 C 712.383 0.893496 5.26168 0
M  V30 7788 O 712.606 -0.266807 5.69776 0
M  V30 7789 O 711.54 1.67037 5.78258 0
M  V30 7790 H 715.366 1.75769 2.47667 0
M  V30 7791 H 712.951 0.917421 1.17914 0
M  V30 7792 H 714.833 0.0261582 4.21392 0
M  V30 7793 H 713.508 -0.582042 3.18424 0
M  V30 7794 H 712.415 1.73152 3.31616 0
M  V30 7795 H 713.748 2.26068 4.37212 0
M  V30 7796 N 715.4 -1.26948 0.933913 0
M  V30 7797 C 716.332 -2.25768 0.395137 0
M  V30 7798 C 717.345 -1.55637 -0.477585 0
M  V30 7799 O 718.534 -1.76142 -0.289204 0
M  V30 7800 C 715.634 -3.35874 -0.451882 0
M  V30 7801 C 714.807 -4.3554 0.40299 0
M  V30 7802 C 713.866 -5.24809 -0.3824 0
M  V30 7803 O 712.892 -5.68805 0.212057 0
M  V30 7804 N 714.094 -5.55636 -1.68072 0
M  V30 7805 H 716.859 -2.72634 1.24463 0
M  V30 7806 H 714.42 -1.40639 0.802008 0
M  V30 7807 H 716.412 -3.92542 -0.984516 0
M  V30 7808 H 714.982 -2.8856 -1.20215 0
M  V30 7809 H 714.202 -3.78047 1.11688 0
M  V30 7810 H 715.49 -4.99131 0.987201 0
M  V30 7811 H 714.888 -5.2176 -2.18592 0
M  V30 7812 H 713.445 -6.14978 -2.15975 0
M  V30 7813 N 716.879 -0.700114 -1.41195 0
M  V30 7814 C 718.29 -0.307249 -1.84154 0
M  V30 7815 C 718.641 1.15539 -1.58572 0
M  V30 7816 O 717.766 1.88744 -1.05852 0
M  V30 7817 C 718.361 -0.550872 -3.34292 0
M  V30 7818 C 716.92 -0.211877 -3.75803 0
M  V30 7819 C 716.067 -0.830915 -2.64558 0
M  V30 7820 H 719.018 -0.900431 -1.30683 0
M  V30 7821 H 719.039 0.188954 -3.80031 0
M  V30 7822 H 718.551 -1.61548 -3.5288 0
M  V30 7823 H 716.652 0.848283 -3.62815 0
M  V30 7824 H 716.765 -0.67007 -4.74391 0
M  V30 7825 H 715.129 -0.260155 -2.53368 0
M  V30 7826 H 715.912 -1.89948 -2.85963 0
M  V30 7827 N 718.357 1.51182 -0.445186 0
M  V30 7828 C 719.287 2.30821 0.352686 0
M  V30 7829 C 720.268 1.36576 1.01395 0
M  V30 7830 O 721.453 1.65497 1.01609 0
M  V30 7831 C 718.583 3.15593 1.44976 0
M  V30 7832 C 717.537 4.1818 0.911553 0
M  V30 7833 C 716.863 4.91523 2.10497 0
M  V30 7834 C 718.163 5.22266 -0.059418 0
M  V30 7835 H 719.857 2.97771 -0.311936 0
M  V30 7836 H 717.403 1.43201 -0.151461 0
M  V30 7837 H 719.356 3.70091 2.01521 0
M  V30 7838 H 718.08 2.4648 2.14278 0
M  V30 7839 H 716.739 3.64746 0.368264 0
M  V30 7840 H 716.387 4.18906 2.78437 0
M  V30 7841 H 716.087 5.60898 1.7512 0
M  V30 7842 H 717.611 5.48847 2.6758 0
M  V30 7843 H 719.025 5.71789 0.415985 0
M  V30 7844 H 717.422 5.99213 -0.326152 0
M  V30 7845 H 718.492 4.7461 -0.993631 0
M  V30 7846 N 719.835 0.176821 1.56605 0
M  V30 7847 C 720.782 -0.751312 2.18229 0
M  V30 7848 C 721.752 -1.22297 1.12395 0
M  V30 7849 O 722.937 -1.29015 1.40569 0
M  V30 7850 C 720.077 -1.97291 2.83143 0
M  V30 7851 C 719.19 -1.54431 4.03454 0
M  V30 7852 C 718.325 -2.72 4.56278 0
M  V30 7853 C 717.364 -2.25657 5.68986 0
M  V30 7854 N 716.501 -3.36338 6.16296 0
M  V30 7855 H 721.341 -0.219033 2.97194 0
M  V30 7856 H 718.878 -0.0963803 1.46784 0
M  V30 7857 H 720.836 -2.68949 3.1894 0
M  V30 7858 H 719.466 -2.4788 2.06773 0
M  V30 7859 H 718.518 -0.724273 3.73441 0
M  V30 7860 H 719.83 -1.16417 4.85024 0
M  V30 7861 H 718.984 -3.51806 4.94285 0
M  V30 7862 H 717.723 -3.13277 3.73777 0
M  V30 7863 H 716.728 -1.44299 5.30526 0
M  V30 7864 H 717.953 -1.85432 6.53293 0
M  V30 7865 H 715.899 -3.7718 5.36723 0
M  V30 7866 H 715.816 -3.02435 6.9287 0
M  V30 7867 H 717.084 -4.16413 6.58954 0
M  V30 7868 N 721.313 -1.57302 -0.09688 0
M  V30 7869 C 722.261 -2.02942 -1.13654 0
M  V30 7870 C 723.255 -0.930173 -1.41577 0
M  V30 7871 O 724.461 -1.11535 -1.41279 0
M  V30 7872 H 720.836 -0.646726 -0.383731 0
M  V30 7873 H 722.807 -2.89452 -0.725267 0
M  V30 7874 C 721.556 -2.46815 -2.44903 0
M  V30 7875 H 720.879 -3.30979 -2.24261 0
M  V30 7876 H 722.319 -2.82527 -3.16156 0
M  V30 7877 C 720.778 -1.34071 -3.09074 0
M  V30 7878 O 721.308 -0.668856 -3.96092 0
M  V30 7879 N 719.514 -1.09214 -2.69296 0
M  V30 7880 H 719.061 -1.64029 -1.98626 0
M  V30 7881 H 719.019 -0.339785 -3.12559 0
M  V30 7882 N 722.791 0.367657 -1.53252 0
M  V30 7883 C 723.721 1.45632 -1.8252 0
M  V30 7884 C 724.702 1.55979 -0.678568 0
M  V30 7885 O 725.887 1.70581 -0.928217 0
M  V30 7886 C 723.017 2.82994 -2.01325 0
M  V30 7887 C 721.971 2.87473 -3.17086 0
M  V30 7888 C 721.297 4.2749 -3.21179 0
M  V30 7889 C 722.597 2.55182 -4.55719 0
M  V30 7890 H 724.291 1.21387 -2.73689 0
M  V30 7891 H 721.837 0.58251 -1.31692 0
M  V30 7892 H 723.79 3.59179 -2.20383 0
M  V30 7893 H 722.514 3.08622 -1.06864 0
M  V30 7894 H 721.173 2.13739 -2.97844 0
M  V30 7895 H 720.821 4.5019 -2.24361 0
M  V30 7896 H 720.521 4.31403 -3.98955 0
M  V30 7897 H 722.045 5.0555 -3.42419 0
M  V30 7898 H 723.459 3.21081 -4.74953 0
M  V30 7899 H 721.856 2.70414 -5.3572 0
M  V30 7900 H 722.926 1.5044 -4.60973 0
M  V30 7901 N 724.269 1.44576 0.627338 0
M  V30 7902 C 725.199 1.54562 1.75022 0
M  V30 7903 C 726.18 0.398378 1.65369 0
M  V30 7904 O 727.365 0.61899 1.84071 0
M  V30 7905 C 724.495 1.49309 3.13567 0
M  V30 7906 C 723.449 2.62549 3.38012 0
M  V30 7907 C 722.775 2.42348 4.76625 0
M  V30 7908 C 724.075 4.04678 3.30202 0
M  V30 7909 H 725.769 2.4855 1.66922 0
M  V30 7910 H 723.315 1.19624 0.801636 0
M  V30 7911 H 725.268 1.54895 3.919 0
M  V30 7912 H 723.992 0.518392 3.2246 0
M  V30 7913 H 722.651 2.56358 2.62061 0
M  V30 7914 H 722.299 1.43062 4.82226 0
M  V30 7915 H 721.999 3.18273 4.93939 0
M  V30 7916 H 723.523 2.49758 5.57183 0
M  V30 7917 H 724.937 4.12217 3.98435 0
M  V30 7918 H 723.334 4.80836 3.5905 0
M  V30 7919 H 724.404 4.2798 2.27949 0
M  V30 7920 N 725.747 -0.868086 1.31537 0
M  V30 7921 C 726.677 -1.99131 1.21939 0
M  V30 7922 C 727.658 -1.69768 0.106166 0
M  V30 7923 O 728.843 -1.92006 0.291081 0
M  V30 7924 C 725.973 -3.34676 0.927879 0
M  V30 7925 C 724.927 -3.7835 2.00088 0
M  V30 7926 C 724.253 -5.11375 1.56203 0
M  V30 7927 C 725.553 -3.95256 3.41424 0
M  V30 7928 H 727.247 -2.07419 2.15911 0
M  V30 7929 H 724.793 -0.996569 1.03945 0
M  V30 7930 H 726.746 -4.12793 0.847327 0
M  V30 7931 H 725.47 -3.26565 -0.0475042 0
M  V30 7932 H 724.129 -3.02474 2.07135 0
M  V30 7933 H 723.777 -4.99709 0.57445 0
M  V30 7934 H 723.477 -5.41568 2.27985 0
M  V30 7935 H 725.001 -5.92001 1.49558 0
M  V30 7936 H 726.415 -4.63764 3.3704 0
M  V30 7937 H 724.812 -4.36849 4.1144 0
M  V30 7938 H 725.882 -2.98579 3.82072 0
M  V30 7939 N 727.225 -1.14528 -1.08264 0
M  V30 7940 C 728.45 -0.938381 -1.84957 0
M  V30 7941 C 728.875 0.508044 -1.81109 0
M  V30 7942 O 728.233 1.36146 -1.19724 0
M  V30 7943 C 728.281 -1.44568 -3.30352 0
M  V30 7944 O 727.385 -0.638745 -4.07423 0
M  V30 7945 H 726.726 -0.335394 -0.573068 0
M  V30 7946 H 729.256 -1.52287 -1.36637 0
M  V30 7947 H 729.266 -1.45449 -3.81194 0
M  V30 7948 H 727.941 -2.49876 -3.32468 0
M  V30 7949 H 726.518 -0.698801 -3.66294 0
M  V30 7950 N 728.703 1.26451 -0.940633 0
M  V30 7951 C 729.931 1.97868 -0.604642 0
M  V30 7952 C 730.346 1.70051 0.820251 0
M  V30 7953 O 729.703 0.96843 1.54686 0
M  V30 7954 C 729.754 3.51684 -0.836689 0
M  V30 7955 O 729.475 3.78533 -2.20554 0
M  V30 7956 C 730.976 4.40343 -0.511169 0
M  V30 7957 H 728.196 0.631105 -0.227919 0
M  V30 7958 H 730.74 1.60979 -1.26119 0
M  V30 7959 H 728.895 3.86736 -0.226759 0
M  V30 7960 H 729.309 4.73065 -2.26517 0
M  V30 7961 H 730.783 5.47229 -0.724157 0
M  V30 7962 H 731.26 4.35694 0.553815 0
M  V30 7963 H 731.866 4.10834 -1.0998 0
M  V30 7964 N 730.181 0.707592 1.40822 0
M  V30 7965 C 731.406 0.251626 2.05868 0
M  V30 7966 C 731.831 -1.09503 1.5294 0
M  V30 7967 O 731.189 -1.68806 0.661385 0
M  V30 7968 C 731.237 0.23287 3.59847 0
M  V30 7969 O 730.341 -0.788477 4.04792 0
M  V30 7970 H 729.682 0.119936 0.653078 0
M  V30 7971 H 732.212 0.96583 1.80369 0
M  V30 7972 H 732.222 0.0678204 4.07944 0
M  V30 7973 H 730.897 1.21565 3.97737 0
M  V30 7974 H 729.474 -0.591802 3.68174 0
M  V30 7975 N 731.66 -1.50943 0.453197 0
M  V30 7976 C 732.57 -2.31884 -0.355963 0
M  V30 7977 C 733.586 -1.41481 -1.01287 0
M  V30 7978 O 734.762 -1.74546 -1.00477 0
M  V30 7979 C 731.827 -3.15668 -1.43369 0
M  V30 7980 C 730.888 -4.2187 -0.795253 0
M  V30 7981 C 730.121 -5.0165 -1.82162 0
M  V30 7982 O 730.344 -4.82266 -3.04592 0
M  V30 7983 O 729.278 -5.85311 -1.40336 0
M  V30 7984 H 733.104 -3.02162 0.305248 0
M  V30 7985 H 730.689 -1.47839 0.215398 0
M  V30 7986 H 732.571 -3.67709 -2.05836 0
M  V30 7987 H 731.246 -2.48137 -2.07869 0
M  V30 7988 H 730.153 -3.73867 -0.132106 0
M  V30 7989 H 731.486 -4.9182 -0.193484 0
M  V30 7990 N 733.138 -0.185124 -1.56509 0
M  V30 7991 C 734.048 0.751908 -2.22224 0
M  V30 7992 C 735.064 1.24244 -1.21817 0
M  V30 7993 O 736.24 1.29169 -1.54523 0
M  V30 7994 C 733.305 1.95837 -2.86092 0
M  V30 7995 C 732.366 1.51337 -4.01741 0
M  V30 7996 C 731.599 2.66233 -4.62554 0
M  V30 7997 O 731.822 3.8346 -4.22273 0
M  V30 7998 O 730.756 2.39517 -5.52191 0
M  V30 7999 H 734.582 0.222304 -3.02885 0
M  V30 8000 H 732.167 0.0437141 -1.49336 0
M  V30 8001 H 734.049 2.66368 -3.26536 0
M  V30 8002 H 732.724 2.47677 -2.08417 0
M  V30 8003 H 731.631 0.777155 -3.65939 0
M  V30 8004 H 732.964 1.04175 -4.81049 0
M  V30 8005 N 734.616 1.57351 0.0885366 0
M  V30 8006 C 735.548 1.99221 1.13329 0
M  V30 8007 C 736.561 0.895705 1.35945 0
M  V30 8008 O 737.75 1.17376 1.34481 0
M  V30 8009 C 734.85 2.3016 2.48756 0
M  V30 8010 C 734.023 3.61444 2.46327 0
M  V30 8011 C 733.082 3.80244 3.63732 0
M  V30 8012 O 732.108 4.52024 3.45924 0
M  V30 8013 N 733.31 3.2132 4.8346 0
M  V30 8014 H 736.075 2.89456 0.776862 0
M  V30 8015 H 733.636 1.59505 0.277428 0
M  V30 8016 H 735.628 2.39925 3.25911 0
M  V30 8017 H 734.198 1.459 2.76464 0
M  V30 8018 H 733.418 3.62588 1.54673 0
M  V30 8019 H 734.706 4.47678 2.41789 0
M  V30 8020 H 734.104 2.63028 5.00832 0
M  V30 8021 H 732.661 3.3656 5.58185 0
M  V30 8022 N 736.094 -0.359525 1.53444 0
M  V30 8023 C 737.343 -1.09886 1.69139 0
M  V30 8024 C 737.656 -1.90285 0.452863 0
M  V30 8025 O 738.862 -2.67033 0.490459 0
M  V30 8026 C 737.318 -2.0028 2.99025 0
M  V30 8027 C 736.926 -1.25164 4.30161 0
M  V30 8028 C 738.67 -2.74168 3.24086 0
M  V30 8029 C 736.577 -2.14494 5.51132 0
M  V30 8030 H 735.507 -0.413936 0.630217 0
M  V30 8031 H 738.158 -0.359434 1.79945 0
M  V30 8032 H 736.54 -2.77978 2.82036 0
M  V30 8033 H 737.714 -0.524867 4.57801 0
M  V30 8034 H 736.029 -0.631116 4.11589 0
M  V30 8035 H 738.626 -3.41243 4.11652 0
M  V30 8036 H 738.969 -3.39868 2.40407 0
M  V30 8037 H 739.502 -2.0355 3.41778 0
M  V30 8038 H 736.241 -1.53362 6.37307 0
M  V30 8039 H 735.761 -2.85004 5.27762 0
M  V30 8040 H 737.44 -2.73914 5.86157 0
M  V30 8041 N 737.572 -1.44907 -0.619662 0
M  V30 8042 C 738.482 -1.55168 -1.75955 0
M  V30 8043 C 739.498 -0.43672 -1.6843 0
M  V30 8044 O 740.674 -0.695704 -1.89002 0
M  V30 8045 C 737.739 -1.50397 -3.12381 0
M  V30 8046 C 736.8 -2.72835 -3.31451 0
M  V30 8047 C 736.033 -2.68283 -4.61368 0
M  V30 8048 O 736.256 -1.74929 -5.42914 0
M  V30 8049 O 735.19 -3.59308 -4.82889 0
M  V30 8050 H 739.016 -2.51493 -1.7025 0
M  V30 8051 H 736.601 -1.27282 -0.782289 0
M  V30 8052 H 738.483 -1.50301 -3.93685 0
M  V30 8053 H 737.158 -0.572197 -3.18603 0
M  V30 8054 H 736.065 -2.78496 -2.49781 0
M  V30 8055 H 737.398 -3.65098 -3.30098 0
M  V30 8056 N 739.05 0.861098 -1.31996 0
M  V30 8057 C 739.997 1.96912 -1.20392 0
M  V30 8058 C 740.967 1.65869 -0.0875899 0
M  V30 8059 O 742.152 1.88992 -0.262011 0
M  V30 8060 C 739.292 3.32435 -0.926335 0
M  V30 8061 C 738.405 3.76018 -2.12684 0
M  V30 8062 C 737.54 5.00301 -1.78529 0
M  V30 8063 C 736.579 5.36357 -2.94937 0
M  V30 8064 N 735.716 6.51818 -2.60917 0
M  V30 8065 H 740.556 2.06169 -2.1517 0
M  V30 8066 H 738.093 1.00917 -1.07024 0
M  V30 8067 H 740.051 4.10478 -0.745917 0
M  V30 8068 H 738.681 3.22796 -0.0153578 0
M  V30 8069 H 737.733 2.93683 -2.41774 0
M  V30 8070 H 739.045 3.98664 -2.99781 0
M  V30 8071 H 738.199 5.86034 -1.57001 0
M  V30 8072 H 736.938 4.79578 -0.886356 0
M  V30 8073 H 735.943 4.49139 -3.17103 0
M  V30 8074 H 737.168 5.59041 -3.85552 0
M  V30 8075 H 735.114 6.32624 -1.73558 0
M  V30 8076 H 735.031 6.7445 -3.41544 0
M  V30 8077 H 736.299 7.4072 -2.42804 0
M  V30 8078 N 740.528 1.15101 1.07655 0
M  V30 8079 C 741.768 0.934462 1.81789 0
M  V30 8080 C 742.132 -0.529101 1.84566 0
M  V30 8081 O 743.333 -0.863868 2.5454 0
M  V30 8082 C 741.604 1.52817 3.23082 0
M  V30 8083 S 743.163 1.45429 4.14 0
M  V30 8084 H 739.981 0.336379 0.626395 0
M  V30 8085 H 742.583 1.46593 1.29347 0
M  V30 8086 H 741.287 2.58635 3.18647 0
M  V30 8087 H 740.818 0.995432 3.80598 0
M  V30 8088 H 742.833 0.445058 4.942 0
M  V30 8089 N 742.006 -1.2595 0.947325 0
M  V30 8090 C 743.253 -1.93463 0.598178 0
M  V30 8091 C 743.581 -1.74271 -0.863705 0
M  V30 8092 O 742.836 -1.07684 -1.63409 0
M  V30 8093 C 743.135 -3.46034 0.894158 0
M  V30 8094 C 742.801 -3.85373 2.3409 0
M  V30 8095 C 741.463 -3.95823 2.73637 0
M  V30 8096 C 743.815 -4.04986 3.2808 0
M  V30 8097 C 741.143 -4.23288 4.06257 0
M  V30 8098 C 743.495 -4.3394 4.60303 0
M  V30 8099 C 742.159 -4.42606 4.99656 0
M  V30 8100 H 741.429 -0.707933 0.218889 0
M  V30 8101 H 744.076 -1.4964 1.19499 0
M  V30 8102 H 742.381 -3.9121 0.214874 0
M  V30 8103 H 744.078 -3.96445 0.602698 0
M  V30 8104 H 740.668 -3.7779 2.02417 0
M  V30 8105 H 744.852 -3.96333 2.9872 0
M  V30 8106 H 740.108 -4.28211 4.36401 0
M  V30 8107 H 744.282 -4.48061 5.33118 0
M  V30 8108 H 741.909 -4.63641 6.02446 0
M  V30 8109 N 743.484 -0.715051 -1.40445 0
M  V30 8110 C 744.733 -0.251322 -2.00128 0
M  V30 8111 C 745.046 1.16194 -1.57347 0
M  V30 8112 O 746.252 1.72416 -2.09726 0
M  V30 8113 C 744.708 -0.398407 -3.57688 0
M  V30 8114 C 744.316 -1.81828 -4.09442 0
M  V30 8115 C 746.06 0.00455625 -4.245 0
M  V30 8116 C 743.967 -1.91598 -5.59503 0
M  V30 8117 H 742.897 -0.0902081 -0.748584 0
M  V30 8118 H 745.548 -0.886062 -1.6069 0
M  V30 8119 H 743.93 0.304908 -3.94824 0
M  V30 8120 H 745.104 -2.55193 -3.83684 0
M  V30 8121 H 743.419 -2.17266 -3.55225 0
M  V30 8122 H 746.016 -0.0477303 -5.34679 0
M  V30 8123 H 746.359 1.04636 -4.02935 0
M  V30 8124 H 746.892 -0.649184 -3.92467 0
M  V30 8125 H 743.631 -2.93898 -5.85922 0
M  V30 8126 H 743.151 -1.22644 -5.87127 0
M  V30 8127 H 744.83 -1.68785 -6.24596 0
M  V30 8128 N 744.962 1.50701 -0.461195 0
M  V30 8129 C 746.211 2.01458 0.0988277 0
M  V30 8130 C 746.524 1.34863 1.41673 0
M  V30 8131 O 747.73 1.76721 2.06111 0
M  V30 8132 C 746.186 3.59186 0.226648 0
M  V30 8133 C 745.794 4.34732 -1.08223 0
M  V30 8134 C 747.538 4.18015 0.73916 0
M  V30 8135 C 745.445 5.8422 -0.918747 0
M  V30 8136 H 744.375 0.7529 0.040709 0
M  V30 8137 H 747.026 1.736 -0.594589 0
M  V30 8138 H 745.408 3.83589 0.983621 0
M  V30 8139 H 746.582 4.22059 -1.84939 0
M  V30 8140 H 744.897 3.87466 -1.52509 0
M  V30 8141 H 747.494 5.27436 0.878347 0
M  V30 8142 H 747.837 3.78746 1.72793 0
M  V30 8143 H 748.37 3.9778 0.0398469 0
M  V30 8144 H 745.109 6.27944 -1.88059 0
M  V30 8145 H 744.629 5.99493 -0.191801 0
M  V30 8146 H 746.308 6.44382 -0.581405 0
M  V30 8147 N 746.441 0.193421 1.56409 0
M  V30 8148 C 747.351 -0.740112 2.2262 0
M  V30 8149 C 748.367 -1.23597 1.22474 0
M  V30 8150 O 749.543 -1.28348 1.55206 0
M  V30 8151 C 746.608 -1.94317 2.87127 0
M  V30 8152 C 745.669 -1.49205 4.02538 0
M  V30 8153 C 744.902 -2.63776 4.63959 0
M  V30 8154 O 745.125 -3.81215 4.24301 0
M  V30 8155 O 744.059 -2.36585 5.53454 0
M  V30 8156 H 747.885 -0.206238 3.02999 0
M  V30 8157 H 745.47 -0.0357938 1.49357 0
M  V30 8158 H 747.352 -2.64633 3.27944 0
M  V30 8159 H 746.027 -2.46568 2.09728 0
M  V30 8160 H 744.934 -0.757738 3.66346 0
M  V30 8161 H 746.267 -1.01622 4.81595 0
M  V30 8162 N 747.919 -1.57396 -0.0801906 0
M  V30 8163 C 748.867 -2.04136 -1.11495 0
M  V30 8164 C 749.861 -0.945137 -1.40583 0
M  V30 8165 O 751.067 -1.13028 -1.40088 0
M  V30 8166 H 747.442 -0.65076 -0.37685 0
M  V30 8167 H 749.413 -2.90205 -0.694526 0
M  V30 8168 C 748.162 -2.49399 -2.42272 0
M  V30 8169 H 747.485 -3.33339 -2.20737 0
M  V30 8170 H 748.925 -2.85864 -3.13142 0
M  V30 8171 C 747.384 -1.37341 -3.07635 0
M  V30 8172 O 747.914 -0.710829 -3.95361 0
M  V30 8173 N 746.12 -1.12064 -2.68123 0
M  V30 8174 H 745.667 -1.66126 -1.96875 0
M  V30 8175 H 745.625 -0.372916 -3.12181 0
M  V30 8176 N 749.397 0.351382 -1.53633 0
M  V30 8177 C 750.646 1.08988 -1.69719 0
M  V30 8178 C 750.959 1.90043 -0.462948 0
M  V30 8179 O 752.165 2.66769 -0.504613 0
M  V30 8180 C 750.621 1.98691 -3.00083 0
M  V30 8181 C 750.229 1.22881 -4.30818 0
M  V30 8182 C 751.973 2.72446 -3.25536 0
M  V30 8183 C 749.88 2.11568 -5.52262 0
M  V30 8184 H 748.81 0.410588 -0.632403 0
M  V30 8185 H 751.461 0.349886 -1.80133 0
M  V30 8186 H 749.843 2.76478 -2.83506 0
M  V30 8187 H 751.017 0.500582 -4.58073 0
M  V30 8188 H 749.332 0.60928 -4.11918 0
M  V30 8189 H 751.929 3.39055 -4.13456 0
M  V30 8190 H 752.272 3.38588 -2.42206 0
M  V30 8191 H 752.805 2.01735 -3.42852 0
M  V30 8192 H 749.544 1.4998 -6.38111 0
M  V30 8193 H 749.064 2.82201 -5.29266 0
M  V30 8194 H 750.743 2.70802 -5.87601 0
M  V30 8195 N 750.875 1.45233 0.611969 0
M  V30 8196 C 752.1 1.52767 1.40274 0
M  V30 8197 C 752.525 0.159701 1.87421 0
M  V30 8198 O 751.883 -0.854837 1.59882 0
M  V30 8199 C 751.931 2.51286 2.58626 0
M  V30 8200 O 751.035 2.02764 3.59111 0
M  V30 8201 H 750.376 0.515141 0.418958 0
M  V30 8202 H 752.906 1.90547 0.745188 0
M  V30 8203 H 752.916 2.69949 3.05927 0
M  V30 8204 H 751.591 3.50641 2.23659 0
M  V30 8205 H 750.168 1.93957 3.18489 0
M  V30 8206 N 752.353 -0.854086 1.3245 0
M  V30 8207 C 753.581 -1.64074 1.26045 0
M  V30 8208 C 753.996 -1.8802 -0.171456 0
M  V30 8209 O 753.353 -1.4496 -1.10873 0
M  V30 8210 C 753.404 -2.9997 2.01743 0
M  V30 8211 O 753.125 -2.77084 3.39346 0
M  V30 8212 C 754.626 -3.94414 2.02368 0
M  V30 8213 H 751.846 -0.511015 0.434862 0
M  V30 8214 H 754.39 -1.06494 1.74583 0
M  V30 8215 H 752.545 -3.54193 1.56926 0
M  V30 8216 H 752.959 -3.63514 3.78098 0
M  V30 8217 H 754.433 -4.87032 2.59815 0
M  V30 8218 H 754.91 -4.27427 1.01009 0
M  V30 8219 H 755.516 -3.46127 2.47135 0
M  V30 8220 N 753.831 -1.1567 -1.07043 0
M  V30 8221 C 755.08 -0.928039 -1.79082 0
M  V30 8222 C 755.393 0.545968 -1.87826 0
M  V30 8223 O 756.599 0.892308 -2.56418 0
M  V30 8224 C 755.055 -1.61103 -3.21829 0
M  V30 8225 C 754.663 -3.12228 -3.21275 0
M  V30 8226 C 756.407 -1.46404 -3.98455 0
M  V30 8227 C 754.314 -3.733 -4.58695 0
M  V30 8228 H 753.244 -0.34357 -0.671175 0
M  V30 8229 H 755.895 -1.38718 -1.20123 0
M  V30 8230 H 754.277 -1.07958 -3.81 0
M  V30 8231 H 755.451 -3.72155 -2.71731 0
M  V30 8232 H 753.766 -3.26725 -2.58147 0
M  V30 8233 H 756.363 -1.8942 -5.00024 0
M  V30 8234 H 756.706 -0.41195 -4.14257 0
M  V30 8235 H 757.239 -1.96663 -3.45787 0
M  V30 8236 H 753.978 -4.78423 -4.48098 0
M  V30 8237 H 753.498 -3.18157 -5.08465 0
M  V30 8238 H 755.177 -3.7441 -5.27661 0
M  V30 8239 N 755.309 1.25446 -0.953992 0
M  V30 8240 C 756.272 2.24156 -0.478179 0
M  V30 8241 C 757.272 1.55278 0.417776 0
M  V30 8242 O 758.462 1.72866 0.215155 0
M  V30 8243 C 755.594 3.39495 0.309202 0
M  V30 8244 H 756.787 2.67764 -1.35064 0
M  V30 8245 H 754.34 1.37822 -0.737206 0
M  V30 8246 H 755.075 3.01307 1.19936 0
M  V30 8247 H 754.86 3.90679 -0.333562 0
M  V30 8248 H 756.35 4.12796 0.631594 0
M  V30 8249 N 756.787 0.722489 1.40064 0
M  V30 8250 C 758.015 0.274838 2.05066 0
M  V30 8251 C 758.43 -1.08586 1.54449 0
M  V30 8252 O 757.787 -1.68375 0.704003 0
M  V30 8253 C 757.838 0.253673 3.60609 0
M  V30 8254 O 757.559 1.56064 4.0936 0
M  V30 8255 C 759.06 -0.211684 4.42794 0
M  V30 8256 H 756.28 0.12226 0.659768 0
M  V30 8257 H 758.824 0.982632 1.79345 0
M  V30 8258 H 756.979 -0.405137 3.85276 0
M  V30 8259 H 757.393 1.46576 5.03603 0
M  V30 8260 H 758.867 -0.175341 5.51721 0
M  V30 8261 H 759.344 -1.25493 4.2089 0
M  V30 8262 H 759.95 0.4171 4.2325 0
M  V30 8263 N 758.265 -1.50454 0.469181 0
M  V30 8264 C 759.511 -2.02615 -0.0865971 0
M  V30 8265 C 759.844 -1.35062 -1.39542 0
M  V30 8266 O 759.119 -0.475701 -1.88593 0
M  V30 8267 C 759.402 -3.59068 -0.272385 0
M  V30 8268 C 759.255 -4.37196 1.05733 0
M  V30 8269 C 760.574 -4.2793 -1.0278 0
M  V30 8270 H 757.693 -0.736389 -0.0299977 0
M  V30 8271 H 760.335 -1.79792 0.614399 0
M  V30 8272 H 758.485 -3.78646 -0.869471 0
M  V30 8273 H 760.157 -4.29195 1.69084 0
M  V30 8274 H 758.4 -4.01013 1.65442 0
M  V30 8275 H 759.071 -5.44924 0.880997 0
M  V30 8276 H 761.547 -4.12816 -0.521718 0
M  V30 8277 H 760.423 -5.37214 -1.12659 0
M  V30 8278 H 760.684 -3.90968 -2.0639 0
M  V30 8279 N 759.743 -0.201713 -1.56304 0
M  V30 8280 C 760.653 0.728296 -2.23009 0
M  V30 8281 C 761.669 1.22945 -1.23128 0
M  V30 8282 O 762.845 1.27523 -1.55884 0
M  V30 8283 C 759.91 1.92792 -2.88153 0
M  V30 8284 C 758.971 1.47068 -4.03323 0
M  V30 8285 C 758.204 2.61312 -4.65351 0
M  V30 8286 O 758.427 3.7896 -4.26317 0
M  V30 8287 O 757.361 2.33646 -5.54701 0
M  V30 8288 H 761.187 0.190166 -3.03104 0
M  V30 8289 H 758.772 0.0278725 -1.49374 0
M  V30 8290 H 760.654 2.6289 -3.29343 0
M  V30 8291 H 759.329 2.45452 -2.11033 0
M  V30 8292 H 758.236 0.738299 -3.66742 0
M  V30 8293 H 759.569 0.990666 -4.82127 0
M  V30 8294 N 761.222 1.57436 0.0718424 0
M  V30 8295 C 762.132 2.07039 1.10326 0
M  V30 8296 C 763.148 0.999918 1.424 0
M  V30 8297 O 764.324 1.31462 1.52577 0
M  V30 8298 C 761.389 2.50439 2.39752 0
M  V30 8299 C 760.45 3.71784 2.14651 0
M  V30 8300 C 759.683 4.13104 3.37906 0
M  V30 8301 O 759.906 3.54298 4.47023 0
M  V30 8302 O 758.84 5.05894 3.26121 0
M  V30 8303 H 762.666 2.95239 0.711872 0
M  V30 8304 H 760.251 1.46638 0.28597 0
M  V30 8305 H 762.133 2.78876 3.15921 0
M  V30 8306 H 760.808 1.65368 2.78271 0
M  V30 8307 H 759.715 3.48431 1.36187 0
M  V30 8308 H 761.048 4.57707 1.81012 0
M  V30 8309 N 762.7 -0.34323 1.53817 0
M  V30 8310 C 763.928 -1.10348 1.75017 0
M  V30 8311 C 764.343 -1.82345 0.489475 0
M  V30 8312 O 763.7 -1.74362 -0.538886 0
M  V30 8313 C 763.751 -2.11672 2.93048 0
M  V30 8314 O 763.472 -1.42603 4.14241 0
M  V30 8315 C 764.973 -3.0007 3.26301 0
M  V30 8316 H 762.193 -0.329056 0.584776 0
M  V30 8317 H 764.737 -0.395339 2.00642 0
M  V30 8318 H 762.892 -2.78051 2.69753 0
M  V30 8319 H 763.306 -2.10294 4.80496 0
M  V30 8320 H 764.78 -3.67101 4.12239 0
M  V30 8321 H 765.257 -3.66105 2.42618 0
M  V30 8322 H 765.863 -2.3928 3.51604 0
M  V30 8323 N 764.178 -1.45556 -0.604258 0
M  V30 8324 C 765.126 -1.5482 -1.7359 0
M  V30 8325 C 766.12 -0.417966 -1.64163 0
M  V30 8326 O 767.326 -0.594007 -1.69916 0
M  V30 8327 H 763.701 -0.486352 -0.573556 0
M  V30 8328 H 765.672 -2.5001 -1.62903 0
M  V30 8329 C 764.421 -1.53521 -3.11972 0
M  V30 8330 H 763.744 -2.39818 -3.19886 0
M  V30 8331 H 765.184 -1.64061 -3.90973 0
M  V30 8332 C 763.643 -0.260191 -3.35894 0
M  V30 8333 O 764.173 0.658582 -3.96265 0
M  V30 8334 N 762.379 -0.154839 -2.90187 0
M  V30 8335 H 761.926 -0.903378 -2.4124 0
M  V30 8336 H 761.884 0.697437 -3.06567 0
M  V30 8337 N 765.656 0.84705 -1.32902 0
M  V30 8338 C 766.588 1.96308 -1.18304 0
M  V30 8339 C 767.601 1.62386 -0.116082 0
M  V30 8340 O 768.79 1.74713 -0.365751 0
M  V30 8341 C 765.89 3.29556 -0.790305 0
M  V30 8342 C 765.063 3.91668 -1.94717 0
M  V30 8343 C 764.122 5.0326 -1.53674 0
M  V30 8344 O 763.148 5.22847 -2.24989 0
M  V30 8345 N 764.35 5.78852 -0.437075 0
M  V30 8346 H 767.115 2.09369 -2.14441 0
M  V30 8347 H 764.676 1.02233 -1.25539 0
M  V30 8348 H 766.668 4.01624 -0.49799 0
M  V30 8349 H 765.238 3.12497 0.0801286 0
M  V30 8350 H 764.458 3.12292 -2.40557 0
M  V30 8351 H 765.746 4.299 -2.72146 0
M  V30 8352 H 765.144 5.65484 0.156316 0
M  V30 8353 H 763.701 6.51479 -0.204399 0
M  V30 8354 N 767.134 1.16236 1.06428 0
M  V30 8355 C 768.362 0.967184 1.82902 0
M  V30 8356 C 768.777 -0.484601 1.82475 0
M  V30 8357 O 768.134 -1.33631 1.24294 0
M  V30 8358 C 768.185 1.48534 3.29576 0
M  V30 8359 O 767.906 2.88026 3.3011 0
M  V30 8360 C 769.407 1.33298 4.22784 0
M  V30 8361 H 766.627 0.342923 0.576754 0
M  V30 8362 H 769.171 1.54232 1.34286 0
M  V30 8363 H 767.326 0.952513 3.75508 0
M  V30 8364 H 767.74 3.11721 4.21818 0
M  V30 8365 H 769.214 1.74385 5.23731 0
M  V30 8366 H 769.691 0.278356 4.38317 0
M  V30 8367 H 770.297 1.85535 3.82697 0
M  V30 8368 N 768.612 -1.24939 0.960631 0
M  V30 8369 C 769.889 -1.88118 0.535807 0
M  V30 8370 C 770.269 -1.86605 -0.987009 0
M  V30 8371 O 769.617 -1.33375 -1.85536 0
M  V30 8372 C 769.827 -3.30565 1.11927 0
M  V30 8373 C 771.175 -4.07296 1.19981 0
M  V30 8374 O 772.199 -3.39709 1.07126 0
M  V30 8375 O 771.058 -5.28206 1.40218 0
M  V30 8376 H 768.152 -0.807698 0.177631 0
M  V30 8377 H 770.698 -1.32964 1.05445 0
M  V30 8378 H 769.47 -3.26128 2.16231 0
M  V30 8379 H 769.093 -3.93284 0.584245 0
M  V30 8380 N 770.09 -0.729906 -1.39679 0
M  V30 8381 C 771 -0.0880322 -2.34435 0
M  V30 8382 C 772.016 0.727674 -1.58053 0
M  V30 8383 O 773.192 0.657321 -1.90371 0
M  V30 8384 C 770.257 0.812211 -3.37052 0
M  V30 8385 C 769.318 -0.0151681 -4.29297 0
M  V30 8386 C 768.551 0.842202 -5.27013 0
M  V30 8387 O 768.774 2.08108 -5.31081 0
M  V30 8388 O 767.708 0.27357 -6.01278 0
M  V30 8389 H 771.534 -0.869989 -2.90972 0
M  V30 8390 H 769.119 -0.490522 -1.41118 0
M  V30 8391 H 771.001 1.32745 -3.99946 0
M  V30 8392 H 769.676 1.57307 -2.82907 0
M  V30 8393 H 768.583 -0.575811 -3.69642 0
M  V30 8394 H 769.916 -0.738129 -4.86634 0
M  V30 8395 N 771.568 1.50203 -0.477153 0
M  V30 8396 C 772.845 1.95115 0.137609 0
M  V30 8397 C 773.225 1.41778 1.56404 0
M  V30 8398 O 772.573 0.621333 2.1989 0
M  V30 8399 C 772.783 3.4892 0.0747168 0
M  V30 8400 C 774.131 4.238 0.260585 0
M  V30 8401 O 775.155 3.5588 0.151021 0
M  V30 8402 O 774.014 5.44366 0.482534 0
M  V30 8403 H 771.108 0.81987 0.108364 0
M  V30 8404 H 773.654 1.60946 -0.537989 0
M  V30 8405 H 772.426 3.80308 -0.920966 0
M  V30 8406 H 772.049 3.89642 0.791509 0
M  V30 8407 N 773.046 0.209999 1.56195 0
M  V30 8408 C 773.996 -0.717978 2.164 0
M  V30 8409 C 774.98 -1.16577 1.10899 0
M  V30 8410 O 776.172 -1.12169 1.3692 0
M  V30 8411 C 773.301 -1.93091 2.8385 0
M  V30 8412 C 772.387 -1.50333 3.96561 0
M  V30 8413 N 772.778 -0.787621 4.9963 0
M  V30 8414 C 771.076 -1.79151 4.08437 0
M  V30 8415 C 771.777 -0.571204 5.78889 0
M  V30 8416 N 770.753 -1.12444 5.31843 0
M  V30 8417 H 774.555 -0.162603 2.9345 0
M  V30 8418 H 772.069 0.0107928 1.62396 0
M  V30 8419 H 774.066 -2.60635 3.25384 0
M  V30 8420 H 772.726 -2.49087 2.08293 0
M  V30 8421 H 773.737 -0.441513 5.16015 0
M  V30 8422 H 770.414 -2.36549 3.44022 0
M  V30 8423 H 771.804 -0.00237941 6.719 0
M  V30 8424 N 774.524 -1.57472 -0.0634922 0
M  V30 8425 C 775.471 -2.04258 -1.07457 0
M  V30 8426 C 776.441 -0.924804 -1.37973 0
M  V30 8427 O 777.626 -1.19305 -1.48899 0
M  V30 8428 C 774.766 -2.49832 -2.38071 0
M  V30 8429 C 773.879 -3.75263 -2.14014 0
M  V30 8430 C 773.014 -4.09585 -3.38251 0
M  V30 8431 C 772.053 -5.28032 -3.09594 0
M  V30 8432 N 771.19 -5.57953 -4.26185 0
M  V30 8433 H 776.03 -2.90402 -0.668626 0
M  V30 8434 H 773.567 -1.43609 -0.318572 0
M  V30 8435 H 775.525 -2.7431 -3.14341 0
M  V30 8436 H 774.155 -1.66654 -2.76453 0
M  V30 8437 H 773.207 -3.58075 -1.28399 0
M  V30 8438 H 774.519 -4.61667 -1.88852 0
M  V30 8439 H 773.673 -4.35008 -4.2291 0
M  V30 8440 H 772.412 -3.21765 -3.66495 0
M  V30 8441 H 771.417 -5.02397 -2.23332 0
M  V30 8442 H 772.642 -6.17477 -2.82663 0
M  V30 8443 H 770.588 -4.73092 -4.54445 0
M  V30 8444 H 770.505 -6.38793 -4.04326 0
M  V30 8445 H 771.773 -5.87931 -5.11817 0
M  V30 8446 N 776.003 0.335068 -1.53997 0
M  V30 8447 C 776.95 1.41187 -1.82579 0
M  V30 8448 C 777.92 1.51897 -0.672061 0
M  V30 8449 O 779.105 1.673 -0.917346 0
M  V30 8450 C 776.245 2.77717 -2.0486 0
M  V30 8451 C 775.358 2.7573 -3.32561 0
M  V30 8452 C 774.493 4.04032 -3.44864 0
M  V30 8453 C 773.532 3.96308 -4.66483 0
M  V30 8454 N 772.669 5.16317 -4.75774 0
M  V30 8455 H 777.509 1.16113 -2.74448 0
M  V30 8456 H 775.046 0.562305 -1.35928 0
M  V30 8457 H 777.004 3.57071 -2.15768 0
M  V30 8458 H 775.634 3.01124 -1.16294 0
M  V30 8459 H 774.686 1.88432 -3.3045 0
M  V30 8460 H 775.998 2.65902 -4.22016 0
M  V30 8461 H 775.152 4.91814 -3.55251 0
M  V30 8462 H 773.891 4.16652 -2.53481 0
M  V30 8463 H 772.896 3.06911 -4.56164 0
M  V30 8464 H 774.121 3.85263 -5.5924 0
M  V30 8465 H 772.067 5.29464 -3.87303 0
M  V30 8466 H 771.984 5.08779 -5.59178 0
M  V30 8467 H 773.252 6.05846 -4.9048 0
M  V30 8468 N 777.481 1.45874 0.596531 0
M  V30 8469 C 778.711 1.5379 1.37958 0
M  V30 8470 C 779.119 0.173086 1.88407 0
M  V30 8471 O 778.462 -0.837498 1.63498 0
M  V30 8472 C 778.524 2.47044 2.61169 0
M  V30 8473 C 778.188 3.93565 2.32283 0
M  V30 8474 C 779.185 4.83162 1.91965 0
M  V30 8475 C 776.87 4.38579 2.44854 0
M  V30 8476 C 778.864 6.15782 1.64593 0
M  V30 8477 C 776.551 5.71238 2.17095 0
M  V30 8478 C 777.549 6.59659 1.77028 0
M  V30 8479 O 777.237 7.89857 1.49601 0
M  V30 8480 H 776.969 0.523 0.428307 0
M  V30 8481 H 779.523 1.91855 0.733529 0
M  V30 8482 H 777.753 2.0397 3.28532 0
M  V30 8483 H 779.442 2.4552 3.23226 0
M  V30 8484 H 780.208 4.49646 1.8178 0
M  V30 8485 H 776.087 3.6999 2.75006 0
M  V30 8486 H 779.631 6.84757 1.33245 0
M  V30 8487 H 775.528 6.04306 2.26901 0
M  V30 8488 H 776.296 8.01991 1.63561 0
M  V30 8489 N 778.959 -0.83999 1.33349 0
M  V30 8490 C 780.184 -1.63249 1.27924 0
M  V30 8491 C 780.609 -1.87523 -0.147193 0
M  V30 8492 O 779.967 -1.43853 -1.10345 0
M  V30 8493 C 780.015 -2.96046 2.05886 0
M  V30 8494 O 779.119 -3.87303 1.4167 0
M  V30 8495 H 778.46 -0.49715 0.440157 0
M  V30 8496 H 780.99 -1.04512 1.75893 0
M  V30 8497 H 781 -3.45752 2.16609 0
M  V30 8498 H 779.675 -2.77701 3.09605 0
M  V30 8499 H 778.252 -3.45789 1.39585 0
M  V30 8500 N 780.437 -1.16799 -1.0581 0
M  V30 8501 C 781.662 -0.977402 -1.82925 0
M  V30 8502 C 782.087 0.469514 -1.82146 0
M  V30 8503 O 781.445 1.33576 -1.22585 0
M  V30 8504 C 781.493 -1.51543 -3.27211 0
M  V30 8505 O 780.597 -0.725021 -4.05977 0
M  V30 8506 H 779.938 -0.347474 -0.565825 0
M  V30 8507 H 782.468 -1.55151 -1.33376 0
M  V30 8508 H 782.478 -1.53502 -3.78023 0
M  V30 8509 H 781.153 -2.56872 -3.27093 0
M  V30 8510 H 779.73 -0.77634 -3.64729 0
M  V30 8511 N 781.915 1.24427 -0.967243 0
M  V30 8512 C 782.847 2.24641 -0.454856 0
M  V30 8513 C 783.86 1.56849 0.436152 0
M  V30 8514 O 785.049 1.76846 0.242401 0
M  V30 8515 C 782.149 3.36954 0.362672 0
M  V30 8516 C 781.322 4.34318 -0.518324 0
M  V30 8517 C 780.381 5.25638 0.243122 0
M  V30 8518 O 779.407 5.68043 -0.362791 0
M  V30 8519 N 780.609 5.59897 1.53282 0
M  V30 8520 H 783.374 2.69238 -1.31648 0
M  V30 8521 H 780.935 1.38464 -0.839015 0
M  V30 8522 H 782.927 3.95014 0.880094 0
M  V30 8523 H 781.497 2.91646 1.12522 0
M  V30 8524 H 780.717 3.74953 -1.21672 0
M  V30 8525 H 782.005 4.96338 -1.11919 0
M  V30 8526 H 781.403 5.27373 2.04682 0
M  V30 8527 H 779.96 6.20488 1.99594 0
M  V30 8528 N 783.393 0.737304 1.3929 0
M  V30 8529 C 784.621 0.296573 2.04763 0
M  V30 8530 C 785.036 -1.06941 1.55592 0
M  V30 8531 O 784.393 -1.67619 0.721822 0
M  V30 8532 C 784.444 0.291906 3.6032 0
M  V30 8533 O 784.165 1.60397 4.07682 0
M  V30 8534 C 785.666 -0.164708 4.42994 0
M  V30 8535 H 782.886 0.129251 0.658434 0
M  V30 8536 H 785.43 1.0016 1.78293 0
M  V30 8537 H 783.585 -0.364251 3.85684 0
M  V30 8538 H 783.999 1.51909 5.0202 0
M  V30 8539 H 785.473 -0.116814 5.51876 0
M  V30 8540 H 785.95 -1.21022 4.22197 0
M  V30 8541 H 786.556 0.461968 4.22784 0
M  V30 8542 N 784.871 -1.49948 0.485112 0
M  V30 8543 C 786.096 -2.073 -0.0645059 0
M  V30 8544 C 786.521 -1.345 -1.31497 0
M  V30 8545 O 785.879 -0.39687 -1.76903 0
M  V30 8546 C 785.927 -3.59201 -0.317304 0
M  V30 8547 O 785.031 -3.88085 -1.39514 0
M  V30 8548 H 784.372 -0.663723 0.0191822 0
M  V30 8549 H 786.902 -1.92963 0.680179 0
M  V30 8550 H 786.912 -4.04227 -0.553604 0
M  V30 8551 H 785.587 -4.11602 0.596387 0
M  V30 8552 H 784.164 -3.54885 -1.14504 0
M  V30 8553 N 786.349 -0.21828 -1.56081 0
M  V30 8554 C 787.281 0.725447 -2.17416 0
M  V30 8555 C 788.294 1.15995 -1.14233 0
M  V30 8556 O 789.483 1.09166 -1.41227 0
M  V30 8557 C 786.583 1.99401 -2.7403 0
M  V30 8558 C 785.756 1.7156 -4.02351 0
M  V30 8559 C 784.815 2.8309 -4.43561 0
M  V30 8560 O 783.841 2.51701 -5.10525 0
M  V30 8561 N 785.043 4.11972 -4.08973 0
M  V30 8562 H 787.808 0.200801 -2.99027 0
M  V30 8563 H 785.369 -0.0371514 -1.61857 0
M  V30 8564 H 787.361 2.73198 -2.98571 0
M  V30 8565 H 785.931 2.42923 -1.96742 0
M  V30 8566 H 785.151 0.814233 -3.85699 0
M  V30 8567 H 786.439 1.50385 -4.86068 0
M  V30 8568 H 785.837 4.40319 -3.55156 0
M  V30 8569 H 784.394 4.82323 -4.38415 0
M  V30 8570 N 787.827 1.57504 0.0551401 0
M  V30 8571 C 789.104 1.79155 0.785048 0
M  V30 8572 C 789.484 0.809995 1.94942 0
M  V30 8573 O 788.832 -0.153432 2.27984 0
M  V30 8574 C 789.042 3.26134 1.24247 0
M  V30 8575 C 790.39 3.90419 1.66908 0
M  V30 8576 O 791.414 3.30126 1.33772 0
M  V30 8577 O 790.273 4.96523 2.28314 0
M  V30 8578 H 787.367 0.735825 0.377479 0
M  V30 8579 H 789.913 1.69666 0.0339285 0
M  V30 8580 H 788.685 3.89145 0.410089 0
M  V30 8581 H 788.308 3.40411 2.05441 0
M  V30 8582 N 789.305 -0.326896 1.54172 0
M  V30 8583 C 790.53 -1.08924 1.76494 0
M  V30 8584 C 790.955 -1.81039 0.510523 0
M  V30 8585 O 790.313 -1.73141 -0.537756 0
M  V30 8586 C 790.361 -2.06558 2.95578 0
M  V30 8587 O 789.465 -3.14394 2.6689 0
M  V30 8588 H 788.806 -0.314216 0.584948 0
M  V30 8589 H 791.336 -0.372207 2.01186 0
M  V30 8590 H 791.346 -2.49487 3.22832 0
M  V30 8591 H 790.021 -1.53469 3.86549 0
M  V30 8592 H 788.598 -2.76164 2.50576 0
M  V30 8593 N 790.784 -1.46188 -0.588786 0
M  V30 8594 C 792.032 -1.50885 -1.34455 0
M  V30 8595 C 792.353 -0.159555 -1.94346 0
M  V30 8596 O 791.623 0.813239 -1.78222 0
M  V30 8597 H 790.203 -0.555707 -0.499198 0
M  V30 8598 H 792.865 -1.82277 -0.690014 0
M  V30 8599 H 791.961 -2.25816 -2.15438 0
M  V30 8600 N 792.262 0.832906 -1.33792 0
M  V30 8601 C 793.21 1.96455 -1.24532 0
M  V30 8602 C 794.204 1.68774 -0.145455 0
M  V30 8603 O 795.41 1.77314 -0.309797 0
M  V30 8604 H 791.785 0.645008 -0.386611 0
M  V30 8605 H 793.756 2.01389 -2.20193 0
M  V30 8606 C 792.505 3.32784 -1.00748 0
M  V30 8607 H 791.828 3.54626 -1.84609 0
M  V30 8608 H 793.268 4.12447 -0.98301 0
M  V30 8609 C 791.727 3.35654 0.289475 0
M  V30 8610 O 792.257 3.80281 1.29419 0
M  V30 8611 N 790.463 2.88843 0.3191 0
M  V30 8612 H 790.01 2.52719 -0.499069 0
M  V30 8613 H 789.968 2.91145 1.18667 0
M  V30 8614 N 793.74 1.17359 1.05189 0
M  V30 8615 C 794.97 0.985099 1.81602 0
M  V30 8616 C 795.378 -0.469872 1.83273 0
M  V30 8617 O 794.721 -1.33806 1.25864 0
M  V30 8618 C 794.783 1.44956 3.2898 0
M  V30 8619 C 794.447 2.92666 3.50993 0
M  V30 8620 C 795.444 3.906 3.43115 0
M  V30 8621 C 793.129 3.30841 3.77954 0
M  V30 8622 C 795.123 5.24709 3.61883 0
M  V30 8623 C 792.81 4.65116 3.96371 0
M  V30 8624 C 793.808 5.61859 3.88335 0
M  V30 8625 O 793.496 6.93704 4.06238 0
M  V30 8626 H 793.228 0.348731 0.579105 0
M  V30 8627 H 795.782 1.56066 1.33539 0
M  V30 8628 H 794.012 0.817559 3.77959 0
M  V30 8629 H 795.701 1.22674 3.86919 0
M  V30 8630 H 796.467 3.62453 3.22262 0
M  V30 8631 H 792.346 2.5611 3.83313 0
M  V30 8632 H 795.89 6.00205 3.55527 0
M  V30 8633 H 791.787 4.92969 4.16715 0
M  V30 8634 H 792.555 7.00443 4.23463 0
M  V30 8635 N 795.218 -1.23913 0.973828 0
M  V30 8636 C 796.443 -1.96735 0.656511 0
M  V30 8637 C 796.868 -1.71682 -0.768571 0
M  V30 8638 O 796.226 -0.984267 -1.52256 0
M  V30 8639 C 796.274 -3.48004 0.944735 0
M  V30 8640 O 795.378 -4.12387 0.0333357 0
M  V30 8641 H 794.719 -0.616119 0.247575 0
M  V30 8642 H 797.249 -1.57525 1.30564 0
M  V30 8643 H 797.259 -3.98424 0.87876 0
M  V30 8644 H 795.934 -3.65567 1.98328 0
M  V30 8645 H 794.511 -3.72585 0.153157 0
M  V30 8646 N 796.696 -0.74468 -1.38897 0
M  V30 8647 C 797.644 -0.100312 -2.32384 0
M  V30 8648 C 798.638 0.715191 -1.53562 0
M  V30 8649 O 799.844 0.615288 -1.69157 0
M  V30 8650 H 796.219 -0.0136403 -0.751876 0
M  V30 8651 H 798.19 -0.905007 -2.84345 0
M  V30 8652 C 796.939 0.785432 -3.38713 0
M  V30 8653 H 796.262 0.167308 -3.9945 0
M  V30 8654 H 797.702 1.20374 -4.06554 0
M  V30 8655 C 796.161 1.92408 -2.76552 0
M  V30 8656 O 796.691 3.01752 -2.65157 0
M  V30 8657 N 794.897 1.71642 -2.34494 0
M  V30 8658 H 794.444 0.827079 -2.43961 0
M  V30 8659 H 794.402 2.48 -1.93244 0
M  V30 8660 N 798.174 1.49689 -0.493057 0
M  V30 8661 C 799.084 2.32746 0.294358 0
M  V30 8662 C 800.1 1.44117 0.975003 0
M  V30 8663 O 801.276 1.77149 0.958138 0
M  V30 8664 C 798.341 3.19358 1.34949 0
M  V30 8665 C 797.402 4.2383 0.683122 0
M  V30 8666 C 796.635 5.06303 1.68798 0
M  V30 8667 O 796.858 4.90172 2.91698 0
M  V30 8668 O 795.792 5.88826 1.24768 0
M  V30 8669 H 799.618 3.01247 -0.385254 0
M  V30 8670 H 797.203 1.47216 -0.254519 0
M  V30 8671 H 799.085 3.73037 1.96014 0
M  V30 8672 H 797.76 2.53561 2.01217 0
M  V30 8673 H 796.667 3.74086 0.0329351 0
M  V30 8674 H 798 4.9216 0.0630192 0
M  V30 8675 N 799.652 0.226554 1.55963 0
M  V30 8676 C 800.929 -0.453058 1.90281 0
M  V30 8677 C 801.309 -1.77377 1.14458 0
M  V30 8678 O 800.657 -2.27067 0.255496 0
M  V30 8679 C 800.867 -0.641108 3.43061 0
M  V30 8680 C 802.215 -0.946265 4.13921 0
M  V30 8681 O 803.239 -0.727713 3.48687 0
M  V30 8682 O 802.098 -1.36131 5.29274 0
M  V30 8683 H 799.192 -0.240242 0.791336 0
M  V30 8684 H 801.738 0.26911 1.67553 0
M  V30 8685 H 800.51 0.290283 3.90222 0
M  V30 8686 H 800.133 -1.41458 3.71585 0
M  V30 8687 N 801.13 -1.57531 -0.0467866 0
M  V30 8688 C 802.04 -2.08768 -1.07018 0
M  V30 8689 C 803.056 -1.02245 -1.40791 0
M  V30 8690 O 804.232 -1.33873 -1.50466 0
M  V30 8691 C 801.297 -2.54221 -2.35738 0
M  V30 8692 C 800.358 -3.75152 -2.08709 0
M  V30 8693 C 799.591 -4.18428 -3.31291 0
M  V30 8694 O 799.814 -3.61365 -4.4133 0
M  V30 8695 O 798.748 -5.11018 -3.18032 0
M  V30 8696 H 802.574 -2.96334 -0.664812 0
M  V30 8697 H 800.159 -1.47074 -0.262605 0
M  V30 8698 H 802.041 -2.83866 -3.11445 0
M  V30 8699 H 800.716 -1.69774 -2.75605 0
M  V30 8700 H 799.623 -3.50553 -1.30627 0
M  V30 8701 H 800.956 -4.60528 -1.73708 0
M  V30 8702 N 802.608 0.318715 -1.54344 0
M  V30 8703 C 803.833 1.07987 -1.77069 0
M  V30 8704 C 804.258 1.80766 -0.520117 0
M  V30 8705 O 803.616 1.73424 0.528566 0
M  V30 8706 C 803.664 2.04987 -2.96669 0
M  V30 8707 O 802.768 3.12974 -2.68554 0
M  V30 8708 H 802.109 0.311109 -0.586606 0
M  V30 8709 H 804.639 0.361533 -2.0138 0
M  V30 8710 H 804.649 2.47771 -3.2415 0
M  V30 8711 H 803.324 1.51417 -3.87357 0
M  V30 8712 H 801.901 2.74831 -2.52037 0
M  V30 8713 N 804.086 1.46499 0.581025 0
M  V30 8714 C 804.996 1.59778 1.71779 0
M  V30 8715 C 806.012 0.481223 1.67213 0
M  V30 8716 O 807.188 0.74557 1.87091 0
M  V30 8717 C 804.253 1.58626 3.08283 0
M  V30 8718 C 803.314 2.81527 3.241 0
M  V30 8719 C 802.547 2.80421 4.54092 0
M  V30 8720 O 802.77 1.89262 5.38085 0
M  V30 8721 O 801.704 3.71984 4.73193 0
M  V30 8722 H 805.53 2.55918 1.63523 0
M  V30 8723 H 803.115 1.29311 0.748267 0
M  V30 8724 H 804.997 1.60686 3.89561 0
M  V30 8725 H 803.672 0.656467 3.16973 0
M  V30 8726 H 802.579 2.85021 2.42309 0
M  V30 8727 H 803.912 3.73721 3.20302 0
M  V30 8728 N 805.565 -0.825799 1.34232 0
M  V30 8729 C 806.79 -1.61883 1.29648 0
M  V30 8730 C 807.215 -1.87669 -0.127295 0
M  V30 8731 O 806.573 -1.45016 -1.08813 0
M  V30 8732 C 806.621 -2.93846 2.09014 0
M  V30 8733 O 805.725 -3.85778 1.4577 0
M  V30 8734 H 805.066 -0.492454 0.445405 0
M  V30 8735 H 807.596 -1.02641 1.76992 0
M  V30 8736 H 807.606 -3.43435 2.20264 0
M  V30 8737 H 806.281 -2.74401 3.12533 0
M  V30 8738 H 804.858 -3.4429 1.43245 0
M  V30 8739 N 807.043 -1.17915 -1.04565 0
M  V30 8740 C 807.99 -0.901605 -2.12461 0
M  V30 8741 C 808.96 0.157011 -1.65356 0
M  V30 8742 O 810.145 0.0184494 -1.90791 0
M  V30 8743 C 807.285 -0.42796 -3.42436 0
M  V30 8744 C 806.398 -1.55142 -4.03181 0
M  V30 8745 C 805.533 -1.03101 -5.21098 0
M  V30 8746 C 804.572 -2.1295 -5.73863 0
M  V30 8747 N 803.709 -1.62339 -6.83074 0
M  V30 8748 H 808.549 -1.82551 -2.3554 0
M  V30 8749 H 806.086 -0.910389 -1.15544 0
M  V30 8750 H 808.044 -0.134859 -4.16982 0
M  V30 8751 H 806.674 0.458977 -3.1952 0
M  V30 8752 H 805.726 -1.96011 -3.26012 0
M  V30 8753 H 807.038 -2.37968 -4.38375 0
M  V30 8754 H 806.192 -0.692132 -6.02739 0
M  V30 8755 H 804.931 -0.17227 -4.87396 0
M  V30 8756 H 803.936 -2.47687 -4.90847 0
M  V30 8757 H 805.161 -2.9925 -6.09611 0
M  V30 8758 H 803.107 -0.787464 -6.51256 0
M  V30 8759 H 803.024 -2.38767 -7.17305 0
M  V30 8760 H 804.292 -1.31363 -7.68351 0
M  V30 8761 N 808.521 1.23394 -0.980386 0
M  V30 8762 C 809.749 1.95844 -0.667286 0
M  V30 8763 C 810.164 1.72574 0.765735 0
M  V30 8764 O 809.521 1.01715 1.51526 0
M  V30 8765 C 809.572 3.48844 -0.948151 0
M  V30 8766 O 809.293 3.71325 -2.32485 0
M  V30 8767 C 810.794 4.38494 -0.651002 0
M  V30 8768 H 808.014 0.623535 -0.247882 0
M  V30 8769 H 810.558 1.56885 -1.31176 0
M  V30 8770 H 808.713 3.85819 -0.349681 0
M  V30 8771 H 809.127 4.65619 -2.41452 0
M  V30 8772 H 810.601 5.44648 -0.897887 0
M  V30 8773 H 811.078 4.37236 0.414922 0
M  V30 8774 H 811.684 4.07127 -1.22995 0
M  V30 8775 N 809.999 0.752036 1.385 0
M  V30 8776 C 811.224 0.316993 2.04963 0
M  V30 8777 C 811.649 -1.04582 1.56346 0
M  V30 8778 O 811.007 -1.66616 0.714755 0
M  V30 8779 C 811.055 0.347235 3.58924 0
M  V30 8780 O 810.159 -0.659296 4.07096 0
M  V30 8781 H 809.5 0.140652 0.648932 0
M  V30 8782 H 812.03 1.02272 1.77205 0
M  V30 8783 H 812.04 0.19757 4.07521 0
M  V30 8784 H 810.715 1.34157 3.93668 0
M  V30 8785 H 809.292 -0.474371 3.6987 0
M  V30 8786 N 811.477 -1.49425 0.500989 0
M  V30 8787 C 812.387 -2.32899 -0.282011 0
M  V30 8788 C 813.403 -1.44632 -0.967346 0
M  V30 8789 O 814.579 -1.77654 -0.94873 0
M  V30 8790 C 811.644 -3.20069 -1.33253 0
M  V30 8791 C 810.705 -4.24186 -0.660636 0
M  V30 8792 C 809.938 -5.07191 -1.6611 0
M  V30 8793 O 810.161 -4.91712 -2.89094 0
M  V30 8794 O 809.095 -5.8948 -1.21643 0
M  V30 8795 H 812.921 -3.01038 0.401224 0
M  V30 8796 H 810.506 -1.47079 0.262323 0
M  V30 8797 H 812.388 -3.74071 -1.94033 0
M  V30 8798 H 811.063 -2.54625 -1.9987 0
M  V30 8799 H 809.97 -3.74098 -0.0130959 0
M  V30 8800 H 811.303 -4.92186 -0.0369179 0
M  V30 8801 N 812.955 -0.234822 -1.55841 0
M  V30 8802 C 813.865 0.680828 -2.24504 0
M  V30 8803 C 814.881 1.20306 -1.25708 0
M  V30 8804 O 816.057 1.24188 -1.58554 0
M  V30 8805 C 813.122 1.86636 -2.92178 0
M  V30 8806 C 812.183 1.3848 -4.06352 0
M  V30 8807 C 811.416 2.51382 -4.70789 0
M  V30 8808 O 811.639 3.69831 -4.34259 0
M  V30 8809 O 810.573 2.21828 -5.59532 0
M  V30 8810 H 814.399 0.12583 -3.03439 0
M  V30 8811 H 811.984 -0.00381817 -1.494 0
M  V30 8812 H 813.866 2.55845 -3.34845 0
M  V30 8813 H 812.541 2.40921 -2.16192 0
M  V30 8814 H 811.448 0.660341 -3.68226 0
M  V30 8815 H 812.781 0.888177 -4.8412 0
M  V30 8816 N 814.433 1.57553 0.0384317 0
M  V30 8817 C 815.363 2.0898 1.04161 0
M  V30 8818 C 816.344 0.99029 1.38301 0
M  V30 8819 O 817.529 1.26499 1.47349 0
M  V30 8820 C 814.659 2.56145 2.34536 0
M  V30 8821 C 813.613 3.70275 2.14663 0
M  V30 8822 C 812.939 4.03612 3.50715 0
M  V30 8823 C 814.239 4.99067 1.54045 0
M  V30 8824 H 815.933 2.93046 0.613548 0
M  V30 8825 H 813.479 1.40973 0.293684 0
M  V30 8826 H 815.432 2.90741 3.05037 0
M  V30 8827 H 814.156 1.6915 2.79385 0
M  V30 8828 H 812.815 3.36013 1.46597 0
M  V30 8829 H 812.463 3.13698 3.93195 0
M  V30 8830 H 812.163 4.80482 3.38247 0
M  V30 8831 H 813.687 4.40735 4.22593 0
M  V30 8832 H 815.101 5.3168 2.14451 0
M  V30 8833 H 813.498 5.80484 1.52178 0
M  V30 8834 H 814.568 4.8226 0.505259 0
M  V30 8835 N 815.911 -0.310526 1.54511 0
M  V30 8836 C 816.843 -1.40405 1.8116 0
M  V30 8837 C 817.856 -1.47261 0.694114 0
M  V30 8838 O 819.045 -1.49751 0.971441 0
M  V30 8839 C 816.145 -2.78849 1.92604 0
M  V30 8840 C 815.318 -2.95041 3.22908 0
M  V30 8841 C 814.377 -4.13925 3.24889 0
M  V30 8842 O 813.403 -4.06463 3.98467 0
M  V30 8843 N 814.605 -5.24099 2.496 0
M  V30 8844 H 817.37 -1.17903 2.75534 0
M  V30 8845 H 814.931 -0.500564 1.53967 0
M  V30 8846 H 816.923 -3.5661 1.91342 0
M  V30 8847 H 815.493 -2.94342 1.05268 0
M  V30 8848 H 814.713 -2.04472 3.37023 0
M  V30 8849 H 816.001 -3.02763 4.08916 0
M  V30 8850 H 815.399 -5.33039 1.89435 0
M  V30 8851 H 813.956 -6.0023 2.54102 0
M  V30 8852 N 817.389 -1.46805 -0.573248 0
M  V30 8853 C 818.321 -1.54127 -1.6964 0
M  V30 8854 C 819.334 -0.428778 -1.57052 0
M  V30 8855 O 820.523 -0.697612 -1.64303 0
M  V30 8856 C 817.623 -1.41438 -3.07975 0
M  V30 8857 C 816.796 -2.66974 -3.46474 0
M  V30 8858 C 815.855 -2.48349 -4.63906 0
M  V30 8859 O 814.881 -3.22109 -4.69292 0
M  V30 8860 N 816.083 -1.55129 -5.59388 0
M  V30 8861 H 818.848 -2.50971 -1.6381 0
M  V30 8862 H 816.409 -1.42981 -0.759479 0
M  V30 8863 H 818.401 -1.26737 -3.84343 0
M  V30 8864 H 816.971 -0.527388 -3.08119 0
M  V30 8865 H 816.191 -2.9655 -2.59715 0
M  V30 8866 H 817.479 -3.50347 -3.68964 0
M  V30 8867 H 816.877 -0.94324 -5.57781 0
M  V30 8868 H 815.434 -1.46387 -6.35149 0
M  V30 8869 N 818.867 0.818669 -1.34668 0
M  V30 8870 C 820.144 1.56118 -1.17841 0
M  V30 8871 C 820.524 2.09646 0.24731 0
M  V30 8872 O 819.872 1.91329 1.24922 0
M  V30 8873 C 820.082 2.67922 -2.23649 0
M  V30 8874 C 821.43 3.36579 -2.58843 0
M  V30 8875 O 822.454 2.78182 -2.22471 0
M  V30 8876 O 821.313 4.42045 -3.21339 0
M  V30 8877 H 818.407 0.689216 -0.457067 0
M  V30 8878 H 820.953 0.859674 -1.46314 0
M  V30 8879 H 819.725 2.26153 -3.19328 0
M  V30 8880 H 819.348 3.45719 -1.96377 0
M  V30 8881 N 820.346 1.18468 1.03938 0
M  V30 8882 C 821.593 0.980833 1.77161 0
M  V30 8883 C 821.921 -0.489425 1.88242 0
M  V30 8884 O 821.176 -1.37961 1.388 0
M  V30 8885 C 821.475 1.58229 3.20466 0
M  V30 8886 C 821.141 3.07889 3.29416 0
M  V30 8887 C 819.803 3.48737 3.31566 0
M  V30 8888 C 822.155 4.03903 3.29411 0
M  V30 8889 C 819.483 4.84171 3.31355 0
M  V30 8890 C 821.835 5.39253 3.3074 0
M  V30 8891 C 820.499 5.79547 3.31182 0
M  V30 8892 H 819.769 0.358912 0.648277 0
M  V30 8893 H 822.416 1.47552 1.22069 0
M  V30 8894 H 820.721 1.00964 3.78568 0
M  V30 8895 H 822.418 1.39998 3.75768 0
M  V30 8896 H 819.008 2.75335 3.28464 0
M  V30 8897 H 823.192 3.73395 3.2694 0
M  V30 8898 H 818.448 5.14685 3.30015 0
M  V30 8899 H 822.622 6.13417 3.29686 0
M  V30 8900 H 820.249 6.84466 3.30772 0
M  V30 8901 N 821.824 -1.22873 0.986916 0
M  V30 8902 C 823.07 -1.91746 0.660401 0
M  V30 8903 C 823.403 -1.76738 -0.804812 0
M  V30 8904 O 822.678 -1.13246 -1.58131 0
M  V30 8905 C 822.961 -3.44156 1.05966 0
M  V30 8906 C 822.814 -3.68242 2.58298 0
M  V30 8907 C 824.133 -4.35874 0.60842 0
M  V30 8908 H 821.252 -0.696347 0.241391 0
M  V30 8909 H 823.894 -1.44867 1.22937 0
M  V30 8910 H 822.044 -3.84213 0.575534 0
M  V30 8911 H 823.716 -3.37626 3.14335 0
M  V30 8912 H 821.959 -3.12728 3.00638 0
M  V30 8913 H 822.63 -4.74956 2.81285 0
M  V30 8914 H 825.106 -4.03299 1.02417 0
M  V30 8915 H 823.982 -5.41201 0.916142 0
M  V30 8916 H 824.243 -4.39364 -0.491086 0
M  V30 8917 O 823.341 -0.896491 -1.34333 0
M  V30 8918 H 824.032 -0.506358 -1.86964 0
M  V30 END ATOM
M  V30 BEGIN BOND
M  V30 END BOND
M  V30 END CTAB
M  END
$$$$
