drugbank_target|Q57265 Capsule biosynthesis protein (DB01819; DB02787; DB03499)
 OpenBabel12092120223D

  0  0  0     0  0            999 V3000
M  V30 BEGIN CTAB
M  V30 COUNTS 5370 5417 0 0 0
M  V30 BEGIN ATOM
M  V30 1 H -0.908 1.98254 -0.117106 0
M  V30 2 N 0 1.576 0 0
M  V30 3 C 0.933 2.03868 1.02534 0
M  V30 4 C 1.911 0.928543 1.3348 0
M  V30 5 O 3.095 1.19667 1.45644 0
M  V30 6 C 0.222 2.43627 2.35294 0
M  V30 7 C -0.732 3.65373 2.2001 0
M  V30 8 S 0.101 5.13292 1.52614 0
M  V30 9 C 1.257 5.56322 2.86805 0
M  V30 10 H 1.49 2.90518 0.631377 0
M  V30 11 H -0.977 1.52953 0.210867 0
M  V30 12 H 0.981 2.67203 3.11629 0
M  V30 13 H -0.358 1.57376 2.7183 0
M  V30 14 H -1.165 3.90944 3.18086 0
M  V30 15 H -1.563 3.418 1.51819 0
M  V30 16 H 0.729 5.58782 3.83104 0
M  V30 17 H 1.672 6.56266 2.65933 0
M  V30 18 H 2.08 4.83886 2.90714 0
M  V30 19 N 1.4781 -0.272755 1.55222 0
M  V30 20 C 2.4101 -1.35946 1.8453 0
M  V30 21 C 3.4231 -1.45525 0.729818 0
M  V30 22 O 4.6121 -1.47337 1.00767 0
M  V30 23 C 1.7121 -2.74069 1.99347 0
M  V30 24 C 0.8851 -2.87079 3.30007 0
M  V30 25 C -0.0559 -4.05879 3.34886 0
M  V30 26 O -1.0299 -3.96626 4.08261 0
M  V30 27 N 0.1721 -5.17857 2.62307 0
M  V30 28 H 2.9371 -1.11149 2.78327 0
M  V30 29 H 0.4981 -0.462869 1.55142 0
M  V30 30 H 2.4901 -3.51838 1.99981 0
M  V30 31 H 1.0601 -2.91688 1.12415 0
M  V30 32 H 0.2801 -1.96193 3.41909 0
M  V30 33 H 1.5681 -2.92701 4.16177 0
M  V30 34 H 0.9661 -5.28261 2.02377 0
M  V30 35 H -0.4769 -5.93855 2.68663 0
M  V30 36 N 2.9562 -1.48159 -0.537278 0
M  V30 37 C 3.9042 -1.62573 -1.66352 0
M  V30 38 C 4.8982 -0.492366 -1.62087 0
M  V30 39 O 6.1042 -0.670847 -1.67032 0
M  V30 40 H 2.4792 -0.511992 -0.550789 0
M  V30 41 H 4.4502 -2.57176 -1.51337 0
M  V30 42 C 3.1992 -1.67583 -3.04649 0
M  V30 43 H 2.5222 -2.54151 -3.08622 0
M  V30 44 H 3.9622 -1.81713 -3.83088 0
M  V30 45 C 2.4212 -0.413039 -3.34358 0
M  V30 46 O 2.9512 0.477259 -3.98855 0
M  V30 47 N 1.1572 -0.286961 -2.8918 0
M  V30 48 H 0.7042 -1.01241 -2.36871 0
M  V30 49 H 0.6622 0.556963 -3.09427 0
M  V30 50 N 4.4343 0.785586 -1.36625 0
M  V30 51 C 5.3823 1.91978 -1.31329 0
M  V30 52 C 6.3763 1.68162 -0.204416 0
M  V30 53 O 7.5823 1.76122 -0.371645 0
M  V30 54 H 3.9573 0.631087 -0.408942 0
M  V30 55 H 5.9283 1.93562 -2.27104 0
M  V30 56 C 4.6773 3.29055 -1.12329 0
M  V30 57 H 4.0003 3.4795 -1.96903 0
M  V30 58 H 5.4403 4.08756 -1.12671 0
M  V30 59 C 3.8993 3.36461 0.171861 0
M  V30 60 O 4.4293 3.84576 1.16035 0
M  V30 61 N 2.6353 2.89782 0.217846 0
M  V30 62 H 2.1823 2.50819 -0.587183 0
M  V30 63 H 2.1403 2.95119 1.08408 0
M  V30 64 N 5.9124 1.20967 1.01018 0
M  V30 65 C 6.8604 0.961223 2.1181 0
M  V30 66 C 7.8544 -0.0897034 1.69162 0
M  V30 67 O 9.0604 0.0612271 1.79896 0
M  V30 68 H 5.4354 0.29355 0.692338 0
M  V30 69 H 7.4064 1.90178 2.29946 0
M  V30 70 C 6.1554 0.536854 3.4353 0
M  V30 71 H 5.4784 1.33713 3.76777 0
M  V30 72 H 6.9184 0.402286 4.22087 0
M  V30 73 C 5.3774 -0.751574 3.2841 0
M  V30 74 O 5.9074 -1.80841 3.58691 0
M  V30 75 N 4.1134 -0.716079 2.81639 0
M  V30 76 H 3.6604 0.144236 2.57196 0
M  V30 77 H 3.6184 -1.57847 2.71904 0
M  V30 78 N 7.3905 -1.2043 1.01659 0
M  V30 79 C 8.3005 -2.2689 0.596484 0
M  V30 80 C 9.3165 -1.70107 -0.36599 0
M  V30 81 O 10.4925 -2.00117 -0.226942 0
M  V30 82 C 7.5575 -3.4665 -0.0586659 0
M  V30 83 C 6.6185 -4.18662 0.949751 0
M  V30 84 C 5.8515 -5.32705 0.32577 0
M  V30 85 O 6.0745 -5.63656 -0.874509 0
M  V30 86 O 5.0085 -5.92803 1.04249 0
M  V30 87 H 8.8345 -2.65041 1.4828 0
M  V30 88 H 6.4195 -1.27048 0.786082 0
M  V30 89 H 8.3015 -4.19256 -0.424564 0
M  V30 90 H 6.9765 -3.10375 -0.91918 0
M  V30 91 H 5.8835 -3.48229 1.36702 0
M  V30 92 H 7.2165 -4.58878 1.78023 0
M  V30 93 N 8.8686 -0.792821 -1.36206 0
M  V30 94 C 10.1156 -0.366786 -1.99151 0
M  V30 95 C 10.4436 1.06243 -1.62919 0
M  V30 96 O 9.6986 1.74927 -0.877442 0
M  V30 97 C 9.9976 -0.481501 -3.54142 0
M  V30 98 C 9.6636 -1.87202 -4.10203 0
M  V30 99 C 8.3256 -2.25248 -4.25226 0
M  V30 100 C 10.6776 -2.78237 -4.40719 0
M  V30 101 C 8.0056 -3.53723 -4.68078 0
M  V30 102 C 10.3576 -4.06144 -4.85005 0
M  V30 103 C 9.0216 -4.44207 -4.98234 0
M  V30 104 H 8.2916 -0.134217 -0.728743 0
M  V30 105 H 10.9386 -1.01094 -1.62641 0
M  V30 106 H 9.2436 0.246146 -3.91026 0
M  V30 107 H 10.9406 -0.132844 -4.0078 0
M  V30 108 H 7.5306 -1.56639 -3.98951 0
M  V30 109 H 11.7146 -2.50097 -4.28679 0
M  V30 110 H 6.9706 -3.8308 -4.76508 0
M  V30 111 H 11.1446 -4.76796 -5.07581 0
M  V30 112 H 8.7716 -5.43814 -5.31197 0
M  V30 113 N 10.3467 1.47872 -0.545128 0
M  V30 114 C 11.2937 2.29849 0.2093 0
M  V30 115 C 12.2637 1.38313 0.919707 0
M  V30 116 O 13.4487 1.67277 0.917772 0
M  V30 117 C 10.5887 3.22019 1.24088 0
M  V30 118 C 9.7017 4.2864 0.537778 0
M  V30 119 C 8.8367 5.07973 1.5536 0
M  V30 120 C 7.8757 6.06381 0.8348 0
M  V30 121 N 7.0127 6.78717 1.79688 0
M  V30 122 H 11.8527 2.93845 -0.49591 0
M  V30 123 H 9.3897 1.44848 -0.256389 0
M  V30 124 H 11.3477 3.73868 1.85144 0
M  V30 125 H 9.9777 2.59914 1.91428 0
M  V30 126 H 9.0297 3.7994 -0.187046 0
M  V30 127 H 10.3417 4.98793 -0.0258907 0
M  V30 128 H 9.4957 5.63912 2.23803 0
M  V30 129 H 8.2347 4.37693 2.15118 0
M  V30 130 H 7.2397 5.49631 0.136388 0
M  V30 131 H 8.4647 6.78665 0.24313 0
M  V30 132 H 6.4107 6.11177 2.38326 0
M  V30 133 H 6.3277 7.44998 1.28505 0
M  V30 134 H 7.5957 7.39237 2.47282 0
M  V30 135 N 11.8248 0.280983 1.55075 0
M  V30 136 C 13.0738 -0.334784 1.98902 0
M  V30 137 C 13.3868 -1.56534 1.17288 0
M  V30 138 O 14.5928 -2.25443 1.51287 0
M  V30 139 C 13.0488 -0.646994 3.54037 0
M  V30 140 C 12.6568 0.564085 4.44435 0
M  V30 141 C 14.4008 -1.22506 4.06439 0
M  V30 142 C 12.3078 0.226137 5.90967 0
M  V30 143 H 11.2378 -0.128866 0.742906 0
M  V30 144 H 13.8888 0.386556 1.79382 0
M  V30 145 H 12.2708 -1.42739 3.6938 0
M  V30 146 H 13.4448 1.34082 4.40861 0
M  V30 147 H 11.7598 1.0594 4.02698 0
M  V30 148 H 14.3568 -1.49182 5.13468 0
M  V30 149 H 14.6998 -2.16085 3.55827 0
M  V30 150 H 15.2328 -0.50682 3.94558 0
M  V30 151 H 11.9718 1.12996 6.45687 0
M  V30 152 H 11.4918 -0.513717 5.97596 0
M  V30 153 H 13.1708 -0.179539 6.46751 0
M  V30 154 N 13.3029 -1.57598 0.00835791 0
M  V30 155 C 14.5509 -1.90551 -0.6734 0
M  V30 156 C 14.8719 -0.883301 -1.73847 0
M  V30 157 O 14.1419 0.0781442 -1.95744 0
M  V30 158 H 12.7219 -0.703312 -0.251717 0
M  V30 159 H 15.3839 -1.94833 0.0512592 0
M  V30 160 H 14.4799 -2.9056 -1.13935 0
M  V30 161 N 14.781 0.264519 -1.55364 0
M  V30 162 C 15.729 1.34702 -1.89626 0
M  V30 163 C 16.723 1.50712 -0.773459 0
M  V30 164 O 17.929 1.52395 -0.957897 0
M  V30 165 H 14.304 0.450682 -0.601988 0
M  V30 166 H 16.275 1.0306 -2.80038 0
M  V30 167 C 15.024 2.6989 -2.19214 0
M  V30 168 H 14.347 2.58365 -3.05103 0
M  V30 169 H 15.787 3.44553 -2.47102 0
M  V30 170 C 14.246 3.21637 -1.00254 0
M  V30 171 O 14.776 4.00973 -0.241501 0
M  V30 172 N 12.982 2.7943 -0.797938 0
M  V30 173 H 12.529 2.15026 -1.4185 0
M  V30 174 H 12.487 3.144 -0.00363422 0
M  V30 175 N 16.2591 1.48442 0.529413 0
M  V30 176 C 17.6751 1.34575 0.858004 0
M  V30 177 C 17.8751 0.3572 1.98309 0
M  V30 178 O 16.9311 -0.221379 2.51528 0
M  V30 179 C 18.2441 2.74617 1.22499 0
M  V30 180 C 19.7921 2.83109 1.33484 0
M  V30 181 C 20.2671 4.23854 1.73526 0
M  V30 182 N 21.7581 4.2653 1.80628 0
M  V30 183 C 22.4931 5.32372 2.12997 0
M  V30 184 N 21.9891 6.48491 2.43786 0
M  V30 185 N 23.7821 5.19766 2.14008 0
M  V30 186 H 15.9331 2.1133 -0.212925 0
M  V30 187 H 18.1961 0.947439 -0.0326199 0
M  V30 188 H 17.9021 3.4852 0.471905 0
M  V30 189 H 17.7761 3.08177 2.17501 0
M  V30 190 H 20.1631 2.09462 2.0787 0
M  V30 191 H 20.2441 2.53168 0.366027 0
M  V30 192 H 19.8881 4.98018 0.997013 0
M  V30 193 H 19.8181 4.5124 2.71459 0
M  V30 194 H 22.3091 3.42772 1.59108 0
M  V30 195 H 22.6221 7.24993 2.67592 0
M  V30 196 H 20.9671 6.51765 2.41304 0
M  V30 197 H 24.1581 4.28066 1.89412 0
M  V30 198 H 24.3311 6.02354 2.38902 0
M  V30 199 N 17.7372 -0.778329 1.37039 0
M  V30 200 C 18.9622 -1.57248 1.35233 0
M  V30 201 C 19.3872 -1.87999 -0.0615568 0
M  V30 202 O 18.7452 -1.48734 -1.03672 0
M  V30 203 C 18.7932 -2.86353 2.19167 0
M  V30 204 O 17.8972 -3.80442 1.59178 0
M  V30 205 H 17.2382 -0.476569 0.462362 0
M  V30 206 H 19.7682 -0.963853 1.80474 0
M  V30 207 H 19.7782 -3.35519 2.32145 0
M  V30 208 H 18.4532 -2.63299 3.21942 0
M  V30 209 H 17.0302 -3.39067 1.55203 0
M  V30 210 N 19.2153 -1.21501 -1.00376 0
M  V30 211 C 20.4613 -1.03452 -1.74429 0
M  V30 212 C 20.7943 0.430764 -1.89362 0
M  V30 213 O 20.0693 1.31962 -1.42886 0
M  V30 214 C 20.3523 -1.73375 -3.15615 0
M  V30 215 C 20.2053 -3.27431 -3.08397 0
M  V30 216 C 21.5243 -1.47732 -4.14564 0
M  V30 217 H 18.6433 -0.377226 -0.633143 0
M  V30 218 H 21.2853 -1.49693 -1.17013 0
M  V30 219 H 19.4353 -1.34064 -3.64636 0
M  V30 220 H 21.1073 -3.76119 -2.67081 0
M  V30 221 H 19.3503 -3.5767 -2.45468 0
M  V30 222 H 20.0213 -3.71524 -4.08258 0
M  V30 223 H 22.4973 -1.8186 -3.74254 0
M  V30 224 H 21.3733 -1.99169 -5.11491 0
M  V30 225 H 21.6343 -0.407589 -4.40217 0
M  V30 226 N 20.6934 1.19889 -1.02296 0
M  V30 227 C 21.9414 1.89046 -0.714558 0
M  V30 228 C 22.2624 1.79636 0.758681 0
M  V30 229 O 21.5324 1.20292 1.54618 0
M  V30 230 H 20.1124 0.699802 -0.261317 0
M  V30 231 H 22.7744 1.45574 -1.29592 0
M  V30 232 H 21.8704 2.95524 -1.0036 0
M  V30 233 N 22.1715 0.800033 1.35784 0
M  V30 234 C 23.4015 0.389041 2.02904 0
M  V30 235 C 23.8095 -1.0027 1.60445 0
M  V30 236 O 23.1525 -1.65633 0.794453 0
M  V30 237 C 23.2145 0.385495 3.57427 0
M  V30 238 C 22.8785 1.72662 4.23127 0
M  V30 239 C 23.8755 2.68385 4.4527 0
M  V30 240 C 21.5605 2.00883 4.60381 0
M  V30 241 C 23.5545 3.90517 5.03761 0
M  V30 242 C 21.2415 3.2328 5.18588 0
M  V30 243 C 22.2395 4.17915 5.40218 0
M  V30 244 O 21.9275 5.38153 5.97199 0
M  V30 245 H 21.6595 0.157032 0.657508 0
M  V30 246 H 24.2135 1.08311 1.74522 0
M  V30 247 H 22.4435 -0.365128 3.84972 0
M  V30 248 H 24.1325 -0.00228296 4.059 0
M  V30 249 H 24.8985 2.47872 4.16874 0
M  V30 250 H 20.7775 1.28037 4.42863 0
M  V30 251 H 24.3215 4.64395 5.2056 0
M  V30 252 H 20.2185 3.43667 5.4641 0
M  V30 253 H 20.9865 5.3936 6.15656 0
M  V30 254 N 23.6496 -1.47581 0.552962 0
M  V30 255 C 24.5976 -2.31648 -0.21023 0
M  V30 256 C 25.5916 -1.42663 -0.913432 0
M  V30 257 O 26.7976 -1.5945 -0.835201 0
M  V30 258 H 23.1726 -0.746989 -0.0866676 0
M  V30 259 H 25.1436 -2.93869 0.518051 0
M  V30 260 C 23.8926 -3.25226 -1.22976 0
M  V30 261 H 23.2156 -3.93658 -0.698077 0
M  V30 262 H 24.6556 -3.86889 -1.73473 0
M  V30 263 C 23.1146 -2.48448 -2.27542 0
M  V30 264 O 23.6446 -2.22585 -3.34393 0
M  V30 265 N 21.8506 -2.09532 -2.01357 0
M  V30 266 H 21.3976 -2.30765 -1.14478 0
M  V30 267 H 21.3556 -1.58476 -2.71538 0
M  V30 268 N 25.1277 -0.289203 -1.54924 0
M  V30 269 C 26.0777 0.606939 -2.19773 0
M  V30 270 C 27.0617 1.10783 -1.16687 0
M  V30 271 O 28.2537 1.05057 -1.4245 0
M  V30 272 C 25.3827 1.78398 -2.93307 0
M  V30 273 C 24.4687 1.29961 -4.03697 0
M  V30 274 N 24.8597 0.532377 -5.0299 0
M  V30 275 C 23.1577 1.58136 -4.17024 0
M  V30 276 C 23.8587 0.275912 -5.81045 0
M  V30 277 N 22.8347 0.852365 -5.36876 0
M  V30 278 H 26.6367 0.0130779 -2.93897 0
M  V30 279 H 24.1507 -0.09341 -1.62131 0
M  V30 280 H 26.1477 2.43741 -3.38225 0
M  V30 281 H 24.8077 2.38166 -2.20697 0
M  V30 282 H 25.8187 0.17838 -5.17593 0
M  V30 283 H 22.4957 2.18738 -3.55612 0
M  V30 284 H 23.8857 -0.339502 -6.71042 0
M  V30 285 N 26.6058 1.57591 -0.0167156 0
M  V30 286 C 27.5158 2.1291 0.98521 0
M  V30 287 C 28.5318 1.07834 1.36557 0
M  V30 288 O 29.7078 1.39826 1.44951 0
M  V30 289 C 26.7728 2.63512 2.25305 0
M  V30 290 C 25.8338 3.83256 1.93426 0
M  V30 291 C 25.0668 4.31435 3.14165 0
M  V30 292 O 25.2898 3.78851 4.26413 0
M  V30 293 O 24.2238 5.23416 2.97186 0
M  V30 294 H 28.0498 2.98772 0.544888 0
M  V30 295 H 25.6348 1.48012 0.203141 0
M  V30 296 H 27.5168 2.96183 2.99756 0
M  V30 297 H 26.1918 1.8074 2.68542 0
M  V30 298 H 25.0988 3.55531 1.16398 0
M  V30 299 H 26.4318 4.67153 1.55013 0
M  V30 300 N 28.0839 -0.256276 1.55502 0
M  V30 301 C 29.4949 -0.826068 1.67431 0
M  V30 302 C 29.8459 -1.86396 0.612446 0
M  V30 303 O 28.9709 -2.15031 -0.243025 0
M  V30 304 C 29.5659 -1.50512 3.03532 0
M  V30 305 C 28.1249 -2.02273 3.17431 0
M  V30 306 C 27.2719 -0.870548 2.63281 0
M  V30 307 H 30.2229 -0.0322728 1.58667 0
M  V30 308 H 30.2439 -2.37279 2.97454 0
M  V30 309 H 29.7559 -0.749484 3.80794 0
M  V30 310 H 27.8569 -2.80746 2.44974 0
M  V30 311 H 27.9699 -2.22655 4.24219 0
M  V30 312 H 26.3339 -1.26851 2.20864 0
M  V30 313 H 27.1169 -0.128149 3.43061 0
M  V30 314 N 29.562 -1.4872 -0.521534 0
M  V30 315 C 30.492 -1.66771 -1.63431 0
M  V30 316 C 31.473 -0.516499 -1.62069 0
M  V30 317 O 32.658 -0.750013 -1.79132 0
M  V30 318 C 29.788 -1.71515 -3.01993 0
M  V30 319 C 28.742 -2.86222 -3.18216 0
M  V30 320 C 28.068 -2.76061 -4.57924 0
M  V30 321 C 29.368 -4.27419 -3.00184 0
M  V30 322 H 31.062 -2.59932 -1.48579 0
M  V30 323 H 28.608 -1.25089 -0.713358 0
M  V30 324 H 30.561 -1.82731 -3.7972 0
M  V30 325 H 29.285 -0.749393 -3.17886 0
M  V30 326 H 27.944 -2.74575 -2.42908 0
M  V30 327 H 27.592 -1.77437 -4.70665 0
M  V30 328 H 27.292 -3.53037 -4.69722 0
M  V30 329 H 28.816 -2.89256 -5.37739 0
M  V30 330 H 30.23 -4.39855 -3.67697 0
M  V30 331 H 28.627 -5.05458 -3.2347 0
M  V30 332 H 29.697 -4.43293 -1.96518 0
M  V30 333 N 31.0401 0.771051 -1.3745 0
M  V30 334 C 32.2891 1.52491 -1.3202 0
M  V30 335 C 32.6021 1.9538 0.0927347 0
M  V30 336 O 33.8081 2.70159 0.269503 0
M  V30 337 C 32.2641 2.75366 -2.31736 0
M  V30 338 C 31.8721 2.39573 -3.78562 0
M  V30 339 C 33.6161 3.53307 -2.35318 0
M  V30 340 C 31.5231 3.58954 -4.70007 0
M  V30 341 H 30.4531 0.572506 -0.490666 0
M  V30 342 H 33.1041 0.844474 -1.62914 0
M  V30 343 H 31.4861 3.45303 -1.93861 0
M  V30 344 H 32.6601 1.77415 -4.25277 0
M  V30 345 H 30.9751 1.74805 -3.77932 0
M  V30 346 H 33.5721 4.42039 -3.00842 0
M  V30 347 H 33.9151 3.93217 -1.36698 0
M  V30 348 H 34.4481 2.90367 -2.71904 0
M  V30 349 H 31.1871 3.24125 -5.69757 0
M  V30 350 H 30.7071 4.20214 -4.27996 0
M  V30 351 H 32.3861 4.25758 -4.87175 0
M  V30 352 N 32.5182 1.22032 0.997298 0
M  V30 353 C 33.7672 1.03637 1.73038 0
M  V30 354 C 34.0802 -0.429475 1.90827 0
M  V30 355 O 35.2862 -0.732995 2.61418 0
M  V30 356 C 33.7422 1.80582 3.11317 0
M  V30 357 C 33.3502 3.31387 3.01474 0
M  V30 358 C 35.0942 1.70621 3.88701 0
M  V30 359 C 33.0012 4.00791 4.3488 0
M  V30 360 H 31.9312 0.384179 0.648785 0
M  V30 361 H 34.5822 1.4584 1.11368 0
M  V30 362 H 32.9642 1.31175 3.73643 0
M  V30 363 H 34.1382 3.88155 2.4834 0
M  V30 364 H 32.4532 3.41976 2.37575 0
M  V30 365 H 35.0502 2.19799 4.87434 0
M  V30 366 H 35.3932 0.665823 4.10941 0
M  V30 367 H 35.9262 2.17547 3.33044 0
M  V30 368 H 32.6652 5.05064 4.1784 0
M  V30 369 H 32.1852 3.48811 4.87945 0
M  V30 370 H 33.8642 4.06139 5.03647 0
M  V30 371 N 33.9963 -1.19345 1.0293 0
M  V30 372 C 35.2363 -1.90738 0.734727 0
M  V30 373 C 35.6003 -1.7785 -0.723414 0
M  V30 374 O 36.8013 -2.43844 -1.13108 0
M  V30 375 C 35.0723 -3.37569 1.17396 0
M  V30 376 S 36.6313 -4.27176 1.00329 0
M  V30 377 H 33.4493 -0.658771 0.267474 0
M  V30 378 H 36.0513 -1.4428 1.31922 0
M  V30 379 H 34.7553 -3.44475 2.23081 0
M  V30 380 H 34.2863 -3.8906 0.582772 0
M  V30 381 H 36.3013 -4.96126 -0.0859152 0
M  V30 382 N 35.4744 -0.807222 -1.35358 0
M  V30 383 C 36.3844 -0.219594 -2.3357 0
M  V30 384 C 37.4004 0.637734 -1.61892 0
M  V30 385 O 38.5764 0.549336 -1.93763 0
M  V30 386 C 35.6414 0.62158 -3.41083 0
M  V30 387 C 34.7024 -0.256315 -4.28534 0
M  V30 388 C 33.9354 0.544807 -5.30912 0
M  V30 389 O 34.1584 1.77944 -5.41934 0
M  V30 390 O 33.0924 -0.0646478 -6.01865 0
M  V30 391 H 36.9184 -1.03208 -2.85625 0
M  V30 392 H 34.5034 -0.569025 -1.38139 0
M  V30 393 H 36.3854 1.10067 -4.06772 0
M  V30 394 H 35.0604 1.41165 -2.91297 0
M  V30 395 H 33.9674 -0.782559 -3.65823 0
M  V30 396 H 35.3004 -1.01034 -4.81719 0
M  V30 397 N 36.9525 1.47285 -0.560781 0
M  V30 398 C 38.2015 2.01668 -0.035895 0
M  V30 399 C 38.5145 1.44021 1.32353 0
M  V30 400 O 39.7205 1.90088 1.93853 0
M  V30 401 C 38.1765 3.59897 -0.0136659 0
M  V30 402 C 37.7845 4.26536 -1.37006 0
M  V30 403 C 39.5285 4.22017 0.458425 0
M  V30 404 C 37.4355 5.76782 -1.30675 0
M  V30 405 H 36.3655 0.753938 -0.00964879 0
M  V30 406 H 39.0165 1.69243 -0.709166 0
M  V30 407 H 37.3985 3.89301 0.725325 0
M  V30 408 H 38.5725 4.0877 -2.12705 0
M  V30 409 H 36.8875 3.76419 -1.78038 0
M  V30 410 H 39.4845 5.32124 0.524247 0
M  V30 411 H 39.8275 3.89437 1.4712 0
M  V30 412 H 40.3605 3.97159 -0.225818 0
M  V30 413 H 37.0995 6.13988 -2.29564 0
M  V30 414 H 36.6195 5.96875 -0.591622 0
M  V30 415 H 38.2985 6.39063 -1.01033 0
M  V30 416 N 38.4306 0.297415 1.54768 0
M  V30 417 C 39.6786 -0.312295 1.99673 0
M  V30 418 C 39.9996 -1.54686 1.18732 0
M  V30 419 O 39.2696 -1.93854 0.282382 0
M  V30 420 H 37.8496 -0.118381 0.73756 0
M  V30 421 H 40.5116 0.407915 1.90583 0
M  V30 422 H 39.6076 -0.586813 3.06534 0
M  V30 423 N 39.9087 -1.5758 0.0250728 0
M  V30 424 C 41.1577 -1.90811 -0.653767 0
M  V30 425 C 41.4707 -0.90273 -1.73523 0
M  V30 426 O 42.6767 -1.12614 -2.47043 0
M  V30 427 C 41.1327 -3.38804 -1.21409 0
M  V30 428 C 40.7407 -4.47692 -0.166126 0
M  V30 429 C 42.4847 -3.81108 -1.86967 0
M  V30 430 C 40.3917 -5.86779 -0.737856 0
M  V30 431 H 39.3217 -0.712063 -0.247956 0
M  V30 432 H 41.9727 -1.83281 0.0897137 0
M  V30 433 H 40.3547 -3.41252 -2.00905 0
M  V30 434 H 41.5287 -4.56797 0.606079 0
M  V30 435 H 39.8437 -4.14565 0.390466 0
M  V30 436 H 42.4407 -4.82375 -2.30692 0
M  V30 437 H 42.7837 -3.15953 -2.71071 0
M  V30 438 H 43.3167 -3.81065 -1.14167 0
M  V30 439 H 40.0557 -6.55468 0.0649577 0
M  V30 440 H 39.5757 -5.81288 -1.47864 0
M  V30 441 H 41.2547 -6.35223 -1.22884 0
M  V30 442 N 41.3868 0.248026 -1.55636 0
M  V30 443 C 42.3348 1.32683 -1.91045 0
M  V30 444 C 43.3288 1.49883 -0.789401 0
M  V30 445 O 44.5348 1.51371 -0.974007 0
M  V30 446 H 40.9098 0.444272 -0.606734 0
M  V30 447 H 42.8808 1.00085 -2.81115 0
M  V30 448 C 41.6298 2.6755 -2.22064 0
M  V30 449 H 40.9528 2.55114 -3.07826 0
M  V30 450 H 42.3928 3.41912 -2.50743 0
M  V30 451 C 40.8518 3.20556 -1.0366 0
M  V30 452 O 41.3818 4.00695 -0.284016 0
M  V30 453 N 39.5878 2.78568 -0.82753 0
M  V30 454 H 39.1348 2.1351 -1.44123 0
M  V30 455 H 39.0928 3.14378 -0.0369803 0
M  V30 456 N 42.8649 1.48995 0.513639 0
M  V30 457 C 43.8149 1.61127 1.61314 0
M  V30 458 C 44.7989 0.467521 1.53958 0
M  V30 459 O 45.9909 0.719826 1.61702 0
M  V30 460 C 43.1199 1.66937 2.99978 0
M  V30 461 C 42.2059 2.86847 3.12377 0
M  V30 462 N 42.5969 4.11078 2.94701 0
M  V30 463 C 40.8949 2.84521 3.43459 0
M  V30 464 C 41.5959 4.91615 3.10949 0
M  V30 465 N 40.5719 4.24739 3.3926 0
M  V30 466 H 44.3739 2.54909 1.46282 0
M  V30 467 H 41.8879 1.45593 0.719483 0
M  V30 468 H 43.8849 1.73725 3.78979 0
M  V30 469 H 42.5449 0.742831 3.16089 0
M  V30 470 H 43.5559 4.41258 2.71131 0
M  V30 471 H 40.2329 2.01192 3.65825 0
M  V30 472 H 41.6229 6.00264 3.01882 0
M  V30 473 N 44.343 -0.763751 1.37857 0
M  V30 474 C 45.253 -1.90817 1.36478 0
M  V30 475 C 46.269 -1.71997 0.263248 0
M  V30 476 O 47.445 -1.95095 0.499979 0
M  V30 477 C 44.51 -3.2605 1.17864 0
M  V30 478 C 43.571 -3.57467 2.3773 0
M  V30 479 C 42.804 -4.86249 2.19995 0
M  V30 480 O 43.027 -5.57884 1.18836 0
M  V30 481 O 41.961 -5.16911 3.08361 0
M  V30 482 H 45.787 -1.94933 2.32884 0
M  V30 483 H 43.372 -0.907619 1.1867 0
M  V30 484 H 45.254 -4.06924 1.09504 0
M  V30 485 H 43.929 -3.22769 0.245372 0
M  V30 486 H 42.836 -2.76796 2.51664 0
M  V30 487 H 44.169 -3.655 3.29652 0
M  V30 488 N 45.8211 -1.22559 -0.990812 0
M  V30 489 C 47.0691 -1.04933 -1.72724 0
M  V30 490 C 47.3901 0.416158 -1.90508 0
M  V30 491 O 46.6601 1.29918 -1.46622 0
M  V30 492 H 45.2401 -0.385296 -0.639965 0
M  V30 493 H 47.9021 -1.54105 -1.19322 0
M  V30 494 H 46.9981 -1.52886 -2.72089 0
M  V30 495 N 47.2992 1.18797 -1.03562 0
M  V30 496 C 48.5242 1.9314 -0.755764 0
M  V30 497 C 48.9492 1.7537 0.68022 0
M  V30 498 O 48.3072 1.06046 1.47051 0
M  V30 499 C 48.3552 3.42747 -1.12058 0
M  V30 500 O 47.4592 4.11683 -0.243124 0
M  V30 501 H 46.8002 0.602724 -0.278604 0
M  V30 502 H 49.3302 1.50678 -1.3841 0
M  V30 503 H 49.3402 3.93437 -1.08035 0
M  V30 504 H 48.0152 3.55002 -2.16672 0
M  V30 505 H 46.5922 3.71323 -0.342539 0
M  V30 506 N 48.7773 0.814389 1.34928 0
M  V30 507 C 49.7073 0.244827 2.32213 0
M  V30 508 C 50.6883 -0.634024 1.57842 0
M  V30 509 O 51.8733 -0.562676 1.8587 0
M  V30 510 C 49.0033 -0.601106 3.42058 0
M  V30 511 C 47.9573 0.179896 4.27622 0
M  V30 512 C 47.2833 -0.788237 5.28858 0
M  V30 513 C 48.5833 1.38329 5.03649 0
M  V30 514 H 50.2773 1.05763 2.80097 0
M  V30 515 H 47.8233 0.510029 1.34665 0
M  V30 516 H 49.7763 -1.00968 4.09125 0
M  V30 517 H 48.5003 -1.44688 2.92802 0
M  V30 518 H 47.1593 0.569739 3.62146 0
M  V30 519 H 46.8073 -1.62973 4.75866 0
M  V30 520 H 46.5073 -0.269942 5.8698 0
M  V30 521 H 48.0313 -1.19485 5.98795 0
M  V30 522 H 49.4453 1.04918 5.63618 0
M  V30 523 H 47.8423 1.83662 5.71304 0
M  V30 524 H 48.9123 2.16592 4.33839 0
M  V30 525 N 50.2554 -1.46986 0.568584 0
M  V30 526 C 51.2024 -2.30153 -0.172707 0
M  V30 527 C 52.1724 -1.39759 -0.897586 0
M  V30 528 O 53.3574 -1.68716 -0.891044 0
M  V30 529 C 50.4974 -3.23952 -1.1895 0
M  V30 530 C 49.6104 -4.29441 -0.469517 0
M  V30 531 C 48.7454 -5.1038 -1.47259 0
M  V30 532 C 47.7844 -6.07632 -0.738225 0
M  V30 533 N 46.9214 -6.8149 -1.68868 0
M  V30 534 H 51.7614 -2.93019 0.542596 0
M  V30 535 H 49.2984 -1.44422 0.279401 0
M  V30 536 H 51.2564 -3.76767 -1.79173 0
M  V30 537 H 49.8864 -2.62926 -1.87269 0
M  V30 538 H 48.9384 -3.79594 0.247467 0
M  V30 539 H 50.2504 -4.98689 0.105241 0
M  V30 540 H 49.4044 -5.67402 -2.14803 0
M  V30 541 H 48.1434 -4.4106 -2.08128 0
M  V30 542 H 47.1484 -5.49778 -0.0489293 0
M  V30 543 H 48.3734 -6.78966 -0.135129 0
M  V30 544 H 46.3194 -6.14891 -2.28573 0
M  V30 545 H 46.2364 -7.46948 -1.16636 0
M  V30 546 H 47.5044 -7.43078 -2.3549 0
M  V30 547 N 51.7335 -0.305618 -1.54608 0
M  V30 548 C 52.9615 0.304775 -2.04643 0
M  V30 549 C 53.3765 1.47167 -1.18268 0
M  V30 550 O 52.7335 1.81296 -0.209328 0
M  V30 551 C 52.7845 0.756564 -3.53495 0
M  V30 552 O 52.5055 -0.36389 -4.36586 0
M  V30 553 C 54.0065 1.43163 -4.19546 0
M  V30 554 H 51.2265 0.0655481 -0.667791 0
M  V30 555 H 53.7705 -0.446592 -1.99564 0
M  V30 556 H 51.9255 1.45794 -3.58919 0
M  V30 557 H 52.3395 -0.0113121 -5.24499 0
M  V30 558 H 53.8135 1.69886 -5.25207 0
M  V30 559 H 54.2905 2.37318 -3.69563 0
M  V30 560 H 54.8965 0.773307 -4.18211 0
M  V30 561 N 53.2116 1.57565 -0.0334293 0
M  V30 562 C 54.1746 2.09393 0.932048 0
M  V30 563 C 55.1746 1.00986 1.25134 0
M  V30 564 O 56.3646 1.27129 1.19096 0
M  V30 565 C 53.4966 2.56338 2.2473 0
M  V30 566 H 54.6896 2.95984 0.483085 0
M  V30 567 H 52.2426 1.54819 0.21468 0
M  V30 568 H 52.9776 1.7309 2.74245 0
M  V30 569 H 52.7626 3.35542 2.02865 0
M  V30 570 H 54.2526 2.96646 2.93923 0
M  V30 571 N 54.6897 -0.239769 1.55765 0
M  V30 572 C 55.9367 -0.966801 1.7793 0
M  V30 573 C 56.2647 -1.85046 0.599015 0
M  V30 574 O 55.5197 -1.91197 -0.417395 0
M  V30 575 C 55.8187 -1.852 3.05672 0
M  V30 576 C 55.4847 -1.1231 4.36689 0
M  V30 577 C 54.1467 -0.921689 4.72291 0
M  V30 578 C 56.4987 -0.607019 5.17653 0
M  V30 579 C 53.8267 -0.191996 5.86386 0
M  V30 580 C 56.1787 0.109241 6.32506 0
M  V30 581 C 54.8427 0.322073 6.66723 0
M  V30 582 H 54.1127 -0.353778 0.651093 0
M  V30 583 H 56.7597 -0.23634 1.90036 0
M  V30 584 H 55.0647 -2.64975 2.8861 0
M  V30 585 H 56.7617 -2.41635 3.20021 0
M  V30 586 H 53.3517 -1.29004 4.08725 0
M  V30 587 H 57.5357 -0.750153 4.90598 0
M  V30 588 H 52.7917 -0.0166949 6.11398 0
M  V30 589 H 56.9657 0.516737 6.9448 0
M  V30 590 H 54.5927 0.88944 7.54979 0
M  V30 591 N 56.1678 -1.49265 -0.50573 0
M  V30 592 C 57.0778 -1.68312 -1.63427 0
M  V30 593 C 58.0938 -0.565682 -1.64548 0
M  V30 594 O 59.2698 -0.839801 -1.83055 0
M  V30 595 C 56.3348 -1.74107 -2.99813 0
M  V30 596 C 55.3958 -2.97653 -3.09356 0
M  V30 597 C 54.6288 -3.03163 -4.39236 0
M  V30 598 O 54.8518 -2.16396 -5.27758 0
M  V30 599 O 53.7858 -3.9558 -4.53652 0
M  V30 600 H 57.6118 -2.63907 -1.50289 0
M  V30 601 H 55.1968 -1.32951 -0.681502 0
M  V30 602 H 57.0788 -1.803 -3.80881 0
M  V30 603 H 55.7538 -0.816901 -3.13223 0
M  V30 604 H 54.6608 -2.96981 -2.27493 0
M  V30 605 H 55.9938 -3.89535 -3.00871 0
M  V30 606 N 57.6459 0.756429 -1.3826 0
M  V30 607 C 58.5789 1.87802 -1.29637 0
M  V30 608 C 59.5569 1.61667 -0.173939 0
M  V30 609 O 60.7409 1.85208 -0.350775 0
M  V30 610 C 57.8679 3.23354 -1.00797 0
M  V30 611 C 56.9139 3.68379 -2.14939 0
M  V30 612 S 57.7469 3.8025 -3.77054 0
M  V30 613 C 58.9029 5.18626 -3.50396 0
M  V30 614 H 59.1359 1.94829 -2.24564 0
M  V30 615 H 56.6689 0.919117 -1.24063 0
M  V30 616 H 58.6269 4.01637 -0.848413 0
M  V30 617 H 57.2879 3.14008 -0.0759369 0
M  V30 618 H 56.4809 4.66693 -1.90299 0
M  V30 619 H 56.0829 2.97242 -2.26988 0
M  V30 620 H 58.3749 6.04289 -3.06334 0
M  V30 621 H 59.3179 5.48286 -4.48094 0
M  V30 622 H 59.7259 4.87289 -2.84973 0
M  V30 623 N 59.124 1.23083 0.984299 0
M  V30 624 C 60.37 1.06214 1.72761 0
M  V30 625 C 60.703 -0.400584 1.90024 0
M  V30 626 O 59.978 -1.29672 1.44967 0
M  V30 627 C 60.261 1.78375 3.12817 0
M  V30 628 C 60.114 3.32296 3.03149 0
M  V30 629 C 61.433 1.54309 4.12161 0
M  V30 630 H 58.552 0.387251 0.627061 0
M  V30 631 H 61.194 1.51536 1.14616 0
M  V30 632 H 59.344 1.39848 3.62457 0
M  V30 633 H 61.016 3.8032 2.61064 0
M  V30 634 H 59.259 3.6153 2.39747 0
M  V30 635 H 59.93 3.77972 4.02295 0
M  V30 636 H 62.406 1.87791 3.71314 0
M  V30 637 H 61.282 2.07281 5.08258 0
M  V30 638 H 61.543 0.477572 4.39513 0
M  V30 639 N 60.6021 -1.18246 1.0419 0
M  V30 640 C 61.8791 -1.84121 0.660208 0
M  V30 641 C 62.2591 -1.92778 -0.860221 0
M  V30 642 O 61.6071 -1.45464 -1.76217 0
M  V30 643 C 61.8171 -3.22355 1.33747 0
M  V30 644 C 63.1651 -3.98376 1.46906 0
M  V30 645 O 64.1891 -3.31799 1.29568 0
M  V30 646 O 63.0481 -5.17665 1.75171 0
M  V30 647 H 60.1421 -0.794036 0.231161 0
M  V30 648 H 62.6881 -1.25628 1.14087 0
M  V30 649 H 61.4601 -3.10964 2.37522 0
M  V30 650 H 61.0831 -3.88506 0.845515 0
M  V30 651 N 62.0802 -0.821533 -1.34494 0
M  V30 652 C 63.0432 -0.247847 -2.27856 0
M  V30 653 C 64.0432 0.573453 -1.50227 0
M  V30 654 O 65.2332 0.389759 -1.69784 0
M  V30 655 C 62.3652 0.652698 -3.34593 0
M  V30 656 H 63.5582 -1.07146 -2.80107 0
M  V30 657 H 61.1112 -0.593291 -1.44602 0
M  V30 658 H 61.8462 1.49943 -2.87555 0
M  V30 659 H 61.6312 0.065292 -3.92046 0
M  V30 660 H 63.1212 1.04793 -4.04238 0
M  V30 661 N 63.5583 1.46682 -0.576371 0
M  V30 662 C 64.5213 2.28707 0.150239 0
M  V30 663 C 65.5213 1.38035 0.824794 0
M  V30 664 O 66.7113 1.60476 0.677719 0
M  V30 665 C 63.8433 3.18248 1.22192 0
M  V30 666 H 65.0363 2.94423 -0.570521 0
M  V30 667 H 62.5893 1.52688 -0.334078 0
M  V30 668 H 63.3243 2.57265 1.97447 0
M  V30 669 H 63.1093 3.85 0.742812 0
M  V30 670 H 64.5993 3.80001 1.73172 0
M  V30 671 N 65.0364 0.313813 1.54444 0
M  V30 672 C 66.2664 -0.293491 2.04505 0
M  V30 673 C 66.6744 -1.47086 1.19005 0
M  V30 674 O 66.0174 -1.82481 0.211257 0
M  V30 675 C 66.0794 -0.800455 3.50475 0
M  V30 676 C 65.7434 0.253322 4.56297 0
M  V30 677 C 66.7404 1.08612 5.08428 0
M  V30 678 C 64.4254 0.398708 5.00715 0
M  V30 679 C 66.4194 2.05013 6.0353 0
M  V30 680 C 64.1064 1.36614 5.95634 0
M  V30 681 C 65.1044 2.19033 6.46926 0
M  V30 682 O 64.7924 3.14134 7.39983 0
M  V30 683 H 64.5244 -0.0658325 0.672787 0
M  V30 684 H 67.0784 0.455177 2.00293 0
M  V30 685 H 65.3084 -1.59987 3.52053 0
M  V30 686 H 66.9974 -1.32504 3.83663 0
M  V30 687 H 67.7634 0.984736 4.74898 0
M  V30 688 H 63.6424 -0.23289 4.60411 0
M  V30 689 H 67.1864 2.69382 6.4349 0
M  V30 690 H 63.0834 1.4682 6.28581 0
M  V30 691 H 63.8514 3.0926 7.57826 0
M  V30 692 N 66.5145 -1.57545 0.0417849 0
M  V30 693 C 67.4625 -2.12148 -0.953723 0
M  V30 694 C 68.4565 -1.05104 -1.32852 0
M  V30 695 O 69.6625 -1.23524 -1.30927 0
M  V30 696 H 66.0375 -0.677957 -0.325389 0
M  V30 697 H 68.0085 -2.94707 -0.467991 0
M  V30 698 C 66.7575 -2.6739 -2.22257 0
M  V30 699 H 66.0805 -3.49413 -1.94295 0
M  V30 700 H 67.5205 -3.09227 -2.90094 0
M  V30 701 C 65.9795 -1.60723 -2.96091 0
M  V30 702 O 66.5095 -1.01449 -3.88679 0
M  V30 703 N 64.7155 -1.32466 -2.58652 0
M  V30 704 H 64.2625 -1.80856 -1.83437 0
M  V30 705 H 64.2205 -0.61325 -3.08361 0
M  V30 706 N 67.9926 0.231505 -1.5589 0
M  V30 707 C 68.9556 1.27028 -1.90779 0
M  V30 708 C 69.9556 1.40308 -0.785507 0
M  V30 709 O 71.1456 1.38744 -1.05336 0
M  V30 710 C 68.2776 2.64566 -2.14983 0
M  V30 711 H 69.4706 0.973017 -2.83677 0
M  V30 712 H 67.0236 0.471486 -1.49019 0
M  V30 713 H 67.7586 2.99406 -1.24604 0
M  V30 714 H 67.5436 2.56305 -2.96732 0
M  V30 715 H 69.0336 3.39543 -2.43105 0
M  V30 716 N 69.4707 1.49531 0.497807 0
M  V30 717 C 70.7187 1.58865 1.24926 0
M  V30 718 C 71.0397 0.278721 1.92998 0
M  V30 719 O 70.3097 -0.702144 1.82885 0
M  V30 720 H 68.8897 0.585343 0.464094 0
M  V30 721 H 71.5517 1.86174 0.57666 0
M  V30 722 H 70.6477 2.38633 2.01149 0
M  V30 723 N 70.9488 -0.749086 1.3866 0
M  V30 724 C 71.9118 -1.84457 1.36045 0
M  V30 725 C 72.9118 -1.58682 0.260122 0
M  V30 726 O 74.1018 -1.66343 0.517261 0
M  V30 727 C 71.2338 -3.22008 1.11911 0
M  V30 728 H 72.4268 -1.88182 2.33512 0
M  V30 729 H 69.9798 -0.951266 1.24019 0
M  V30 730 H 70.7148 -3.2395 0.150686 0
M  V30 731 H 70.4998 -3.42111 1.91579 0
M  V30 732 H 71.9898 -4.0208 1.12788 0
M  V30 733 N 72.4269 -1.23603 -0.977757 0
M  V30 734 C 73.3369 -1.03632 -2.1047 0
M  V30 735 C 74.3529 0.0199435 -1.73989 0
M  V30 736 O 75.5289 -0.176076 -2.00629 0
M  V30 737 C 72.5939 -0.63276 -3.40877 0
M  V30 738 C 71.6549 -1.76437 -3.91367 0
M  V30 739 C 70.8879 -1.37997 -5.15551 0
M  V30 740 O 71.1109 -0.265357 -5.69782 0
M  V30 741 O 70.0449 -2.20201 -5.60174 0
M  V30 742 H 73.8709 -1.98086 -2.30208 0
M  V30 743 H 71.4559 -1.02332 -1.08851 0
M  V30 744 H 73.3379 -0.418761 -4.19314 0
M  V30 745 H 72.0129 0.282754 -3.22463 0
M  V30 746 H 70.9199 -2.03304 -3.14036 0
M  V30 747 H 72.2529 -2.6583 -4.14241 0
M  V30 748 N 73.905 1.17692 -1.04816 0
M  V30 749 C 75.151 1.88137 -0.75711 0
M  V30 750 C 75.484 1.80604 0.713841 0
M  V30 751 O 74.759 1.21146 1.52164 0
M  V30 752 C 75.042 3.38318 -1.2334 0
M  V30 753 C 74.895 3.54622 -2.76701 0
M  V30 754 C 76.214 4.32214 -0.829415 0
M  V30 755 H 73.333 0.683163 -0.27651 0
M  V30 756 H 75.975 1.38424 -1.30149 0
M  V30 757 H 74.125 3.80787 -0.770286 0
M  V30 758 H 75.797 3.21194 -3.31107 0
M  V30 759 H 74.04 2.97026 -3.16161 0
M  V30 760 H 74.711 4.60028 -3.05088 0
M  V30 761 H 77.187 3.97565 -1.22805 0
M  V30 762 H 76.063 5.35838 -1.19033 0
M  V30 763 H 76.324 4.41294 0.266891 0
M  V30 764 N 75.3831 0.828654 1.34056 0
M  V30 765 C 76.6291 0.42008 1.98402 0
M  V30 766 C 76.9621 -1.01564 1.65525 0
M  V30 767 O 76.2371 -1.70834 0.929831 0
M  V30 768 C 76.5201 0.62927 3.54559 0
M  V30 769 C 76.3731 2.11152 3.97159 0
M  V30 770 C 77.6921 0.0688756 4.40046 0
M  V30 771 H 74.8111 0.154104 0.720709 0
M  V30 772 H 77.4531 1.04228 1.5886 0
M  V30 773 H 75.6031 0.0996418 3.88372 0
M  V30 774 H 77.2751 2.70522 3.73651 0
M  V30 775 H 75.5181 2.59985 3.47261 0
M  V30 776 H 76.1891 2.20868 5.05887 0
M  V30 777 H 78.6651 0.521458 4.1282 0
M  V30 778 H 77.5411 0.245006 5.48353 0
M  V30 779 H 77.8021 -1.0266 4.30015 0
M  V30 780 N 76.8612 -1.46375 0.584142 0
M  V30 781 C 77.8082 -2.30323 -0.148286 0
M  V30 782 C 78.7782 -1.40703 -0.882713 0
M  V30 783 O 79.9632 -1.69651 -0.873099 0
M  V30 784 C 77.1032 -3.25196 -1.15507 0
M  V30 785 C 76.2162 -4.29915 -0.423943 0
M  V30 786 C 75.3512 -5.11914 -1.41838 0
M  V30 787 C 74.3902 -6.08381 -0.673736 0
M  V30 788 N 73.5272 -6.83242 -1.6163 0
M  V30 789 H 78.3672 -2.92427 0.573644 0
M  V30 790 H 75.9042 -1.44118 0.294703 0
M  V30 791 H 77.8622 -3.78646 -1.75166 0
M  V30 792 H 76.4922 -2.64898 -1.8447 0
M  V30 793 H 75.5442 -3.7931 0.287714 0
M  V30 794 H 76.8562 -4.98549 0.158128 0
M  V30 795 H 76.0102 -5.69648 -2.08773 0
M  V30 796 H 74.7492 -4.43243 -2.03438 0
M  V30 797 H 73.7542 -5.49799 0.00938483 0
M  V30 798 H 74.9792 -6.79071 -0.0631082 0
M  V30 799 H 72.9252 -6.1728 -2.22038 0
M  V30 800 H 72.8422 -7.48144 -1.08707 0
M  V30 801 H 74.1102 -7.45534 -2.27596 0
M  V30 802 N 78.3393 -0.321999 -1.54275 0
M  V30 803 C 79.2893 0.560185 -2.21011 0
M  V30 804 C 80.2733 1.08283 -1.19011 0
M  V30 805 O 81.4653 1.02011 -1.44647 0
M  V30 806 C 78.5943 1.72137 -2.97025 0
M  V30 807 C 77.6803 1.21369 -4.06363 0
M  V30 808 N 78.0713 0.425566 -5.04007 0
M  V30 809 C 76.3693 1.49255 -4.20284 0
M  V30 810 C 77.0703 0.152601 -5.815 0
M  V30 811 N 76.0463 0.738294 -5.38563 0
M  V30 812 H 79.8483 -0.049265 -2.93859 0
M  V30 813 H 77.3623 -0.127779 -1.61897 0
M  V30 814 H 79.3593 2.36512 -3.43319 0
M  V30 815 H 78.0193 2.33431 -2.25699 0
M  V30 816 H 79.0303 0.068551 -5.17855 0
M  V30 817 H 75.7073 2.11145 -3.60172 0
M  V30 818 H 77.0973 -0.481764 -6.70171 0
M  V30 819 N 79.8174 1.5752 -0.0501392 0
M  V30 820 C 80.7494 2.08413 0.95376 0
M  V30 821 C 81.7624 1.01175 1.27544 0
M  V30 822 O 82.9514 1.28744 1.23641 0
M  V30 823 C 80.0514 2.51138 2.27559 0
M  V30 824 C 79.2244 3.817 2.13598 0
M  V30 825 C 78.2834 4.10749 3.28895 0
M  V30 826 O 77.3094 4.80685 3.04845 0
M  V30 827 N 78.5114 3.62579 4.5334 0
M  V30 828 H 81.2764 2.95165 0.519383 0
M  V30 829 H 78.8374 1.61327 0.136127 0
M  V30 830 H 80.8294 2.67648 3.03557 0
M  V30 831 H 79.3994 1.6964 2.62567 0
M  V30 832 H 78.6194 3.74782 1.22197 0
M  V30 833 H 79.9074 4.67201 2.01496 0
M  V30 834 H 79.3054 3.06039 4.75769 0
M  V30 835 H 77.8624 3.84329 5.26436 0
M  V30 836 N 81.2955 -0.223234 1.56011 0
M  V30 837 C 82.5235 -0.964812 1.83027 0
M  V30 838 C 82.9385 -1.78013 0.62904 0
M  V30 839 O 82.2955 -1.78008 -0.402414 0
M  V30 840 C 82.3465 -1.88373 3.08542 0
M  V30 841 O 82.0675 -1.10137 4.2403 0
M  V30 842 C 83.5685 -2.73934 3.48533 0
M  V30 843 H 80.7885 -0.282842 0.608475 0
M  V30 844 H 83.3325 -0.238971 2.03099 0
M  V30 845 H 81.4875 -2.56354 2.9045 0
M  V30 846 H 81.9015 -1.72501 4.95322 0
M  V30 847 H 83.3755 -3.34117 4.39397 0
M  V30 848 H 83.8525 -3.46244 2.70207 0
M  V30 849 H 84.4585 -2.11369 3.69057 0
M  V30 850 N 82.7736 -1.49793 -0.48987 0
M  V30 851 C 83.7236 -1.63673 -1.5873 0
M  V30 852 C 84.7076 -0.491956 -1.53195 0
M  V30 853 O 85.8996 -0.745461 -1.60536 0
M  V30 854 C 83.0286 -1.71689 -2.97284 0
M  V30 855 C 82.1146 -2.91781 -3.07774 0
M  V30 856 N 82.5056 -4.15714 -2.88124 0
M  V30 857 C 80.8036 -2.89949 -3.38889 0
M  V30 858 C 81.5046 -4.965 -3.03088 0
M  V30 859 N 80.4806 -4.30083 -3.3246 0
M  V30 860 H 84.2826 -2.57204 -1.42208 0
M  V30 861 H 81.7966 -1.46719 -0.69623 0
M  V30 862 H 83.7936 -1.79732 -3.76168 0
M  V30 863 H 82.4536 -0.793024 -3.14867 0
M  V30 864 H 83.4646 -4.45515 -2.64077 0
M  V30 865 H 80.1416 -2.06987 -3.62578 0
M  V30 866 H 81.5316 -6.04991 -2.92294 0
M  V30 867 N 84.2517 0.741722 -1.39055 0
M  V30 868 C 85.5007 1.49656 -1.35225 0
M  V30 869 C 85.8137 1.95533 0.0512708 0
M  V30 870 O 87.0197 2.7067 0.212138 0
M  V30 871 C 85.4757 2.70389 -2.37525 0
M  V30 872 C 85.0837 2.31489 -3.83558 0
M  V30 873 C 86.8277 3.48236 -2.42759 0
M  V30 874 C 84.7347 3.48903 -4.77515 0
M  V30 875 H 83.6647 0.56197 -0.502699 0
M  V30 876 H 86.3157 0.809727 -1.64668 0
M  V30 877 H 84.6977 3.41113 -2.01142 0
M  V30 878 H 85.8717 1.68354 -4.28945 0
M  V30 879 H 84.1867 1.66749 -3.81554 0
M  V30 880 H 86.7837 4.35558 -3.1015 0
M  V30 881 H 87.1267 3.90229 -1.45008 0
M  V30 882 H 87.6597 2.84535 -2.78002 0
M  V30 883 H 84.3987 3.11966 -5.76504 0
M  V30 884 H 83.9187 4.11041 -4.36813 0
M  V30 885 H 85.5977 4.15328 -4.96096 0
M  V30 886 N 85.7298 1.2412 0.971189 0
M  V30 887 C 86.9758 1.08041 1.71625 0
M  V30 888 C 87.3088 -0.380407 1.90438 0
M  V30 889 O 86.5838 -1.28127 1.46334 0
M  V30 890 C 86.8668 1.81682 3.10908 0
M  V30 891 C 86.7198 3.35493 2.99608 0
M  V30 892 C 88.0388 1.58671 4.10501 0
M  V30 893 H 85.1578 0.39388 0.622919 0
M  V30 894 H 87.7998 1.52743 1.13003 0
M  V30 895 H 85.9498 1.43684 3.60953 0
M  V30 896 H 87.6218 3.83068 2.57015 0
M  V30 897 H 85.8648 3.64052 2.35899 0
M  V30 898 H 86.5358 3.82217 3.98264 0
M  V30 899 H 89.0118 1.91719 3.69301 0
M  V30 900 H 87.8878 2.1266 5.06031 0
M  V30 901 H 88.1488 0.524161 4.38982 0
M  V30 902 N 87.2079 -1.17134 1.05439 0
M  V30 903 C 88.1179 -2.24878 0.668365 0
M  V30 904 C 89.1339 -1.71186 -0.311687 0
M  V30 905 O 90.3099 -2.00738 -0.163161 0
M  V30 906 C 87.3749 -3.46662 0.051648 0
M  V30 907 C 86.4359 -4.15429 1.08246 0
M  V30 908 C 85.6689 -5.31399 0.495082 0
M  V30 909 O 85.8919 -5.66153 -0.694743 0
M  V30 910 O 84.8259 -5.89187 1.23056 0
M  V30 911 H 88.6519 -2.60189 1.56637 0
M  V30 912 H 86.2369 -1.24482 0.826104 0
M  V30 913 H 88.1189 -4.20394 -0.290966 0
M  V30 914 H 86.7939 -3.13142 -0.819971 0
M  V30 915 H 85.7009 -3.43704 1.47711 0
M  V30 916 H 87.0339 -4.52982 1.92532 0
M  V30 917 N 88.686 -0.835752 -1.33615 0
M  V30 918 C 89.963 -0.352017 -1.92406 0
M  V30 919 C 90.343 1.16225 -1.76224 0
M  V30 920 O 89.691 1.97526 -1.14873 0
M  V30 921 C 89.901 -0.795485 -3.39813 0
M  V30 922 C 91.249 -0.801703 -4.16963 0
M  V30 923 O 92.273 -0.738889 -3.48452 0
M  V30 924 O 91.132 -0.886607 -5.3926 0
M  V30 925 H 88.226 -0.0989641 -0.821057 0
M  V30 926 H 90.772 -0.921397 -1.42507 0
M  V30 927 H 89.544 -1.83795 -3.45449 0
M  V30 928 H 89.167 -0.202505 -3.97084 0
M  V30 929 N 90.1641 1.46063 -0.591896 0
M  V30 930 C 91.0741 2.34192 0.13831 0
M  V30 931 C 92.0901 1.50305 0.876608 0
M  V30 932 O 93.2661 1.8315 0.837728 0
M  V30 933 C 90.3311 3.27656 1.13326 0
M  V30 934 C 89.3921 4.27445 0.39863 0
M  V30 935 C 88.6251 5.16443 1.34618 0
M  V30 936 O 88.8481 5.08553 2.58321 0
M  V30 937 O 87.7821 5.95843 0.851768 0
M  V30 938 H 91.6081 2.98002 -0.58552 0
M  V30 939 H 89.1931 1.45188 -0.352239 0
M  V30 940 H 91.0751 3.85291 1.70671 0
M  V30 941 H 89.7501 2.6643 1.83839 0
M  V30 942 H 88.6571 3.73471 -0.216895 0
M  V30 943 H 89.9901 4.91482 -0.265709 0
M  V30 944 N 91.6422 0.330177 1.54103 0
M  V30 945 C 92.5752 -0.575477 2.20825 0
M  V30 946 C 93.5532 -1.11064 1.18758 0
M  V30 947 O 94.7372 -1.17341 1.47524 0
M  V30 948 C 91.8642 -1.79032 2.87516 0
M  V30 949 C 90.9102 -1.38581 4.03358 0
M  V30 950 S 91.7432 -0.416911 5.33875 0
M  V30 951 C 92.8992 -1.63889 6.04062 0
M  V30 952 H 93.1322 -0.00872114 2.97299 0
M  V30 953 H 90.6652 0.114254 1.53977 0
M  V30 954 H 92.6232 -2.48734 3.2656 0
M  V30 955 H 91.2842 -2.32827 2.10832 0
M  V30 956 H 90.4772 -2.29123 4.48908 0
M  V30 957 H 90.0792 -0.768419 3.66021 0
M  V30 958 H 92.3712 -2.57536 6.26643 0
M  V30 959 H 93.3142 -1.22542 6.97416 0
M  V30 960 H 93.7222 -1.82887 5.34053 0
M  V30 961 N 93.1203 -1.57491 0.0584922 0
M  V30 962 C 94.3453 -1.97711 -0.62652 0
M  V30 963 C 94.7703 -0.936132 -1.63151 0
M  V30 964 O 94.1283 0.099811 -1.81025 0
M  V30 965 C 94.1763 -3.36989 -1.28338 0
M  V30 966 O 93.2803 -3.35433 -2.39913 0
M  V30 967 H 92.6213 -0.643868 -0.162266 0
M  V30 968 H 95.1513 -2.04193 0.129064 0
M  V30 969 H 95.1613 -3.73879 -1.63335 0
M  V30 970 H 93.8363 -4.12289 -0.546889 0
M  V30 971 H 92.4133 -3.10298 -2.06809 0
M  V30 972 N 94.5984 0.214957 -1.56127 0
M  V30 973 C 95.8754 0.963093 -1.70247 0
M  V30 974 C 96.2554 2.02166 -0.60764 0
M  V30 975 O 95.6034 2.25244 0.384385 0
M  V30 976 C 95.8134 1.56756 -3.11815 0
M  V30 977 C 97.1614 2.0573 -3.7143 0
M  V30 978 O 98.1854 1.66637 -3.14818 0
M  V30 979 O 97.0444 2.77603 -4.70743 0
M  V30 980 H 94.1384 0.450321 -0.693643 0
M  V30 981 H 96.6844 0.206219 -1.68442 0
M  V30 982 H 95.4564 0.803533 -3.82961 0
M  V30 983 H 95.0794 2.3898 -3.17765 0
M  V30 984 N 96.0765 1.50051 0.48192 0
M  V30 985 C 96.9865 1.7089 1.60728 0
M  V30 986 C 98.0025 0.591788 1.63627 0
M  V30 987 O 99.1785 0.868817 1.81696 0
M  V30 988 C 96.2435 1.78855 2.97005 0
M  V30 989 C 95.3045 3.02537 3.04581 0
M  V30 990 C 94.5375 3.10112 4.34357 0
M  V30 991 O 94.7605 2.24765 5.24249 0
M  V30 992 O 93.6945 4.02747 4.47301 0
M  V30 993 H 97.5205 2.66264 1.46072 0
M  V30 994 H 95.1055 1.34018 0.660264 0
M  V30 995 H 96.9875 1.86336 3.77964 0
M  V30 996 H 95.6625 0.866628 3.11883 0
M  V30 997 H 94.5695 3.00563 2.22739 0
M  V30 998 H 95.9025 3.94272 2.94636 0
M  V30 999 N 97.5546 -0.734337 1.39446 0
M  V30 1000 C 98.5176 -1.83004 1.37994 0
M  V30 1001 C 99.5176 -1.58397 0.276938 0
M  V30 1002 O 100.708 -1.65785 0.534875 0
M  V30 1003 C 97.8396 -3.20802 1.1532 0
M  V30 1004 H 99.0326 -1.85694 2.35494 0
M  V30 1005 H 96.5856 -0.938059 1.25021 0
M  V30 1006 H 97.3206 -3.23772 0.185036 0
M  V30 1007 H 97.1056 -3.4006 1.95197 0
M  V30 1008 H 98.5956 -4.00862 1.17046 0
M  V30 1009 N 99.0327 -1.24633 -0.964593 0
M  V30 1010 C 99.9797 -1.04144 -2.05968 0
M  V30 1011 C 100.95 0.046262 -1.66036 0
M  V30 1012 O 102.135 -0.108972 -1.90489 0
M  V30 1013 C 99.2747 -0.65563 -3.38815 0
M  V30 1014 C 98.3877 -1.81714 -3.91923 0
M  V30 1015 C 97.5227 -1.37662 -5.13052 0
M  V30 1016 C 96.5617 -2.50788 -5.58365 0
M  V30 1017 N 95.6987 -2.07582 -6.70712 0
M  V30 1018 H 100.539 -1.9787 -2.22827 0
M  V30 1019 H 98.0757 -0.9855 -1.09208 0
M  V30 1020 H 100.034 -0.412954 -4.15151 0
M  V30 1021 H 98.6637 0.244627 -3.21872 0
M  V30 1022 H 97.7157 -2.1734 -3.12198 0
M  V30 1023 H 99.0277 -2.66705 -4.21509 0
M  V30 1024 H 98.1817 -1.093 -5.96773 0
M  V30 1025 H 96.9207 -0.497293 -4.85158 0
M  V30 1026 H 95.9257 -2.79906 -4.73215 0
M  V30 1027 H 97.1507 -3.39283 -5.88272 0
M  V30 1028 H 95.0967 -1.22051 -6.44546 0
M  V30 1029 H 95.0137 -2.86125 -6.99763 0
M  V30 1030 H 96.2817 -1.82369 -7.57867 0
M  V30 1031 N 100.511 1.16574 -1.06058 0
M  V30 1032 C 101.443 2.2045 -0.627239 0
M  V30 1033 C 102.456 1.59752 0.313534 0
M  V30 1034 O 103.645 1.78192 0.104896 0
M  V30 1035 C 100.745 3.3875 0.100974 0
M  V30 1036 C 99.9178 4.29008 -0.852687 0
M  V30 1037 C 98.9768 5.25944 -0.164152 0
M  V30 1038 O 98.0028 5.63535 -0.801047 0
M  V30 1039 N 99.2048 5.70075 1.09518 0
M  V30 1040 H 101.97 2.58249 -1.52077 0
M  V30 1041 H 99.5308 1.3156 -0.943594 0
M  V30 1042 H 101.523 4.00638 0.57194 0
M  V30 1043 H 100.093 2.99476 0.89628 0
M  V30 1044 H 99.3128 3.64419 -1.50308 0
M  V30 1045 H 100.601 4.86195 -1.49972 0
M  V30 1046 H 99.9988 5.41624 1.6328 0
M  V30 1047 H 98.5558 6.34067 1.51006 0
M  V30 1048 N 101.989 0.842826 1.3317 0
M  V30 1049 C 103.235 0.441099 1.97945 0
M  V30 1050 C 103.568 -0.998024 1.66593 0
M  V30 1051 O 102.843 -1.69839 0.947898 0
M  V30 1052 C 103.126 0.666841 3.53872 0
M  V30 1053 C 102.979 2.15352 3.94897 0
M  V30 1054 C 104.298 0.115544 4.39948 0
M  V30 1055 H 101.417 0.161739 0.719034 0
M  V30 1056 H 104.059 1.05907 1.57746 0
M  V30 1057 H 102.209 0.140828 3.88245 0
M  V30 1058 H 103.881 2.7447 3.70761 0
M  V30 1059 H 102.124 2.63653 3.44484 0
M  V30 1060 H 102.795 2.26221 5.03516 0
M  V30 1061 H 105.271 0.565213 4.12243 0
M  V30 1062 H 104.147 0.303152 5.48062 0
M  V30 1063 H 104.408 -0.980935 4.3108 0
M  V30 1064 N 103.467 -1.45747 0.599634 0
M  V30 1065 C 104.716 -2.01502 0.0893511 0
M  V30 1066 C 105.029 -1.4748 -1.28488 0
M  V30 1067 O 106.235 -1.95161 -1.88745 0
M  V30 1068 C 104.691 -3.59735 0.109082 0
M  V30 1069 C 104.299 -4.22754 1.48267 0
M  V30 1070 C 106.043 -4.23085 -0.346374 0
M  V30 1071 C 103.95 -5.73115 1.45921 0
M  V30 1072 H 102.88 -0.753417 0.0296347 0
M  V30 1073 H 105.531 -1.67303 0.753788 0
M  V30 1074 H 103.913 -3.91087 -0.621854 0
M  V30 1075 H 105.087 -4.02987 2.23468 0
M  V30 1076 H 103.402 -3.71567 1.87955 0
M  V30 1077 H 105.999 -5.33327 -0.38298 0
M  V30 1078 H 106.342 -3.93201 -1.36743 0
M  V30 1079 H 106.875 -3.9642 0.331038 0
M  V30 1080 H 103.614 -6.07685 2.45762 0
M  V30 1081 H 103.134 -5.95097 0.749665 0
M  V30 1082 H 104.813 -6.3616 1.17941 0
M  V30 1083 N 104.945 -0.338344 -1.53925 0
M  V30 1084 C 106.356 0.146651 -1.86123 0
M  V30 1085 C 106.707 1.5042 -1.2597 0
M  V30 1086 O 105.832 2.08723 -0.571294 0
M  V30 1087 C 106.427 0.272879 -3.37699 0
M  V30 1088 C 104.986 0.702103 -3.69794 0
M  V30 1089 C 104.133 -0.167304 -2.76795 0
M  V30 1090 H 107.084 -0.558123 -1.48562 0
M  V30 1091 H 107.105 1.10128 -3.64214 0
M  V30 1092 H 106.617 -0.715307 -3.81451 0
M  V30 1093 H 104.718 1.6995 -3.31584 0
M  V30 1094 H 104.831 0.495604 -4.7653 0
M  V30 1095 H 103.195 0.359527 -2.5215 0
M  V30 1096 H 103.978 -1.15253 -3.23375 0
M  V30 1097 N 106.423 1.57458 -0.0668435 0
M  V30 1098 C 107.671 1.92919 0.602214 0
M  V30 1099 C 107.992 0.947215 1.70449 0
M  V30 1100 O 107.262 -0.00544117 1.95899 0
M  V30 1101 H 105.842 0.71217 0.22544 0
M  V30 1102 H 108.504 1.94508 -0.123535 0
M  V30 1103 H 107.6 2.94589 1.03073 0
M  V30 1104 N 107.901 -0.206675 1.56239 0
M  V30 1105 C 108.849 -1.27571 1.94495 0
M  V30 1106 C 109.843 -1.47737 0.828862 0
M  V30 1107 O 111.049 -1.48735 1.0138 0
M  V30 1108 H 107.424 -0.428029 0.6183 0
M  V30 1109 H 109.395 -0.925961 2.8367 0
M  V30 1110 C 108.144 -2.61568 2.29079 0
M  V30 1111 H 107.467 -2.46863 3.14482 0
M  V30 1112 H 108.907 -3.35144 2.5972 0
M  V30 1113 C 107.366 -3.17695 1.12123 0
M  V30 1114 O 107.896 -3.99801 0.390153 0
M  V30 1115 N 106.102 -2.76276 0.901097 0
M  V30 1116 H 105.649 -2.09613 1.49733 0
M  V30 1117 H 105.607 -3.1417 0.120319 0
M  V30 1118 N 109.379 -1.50304 -0.473955 0
M  V30 1119 C 110.342 -1.6841 -1.55469 0
M  V30 1120 C 111.342 -0.554905 -1.50922 0
M  V30 1121 O 112.532 -0.821882 -1.53593 0
M  V30 1122 C 109.664 -1.70667 -2.95102 0
M  V30 1123 H 110.857 -2.64828 -1.40733 0
M  V30 1124 H 108.41 -1.39742 -0.700132 0
M  V30 1125 H 109.145 -0.75932 -3.15285 0
M  V30 1126 H 108.93 -2.52698 -2.9981 0
M  V30 1127 H 110.42 -1.8664 -3.73571 0
M  V30 1128 N 110.857 0.726932 -1.39834 0
M  V30 1129 C 112.134 1.47902 -1.28001 0
M  V30 1130 C 112.514 2.1083 0.106789 0
M  V30 1131 O 111.862 1.99242 1.11869 0
M  V30 1132 C 112.072 2.52392 -2.41038 0
M  V30 1133 C 113.42 3.18546 -2.80737 0
M  V30 1134 O 114.444 2.62708 -2.40547 0
M  V30 1135 O 113.303 4.19604 -3.50135 0
M  V30 1136 H 110.397 0.657163 -0.502062 0
M  V30 1137 H 112.943 0.760071 -1.51727 0
M  V30 1138 H 111.715 2.04329 -3.33715 0
M  V30 1139 H 111.338 3.31837 -2.19021 0
M  V30 1140 N 112.336 1.25143 0.95797 0
M  V30 1141 C 113.582 1.09855 1.70469 0
M  V30 1142 C 113.915 -0.360187 1.90831 0
M  V30 1143 O 113.19 -1.26568 1.47685 0
M  V30 1144 C 113.473 1.8497 3.08963 0
M  V30 1145 C 113.326 3.38652 2.96032 0
M  V30 1146 C 114.645 1.63016 4.08795 0
M  V30 1147 H 111.764 0.400465 0.618706 0
M  V30 1148 H 114.406 1.53933 1.11376 0
M  V30 1149 H 112.556 1.47505 3.59409 0
M  V30 1150 H 114.228 3.85772 2.52938 0
M  V30 1151 H 112.471 3.66534 2.32025 0
M  V30 1152 H 113.142 3.8642 3.94187 0
M  V30 1153 H 115.618 1.95625 3.67247 0
M  V30 1154 H 114.494 2.18015 5.03747 0
M  V30 1155 H 114.755 0.570692 4.38401 0
M  V30 1156 N 113.814 -1.1601 1.06675 0
M  V30 1157 C 115.039 -1.91068 0.806706 0
M  V30 1158 C 115.464 -1.77112 -0.633485 0
M  V30 1159 O 114.822 -1.09908 -1.44187 0
M  V30 1160 C 114.87 -3.39655 1.21106 0
M  V30 1161 O 113.974 -4.10893 0.352189 0
M  V30 1162 H 113.315 -0.595125 0.294486 0
M  V30 1163 H 115.845 -1.46955 1.42356 0
M  V30 1164 H 115.855 -3.90434 1.18428 0
M  V30 1165 H 114.53 -3.49132 2.26008 0
M  V30 1166 H 113.107 -3.70285 0.440868 0
M  V30 1167 N 115.292 -0.849877 -1.32721 0
M  V30 1168 C 116.541 -0.447175 -1.96681 0
M  V30 1169 C 116.854 1.00135 -1.68025 0
M  V30 1170 O 118.06 1.50926 -2.25685 0
M  V30 1171 C 116.516 -0.7487 -3.52026 0
M  V30 1172 C 116.124 -2.21264 -3.89546 0
M  V30 1173 C 117.868 -0.413487 -4.22481 0
M  V30 1174 C 115.775 -2.45763 -5.37917 0
M  V30 1175 H 114.705 -0.163486 -0.736063 0
M  V30 1176 H 117.356 -1.03999 -1.51183 0
M  V30 1177 H 115.738 -0.0853727 -3.95908 0
M  V30 1178 H 116.912 -2.91736 -3.56689 0
M  V30 1179 H 115.227 -2.5119 -3.32103 0
M  V30 1180 H 117.824 -0.574017 -5.3161 0
M  V30 1181 H 118.167 0.644492 -4.11281 0
M  V30 1182 H 118.7 -1.03251 -3.84167 0
M  V30 1183 H 115.439 -3.50168 -5.54132 0
M  V30 1184 H 114.959 -1.79864 -5.72197 0
M  V30 1185 H 116.638 -2.29471 -6.0494 0
M  V30 1186 N 116.77 1.45427 -0.607355 0
M  V30 1187 C 118 2.06314 -0.108656 0
M  V30 1188 C 118.408 1.45269 1.21217 0
M  V30 1189 O 117.751 0.561115 1.74921 0
M  V30 1190 C 117.813 3.59345 0.105618 0
M  V30 1191 C 117.477 4.42723 -1.13337 0
M  V30 1192 C 118.474 4.77715 -2.05145 0
M  V30 1193 C 116.159 4.83478 -1.36213 0
M  V30 1194 C 118.153 5.52317 -3.18158 0
M  V30 1195 C 115.84 5.57835 -2.49527 0
M  V30 1196 C 116.838 5.92171 -3.40327 0
M  V30 1197 O 116.526 6.65019 -4.51669 0
M  V30 1198 H 116.258 0.672782 -0.0658842 0
M  V30 1199 H 118.812 1.87664 -0.834945 0
M  V30 1200 H 117.042 3.76394 0.886796 0
M  V30 1201 H 118.731 4.02076 0.555886 0
M  V30 1202 H 119.497 4.46787 -1.88697 0
M  V30 1203 H 115.376 4.56188 -0.664362 0
M  V30 1204 H 118.92 5.79036 -3.89054 0
M  V30 1205 H 114.817 5.88177 -2.65928 0
M  V30 1206 H 115.585 6.83469 -4.50348 0
M  V30 1207 N 118.248 0.346503 1.53744 0
M  V30 1208 C 119.158 -0.517293 2.28826 0
M  V30 1209 C 120.174 -1.10935 1.3405 0
M  V30 1210 O 121.35 -1.1244 1.6709 0
M  V30 1211 C 118.415 -1.65098 3.04866 0
M  V30 1212 C 117.476 -1.0884 4.15274 0
M  V30 1213 C 116.709 -2.16806 4.87679 0
M  V30 1214 O 116.932 -3.3758 4.59778 0
M  V30 1215 O 115.866 -1.80934 5.74061 0
M  V30 1216 H 119.692 0.0931396 3.03557 0
M  V30 1217 H 117.277 0.111458 1.48984 0
M  V30 1218 H 119.159 -2.31053 3.5241 0
M  V30 1219 H 117.834 -2.24717 2.32989 0
M  V30 1220 H 116.741 -0.3933 3.72027 0
M  V30 1221 H 118.074 -0.537036 4.89261 0
M  V30 1222 N 119.726 -1.57421 0.075193 0
M  V30 1223 C 120.975 -1.92794 -0.592731 0
M  V30 1224 C 121.288 -0.957478 -1.70563 0
M  V30 1225 O 122.494 -1.20417 -2.43335 0
M  V30 1226 C 120.95 -3.42495 -1.10569 0
M  V30 1227 C 120.558 -4.47994 -0.0236121 0
M  V30 1228 C 122.302 -3.86864 -1.74748 0
M  V30 1229 C 120.209 -5.88829 -0.550803 0
M  V30 1230 H 119.139 -0.719591 -0.225177 0
M  V30 1231 H 121.79 -1.82902 0.147978 0
M  V30 1232 H 120.172 -3.47471 -1.89947 0
M  V30 1233 H 121.346 -4.54637 0.751099 0
M  V30 1234 H 119.661 -4.13113 0.522159 0
M  V30 1235 H 122.258 -4.8947 -2.15229 0
M  V30 1236 H 122.601 -3.24417 -2.60882 0
M  V30 1237 H 123.134 -3.84504 -1.01986 0
M  V30 1238 H 119.873 -6.54929 0.273457 0
M  V30 1239 H 119.393 -5.85698 -1.29296 0
M  V30 1240 H 121.072 -6.38811 -1.02613 0
M  V30 1241 N 121.204 0.198386 -1.56346 0
M  V30 1242 C 122.137 1.27381 -1.89339 0
M  V30 1243 C 123.115 1.44106 -0.753134 0
M  V30 1244 O 124.299 1.59549 -1.00381 0
M  V30 1245 C 121.426 2.6409 -2.12071 0
M  V30 1246 C 120.472 2.64253 -3.34772 0
M  V30 1247 S 121.305 2.16013 -4.89999 0
M  V30 1248 C 122.461 3.54553 -5.15794 0
M  V30 1249 H 122.694 0.992058 -2.8026 0
M  V30 1250 H 120.227 0.401726 -1.49082 0
M  V30 1251 H 122.185 3.42786 -2.2585 0
M  V30 1252 H 120.846 2.89478 -1.21906 0
M  V30 1253 H 120.039 3.64768 -3.47794 0
M  V30 1254 H 119.641 1.93637 -3.1997 0
M  V30 1255 H 121.933 4.50396 -5.06112 0
M  V30 1256 H 122.876 3.46428 -6.1757 0
M  V30 1257 H 123.284 3.49313 -4.43442 0
M  V30 1258 N 122.682 1.50554 0.465978 0
M  V30 1259 C 123.592 1.72585 1.58907 0
M  V30 1260 C 124.608 0.60911 1.6299 0
M  V30 1261 O 125.784 0.88804 1.80765 0
M  V30 1262 C 122.849 1.81995 2.95091 0
M  V30 1263 C 121.91 3.05751 3.01355 0
M  V30 1264 C 121.143 3.14702 4.31043 0
M  V30 1265 O 121.366 2.30313 5.21835 0
M  V30 1266 O 120.3 4.07468 4.43005 0
M  V30 1267 H 124.126 2.67799 1.43239 0
M  V30 1268 H 121.711 1.34711 0.646013 0
M  V30 1269 H 123.593 1.90335 3.75966 0
M  V30 1270 H 122.268 0.899659 3.10947 0
M  V30 1271 H 121.175 3.02908 2.19539 0
M  V30 1272 H 122.508 3.97375 2.90437 0
M  V30 1273 N 124.16 -0.719506 1.40217 0
M  V30 1274 C 125.576 -1.02707 1.22161 0
M  V30 1275 C 125.776 -2.0128 0.0940557 0
M  V30 1276 O 124.832 -2.46452 -0.549318 0
M  V30 1277 C 126.145 -1.57454 2.56181 0
M  V30 1278 C 127.693 -1.69458 2.63159 0
M  V30 1279 C 128.168 -2.27611 3.97438 0
M  V30 1280 N 129.659 -2.35002 3.99159 0
M  V30 1281 C 130.394 -2.80972 4.99842 0
M  V30 1282 N 129.89 -3.26723 6.10921 0
M  V30 1283 N 131.683 -2.80321 4.87213 0
M  V30 1284 H 123.834 -0.0660492 2.12297 0
M  V30 1285 H 126.097 -0.0919077 0.943534 0
M  V30 1286 H 125.803 -0.924873 3.39321 0
M  V30 1287 H 125.677 -2.56036 2.76993 0
M  V30 1288 H 128.064 -2.33543 1.80393 0
M  V30 1289 H 128.145 -0.694867 2.46181 0
M  V30 1290 H 127.789 -1.6415 4.80643 0
M  V30 1291 H 127.719 -3.2829 4.11744 0
M  V30 1292 H 130.21 -2.02685 3.18947 0
M  V30 1293 H 130.523 -3.60355 6.8364 0
M  V30 1294 H 128.868 -3.24692 6.14492 0
M  V30 1295 H 132.059 -2.43912 3.9953 0
M  V30 1296 H 132.232 -3.15831 5.65822 0
M  V30 1297 N 125.638 -1.25649 -0.95132 0
M  V30 1298 C 126.878 -1.11802 -1.71113 0
M  V30 1299 C 127.242 0.334758 -1.89059 0
M  V30 1300 O 128.443 0.595121 -2.62129 0
M  V30 1301 C 126.714 -1.85512 -3.05483 0
M  V30 1302 S 128.273 -1.87597 -3.96677 0
M  V30 1303 H 125.091 -0.399552 -0.588115 0
M  V30 1304 H 127.693 -1.59222 -1.1344 0
M  V30 1305 H 126.397 -2.90299 -2.90094 0
M  V30 1306 H 125.928 -1.38493 -3.68216 0
M  V30 1307 H 127.943 -0.955389 -4.86916 0
M  V30 1308 N 127.117 1.15442 -1.07289 0
M  V30 1309 C 128.08 2.18358 -0.696591 0
M  V30 1310 C 129.08 1.58637 0.262837 0
M  V30 1311 O 130.27 1.74145 0.0438809 0
M  V30 1312 C 127.402 3.4089 -0.0266151 0
M  V30 1313 H 128.595 2.53162 -1.60776 0
M  V30 1314 H 126.148 1.29893 -0.869342 0
M  V30 1315 H 126.883 3.11653 0.896822 0
M  V30 1316 H 126.668 3.85495 -0.716657 0
M  V30 1317 H 128.158 4.17009 0.222028 0
M  V30 1318 N 128.595 0.856903 1.32268 0
M  V30 1319 C 129.525 0.31858 2.31316 0
M  V30 1320 C 130.506 -0.583487 1.59779 0
M  V30 1321 O 131.691 -0.503259 1.87566 0
M  V30 1322 C 128.821 -0.491979 3.43798 0
M  V30 1323 C 127.775 0.315849 4.26833 0
M  V30 1324 C 127.101 -0.619586 5.31098 0
M  V30 1325 C 128.401 1.54282 4.98993 0
M  V30 1326 H 130.095 1.14621 2.76591 0
M  V30 1327 H 127.641 0.552613 1.32974 0
M  V30 1328 H 129.594 -0.879012 4.1213 0
M  V30 1329 H 128.318 -1.35299 2.97257 0
M  V30 1330 H 126.977 0.684664 3.6015 0
M  V30 1331 H 126.625 -1.47751 4.8081 0
M  V30 1332 H 126.325 -0.0830621 5.87541 0
M  V30 1333 H 127.849 -1.00375 6.02293 0
M  V30 1334 H 129.263 1.22796 5.59995 0
M  V30 1335 H 127.66 2.01745 5.65172 0
M  V30 1336 H 128.73 2.30285 4.26728 0
M  V30 1337 N 130.073 -1.45103 0.615059 0
M  V30 1338 C 131.021 -2.32331 -0.111791 0
M  V30 1339 C 132.015 -1.46409 -0.852102 0
M  V30 1340 O 133.221 -1.62849 -0.766821 0
M  V30 1341 H 129.596 -0.749993 -0.0549072 0
M  V30 1342 H 131.567 -2.91407 0.642225 0
M  V30 1343 C 130.316 -3.3015 -1.09071 0
M  V30 1344 H 129.639 -3.96265 -0.530485 0
M  V30 1345 H 131.079 -3.93898 -1.56908 0
M  V30 1346 C 129.538 -2.57875 -2.168 0
M  V30 1347 O 130.068 -2.36567 -3.24652 0
M  V30 1348 N 128.274 -2.17884 -1.92289 0
M  V30 1349 H 127.821 -2.35413 -1.04587 0
M  V30 1350 H 127.779 -1.6985 -2.64572 0
M  V30 1351 N 131.551 -0.354651 -1.53558 0
M  V30 1352 C 132.461 0.50515 -2.29097 0
M  V30 1353 C 133.477 1.10223 -1.34636 0
M  V30 1354 O 134.653 1.11553 -1.67684 0
M  V30 1355 C 131.718 1.63479 -3.05738 0
M  V30 1356 C 130.779 1.06636 -4.15845 0
M  V30 1357 C 130.012 2.14217 -4.88822 0
M  V30 1358 O 130.235 3.35137 -4.61562 0
M  V30 1359 O 129.169 1.77887 -5.75013 0
M  V30 1360 H 132.995 -0.109237 -3.03503 0
M  V30 1361 H 130.58 -0.119357 -1.48922 0
M  V30 1362 H 132.462 2.2918 -3.5363 0
M  V30 1363 H 131.137 2.23478 -2.34178 0
M  V30 1364 H 130.044 0.373565 -3.7223 0
M  V30 1365 H 131.377 0.511081 -4.89539 0
M  V30 1366 N 133.029 1.57378 -0.0835403 0
M  V30 1367 C 133.939 2.16897 0.894021 0
M  V30 1368 C 134.955 1.13528 1.31861 0
M  V30 1369 O 136.131 1.45848 1.3889 0
M  V30 1370 C 133.196 2.72831 2.13925 0
M  V30 1371 C 132.257 3.91115 1.76997 0
M  V30 1372 C 131.49 4.44371 2.95584 0
M  V30 1373 O 131.713 3.96596 4.09961 0
M  V30 1374 O 130.647 5.35549 2.74719 0
M  V30 1375 H 134.473 3.00814 0.417679 0
M  V30 1376 H 132.058 1.48741 0.140181 0
M  V30 1377 H 133.94 3.0863 2.86924 0
M  V30 1378 H 132.615 1.91967 2.60635 0
M  V30 1379 H 131.522 3.60148 1.01214 0
M  V30 1380 H 132.855 4.73307 1.3506 0
M  V30 1381 N 134.507 -0.190092 1.56449 0
M  V30 1382 C 135.784 -0.935886 1.71757 0
M  V30 1383 C 136.164 -2.01173 0.639726 0
M  V30 1384 O 135.512 -2.25827 -0.348502 0
M  V30 1385 C 135.722 -1.51775 3.1427 0
M  V30 1386 C 137.07 -1.99794 3.74656 0
M  V30 1387 O 138.094 -1.61607 3.1743 0
M  V30 1388 O 136.953 -2.70079 4.751 0
M  V30 1389 H 134.047 -0.439229 0.700719 0
M  V30 1390 H 136.593 -0.179395 1.68749 0
M  V30 1391 H 135.365 -0.742505 3.84191 0
M  V30 1392 H 134.988 -2.33894 3.21527 0
M  V30 1393 N 135.985 -1.50799 -0.457987 0
M  V30 1394 C 136.895 -1.73426 -1.57989 0
M  V30 1395 C 137.911 -0.617745 -1.62665 0
M  V30 1396 O 139.087 -0.897614 -1.80291 0
M  V30 1397 C 136.152 -1.83557 -2.94122 0
M  V30 1398 C 135.213 -3.07345 -2.99729 0
M  V30 1399 C 134.446 -3.16983 -4.29368 0
M  V30 1400 O 134.669 -2.33077 -5.20607 0
M  V30 1401 O 133.603 -4.09812 -4.40837 0
M  V30 1402 H 137.429 -2.68555 -1.41817 0
M  V30 1403 H 135.014 -1.35052 -0.638859 0
M  V30 1404 H 136.896 -1.92326 -3.74952 0
M  V30 1405 H 135.571 -0.916137 -3.10465 0
M  V30 1406 H 134.478 -3.04068 -2.1793 0
M  V30 1407 H 135.811 -3.9891 -2.88326 0
M  V30 1408 N 137.463 0.71206 -1.40597 0
M  V30 1409 C 138.712 1.46754 -1.38369 0
M  V30 1410 C 139.025 1.95598 0.0097839 0
M  V30 1411 O 140.231 2.71059 0.154677 0
M  V30 1412 C 138.687 2.65289 -2.43207 0
M  V30 1413 C 138.295 2.23301 -3.88382 0
M  V30 1414 C 140.039 3.43008 -2.50091 0
M  V30 1415 C 137.946 3.38696 -4.84808 0
M  V30 1416 H 136.876 0.55118 -0.514506 0
M  V30 1417 H 139.527 0.774616 -1.66349 0
M  V30 1418 H 137.909 3.36769 -2.08332 0
M  V30 1419 H 139.083 1.59218 -4.32419 0
M  V30 1420 H 137.398 1.58618 -3.85006 0
M  V30 1421 H 139.995 4.28881 -3.1932 0
M  V30 1422 H 140.338 3.87065 -1.53253 0
M  V30 1423 H 140.871 2.78574 -2.83974 0
M  V30 1424 H 137.61 2.99668 -5.82992 0
M  V30 1425 H 137.13 4.01683 -4.45433 0
M  V30 1426 H 138.809 4.04712 -5.04794 0
M  V30 1427 N 138.941 1.26152 0.944643 0
M  V30 1428 C 139.888 1.07408 2.04285 0
M  V30 1429 C 140.858 -0.0198413 1.66088 0
M  V30 1430 O 142.043 0.139264 1.90291 0
M  V30 1431 C 139.183 0.70945 3.37729 0
M  V30 1432 C 138.296 1.87926 3.88983 0
M  V30 1433 C 137.431 1.45807 5.10797 0
M  V30 1434 C 136.47 2.5964 5.54305 0
M  V30 1435 N 135.607 2.18226 6.67324 0
M  V30 1436 H 140.447 2.01389 2.1965 0
M  V30 1437 H 137.984 1.00275 1.07626 0
M  V30 1438 H 139.942 0.478948 4.14442 0
M  V30 1439 H 138.572 -0.193389 3.2222 0
M  V30 1440 H 137.624 2.22279 3.08701 0
M  V30 1441 H 138.936 2.73377 4.17213 0
M  V30 1442 H 138.09 1.18781 5.94959 0
M  V30 1443 H 136.829 0.574414 4.84305 0
M  V30 1444 H 135.834 2.87399 4.68702 0
M  V30 1445 H 137.059 3.48599 5.828 0
M  V30 1446 H 135.005 1.3229 6.42523 0
M  V30 1447 H 134.922 2.97221 6.95123 0
M  V30 1448 H 136.19 1.94403 7.54869 0
M  V30 1449 N 140.419 -1.14872 1.07899 0
M  V30 1450 C 141.349 -2.2193 0.725887 0
M  V30 1451 C 142.33 -1.67622 -0.28927 0
M  V30 1452 O 143.515 -1.93533 -0.160787 0
M  V30 1453 C 140.645 -3.47061 0.128856 0
M  V30 1454 C 139.599 -4.14363 1.07178 0
M  V30 1455 C 138.925 -5.33636 0.337229 0
M  V30 1456 C 140.225 -4.63492 2.40775 0
M  V30 1457 H 141.919 -2.51724 1.62097 0
M  V30 1458 H 139.465 -1.20991 0.780838 0
M  V30 1459 H 141.418 -4.21199 -0.130147 0
M  V30 1460 H 140.142 -3.16617 -0.80134 0
M  V30 1461 H 138.801 -3.42173 1.3158 0
M  V30 1462 H 138.449 -4.99449 -0.596606 0
M  V30 1463 H 138.149 -5.79609 0.965788 0
M  V30 1464 H 139.673 -6.10539 0.0861567 0
M  V30 1465 H 141.087 -5.2913 2.20669 0
M  V30 1466 H 139.484 -5.20148 2.99276 0
M  V30 1467 H 140.554 -3.78834 3.02676 0
M  V30 1468 N 141.898 -0.863906 -1.31812 0
M  V30 1469 C 142.845 -0.313303 -2.28664 0
M  V30 1470 C 143.815 0.584868 -1.55462 0
M  V30 1471 O 145 0.517805 -1.83639 0
M  V30 1472 C 142.14 0.48441 -3.41683 0
M  V30 1473 C 141.253 -0.440594 -4.29747 0
M  V30 1474 C 140.388 0.370652 -5.29905 0
M  V30 1475 C 139.427 -0.551164 -6.09613 0
M  V30 1476 N 138.564 0.223462 -7.01744 0
M  V30 1477 H 143.404 -1.14444 -2.75148 0
M  V30 1478 H 140.941 -0.575769 -1.35364 0
M  V30 1479 H 142.899 0.962627 -4.05943 0
M  V30 1480 H 141.529 1.28029 -2.96325 0
M  V30 1481 H 140.581 -1.03724 -3.65986 0
M  V30 1482 H 141.893 -1.14767 -4.85417 0
M  V30 1483 H 141.047 0.911638 -5.99812 0
M  V30 1484 H 139.786 1.11105 -4.74876 0
M  V30 1485 H 138.791 -1.10396 -5.38603 0
M  V30 1486 H 140.016 -1.29032 -6.66729 0
M  V30 1487 H 137.962 0.946787 -6.49132 0
M  V30 1488 H 137.879 -0.424399 -7.54808 0
M  V30 1489 H 139.147 0.745876 -7.75923 0
M  V30 1490 N 143.376 1.44774 -0.622745 0
M  V30 1491 C 144.286 2.34433 0.0886031 0
M  V30 1492 C 145.302 1.52131 0.844529 0
M  V30 1493 O 146.478 1.84886 0.798691 0
M  V30 1494 C 143.543 3.29986 1.0635 0
M  V30 1495 C 142.604 4.28195 0.307873 0
M  V30 1496 C 141.837 5.19183 1.23633 0
M  V30 1497 O 142.06 5.13918 2.47476 0
M  V30 1498 O 140.994 5.97515 0.725189 0
M  V30 1499 H 144.82 2.96693 -0.648599 0
M  V30 1500 H 142.405 1.44408 -0.382957 0
M  V30 1501 H 144.287 3.88825 1.6246 0
M  V30 1502 H 142.962 2.70269 1.78146 0
M  V30 1503 H 141.869 3.72927 -0.296064 0
M  V30 1504 H 143.202 4.90808 -0.3699 0
M  V30 1505 N 144.854 0.36279 1.53368 0
M  V30 1506 C 146.084 -0.228281 2.05335 0
M  V30 1507 C 146.492 -1.43226 1.23625 0
M  V30 1508 O 145.835 -1.81717 0.269206 0
M  V30 1509 C 145.897 -0.688549 3.52845 0
M  V30 1510 C 145.561 0.398362 4.5526 0
M  V30 1511 C 146.558 1.24732 5.04716 0
M  V30 1512 C 144.243 0.557805 4.99193 0
M  V30 1513 C 146.237 2.2411 5.96702 0
M  V30 1514 C 143.924 1.55495 5.90986 0
M  V30 1515 C 144.922 2.39503 6.39631 0
M  V30 1516 O 144.61 3.37517 7.29615 0
M  V30 1517 H 144.342 -0.044395 0.674541 0
M  V30 1518 H 146.896 0.518668 1.98744 0
M  V30 1519 H 145.126 -1.48706 3.56964 0
M  V30 1520 H 146.815 -1.20231 3.87685 0
M  V30 1521 H 147.581 1.13532 4.71525 0
M  V30 1522 H 143.46 -0.0862959 4.60919 0
M  V30 1523 H 147.004 2.89718 6.34594 0
M  V30 1524 H 142.901 1.66744 6.23592 0
M  V30 1525 H 143.669 3.33213 7.47604 0
M  V30 1526 N 146.332 -1.57332 0.0918853 0
M  V30 1527 C 147.578 -1.94524 -0.573425 0
M  V30 1528 C 147.911 -0.973578 -1.68033 0
M  V30 1529 O 147.186 -0.00609226 -1.94499 0
M  V30 1530 C 147.469 -3.41858 -1.13161 0
M  V30 1531 C 147.322 -4.4979 -0.0299747 0
M  V30 1532 C 148.641 -3.90435 -2.03098 0
M  V30 1533 H 145.76 -0.70734 -0.206975 0
M  V30 1534 H 148.402 -1.89309 0.161942 0
M  V30 1535 H 146.552 -3.46433 -1.7583 0
M  V30 1536 H 148.224 -4.57327 0.604112 0
M  V30 1537 H 146.467 -4.291 0.636833 0
M  V30 1538 H 147.138 -5.50069 -0.461287 0
M  V30 1539 H 149.614 -3.87992 -1.50338 0
M  V30 1540 H 148.49 -4.94097 -2.39081 0
M  V30 1541 H 148.751 -3.29541 -2.94712 0
M  V30 1542 N 147.81 0.181792 -1.56548 0
M  V30 1543 C 148.72 1.24538 -1.98815 0
M  V30 1544 C 149.736 1.49045 -0.897861 0
M  V30 1545 O 150.912 1.61399 -1.20467 0
M  V30 1546 C 147.977 2.56683 -2.33055 0
M  V30 1547 C 147.038 2.40131 -3.55859 0
M  V30 1548 C 146.271 3.65975 -3.88456 0
M  V30 1549 O 146.494 4.70711 -3.22161 0
M  V30 1550 O 145.428 3.6071 -4.81842 0
M  V30 1551 H 149.254 0.916647 -2.89536 0
M  V30 1552 H 146.839 0.387842 -1.44278 0
M  V30 1553 H 148.721 3.34655 -2.56094 0
M  V30 1554 H 147.396 2.89157 -1.45498 0
M  V30 1555 H 146.303 1.60226 -3.38051 0
M  V30 1556 H 147.636 2.12585 -4.43924 0
M  V30 1557 N 149.288 1.51039 0.449983 0
M  V30 1558 C 150.513 1.6715 1.22783 0
M  V30 1559 C 150.938 0.363081 1.84563 0
M  V30 1560 O 150.296 -0.675433 1.68249 0
M  V30 1561 C 150.344 2.77985 2.29689 0
M  V30 1562 O 149.448 2.40707 3.34864 0
M  V30 1563 H 148.789 0.557746 0.360299 0
M  V30 1564 H 151.319 1.97535 0.533005 0
M  V30 1565 H 151.329 3.01693 2.74673 0
M  V30 1566 H 150.004 3.72935 1.84098 0
M  V30 1567 H 148.581 2.27523 2.95445 0
M  V30 1568 N 150.766 -0.704594 1.40972 0
M  V30 1569 C 151.713 -1.81862 1.42109 0
M  V30 1570 C 152.683 -1.63781 0.276593 0
M  V30 1571 O 153.868 -1.84759 0.4763 0
M  V30 1572 C 151.008 -3.19669 1.30022 0
M  V30 1573 C 150.121 -3.49246 2.54267 0
M  V30 1574 C 149.256 -4.76618 2.3454 0
M  V30 1575 C 148.295 -4.99133 3.54306 0
M  V30 1576 N 147.432 -6.17726 3.33706 0
M  V30 1577 H 152.272 -1.80226 2.37324 0
M  V30 1578 H 149.809 -0.880238 1.17857 0
M  V30 1579 H 151.767 -3.99263 1.21018 0
M  V30 1580 H 150.397 -3.20506 0.384192 0
M  V30 1581 H 149.449 -2.64125 2.73756 0
M  V30 1582 H 150.761 -3.61788 3.43381 0
M  V30 1583 H 149.915 -5.64249 2.22952 0
M  V30 1584 H 148.654 -4.66305 1.42867 0
M  V30 1585 H 147.659 -4.09953 3.66359 0
M  V30 1586 H 148.884 -5.11311 4.4692 0
M  V30 1587 H 146.83 -6.08642 2.44725 0
M  V30 1588 H 146.747 -6.30995 4.16391 0
M  V30 1589 H 148.015 -7.08115 3.25873 0
M  V30 1590 N 152.244 -1.26651 -0.937939 0
M  V30 1591 C 153.492 -1.12165 -1.68118 0
M  V30 1592 C 153.813 0.334983 -1.92101 0
M  V30 1593 O 153.083 1.23583 -1.52 0
M  V30 1594 H 151.663 -0.412093 -0.623048 0
M  V30 1595 H 154.325 -1.59027 -1.12678 0
M  V30 1596 H 153.421 -1.64289 -2.6536 0
M  V30 1597 N 153.722 1.14298 -1.08507 0
M  V30 1598 C 154.655 2.18447 -0.660004 0
M  V30 1599 C 155.633 1.59242 0.328749 0
M  V30 1600 O 156.817 1.87062 0.232367 0
M  V30 1601 C 153.944 3.38688 0.0290807 0
M  V30 1602 C 152.99 4.1646 -0.919982 0
M  V30 1603 S 153.823 4.77334 -2.42718 0
M  V30 1604 C 154.979 6.00931 -1.75024 0
M  V30 1605 H 155.212 2.54166 -1.54231 0
M  V30 1606 H 152.745 1.25446 -0.900149 0
M  V30 1607 H 154.703 4.08342 0.420378 0
M  V30 1608 H 153.364 3.01289 0.887895 0
M  V30 1609 H 152.557 5.02529 -0.384751 0
M  V30 1610 H 152.159 3.52414 -1.25223 0
M  V30 1611 H 154.451 6.69017 -1.06877 0
M  V30 1612 H 155.394 6.59044 -2.58971 0
M  V30 1613 H 155.802 5.51089 -1.22317 0
M  V30 1614 N 155.201 0.870884 1.31352 0
M  V30 1615 C 156.45 0.478408 1.95944 0
M  V30 1616 C 156.763 -0.974493 1.69597 0
M  V30 1617 O 157.969 -1.47316 2.28058 0
M  V30 1618 C 156.425 0.804609 3.50791 0
M  V30 1619 C 156.033 2.27433 3.85977 0
M  V30 1620 C 157.777 0.480648 4.2177 0
M  V30 1621 C 155.684 2.5429 5.33939 0
M  V30 1622 H 154.614 0.175175 0.733369 0
M  V30 1623 H 157.265 1.06391 1.4951 0
M  V30 1624 H 155.647 0.148347 3.95722 0
M  V30 1625 H 156.821 2.97373 3.52002 0
M  V30 1626 H 155.136 2.56442 3.28065 0
M  V30 1627 H 157.733 0.658519 5.30629 0
M  V30 1628 H 158.076 -0.578979 4.12254 0
M  V30 1629 H 158.609 1.09349 3.82476 0
M  V30 1630 H 155.348 3.58939 5.48491 0
M  V30 1631 H 154.868 1.88945 5.69263 0
M  V30 1632 H 156.547 2.39066 6.01212 0
M  V30 1633 N 156.679 -1.44442 0.630414 0
M  V30 1634 C 157.926 -2.02052 0.134617 0
M  V30 1635 C 158.254 -1.49576 -1.24327 0
M  V30 1636 O 157.509 -0.669806 -1.83881 0
M  V30 1637 C 157.808 -3.57332 0.0697835 0
M  V30 1638 C 157.474 -4.29058 1.38635 0
M  V30 1639 C 156.136 -4.4837 1.74694 0
M  V30 1640 C 158.488 -4.69872 2.25543 0
M  V30 1641 C 155.816 -5.05756 2.97369 0
M  V30 1642 C 158.168 -5.28616 3.47487 0
M  V30 1643 C 156.832 -5.46147 3.8377 0
M  V30 1644 H 156.102 -0.739361 0.0492598 0
M  V30 1645 H 158.749 -1.73217 0.816586 0
M  V30 1646 H 157.054 -3.85577 -0.695553 0
M  V30 1647 H 158.751 -3.99637 -0.330344 0
M  V30 1648 H 155.341 -4.14357 1.09574 0
M  V30 1649 H 159.525 -4.54666 1.98979 0
M  V30 1650 H 154.781 -5.17515 3.25558 0
M  V30 1651 H 158.955 -5.59192 4.15063 0
M  V30 1652 H 156.582 -5.9038 4.7891 0
M  V30 1653 N 158.157 -0.370918 -1.53173 0
M  V30 1654 C 159.406 0.218249 -2.00516 0
M  V30 1655 C 159.719 1.49429 -1.26215 0
M  V30 1656 O 160.925 2.16239 -1.64174 0
M  V30 1657 C 159.381 0.43948 -3.57207 0
M  V30 1658 C 158.989 -0.822244 -4.4039 0
M  V30 1659 C 160.733 0.986012 -4.1289 0
M  V30 1660 C 158.64 -0.570304 -5.88644 0
M  V30 1661 H 157.57 0.0853333 -0.749156 0
M  V30 1662 H 160.221 -0.490483 -1.76823 0
M  V30 1663 H 158.603 1.20961 -3.77074 0
M  V30 1664 H 159.777 -1.59557 -4.32294 0
M  V30 1665 H 158.092 -1.29238 -3.95836 0
M  V30 1666 H 160.689 1.18991 -5.21292 0
M  V30 1667 H 161.032 1.94972 -3.6782 0
M  V30 1668 H 161.565 0.27592 -3.96842 0
M  V30 1669 H 158.304 -1.50449 -6.38001 0
M  V30 1670 H 157.824 0.164427 -5.99575 0
M  V30 1671 H 159.503 -0.19784 -6.46697 0
M  V30 1672 N 159.635 1.57281 -0.100228 0
M  V30 1673 C 160.86 1.99302 0.573881 0
M  V30 1674 C 161.285 0.979059 1.60611 0
M  V30 1675 O 160.643 -0.0517803 1.81226 0
M  V30 1676 C 160.691 3.40274 1.19358 0
M  V30 1677 O 159.795 3.41676 2.30935 0
M  V30 1678 H 159.136 0.647944 0.145138 0
M  V30 1679 H 161.666 2.03779 -0.183156 0
M  V30 1680 H 161.676 3.78078 1.53365 0
M  V30 1681 H 160.351 4.13594 0.437385 0
M  V30 1682 H 158.928 3.15672 1.98509 0
M  V30 1683 N 161.113 -0.173488 1.56642 0
M  V30 1684 C 162.341 -0.906095 1.86004 0
M  V30 1685 C 162.756 -1.75921 0.685355 0
M  V30 1686 O 162.113 -1.79198 -0.345578 0
M  V30 1687 C 162.164 -1.78462 3.14378 0
M  V30 1688 O 161.885 -0.965914 4.27319 0
M  V30 1689 C 163.386 -2.62707 3.57071 0
M  V30 1690 H 160.606 -0.263341 0.617165 0
M  V30 1691 H 163.15 -0.174236 2.03756 0
M  V30 1692 H 161.305 -2.46984 2.98459 0
M  V30 1693 H 161.719 -1.56655 5.00559 0
M  V30 1694 H 163.193 -3.19969 4.49804 0
M  V30 1695 H 163.67 -3.37472 2.81086 0
M  V30 1696 H 164.276 -1.99521 3.75595 0
M  V30 1697 N 162.591 -1.51276 -0.441967 0
M  V30 1698 C 164.002 -1.56244 -1.02199 0
M  V30 1699 C 164.353 -0.383149 -1.92422 0
M  V30 1700 O 163.478 0.500613 -2.1053 0
M  V30 1701 C 164.073 -2.83162 -1.86024 0
M  V30 1702 C 162.632 -2.90716 -2.39084 0
M  V30 1703 C 161.779 -2.50858 -1.18175 0
M  V30 1704 H 164.73 -1.5712 -0.223416 0
M  V30 1705 H 164.751 -2.66663 -2.71425 0
M  V30 1706 H 164.263 -3.68974 -1.20331 0
M  V30 1707 H 162.364 -2.09323 -3.08244 0
M  V30 1708 H 162.477 -3.94266 -2.72198 0
M  V30 1709 H 160.841 -2.03951 -1.52565 0
M  V30 1710 H 161.624 -3.3901 -0.541001 0
M  V30 1711 N 164.069 0.697108 -1.41344 0
M  V30 1712 C 165.316 1.45714 -1.40619 0
M  V30 1713 C 165.644 1.94494 -0.0147907 0
M  V30 1714 O 164.899 1.69794 0.973066 0
M  V30 1715 C 165.198 2.68553 -2.35826 0
M  V30 1716 C 164.864 2.38438 -3.82698 0
M  V30 1717 C 163.526 2.29936 -4.22709 0
M  V30 1718 C 165.878 2.13567 -4.75435 0
M  V30 1719 C 163.206 1.94656 -5.53467 0
M  V30 1720 C 165.558 1.79797 -6.06511 0
M  V30 1721 C 164.222 1.69789 -6.45545 0
M  V30 1722 H 163.492 0.533206 -0.51456 0
M  V30 1723 H 166.139 0.796901 -1.74131 0
M  V30 1724 H 164.444 3.39503 -1.95563 0
M  V30 1725 H 166.141 3.2669 -2.32539 0
M  V30 1726 H 162.731 2.4595 -3.51008 0
M  V30 1727 H 166.915 2.19082 -4.45328 0
M  V30 1728 H 162.171 1.8546 -5.82593 0
M  V30 1729 H 166.345 1.59572 -6.77872 0
M  V30 1730 H 163.972 1.4222 -7.46778 0
M  V30 1731 N 165.547 1.27147 0.931209 0
M  V30 1732 C 166.772 1.16191 1.71797 0
M  V30 1733 C 167.197 -0.278004 1.86034 0
M  V30 1734 O 166.555 -1.20137 1.35782 0
M  V30 1735 C 166.603 1.84673 3.09723 0
M  V30 1736 O 165.707 1.14231 3.96264 0
M  V30 1737 H 165.048 0.404303 0.526721 0
M  V30 1738 H 167.578 1.68152 1.1656 0
M  V30 1739 H 167.588 1.91893 3.60057 0
M  V30 1740 H 166.263 2.89421 2.98677 0
M  V30 1741 H 164.84 1.15056 3.54706 0
M  V30 1742 N 167.025 -1.13721 1.09112 0
M  V30 1743 C 168.441 -1.36914 0.820174 0
M  V30 1744 C 168.641 -1.93356 -0.567079 0
M  V30 1745 O 167.697 -2.15093 -1.32255 0
M  V30 1746 C 169.01 -2.3235 1.90877 0
M  V30 1747 C 170.558 -2.45973 1.93562 0
M  V30 1748 C 171.033 -3.44714 3.01556 0
M  V30 1749 N 172.524 -3.52263 3.00775 0
M  V30 1750 C 173.259 -4.28536 3.80978 0
M  V30 1751 N 172.755 -5.07991 4.71081 0
M  V30 1752 N 174.548 -4.23804 3.69251 0
M  V30 1753 H 166.699 -0.754348 1.98553 0
M  V30 1754 H 168.962 -0.3944 0.862063 0
M  V30 1755 H 168.668 -1.98027 2.90651 0
M  V30 1756 H 168.542 -3.32332 1.78424 0
M  V30 1757 H 170.929 -2.79584 0.944286 0
M  V30 1758 H 171.01 -1.45926 2.10093 0
M  V30 1759 H 170.654 -3.11835 4.00901 0
M  V30 1760 H 170.584 -4.44558 2.82269 0
M  V30 1761 H 173.075 -2.95567 2.35475 0
M  V30 1762 H 173.388 -5.63487 5.28869 0
M  V30 1763 H 171.733 -5.07235 4.75119 0
M  V30 1764 H 174.924 -3.60806 2.98222 0
M  V30 1765 H 175.097 -4.82995 4.31995 0
M  V30 1766 N 168.503 -0.877838 -1.30888 0
M  V30 1767 C 169.466 -0.344265 -2.266 0
M  V30 1768 C 170.466 0.50922 -1.52524 0
M  V30 1769 O 171.656 0.317398 -1.71284 0
M  V30 1770 C 168.788 0.510198 -3.37061 0
M  V30 1771 H 169.981 -1.1893 -2.7531 0
M  V30 1772 H 167.534 -0.654088 -1.41956 0
M  V30 1773 H 168.269 1.37612 -2.93655 0
M  V30 1774 H 168.054 -0.101047 -3.9197 0
M  V30 1775 H 169.544 0.875537 -4.08319 0
M  V30 1776 N 169.982 1.44106 -0.638065 0
M  V30 1777 C 170.945 2.29138 0.0531013 0
M  V30 1778 C 171.945 1.41409 0.765506 0
M  V30 1779 O 173.135 1.63206 0.609046 0
M  V30 1780 C 170.267 3.23144 1.08584 0
M  V30 1781 H 171.46 2.91739 -0.694883 0
M  V30 1782 H 169.013 1.51134 -0.398538 0
M  V30 1783 H 169.748 2.65408 1.86357 0
M  V30 1784 H 169.533 3.87804 0.578852 0
M  V30 1785 H 171.023 3.87004 1.56899 0
M  V30 1786 N 171.46 0.379036 1.52974 0
M  V30 1787 C 172.423 -0.448865 2.24762 0
M  V30 1788 C 173.423 -0.998689 1.26027 0
M  V30 1789 O 174.613 -0.882313 1.50203 0
M  V30 1790 C 171.745 -1.62872 2.99476 0
M  V30 1791 H 172.938 0.179491 2.99362 0
M  V30 1792 H 170.491 0.13096 1.5575 0
M  V30 1793 H 171.226 -2.29479 2.29151 0
M  V30 1794 H 171.011 -1.24128 3.71934 0
M  V30 1795 H 172.501 -2.2151 3.5401 0
M  V30 1796 N 172.938 -1.57226 0.108567 0
M  V30 1797 C 173.868 -2.17778 -0.84232 0
M  V30 1798 C 174.849 -1.11487 -1.2847 0
M  V30 1799 O 176.034 -1.39681 -1.34918 0
M  V30 1800 C 173.164 -2.76888 -2.09644 0
M  V30 1801 C 172.118 -3.88669 -1.79221 0
M  V30 1802 C 171.444 -4.34541 -3.11574 0
M  V30 1803 C 172.744 -5.11251 -1.06864 0
M  V30 1804 H 174.438 -2.97489 -0.337774 0
M  V30 1805 H 171.984 -1.43097 -0.161025 0
M  V30 1806 H 173.937 -3.17904 -2.76614 0
M  V30 1807 H 172.661 -1.94451 -2.62405 0
M  V30 1808 H 171.32 -3.48213 -1.14644 0
M  V30 1809 H 170.968 -3.48977 -3.62249 0
M  V30 1810 H 170.668 -5.09914 -2.91996 0
M  V30 1811 H 172.192 -4.782 -3.7968 0
M  V30 1812 H 173.606 -5.49352 -1.63968 0
M  V30 1813 H 172.003 -5.9214 -0.974178 0
M  V30 1814 H 173.073 -4.8487 -0.0536168 0
M  V30 1815 N 174.416 0.165178 -1.56732 0
M  V30 1816 C 175.832 0.517174 -1.50988 0
M  V30 1817 C 176.032 1.84331 -0.813894 0
M  V30 1818 O 175.088 2.49672 -0.37682 0
M  V30 1819 C 176.401 0.544261 -2.95733 0
M  V30 1820 C 177.949 0.631039 -3.06573 0
M  V30 1821 C 178.424 0.68896 -4.52788 0
M  V30 1822 N 179.915 0.751683 -4.5706 0
M  V30 1823 C 180.65 0.817177 -5.67547 0
M  V30 1824 N 180.146 0.843129 -6.8765 0
M  V30 1825 N 181.939 0.856668 -5.55534 0
M  V30 1826 H 174.09 -0.704318 -2.00382 0
M  V30 1827 H 176.353 -0.254687 -0.913148 0
M  V30 1828 H 176.059 -0.361607 -3.49836 0
M  V30 1829 H 175.933 1.3886 -3.5071 0
M  V30 1830 H 178.32 1.52733 -2.52501 0
M  V30 1831 H 178.401 -0.240095 -2.54671 0
M  V30 1832 H 178.045 -0.2031 -5.07494 0
M  V30 1833 H 177.975 1.57633 -5.02454 0
M  V30 1834 H 180.466 0.739661 -3.70591 0
M  V30 1835 H 180.779 0.894448 -7.67606 0
M  V30 1836 H 179.124 0.811304 -6.90248 0
M  V30 1837 H 182.315 0.833437 -4.60621 0
M  V30 1838 H 182.488 0.904247 -6.4166 0
M  V30 1839 N 175.894 1.51508 0.433938 0
M  V30 1840 C 176.824 1.76016 1.53429 0
M  V30 1841 C 177.805 0.610112 1.58782 0
M  V30 1842 O 178.99 0.853177 1.74455 0
M  V30 1843 C 176.12 1.88831 2.9148 0
M  V30 1844 C 175.074 3.04288 3.00987 0
M  V30 1845 C 174.4 3.0229 4.4105 0
M  V30 1846 C 175.7 4.44193 2.74754 0
M  V30 1847 H 177.394 2.68152 1.33171 0
M  V30 1848 H 174.94 1.29035 0.639214 0
M  V30 1849 H 176.893 2.04559 3.6842 0
M  V30 1850 H 175.617 0.933455 3.12976 0
M  V30 1851 H 174.276 2.8827 2.26486 0
M  V30 1852 H 173.924 2.04576 4.59519 0
M  V30 1853 H 173.624 3.79822 4.4834 0
M  V30 1854 H 175.148 3.20116 5.1996 0
M  V30 1855 H 176.562 4.60544 3.41426 0
M  V30 1856 H 174.959 5.23457 2.9345 0
M  V30 1857 H 176.029 4.53996 1.70339 0
M  V30 1858 N 177.372 -0.689602 1.41712 0
M  V30 1859 C 178.304 -1.815 1.39966 0
M  V30 1860 C 179.317 -1.59995 0.300917 0
M  V30 1861 O 180.506 -1.69387 0.563039 0
M  V30 1862 C 177.606 -3.18364 1.16179 0
M  V30 1863 C 176.779 -3.66847 2.38206 0
M  V30 1864 C 175.838 -4.82398 2.10186 0
M  V30 1865 O 174.864 -4.93706 2.83272 0
M  V30 1866 N 176.066 -5.70064 1.0958 0
M  V30 1867 H 178.831 -1.83488 2.36965 0
M  V30 1868 H 176.392 -0.872149 1.36401 0
M  V30 1869 H 178.384 -3.93301 0.953756 0
M  V30 1870 H 176.954 -3.11365 0.27756 0
M  V30 1871 H 176.174 -2.82751 2.74673 0
M  V30 1872 H 177.462 -3.95978 3.19498 0
M  V30 1873 H 176.86 -5.63565 0.491019 0
M  V30 1874 H 175.417 -6.44874 0.947656 0
M  V30 1875 N 178.85 -1.27639 -0.924453 0
M  V30 1876 C 180.266 -1.05113 -1.20097 0
M  V30 1877 C 180.466 0.213262 -2.00368 0
M  V30 1878 O 179.522 0.91787 -2.35226 0
M  V30 1879 C 180.835 -2.29244 -1.94596 0
M  V30 1880 C 182.383 -2.34315 -2.07522 0
M  V30 1881 C 182.858 -3.58183 -2.85427 0
M  V30 1882 N 184.349 -3.5876 -2.92994 0
M  V30 1883 C 185.084 -4.51277 -3.53746 0
M  V30 1884 N 184.58 -5.54102 -4.15863 0
M  V30 1885 N 186.373 -4.38894 -3.51181 0
M  V30 1886 H 178.524 -2.08821 -0.388264 0
M  V30 1887 H 180.787 -0.918568 -0.234385 0
M  V30 1888 H 180.493 -3.21301 -1.43034 0
M  V30 1889 H 180.367 -2.34816 -2.95197 0
M  V30 1890 H 182.754 -1.42762 -2.58269 0
M  V30 1891 H 182.835 -2.32744 -1.06131 0
M  V30 1892 H 182.479 -4.50074 -2.35363 0
M  V30 1893 H 182.409 -3.57006 -3.8711 0
M  V30 1894 H 184.9 -2.84398 -2.4885 0
M  V30 1895 H 185.213 -6.20859 -4.60168 0
M  V30 1896 H 183.558 -5.57941 -4.144 0
M  V30 1897 H 186.749 -3.57772 -3.01856 0
M  V30 1898 H 186.922 -5.11186 -3.98237 0
M  V30 1899 N 180.328 1.1314 -1.09713 0
M  V30 1900 C 181.261 2.17735 -0.683137 0
M  V30 1901 C 182.239 1.59582 0.311841 0
M  V30 1902 O 183.423 1.87298 0.212514 0
M  V30 1903 C 180.55 3.38699 -0.00684324 0
M  V30 1904 C 179.596 4.1546 -0.964102 0
M  V30 1905 S 180.429 4.74733 -2.47767 0
M  V30 1906 C 181.585 5.9904 -1.81387 0
M  V30 1907 H 181.818 2.52515 -1.56918 0
M  V30 1908 H 179.351 1.24484 -0.913404 0
M  V30 1909 H 181.309 4.08765 0.377044 0
M  V30 1910 H 179.97 3.02214 0.85589 0
M  V30 1911 H 179.163 5.02093 -0.43803 0
M  V30 1912 H 178.765 3.51066 -1.28953 0
M  V30 1913 H 181.057 6.67846 -1.13967 0
M  V30 1914 H 182 6.56261 -2.65947 0
M  V30 1915 H 182.408 5.4976 -1.28155 0
M  V30 1916 N 181.806 0.884767 1.30421 0
M  V30 1917 C 183.083 0.423185 1.90967 0
M  V30 1918 C 183.463 -1.09605 1.80416 0
M  V30 1919 O 182.811 -1.93126 1.22125 0
M  V30 1920 C 183.021 0.921056 3.36627 0
M  V30 1921 C 184.369 0.955903 4.137 0
M  V30 1922 O 185.393 0.867706 3.4547 0
M  V30 1923 O 184.252 1.08614 5.35598 0
M  V30 1924 H 181.346 0.129369 0.816819 0
M  V30 1925 H 183.892 0.973653 1.3899 0
M  V30 1926 H 182.664 1.96489 3.3839 0
M  V30 1927 H 182.287 0.349741 3.96059 0
M  V30 1928 N 183.284 -1.43765 0.645699 0
M  V30 1929 C 184.533 -2.01116 0.153412 0
M  V30 1930 C 184.846 -1.51493 -1.23731 0
M  V30 1931 O 186.052 -2.01067 -1.8244 0
M  V30 1932 C 184.508 -3.59206 0.223473 0
M  V30 1933 C 184.116 -4.17823 1.61642 0
M  V30 1934 C 185.86 -4.23972 -0.211597 0
M  V30 1935 C 183.767 -5.68183 1.64081 0
M  V30 1936 H 182.697 -0.752093 0.0535891 0
M  V30 1937 H 185.348 -1.6482 0.806633 0
M  V30 1938 H 183.73 -3.92867 -0.497118 0
M  V30 1939 H 184.904 -3.95674 2.36176 0
M  V30 1940 H 183.219 -3.65399 1.99681 0
M  V30 1941 H 185.816 -5.34275 -0.213112 0
M  V30 1942 H 186.159 -3.97352 -1.24165 0
M  V30 1943 H 186.692 -3.95166 0.456988 0
M  V30 1944 H 183.431 -5.99559 2.64971 0
M  V30 1945 H 182.951 -5.9241 0.938611 0
M  V30 1946 H 184.63 -6.32085 1.3812 0
M  V30 1947 N 184.763 -0.387143 -1.52771 0
M  V30 1948 C 186.174 0.0873634 -1.86495 0
M  V30 1949 C 186.525 1.46336 -1.30691 0
M  V30 1950 O 185.65 2.068 -0.637409 0
M  V30 1951 C 186.245 0.165305 -3.38396 0
M  V30 1952 C 184.804 0.584101 -3.7184 0
M  V30 1953 C 183.951 -0.255279 -2.76122 0
M  V30 1954 H 186.902 -0.605104 -1.46711 0
M  V30 1955 H 186.923 0.984848 -3.67534 0
M  V30 1956 H 186.435 -0.836301 -3.78982 0
M  V30 1957 H 184.536 1.59315 -3.36823 0
M  V30 1958 H 184.649 0.343749 -4.77865 0
M  V30 1959 H 183.013 0.279126 -2.53166 0
M  V30 1960 H 183.796 -1.25482 -3.19545 0
M  V30 1961 N 186.241 1.57166 -0.116904 0
M  V30 1962 C 187.204 2.14039 0.819742 0
M  V30 1963 C 188.204 1.07477 1.19605 0
M  V30 1964 O 189.394 1.33263 1.1219 0
M  V30 1965 C 186.526 2.67891 2.10826 0
M  V30 1966 H 187.719 2.98128 0.325511 0
M  V30 1967 H 185.272 1.55739 0.132312 0
M  V30 1968 H 186.007 1.87384 2.64685 0
M  V30 1969 H 185.792 3.45823 1.84793 0
M  V30 1970 H 187.282 3.11809 2.77785 0
M  V30 1971 N 187.719 -0.156864 1.56817 0
M  V30 1972 C 188.949 -0.885031 1.86684 0
M  V30 1973 C 189.357 -1.75696 0.701954 0
M  V30 1974 O 188.7 -1.80569 -0.337732 0
M  V30 1975 C 188.762 -1.80092 3.11138 0
M  V30 1976 C 188.426 -1.10714 4.43386 0
M  V30 1977 C 189.423 -0.465714 5.1781 0
M  V30 1978 C 187.108 -1.09959 4.90117 0
M  V30 1979 C 189.102 0.174002 6.37162 0
M  V30 1980 C 186.789 -0.456055 6.09396 0
M  V30 1981 C 187.787 0.179622 6.82764 0
M  V30 1982 O 187.475 0.812975 7.99779 0
M  V30 1983 H 187.207 -0.261813 0.623242 0
M  V30 1984 H 189.761 -0.157383 2.04796 0
M  V30 1985 H 187.991 -2.56926 2.89009 0
M  V30 1986 H 189.68 -2.40018 3.27332 0
M  V30 1987 H 190.446 -0.463427 4.82781 0
M  V30 1988 H 186.325 -1.58378 4.3294 0
M  V30 1989 H 189.869 0.670765 6.94368 0
M  V30 1990 H 185.766 -0.455975 6.43888 0
M  V30 1991 H 186.534 0.71366 8.15383 0
M  V30 1992 N 189.197 -1.51736 -0.425897 0
M  V30 1993 C 190.144 -1.73875 -1.51776 0
M  V30 1994 C 191.114 -0.580702 -1.55618 0
M  V30 1995 O 192.299 -0.81641 -1.72451 0
M  V30 1996 C 189.439 -1.88012 -2.89388 0
M  V30 1997 C 188.552 -3.15606 -2.94986 0
M  V30 1998 C 187.687 -3.20271 -4.23793 0
M  V30 1999 C 186.726 -4.42134 -4.23302 0
M  V30 2000 N 185.863 -4.44284 -5.43651 0
M  V30 2001 H 190.703 -2.67071 -1.32201 0
M  V30 2002 H 188.24 -1.32351 -0.642008 0
M  V30 2003 H 190.198 -1.9419 -3.69251 0
M  V30 2004 H 188.828 -0.98213 -3.07496 0
M  V30 2005 H 187.88 -3.18681 -2.07717 0
M  V30 2006 H 189.192 -4.05486 -2.90486 0
M  V30 2007 H 188.346 -3.25428 -5.12036 0
M  V30 2008 H 187.085 -2.28299 -4.30965 0
M  V30 2009 H 186.09 -4.3714 -3.3345 0
M  V30 2010 H 187.315 -5.35382 -4.17783 0
M  V30 2011 H 185.261 -3.55188 -5.51523 0
M  V30 2012 H 185.178 -5.27988 -5.41078 0
M  V30 2013 H 186.446 -4.53649 -6.33895 0
M  V30 2014 N 190.675 0.682077 -1.42076 0
M  V30 2015 C 191.924 1.43786 -1.41451 0
M  V30 2016 C 192.237 1.95574 -0.0317074 0
M  V30 2017 O 193.443 2.71326 0.0971462 0
M  V30 2018 C 191.899 2.60071 -2.48779 0
M  V30 2019 C 191.507 2.15013 -3.93031 0
M  V30 2020 C 193.251 3.37626 -2.57311 0
M  V30 2021 C 191.158 3.28336 -4.91883 0
M  V30 2022 H 190.088 0.540143 -0.526082 0
M  V30 2023 H 192.739 0.739157 -1.67955 0
M  V30 2024 H 191.121 3.32275 -2.15429 0
M  V30 2025 H 192.295 1.5001 -4.35699 0
M  V30 2026 H 190.61 1.50416 -3.88284 0
M  V30 2027 H 193.207 4.22012 -3.28345 0
M  V30 2028 H 193.55 3.83727 -1.61429 0
M  V30 2029 H 194.083 2.72488 -2.89819 0
M  V30 2030 H 190.822 2.87234 -5.89217 0
M  V30 2031 H 190.342 3.92145 -4.53853 0
M  V30 2032 H 192.021 3.93913 -5.13265 0
M  V30 2033 N 192.153 1.28127 0.917671 0
M  V30 2034 C 193.401 1.14825 1.66312 0
M  V30 2035 C 193.722 -0.304379 1.9261 0
M  V30 2036 O 192.992 -1.21149 1.53947 0
M  V30 2037 H 191.572 0.421953 0.616413 0
M  V30 2038 H 194.234 1.608 1.10134 0
M  V30 2039 H 193.33 1.68489 2.62712 0
M  V30 2040 N 193.631 -1.12557 1.10312 0
M  V30 2041 C 194.856 -1.88405 0.867085 0
M  V30 2042 C 195.281 -1.79038 -0.576817 0
M  V30 2043 O 194.639 -1.14439 -1.40618 0
M  V30 2044 C 194.687 -3.3563 1.31851 0
M  V30 2045 O 193.791 -4.09565 0.482734 0
M  V30 2046 H 193.132 -0.585455 0.313271 0
M  V30 2047 H 195.662 -1.42352 1.4696 0
M  V30 2048 H 195.672 -3.86469 1.3079 0
M  V30 2049 H 194.347 -3.41765 2.37001 0
M  V30 2050 H 192.924 -3.68695 0.558448 0
M  V30 2051 N 195.109 -0.891671 -1.2995 0
M  V30 2052 C 196.357 -0.512486 -1.95494 0
M  V30 2053 C 196.678 0.942776 -1.70695 0
M  V30 2054 O 195.948 1.66374 -1.03424 0
M  V30 2055 H 194.528 -0.186533 -0.723336 0
M  V30 2056 H 197.19 -1.13621 -1.58355 0
M  V30 2057 H 196.286 -0.688342 -3.04415 0
M  V30 2058 N 196.587 1.43421 -0.653314 0
M  V30 2059 C 197.497 2.34568 0.0388565 0
M  V30 2060 C 198.513 1.53888 0.81207 0
M  V30 2061 O 199.689 1.86539 0.759294 0
M  V30 2062 C 196.754 3.32167 0.993269 0
M  V30 2063 C 195.815 4.28751 0.216977 0
M  V30 2064 C 195.048 5.21688 1.12593 0
M  V30 2065 O 195.271 5.19052 2.36519 0
M  V30 2066 O 194.205 5.98919 0.598284 0
M  V30 2067 H 198.031 2.95251 -0.711386 0
M  V30 2068 H 195.616 1.43564 -0.413502 0
M  V30 2069 H 197.498 3.92183 1.54176 0
M  V30 2070 H 196.173 2.73987 1.72374 0
M  V30 2071 H 195.08 3.72215 -0.375101 0
M  V30 2072 H 196.413 4.89913 -0.473924 0
M  V30 2073 N 198.065 0.39524 1.52563 0
M  V30 2074 C 199.305 -0.184744 2.03563 0
M  V30 2075 C 199.669 -1.43548 1.27507 0
M  V30 2076 O 200.87 -2.093 1.68662 0
M  V30 2077 C 199.141 -0.440294 3.54678 0
M  V30 2078 S 200.7 -0.989712 4.27493 0
M  V30 2079 H 197.518 -0.0515075 0.709132 0
M  V30 2080 H 200.12 0.544957 1.87751 0
M  V30 2081 H 198.824 0.477005 4.07618 0
M  V30 2082 H 198.355 -1.19825 3.74707 0
M  V30 2083 H 200.37 -2.27155 4.41152 0
M  V30 2084 N 199.544 -1.57102 0.125237 0
M  V30 2085 C 200.492 -2.16905 -0.839927 0
M  V30 2086 C 201.486 -1.11998 -1.27094 0
M  V30 2087 O 202.692 -1.3029 -1.24195 0
M  V30 2088 H 199.067 -0.694252 -0.288995 0
M  V30 2089 H 201.038 -2.96774 -0.311115 0
M  V30 2090 C 199.787 -2.78795 -2.07771 0
M  V30 2091 H 199.11 -3.59221 -1.755 0
M  V30 2092 H 200.55 -3.2417 -2.73295 0
M  V30 2093 C 199.009 -1.76193 -2.87155 0
M  V30 2094 O 199.539 -1.21909 -3.82755 0
M  V30 2095 N 197.745 -1.45991 -2.51267 0
M  V30 2096 H 197.292 -1.90325 -1.73592 0
M  V30 2097 H 197.25 -0.775844 -3.04677 0
M  V30 2098 N 201.022 0.148545 -1.56898 0
M  V30 2099 C 201.97 1.20265 -1.99096 0
M  V30 2100 C 202.964 1.44559 -0.883123 0
M  V30 2101 O 204.17 1.4487 -1.0683 0
M  V30 2102 H 200.545 0.404786 -0.63376 0
M  V30 2103 H 202.516 0.82004 -2.86911 0
M  V30 2104 C 201.265 2.52886 -2.3863 0
M  V30 2105 H 200.588 2.35021 -3.23427 0
M  V30 2106 H 202.028 3.25274 -2.7198 0
M  V30 2107 C 200.487 3.13315 -1.23837 0
M  V30 2108 O 201.017 3.98077 -0.538268 0
M  V30 2109 N 199.223 2.72742 -1.00301 0
M  V30 2110 H 198.77 2.03912 -1.5741 0
M  V30 2111 H 198.728 3.13507 -0.236838 0
M  V30 2112 N 202.5 1.5196 0.417844 0
M  V30 2113 C 203.73 1.69181 1.18581 0
M  V30 2114 C 204.138 0.397104 1.84986 0
M  V30 2115 O 203.481 -0.636011 1.72339 0
M  V30 2116 C 203.543 2.76497 2.29759 0
M  V30 2117 C 203.207 4.18514 1.83563 0
M  V30 2118 C 204.204 5.02648 1.32821 0
M  V30 2119 C 201.889 4.64708 1.90661 0
M  V30 2120 C 203.883 6.31044 0.897894 0
M  V30 2121 C 201.57 5.93096 1.47241 0
M  V30 2122 C 202.568 6.76093 0.968891 0
M  V30 2123 O 202.256 8.02078 0.540924 0
M  V30 2124 H 201.988 0.570457 0.362705 0
M  V30 2125 H 204.542 1.99249 0.498885 0
M  V30 2126 H 202.772 2.41786 3.01789 0
M  V30 2127 H 204.461 2.82403 2.91553 0
M  V30 2128 H 205.227 4.68154 1.26716 0
M  V30 2129 H 201.106 4.00216 2.28797 0
M  V30 2130 H 204.65 6.95776 0.504192 0
M  V30 2131 H 200.547 6.271 1.53022 0
M  V30 2132 H 201.315 8.15794 0.66502 0
M  V30 2133 N 203.978 -0.674533 1.42435 0
M  V30 2134 C 205.389 -1.25514 1.38214 0
M  V30 2135 C 205.74 -1.96055 0.0755464 0
M  V30 2136 O 204.865 -2.00028 -0.8257 0
M  V30 2137 C 205.46 -2.28269 2.50357 0
M  V30 2138 C 204.019 -2.81856 2.49467 0
M  V30 2139 C 203.166 -1.56182 2.29134 0
M  V30 2140 H 206.117 -0.467902 1.51646 0
M  V30 2141 H 206.138 -3.10009 2.20624 0
M  V30 2142 H 205.65 -1.769 3.45439 0
M  V30 2143 H 203.751 -3.37346 1.58204 0
M  V30 2144 H 203.864 -3.30854 3.46515 0
M  V30 2145 H 202.228 -1.82761 1.774 0
M  V30 2146 H 203.011 -1.06778 3.26272 0
M  V30 2147 N 205.456 -1.28612 -0.910864 0
M  V30 2148 C 206.386 -1.15326 -2.03032 0
M  V30 2149 C 207.367 -0.0502924 -1.70026 0
M  V30 2150 O 208.552 -0.227797 -1.92859 0
M  V30 2151 C 205.682 -0.817343 -3.37545 0
M  V30 2152 C 204.636 -1.8754 -3.84724 0
M  V30 2153 C 203.962 -1.39305 -5.16235 0
M  V30 2154 C 205.262 -3.28244 -4.06267 0
M  V30 2155 H 206.956 -2.08975 -2.14406 0
M  V30 2156 H 204.502 -1.00612 -1.03021 0
M  V30 2157 H 206.455 -0.711151 -4.15356 0
M  V30 2158 H 205.179 0.154846 -3.26233 0
M  V30 2159 H 203.838 -1.97079 -3.09121 0
M  V30 2160 H 203.486 -0.409846 -5.01328 0
M  V30 2161 H 203.186 -2.10057 -5.48771 0
M  V30 2162 H 204.71 -1.30014 -5.96598 0
M  V30 2163 H 206.124 -3.21611 -4.74594 0
M  V30 2164 H 204.521 -3.96855 -4.5014 0
M  V30 2165 H 205.591 -3.72048 -3.10979 0
M  V30 2166 N 206.934 1.1197 -1.10907 0
M  V30 2167 C 208.183 1.82947 -0.849302 0
M  V30 2168 C 208.496 1.85275 0.627112 0
M  V30 2169 O 209.702 2.52296 1.00295 0
M  V30 2170 C 208.158 3.28529 -1.46959 0
M  V30 2171 C 207.766 3.34546 -2.97965 0
M  V30 2172 C 209.51 4.04443 -1.28942 0
M  V30 2173 C 207.417 4.74491 -3.53004 0
M  V30 2174 H 206.347 0.685477 -0.314065 0
M  V30 2175 H 208.998 1.2604 -1.33365 0
M  V30 2176 H 207.38 3.85333 -0.912917 0
M  V30 2177 H 208.554 2.87654 -3.59989 0
M  V30 2178 H 206.869 2.72108 -3.15192 0
M  V30 2179 H 209.466 5.07787 -1.67502 0
M  V30 2180 H 209.809 4.15656 -0.231456 0
M  V30 2181 H 210.342 3.5401 -1.81443 0
M  V30 2182 H 207.081 4.68474 -4.58489 0
M  V30 2183 H 206.601 5.21816 -2.9575 0
M  V30 2184 H 208.28 5.4344 -3.51115 0
M  V30 2185 N 208.412 0.89855 1.29475 0
M  V30 2186 C 209.359 0.373819 2.27753 0
M  V30 2187 C 210.329 -0.543444 1.56958 0
M  V30 2188 O 211.514 -0.468934 1.84948 0
M  V30 2189 C 208.654 -0.393648 3.42848 0
M  V30 2190 C 207.767 0.554379 4.28428 0
M  V30 2191 C 206.902 -0.230026 5.30702 0
M  V30 2192 C 205.941 0.712599 6.07938 0
M  V30 2193 N 205.078 -0.0373283 7.0209 0
M  V30 2194 H 209.918 1.21699 2.72017 0
M  V30 2195 H 207.455 0.611456 1.33789 0
M  V30 2196 H 209.413 -0.85466 4.08352 0
M  V30 2197 H 208.043 -1.20128 2.99615 0
M  V30 2198 H 207.095 1.13391 3.63107 0
M  V30 2199 H 208.407 1.27597 4.82204 0
M  V30 2200 H 207.561 -0.752288 6.02018 0
M  V30 2201 H 206.3 -0.984758 4.77654 0
M  V30 2202 H 205.305 1.24637 5.35486 0
M  V30 2203 H 206.53 1.46664 6.63074 0
M  V30 2204 H 204.476 -0.774348 6.51414 0
M  V30 2205 H 204.393 0.624374 7.53417 0
M  V30 2206 H 205.661 -0.539891 7.77628 0
M  V30 2207 N 209.89 -1.43072 0.660911 0
M  V30 2208 C 210.82 -2.33497 -0.0122829 0
M  V30 2209 C 211.801 -1.49903 -0.803925 0
M  V30 2210 O 212.986 -1.78546 -0.763864 0
M  V30 2211 C 210.116 -3.33363 -0.973994 0
M  V30 2212 C 209.07 -4.27003 -0.291928 0
M  V30 2213 C 208.396 -5.16967 -1.36562 0
M  V30 2214 C 209.696 -5.15816 0.820462 0
M  V30 2215 H 211.39 -2.90038 0.742873 0
M  V30 2216 H 208.936 -1.39461 0.358688 0
M  V30 2217 H 210.889 -3.95524 -1.45392 0
M  V30 2218 H 209.613 -2.75095 -1.7604 0
M  V30 2219 H 208.272 -3.66217 0.167623 0
M  V30 2220 H 207.92 -4.55034 -2.14366 0
M  V30 2221 H 207.62 -5.80441 -0.914454 0
M  V30 2222 H 209.144 -5.82003 -1.84675 0
M  V30 2223 H 210.558 -5.71742 0.422366 0
M  V30 2224 H 208.955 -5.8805 1.19656 0
M  V30 2225 H 210.025 -4.55045 1.67518 0
M  V30 2226 N 211.368 -0.403325 -1.52352 0
M  V30 2227 C 212.614 0.174605 -2.02047 0
M  V30 2228 C 212.947 1.45282 -1.28867 0
M  V30 2229 O 212.222 1.90483 -0.393257 0
M  V30 2230 C 212.505 0.428238 -3.57545 0
M  V30 2231 C 212.358 -0.866248 -4.4138 0
M  V30 2232 C 213.677 1.21287 -4.23057 0
M  V30 2233 H 210.796 0.0619851 -0.734389 0
M  V30 2234 H 213.438 -0.53565 -1.82293 0
M  V30 2235 H 211.588 1.03327 -3.74507 0
M  V30 2236 H 213.26 -1.50265 -4.3614 0
M  V30 2237 H 211.503 -1.47851 -4.07827 0
M  V30 2238 H 212.174 -0.643249 -5.48239 0
M  V30 2239 H 214.65 0.700703 -4.10158 0
M  V30 2240 H 213.526 1.35909 -5.31808 0
M  V30 2241 H 213.787 2.23193 -3.81625 0
M  V30 2242 N 212.846 1.57033 -0.133567 0
M  V30 2243 C 213.809 2.14897 0.796995 0
M  V30 2244 C 214.809 1.0874 1.18458 0
M  V30 2245 O 215.999 1.34446 1.1077 0
M  V30 2246 C 213.131 2.70112 2.07973 0
M  V30 2247 H 214.324 2.98457 0.293873 0
M  V30 2248 H 211.877 1.55871 0.115787 0
M  V30 2249 H 212.612 1.9018 2.62682 0
M  V30 2250 H 212.397 3.47764 1.81115 0
M  V30 2251 H 213.887 3.14738 2.74462 0
M  V30 2252 N 214.325 -0.140222 1.56975 0
M  V30 2253 C 215.55 -0.870414 1.88251 0
M  V30 2254 C 215.975 -1.73637 0.723312 0
M  V30 2255 O 215.333 -1.78329 -0.32689 0
M  V30 2256 C 215.381 -1.69737 3.18154 0
M  V30 2257 O 214.485 -2.80229 3.02565 0
M  V30 2258 H 213.826 -0.242025 0.61832 0
M  V30 2259 H 216.356 -0.128999 2.04193 0
M  V30 2260 H 216.366 -2.09099 3.50345 0
M  V30 2261 H 215.041 -1.06152 4.02125 0
M  V30 2262 H 213.618 -2.44224 2.81796 0
M  V30 2263 N 215.803 -1.52179 -0.40978 0
M  V30 2264 C 217.05 -1.66206 -1.15679 0
M  V30 2265 C 217.378 -0.391674 -1.90516 0
M  V30 2266 O 216.633 0.62533 -1.8544 0
M  V30 2267 C 216.932 -2.83428 -2.17723 0
M  V30 2268 C 216.598 -4.21672 -1.59699 0
M  V30 2269 C 215.26 -4.59274 -1.43599 0
M  V30 2270 C 217.612 -5.07825 -1.17317 0
M  V30 2271 C 214.94 -5.80709 -0.836328 0
M  V30 2272 C 217.292 -6.29864 -0.587691 0
M  V30 2273 C 215.956 -6.66216 -0.413818 0
M  V30 2274 H 215.226 -0.608192 -0.423301 0
M  V30 2275 H 217.873 -1.86279 -0.444097 0
M  V30 2276 H 216.178 -2.57687 -2.95135 0
M  V30 2277 H 217.875 -2.91477 -2.75394 0
M  V30 2278 H 214.465 -3.9204 -1.73213 0
M  V30 2279 H 218.649 -4.79359 -1.28565 0
M  V30 2280 H 213.905 -6.07498 -0.689626 0
M  V30 2281 H 218.079 -6.95948 -0.250894 0
M  V30 2282 H 215.706 -7.60182 0.0529471 0
M  V30 2283 N 217.281 0.66697 -1.42791 0
M  V30 2284 C 218.529 1.42417 -1.43394 0
M  V30 2285 C 218.85 1.94925 -0.0542373 0
M  V30 2286 O 218.12 1.73564 0.908415 0
M  V30 2287 H 216.7 0.528515 -0.527902 0
M  V30 2288 H 219.362 0.787562 -1.78279 0
M  V30 2289 H 218.458 2.27333 -2.13837 0
M  V30 2290 N 218.759 1.29093 0.90403 0
M  V30 2291 C 219.706 1.13853 2.00764 0
M  V30 2292 C 220.676 0.0330084 1.66067 0
M  V30 2293 O 221.861 0.199733 1.89752 0
M  V30 2294 C 219.001 0.816537 3.35301 0
M  V30 2295 C 218.114 2.00206 3.82807 0
M  V30 2296 C 217.249 1.61983 5.059 0
M  V30 2297 C 216.288 2.77143 5.45764 0
M  V30 2298 N 215.425 2.39346 6.60044 0
M  V30 2299 H 220.265 2.08276 2.13132 0
M  V30 2300 H 217.802 1.03648 1.04381 0
M  V30 2301 H 219.76 0.610557 4.12708 0
M  V30 2302 H 218.39 -0.090779 3.22672 0
M  V30 2303 H 217.442 2.31988 3.01473 0
M  V30 2304 H 218.754 2.86512 4.08304 0
M  V30 2305 H 217.908 1.37649 5.90879 0
M  V30 2306 H 216.647 0.728202 4.82233 0
M  V30 2307 H 215.652 3.02165 4.59322 0
M  V30 2308 H 216.877 3.66964 5.71414 0
M  V30 2309 H 214.823 1.52665 6.37989 0
M  V30 2310 H 214.74 3.19185 6.85315 0
M  V30 2311 H 216.008 2.1832 7.48303 0
M  V30 2312 N 220.237 -1.11381 1.11499 0
M  V30 2313 C 221.648 -1.6465 0.880191 0
M  V30 2314 C 221.999 -1.87199 -0.587434 0
M  V30 2315 O 221.124 -1.60667 -1.44966 0
M  V30 2316 C 221.719 -2.99105 1.59128 0
M  V30 2317 C 220.278 -3.49279 1.40289 0
M  V30 2318 C 219.425 -2.24077 1.63354 0
M  V30 2319 H 222.376 -0.950123 1.27116 0
M  V30 2320 H 222.397 -3.66107 1.03664 0
M  V30 2321 H 221.909 -2.82661 2.65941 0
M  V30 2322 H 220.01 -3.70887 0.356888 0
M  V30 2323 H 220.123 -4.2803 2.15238 0
M  V30 2324 H 218.487 -2.31733 1.05698 0
M  V30 2325 H 219.27 -2.10175 2.71443 0
M  V30 2326 N 221.715 -0.905404 -1.28997 0
M  V30 2327 C 222.964 -0.530191 -1.94607 0
M  V30 2328 C 223.277 0.929185 -1.72121 0
M  V30 2329 O 224.483 1.41218 -2.31883 0
M  V30 2330 C 222.939 -0.897333 -3.48534 0
M  V30 2331 C 222.547 -2.37587 -3.79811 0
M  V30 2332 C 224.291 -0.592304 -4.20347 0
M  V30 2333 C 222.198 -2.68357 -5.27009 0
M  V30 2334 H 221.128 -0.194558 -0.728466 0
M  V30 2335 H 223.779 -1.10318 -1.46636 0
M  V30 2336 H 222.161 -0.253214 -3.9519 0
M  V30 2337 H 223.335 -3.06602 -3.43994 0
M  V30 2338 H 221.65 -2.6505 -3.2115 0
M  V30 2339 H 224.247 -0.798975 -5.28697 0
M  V30 2340 H 224.59 0.469474 -4.13644 0
M  V30 2341 H 225.123 -1.19452 -3.79442 0
M  V30 2342 H 221.862 -3.73355 -5.38782 0
M  V30 2343 H 221.382 -2.03971 -5.64053 0
M  V30 2344 H 223.061 -2.54922 -5.94663 0
M  V30 2345 N 223.193 1.4272 -0.668489 0
M  V30 2346 C 224.442 2.00846 -0.185389 0
M  V30 2347 C 224.755 1.53442 1.21305 0
M  V30 2348 O 225.961 2.03944 1.79218 0
M  V30 2349 C 224.417 3.58805 -0.280591 0
M  V30 2350 C 224.025 4.15198 -1.68268 0
M  V30 2351 C 225.769 4.24255 0.14412 0
M  V30 2352 C 223.676 5.655 -1.73099 0
M  V30 2353 H 222.606 0.751145 -0.0655475 0
M  V30 2354 H 225.257 1.63516 -0.832752 0
M  V30 2355 H 223.639 3.93608 0.434553 0
M  V30 2356 H 224.813 3.91866 -2.42441 0
M  V30 2357 H 223.128 3.62176 -2.05469 0
M  V30 2358 H 225.725 5.34547 0.128086 0
M  V30 2359 H 226.068 3.99277 1.17827 0
M  V30 2360 H 226.601 3.94389 -0.519798 0
M  V30 2361 H 223.34 5.95268 -2.74475 0
M  V30 2362 H 222.86 5.90842 -1.03274 0
M  V30 2363 H 224.539 6.29808 -1.48158 0
M  V30 2364 N 224.671 0.411399 1.52136 0
M  V30 2365 C 225.601 -0.404015 2.29978 0
M  V30 2366 C 226.582 -1.04412 1.34284 0
M  V30 2367 O 227.767 -1.0527 1.63192 0
M  V30 2368 C 224.897 -1.5197 3.12286 0
M  V30 2369 C 223.851 -1.00448 4.16046 0
M  V30 2370 C 223.177 -2.21393 4.86712 0
M  V30 2371 C 224.477 -0.0569336 5.22269 0
M  V30 2372 H 226.171 0.245529 2.98392 0
M  V30 2373 H 223.717 0.119525 1.43503 0
M  V30 2374 H 225.67 -2.09715 3.6551 0
M  V30 2375 H 224.394 -2.19716 2.41646 0
M  V30 2376 H 223.053 -0.449421 3.63835 0
M  V30 2377 H 222.701 -2.87699 4.12599 0
M  V30 2378 H 222.401 -1.87571 5.56858 0
M  V30 2379 H 223.925 -2.7974 5.4275 0
M  V30 2380 H 225.339 -0.54325 5.7072 0
M  V30 2381 H 223.736 0.192594 5.99791 0
M  V30 2382 H 224.806 0.887663 4.76706 0
M  V30 2383 N 226.149 -1.5696 0.141893 0
M  V30 2384 C 227.374 -2.00754 -0.520838 0
M  V30 2385 C 227.799 -1.0213 -1.57959 0
M  V30 2386 O 227.157 0.00371324 -1.813 0
M  V30 2387 C 227.205 -3.43318 -1.10294 0
M  V30 2388 O 226.309 -3.47679 -2.21795 0
M  V30 2389 H 225.65 -0.651564 -0.127908 0
M  V30 2390 H 228.18 -2.03221 0.23712 0
M  V30 2391 H 228.19 -3.82012 -1.43287 0
M  V30 2392 H 226.865 -4.14608 -0.327574 0
M  V30 2393 H 225.442 -3.20824 -1.9007 0
M  V30 2394 N 227.627 0.131896 -1.57047 0
M  V30 2395 C 228.855 0.856461 -1.88341 0
M  V30 2396 C 229.27 1.74042 -0.731757 0
M  V30 2397 O 228.627 1.80051 0.297945 0
M  V30 2398 C 228.678 1.70064 -3.18999 0
M  V30 2399 O 228.399 0.852278 -4.2973 0
M  V30 2400 C 229.9 2.53148 -3.63911 0
M  V30 2401 H 227.12 0.246885 -0.62393 0
M  V30 2402 H 229.664 0.120152 -2.04147 0
M  V30 2403 H 227.819 2.38984 -3.04902 0
M  V30 2404 H 228.233 1.43329 -5.04537 0
M  V30 2405 H 229.707 3.07931 -4.58129 0
M  V30 2406 H 230.184 3.29901 -2.89935 0
M  V30 2407 H 230.79 1.89492 -3.80753 0
M  V30 2408 N 229.106 1.52395 0.401703 0
M  V30 2409 C 230.354 1.66488 1.14569 0
M  V30 2410 C 230.675 0.400897 1.90835 0
M  V30 2411 O 229.945 -0.584415 1.8698 0
M  V30 2412 H 228.525 0.613672 0.425929 0
M  V30 2413 H 231.187 1.89464 0.457093 0
M  V30 2414 H 230.283 2.50942 1.85566 0
M  V30 2415 N 230.584 -0.659388 1.43143 0
M  V30 2416 C 231.517 -1.78425 1.42267 0
M  V30 2417 C 232.495 -1.60085 0.284894 0
M  V30 2418 O 233.679 -1.82351 0.477527 0
M  V30 2419 C 230.806 -3.15642 1.22833 0
M  V30 2420 C 229.852 -3.52698 2.39806 0
M  V30 2421 S 230.685 -3.53372 4.02353 0
M  V30 2422 C 231.841 -4.93256 3.85291 0
M  V30 2423 H 232.074 -1.78897 2.37452 0
M  V30 2424 H 229.607 -0.831469 1.301 0
M  V30 2425 H 231.565 -3.94838 1.12308 0
M  V30 2426 H 230.226 -3.12739 0.29207 0
M  V30 2427 H 229.419 -4.52475 2.21996 0
M  V30 2428 H 229.021 -2.80899 2.46925 0
M  V30 2429 H 231.313 -5.81751 3.47235 0
M  V30 2430 H 232.256 -5.16115 4.84799 0
M  V30 2431 H 232.664 -4.665 3.17865 0
M  V30 2432 N 232.062 -1.29571 -0.897171 0
M  V30 2433 C 233.01 -1.14802 -2.02295 0
M  V30 2434 C 234.004 -0.0629637 -1.69283 0
M  V30 2435 O 235.21 -0.222945 -1.78614 0
M  V30 2436 H 231.585 -0.354692 -0.663097 0
M  V30 2437 H 233.556 -2.10108 -2.11889 0
M  V30 2438 C 232.305 -0.843966 -3.37302 0
M  V30 2439 H 231.628 -1.67093 -3.63208 0
M  V30 2440 H 233.068 -0.780672 -4.16751 0
M  V30 2441 C 231.527 0.452843 -3.33843 0
M  V30 2442 O 232.057 1.47813 -3.73516 0
M  V30 2443 N 230.263 0.459601 -2.86943 0
M  V30 2444 H 229.81 -0.375213 -2.54853 0
M  V30 2445 H 229.768 1.32726 -2.85011 0
M  V30 2446 N 233.54 1.10788 -1.12088 0
M  V30 2447 C 234.765 1.87002 -0.896949 0
M  V30 2448 C 235.19 1.79933 0.548261 0
M  V30 2449 O 234.548 1.16662 1.38779 0
M  V30 2450 C 234.596 3.3349 -1.37174 0
M  V30 2451 O 233.7 4.08745 -0.547831 0
M  V30 2452 H 233.041 0.580397 -0.322545 0
M  V30 2453 H 235.571 1.39996 -1.49206 0
M  V30 2454 H 235.581 3.84339 -1.36922 0
M  V30 2455 H 234.256 3.37951 -2.42408 0
M  V30 2456 H 232.833 3.6776 -0.617034 0
M  V30 2457 N 235.018 0.912232 1.28515 0
M  V30 2458 C 236.267 0.540504 1.94323 0
M  V30 2459 C 236.58 -0.920044 1.72611 0
M  V30 2460 O 237.786 -1.39986 2.32629 0
M  V30 2461 C 236.242 0.915803 3.48053 0
M  V30 2462 C 235.85 2.39598 3.78546 0
M  V30 2463 C 237.594 0.614588 4.20027 0
M  V30 2464 C 235.501 2.71148 5.25578 0
M  V30 2465 H 234.431 0.198418 0.727424 0
M  V30 2466 H 237.082 1.11094 1.46049 0
M  V30 2467 H 235.464 0.274168 3.9505 0
M  V30 2468 H 236.638 3.08422 3.42364 0
M  V30 2469 H 234.953 2.66749 3.1974 0
M  V30 2470 H 237.55 0.827002 5.28266 0
M  V30 2471 H 237.893 -0.447531 4.13887 0
M  V30 2472 H 238.426 1.21462 3.78803 0
M  V30 2473 H 235.165 3.76207 5.36794 0
M  V30 2474 H 234.685 2.0696 5.62963 0
M  V30 2475 H 236.364 2.58072 5.93302 0
M  V30 2476 N 236.496 -1.42363 0.676048 0
M  V30 2477 C 237.406 -2.346 -0.00153389 0
M  V30 2478 C 238.422 -1.5516 -0.787485 0
M  V30 2479 O 239.598 -1.87723 -0.729521 0
M  V30 2480 C 236.663 -3.33705 -0.940298 0
M  V30 2481 C 235.724 -4.29042 -0.148739 0
M  V30 2482 C 234.957 -5.23413 -1.04279 0
M  V30 2483 O 235.18 -5.22749 -2.28232 0
M  V30 2484 O 234.114 -5.99795 -0.502925 0
M  V30 2485 H 237.94 -2.94082 0.758268 0
M  V30 2486 H 235.525 -1.42888 0.436289 0
M  V30 2487 H 237.407 -3.94586 -1.47917 0
M  V30 2488 H 236.082 -2.76695 -1.67993 0
M  V30 2489 H 234.989 -3.71571 0.43427 0
M  V30 2490 H 236.322 -4.89097 0.551805 0
M  V30 2491 N 237.974 -0.419461 -1.51915 0
M  V30 2492 C 239.199 0.154572 -2.06823 0
M  V30 2493 C 239.624 1.3722 -1.28656 0
M  V30 2494 O 238.982 1.78461 -0.319583 0
M  V30 2495 C 239.03 0.473172 -3.57482 0
M  V30 2496 O 238.134 1.56255 -3.81652 0
M  V30 2497 H 237.475 0.0096924 -0.663929 0
M  V30 2498 H 240.005 -0.595642 -1.95738 0
M  V30 2499 H 240.015 0.728825 -4.01438 0
M  V30 2500 H 238.69 -0.416873 -4.13805 0
M  V30 2501 H 237.267 1.29825 -3.49571 0
M  V30 2502 N 239.452 1.56882 -0.150215 0
M  V30 2503 C 240.701 1.95403 0.500071 0
M  V30 2504 C 241.014 1.03777 1.658 0
M  V30 2505 O 242.22 1.31889 2.37313 0
M  V30 2506 C 240.676 3.4738 0.941018 0
M  V30 2507 C 240.284 4.47596 -0.190158 0
M  V30 2508 C 242.028 3.9476 1.56091 0
M  V30 2509 C 239.935 5.90787 0.269237 0
M  V30 2510 H 238.865 0.729515 0.190588 0
M  V30 2511 H 241.516 1.81988 -0.235074 0
M  V30 2512 H 239.898 3.56138 1.73152 0
M  V30 2513 H 241.072 4.50536 -0.967157 0
M  V30 2514 H 239.387 4.10151 -0.718666 0
M  V30 2515 H 241.984 4.99181 1.9163 0
M  V30 2516 H 242.327 3.36494 2.45107 0
M  V30 2517 H 242.86 3.88932 0.835249 0
M  V30 2518 H 239.599 6.52879 -0.585621 0
M  V30 2519 H 239.119 5.912 1.01204 0
M  V30 2520 H 240.798 6.42979 0.720176 0
M  V30 2521 N 240.93 -0.123565 1.57115 0
M  V30 2522 C 241.877 -1.15177 2.00007 0
M  V30 2523 C 242.847 -1.41403 0.871454 0
M  V30 2524 O 244.032 -1.53346 1.13533 0
M  V30 2525 C 241.172 -2.47436 2.40561 0
M  V30 2526 C 240.285 -2.28184 3.66819 0
M  V30 2527 C 239.42 -3.53641 3.96373 0
M  V30 2528 C 238.459 -3.29528 5.15827 0
M  V30 2529 N 237.596 -4.47175 5.41275 0
M  V30 2530 H 242.436 -0.779008 2.87638 0
M  V30 2531 H 239.973 -0.373166 1.42288 0
M  V30 2532 H 241.931 -3.24584 2.62109 0
M  V30 2533 H 240.561 -2.82614 1.55978 0
M  V30 2534 H 239.613 -1.41976 3.52912 0
M  V30 2535 H 240.925 -2.0634 4.5412 0
M  V30 2536 H 240.079 -4.39209 4.18545 0
M  V30 2537 H 238.818 -3.78512 3.07538 0
M  V30 2538 H 237.823 -2.42349 4.93505 0
M  V30 2539 H 239.048 -3.06031 6.06236 0
M  V30 2540 H 236.994 -4.72175 4.55397 0
M  V30 2541 H 236.911 -4.28419 6.22891 0
M  V30 2542 H 238.179 -5.3389 5.67963 0
M  V30 2543 N 242.408 -1.52605 -0.393616 0
M  V30 2544 C 243.355 -1.77055 -1.48054 0
M  V30 2545 C 244.325 -0.61358 -1.54352 0
M  V30 2546 O 245.51 -0.852806 -1.70681 0
M  V30 2547 C 242.65 -1.94108 -2.85335 0
M  V30 2548 C 241.763 -3.21792 -2.88226 0
M  V30 2549 C 240.898 -3.29188 -4.16904 0
M  V30 2550 C 239.937 -4.51013 -4.13828 0
M  V30 2551 N 239.074 -4.55716 -5.34105 0
M  V30 2552 H 243.914 -2.69815 -1.26506 0
M  V30 2553 H 241.451 -1.33683 -0.61379 0
M  V30 2554 H 243.409 -2.01979 -3.65049 0
M  V30 2555 H 242.039 -1.04713 -3.05344 0
M  V30 2556 H 241.091 -3.23015 -2.00911 0
M  V30 2557 H 242.403 -4.11557 -2.8182 0
M  V30 2558 H 241.557 -3.36216 -5.05018 0
M  V30 2559 H 240.296 -2.37389 -4.26026 0
M  V30 2560 H 239.301 -4.44115 -3.24102 0
M  V30 2561 H 240.526 -5.44123 -4.06333 0
M  V30 2562 H 238.472 -3.66807 -5.43865 0
M  V30 2563 H 238.389 -5.39346 -5.29756 0
M  V30 2564 H 239.657 -4.66993 -6.2413 0
M  V30 2565 N 243.887 0.651787 -1.4349 0
M  V30 2566 C 245.112 1.44434 -1.48841 0
M  V30 2567 C 245.537 1.8779 -0.107955 0
M  V30 2568 O 244.895 1.57464 0.898602 0
M  V30 2569 C 244.943 2.65458 -2.44059 0
M  V30 2570 O 244.047 3.64566 -1.92784 0
M  V30 2571 H 243.388 0.433005 -0.503391 0
M  V30 2572 H 245.918 0.797451 -1.88419 0
M  V30 2573 H 245.928 3.13255 -2.6141 0
M  V30 2574 H 244.603 2.33244 -3.4434 0
M  V30 2575 H 243.18 3.23716 -1.851 0
M  V30 2576 N 245.365 1.30045 0.890287 0
M  V30 2577 C 246.611 1.18737 1.64406 0
M  V30 2578 C 246.944 -0.258525 1.92472 0
M  V30 2579 O 246.219 -1.18562 1.54186 0
M  V30 2580 C 246.502 2.01087 2.98724 0
M  V30 2581 C 246.355 3.53867 2.77665 0
M  V30 2582 C 247.674 1.84457 3.9958 0
M  V30 2583 H 244.793 0.432698 0.596608 0
M  V30 2584 H 247.435 1.5962 1.0306 0
M  V30 2585 H 245.585 1.66349 3.51084 0
M  V30 2586 H 247.257 3.98637 2.32133 0
M  V30 2587 H 245.5 3.78318 2.12269 0
M  V30 2588 H 246.171 4.06772 3.7315 0
M  V30 2589 H 248.647 2.14817 3.56361 0
M  V30 2590 H 247.523 2.44411 4.91482 0
M  V30 2591 H 247.784 0.802276 4.3476 0
M  V30 2592 N 246.843 -1.10192 1.12674 0
M  V30 2593 C 247.753 -2.20172 0.810026 0
M  V30 2594 C 248.769 -1.72821 -0.202188 0
M  V30 2595 O 249.945 -2.01369 -0.0351691 0
M  V30 2596 C 247.01 -3.45631 0.272007 0
M  V30 2597 C 246.071 -4.07704 1.34447 0
M  V30 2598 C 245.304 -5.27175 0.832029 0
M  V30 2599 O 245.527 -5.69425 -0.333284 0
M  V30 2600 O 244.461 -5.80168 1.60277 0
M  V30 2601 H 248.287 -2.49701 1.72867 0
M  V30 2602 H 245.872 -1.18977 0.903597 0
M  V30 2603 H 247.754 -4.21394 -0.0230219 0
M  V30 2604 H 246.429 -3.17723 -0.619164 0
M  V30 2605 H 245.336 -3.33614 1.6927 0
M  V30 2606 H 246.669 -4.3982 2.2095 0
M  V30 2607 N 248.321 -0.919034 -1.28029 0
M  V30 2608 C 249.57 -0.550802 -1.94034 0
M  V30 2609 C 249.883 0.910877 -1.73096 0
M  V30 2610 O 251.089 1.3875 -2.33368 0
M  V30 2611 C 249.545 -0.934249 -3.47563 0
M  V30 2612 C 249.153 -2.41602 -3.7727 0
M  V30 2613 C 250.897 -0.636854 -4.19696 0
M  V30 2614 C 248.804 -2.73932 -5.24133 0
M  V30 2615 H 247.734 -0.202273 -0.726362 0
M  V30 2616 H 250.385 -1.11867 -1.45458 0
M  V30 2617 H 248.767 -0.295115 -3.94899 0
M  V30 2618 H 249.941 -3.10233 -3.40723 0
M  V30 2619 H 248.256 -2.68441 -3.18321 0
M  V30 2620 H 250.853 -0.855005 -5.2782 0
M  V30 2621 H 251.196 0.425575 -4.14119 0
M  V30 2622 H 251.729 -1.23469 -3.78154 0
M  V30 2623 H 248.468 -3.79049 -5.34792 0
M  V30 2624 H 247.988 -2.09942 -5.61858 0
M  V30 2625 H 249.667 -2.61215 -5.91925 0
M  V30 2626 N 249.799 1.42003 -0.683588 0
M  V30 2627 C 251.048 2.00638 -0.206681 0
M  V30 2628 C 251.361 1.5472 1.19671 0
M  V30 2629 O 252.567 2.05833 1.77045 0
M  V30 2630 C 251.023 3.58487 -0.318632 0
M  V30 2631 C 250.631 4.1339 -1.72663 0
M  V30 2632 C 252.375 4.24384 0.0991141 0
M  V30 2633 C 250.282 5.63633 -1.79087 0
M  V30 2634 H 249.212 0.750408 -0.0735107 0
M  V30 2635 H 251.863 1.62624 -0.850048 0
M  V30 2636 H 250.245 3.94047 0.392781 0
M  V30 2637 H 251.419 3.89273 -2.46583 0
M  V30 2638 H 249.734 3.59976 -2.09299 0
M  V30 2639 H 252.331 5.34652 0.0713833 0
M  V30 2640 H 252.674 4.00505 1.13586 0
M  V30 2641 H 253.207 3.93816 -0.561599 0
M  V30 2642 H 249.946 5.92323 -2.80774 0
M  V30 2643 H 249.466 5.89714 -1.09535 0
M  V30 2644 H 251.145 6.28201 -1.5483 0
M  V30 2645 N 251.277 0.427512 1.51691 0
M  V30 2646 C 252.693 0.0792977 1.59403 0
M  V30 2647 C 252.893 -1.41035 1.43914 0
M  V30 2648 O 251.949 -2.17922 1.27539 0
M  V30 2649 C 253.262 0.590636 2.94842 0
M  V30 2650 C 254.81 0.550215 3.08126 0
M  V30 2651 C 255.285 1.03836 4.46074 0
M  V30 2652 N 256.776 0.995943 4.52366 0
M  V30 2653 C 257.511 1.34463 5.57411 0
M  V30 2654 N 257.007 1.76569 6.69922 0
M  V30 2655 N 258.8 1.26343 5.47717 0
M  V30 2656 H 250.951 1.39687 1.60004 0
M  V30 2657 H 253.214 0.575003 0.753708 0
M  V30 2658 H 252.92 1.63251 3.11516 0
M  V30 2659 H 252.794 0.0102061 3.77199 0
M  V30 2660 H 255.181 -0.482654 2.91126 0
M  V30 2661 H 255.262 1.16693 2.27632 0
M  V30 2662 H 254.906 2.06965 4.63819 0
M  V30 2663 H 254.836 0.398286 5.25092 0
M  V30 2664 H 257.327 0.68661 3.7161 0
M  V30 2665 H 257.64 2.01438 7.46085 0
M  V30 2666 H 255.985 1.80488 6.71155 0
M  V30 2667 H 259.176 0.933209 4.58703 0
M  V30 2668 H 259.349 1.53846 6.29472 0
M  V30 2669 N 252.755 -1.56801 0.158532 0
M  V30 2670 C 253.665 -2.20916 -0.789518 0
M  V30 2671 C 254.681 -1.1969 -1.26294 0
M  V30 2672 O 255.857 -1.52308 -1.31773 0
M  V30 2673 C 252.922 -2.82727 -2.00665 0
M  V30 2674 C 251.983 -3.99114 -1.58134 0
M  V30 2675 C 251.216 -4.57968 -2.74045 0
M  V30 2676 O 251.439 -4.15704 -3.90572 0
M  V30 2677 O 250.373 -5.48047 -2.48855 0
M  V30 2678 H 254.199 -3.02464 -0.273681 0
M  V30 2679 H 251.784 -1.4924 -0.0690548 0
M  V30 2680 H 253.666 -3.21968 -2.71872 0
M  V30 2681 H 252.341 -2.04184 -2.51179 0
M  V30 2682 H 251.248 -3.64567 -0.839155 0
M  V30 2683 H 252.581 -4.79212 -1.12325 0
M  V30 2684 N 254.233 0.115231 -1.57178 0
M  V30 2685 C 255.196 1.12526 -1.99676 0
M  V30 2686 C 256.196 1.34095 -0.88742 0
M  V30 2687 O 257.386 1.30548 -1.15337 0
M  V30 2688 C 254.518 2.4789 -2.34015 0
M  V30 2689 H 255.711 0.759912 -2.90113 0
M  V30 2690 H 253.264 0.359648 -1.52106 0
M  V30 2691 H 253.999 2.89339 -1.4647 0
M  V30 2692 H 253.784 2.33588 -3.14927 0
M  V30 2693 H 255.274 3.20575 -2.67622 0
M  V30 2694 N 255.711 1.52812 0.385517 0
M  V30 2695 C 256.959 1.67694 1.12797 0
M  V30 2696 C 257.28 0.421115 1.90399 0
M  V30 2697 O 256.55 -0.564551 1.87589 0
M  V30 2698 H 255.13 0.618155 0.419396 0
M  V30 2699 H 257.792 1.89938 0.436972 0
M  V30 2700 H 256.888 2.52896 1.82894 0
M  V30 2701 N 257.189 -0.644168 1.43834 0
M  V30 2702 C 258.435 -1.40603 1.46146 0
M  V30 2703 C 258.768 -1.93997 0.0887717 0
M  V30 2704 O 258.043 -1.72854 -0.891724 0
M  V30 2705 C 258.326 -2.58086 2.51124 0
M  V30 2706 C 258.179 -2.10126 3.97702 0
M  V30 2707 C 259.498 -3.60291 2.52742 0
M  V30 2708 H 256.617 -0.509905 0.532134 0
M  V30 2709 H 259.259 -0.729502 1.75437 0
M  V30 2710 H 257.409 -3.15801 2.26278 0
M  V30 2711 H 259.081 -1.57342 4.33637 0
M  V30 2712 H 257.324 -1.41419 4.10101 0
M  V30 2713 H 257.995 -2.94649 4.66783 0
M  V30 2714 H 260.471 -3.12352 2.7491 0
M  V30 2715 H 259.347 -4.40032 3.28121 0
M  V30 2716 H 259.608 -4.1349 1.56455 0
M  V30 2717 N 258.668 -1.30515 -0.883378 0
M  V30 2718 C 260.079 -1.17509 -1.45081 0
M  V30 2719 C 260.43 0.223605 -1.94922 0
M  V30 2720 O 259.555 1.12041 -1.85137 0
M  V30 2721 C 260.15 -2.12715 -2.63701 0
M  V30 2722 C 258.709 -2.03682 -3.16529 0
M  V30 2723 C 257.856 -2.02706 -1.89224 0
M  V30 2724 H 260.807 -1.42762 -0.693165 0
M  V30 2725 H 260.828 -1.70891 -3.39965 0
M  V30 2726 H 260.34 -3.14505 -2.27395 0
M  V30 2727 H 258.441 -1.05039 -3.57488 0
M  V30 2728 H 258.554 -2.92146 -3.7972 0
M  V30 2729 H 256.918 -1.4753 -2.07622 0
M  V30 2730 H 257.701 -3.06229 -1.55174 0
M  V30 2731 N 260.146 1.09593 -1.13257 0
M  V30 2732 C 261.376 1.85231 -0.915049 0
M  V30 2733 C 261.784 1.81345 0.539498 0
M  V30 2734 O 261.127 1.20664 1.38513 0
M  V30 2735 C 261.189 3.34275 -1.3229 0
M  V30 2736 C 260.853 3.6191 -2.79052 0
M  V30 2737 C 261.85 3.57777 -3.77216 0
M  V30 2738 C 259.535 3.90309 -3.16171 0
M  V30 2739 C 261.529 3.81652 -5.1051 0
M  V30 2740 C 259.216 4.13839 -4.49644 0
M  V30 2741 C 260.214 4.09502 -5.46623 0
M  V30 2742 O 259.902 4.32426 -6.77689 0
M  V30 2743 H 259.634 0.591997 -0.326367 0
M  V30 2744 H 262.188 1.394 -1.50854 0
M  V30 2745 H 260.418 3.80805 -0.672667 0
M  V30 2746 H 262.107 3.9132 -1.07812 0
M  V30 2747 H 262.873 3.35865 -3.49885 0
M  V30 2748 H 258.752 3.92811 -2.41289 0
M  V30 2749 H 262.296 3.78182 -5.86195 0
M  V30 2750 H 258.193 4.35232 -4.767 0
M  V30 2751 H 258.961 4.49896 -6.83766 0
M  V30 2752 N 261.624 0.925811 1.2754 0
M  V30 2753 C 262.587 0.428129 2.25166 0
M  V30 2754 C 263.587 -0.452261 1.54309 0
M  V30 2755 O 264.777 -0.253608 1.72344 0
M  V30 2756 C 261.909 -0.384749 3.38722 0
M  V30 2757 H 263.102 1.29066 2.70706 0
M  V30 2758 H 260.655 0.706323 1.3943 0
M  V30 2759 H 261.39 -1.26618 2.98561 0
M  V30 2760 H 261.175 0.246454 3.91325 0
M  V30 2761 H 262.665 -0.723389 4.11287 0
M  V30 2762 N 263.102 -1.41638 0.69111 0
M  V30 2763 C 264.032 -2.3347 0.037248 0
M  V30 2764 C 265.013 -1.51575 -0.771947 0
M  V30 2765 O 266.198 -1.80126 -0.72582 0
M  V30 2766 C 263.328 -3.35354 -0.903064 0
M  V30 2767 C 262.282 -4.27526 -0.201288 0
M  V30 2768 C 261.608 -5.19747 -1.25565 0
M  V30 2769 C 262.908 -5.13959 0.929689 0
M  V30 2770 H 264.602 -2.88397 0.804227 0
M  V30 2771 H 262.148 -1.38669 0.388189 0
M  V30 2772 H 264.101 -3.98519 -1.36969 0
M  V30 2773 H 262.825 -2.78767 -1.70166 0
M  V30 2774 H 261.484 -3.65779 0.245265 0
M  V30 2775 H 261.132 -4.59479 -2.04666 0
M  V30 2776 H 260.832 -5.8225 -0.791128 0
M  V30 2777 H 262.356 -5.85789 -1.72288 0
M  V30 2778 H 263.77 -5.70718 0.543546 0
M  V30 2779 H 262.167 -5.85379 1.32103 0
M  V30 2780 H 263.237 -4.51389 1.77133 0
M  V30 2781 N 264.58 -0.43555 -1.51462 0
M  V30 2782 C 265.51 0.367376 -2.30592 0
M  V30 2783 C 266.491 1.02263 -1.35928 0
M  V30 2784 O 267.676 1.02661 -1.64847 0
M  V30 2785 C 264.806 1.46983 -3.14664 0
M  V30 2786 C 263.76 0.938161 -4.17591 0
M  V30 2787 C 263.086 2.13622 -4.90173 0
M  V30 2788 C 264.386 -0.0261621 -5.22293 0
M  V30 2789 H 266.08 -0.292969 -2.97963 0
M  V30 2790 H 263.626 -0.14234 -1.43295 0
M  V30 2791 H 265.579 2.03873 -3.688 0
M  V30 2792 H 264.303 2.15843 -2.4511 0
M  V30 2793 H 262.962 0.391481 -3.64504 0
M  V30 2794 H 262.61 2.81098 -4.17124 0
M  V30 2795 H 262.31 1.78688 -5.59772 0
M  V30 2796 H 263.834 2.7107 -5.47132 0
M  V30 2797 H 265.248 0.452384 -5.71512 0
M  V30 2798 H 263.645 -0.287992 -5.99409 0
M  V30 2799 H 264.715 -0.963391 -4.75233 0
M  V30 2800 N 266.058 1.56714 -0.166846 0
M  V30 2801 C 267.008 2.14338 0.777382 0
M  V30 2802 C 267.992 1.07642 1.19591 0
M  V30 2803 O 269.184 1.33775 1.15902 0
M  V30 2804 C 266.313 2.78417 2.00846 0
M  V30 2805 C 265.399 3.92264 1.61212 0
M  V30 2806 N 265.79 4.97268 0.925104 0
M  V30 2807 C 264.088 4.03342 1.90346 0
M  V30 2808 C 264.789 5.77093 0.730627 0
M  V30 2809 N 263.765 5.2854 1.27067 0
M  V30 2810 H 267.567 2.9289 0.243466 0
M  V30 2811 H 265.081 1.62364 0.0339954 0
M  V30 2812 H 267.078 3.18073 2.69509 0
M  V30 2813 H 265.738 2.01344 2.54736 0
M  V30 2814 H 266.749 5.14601 0.583646 0
M  V30 2815 H 263.426 3.37368 2.45946 0
M  V30 2816 H 264.816 6.71638 0.187668 0
M  V30 2817 N 267.536 -0.106894 1.57237 0
M  V30 2818 C 268.776 -0.818277 1.87306 0
M  V30 2819 C 269.14 -1.76474 0.756371 0
M  V30 2820 O 270.341 -2.5186 0.939155 0
M  V30 2821 C 268.612 -1.53806 3.22612 0
M  V30 2822 S 270.171 -2.28935 3.74345 0
M  V30 2823 H 266.989 -0.272862 0.656557 0
M  V30 2824 H 269.591 -0.075988 1.95352 0
M  V30 2825 H 268.295 -0.834951 4.01817 0
M  V30 2826 H 267.826 -2.32049 3.17674 0
M  V30 2827 H 269.841 -3.54871 3.46815 0
M  V30 2828 N 269.014 -1.53014 -0.377408 0
M  V30 2829 C 270.242 -1.72515 -1.14219 0
M  V30 2830 C 270.657 -0.448735 -1.8339 0
M  V30 2831 O 270.014 0.577592 -1.73119 0
M  V30 2832 C 270.065 -2.8826 -2.18148 0
M  V30 2833 O 269.786 -4.10962 -1.51795 0
M  V30 2834 C 271.287 -3.19536 -3.07264 0
M  V30 2835 H 268.507 -0.577301 -0.342001 0
M  V30 2836 H 271.051 -1.99712 -0.439935 0
M  V30 2837 H 269.206 -2.63492 -2.83991 0
M  V30 2838 H 269.62 -4.75693 -2.20945 0
M  V30 2839 H 271.094 -4.03959 -3.76193 0
M  V30 2840 H 271.571 -2.34403 -3.71419 0
M  V30 2841 H 272.177 -3.46186 -2.47053 0
M  V30 2842 N 270.492 0.636531 -1.44174 0
M  V30 2843 C 271.44 1.76995 -1.50915 0
M  V30 2844 C 272.434 1.65053 -0.381295 0
M  V30 2845 O 273.64 1.71197 -0.55601 0
M  V30 2846 H 270.015 0.584247 -0.473455 0
M  V30 2847 H 271.986 1.68432 -2.4632 0
M  V30 2848 C 270.735 3.15314 -1.46534 0
M  V30 2849 H 270.058 3.25149 -2.32633 0
M  V30 2850 H 271.498 3.9453 -1.55312 0
M  V30 2851 C 269.957 3.3639 -0.185305 0
M  V30 2852 O 270.487 3.94699 0.746688 0
M  V30 2853 N 268.693 2.9046 -0.0901606 0
M  V30 2854 H 268.24 2.43193 -0.849416 0
M  V30 2855 H 268.198 3.04937 0.765553 0
M  V30 2856 N 271.97 1.30982 0.876444 0
M  V30 2857 C 273.219 1.19658 1.62373 0
M  V30 2858 C 273.532 -0.245636 1.94052 0
M  V30 2859 O 274.738 -0.48049 2.67214 0
M  V30 2860 C 273.194 2.09433 2.92687 0
M  V30 2861 C 272.802 3.58613 2.68516 0
M  V30 2862 C 274.546 2.06893 3.70669 0
M  V30 2863 C 272.453 4.40416 3.94699 0
M  V30 2864 H 271.383 0.444268 0.609214 0
M  V30 2865 H 274.034 1.55791 0.969605 0
M  V30 2866 H 272.416 1.66191 3.59439 0
M  V30 2867 H 273.59 4.10058 2.10212 0
M  V30 2868 H 271.905 3.63063 2.03898 0
M  V30 2869 H 274.502 2.65258 4.64265 0
M  V30 2870 H 274.845 1.05448 4.02724 0
M  V30 2871 H 275.378 2.48301 3.10792 0
M  V30 2872 H 272.117 5.42591 3.67798 0
M  V30 2873 H 271.637 3.93731 4.52477 0
M  V30 2874 H 273.316 4.52294 4.62644 0
M  V30 2875 N 273.449 -1.08991 1.13837 0
M  V30 2876 C 274.679 -1.84743 0.924859 0
M  V30 2877 C 275.087 -1.81629 -0.529874 0
M  V30 2878 O 274.43 -1.21397 -1.37872 0
M  V30 2879 C 274.492 -3.33568 1.34061 0
M  V30 2880 C 274.156 -3.60425 2.80968 0
M  V30 2881 C 275.153 -3.55771 3.79108 0
M  V30 2882 C 272.838 -3.88627 3.18236 0
M  V30 2883 C 274.832 -3.78939 5.12527 0
M  V30 2884 C 272.519 -4.11449 4.51833 0
M  V30 2885 C 273.517 -4.06598 5.48787 0
M  V30 2886 O 273.205 -4.28826 6.79973 0
M  V30 2887 H 272.937 -0.590258 0.329502 0
M  V30 2888 H 275.491 -1.38598 1.51591 0
M  V30 2889 H 273.721 -3.80442 0.692853 0
M  V30 2890 H 275.41 -3.90743 1.09886 0
M  V30 2891 H 276.176 -3.34005 3.51661 0
M  V30 2892 H 272.055 -3.91526 2.43369 0
M  V30 2893 H 275.599 -3.75068 5.88192 0
M  V30 2894 H 271.496 -4.32698 4.79002 0
M  V30 2895 H 272.264 -4.46264 6.86142 0
M  V30 2896 N 274.927 -0.932562 -1.27047 0
M  V30 2897 C 276.338 -0.619451 -1.76124 0
M  V30 2898 C 276.689 0.865397 -1.76083 0
M  V30 2899 O 275.814 1.67722 -1.36742 0
M  V30 2900 C 276.409 -1.11771 -3.19832 0
M  V30 2901 C 274.968 -0.855174 -3.66557 0
M  V30 2902 C 274.115 -1.27362 -2.46321 0
M  V30 2903 H 277.066 -1.11181 -1.13245 0
M  V30 2904 H 277.087 -0.46759 -3.77616 0
M  V30 2905 H 276.599 -2.19842 -3.1983 0
M  V30 2906 H 274.7 0.211524 -3.71999 0
M  V30 2907 H 274.813 -1.47613 -4.55793 0
M  V30 2908 H 273.177 -0.692119 -2.45116 0
M  V30 2909 H 273.96 -2.36307 -2.49025 0
M  V30 2910 N 276.405 1.4127 -0.698611 0
M  V30 2911 C 277.633 2.05503 -0.239992 0
M  V30 2912 C 278.048 1.52584 1.11191 0
M  V30 2913 O 277.405 0.675323 1.69545 0
M  V30 2914 C 277.456 3.60987 -0.192429 0
M  V30 2915 O 277.177 4.1195 -1.49094 0
M  V30 2916 C 278.678 4.42371 0.28681 0
M  V30 2917 H 275.898 0.661748 -0.111045 0
M  V30 2918 H 278.442 1.80987 -0.95205 0
M  V30 2919 H 276.597 3.84533 0.470472 0
M  V30 2920 H 277.011 5.06018 -1.38007 0
M  V30 2921 H 278.485 5.51344 0.26896 0
M  V30 2922 H 278.962 4.18699 1.32619 0
M  V30 2923 H 279.568 4.23897 -0.345201 0
M  V30 2924 N 277.883 0.443576 1.51229 0
M  V30 2925 C 279.294 -0.0180867 1.86691 0
M  V30 2926 C 279.645 -1.41384 1.36033 0
M  V30 2927 O 278.77 -2.04291 0.713722 0
M  V30 2928 C 279.365 -0.039597 3.38777 0
M  V30 2929 C 277.924 -0.445692 3.73752 0
M  V30 2930 C 277.071 0.357584 2.74985 0
M  V30 2931 H 280.022 0.659138 1.44364 0
M  V30 2932 H 280.043 -0.847761 3.70936 0
M  V30 2933 H 279.555 0.976382 3.75617 0
M  V30 2934 H 277.656 -1.46704 3.42503 0
M  V30 2935 H 277.769 -0.166155 4.78812 0
M  V30 2936 H 276.133 -0.184973 2.54027 0
M  V30 2937 H 276.916 1.37256 3.14668 0
M  V30 2938 N 279.361 -1.56624 0.175154 0
M  V30 2939 C 280.591 -2.01082 -0.474283 0
M  V30 2940 C 280.999 -1.05447 -1.57091 0
M  V30 2941 O 280.342 -0.0480595 -1.83637 0
M  V30 2942 C 280.404 -3.41963 -1.10911 0
M  V30 2943 C 280.068 -4.56742 -0.153666 0
M  V30 2944 C 281.065 -5.16076 0.629448 0
M  V30 2945 C 278.75 -5.02277 -0.0483776 0
M  V30 2946 C 280.744 -6.19377 1.50501 0
M  V30 2947 C 278.431 -6.05427 0.830768 0
M  V30 2948 C 279.429 -6.63849 1.60605 0
M  V30 2949 O 279.117 -7.64998 2.47049 0
M  V30 2950 H 278.849 -0.664261 -0.125432 0
M  V30 2951 H 281.403 -2.03549 0.275163 0
M  V30 2952 H 279.633 -3.36422 -1.90676 0
M  V30 2953 H 281.322 -3.70352 -1.66114 0
M  V30 2954 H 282.088 -4.81776 0.558297 0
M  V30 2955 H 277.967 -4.56513 -0.641611 0
M  V30 2956 H 281.511 -6.64906 2.1106 0
M  V30 2957 H 277.408 -6.39151 0.903107 0
M  V30 2958 H 278.176 -7.82336 2.40607 0
M  V30 2959 N 280.839 0.0985539 -1.57292 0
M  V30 2960 C 281.749 1.13824 -2.05137 0
M  V30 2961 C 282.765 1.44076 -0.975604 0
M  V30 2962 O 283.941 1.54786 -1.28853 0
M  V30 2963 C 281.006 2.43969 -2.46333 0
M  V30 2964 C 280.067 2.2093 -3.68087 0
M  V30 2965 C 279.3 3.44869 -4.0731 0
M  V30 2966 O 279.523 4.52972 -3.46659 0
M  V30 2967 O 278.457 3.34661 -5.00285 0
M  V30 2968 H 282.283 0.761881 -2.93988 0
M  V30 2969 H 279.868 0.310818 -1.46131 0
M  V30 2970 H 281.75 3.20609 -2.73473 0
M  V30 2971 H 280.425 2.81038 -1.60621 0
M  V30 2972 H 279.332 1.42081 -3.46069 0
M  V30 2973 H 280.665 1.88755 -4.54568 0
M  V30 2974 N 282.317 1.53212 0.369288 0
M  V30 2975 C 283.594 1.59815 1.12776 0
M  V30 2976 C 283.974 0.403402 2.0721 0
M  V30 2977 O 283.322 -0.606667 2.20299 0
M  V30 2978 C 283.532 2.94664 1.87013 0
M  V30 2979 C 284.88 3.49109 2.41677 0
M  V30 2980 O 285.904 2.96669 1.97144 0
M  V30 2981 O 284.763 4.40775 3.23079 0
M  V30 2982 H 281.857 0.645376 0.517125 0
M  V30 2983 H 284.403 1.65553 0.37285 0
M  V30 2984 H 283.175 3.73061 1.18071 0
M  V30 2985 H 282.798 2.92401 2.69421 0
M  V30 2986 N 283.795 -0.628877 1.44509 0
M  V30 2987 C 285.041 -1.39045 1.47629 0
M  V30 2988 C 285.374 -1.93892 0.109343 0
M  V30 2989 O 284.649 -1.7379 -0.87334 0
M  V30 2990 C 284.932 -2.55408 2.53848 0
M  V30 2991 C 284.785 -2.05896 3.99909 0
M  V30 2992 C 286.104 -3.5759 2.56549 0
M  V30 2993 H 283.223 -0.504232 0.537512 0
M  V30 2994 H 285.865 -0.710854 1.76201 0
M  V30 2995 H 284.015 -3.13384 2.29615 0
M  V30 2996 H 285.687 -1.52734 4.35282 0
M  V30 2997 H 283.93 -1.37061 4.11578 0
M  V30 2998 H 284.601 -2.89681 4.69882 0
M  V30 2999 H 287.077 -3.09419 2.78207 0
M  V30 3000 H 285.953 -4.36527 3.32769 0
M  V30 3001 H 286.214 -4.11808 1.60832 0
M  V30 3002 N 285.273 -1.31445 -0.869486 0
M  V30 3003 C 286.689 -1.10113 -1.15531 0
M  V30 3004 C 286.889 0.128087 -2.01092 0
M  V30 3005 O 285.945 0.817276 -2.38908 0
M  V30 3006 C 287.258 -2.37291 -1.84698 0
M  V30 3007 C 288.806 -2.42906 -1.97397 0
M  V30 3008 C 289.281 -3.69967 -2.69979 0
M  V30 3009 N 290.772 -3.70864 -2.77514 0
M  V30 3010 C 291.507 -4.65875 -3.34287 0
M  V30 3011 N 291.003 -5.71242 -3.91988 0
M  V30 3012 N 292.796 -4.53394 -3.3225 0
M  V30 3013 H 284.947 -2.1028 -0.299347 0
M  V30 3014 H 287.21 -0.927683 -0.195214 0
M  V30 3015 H 286.916 -3.27078 -1.29278 0
M  V30 3016 H 286.79 -2.47125 -2.84972 0
M  V30 3017 H 289.177 -1.53588 -2.51982 0
M  V30 3018 H 289.258 -2.37036 -0.961643 0
M  V30 3019 H 288.902 -4.59652 -2.16062 0
M  V30 3020 H 288.832 -3.73103 -3.7162 0
M  V30 3021 H 291.323 -2.94697 -2.36563 0
M  V30 3022 H 291.636 -6.39817 -4.33421 0
M  V30 3023 H 289.981 -5.75015 -3.90362 0
M  V30 3024 H 293.172 -3.70252 -2.8641 0
M  V30 3025 H 293.345 -5.27617 -3.76197 0
M  V30 3026 N 286.751 1.08385 -1.14413 0
M  V30 3027 C 287.681 2.17321 -0.854044 0
M  V30 3028 C 288.662 1.69024 0.191049 0
M  V30 3029 O 289.847 1.94141 0.0476779 0
M  V30 3030 C 286.977 3.45719 -0.330983 0
M  V30 3031 C 285.931 4.07409 -1.31155 0
M  V30 3032 C 285.257 5.30762 -0.64778 0
M  V30 3033 C 286.557 4.48665 -2.67388 0
M  V30 3034 H 288.251 2.41845 -1.76498 0
M  V30 3035 H 285.797 1.16233 -0.850051 0
M  V30 3036 H 287.75 4.21241 -0.115645 0
M  V30 3037 H 286.474 3.2075 0.615381 0
M  V30 3038 H 285.133 3.33919 -1.51306 0
M  V30 3039 H 284.781 5.02078 0.304398 0
M  V30 3040 H 284.481 5.72992 -1.30207 0
M  V30 3041 H 286.005 6.08998 -0.441972 0
M  V30 3042 H 287.419 5.15364 -2.51143 0
M  V30 3043 H 285.816 5.01814 -3.29093 0
M  V30 3044 H 286.886 3.60543 -3.24248 0
M  V30 3045 N 288.23 0.939286 1.26551 0
M  V30 3046 C 289.478 0.58469 1.93457 0
M  V30 3047 C 289.799 -0.878774 1.74076 0
M  V30 3048 O 289.069 -1.62421 1.09528 0
M  V30 3049 H 287.649 0.21325 0.715914 0
M  V30 3050 H 290.311 1.1942 1.54029 0
M  V30 3051 H 289.407 0.800849 3.0165 0
M  V30 3052 N 289.708 -1.40897 0.706093 0
M  V30 3053 C 290.956 -2.00657 0.241054 0
M  V30 3054 C 291.277 -1.56241 -1.16678 0
M  V30 3055 O 290.547 -0.79765 -1.78926 0
M  V30 3056 H 289.127 -0.742018 0.0861308 0
M  V30 3057 H 291.789 -1.72372 0.909604 0
M  V30 3058 H 290.885 -3.10958 0.266705 0
M  V30 3059 N 291.186 -0.45159 -1.50991 0
M  V30 3060 C 292.119 0.398179 -2.24699 0
M  V30 3061 C 293.097 1.01276 -1.27208 0
M  V30 3062 O 294.281 1.05247 -1.56382 0
M  V30 3063 C 291.408 1.55618 -3.00833 0
M  V30 3064 C 290.454 1.0609 -4.13095 0
M  V30 3065 S 291.287 -0.00865136 -5.35499 0
M  V30 3066 C 292.443 1.15369 -6.15175 0
M  V30 3067 H 292.676 -0.227555 -2.96428 0
M  V30 3068 H 290.209 -0.236251 -1.52582 0
M  V30 3069 H 292.167 2.21997 -3.45293 0
M  V30 3070 H 290.828 2.15337 -2.28667 0
M  V30 3071 H 290.021 1.92726 -4.65696 0
M  V30 3072 H 289.623 0.47513 -3.7097 0
M  V30 3073 H 291.915 2.06925 -6.45126 0
M  V30 3074 H 292.858 0.667344 -7.04948 0
M  V30 3075 H 293.266 1.3987 -5.46897 0
M  V30 3076 N 292.664 1.56529 -0.183458 0
M  V30 3077 C 293.612 2.19873 0.758845 0
M  V30 3078 C 294.606 1.16638 1.22849 0
M  V30 3079 O 295.812 1.3481 1.19274 0
M  V30 3080 H 292.187 0.7045 0.263029 0
M  V30 3081 H 294.158 2.97724 0.200755 0
M  V30 3082 C 292.907 2.86314 1.9728 0
M  V30 3083 H 292.23 3.65487 1.62047 0
M  V30 3084 H 293.67 3.3409 2.61075 0
M  V30 3085 C 292.129 1.86729 2.80418 0
M  V30 3086 O 292.659 1.36031 3.77966 0
M  V30 3087 N 290.865 1.55216 2.45675 0
M  V30 3088 H 290.412 1.96636 1.66409 0
M  V30 3089 H 290.37 0.888388 3.01588 0
M  V30 3090 N 294.142 -0.090211 1.57342 0
M  V30 3091 C 295.419 -0.824761 1.77361 0
M  V30 3092 C 295.799 -1.96698 0.76637 0
M  V30 3093 O 295.147 -2.27586 -0.204179 0
M  V30 3094 C 295.357 -1.31481 3.23286 0
M  V30 3095 C 296.705 -1.75563 3.86604 0
M  V30 3096 O 297.729 -1.41093 3.27065 0
M  V30 3097 O 296.588 -2.39317 4.91314 0
M  V30 3098 H 293.682 -0.393776 0.727234 0
M  V30 3099 H 296.228 -0.0717138 1.69548 0
M  V30 3100 H 295 -0.496671 3.88135 0
M  V30 3101 H 294.623 -2.12973 3.35751 0
M  V30 3102 N 295.62 -1.53406 -0.361157 0
M  V30 3103 C 296.55 -1.83136 -1.44857 0
M  V30 3104 C 297.531 -0.685174 -1.5569 0
M  V30 3105 O 298.716 -0.93544 -1.70186 0
M  V30 3106 C 295.846 -2.02522 -2.82138 0
M  V30 3107 C 294.8 -3.18302 -2.86126 0
M  V30 3108 C 294.126 -3.22989 -4.26125 0
M  V30 3109 C 295.426 -4.56796 -2.53248 0
M  V30 3110 H 297.12 -2.74201 -1.20226 0
M  V30 3111 H 294.666 -1.31938 -0.576922 0
M  V30 3112 H 296.619 -2.21904 -3.58241 0
M  V30 3113 H 295.343 -1.08172 -3.08166 0
M  V30 3114 H 294.002 -2.98747 -2.12475 0
M  V30 3115 H 293.65 -2.26267 -4.49235 0
M  V30 3116 H 293.35 -4.00781 -4.29708 0
M  V30 3117 H 294.874 -3.44559 -5.04094 0
M  V30 3118 H 296.288 -4.7631 -3.19064 0
M  V30 3119 H 294.685 -5.36862 -2.68141 0
M  V30 3120 H 295.755 -4.61606 -1.48484 0
M  V30 3121 N 297.098 0.621204 -1.44841 0
M  V30 3122 C 298.323 1.41244 -1.51871 0
M  V30 3123 C 298.748 1.87519 -0.147764 0
M  V30 3124 O 298.106 1.59334 0.865 0
M  V30 3125 C 298.154 2.60221 -2.49634 0
M  V30 3126 O 297.258 3.60395 -2.00473 0
M  V30 3127 H 296.599 0.42223 -0.512463 0
M  V30 3128 H 299.129 0.757305 -1.90069 0
M  V30 3129 H 299.139 3.0764 -2.67996 0
M  V30 3130 H 297.814 2.25887 -3.4921 0
M  V30 3131 H 296.391 3.19717 -1.91925 0
M  V30 3132 N 298.576 1.31904 0.862503 0
M  V30 3133 C 299.486 1.22161 2.00285 0
M  V30 3134 C 300.502 0.136785 1.73462 0
M  V30 3135 O 301.678 0.355994 1.98229 0
M  V30 3136 C 298.743 0.937093 3.33796 0
M  V30 3137 C 297.804 2.10957 3.73893 0
M  V30 3138 C 297.037 1.83853 5.01033 0
M  V30 3139 O 297.26 0.777274 5.65079 0
M  V30 3140 O 296.194 2.69741 5.38074 0
M  V30 3141 H 300.02 2.18008 2.11439 0
M  V30 3142 H 297.605 1.11716 0.991957 0
M  V30 3143 H 299.487 0.794583 4.13841 0
M  V30 3144 H 298.162 0.00871894 3.23699 0
M  V30 3145 H 297.069 2.30752 2.94456 0
M  V30 3146 H 298.402 3.02046 3.88625 0
M  V30 3147 N 300.054 -1.07777 1.14986 0
M  V30 3148 C 301.017 -2.13041 0.845358 0
M  V30 3149 C 302.017 -1.60071 -0.152931 0
M  V30 3150 O 303.207 -1.74033 0.0761879 0
M  V30 3151 C 300.339 -3.39896 0.261383 0
M  V30 3152 H 301.532 -2.41485 1.77834 0
M  V30 3153 H 299.085 -1.23595 0.956757 0
M  V30 3154 H 299.82 -3.17091 -0.68 0
M  V30 3155 H 299.605 -3.79642 0.980514 0
M  V30 3156 H 301.095 -4.17548 0.0657687 0
M  V30 3157 N 301.532 -0.945985 -1.26051 0
M  V30 3158 C 302.779 -0.596118 -1.93527 0
M  V30 3159 C 303.107 0.865559 -1.74179 0
M  V30 3160 O 302.362 1.63524 -1.0751 0
M  V30 3161 C 302.661 -0.890475 -3.46129 0
M  V30 3162 C 302.327 -2.3368 -3.85622 0
M  V30 3163 C 300.989 -2.73216 -3.96114 0
M  V30 3164 C 303.341 -3.27648 -4.05334 0
M  V30 3165 C 300.669 -4.05806 -4.2372 0
M  V30 3166 C 303.021 -4.59841 -4.3443 0
M  V30 3167 C 301.685 -4.99185 -4.43137 0
M  V30 3168 H 300.955 -0.218135 -0.708165 0
M  V30 3169 H 303.602 -1.1934 -1.49768 0
M  V30 3170 H 301.907 -0.210711 -3.91233 0
M  V30 3171 H 303.604 -0.598478 -3.96509 0
M  V30 3172 H 300.194 -2.02015 -3.78005 0
M  V30 3173 H 304.378 -2.98298 -3.96651 0
M  V30 3174 H 299.634 -4.35945 -4.28675 0
M  V30 3175 H 303.808 -5.32641 -4.48628 0
M  V30 3176 H 301.435 -6.01952 -4.64282 0
M  V30 3177 N 303.011 1.40521 -0.713556 0
M  V30 3178 C 304.422 1.83853 -0.324807 0
M  V30 3179 C 304.773 1.59667 1.14021 0
M  V30 3180 O 303.898 1.07649 1.87725 0
M  V30 3181 C 304.493 3.33751 -0.582746 0
M  V30 3182 C 303.052 3.75584 -0.247727 0
M  V30 3183 C 302.199 2.63753 -0.856121 0
M  V30 3184 H 305.15 1.29817 -0.91286 0
M  V30 3185 H 305.171 3.80194 0.152682 0
M  V30 3186 H 304.683 3.51322 -1.64908 0
M  V30 3187 H 302.784 3.63608 0.813624 0
M  V30 3188 H 302.897 4.7373 -0.715307 0
M  V30 3189 H 301.261 2.53108 -0.28432 0
M  V30 3190 H 302.044 2.84137 -1.92668 0
M  V30 3191 N 304.489 0.459591 1.5075 0
M  V30 3192 C 305.766 -0.160371 1.94941 0
M  V30 3193 C 306.146 -1.58048 1.39943 0
M  V30 3194 O 305.494 -2.206 0.595629 0
M  V30 3195 C 305.704 -0.115432 3.48809 0
M  V30 3196 C 307.052 -0.310026 4.23467 0
M  V30 3197 O 308.076 -0.192543 3.55679 0
M  V30 3198 O 306.935 -0.546031 5.43765 0
M  V30 3199 H 304.029 -0.117925 0.818549 0
M  V30 3200 H 306.575 0.519169 1.61563 0
M  V30 3201 H 305.347 0.87652 3.81357 0
M  V30 3202 H 304.97 -0.836928 3.88692 0
M  V30 3203 N 305.967 -1.56429 0.191757 0
M  V30 3204 C 306.93 -2.17707 -0.716688 0
M  V30 3205 C 307.93 -1.13061 -1.14341 0
M  V30 3206 O 309.12 -1.38464 -1.05704 0
M  V30 3207 C 306.252 -2.77644 -1.97804 0
M  V30 3208 H 307.445 -2.99342 -0.1829 0
M  V30 3209 H 304.998 -1.56193 -0.0578566 0
M  V30 3210 H 305.733 -1.99799 -2.55443 0
M  V30 3211 H 305.518 -3.54246 -1.68083 0
M  V30 3212 H 307.008 -3.24708 -2.62592 0
M  V30 3213 N 307.445 0.0818655 -1.57387 0
M  V30 3214 C 308.694 0.781681 -1.85937 0
M  V30 3215 C 309.007 1.79246 -0.782957 0
M  V30 3216 O 310.213 2.54112 -0.955987 0
M  V30 3217 C 308.669 1.44109 -3.29789 0
M  V30 3218 C 308.277 0.469396 -4.45534 0
M  V30 3219 C 310.021 2.12386 -3.67549 0
M  V30 3220 C 307.928 1.13415 -5.80423 0
M  V30 3221 H 306.858 0.295682 -0.693605 0
M  V30 3222 H 309.509 0.0348051 -1.83467 0
M  V30 3223 H 307.891 2.23588 -3.2684 0
M  V30 3224 H 309.065 -0.294856 -4.59856 0
M  V30 3225 H 307.38 -0.108383 -4.16259 0
M  V30 3226 H 309.977 2.62878 -4.65617 0
M  V30 3227 H 310.32 2.91877 -2.96839 0
M  V30 3228 H 310.853 1.39751 -3.72444 0
M  V30 3229 H 307.592 0.379771 -6.54399 0
M  V30 3230 H 307.112 1.8695 -5.69921 0
M  V30 3231 H 308.791 1.65686 -6.25426 0
M  V30 3232 N 308.923 1.53595 0.353017 0
M  V30 3233 C 310.172 1.69603 1.09168 0
M  V30 3234 C 310.485 0.460925 1.90092 0
M  V30 3235 O 311.691 0.501774 2.66823 0
M  V30 3236 C 310.147 2.99872 1.9901 0
M  V30 3237 C 309.755 4.30687 1.23339 0
M  V30 3238 C 311.499 3.25246 2.72792 0
M  V30 3239 C 309.406 5.52036 2.12156 0
M  V30 3240 H 308.336 0.631966 0.411261 0
M  V30 3241 H 310.987 1.80096 0.351802 0
M  V30 3242 H 309.369 2.83212 2.7678 0
M  V30 3243 H 310.543 4.58019 0.505456 0
M  V30 3244 H 308.858 4.11853 0.613663 0
M  V30 3245 H 311.455 4.13095 3.39495 0
M  V30 3246 H 311.798 2.41846 3.38846 0
M  V30 3247 H 312.331 3.42638 2.021 0
M  V30 3248 H 309.07 6.37951 1.50659 0
M  V30 3249 H 308.59 5.28966 2.82764 0
M  V30 3250 H 310.269 5.87313 2.71427 0
M  V30 3251 N 310.401 -0.613514 1.45168 0
M  V30 3252 C 311.649 -1.36997 1.48581 0
M  V30 3253 C 311.97 -1.94589 0.126545 0
M  V30 3254 O 311.24 -1.76816 -0.843372 0
M  V30 3255 H 309.82 -0.508558 0.547154 0
M  V30 3256 H 312.482 -0.720853 1.81079 0
M  V30 3257 H 311.578 -2.1924 2.22127 0
M  V30 3258 N 311.879 -1.3236 -0.855495 0
M  V30 3259 C 312.809 -1.23833 -1.97958 0
M  V30 3260 C 313.79 -0.122361 -1.69659 0
M  V30 3261 O 314.975 -0.30939 -1.9172 0
M  V30 3262 C 312.105 -0.959772 -3.33775 0
M  V30 3263 C 311.059 -2.03689 -3.76424 0
M  V30 3264 C 310.385 -1.61075 -5.09862 0
M  V30 3265 C 311.685 -3.4518 -3.9198 0
M  V30 3266 H 313.379 -2.1788 -2.0535 0
M  V30 3267 H 310.925 -1.04891 -0.986605 0
M  V30 3268 H 312.878 -0.886678 -4.11966 0
M  V30 3269 H 311.602 0.0163404 -3.26596 0
M  V30 3270 H 310.261 -2.10012 -3.00484 0
M  V30 3271 H 309.909 -0.622107 -4.99138 0
M  V30 3272 H 309.609 -2.33143 -5.39368 0
M  V30 3273 H 311.133 -1.55201 -5.90546 0
M  V30 3274 H 312.547 -3.4145 -4.60526 0
M  V30 3275 H 310.944 -4.1559 -4.32903 0
M  V30 3276 H 312.014 -3.84903 -2.94919 0
M  V30 3277 N 313.357 1.07166 -1.15556 0
M  V30 3278 C 314.582 1.84053 -0.955988 0
M  V30 3279 C 315.007 1.81586 0.490739 0
M  V30 3280 O 314.365 1.21018 1.34997 0
M  V30 3281 C 314.413 3.28957 -1.47714 0
M  V30 3282 O 313.517 4.06795 -0.677593 0
M  V30 3283 H 312.858 0.569842 -0.340847 0
M  V30 3284 H 315.388 1.35178 -1.53584 0
M  V30 3285 H 315.398 3.79788 -1.4908 0
M  V30 3286 H 314.073 3.30068 -2.53037 0
M  V30 3287 H 312.65 3.6561 -0.733721 0
M  V30 3288 N 314.835 0.952656 1.25548 0
M  V30 3289 C 316.112 0.523818 1.88456 0
M  V30 3290 C 316.492 -0.998871 1.85973 0
M  V30 3291 O 315.84 -1.86381 1.3219 0
M  V30 3292 C 316.05 1.0982 3.31271 0
M  V30 3293 C 317.398 1.17385 4.08051 0
M  V30 3294 O 318.422 1.04961 3.40384 0
M  V30 3295 O 317.281 1.36852 5.29088 0
M  V30 3296 H 314.375 0.172485 0.808813 0
M  V30 3297 H 316.921 1.04596 1.33633 0
M  V30 3298 H 315.693 2.1415 3.27499 0
M  V30 3299 H 315.316 0.559191 3.93648 0
M  V30 3300 N 316.313 -1.40141 0.720998 0
M  V30 3301 C 317.263 -2.27949 0.0482544 0
M  V30 3302 C 318.247 -1.43538 -0.727021 0
M  V30 3303 O 319.439 -1.6658 -0.598332 0
M  V30 3304 C 316.568 -3.32126 -0.868729 0
M  V30 3305 C 315.654 -4.24008 -0.0883515 0
M  V30 3306 N 316.045 -4.97154 0.931226 0
M  V30 3307 C 314.343 -4.4485 -0.320105 0
M  V30 3308 C 315.044 -5.64587 1.4006 0
M  V30 3309 N 314.02 -5.38787 0.721752 0
M  V30 3310 H 317.822 -2.81948 0.829609 0
M  V30 3311 H 315.336 -1.52656 0.554067 0
M  V30 3312 H 317.333 -3.93884 -1.36605 0
M  V30 3313 H 315.993 -2.79687 -1.6494 0
M  V30 3314 H 317.004 -5.01 1.31222 0
M  V30 3315 H 313.681 -4.03378 -1.07668 0
M  V30 3316 H 315.071 -6.33175 2.24808 0
M  V30 3317 N 317.792 -0.46758 -1.50504 0
M  V30 3318 C 319.02 0.0864133 -2.06719 0
M  V30 3319 C 319.435 1.33819 -1.33184 0
M  V30 3320 O 318.792 1.78061 -0.400083 0
M  V30 3321 C 318.843 0.378079 -3.59517 0
M  V30 3322 O 318.564 -0.824044 -4.3028 0
M  V30 3323 C 320.065 0.979426 -4.32345 0
M  V30 3324 H 317.285 -0.00551697 -0.670977 0
M  V30 3325 H 319.829 -0.655354 -1.93715 0
M  V30 3326 H 317.984 1.06977 -3.72337 0
M  V30 3327 H 318.398 -0.566518 -5.21432 0
M  V30 3328 H 319.872 1.1333 -5.40241 0
M  V30 3329 H 320.349 1.9686 -3.9261 0
M  V30 3330 H 320.955 0.326216 -4.24047 0
M  V30 3331 N 319.27 1.56325 -0.20005 0
M  V30 3332 C 320.2 2.22318 0.713916 0
M  V30 3333 C 321.181 1.18788 1.21752 0
M  V30 3334 O 322.366 1.47309 1.26545 0
M  V30 3335 C 319.496 2.88639 1.93144 0
M  V30 3336 C 318.45 3.98457 1.56255 0
M  V30 3337 C 317.776 4.51967 2.85709 0
M  V30 3338 C 319.076 5.16612 0.768747 0
M  V30 3339 H 320.77 2.98952 0.163755 0
M  V30 3340 H 318.316 1.43792 0.0773219 0
M  V30 3341 H 320.269 3.33491 2.57608 0
M  V30 3342 H 318.993 2.09419 2.50621 0
M  V30 3343 H 317.652 3.54305 0.941471 0
M  V30 3344 H 317.3 3.69503 3.41287 0
M  V30 3345 H 317 5.26071 2.6177 0
M  V30 3346 H 318.524 4.99523 3.51154 0
M  V30 3347 H 319.938 5.57977 1.3166 0
M  V30 3348 H 318.335 5.96812 0.627286 0
M  V30 3349 H 319.405 4.84358 -0.229168 0
M  V30 3350 N 320.748 -0.0735177 1.57428 0
M  V30 3351 C 322.025 -0.805903 1.78226 0
M  V30 3352 C 322.405 -1.95874 0.787189 0
M  V30 3353 O 321.753 -2.2779 -0.180029 0
M  V30 3354 C 321.963 -1.28045 3.24662 0
M  V30 3355 C 323.311 -1.71453 3.88444 0
M  V30 3356 O 324.335 -1.37616 3.28543 0
M  V30 3357 O 323.194 -2.34093 4.93825 0
M  V30 3358 H 320.288 -0.386041 0.73137 0
M  V30 3359 H 322.834 -0.0537269 1.69615 0
M  V30 3360 H 321.606 -0.455476 3.8864 0
M  V30 3361 H 321.229 -2.094 3.37991 0
M  V30 3362 N 322.226 -1.5378 -0.344866 0
M  V30 3363 C 323.174 -1.82373 -1.4437 0
M  V30 3364 C 324.168 -0.694128 -1.54526 0
M  V30 3365 O 325.374 -0.877442 -1.57165 0
M  V30 3366 H 321.749 -0.577765 -0.481344 0
M  V30 3367 H 323.72 -2.74306 -1.17468 0
M  V30 3368 C 322.469 -2.04898 -2.80913 0
M  V30 3369 H 321.792 -2.9127 -2.73865 0
M  V30 3370 H 323.232 -2.28871 -3.56923 0
M  V30 3371 C 321.691 -0.834116 -3.26411 0
M  V30 3372 O 322.221 -0.0328885 -4.01687 0
M  V30 3373 N 320.427 -0.65171 -2.83198 0
M  V30 3374 H 319.974 -1.30489 -2.22104 0
M  V30 3375 H 319.932 0.159686 -3.13994 0
M  V30 3376 N 323.704 0.605807 -1.45491 0
M  V30 3377 C 324.934 1.38934 -1.52908 0
M  V30 3378 C 325.342 1.88513 -0.161086 0
M  V30 3379 O 324.685 1.62962 0.847891 0
M  V30 3380 C 324.747 2.62737 -2.45376 0
M  V30 3381 C 324.411 2.34785 -3.92078 0
M  V30 3382 C 325.408 1.95038 -4.8193 0
M  V30 3383 C 323.093 2.47642 -4.37011 0
M  V30 3384 C 325.087 1.68511 -6.14722 0
M  V30 3385 C 322.774 2.20728 -5.69844 0
M  V30 3386 C 323.772 1.81225 -6.58519 0
M  V30 3387 O 323.46 1.54627 -7.88889 0
M  V30 3388 H 323.192 0.431629 -0.520262 0
M  V30 3389 H 325.746 0.74573 -1.91384 0
M  V30 3390 H 323.976 3.29824 -2.01874 0
M  V30 3391 H 325.665 3.24783 -2.43456 0
M  V30 3392 H 326.431 1.84639 -4.48479 0
M  V30 3393 H 322.31 2.77356 -3.68232 0
M  V30 3394 H 325.854 1.37602 -6.83894 0
M  V30 3395 H 321.751 2.30744 -6.02849 0
M  V30 3396 H 322.519 1.68665 -8.00933 0
M  V30 3397 N 325.182 1.32811 0.848464 0
M  V30 3398 C 326.145 1.22194 1.9391 0
M  V30 3399 C 327.145 0.143404 1.60159 0
M  V30 3400 O 328.335 0.394253 1.6968 0
M  V30 3401 C 325.467 0.88067 3.29328 0
M  V30 3402 H 326.66 2.19127 2.04752 0
M  V30 3403 H 324.213 1.16731 1.0394 0
M  V30 3404 H 324.948 -0.0865776 3.24184 0
M  V30 3405 H 324.733 1.66052 3.55203 0
M  V30 3406 H 326.223 0.830871 4.09251 0
M  V30 3407 N 326.66 -1.06551 1.16123 0
M  V30 3408 C 327.9 -1.80889 0.951766 0
M  V30 3409 C 328.264 -1.85062 -0.511465 0
M  V30 3410 O 329.465 -2.55353 -0.83954 0
M  V30 3411 C 327.736 -3.21609 1.55893 0
M  V30 3412 S 329.295 -4.12593 1.49373 0
M  V30 3413 H 326.113 -0.623156 0.342341 0
M  V30 3414 H 328.715 -1.27943 1.47821 0
M  V30 3415 H 327.419 -3.16165 2.61664 0
M  V30 3416 H 326.95 -3.79631 1.0317 0
M  V30 3417 H 328.965 -4.93753 0.492196 0
M  V30 3418 N 328.138 -0.959301 -1.25041 0
M  V30 3419 C 329.068 -0.501388 -2.28053 0
M  V30 3420 C 330.049 0.454673 -1.63911 0
M  V30 3421 O 331.234 0.352618 -1.90972 0
M  V30 3422 C 328.364 0.217224 -3.4662 0
M  V30 3423 C 327.318 -0.654034 -4.22973 0
M  V30 3424 C 326.644 0.195589 -5.34342 0
M  V30 3425 C 327.944 -1.93447 -4.85155 0
M  V30 3426 H 329.638 -1.36238 -2.66608 0
M  V30 3427 H 327.184 -0.656534 -1.28163 0
M  V30 3428 H 329.137 0.548732 -4.17812 0
M  V30 3429 H 327.861 1.1125 -3.07068 0
M  V30 3430 H 326.52 -0.968693 -3.5357 0
M  V30 3431 H 326.168 1.09076 -4.91031 0
M  V30 3432 H 325.868 -0.384091 -5.86343 0
M  V30 3433 H 327.392 0.521958 -6.08365 0
M  V30 3434 H 328.806 -1.66908 -5.48466 0
M  V30 3435 H 327.203 -2.46018 -5.47353 0
M  V30 3436 H 328.273 -2.63466 -4.07079 0
M  V30 3437 N 329.616 1.39756 -0.72842 0
M  V30 3438 C 330.864 2.00248 -0.272946 0
M  V30 3439 C 331.185 1.58077 1.14178 0
M  V30 3440 O 330.455 0.826014 1.77634 0
M  V30 3441 H 329.035 0.740554 -0.0979247 0
M  V30 3442 H 331.697 1.70903 -0.936912 0
M  V30 3443 H 330.793 3.10495 -0.316142 0
M  V30 3444 N 331.094 0.475555 1.50254 0
M  V30 3445 C 332.057 -0.305016 2.27161 0
M  V30 3446 C 333.057 -0.916519 1.32123 0
M  V30 3447 O 334.247 -0.785003 1.5551 0
M  V30 3448 C 331.379 -1.43496 3.09227 0
M  V30 3449 H 332.572 0.369511 2.97615 0
M  V30 3450 H 330.125 0.229747 1.54602 0
M  V30 3451 H 330.86 -2.14441 2.43281 0
M  V30 3452 H 330.645 -1.00223 3.79075 0
M  V30 3453 H 332.135 -1.98548 3.67381 0
M  V30 3454 N 332.573 -1.56217 0.208337 0
M  V30 3455 C 333.819 -1.98242 -0.427552 0
M  V30 3456 C 334.152 -1.09554 -1.60348 0
M  V30 3457 O 333.427 -0.15035 -1.93918 0
M  V30 3458 C 333.71 -3.4931 -0.874907 0
M  V30 3459 C 333.563 -4.48773 0.303751 0
M  V30 3460 C 334.882 -4.04424 -1.73577 0
M  V30 3461 H 332.001 -0.720744 -0.153936 0
M  V30 3462 H 334.643 -1.87586 0.30192 0
M  V30 3463 H 332.793 -3.58522 -1.49648 0
M  V30 3464 H 334.465 -4.51586 0.941682 0
M  V30 3465 H 332.708 -4.23194 0.953375 0
M  V30 3466 H 333.379 -5.51976 -0.0519883 0
M  V30 3467 H 335.855 -3.98075 -1.21143 0
M  V30 3468 H 334.731 -5.1047 -2.01771 0
M  V30 3469 H 334.992 -3.50494 -2.69456 0
M  V30 3470 N 334.051 0.0651679 -1.57465 0
M  V30 3471 C 335.014 1.06117 -2.03155 0
M  V30 3472 C 336.014 1.31204 -0.929632 0
M  V30 3473 O 337.204 1.26813 -1.19432 0
M  V30 3474 C 334.336 2.4032 -2.41783 0
M  V30 3475 H 335.529 0.667231 -2.92383 0
M  V30 3476 H 333.082 0.311075 -1.53173 0
M  V30 3477 H 333.817 2.84532 -1.55601 0
M  V30 3478 H 333.602 2.23451 -3.22199 0
M  V30 3479 H 335.092 3.11898 -2.77685 0
M  V30 3480 N 335.529 1.53961 0.336706 0
M  V30 3481 C 336.459 1.85417 1.41925 0
M  V30 3482 C 337.44 0.709856 1.5458 0
M  V30 3483 O 338.625 0.962396 1.68676 0
M  V30 3484 C 335.755 2.06985 2.78881 0
M  V30 3485 C 334.709 3.22813 2.81026 0
M  V30 3486 C 334.035 3.29727 4.20932 0
M  V30 3487 C 335.335 4.60767 2.45949 0
M  V30 3488 H 337.029 2.76079 1.15848 0
M  V30 3489 H 334.575 1.32839 0.555859 0
M  V30 3490 H 336.528 2.27575 3.54665 0
M  V30 3491 H 335.252 1.13061 3.06406 0
M  V30 3492 H 333.911 3.0209 2.07695 0
M  V30 3493 H 333.559 2.33385 4.45579 0
M  V30 3494 H 333.259 4.07566 4.23277 0
M  V30 3495 H 334.783 3.52536 4.98549 0
M  V30 3496 H 336.197 4.81325 3.11446 0
M  V30 3497 H 334.594 5.4106 2.59566 0
M  V30 3498 H 335.664 4.6391 1.41122 0
M  V30 3499 N 337.007 -0.598083 1.45811 0
M  V30 3500 C 338.255 -1.35413 1.50026 0
M  V30 3501 C 338.576 -1.94444 0.147177 0
M  V30 3502 O 337.846 -1.77701 -0.824571 0
M  V30 3503 H 336.426 -0.502727 0.552517 0
M  V30 3504 H 339.088 -0.701606 1.81834 0
M  V30 3505 H 338.184 -2.16871 2.2444 0
M  V30 3506 N 338.485 -1.33259 -0.841409 0
M  V30 3507 C 339.733 -1.24326 -1.59334 0
M  V30 3508 C 340.054 0.191564 -1.94057 0
M  V30 3509 O 339.324 1.11967 -1.60749 0
M  V30 3510 H 337.904 -0.457174 -0.590763 0
M  V30 3511 H 340.566 -1.66947 -1.00571 0
M  V30 3512 H 339.662 -1.8352 -2.52442 0
M  V30 3513 N 339.963 1.05934 -1.16686 0
M  V30 3514 C 341.188 1.83029 -0.975455 0
M  V30 3515 C 341.613 1.82096 0.471452 0
M  V30 3516 O 340.971 1.22443 1.33706 0
M  V30 3517 C 341.019 3.27372 -1.51195 0
M  V30 3518 O 340.123 4.06054 -0.720701 0
M  V30 3519 H 339.464 0.566194 -0.346872 0
M  V30 3520 H 341.994 1.33541 -1.55009 0
M  V30 3521 H 342.004 3.78186 -1.53099 0
M  V30 3522 H 340.679 3.27366 -2.56523 0
M  V30 3523 H 339.256 3.64812 -0.772458 0
M  V30 3524 N 341.441 0.965919 1.2453 0
M  V30 3525 C 342.69 0.622437 1.91856 0
M  V30 3526 C 343.003 -0.846006 1.76358 0
M  V30 3527 O 344.209 -1.29993 2.38357 0
M  V30 3528 C 342.665 1.0626 3.43856 0
M  V30 3529 C 342.273 2.55437 3.68043 0
M  V30 3530 C 344.017 0.792183 4.17043 0
M  V30 3531 C 341.924 2.93196 5.13605 0
M  V30 3532 H 340.854 0.229092 0.718354 0
M  V30 3533 H 343.505 1.17189 1.41206 0
M  V30 3534 H 341.887 0.441476 3.93531 0
M  V30 3535 H 343.061 3.22665 3.28974 0
M  V30 3536 H 341.376 2.8007 3.08139 0
M  V30 3537 H 343.973 1.05031 5.24283 0
M  V30 3538 H 344.316 -0.271584 4.15413 0
M  V30 3539 H 344.849 1.37419 3.73311 0
M  V30 3540 H 341.588 3.98636 5.20355 0
M  V30 3541 H 341.108 2.30651 5.53679 0
M  V30 3542 H 342.787 2.83004 5.81823 0
M  V30 3543 N 342.919 -1.39368 0.735821 0
M  V30 3544 C 343.849 -2.33234 0.111506 0
M  V30 3545 C 344.83 -1.53954 -0.723334 0
M  V30 3546 O 346.015 -1.82344 -0.668147 0
M  V30 3547 C 343.145 -3.38057 -0.795917 0
M  V30 3548 C 342.099 -4.2795 -0.065172 0
M  V30 3549 C 341.425 -5.23479 -1.08967 0
M  V30 3550 C 342.725 -5.10741 1.09273 0
M  V30 3551 H 344.419 -2.85692 0.895571 0
M  V30 3552 H 341.965 -1.37364 0.432109 0
M  V30 3553 H 343.918 -4.02675 -1.24221 0
M  V30 3554 H 342.642 -2.8404 -1.61211 0
M  V30 3555 H 341.301 -3.64813 0.361511 0
M  V30 3556 H 340.949 -4.65758 -1.89944 0
M  V30 3557 H 340.649 -5.84472 -0.605489 0
M  V30 3558 H 342.173 -5.90974 -1.53565 0
M  V30 3559 H 343.587 -5.68699 0.724841 0
M  V30 3560 H 341.984 -5.8088 1.50659 0
M  V30 3561 H 343.054 -4.45525 1.91404 0
M  V30 3562 N 344.397 -0.483516 -1.5 0
M  V30 3563 C 345.307 0.309172 -2.32554 0
M  V30 3564 C 346.323 0.984159 -1.43493 0
M  V30 3565 O 347.499 0.969399 -1.76535 0
M  V30 3566 C 344.564 1.36979 -3.18493 0
M  V30 3567 C 343.625 0.710095 -4.23387 0
M  V30 3568 C 342.858 1.72018 -5.05218 0
M  V30 3569 O 343.081 2.94813 -4.88305 0
M  V30 3570 O 342.015 1.28515 -5.8802 0
M  V30 3571 H 345.841 -0.366064 -3.01486 0
M  V30 3572 H 343.426 -0.24514 -1.47375 0
M  V30 3573 H 345.308 1.98385 -3.71781 0
M  V30 3574 H 343.983 2.02828 -2.52275 0
M  V30 3575 H 342.89 0.0567539 -3.74057 0
M  V30 3576 H 344.223 0.0943557 -4.9211 0
M  V30 3577 N 345.875 1.56104 -0.216619 0
M  V30 3578 C 347.291 1.58995 0.13886 0
M  V30 3579 C 347.491 1.23333 1.59346 0
M  V30 3580 O 346.547 0.966234 2.33281 0
M  V30 3581 C 347.86 3.00143 -0.182968 0
M  V30 3582 C 349.408 3.12751 -0.124807 0
M  V30 3583 C 349.883 4.56068 -0.420241 0
M  V30 3584 N 351.374 4.61723 -0.369634 0
M  V30 3585 C 352.109 5.70542 -0.571789 0
M  V30 3586 N 351.605 6.87744 -0.835453 0
M  V30 3587 N 353.398 5.59831 -0.504563 0
M  V30 3588 H 345.549 1.77562 -1.16557 0
M  V30 3589 H 347.812 0.825091 -0.466828 0
M  V30 3590 H 347.518 3.30871 -1.19237 0
M  V30 3591 H 347.392 3.73813 0.504367 0
M  V30 3592 H 349.779 2.81822 0.875223 0
M  V30 3593 H 349.86 2.41421 -0.845544 0
M  V30 3594 H 349.504 4.87713 -1.41769 0
M  V30 3595 H 349.434 5.25617 0.321631 0
M  V30 3596 H 351.925 3.77502 -0.173338 0
M  V30 3597 H 352.238 7.66587 -0.977938 0
M  V30 3598 H 350.583 6.895 -0.872592 0
M  V30 3599 H 353.774 4.67145 -0.298842 0
M  V30 3600 H 353.947 6.44573 -0.665519 0
M  V30 3601 N 347.353 -0.0568162 1.57498 0
M  V30 3602 C 348.303 -1.07315 2.01166 0
M  V30 3603 C 349.287 -1.33632 0.896171 0
M  V30 3604 O 350.479 -1.33682 1.16009 0
M  V30 3605 C 347.608 -2.38257 2.47161 0
M  V30 3606 C 346.694 -2.1515 3.65474 0
M  V30 3607 N 347.085 -1.62014 4.7915 0
M  V30 3608 C 345.383 -2.45559 3.72313 0
M  V30 3609 C 346.084 -1.54069 5.60926 0
M  V30 3610 N 345.06 -2.00652 5.05213 0
M  V30 3611 H 348.862 -0.655878 2.86488 0
M  V30 3612 H 346.376 -0.263635 1.60246 0
M  V30 3613 H 348.373 -3.11845 2.76691 0
M  V30 3614 H 347.033 -2.80687 1.63232 0
M  V30 3615 H 348.044 -1.30667 5.01145 0
M  V30 3616 H 344.721 -2.91253 2.99129 0
M  V30 3617 H 346.111 -1.13712 6.62208 0
M  V30 3618 N 348.832 -1.54138 -0.328536 0
M  V30 3619 C 350.079 -1.72105 -1.06706 0
M  V30 3620 C 350.407 -0.492111 -1.88171 0
M  V30 3621 O 349.662 0.526153 -1.88494 0
M  V30 3622 C 349.961 -2.9457 -2.02393 0
M  V30 3623 C 349.627 -4.29544 -1.37122 0
M  V30 3624 C 348.289 -4.6624 -1.19052 0
M  V30 3625 C 350.641 -5.1333 -0.902331 0
M  V30 3626 C 347.969 -5.84325 -0.527331 0
M  V30 3627 C 350.321 -6.32094 -0.252988 0
M  V30 3628 C 348.985 -6.67473 -0.0600901 0
M  V30 3629 H 348.255 -0.629775 -0.390466 0
M  V30 3630 H 350.902 -1.88372 -0.34473 0
M  V30 3631 H 349.207 -2.72969 -2.81061 0
M  V30 3632 H 350.904 -3.05665 -2.59557 0
M  V30 3633 H 347.494 -4.0067 -1.52188 0
M  V30 3634 H 351.678 -4.855 -1.02974 0
M  V30 3635 H 346.934 -6.103 -0.366634 0
M  V30 3636 H 351.108 -6.96299 0.118366 0
M  V30 3637 H 348.735 -7.58832 0.455828 0
M  V30 3638 N 350.31 0.590341 -1.46126 0
M  V30 3639 C 351.538 1.37504 -1.54597 0
M  V30 3640 C 351.953 1.87897 -0.184447 0
M  V30 3641 O 351.31 1.63192 0.816984 0
M  V30 3642 C 351.361 2.56779 -2.54454 0
M  V30 3643 O 351.082 2.08476 -3.85317 0
M  V30 3644 C 352.583 3.49427 -2.72792 0
M  V30 3645 H 349.803 0.420325 -0.523037 0
M  V30 3646 H 352.347 0.718383 -1.91467 0
M  V30 3647 H 350.502 3.1845 -2.20609 0
M  V30 3648 H 350.916 2.86097 -4.396 0
M  V30 3649 H 352.39 4.29619 -3.466 0
M  V30 3650 H 352.867 4.00876 -1.79429 0
M  V30 3651 H 353.473 2.93598 -3.07702 0
M  V30 3652 N 351.788 1.33704 0.83433 0
M  V30 3653 C 353.065 1.16011 1.57483 0
M  V30 3654 C 353.445 -0.27176 2.09343 0
M  V30 3655 O 352.793 -1.27146 1.89858 0
M  V30 3656 C 353.003 2.20507 2.70514 0
M  V30 3657 C 354.351 2.54898 3.39577 0
M  V30 3658 O 355.375 2.19209 2.80759 0
M  V30 3659 O 354.234 3.16158 4.45765 0
M  V30 3660 H 351.328 0.448992 0.694503 0
M  V30 3661 H 353.874 1.453 0.876691 0
M  V30 3662 H 352.646 3.16667 2.29865 0
M  V30 3663 H 352.269 1.92329 3.47987 0
M  V30 3664 N 353.266 -1.05314 1.17247 0
M  V30 3665 C 354.682 -1.30452 0.919473 0
M  V30 3666 C 354.882 -1.9703 -0.42209 0
M  V30 3667 O 353.938 -2.24311 -1.15935 0
M  V30 3668 C 355.251 -2.17551 2.07586 0
M  V30 3669 C 356.799 -2.30937 2.11275 0
M  V30 3670 C 357.274 -3.21396 3.26296 0
M  V30 3671 N 358.765 -3.28981 3.26076 0
M  V30 3672 C 359.5 -3.99095 4.11716 0
M  V30 3673 N 358.996 -4.71648 5.07465 0
M  V30 3674 N 360.789 -3.95247 3.9967 0
M  V30 3675 H 352.94 -0.604988 2.03602 0
M  V30 3676 H 355.203 -0.329368 0.888944 0
M  V30 3677 H 354.909 -1.75921 3.0454 0
M  V30 3678 H 354.783 -3.18182 2.02584 0
M  V30 3679 H 357.17 -2.71809 1.14907 0
M  V30 3680 H 357.251 -1.2994 2.20339 0
M  V30 3681 H 356.895 -2.81238 4.22927 0
M  V30 3682 H 356.825 -4.22395 3.14467 0
M  V30 3683 H 359.316 -2.77286 2.5675 0
M  V30 3684 H 359.629 -5.22705 5.6921 0
M  V30 3685 H 357.974 -4.70594 5.11435 0
M  V30 3686 H 361.165 -3.37691 3.24164 0
M  V30 3687 H 361.338 -4.4962 4.66632 0
M  V30 3688 N 354.744 -0.972509 -1.24016 0
M  V30 3689 C 355.677 -0.45117 -2.23696 0
M  V30 3690 C 356.655 0.477378 -1.55434 0
M  V30 3691 O 357.839 0.407647 -1.84039 0
M  V30 3692 C 354.966 0.34818 -3.36906 0
M  V30 3693 C 354.012 -0.523355 -4.23277 0
M  V30 3694 S 354.845 -1.96647 -4.98087 0
M  V30 3695 C 356.001 -1.17604 -6.14752 0
M  V30 3696 H 356.234 -1.29588 -2.67571 0
M  V30 3697 H 353.767 -0.777903 -1.33372 0
M  V30 3698 H 355.725 0.803387 -4.02562 0
M  V30 3699 H 354.386 1.16792 -2.91579 0
M  V30 3700 H 353.579 0.0906181 -5.03919 0
M  V30 3701 H 353.181 -0.914485 -3.62647 0
M  V30 3702 H 355.473 -0.433434 -6.76112 0
M  V30 3703 H 356.416 -1.95701 -6.8052 0
M  V30 3704 H 356.824 -0.698295 -5.60164 0
M  V30 3705 N 356.222 1.38976 -0.743202 0
M  V30 3706 C 357.499 1.94351 -0.220705 0
M  V30 3707 C 357.879 1.67935 1.2791 0
M  V30 3708 O 357.227 1.01211 2.04862 0
M  V30 3709 C 357.437 3.44426 -0.563171 0
M  V30 3710 C 358.785 4.2144 -0.517046 0
M  V30 3711 O 359.809 3.52661 -0.500846 0
M  V30 3712 O 358.668 5.44032 -0.518806 0
M  V30 3713 H 355.762 0.825879 -0.043047 0
M  V30 3714 H 358.308 1.48429 -0.822618 0
M  V30 3715 H 357.08 3.5712 -1.59941 0
M  V30 3716 H 356.703 3.97543 0.0672883 0
M  V30 3717 N 357.7 0.491464 1.49741 0
M  V30 3718 C 359.116 0.146835 1.58923 0
M  V30 3719 C 359.316 -1.34804 1.49767 0
M  V30 3720 O 358.372 -2.12317 1.36667 0
M  V30 3721 C 359.685 0.715157 2.92072 0
M  V30 3722 C 361.233 0.680407 3.05515 0
M  V30 3723 C 361.708 1.22663 4.41269 0
M  V30 3724 N 363.199 1.18691 4.47735 0
M  V30 3725 C 363.934 1.57984 5.51207 0
M  V30 3726 N 363.43 2.04824 6.6183 0
M  V30 3727 N 365.223 1.49459 5.41866 0
M  V30 3728 H 357.374 1.46347 1.53936 0
M  V30 3729 H 359.637 0.606453 0.728642 0
M  V30 3730 H 359.343 1.76317 3.04311 0
M  V30 3731 H 359.217 0.17018 3.76816 0
M  V30 3732 H 361.604 -0.358743 2.92911 0
M  V30 3733 H 361.685 1.26242 2.22478 0
M  V30 3734 H 361.329 2.26451 4.54623 0
M  V30 3735 H 361.259 0.620637 5.2293 0
M  V30 3736 H 363.75 0.843605 3.68364 0
M  V30 3737 H 364.063 2.32901 7.3687 0
M  V30 3738 H 362.408 2.08791 6.62896 0
M  V30 3739 H 365.599 1.12692 4.54333 0
M  V30 3740 H 365.772 1.80406 6.22381 0
M  V30 3741 N 359.178 -1.55987 0.224894 0
M  V30 3742 C 360.589 -1.84553 -0.282345 0
M  V30 3743 C 360.94 -1.14634 -1.59227 0
M  V30 3744 O 360.065 -0.417155 -2.12341 0
M  V30 3745 C 360.66 -3.348 -0.519062 0
M  V30 3746 C 359.219 -3.63671 -0.970604 0
M  V30 3747 C 358.366 -2.77277 -0.0355261 0
M  V30 3748 H 361.317 -1.52245 0.448006 0
M  V30 3749 H 361.338 -3.55187 -1.36463 0
M  V30 3750 H 360.85 -3.8566 0.43449 0
M  V30 3751 H 358.951 -3.1827 -1.9374 0
M  V30 3752 H 359.064 -4.71631 -0.842698 0
M  V30 3753 H 357.428 -2.48846 -0.542927 0
M  V30 3754 H 358.211 -3.30937 0.913003 0
M  V30 3755 N 360.656 0.0484629 -1.57525 0
M  V30 3756 C 361.904 0.741657 -1.88 0
M  V30 3757 C 362.225 1.76918 -0.820054 0
M  V30 3758 O 361.495 1.95335 0.148661 0
M  V30 3759 H 360.075 0.276908 -0.69378 0
M  V30 3760 H 362.737 0.019013 -1.94891 0
M  V30 3761 H 361.833 1.24336 -2.86264 0
M  V30 3762 N 362.134 1.5431 0.320358 0
M  V30 3763 C 363.545 1.63872 0.894594 0
M  V30 3764 C 363.896 0.534847 1.88769 0
M  V30 3765 O 363.021 -0.331732 2.13842 0
M  V30 3766 C 363.616 2.97049 1.62934 0
M  V30 3767 C 362.175 3.08796 2.15226 0
M  V30 3768 C 361.322 2.59456 0.978671 0
M  V30 3769 H 364.273 1.58398 0.0978544 0
M  V30 3770 H 364.294 2.87388 2.49376 0
M  V30 3771 H 363.806 3.7737 0.906302 0
M  V30 3772 H 361.907 2.33156 2.90636 0
M  V30 3773 H 362.02 4.14649 2.40006 0
M  V30 3774 H 360.384 2.1543 1.35875 0
M  V30 3775 H 361.167 3.42237 0.269895 0
M  V30 3776 N 363.613 -0.582584 1.46437 0
M  V30 3777 C 364.89 -1.34276 1.4223 0
M  V30 3778 C 365.27 -2.10835 0.10583 0
M  V30 3779 O 364.618 -2.09485 -0.912596 0
M  V30 3780 C 364.828 -2.26865 2.65204 0
M  V30 3781 C 366.176 -2.88691 3.11356 0
M  V30 3782 O 367.2 -2.37178 2.65753 0
M  V30 3783 O 366.059 -3.82255 3.90568 0
M  V30 3784 H 363.153 -0.603326 0.565621 0
M  V30 3785 H 365.699 -0.603591 1.58603 0
M  V30 3786 H 364.471 -1.69724 3.52576 0
M  V30 3787 H 364.094 -3.08122 2.5129 0
M  V30 3788 N 365.091 -1.34144 -0.827227 0
M  V30 3789 C 366.34 -1.25602 -1.5782 0
M  V30 3790 C 366.653 0.173445 -1.94829 0
M  V30 3791 O 367.859 0.380984 -2.68814 0
M  V30 3792 C 366.315 -2.20151 -2.84713 0
M  V30 3793 C 365.923 -3.68331 -2.55021 0
M  V30 3794 C 367.667 -2.20508 -3.62735 0
M  V30 3795 C 365.574 -4.54762 -3.78082 0
M  V30 3796 H 364.504 -0.466573 -0.592306 0
M  V30 3797 H 367.155 -1.59283 -0.911116 0
M  V30 3798 H 365.537 -1.79417 -3.53023 0
M  V30 3799 H 366.711 -4.17577 -1.94849 0
M  V30 3800 H 365.026 -3.7038 -1.90283 0
M  V30 3801 H 367.623 -2.82306 -4.54101 0
M  V30 3802 H 367.966 -1.20322 -3.98533 0
M  V30 3803 H 368.499 -2.59664 -3.01362 0
M  V30 3804 H 365.238 -5.55867 -3.47407 0
M  V30 3805 H 364.758 -4.10254 -4.37552 0
M  V30 3806 H 366.437 -4.69153 -4.45538 0
M  V30 3807 N 366.569 1.04691 -1.17803 0
M  V30 3808 C 367.815 1.78045 -0.970969 0
M  V30 3809 C 368.148 1.87686 0.498751 0
M  V30 3810 O 367.423 1.38035 1.37027 0
M  V30 3811 C 367.706 3.2166 -1.61884 0
M  V30 3812 C 367.559 3.20001 -3.161 0
M  V30 3813 C 368.878 4.1962 -1.3269 0
M  V30 3814 H 365.997 0.64633 -0.354155 0
M  V30 3815 H 368.639 1.22333 -1.45378 0
M  V30 3816 H 366.789 3.69232 -1.20831 0
M  V30 3817 H 368.461 2.80467 -3.66246 0
M  V30 3818 H 366.704 2.58203 -3.48588 0
M  V30 3819 H 367.375 4.21386 -3.56564 0
M  V30 3820 H 369.851 3.80567 -1.68249 0
M  V30 3821 H 368.727 5.18339 -1.80599 0
M  V30 3822 H 368.988 4.414 -0.248622 0
M  V30 3823 N 368.047 0.979072 1.23499 0
M  V30 3824 C 369.287 0.655228 1.93613 0
M  V30 3825 C 369.651 -0.796336 1.74707 0
M  V30 3826 O 370.852 -1.23094 2.38959 0
M  V30 3827 C 369.123 1.03337 3.42135 0
M  V30 3828 S 370.682 0.825793 4.3096 0
M  V30 3829 H 367.5 0.240004 0.669267 0
M  V30 3830 H 370.102 1.25843 1.49612 0
M  V30 3831 H 368.806 2.08646 3.53405 0
M  V30 3832 H 368.337 0.421397 3.91137 0
M  V30 3833 H 370.352 -0.290991 4.95346 0
M  V30 3834 N 369.525 -1.3858 0.750561 0
M  V30 3835 C 370.75 -2.04997 0.314812 0
M  V30 3836 C 371.175 -1.56235 -1.04749 0
M  V30 3837 O 370.533 -0.712981 -1.66692 0
M  V30 3838 C 370.581 -3.58961 0.343415 0
M  V30 3839 O 369.685 -4.07025 -0.663628 0
M  V30 3840 H 369.026 -0.649081 0.139962 0
M  V30 3841 H 371.556 -1.77313 1.02084 0
M  V30 3842 H 371.566 -4.07542 0.193233 0
M  V30 3843 H 370.241 -3.93811 1.33738 0
M  V30 3844 H 368.818 -3.6982 -0.478307 0
M  V30 3845 N 371.003 -0.499398 -1.49478 0
M  V30 3846 C 371.936 0.326491 -2.25852 0
M  V30 3847 C 372.914 0.971776 -1.30366 0
M  V30 3848 O 374.098 1.00219 -1.59651 0
M  V30 3849 C 371.225 1.45969 -3.05632 0
M  V30 3850 C 370.271 0.928938 -4.16261 0
M  V30 3851 S 371.104 -0.179012 -5.35201 0
M  V30 3852 C 372.26 0.957389 -6.18534 0
M  V30 3853 H 372.493 -0.321746 -2.95554 0
M  V30 3854 H 370.026 -0.284674 -1.51753 0
M  V30 3855 H 371.984 2.109 -3.52181 0
M  V30 3856 H 370.645 2.07953 -2.35402 0
M  V30 3857 H 369.838 1.77813 -4.71592 0
M  V30 3858 H 369.44 0.356869 -3.72293 0
M  V30 3859 H 371.732 1.86296 -6.51383 0
M  V30 3860 H 372.675 0.442733 -7.06715 0
M  V30 3861 H 373.083 1.224 -5.5107 0
M  V30 3862 N 372.481 1.55866 -0.233164 0
M  V30 3863 C 373.429 2.22176 0.68851 0
M  V30 3864 C 374.423 1.20487 1.19076 0
M  V30 3865 O 375.629 1.38536 1.14925 0
M  V30 3866 H 372.004 0.712511 0.240483 0
M  V30 3867 H 373.975 2.98212 0.105935 0
M  V30 3868 C 372.724 2.92446 1.88071 0
M  V30 3869 H 372.047 3.70458 1.50337 0
M  V30 3870 H 373.487 3.42226 2.50314 0
M  V30 3871 C 371.946 1.95555 2.74335 0
M  V30 3872 O 372.476 1.47986 3.73447 0
M  V30 3873 N 370.682 1.62953 2.40613 0
M  V30 3874 H 370.229 2.01831 1.60069 0
M  V30 3875 H 370.187 0.983886 2.98609 0
M  V30 3876 N 373.959 -0.0401083 1.57549 0
M  V30 3877 C 375.37 -0.588097 1.77196 0
M  V30 3878 C 375.721 -1.76209 0.862832 0
M  V30 3879 O 374.846 -2.16331 0.0548389 0
M  V30 3880 C 375.441 -1.07363 3.21339 0
M  V30 3881 C 374 -1.56723 3.42221 0
M  V30 3882 C 373.147 -0.50041 2.72747 0
M  V30 3883 H 376.098 0.186119 1.57605 0
M  V30 3884 H 376.119 -1.94143 3.27244 0
M  V30 3885 H 375.631 -0.218975 3.87482 0
M  V30 3886 H 373.732 -2.4441 2.81237 0
M  V30 3887 H 373.845 -1.62234 4.50796 0
M  V30 3888 H 372.209 -0.952894 2.36203 0
M  V30 3889 H 372.992 0.344599 3.41566 0
M  V30 3890 N 375.437 -1.54477 -0.31217 0
M  V30 3891 C 376.714 -1.63891 -1.06767 0
M  V30 3892 C 377.094 -0.480028 -2.0557 0
M  V30 3893 O 376.442 0.524487 -2.22399 0
M  V30 3894 C 376.652 -3.01402 -1.75948 0
M  V30 3895 C 378 -3.57838 -2.28554 0
M  V30 3896 O 379.024 -3.03782 -1.85998 0
M  V30 3897 O 377.883 -4.52462 -3.06497 0
M  V30 3898 H 374.977 -0.664125 -0.492816 0
M  V30 3899 H 377.523 -1.66823 -0.311149 0
M  V30 3900 H 376.295 -3.77187 -1.04144 0
M  V30 3901 H 375.918 -3.02199 -2.58383 0
M  V30 3902 N 376.915 0.57481 -1.46744 0
M  V30 3903 C 378.143 1.35856 -1.56047 0
M  V30 3904 C 378.558 1.87691 -0.204365 0
M  V30 3905 O 377.915 1.64049 0.79963 0
M  V30 3906 C 377.966 2.54066 -2.57163 0
M  V30 3907 O 377.687 2.04377 -3.87507 0
M  V30 3908 C 379.188 3.46514 -2.76483 0
M  V30 3909 H 376.408 0.414754 -0.527466 0
M  V30 3910 H 378.952 0.698035 -1.92218 0
M  V30 3911 H 377.107 3.16092 -2.23974 0
M  V30 3912 H 377.521 2.81419 -4.4261 0
M  V30 3913 H 378.995 4.25919 -3.51137 0
M  V30 3914 H 379.472 3.98951 -1.83671 0
M  V30 3915 H 380.078 2.90318 -3.10799 0
M  V30 3916 N 378.394 1.34581 0.820102 0
M  V30 3917 C 379.641 1.27096 1.57648 0
M  V30 3918 C 379.969 -0.158317 1.93855 0
M  V30 3919 O 379.224 -1.12028 1.60463 0
M  V30 3920 C 379.523 2.10997 2.8847 0
M  V30 3921 C 379.189 3.59966 2.71543 0
M  V30 3922 C 377.851 4.00575 2.66634 0
M  V30 3923 C 380.203 4.54548 2.55021 0
M  V30 3924 C 377.531 5.33953 2.43128 0
M  V30 3925 C 379.883 5.88109 2.33047 0
M  V30 3926 C 378.547 6.27878 2.26552 0
M  V30 3927 H 377.817 0.465078 0.576874 0
M  V30 3928 H 380.464 1.6635 0.948671 0
M  V30 3929 H 378.769 1.6458 3.55557 0
M  V30 3930 H 380.466 2.0255 3.46084 0
M  V30 3931 H 377.056 3.27733 2.76205 0
M  V30 3932 H 381.24 4.24069 2.57835 0
M  V30 3933 H 376.496 5.63781 2.3656 0
M  V30 3934 H 380.67 6.60985 2.19251 0
M  V30 3935 H 378.297 7.31162 2.081 0
M  V30 3936 N 379.872 -1.04064 1.18357 0
M  V30 3937 C 380.819 -2.12077 0.910603 0
M  V30 3938 C 381.789 -1.65421 -0.15 0
M  V30 3939 O 382.974 -1.90797 -0.0103614 0
M  V30 3940 C 380.114 -3.42252 0.442472 0
M  V30 3941 C 379.227 -4.0252 1.5685 0
M  V30 3942 C 378.362 -5.20657 1.05309 0
M  V30 3943 C 377.401 -5.72955 2.1538 0
M  V30 3944 N 376.538 -6.8238 1.65233 0
M  V30 3945 H 381.378 -2.34764 1.83548 0
M  V30 3946 H 378.915 -1.15157 0.915279 0
M  V30 3947 H 380.873 -4.16921 0.152534 0
M  V30 3948 H 379.503 -3.19712 -0.445428 0
M  V30 3949 H 378.555 -3.25178 1.97391 0
M  V30 3950 H 379.867 -4.37362 2.39824 0
M  V30 3951 H 379.021 -6.0244 0.717677 0
M  V30 3952 H 377.76 -4.87318 0.19293 0
M  V30 3953 H 376.765 -4.89793 2.49766 0
M  V30 3954 H 377.99 -6.08337 3.01832 0
M  V30 3955 H 375.936 -6.50917 0.815064 0
M  V30 3956 H 375.853 -7.16286 2.41805 0
M  V30 3957 H 377.121 -7.67788 1.34619 0
M  V30 3958 N 381.35 -0.985608 -1.22978 0
M  V30 3959 C 382.26 -0.538548 -2.28335 0
M  V30 3960 C 383.276 0.409163 -1.69121 0
M  V30 3961 O 384.452 0.277797 -1.99475 0
M  V30 3962 C 381.517 0.146867 -3.46389 0
M  V30 3963 C 380.578 -0.842896 -4.20944 0
M  V30 3964 C 379.811 -0.190095 -5.33361 0
M  V30 3965 O 380.034 1.01767 -5.61248 0
M  V30 3966 O 378.968 -0.891289 -5.95264 0
M  V30 3967 H 382.794 -1.41487 -2.68729 0
M  V30 3968 H 380.379 -0.753495 -1.29007 0
M  V30 3969 H 382.261 0.531125 -4.1804 0
M  V30 3970 H 380.936 0.997871 -3.07935 0
M  V30 3971 H 379.843 -1.27795 -3.51595 0
M  V30 3972 H 381.176 -1.66287 -4.6326 0
M  V30 3973 N 382.828 1.3818 -0.7579 0
M  V30 3974 C 383.758 2.33027 -0.148597 0
M  V30 3975 C 384.739 1.55085 0.69875 0
M  V30 3976 O 385.924 1.83384 0.639053 0
M  V30 3977 C 383.054 3.3928 0.742034 0
M  V30 3978 C 382.008 4.28 -0.00291946 0
M  V30 3979 C 381.334 5.25146 1.00625 0
M  V30 3980 C 382.634 5.08938 -1.17385 0
M  V30 3981 H 384.328 2.84231 -0.940909 0
M  V30 3982 H 381.874 1.36659 -0.453908 0
M  V30 3983 H 383.827 4.046 1.17799 0
M  V30 3984 H 382.551 2.86569 1.56671 0
M  V30 3985 H 381.21 3.64192 -0.419504 0
M  V30 3986 H 380.858 4.68721 1.8251 0
M  V30 3987 H 380.558 5.85361 0.512428 0
M  V30 3988 H 382.082 5.93342 1.44143 0
M  V30 3989 H 383.496 5.67474 -0.815224 0
M  V30 3990 H 381.893 5.7841 -1.59882 0
M  V30 3991 H 382.963 4.42424 -1.98468 0
M  V30 3992 N 384.306 0.507319 1.49211 0
M  V30 3993 C 385.253 -0.267728 2.29242 0
M  V30 3994 C 386.223 -0.954609 1.35928 0
M  V30 3995 O 387.408 -0.960046 1.64887 0
M  V30 3996 C 384.548 -1.32243 3.18756 0
M  V30 3997 C 383.661 -0.64669 4.27132 0
M  V30 3998 C 382.796 -1.68238 5.03855 0
M  V30 3999 C 381.835 -0.98885 6.0406 0
M  V30 4000 N 380.972 -1.96903 6.73924 0
M  V30 4001 H 385.812 0.420968 2.95012 0
M  V30 4002 H 383.349 0.219443 1.45454 0
M  V30 4003 H 385.307 -1.94599 3.69036 0
M  V30 4004 H 383.937 -1.97981 2.54958 0
M  V30 4005 H 382.989 0.0902926 3.80293 0
M  V30 4006 H 384.301 -0.101058 4.98698 0
M  V30 4007 H 383.455 -2.38081 5.58034 0
M  V30 4008 H 382.194 -2.26187 4.32077 0
M  V30 4009 H 381.199 -0.276222 5.49106 0
M  V30 4010 H 382.424 -0.415767 6.77826 0
M  V30 4011 H 380.37 -2.53803 6.04913 0
M  V30 4012 H 380.287 -1.47423 7.41487 0
M  V30 4013 H 381.555 -2.66015 7.32705 0
M  V30 4014 N 385.784 -1.5574 0.241426 0
M  V30 4015 C 386.716 -2.18469 -0.693091 0
M  V30 4016 C 387.729 -1.15942 -1.14286 0
M  V30 4017 O 388.918 -1.42832 -1.07058 0
M  V30 4018 C 386.018 -2.7696 -1.95311 0
M  V30 4019 C 385.191 -4.04853 -1.65568 0
M  V30 4020 C 384.25 -4.47715 -2.76474 0
M  V30 4021 O 383.276 -5.14205 -2.44094 0
M  V30 4022 N 384.478 -4.15044 -4.05855 0
M  V30 4023 H 387.243 -2.99292 -0.156388 0
M  V30 4024 H 384.804 -1.61784 0.0611752 0
M  V30 4025 H 386.796 -3.02594 -2.68736 0
M  V30 4026 H 385.366 -2.00326 -2.39975 0
M  V30 4027 H 384.586 -3.86865 -0.756886 0
M  V30 4028 H 385.874 -4.88246 -1.43153 0
M  V30 4029 H 385.272 -3.61654 -4.34998 0
M  V30 4030 H 383.829 -4.45526 -4.75762 0
M  V30 4031 N 387.262 0.0317525 -1.57568 0
M  V30 4032 C 388.51 0.721676 -1.88776 0
M  V30 4033 C 388.831 1.76039 -0.838772 0
M  V30 4034 O 388.101 1.95482 0.127935 0
M  V30 4035 H 386.681 0.269534 -0.696678 0
M  V30 4036 H 389.343 -0.00165879 -1.949 0
M  V30 4037 H 388.439 1.21293 -2.87566 0
M  V30 4038 N 388.74 1.54641 0.303973 0
M  V30 4039 C 389.703 1.84646 1.35789 0
M  V30 4040 C 390.703 0.7192 1.4382 0
M  V30 4041 O 391.893 0.987491 1.43507 0
M  V30 4042 C 389.025 2.02407 2.74307 0
M  V30 4043 H 390.218 2.78829 1.10429 0
M  V30 4044 H 387.771 1.46658 0.540487 0
M  V30 4045 H 388.506 1.10502 3.04893 0
M  V30 4046 H 388.291 2.84453 2.69868 0
M  V30 4047 H 389.781 2.27002 3.50514 0
M  V30 4048 N 390.218 -0.567019 1.47046 0
M  V30 4049 C 391.168 -1.67018 1.55207 0
M  V30 4050 C 392.152 -1.55543 0.411714 0
M  V30 4051 O 393.344 -1.64192 0.661064 0
M  V30 4052 C 390.473 -3.05801 1.56014 0
M  V30 4053 C 389.559 -3.22515 2.75399 0
M  V30 4054 N 389.95 -3.09329 4.00186 0
M  V30 4055 C 388.248 -3.53493 2.71954 0
M  V30 4056 C 388.949 -3.2847 4.80086 0
M  V30 4057 N 387.925 -3.54352 4.12233 0
M  V30 4058 H 391.727 -1.55377 2.4947 0
M  V30 4059 H 389.241 -0.771503 1.42904 0
M  V30 4060 H 391.238 -3.84996 1.59949 0
M  V30 4061 H 389.898 -3.18561 0.628396 0
M  V30 4062 H 390.909 -2.86863 4.31196 0
M  V30 4063 H 387.586 -3.7284 1.87873 0
M  V30 4064 H 388.976 -3.23326 5.88991 0
M  V30 4065 N 391.696 -1.35014 -0.812953 0
M  V30 4066 C 392.659 -1.27292 -1.90602 0
M  V30 4067 C 393.659 -0.185817 -1.59723 0
M  V30 4068 O 394.849 -0.439102 -1.68575 0
M  V30 4069 C 391.981 -0.967676 -3.26877 0
M  V30 4070 H 393.174 -2.24479 -1.9887 0
M  V30 4071 H 390.727 -1.19446 -1.00808 0
M  V30 4072 H 391.462 0.0005954 -3.243 0
M  V30 4073 H 391.247 -1.75412 -3.50675 0
M  V30 4074 H 392.737 -0.939085 -4.06904 0
M  V30 4075 N 393.175 1.03435 -1.18907 0
M  V30 4076 C 394.105 2.13503 -0.945448 0
M  V30 4077 C 395.086 1.69682 0.119189 0
M  V30 4078 O 396.271 1.94169 -0.034707 0
M  V30 4079 C 393.401 3.44004 -0.477316 0
M  V30 4080 C 392.355 4.0148 -1.48316 0
M  V30 4081 C 391.681 5.27537 -0.872311 0
M  V30 4082 C 392.981 4.36921 -2.86177 0
M  V30 4083 H 394.675 2.34141 -1.86597 0
M  V30 4084 H 392.221 1.12523 -0.898584 0
M  V30 4085 H 394.174 4.20372 -0.294204 0
M  V30 4086 H 392.898 3.23072 0.478786 0
M  V30 4087 H 391.557 3.27201 -1.65332 0
M  V30 4088 H 391.205 5.02917 0.0911752 0
M  V30 4089 H 390.905 5.66954 -1.54393 0
M  V30 4090 H 392.429 6.06576 -0.699871 0
M  V30 4091 H 393.843 5.04248 -2.72776 0
M  V30 4092 H 392.24 4.87405 -3.50081 0
M  V30 4093 H 393.31 3.46466 -3.39248 0
M  V30 4094 N 394.653 0.992116 1.22453 0
M  V30 4095 C 395.6 0.541731 2.24352 0
M  V30 4096 C 396.57 -0.425519 1.60557 0
M  V30 4097 O 397.755 -0.330453 1.87917 0
M  V30 4098 C 394.895 -0.138248 3.44823 0
M  V30 4099 C 394.008 0.870649 4.23136 0
M  V30 4100 C 393.143 0.164269 5.30946 0
M  V30 4101 C 392.182 1.16159 6.00977 0
M  V30 4102 N 391.319 0.483568 7.00433 0
M  V30 4103 H 396.159 1.41541 2.62241 0
M  V30 4104 H 393.696 0.709013 1.28885 0
M  V30 4105 H 395.654 -0.5494 4.13567 0
M  V30 4106 H 394.284 -0.975721 3.077 0
M  V30 4107 H 393.336 1.40013 3.53696 0
M  V30 4108 H 394.648 1.63014 4.7141 0
M  V30 4109 H 393.802 -0.303653 6.0594 0
M  V30 4110 H 392.541 -0.627733 4.83643 0
M  V30 4111 H 391.546 1.64015 5.24766 0
M  V30 4112 H 392.771 1.95445 6.50368 0
M  V30 4113 H 390.717 -0.289012 6.55363 0
M  V30 4114 H 390.634 1.18152 7.4671 0
M  V30 4115 H 391.902 0.0384219 7.79491 0
M  V30 4116 N 396.131 -1.37776 0.765217 0
M  V30 4117 C 397.061 -2.32945 0.160953 0
M  V30 4118 C 398.042 -1.55454 -0.690516 0
M  V30 4119 O 399.227 -1.83721 -0.629318 0
M  V30 4120 C 396.357 -3.39669 -0.724031 0
M  V30 4121 C 395.311 -4.27992 0.0256173 0
M  V30 4122 C 394.637 -5.25673 -0.978383 0
M  V30 4123 C 395.937 -5.08309 1.20082 0
M  V30 4124 H 397.631 -2.83728 0.955969 0
M  V30 4125 H 395.177 -1.36416 0.461149 0
M  V30 4126 H 397.13 -4.05219 -1.15652 0
M  V30 4127 H 395.854 -2.87396 -1.5515 0
M  V30 4128 H 394.513 -3.63964 0.438812 0
M  V30 4129 H 394.161 -4.69682 -1.80022 0
M  V30 4130 H 393.861 -5.85625 -0.481378 0
M  V30 4131 H 395.385 -5.94098 -1.40995 0
M  V30 4132 H 396.799 -5.67034 0.845307 0
M  V30 4133 H 395.196 -5.77554 1.62947 0
M  V30 4134 H 396.266 -4.41365 2.00811 0
M  V30 4135 N 397.609 -0.515225 -1.4894 0
M  V30 4136 C 398.572 0.244681 -2.2789 0
M  V30 4137 C 399.572 0.881166 -1.34507 0
M  V30 4138 O 400.762 0.743497 -1.57537 0
M  V30 4139 C 397.894 1.35247 -3.12923 0
M  V30 4140 H 399.087 -0.448289 -2.96531 0
M  V30 4141 H 396.64 -0.270656 -1.53939 0
M  V30 4142 H 397.375 2.07916 -2.48881 0
M  V30 4143 H 397.16 0.901374 -3.81599 0
M  V30 4144 H 398.65 1.88737 -3.72516 0
M  V30 4145 N 399.087 1.5561 -0.249682 0
M  V30 4146 C 400.503 1.59254 0.105103 0
M  V30 4147 C 400.703 1.26685 1.56694 0
M  V30 4148 O 399.759 1.0155 2.31179 0
M  V30 4149 C 401.072 2.99687 -0.246592 0
M  V30 4150 C 402.62 3.12416 -0.191118 0
M  V30 4151 C 403.095 4.55074 -0.516885 0
M  V30 4152 N 404.586 4.60835 -0.467489 0
M  V30 4153 C 405.321 5.69201 -0.69268 0
M  V30 4154 N 404.817 6.85817 -0.981146 0
M  V30 4155 N 406.61 5.58635 -0.623198 0
M  V30 4156 H 398.761 1.75049 -1.20298 0
M  V30 4157 H 401.024 0.815003 -0.484225 0
M  V30 4158 H 400.73 3.28267 -1.26228 0
M  V30 4159 H 400.604 3.74798 0.424962 0
M  V30 4160 H 402.991 2.83615 0.815247 0
M  V30 4161 H 403.072 2.39573 -0.896563 0
M  V30 4162 H 402.716 4.84596 -1.52082 0
M  V30 4163 H 402.646 5.26181 0.210068 0
M  V30 4164 H 405.137 3.7705 -0.253373 0
M  V30 4165 H 405.45 7.64341 -1.14032 0
M  V30 4166 H 403.795 6.87494 -1.01865 0
M  V30 4167 H 406.986 4.66406 -0.397863 0
M  V30 4168 H 407.159 6.43017 -0.802093 0
M  V30 4169 N 400.565 -0.0233959 1.57583 0
M  V30 4170 C 401.813 -0.711654 1.89156 0
M  V30 4171 C 402.134 -1.75591 0.848096 0
M  V30 4172 O 401.404 -1.95547 -0.117566 0
M  V30 4173 H 399.984 -0.265835 0.698098 0
M  V30 4174 H 402.646 0.0119948 1.94896 0
M  V30 4175 H 401.742 -1.19766 2.88206 0
M  V30 4176 N 402.043 -1.548 -0.295768 0
M  V30 4177 C 403.291 -1.73985 -1.02828 0
M  V30 4178 C 403.612 -0.531406 -1.87619 0
M  V30 4179 O 402.882 0.454221 -1.90561 0
M  V30 4180 H 401.462 -0.641556 -0.382642 0
M  V30 4181 H 404.124 -1.92163 -0.325489 0
M  V30 4182 H 403.22 -2.63129 -1.67838 0
M  V30 4183 N 403.521 0.559213 -1.47345 0
M  V30 4184 C 404.468 1.66645 -1.59682 0
M  V30 4185 C 405.438 1.60168 -0.43994 0
M  V30 4186 O 406.623 1.79031 -0.659736 0
M  V30 4187 C 403.763 3.04969 -1.61518 0
M  V30 4188 C 402.876 3.21897 -2.88108 0
M  V30 4189 C 402.011 4.50608 -2.81294 0
M  V30 4190 C 401.05 4.60961 -4.02717 0
M  V30 4191 N 400.187 5.81024 -3.94151 0
M  V30 4192 H 405.027 1.55439 -2.54249 0
M  V30 4193 H 402.564 0.757219 -1.26113 0
M  V30 4194 H 404.522 3.85064 -1.60566 0
M  V30 4195 H 403.152 3.15015 -0.704645 0
M  V30 4196 H 402.204 2.35248 -2.98936 0
M  V30 4197 H 403.516 3.25412 -3.78032 0
M  V30 4198 H 402.67 5.3896 -2.7858 0
M  V30 4199 H 401.409 4.49568 -1.89049 0
M  V30 4200 H 400.414 3.71021 -4.05738 0
M  V30 4201 H 401.639 4.63761 -4.96087 0
M  V30 4202 H 399.585 5.80938 -3.04708 0
M  V30 4203 H 399.502 5.85909 -4.77752 0
M  V30 4204 H 400.77 6.71744 -3.9545 0
M  V30 4205 N 404.999 1.35443 0.805782 0
M  V30 4206 C 405.946 1.28431 1.91766 0
M  V30 4207 C 406.916 0.156102 1.65365 0
M  V30 4208 O 408.101 0.339936 1.87747 0
M  V30 4209 C 405.241 1.06301 3.2832 0
M  V30 4210 C 404.354 2.2805 3.66902 0
M  V30 4211 C 403.489 1.99064 4.92491 0
M  V30 4212 C 402.528 3.16863 5.23703 0
M  V30 4213 N 401.665 2.87647 6.40471 0
M  V30 4214 H 406.505 2.23511 1.97096 0
M  V30 4215 H 404.042 1.11105 0.964054 0
M  V30 4216 H 406 0.915012 4.07042 0
M  V30 4217 H 404.63 0.148822 3.22457 0
M  V30 4218 H 403.682 2.53711 2.83434 0
M  V30 4219 H 404.994 3.1601 3.85927 0
M  V30 4220 H 404.148 1.81099 5.7904 0
M  V30 4221 H 402.887 1.0839 4.75503 0
M  V30 4222 H 401.892 3.35404 4.35642 0
M  V30 4223 H 403.117 4.08339 5.4262 0
M  V30 4224 H 401.063 1.99568 6.24907 0
M  V30 4225 H 400.98 3.69141 6.59751 0
M  V30 4226 H 402.248 2.73226 7.30047 0
M  V30 4227 N 406.477 -1.02803 1.19454 0
M  V30 4228 C 407.754 -1.73299 0.907013 0
M  V30 4229 C 408.134 -2.02772 -0.587086 0
M  V30 4230 O 407.482 -1.68304 -1.54551 0
M  V30 4231 C 407.692 -3.00912 1.76785 0
M  V30 4232 C 409.04 -3.74403 2.00268 0
M  V30 4233 O 410.064 -3.10841 1.73943 0
M  V30 4234 O 408.923 -4.88675 2.4466 0
M  V30 4235 H 406.017 -0.754727 0.338106 0
M  V30 4236 H 408.563 -1.08754 1.30271 0
M  V30 4237 H 407.335 -2.75366 2.7801 0
M  V30 4238 H 406.958 -3.73197 1.37149 0
M  V30 4239 N 407.956 -0.998596 -1.21925 0
M  V30 4240 C 409.184 -0.696286 -1.94832 0
M  V30 4241 C 409.599 0.740032 -1.73692 0
M  V30 4242 O 408.956 1.5 -1.03953 0
M  V30 4243 C 409.007 -0.999833 -3.47398 0
M  V30 4244 O 408.728 -2.37972 -3.67833 0
M  V30 4245 C 410.229 -0.716025 -4.37479 0
M  V30 4246 H 407.449 -0.257111 -0.619786 0
M  V30 4247 H 409.993 -1.33491 -1.54921 0
M  V30 4248 H 408.148 -0.406918 -3.85257 0
M  V30 4249 H 408.562 -2.48338 -4.61983 0
M  V30 4250 H 410.036 -0.978642 -5.43256 0
M  V30 4251 H 410.513 0.349968 -4.37803 0
M  V30 4252 H 411.119 -1.29025 -4.05256 0
M  V30 4253 N 409.434 1.37368 -0.772513 0
M  V30 4254 C 410.683 1.98918 -0.333861 0
M  V30 4255 C 410.996 1.62017 1.09589 0
M  V30 4256 O 412.202 2.16676 1.63596 0
M  V30 4257 C 410.658 3.55735 -0.545971 0
M  V30 4258 C 410.266 4.01573 -1.98603 0
M  V30 4259 C 412.01 4.24156 -0.170979 0
M  V30 4260 C 409.917 5.51102 -2.1457 0
M  V30 4261 H 408.847 0.744214 -0.121085 0
M  V30 4262 H 411.498 1.56888 -0.95175 0
M  V30 4263 H 409.88 3.95748 0.141387 0
M  V30 4264 H 411.054 3.72803 -2.7084 0
M  V30 4265 H 409.369 3.45937 -2.31769 0
M  V30 4266 H 411.966 5.34024 -0.26878 0
M  V30 4267 H 412.309 4.06917 0.878855 0
M  V30 4268 H 412.842 3.89447 -0.810914 0
M  V30 4269 H 409.581 5.73268 -3.17875 0
M  V30 4270 H 409.101 5.81554 -1.46817 0
M  V30 4271 H 410.78 6.17083 -1.94468 0
M  V30 4272 N 410.912 0.523116 1.48665 0
M  V30 4273 C 412.161 -0.01544 2.01694 0
M  V30 4274 C 412.474 -1.35975 1.40606 0
M  V30 4275 O 413.68 -1.98627 1.85093 0
M  V30 4276 C 412.136 -0.0779303 3.59816 0
M  V30 4277 C 411.744 1.26107 4.29885 0
M  V30 4278 C 413.488 -0.565678 4.20714 0
M  V30 4279 C 411.395 1.15954 5.79921 0
M  V30 4280 H 410.325 -0.00954163 0.75394 0
M  V30 4281 H 412.976 0.665865 1.70993 0
M  V30 4282 H 411.358 -0.824165 3.87329 0
M  V30 4283 H 412.532 2.02233 4.14051 0
M  V30 4284 H 410.847 1.68401 3.80828 0
M  V30 4285 H 413.444 -0.6595 5.30617 0
M  V30 4286 H 413.787 -1.56984 3.85567 0
M  V30 4287 H 414.32 0.12467 3.97605 0
M  V30 4288 H 411.059 2.13864 6.19631 0
M  V30 4289 H 410.579 0.439529 5.98187 0
M  V30 4290 H 412.258 0.847361 6.41427 0
M  V30 4291 N 412.39 -1.55475 0.257931 0
M  V30 4292 C 413.353 -2.20551 -0.623706 0
M  V30 4293 C 414.353 -1.17809 -1.09443 0
M  V30 4294 O 415.543 -1.42823 -0.997362 0
M  V30 4295 C 412.675 -2.85784 -1.8585 0
M  V30 4296 H 413.868 -2.99848 -0.0557743 0
M  V30 4297 H 411.421 -1.56298 0.0084422 0
M  V30 4298 H 412.156 -2.10453 -2.46739 0
M  V30 4299 H 411.941 -3.61057 -1.52907 0
M  V30 4300 H 413.431 -3.35553 -2.48584 0
M  V30 4301 N 413.868 0.0150385 -1.57593 0
M  V30 4302 C 415.116 0.701613 -1.8953 0
M  V30 4303 C 415.437 1.75139 -0.857396 0
M  V30 4304 O 414.707 1.95607 0.107194 0
M  V30 4305 H 413.287 0.26213 -0.699498 0
M  V30 4306 H 415.949 -0.0223304 -1.94887 0
M  V30 4307 H 415.045 1.18236 -2.88837 0
M  V30 4308 N 415.346 1.54954 0.287554 0
M  V30 4309 C 416.256 1.8991 1.37736 0
M  V30 4310 C 417.272 0.794701 1.54792 0
M  V30 4311 O 418.448 1.09243 1.69198 0
M  V30 4312 C 415.513 2.15108 2.71899 0
M  V30 4313 C 414.574 3.38752 2.63715 0
M  V30 4314 C 413.807 3.62739 3.91479 0
M  V30 4315 O 414.03 2.89492 4.91478 0
M  V30 4316 O 412.964 4.56267 3.92561 0
M  V30 4317 H 416.79 2.82652 1.11092 0
M  V30 4318 H 414.375 1.41315 0.484807 0
M  V30 4319 H 416.257 2.32806 3.51254 0
M  V30 4320 H 414.932 1.25551 2.9836 0
M  V30 4321 H 413.839 3.26405 1.82786 0
M  V30 4322 H 415.172 4.28483 2.42205 0
M  V30 4323 N 416.824 -0.551391 1.4764 0
M  V30 4324 C 417.771 -1.65796 1.60563 0
M  V30 4325 C 418.741 -1.59932 0.448428 0
M  V30 4326 O 419.926 -1.78679 0.669222 0
M  V30 4327 C 417.066 -3.04108 1.63133 0
M  V30 4328 C 416.179 -3.20365 2.89811 0
M  V30 4329 C 415.314 -4.49109 2.8368 0
M  V30 4330 C 414.353 -4.58819 4.05156 0
M  V30 4331 N 413.49 -5.78926 3.97227 0
M  V30 4332 H 418.33 -1.54088 2.5507 0
M  V30 4333 H 415.867 -0.75052 1.26513 0
M  V30 4334 H 417.825 -3.84207 1.62606 0
M  V30 4335 H 416.455 -3.14637 0.721341 0
M  V30 4336 H 415.507 -2.33659 3.00179 0
M  V30 4337 H 416.819 -3.23402 3.79753 0
M  V30 4338 H 415.973 -5.37475 2.81434 0
M  V30 4339 H 414.712 -4.4856 1.91431 0
M  V30 4340 H 413.717 -3.68864 4.077 0
M  V30 4341 H 414.942 -4.61124 4.98539 0
M  V30 4342 H 412.888 -5.79314 3.07785 0
M  V30 4343 H 412.805 -5.83367 4.80853 0
M  V30 4344 H 414.073 -6.69637 3.99007 0
M  V30 4345 N 418.302 -1.35869 -0.798587 0
M  V30 4346 C 419.713 -1.26498 -1.37314 0
M  V30 4347 C 420.064 0.0991899 -1.95949 0
M  V30 4348 O 419.189 1.0004 -1.91888 0
M  V30 4349 C 419.784 -2.29054 -2.49639 0
M  V30 4350 C 418.343 -2.234 -3.02935 0
M  V30 4351 C 417.49 -2.14329 -1.75949 0
M  V30 4352 H 420.441 -1.46881 -0.600971 0
M  V30 4353 H 420.462 -1.92166 -3.28409 0
M  V30 4354 H 419.974 -3.2833 -2.06933 0
M  V30 4355 H 418.075 -1.27562 -3.50084 0
M  V30 4356 H 418.188 -3.15703 -3.60372 0
M  V30 4357 H 416.552 -1.60435 -1.9782 0
M  V30 4358 H 417.335 -3.15477 -1.35384 0
M  V30 4359 N 419.78 1.02168 -1.19998 0
M  V30 4360 C 421.008 1.79296 -1.03249 0
M  V30 4361 C 421.423 1.84103 0.418502 0
M  V30 4362 O 420.78 1.29031 1.29063 0
M  V30 4363 C 420.831 3.24007 -1.60319 0
M  V30 4364 O 420.552 3.19512 -2.99739 0
M  V30 4365 C 422.053 4.17704 -1.48453 0
M  V30 4366 H 419.273 0.564016 -0.363493 0
M  V30 4367 H 421.817 1.28639 -1.58973 0
M  V30 4368 H 419.972 3.7183 -1.08727 0
M  V30 4369 H 420.386 4.10306 -3.26725 0
M  V30 4370 H 421.86 5.17104 -1.93153 0
M  V30 4371 H 422.337 4.37029 -0.436193 0
M  V30 4372 H 422.943 3.7576 -1.99211 0
M  V30 4373 N 421.258 1.00505 1.21394 0
M  V30 4374 C 422.205 0.565496 2.23765 0
M  V30 4375 C 423.175 -0.408466 1.60999 0
M  V30 4376 O 424.36 -0.310503 1.88257 0
M  V30 4377 C 421.5 -0.101667 3.4495 0
M  V30 4378 C 420.613 0.915479 4.22188 0
M  V30 4379 C 419.748 0.220574 5.30742 0
M  V30 4380 C 418.787 1.22527 5.99711 0
M  V30 4381 N 417.924 0.557831 6.9988 0
M  V30 4382 H 422.764 1.44314 2.60725 0
M  V30 4383 H 420.301 0.722643 1.28126 0
M  V30 4384 H 422.259 -0.505504 4.14126 0
M  V30 4385 H 420.889 -0.94303 3.08718 0
M  V30 4386 H 419.941 1.43756 3.52191 0
M  V30 4387 H 421.253 1.68005 4.69655 0
M  V30 4388 H 420.407 -0.239368 6.06228 0
M  V30 4389 H 419.146 -0.576401 4.84282 0
M  V30 4390 H 418.151 1.69571 5.22997 0
M  V30 4391 H 419.376 2.02332 6.48258 0
M  V30 4392 H 417.322 -0.219486 6.55633 0
M  V30 4393 H 417.239 1.26065 7.45415 0
M  V30 4394 H 418.507 0.121095 7.79406 0
M  V30 4395 N 422.737 -1.36956 0.779787 0
M  V30 4396 C 424.014 -1.93697 0.272156 0
M  V30 4397 C 424.394 -1.71267 -1.23413 0
M  V30 4398 O 423.742 -1.06607 -2.02107 0
M  V30 4399 C 423.952 -3.42812 0.654291 0
M  V30 4400 C 425.3 -4.19921 0.628602 0
M  V30 4401 O 426.324 -3.51209 0.594172 0
M  V30 4402 O 425.183 -5.42465 0.662864 0
M  V30 4403 H 422.277 -0.824447 0.0649286 0
M  V30 4404 H 424.823 -1.46196 0.861682 0
M  V30 4405 H 423.595 -3.52754 1.69353 0
M  V30 4406 H 423.218 -3.97582 0.0381369 0
M  V30 4407 N 424.215 -0.530993 -1.48385 0
M  V30 4408 C 425.462 0.0027373 -2.025 0
M  V30 4409 C 425.79 1.34186 -1.40799 0
M  V30 4410 O 425.045 1.88 -0.543544 0
M  V30 4411 C 425.344 0.172742 -3.56982 0
M  V30 4412 C 425.01 -1.09215 -4.37473 0
M  V30 4413 C 423.672 -1.43881 -4.59186 0
M  V30 4414 C 426.024 -1.93153 -4.84088 0
M  V30 4415 C 423.352 -2.62381 -5.2476 0
M  V30 4416 C 425.704 -3.10833 -5.50968 0
M  V30 4417 C 424.368 -3.45843 -5.70919 0
M  V30 4418 H 423.638 0.00100165 -0.740999 0
M  V30 4419 H 426.285 -0.697219 -1.78357 0
M  V30 4420 H 424.59 0.955473 -3.79971 0
M  V30 4421 H 426.287 0.600642 -3.96476 0
M  V30 4422 H 422.877 -0.812177 -4.20834 0
M  V30 4423 H 427.061 -1.67683 -4.67115 0
M  V30 4424 H 422.317 -2.89707 -5.38405 0
M  V30 4425 H 426.491 -3.7618 -5.86056 0
M  V30 4426 H 424.118 -4.37764 -6.21503 0
M  V30 4427 N 425.693 1.55336 -0.266172 0
M  V30 4428 C 426.656 2.20878 0.612001 0
M  V30 4429 C 427.656 1.18388 1.08816 0
M  V30 4430 O 428.846 1.4335 0.989774 0
M  V30 4431 C 425.978 2.86765 1.84332 0
M  V30 4432 H 427.171 2.99873 0.0398718 0
M  V30 4433 H 424.724 1.56291 -0.0167309 0
M  V30 4434 H 425.459 2.11759 2.45619 0
M  V30 4435 H 425.244 3.61862 1.5099 0
M  V30 4436 H 426.734 3.36867 2.46801 0
M  V30 4437 N 427.171 -0.0066808 1.57599 0
M  V30 4438 C 428.418 -0.69292 1.90276 0
M  V30 4439 C 428.746 -1.74148 0.866192 0
M  V30 4440 O 428.001 -1.95268 -0.129933 0
M  V30 4441 C 428.3 -1.37939 3.29708 0
M  V30 4442 C 427.966 -0.464679 4.48499 0
M  V30 4443 C 426.628 -0.212809 4.80729 0
M  V30 4444 C 428.98 0.16551 5.20937 0
M  V30 4445 C 426.308 0.677653 5.82773 0
M  V30 4446 C 428.66 1.04381 6.23929 0
M  V30 4447 C 427.324 1.30492 6.54621 0
M  V30 4448 H 426.594 -0.253558 0.696268 0
M  V30 4449 H 429.241 0.0474123 1.91441 0
M  V30 4450 H 427.546 -2.1936 3.24636 0
M  V30 4451 H 429.243 -1.9163 3.52249 0
M  V30 4452 H 425.833 -0.671153 4.23313 0
M  V30 4453 H 430.017 -0.0160756 4.96297 0
M  V30 4454 H 425.273 0.88803 6.04917 0
M  V30 4455 H 429.447 1.53851 6.79193 0
M  V30 4456 H 427.074 1.99662 7.33512 0
M  V30 4457 N 428.649 -1.55105 -0.279332 0
M  V30 4458 C 429.612 -1.86783 -1.32834 0
M  V30 4459 C 430.612 -0.74199 -1.42657 0
M  V30 4460 O 431.802 -1.0102 -1.41918 0
M  V30 4461 C 428.934 -2.06746 -2.71052 0
M  V30 4462 H 430.127 -2.8055 -1.05979 0
M  V30 4463 H 427.68 -1.47499 -0.517087 0
M  V30 4464 H 428.415 -1.15339 -3.03097 0
M  V30 4465 H 428.2 -2.88711 -2.65309 0
M  V30 4466 H 429.69 -2.32549 -3.46858 0
M  V30 4467 N 430.127 0.543554 -1.4793 0
M  V30 4468 C 431.352 1.32995 -1.59145 0
M  V30 4469 C 431.777 1.86472 -0.246956 0
M  V30 4470 O 431.135 1.63696 0.779324 0
M  V30 4471 C 431.183 2.46623 -2.63077 0
M  V30 4472 O 430.287 3.49261 -2.19295 0
M  V30 4473 H 429.628 0.394472 -0.534124 0
M  V30 4474 H 432.158 0.655489 -1.93816 0
M  V30 4475 H 432.168 2.93001 -2.83926 0
M  V30 4476 H 430.843 2.07059 -3.60693 0
M  V30 4477 H 429.42 3.09094 -2.08603 0
M  V30 4478 N 431.605 1.3629 0.791371 0
M  V30 4479 C 432.851 1.30605 1.55146 0
M  V30 4480 C 433.184 -0.115042 1.93859 0
M  V30 4481 O 432.459 -1.06798 1.62556 0
M  V30 4482 C 432.742 2.22692 2.82985 0
M  V30 4483 C 432.595 3.73489 2.50651 0
M  V30 4484 C 433.914 2.13588 3.84796 0
M  V30 4485 H 431.033 0.475761 0.562868 0
M  V30 4486 H 433.675 1.66825 0.909358 0
M  V30 4487 H 431.825 1.91933 3.37778 0
M  V30 4488 H 433.497 4.14758 2.01924 0
M  V30 4489 H 431.74 3.93021 1.83622 0
M  V30 4490 H 432.411 4.3333 3.41949 0
M  V30 4491 H 434.887 2.40659 3.39445 0
M  V30 4492 H 433.763 2.80195 4.71998 0
M  V30 4493 H 434.024 1.12256 4.27611 0
M  V30 4494 N 433.083 -1.0153 1.20538 0
M  V30 4495 C 434.329 -1.75408 1.01783 0
M  V30 4496 C 434.662 -1.88943 -0.448814 0
M  V30 4497 O 433.937 -1.4162 -1.33319 0
M  V30 4498 C 434.22 -3.17255 1.70356 0
M  V30 4499 C 434.073 -3.11508 3.24473 0
M  V30 4500 C 435.392 -4.15955 1.43769 0
M  V30 4501 H 432.511 -0.636713 0.371167 0
M  V30 4502 H 435.153 -1.18436 1.4857 0
M  V30 4503 H 433.303 -3.65898 1.30578 0
M  V30 4504 H 434.975 -2.70658 3.73553 0
M  V30 4505 H 433.218 -2.4887 3.55311 0
M  V30 4506 H 433.889 -4.11784 3.67611 0
M  V30 4507 H 436.365 -3.75973 1.7828 0
M  V30 4508 H 435.241 -5.13368 1.94279 0
M  V30 4509 H 435.502 -4.40586 0.365564 0
M  V30 4510 N 434.561 -1.01147 -1.20859 0
M  V30 4511 C 435.524 -0.582224 -2.21682 0
M  V30 4512 C 436.524 0.344887 -1.57058 0
M  V30 4513 O 437.714 0.134281 -1.73682 0
M  V30 4514 C 434.846 0.150496 -3.40568 0
M  V30 4515 H 436.039 -1.47408 -2.61172 0
M  V30 4516 H 433.592 -0.800695 -1.34233 0
M  V30 4517 H 434.327 1.0575 -3.06574 0
M  V30 4518 H 434.112 -0.515444 -3.88697 0
M  V30 4519 H 435.602 0.438344 -4.15293 0
M  V30 4520 N 436.039 1.36541 -0.78704 0
M  V30 4521 C 437.316 1.9355 -0.282424 0
M  V30 4522 C 437.696 1.71919 1.22503 0
M  V30 4523 O 437.044 1.07677 2.01539 0
M  V30 4524 C 437.254 3.4246 -0.672462 0
M  V30 4525 C 438.602 4.19582 -0.650863 0
M  V30 4526 O 439.626 3.50889 -0.612789 0
M  V30 4527 O 438.485 5.42106 -0.691623 0
M  V30 4528 H 435.579 0.824091 -0.0693 0
M  V30 4529 H 438.125 1.45736 -0.869423 0
M  V30 4530 H 436.897 3.51851 -1.71221 0
M  V30 4531 H 436.52 3.97556 -0.0592211 0
M  V30 4532 N 437.518 0.538854 1.48102 0
M  V30 4533 C 438.465 -0.219042 2.29758 0
M  V30 4534 C 439.435 -0.925562 1.37922 0
M  V30 4535 O 440.62 -0.924855 1.66886 0
M  V30 4536 C 437.76 -1.25452 3.2149 0
M  V30 4537 C 436.873 -0.555943 4.28408 0
M  V30 4538 C 436.008 -1.57512 5.0731 0
M  V30 4539 C 435.047 -0.860498 6.06021 0
M  V30 4540 N 434.184 -1.82564 6.77949 0
M  V30 4541 H 439.024 0.483449 2.94052 0
M  V30 4542 H 436.561 0.250247 1.44956 0
M  V30 4543 H 438.519 -1.86727 3.7308 0
M  V30 4544 H 437.149 -1.92528 2.591 0
M  V30 4545 H 436.201 0.170938 3.80016 0
M  V30 4546 H 437.513 0.00474616 4.988 0
M  V30 4547 H 436.667 -2.26191 5.62959 0
M  V30 4548 H 435.406 -2.16972 4.36778 0
M  V30 4549 H 434.411 -0.159686 5.49568 0
M  V30 4550 H 435.636 -0.271897 6.78555 0
M  V30 4551 H 433.582 -2.40915 6.10161 0
M  V30 4552 H 433.499 -1.31662 7.44447 0
M  V30 4553 H 434.767 -2.50414 7.38182 0
M  V30 4554 N 438.996 -1.55193 0.274407 0
M  V30 4555 C 440.273 -1.91584 -0.394331 0
M  V30 4556 C 440.653 -1.19858 -1.73774 0
M  V30 4557 O 440.001 -0.3252 -2.26174 0
M  V30 4558 C 440.211 -3.4487 -0.535311 0
M  V30 4559 C 441.559 -4.16636 -0.818534 0
M  V30 4560 O 442.583 -3.5076 -0.620146 0
M  V30 4561 O 441.442 -5.33209 -1.19792 0
M  V30 4562 H 438.536 -0.798349 -0.215794 0
M  V30 4563 H 441.082 -1.66646 0.320507 0
M  V30 4564 H 439.854 -3.89145 0.410141 0
M  V30 4565 H 439.477 -3.75759 -1.29964 0
M  V30 4566 N 440.474 -0.00167713 -1.576 0
M  V30 4567 C 441.723 0.682021 -1.89819 0
M  V30 4568 C 442.036 1.74844 -0.876871 0
M  V30 4569 O 443.242 2.48688 -1.08934 0
M  V30 4570 C 441.698 1.26425 -3.36964 0
M  V30 4571 C 441.306 0.232568 -4.47396 0
M  V30 4572 C 443.05 1.92604 -3.78291 0
M  V30 4573 C 440.957 0.824882 -5.85619 0
M  V30 4574 H 439.887 0.258499 -0.708304 0
M  V30 4575 H 442.538 -0.0624957 -1.83394 0
M  V30 4576 H 440.92 2.05949 -3.38232 0
M  V30 4577 H 442.094 -0.5382 -4.57646 0
M  V30 4578 H 440.409 -0.32888 -4.15099 0
M  V30 4579 H 443.006 2.37827 -4.78897 0
M  V30 4580 H 443.349 2.75732 -3.11894 0
M  V30 4581 H 443.882 1.19812 -3.79328 0
M  V30 4582 H 440.621 0.0323542 -6.55492 0
M  V30 4583 H 440.141 1.56477 -5.79029 0
M  V30 4584 H 441.82 1.32301 -6.33329 0
M  V30 4585 N 441.952 1.55251 0.271103 0
M  V30 4586 C 442.899 1.88261 1.33516 0
M  V30 4587 C 443.869 0.734296 1.48988 0
M  V30 4588 O 445.054 0.985741 1.63364 0
M  V30 4589 C 442.194 2.16168 2.69008 0
M  V30 4590 C 441.307 3.43678 2.61743 0
M  V30 4591 C 440.442 3.61276 3.89427 0
M  V30 4592 C 439.481 4.82472 3.7668 0
M  V30 4593 N 438.618 4.96717 4.96202 0
M  V30 4594 H 443.458 2.79015 1.04665 0
M  V30 4595 H 440.995 1.38137 0.505618 0
M  V30 4596 H 442.953 2.30349 3.47844 0
M  V30 4597 H 441.583 1.28646 2.96057 0
M  V30 4598 H 440.635 3.37959 1.74607 0
M  V30 4599 H 441.947 4.3265 2.48224 0
M  V30 4600 H 441.101 3.75284 4.76704 0
M  V30 4601 H 439.84 2.70492 4.05814 0
M  V30 4602 H 438.845 4.68465 2.87786 0
M  V30 4603 H 440.07 5.74692 3.61809 0
M  V30 4604 H 438.016 4.08865 5.12997 0
M  V30 4605 H 437.933 5.79738 4.85222 0
M  V30 4606 H 439.201 5.15113 5.85046 0
M  V30 4607 N 443.43 -0.535701 1.48216 0
M  V30 4608 C 444.377 -1.64083 1.62312 0
M  V30 4609 C 445.347 -1.59448 0.465365 0
M  V30 4610 O 446.532 -1.77959 0.688135 0
M  V30 4611 C 443.672 -3.0236 1.66349 0
M  V30 4612 C 442.785 -3.17273 2.93193 0
M  V30 4613 C 441.92 -4.46075 2.88427 0
M  V30 4614 C 440.959 -4.54496 4.1 0
M  V30 4615 N 440.096 -5.7468 4.03345 0
M  V30 4616 H 444.936 -1.51374 2.5669 0
M  V30 4617 H 442.473 -0.737059 1.27302 0
M  V30 4618 H 444.431 -3.82461 1.66672 0
M  V30 4619 H 443.061 -3.13854 0.754672 0
M  V30 4620 H 442.113 -2.30462 3.02641 0
M  V30 4621 H 443.425 -3.19357 3.83162 0
M  V30 4622 H 442.579 -5.3446 2.87119 0
M  V30 4623 H 441.318 -4.46504 1.96177 0
M  V30 4624 H 440.323 -3.64519 4.11589 0
M  V30 4625 H 441.548 -4.5581 5.03402 0
M  V30 4626 H 439.494 -5.76017 3.13912 0
M  V30 4627 H 439.411 -5.78234 4.87013 0
M  V30 4628 H 440.679 -6.65367 4.06087 0
M  V30 4629 N 444.908 -1.36708 -0.784132 0
M  V30 4630 C 446.156 -1.30972 -1.53918 0
M  V30 4631 C 446.477 0.109086 -1.94695 0
M  V30 4632 O 445.747 1.05048 -1.65353 0
M  V30 4633 H 444.327 -0.481819 -0.570841 0
M  V30 4634 H 446.989 -1.71063 -0.934002 0
M  V30 4635 H 446.085 -1.94061 -2.44431 0
M  V30 4636 N 446.386 1.0089 -1.21074 0
M  V30 4637 C 447.296 2.13039 -0.982425 0
M  V30 4638 C 448.312 1.73881 0.0642161 0
M  V30 4639 O 449.488 2.01012 -0.12496 0
M  V30 4640 C 446.553 3.42377 -0.545803 0
M  V30 4641 C 445.614 3.95731 -1.6642 0
M  V30 4642 C 444.847 5.18896 -1.24832 0
M  V30 4643 O 445.07 5.70273 -0.120265 0
M  V30 4644 O 444.004 5.65597 -2.05873 0
M  V30 4645 H 447.83 2.35175 -1.92163 0
M  V30 4646 H 445.415 1.1142 -0.995285 0
M  V30 4647 H 447.297 4.20244 -0.311912 0
M  V30 4648 H 445.972 3.21639 0.364727 0
M  V30 4649 H 444.879 3.19108 -1.95246 0
M  V30 4650 H 446.212 4.20872 -2.55201 0
M  V30 4651 N 447.864 1.01787 1.20321 0
M  V30 4652 C 448.794 0.609625 2.25401 0
M  V30 4653 C 449.775 -0.375951 1.65893 0
M  V30 4654 O 450.96 -0.261101 1.92437 0
M  V30 4655 C 448.09 -0.0515995 3.47262 0
M  V30 4656 C 447.044 0.855095 4.19371 0
M  V30 4657 C 446.37 0.0595757 5.34667 0
M  V30 4658 C 447.67 2.16374 4.75373 0
M  V30 4659 H 449.364 1.48803 2.59804 0
M  V30 4660 H 446.91 0.716934 1.24884 0
M  V30 4661 H 448.863 -0.348764 4.19954 0
M  V30 4662 H 447.587 -0.964726 3.12027 0
M  V30 4663 H 446.246 1.13628 3.48546 0
M  V30 4664 H 445.894 -0.85524 4.95676 0
M  V30 4665 H 445.594 0.663406 5.83843 0
M  V30 4666 H 447.118 -0.231105 6.10162 0
M  V30 4667 H 448.532 1.92885 5.39878 0
M  V30 4668 H 446.929 2.71853 5.34991 0
M  V30 4669 H 447.999 2.82589 3.94045 0
M  V30 4670 N 449.342 -1.36122 0.79427 0
M  V30 4671 C 450.272 -2.32551 0.210328 0
M  V30 4672 C 451.253 -1.56884 -0.657386 0
M  V30 4673 O 452.438 -1.85014 -0.590207 0
M  V30 4674 C 449.568 -3.41128 -0.651819 0
M  V30 4675 C 448.522 -4.27842 0.116395 0
M  V30 4676 C 447.848 -5.2763 -0.86666 0
M  V30 4677 C 449.148 -5.05647 1.30837 0
M  V30 4678 H 450.842 -2.81636 1.01594 0
M  V30 4679 H 448.388 -1.35407 0.489981 0
M  V30 4680 H 450.341 -4.07581 -1.07031 0
M  V30 4681 H 449.065 -2.90622 -1.49019 0
M  V30 4682 H 447.724 -3.62952 0.515915 0
M  V30 4683 H 447.372 -4.73395 -1.70019 0
M  V30 4684 H 447.072 -5.86514 -0.35705 0
M  V30 4685 H 448.596 -5.96955 -1.28361 0
M  V30 4686 H 450.01 -5.65113 0.965393 0
M  V30 4687 H 448.407 -5.73967 1.75161 0
M  V30 4688 H 449.477 -4.37006 2.10128 0
M  V30 4689 N 450.82 -0.546701 -1.47814 0
M  V30 4690 C 452.045 -0.021268 -2.07389 0
M  V30 4691 C 452.47 1.25822 -1.39822 0
M  V30 4692 O 451.828 1.75111 -0.46968 0
M  V30 4693 C 451.876 0.168502 -3.60206 0
M  V30 4694 O 450.98 1.23347 -3.93522 0
M  V30 4695 H 450.321 -0.0466108 -0.662362 0
M  V30 4696 H 452.851 -0.759387 -1.89985 0
M  V30 4697 H 452.861 0.385982 -4.0617 0
M  V30 4698 H 451.536 -0.766075 -4.08784 0
M  V30 4699 H 450.113 0.997319 -3.59316 0
M  V30 4700 N 452.299 1.55045 -0.282633 0
M  V30 4701 C 453.547 1.99365 0.331334 0
M  V30 4702 C 453.868 1.1725 1.55812 0
M  V30 4703 O 453.138 0.263871 1.94115 0
M  V30 4704 H 451.718 0.736397 0.125414 0
M  V30 4705 H 454.38 1.90964 -0.389711 0
M  V30 4706 H 453.476 3.0596 0.616036 0
M  V30 4707 N 453.777 0.010035 1.57597 0
M  V30 4708 C 455.054 -0.710296 1.82248 0
M  V30 4709 C 455.434 -1.91426 0.889911 0
M  V30 4710 O 454.782 -2.28424 -0.0590292 0
M  V30 4711 C 454.992 -1.10655 3.30993 0
M  V30 4712 C 456.34 -1.50621 3.96987 0
M  V30 4713 O 457.364 -1.20007 3.35375 0
M  V30 4714 O 456.223 -2.07587 5.05539 0
M  V30 4715 H 453.317 -0.34673 0.750804 0
M  V30 4716 H 455.863 0.0362578 1.69661 0
M  V30 4717 H 454.635 -0.248826 3.90508 0
M  V30 4718 H 454.258 -1.91189 3.48615 0
M  V30 4719 N 455.255 -1.55392 -0.262866 0
M  V30 4720 C 456.203 -1.8977 -1.345 0
M  V30 4721 C 457.197 -0.775063 -1.50629 0
M  V30 4722 O 458.403 -0.959519 -1.52293 0
M  V30 4723 H 454.778 -0.602467 -0.450041 0
M  V30 4724 H 456.749 -2.80147 -1.02762 0
M  V30 4725 C 455.498 -2.19501 -2.69657 0
M  V30 4726 H 454.821 -3.05378 -2.5804 0
M  V30 4727 H 456.261 -2.47469 -3.44289 0
M  V30 4728 C 454.72 -1.00597 -3.21531 0
M  V30 4729 O 455.25 -0.245768 -4.00947 0
M  V30 4730 N 453.456 -0.800911 -2.79345 0
M  V30 4731 H 453.003 -1.42079 -2.14875 0
M  V30 4732 H 452.961 -0.00697996 -3.14399 0
M  V30 4733 N 456.733 0.527833 -1.48498 0
M  V30 4734 C 457.663 1.64136 -1.66077 0
M  V30 4735 C 458.644 1.62286 -0.509625 0
M  V30 4736 O 459.829 1.79449 -0.742413 0
M  V30 4737 C 456.959 3.02717 -1.70234 0
M  V30 4738 C 455.913 3.19426 -2.8487 0
M  V30 4739 C 455.239 4.5909 -2.74118 0
M  V30 4740 C 456.539 3.01993 -4.26142 0
M  V30 4741 H 458.233 1.4968 -2.593 0
M  V30 4742 H 455.779 0.718654 -1.24785 0
M  V30 4743 H 457.732 3.80491 -1.8112 0
M  V30 4744 H 456.456 3.18201 -0.735911 0
M  V30 4745 H 455.115 2.4407 -2.73542 0
M  V30 4746 H 454.763 4.71413 -1.7544 0
M  V30 4747 H 454.463 4.71214 -3.51042 0
M  V30 4748 H 455.987 5.3896 -2.86974 0
M  V30 4749 H 457.401 3.69558 -4.38292 0
M  V30 4750 H 455.798 3.2561 -5.04082 0
M  V30 4751 H 456.868 1.98396 -4.42456 0
M  V30 4752 N 458.211 1.37122 0.776871 0
M  V30 4753 C 459.457 1.3325 1.53675 0
M  V30 4754 C 459.812 -0.0839891 1.92217 0
M  V30 4755 O 459.105 -1.04145 1.60824 0
M  V30 4756 C 459.299 2.20068 2.81611 0
M  V30 4757 C 459.128 3.70016 2.55574 0
M  V30 4758 C 457.898 4.39144 2.4996 0
M  V30 4759 C 460.096 4.62996 2.23917 0
M  V30 4760 N 458.078 5.74663 2.15953 0
M  V30 4761 C 459.449 5.86854 2.00005 0
M  V30 4762 C 461.504 4.51433 2.1003 0
M  V30 4763 C 460.207 7.00446 1.63609 0
M  V30 4764 C 462.233 5.64905 1.75033 0
M  V30 4765 C 461.595 6.8781 1.51977 0
M  V30 4766 H 457.694 0.542878 0.562856 0
M  V30 4767 H 460.278 1.72295 0.906784 0
M  V30 4768 H 458.449 1.83248 3.42454 0
M  V30 4769 H 460.181 2.07492 3.47461 0
M  V30 4770 H 456.936 3.92088 2.65639 0
M  V30 4771 H 457.36 6.46268 2.0166 0
M  V30 4772 H 462.002 3.56987 2.26539 0
M  V30 4773 H 459.72 7.94831 1.45837 0
M  V30 4774 H 463.306 5.57926 1.64952 0
M  V30 4775 H 462.186 7.74126 1.25296 0
M  V30 4776 N 459.689 -1.00246 1.21608 0
M  V30 4777 C 460.935 -1.74319 1.03638 0
M  V30 4778 C 461.268 -1.89408 -0.428749 0
M  V30 4779 O 460.543 -1.43026 -1.3181 0
M  V30 4780 C 460.826 -3.15431 1.73711 0
M  V30 4781 C 460.679 -3.08049 3.27759 0
M  V30 4782 C 461.998 -4.14407 1.48173 0
M  V30 4783 H 459.117 -0.632741 0.377899 0
M  V30 4784 H 461.759 -1.16853 1.49818 0
M  V30 4785 H 459.909 -3.64493 1.34452 0
M  V30 4786 H 461.581 -2.66681 3.76403 0
M  V30 4787 H 459.824 -2.45088 3.57931 0
M  V30 4788 H 460.495 -4.07862 3.71958 0
M  V30 4789 H 462.971 -3.74061 1.82258 0
M  V30 4790 H 461.847 -5.11279 1.99713 0
M  V30 4791 H 462.108 -4.40174 0.412273 0
M  V30 4792 N 461.167 -1.02423 -1.1978 0
M  V30 4793 C 462.114 -0.601023 -2.22837 0
M  V30 4794 C 463.084 0.382801 -1.61629 0
M  V30 4795 O 464.269 0.280514 -1.88727 0
M  V30 4796 C 461.409 0.0467755 -3.45068 0
M  V30 4797 C 460.522 -0.98253 -4.20678 0
M  V30 4798 C 459.657 -0.304982 -5.30324 0
M  V30 4799 C 458.696 -1.32052 -5.97686 0
M  V30 4800 N 457.833 -0.669105 -6.98904 0
M  V30 4801 H 462.673 -1.48444 -2.58396 0
M  V30 4802 H 460.21 -0.742936 -1.2696 0
M  V30 4803 H 462.168 0.439556 -4.14878 0
M  V30 4804 H 460.798 0.893796 -3.10179 0
M  V30 4805 H 459.85 -1.49341 -3.49859 0
M  V30 4806 H 461.162 -1.75455 -4.66923 0
M  V30 4807 H 460.316 0.142893 -6.06532 0
M  V30 4808 H 459.055 0.499283 -4.85138 0
M  V30 4809 H 458.06 -1.7787 -5.20233 0
M  V30 4810 H 459.285 -2.1262 -6.44957 0
M  V30 4811 H 457.231 0.115152 -6.55899 0
M  V30 4812 H 457.148 -1.37908 -7.43315 0
M  V30 4813 H 458.416 -0.245076 -7.79115 0
M  V30 4814 N 462.645 1.35699 -0.801477 0
M  V30 4815 C 464.061 1.52065 -0.484596 0
M  V30 4816 C 464.261 1.75215 0.995084 0
M  V30 4817 O 463.317 1.79061 1.78026 0
M  V30 4818 C 464.63 2.69908 -1.32552 0
M  V30 4819 C 466.178 2.83784 -1.32044 0
M  V30 4820 C 466.653 4.04646 -2.14536 0
M  V30 4821 N 468.144 4.11814 -2.12046 0
M  V30 4822 C 468.879 5.04437 -2.72636 0
M  V30 4823 N 468.375 6.02426 -3.42133 0
M  V30 4824 N 470.168 4.97144 -2.62305 0
M  V30 4825 H 462.319 1.18928 -1.75983 0
M  V30 4826 H 464.582 0.581455 -0.748741 0
M  V30 4827 H 464.288 2.59363 -2.37537 0
M  V30 4828 H 464.162 3.64376 -0.975181 0
M  V30 4829 H 466.549 2.93783 -0.27846 0
M  V30 4830 H 466.63 1.90188 -1.71062 0
M  V30 4831 H 466.274 3.95407 -3.18772 0
M  V30 4832 H 466.204 4.97413 -1.72882 0
M  V30 4833 H 468.695 3.41664 -1.61476 0
M  V30 4834 H 469.008 6.69688 -3.85666 0
M  V30 4835 H 467.353 6.02615 -3.46237 0
M  V30 4836 H 470.544 4.19546 -2.07603 0
M  V30 4837 H 470.717 5.69138 -3.09815 0
M  V30 4838 N 464.123 0.554532 1.47522 0
M  V30 4839 C 465.534 0.120446 1.86311 0
M  V30 4840 C 465.885 -1.30904 1.46145 0
M  V30 4841 O 465.01 -1.98434 0.863294 0
M  V30 4842 C 465.605 0.211808 3.38137 0
M  V30 4843 C 464.164 -0.167224 3.76028 0
M  V30 4844 C 463.311 0.560576 2.71575 0
M  V30 4845 H 466.262 0.764408 1.39077 0
M  V30 4846 H 466.283 -0.570275 3.76202 0
M  V30 4847 H 465.795 1.25232 3.6734 0
M  V30 4848 H 463.896 -1.20894 3.52442 0
M  V30 4849 H 464.009 0.189473 4.78725 0
M  V30 4850 H 462.373 0.00396836 2.547 0
M  V30 4851 H 463.156 1.60219 3.0362 0
M  V30 4852 N 465.601 -1.54893 0.290851 0
M  V30 4853 C 466.849 -1.99538 -0.320756 0
M  V30 4854 C 467.17 -1.18075 -1.55188 0
M  V30 4855 O 466.44 -0.274162 -1.93972 0
M  V30 4856 H 465.02 -0.737052 -0.121507 0
M  V30 4857 H 467.682 -1.90755 0.399832 0
M  V30 4858 H 466.778 -3.06282 -0.599802 0
M  V30 4859 N 467.08 -0.0183926 -1.57589 0
M  V30 4860 C 468.028 0.985111 -2.10709 0
M  V30 4861 C 469.022 1.34397 -1.0312 0
M  V30 4862 O 470.228 1.32746 -1.21567 0
M  V30 4863 H 466.603 0.335418 -0.673052 0
M  V30 4864 H 468.574 0.511689 -2.9398 0
M  V30 4865 C 467.323 2.26202 -2.64061 0
M  V30 4866 H 466.646 1.9946 -3.4649 0
M  V30 4867 H 468.086 2.94652 -3.04887 0
M  V30 4868 C 466.545 2.98444 -1.5631 0
M  V30 4869 O 467.075 3.90142 -0.956674 0
M  V30 4870 N 465.281 2.6059 -1.28612 0
M  V30 4871 H 464.828 1.86101 -1.78112 0
M  V30 4872 H 464.786 3.09238 -0.567406 0
M  V30 4873 N 468.558 1.5553 0.254621 0
M  V30 4874 C 469.806 1.7665 0.981793 0
M  V30 4875 C 470.127 0.580963 1.86145 0
M  V30 4876 O 469.397 -0.403537 1.91699 0
M  V30 4877 H 467.977 0.651475 0.365498 0
M  V30 4878 H 470.639 1.92958 0.274426 0
M  V30 4879 H 469.735 2.67486 1.60802 0
M  V30 4880 N 470.036 -0.519951 1.48776 0
M  V30 4881 C 471.313 -1.28123 1.47797 0
M  V30 4882 C 471.693 -2.10196 0.195157 0
M  V30 4883 O 471.041 -2.13167 -0.822925 0
M  V30 4884 C 471.251 -2.15413 2.74587 0
M  V30 4885 C 472.599 -2.75225 3.23321 0
M  V30 4886 O 473.623 -2.25694 2.75574 0
M  V30 4887 O 472.482 -3.65346 4.06429 0
M  V30 4888 H 469.576 -0.578793 0.590701 0
M  V30 4889 H 472.122 -0.535779 1.6102 0
M  V30 4890 H 470.894 -1.54617 3.59457 0
M  V30 4891 H 470.517 -2.97186 2.64132 0
M  V30 4892 N 471.514 -1.37532 -0.769588 0
M  V30 4893 C 472.761 -1.3286 -1.52822 0
M  V30 4894 C 473.089 0.0862597 -1.94309 0
M  V30 4895 O 472.344 1.05995 -1.6451 0
M  V30 4896 C 472.643 -2.21558 -2.8044 0
M  V30 4897 C 472.309 -3.69796 -2.57996 0
M  V30 4898 C 470.971 -4.10194 -2.51583 0
M  V30 4899 C 473.323 -4.63699 -2.37976 0
M  V30 4900 C 470.651 -5.42608 -2.23144 0
M  V30 4901 C 473.003 -5.96353 -2.1106 0
M  V30 4902 C 471.667 -6.35853 -2.03093 0
M  V30 4903 H 470.937 -0.486168 -0.559215 0
M  V30 4904 H 473.584 -1.69757 -0.886277 0
M  V30 4905 H 471.889 -1.77663 -3.49204 0
M  V30 4906 H 473.586 -2.15256 -3.38328 0
M  V30 4907 H 470.176 -3.37759 -2.63851 0
M  V30 4908 H 474.36 -4.33346 -2.41919 0
M  V30 4909 H 469.616 -5.72173 -2.15472 0
M  V30 4910 H 473.79 -6.68667 -1.94568 0
M  V30 4911 H 471.417 -7.38382 -1.8082 0
M  V30 4912 N 472.992 0.995999 -1.22138 0
M  V30 4913 C 474.217 1.77601 -1.0711 0
M  V30 4914 C 474.642 1.84339 0.374264 0
M  V30 4915 O 474 1.29359 1.27028 0
M  V30 4916 C 474.048 3.18897 -1.68336 0
M  V30 4917 O 473.152 4.01663 -0.934928 0
M  V30 4918 H 472.493 0.547011 -0.376397 0
M  V30 4919 H 475.023 1.25137 -1.6187 0
M  V30 4920 H 475.033 3.69539 -1.72931 0
M  V30 4921 H 473.708 3.13308 -2.73516 0
M  V30 4922 H 472.285 3.60204 -0.964751 0
M  V30 4923 N 474.47 1.03057 1.19235 0
M  V30 4924 C 475.716 0.729098 1.89241 0
M  V30 4925 C 476.049 -0.740573 1.79525 0
M  V30 4926 O 475.324 -1.53946 1.18874 0
M  V30 4927 C 475.607 1.18304 3.40112 0
M  V30 4928 C 475.46 2.71406 3.5869 0
M  V30 4929 C 476.779 0.765161 4.33397 0
M  V30 4930 H 473.898 0.266338 0.687192 0
M  V30 4931 H 476.54 1.28079 1.40341 0
M  V30 4932 H 474.69 0.713672 3.81889 0
M  V30 4933 H 476.362 3.26303 3.26074 0
M  V30 4934 H 474.605 3.11717 3.01687 0
M  V30 4935 H 475.276 2.98225 4.64506 0
M  V30 4936 H 477.752 1.16889 3.99345 0
M  V30 4937 H 476.628 1.11065 5.37546 0
M  V30 4938 H 476.889 -0.332372 4.40849 0
M  V30 4939 N 475.948 -1.35272 0.808662 0
M  V30 4940 C 476.896 -2.31663 0.208606 0
M  V30 4941 C 477.89 -1.56731 -0.642778 0
M  V30 4942 O 479.096 -1.71843 -0.53571 0
M  V30 4943 H 475.471 -0.750421 0.0486993 0
M  V30 4944 H 477.442 -2.79814 1.03666 0
M  V30 4945 C 476.191 -3.42008 -0.626573 0
M  V30 4946 H 475.514 -3.99795 0.0192103 0
M  V30 4947 H 476.954 -4.11727 -1.01278 0
M  V30 4948 C 475.413 -2.85226 -1.79298 0
M  V30 4949 O 475.943 -2.78945 -2.89055 0
M  V30 4950 N 474.149 -2.42245 -1.60516 0
M  V30 4951 H 473.696 -2.47554 -0.712375 0
M  V30 4952 H 473.654 -2.04603 -2.38715 0
M  V30 4953 N 477.426 -0.562348 -1.47226 0
M  V30 4954 C 478.336 0.185466 -2.33866 0
M  V30 4955 C 479.352 0.906713 -1.48508 0
M  V30 4956 O 480.528 0.874458 -1.81425 0
M  V30 4957 C 477.593 1.19904 -3.25306 0
M  V30 4958 C 476.654 0.484669 -4.26555 0
M  V30 4959 C 475.887 1.44996 -5.13626 0
M  V30 4960 O 476.11 2.68515 -5.03245 0
M  V30 4961 O 475.044 0.971642 -5.94006 0
M  V30 4962 H 478.87 -0.525361 -2.99121 0
M  V30 4963 H 476.455 -0.322916 -1.45868 0
M  V30 4964 H 478.337 1.78399 -3.81774 0
M  V30 4965 H 477.012 1.8917 -2.62672 0
M  V30 4966 H 475.919 -0.141605 -3.73832 0
M  V30 4967 H 477.252 -0.166634 -4.91918 0
M  V30 4968 N 478.904 1.54736 -0.299062 0
M  V30 4969 C 480.134 2.04215 0.312992 0
M  V30 4970 C 480.542 1.17596 1.48215 0
M  V30 4971 O 479.885 0.193835 1.82674 0
M  V30 4972 C 479.947 3.49696 0.833862 0
M  V30 4973 C 479.611 4.56518 -0.20977 0
M  V30 4974 C 480.608 5.09442 -1.03756 0
M  V30 4975 C 478.293 5.01073 -0.35091 0
M  V30 4976 C 480.287 6.05459 -1.99244 0
M  V30 4977 C 477.974 5.9691 -1.30924 0
M  V30 4978 C 478.972 6.48987 -2.1285 0
M  V30 4979 O 478.66 7.42947 -3.07059 0
M  V30 4980 H 478.392 0.672128 0.0722494 0
M  V30 4981 H 480.946 2.00718 -0.436043 0
M  V30 4982 H 479.176 3.5051 1.63339 0
M  V30 4983 H 480.865 3.82381 1.36159 0
M  V30 4984 H 481.631 4.75816 -0.939376 0
M  V30 4985 H 477.51 4.60168 0.276813 0
M  V30 4986 H 481.054 6.46031 -2.63229 0
M  V30 4987 H 476.951 6.29953 -1.40815 0
M  V30 4988 H 477.719 7.60743 -3.02015 0
M  V30 4989 N 480.382 0.0267497 1.57577 0
M  V30 4990 C 481.292 -0.971633 2.13533 0
M  V30 4991 C 482.308 -1.35868 1.08701 0
M  V30 4992 O 483.484 -1.44058 1.40746 0
M  V30 4993 C 480.549 -2.23622 2.64941 0
M  V30 4994 C 479.61 -1.90982 3.8448 0
M  V30 4995 C 478.843 -3.11411 4.33427 0
M  V30 4996 O 479.066 -4.23992 3.81558 0
M  V30 4997 O 478 -2.93848 5.25297 0
M  V30 4998 H 481.826 -0.525853 2.99113 0
M  V30 4999 H 479.411 -0.193712 1.48139 0
M  V30 5000 H 481.293 -2.97864 2.98086 0
M  V30 5001 H 479.968 -2.67386 1.82446 0
M  V30 5002 H 478.875 -1.14132 3.56265 0
M  V30 5003 H 480.208 -1.52036 4.6813 0
M  V30 5004 N 481.861 -1.55662 -0.24637 0
M  V30 5005 C 483.089 -1.81575 -0.991876 0
M  V30 5006 C 483.504 -0.602545 -1.78927 0
M  V30 5007 O 482.861 0.428795 -1.77391 0
M  V30 5008 C 482.912 -3.05711 -1.92933 0
M  V30 5009 O 482.633 -4.22348 -1.1642 0
M  V30 5010 C 484.134 -3.44428 -2.79078 0
M  V30 5011 H 481.354 -0.604209 -0.291844 0
M  V30 5012 H 483.898 -2.02722 -0.269095 0
M  V30 5013 H 482.053 -2.86612 -2.60638 0
M  V30 5014 H 482.467 -4.92706 -1.79835 0
M  V30 5015 H 483.941 -4.34388 -3.40603 0
M  V30 5016 H 484.418 -2.65037 -3.50217 0
M  V30 5017 H 485.024 -3.65879 -2.16824 0
M  V30 5018 N 483.339 0.512053 -1.4905 0
M  V30 5019 C 484.269 1.62365 -1.67809 0
M  V30 5020 C 485.25 1.61737 -0.526809 0
M  V30 5021 O 486.435 1.78651 -0.761404 0
M  V30 5022 C 483.565 3.00895 -1.73435 0
M  V30 5023 C 482.519 3.16387 -2.88242 0
M  V30 5024 C 481.845 4.56157 -2.78971 0
M  V30 5025 C 483.145 2.97457 -4.29321 0
M  V30 5026 H 484.839 1.46921 -2.60873 0
M  V30 5027 H 482.385 0.705379 -1.2554 0
M  V30 5028 H 484.338 3.78549 -1.85145 0
M  V30 5029 H 483.062 3.17403 -0.769619 0
M  V30 5030 H 481.721 2.41155 -2.76116 0
M  V30 5031 H 481.369 4.69525 -1.8043 0
M  V30 5032 H 481.069 4.67465 -3.5602 0
M  V30 5033 H 482.593 5.35886 -2.92675 0
M  V30 5034 H 484.007 3.64888 -4.42187 0
M  V30 5035 H 482.404 3.20245 -5.07507 0
M  V30 5036 H 483.474 1.93692 -4.44535 0
M  V30 5037 N 484.817 1.37938 0.762283 0
M  V30 5038 C 486.064 1.33668 1.52115 0
M  V30 5039 C 486.392 -0.0759538 1.94352 0
M  V30 5040 O 485.647 -1.05121 1.6507 0
M  V30 5041 C 485.946 2.23042 2.79261 0
M  V30 5042 C 485.612 3.71159 2.56031 0
M  V30 5043 C 484.274 4.11523 2.49404 0
M  V30 5044 C 486.626 4.64955 2.35513 0
M  V30 5045 C 483.954 5.43784 2.20263 0
M  V30 5046 C 486.306 5.97464 2.07894 0
M  V30 5047 C 484.97 6.36922 1.99718 0
M  V30 5048 H 484.24 0.489127 0.556629 0
M  V30 5049 H 486.887 1.70224 0.877262 0
M  V30 5050 H 485.192 1.79512 3.48256 0
M  V30 5051 H 486.889 2.17047 3.37182 0
M  V30 5052 H 483.479 3.39153 2.62056 0
M  V30 5053 H 487.663 4.34623 2.39617 0
M  V30 5054 H 482.919 5.73307 2.12435 0
M  V30 5055 H 487.093 6.6969 1.91019 0
M  V30 5056 H 484.72 7.39331 1.76902 0
M  V30 5057 N 486.295 -0.989507 1.22664 0
M  V30 5058 C 487.543 -1.72612 1.05117 0
M  V30 5059 C 487.864 -1.90552 -0.414131 0
M  V30 5060 O 487.134 -1.4676 -1.29762 0
M  V30 5061 H 485.714 -0.639555 0.385977 0
M  V30 5062 H 488.376 -1.19158 1.54232 0
M  V30 5063 H 487.472 -2.71926 1.53175 0
M  V30 5064 N 487.773 -1.03688 -1.18687 0
M  V30 5065 C 488.72 -0.624624 -2.22187 0
M  V30 5066 C 489.69 0.365636 -1.62026 0
M  V30 5067 O 490.875 0.260481 -1.89014 0
M  V30 5068 C 488.015 0.0101738 -3.45099 0
M  V30 5069 C 487.128 -1.02709 -4.19613 0
M  V30 5070 C 486.263 -0.361213 -5.2997 0
M  V30 5071 C 485.302 -1.38384 -5.96252 0
M  V30 5072 N 484.439 -0.743196 -6.98155 0
M  V30 5073 H 489.279 -1.51176 -2.56807 0
M  V30 5074 H 486.816 -0.75636 -1.26165 0
M  V30 5075 H 488.774 0.395528 -4.15321 0
M  V30 5076 H 487.404 0.860848 -3.1111 0
M  V30 5077 H 486.456 -1.53043 -3.48256 0
M  V30 5078 H 487.768 -1.80398 -4.65036 0
M  V30 5079 H 486.922 0.0785537 -6.06649 0
M  V30 5080 H 485.661 0.447799 -4.8564 0
M  V30 5081 H 484.666 -1.83378 -5.18317 0
M  V30 5082 H 485.891 -2.19448 -6.42666 0
M  V30 5083 H 483.837 0.0455789 -6.55984 0
M  V30 5084 H 483.754 -1.45784 -7.41811 0
M  V30 5085 H 485.022 -0.327698 -7.78811 0
M  V30 5086 N 489.251 1.34841 -0.815825 0
M  V30 5087 C 490.497 1.98793 -0.401129 0
M  V30 5088 C 490.83 1.64548 1.03139 0
M  V30 5089 O 490.105 0.913487 1.71714 0
M  V30 5090 C 490.388 3.55143 -0.595409 0
M  V30 5091 C 490.241 3.99155 -2.07352 0
M  V30 5092 C 491.56 4.40092 -0.0268823 0
M  V30 5093 H 488.679 0.722146 -0.14722 0
M  V30 5094 H 491.321 1.59847 -1.02707 0
M  V30 5095 H 489.471 3.8845 -0.0625779 0
M  V30 5096 H 491.143 3.76216 -2.66945 0
M  V30 5097 H 489.386 3.49726 -2.56659 0
M  V30 5098 H 490.057 5.07971 -2.1603 0
M  V30 5099 H 492.533 4.13298 -0.482042 0
M  V30 5100 H 491.409 5.48562 -0.19267 0
M  V30 5101 H 491.67 4.29016 1.06759 0
M  V30 5102 N 490.729 0.570148 1.46925 0
M  V30 5103 C 491.692 -0.159933 2.28641 0
M  V30 5104 C 492.692 -0.830638 1.37685 0
M  V30 5105 O 493.882 -0.684516 1.60187 0
M  V30 5106 C 491.014 -1.2354 3.17727 0
M  V30 5107 H 492.207 0.558035 2.94662 0
M  V30 5108 H 489.76 0.327603 1.52828 0
M  V30 5109 H 490.495 -1.98535 2.56426 0
M  V30 5110 H 490.28 -0.759125 3.84681 0
M  V30 5111 H 491.77 -1.74782 3.79264 0
M  V30 5112 N 492.207 -1.54576 0.307264 0
M  V30 5113 C 493.17 -2.22423 -0.553224 0
M  V30 5114 C 494.17 -1.21231 -1.05639 0
M  V30 5115 O 495.36 -1.45923 -0.951419 0
M  V30 5116 C 492.492 -2.91552 -1.76664 0
M  V30 5117 H 493.685 -2.99874 0.0396484 0
M  V30 5118 H 491.238 -1.56192 0.0581629 0
M  V30 5119 H 491.973 -2.18196 -2.39918 0
M  V30 5120 H 491.758 -3.65738 -1.41343 0
M  V30 5121 H 493.248 -3.43292 -2.37783 0
M  V30 5122 N 493.685 -0.035106 -1.57561 0
M  V30 5123 C 494.925 0.646316 -1.93913 0
M  V30 5124 C 495.289 1.68947 -0.912185 0
M  V30 5125 O 496.49 2.42381 -1.1621 0
M  V30 5126 C 494.761 1.24136 -3.35149 0
M  V30 5127 S 496.32 1.94302 -3.93436 0
M  V30 5128 H 493.138 0.212642 -0.678457 0
M  V30 5129 H 495.74 -0.100203 -1.95243 0
M  V30 5130 H 494.444 0.46979 -4.07702 0
M  V30 5131 H 493.975 2.02505 -3.37276 0
M  V30 5132 H 495.99 3.22205 -3.77357 0
M  V30 5133 N 495.163 1.55791 0.238111 0
M  V30 5134 C 496.111 1.91885 1.31464 0
M  V30 5135 C 497.105 0.798929 1.49377 0
M  V30 5136 O 498.311 0.983626 1.50747 0
M  V30 5137 H 494.686 0.609551 0.440399 0
M  V30 5138 H 496.657 2.81747 0.982925 0
M  V30 5139 C 495.406 2.23763 2.6613 0
M  V30 5140 H 494.729 3.09444 2.53149 0
M  V30 5141 H 496.169 2.52915 3.40309 0
M  V30 5142 C 494.628 1.05699 3.1989 0
M  V30 5143 O 495.158 0.309524 4.00506 0
M  V30 5144 N 493.364 0.845251 2.78036 0
M  V30 5145 H 492.911 1.4548 2.12588 0
M  V30 5146 H 492.869 0.0569973 3.14348 0
M  V30 5147 N 496.642 -0.504142 1.49319 0
M  V30 5148 C 497.891 -1.25507 1.57895 0
M  V30 5149 C 498.204 -1.93735 0.269433 0
M  V30 5150 O 499.41 -2.70492 0.233706 0
M  V30 5151 C 497.866 -2.27869 2.78574 0
M  V30 5152 C 497.474 -1.65594 4.16272 0
M  V30 5153 C 499.218 -3.0381 2.96479 0
M  V30 5154 C 497.125 -2.66048 5.28178 0
M  V30 5155 H 496.055 -0.47212 0.587894 0
M  V30 5156 H 498.706 -0.52931 1.757 0
M  V30 5157 H 497.088 -3.03594 2.54257 0
M  V30 5158 H 498.262 -0.958826 4.50714 0
M  V30 5159 H 496.577 -1.02055 4.037 0
M  V30 5160 H 499.174 -3.78925 3.77253 0
M  V30 5161 H 499.517 -3.61235 2.06918 0
M  V30 5162 H 500.05 -2.352 3.20821 0
M  V30 5163 H 496.789 -2.13408 6.19788 0
M  V30 5164 H 496.309 -3.34009 4.98195 0
M  V30 5165 H 497.988 -3.28536 5.57381 0
M  V30 5166 N 498.12 -1.38341 -0.754957 0
M  V30 5167 C 499.536 -1.19508 -1.05783 0
M  V30 5168 C 499.736 -0.0428005 -2.01455 0
M  V30 5169 O 498.792 0.611861 -2.44975 0
M  V30 5170 C 500.105 -2.52091 -1.63923 0
M  V30 5171 C 501.653 -2.58762 -1.76101 0
M  V30 5172 C 502.128 -3.91517 -2.37652 0
M  V30 5173 N 503.619 -3.93049 -2.45085 0
M  V30 5174 C 504.354 -4.9253 -2.93602 0
M  V30 5175 N 503.85 -6.02408 -3.42165 0
M  V30 5176 N 505.643 -4.79921 -2.92629 0
M  V30 5177 H 497.794 -2.1206 -0.120056 0
M  V30 5178 H 500.057 -0.94089 -0.11589 0
M  V30 5179 H 499.763 -3.36858 -1.01093 0
M  V30 5180 H 499.637 -2.70388 -2.63003 0
M  V30 5181 H 502.024 -1.74391 -2.38058 0
M  V30 5182 H 502.105 -2.44333 -0.757294 0
M  V30 5183 H 501.749 -4.76309 -1.76329 0
M  V30 5184 H 501.679 -4.03256 -3.38662 0
M  V30 5185 H 504.17 -3.13685 -2.10736 0
M  V30 5186 H 504.483 -6.74248 -3.77637 0
M  V30 5187 H 502.828 -6.0603 -3.40225 0
M  V30 5188 H 506.019 -3.93194 -2.54001 0
M  V30 5189 H 506.192 -5.57601 -3.30128 0
M  V30 5190 N 499.598 0.982988 -1.23187 0
M  V30 5191 C 500.545 2.07491 -1.01075 0
M  V30 5192 C 501.515 1.65949 0.070905 0
M  V30 5193 O 502.7 1.90629 -0.0806822 0
M  V30 5194 C 499.84 3.39751 -0.605261 0
M  V30 5195 C 498.953 3.94578 -1.75876 0
M  V30 5196 C 498.088 5.15039 -1.3003 0
M  V30 5197 C 497.127 5.62027 -2.42472 0
M  V30 5198 N 496.264 6.73719 -1.97602 0
M  V30 5199 H 501.104 2.25739 -1.9454 0
M  V30 5200 H 498.641 1.10659 -0.969179 0
M  V30 5201 H 500.599 4.15719 -0.351279 0
M  V30 5202 H 499.229 3.21473 0.292382 0
M  V30 5203 H 498.281 3.1539 -2.12681 0
M  V30 5204 H 499.593 4.25422 -2.60418 0
M  V30 5205 H 498.747 5.9833 -1.00429 0
M  V30 5206 H 497.486 4.85843 -0.425216 0
M  V30 5207 H 496.491 4.77318 -2.7285 0
M  V30 5208 H 497.716 5.93244 -3.30512 0
M  V30 5209 H 495.662 6.46287 -1.1247 0
M  V30 5210 H 495.579 7.03934 -2.75705 0
M  V30 5211 H 496.847 7.6049 -1.71098 0
M  V30 5212 N 501.076 1.04316 1.18135 0
M  V30 5213 C 502.324 0.746542 1.87806 0
M  V30 5214 C 502.645 -0.728082 1.80898 0
M  V30 5215 O 501.915 -1.52554 1.22899 0
M  V30 5216 H 500.495 0.273157 0.695265 0
M  V30 5217 H 503.157 1.32044 1.43354 0
M  V30 5218 H 502.253 1.05362 2.93778 0
M  V30 5219 N 502.554 -1.34406 0.822964 0
M  V30 5220 C 503.517 -2.2783 0.250271 0
M  V30 5221 C 504.517 -1.50288 -0.571854 0
M  V30 5222 O 505.707 -1.69825 -0.387952 0
M  V30 5223 C 502.839 -3.34663 -0.649137 0
M  V30 5224 H 504.032 -2.79992 1.07444 0
M  V30 5225 H 501.585 -1.44539 0.594829 0
M  V30 5226 H 502.32 -2.87714 -1.49637 0
M  V30 5227 H 502.105 -3.92052 -0.0611199 0
M  V30 5228 H 503.595 -4.04349 -1.04363 0
M  V30 5229 N 504.032 -0.577932 -1.46621 0
M  V30 5230 C 504.964 0.195801 -2.28362 0
M  V30 5231 C 505.977 0.859983 -1.38232 0
M  V30 5232 O 507.166 0.730349 -1.62875 0
M  V30 5233 C 504.266 1.29639 -3.13124 0
M  V30 5234 C 503.439 0.725049 -4.31349 0
M  V30 5235 C 502.498 1.71274 -4.97546 0
M  V30 5236 O 501.524 1.25067 -5.5529 0
M  V30 5237 N 502.726 3.04672 -4.94121 0
M  V30 5238 H 505.491 -0.505468 -2.95407 0
M  V30 5239 H 503.052 -0.415381 -1.56481 0
M  V30 5240 H 505.044 1.95631 -3.54275 0
M  V30 5241 H 503.614 1.90059 -2.48186 0
M  V30 5242 H 502.834 -0.112205 -3.9404 0
M  V30 5243 H 504.122 0.323034 -5.07774 0
M  V30 5244 H 503.52 3.4484 -4.48444 0
M  V30 5245 H 502.077 3.66166 -5.39227 0
M  V30 5246 N 505.51 1.54411 -0.315457 0
M  V30 5247 C 506.759 1.99599 0.290395 0
M  V30 5248 C 507.072 1.20746 1.53882 0
M  V30 5249 O 508.278 1.56272 2.22017 0
M  V30 5250 C 506.734 3.5539 0.56797 0
M  V30 5251 C 506.342 4.43068 -0.662945 0
M  V30 5252 C 508.086 4.09067 1.13422 0
M  V30 5253 C 505.993 5.90317 -0.357722 0
M  V30 5254 H 504.923 0.745592 0.112286 0
M  V30 5255 H 507.574 1.78477 -0.426418 0
M  V30 5256 H 505.956 3.72468 1.34476 0
M  V30 5257 H 507.13 4.37765 -1.43869 0
M  V30 5258 H 505.445 4.00238 -1.14884 0
M  V30 5259 H 508.042 5.16663 1.37707 0
M  V30 5260 H 508.385 3.60552 2.08106 0
M  V30 5261 H 508.918 3.95589 0.418805 0
M  V30 5262 H 505.657 6.4301 -1.27351 0
M  V30 5263 H 505.177 5.98592 0.380472 0
M  V30 5264 H 506.856 6.4699 0.0354284 0
M  V30 5265 N 506.988 0.0434614 1.5754 0
M  V30 5266 C 507.935 -0.93356 2.11077 0
M  V30 5267 C 508.905 -1.31383 1.01626 0
M  V30 5268 O 510.09 -1.40465 1.29129 0
M  V30 5269 C 507.23 -2.20578 2.65404 0
M  V30 5270 C 506.343 -1.88068 3.88914 0
M  V30 5271 C 505.478 -3.09691 4.31584 0
M  V30 5272 C 504.517 -2.73067 5.47815 0
M  V30 5273 N 503.654 -3.87359 5.85574 0
M  V30 5274 H 508.494 -0.470118 2.94268 0
M  V30 5275 H 506.031 -0.220434 1.45439 0
M  V30 5276 H 507.989 -2.95011 2.94999 0
M  V30 5277 H 506.619 -2.64513 1.85021 0
M  V30 5278 H 505.671 -1.03816 3.6596 0
M  V30 5279 H 506.983 -1.57104 4.73413 0
M  V30 5280 H 506.137 -3.92431 4.62691 0
M  V30 5281 H 504.876 -3.43827 3.45882 0
M  V30 5282 H 503.881 -1.88742 5.16388 0
M  V30 5283 H 505.106 -2.40131 6.35227 0
M  V30 5284 H 503.052 -4.21311 5.02825 0
M  V30 5285 H 502.969 -3.60068 6.64746 0
M  V30 5286 H 504.237 -4.70761 6.21292 0
M  V30 5287 N 508.466 -1.55915 -0.229846 0
M  V30 5288 C 509.413 -1.91734 -1.28478 0
M  V30 5289 C 510.383 -0.773539 -1.46988 0
M  V30 5290 O 511.568 -1.02871 -1.60693 0
M  V30 5291 C 508.708 -2.23224 -2.63182 0
M  V30 5292 C 507.821 -3.50497 -2.52539 0
M  V30 5293 C 506.956 -3.71474 -3.79711 0
M  V30 5294 C 505.995 -4.92289 -3.63755 0
M  V30 5295 N 505.132 -5.09698 -4.82858 0
M  V30 5296 H 509.972 -2.81692 -0.972308 0
M  V30 5297 H 507.509 -1.39429 -0.468815 0
M  V30 5298 H 509.467 -2.3949 -3.41614 0
M  V30 5299 H 508.097 -1.36451 -2.92542 0
M  V30 5300 H 507.149 -3.4247 -1.65585 0
M  V30 5301 H 508.461 -4.39079 -2.36666 0
M  V30 5302 H 507.615 -3.87791 -4.66586 0
M  V30 5303 H 506.354 -2.81157 -3.985 0
M  V30 5304 H 505.359 -4.7593 -2.75264 0
M  V30 5305 H 506.584 -5.84083 -3.46445 0
M  V30 5306 H 504.53 -4.22322 -5.01976 0
M  V30 5307 H 504.447 -5.92399 -4.69681 0
M  V30 5308 H 505.715 -5.30443 -5.71183 0
M  V30 5309 N 509.944 0.496216 -1.49584 0
M  V30 5310 C 511.172 1.27394 -1.63029 0
M  V30 5311 C 511.587 1.86344 -0.303569 0
M  V30 5312 O 510.944 1.68057 0.711547 0
M  V30 5313 C 510.995 2.40077 -2.70269 0
M  V30 5314 O 510.716 1.83549 -3.97796 0
M  V30 5315 C 512.217 3.31372 -2.94462 0
M  V30 5316 H 509.437 0.386211 -0.54871 0
M  V30 5317 H 511.981 0.595163 -1.95648 0
M  V30 5318 H 510.136 3.03775 -2.40415 0
M  V30 5319 H 510.55 2.57561 -4.56905 0
M  V30 5320 H 512.024 4.06707 -3.73221 0
M  V30 5321 H 512.501 3.88654 -2.0456 0
M  V30 5322 H 513.107 2.73435 -3.25751 0
M  V30 5323 N 511.423 1.38739 0.74761 0
M  V30 5324 C 512.7 1.25791 1.49786 0
M  V30 5325 C 513.08 -0.138075 2.10648 0
M  V30 5326 O 512.428 -1.14815 1.9756 0
M  V30 5327 C 512.638 2.37265 2.55942 0
M  V30 5328 C 513.986 2.75978 3.22679 0
M  V30 5329 O 515.01 2.36621 2.6625 0
M  V30 5330 O 513.869 3.43867 4.24756 0
M  V30 5331 H 510.963 0.492251 0.664543 0
M  V30 5332 H 513.509 1.50582 0.782511 0
M  V30 5333 H 512.281 3.30644 2.0926 0
M  V30 5334 H 511.904 2.14071 3.35051 0
M  V30 5335 N 512.901 -0.976442 1.23707 0
M  V30 5336 C 514.15 -1.71254 1.06559 0
M  V30 5337 C 514.463 -1.91528 -0.397024 0
M  V30 5338 O 515.669 -2.62625 -0.688518 0
M  V30 5339 C 514.125 -3.08207 1.8584 0
M  V30 5340 C 513.733 -2.95806 3.36456 0
M  V30 5341 C 515.477 -3.85749 1.77194 0
M  V30 5342 C 513.384 -4.28015 4.08114 0
M  V30 5343 H 512.314 -0.642171 0.395136 0
M  V30 5344 H 514.965 -1.08877 1.4771 0
M  V30 5345 H 513.347 -3.71363 1.37498 0
M  V30 5346 H 514.521 -2.41716 3.92314 0
M  V30 5347 H 512.836 -2.31736 3.45959 0
M  V30 5348 H 515.433 -4.83633 2.28041 0
M  V30 5349 H 515.776 -4.09752 0.735477 0
M  V30 5350 H 516.309 -3.29303 2.23169 0
M  V30 5351 H 513.048 -4.09208 5.12083 0
M  V30 5352 H 512.568 -4.81955 3.57043 0
M  V30 5353 H 514.247 -4.96681 4.14629 0
M  V30 5354 N 514.379 -1.04941 -1.1758 0
M  V30 5355 C 515.289 -0.658826 -2.25159 0
M  V30 5356 C 516.305 0.318941 -1.71052 0
M  V30 5357 O 517.481 0.171669 -2.00667 0
M  V30 5358 C 514.546 -0.0369522 -3.4668 0
M  V30 5359 C 513.607 -1.06484 -4.15884 0
M  V30 5360 C 512.84 -0.472551 -5.31604 0
M  V30 5361 O 513.063 0.718736 -5.65854 0
M  V30 5362 O 511.997 -1.20557 -5.89703 0
M  V30 5363 H 515.823 -1.55533 -2.60851 0
M  V30 5364 H 513.408 -0.820819 -1.24832 0
M  V30 5365 H 515.29 0.308784 -4.20267 0
M  V30 5366 H 513.965 0.833238 -3.12792 0
M  V30 5367 H 512.872 -1.46253 -3.44327 0
M  V30 5368 H 514.205 -1.9061 -4.53794 0
M  V30 5369 O 515.896 1.29495 -0.96506 0
M  V30 5370 H 516.587 1.84082 -0.602793 0
M  V30 END ATOM
M  V30 BEGIN BOND
M  V30 END BOND
M  V30 END CTAB
M  END
$$$$
