drugbank_target|O14939 Phospholipase D2 (DB00122; DB14006)
 OpenBabel12092120073D

  0  0  0     0  0            999 V3000
M  V30 BEGIN CTAB
M  V30 COUNTS 14885 15080 0 0 0
M  V30 BEGIN ATOM
M  V30 1 H -0.908 1.98254 -0.117106 0
M  V30 2 N 0 1.576 0 0
M  V30 3 C 0.933 2.03868 1.02534 0
M  V30 4 C 1.911 0.928543 1.3348 0
M  V30 5 O 3.095 1.19667 1.45644 0
M  V30 6 C 0.222 2.43627 2.35294 0
M  V30 7 C -0.732 3.65373 2.2001 0
M  V30 8 S 0.101 5.13292 1.52614 0
M  V30 9 C 1.257 5.56322 2.86805 0
M  V30 10 H 1.49 2.90518 0.631377 0
M  V30 11 H -0.977 1.52953 0.210867 0
M  V30 12 H 0.981 2.67203 3.11629 0
M  V30 13 H -0.358 1.57376 2.7183 0
M  V30 14 H -1.165 3.90944 3.18086 0
M  V30 15 H -1.563 3.418 1.51819 0
M  V30 16 H 0.729 5.58782 3.83104 0
M  V30 17 H 1.672 6.56266 2.65933 0
M  V30 18 H 2.08 4.83886 2.90714 0
M  V30 19 N 1.4781 -0.272755 1.55222 0
M  V30 20 C 2.7061 -1.02255 1.79865 0
M  V30 21 C 3.1211 -1.79924 0.572088 0
M  V30 22 O 2.4781 -1.76638 -0.458842 0
M  V30 23 C 2.5291 -1.98094 3.02392 0
M  V30 24 O 2.2501 -1.23572 4.20311 0
M  V30 25 C 3.7511 -2.84884 3.39641 0
M  V30 26 H 0.9711 -0.302057 0.599168 0
M  V30 27 H 3.5151 -0.303465 2.02236 0
M  V30 28 H 1.6701 -2.65465 2.82147 0
M  V30 29 H 2.0841 -1.88172 4.89583 0
M  V30 30 H 3.5581 -3.47927 4.28545 0
M  V30 31 H 4.0351 -3.54665 2.59055 0
M  V30 32 H 4.6411 -2.23003 3.62146 0
M  V30 33 N 2.9562 -1.48159 -0.537278 0
M  V30 34 C 3.9192 -1.61665 -1.62472 0
M  V30 35 C 4.9192 -0.490395 -1.5314 0
M  V30 36 O 6.1092 -0.755998 -1.5694 0
M  V30 37 C 3.2412 -1.57997 -3.02076 0
M  V30 38 H 4.4342 -2.58621 -1.51839 0
M  V30 39 H 1.9872 -1.36647 -0.758771 0
M  V30 40 H 2.7222 -0.624913 -3.18222 0
M  V30 41 H 2.5072 -2.39755 -3.10258 0
M  V30 42 H 3.9972 -1.70627 -3.81151 0
M  V30 43 N 4.4343 0.785586 -1.36625 0
M  V30 44 C 5.6623 1.57448 -1.3423 0
M  V30 45 C 6.0773 1.88649 0.0755653 0
M  V30 46 O 5.4343 1.50414 1.03354 0
M  V30 47 C 5.4853 2.89316 -2.16745 0
M  V30 48 O 5.2063 2.59459 -3.53005 0
M  V30 49 C 6.7073 3.83606 -2.22174 0
M  V30 50 H 3.9273 0.488226 -0.4603 0
M  V30 51 H 6.4713 0.974733 -1.79775 0
M  V30 52 H 4.6263 3.4575 -1.74745 0
M  V30 53 H 5.0403 3.43804 -3.96105 0
M  V30 54 H 6.5143 4.73181 -2.8426 0
M  V30 55 H 6.9913 4.21734 -1.22627 0
M  V30 56 H 7.5973 3.33104 -2.64427 0
M  V30 57 N 5.9124 1.20967 1.01018 0
M  V30 58 C 7.3234 1.02319 1.56165 0
M  V30 59 C 7.6744 -0.418546 1.91684 0
M  V30 60 O 6.7994 -1.30096 1.72928 0
M  V30 61 C 7.3944 1.85109 2.8376 0
M  V30 62 C 5.9534 1.70809 3.35412 0
M  V30 63 C 5.1004 1.82643 2.08655 0
M  V30 64 H 8.0514 1.35065 0.833255 0
M  V30 65 H 8.0724 1.35827 3.55431 0
M  V30 66 H 7.5844 2.90035 2.57878 0
M  V30 67 H 5.6854 0.685464 3.66241 0
M  V30 68 H 5.7984 2.52467 4.07182 0
M  V30 69 H 4.1624 1.25896 2.21409 0
M  V30 70 H 4.9454 2.89066 1.85191 0
M  V30 71 N 7.3905 -1.2043 1.01659 0
M  V30 72 C 8.3005 -2.2689 0.596484 0
M  V30 73 C 9.3165 -1.70107 -0.36599 0
M  V30 74 O 10.4925 -2.00117 -0.226942 0
M  V30 75 C 7.5575 -3.4665 -0.0586659 0
M  V30 76 C 6.6185 -4.18662 0.949751 0
M  V30 77 C 5.8515 -5.32705 0.32577 0
M  V30 78 O 6.0745 -5.63656 -0.874509 0
M  V30 79 O 5.0085 -5.92803 1.04249 0
M  V30 80 H 8.8345 -2.65041 1.4828 0
M  V30 81 H 6.4195 -1.27048 0.786082 0
M  V30 82 H 8.3015 -4.19256 -0.424564 0
M  V30 83 H 6.9765 -3.10375 -0.91918 0
M  V30 84 H 5.8835 -3.48229 1.36702 0
M  V30 85 H 7.2165 -4.58878 1.78023 0
M  V30 86 N 8.8686 -0.792821 -1.36206 0
M  V30 87 C 10.0936 -0.377701 -2.03932 0
M  V30 88 C 10.5186 0.998947 -1.59382 0
M  V30 89 O 9.8766 1.64421 -0.763903 0
M  V30 90 C 9.9246 -0.453635 -3.57735 0
M  V30 91 O 9.0286 0.538151 -4.08874 0
M  V30 92 H 8.3696 -0.159855 -0.644471 0
M  V30 93 H 10.8996 -1.07488 -1.7409 0
M  V30 94 H 10.9096 -0.318464 -4.06755 0
M  V30 95 H 9.5846 -1.45784 -3.89512 0
M  V30 96 H 8.1616 0.364359 -3.71116 0
M  V30 97 N 10.3467 1.47872 -0.545128 0
M  V30 98 C 11.2767 2.32661 0.197793 0
M  V30 99 C 12.2577 1.43041 0.920504 0
M  V30 100 O 13.4427 1.71912 0.90333 0
M  V30 101 C 10.5727 3.24569 1.23582 0
M  V30 102 C 9.5267 4.23333 0.630323 0
M  V30 103 C 8.8527 5.0448 1.77211 0
M  V30 104 C 10.1527 5.20704 -0.407974 0
M  V30 105 H 11.8467 2.95024 -0.510045 0
M  V30 106 H 9.3927 1.4187 -0.246731 0
M  V30 107 H 11.3457 3.8272 1.76362 0
M  V30 108 H 10.0697 2.60236 1.97344 0
M  V30 109 H 8.7287 3.6639 0.123922 0
M  V30 110 H 8.3767 4.36561 2.49847 0
M  V30 111 H 8.0767 5.71339 1.37281 0
M  V30 112 H 9.6007 5.65487 2.3034 0
M  V30 113 H 11.0147 5.7329 0.033305 0
M  V30 114 H 9.4117 5.95699 -0.725486 0
M  V30 115 H 10.4817 4.66917 -1.30828 0
M  V30 116 N 11.8248 0.280983 1.55075 0
M  V30 117 C 13.0718 -0.334115 1.99725 0
M  V30 118 C 13.3998 -1.5542 1.1694 0
M  V30 119 O 12.6548 -1.94361 0.228531 0
M  V30 120 C 12.9538 -0.754656 3.49342 0
M  V30 121 C 12.6198 0.361445 4.49449 0
M  V30 122 C 11.2818 0.667893 4.76542 0
M  V30 123 C 13.6338 1.11322 5.09173 0
M  V30 124 C 10.9618 1.7296 5.60626 0
M  V30 125 C 13.3138 2.1647 5.9441 0
M  V30 126 C 11.9778 2.47742 6.19822 0
M  V30 127 H 11.2478 -0.122261 0.730844 0
M  V30 128 H 13.8948 0.395917 1.87363 0
M  V30 129 H 12.1998 -1.56446 3.5921 0
M  V30 130 H 13.8968 -1.24142 3.813 0
M  V30 131 H 10.4868 0.112481 4.28452 0
M  V30 132 H 14.6708 0.88973 4.8826 0
M  V30 133 H 9.9268 1.97684 5.78559 0
M  V30 134 H 14.1008 2.75193 6.3972 0
M  V30 135 H 11.7278 3.30145 6.84769 0
M  V30 136 N 13.3029 -1.57598 0.00835791 0
M  V30 137 C 14.7139 -1.7892 -0.53333 0
M  V30 138 C 15.0649 -0.916609 -1.73473 0
M  V30 139 O 14.1899 -0.121336 -2.1606 0
M  V30 140 C 14.7849 -3.24488 -0.974313 0
M  V30 141 C 13.3439 -3.46878 -1.46125 0
M  V30 142 C 12.4909 -2.74157 -0.416302 0
M  V30 143 H 15.4419 -1.56958 0.234495 0
M  V30 144 H 15.4629 -3.3306 -1.83988 0
M  V30 145 H 14.9749 -3.87972 -0.099718 0
M  V30 146 H 13.0759 -2.8862 -2.35646 0
M  V30 147 H 13.1889 -4.55572 -1.48295 0
M  V30 148 H 11.5529 -2.39022 -0.87981 0
M  V30 149 H 12.3359 -3.40345 0.44947 0
M  V30 150 N 14.781 0.264519 -1.55364 0
M  V30 151 C 16.009 1.013 -1.80405 0
M  V30 152 C 16.424 1.79618 -0.581622 0
M  V30 153 O 15.781 1.76879 0.449468 0
M  V30 154 C 15.832 1.96487 -3.03439 0
M  V30 155 O 15.553 1.21341 -4.20961 0
M  V30 156 C 17.054 2.83079 -3.41147 0
M  V30 157 H 14.274 0.298875 -0.600762 0
M  V30 158 H 16.818 0.292736 -2.02394 0
M  V30 159 H 14.973 2.63965 -2.83551 0
M  V30 160 H 15.387 1.85573 -4.90574 0
M  V30 161 H 16.861 3.4565 -4.30384 0
M  V30 162 H 17.338 3.53286 -2.60932 0
M  V30 163 H 17.944 2.2108 -3.63323 0
M  V30 164 N 16.2591 1.48442 0.529413 0
M  V30 165 C 17.5071 1.56179 1.28267 0
M  V30 166 C 17.8281 0.237721 1.93546 0
M  V30 167 O 17.0981 -0.740779 1.81354 0
M  V30 168 H 15.6781 0.575367 0.476405 0
M  V30 169 H 18.3401 1.84909 0.61602 0
M  V30 170 H 17.4361 2.34312 2.06165 0
M  V30 171 N 17.7372 -0.778329 1.37039 0
M  V30 172 C 19.0142 -1.52551 1.22424 0
M  V30 173 C 19.3942 -2.10288 -0.184964 0
M  V30 174 O 18.7422 -1.94953 -1.19187 0
M  V30 175 C 18.9522 -2.61164 2.31504 0
M  V30 176 C 20.3002 -3.28746 2.68721 0
M  V30 177 O 21.3242 -2.71455 2.30631 0
M  V30 178 O 20.1832 -4.3231 3.3432 0
M  V30 179 H 17.2772 -0.675343 0.477326 0
M  V30 180 H 19.8232 -0.815859 1.48801 0
M  V30 181 H 18.5952 -2.16574 3.25901 0
M  V30 182 H 18.2182 -3.39737 2.06554 0
M  V30 183 N 19.2153 -1.21501 -1.00376 0
M  V30 184 C 20.1253 -0.991447 -2.12621 0
M  V30 185 C 21.1413 0.0568446 -1.73907 0
M  V30 186 O 22.3173 -0.13348 -2.00957 0
M  V30 187 C 19.3823 -0.560312 -3.42142 0
M  V30 188 C 18.4433 -1.68096 -3.95022 0
M  V30 189 C 17.6763 -1.2703 -5.18362 0
M  V30 190 O 17.8993 -0.144438 -5.70217 0
M  V30 191 O 16.8333 -2.08269 -5.64719 0
M  V30 192 H 20.6593 -1.93158 -2.34358 0
M  V30 193 H 18.2443 -0.999999 -1.10997 0
M  V30 194 H 20.1263 -0.329724 -4.20108 0
M  V30 195 H 18.8013 0.351089 -3.2179 0
M  V30 196 H 17.7083 -1.96597 -3.18278 0
M  V30 197 H 19.0413 -2.56983 -4.19786 0
M  V30 198 N 20.6934 1.19889 -1.02296 0
M  V30 199 C 21.6234 2.25141 -0.619174 0
M  V30 200 C 22.6044 1.66051 0.368915 0
M  V30 201 O 23.7894 1.92546 0.252941 0
M  V30 202 C 20.9194 3.4728 0.0368783 0
M  V30 203 C 19.8734 4.19005 -0.872865 0
M  V30 204 C 19.1994 5.34637 -0.0822402 0
M  V30 205 C 20.4994 4.74452 -2.18387 0
M  V30 206 H 22.1934 2.59171 -1.49903 0
M  V30 207 H 19.7394 1.24579 -0.722222 0
M  V30 208 H 21.6924 4.20098 0.330958 0
M  V30 209 H 20.4164 3.12433 0.95149 0
M  V30 210 H 19.0754 3.48061 -1.15105 0
M  V30 211 H 18.7234 4.96034 0.83422 0
M  V30 212 H 18.4234 5.83557 -0.688149 0
M  V30 213 H 19.9474 6.10255 0.205238 0
M  V30 214 H 21.3614 5.39055 -1.95172 0
M  V30 215 H 19.7584 5.33834 -2.74119 0
M  V30 216 H 20.8284 3.92844 -2.84257 0
M  V30 217 N 22.1715 0.800033 1.35784 0
M  V30 218 C 23.4485 0.30088 1.93272 0
M  V30 219 C 23.8285 -1.20857 1.73081 0
M  V30 220 O 23.1765 -2.00502 1.09596 0
M  V30 221 C 23.3865 0.70511 3.41803 0
M  V30 222 C 24.7345 0.690871 4.18942 0
M  V30 223 O 25.7585 0.646244 3.50289 0
M  V30 224 O 24.6175 0.74332 5.41421 0
M  V30 225 H 21.7115 0.0771605 0.823393 0
M  V30 226 H 24.2575 0.88329 1.449 0
M  V30 227 H 23.0295 1.74571 3.50201 0
M  V30 228 H 22.6525 0.0971541 3.97481 0
M  V30 229 N 23.6496 -1.47581 0.552962 0
M  V30 230 C 24.8746 -2.07378 0.0300593 0
M  V30 231 C 25.2996 -1.40355 -1.25229 0
M  V30 232 O 24.6576 -0.477099 -1.7491 0
M  V30 233 C 24.7056 -3.60274 -0.153231 0
M  V30 234 O 23.8096 -3.94041 -1.21678 0
M  V30 235 H 23.1506 -0.662158 0.0494182 0
M  V30 236 H 25.6806 -1.89662 0.767434 0
M  V30 237 H 25.6906 -4.0633 -0.368761 0
M  V30 238 H 24.3656 -4.08455 0.783397 0
M  V30 239 H 22.9426 -3.59735 -0.982079 0
M  V30 240 N 25.1277 -0.289203 -1.54924 0
M  V30 241 C 26.3527 0.329299 -2.04769 0
M  V30 242 C 26.7777 1.4763 -1.16564 0
M  V30 243 O 26.1357 1.80527 -0.167186 0
M  V30 244 C 26.1837 0.774438 -3.52186 0
M  V30 245 O 25.2877 1.88038 -3.67036 0
M  V30 246 H 24.6287 0.0659259 -0.660719 0
M  V30 247 H 27.1587 -0.42761 -2.00082 0
M  V30 248 H 27.1687 1.06642 -3.93816 0
M  V30 249 H 25.8437 -0.0646707 -4.1585 0
M  V30 250 H 24.4207 1.58985 -3.3731 0
M  V30 251 N 26.6058 1.57591 -0.0167156 0
M  V30 252 C 27.5378 2.06343 0.997753 0
M  V30 253 C 28.5508 0.984469 1.29661 0
M  V30 254 O 29.7398 1.26093 1.26344 0
M  V30 255 C 26.8398 2.46255 2.32834 0
M  V30 256 C 26.0128 3.77083 2.21646 0
M  V30 257 C 25.0718 4.0368 3.37534 0
M  V30 258 O 24.0978 4.7411 3.14973 0
M  V30 259 N 25.2998 3.52881 4.60929 0
M  V30 260 H 28.0648 2.93997 0.581875 0
M  V30 261 H 25.6258 1.61002 0.170316 0
M  V30 262 H 27.6178 2.61149 3.09166 0
M  V30 263 H 26.1878 1.64032 2.66106 0
M  V30 264 H 25.4078 3.72106 1.30119 0
M  V30 265 H 26.6958 4.62822 2.11361 0
M  V30 266 H 26.0938 2.95878 4.82154 0
M  V30 267 H 24.6508 3.73076 5.34469 0
M  V30 268 N 28.0839 -0.256276 1.55502 0
M  V30 269 C 29.0139 -1.32102 1.92539 0
M  V30 270 C 29.9949 -1.50684 0.789194 0
M  V30 271 O 31.1799 -1.63449 1.04872 0
M  V30 272 C 28.3099 -2.67752 2.21192 0
M  V30 273 C 27.2639 -2.63878 3.36975 0
M  V30 274 C 26.5899 -4.03236 3.51147 0
M  V30 275 C 27.8899 -2.21682 4.72921 0
M  V30 276 H 29.5839 -1.01351 2.81724 0
M  V30 277 H 27.1299 -0.486105 1.35547 0
M  V30 278 H 29.0829 -3.42365 2.45691 0
M  V30 279 H 27.8069 -3.0012 1.28824 0
M  V30 280 H 26.4659 -1.91722 3.12471 0
M  V30 281 H 26.1139 -4.32854 2.56216 0
M  V30 282 H 25.8139 -4.01535 4.29003 0
M  V30 283 H 27.3379 -4.79563 3.77957 0
M  V30 284 H 28.7519 -2.86023 4.96854 0
M  V30 285 H 27.1489 -2.3111 5.53812 0
M  V30 286 H 28.2189 -1.16833 4.70615 0
M  V30 287 N 29.562 -1.4872 -0.521534 0
M  V30 288 C 30.494 -1.59968 -1.64143 0
M  V30 289 C 31.507 -0.483463 -1.55456 0
M  V30 290 O 32.696 -0.75467 -1.61762 0
M  V30 291 C 29.796 -1.52127 -3.02838 0
M  V30 292 C 28.969 -2.78932 -3.36921 0
M  V30 293 C 28.028 -2.64428 -4.54933 0
M  V30 294 O 27.054 -3.38331 -4.57735 0
M  V30 295 N 28.256 -1.74606 -5.53618 0
M  V30 296 H 31.021 -2.56548 -1.54929 0
M  V30 297 H 28.582 -1.45551 -0.708988 0
M  V30 298 H 30.574 -1.40106 -3.79674 0
M  V30 299 H 29.144 -0.634868 -3.06085 0
M  V30 300 H 28.364 -3.05455 -2.4918 0
M  V30 301 H 29.652 -3.63041 -3.56481 0
M  V30 302 H 29.05 -1.13782 -5.54139 0
M  V30 303 H 27.607 -1.6852 -6.29638 0
M  V30 304 N 31.0401 0.771051 -1.3745 0
M  V30 305 C 31.9731 1.89166 -1.27638 0
M  V30 306 C 32.9511 1.61842 -0.156782 0
M  V30 307 O 34.1351 1.85569 -0.331111 0
M  V30 308 C 31.2621 3.24405 -0.973621 0
M  V30 309 C 30.3081 3.70638 -2.1102 0
M  V30 310 S 31.1411 3.84228 -3.73 0
M  V30 311 C 32.2971 5.22313 -3.44876 0
M  V30 312 H 32.5301 1.972 -2.22485 0
M  V30 313 H 30.0631 0.932224 -1.23081 0
M  V30 314 H 32.0211 4.02514 -0.805766 0
M  V30 315 H 30.6821 3.14071 -0.0426279 0
M  V30 316 H 29.8751 4.68685 -1.85338 0
M  V30 317 H 29.4771 2.99632 -2.23822 0
M  V30 318 H 31.7691 6.07505 -2.99908 0
M  V30 319 H 32.7121 5.53008 -4.42253 0
M  V30 320 H 33.1201 4.90284 -2.79789 0
M  V30 321 N 32.5182 1.22032 0.997298 0
M  V30 322 C 33.4282 1.00271 2.12092 0
M  V30 323 C 34.4442 -0.047621 1.73935 0
M  V30 324 O 35.6202 0.144136 2.00884 0
M  V30 325 C 32.6852 0.578449 3.4184 0
M  V30 326 C 31.7462 1.70189 3.94125 0
M  V30 327 C 30.9792 1.29778 5.17681 0
M  V30 328 O 31.2022 0.174676 5.70132 0
M  V30 329 O 30.1362 2.11261 5.63607 0
M  V30 330 H 33.9622 1.94398 2.3333 0
M  V30 331 H 31.5472 1.00587 1.10465 0
M  V30 332 H 33.4292 0.351998 4.19927 0
M  V30 333 H 32.1042 -0.334019 3.21972 0
M  V30 334 H 31.0112 1.98282 3.1723 0
M  V30 335 H 32.3442 2.59206 4.18417 0
M  V30 336 N 33.9963 -1.19345 1.0293 0
M  V30 337 C 35.2213 -1.93538 0.745511 0
M  V30 338 C 35.6463 -1.75007 -0.689511 0
M  V30 339 O 35.0043 -1.05265 -1.47611 0
M  V30 340 C 35.0523 -3.43336 1.10239 0
M  V30 341 O 34.1563 -4.11806 0.221289 0
M  V30 342 H 33.4973 -0.604193 0.275404 0
M  V30 343 H 36.0273 -1.5141 1.37609 0
M  V30 344 H 36.0373 -3.94004 1.05947 0
M  V30 345 H 34.7123 -3.56146 2.14786 0
M  V30 346 H 33.2893 -3.715 0.322842 0
M  V30 347 N 35.4744 -0.807222 -1.35358 0
M  V30 348 C 36.7514 -0.311126 -1.9311 0
M  V30 349 C 37.1314 1.19937 -1.73719 0
M  V30 350 O 36.4794 1.99918 -1.10657 0
M  V30 351 C 36.6894 -0.723226 -3.41424 0
M  V30 352 C 38.0374 -0.713078 -4.18569 0
M  V30 353 O 39.0614 -0.664811 -3.49941 0
M  V30 354 O 37.9204 -0.772022 -5.41019 0
M  V30 355 H 35.0144 -0.081526 -0.822972 0
M  V30 356 H 37.5604 -0.890962 -1.4443 0
M  V30 357 H 36.3324 -1.76426 -3.4927 0
M  V30 358 H 35.9554 -0.118232 -3.97424 0
M  V30 359 N 36.9525 1.47285 -0.560781 0
M  V30 360 C 37.8625 2.33846 0.187954 0
M  V30 361 C 38.8785 1.48412 0.908293 0
M  V30 362 O 40.0545 1.81332 0.876388 0
M  V30 363 C 37.1195 3.25178 1.2025 0
M  V30 364 C 36.1805 4.26504 0.489208 0
M  V30 365 C 35.4135 5.13472 1.45542 0
M  V30 366 O 35.6365 5.02959 2.6905 0
M  V30 367 O 34.5705 5.93902 0.977963 0
M  V30 368 H 38.3965 2.99177 -0.522177 0
M  V30 369 H 35.9815 1.45903 -0.321364 0
M  V30 370 H 37.8635 3.81584 1.78805 0
M  V30 371 H 36.5385 2.6247 1.89449 0
M  V30 372 H 35.4455 3.73847 -0.137627 0
M  V30 373 H 36.7785 4.91935 -0.161399 0
M  V30 374 N 38.4306 0.297415 1.54768 0
M  V30 375 C 39.6766 -0.313376 2.00364 0
M  V30 376 C 40.0096 -1.53815 1.18553 0
M  V30 377 O 39.2846 -1.92739 0.261103 0
M  V30 378 C 39.5676 -0.673525 3.53745 0
M  V30 379 C 39.4206 0.560133 4.46299 0
M  V30 380 C 40.7396 -1.50143 4.13697 0
M  V30 381 H 37.8586 -0.112428 0.728374 0
M  V30 382 H 40.5006 0.4088 1.8555 0
M  V30 383 H 38.6506 -1.28881 3.665 0
M  V30 384 H 40.3226 1.19863 4.45455 0
M  V30 385 H 38.5656 1.19405 4.17043 0
M  V30 386 H 39.2366 0.26405 5.51368 0
M  V30 387 H 41.7126 -0.981588 4.04356 0
M  V30 388 H 40.5886 -1.72221 5.21182 0
M  V30 389 H 40.8496 -2.48952 3.65343 0
M  V30 390 N 39.9087 -1.5758 0.0250728 0
M  V30 391 C 41.1857 -1.82917 -0.692873 0
M  V30 392 C 41.5657 -0.908137 -1.90568 0
M  V30 393 O 40.9137 0.0372298 -2.2847 0
M  V30 394 C 41.1237 -3.32034 -1.07492 0
M  V30 395 C 42.4717 -3.98406 -1.46826 0
M  V30 396 O 43.4957 -3.36505 -1.16801 0
M  V30 397 O 42.3547 -5.07497 -2.02754 0
M  V30 398 H 39.4487 -0.754079 -0.33955 0
M  V30 399 H 41.9947 -1.69619 0.0524456 0
M  V30 400 H 40.7667 -3.90728 -0.211552 0
M  V30 401 H 40.3897 -3.50424 -1.87854 0
M  V30 402 N 41.3868 0.248026 -1.55636 0
M  V30 403 C 42.6148 0.993808 -1.81469 0
M  V30 404 C 43.0298 1.78991 -0.60064 0
M  V30 405 O 42.3868 1.77345 0.430682 0
M  V30 406 C 42.4378 1.93258 -3.05506 0
M  V30 407 O 42.1588 1.16869 -4.22224 0
M  V30 408 C 43.6598 2.79444 -3.4413 0
M  V30 409 H 40.8798 0.292486 -0.603898 0
M  V30 410 H 43.4238 0.271253 -2.02693 0
M  V30 411 H 41.5788 2.60943 -2.86335 0
M  V30 412 H 41.9928 1.80359 -4.92515 0
M  V30 413 H 43.4668 3.41066 -4.34026 0
M  V30 414 H 43.9438 3.50499 -2.64665 0
M  V30 415 H 44.5498 2.17214 -3.65648 0
M  V30 416 N 42.8649 1.48995 0.513639 0
M  V30 417 C 43.7949 1.67636 1.62544 0
M  V30 418 C 44.7759 0.525087 1.61793 0
M  V30 419 O 45.9609 0.759502 1.78732 0
M  V30 420 C 43.0909 1.73114 3.01079 0
M  V30 421 C 42.0449 2.87905 3.16693 0
M  V30 422 C 41.3709 2.78486 4.56453 0
M  V30 423 C 42.6709 4.29005 2.97913 0
M  V30 424 H 44.3649 2.60716 1.47198 0
M  V30 425 H 41.9109 1.25465 0.706714 0
M  V30 426 H 43.8639 1.84742 3.78746 0
M  V30 427 H 42.5879 0.766241 3.17484 0
M  V30 428 H 41.2469 2.75859 2.41448 0
M  V30 429 H 40.8949 1.7993 4.69717 0
M  V30 430 H 40.5949 3.55523 4.67843 0
M  V30 431 H 42.1189 2.92104 5.36197 0
M  V30 432 H 43.5329 4.41798 3.65359 0
M  V30 433 H 41.9299 5.07166 3.20785 0
M  V30 434 H 42.9999 4.44329 1.94165 0
M  V30 435 N 44.343 -0.763751 1.37857 0
M  V30 436 C 45.29 -1.87726 1.34267 0
M  V30 437 C 46.26 -1.64807 0.206879 0
M  V30 438 O 47.445 -1.86613 0.397508 0
M  V30 439 C 44.585 -3.24896 1.16346 0
M  V30 440 C 43.698 -3.59716 2.39225 0
M  V30 441 C 42.833 -4.86137 2.14114 0
M  V30 442 C 41.872 -5.13711 3.32817 0
M  V30 443 N 41.009 -6.31323 3.07206 0
M  V30 444 H 45.849 -1.90129 2.29466 0
M  V30 445 H 43.386 -0.929433 1.14017 0
M  V30 446 H 45.344 -4.04036 1.03975 0
M  V30 447 H 43.974 -3.21847 0.247909 0
M  V30 448 H 43.026 -2.75498 2.62307 0
M  V30 449 H 44.338 -3.76027 3.27728 0
M  V30 450 H 43.492 -5.73198 1.9882 0
M  V30 451 H 42.231 -4.71945 1.22961 0
M  V30 452 H 41.236 -4.25123 3.48641 0
M  V30 453 H 42.461 -5.29807 4.24832 0
M  V30 454 H 40.407 -6.18474 2.1869 0
M  V30 455 H 40.324 -6.48087 3.89254 0
M  V30 456 H 41.592 -7.213 2.95546 0
M  V30 457 N 45.8211 -1.22559 -0.990812 0
M  V30 458 C 46.7311 -1.01394 -2.11557 0
M  V30 459 C 47.7471 0.0383962 -1.73958 0
M  V30 460 O 48.9231 -0.154787 -2.00804 0
M  V30 461 C 45.9881 -0.596569 -3.41529 0
M  V30 462 C 45.0491 -1.72276 -3.93217 0
M  V30 463 C 44.2821 -1.32521 -5.16985 0
M  V30 464 O 44.5051 -0.204909 -5.70032 0
M  V30 465 O 43.4391 -2.14247 -5.62478 0
M  V30 466 H 47.2651 -1.95633 -2.32296 0
M  V30 467 H 44.8501 -1.01172 -1.0993 0
M  V30 468 H 46.7321 -0.374263 -4.19735 0
M  V30 469 H 45.4071 0.316939 -3.22145 0
M  V30 470 H 44.3141 -1.99961 -3.16174 0
M  V30 471 H 45.6471 -2.61421 -4.17037 0
M  V30 472 N 47.2992 1.18797 -1.03562 0
M  V30 473 C 48.5472 1.88278 -0.734569 0
M  V30 474 C 48.8682 1.8043 0.739586 0
M  V30 475 O 48.1382 1.21925 1.53333 0
M  V30 476 H 46.7182 0.696991 -0.268725 0
M  V30 477 H 49.3802 1.44192 -1.31129 0
M  V30 478 H 48.4762 2.94443 -1.03489 0
M  V30 479 N 48.7773 0.814389 1.34928 0
M  V30 480 C 49.6873 0.231978 2.3345 0
M  V30 481 C 50.7033 -0.629139 1.62228 0
M  V30 482 O 51.8793 -0.539052 1.94052 0
M  V30 483 C 48.9443 -0.603482 3.41407 0
M  V30 484 C 48.0053 0.279037 4.28392 0
M  V30 485 C 47.2383 -0.516643 5.31193 0
M  V30 486 O 47.4613 -1.75068 5.4287 0
M  V30 487 O 46.3953 0.0965652 6.01823 0
M  V30 488 H 50.2213 1.04721 2.85074 0
M  V30 489 H 47.8063 0.576343 1.37836 0
M  V30 490 H 49.6883 -1.07908 4.0735 0
M  V30 491 H 48.3633 -1.39618 2.92042 0
M  V30 492 H 47.2703 0.801948 3.65403 0
M  V30 493 H 48.6033 1.03588 4.81176 0
M  V30 494 N 50.2554 -1.46986 0.568584 0
M  V30 495 C 51.5324 -1.95592 -0.0174074 0
M  V30 496 C 51.9124 -1.51124 -1.47393 0
M  V30 497 O 51.2604 -0.755329 -2.15655 0
M  V30 498 C 51.4704 -3.48719 0.139913 0
M  V30 499 C 52.8184 -4.246 0.000426376 0
M  V30 500 O 53.8424 -3.56135 0.0680316 0
M  V30 501 O 52.7014 -5.46302 -0.146988 0
M  V30 502 H 49.7954 -0.82498 -0.0577599 0
M  V30 503 H 52.3414 -1.57335 0.635909 0
M  V30 504 H 51.1134 -3.73927 1.15301 0
M  V30 505 H 50.7364 -3.93771 -0.550491 0
M  V30 506 N 51.7335 -0.305618 -1.54608 0
M  V30 507 C 53.1445 0.186098 -1.8577 0
M  V30 508 C 53.4955 1.53058 -1.22751 0
M  V30 509 O 52.6205 2.09888 -0.526893 0
M  V30 510 C 53.2155 0.344449 -3.37044 0
M  V30 511 C 51.7745 0.780384 -3.68221 0
M  V30 512 C 50.9215 -0.108554 -2.77087 0
M  V30 513 H 53.8725 -0.526485 -1.49712 0
M  V30 514 H 53.8935 1.17828 -3.61796 0
M  V30 515 H 53.4055 -0.634235 -3.82883 0
M  V30 516 H 51.5065 1.76945 -3.27904 0
M  V30 517 H 51.6195 0.596572 -4.75371 0
M  V30 518 H 49.9835 0.412931 -2.5133 0
M  V30 519 H 50.7665 -1.08368 -3.25747 0
M  V30 520 N 53.2116 1.57565 -0.0334293 0
M  V30 521 C 54.1746 2.09393 0.932048 0
M  V30 522 C 55.1746 1.00986 1.25134 0
M  V30 523 O 56.3646 1.27129 1.19096 0
M  V30 524 C 53.4966 2.56338 2.2473 0
M  V30 525 H 54.6896 2.95984 0.483085 0
M  V30 526 H 52.2426 1.54819 0.21468 0
M  V30 527 H 52.9776 1.7309 2.74245 0
M  V30 528 H 52.7626 3.35542 2.02865 0
M  V30 529 H 54.2526 2.96646 2.93923 0
M  V30 530 N 54.6897 -0.239769 1.55765 0
M  V30 531 C 55.9667 -0.990056 1.68693 0
M  V30 532 C 56.3467 -2.03107 0.5754 0
M  V30 533 O 55.6947 -2.24604 -0.42017 0
M  V30 534 C 55.9047 -1.61696 3.09282 0
M  V30 535 C 57.2527 -2.11613 3.6811 0
M  V30 536 O 58.2767 -1.71624 3.12127 0
M  V30 537 O 57.1357 -2.85057 4.66267 0
M  V30 538 H 54.2297 -0.461299 0.686391 0
M  V30 539 H 56.7757 -0.232991 1.68093 0
M  V30 540 H 55.5477 -0.864357 3.81634 0
M  V30 541 H 55.1707 -2.44005 3.13923 0
M  V30 542 N 56.1678 -1.49265 -0.50573 0
M  V30 543 C 57.5838 -1.35923 -0.836486 0
M  V30 544 C 57.7838 -0.388704 -1.97715 0
M  V30 545 O 56.8398 0.181336 -2.51848 0
M  V30 546 C 58.1528 -2.76531 -1.18115 0
M  V30 547 C 59.7008 -2.85197 -1.28964 0
M  V30 548 C 60.1758 -4.26561 -1.66761 0
M  V30 549 N 61.6668 -4.2935 -1.73819 0
M  V30 550 C 62.4018 -5.35693 -2.045 0
M  V30 551 N 61.8978 -6.52287 -2.33438 0
M  V30 552 N 63.6908 -5.23105 -2.05711 0
M  V30 553 H 55.8418 -2.10965 0.246519 0
M  V30 554 H 58.1048 -0.9468 0.0476887 0
M  V30 555 H 57.8108 -3.49226 -0.416398 0
M  V30 556 H 57.6848 -3.11599 -2.1257 0
M  V30 557 H 60.0718 -2.12742 -2.04511 0
M  V30 558 H 60.1528 -2.53718 -0.325704 0
M  V30 559 H 59.7968 -4.99541 -0.917656 0
M  V30 560 H 59.7268 -4.55502 -2.64246 0
M  V30 561 H 62.2178 -3.4526 -1.53635 0
M  V30 562 H 62.5308 -7.29158 -2.56024 0
M  V30 563 H 60.8758 -6.55521 -2.30905 0
M  V30 564 H 64.0668 -4.31026 -1.82577 0
M  V30 565 H 64.2398 -6.06078 -2.29289 0
M  V30 566 N 57.6459 0.756429 -1.3826 0
M  V30 567 C 58.5789 1.87802 -1.29637 0
M  V30 568 C 59.5569 1.61667 -0.173939 0
M  V30 569 O 60.7409 1.85208 -0.350775 0
M  V30 570 C 57.8679 3.23354 -1.00797 0
M  V30 571 C 56.9139 3.68379 -2.14939 0
M  V30 572 S 57.7469 3.8025 -3.77054 0
M  V30 573 C 58.9029 5.18626 -3.50396 0
M  V30 574 H 59.1359 1.94829 -2.24564 0
M  V30 575 H 56.6689 0.919117 -1.24063 0
M  V30 576 H 58.6269 4.01637 -0.848413 0
M  V30 577 H 57.2879 3.14008 -0.0759369 0
M  V30 578 H 56.4809 4.66693 -1.90299 0
M  V30 579 H 56.0829 2.97242 -2.26988 0
M  V30 580 H 58.3749 6.04289 -3.06334 0
M  V30 581 H 59.3179 5.48286 -4.48094 0
M  V30 582 H 59.7259 4.87289 -2.84973 0
M  V30 583 N 59.124 1.23083 0.984299 0
M  V30 584 C 60.074 0.975749 2.06066 0
M  V30 585 C 61.058 -0.0768251 1.60716 0
M  V30 586 O 62.25 0.134805 1.76486 0
M  V30 587 C 59.379 0.564673 3.38624 0
M  V30 588 C 58.465 1.65244 3.90583 0
M  V30 589 N 58.856 2.88193 4.15666 0
M  V30 590 C 57.154 1.52612 4.19077 0
M  V30 591 C 57.855 3.58593 4.58024 0
M  V30 592 N 56.831 2.86093 4.62225 0
M  V30 593 H 60.633 1.90957 2.23411 0
M  V30 594 H 58.147 1.12963 1.16675 0
M  V30 595 H 60.144 0.36322 4.15315 0
M  V30 596 H 58.804 -0.362147 3.22674 0
M  V30 597 H 59.815 3.24537 4.03604 0
M  V30 598 H 56.492 0.666121 4.12152 0
M  V30 599 H 57.882 4.63974 4.85982 0
M  V30 600 N 60.6021 -1.18246 1.0419 0
M  V30 601 C 62.0131 -1.69914 0.773698 0
M  V30 602 C 62.3641 -1.83085 -0.705297 0
M  V30 603 O 61.4891 -1.51123 -1.5489 0
M  V30 604 C 62.0841 -3.08619 1.39784 0
M  V30 605 C 60.6431 -3.57494 1.17792 0
M  V30 606 C 59.7901 -2.34013 1.48773 0
M  V30 607 H 62.7411 -1.02904 1.20816 0
M  V30 608 H 62.7621 -3.71958 0.801714 0
M  V30 609 H 62.2741 -2.99001 2.47426 0
M  V30 610 H 60.3751 -3.72406 0.120295 0
M  V30 611 H 60.4881 -4.40852 1.87581 0
M  V30 612 H 58.8521 -2.37986 0.907463 0
M  V30 613 H 59.6351 -2.27013 2.57527 0
M  V30 614 N 62.0802 -0.821533 -1.34494 0
M  V30 615 C 63.3272 -0.408946 -1.98328 0
M  V30 616 C 63.6552 1.02764 -1.65136 0
M  V30 617 O 62.9102 1.73026 -0.914349 0
M  V30 618 C 63.2092 -0.556512 -3.53041 0
M  V30 619 C 62.8752 -1.95861 -4.0614 0
M  V30 620 C 61.5372 -2.34217 -4.20352 0
M  V30 621 C 63.8892 -2.87523 -4.34718 0
M  V30 622 C 61.2172 -3.63572 -4.6047 0
M  V30 623 C 63.5692 -4.1634 -4.76281 0
M  V30 624 C 62.2332 -4.54675 -4.88699 0
M  V30 625 H 61.5032 -0.149644 -0.725732 0
M  V30 626 H 64.1502 -1.04521 -1.6046 0
M  V30 627 H 62.4552 0.163148 -3.9146 0
M  V30 628 H 64.1522 -0.217826 -4.00408 0
M  V30 629 H 60.7422 -1.65066 -3.95539 0
M  V30 630 H 64.9262 -2.59133 -4.23277 0
M  V30 631 H 60.1822 -3.93101 -4.68275 0
M  V30 632 H 64.3562 -4.87455 -4.97354 0
M  V30 633 H 61.9832 -5.54959 -5.19542 0
M  V30 634 N 63.5583 1.46682 -0.576371 0
M  V30 635 C 64.4883 2.33028 0.148397 0
M  V30 636 C 65.4693 1.44961 0.889956 0
M  V30 637 O 66.6543 1.73789 0.866662 0
M  V30 638 C 63.7843 3.27117 1.1667 0
M  V30 639 C 62.7383 4.24575 0.540386 0
M  V30 640 C 62.0643 5.08126 1.6647 0
M  V30 641 C 63.3643 5.19722 -0.518331 0
M  V30 642 H 65.0583 2.93875 -0.572509 0
M  V30 643 H 62.6043 1.41315 -0.276768 0
M  V30 644 H 64.5573 3.86374 1.68204 0
M  V30 645 H 63.2813 2.64364 1.9178 0
M  V30 646 H 61.9403 3.66571 0.0461769 0
M  V30 647 H 61.5883 4.41762 2.40531 0
M  V30 648 H 61.2883 5.74122 1.25131 0
M  V30 649 H 62.8123 5.70246 2.18293 0
M  V30 650 H 64.2263 5.73232 -0.0883058 0
M  V30 651 H 62.6233 5.94026 -0.851679 0
M  V30 652 H 63.6933 4.64037 -1.40703 0
M  V30 653 N 65.0364 0.313813 1.54444 0
M  V30 654 C 65.9994 -0.54379 2.22656 0
M  V30 655 C 66.9994 -1.05124 1.21678 0
M  V30 656 O 68.1894 -0.945225 1.46325 0
M  V30 657 C 65.3214 -1.75427 2.92298 0
M  V30 658 H 66.5144 0.0523599 2.99854 0
M  V30 659 H 64.0674 0.0647834 1.56166 0
M  V30 660 H 64.8024 -2.38991 2.19211 0
M  V30 661 H 64.5874 -1.39791 3.66334 0
M  V30 662 H 66.0774 -2.36325 3.44297 0
M  V30 663 N 66.5145 -1.57545 0.0417849 0
M  V30 664 C 67.7635 -1.91494 -0.633492 0
M  V30 665 C 68.0765 -0.921084 -1.72556 0
M  V30 666 O 69.2825 -1.15228 -2.45835 0
M  V30 667 C 67.7385 -3.40072 -1.17808 0
M  V30 668 C 67.3465 -4.47843 -0.118633 0
M  V30 669 C 69.0905 -3.8307 -1.82915 0
M  V30 670 C 66.9975 -5.87529 -0.675578 0
M  V30 671 H 65.9275 -0.714653 -0.24039 0
M  V30 672 H 68.5785 -1.83175 0.109148 0
M  V30 673 H 66.9605 -3.43364 -1.97274 0
M  V30 674 H 68.1345 -4.56128 0.654494 0
M  V30 675 H 66.4495 -4.14128 0.434414 0
M  V30 676 H 69.0465 -4.84794 -2.25563 0
M  V30 677 H 69.3895 -3.1881 -2.67705 0
M  V30 678 H 69.9225 -3.82255 -1.10119 0
M  V30 679 H 66.6615 -6.55362 0.134475 0
M  V30 680 H 66.1815 -5.82824 -1.4169 0
M  V30 681 H 67.8605 -6.36491 -1.1614 0
M  V30 682 N 67.9926 0.231505 -1.5589 0
M  V30 683 C 69.2226 0.973092 -1.82248 0
M  V30 684 C 69.6306 1.78845 -0.617328 0
M  V30 685 O 68.9736 1.78752 0.423499 0
M  V30 686 C 69.0356 1.94732 -3.02192 0
M  V30 687 C 68.6996 1.31743 -4.37599 0
M  V30 688 C 69.6966 0.712238 -5.14998 0
M  V30 689 C 67.3816 1.33218 -4.84312 0
M  V30 690 C 69.3756 0.130195 -6.37267 0
M  V30 691 C 67.0626 0.746286 -6.06526 0
M  V30 692 C 68.0606 0.146337 -6.82843 0
M  V30 693 O 67.7486 -0.430465 -8.02747 0
M  V30 694 H 67.4806 0.29125 -0.61004 0
M  V30 695 H 70.0346 0.254915 -2.03812 0
M  V30 696 H 68.2646 2.70422 -2.76422 0
M  V30 697 H 69.9536 2.55362 -3.15508 0
M  V30 698 H 70.7196 0.69324 -4.8002 0
M  V30 699 H 66.5986 1.78854 -4.24891 0
M  V30 700 H 70.1426 -0.33871 -6.96777 0
M  V30 701 H 66.0396 0.762663 -6.40979 0
M  V30 702 H 66.8076 -0.323818 -8.17859 0
M  V30 703 N 69.4707 1.49531 0.497807 0
M  V30 704 C 70.3807 1.69176 1.62532 0
M  V30 705 C 71.3967 0.5744 1.64246 0
M  V30 706 O 72.5727 0.849497 1.82608 0
M  V30 707 C 69.6377 1.75695 2.98885 0
M  V30 708 C 68.6987 2.9929 3.07773 0
M  V30 709 C 67.9317 3.05488 4.37622 0
M  V30 710 O 68.1547 2.19192 5.26603 0
M  V30 711 O 67.0887 3.9798 4.51548 0
M  V30 712 H 70.9147 2.647 1.48887 0
M  V30 713 H 68.4997 1.3331 0.674441 0
M  V30 714 H 70.3817 1.82317 3.79919 0
M  V30 715 H 69.0567 0.8335 3.12785 0
M  V30 716 H 67.9637 2.98183 2.25915 0
M  V30 717 H 69.2967 3.91125 2.98801 0
M  V30 718 N 70.9488 -0.749086 1.3866 0
M  V30 719 C 71.8788 -1.8764 1.38973 0
M  V30 720 C 72.8598 -1.68178 0.255004 0
M  V30 721 O 74.0448 -1.88704 0.458754 0
M  V30 722 C 71.1748 -3.25222 1.21851 0
M  V30 723 C 70.1288 -3.59295 2.32575 0
M  V30 724 C 69.4548 -4.95663 2.00555 0
M  V30 725 C 70.7548 -3.63709 3.7485 0
M  V30 726 H 72.4488 -1.87635 2.3331 0
M  V30 727 H 69.9948 -0.901329 1.12303 0
M  V30 728 H 71.9478 -4.03746 1.20695 0
M  V30 729 H 70.6718 -3.25719 0.239775 0
M  V30 730 H 69.3308 -2.83093 2.32925 0
M  V30 731 H 68.9788 -4.92724 1.01154 0
M  V30 732 H 68.6788 -5.19429 2.74714 0
M  V30 733 H 70.2028 -5.7656 2.01024 0
M  V30 734 H 71.6168 -4.32338 3.76506 0
M  V30 735 H 70.0138 -3.98986 4.48252 0
M  V30 736 H 71.0838 -2.63834 4.06841 0
M  V30 737 N 72.4269 -1.23603 -0.977757 0
M  V30 738 C 73.3589 -0.977369 -2.07317 0
M  V30 739 C 74.3719 0.0495845 -1.62724 0
M  V30 740 O 75.5609 -0.186261 -1.77526 0
M  V30 741 C 72.6609 -0.451216 -3.35883 0
M  V30 742 C 71.8339 -1.53896 -4.09432 0
M  V30 743 C 70.8929 -1.01721 -5.16274 0
M  V30 744 O 69.9189 -1.70676 -5.43009 0
M  V30 745 N 71.1209 0.153594 -5.80297 0
M  V30 746 H 73.8859 -1.92047 -2.30082 0
M  V30 747 H 71.4469 -1.14497 -1.14465 0
M  V30 748 H 73.4389 -0.0871574 -4.04606 0
M  V30 749 H 72.0089 0.397368 -3.10064 0
M  V30 750 H 71.2289 -2.07566 -3.35127 0
M  V30 751 H 72.5169 -2.27037 -4.55337 0
M  V30 752 H 71.9149 0.730323 -5.60966 0
M  V30 753 H 70.4719 0.458892 -6.50183 0
M  V30 754 N 73.905 1.17692 -1.04816 0
M  V30 755 C 75.13 1.92327 -0.776207 0
M  V30 756 C 75.555 1.76082 0.661581 0
M  V30 757 O 74.913 1.076 1.45917 0
M  V30 758 C 74.961 3.41539 -1.15687 0
M  V30 759 O 74.065 4.11402 -0.286775 0
M  V30 760 H 73.406 0.599735 -0.284981 0
M  V30 761 H 75.936 1.49201 -1.4 0
M  V30 762 H 75.946 3.92269 -1.12202 0
M  V30 763 H 74.621 3.52684 -2.20425 0
M  V30 764 H 73.198 3.70939 -0.381903 0
M  V30 765 N 75.3831 0.828654 1.34056 0
M  V30 766 C 76.3131 0.269443 2.3194 0
M  V30 767 C 77.2941 -0.617247 1.58506 0
M  V30 768 O 78.4791 -0.542931 1.86456 0
M  V30 769 C 75.6091 -0.564793 3.42677 0
M  V30 770 C 74.5631 0.225241 4.27407 0
M  V30 771 C 73.8891 -0.7321 5.29664 0
M  V30 772 C 75.1891 1.43663 5.02154 0
M  V30 773 H 76.8831 1.08728 2.7896 0
M  V30 774 H 74.4291 0.524283 1.34117 0
M  V30 775 H 76.3821 -0.966233 4.10173 0
M  V30 776 H 75.1061 -1.41574 2.9432 0
M  V30 777 H 73.7651 0.608117 3.61521 0
M  V30 778 H 73.4131 -1.57916 4.77568 0
M  V30 779 H 73.1131 -0.20767 5.87233 0
M  V30 780 H 74.6371 -1.13128 6.00029 0
M  V30 781 H 76.0511 1.1089 5.62473 0
M  V30 782 H 74.4481 1.89711 5.69324 0
M  V30 783 H 75.5181 2.21181 4.31517 0
M  V30 784 N 76.8612 -1.46375 0.584142 0
M  V30 785 C 77.8082 -2.30323 -0.148286 0
M  V30 786 C 78.7782 -1.40703 -0.882713 0
M  V30 787 O 79.9632 -1.69651 -0.873099 0
M  V30 788 C 77.1032 -3.25196 -1.15507 0
M  V30 789 C 76.2162 -4.29915 -0.423943 0
M  V30 790 C 75.3512 -5.11914 -1.41838 0
M  V30 791 C 74.3902 -6.08381 -0.673736 0
M  V30 792 N 73.5272 -6.83242 -1.6163 0
M  V30 793 H 78.3672 -2.92427 0.573644 0
M  V30 794 H 75.9042 -1.44118 0.294703 0
M  V30 795 H 77.8622 -3.78646 -1.75166 0
M  V30 796 H 76.4922 -2.64898 -1.8447 0
M  V30 797 H 75.5442 -3.7931 0.287714 0
M  V30 798 H 76.8562 -4.98549 0.158128 0
M  V30 799 H 76.0102 -5.69648 -2.08773 0
M  V30 800 H 74.7492 -4.43243 -2.03438 0
M  V30 801 H 73.7542 -5.49799 0.00938483 0
M  V30 802 H 74.9792 -6.79071 -0.0631082 0
M  V30 803 H 72.9252 -6.1728 -2.22038 0
M  V30 804 H 72.8422 -7.48144 -1.08707 0
M  V30 805 H 74.1102 -7.45534 -2.27596 0
M  V30 806 N 78.3393 -0.321999 -1.54275 0
M  V30 807 C 79.5853 0.281461 -2.00837 0
M  V30 808 C 79.9183 1.51909 -1.20985 0
M  V30 809 O 79.1933 1.923 -0.291733 0
M  V30 810 C 79.4763 0.617162 -3.54772 0
M  V30 811 C 79.3293 -0.631064 -4.45351 0
M  V30 812 C 80.6483 1.43542 -4.16033 0
M  V30 813 H 77.7673 0.100826 -0.730071 0
M  V30 814 H 80.4093 -0.438268 -1.84876 0
M  V30 815 H 78.5593 1.23034 -3.68504 0
M  V30 816 H 80.2313 -1.26934 -4.43492 0
M  V30 817 H 78.4743 -1.26025 -4.15091 0
M  V30 818 H 79.1453 -0.351735 -5.50878 0
M  V30 819 H 81.6213 0.917134 -4.05867 0
M  V30 820 H 80.4973 1.63907 -5.23856 0
M  V30 821 H 80.7583 2.43108 -3.69257 0
M  V30 822 N 79.8174 1.5752 -0.0501392 0
M  V30 823 C 80.7674 2.07981 0.934231 0
M  V30 824 C 81.7514 0.984745 1.27246 0
M  V30 825 O 82.9434 1.24809 1.25506 0
M  V30 826 C 80.0724 2.62751 2.20945 0
M  V30 827 C 79.1584 3.79225 1.89865 0
M  V30 828 N 79.5494 4.89036 1.29142 0
M  V30 829 C 77.8474 3.88111 2.19741 0
M  V30 830 C 78.5484 5.70084 1.15669 0
M  V30 831 N 77.5244 5.17659 1.65923 0
M  V30 832 H 81.3264 2.90277 0.460053 0
M  V30 833 H 78.8404 1.61665 0.15434 0
M  V30 834 H 80.8374 2.97205 2.9236 0
M  V30 835 H 79.4974 1.81894 2.6897 0
M  V30 836 H 80.5084 5.08854 0.963756 0
M  V30 837 H 77.1854 3.18194 2.70293 0
M  V30 838 H 78.5754 6.68395 0.685356 0
M  V30 839 N 81.2955 -0.223234 1.56011 0
M  V30 840 C 82.7065 -0.790368 1.69145 0
M  V30 841 C 83.0575 -1.85055 0.651845 0
M  V30 842 O 82.1825 -2.15498 -0.197359 0
M  V30 843 C 82.7775 -1.4404 3.06656 0
M  V30 844 C 81.3365 -1.95494 3.2165 0
M  V30 845 C 80.4835 -0.814506 2.65068 0
M  V30 846 H 83.4345 0.00139011 1.587 0
M  V30 847 H 83.4555 -2.30916 3.0242 0
M  V30 848 H 82.9675 -0.668543 3.82298 0
M  V30 849 H 81.0685 -2.75487 2.50874 0
M  V30 850 H 81.1815 -2.13607 4.28846 0
M  V30 851 H 79.5455 -1.22137 2.23505 0
M  V30 852 H 80.3285 -0.0553515 3.43255 0
M  V30 853 N 82.7736 -1.49793 -0.48987 0
M  V30 854 C 83.7036 -1.70201 -1.59856 0
M  V30 855 C 84.6846 -0.55076 -1.60937 0
M  V30 856 O 85.8696 -0.787841 -1.77501 0
M  V30 857 C 82.9996 -1.77882 -2.98287 0
M  V30 858 C 81.9536 -2.92907 -3.12073 0
M  V30 859 C 81.2796 -2.85712 -4.51965 0
M  V30 860 C 82.5796 -4.3369 -2.91051 0
M  V30 861 H 84.2736 -2.63025 -1.43032 0
M  V30 862 H 81.8196 -1.26574 -0.686664 0
M  V30 863 H 83.7726 -1.90744 -3.75759 0
M  V30 864 H 82.4966 -0.816653 -3.16225 0
M  V30 865 H 81.1556 -2.79665 -2.37029 0
M  V30 866 H 80.8036 -1.8738 -4.66795 0
M  V30 867 H 80.5036 -3.62921 -4.62128 0
M  V30 868 H 82.0276 -3.00598 -5.31482 0
M  V30 869 H 83.4416 -4.47555 -3.58284 0
M  V30 870 H 81.8386 -5.12205 -3.12675 0
M  V30 871 H 82.9086 -4.47362 -1.87071 0
M  V30 872 N 84.2517 0.741722 -1.39055 0
M  V30 873 C 85.4977 1.50336 -1.36113 0
M  V30 874 C 85.8307 1.94148 0.0450796 0
M  V30 875 O 85.1057 1.66301 1.00868 0
M  V30 876 C 85.3887 2.74773 -2.32749 0
M  V30 877 C 85.2417 2.37023 -3.82283 0
M  V30 878 C 86.5607 3.76846 -2.27322 0
M  V30 879 H 83.6797 0.545351 -0.495743 0
M  V30 880 H 86.3217 0.848624 -1.69995 0
M  V30 881 H 84.4717 3.30639 -2.03986 0
M  V30 882 H 86.1437 1.8684 -4.21768 0
M  V30 883 H 84.3867 1.69334 -3.99385 0
M  V30 884 H 85.0577 3.26104 -4.45376 0
M  V30 885 H 87.5337 3.30548 -2.5274 0
M  V30 886 H 86.4097 4.6159 -2.97028 0
M  V30 887 H 86.6707 4.23286 -1.27599 0
M  V30 888 N 85.7298 1.2412 0.971189 0
M  V30 889 C 86.9768 1.07881 1.71371 0
M  V30 890 C 87.3048 -0.382901 1.90694 0
M  V30 891 O 86.5598 -1.29945 1.46331 0
M  V30 892 C 86.8588 1.75983 3.11071 0
M  V30 893 C 86.5248 3.25909 3.11599 0
M  V30 894 C 85.1868 3.66813 3.11451 0
M  V30 895 C 87.5388 4.21771 3.062 0
M  V30 896 C 84.8668 5.02021 3.03631 0
M  V30 897 C 87.2188 5.56982 2.99923 0
M  V30 898 C 85.8828 5.97237 2.98102 0
M  V30 899 H 85.1528 0.394764 0.62709 0
M  V30 900 H 87.7998 1.54176 1.13587 0
M  V30 901 H 86.1048 1.22072 3.72298 0
M  V30 902 H 87.8018 1.60887 3.6731 0
M  V30 903 H 84.3918 2.93353 3.12477 0
M  V30 904 H 88.5758 3.91172 3.05447 0
M  V30 905 H 83.8318 5.32411 3.0058 0
M  V30 906 H 88.0058 6.30969 2.94704 0
M  V30 907 H 85.6328 7.01967 2.91798 0
M  V30 908 N 87.2079 -1.17134 1.05439 0
M  V30 909 C 88.1709 -2.19439 0.661764 0
M  V30 910 C 89.1709 -1.58199 -0.288042 0
M  V30 911 O 90.3609 -1.74053 -0.0715803 0
M  V30 912 C 87.4929 -3.40889 -0.0276209 0
M  V30 913 H 88.6859 -2.55688 1.56728 0
M  V30 914 H 86.2389 -1.31259 0.848567 0
M  V30 915 H 86.9739 -3.10187 -0.94629 0
M  V30 916 H 86.7589 -3.86586 0.655238 0
M  V30 917 H 88.2489 -4.16603 -0.288342 0
M  V30 918 N 88.686 -0.835752 -1.33615 0
M  V30 919 C 90.097 -0.487099 -1.80234 0
M  V30 920 C 90.448 0.993627 -1.69179 0
M  V30 921 O 89.573 1.77403 -1.23924 0
M  V30 922 C 90.168 -0.877385 -3.27242 0
M  V30 923 C 88.727 -0.580915 -3.7189 0
M  V30 924 C 87.874 -1.0874 -2.5509 0
M  V30 925 H 90.825 -1.02474 -1.2118 0
M  V30 926 H 90.846 -0.186195 -3.80044 0
M  V30 927 H 90.358 -1.95512 -3.35256 0
M  V30 928 H 88.459 0.486881 -3.69405 0
M  V30 929 H 88.572 -1.13396 -4.65487 0
M  V30 930 H 86.936 -0.508392 -2.49575 0
M  V30 931 H 87.719 -2.17184 -2.65868 0
M  V30 932 N 90.1641 1.46063 -0.591896 0
M  V30 933 C 91.4121 2.01938 -0.0808391 0
M  V30 934 C 91.7331 1.46475 1.28725 0
M  V30 935 O 91.0031 0.652944 1.84698 0
M  V30 936 H 89.5831 0.746516 -0.0268938 0
M  V30 937 H 92.2451 1.79055 -0.769752 0
M  V30 938 H 91.3411 3.12094 -0.0187578 0
M  V30 939 N 91.6422 0.330177 1.54103 0
M  V30 940 C 92.8882 -0.270806 2.00984 0
M  V30 941 C 93.2212 -1.51265 1.21789 0
M  V30 942 O 92.4962 -1.92142 0.301927 0
M  V30 943 C 92.7792 -0.598339 3.55094 0
M  V30 944 C 92.6322 0.654674 4.4501 0
M  V30 945 C 93.9512 -1.41334 4.16789 0
M  V30 946 H 91.0702 -0.0969531 0.730595 0
M  V30 947 H 93.7122 0.448066 1.84641 0
M  V30 948 H 91.8622 -1.21078 3.69151 0
M  V30 949 H 93.5342 1.29285 4.42813 0
M  V30 950 H 91.7772 1.28224 4.14416 0
M  V30 951 H 92.4482 0.380944 5.50684 0
M  V30 952 H 94.9242 -0.895597 4.06347 0
M  V30 953 H 93.8002 -1.61127 5.24718 0
M  V30 954 H 94.0612 -2.41146 3.70541 0
M  V30 955 N 93.1203 -1.57491 0.0584922 0
M  V30 956 C 94.5313 -1.80526 -0.476138 0
M  V30 957 C 94.8823 -0.971334 -1.70469 0
M  V30 958 O 94.0073 -0.190012 -2.15564 0
M  V30 959 C 94.6023 -3.27424 -0.870587 0
M  V30 960 C 93.1613 -3.51351 -1.35015 0
M  V30 961 C 92.3083 -2.75343 -0.32887 0
M  V30 962 H 95.2593 -1.56133 0.284312 0
M  V30 963 H 95.2803 -3.38745 -1.73299 0
M  V30 964 H 94.7923 -3.88093 0.0237627 0
M  V30 965 H 92.8933 -2.95971 -2.26345 0
M  V30 966 H 93.0063 -4.60059 -1.33726 0
M  V30 967 H 91.3703 -2.417 -0.803321 0
M  V30 968 H 92.1533 -3.38743 0.557521 0
M  V30 969 N 94.5984 0.214957 -1.56127 0
M  V30 970 C 95.8444 0.939762 -1.79712 0
M  V30 971 C 96.1774 1.83723 -0.629247 0
M  V30 972 O 95.4524 1.90925 0.371197 0
M  V30 973 C 95.7354 1.77306 -3.13424 0
M  V30 974 C 95.5884 0.90164 -4.40671 0
M  V30 975 C 96.9074 2.74956 -3.43638 0
M  V30 976 H 94.0264 0.340214 -0.653776 0
M  V30 977 H 96.6684 0.20824 -1.88855 0
M  V30 978 H 94.8184 2.39673 -3.0576 0
M  V30 979 H 96.4904 0.294206 -4.60361 0
M  V30 980 H 94.7334 0.207368 -4.33304 0
M  V30 981 H 95.4044 1.51923 -5.30682 0
M  V30 982 H 97.8804 2.22724 -3.51473 0
M  V30 983 H 96.7564 3.30358 -4.38355 0
M  V30 984 H 97.0174 3.53023 -2.66134 0
M  V30 985 N 96.0765 1.50051 0.48192 0
M  V30 986 C 97.3045 1.64237 1.25832 0
M  V30 987 C 97.7195 0.321336 1.86045 0
M  V30 988 O 97.0765 -0.695478 1.68729 0
M  V30 989 C 97.1275 2.72548 2.37487 0
M  V30 990 O 96.8485 3.99529 1.79745 0
M  V30 991 C 98.3495 2.9761 3.28547 0
M  V30 992 H 95.5695 0.55237 0.380957 0
M  V30 993 H 98.1135 1.96207 0.576467 0
M  V30 994 H 96.2685 2.43303 3.01467 0
M  V30 995 H 96.6825 4.59342 2.5319 0
M  V30 996 H 98.1565 3.77084 4.03127 0
M  V30 997 H 98.6335 2.0826 3.86684 0
M  V30 998 H 99.2395 3.28345 2.70314 0
M  V30 999 N 97.5546 -0.734337 1.39446 0
M  V30 1000 C 98.5176 -1.83004 1.37994 0
M  V30 1001 C 99.5176 -1.58397 0.276938 0
M  V30 1002 O 100.708 -1.65785 0.534875 0
M  V30 1003 C 97.8396 -3.20802 1.1532 0
M  V30 1004 H 99.0326 -1.85694 2.35494 0
M  V30 1005 H 96.5856 -0.938059 1.25021 0
M  V30 1006 H 97.3206 -3.23772 0.185036 0
M  V30 1007 H 97.1056 -3.4006 1.95197 0
M  V30 1008 H 98.5956 -4.00862 1.17046 0
M  V30 1009 N 99.0327 -1.24633 -0.964593 0
M  V30 1010 C 99.9647 -0.999302 -2.06268 0
M  V30 1011 C 100.978 0.0323226 -1.62768 0
M  V30 1012 O 102.167 -0.205079 -1.77318 0
M  V30 1013 C 99.2667 -0.486816 -3.35385 0
M  V30 1014 C 98.4397 -1.5823 -4.07777 0
M  V30 1015 C 97.4987 -1.07191 -5.15166 0
M  V30 1016 O 96.5247 -1.76426 -5.41168 0
M  V30 1017 N 97.7267 0.0920373 -5.80427 0
M  V30 1018 H 100.492 -1.94477 -2.28033 0
M  V30 1019 H 98.0527 -1.15704 -1.13244 0
M  V30 1020 H 100.045 -0.130066 -4.04491 0
M  V30 1021 H 98.6147 0.364459 -3.10468 0
M  V30 1022 H 97.8347 -2.11109 -3.32906 0
M  V30 1023 H 99.1227 -2.31854 -4.52903 0
M  V30 1024 H 98.5207 0.670784 -5.61709 0
M  V30 1025 H 97.0777 0.389905 -6.50633 0
M  V30 1026 N 100.511 1.16574 -1.06058 0
M  V30 1027 C 101.757 1.87324 -0.777022 0
M  V30 1028 C 102.09 1.81351 0.694645 0
M  V30 1029 O 101.365 1.22753 1.50871 0
M  V30 1030 C 101.648 3.36991 -1.26922 0
M  V30 1031 C 101.501 3.51667 -2.80447 0
M  V30 1032 C 102.82 4.3131 -0.87521 0
M  V30 1033 H 99.9388 0.680191 -0.28374 0
M  V30 1034 H 102.581 1.37036 -1.3161 0
M  V30 1035 H 100.731 3.79949 -0.81063 0
M  V30 1036 H 102.403 3.17664 -3.34495 0
M  V30 1037 H 100.646 2.93656 -3.19294 0
M  V30 1038 H 101.317 4.56766 -3.0995 0
M  V30 1039 H 103.793 3.9624 -1.27014 0
M  V30 1040 H 102.669 5.34545 -1.2471 0
M  V30 1041 H 102.93 4.41552 0.220071 0
M  V30 1042 N 101.989 0.842826 1.3317 0
M  V30 1043 C 103.235 0.441099 1.97945 0
M  V30 1044 C 103.568 -0.998024 1.66593 0
M  V30 1045 O 102.843 -1.69839 0.947898 0
M  V30 1046 C 103.126 0.666841 3.53872 0
M  V30 1047 C 102.979 2.15352 3.94897 0
M  V30 1048 C 104.298 0.115544 4.39948 0
M  V30 1049 H 101.417 0.161739 0.719034 0
M  V30 1050 H 104.059 1.05907 1.57746 0
M  V30 1051 H 102.209 0.140828 3.88245 0
M  V30 1052 H 103.881 2.7447 3.70761 0
M  V30 1053 H 102.124 2.63653 3.44484 0
M  V30 1054 H 102.795 2.26221 5.03516 0
M  V30 1055 H 105.271 0.565213 4.12243 0
M  V30 1056 H 104.147 0.303152 5.48062 0
M  V30 1057 H 104.408 -0.980935 4.3108 0
M  V30 1058 N 103.467 -1.45747 0.599634 0
M  V30 1059 C 104.715 -2.01893 0.0915472 0
M  V30 1060 C 105.036 -1.47155 -1.27946 0
M  V30 1061 O 104.306 -0.66273 -1.84349 0
M  V30 1062 H 102.886 -0.746363 0.0308524 0
M  V30 1063 H 105.548 -1.78645 0.779237 0
M  V30 1064 H 104.644 -3.1208 0.0353086 0
M  V30 1065 N 104.945 -0.338344 -1.53925 0
M  V30 1066 C 106.173 0.261298 -2.05243 0
M  V30 1067 C 106.588 1.44625 -1.21363 0
M  V30 1068 O 105.945 1.80811 -0.247736 0
M  V30 1069 C 105.996 0.681412 -3.5502 0
M  V30 1070 O 105.717 -0.456414 -4.35716 0
M  V30 1071 C 107.218 1.34232 -4.22489 0
M  V30 1072 H 104.438 0.0513685 -0.669031 0
M  V30 1073 H 106.982 -0.488822 -1.98572 0
M  V30 1074 H 105.137 1.38148 -3.61931 0
M  V30 1075 H 105.551 -0.122564 -5.24357 0
M  V30 1076 H 107.025 1.58708 -5.28693 0
M  V30 1077 H 107.502 2.29426 -3.74514 0
M  V30 1078 H 108.108 0.684424 -4.19757 0
M  V30 1079 N 106.423 1.57458 -0.0668435 0
M  V30 1080 C 107.333 2.15937 0.916975 0
M  V30 1081 C 108.349 1.12123 1.33058 0
M  V30 1082 O 109.525 1.44366 1.40429 0
M  V30 1083 C 106.59 2.70547 2.16807 0
M  V30 1084 C 105.651 3.89215 1.81135 0
M  V30 1085 C 104.884 4.41211 3.0028 0
M  V30 1086 O 105.107 3.92225 4.14144 0
M  V30 1087 O 104.041 5.32605 2.80384 0
M  V30 1088 H 107.867 3.00354 0.449561 0
M  V30 1089 H 105.452 1.48584 0.155949 0
M  V30 1090 H 107.334 3.0557 2.90181 0
M  V30 1091 H 106.009 1.89192 2.62656 0
M  V30 1092 H 104.916 3.59054 1.05028 0
M  V30 1093 H 106.249 4.71848 1.40073 0
M  V30 1094 N 107.901 -0.206675 1.56239 0
M  V30 1095 C 109.317 -0.557025 1.49564 0
M  V30 1096 C 109.517 -1.86424 0.764735 0
M  V30 1097 O 108.573 -2.50584 0.310491 0
M  V30 1098 C 109.886 -0.622478 2.94186 0
M  V30 1099 C 111.434 -0.712099 3.04792 0
M  V30 1100 C 111.909 -0.808767 4.50803 0
M  V30 1101 N 113.4 -0.8726 4.54907 0
M  V30 1102 C 114.135 -0.967365 5.65181 0
M  V30 1103 N 113.631 -1.02515 6.85173 0
M  V30 1104 N 115.424 -1.00366 5.53067 0
M  V30 1105 H 107.575 0.650943 2.02179 0
M  V30 1106 H 109.838 0.230387 0.919579 0
M  V30 1107 H 109.544 0.268727 3.50672 0
M  V30 1108 H 109.418 -1.4811 3.46905 0
M  V30 1109 H 111.805 -1.59374 2.48363 0
M  V30 1110 H 111.886 0.172489 2.55218 0
M  V30 1111 H 111.53 0.0684754 5.07854 0
M  V30 1112 H 111.46 -1.70899 4.98098 0
M  V30 1113 H 113.951 -0.837657 3.68499 0
M  V30 1114 H 114.264 -1.09765 7.64965 0
M  V30 1115 H 112.609 -0.994026 6.87855 0
M  V30 1116 H 115.8 -0.95527 4.58249 0
M  V30 1117 H 115.973 -1.07405 6.39037 0
M  V30 1118 N 109.379 -1.50304 -0.473955 0
M  V30 1119 C 110.609 -1.64663 -1.24778 0
M  V30 1120 C 111.017 -0.328174 -1.86332 0
M  V30 1121 O 110.36 0.699536 -1.69859 0
M  V30 1122 C 110.422 -2.6778 -2.39863 0
M  V30 1123 C 110.086 -4.11413 -1.98969 0
M  V30 1124 C 111.083 -4.97372 -1.51385 0
M  V30 1125 C 108.768 -4.57312 -2.07777 0
M  V30 1126 C 110.762 -6.27277 -1.13148 0
M  V30 1127 C 108.449 -5.87223 -1.69152 0
M  V30 1128 C 109.447 -6.72031 -1.21915 0
M  V30 1129 O 109.135 -7.99518 -0.838237 0
M  V30 1130 H 108.867 -0.556602 -0.383627 0
M  V30 1131 H 111.421 -1.9726 -0.572491 0
M  V30 1132 H 109.651 -2.30419 -3.10554 0
M  V30 1133 H 111.34 -2.71388 -3.01833 0
M  V30 1134 H 112.106 -4.63128 -1.44004 0
M  V30 1135 H 107.985 -3.91449 -2.43493 0
M  V30 1136 H 111.529 -6.93425 -0.762077 0
M  V30 1137 H 107.426 -6.20989 -1.76191 0
M  V30 1138 H 108.194 -8.12764 -0.967339 0
M  V30 1139 N 110.857 0.726932 -1.39834 0
M  V30 1140 C 112.085 1.51613 -1.40787 0
M  V30 1141 C 112.5 1.88799 -0.00451505 0
M  V30 1142 O 111.857 1.54662 0.968809 0
M  V30 1143 C 111.908 2.79863 -2.28821 0
M  V30 1144 O 111.629 2.44253 -3.63692 0
M  V30 1145 C 113.13 3.73837 -2.38245 0
M  V30 1146 H 110.35 0.468264 -0.480593 0
M  V30 1147 H 112.894 0.897607 -1.83748 0
M  V30 1148 H 111.049 3.38027 -1.89252 0
M  V30 1149 H 111.463 3.26695 -4.1033 0
M  V30 1150 H 112.937 4.60699 -3.04073 0
M  V30 1151 H 113.414 4.16153 -1.40403 0
M  V30 1152 H 114.02 3.21589 -2.78317 0
M  V30 1153 N 112.336 1.25143 0.95797 0
M  V30 1154 C 113.561 1.12521 1.74223 0
M  V30 1155 C 113.986 -0.317402 1.85403 0
M  V30 1156 O 113.344 -1.2299 1.33204 0
M  V30 1157 C 113.392 1.78062 3.1357 0
M  V30 1158 O 112.496 1.058 3.98598 0
M  V30 1159 H 111.837 0.39304 0.535178 0
M  V30 1160 H 114.367 1.65641 1.201 0
M  V30 1161 H 114.377 1.84213 3.64046 0
M  V30 1162 H 113.052 2.83021 3.04749 0
M  V30 1163 H 111.629 1.07506 3.57067 0
M  V30 1164 N 113.814 -1.1601 1.06675 0
M  V30 1165 C 115.062 -1.86264 0.784229 0
M  V30 1166 C 115.383 -1.82328 -0.691488 0
M  V30 1167 O 114.653 -1.25947 -1.50047 0
M  V30 1168 H 113.233 -0.689621 0.28711 0
M  V30 1169 H 115.895 -1.40664 1.34906 0
M  V30 1170 H 114.991 -2.91595 1.11259 0
M  V30 1171 N 115.292 -0.849877 -1.32721 0
M  V30 1172 C 116.517 -0.463856 -2.02146 0
M  V30 1173 C 116.942 0.930449 -1.63476 0
M  V30 1174 O 116.3 1.61033 -0.832952 0
M  V30 1175 C 116.348 -0.604955 -3.55489 0
M  V30 1176 O 115.452 0.36425 -4.10788 0
M  V30 1177 H 114.793 -0.187046 -0.637111 0
M  V30 1178 H 117.323 -1.14775 -1.69375 0
M  V30 1179 H 117.333 -0.490696 -4.05038 0
M  V30 1180 H 116.008 -1.62174 -3.82978 0
M  V30 1181 H 114.585 0.206628 -3.72327 0
M  V30 1182 N 116.77 1.45427 -0.607355 0
M  V30 1183 C 117.717 2.3053 0.111625 0
M  V30 1184 C 118.687 1.4209 0.860216 0
M  V30 1185 O 119.872 1.71019 0.845998 0
M  V30 1186 C 117.012 3.26992 1.10319 0
M  V30 1187 C 116.125 4.30535 0.355493 0
M  V30 1188 C 115.26 5.14105 1.33676 0
M  V30 1189 C 114.299 6.09376 0.576862 0
M  V30 1190 N 113.436 6.85727 1.5074 0
M  V30 1191 H 118.276 2.91477 -0.620093 0
M  V30 1192 H 115.813 1.43631 -0.317594 0
M  V30 1193 H 117.771 3.81385 1.6912 0
M  V30 1194 H 116.401 2.67799 1.80232 0
M  V30 1195 H 115.453 3.78805 -0.348023 0
M  V30 1196 H 116.765 4.98235 -0.237423 0
M  V30 1197 H 115.919 5.72897 1.99684 0
M  V30 1198 H 114.658 4.46423 1.9636 0
M  V30 1199 H 113.663 5.49715 -0.0968519 0
M  V30 1200 H 114.888 6.79085 -0.0449341 0
M  V30 1201 H 112.834 6.20735 2.12189 0
M  V30 1202 H 112.751 7.49778 0.967913 0
M  V30 1203 H 114.019 7.4906 2.15706 0
M  V30 1204 N 118.248 0.346503 1.53744 0
M  V30 1205 C 119.494 -0.249473 2.0126 0
M  V30 1206 C 119.827 -1.49965 1.23386 0
M  V30 1207 O 119.102 -1.91811 0.32229 0
M  V30 1208 C 119.385 -0.560643 3.55709 0
M  V30 1209 C 119.238 0.701836 4.44291 0
M  V30 1210 C 120.557 -1.36905 4.18264 0
M  V30 1211 H 117.676 -0.0891987 0.731582 0
M  V30 1212 H 120.318 0.467624 1.84156 0
M  V30 1213 H 118.468 -1.17156 3.70414 0
M  V30 1214 H 120.14 1.33974 4.41417 0
M  V30 1215 H 118.383 1.32612 4.13033 0
M  V30 1216 H 119.054 0.43933 5.50249 0
M  V30 1217 H 121.53 -0.852448 4.07275 0
M  V30 1218 H 120.406 -1.55553 5.26398 0
M  V30 1219 H 120.667 -2.37203 3.73078 0
M  V30 1220 N 119.726 -1.57421 0.075193 0
M  V30 1221 C 120.974 -1.93236 -0.591974 0
M  V30 1222 C 121.295 -0.956241 -1.69944 0
M  V30 1223 O 120.565 -0.00494792 -1.95899 0
M  V30 1224 H 119.145 -0.713355 -0.22166 0
M  V30 1225 H 121.807 -1.9444 0.133848 0
M  V30 1226 H 120.903 -2.95131 -1.01509 0
M  V30 1227 N 121.204 0.198386 -1.56346 0
M  V30 1228 C 122.432 0.935572 -1.84539 0
M  V30 1229 C 122.847 1.76989 -0.657281 0
M  V30 1230 O 122.204 1.78626 0.374043 0
M  V30 1231 C 122.255 1.8344 -3.11499 0
M  V30 1232 O 121.976 1.03377 -4.25728 0
M  V30 1233 C 123.477 2.68355 -3.52846 0
M  V30 1234 H 120.697 0.273126 -0.612897 0
M  V30 1235 H 123.241 0.20663 -2.03453 0
M  V30 1236 H 121.396 2.51701 -2.94492 0
M  V30 1237 H 121.81 1.64599 -4.98003 0
M  V30 1238 H 123.284 3.27085 -4.44657 0
M  V30 1239 H 123.761 3.41901 -2.75681 0
M  V30 1240 H 124.367 2.05471 -3.72373 0
M  V30 1241 N 122.682 1.50554 0.465978 0
M  V30 1242 C 123.922 1.63439 1.22747 0
M  V30 1243 C 124.286 0.329822 1.89146 0
M  V30 1244 O 125.487 0.334161 2.66715 0
M  V30 1245 C 123.758 2.78542 2.2394 0
M  V30 1246 S 125.317 3.11591 3.0896 0
M  V30 1247 H 122.135 0.576113 0.416672 0
M  V30 1248 H 124.737 1.88357 0.523641 0
M  V30 1249 H 123.441 3.71805 1.7375 0
M  V30 1250 H 122.972 2.55726 2.98944 0
M  V30 1251 H 124.987 2.55811 4.25176 0
M  V30 1252 N 124.16 -0.719506 1.40217 0
M  V30 1253 C 125.388 -1.50864 1.41589 0
M  V30 1254 C 125.803 -1.88794 0.0145275 0
M  V30 1255 O 125.16 -1.55174 -0.960594 0
M  V30 1256 C 125.211 -2.78646 2.30302 0
M  V30 1257 O 124.932 -2.42321 3.64983 0
M  V30 1258 C 126.433 -3.72569 2.40224 0
M  V30 1259 H 123.653 -0.465709 0.48307 0
M  V30 1260 H 126.197 -0.88785 1.84221 0
M  V30 1261 H 124.352 -3.37019 1.91042 0
M  V30 1262 H 124.766 -3.24514 4.12057 0
M  V30 1263 H 126.24 -4.5908 3.06512 0
M  V30 1264 H 126.717 -4.15403 1.42608 0
M  V30 1265 H 127.323 -3.20109 2.80019 0
M  V30 1266 N 125.638 -1.25649 -0.95132 0
M  V30 1267 C 126.568 -1.08808 -2.06599 0
M  V30 1268 C 127.549 0.00382547 -1.701 0
M  V30 1269 O 128.734 -0.166325 -1.93486 0
M  V30 1270 C 125.864 -0.709542 -3.39975 0
M  V30 1271 C 124.818 -1.75206 -3.90496 0
M  V30 1272 C 124.144 -1.22811 -5.20405 0
M  V30 1273 C 125.444 -3.15153 -4.16504 0
M  V30 1274 H 127.138 -2.02048 -2.20946 0
M  V30 1275 H 124.684 -0.972835 -1.06169 0
M  V30 1276 H 126.637 -0.578649 -4.17408 0
M  V30 1277 H 125.361 0.258556 -3.25575 0
M  V30 1278 H 124.02 -1.87145 -3.15234 0
M  V30 1279 H 123.668 -0.250145 -5.02378 0
M  V30 1280 H 123.368 -1.92492 -5.55176 0
M  V30 1281 H 124.892 -1.10968 -6.00432 0
M  V30 1282 H 126.306 -3.06349 -4.84586 0
M  V30 1283 H 124.703 -3.82333 -4.62538 0
M  V30 1284 H 125.773 -3.61966 -3.22658 0
M  V30 1285 N 127.117 1.15442 -1.07289 0
M  V30 1286 C 128.347 1.89821 -0.815576 0
M  V30 1287 C 128.755 1.7823 0.634867 0
M  V30 1288 O 128.098 1.13152 1.44715 0
M  V30 1289 C 128.16 3.40817 -1.14385 0
M  V30 1290 C 127.824 3.76193 -2.59476 0
M  V30 1291 C 128.821 3.77269 -3.57721 0
M  V30 1292 C 126.506 4.0652 -2.95037 0
M  V30 1293 C 128.5 4.08176 -4.89562 0
M  V30 1294 C 126.187 4.37092 -4.27076 0
M  V30 1295 C 127.185 4.37902 -5.24148 0
M  V30 1296 O 126.873 4.67741 -6.53815 0
M  V30 1297 H 126.605 0.608465 -0.294528 0
M  V30 1298 H 129.159 1.472 -1.43252 0
M  V30 1299 H 127.389 3.83835 -0.469865 0
M  V30 1300 H 129.078 3.96485 -0.869179 0
M  V30 1301 H 129.844 3.5394 -3.3159 0
M  V30 1302 H 125.723 4.05049 -2.20128 0
M  V30 1303 H 129.267 4.08723 -5.65324 0
M  V30 1304 H 125.164 4.59889 -4.5296 0
M  V30 1305 H 125.932 4.85509 -6.58957 0
M  V30 1306 N 128.595 0.856903 1.32268 0
M  V30 1307 C 129.82 0.474569 2.01897 0
M  V30 1308 C 130.245 -0.921766 1.63967 0
M  V30 1309 O 129.603 -1.60589 0.84148 0
M  V30 1310 C 129.651 0.623799 3.55164 0
M  V30 1311 O 128.755 -0.342459 4.10976 0
M  V30 1312 H 128.096 0.190422 0.63611 0
M  V30 1313 H 130.626 1.15672 1.68764 0
M  V30 1314 H 130.636 0.512169 4.04773 0
M  V30 1315 H 129.311 1.64202 3.82113 0
M  V30 1316 H 127.888 -0.18688 3.72431 0
M  V30 1317 N 130.073 -1.45103 0.615059 0
M  V30 1318 C 131.319 -2.02483 0.113347 0
M  V30 1319 C 131.652 -1.48146 -1.25564 0
M  V30 1320 O 130.927 -0.659104 -1.82992 0
M  V30 1321 C 131.21 -3.60005 0.0825278 0
M  V30 1322 C 131.063 -4.2466 1.48271 0
M  V30 1323 C 132.382 -4.35972 -0.601401 0
M  V30 1324 H 129.501 -0.735764 0.0426632 0
M  V30 1325 H 132.143 -1.72868 0.788461 0
M  V30 1326 H 130.293 -3.85367 -0.492378 0
M  V30 1327 H 131.965 -4.10458 2.10527 0
M  V30 1328 H 130.208 -3.82772 2.04127 0
M  V30 1329 H 130.879 -5.336 1.41332 0
M  V30 1330 H 133.355 -4.15947 -0.112666 0
M  V30 1331 H 132.231 -5.45697 -0.592097 0
M  V30 1332 H 132.492 -4.09391 -1.66887 0
M  V30 1333 N 131.551 -0.354651 -1.53558 0
M  V30 1334 C 132.967 -0.00315426 -1.596 0
M  V30 1335 C 133.167 1.47741 -1.37021 0
M  V30 1336 O 132.223 2.23759 -1.16996 0
M  V30 1337 C 133.536 -0.44929 -2.97325 0
M  V30 1338 C 135.084 -0.402578 -3.104 0
M  V30 1339 C 135.559 -0.824355 -4.5052 0
M  V30 1340 N 137.05 -0.778979 -4.56603 0
M  V30 1341 C 137.785 -1.07715 -5.63192 0
M  V30 1342 N 137.281 -1.44405 -6.77583 0
M  V30 1343 N 139.074 -1.00066 -5.53121 0
M  V30 1344 H 131.225 -1.31893 -1.66487 0
M  V30 1345 H 133.488 -0.538388 -0.780284 0
M  V30 1346 H 133.194 -1.48202 -3.1895 0
M  V30 1347 H 133.068 0.169772 -3.76818 0
M  V30 1348 H 135.455 0.621004 -2.88492 0
M  V30 1349 H 135.536 -1.05699 -2.32941 0
M  V30 1350 H 135.18 -1.846 -4.73165 0
M  V30 1351 H 135.11 -0.147304 -5.26394 0
M  V30 1352 H 137.601 -0.508528 -3.74463 0
M  V30 1353 H 137.914 -1.65612 -7.54846 0
M  V30 1354 H 136.259 -1.4826 -6.79002 0
M  V30 1355 H 139.45 -0.713293 -4.62633 0
M  V30 1356 H 139.623 -1.23638 -6.36096 0
M  V30 1357 N 133.029 1.57378 -0.0835403 0
M  V30 1358 C 133.959 2.1641 0.87686 0
M  V30 1359 C 134.94 1.09429 1.30228 0
M  V30 1360 O 136.125 1.37516 1.37124 0
M  V30 1361 C 133.255 2.73517 2.14022 0
M  V30 1362 C 132.209 3.85769 1.85381 0
M  V30 1363 C 131.535 4.29529 3.18448 0
M  V30 1364 C 132.835 5.09486 1.14984 0
M  V30 1365 H 134.529 2.96914 0.385059 0
M  V30 1366 H 132.075 1.42823 0.18377 0
M  V30 1367 H 134.028 3.13463 2.81636 0
M  V30 1368 H 132.752 1.90252 2.65465 0
M  V30 1369 H 131.411 3.46345 1.20169 0
M  V30 1370 H 131.059 3.43169 3.67755 0
M  V30 1371 H 130.759 5.05204 3.00071 0
M  V30 1372 H 132.283 4.72099 3.8724 0
M  V30 1373 H 133.697 5.46674 1.72687 0
M  V30 1374 H 132.094 5.90515 1.06826 0
M  V30 1375 H 133.164 4.84724 0.130749 0
M  V30 1376 N 134.507 -0.190092 1.56449 0
M  V30 1377 C 135.735 -0.925772 1.85033 0
M  V30 1378 C 136.15 -1.76638 0.666658 0
M  V30 1379 O 135.507 -1.78822 -0.364565 0
M  V30 1380 C 135.558 -1.81786 3.12468 0
M  V30 1381 O 135.279 -1.01118 4.26271 0
M  V30 1382 C 136.78 -2.6648 3.54265 0
M  V30 1383 H 134 -0.269872 0.614337 0
M  V30 1384 H 136.544 -0.195837 2.0356 0
M  V30 1385 H 134.699 -2.50136 2.95822 0
M  V30 1386 H 135.113 -1.61956 4.98869 0
M  V30 1387 H 136.587 -3.24722 4.46385 0
M  V30 1388 H 137.064 -3.40434 2.77491 0
M  V30 1389 H 137.67 -2.03493 3.73458 0
M  V30 1390 N 135.985 -1.50799 -0.457987 0
M  V30 1391 C 136.935 -1.67003 -1.55222 0
M  V30 1392 C 137.919 -0.52434 -1.52117 0
M  V30 1393 O 139.111 -0.779345 -1.58919 0
M  V30 1394 C 136.24 -1.77956 -2.93576 0
M  V30 1395 C 135.326 -2.98243 -3.01516 0
M  V30 1396 N 135.717 -4.21732 -2.79241 0
M  V30 1397 C 134.015 -2.97072 -3.32662 0
M  V30 1398 C 134.716 -5.02817 -2.92489 0
M  V30 1399 N 133.692 -4.37038 -3.23262 0
M  V30 1400 H 137.494 -2.60163 -1.36721 0
M  V30 1401 H 135.008 -1.48163 -0.664952 0
M  V30 1402 H 137.005 -1.87671 -3.72271 0
M  V30 1403 H 135.665 -0.859634 -3.13114 0
M  V30 1404 H 136.676 -4.51016 -2.54567 0
M  V30 1405 H 133.353 -2.14631 -3.58106 0
M  V30 1406 H 134.743 -6.11054 -2.79396 0
M  V30 1407 N 137.463 0.71206 -1.40597 0
M  V30 1408 C 138.711 1.46907 -1.38791 0
M  V30 1409 C 139.032 1.94998 0.00780391 0
M  V30 1410 O 138.302 1.70587 0.963174 0
M  V30 1411 H 136.882 0.545043 -0.51082 0
M  V30 1412 H 139.544 0.843882 -1.75683 0
M  V30 1413 H 138.64 2.34021 -2.06496 0
M  V30 1414 N 138.941 1.26152 0.944643 0
M  V30 1415 C 140.218 1.02247 1.66748 0
M  V30 1416 C 140.598 -0.448202 2.06287 0
M  V30 1417 O 139.946 -1.42779 1.78399 0
M  V30 1418 C 140.156 1.96788 2.88228 0
M  V30 1419 C 141.504 2.25201 3.59958 0
M  V30 1420 O 142.528 1.94626 2.98327 0
M  V30 1421 O 141.387 2.77242 4.70956 0
M  V30 1422 H 138.481 0.388517 0.730057 0
M  V30 1423 H 141.027 1.37348 0.99668 0
M  V30 1424 H 139.799 2.96047 2.55875 0
M  V30 1425 H 139.422 1.62145 3.63035 0
M  V30 1426 N 140.419 -1.14872 1.07899 0
M  V30 1427 C 141.666 -1.85789 0.805532 0
M  V30 1428 C 141.994 -1.82649 -0.668561 0
M  V30 1429 O 141.249 -1.24858 -1.50695 0
M  V30 1430 C 141.548 -3.34223 1.26609 0
M  V30 1431 C 141.214 -3.57555 2.74709 0
M  V30 1432 C 139.876 -3.63631 3.1516 0
M  V30 1433 C 142.228 -3.66803 3.70277 0
M  V30 1434 C 139.556 -3.76473 4.49983 0
M  V30 1435 C 141.908 -3.8117 5.04869 0
M  V30 1436 C 140.572 -3.85494 5.44932 0
M  V30 1437 H 139.842 -0.679849 0.294765 0
M  V30 1438 H 142.489 -1.3572 1.35101 0
M  V30 1439 H 140.794 -3.86536 0.640103 0
M  V30 1440 H 142.491 -3.87511 1.03132 0
M  V30 1441 H 139.081 -3.5347 2.42398 0
M  V30 1442 H 143.265 -3.61404 3.40149 0
M  V30 1443 H 138.521 -3.7808 4.80484 0
M  V30 1444 H 142.695 -3.87268 5.78789 0
M  V30 1445 H 140.322 -3.95197 6.49403 0
M  V30 1446 N 141.898 -0.863906 -1.31812 0
M  V30 1447 C 143.123 -0.48527 -2.01643 0
M  V30 1448 C 143.548 0.913058 -1.64453 0
M  V30 1449 O 142.906 1.6014 -0.849985 0
M  V30 1450 C 142.954 -0.642625 -3.54828 0
M  V30 1451 O 142.058 0.320659 -4.11151 0
M  V30 1452 H 141.399 -0.193793 -0.635091 0
M  V30 1453 H 143.929 -1.16565 -1.68148 0
M  V30 1454 H 143.939 -0.533628 -4.04495 0
M  V30 1455 H 142.614 -1.66227 -3.81237 0
M  V30 1456 H 141.191 0.167126 -3.72525 0
M  V30 1457 N 143.376 1.44774 -0.622745 0
M  V30 1458 C 144.622 2.02968 -0.13257 0
M  V30 1459 C 144.977 1.48047 1.22881 0
M  V30 1460 O 144.27 0.651625 1.80179 0
M  V30 1461 C 144.464 3.57364 -0.0508323 0
M  V30 1462 C 144.293 4.27262 -1.40275 0
M  V30 1463 C 143.063 4.64577 -1.98737 0
M  V30 1464 C 145.261 4.58248 -2.3348 0
M  V30 1465 N 143.243 5.19404 -3.27251 0
M  V30 1466 C 144.614 5.14069 -3.46603 0
M  V30 1467 C 146.669 4.40195 -2.32664 0
M  V30 1468 C 145.372 5.53738 -4.59093 0
M  V30 1469 C 147.398 4.80907 -3.44213 0
M  V30 1470 C 146.76 5.36834 -4.56058 0
M  V30 1471 H 142.859 0.776541 -0.0922354 0
M  V30 1472 H 145.443 1.76385 -0.82441 0
M  V30 1473 H 143.614 3.83576 0.610265 0
M  V30 1474 H 145.346 4.02219 0.447397 0
M  V30 1475 H 142.101 4.48622 -1.51774 0
M  V30 1476 H 142.525 5.51301 -3.92933 0
M  V30 1477 H 147.167 3.96257 -1.47446 0
M  V30 1478 H 144.885 5.96635 -5.45025 0
M  V30 1479 H 148.471 4.68659 -3.44747 0
M  V30 1480 H 147.351 5.67755 -5.40947 0
M  V30 1481 N 144.854 0.36279 1.53368 0
M  V30 1482 C 146.082 -0.228613 2.05633 0
M  V30 1483 C 146.497 -1.42676 1.23649 0
M  V30 1484 O 145.854 -1.80394 0.27647 0
M  V30 1485 C 145.905 -0.624845 3.56059 0
M  V30 1486 O 145.626 0.525675 4.34935 0
M  V30 1487 C 147.127 -1.27493 4.24571 0
M  V30 1488 H 144.347 -0.0407183 0.669763 0
M  V30 1489 H 146.891 0.520352 1.97769 0
M  V30 1490 H 145.046 -1.32373 3.64083 0
M  V30 1491 H 145.46 0.205969 5.24095 0
M  V30 1492 H 146.934 -1.50277 5.31151 0
M  V30 1493 H 147.411 -2.23439 3.78116 0
M  V30 1494 H 148.017 -0.617558 4.20792 0
M  V30 1495 N 146.332 -1.57332 0.0918853 0
M  V30 1496 C 147.56 -1.98574 -0.581048 0
M  V30 1497 C 147.975 -0.970903 -1.61923 0
M  V30 1498 O 147.332 0.0399054 -1.82456 0
M  V30 1499 C 147.383 -3.39872 -1.23164 0
M  V30 1500 O 147.104 -4.37469 -0.234989 0
M  V30 1501 C 148.605 -3.96099 -1.99049 0
M  V30 1502 H 145.825 -0.65261 -0.156018 0
M  V30 1503 H 148.369 -2.0379 0.170225 0
M  V30 1504 H 146.524 -3.35679 -1.93386 0
M  V30 1505 H 146.938 -5.19751 -0.70418 0
M  V30 1506 H 148.412 -4.97127 -2.39934 0
M  V30 1507 H 148.889 -3.3374 -2.85507 0
M  V30 1508 H 149.495 -4.03755 -1.3365 0
M  V30 1509 N 147.81 0.181792 -1.56548 0
M  V30 1510 C 148.757 1.22521 -1.95595 0
M  V30 1511 C 149.727 1.4454 -0.818373 0
M  V30 1512 O 150.912 1.57454 -1.07763 0
M  V30 1513 C 148.052 2.56193 -2.31212 0
M  V30 1514 C 147.165 2.41641 -3.58097 0
M  V30 1515 C 146.3 3.68108 -3.82975 0
M  V30 1516 C 145.339 3.48445 -5.03242 0
M  V30 1517 N 144.476 4.66956 -5.24306 0
M  V30 1518 H 149.316 0.885226 -2.84548 0
M  V30 1519 H 146.853 0.425718 -1.40805 0
M  V30 1520 H 148.811 3.34088 -2.49882 0
M  V30 1521 H 147.441 2.88208 -1.45382 0
M  V30 1522 H 146.493 1.54976 -3.474 0
M  V30 1523 H 147.805 2.23052 -4.46149 0
M  V30 1524 H 146.959 4.54441 -4.01956 0
M  V30 1525 H 145.698 3.89666 -2.93278 0
M  V30 1526 H 144.703 2.60499 -4.8417 0
M  V30 1527 H 145.928 3.2832 -5.9446 0
M  V30 1528 H 143.874 4.88752 -4.37559 0
M  V30 1529 H 143.791 4.51242 -6.06561 0
M  V30 1530 H 145.059 5.54602 -5.47756 0
M  V30 1531 N 149.288 1.51039 0.449983 0
M  V30 1532 C 150.235 1.71439 1.54523 0
M  V30 1533 C 151.205 0.555871 1.56522 0
M  V30 1534 O 152.39 0.788871 1.73728 0
M  V30 1535 C 149.53 1.83384 2.92343 0
M  V30 1536 C 148.643 3.10873 2.9997 0
M  V30 1537 C 147.778 3.13488 4.28834 0
M  V30 1538 C 146.817 4.35343 4.30282 0
M  V30 1539 N 145.954 4.35579 5.5065 0
M  V30 1540 H 150.794 2.64934 1.36433 0
M  V30 1541 H 148.331 1.31312 0.662982 0
M  V30 1542 H 150.289 1.88291 3.72293 0
M  V30 1543 H 148.919 0.933086 3.0902 0
M  V30 1544 H 147.971 3.15336 2.12761 0
M  V30 1545 H 149.283 4.00814 2.96901 0
M  V30 1546 H 148.437 3.17241 5.17149 0
M  V30 1547 H 147.176 2.21414 4.34543 0
M  V30 1548 H 146.181 4.3178 3.40362 0
M  V30 1549 H 147.406 5.28668 4.26248 0
M  V30 1550 H 145.352 3.46369 5.57104 0
M  V30 1551 H 145.269 5.19313 5.49409 0
M  V30 1552 H 146.537 4.43507 6.41032 0
M  V30 1553 N 150.766 -0.704594 1.40972 0
M  V30 1554 C 151.713 -1.81862 1.42109 0
M  V30 1555 C 152.683 -1.63781 0.276593 0
M  V30 1556 O 153.868 -1.84759 0.4763 0
M  V30 1557 C 151.008 -3.19669 1.30022 0
M  V30 1558 C 150.121 -3.49246 2.54267 0
M  V30 1559 C 149.256 -4.76618 2.3454 0
M  V30 1560 C 148.295 -4.99133 3.54306 0
M  V30 1561 N 147.432 -6.17726 3.33706 0
M  V30 1562 H 152.272 -1.80226 2.37324 0
M  V30 1563 H 149.809 -0.880238 1.17857 0
M  V30 1564 H 151.767 -3.99263 1.21018 0
M  V30 1565 H 150.397 -3.20506 0.384192 0
M  V30 1566 H 149.449 -2.64125 2.73756 0
M  V30 1567 H 150.761 -3.61788 3.43381 0
M  V30 1568 H 149.915 -5.64249 2.22952 0
M  V30 1569 H 148.654 -4.66305 1.42867 0
M  V30 1570 H 147.659 -4.09953 3.66359 0
M  V30 1571 H 148.884 -5.11311 4.4692 0
M  V30 1572 H 146.83 -6.08642 2.44725 0
M  V30 1573 H 146.747 -6.30995 4.16391 0
M  V30 1574 H 148.015 -7.08115 3.25873 0
M  V30 1575 N 152.244 -1.26651 -0.937939 0
M  V30 1576 C 153.474 -1.15006 -1.71631 0
M  V30 1577 C 153.882 0.297026 -1.86854 0
M  V30 1578 O 153.225 1.21493 -1.37786 0
M  V30 1579 C 153.287 -1.74984 -3.14039 0
M  V30 1580 C 152.951 -3.24103 -3.2219 0
M  V30 1581 C 153.948 -4.20877 -3.05219 0
M  V30 1582 C 151.633 -3.64625 -3.45476 0
M  V30 1583 C 153.627 -5.56151 -3.11408 0
M  V30 1584 C 151.314 -5.00032 -3.513 0
M  V30 1585 C 152.312 -5.95604 -3.34282 0
M  V30 1586 O 152 -7.28545 -3.3982 0
M  V30 1587 H 151.732 -0.401183 -0.544085 0
M  V30 1588 H 154.286 -1.67832 -1.18413 0
M  V30 1589 H 152.516 -1.16624 -3.68695 0
M  V30 1590 H 154.205 -1.58199 -3.73802 0
M  V30 1591 H 154.971 -3.90908 -2.87081 0
M  V30 1592 H 150.85 -2.90718 -3.57777 0
M  V30 1593 H 154.394 -6.30727 -2.98043 0
M  V30 1594 H 150.291 -5.29659 -3.68959 0
M  V30 1595 H 151.059 -7.3686 -3.56343 0
M  V30 1596 N 153.722 1.14298 -1.08507 0
M  V30 1597 C 155.138 1.37347 -0.812901 0
M  V30 1598 C 155.338 1.93052 0.577325 0
M  V30 1599 O 154.394 2.14389 1.33393 0
M  V30 1600 C 155.707 2.33359 -1.89642 0
M  V30 1601 C 157.255 2.46996 -1.92255 0
M  V30 1602 C 157.73 3.46309 -2.99724 0
M  V30 1603 N 159.221 3.53853 -2.98902 0
M  V30 1604 C 159.956 4.3055 -3.787 0
M  V30 1605 N 159.452 5.10482 -4.6838 0
M  V30 1606 N 161.245 4.25757 -3.66998 0
M  V30 1607 H 153.396 0.764867 -1.9815 0
M  V30 1608 H 155.659 0.398966 -0.859959 0
M  V30 1609 H 155.365 1.99565 -2.89597 0
M  V30 1610 H 155.239 3.33274 -1.76659 0
M  V30 1611 H 157.626 2.80081 -0.929445 0
M  V30 1612 H 157.707 1.47039 -2.09316 0
M  V30 1613 H 157.351 3.13957 -3.99241 0
M  V30 1614 H 157.281 4.46049 -2.79907 0
M  V30 1615 H 159.772 2.96812 -2.33904 0
M  V30 1616 H 160.085 5.66284 -5.25873 0
M  V30 1617 H 158.43 5.09747 -4.72422 0
M  V30 1618 H 161.621 3.62383 -2.96304 0
M  V30 1619 H 161.794 4.85279 -4.29427 0
M  V30 1620 N 155.201 0.870884 1.31352 0
M  V30 1621 C 156.151 0.298889 2.26032 0
M  V30 1622 C 157.135 -0.564595 1.50669 0
M  V30 1623 O 158.327 -0.411323 1.72154 0
M  V30 1624 C 155.456 -0.497842 3.39671 0
M  V30 1625 C 154.542 0.378937 4.22404 0
M  V30 1626 N 154.933 1.47284 4.83881 0
M  V30 1627 C 153.231 0.171535 4.4567 0
M  V30 1628 C 153.932 2.01359 5.45738 0
M  V30 1629 N 152.908 1.31047 5.27568 0
M  V30 1630 H 156.71 1.13494 2.71102 0
M  V30 1631 H 154.224 0.718745 1.45629 0
M  V30 1632 H 156.221 -0.924155 4.06528 0
M  V30 1633 H 154.881 -1.33149 2.96144 0
M  V30 1634 H 155.892 1.85575 4.8351 0
M  V30 1635 H 152.569 -0.626091 4.12779 0
M  V30 1636 H 153.959 2.93143 6.0458 0
M  V30 1637 N 156.679 -1.44442 0.630414 0
M  V30 1638 C 157.926 -2.02052 0.134617 0
M  V30 1639 C 158.254 -1.49576 -1.24327 0
M  V30 1640 O 157.509 -0.669806 -1.83881 0
M  V30 1641 C 157.808 -3.57332 0.0697835 0
M  V30 1642 C 157.474 -4.29058 1.38635 0
M  V30 1643 C 156.136 -4.4837 1.74694 0
M  V30 1644 C 158.488 -4.69872 2.25543 0
M  V30 1645 C 155.816 -5.05756 2.97369 0
M  V30 1646 C 158.168 -5.28616 3.47487 0
M  V30 1647 C 156.832 -5.46147 3.8377 0
M  V30 1648 H 156.102 -0.739361 0.0492598 0
M  V30 1649 H 158.749 -1.73217 0.816586 0
M  V30 1650 H 157.054 -3.85577 -0.695553 0
M  V30 1651 H 158.751 -3.99637 -0.330344 0
M  V30 1652 H 155.341 -4.14357 1.09574 0
M  V30 1653 H 159.525 -4.54666 1.98979 0
M  V30 1654 H 154.781 -5.17515 3.25558 0
M  V30 1655 H 158.955 -5.59192 4.15063 0
M  V30 1656 H 156.582 -5.9038 4.7891 0
M  V30 1657 N 158.157 -0.370918 -1.53173 0
M  V30 1658 C 159.089 0.507823 -2.23503 0
M  V30 1659 C 160.102 1.04182 -1.251 0
M  V30 1660 O 161.291 0.947286 -1.5129 0
M  V30 1661 C 158.391 1.71447 -2.92334 0
M  V30 1662 C 157.564 1.31105 -4.17289 0
M  V30 1663 C 156.623 2.38035 -4.69282 0
M  V30 1664 O 155.649 2.00204 -5.32829 0
M  V30 1665 N 156.851 3.69697 -4.47554 0
M  V30 1666 H 159.616 -0.0946382 -2.99551 0
M  V30 1667 H 157.177 -0.196358 -1.60705 0
M  V30 1668 H 159.169 2.42469 -3.24023 0
M  V30 1669 H 157.739 2.22368 -2.19707 0
M  V30 1670 H 156.959 0.430462 -3.91843 0
M  V30 1671 H 158.247 1.0179 -4.98514 0
M  V30 1672 H 157.645 4.03205 -3.9679 0
M  V30 1673 H 156.202 4.36807 -4.8378 0
M  V30 1674 N 159.635 1.57281 -0.100228 0
M  V30 1675 C 160.545 2.17833 0.870965 0
M  V30 1676 C 161.561 1.14921 1.30649 0
M  V30 1677 O 162.737 1.47313 1.37335 0
M  V30 1678 C 159.802 2.75085 2.1102 0
M  V30 1679 C 158.863 3.9297 1.72838 0
M  V30 1680 C 158.096 4.47482 2.90854 0
M  V30 1681 O 158.319 4.00922 4.05731 0
M  V30 1682 O 157.253 5.38433 2.69023 0
M  V30 1683 H 161.079 3.0124 0.38575 0
M  V30 1684 H 158.664 1.48881 0.124397 0
M  V30 1685 H 160.546 3.11656 2.83634 0
M  V30 1686 H 159.221 1.94721 2.58584 0
M  V30 1687 H 158.128 3.61201 0.973883 0
M  V30 1688 H 159.461 4.74713 1.30033 0
M  V30 1689 N 161.113 -0.173488 1.56642 0
M  V30 1690 C 162.043 -1.2171 1.99271 0
M  V30 1691 C 163.024 -1.46289 0.867959 0
M  V30 1692 O 164.209 -1.5766 1.13388 0
M  V30 1693 C 161.339 -2.55651 2.35074 0
M  V30 1694 C 160.293 -2.45645 3.50489 0
M  V30 1695 C 159.619 -3.84056 3.72028 0
M  V30 1696 C 160.919 -1.96302 4.84007 0
M  V30 1697 H 162.613 -0.86275 2.867 0
M  V30 1698 H 160.159 -0.413571 1.37933 0
M  V30 1699 H 162.112 -3.2886 2.63494 0
M  V30 1700 H 160.836 -2.92869 1.44552 0
M  V30 1701 H 159.495 -1.7489 3.22194 0
M  V30 1702 H 159.143 -4.18664 2.788 0
M  V30 1703 H 158.843 -3.7823 4.49684 0
M  V30 1704 H 160.367 -4.58854 4.02846 0
M  V30 1705 H 161.781 -2.59284 5.11317 0
M  V30 1706 H 160.178 -2.01429 5.65284 0
M  V30 1707 H 161.248 -0.917226 4.76146 0
M  V30 1708 N 162.591 -1.51276 -0.441967 0
M  V30 1709 C 163.541 -1.6864 -1.53442 0
M  V30 1710 C 164.525 -0.540444 -1.51552 0
M  V30 1711 O 165.717 -0.796157 -1.58083 0
M  V30 1712 C 162.846 -1.8106 -2.91672 0
M  V30 1713 C 161.932 -3.01424 -2.98336 0
M  V30 1714 N 162.323 -4.2467 -2.74752 0
M  V30 1715 C 160.621 -3.00584 -3.29493 0
M  V30 1716 C 161.322 -5.05891 -2.87139 0
M  V30 1717 N 160.298 -4.40442 -3.18609 0
M  V30 1718 H 164.1 -2.61598 -1.33954 0
M  V30 1719 H 161.614 -1.4886 -0.6492 0
M  V30 1720 H 163.611 -1.91609 -3.70259 0
M  V30 1721 H 162.271 -0.892795 -3.12185 0
M  V30 1722 H 163.282 -4.53691 -2.49769 0
M  V30 1723 H 159.959 -2.18417 -3.55809 0
M  V30 1724 H 161.349 -6.13983 -2.72899 0
M  V30 1725 N 164.069 0.697108 -1.41344 0
M  V30 1726 C 165.485 1.00751 -1.2378 0
M  V30 1727 C 165.685 2.01105 -0.126066 0
M  V30 1728 O 164.741 2.47295 0.51004 0
M  V30 1729 C 166.054 1.53359 -2.58653 0
M  V30 1730 C 167.602 1.6525 -2.65822 0
M  V30 1731 C 168.077 2.2126 -4.01009 0
M  V30 1732 N 169.568 2.28622 -4.02847 0
M  V30 1733 C 170.303 2.72984 -5.04249 0
M  V30 1734 N 169.799 3.16962 -6.16041 0
M  V30 1735 N 171.592 2.72534 -4.91611 0
M  V30 1736 H 163.743 0.0322662 -2.12375 0
M  V30 1737 H 166.006 0.0768853 -0.944877 0
M  V30 1738 H 165.712 0.870773 -3.4075 0
M  V30 1739 H 165.586 2.51597 -2.81032 0
M  V30 1740 H 167.973 2.30644 -1.84086 0
M  V30 1741 H 168.054 0.655614 -2.47256 0
M  V30 1742 H 167.698 1.56482 -4.83193 0
M  V30 1743 H 167.628 3.21698 -4.16915 0
M  V30 1744 H 170.119 1.97585 -3.22131 0
M  V30 1745 H 170.432 3.49434 -6.89287 0
M  V30 1746 H 168.777 3.14875 -6.1958 0
M  V30 1747 H 171.968 2.37525 -4.0336 0
M  V30 1748 H 172.141 3.06789 -5.70775 0
M  V30 1749 N 165.547 1.27147 0.931209 0
M  V30 1750 C 166.824 1.0401 1.65654 0
M  V30 1751 C 167.204 -0.426297 2.06751 0
M  V30 1752 O 166.552 -1.40879 1.79904 0
M  V30 1753 C 166.762 1.99834 2.86125 0
M  V30 1754 C 168.11 2.29007 3.57549 0
M  V30 1755 O 169.134 1.97779 2.96246 0
M  V30 1756 O 167.993 2.82222 4.67989 0
M  V30 1757 H 165.087 0.396239 0.725895 0
M  V30 1758 H 167.633 1.38397 0.982056 0
M  V30 1759 H 166.405 2.98744 2.52721 0
M  V30 1760 H 166.028 1.65987 3.61295 0
M  V30 1761 N 167.025 -1.13721 1.09112 0
M  V30 1762 C 167.955 -2.21148 0.749385 0
M  V30 1763 C 168.936 -1.6792 -0.271475 0
M  V30 1764 O 170.121 -1.93693 -0.140251 0
M  V30 1765 C 167.251 -3.46905 0.165659 0
M  V30 1766 C 166.205 -4.13203 1.11567 0
M  V30 1767 C 165.531 -5.33248 0.393809 0
M  V30 1768 C 166.831 -4.60912 2.45678 0
M  V30 1769 H 168.525 -2.4999 1.64758 0
M  V30 1770 H 166.071 -1.20156 0.793626 0
M  V30 1771 H 168.024 -4.21313 -0.085466 0
M  V30 1772 H 166.748 -3.17449 -0.767714 0
M  V30 1773 H 165.407 -3.40758 1.35202 0
M  V30 1774 H 165.055 -5.00054 -0.543599 0
M  V30 1775 H 164.755 -5.78552 1.02721 0
M  V30 1776 H 166.279 -6.10413 0.150908 0
M  V30 1777 H 167.693 -5.26759 2.26269 0
M  V30 1778 H 166.09 -5.16944 3.04776 0
M  V30 1779 H 167.16 -3.75603 3.06677 0
M  V30 1780 N 168.503 -0.877838 -1.30888 0
M  V30 1781 C 169.433 -0.35534 -2.3078 0
M  V30 1782 C 170.414 0.557994 -1.60687 0
M  V30 1783 O 171.599 0.473355 -1.88343 0
M  V30 1784 C 168.729 0.437221 -3.44537 0
M  V30 1785 C 167.683 -0.383715 -4.26276 0
M  V30 1786 C 167.009 0.535014 -5.32017 0
M  V30 1787 C 168.309 -1.62201 -4.96476 0
M  V30 1788 H 170.003 -1.19007 -2.74732 0
M  V30 1789 H 167.549 -0.573698 -1.32078 0
M  V30 1790 H 169.502 0.813334 -4.13477 0
M  V30 1791 H 168.226 1.30553 -2.99372 0
M  V30 1792 H 166.885 -0.741874 -3.59015 0
M  V30 1793 H 166.533 1.40083 -4.831 0
M  V30 1794 H 166.233 -0.0104211 -5.87599 0
M  V30 1795 H 167.757 0.907799 -6.03814 0
M  V30 1796 H 169.171 -1.31689 -5.5797 0
M  V30 1797 H 167.568 -2.10711 -5.61891 0
M  V30 1798 H 168.638 -2.37044 -4.23011 0
M  V30 1799 N 169.982 1.44106 -0.638065 0
M  V30 1800 C 171.398 1.56672 -0.304286 0
M  V30 1801 C 171.598 1.6244 1.19228 0
M  V30 1802 O 170.654 1.57121 1.9766 0
M  V30 1803 C 171.967 2.83503 -1.00231 0
M  V30 1804 C 173.515 2.97226 -0.981116 0
M  V30 1805 C 173.99 4.26868 -1.65974 0
M  V30 1806 N 175.481 4.33698 -1.62666 0
M  V30 1807 C 176.216 5.32745 -2.12063 0
M  V30 1808 N 175.712 6.38157 -2.6968 0
M  V30 1809 N 177.505 5.24299 -2.02651 0
M  V30 1810 H 169.656 1.38605 -1.60942 0
M  V30 1811 H 171.919 0.664661 -0.675965 0
M  V30 1812 H 171.625 2.85251 -2.0573 0
M  V30 1813 H 171.499 3.73251 -0.54439 0
M  V30 1814 H 173.886 2.95027 0.0654188 0
M  V30 1815 H 173.967 2.08808 -1.47759 0
M  V30 1816 H 173.611 4.29826 -2.70576 0
M  V30 1817 H 173.541 5.14156 -1.13804 0
M  V30 1818 H 176.032 3.58138 -1.20606 0
M  V30 1819 H 176.345 7.10029 -3.05087 0
M  V30 1820 H 174.69 6.38823 -2.73734 0
M  V30 1821 H 177.881 4.4086 -1.57353 0
M  V30 1822 H 178.054 6.01334 -2.41457 0
M  V30 1823 N 171.46 0.379036 1.52974 0
M  V30 1824 C 172.41 -0.477772 2.22938 0
M  V30 1825 C 173.394 -1.03792 1.22948 0
M  V30 1826 O 174.586 -0.965725 1.48333 0
M  V30 1827 C 171.715 -1.60994 3.03209 0
M  V30 1828 C 170.801 -1.06203 4.10587 0
M  V30 1829 N 171.192 -0.238214 5.05239 0
M  V30 1830 C 169.49 -1.33554 4.25534 0
M  V30 1831 C 170.191 0.0633235 5.81666 0
M  V30 1832 N 169.167 -0.537901 5.40932 0
M  V30 1833 H 172.969 0.158295 2.93473 0
M  V30 1834 H 170.483 0.187778 1.61311 0
M  V30 1835 H 172.48 -2.23607 3.5186 0
M  V30 1836 H 171.14 -2.24893 2.34207 0
M  V30 1837 H 172.151 0.123695 5.17752 0
M  V30 1838 H 168.828 -1.97632 3.6776 0
M  V30 1839 H 170.218 0.730161 6.67921 0
M  V30 1840 N 172.938 -1.57226 0.108567 0
M  V30 1841 C 173.885 -2.14756 -0.845481 0
M  V30 1842 C 174.855 -1.06971 -1.27068 0
M  V30 1843 O 176.04 -1.34827 -1.35005 0
M  V30 1844 C 173.18 -2.74298 -2.09415 0
M  V30 1845 C 172.293 -3.96358 -1.71826 0
M  V30 1846 C 171.428 -4.44021 -2.9158 0
M  V30 1847 C 170.467 -5.58637 -2.50181 0
M  V30 1848 N 169.604 -6.01091 -3.62814 0
M  V30 1849 H 174.444 -2.95961 -0.348035 0
M  V30 1850 H 171.981 -1.46226 -0.160106 0
M  V30 1851 H 173.939 -3.06945 -2.82561 0
M  V30 1852 H 172.569 -1.95801 -2.56636 0
M  V30 1853 H 171.621 -3.69939 -0.885947 0
M  V30 1854 H 172.933 -4.79504 -1.37394 0
M  V30 1855 H 172.087 -4.78522 -3.72963 0
M  V30 1856 H 170.826 -3.59803 -3.29231 0
M  V30 1857 H 169.831 -5.23751 -1.67228 0
M  V30 1858 H 171.056 -6.44613 -2.13659 0
M  V30 1859 H 169.002 -5.19817 -4.00158 0
M  V30 1860 H 168.919 -6.79066 -3.32273 0
M  V30 1861 H 170.187 -6.40227 -4.44668 0
M  V30 1862 N 174.416 0.165178 -1.56732 0
M  V30 1863 C 175.662 0.882112 -1.82611 0
M  V30 1864 C 175.995 1.81628 -0.687378 0
M  V30 1865 O 175.27 1.92009 0.310267 0
M  V30 1866 C 175.553 1.67245 -3.18906 0
M  V30 1867 C 175.406 0.760987 -4.43316 0
M  V30 1868 C 176.725 2.63884 -3.52212 0
M  V30 1869 H 173.844 0.319242 -0.664269 0
M  V30 1870 H 176.486 0.148052 -1.89422 0
M  V30 1871 H 174.636 2.29824 -3.1323 0
M  V30 1872 H 176.308 0.147596 -4.61064 0
M  V30 1873 H 174.551 0.0694102 -4.33744 0
M  V30 1874 H 175.222 1.34962 -5.35247 0
M  V30 1875 H 177.698 2.11429 -3.58381 0
M  V30 1876 H 176.574 3.16245 -4.48643 0
M  V30 1877 H 176.835 3.44377 -2.77231 0
M  V30 1878 N 175.894 1.51508 0.433938 0
M  V30 1879 C 176.824 1.76016 1.53429 0
M  V30 1880 C 177.805 0.610112 1.58782 0
M  V30 1881 O 178.99 0.853177 1.74455 0
M  V30 1882 C 176.12 1.88831 2.9148 0
M  V30 1883 C 175.074 3.04288 3.00987 0
M  V30 1884 C 174.4 3.0229 4.4105 0
M  V30 1885 C 175.7 4.44193 2.74754 0
M  V30 1886 H 177.394 2.68152 1.33171 0
M  V30 1887 H 174.94 1.29035 0.639214 0
M  V30 1888 H 176.893 2.04559 3.6842 0
M  V30 1889 H 175.617 0.933455 3.12976 0
M  V30 1890 H 174.276 2.8827 2.26486 0
M  V30 1891 H 173.924 2.04576 4.59519 0
M  V30 1892 H 173.624 3.79822 4.4834 0
M  V30 1893 H 175.148 3.20116 5.1996 0
M  V30 1894 H 176.562 4.60544 3.41426 0
M  V30 1895 H 174.959 5.23457 2.9345 0
M  V30 1896 H 176.029 4.53996 1.70339 0
M  V30 1897 N 177.372 -0.689602 1.41712 0
M  V30 1898 C 178.305 -1.81403 1.3845 0
M  V30 1899 C 179.283 -1.60653 0.250874 0
M  V30 1900 O 180.467 -1.83323 0.43874 0
M  V30 1901 C 177.594 -3.18176 1.1611 0
M  V30 1902 C 176.64 -3.57705 2.3227 0
M  V30 1903 S 177.473 -3.61827 3.94767 0
M  V30 1904 C 178.629 -5.01318 3.74742 0
M  V30 1905 H 178.862 -1.83893 2.33603 0
M  V30 1906 H 176.395 -0.858878 1.28307 0
M  V30 1907 H 178.353 -3.97132 1.03907 0
M  V30 1908 H 177.014 -3.13288 0.225668 0
M  V30 1909 H 176.207 -4.57082 2.12349 0
M  V30 1910 H 175.809 -2.86073 2.40911 0
M  V30 1911 H 178.101 -5.88986 3.34817 0
M  V30 1912 H 179.044 -5.26283 4.73743 0
M  V30 1913 H 179.452 -4.73138 3.07898 0
M  V30 1914 N 178.85 -1.27639 -0.924453 0
M  V30 1915 C 180.075 -1.17101 -1.71179 0
M  V30 1916 C 180.5 0.268134 -1.86179 0
M  V30 1917 O 179.858 1.19415 -1.36418 0
M  V30 1918 C 179.906 -1.86313 -3.08739 0
M  V30 1919 O 179.01 -1.16331 -3.95652 0
M  V30 1920 H 178.351 -0.407091 -0.524569 0
M  V30 1921 H 180.881 -1.68767 -1.15666 0
M  V30 1922 H 180.891 -1.938 -3.59034 0
M  V30 1923 H 179.566 -2.91001 -2.97138 0
M  V30 1924 H 178.143 -1.16935 -3.54091 0
M  V30 1925 N 180.328 1.1314 -1.09713 0
M  V30 1926 C 181.258 2.20748 -0.761102 0
M  V30 1927 C 182.239 1.68061 0.262566 0
M  V30 1928 O 183.424 1.93765 0.129977 0
M  V30 1929 C 180.554 3.46812 -0.184054 0
M  V30 1930 C 179.508 4.12606 -1.13757 0
M  V30 1931 C 178.834 5.33031 -0.422083 0
M  V30 1932 C 180.134 4.59603 -2.48118 0
M  V30 1933 H 181.828 2.49113 -1.66082 0
M  V30 1934 H 179.374 1.19734 -0.799987 0
M  V30 1935 H 181.327 4.21353 0.0631215 0
M  V30 1936 H 180.051 3.17851 0.750868 0
M  V30 1937 H 178.71 3.40036 -1.37007 0
M  V30 1938 H 178.358 5.00335 0.517072 0
M  V30 1939 H 178.058 5.77999 -1.05788 0
M  V30 1940 H 179.582 6.10325 -0.183277 0
M  V30 1941 H 180.996 5.25552 -2.29059 0
M  V30 1942 H 179.393 5.15321 -3.07514 0
M  V30 1943 H 180.463 3.73971 -3.08665 0
M  V30 1944 N 181.806 0.884767 1.30421 0
M  V30 1945 C 182.736 0.367574 2.30589 0
M  V30 1946 C 183.717 -0.549464 1.60981 0
M  V30 1947 O 184.902 -0.46336 1.88591 0
M  V30 1948 C 182.032 -0.418944 3.44764 0
M  V30 1949 C 180.986 0.406316 4.26067 0
M  V30 1950 C 180.312 -0.506793 5.32293 0
M  V30 1951 C 181.612 1.64832 4.95608 0
M  V30 1952 H 183.306 1.20462 2.74097 0
M  V30 1953 H 180.852 0.580695 1.31772 0
M  V30 1954 H 182.805 -0.791395 4.13902 0
M  V30 1955 H 181.529 -1.28964 3.0006 0
M  V30 1956 H 180.188 0.760903 3.58617 0
M  V30 1957 H 179.836 -1.37519 4.83836 0
M  V30 1958 H 179.536 0.0415828 5.87585 0
M  V30 1959 H 181.06 -0.875764 6.04287 0
M  V30 1960 H 182.474 1.34646 5.57264 0
M  V30 1961 H 180.871 2.13688 5.60765 0
M  V30 1962 H 181.941 2.39284 4.21748 0
M  V30 1963 N 183.284 -1.43765 0.645699 0
M  V30 1964 C 184.695 -1.85193 0.236719 0
M  V30 1965 C 185.046 -1.54045 -1.21509 0
M  V30 1966 O 184.171 -0.985694 -1.92647 0
M  V30 1967 C 184.766 -3.36151 0.422845 0
M  V30 1968 C 183.325 -3.76338 0.0682492 0
M  V30 1969 C 182.472 -2.67538 0.729306 0
M  V30 1970 H 185.423 -1.34025 0.849883 0
M  V30 1971 H 185.444 -3.79032 -0.333904 0
M  V30 1972 H 184.956 -3.5879 1.47958 0
M  V30 1973 H 183.057 -3.59312 -0.986179 0
M  V30 1974 H 183.17 -4.76603 0.488469 0
M  V30 1975 H 181.534 -2.54176 0.163235 0
M  V30 1976 H 182.317 -2.93006 1.78892 0
M  V30 1977 N 184.763 -0.387143 -1.52771 0
M  V30 1978 C 185.693 0.440551 -2.29306 0
M  V30 1979 C 186.674 1.06535 -1.32606 0
M  V30 1980 O 187.859 1.07853 -1.61497 0
M  V30 1981 C 184.989 1.56919 -3.09829 0
M  V30 1982 C 183.943 1.07054 -4.14395 0
M  V30 1983 C 183.269 2.29109 -4.83129 0
M  V30 1984 C 184.569 0.140015 -5.22112 0
M  V30 1985 H 186.263 -0.198026 -2.98744 0
M  V30 1986 H 183.809 -0.09668 -1.43675 0
M  V30 1987 H 185.762 2.15503 -3.62128 0
M  V30 1988 H 184.486 2.23532 -2.3812 0
M  V30 1989 H 183.145 0.507247 -3.63074 0
M  V30 1990 H 182.793 2.94227 -4.0797 0
M  V30 1991 H 182.493 1.96406 -5.53804 0
M  V30 1992 H 184.017 2.88339 -5.38231 0
M  V30 1993 H 185.431 0.633978 -5.69784 0
M  V30 1994 H 183.828 -0.0971485 -6.00021 0
M  V30 1995 H 184.898 -0.811711 -4.78058 0
M  V30 1996 N 186.241 1.57166 -0.116904 0
M  V30 1997 C 187.204 2.14039 0.819742 0
M  V30 1998 C 188.204 1.07477 1.19605 0
M  V30 1999 O 189.394 1.33263 1.1219 0
M  V30 2000 C 186.526 2.67891 2.10826 0
M  V30 2001 H 187.719 2.98128 0.325511 0
M  V30 2002 H 185.272 1.55739 0.132312 0
M  V30 2003 H 186.007 1.87384 2.64685 0
M  V30 2004 H 185.792 3.45823 1.84793 0
M  V30 2005 H 187.282 3.11809 2.77785 0
M  V30 2006 N 187.719 -0.156864 1.56817 0
M  V30 2007 C 189.135 -0.50916 1.5126 0
M  V30 2008 C 189.335 -1.83897 0.823658 0
M  V30 2009 O 188.391 -2.49469 0.390055 0
M  V30 2010 C 189.704 -0.52857 2.96018 0
M  V30 2011 C 191.252 -0.614771 3.06903 0
M  V30 2012 C 191.727 -0.664938 4.53147 0
M  V30 2013 N 193.218 -0.727433 4.57452 0
M  V30 2014 C 193.953 -0.787067 5.67973 0
M  V30 2015 N 193.449 -0.806649 6.88088 0
M  V30 2016 N 195.242 -0.827195 5.5598 0
M  V30 2017 H 187.393 0.714935 2.00006 0
M  V30 2018 H 189.656 0.259526 0.911784 0
M  V30 2019 H 189.362 0.380154 3.49639 0
M  V30 2020 H 189.236 -1.36998 3.51442 0
M  V30 2021 H 191.623 -1.51392 2.53307 0
M  V30 2022 H 191.704 0.253597 2.5454 0
M  V30 2023 H 191.348 0.230011 5.07379 0
M  V30 2024 H 191.278 -1.54966 5.03282 0
M  V30 2025 H 193.769 -0.719998 3.70978 0
M  V30 2026 H 194.082 -0.853727 7.6807 0
M  V30 2027 H 192.427 -0.774687 6.90669 0
M  V30 2028 H 195.618 -0.808998 4.61056 0
M  V30 2029 H 195.791 -0.870206 6.4213 0
M  V30 2030 N 189.197 -1.51736 -0.425897 0
M  V30 2031 C 190.444 -1.6497 -1.17436 0
M  V30 2032 C 190.772 -0.371445 -1.9092 0
M  V30 2033 O 190.027 0.644963 -1.84767 0
M  V30 2034 C 190.326 -2.81103 -2.20717 0
M  V30 2035 C 189.992 -4.19954 -1.64162 0
M  V30 2036 C 188.654 -4.57725 -1.48462 0
M  V30 2037 C 191.006 -5.06552 -1.22696 0
M  V30 2038 C 188.334 -5.79789 -0.897873 0
M  V30 2039 C 190.686 -6.29205 -0.654464 0
M  V30 2040 C 189.35 -6.6574 -0.484456 0
M  V30 2041 H 188.62 -0.603668 -0.429727 0
M  V30 2042 H 191.267 -1.85798 -0.463829 0
M  V30 2043 H 189.572 -2.54542 -2.97852 0
M  V30 2044 H 191.269 -2.8854 -2.78471 0
M  V30 2045 H 187.859 -3.90181 -1.77361 0
M  V30 2046 H 192.043 -4.77968 -1.33642 0
M  V30 2047 H 187.299 -6.06733 -0.75402 0
M  V30 2048 H 191.473 -6.95643 -0.324694 0
M  V30 2049 H 189.1 -7.60195 -0.0276833 0
M  V30 2050 N 190.675 0.682077 -1.42076 0
M  V30 2051 C 191.638 1.77756 -1.44691 0
M  V30 2052 C 192.638 1.5726 -0.335535 0
M  V30 2053 O 193.828 1.63686 -0.596037 0
M  V30 2054 C 190.96 3.16301 -1.27146 0
M  V30 2055 H 192.153 1.76826 -2.42224 0
M  V30 2056 H 189.706 0.891012 -1.28416 0
M  V30 2057 H 190.441 3.22862 -0.305075 0
M  V30 2058 H 190.226 3.32581 -2.07683 0
M  V30 2059 H 191.716 3.96241 -1.31843 0
M  V30 2060 N 192.153 1.28127 0.917671 0
M  V30 2061 C 193.399 1.15223 1.66888 0
M  V30 2062 C 193.732 -0.299293 1.9188 0
M  V30 2063 O 193.007 -1.21805 1.51637 0
M  V30 2064 C 193.29 1.94706 3.02922 0
M  V30 2065 C 193.143 3.47898 2.85109 0
M  V30 2066 C 194.462 1.75939 4.03402 0
M  V30 2067 H 191.581 0.419946 0.605652 0
M  V30 2068 H 194.223 1.57398 1.06423 0
M  V30 2069 H 192.373 1.58864 3.54534 0
M  V30 2070 H 194.045 3.93624 2.40537 0
M  V30 2071 H 192.288 3.7373 2.20246 0
M  V30 2072 H 192.959 3.98765 3.81694 0
M  V30 2073 H 195.435 2.07209 3.60837 0
M  V30 2074 H 194.311 2.33931 4.96556 0
M  V30 2075 H 194.572 0.709877 4.36364 0
M  V30 2076 N 193.631 -1.12557 1.10312 0
M  V30 2077 C 194.594 -2.16434 0.75424 0
M  V30 2078 C 195.594 -1.59278 -0.220685 0
M  V30 2079 O 196.784 -1.742 0.00230591 0
M  V30 2080 C 193.916 -3.40699 0.116987 0
M  V30 2081 H 195.109 -2.48811 1.67431 0
M  V30 2082 H 192.662 -1.27542 0.903475 0
M  V30 2083 H 193.397 -3.13921 -0.813877 0
M  V30 2084 H 193.182 -3.83459 0.818613 0
M  V30 2085 H 194.672 -4.17451 -0.111387 0
M  V30 2086 N 195.109 -0.891671 -1.2995 0
M  V30 2087 C 196.339 -0.527893 -1.99742 0
M  V30 2088 C 196.747 0.88979 -1.66971 0
M  V30 2089 O 196.09 1.59766 -0.906667 0
M  V30 2090 C 196.152 -0.630804 -3.53922 0
M  V30 2091 C 195.816 -2.01401 -4.10228 0
M  V30 2092 C 196.813 -2.98422 -4.25724 0
M  V30 2093 C 194.498 -2.32121 -4.45449 0
M  V30 2094 C 196.492 -4.24293 -4.75662 0
M  V30 2095 C 194.179 -3.58237 -4.95086 0
M  V30 2096 C 195.177 -4.54137 -5.10146 0
M  V30 2097 O 194.865 -5.78014 -5.58708 0
M  V30 2098 H 194.597 -0.201953 -0.645129 0
M  V30 2099 H 197.151 -1.20076 -1.66646 0
M  V30 2100 H 195.381 0.0990616 -3.86573 0
M  V30 2101 H 197.07 -0.277338 -4.04951 0
M  V30 2102 H 197.836 -2.76001 -3.98809 0
M  V30 2103 H 193.715 -1.5824 -4.32991 0
M  V30 2104 H 197.259 -4.99153 -4.87332 0
M  V30 2105 H 193.156 -3.80491 -5.21437 0
M  V30 2106 H 193.924 -5.8049 -5.77039 0
M  V30 2107 N 196.587 1.43421 -0.653314 0
M  V30 2108 C 197.812 2.06678 -0.172846 0
M  V30 2109 C 198.237 1.48648 1.15262 0
M  V30 2110 O 197.595 0.596457 1.71208 0
M  V30 2111 C 197.643 3.60474 -0.0953184 0
M  V30 2112 O 196.747 4.01487 0.942442 0
M  V30 2113 H 196.088 0.657181 -0.0949155 0
M  V30 2114 H 198.618 1.83925 -0.896265 0
M  V30 2115 H 198.628 4.07905 0.0879728 0
M  V30 2116 H 197.303 4.02088 -1.06291 0
M  V30 2117 H 195.88 3.65646 0.731932 0
M  V30 2118 N 198.065 0.39524 1.52563 0
M  V30 2119 C 199.476 -0.0774719 1.86539 0
M  V30 2120 C 199.827 -1.45641 1.31466 0
M  V30 2121 O 198.952 -2.06459 0.648367 0
M  V30 2122 C 199.547 -0.147356 3.38479 0
M  V30 2123 C 198.106 -0.564373 3.72145 0
M  V30 2124 C 197.253 0.269919 2.75983 0
M  V30 2125 H 200.204 0.612876 1.46388 0
M  V30 2126 H 200.225 -0.965343 3.68051 0
M  V30 2127 H 199.737 0.856387 3.78534 0
M  V30 2128 H 197.838 -1.57527 3.37663 0
M  V30 2129 H 197.951 -0.318402 4.78041 0
M  V30 2130 H 196.315 -0.265696 2.5331 0
M  V30 2131 H 197.098 1.27175 3.18875 0
M  V30 2132 N 199.544 -1.57102 0.125237 0
M  V30 2133 C 200.507 -2.14471 -0.80838 0
M  V30 2134 C 201.507 -1.0811 -1.19033 0
M  V30 2135 O 202.697 -1.33856 -1.11482 0
M  V30 2136 C 199.829 -2.69005 -2.09402 0
M  V30 2137 H 201.022 -2.98297 -0.309696 0
M  V30 2138 H 198.575 -1.55807 -0.124051 0
M  V30 2139 H 199.31 -1.88785 -2.63687 0
M  V30 2140 H 199.095 -3.46799 -1.82957 0
M  V30 2141 H 200.585 -3.13278 -2.76128 0
M  V30 2142 N 201.022 0.148545 -1.56898 0
M  V30 2143 C 202.438 0.501131 -1.51528 0
M  V30 2144 C 202.638 1.83458 -0.833399 0
M  V30 2145 O 201.694 2.49259 -0.40328 0
M  V30 2146 C 203.007 0.512864 -2.96294 0
M  V30 2147 C 204.555 0.598487 -3.07225 0
M  V30 2148 C 205.03 0.640897 -4.53494 0
M  V30 2149 N 206.521 0.703163 -4.57832 0
M  V30 2150 C 207.256 0.756935 -5.68382 0
M  V30 2151 N 206.752 0.770147 -6.88506 0
M  V30 2152 N 208.545 0.797698 -5.56411 0
M  V30 2153 H 200.696 -0.725532 -1.99624 0
M  V30 2154 H 202.959 -0.264358 -0.910395 0
M  V30 2155 H 202.665 -0.398691 -3.49433 0
M  V30 2156 H 202.539 1.35133 -3.52163 0
M  V30 2157 H 204.926 1.50046 -2.54106 0
M  V30 2158 H 205.007 -0.267093 -2.54402 0
M  V30 2159 H 204.651 -0.256915 -5.0725 0
M  V30 2160 H 204.581 1.52295 -5.04097 0
M  V30 2161 H 207.072 0.700314 -3.71354 0
M  V30 2162 H 207.385 0.812983 -7.68512 0
M  V30 2163 H 205.73 0.738049 -6.9107 0
M  V30 2164 H 208.921 0.784535 -4.61479 0
M  V30 2165 H 209.094 0.83614 -6.42583 0
M  V30 2166 N 202.5 1.5196 0.417844 0
M  V30 2167 C 203.777 1.56146 1.17803 0
M  V30 2168 C 204.157 0.337275 2.08388 0
M  V30 2169 O 203.505 -0.676447 2.18258 0
M  V30 2170 C 203.715 2.88566 1.96293 0
M  V30 2171 C 205.063 3.41244 2.52662 0
M  V30 2172 O 206.087 2.90247 2.06483 0
M  V30 2173 O 204.946 4.30273 3.36938 0
M  V30 2174 H 202.04 0.628598 0.537395 0
M  V30 2175 H 204.586 1.64283 0.425331 0
M  V30 2176 H 203.358 3.69116 1.2988 0
M  V30 2177 H 202.981 2.83681 2.78587 0
M  V30 2178 N 203.978 -0.674533 1.42435 0
M  V30 2179 C 204.941 -1.76986 1.45632 0
M  V30 2180 C 205.941 -1.5708 0.343871 0
M  V30 2181 O 207.131 -1.63367 0.604709 0
M  V30 2182 C 204.263 -3.15623 1.28822 0
M  V30 2183 H 205.456 -1.75539 2.43158 0
M  V30 2184 H 203.009 -0.884189 1.28887 0
M  V30 2185 H 203.744 -3.22696 0.322193 0
M  V30 2186 H 203.529 -3.31475 2.09444 0
M  V30 2187 H 205.019 -3.95537 1.33942 0
M  V30 2188 N 205.456 -1.28612 -0.910864 0
M  V30 2189 C 206.704 -1.15705 -1.65701 0
M  V30 2190 C 207.025 0.29416 -1.92769 0
M  V30 2191 O 206.295 1.20331 -1.54588 0
M  V30 2192 H 204.875 -0.425216 -0.614167 0
M  V30 2193 H 207.537 -1.61381 -1.0928 0
M  V30 2194 H 206.633 -1.6988 -2.61815 0
M  V30 2195 N 206.934 1.1197 -1.10907 0
M  V30 2196 C 207.882 2.19927 -0.757303 0
M  V30 2197 C 208.876 1.67564 0.248747 0
M  V30 2198 O 210.082 1.79672 0.108605 0
M  V30 2199 H 206.457 0.716925 -0.226987 0
M  V30 2200 H 208.428 2.46847 -1.67658 0
M  V30 2201 C 207.177 3.47061 -0.210671 0
M  V30 2202 H 206.5 3.87703 -0.976049 0
M  V30 2203 H 207.94 4.24 -0.0026584 0
M  V30 2204 C 206.399 3.19864 1.05777 0
M  V30 2205 O 206.929 3.40049 2.13845 0
M  V30 2206 N 205.135 2.73636 0.978349 0
M  V30 2207 H 204.682 2.5741 0.0988246 0
M  V30 2208 H 204.64 2.55815 1.82773 0
M  V30 2209 N 208.412 0.89855 1.29475 0
M  V30 2210 C 209.828 0.594483 1.48115 0
M  V30 2211 C 210.028 -0.86431 1.82022 0
M  V30 2212 O 209.084 -1.64457 1.91599 0
M  V30 2213 C 210.397 1.51932 2.59494 0
M  V30 2214 C 211.945 1.5244 2.7337 0
M  V30 2215 C 212.42 2.43548 3.87877 0
M  V30 2216 N 213.911 2.41589 3.95208 0
M  V30 2217 C 214.646 3.08789 4.83153 0
M  V30 2218 N 214.142 3.85265 5.75798 0
M  V30 2219 N 215.935 2.97952 4.76635 0
M  V30 2220 H 208.086 1.84207 1.05742 0
M  V30 2221 H 210.349 0.789251 0.525154 0
M  V30 2222 H 210.055 2.55865 2.41301 0
M  V30 2223 H 209.929 1.23899 3.56271 0
M  V30 2224 H 212.316 0.492518 2.90961 0
M  V30 2225 H 212.397 1.8451 1.77172 0
M  V30 2226 H 212.041 3.46829 3.71041 0
M  V30 2227 H 211.971 2.08788 4.83441 0
M  V30 2228 H 214.462 1.86025 3.28943 0
M  V30 2229 H 214.775 4.33598 6.39697 0
M  V30 2230 H 213.12 3.89371 5.75687 0
M  V30 2231 H 216.311 2.37723 4.03244 0
M  V30 2232 H 216.484 3.50599 5.44962 0
M  V30 2233 N 209.89 -1.43072 0.660911 0
M  V30 2234 C 210.8 -2.34585 -0.0264163 0
M  V30 2235 C 211.816 -1.54316 -0.803898 0
M  V30 2236 O 212.992 -1.86939 -0.749391 0
M  V30 2237 C 210.057 -3.32689 -0.975639 0
M  V30 2238 C 209.118 -4.2886 -0.194236 0
M  V30 2239 C 208.351 -5.22278 -1.09825 0
M  V30 2240 O 208.574 -5.20299 -2.33763 0
M  V30 2241 O 207.508 -5.99228 -0.566513 0
M  V30 2242 H 211.334 -2.94869 0.727034 0
M  V30 2243 H 208.919 -1.43342 0.42111 0
M  V30 2244 H 210.801 -3.92995 -1.52094 0
M  V30 2245 H 209.476 -2.74898 -1.70918 0
M  V30 2246 H 208.383 -3.72011 0.394835 0
M  V30 2247 H 209.716 -4.89655 0.499899 0
M  V30 2248 N 211.368 -0.403325 -1.52352 0
M  V30 2249 C 212.301 0.469463 -2.23319 0
M  V30 2250 C 213.279 1.05272 -1.23922 0
M  V30 2251 O 214.463 1.10169 -1.52954 0
M  V30 2252 C 211.59 1.6511 -2.9573 0
M  V30 2253 C 210.636 1.19178 -4.0951 0
M  V30 2254 S 211.469 0.161718 -5.35256 0
M  V30 2255 C 212.625 1.34882 -6.11194 0
M  V30 2256 H 212.858 -0.133134 -2.97002 0
M  V30 2257 H 210.391 -0.187588 -1.53256 0
M  V30 2258 H 212.349 2.3287 -3.38056 0
M  V30 2259 H 211.01 2.22503 -2.21701 0
M  V30 2260 H 210.203 2.07444 -4.59329 0
M  V30 2261 H 209.805 0.592911 -3.6927 0
M  V30 2262 H 212.097 2.27345 -6.38217 0
M  V30 2263 H 213.04 0.89128 -7.02468 0
M  V30 2264 H 213.448 1.57198 -5.42171 0
M  V30 2265 N 212.846 1.57033 -0.133567 0
M  V30 2266 C 214.257 1.82593 0.389464 0
M  V30 2267 C 214.608 1.05156 1.6564 0
M  V30 2268 O 213.733 0.292644 2.14412 0
M  V30 2269 C 214.328 3.31204 0.713377 0
M  V30 2270 C 212.887 3.57393 1.18098 0
M  V30 2271 C 212.034 2.76598 0.197126 0
M  V30 2272 H 214.985 1.54598 -0.358481 0
M  V30 2273 H 215.006 3.46627 1.56939 0
M  V30 2274 H 214.518 3.87537 -0.2089 0
M  V30 2275 H 212.619 3.06433 2.11966 0
M  V30 2276 H 212.732 4.65915 1.11624 0
M  V30 2277 H 211.096 2.45257 0.687088 0
M  V30 2278 H 211.879 3.35697 -0.718504 0
M  V30 2279 N 214.325 -0.140222 1.56975 0
M  V30 2280 C 215.55 -0.870414 1.88251 0
M  V30 2281 C 215.975 -1.73637 0.723312 0
M  V30 2282 O 215.333 -1.78329 -0.32689 0
M  V30 2283 C 215.381 -1.69737 3.18154 0
M  V30 2284 O 214.485 -2.80229 3.02565 0
M  V30 2285 H 213.826 -0.242025 0.61832 0
M  V30 2286 H 216.356 -0.128999 2.04193 0
M  V30 2287 H 216.366 -2.09099 3.50345 0
M  V30 2288 H 215.041 -1.06152 4.02125 0
M  V30 2289 H 213.618 -2.44224 2.81796 0
M  V30 2290 N 215.803 -1.52179 -0.40978 0
M  V30 2291 C 216.733 -1.78435 -1.5061 0
M  V30 2292 C 217.714 -0.635295 -1.57791 0
M  V30 2293 O 218.899 -0.880823 -1.73076 0
M  V30 2294 C 216.029 -1.93444 -2.88439 0
M  V30 2295 C 214.983 -3.09038 -2.96108 0
M  V30 2296 C 214.309 -3.09268 -4.36185 0
M  V30 2297 C 215.609 -4.48508 -2.67652 0
M  V30 2298 H 217.303 -2.70237 -1.28889 0
M  V30 2299 H 214.849 -1.30036 -0.618605 0
M  V30 2300 H 216.802 -2.10394 -3.65119 0
M  V30 2301 H 215.526 -0.983129 -3.11452 0
M  V30 2302 H 214.185 -2.91837 -2.21872 0
M  V30 2303 H 213.833 -2.11861 -4.56206 0
M  V30 2304 H 213.533 -3.86907 -4.42241 0
M  V30 2305 H 215.057 -3.28348 -5.14801 0
M  V30 2306 H 216.471 -4.65918 -3.34056 0
M  V30 2307 H 214.868 -5.28059 -2.85085 0
M  V30 2308 H 215.938 -4.56649 -1.63095 0
M  V30 2309 N 217.281 0.66697 -1.42791 0
M  V30 2310 C 218.692 1.2478 -1.38877 0
M  V30 2311 C 219.043 1.96012 -0.0859426 0
M  V30 2312 O 218.168 2.00463 0.815081 0
M  V30 2313 C 218.763 2.26938 -2.51564 0
M  V30 2314 C 217.322 2.80529 -2.50959 0
M  V30 2315 C 216.469 1.54965 -2.29959 0
M  V30 2316 H 219.42 0.459853 -1.51892 0
M  V30 2317 H 219.441 3.08834 -2.22265 0
M  V30 2318 H 218.953 1.75065 -3.46372 0
M  V30 2319 H 217.054 3.36502 -1.59991 0
M  V30 2320 H 217.167 3.29012 -3.48265 0
M  V30 2321 H 215.531 1.81817 -1.78366 0
M  V30 2322 H 216.314 1.05047 -3.26833 0
M  V30 2323 N 218.759 1.29093 0.90403 0
M  V30 2324 C 220.175 1.07011 1.1841 0
M  V30 2325 C 220.375 -0.181358 2.00682 0
M  V30 2326 O 219.431 -0.880331 2.36657 0
M  V30 2327 C 220.744 2.32311 1.90924 0
M  V30 2328 C 222.292 2.37587 2.03768 0
M  V30 2329 C 222.767 3.62679 2.79693 0
M  V30 2330 N 224.258 3.63376 2.87249 0
M  V30 2331 C 224.993 4.56848 3.46522 0
M  V30 2332 N 224.489 5.60648 4.06996 0
M  V30 2333 N 226.282 4.44426 3.44154 0
M  V30 2334 H 218.433 2.09412 0.354993 0
M  V30 2335 H 220.696 0.922181 0.219742 0
M  V30 2336 H 220.402 3.23536 1.37905 0
M  V30 2337 H 220.276 2.39483 2.91424 0
M  V30 2338 H 222.663 1.46853 2.55965 0
M  V30 2339 H 222.744 2.34403 1.02415 0
M  V30 2340 H 222.388 4.53762 2.28173 0
M  V30 2341 H 222.318 3.63119 3.81381 0
M  V30 2342 H 224.809 2.88321 2.44293 0
M  V30 2343 H 225.122 6.28101 4.50232 0
M  V30 2344 H 223.467 5.64463 4.05471 0
M  V30 2345 H 226.658 3.62529 2.96126 0
M  V30 2346 H 226.831 5.17457 3.90054 0
M  V30 2347 N 220.237 -1.11381 1.11499 0
M  V30 2348 C 221.2 -2.15622 0.777153 0
M  V30 2349 C 222.2 -1.59504 -0.203779 0
M  V30 2350 O 223.39 -1.74188 0.020782 0
M  V30 2351 C 220.522 -3.40556 0.153116 0
M  V30 2352 H 221.715 -2.47021 1.70061 0
M  V30 2353 H 219.268 -1.26577 0.916952 0
M  V30 2354 H 220.003 -3.14767 -0.780536 0
M  V30 2355 H 219.788 -3.8257 0.859238 0
M  V30 2356 H 221.278 -4.17546 -0.0671044 0
M  V30 2357 N 221.715 -0.905404 -1.28997 0
M  V30 2358 C 222.963 -0.533192 -1.9494 0
M  V30 2359 C 223.284 0.924618 -1.71685 0
M  V30 2360 O 222.554 1.65268 -1.05183 0
M  V30 2361 H 221.134 -0.194194 -0.721317 0
M  V30 2362 H 223.796 -1.15294 -1.57141 0
M  V30 2363 H 222.892 -0.72059 -3.03667 0
M  V30 2364 N 223.193 1.4272 -0.668489 0
M  V30 2365 C 224.604 1.84793 -0.266151 0
M  V30 2366 C 224.955 1.55959 1.19043 0
M  V30 2367 O 224.08 1.01622 1.91055 0
M  V30 2368 C 224.675 3.35436 -0.476271 0
M  V30 2369 C 223.234 3.76182 -0.128113 0
M  V30 2370 C 222.381 2.66344 -0.771777 0
M  V30 2371 H 225.332 1.32656 -0.871098 0
M  V30 2372 H 225.353 3.79515 0.273561 0
M  V30 2373 H 224.865 3.5639 -1.53647 0
M  V30 2374 H 222.966 3.60836 0.928891 0
M  V30 2375 H 223.079 4.75766 -0.564231 0
M  V30 2376 H 221.443 2.53885 -0.203652 0
M  V30 2377 H 222.226 2.90123 -1.83531 0
M  V30 2378 N 224.671 0.411399 1.52136 0
M  V30 2379 C 225.581 -0.419774 2.30814 0
M  V30 2380 C 226.597 -1.0515 1.38634 0
M  V30 2381 O 227.773 -1.05252 1.71709 0
M  V30 2382 C 224.838 -1.52019 3.11594 0
M  V30 2383 C 223.899 -0.91129 4.19516 0
M  V30 2384 C 223.132 -1.95927 4.96436 0
M  V30 2385 O 223.355 -3.17775 4.73683 0
M  V30 2386 O 222.289 -1.56423 5.81219 0
M  V30 2387 H 226.115 0.221805 3.02889 0
M  V30 2388 H 223.7 0.174547 1.48377 0
M  V30 2389 H 225.582 -2.15898 3.61892 0
M  V30 2390 H 224.257 -2.14633 2.42311 0
M  V30 2391 H 223.164 -0.235157 3.7336 0
M  V30 2392 H 224.497 -0.32904 4.91099 0
M  V30 2393 N 226.149 -1.5696 0.141893 0
M  V30 2394 C 227.397 -1.95573 -0.509484 0
M  V30 2395 C 227.718 -1.02746 -1.65736 0
M  V30 2396 O 226.988 -0.0880311 -1.95702 0
M  V30 2397 H 225.568 -0.722115 -0.191205 0
M  V30 2398 H 228.23 -1.93697 0.216196 0
M  V30 2399 H 227.326 -2.99171 -0.889 0
M  V30 2400 N 227.627 0.131896 -1.57047 0
M  V30 2401 C 228.852 0.860418 -1.8871 0
M  V30 2402 C 229.277 1.73251 -0.73251 0
M  V30 2403 O 228.635 1.785 0.317429 0
M  V30 2404 C 228.683 1.68047 -3.19049 0
M  V30 2405 O 227.787 2.7862 -3.04047 0
M  V30 2406 H 227.128 0.238743 -0.619595 0
M  V30 2407 H 229.658 0.118169 -2.04258 0
M  V30 2408 H 229.668 2.07238 -3.51449 0
M  V30 2409 H 228.343 1.04018 -4.02682 0
M  V30 2410 H 226.92 2.42726 -2.83088 0
M  V30 2411 N 229.106 1.52395 0.401703 0
M  V30 2412 C 230.334 1.70676 1.16949 0
M  V30 2413 C 230.749 0.419503 1.8408 0
M  V30 2414 O 230.106 -0.605061 1.72178 0
M  V30 2415 C 230.157 2.84753 2.22706 0
M  V30 2416 O 229.878 4.08495 1.58314 0
M  V30 2417 C 231.379 3.14608 3.12309 0
M  V30 2418 H 228.599 0.571787 0.351142 0
M  V30 2419 H 231.143 1.98987 0.471652 0
M  V30 2420 H 229.298 2.58941 2.88147 0
M  V30 2421 H 229.712 4.72117 2.28485 0
M  V30 2422 H 231.186 3.97923 3.82572 0
M  V30 2423 H 231.663 2.28464 3.75101 0
M  V30 2424 H 232.269 3.42212 2.52529 0
M  V30 2425 N 230.584 -0.659388 1.43143 0
M  V30 2426 C 232 -0.974337 1.26407 0
M  V30 2427 C 232.2 -2.007 0.179341 0
M  V30 2428 O 231.256 -2.4856 -0.444295 0
M  V30 2429 C 232.569 -1.46447 2.62628 0
M  V30 2430 C 234.117 -1.58144 2.7011 0
M  V30 2431 C 234.592 -2.1055 4.06734 0
M  V30 2432 N 236.083 -2.17861 4.08767 0
M  V30 2433 C 236.818 -2.59519 5.1131 0
M  V30 2434 N 236.314 -3.00518 6.24228 0
M  V30 2435 N 238.107 -2.59404 4.98664 0
M  V30 2436 H 230.258 0.0240528 2.12386 0
M  V30 2437 H 232.521 -0.0518065 0.946583 0
M  V30 2438 H 232.227 -0.780123 3.42939 0
M  V30 2439 H 232.101 -2.44058 2.87603 0
M  V30 2440 H 234.488 -2.25682 1.90136 0
M  V30 2441 H 234.569 -0.589828 2.48907 0
M  V30 2442 H 234.213 -1.43616 4.87172 0
M  V30 2443 H 234.143 -3.10531 4.25298 0
M  V30 2444 H 236.634 -1.88975 3.27257 0
M  V30 2445 H 236.947 -3.31036 6.98309 0
M  V30 2446 H 235.292 -2.98337 6.2771 0
M  V30 2447 H 238.483 -2.26747 4.09516 0
M  V30 2448 H 238.656 -2.91548 5.78709 0
M  V30 2449 N 232.062 -1.29571 -0.897171 0
M  V30 2450 C 233.012 -1.11539 -1.98855 0
M  V30 2451 C 233.996 -0.0340716 -1.60864 0
M  V30 2452 O 235.188 -0.256062 -1.75138 0
M  V30 2453 C 232.317 -0.796603 -3.3393 0
M  V30 2454 C 231.403 -1.91758 -3.78272 0
M  V30 2455 N 231.794 -3.16143 -3.94826 0
M  V30 2456 C 230.092 -1.81119 -4.07568 0
M  V30 2457 C 230.793 -3.89293 -4.32233 0
M  V30 2458 N 229.769 -3.17255 -4.41419 0
M  V30 2459 H 233.571 -2.05894 -2.09726 0
M  V30 2460 H 231.085 -1.20732 -1.08616 0
M  V30 2461 H 233.082 -0.648459 -4.11826 0
M  V30 2462 H 231.742 0.139003 -3.24402 0
M  V30 2463 H 232.753 -3.5157 -3.80288 0
M  V30 2464 H 229.43 -0.948461 -4.06584 0
M  V30 2465 H 230.82 -4.9635 -4.52865 0
M  V30 2466 N 233.54 1.10788 -1.12088 0
M  V30 2467 C 234.503 2.15207 -0.788577 0
M  V30 2468 C 235.503 1.59609 0.195317 0
M  V30 2469 O 236.693 1.74174 -0.0300193 0
M  V30 2470 C 233.825 3.4047 -0.171174 0
M  V30 2471 H 235.018 2.46116 -1.71368 0
M  V30 2472 H 232.571 1.26089 -0.923652 0
M  V30 2473 H 233.306 3.15176 0.763832 0
M  V30 2474 H 233.091 3.82109 -0.879514 0
M  V30 2475 H 234.581 4.17576 0.04496 0
M  V30 2476 N 235.018 0.912232 1.28515 0
M  V30 2477 C 235.981 0.404223 2.25607 0
M  V30 2478 C 236.981 -0.468602 1.53821 0
M  V30 2479 O 238.171 -0.271873 1.72065 0
M  V30 2480 C 235.303 -0.420653 3.38295 0
M  V30 2481 H 236.496 1.26188 2.7206 0
M  V30 2482 H 234.049 0.691495 1.40171 0
M  V30 2483 H 234.784 -1.29777 2.97201 0
M  V30 2484 H 234.569 0.204935 3.91564 0
M  V30 2485 H 236.059 -0.766971 4.10496 0
M  V30 2486 N 236.496 -1.42363 0.676048 0
M  V30 2487 C 237.721 -2.06377 0.205705 0
M  V30 2488 C 238.146 -1.50463 -1.12883 0
M  V30 2489 O 237.504 -0.623619 -1.70237 0
M  V30 2490 C 237.552 -3.60277 0.152655 0
M  V30 2491 O 236.656 -4.02935 -0.87845 0
M  V30 2492 H 235.997 -0.655588 0.105359 0
M  V30 2493 H 238.527 -1.82475 0.925412 0
M  V30 2494 H 238.537 -4.07993 -0.0230675 0
M  V30 2495 H 237.212 -4.00346 1.12675 0
M  V30 2496 H 235.789 -3.66764 -0.673668 0
M  V30 2497 N 237.974 -0.419461 -1.51915 0
M  V30 2498 C 238.921 0.400927 -2.27291 0
M  V30 2499 C 239.891 1.03224 -1.30131 0
M  V30 2500 O 241.076 1.05455 -1.59009 0
M  V30 2501 C 238.216 1.50603 -3.10504 0
M  V30 2502 C 237.329 0.89462 -4.22635 0
M  V30 2503 C 236.464 1.97328 -4.93189 0
M  V30 2504 C 235.503 1.33935 -5.97267 0
M  V30 2505 N 234.64 2.3586 -6.61298 0
M  V30 2506 H 239.48 -0.248251 -2.96964 0
M  V30 2507 H 237.017 -0.134266 -1.46486 0
M  V30 2508 H 238.975 2.15783 -3.57062 0
M  V30 2509 H 237.605 2.12509 -2.42981 0
M  V30 2510 H 236.657 0.131583 -3.80172 0
M  V30 2511 H 237.969 0.391641 -4.9726 0
M  V30 2512 H 237.123 2.70211 -5.43204 0
M  V30 2513 H 235.862 2.50994 -4.18155 0
M  V30 2514 H 234.867 0.595896 -5.46561 0
M  V30 2515 H 236.092 0.810252 -6.74249 0
M  V30 2516 H 234.038 2.88639 -5.89087 0
M  V30 2517 H 233.955 1.90403 -7.3163 0
M  V30 2518 H 235.223 3.08282 -7.15949 0
M  V30 2519 N 239.452 1.56882 -0.150215 0
M  V30 2520 C 240.384 2.14057 0.819286 0
M  V30 2521 C 241.397 1.09082 1.20851 0
M  V30 2522 O 242.586 1.36347 1.15203 0
M  V30 2523 C 239.686 2.65102 2.11127 0
M  V30 2524 C 238.859 3.94511 1.88891 0
M  V30 2525 C 237.918 4.30834 3.02107 0
M  V30 2526 O 236.944 4.99099 2.73659 0
M  V30 2527 N 238.146 3.90676 4.29363 0
M  V30 2528 H 240.911 2.97871 0.330618 0
M  V30 2529 H 238.472 1.61866 0.0332538 0
M  V30 2530 H 240.464 2.86411 2.85921 0
M  V30 2531 H 239.034 1.85994 2.51247 0
M  V30 2532 H 238.254 3.81795 0.981152 0
M  V30 2533 H 239.542 4.7907 1.71376 0
M  V30 2534 H 238.94 3.35677 4.55343 0
M  V30 2535 H 237.497 4.1703 5.00928 0
M  V30 2536 N 240.93 -0.123565 1.57115 0
M  V30 2537 C 241.877 -1.15177 2.00007 0
M  V30 2538 C 242.847 -1.41403 0.871454 0
M  V30 2539 O 244.032 -1.53346 1.13533 0
M  V30 2540 C 241.172 -2.47436 2.40561 0
M  V30 2541 C 240.285 -2.28184 3.66819 0
M  V30 2542 C 239.42 -3.53641 3.96373 0
M  V30 2543 C 238.459 -3.29528 5.15827 0
M  V30 2544 N 237.596 -4.47175 5.41275 0
M  V30 2545 H 242.436 -0.779008 2.87638 0
M  V30 2546 H 239.973 -0.373166 1.42288 0
M  V30 2547 H 241.931 -3.24584 2.62109 0
M  V30 2548 H 240.561 -2.82614 1.55978 0
M  V30 2549 H 239.613 -1.41976 3.52912 0
M  V30 2550 H 240.925 -2.0634 4.5412 0
M  V30 2551 H 240.079 -4.39209 4.18545 0
M  V30 2552 H 238.818 -3.78512 3.07538 0
M  V30 2553 H 237.823 -2.42349 4.93505 0
M  V30 2554 H 239.048 -3.06031 6.06236 0
M  V30 2555 H 236.994 -4.72175 4.55397 0
M  V30 2556 H 236.911 -4.28419 6.22891 0
M  V30 2557 H 238.179 -5.3389 5.67963 0
M  V30 2558 N 242.408 -1.52605 -0.393616 0
M  V30 2559 C 243.638 -1.71046 -1.15874 0
M  V30 2560 C 244.046 -0.426483 -1.84331 0
M  V30 2561 O 243.389 0.608513 -1.73329 0
M  V30 2562 C 243.451 -2.80118 -2.25332 0
M  V30 2563 C 243.115 -4.21381 -1.76881 0
M  V30 2564 C 244.112 -5.04697 -1.24808 0
M  V30 2565 C 241.797 -4.67683 -1.83244 0
M  V30 2566 C 243.791 -6.32393 -0.797387 0
M  V30 2567 C 241.478 -5.95364 -1.37787 0
M  V30 2568 C 242.476 -6.77549 -0.861208 0
M  V30 2569 O 242.164 -8.02837 -0.413252 0
M  V30 2570 H 241.896 -0.576155 -0.353583 0
M  V30 2571 H 244.45 -2.00018 -0.467123 0
M  V30 2572 H 242.68 -2.46557 -2.97904 0
M  V30 2573 H 244.369 -2.87006 -2.87023 0
M  V30 2574 H 245.135 -4.70111 -1.19252 0
M  V30 2575 H 241.014 -4.03805 -2.22401 0
M  V30 2576 H 244.558 -6.9649 -0.393437 0
M  V30 2577 H 240.455 -6.29455 -1.43026 0
M  V30 2578 H 241.223 -8.16749 -0.53515 0
M  V30 2579 N 243.887 0.651787 -1.4349 0
M  V30 2580 C 244.817 1.77621 -1.51569 0
M  V30 2581 C 245.798 1.66022 -0.370253 0
M  V30 2582 O 246.983 1.85095 -0.587658 0
M  V30 2583 C 244.113 3.16056 -1.43966 0
M  V30 2584 C 243.067 3.4242 -2.56774 0
M  V30 2585 C 242.393 4.8067 -2.34223 0
M  V30 2586 C 243.693 3.37023 -3.99015 0
M  V30 2587 H 245.387 1.71117 -2.45681 0
M  V30 2588 H 242.933 0.821825 -1.18246 0
M  V30 2589 H 244.886 3.94472 -1.48221 0
M  V30 2590 H 243.61 3.23293 -0.463586 0
M  V30 2591 H 242.269 2.66375 -2.51873 0
M  V30 2592 H 241.917 4.84585 -1.34856 0
M  V30 2593 H 241.617 4.9927 -3.09844 0
M  V30 2594 H 243.141 5.61342 -2.40265 0
M  V30 2595 H 244.555 4.05374 -4.05395 0
M  V30 2596 H 242.952 3.67159 -4.74673 0
M  V30 2597 H 244.022 2.3518 -4.2405 0
M  V30 2598 N 245.365 1.30045 0.890287 0
M  V30 2599 C 246.275 1.17885 2.02831 0
M  V30 2600 C 247.291 0.0999609 1.73713 0
M  V30 2601 O 248.467 0.313867 1.98939 0
M  V30 2602 C 245.532 0.866079 3.35708 0
M  V30 2603 C 244.593 2.02979 3.78283 0
M  V30 2604 C 243.826 1.73184 5.0482 0
M  V30 2605 O 244.049 0.657237 5.66601 0
M  V30 2606 O 242.983 2.58267 5.43674 0
M  V30 2607 H 246.809 2.13474 2.16015 0
M  V30 2608 H 244.394 1.09587 1.01543 0
M  V30 2609 H 246.276 0.706623 4.15433 0
M  V30 2610 H 244.951 -0.0599443 3.23644 0
M  V30 2611 H 243.858 2.24454 2.99285 0
M  V30 2612 H 245.191 2.93734 3.94944 0
M  V30 2613 N 246.843 -1.10192 1.12674 0
M  V30 2614 C 247.791 -2.18694 0.792196 0
M  V30 2615 C 248.785 -1.67938 -0.222058 0
M  V30 2616 O 249.991 -1.79822 -0.0800074 0
M  V30 2617 H 246.366 -0.713223 0.238364 0
M  V30 2618 H 248.337 -2.44149 1.71564 0
M  V30 2619 C 247.086 -3.46682 0.265859 0
M  V30 2620 H 246.409 -3.86101 1.03761 0
M  V30 2621 H 247.849 -4.23942 0.0701128 0
M  V30 2622 C 246.308 -3.21506 -1.00675 0
M  V30 2623 O 246.838 -3.43408 -2.08408 0
M  V30 2624 N 245.044 -2.75158 -0.934692 0
M  V30 2625 H 244.591 -2.57535 -0.0578604 0
M  V30 2626 H 244.549 -2.58691 -1.7868 0
M  V30 2627 N 248.321 -0.919034 -1.28029 0
M  V30 2628 C 249.551 -0.570143 -1.98577 0
M  V30 2629 C 249.959 0.854172 -1.68821 0
M  V30 2630 O 249.302 1.57807 -0.940351 0
M  V30 2631 C 249.364 -0.705734 -3.52505 0
M  V30 2632 C 249.028 -2.10057 -4.05863 0
M  V30 2633 C 250.025 -3.07385 -4.19298 0
M  V30 2634 C 247.71 -2.41517 -4.40426 0
M  V30 2635 C 249.704 -4.34287 -4.66555 0
M  V30 2636 C 247.391 -3.68657 -4.87376 0
M  V30 2637 C 248.389 -4.64856 -5.00398 0
M  V30 2638 O 248.077 -5.89735 -5.46322 0
M  V30 2639 H 247.809 -0.215592 -0.6407 0
M  V30 2640 H 250.363 -1.23583 -1.64062 0
M  V30 2641 H 248.593 0.0170414 -3.86696 0
M  V30 2642 H 250.282 -0.363172 -4.04272 0
M  V30 2643 H 251.048 -2.84398 -3.92865 0
M  V30 2644 H 246.927 -1.67389 -4.29537 0
M  V30 2645 H 250.471 -5.09377 -4.76635 0
M  V30 2646 H 246.368 -3.91466 -5.13249 0
M  V30 2647 H 247.136 -5.92599 -5.64596 0
M  V30 2648 N 249.799 1.42003 -0.683588 0
M  V30 2649 C 250.729 2.33487 -0.024866 0
M  V30 2650 C 251.71 1.51163 0.779975 0
M  V30 2651 O 252.895 1.79739 0.735362 0
M  V30 2652 C 250.025 3.3487 0.920836 0
M  V30 2653 C 248.979 4.27414 0.223958 0
M  V30 2654 C 248.305 5.19074 1.2832 0
M  V30 2655 C 249.605 5.14445 -0.90242 0
M  V30 2656 H 251.299 2.88819 -0.788921 0
M  V30 2657 H 248.845 1.38873 -0.38083 0
M  V30 2658 H 250.798 3.97787 1.39081 0
M  V30 2659 H 249.522 2.77861 1.71642 0
M  V30 2660 H 248.181 3.65904 -0.225864 0
M  V30 2661 H 247.829 4.58387 2.071 0
M  V30 2662 H 247.529 5.81822 0.821995 0
M  V30 2663 H 249.053 5.84867 1.75392 0
M  V30 2664 H 250.467 5.70998 -0.513272 0
M  V30 2665 H 248.864 5.86072 -1.28997 0
M  V30 2666 H 249.934 4.52322 -1.74737 0
M  V30 2667 N 251.277 0.427512 1.51691 0
M  V30 2668 C 252.225 -0.403359 2.29076 0
M  V30 2669 C 253.219 -1.02962 1.34518 0
M  V30 2670 O 254.425 -0.965715 1.51901 0
M  V30 2671 H 250.8 -0.148879 0.737115 0
M  V30 2672 H 252.771 0.270295 2.97173 0
M  V30 2673 C 251.52 -1.49763 3.13794 0
M  V30 2674 H 250.843 -1.02508 3.86435 0
M  V30 2675 H 252.283 -2.05244 3.71014 0
M  V30 2676 C 250.742 -2.47536 2.28533 0
M  V30 2677 O 251.272 -3.51848 1.93819 0
M  V30 2678 N 249.478 -2.18187 1.91945 0
M  V30 2679 H 249.025 -1.33389 2.20375 0
M  V30 2680 H 248.983 -2.83848 1.35195 0
M  V30 2681 N 252.755 -1.56801 0.158532 0
M  V30 2682 C 254.171 -1.5837 -0.197774 0
M  V30 2683 C 254.371 -1.17334 -1.63814 0
M  V30 2684 O 253.427 -0.878988 -2.36707 0
M  V30 2685 C 254.74 -3.00615 0.0714459 0
M  V30 2686 C 256.288 -3.12999 0.00864533 0
M  V30 2687 C 256.763 -4.57313 0.250685 0
M  V30 2688 N 258.254 -4.62777 0.198014 0
M  V30 2689 C 258.989 -5.72271 0.359642 0
M  V30 2690 N 258.485 -6.90371 0.579625 0
M  V30 2691 N 260.278 -5.61318 0.296438 0
M  V30 2692 H 252.429 -1.81765 1.09887 0
M  V30 2693 H 254.692 -0.841849 0.435884 0
M  V30 2694 H 254.398 -3.35068 1.06874 0
M  V30 2695 H 254.272 -3.71683 -0.642757 0
M  V30 2696 H 256.659 -2.7838 -0.979217 0
M  V30 2697 H 256.74 -2.44393 0.755359 0
M  V30 2698 H 256.384 -4.92639 1.2357 0
M  V30 2699 H 256.314 -5.24061 -0.516489 0
M  V30 2700 H 258.805 -3.77885 0.0331115 0
M  V30 2701 H 259.118 -7.69689 0.69275 0
M  V30 2702 H 257.463 -6.92264 0.616087 0
M  V30 2703 H 260.654 -4.67932 0.125258 0
M  V30 2704 H 260.827 -6.46599 0.425831 0
M  V30 2705 N 254.233 0.115231 -1.57178 0
M  V30 2706 C 255.163 1.1423 -2.03651 0
M  V30 2707 C 256.144 1.42967 -0.921655 0
M  V30 2708 O 257.329 1.53343 -1.19162 0
M  V30 2709 C 254.459 2.4675 -2.44401 0
M  V30 2710 C 253.413 2.32467 -3.59365 0
M  V30 2711 C 252.739 3.69984 -3.86026 0
M  V30 2712 C 254.039 1.78203 -4.90959 0
M  V30 2713 H 255.733 0.755749 -2.89705 0
M  V30 2714 H 253.279 0.362093 -1.39373 0
M  V30 2715 H 255.232 3.18854 -2.75517 0
M  V30 2716 H 253.956 2.87302 -1.55322 0
M  V30 2717 H 252.615 1.62811 -3.28463 0
M  V30 2718 H 252.263 4.08028 -2.94147 0
M  V30 2719 H 251.963 3.61279 -4.63412 0
M  V30 2720 H 253.487 4.43587 -4.19599 0
M  V30 2721 H 254.901 2.40128 -5.20587 0
M  V30 2722 H 253.298 1.8031 -5.72371 0
M  V30 2723 H 254.368 0.739876 -4.79222 0
M  V30 2724 N 255.711 1.52812 0.385517 0
M  V30 2725 C 256.641 1.80808 1.47752 0
M  V30 2726 C 257.622 0.660318 1.5676 0
M  V30 2727 O 258.807 0.908246 1.71652 0
M  V30 2728 C 255.937 1.98008 2.85324 0
M  V30 2729 C 254.891 3.13709 2.91154 0
M  V30 2730 C 254.217 3.16169 4.31209 0
M  V30 2731 C 255.517 4.52709 2.60483 0
M  V30 2732 H 257.211 2.72253 1.24573 0
M  V30 2733 H 254.757 1.31003 0.597839 0
M  V30 2734 H 256.71 2.16176 3.61726 0
M  V30 2735 H 255.434 1.03255 3.09848 0
M  V30 2736 H 254.093 2.95329 2.17201 0
M  V30 2737 H 253.741 2.19092 4.52778 0
M  V30 2738 H 253.441 3.93894 4.36029 0
M  V30 2739 H 254.965 3.36496 5.09512 0
M  V30 2740 H 256.379 4.71173 3.26602 0
M  V30 2741 H 254.776 5.32528 2.76648 0
M  V30 2742 H 255.846 4.59186 1.55809 0
M  V30 2743 N 257.189 -0.644168 1.43834 0
M  V30 2744 C 258.417 -1.43147 1.49387 0
M  V30 2745 C 258.832 -1.88452 0.114583 0
M  V30 2746 O 258.189 -1.60047 -0.876989 0
M  V30 2747 C 258.24 -2.66046 2.44748 0
M  V30 2748 O 257.961 -2.22633 3.77314 0
M  V30 2749 C 259.462 -3.59311 2.59635 0
M  V30 2750 H 256.682 -0.439447 0.507077 0
M  V30 2751 H 259.226 -0.78895 1.88669 0
M  V30 2752 H 257.381 -3.26418 2.08638 0
M  V30 2753 H 257.795 -3.02216 4.28679 0
M  V30 2754 H 259.269 -4.42187 3.30416 0
M  V30 2755 H 259.746 -4.07259 1.64427 0
M  V30 2756 H 260.352 -3.04816 2.96593 0
M  V30 2757 N 258.668 -1.30515 -0.883378 0
M  V30 2758 C 259.601 -1.11359 -1.99184 0
M  V30 2759 C 260.579 -0.0207858 -1.62587 0
M  V30 2760 O 261.763 -0.174646 -1.87689 0
M  V30 2761 C 258.89 -0.69871 -3.31415 0
M  V30 2762 C 257.936 -1.79261 -3.86998 0
M  V30 2763 S 258.769 -3.39536 -4.14096 0
M  V30 2764 C 259.925 -2.99954 -5.49344 0
M  V30 2765 H 260.158 -2.052 -2.15128 0
M  V30 2766 H 257.691 -1.14847 -1.03196 0
M  V30 2767 H 259.649 -0.466075 -4.07846 0
M  V30 2768 H 258.31 0.220368 -3.13326 0
M  V30 2769 H 257.503 -1.45464 -4.82552 0
M  V30 2770 H 257.105 -1.97961 -3.17313 0
M  V30 2771 H 259.397 -2.48013 -6.30473 0
M  V30 2772 H 260.34 -3.9442 -5.8808 0
M  V30 2773 H 260.748 -2.37775 -5.1198 0
M  V30 2774 N 260.146 1.09593 -1.13257 0
M  V30 2775 C 261.371 1.8604 -0.916732 0
M  V30 2776 C 261.796 1.80504 0.529146 0
M  V30 2777 O 261.154 1.18127 1.37534 0
M  V30 2778 C 261.202 3.32017 -1.40703 0
M  V30 2779 O 260.306 4.08141 -0.591153 0
M  V30 2780 H 259.647 0.576943 -0.328683 0
M  V30 2781 H 262.177 1.38405 -1.50682 0
M  V30 2782 H 262.187 3.82865 -1.4099 0
M  V30 2783 H 260.862 3.35361 -2.45979 0
M  V30 2784 H 259.439 3.67084 -0.656005 0
M  V30 2785 N 261.624 0.925811 1.2754 0
M  V30 2786 C 262.871 0.565255 1.94451 0
M  V30 2787 C 263.199 -0.89316 1.7278 0
M  V30 2788 O 262.454 -1.65213 1.04895 0
M  V30 2789 C 262.753 0.835296 3.47502 0
M  V30 2790 C 262.419 2.27515 3.89291 0
M  V30 2791 C 261.081 2.66879 4.00411 0
M  V30 2792 C 263.433 3.21158 4.10496 0
M  V30 2793 C 260.761 3.99014 4.30122 0
M  V30 2794 C 263.113 4.52871 4.4169 0
M  V30 2795 C 261.777 4.92072 4.51023 0
M  V30 2796 H 261.047 0.206841 0.711546 0
M  V30 2797 H 263.694 1.16942 1.51647 0
M  V30 2798 H 261.999 0.148442 3.91519 0
M  V30 2799 H 263.696 0.535322 3.97411 0
M  V30 2800 H 260.286 1.95976 3.81171 0
M  V30 2801 H 264.47 2.9195 4.01346 0
M  V30 2802 H 259.726 4.2907 4.35556 0
M  V30 2803 H 263.9 5.25436 4.57045 0
M  V30 2804 H 261.527 5.9449 4.738 0
M  V30 2805 N 263.102 -1.41638 0.69111 0
M  V30 2806 C 264.332 -2.0533 0.228758 0
M  V30 2807 C 264.74 -1.52089 -1.12541 0
M  V30 2808 O 264.083 -0.662145 -1.71351 0
M  V30 2809 C 264.145 -3.59349 0.10407 0
M  V30 2810 C 263.809 -4.35362 1.38956 0
M  V30 2811 C 264.806 -4.64942 2.32648 0
M  V30 2812 C 262.491 -4.74714 1.64169 0
M  V30 2813 C 264.485 -5.32828 3.49818 0
M  V30 2814 C 262.172 -5.42338 2.81625 0
M  V30 2815 C 263.17 -5.71322 3.74273 0
M  V30 2816 O 262.858 -6.37554 4.89673 0
M  V30 2817 H 262.59 -0.667796 0.104997 0
M  V30 2818 H 265.144 -1.82477 0.942938 0
M  V30 2819 H 263.374 -3.80924 -0.665839 0
M  V30 2820 H 265.063 -4.04633 -0.320519 0
M  V30 2821 H 265.829 -4.35025 2.14425 0
M  V30 2822 H 261.708 -4.51538 0.929202 0
M  V30 2823 H 265.252 -5.55368 4.22152 0
M  V30 2824 H 261.149 -5.71673 2.99768 0
M  V30 2825 H 261.917 -6.56049 4.8943 0
M  V30 2826 N 264.58 -0.43555 -1.51462 0
M  V30 2827 C 265.996 -0.0877501 -1.59359 0
M  V30 2828 C 266.196 1.4027 -1.4466 0
M  V30 2829 O 265.252 2.17243 -1.28693 0
M  V30 2830 C 266.565 -0.606264 -2.94525 0
M  V30 2831 C 268.113 -0.566548 -3.0783 0
M  V30 2832 C 268.588 -1.06201 -4.45517 0
M  V30 2833 N 270.079 -1.01992 -4.51832 0
M  V30 2834 C 270.814 -1.37417 -5.5669 0
M  V30 2835 N 270.31 -1.80119 -6.68976 0
M  V30 2836 N 272.103 -1.29245 -5.47039 0
M  V30 2837 H 264.254 -1.40533 -1.59261 0
M  V30 2838 H 266.517 -0.578992 -0.750648 0
M  V30 2839 H 266.223 -1.64901 -3.10645 0
M  V30 2840 H 266.097 -0.0302097 -3.77188 0
M  V30 2841 H 268.484 0.467208 -2.91378 0
M  V30 2842 H 268.565 -1.17898 -2.2701 0
M  V30 2843 H 268.209 -2.09422 -4.62715 0
M  V30 2844 H 268.139 -0.426127 -5.24873 0
M  V30 2845 H 270.63 -0.706308 -3.71241 0
M  V30 2846 H 270.943 -2.05392 -7.45006 0
M  V30 2847 H 269.288 -1.84044 -6.70189 0
M  V30 2848 H 272.479 -0.957522 -4.58202 0
M  V30 2849 H 272.652 -1.57182 -6.28648 0
M  V30 2850 N 266.058 1.56714 -0.166846 0
M  V30 2851 C 267.006 2.19056 0.782123 0
M  V30 2852 C 268 1.15328 1.24079 0
M  V30 2853 O 269.206 1.33537 1.20697 0
M  V30 2854 H 265.581 0.70167 0.270486 0
M  V30 2855 H 267.552 2.97494 0.232322 0
M  V30 2856 C 266.301 2.84206 2.00306 0
M  V30 2857 H 265.624 3.63748 1.65914 0
M  V30 2858 H 267.064 3.31302 2.64604 0
M  V30 2859 C 265.523 1.83744 2.82382 0
M  V30 2860 O 266.053 1.32014 3.79388 0
M  V30 2861 N 264.259 1.52601 2.47308 0
M  V30 2862 H 263.806 1.9486 1.68485 0
M  V30 2863 H 263.764 0.856351 3.02513 0
M  V30 2864 N 267.536 -0.106894 1.57237 0
M  V30 2865 C 268.766 -0.825191 1.89405 0
M  V30 2866 C 269.174 -1.73374 0.757496 0
M  V30 2867 O 268.517 -1.81552 -0.280115 0
M  V30 2868 C 268.579 -1.70102 3.1671 0
M  V30 2869 C 268.243 -0.965523 4.46684 0
M  V30 2870 C 269.24 -0.300741 5.19029 0
M  V30 2871 C 266.925 -0.943105 4.93367 0
M  V30 2872 C 268.919 0.376622 6.36286 0
M  V30 2873 C 266.606 -0.261949 6.10538 0
M  V30 2874 C 267.604 0.396748 6.81847 0
M  V30 2875 O 267.292 1.06701 7.96787 0
M  V30 2876 H 267.024 -0.241852 0.631255 0
M  V30 2877 H 269.578 -0.0921491 2.05193 0
M  V30 2878 H 267.808 -2.47601 2.97036 0
M  V30 2879 H 269.497 -2.29483 3.34802 0
M  V30 2880 H 270.263 -0.309599 4.84011 0
M  V30 2881 H 266.142 -1.44524 4.3776 0
M  V30 2882 H 269.686 0.891334 6.91882 0
M  V30 2883 H 265.583 -0.250896 6.45012 0
M  V30 2884 H 266.351 0.972707 8.127 0
M  V30 2885 N 269.014 -1.53014 -0.377408 0
M  V30 2886 C 269.964 -1.74996 -1.46152 0
M  V30 2887 C 270.948 -0.604236 -1.49123 0
M  V30 2888 O 272.14 -0.862489 -1.54564 0
M  V30 2889 C 269.269 -1.93267 -2.8373 0
M  V30 2890 C 268.355 -3.13807 -2.85283 0
M  V30 2891 N 268.746 -4.35941 -2.56493 0
M  V30 2892 C 267.044 -3.14288 -3.16448 0
M  V30 2893 C 267.745 -5.17615 -2.65424 0
M  V30 2894 N 266.721 -4.53559 -2.99641 0
M  V30 2895 H 270.523 -2.67044 -1.22738 0
M  V30 2896 H 268.037 -1.51479 -0.585479 0
M  V30 2897 H 270.034 -2.0714 -3.61799 0
M  V30 2898 H 268.694 -1.0244 -3.08117 0
M  V30 2899 H 269.705 -4.63876 -2.30302 0
M  V30 2900 H 266.382 -2.33312 -3.46225 0
M  V30 2901 H 267.772 -6.25006 -2.46612 0
M  V30 2902 N 270.492 0.636531 -1.44174 0
M  V30 2903 C 271.455 1.73063 -1.50273 0
M  V30 2904 C 272.455 1.56113 -0.385397 0
M  V30 2905 O 273.645 1.61707 -0.64781 0
M  V30 2906 C 270.777 3.12096 -1.37145 0
M  V30 2907 H 271.97 1.69031 -2.47727 0
M  V30 2908 H 269.523 0.849706 -1.31186 0
M  V30 2909 H 270.258 3.21728 -0.407636 0
M  V30 2910 H 270.043 3.25805 -2.18159 0
M  V30 2911 H 271.533 3.91846 -1.44382 0
M  V30 2912 N 271.97 1.30982 0.876444 0
M  V30 2913 C 272.903 1.12414 1.98591 0
M  V30 2914 C 273.881 0.0294078 1.62573 0
M  V30 2915 O 275.065 0.184598 1.87594 0
M  V30 2916 C 272.192 0.716276 3.3104 0
M  V30 2917 C 271.238 1.81311 3.86042 0
M  V30 2918 S 272.071 3.41727 4.1229 0
M  V30 2919 C 273.227 3.02863 5.47745 0
M  V30 2920 H 273.46 2.06338 2.14037 0
M  V30 2921 H 270.993 1.15393 1.02586 0
M  V30 2922 H 272.951 0.487697 4.07593 0
M  V30 2923 H 271.612 -0.203749 3.13438 0
M  V30 2924 H 270.805 1.48021 4.81774 0
M  V30 2925 H 270.407 1.99641 3.16259 0
M  V30 2926 H 272.699 2.51353 6.29148 0
M  V30 2927 H 273.642 3.97533 5.8598 0
M  V30 2928 H 274.05 2.40487 5.10711 0
M  V30 2929 N 273.449 -1.08991 1.13837 0
M  V30 2930 C 274.677 -1.85011 0.926202 0
M  V30 2931 C 275.092 -1.8135 -0.525127 0
M  V30 2932 O 274.449 -1.21287 -1.36366 0
M  V30 2933 C 274.5 -3.32802 1.41155 0
M  V30 2934 O 274.221 -3.36444 2.80601 0
M  V30 2935 C 275.722 -4.25649 1.23847 0
M  V30 2936 H 272.942 -0.584249 0.32999 0
M  V30 2937 H 275.486 -1.37688 1.51202 0
M  V30 2938 H 273.641 -3.77536 0.868631 0
M  V30 2939 H 274.055 -4.28657 3.02248 0
M  V30 2940 H 275.529 -5.27485 1.62675 0
M  V30 2941 H 276.006 -4.38828 0.18065 0
M  V30 2942 H 276.612 -3.86735 1.76964 0
M  V30 2943 N 274.927 -0.932562 -1.27047 0
M  V30 2944 C 275.837 -0.441219 -2.30414 0
M  V30 2945 C 276.853 0.480525 -1.67233 0
M  V30 2946 O 278.029 0.362151 -1.98117 0
M  V30 2947 C 275.094 0.293651 -3.45454 0
M  V30 2948 C 274.155 -0.663601 -4.2414 0
M  V30 2949 C 273.388 0.0362932 -5.33688 0
M  V30 2950 O 273.611 1.2548 -5.56427 0
M  V30 2951 O 272.545 -0.638015 -5.98509 0
M  V30 2952 H 276.371 -1.29962 -2.74488 0
M  V30 2953 H 273.956 -0.6981 -1.32087 0
M  V30 2954 H 275.838 0.707951 -4.15411 0
M  V30 2955 H 274.513 1.12758 -3.03426 0
M  V30 2956 H 273.42 -1.12768 -3.56699 0
M  V30 2957 H 274.753 -1.46489 -4.69896 0
M  V30 2958 N 276.405 1.4127 -0.698611 0
M  V30 2959 C 277.652 2.0118 -0.230865 0
M  V30 2960 C 277.98 1.55338 1.17049 0
M  V30 2961 O 277.235 0.756775 1.80475 0
M  V30 2962 C 277.534 3.56592 -0.240192 0
M  V30 2963 C 277.2 4.21955 -1.58948 0
M  V30 2964 C 275.862 4.39524 -1.95887 0
M  V30 2965 C 278.214 4.58576 -2.47704 0
M  V30 2966 C 275.542 4.90992 -3.2116 0
M  V30 2967 C 277.894 5.11435 -3.72313 0
M  V30 2968 C 276.558 5.27215 -4.0939 0
M  V30 2969 H 275.828 0.736169 -0.0844796 0
M  V30 2970 H 278.475 1.69124 -0.8983 0
M  V30 2971 H 276.78 3.88456 0.510797 0
M  V30 2972 H 278.477 4.00758 0.139296 0
M  V30 2973 H 275.067 4.08657 -1.29219 0
M  V30 2974 H 279.251 4.44654 -2.20445 0
M  V30 2975 H 274.507 5.01393 -3.49878 0
M  V30 2976 H 278.681 5.38752 -4.4127 0
M  V30 2977 H 276.308 5.66859 -5.06533 0
M  V30 2978 N 277.883 0.443576 1.51229 0
M  V30 2979 C 278.813 -0.355142 2.30783 0
M  V30 2980 C 279.794 -1.0154 1.36468 0
M  V30 2981 O 280.979 -1.01785 1.65389 0
M  V30 2982 C 278.109 -1.45312 3.15439 0
M  V30 2983 C 277.063 -0.916002 4.18083 0
M  V30 2984 C 276.389 -2.1102 4.91299 0
M  V30 2985 C 277.689 0.0538602 5.22272 0
M  V30 2986 H 279.383 0.308767 2.97804 0
M  V30 2987 H 276.929 0.149937 1.43217 0
M  V30 2988 H 278.882 -2.01914 3.69876 0
M  V30 2989 H 277.606 -2.14541 2.46252 0
M  V30 2990 H 276.265 -0.372145 3.64706 0
M  V30 2991 H 275.913 -2.78882 4.18609 0
M  V30 2992 H 275.613 -1.75717 5.60712 0
M  V30 2993 H 277.137 -2.68164 5.48562 0
M  V30 2994 H 278.551 -0.422069 5.71744 0
M  V30 2995 H 276.948 0.319776 5.99247 0
M  V30 2996 H 278.018 0.98858 4.74716 0
M  V30 2997 N 279.361 -1.56624 0.175154 0
M  V30 2998 C 280.271 -2.21741 -0.766042 0
M  V30 2999 C 281.287 -1.21023 -1.25018 0
M  V30 3000 O 282.463 -1.53697 -1.3015 0
M  V30 3001 C 279.528 -2.84839 -1.97655 0
M  V30 3002 C 278.589 -4.00769 -1.53892 0
M  V30 3003 C 277.822 -4.60849 -2.69173 0
M  V30 3004 O 278.045 -4.19823 -3.86141 0
M  V30 3005 O 276.979 -5.50655 -2.43028 0
M  V30 3006 H 280.805 -3.02738 -0.241585 0
M  V30 3007 H 278.39 -1.49305 -0.053222 0
M  V30 3008 H 280.272 -3.24834 -2.68442 0
M  V30 3009 H 278.947 -2.06836 -2.48999 0
M  V30 3010 H 277.854 -3.65436 -0.80044 0
M  V30 3011 H 279.187 -4.80376 -1.07236 0
M  V30 3012 N 280.839 0.0985539 -1.57292 0
M  V30 3013 C 282.085 0.803867 -1.86188 0
M  V30 3014 C 282.418 1.78549 -0.763794 0
M  V30 3015 O 281.693 1.93153 0.22855 0
M  V30 3016 C 281.976 1.53568 -3.25713 0
M  V30 3017 C 281.829 0.572277 -4.46145 0
M  V30 3018 C 283.148 2.48708 -3.63087 0
M  V30 3019 H 280.267 0.290781 -0.677211 0
M  V30 3020 H 282.909 0.0675783 -1.8988 0
M  V30 3021 H 281.059 2.16332 -3.22696 0
M  V30 3022 H 282.731 -0.0480894 -4.61275 0
M  V30 3023 H 280.974 -0.114618 -4.33649 0
M  V30 3024 H 281.645 1.12139 -5.40489 0
M  V30 3025 H 284.121 1.96039 -3.67026 0
M  V30 3026 H 282.997 2.96932 -4.61652 0
M  V30 3027 H 283.258 3.32309 -2.91588 0
M  V30 3028 N 282.317 1.53212 0.369288 0
M  V30 3029 C 283.542 1.73423 1.1375 0
M  V30 3030 C 283.967 0.460404 1.82378 0
M  V30 3031 O 283.325 -0.585298 1.71592 0
M  V30 3032 C 283.373 2.89769 2.1463 0
M  V30 3033 O 282.477 2.58119 3.21634 0
M  V30 3034 H 281.818 0.576061 0.330227 0
M  V30 3035 H 284.348 2.00083 0.427547 0
M  V30 3036 H 284.358 3.15829 2.58294 0
M  V30 3037 H 283.033 3.8217 1.64071 0
M  V30 3038 H 281.61 2.42864 2.82969 0
M  V30 3039 N 283.795 -0.628877 1.44509 0
M  V30 3040 C 284.727 -1.754 1.47538 0
M  V30 3041 C 285.74 -1.58575 0.368506 0
M  V30 3042 O 286.929 -1.66847 0.634376 0
M  V30 3043 C 284.029 -3.1315 1.29577 0
M  V30 3044 C 283.202 -3.56413 2.53551 0
M  V30 3045 C 282.261 -4.7305 2.30457 0
M  V30 3046 O 281.287 -4.81247 3.03957 0
M  V30 3047 N 282.489 -5.64903 1.3366 0
M  V30 3048 H 285.254 -1.73272 2.44534 0
M  V30 3049 H 282.815 -0.813512 1.39977 0
M  V30 3050 H 284.807 -3.88902 1.11971 0
M  V30 3051 H 283.377 -3.09908 0.409371 0
M  V30 3052 H 282.597 -2.70847 2.86419 0
M  V30 3053 H 283.885 -3.82071 3.36005 0
M  V30 3054 H 283.283 -5.60975 0.729604 0
M  V30 3055 H 281.84 -6.40275 1.22032 0
M  V30 3056 N 285.273 -1.31445 -0.869486 0
M  V30 3057 C 286.203 -1.21727 -1.99261 0
M  V30 3058 C 287.184 -0.104359 -1.6978 0
M  V30 3059 O 288.369 -0.289038 -1.92037 0
M  V30 3060 C 285.499 -0.924317 -3.34774 0
M  V30 3061 C 284.453 -1.99685 -3.78563 0
M  V30 3062 C 283.779 -1.55658 -5.11541 0
M  V30 3063 C 285.079 -3.41003 -3.95619 0
M  V30 3064 H 286.773 -2.1569 -2.07649 0
M  V30 3065 H 284.319 -1.03839 -0.997675 0
M  V30 3066 H 286.272 -0.842934 -4.12883 0
M  V30 3067 H 284.996 0.0509793 -3.2656 0
M  V30 3068 H 283.655 -2.06813 -3.02694 0
M  V30 3069 H 283.303 -0.569132 -4.9977 0
M  V30 3070 H 283.003 -2.27409 -5.41811 0
M  V30 3071 H 284.527 -1.48928 -5.92159 0
M  V30 3072 H 285.941 -3.36547 -4.64122 0
M  V30 3073 H 284.338 -4.10975 -4.37286 0
M  V30 3074 H 285.408 -3.81754 -2.98985 0
M  V30 3075 N 286.751 1.08385 -1.14413 0
M  V30 3076 C 287.976 1.85057 -0.936413 0
M  V30 3077 C 288.401 1.81055 0.509971 0
M  V30 3078 O 287.759 1.1958 1.36273 0
M  V30 3079 C 287.807 3.30505 -1.44217 0
M  V30 3080 O 286.911 4.07491 -0.634409 0
M  V30 3081 H 286.252 0.573425 -0.334784 0
M  V30 3082 H 288.782 1.36799 -1.52142 0
M  V30 3083 H 288.792 3.81348 -1.45043 0
M  V30 3084 H 287.467 3.32734 -2.49522 0
M  V30 3085 H 286.044 3.66368 -0.694902 0
M  V30 3086 N 288.23 0.939286 1.26551 0
M  V30 3087 C 289.477 0.585847 1.9384 0
M  V30 3088 C 289.805 -0.874784 1.73718 0
M  V30 3089 O 289.06 -1.64092 1.06642 0
M  V30 3090 C 289.359 0.872106 3.46596 0
M  V30 3091 C 289.025 2.31632 3.86856 0
M  V30 3092 C 287.687 2.71111 3.97558 0
M  V30 3093 C 290.039 3.25494 4.07066 0
M  V30 3094 C 287.367 4.03553 4.25866 0
M  V30 3095 C 289.719 4.57531 4.36862 0
M  V30 3096 C 288.383 4.96828 4.45778 0
M  V30 3097 H 287.653 0.214377 0.709312 0
M  V30 3098 H 290.3 1.18544 1.50398 0
M  V30 3099 H 288.605 0.18996 3.91339 0
M  V30 3100 H 290.302 0.577442 3.96821 0
M  V30 3101 H 286.892 2.00008 3.79071 0
M  V30 3102 H 291.076 2.9619 3.98227 0
M  V30 3103 H 286.332 4.33665 4.30981 0
M  V30 3104 H 290.506 5.30254 4.51446 0
M  V30 3105 H 288.133 5.99482 4.67468 0
M  V30 3106 N 289.708 -1.40897 0.706093 0
M  V30 3107 C 290.957 -2.00284 0.238574 0
M  V30 3108 C 291.27 -1.56604 -1.17194 0
M  V30 3109 O 292.476 -2.08624 -1.73748 0
M  V30 3110 C 290.932 -3.57934 0.375623 0
M  V30 3111 C 290.54 -4.10591 1.79217 0
M  V30 3112 C 292.284 -4.24488 -0.0315857 0
M  V30 3113 C 290.191 -5.60712 1.88032 0
M  V30 3114 H 289.121 -0.749144 0.0854398 0
M  V30 3115 H 291.772 -1.61251 0.875813 0
M  V30 3116 H 290.154 -3.94622 -0.330042 0
M  V30 3117 H 291.328 -3.85301 2.52745 0
M  V30 3118 H 289.643 -3.56601 2.15 0
M  V30 3119 H 292.24 -5.34698 0.0136842 0
M  V30 3120 H 292.583 -4.02261 -1.072 0
M  V30 3121 H 293.116 -3.92873 0.624181 0
M  V30 3122 H 289.855 -5.87781 2.90161 0
M  V30 3123 H 289.375 -5.87896 1.18903 0
M  V30 3124 H 291.054 -6.25658 1.64805 0
M  V30 3125 N 291.186 -0.45159 -1.50991 0
M  V30 3126 C 292.597 0.00818571 -1.86698 0
M  V30 3127 C 292.948 1.40661 -1.3678 0
M  V30 3128 O 292.073 2.0391 -0.724546 0
M  V30 3129 C 292.668 0.0216303 -3.38793 0
M  V30 3130 C 291.227 0.425865 -3.73983 0
M  V30 3131 C 290.374 -0.372163 -2.74791 0
M  V30 3132 H 293.325 -0.666785 -1.44013 0
M  V30 3133 H 293.346 0.828078 -3.7138 0
M  V30 3134 H 292.858 -0.996288 -3.75094 0
M  V30 3135 H 290.959 1.44886 -3.43277 0
M  V30 3136 H 291.072 0.140761 -4.78893 0
M  V30 3137 H 289.436 0.171498 -2.54122 0
M  V30 3138 H 290.219 -1.38922 -3.13935 0
M  V30 3139 N 292.664 1.56529 -0.183458 0
M  V30 3140 C 293.941 1.88959 0.50536 0
M  V30 3141 C 294.321 1.09523 1.80466 0
M  V30 3142 O 293.669 0.19278 2.27685 0
M  V30 3143 C 293.879 3.41162 0.73547 0
M  V30 3144 C 295.227 4.11155 1.06005 0
M  V30 3145 O 296.251 3.46548 0.823594 0
M  V30 3146 O 295.11 5.25318 1.50675 0
M  V30 3147 H 292.204 0.78441 0.261973 0
M  V30 3148 H 294.75 1.68231 -0.222802 0
M  V30 3149 H 293.522 3.90874 -0.182561 0
M  V30 3150 H 293.145 3.67543 1.51651 0
M  V30 3151 N 294.142 -0.090211 1.57342 0
M  V30 3152 C 295.072 -1.10976 2.05443 0
M  V30 3153 C 296.053 -1.41482 0.944284 0
M  V30 3154 O 297.238 -1.51428 1.21586 0
M  V30 3155 C 294.368 -2.42831 2.48295 0
M  V30 3156 C 293.322 -2.26721 3.63018 0
M  V30 3157 C 292.648 -3.63796 3.91863 0
M  V30 3158 C 293.948 -1.7037 4.93732 0
M  V30 3159 H 295.642 -0.709564 2.9087 0
M  V30 3160 H 293.188 -0.339874 1.39932 0
M  V30 3161 H 295.141 -3.14431 2.80555 0
M  V30 3162 H 293.865 -2.84795 1.59873 0
M  V30 3163 H 292.524 -1.57565 3.31012 0
M  V30 3164 H 292.172 -4.03297 3.00601 0
M  V30 3165 H 291.872 -3.53861 4.69101 0
M  V30 3166 H 293.396 -4.36855 4.26603 0
M  V30 3167 H 294.81 -2.31816 5.24342 0
M  V30 3168 H 293.207 -1.71181 5.75167 0
M  V30 3169 H 294.277 -0.663542 4.80339 0
M  V30 3170 N 295.62 -1.53406 -0.361157 0
M  V30 3171 C 296.868 -1.69467 -1.10115 0
M  V30 3172 C 297.189 -0.451352 -1.89705 0
M  V30 3173 O 296.459 0.534636 -1.88463 0
M  V30 3174 H 295.039 -0.624749 -0.409508 0
M  V30 3175 H 297.701 -1.90609 -0.406699 0
M  V30 3176 H 296.797 -2.55774 -1.78847 0
M  V30 3177 N 297.098 0.621204 -1.44841 0
M  V30 3178 C 298.514 0.94048 -1.28946 0
M  V30 3179 C 298.714 2.00154 -0.23249 0
M  V30 3180 O 297.77 2.49651 0.378237 0
M  V30 3181 C 299.083 1.39433 -2.66419 0
M  V30 3182 C 300.631 1.50927 -2.74208 0
M  V30 3183 C 301.106 1.99692 -4.12174 0
M  V30 3184 N 302.597 2.06947 -4.144 0
M  V30 3185 C 303.332 2.45871 -5.1801 0
M  V30 3186 N 302.828 2.83862 -6.31977 0
M  V30 3187 N 304.621 2.46092 -5.05366 0
M  V30 3188 H 296.772 -0.0803548 -2.12248 0
M  V30 3189 H 299.035 0.0266913 -0.947624 0
M  V30 3190 H 298.741 0.688925 -3.44887 0
M  V30 3191 H 298.615 2.36347 -2.93973 0
M  V30 3192 H 301.002 2.20561 -1.96053 0
M  V30 3193 H 301.083 0.523627 -2.50383 0
M  V30 3194 H 300.727 1.30649 -4.90809 0
M  V30 3195 H 300.657 2.99146 -4.33381 0
M  V30 3196 H 303.148 1.80232 -3.32152 0
M  V30 3197 H 303.461 3.12405 -7.0684 0
M  V30 3198 H 301.806 2.8159 -6.35399 0
M  V30 3199 H 304.997 2.1581 -4.15384 0
M  V30 3200 H 305.17 2.76102 -5.86235 0
M  V30 3201 N 298.576 1.31904 0.862503 0
M  V30 3202 C 299.523 1.20182 1.9704 0
M  V30 3203 C 300.493 0.0858247 1.65878 0
M  V30 3204 O 301.678 0.26 1.8902 0
M  V30 3205 C 298.818 0.922797 3.32533 0
M  V30 3206 C 297.931 2.12284 3.76244 0
M  V30 3207 C 297.066 1.77996 5.00491 0
M  V30 3208 C 296.105 2.94366 5.36671 0
M  V30 3209 N 295.242 2.60223 6.52095 0
M  V30 3210 H 300.082 2.14951 2.06398 0
M  V30 3211 H 297.619 1.06917 1.01031 0
M  V30 3212 H 299.577 0.741548 4.10557 0
M  V30 3213 H 298.207 0.0119227 3.22798 0
M  V30 3214 H 297.259 2.41461 2.9394 0
M  V30 3215 H 298.571 2.99357 3.98982 0
M  V30 3216 H 297.725 1.56377 5.862 0
M  V30 3217 H 296.464 0.881252 4.79672 0
M  V30 3218 H 295.469 3.16625 4.49476 0
M  V30 3219 H 296.694 3.84957 5.59451 0
M  V30 3220 H 294.64 1.72884 6.32809 0
M  V30 3221 H 294.557 3.40827 6.74814 0
M  V30 3222 H 295.825 2.42016 7.40978 0
M  V30 3223 N 300.054 -1.07777 1.14986 0
M  V30 3224 C 301.302 -1.79934 0.920235 0
M  V30 3225 C 301.623 -1.86955 -0.554336 0
M  V30 3226 O 300.893 -1.36731 -1.40291 0
M  V30 3227 H 299.473 -0.666424 0.337473 0
M  V30 3228 H 302.135 -1.3027 1.44968 0
M  V30 3229 H 301.231 -2.82539 1.32583 0
M  V30 3230 N 301.532 -0.945985 -1.26051 0
M  V30 3231 C 302.462 -0.477172 -2.28572 0
M  V30 3232 C 303.443 0.472032 -1.63419 0
M  V30 3233 O 304.628 0.372853 -1.90587 0
M  V30 3234 C 301.758 0.253975 -3.4637 0
M  V30 3235 C 300.712 -0.609135 -4.23643 0
M  V30 3236 C 300.038 0.252252 -5.34105 0
M  V30 3237 C 301.338 -1.8829 -4.8718 0
M  V30 3238 H 303.032 -1.33402 -2.68038 0
M  V30 3239 H 300.578 -0.642904 -1.28852 0
M  V30 3240 H 302.531 0.593016 -4.17207 0
M  V30 3241 H 301.255 1.145 -3.05871 0
M  V30 3242 H 299.914 -0.931138 -3.54578 0
M  V30 3243 H 299.562 1.14278 -4.89846 0
M  V30 3244 H 299.262 -0.32188 -5.86718 0
M  V30 3245 H 300.786 0.586454 -6.07777 0
M  V30 3246 H 302.2 -1.61081 -5.50205 0
M  V30 3247 H 300.597 -2.40199 -5.49931 0
M  V30 3248 H 301.667 -2.59134 -4.09851 0
M  V30 3249 N 303.011 1.40521 -0.713556 0
M  V30 3250 C 303.921 2.34522 -0.0606667 0
M  V30 3251 C 304.937 1.57193 0.74607 0
M  V30 3252 O 306.113 1.89591 0.679493 0
M  V30 3253 C 303.178 3.36081 0.851491 0
M  V30 3254 C 302.239 4.29286 0.0349339 0
M  V30 3255 C 301.472 5.25994 0.903649 0
M  V30 3256 O 301.695 5.28616 2.14292 0
M  V30 3257 O 300.629 6.00918 0.343723 0
M  V30 3258 H 304.455 2.91968 -0.835972 0
M  V30 3259 H 302.04 1.41681 -0.47402 0
M  V30 3260 H 303.922 3.98369 1.37404 0
M  V30 3261 H 302.597 2.81052 1.60598 0
M  V30 3262 H 301.504 3.70289 -0.532633 0
M  V30 3263 H 302.837 4.87462 -0.681287 0
M  V30 3264 N 304.489 0.459591 1.5075 0
M  V30 3265 C 305.737 -0.0991532 2.01857 0
M  V30 3266 C 306.058 -1.41247 1.34441 0
M  V30 3267 O 305.328 -1.89775 0.486022 0
M  V30 3268 H 303.908 -0.039633 0.745948 0
M  V30 3269 H 306.57 0.607387 1.85194 0
M  V30 3270 H 305.666 -0.258998 3.11023 0
M  V30 3271 N 305.967 -1.56429 0.191757 0
M  V30 3272 C 306.9 -2.14829 -0.76967 0
M  V30 3273 C 307.878 -1.08405 -1.2119 0
M  V30 3274 O 309.062 -1.36498 -1.30002 0
M  V30 3275 C 306.189 -2.70446 -2.03903 0
M  V30 3276 C 305.235 -3.89428 -1.7392 0
M  V30 3277 S 306.068 -5.28048 -0.890265 0
M  V30 3278 C 307.224 -5.87085 -2.16984 0
M  V30 3279 H 307.457 -2.96042 -0.273204 0
M  V30 3280 H 304.99 -1.54383 -0.0231975 0
M  V30 3281 H 306.948 -3.03134 -2.76803 0
M  V30 3282 H 305.609 -1.89281 -2.50662 0
M  V30 3283 H 304.802 -4.26742 -2.68155 0
M  V30 3284 H 304.404 -3.57732 -1.09103 0
M  V30 3285 H 306.696 -6.01244 -3.12269 0
M  V30 3286 H 307.639 -6.83747 -1.84108 0
M  V30 3287 H 308.047 -5.15663 -2.29678 0
M  V30 3288 N 307.445 0.0818655 -1.57387 0
M  V30 3289 C 308.694 0.781681 -1.85937 0
M  V30 3290 C 309.007 1.79246 -0.782957 0
M  V30 3291 O 310.213 2.54112 -0.955987 0
M  V30 3292 C 308.669 1.44109 -3.29789 0
M  V30 3293 C 308.277 0.469396 -4.45534 0
M  V30 3294 C 310.021 2.12386 -3.67549 0
M  V30 3295 C 307.928 1.13415 -5.80423 0
M  V30 3296 H 306.858 0.295682 -0.693605 0
M  V30 3297 H 309.509 0.0348051 -1.83467 0
M  V30 3298 H 307.891 2.23588 -3.2684 0
M  V30 3299 H 309.065 -0.294856 -4.59856 0
M  V30 3300 H 307.38 -0.108383 -4.16259 0
M  V30 3301 H 309.977 2.62878 -4.65617 0
M  V30 3302 H 310.32 2.91877 -2.96839 0
M  V30 3303 H 310.853 1.39751 -3.72444 0
M  V30 3304 H 307.592 0.379771 -6.54399 0
M  V30 3305 H 307.112 1.8695 -5.69921 0
M  V30 3306 H 308.791 1.65686 -6.25426 0
M  V30 3307 N 308.923 1.53595 0.353017 0
M  V30 3308 C 310.339 1.43648 0.695516 0
M  V30 3309 C 310.539 0.585617 1.92802 0
M  V30 3310 O 309.595 0.0729223 2.52395 0
M  V30 3311 C 310.908 2.8701 0.896991 0
M  V30 3312 C 312.456 2.96723 0.996209 0
M  V30 3313 C 312.931 4.41173 1.23007 0
M  V30 3314 N 314.422 4.44657 1.29749 0
M  V30 3315 C 315.157 5.53547 1.49577 0
M  V30 3316 N 314.653 6.72461 1.66639 0
M  V30 3317 N 316.446 5.41145 1.52048 0
M  V30 3318 H 308.597 2.07415 -0.457481 0
M  V30 3319 H 310.86 0.9372 -0.142687 0
M  V30 3320 H 310.566 3.51644 0.0629938 0
M  V30 3321 H 310.44 3.31401 1.80148 0
M  V30 3322 H 312.827 2.32235 1.82074 0
M  V30 3323 H 312.908 2.55707 0.0688331 0
M  V30 3324 H 312.552 5.06238 0.410505 0
M  V30 3325 H 312.482 4.79772 2.17086 0
M  V30 3326 H 314.973 3.58963 1.18126 0
M  V30 3327 H 315.286 7.51214 1.81378 0
M  V30 3328 H 313.631 6.75423 1.63794 0
M  V30 3329 H 316.822 4.47205 1.38294 0
M  V30 3330 H 316.995 6.26068 1.67159 0
M  V30 3331 N 310.401 -0.613514 1.45168 0
M  V30 3332 C 311.348 -1.72456 1.53387 0
M  V30 3333 C 312.318 -1.6169 0.380191 0
M  V30 3334 O 313.503 -1.81356 0.592836 0
M  V30 3335 C 310.643 -3.10753 1.50088 0
M  V30 3336 C 309.756 -3.32368 2.75963 0
M  V30 3337 C 308.891 -4.60737 2.64376 0
M  V30 3338 C 307.93 -4.7559 3.85332 0
M  V30 3339 N 307.067 -5.95253 3.72315 0
M  V30 3340 H 311.907 -1.64768 2.48305 0
M  V30 3341 H 309.444 -0.803503 1.23216 0
M  V30 3342 H 311.402 -3.90758 1.46164 0
M  V30 3343 H 310.032 -3.17413 0.587243 0
M  V30 3344 H 309.084 -2.4618 2.89999 0
M  V30 3345 H 310.396 -3.39218 3.65695 0
M  V30 3346 H 309.55 -5.48928 2.58385 0
M  V30 3347 H 308.289 -4.56275 1.72233 0
M  V30 3348 H 307.294 -3.85824 3.91688 0
M  V30 3349 H 308.519 -4.81854 4.78533 0
M  V30 3350 H 306.465 -5.91847 2.82937 0
M  V30 3351 H 306.382 -6.03236 4.55677 0
M  V30 3352 H 307.65 -6.85958 3.70246 0
M  V30 3353 N 311.879 -1.3236 -0.855495 0
M  V30 3354 C 313.295 -1.11332 -1.14356 0
M  V30 3355 C 313.495 0.106751 -2.01217 0
M  V30 3356 O 312.551 0.791891 -2.39761 0
M  V30 3357 C 313.864 -2.39237 -1.82171 0
M  V30 3358 C 315.412 -2.44986 -1.9481 0
M  V30 3359 C 315.887 -3.7281 -2.66039 0
M  V30 3360 N 317.378 -3.73787 -2.73565 0
M  V30 3361 C 318.113 -4.69394 -3.29327 0
M  V30 3362 N 317.609 -5.75367 -3.85907 0
M  V30 3363 N 319.402 -4.56893 -3.27423 0
M  V30 3364 H 311.553 -2.10586 -0.277027 0
M  V30 3365 H 313.816 -0.929701 -0.185364 0
M  V30 3366 H 313.522 -3.28431 -1.25802 0
M  V30 3367 H 313.396 -2.50134 -2.82335 0
M  V30 3368 H 315.783 -1.56252 -2.50338 0
M  V30 3369 H 315.864 -2.38043 -0.936448 0
M  V30 3370 H 315.508 -4.61918 -2.11174 0
M  V30 3371 H 315.438 -3.77024 -3.67642 0
M  V30 3372 H 317.929 -2.97189 -2.33424 0
M  V30 3373 H 318.242 -6.44378 -4.26611 0
M  V30 3374 H 316.587 -5.79123 -3.84242 0
M  V30 3375 H 319.778 -3.73269 -2.82467 0
M  V30 3376 H 319.951 -5.31577 -3.7058 0
M  V30 3377 N 313.357 1.07166 -1.15556 0
M  V30 3378 C 314.582 1.84053 -0.955988 0
M  V30 3379 C 315.007 1.81586 0.490739 0
M  V30 3380 O 314.365 1.21018 1.34997 0
M  V30 3381 C 314.413 3.28957 -1.47714 0
M  V30 3382 O 313.517 4.06795 -0.677593 0
M  V30 3383 H 312.858 0.569842 -0.340847 0
M  V30 3384 H 315.388 1.35178 -1.53584 0
M  V30 3385 H 315.398 3.79788 -1.4908 0
M  V30 3386 H 314.073 3.30068 -2.53037 0
M  V30 3387 H 312.65 3.6561 -0.733721 0
M  V30 3388 N 314.835 0.952656 1.25548 0
M  V30 3389 C 316.083 0.605176 1.92826 0
M  V30 3390 C 316.404 -0.860261 1.74999 0
M  V30 3391 O 315.674 -1.6125 1.11244 0
M  V30 3392 H 314.254 0.220832 0.713612 0
M  V30 3393 H 316.916 1.21047 1.52754 0
M  V30 3394 H 316.012 0.832798 3.00784 0
M  V30 3395 N 316.313 -1.40141 0.720998 0
M  V30 3396 C 317.561 -2.0039 0.262323 0
M  V30 3397 C 317.882 -1.57469 -1.15015 0
M  V30 3398 O 317.152 -0.816582 -1.78069 0
M  V30 3399 H 315.732 -0.741063 0.093996 0
M  V30 3400 H 318.394 -1.71398 0.927835 0
M  V30 3401 H 317.49 -3.10658 0.299671 0
M  V30 3402 N 317.792 -0.46758 -1.50504 0
M  V30 3403 C 318.742 0.34698 -2.25344 0
M  V30 3404 C 319.726 0.964469 -1.2879 0
M  V30 3405 O 320.918 0.8776 -1.53711 0
M  V30 3406 C 318.047 1.43042 -3.1208 0
M  V30 3407 C 317.133 0.82084 -4.16081 0
M  V30 3408 N 317.524 -0.0567602 -5.05768 0
M  V30 3409 C 315.822 1.08517 -4.32597 0
M  V30 3410 C 316.523 -0.402343 -5.80307 0
M  V30 3411 N 315.499 0.221607 -5.43148 0
M  V30 3412 H 319.301 -0.329129 -2.92051 0
M  V30 3413 H 316.815 -0.281508 -1.59942 0
M  V30 3414 H 318.812 2.02712 -3.64299 0
M  V30 3415 H 317.472 2.10856 -2.46921 0
M  V30 3416 H 318.483 -0.425349 -5.1615 0
M  V30 3417 H 315.16 1.75855 -3.78657 0
M  V30 3418 H 316.55 -1.11834 -6.62528 0
M  V30 3419 N 319.27 1.56325 -0.20005 0
M  V30 3420 C 320.686 1.58839 0.155716 0
M  V30 3421 C 320.886 1.21636 1.60645 0
M  V30 3422 O 319.942 0.941437 2.34293 0
M  V30 3423 C 321.255 3.0032 -0.151124 0
M  V30 3424 C 322.803 3.12866 -0.0916284 0
M  V30 3425 C 323.278 4.56488 -0.371845 0
M  V30 3426 N 324.769 4.62089 -0.320641 0
M  V30 3427 C 325.504 5.71116 -0.511243 0
M  V30 3428 N 325 6.88592 -0.762461 0
M  V30 3429 N 326.793 5.60335 -0.445157 0
M  V30 3430 H 318.944 1.78788 -1.14668 0
M  V30 3431 H 321.207 0.829996 -0.458051 0
M  V30 3432 H 320.913 3.32117 -1.15721 0
M  V30 3433 H 320.787 3.73257 0.543986 0
M  V30 3434 H 323.174 2.80878 0.905065 0
M  V30 3435 H 323.255 2.42304 -0.81989 0
M  V30 3436 H 322.899 4.89189 -1.36588 0
M  V30 3437 H 322.829 5.25246 0.377362 0
M  V30 3438 H 325.32 3.77665 -0.13329 0
M  V30 3439 H 325.633 7.67581 -0.896576 0
M  V30 3440 H 323.978 6.90387 -0.799412 0
M  V30 3441 H 327.169 4.67436 -0.249278 0
M  V30 3442 H 327.342 6.45243 -0.597116 0
M  V30 3443 N 320.748 -0.0735177 1.57428 0
M  V30 3444 C 321.994 -0.774145 1.87443 0
M  V30 3445 C 322.327 -1.77311 0.792103 0
M  V30 3446 O 321.602 -1.93492 -0.197793 0
M  V30 3447 C 321.885 -1.48367 3.28115 0
M  V30 3448 C 321.738 -0.501227 4.46999 0
M  V30 3449 C 323.057 -2.429 3.66998 0
M  V30 3450 H 320.176 -0.279971 0.681752 0
M  V30 3451 H 322.818 -0.0373616 1.89963 0
M  V30 3452 H 320.968 -2.11171 3.26097 0
M  V30 3453 H 322.64 0.121468 4.6114 0
M  V30 3454 H 320.883 0.183593 4.33411 0
M  V30 3455 H 321.554 -1.03526 5.42205 0
M  V30 3456 H 324.03 -1.90175 3.70098 0
M  V30 3457 H 322.906 -2.89549 4.66318 0
M  V30 3458 H 323.167 -3.27628 2.96837 0
M  V30 3459 N 322.226 -1.5378 -0.344866 0
M  V30 3460 C 323.637 -1.62428 -0.920552 0
M  V30 3461 C 323.988 -0.504747 -1.89596 0
M  V30 3462 O 323.113 0.365711 -2.13287 0
M  V30 3463 C 323.708 -2.94419 -1.67639 0
M  V30 3464 C 322.267 -3.05333 -2.20111 0
M  V30 3465 C 321.414 -2.57866 -1.01982 0
M  V30 3466 H 324.365 -1.58222 -0.123042 0
M  V30 3467 H 324.386 -2.83384 -2.53917 0
M  V30 3468 H 323.898 -3.7588 -0.966224 0
M  V30 3469 H 321.999 -2.28502 -2.94308 0
M  V30 3470 H 322.112 -4.10778 -2.46573 0
M  V30 3471 H 320.476 -2.13241 -1.39285 0
M  V30 3472 H 321.259 -3.41765 -0.324308 0
M  V30 3473 N 323.704 0.605807 -1.45491 0
M  V30 3474 C 324.952 1.36207 -1.49305 0
M  V30 3475 C 325.273 1.94519 -0.136863 0
M  V30 3476 O 324.543 1.77261 0.833983 0
M  V30 3477 H 323.123 0.50565 -0.549843 0
M  V30 3478 H 325.785 0.711239 -1.81459 0
M  V30 3479 H 324.881 2.18058 -2.23287 0
M  V30 3480 N 325.182 1.32811 0.848464 0
M  V30 3481 C 326.112 1.24882 1.97299 0
M  V30 3482 C 327.093 0.131357 1.69592 0
M  V30 3483 O 328.278 0.319553 1.91553 0
M  V30 3484 C 325.408 0.97746 3.33261 0
M  V30 3485 C 324.362 2.05682 3.75338 0
M  V30 3486 C 323.688 1.63777 5.09 0
M  V30 3487 C 324.988 3.47254 3.90144 0
M  V30 3488 H 326.682 2.18966 2.04191 0
M  V30 3489 H 324.228 1.05413 0.981029 0
M  V30 3490 H 326.181 0.908513 4.1149 0
M  V30 3491 H 324.905 0.000980011 3.266 0
M  V30 3492 H 323.564 2.11603 2.99366 0
M  V30 3493 H 323.212 0.648569 4.98801 0
M  V30 3494 H 322.912 2.36 5.38124 0
M  V30 3495 H 324.436 1.5833 5.89715 0
M  V30 3496 H 325.85 3.43888 4.58709 0
M  V30 3497 H 324.247 4.1788 4.30693 0
M  V30 3498 H 325.317 3.86462 2.92874 0
M  V30 3499 N 326.66 -1.06551 1.16123 0
M  V30 3500 C 327.888 -1.83005 0.965237 0
M  V30 3501 C 328.303 -1.82423 -0.486542 0
M  V30 3502 O 327.66 -1.24152 -1.33763 0
M  V30 3503 C 327.711 -3.29733 1.48183 0
M  V30 3504 O 327.432 -3.30416 2.87674 0
M  V30 3505 C 328.933 -4.22926 1.32848 0
M  V30 3506 H 326.153 -0.577118 0.342309 0
M  V30 3507 H 328.697 -1.3445 1.54089 0
M  V30 3508 H 326.852 -3.75609 0.948517 0
M  V30 3509 H 327.266 -4.22149 3.11272 0
M  V30 3510 H 328.74 -5.23916 1.73827 0
M  V30 3511 H 329.217 -4.38346 0.273692 0
M  V30 3512 H 329.823 -3.82894 1.85127 0
M  V30 3513 N 328.138 -0.959301 -1.25041 0
M  V30 3514 C 329.378 -0.624343 -1.94631 0
M  V30 3515 C 329.742 0.82403 -1.73418 0
M  V30 3516 O 330.943 1.26881 -2.3697 0
M  V30 3517 C 329.214 -0.978805 -3.43736 0
M  V30 3518 S 330.773 -0.757127 -4.32219 0
M  V30 3519 H 327.591 -0.229327 -0.673001 0
M  V30 3520 H 330.193 -1.23447 -1.51595 0
M  V30 3521 H 328.897 -2.02997 -3.56679 0
M  V30 3522 H 328.428 -0.359117 -3.91757 0
M  V30 3523 H 330.443 0.369759 -4.9482 0
M  V30 3524 N 329.616 1.39756 -0.72842 0
M  V30 3525 C 330.856 2.025 -0.278078 0
M  V30 3526 C 331.22 1.5654 1.11173 0
M  V30 3527 O 332.421 2.11435 1.65978 0
M  V30 3528 C 330.692 3.55489 -0.369139 0
M  V30 3529 S 332.251 4.388 0.00232983 0
M  V30 3530 H 329.069 0.702534 -0.109391 0
M  V30 3531 H 331.671 1.70672 -0.95348 0
M  V30 3532 H 330.375 3.86429 -1.38204 0
M  V30 3533 H 329.906 3.92061 0.324308 0
M  V30 3534 H 331.921 4.80954 1.22055 0
M  V30 3535 N 331.094 0.475555 1.50254 0
M  V30 3536 C 332.342 -0.077738 2.0195 0
M  V30 3537 C 332.663 -1.39813 1.35931 0
M  V30 3538 O 331.933 -1.89249 0.506123 0
M  V30 3539 H 330.513 -0.031719 0.746326 0
M  V30 3540 H 333.175 0.626995 1.84539 0
M  V30 3541 H 332.271 -0.225995 3.11281 0
M  V30 3542 N 332.573 -1.56217 0.208337 0
M  V30 3543 C 333.989 -1.58919 -0.14729 0
M  V30 3544 C 334.189 -1.22486 -1.59998 0
M  V30 3545 O 333.245 -0.953849 -2.3379 0
M  V30 3546 C 334.558 -3.00236 0.167048 0
M  V30 3547 C 336.106 -3.12813 0.108219 0
M  V30 3548 C 336.581 -4.56284 0.396049 0
M  V30 3549 N 338.072 -4.61912 0.345142 0
M  V30 3550 C 338.807 -5.70837 0.541523 0
M  V30 3551 N 338.303 -6.88178 0.798968 0
M  V30 3552 N 340.096 -5.60091 0.474867 0
M  V30 3553 H 332.247 -1.78177 1.15614 0
M  V30 3554 H 334.51 -0.827555 0.462446 0
M  V30 3555 H 334.216 -3.31499 1.1748 0
M  V30 3556 H 334.09 -3.7354 -0.524184 0
M  V30 3557 H 336.477 -2.81354 -0.890157 0
M  V30 3558 H 336.558 -2.41866 0.832729 0
M  V30 3559 H 336.202 -4.88458 1.3918 0
M  V30 3560 H 336.132 -5.25439 -0.349502 0
M  V30 3561 H 338.623 -3.77589 0.153316 0
M  V30 3562 H 338.936 -7.67095 0.93727 0
M  V30 3563 H 337.281 -6.89953 0.836013 0
M  V30 3564 H 340.472 -4.67297 0.274064 0
M  V30 3565 H 340.645 -6.44917 0.631326 0
M  V30 3566 N 334.051 0.0651679 -1.57465 0
M  V30 3567 C 335.328 0.79644 -1.78651 0
M  V30 3568 C 335.708 1.95454 -0.797566 0
M  V30 3569 O 335.056 2.27882 0.167946 0
M  V30 3570 C 335.266 1.26322 -3.25337 0
M  V30 3571 C 336.614 1.6939 -3.89348 0
M  V30 3572 O 337.638 1.35872 -3.29268 0
M  V30 3573 O 336.497 2.31471 -4.95059 0
M  V30 3574 H 333.591 0.382157 -0.733407 0
M  V30 3575 H 336.137 0.0447311 -1.69641 0
M  V30 3576 H 334.909 0.434859 -3.88876 0
M  V30 3577 H 334.532 2.07604 -3.39096 0
M  V30 3578 N 335.529 1.53961 0.336706 0
M  V30 3579 C 336.461 1.78751 1.4346 0
M  V30 3580 C 337.474 0.669019 1.48418 0
M  V30 3581 O 338.663 0.945884 1.51378 0
M  V30 3582 C 335.763 1.87844 2.82078 0
M  V30 3583 C 334.936 3.17854 3.00479 0
M  V30 3584 C 333.995 3.17816 4.19379 0
M  V30 3585 O 333.021 3.91511 4.13168 0
M  V30 3586 N 334.223 2.40669 5.2826 0
M  V30 3587 H 336.988 2.73493 1.22563 0
M  V30 3588 H 334.549 1.53096 0.526625 0
M  V30 3589 H 336.541 1.85261 3.59806 0
M  V30 3590 H 335.111 1.00257 2.96086 0
M  V30 3591 H 334.331 3.33504 2.10163 0
M  V30 3592 H 335.619 4.03718 3.0966 0
M  V30 3593 H 335.017 1.8036 5.36178 0
M  V30 3594 H 333.574 2.43877 6.04456 0
M  V30 3595 N 337.007 -0.598083 1.45811 0
M  V30 3596 C 338.253 -1.35882 1.50545 0
M  V30 3597 C 338.586 -1.93616 0.150445 0
M  V30 3598 O 337.861 -1.75604 -0.83628 0
M  V30 3599 C 338.144 -2.49966 2.59208 0
M  V30 3600 C 337.997 -1.97367 4.04186 0
M  V30 3601 C 339.316 -3.52068 2.64076 0
M  V30 3602 H 336.435 -0.492717 0.548087 0
M  V30 3603 H 339.077 -0.673319 1.77669 0
M  V30 3604 H 337.227 -3.08443 2.3621 0
M  V30 3605 H 338.899 -1.43466 4.38423 0
M  V30 3606 H 337.142 -1.283 4.14393 0
M  V30 3607 H 337.813 -2.79649 4.75921 0
M  V30 3608 H 340.289 -3.03448 2.84708 0
M  V30 3609 H 339.165 -4.2937 3.41954 0
M  V30 3610 H 339.426 -4.08304 1.69531 0
M  V30 3611 N 338.485 -1.33259 -0.841409 0
M  V30 3612 C 339.725 -1.25902 -1.61022 0
M  V30 3613 C 340.089 0.173325 -1.91216 0
M  V30 3614 O 341.29 0.370824 -2.6623 0
M  V30 3615 C 339.561 -2.10735 -2.88662 0
M  V30 3616 S 341.12 -2.20541 -3.79351 0
M  V30 3617 H 337.938 -0.447958 -0.552137 0
M  V30 3618 H 340.54 -1.68263 -0.995382 0
M  V30 3619 H 339.244 -3.1384 -2.64448 0
M  V30 3620 H 338.775 -1.69201 -3.55154 0
M  V30 3621 H 340.79 -1.36462 -4.77067 0
M  V30 3622 N 339.963 1.05934 -1.16686 0
M  V30 3623 C 341.193 1.82226 -0.973515 0
M  V30 3624 C 341.601 1.8297 0.481532 0
M  V30 3625 O 340.944 1.25009 1.34604 0
M  V30 3626 C 341.006 3.29897 -1.42858 0
M  V30 3627 C 340.67 3.52849 -2.90425 0
M  V30 3628 C 341.667 3.45595 -3.88407 0
M  V30 3629 C 339.352 3.80053 -3.28428 0
M  V30 3630 C 341.346 3.65217 -5.22394 0
M  V30 3631 C 339.033 3.99325 -4.62583 0
M  V30 3632 C 340.031 3.91905 -5.59374 0
M  V30 3633 O 339.719 4.10647 -6.91104 0
M  V30 3634 H 339.451 0.581314 -0.345036 0
M  V30 3635 H 342.005 1.3453 -1.55212 0
M  V30 3636 H 340.235 3.78472 -0.793477 0
M  V30 3637 H 341.924 3.87692 -1.20207 0
M  V30 3638 H 342.69 3.24564 -3.60393 0
M  V30 3639 H 338.569 3.84936 -2.53664 0
M  V30 3640 H 342.113 3.59341 -5.9793 0
M  V30 3641 H 338.01 4.19846 -4.90306 0
M  V30 3642 H 338.778 4.27915 -6.97733 0
M  V30 3643 N 341.441 0.965919 1.2453 0
M  V30 3644 C 342.857 0.67216 1.44756 0
M  V30 3645 C 343.057 -0.766609 1.86347 0
M  V30 3646 O 342.113 -1.5407 2.00047 0
M  V30 3647 C 343.426 1.65473 2.51076 0
M  V30 3648 C 344.974 1.66716 2.64905 0
M  V30 3649 C 345.449 2.63766 3.74421 0
M  V30 3650 N 346.94 2.62198 3.81846 0
M  V30 3651 C 347.675 3.33966 4.66106 0
M  V30 3652 N 347.171 4.15245 5.54566 0
M  V30 3653 N 348.964 3.22799 4.60171 0
M  V30 3654 H 341.115 1.89553 0.958293 0
M  V30 3655 H 343.378 0.815979 0.482579 0
M  V30 3656 H 343.084 2.68296 2.27399 0
M  V30 3657 H 342.958 1.4261 3.49202 0
M  V30 3658 H 345.345 0.646057 2.87941 0
M  V30 3659 H 345.426 1.93642 1.67142 0
M  V30 3660 H 345.07 3.6601 3.52135 0
M  V30 3661 H 345 2.34121 4.71694 0
M  V30 3662 H 347.491 2.032 3.18619 0
M  V30 3663 H 347.804 4.66898 6.15814 0
M  V30 3664 H 346.149 4.1934 5.54237 0
M  V30 3665 H 349.34 2.58764 3.90075 0
M  V30 3666 H 349.513 3.78994 5.25612 0
M  V30 3667 N 342.919 -1.39368 0.735821 0
M  V30 3668 C 344.165 -2.01272 0.293439 0
M  V30 3669 C 344.52 -1.57344 -1.10728 0
M  V30 3670 O 343.813 -0.792744 -1.74431 0
M  V30 3671 C 344.007 -3.5583 0.334651 0
M  V30 3672 C 343.836 -4.14764 1.73784 0
M  V30 3673 C 342.606 -4.47315 2.35026 0
M  V30 3674 C 344.804 -4.38246 2.69157 0
M  V30 3675 N 342.786 -4.91756 3.6749 0
M  V30 3676 C 344.157 -4.849 3.86357 0
M  V30 3677 C 346.212 -4.20315 2.66908 0
M  V30 3678 C 344.915 -5.15505 5.01645 0
M  V30 3679 C 346.941 -4.52033 3.8134 0
M  V30 3680 C 346.303 -4.98895 4.97276 0
M  V30 3681 H 342.402 -0.766756 0.153652 0
M  V30 3682 H 344.986 -1.69276 0.961967 0
M  V30 3683 H 343.157 -3.87212 -0.303527 0
M  V30 3684 H 344.889 -4.04503 -0.126358 0
M  V30 3685 H 341.644 -4.35143 1.86943 0
M  V30 3686 H 342.068 -5.18333 4.35499 0
M  V30 3687 H 346.71 -3.83287 1.78468 0
M  V30 3688 H 344.428 -5.51437 5.90713 0
M  V30 3689 H 348.014 -4.39781 3.80899 0
M  V30 3690 H 346.894 -5.22973 5.84353 0
M  V30 3691 N 344.397 -0.483516 -1.5 0
M  V30 3692 C 345.622 0.0667119 -2.07293 0
M  V30 3693 C 346.047 1.3164 -1.3436 0
M  V30 3694 O 345.405 1.76945 -0.394987 0
M  V30 3695 C 345.453 0.321126 -3.59167 0
M  V30 3696 O 344.557 1.39927 -3.87936 0
M  V30 3697 H 343.898 -0.0184758 -0.663743 0
M  V30 3698 H 346.428 -0.678125 -1.93035 0
M  V30 3699 H 346.438 0.557906 -4.04168 0
M  V30 3700 H 345.113 -0.592007 -4.11665 0
M  V30 3701 H 343.69 1.14882 -3.54763 0
M  V30 3702 N 345.875 1.56104 -0.216619 0
M  V30 3703 C 346.822 2.2007 0.695531 0
M  V30 3704 C 347.792 1.15471 1.19397 0
M  V30 3705 O 348.977 1.43807 1.25396 0
M  V30 3706 C 346.117 2.88073 1.90021 0
M  V30 3707 C 345.23 4.07253 1.44113 0
M  V30 3708 C 344.365 4.63052 2.603 0
M  V30 3709 C 343.404 5.74545 2.11103 0
M  V30 3710 N 342.541 6.24656 3.20545 0
M  V30 3711 H 347.381 2.97655 0.143327 0
M  V30 3712 H 344.918 1.46982 0.0589934 0
M  V30 3713 H 346.876 3.25681 2.60745 0
M  V30 3714 H 345.506 2.13015 2.42538 0
M  V30 3715 H 344.558 3.75164 0.628999 0
M  V30 3716 H 345.87 4.8783 1.04036 0
M  V30 3717 H 345.024 5.03078 3.39113 0
M  V30 3718 H 343.763 3.81628 3.03663 0
M  V30 3719 H 342.768 5.34027 1.3075 0
M  V30 3720 H 343.993 6.57801 1.68746 0
M  V30 3721 H 341.939 5.46148 3.63399 0
M  V30 3722 H 341.856 7.00343 2.84704 0
M  V30 3723 H 343.124 6.69338 3.99508 0
M  V30 3724 N 347.353 -0.0568162 1.57498 0
M  V30 3725 C 348.769 -0.411933 1.54192 0
M  V30 3726 C 348.969 -1.78287 0.938942 0
M  V30 3727 O 348.025 -2.46483 0.547919 0
M  V30 3728 C 349.338 -0.339244 2.9878 0
M  V30 3729 C 350.886 -0.418348 3.10192 0
M  V30 3730 C 351.361 -0.375407 4.56459 0
M  V30 3731 N 352.852 -0.435038 4.61153 0
M  V30 3732 C 353.587 -0.424265 5.71828 0
M  V30 3733 N 353.083 -0.367418 6.91825 0
M  V30 3734 N 354.876 -0.471938 5.60115 0
M  V30 3735 H 347.027 0.840684 1.95055 0
M  V30 3736 H 349.29 0.316987 0.893433 0
M  V30 3737 H 348.996 0.601742 3.46514 0
M  V30 3738 H 348.87 -1.14371 3.59443 0
M  V30 3739 H 351.257 -1.34976 2.62422 0
M  V30 3740 H 351.338 0.414962 2.52412 0
M  V30 3741 H 350.982 0.552219 5.04889 0
M  V30 3742 H 350.912 -1.22645 5.12119 0
M  V30 3743 H 353.403 -0.482612 3.74806 0
M  V30 3744 H 353.716 -0.363535 7.71944 0
M  V30 3745 H 352.061 -0.333879 6.94198 0
M  V30 3746 H 355.252 -0.514145 4.65268 0
M  V30 3747 H 355.425 -0.460073 6.46365 0
M  V30 3748 N 348.832 -1.54138 -0.328536 0
M  V30 3749 C 350.078 -1.73297 -1.06488 0
M  V30 3750 C 350.433 -0.497958 -1.85844 0
M  V30 3751 O 349.726 0.509591 -1.84699 0
M  V30 3752 C 349.92 -2.9457 -2.02393 0
M  V30 3753 C 349.749 -4.29747 -1.32467 0
M  V30 3754 C 348.519 -4.93987 -1.06324 0
M  V30 3755 C 350.717 -5.08903 -0.743137 0
M  V30 3756 N 348.699 -6.13005 -0.331359 0
M  V30 3757 C 350.07 -6.19836 -0.142602 0
M  V30 3758 C 352.125 -4.93699 -0.64546 0
M  V30 3759 C 350.828 -7.17224 0.546125 0
M  V30 3760 C 352.854 -5.91393 0.0295558 0
M  V30 3761 C 352.216 -7.01674 0.619056 0
M  V30 3762 H 348.315 -0.687017 -0.373539 0
M  V30 3763 H 350.899 -1.91589 -0.346659 0
M  V30 3764 H 349.07 -2.77752 -2.71493 0
M  V30 3765 H 350.802 -3.0238 -2.68977 0
M  V30 3766 H 347.557 -4.53824 -1.35428 0
M  V30 3767 H 347.981 -6.76997 0.0202939 0
M  V30 3768 H 352.623 -4.08589 -1.08695 0
M  V30 3769 H 350.341 -8.01896 0.999459 0
M  V30 3770 H 353.927 -5.81706 0.104705 0
M  V30 3771 H 352.807 -7.75971 1.13309 0
M  V30 3772 N 350.31 0.590341 -1.46126 0
M  V30 3773 C 351.24 1.71032 -1.58966 0
M  V30 3774 C 352.221 1.64302 -0.440335 0
M  V30 3775 O 353.406 1.82436 -0.665634 0
M  V30 3776 C 350.536 3.09665 -1.57241 0
M  V30 3777 C 349.49 3.31221 -2.71066 0
M  V30 3778 C 348.816 4.70303 -2.54399 0
M  V30 3779 C 350.116 3.19796 -4.1295 0
M  V30 3780 H 351.81 1.60543 -2.52718 0
M  V30 3781 H 349.356 0.770933 -1.21625 0
M  V30 3782 H 351.309 3.87831 -1.64819 0
M  V30 3783 H 350.033 3.21036 -0.600289 0
M  V30 3784 H 348.692 2.55452 -2.62944 0
M  V30 3785 H 348.34 4.78429 -1.55288 0
M  V30 3786 H 348.04 4.85679 -3.30741 0
M  V30 3787 H 349.564 5.50647 -2.63857 0
M  V30 3788 H 350.978 3.87815 -4.22223 0
M  V30 3789 H 349.375 3.46696 -4.89818 0
M  V30 3790 H 350.445 2.16983 -4.33643 0
M  V30 3791 N 351.788 1.33704 0.83433 0
M  V30 3792 C 353.034 1.25603 1.59222 0
M  V30 3793 C 353.367 -0.176659 1.93395 0
M  V30 3794 O 352.642 -1.11915 1.59076 0
M  V30 3795 C 352.925 2.13576 2.89926 0
M  V30 3796 C 352.778 3.65326 2.62406 0
M  V30 3797 C 354.097 2.01238 3.91397 0
M  V30 3798 H 351.216 0.457613 0.577719 0
M  V30 3799 H 353.858 1.63848 0.961972 0
M  V30 3800 H 352.008 1.8109 3.43713 0
M  V30 3801 H 353.68 4.08124 2.15017 0
M  V30 3802 H 351.923 3.8698 1.96033 0
M  V30 3803 H 352.594 4.22232 3.55562 0
M  V30 3804 H 355.07 2.29738 3.46929 0
M  V30 3805 H 353.946 2.65036 4.80673 0
M  V30 3806 H 354.207 0.985951 4.30966 0
M  V30 3807 N 353.266 -1.05314 1.17247 0
M  V30 3808 C 354.512 -1.78557 0.961513 0
M  V30 3809 C 354.845 -1.87419 -0.508697 0
M  V30 3810 O 354.12 -1.37307 -1.37757 0
M  V30 3811 C 354.403 -3.22514 1.60176 0
M  V30 3812 C 354.256 -3.21673 3.14399 0
M  V30 3813 C 355.575 -4.20318 1.30463 0
M  V30 3814 H 352.694 -0.6482 0.350723 0
M  V30 3815 H 355.336 -1.23102 1.44727 0
M  V30 3816 H 353.486 -3.69867 1.18871 0
M  V30 3817 H 355.158 -2.82405 3.64753 0
M  V30 3818 H 353.401 -2.60048 3.47214 0
M  V30 3819 H 354.072 -4.23271 3.54324 0
M  V30 3820 H 356.548 -3.81454 1.66229 0
M  V30 3821 H 355.424 -5.19289 1.77848 0
M  V30 3822 H 355.685 -4.41526 0.22521 0
M  V30 3823 N 354.744 -0.972509 -1.24016 0
M  V30 3824 C 355.691 -0.505969 -2.25186 0
M  V30 3825 C 356.661 0.451009 -1.5986 0
M  V30 3826 O 357.846 0.360307 -1.87367 0
M  V30 3827 C 354.986 0.193089 -3.44559 0
M  V30 3828 C 354.099 -0.803222 -4.24467 0
M  V30 3829 C 353.234 -0.0797793 -5.3114 0
M  V30 3830 C 352.273 -1.06583 -6.02749 0
M  V30 3831 N 351.41 -0.372074 -7.01113 0
M  V30 3832 H 356.25 -1.37351 -2.64459 0
M  V30 3833 H 353.787 -0.688419 -1.29997 0
M  V30 3834 H 355.745 0.615125 -4.1264 0
M  V30 3835 H 354.375 1.02455 -3.06109 0
M  V30 3836 H 353.427 -1.34368 -3.55878 0
M  V30 3837 H 354.739 -1.55494 -4.73944 0
M  V30 3838 H 353.893 0.400015 -6.0538 0
M  V30 3839 H 352.632 0.704597 -4.82583 0
M  V30 3840 H 351.637 -1.55645 -5.27309 0
M  V30 3841 H 352.862 -1.85074 -6.53395 0
M  V30 3842 H 350.808 0.393238 -6.5482 0
M  V30 3843 H 350.725 -1.06258 -7.48495 0
M  V30 3844 H 351.993 0.0855932 -7.79453 0
M  V30 3845 N 356.222 1.38976 -0.743202 0
M  V30 3846 C 357.499 1.94351 -0.220705 0
M  V30 3847 C 357.879 1.67935 1.2791 0
M  V30 3848 O 357.227 1.01211 2.04862 0
M  V30 3849 C 357.437 3.44426 -0.563171 0
M  V30 3850 C 358.785 4.2144 -0.517046 0
M  V30 3851 O 359.809 3.52661 -0.500846 0
M  V30 3852 O 358.668 5.44032 -0.518806 0
M  V30 3853 H 355.762 0.825879 -0.043047 0
M  V30 3854 H 358.308 1.48429 -0.822618 0
M  V30 3855 H 357.08 3.5712 -1.59941 0
M  V30 3856 H 356.703 3.97543 0.0672883 0
M  V30 3857 N 357.7 0.491464 1.49741 0
M  V30 3858 C 358.925 -0.0557177 2.07325 0
M  V30 3859 C 359.35 -1.30925 1.35056 0
M  V30 3860 O 358.708 -1.76733 0.404365 0
M  V30 3861 C 358.756 -0.302074 3.59333 0
M  V30 3862 O 357.86 -1.37868 3.88672 0
M  V30 3863 H 357.201 0.0219956 0.663636 0
M  V30 3864 H 359.731 0.688352 1.92673 0
M  V30 3865 H 359.741 -0.536464 4.04458 0
M  V30 3866 H 358.416 0.61383 4.11345 0
M  V30 3867 H 356.993 -1.12999 3.55367 0
M  V30 3868 N 359.178 -1.55987 0.224894 0
M  V30 3869 C 360.425 -1.9839 -0.4059 0
M  V30 3870 C 360.753 -1.11261 -1.59535 0
M  V30 3871 O 360.008 -0.158314 -1.95059 0
M  V30 3872 C 360.307 -3.46394 -0.880106 0
M  V30 3873 C 359.973 -4.5046 0.19918 0
M  V30 3874 C 358.635 -4.7864 0.495661 0
M  V30 3875 C 360.987 -5.12855 0.928939 0
M  V30 3876 C 358.315 -5.66497 1.52636 0
M  V30 3877 C 360.667 -6.01828 1.949 0
M  V30 3878 C 359.331 -6.28351 2.25236 0
M  V30 3879 H 358.601 -0.725961 -0.148529 0
M  V30 3880 H 361.248 -1.88668 0.328113 0
M  V30 3881 H 359.553 -3.53337 -1.69294 0
M  V30 3882 H 361.25 -3.76577 -1.37808 0
M  V30 3883 H 357.84 -4.28579 -0.0420526 0
M  V30 3884 H 362.024 -4.9115 0.713129 0
M  V30 3885 H 357.28 -5.8531 1.76698 0
M  V30 3886 H 361.454 -6.49225 2.51951 0
M  V30 3887 H 359.081 -6.96226 3.05244 0
M  V30 3888 N 360.656 0.0484629 -1.57525 0
M  V30 3889 C 361.586 1.0549 -2.08313 0
M  V30 3890 C 362.567 1.38929 -0.981463 0
M  V30 3891 O 363.752 1.48151 -1.25558 0
M  V30 3892 C 360.882 2.36162 -2.54646 0
M  V30 3893 C 359.836 2.17016 -3.68901 0
M  V30 3894 C 359.162 3.53278 -4.01371 0
M  V30 3895 C 360.462 1.57219 -4.98076 0
M  V30 3896 H 362.156 0.632195 -2.92649 0
M  V30 3897 H 359.702 0.302654 -1.40784 0
M  V30 3898 H 361.655 3.06882 -2.88793 0
M  V30 3899 H 360.379 2.80456 -1.67368 0
M  V30 3900 H 359.038 1.48733 -3.35073 0
M  V30 3901 H 358.686 3.95185 -3.11188 0
M  V30 3902 H 358.386 3.41299 -4.78318 0
M  V30 3903 H 359.91 4.25391 -4.38035 0
M  V30 3904 H 361.324 2.17832 -5.30304 0
M  V30 3905 H 359.721 1.55871 -5.79503 0
M  V30 3906 H 360.791 0.535956 -4.81929 0
M  V30 3907 N 362.134 1.5431 0.320358 0
M  V30 3908 C 363.064 1.86912 1.3995 0
M  V30 3909 C 364.045 0.726211 1.53819 0
M  V30 3910 O 365.23 0.980233 1.67646 0
M  V30 3911 C 362.36 2.09932 2.7667 0
M  V30 3912 C 361.314 3.25776 2.77586 0
M  V30 3913 C 360.64 3.34173 4.17412 0
M  V30 3914 C 361.94 4.6335 2.41048 0
M  V30 3915 H 363.634 2.77292 1.12914 0
M  V30 3916 H 361.18 1.33421 0.541738 0
M  V30 3917 H 363.133 2.31324 3.52232 0
M  V30 3918 H 361.857 1.16304 3.0519 0
M  V30 3919 H 360.516 3.04276 2.04479 0
M  V30 3920 H 360.164 2.38098 4.43078 0
M  V30 3921 H 359.864 4.12033 4.18931 0
M  V30 3922 H 361.388 3.57803 4.94782 0
M  V30 3923 H 362.802 4.84602 3.06324 0
M  V30 3924 H 361.199 5.43782 2.53813 0
M  V30 3925 H 362.269 4.65381 1.36193 0
M  V30 3926 N 363.613 -0.582584 1.46437 0
M  V30 3927 C 364.843 -1.36484 1.55099 0
M  V30 3928 C 365.251 -1.88233 0.191056 0
M  V30 3929 O 364.594 -1.6429 -0.821858 0
M  V30 3930 C 364.656 -2.588 2.49525 0
M  V30 3931 C 364.32 -2.28517 3.95764 0
M  V30 3932 C 365.317 -1.87346 4.84972 0
M  V30 3933 C 363.002 -2.40658 4.40896 0
M  V30 3934 C 364.996 -1.5871 6.17325 0
M  V30 3935 C 362.683 -2.11635 5.73284 0
M  V30 3936 C 363.681 -1.70725 6.61318 0
M  V30 3937 O 363.369 -1.42057 7.91249 0
M  V30 3938 H 363.101 -0.423297 0.527063 0
M  V30 3939 H 365.655 -0.715188 1.92547 0
M  V30 3940 H 363.885 -3.26571 2.07095 0
M  V30 3941 H 365.574 -3.20868 2.48593 0
M  V30 3942 H 366.34 -1.77481 4.5136 0
M  V30 3943 H 362.219 -2.71463 3.72598 0
M  V30 3944 H 365.763 -1.26704 6.85997 0
M  V30 3945 H 361.66 -2.21124 6.06444 0
M  V30 3946 H 362.428 -1.55901 8.03515 0
M  V30 3947 N 365.091 -1.34144 -0.827227 0
M  V30 3948 C 366.024 -1.19707 -1.94282 0
M  V30 3949 C 367.002 -0.0897256 -1.62352 0
M  V30 3950 O 368.186 -0.254095 -1.8678 0
M  V30 3951 C 365.313 -0.838646 -3.28153 0
M  V30 3952 C 364.359 -1.95514 -3.79047 0
M  V30 3953 S 365.192 -3.56793 -3.99323 0
M  V30 3954 C 366.348 -3.22983 -5.36127 0
M  V30 3955 H 366.581 -2.1414 -2.06231 0
M  V30 3956 H 364.114 -1.19121 -0.982321 0
M  V30 3957 H 366.072 -0.638637 -4.05502 0
M  V30 3958 H 364.733 0.0872776 -3.13979 0
M  V30 3959 H 363.926 -1.658 -4.75948 0
M  V30 3960 H 363.528 -2.11241 -3.08631 0
M  V30 3961 H 365.82 -2.74531 -6.19386 0
M  V30 3962 H 366.763 -4.19008 -5.70822 0
M  V30 3963 H 367.171 -2.59276 -5.01434 0
M  V30 3964 N 366.569 1.04691 -1.17803 0
M  V30 3965 C 367.809 1.79352 -0.980423 0
M  V30 3966 C 368.173 1.85853 0.481958 0
M  V30 3967 O 369.374 2.56656 0.798809 0
M  V30 3968 C 367.645 3.19088 -1.6099 0
M  V30 3969 S 369.204 4.10164 -1.55918 0
M  V30 3970 H 366.022 0.617631 -0.352211 0
M  V30 3971 H 368.624 1.25575 -1.49837 0
M  V30 3972 H 367.328 3.11962 -2.66661 0
M  V30 3973 H 366.859 3.77941 -1.09197 0
M  V30 3974 H 368.874 4.92907 -0.570685 0
M  V30 3975 N 368.047 0.979072 1.23499 0
M  V30 3976 C 368.977 0.537606 2.27227 0
M  V30 3977 C 369.958 -0.428539 1.64613 0
M  V30 3978 O 371.143 -0.322191 1.91509 0
M  V30 3979 C 368.273 -0.162052 3.46922 0
M  V30 3980 C 367.227 0.721242 4.21879 0
M  V30 3981 C 366.553 -0.110555 5.34586 0
M  V30 3982 C 367.853 2.01141 4.82016 0
M  V30 3983 H 369.547 1.40462 2.64406 0
M  V30 3984 H 367.093 0.67684 1.27102 0
M  V30 3985 H 369.046 -0.482192 4.18632 0
M  V30 3986 H 367.77 -1.06351 3.08799 0
M  V30 3987 H 366.429 1.02482 3.51984 0
M  V30 3988 H 366.077 -1.0125 4.92704 0
M  V30 3989 H 365.777 0.477325 5.85658 0
M  V30 3990 H 367.301 -0.425107 6.09118 0
M  V30 3991 H 368.715 1.75612 5.45741 0
M  V30 3992 H 367.112 2.54695 5.43369 0
M  V30 3993 H 368.182 2.69909 4.02836 0
M  V30 3994 N 369.525 -1.3858 0.750561 0
M  V30 3995 C 370.435 -2.34278 0.122825 0
M  V30 3996 C 371.451 -1.59116 -0.704131 0
M  V30 3997 O 372.627 -1.91326 -0.628987 0
M  V30 3998 C 369.692 -3.38221 -0.762086 0
M  V30 3999 C 368.753 -4.29227 0.078896 0
M  V30 4000 C 367.986 -5.28205 -0.763874 0
M  V30 4001 O 368.209 -5.34112 -2.00201 0
M  V30 4002 O 367.143 -6.01618 -0.18428 0
M  V30 4003 H 370.969 -2.89649 0.913088 0
M  V30 4004 H 368.554 -1.40374 0.511417 0
M  V30 4005 H 370.436 -4.01872 -1.26793 0
M  V30 4006 H 369.111 -2.85211 -1.5309 0
M  V30 4007 H 368.018 -3.68747 0.630621 0
M  V30 4008 H 369.351 -4.85484 0.810289 0
M  V30 4009 N 371.003 -0.499398 -1.49478 0
M  V30 4010 C 372.231 0.0425456 -2.06856 0
M  V30 4011 C 372.646 1.30964 -1.35992 0
M  V30 4012 O 372.003 1.77172 -0.437762 0
M  V30 4013 C 372.054 0.301735 -3.60239 0
M  V30 4014 O 371.775 -0.915127 -4.28436 0
M  V30 4015 C 373.276 0.887499 -4.34325 0
M  V30 4016 H 370.496 -0.0197482 -0.670709 0
M  V30 4017 H 373.04 -0.696297 -1.92281 0
M  V30 4018 H 371.195 0.990556 -3.74522 0
M  V30 4019 H 371.609 -0.676993 -5.20113 0
M  V30 4020 H 373.083 1.01845 -5.42523 0
M  V30 4021 H 373.56 1.88488 -3.96698 0
M  V30 4022 H 374.166 0.236196 -4.24644 0
M  V30 4023 N 372.481 1.55866 -0.233164 0
M  V30 4024 C 373.729 1.9821 0.394593 0
M  V30 4025 C 374.05 1.12234 1.59463 0
M  V30 4026 O 373.32 0.201981 1.94856 0
M  V30 4027 H 371.9 0.732034 0.148778 0
M  V30 4028 H 374.562 1.92107 -0.32876 0
M  V30 4029 H 373.658 3.03845 0.713063 0
M  V30 4030 N 373.959 -0.0401083 1.57549 0
M  V30 4031 C 374.922 -1.02871 2.04817 0
M  V30 4032 C 375.922 -1.29708 0.950388 0
M  V30 4033 O 377.112 -1.24897 1.21435 0
M  V30 4034 C 374.244 -2.36443 2.45576 0
M  V30 4035 H 375.437 -0.620631 2.93408 0
M  V30 4036 H 372.99 -0.286667 1.53649 0
M  V30 4037 H 373.725 -2.82021 1.60108 0
M  V30 4038 H 373.51 -2.18296 3.25713 0
M  V30 4039 H 375 -3.07441 2.82612 0
M  V30 4040 N 375.437 -1.54477 -0.31217 0
M  V30 4041 C 376.686 -1.72438 -1.04633 0
M  V30 4042 C 376.999 -0.511163 -1.88803 0
M  V30 4043 O 378.205 -0.572341 -2.65399 0
M  V30 4044 C 376.661 -3.05043 -1.9099 0
M  V30 4045 C 376.269 -4.33806 -1.11877 0
M  V30 4046 C 378.013 -3.32364 -2.64073 0
M  V30 4047 C 375.92 -5.57467 -1.97445 0
M  V30 4048 H 374.85 -0.642647 -0.394361 0
M  V30 4049 H 377.501 -1.80966 -0.303929 0
M  V30 4050 H 375.883 -2.90451 -2.69173 0
M  V30 4051 H 377.057 -4.59199 -0.383843 0
M  V30 4052 H 375.372 -4.13336 -0.504252 0
M  V30 4053 H 377.969 -4.21951 -3.28423 0
M  V30 4054 H 378.312 -2.50745 -3.32314 0
M  V30 4055 H 378.845 -3.47875 -1.92944 0
M  V30 4056 H 375.584 -6.41722 -1.33692 0
M  V30 4057 H 375.104 -5.36277 -2.6864 0
M  V30 4058 H 376.783 -5.94303 -2.5576 0
M  V30 4059 N 376.915 0.57481 -1.46744 0
M  V30 4060 C 378.14 1.36341 -1.56288 0
M  V30 4061 C 378.565 1.86954 -0.207347 0
M  V30 4062 O 377.923 1.62006 0.813871 0
M  V30 4063 C 377.971 2.52147 -2.57787 0
M  V30 4064 O 377.075 3.53834 -2.11838 0
M  V30 4065 H 376.416 0.405713 -0.525636 0
M  V30 4066 H 378.946 0.696453 -1.92382 0
M  V30 4067 H 378.956 2.98958 -2.77648 0
M  V30 4068 H 377.631 2.14663 -3.5622 0
M  V30 4069 H 376.208 3.1345 -2.01999 0
M  V30 4070 N 378.394 1.34581 0.820102 0
M  V30 4071 C 379.641 1.27096 1.57648 0
M  V30 4072 C 379.969 -0.158317 1.93855 0
M  V30 4073 O 379.224 -1.12028 1.60463 0
M  V30 4074 C 379.523 2.10997 2.8847 0
M  V30 4075 C 379.189 3.59966 2.71543 0
M  V30 4076 C 377.851 4.00575 2.66634 0
M  V30 4077 C 380.203 4.54548 2.55021 0
M  V30 4078 C 377.531 5.33953 2.43128 0
M  V30 4079 C 379.883 5.88109 2.33047 0
M  V30 4080 C 378.547 6.27878 2.26552 0
M  V30 4081 H 377.817 0.465078 0.576874 0
M  V30 4082 H 380.464 1.6635 0.948671 0
M  V30 4083 H 378.769 1.6458 3.55557 0
M  V30 4084 H 380.466 2.0255 3.46084 0
M  V30 4085 H 377.056 3.27733 2.76205 0
M  V30 4086 H 381.24 4.24069 2.57835 0
M  V30 4087 H 376.496 5.63781 2.3656 0
M  V30 4088 H 380.67 6.60985 2.19251 0
M  V30 4089 H 378.297 7.31162 2.081 0
M  V30 4090 N 379.872 -1.04064 1.18357 0
M  V30 4091 C 381.118 -1.77528 0.980397 0
M  V30 4092 C 381.451 -1.87948 -0.48879 0
M  V30 4093 O 380.726 -1.3876 -1.36293 0
M  V30 4094 C 381.009 -3.20797 1.63588 0
M  V30 4095 C 380.862 -3.1832 3.17793 0
M  V30 4096 C 382.181 -4.18911 1.34914 0
M  V30 4097 H 379.3 -0.644443 0.357578 0
M  V30 4098 H 381.942 -1.2156 1.46024 0
M  V30 4099 H 380.092 -3.68586 1.22788 0
M  V30 4100 H 381.764 -2.78521 3.67728 0
M  V30 4101 H 380.007 -2.56351 3.49952 0
M  V30 4102 H 380.678 -4.19489 3.58794 0
M  V30 4103 H 383.154 -3.7967 1.70265 0
M  V30 4104 H 382.03 -5.17374 1.83346 0
M  V30 4105 H 382.291 -4.41262 0.272027 0
M  V30 4106 N 381.35 -0.985608 -1.22978 0
M  V30 4107 C 382.282 -0.488154 -2.23941 0
M  V30 4108 C 383.295 0.41282 -1.57479 0
M  V30 4109 O 384.484 0.216121 -1.77187 0
M  V30 4110 C 381.584 0.312611 -3.37455 0
M  V30 4111 C 380.757 -0.582741 -4.33501 0
M  V30 4112 C 379.816 0.165064 -5.25941 0
M  V30 4113 O 378.842 -0.447077 -5.67442 0
M  V30 4114 N 380.044 1.44953 -5.62111 0
M  V30 4115 H 382.809 -1.3563 -2.67254 0
M  V30 4116 H 380.37 -0.859477 -1.37203 0
M  V30 4117 H 382.362 0.821357 -3.96277 0
M  V30 4118 H 380.932 1.0818 -2.93285 0
M  V30 4119 H 380.152 -1.27225 -3.73105 0
M  V30 4120 H 381.44 -1.19275 -4.94622 0
M  V30 4121 H 380.838 1.9683 -5.30353 0
M  V30 4122 H 379.395 1.90361 -6.23383 0
M  V30 4123 N 382.828 1.3818 -0.7579 0
M  V30 4124 C 383.758 2.33027 -0.148597 0
M  V30 4125 C 384.739 1.55085 0.69875 0
M  V30 4126 O 385.924 1.83384 0.639053 0
M  V30 4127 C 383.054 3.3928 0.742034 0
M  V30 4128 C 382.008 4.28 -0.00291946 0
M  V30 4129 C 381.334 5.25146 1.00625 0
M  V30 4130 C 382.634 5.08938 -1.17385 0
M  V30 4131 H 384.328 2.84231 -0.940909 0
M  V30 4132 H 381.874 1.36659 -0.453908 0
M  V30 4133 H 383.827 4.046 1.17799 0
M  V30 4134 H 382.551 2.86569 1.56671 0
M  V30 4135 H 381.21 3.64192 -0.419504 0
M  V30 4136 H 380.858 4.68721 1.8251 0
M  V30 4137 H 380.558 5.85361 0.512428 0
M  V30 4138 H 382.082 5.93342 1.44143 0
M  V30 4139 H 383.496 5.67474 -0.815224 0
M  V30 4140 H 381.893 5.7841 -1.59882 0
M  V30 4141 H 382.963 4.42424 -1.98468 0
M  V30 4142 N 384.306 0.507319 1.49211 0
M  V30 4143 C 385.553 -0.0349529 2.0247 0
M  V30 4144 C 385.881 -1.36409 1.38647 0
M  V30 4145 O 385.136 -1.88841 0.513566 0
M  V30 4146 C 385.435 -0.229513 3.56662 0
M  V30 4147 C 385.101 1.02241 4.39156 0
M  V30 4148 C 383.763 1.36557 4.61417 0
M  V30 4149 C 386.115 1.85428 4.871 0
M  V30 4150 C 383.443 2.53999 5.28868 0
M  V30 4151 C 385.795 3.02028 5.55843 0
M  V30 4152 C 384.459 3.36717 5.76349 0
M  V30 4153 H 383.729 -0.0127902 0.74089 0
M  V30 4154 H 386.376 0.668756 1.79443 0
M  V30 4155 H 384.681 -1.0158 3.78403 0
M  V30 4156 H 386.378 -0.663641 3.9547 0
M  V30 4157 H 382.968 0.745124 4.22073 0
M  V30 4158 H 387.152 1.6023 4.69723 0
M  V30 4159 H 382.408 2.81105 5.42946 0
M  V30 4160 H 386.582 3.66808 5.91967 0
M  V30 4161 H 384.209 4.27821 6.28389 0
M  V30 4162 N 385.784 -1.5574 0.241426 0
M  V30 4163 C 387.061 -1.90704 -0.434881 0
M  V30 4164 C 387.441 -1.16145 -1.76277 0
M  V30 4165 O 386.789 -0.277152 -2.26813 0
M  V30 4166 C 386.999 -3.43657 -0.608343 0
M  V30 4167 C 388.347 -4.14806 -0.906725 0
M  V30 4168 O 389.371 -3.49366 -0.694408 0
M  V30 4169 O 388.23 -5.30548 -1.31075 0
M  V30 4170 H 385.324 -0.793592 -0.23268 0
M  V30 4171 H 387.87 -1.67288 0.285086 0
M  V30 4172 H 386.642 -3.89927 0.327505 0
M  V30 4173 H 386.265 -3.72918 -1.37906 0
M  V30 4174 N 387.262 0.0317525 -1.57568 0
M  V30 4175 C 388.673 0.578692 -1.77505 0
M  V30 4176 C 389.024 1.75749 -0.872164 0
M  V30 4177 O 388.149 2.16298 -0.0663106 0
M  V30 4178 C 388.744 1.05658 -3.21904 0
M  V30 4179 C 387.303 1.54906 -3.43047 0
M  V30 4180 C 386.45 0.485939 -2.73009 0
M  V30 4181 H 389.401 -0.194475 -1.57504 0
M  V30 4182 H 389.422 1.92404 -3.28269 0
M  V30 4183 H 388.934 0.198422 -3.87592 0
M  V30 4184 H 387.035 2.42915 -2.82529 0
M  V30 4185 H 387.148 1.59841 -4.5165 0
M  V30 4186 H 385.512 0.940354 -2.36705 0
M  V30 4187 H 386.295 -0.362709 -3.41379 0
M  V30 4188 N 388.74 1.54641 0.303973 0
M  V30 4189 C 389.988 1.73437 1.0375 0
M  V30 4190 C 390.309 0.521449 1.87899 0
M  V30 4191 O 389.579 -0.46432 1.90318 0
M  V30 4192 H 388.159 0.639518 0.386039 0
M  V30 4193 H 390.821 1.91988 0.335675 0
M  V30 4194 H 389.917 2.62235 1.69231 0
M  V30 4195 N 390.218 -0.567019 1.47046 0
M  V30 4196 C 391.465 -1.32462 1.53167 0
M  V30 4197 C 391.793 -1.93571 0.189841 0
M  V30 4198 O 391.048 -1.77865 -0.816243 0
M  V30 4199 C 391.347 -2.4623 2.59047 0
M  V30 4200 C 391.013 -2.03014 4.02612 0
M  V30 4201 C 389.675 -1.90944 4.41694 0
M  V30 4202 C 392.027 -1.69895 4.92732 0
M  V30 4203 C 389.355 -1.44035 5.68745 0
M  V30 4204 C 391.707 -1.2446 6.20236 0
M  V30 4205 C 390.371 -1.10979 6.5821 0
M  V30 4206 H 389.641 -0.484713 0.560477 0
M  V30 4207 H 392.288 -0.636888 1.80599 0
M  V30 4208 H 390.593 -3.20517 2.25335 0
M  V30 4209 H 392.29 -3.04427 2.61008 0
M  V30 4210 H 388.88 -2.13348 3.71726 0
M  V30 4211 H 393.064 -1.78098 4.63244 0
M  V30 4212 H 388.32 -1.32254 5.96925 0
M  V30 4213 H 392.494 -0.978924 6.89485 0
M  V30 4214 H 390.121 -0.744078 7.5655 0
M  V30 4215 N 391.696 -1.35014 -0.812953 0
M  V30 4216 C 392.606 -1.2951 -1.95613 0
M  V30 4217 C 393.622 -0.20107 -1.72834 0
M  V30 4218 O 394.798 -0.42932 -1.96771 0
M  V30 4219 C 391.863 -1.06033 -3.30088 0
M  V30 4220 C 390.924 -2.24688 -3.65805 0
M  V30 4221 C 390.157 -2.02322 -4.93864 0
M  V30 4222 O 390.38 -0.986464 -5.61805 0
M  V30 4223 O 389.314 -2.89525 -5.27692 0
M  V30 4224 H 393.14 -2.25705 -2.03202 0
M  V30 4225 H 390.725 -1.15321 -0.949811 0
M  V30 4226 H 392.607 -0.94763 -4.10607 0
M  V30 4227 H 391.282 -0.128852 -3.23443 0
M  V30 4228 H 390.189 -2.41521 -2.85689 0
M  V30 4229 H 391.522 -3.16261 -3.77147 0
M  V30 4230 N 393.175 1.03435 -1.18907 0
M  V30 4231 C 394.421 1.77005 -0.989798 0
M  V30 4232 C 394.754 1.88205 0.478816 0
M  V30 4233 O 394.029 1.39481 1.35556 0
M  V30 4234 C 394.312 3.19925 -1.65287 0
M  V30 4235 C 394.165 3.1663 -3.19477 0
M  V30 4236 C 395.484 4.18189 -1.37134 0
M  V30 4237 H 392.603 0.642538 -0.360991 0
M  V30 4238 H 395.245 1.20784 -1.46667 0
M  V30 4239 H 393.395 3.67929 -1.24741 0
M  V30 4240 H 395.067 2.76567 -3.692 0
M  V30 4241 H 393.31 2.54491 -3.51307 0
M  V30 4242 H 393.981 4.1758 -3.61013 0
M  V30 4243 H 396.457 3.78761 -1.72276 0
M  V30 4244 H 395.333 5.16394 -1.86087 0
M  V30 4245 H 395.594 4.41112 -0.295424 0
M  V30 4246 N 394.653 0.992116 1.22453 0
M  V30 4247 C 395.585 0.500024 2.23679 0
M  V30 4248 C 396.598 -0.404463 1.57696 0
M  V30 4249 O 397.787 -0.206722 1.77299 0
M  V30 4250 C 394.887 -0.294711 3.37616 0
M  V30 4251 C 394.06 0.605723 4.33186 0
M  V30 4252 C 393.119 -0.13717 5.26021 0
M  V30 4253 O 392.145 0.477164 5.67196 0
M  V30 4254 N 393.347 -1.4197 5.62872 0
M  V30 4255 H 396.112 1.37045 2.66531 0
M  V30 4256 H 393.673 0.866741 1.36745 0
M  V30 4257 H 395.665 -0.800329 3.96707 0
M  V30 4258 H 394.235 -1.06623 2.93854 0
M  V30 4259 H 393.455 1.29202 3.72425 0
M  V30 4260 H 394.743 1.21896 4.93983 0
M  V30 4261 H 394.141 -1.94015 5.31389 0
M  V30 4262 H 392.698 -1.87052 6.24383 0
M  V30 4263 N 396.131 -1.37776 0.765217 0
M  V30 4264 C 397.377 -2.00145 0.327072 0
M  V30 4265 C 397.71 -1.60607 -1.09175 0
M  V30 4266 O 396.985 -0.849127 -1.74986 0
M  V30 4267 C 397.268 -3.57109 0.46319 0
M  V30 4268 C 397.121 -4.06576 1.92395 0
M  V30 4269 C 398.44 -4.39888 -0.136473 0
M  V30 4270 H 395.559 -0.727113 0.120316 0
M  V30 4271 H 398.201 -1.63549 0.967039 0
M  V30 4272 H 396.351 -3.88414 -0.0816358 0
M  V30 4273 H 398.023 -3.85864 2.52798 0
M  V30 4274 H 396.266 -3.59011 2.43503 0
M  V30 4275 H 396.937 -5.15639 1.97028 0
M  V30 4276 H 399.413 -4.14803 0.328317 0
M  V30 4277 H 398.289 -5.48899 -0.0110582 0
M  V30 4278 H 398.55 -4.24758 -1.22608 0
M  V30 4279 N 397.609 -0.515225 -1.4894 0
M  V30 4280 C 398.857 0.0241671 -2.02086 0
M  V30 4281 C 399.178 1.3616 -1.3959 0
M  V30 4282 O 398.448 1.87841 -0.556121 0
M  V30 4283 H 397.028 0.0119203 -0.746905 0
M  V30 4284 H 399.69 -0.675702 -1.82812 0
M  V30 4285 H 398.786 0.143385 -3.1177 0
M  V30 4286 N 399.087 1.5561 -0.249682 0
M  V30 4287 C 400.034 2.21496 0.648694 0
M  V30 4288 C 401.004 1.17977 1.16921 0
M  V30 4289 O 402.189 1.46434 1.22318 0
M  V30 4290 C 399.329 2.92039 1.83868 0
M  V30 4291 C 398.442 4.10219 1.35442 0
M  V30 4292 C 397.577 4.6847 2.50419 0
M  V30 4293 C 396.616 5.78893 1.98869 0
M  V30 4294 N 395.753 6.31315 3.07223 0
M  V30 4295 H 400.593 2.97892 0.0801582 0
M  V30 4296 H 398.13 1.47074 0.0278031 0
M  V30 4297 H 400.088 3.31138 2.53778 0
M  V30 4298 H 398.718 2.18111 2.37965 0
M  V30 4299 H 397.77 3.76413 0.54928 0
M  V30 4300 H 399.082 4.89927 0.936649 0
M  V30 4301 H 398.236 5.10158 3.28366 0
M  V30 4302 H 396.975 3.87984 2.95499 0
M  V30 4303 H 395.98 5.3668 1.19393 0
M  V30 4304 H 397.205 6.61232 1.54755 0
M  V30 4305 H 395.151 5.53733 3.51732 0
M  V30 4306 H 395.068 7.06224 2.69784 0
M  V30 4307 H 396.336 6.77662 3.8522 0
M  V30 4308 N 400.565 -0.0233959 1.57583 0
M  V30 4309 C 401.981 -0.379134 1.55031 0
M  V30 4310 C 402.181 -1.76255 0.976548 0
M  V30 4311 O 401.237 -2.45266 0.600078 0
M  V30 4312 C 402.55 -0.275792 2.99433 0
M  V30 4313 C 404.098 -0.352458 3.11009 0
M  V30 4314 C 404.573 -0.278501 4.57152 0
M  V30 4315 N 406.064 -0.337123 4.61972 0
M  V30 4316 C 406.799 -0.302876 5.726 0
M  V30 4317 N 406.295 -0.220589 6.92449 0
M  V30 4318 N 408.088 -0.353023 5.6099 0
M  V30 4319 H 400.239 0.881869 1.93227 0
M  V30 4320 H 402.502 0.335867 0.886509 0
M  V30 4321 H 402.208 0.675108 3.4516 0
M  V30 4322 H 402.082 -1.06721 3.61788 0
M  V30 4323 H 404.469 -1.29379 2.65226 0
M  V30 4324 H 404.55 0.468409 2.51475 0
M  V30 4325 H 404.194 0.659189 5.03604 0
M  V30 4326 H 404.124 -1.11755 5.14605 0
M  V30 4327 H 406.615 -0.403002 3.75745 0
M  V30 4328 H 406.928 -0.199713 7.72542 0
M  V30 4329 H 405.273 -0.186555 6.9475 0
M  V30 4330 H 408.464 -0.415339 4.66254 0
M  V30 4331 H 408.637 -0.322866 6.47195 0
M  V30 4332 N 402.043 -1.548 -0.295768 0
M  V30 4333 C 403.268 -1.78653 -1.05346 0
M  V30 4334 C 403.693 -0.546894 -1.79974 0
M  V30 4335 O 403.051 0.502763 -1.7419 0
M  V30 4336 C 403.099 -2.99679 -2.00561 0
M  V30 4337 O 402.203 -2.7317 -3.08953 0
M  V30 4338 H 401.544 -0.59116 -0.302367 0
M  V30 4339 H 404.074 -2.01895 -0.331598 0
M  V30 4340 H 404.084 -3.27793 -2.42932 0
M  V30 4341 H 402.759 -3.89562 -1.4565 0
M  V30 4342 H 401.336 -2.56089 -2.71059 0
M  V30 4343 N 403.521 0.559213 -1.47345 0
M  V30 4344 C 404.749 1.34194 -1.57479 0
M  V30 4345 C 405.164 1.87463 -0.224261 0
M  V30 4346 O 404.521 1.64888 0.782185 0
M  V30 4347 C 404.572 2.51324 -2.59843 0
M  V30 4348 O 404.293 2.00256 -3.89653 0
M  V30 4349 C 405.794 3.43563 -2.80142 0
M  V30 4350 H 403.014 0.409136 -0.531835 0
M  V30 4351 H 405.558 0.677609 -1.92947 0
M  V30 4352 H 403.713 3.13699 -2.27314 0
M  V30 4353 H 404.127 2.76708 -4.4557 0
M  V30 4354 H 405.601 4.2217 -3.55635 0
M  V30 4355 H 406.078 3.9698 -1.87892 0
M  V30 4356 H 406.684 2.87005 -3.1386 0
M  V30 4357 N 404.999 1.35443 0.805782 0
M  V30 4358 C 405.909 1.30546 1.94923 0
M  V30 4359 C 406.925 0.210233 1.72725 0
M  V30 4360 O 408.101 0.43975 1.9654 0
M  V30 4361 C 405.166 1.07782 3.29521 0
M  V30 4362 C 404.227 2.26625 3.64609 0
M  V30 4363 C 403.46 2.04938 4.92784 0
M  V30 4364 O 403.683 1.01624 5.61274 0
M  V30 4365 O 402.617 2.9232 5.26149 0
M  V30 4366 H 406.443 2.26779 2.02002 0
M  V30 4367 H 404.028 1.15823 0.943682 0
M  V30 4368 H 405.91 0.969392 4.10098 0
M  V30 4369 H 404.585 0.146003 3.23371 0
M  V30 4370 H 403.492 2.43033 2.84404 0
M  V30 4371 H 404.825 3.18257 3.75464 0
M  V30 4372 N 406.477 -1.02803 1.19454 0
M  V30 4373 C 407.44 -2.09264 0.934955 0
M  V30 4374 C 408.44 -1.60576 -0.0849015 0
M  V30 4375 O 409.63 -1.73554 0.149933 0
M  V30 4376 C 406.762 -3.38482 0.40531 0
M  V30 4377 H 407.955 -2.33726 1.87916 0
M  V30 4378 H 405.508 -1.19426 1.00832 0
M  V30 4379 H 406.243 -3.19689 -0.544899 0
M  V30 4380 H 406.028 -3.75142 1.14065 0
M  V30 4381 H 407.518 -4.16894 0.242806 0
M  V30 4382 N 407.956 -0.998596 -1.21925 0
M  V30 4383 C 409.372 -0.710303 -1.42923 0
M  V30 4384 C 409.572 0.716933 -1.88314 0
M  V30 4385 O 408.628 1.48712 -2.04062 0
M  V30 4386 C 409.941 -1.72072 -2.466 0
M  V30 4387 C 411.489 -1.73681 -2.60392 0
M  V30 4388 C 411.964 -2.73601 -3.67296 0
M  V30 4389 N 413.455 -2.7223 -3.7476 0
M  V30 4390 C 414.19 -3.46206 -4.57087 0
M  V30 4391 N 413.686 -4.29802 -5.43362 0
M  V30 4392 N 415.479 -3.34886 -4.51451 0
M  V30 4393 H 407.63 -1.92028 -0.9077 0
M  V30 4394 H 409.893 -0.828487 -0.460775 0
M  V30 4395 H 409.599 -2.74231 -2.20206 0
M  V30 4396 H 409.473 -1.51818 -3.45299 0
M  V30 4397 H 411.86 -0.722173 -2.86127 0
M  V30 4398 H 411.941 -1.98005 -1.61949 0
M  V30 4399 H 411.585 -3.75217 -3.42307 0
M  V30 4400 H 411.515 -2.46545 -4.65321 0
M  V30 4401 H 414.006 -2.11576 -3.1312 0
M  V30 4402 H 414.319 -4.83061 -6.03218 0
M  V30 4403 H 412.664 -4.33887 -5.42925 0
M  V30 4404 H 415.855 -2.69015 -3.83078 0
M  V30 4405 H 416.028 -3.92796 -5.15379 0
M  V30 4406 N 409.434 1.37368 -0.772513 0
M  V30 4407 C 410.384 2.27613 -0.132823 0
M  V30 4408 C 411.368 1.46138 0.673247 0
M  V30 4409 O 412.56 1.68686 0.536095 0
M  V30 4410 C 409.689 3.35122 0.744864 0
M  V30 4411 C 408.775 4.24044 -0.0690771 0
M  V30 4412 N 409.166 4.93355 -1.1151 0
M  V30 4413 C 407.464 4.45731 0.154782 0
M  V30 4414 C 408.165 5.59 -1.60917 0
M  V30 4415 N 407.141 5.35737 -0.921222 0
M  V30 4416 H 410.943 2.78675 -0.933681 0
M  V30 4417 H 408.457 1.50494 -0.610342 0
M  V30 4418 H 410.454 3.98683 1.21892 0
M  V30 4419 H 409.114 2.85616 1.54446 0
M  V30 4420 H 410.125 4.95785 -1.49726 0
M  V30 4421 H 406.802 4.07096 0.926224 0
M  V30 4422 H 408.192 6.24395 -2.48153 0
M  V30 4423 N 410.912 0.523116 1.48665 0
M  V30 4424 C 412.16 -0.0134497 2.02096 0
M  V30 4425 C 412.481 -1.35418 1.40311 0
M  V30 4426 O 411.751 -1.87543 0.566074 0
M  V30 4427 H 410.331 -0.00795915 0.746958 0
M  V30 4428 H 412.993 0.685388 1.82451 0
M  V30 4429 H 412.089 -0.126849 3.11842 0
M  V30 4430 N 412.39 -1.55475 0.257931 0
M  V30 4431 C 413.636 -1.99502 -0.364266 0
M  V30 4432 C 413.969 -1.146 -1.56782 0
M  V30 4433 O 413.244 -0.211968 -1.93342 0
M  V30 4434 C 413.527 -3.51917 -0.763333 0
M  V30 4435 C 413.38 -4.4758 0.446371 0
M  V30 4436 C 414.699 -4.09742 -1.60623 0
M  V30 4437 H 411.818 -0.725277 -0.130929 0
M  V30 4438 H 414.46 -1.8653 0.361446 0
M  V30 4439 H 412.61 -3.63101 -1.38166 0
M  V30 4440 H 414.282 -4.48362 1.08487 0
M  V30 4441 H 412.525 -4.19947 1.08753 0
M  V30 4442 H 413.196 -5.51862 0.123645 0
M  V30 4443 H 415.672 -4.01727 -1.08418 0
M  V30 4444 H 414.548 -5.16631 -1.85429 0
M  V30 4445 H 414.809 -3.58889 -2.58169 0
M  V30 4446 N 413.868 0.0150385 -1.57593 0
M  V30 4447 C 415.284 0.370907 -1.5523 0
M  V30 4448 C 415.484 1.75735 -0.985882 0
M  V30 4449 O 414.54 2.44944 -0.613077 0
M  V30 4450 C 415.853 0.259908 -2.99575 0
M  V30 4451 C 417.401 0.335959 -3.11192 0
M  V30 4452 C 417.876 0.254253 -4.57294 0
M  V30 4453 N 419.367 0.312618 -4.62144 0
M  V30 4454 C 420.102 0.272505 -5.72752 0
M  V30 4455 N 419.598 0.183864 -6.92556 0
M  V30 4456 N 421.391 0.323267 -5.6117 0
M  V30 4457 H 413.542 -0.892104 -1.92757 0
M  V30 4458 H 415.805 -0.340563 -0.884715 0
M  V30 4459 H 415.511 -0.693403 -3.44797 0
M  V30 4460 H 415.385 1.048 -3.62349 0
M  V30 4461 H 417.772 1.27971 -2.65909 0
M  V30 4462 H 417.853 -0.481739 -2.51223 0
M  V30 4463 H 417.497 -0.685887 -5.03247 0
M  V30 4464 H 417.427 1.09024 -5.15191 0
M  V30 4465 H 419.918 0.38307 -3.75953 0
M  V30 4466 H 420.231 0.15874 -7.72637 0
M  V30 4467 H 418.576 0.149708 -6.94839 0
M  V30 4468 H 421.767 0.390607 -4.66467 0
M  V30 4469 H 421.94 0.288539 -6.47357 0
M  V30 4470 N 415.346 1.54954 0.287554 0
M  V30 4471 C 416.595 1.74081 1.01877 0
M  V30 4472 C 416.908 0.541135 1.87966 0
M  V30 4473 O 418.114 0.614491 2.64455 0
M  V30 4474 C 416.57 3.08042 1.86113 0
M  V30 4475 C 416.178 4.35531 1.04961 0
M  V30 4476 C 417.922 3.36523 2.58752 0
M  V30 4477 C 415.829 5.60538 1.88551 0
M  V30 4478 H 414.759 0.64884 0.384087 0
M  V30 4479 H 417.41 1.81426 0.275101 0
M  V30 4480 H 415.792 2.94696 2.64519 0
M  V30 4481 H 416.966 4.59751 0.31074 0
M  V30 4482 H 415.281 4.14085 0.43843 0
M  V30 4483 H 417.878 4.27122 3.21668 0
M  V30 4484 H 418.221 2.56 3.28283 0
M  V30 4485 H 418.754 3.50901 1.87386 0
M  V30 4486 H 415.493 6.43767 1.23466 0
M  V30 4487 H 415.013 5.40483 2.60074 0
M  V30 4488 H 416.692 5.98297 2.46273 0
M  V30 4489 N 416.824 -0.551391 1.4764 0
M  V30 4490 C 418.101 -1.31229 1.45046 0
M  V30 4491 C 418.481 -2.10563 0.150527 0
M  V30 4492 O 417.829 -2.11374 -0.867956 0
M  V30 4493 C 418.039 -2.21189 2.69956 0
M  V30 4494 C 419.387 -2.82021 3.1741 0
M  V30 4495 O 420.411 -2.31488 2.70724 0
M  V30 4496 O 419.27 -3.73885 3.98588 0
M  V30 4497 H 416.364 -0.591193 0.578291 0
M  V30 4498 H 418.91 -0.569813 1.59847 0
M  V30 4499 H 417.682 -1.62207 3.56096 0
M  V30 4500 H 417.305 -3.02722 2.57769 0
M  V30 4501 N 418.302 -1.35869 -0.798587 0
M  V30 4502 C 419.53 -1.32722 -1.58722 0
M  V30 4503 C 419.945 0.0935631 -1.88568 0
M  V30 4504 O 419.302 1.04784 -1.49421 0
M  V30 4505 C 419.353 -2.13974 -2.91371 0
M  V30 4506 O 419.074 -3.50514 -2.62815 0
M  V30 4507 C 420.575 -2.18504 -3.85708 0
M  V30 4508 H 417.795 -0.45562 -0.492596 0
M  V30 4509 H 420.339 -1.78837 -0.991843 0
M  V30 4510 H 418.494 -1.71438 -3.47402 0
M  V30 4511 H 418.908 -3.92806 -3.47568 0
M  V30 4512 H 420.382 -2.79732 -4.75872 0
M  V30 4513 H 420.859 -1.18597 -4.22885 0
M  V30 4514 H 421.465 -2.61236 -3.35612 0
M  V30 4515 N 419.78 1.02168 -1.19998 0
M  V30 4516 C 421.005 1.79833 -1.03319 0
M  V30 4517 C 421.43 1.83504 0.413281 0
M  V30 4518 O 420.788 1.26635 1.29743 0
M  V30 4519 C 420.836 3.22396 -1.61533 0
M  V30 4520 O 419.94 4.03555 -0.849519 0
M  V30 4521 H 419.281 0.554872 -0.364709 0
M  V30 4522 H 421.811 1.28542 -1.59179 0
M  V30 4523 H 421.821 3.73124 -1.65054 0
M  V30 4524 H 420.496 3.19039 -2.66809 0
M  V30 4525 H 419.073 3.62169 -0.888129 0
M  V30 4526 N 421.258 1.00505 1.21394 0
M  V30 4527 C 422.208 0.536503 2.21598 0
M  V30 4528 C 423.192 -0.401914 1.55799 0
M  V30 4529 O 424.384 -0.226757 1.75541 0
M  V30 4530 C 421.513 -0.135446 3.43033 0
M  V30 4531 C 420.599 0.823992 4.16018 0
M  V30 4532 N 420.99 1.97683 4.6557 0
M  V30 4533 C 419.288 0.642387 4.4135 0
M  V30 4534 C 419.989 2.58003 5.21354 0
M  V30 4535 N 418.965 1.86162 5.1073 0
M  V30 4536 H 422.767 1.41557 2.57563 0
M  V30 4537 H 420.281 0.868878 1.37202 0
M  V30 4538 H 422.278 -0.488584 4.14027 0
M  V30 4539 H 420.938 -1.01049 3.08576 0
M  V30 4540 H 421.949 2.3572 4.61147 0
M  V30 4541 H 418.626 -0.185578 4.17087 0
M  V30 4542 H 420.016 3.555 5.70149 0
M  V30 4543 N 422.737 -1.36956 0.779787 0
M  V30 4544 C 424.153 -1.52817 0.460342 0
M  V30 4545 C 424.353 -1.7361 -1.02283 0
M  V30 4546 O 423.409 -1.76207 -1.80852 0
M  V30 4547 C 424.722 -2.71983 1.28241 0
M  V30 4548 C 426.27 -2.85849 1.27512 0
M  V30 4549 C 426.745 -4.08008 2.08072 0
M  V30 4550 N 428.236 -4.15135 2.05467 0
M  V30 4551 C 428.971 -5.08711 2.64577 0
M  V30 4552 N 428.467 -6.07792 3.32506 0
M  V30 4553 N 430.26 -5.01254 2.54363 0
M  V30 4554 H 422.411 -1.21713 1.74068 0
M  V30 4555 H 424.674 -0.593294 0.739396 0
M  V30 4556 H 424.38 -2.63109 2.33381 0
M  V30 4557 H 424.254 -3.65882 0.917088 0
M  V30 4558 H 426.641 -2.94189 0.231686 0
M  V30 4559 H 426.722 -1.92886 1.68014 0
M  V30 4560 H 426.366 -4.00429 3.12441 0
M  V30 4561 H 426.296 -5.001 1.64947 0
M  V30 4562 H 428.787 -3.44189 1.5602 0
M  V30 4563 H 429.1 -6.75739 3.74963 0
M  V30 4564 H 427.445 -6.08047 3.36606 0
M  V30 4565 H 430.636 -4.22795 2.00902 0
M  V30 4566 H 430.809 -5.73995 3.00722 0
M  V30 4567 N 424.215 -0.530993 -1.48385 0
M  V30 4568 C 425.44 0.000729535 -2.074 0
M  V30 4569 C 425.865 1.27298 -1.3848 0
M  V30 4570 O 425.223 1.75599 -0.451081 0
M  V30 4571 C 425.271 0.206697 -3.60007 0
M  V30 4572 O 424.375 1.27514 -3.92191 0
M  V30 4573 H 423.716 -0.039583 -0.662819 0
M  V30 4574 H 426.246 -0.739194 -1.9078 0
M  V30 4575 H 426.256 0.42904 -4.05738 0
M  V30 4576 H 424.931 -0.722675 -4.09573 0
M  V30 4577 H 423.508 1.03537 -3.58238 0
M  V30 4578 N 425.693 1.55336 -0.266172 0
M  V30 4579 C 426.623 2.25146 0.618981 0
M  V30 4580 C 427.604 1.23845 1.16604 0
M  V30 4581 O 428.789 1.52544 1.20183 0
M  V30 4582 C 425.919 2.96572 1.80728 0
M  V30 4583 C 424.873 4.04726 1.39215 0
M  V30 4584 C 424.199 4.63678 2.66283 0
M  V30 4585 C 425.499 5.19407 0.548942 0
M  V30 4586 H 427.193 2.99377 0.0368116 0
M  V30 4587 H 424.739 1.43991 0.0162651 0
M  V30 4588 H 426.692 3.44116 2.43232 0
M  V30 4589 H 425.416 2.19861 2.41514 0
M  V30 4590 H 424.075 3.57979 0.790351 0
M  V30 4591 H 423.723 3.83646 3.25308 0
M  V30 4592 H 423.423 5.367 2.39222 0
M  V30 4593 H 424.947 5.13967 3.29651 0
M  V30 4594 H 426.361 5.63059 1.07876 0
M  V30 4595 H 424.758 5.98936 0.373593 0
M  V30 4596 H 425.828 4.8295 -0.434394 0
M  V30 4597 N 427.171 -0.0066808 1.57599 0
M  V30 4598 C 428.42 -0.692078 1.89455 0
M  V30 4599 C 428.733 -1.75306 0.867586 0
M  V30 4600 O 429.939 -2.49262 1.07614 0
M  V30 4601 C 428.395 -1.2821 3.36289 0
M  V30 4602 C 428.003 -0.256291 4.47266 0
M  V30 4603 C 429.747 -1.94608 3.77264 0
M  V30 4604 C 427.654 -0.855927 5.85173 0
M  V30 4605 H 426.584 -0.262252 0.706923 0
M  V30 4606 H 429.235 0.052769 1.83424 0
M  V30 4607 H 427.617 -2.0774 3.37135 0
M  V30 4608 H 428.791 0.513923 4.57925 0
M  V30 4609 H 427.106 0.306862 4.15268 0
M  V30 4610 H 429.703 -2.40364 4.77629 0
M  V30 4611 H 430.046 -2.77382 3.10427 0
M  V30 4612 H 430.579 -1.21822 3.78688 0
M  V30 4613 H 427.318 -0.0671161 6.55466 0
M  V30 4614 H 426.838 -1.59546 5.78191 0
M  V30 4615 H 428.517 -1.35658 6.32618 0
M  V30 4616 N 428.649 -1.55105 -0.279332 0
M  V30 4617 C 429.579 -1.90557 -1.34945 0
M  V30 4618 C 430.56 -0.766738 -1.51839 0
M  V30 4619 O 431.745 -1.02434 -1.64988 0
M  V30 4620 C 428.875 -2.17193 -2.71006 0
M  V30 4621 C 427.829 -3.33021 -2.68851 0
M  V30 4622 C 427.155 -3.45123 -4.08405 0
M  V30 4623 C 428.455 -4.69578 -2.28678 0
M  V30 4624 H 430.149 -2.80188 -1.05522 0
M  V30 4625 H 427.695 -1.34811 -0.506173 0
M  V30 4626 H 429.648 -2.40581 -3.45975 0
M  V30 4627 H 428.372 -1.24355 -3.01999 0
M  V30 4628 H 427.031 -3.0959 -1.9634 0
M  V30 4629 H 426.679 -2.49762 -4.3661 0
M  V30 4630 H 426.379 -4.22995 -4.07859 0
M  V30 4631 H 427.903 -3.70796 -4.85121 0
M  V30 4632 H 429.317 -4.92553 -2.93368 0
M  V30 4633 H 427.714 -5.5032 -2.39306 0
M  V30 4634 H 428.784 -4.68828 -1.23807 0
M  V30 4635 N 430.127 0.543554 -1.4793 0
M  V30 4636 C 431.074 1.64942 -1.6144 0
M  V30 4637 C 432.044 1.59692 -0.456903 0
M  V30 4638 O 433.229 1.78321 -0.678688 0
M  V30 4639 C 430.369 3.03238 -1.64744 0
M  V30 4640 C 429.482 3.18823 -2.91506 0
M  V30 4641 C 428.617 4.47599 -2.86057 0
M  V30 4642 C 427.656 4.56664 -4.07584 0
M  V30 4643 N 426.793 5.76811 -4.00292 0
M  V30 4644 H 431.633 1.52733 -2.55884 0
M  V30 4645 H 429.17 0.7438 -1.2691 0
M  V30 4646 H 431.128 3.83339 -1.64641 0
M  V30 4647 H 429.758 3.1425 -0.738017 0
M  V30 4648 H 428.81 2.32064 -3.01414 0
M  V30 4649 H 430.122 3.21384 -3.81463 0
M  V30 4650 H 429.276 5.35975 -2.84281 0
M  V30 4651 H 428.015 4.47538 -1.93807 0
M  V30 4652 H 427.02 3.66697 -4.09651 0
M  V30 4653 H 428.245 4.58474 -5.00978 0
M  V30 4654 H 426.191 5.77673 -3.10853 0
M  V30 4655 H 426.108 5.80808 -4.8394 0
M  V30 4656 H 427.376 6.67512 -4.02553 0
M  V30 4657 N 431.605 1.3629 0.791371 0
M  V30 4658 C 432.845 1.31792 1.56238 0
M  V30 4659 C 433.209 -0.102237 1.91728 0
M  V30 4660 O 434.41 -0.271759 2.67423 0
M  V30 4661 C 432.681 2.21303 2.80642 0
M  V30 4662 S 434.24 2.34468 3.70904 0
M  V30 4663 H 431.058 0.468141 0.535131 0
M  V30 4664 H 433.66 1.71841 0.932246 0
M  V30 4665 H 432.364 3.23439 2.52617 0
M  V30 4666 H 431.895 1.82266 3.4863 0
M  V30 4667 H 433.91 1.54074 4.71673 0
M  V30 4668 N 433.083 -1.0153 1.20538 0
M  V30 4669 C 434.308 -1.79283 1.04271 0
M  V30 4670 C 434.733 -1.8372 -0.403544 0
M  V30 4671 O 434.091 -1.27321 -1.2907 0
M  V30 4672 C 434.139 -3.21535 1.63241 0
M  V30 4673 O 433.243 -4.03099 0.870908 0
M  V30 4674 H 432.584 -0.55293 0.367647 0
M  V30 4675 H 435.114 -1.27696 1.59859 0
M  V30 4676 H 435.124 -3.72243 1.6703 0
M  V30 4677 H 433.799 -3.1762 2.68497 0
M  V30 4678 H 432.376 -3.61693 0.907323 0
M  V30 4679 N 434.561 -1.01147 -1.20859 0
M  V30 4680 C 435.786 -0.716698 -1.94623 0
M  V30 4681 C 436.211 0.715415 -1.73964 0
M  V30 4682 O 435.569 1.49157 -1.03062 0
M  V30 4683 C 435.617 -1.0513 -3.44935 0
M  V30 4684 O 434.721 -0.160131 -4.12089 0
M  V30 4685 H 434.062 -0.266404 -0.608214 0
M  V30 4686 H 436.592 -1.35346 -1.53436 0
M  V30 4687 H 436.602 -1.00086 -3.95533 0
M  V30 4688 H 435.277 -2.09475 -3.59295 0
M  V30 4689 H 433.854 -0.267657 -3.71938 0
M  V30 4690 N 436.039 1.36541 -0.78704 0
M  V30 4691 C 437.269 2.03266 -0.369662 0
M  V30 4692 C 437.677 1.59481 1.01796 0
M  V30 4693 O 437.02 0.778612 1.66383 0
M  V30 4694 C 437.082 3.57779 -0.351371 0
M  V30 4695 C 436.746 4.24756 -1.68617 0
M  V30 4696 C 437.743 4.47811 -2.64124 0
M  V30 4697 C 435.428 4.62277 -1.96481 0
M  V30 4698 C 437.422 5.07464 -3.85693 0
M  V30 4699 C 435.109 5.21649 -3.18317 0
M  V30 4700 C 436.107 5.44182 -4.12741 0
M  V30 4701 O 435.795 6.02307 -5.32429 0
M  V30 4702 H 435.527 0.658977 -0.150751 0
M  V30 4703 H 438.081 1.75548 -1.0664 0
M  V30 4704 H 436.311 3.84606 0.401847 0
M  V30 4705 H 438 4.05879 0.0410147 0
M  V30 4706 H 438.766 4.19221 -2.43883 0
M  V30 4707 H 434.645 4.44065 -1.23805 0
M  V30 4708 H 438.189 5.24968 -4.59407 0
M  V30 4709 H 434.086 5.49664 -3.38437 0
M  V30 4710 H 434.854 6.20775 -5.33461 0
M  V30 4711 N 437.518 0.538854 1.48102 0
M  V30 4712 C 438.934 0.19732 1.58376 0
M  V30 4713 C 439.134 -1.29971 1.5398 0
M  V30 4714 O 438.19 -2.07861 1.43352 0
M  V30 4715 C 439.503 0.807716 2.89649 0
M  V30 4716 C 441.051 0.77726 3.03196 0
M  V30 4717 C 441.526 1.36639 4.37143 0
M  V30 4718 N 443.017 1.32875 4.43732 0
M  V30 4719 C 443.752 1.7544 5.45901 0
M  V30 4720 N 443.248 2.25776 6.54979 0
M  V30 4721 N 445.041 1.66623 5.36836 0
M  V30 4722 H 437.192 1.5117 1.49202 0
M  V30 4723 H 439.455 0.629327 0.708979 0
M  V30 4724 H 439.161 1.85909 2.98548 0
M  V30 4725 H 439.035 0.289975 3.76084 0
M  V30 4726 H 441.422 -0.265374 2.93904 0
M  V30 4727 H 441.503 1.33256 2.18349 0
M  V30 4728 H 441.147 2.408 4.47189 0
M  V30 4729 H 441.077 0.786689 5.20691 0
M  V30 4730 H 443.568 0.96037 3.65493 0
M  V30 4731 H 443.881 2.56226 7.29087 0
M  V30 4732 H 442.226 2.29775 6.55918 0
M  V30 4733 H 445.417 1.27089 4.50517 0
M  V30 4734 H 445.59 2.00115 6.16326 0
M  V30 4735 N 438.996 -1.55193 0.274407 0
M  V30 4736 C 439.928 -2.1989 -0.646595 0
M  V30 4737 C 440.941 -1.1834 -1.11801 0
M  V30 4738 O 442.13 -1.4507 -1.04004 0
M  V30 4739 C 439.23 -2.8104 -1.89393 0
M  V30 4740 C 438.403 -4.08274 -1.56943 0
M  V30 4741 C 437.462 -4.53478 -2.66916 0
M  V30 4742 O 436.488 -5.19267 -2.33132 0
M  V30 4743 N 437.69 -4.2356 -3.9696 0
M  V30 4744 H 440.455 -2.99556 -0.0928686 0
M  V30 4745 H 438.016 -1.61618 0.0954783 0
M  V30 4746 H 440.008 -3.08226 -2.62257 0
M  V30 4747 H 438.578 -2.05372 -2.35672 0
M  V30 4748 H 437.798 -3.88384 -0.674655 0
M  V30 4749 H 439.086 -4.91173 -1.32764 0
M  V30 4750 H 438.484 -3.70799 -4.27229 0
M  V30 4751 H 437.041 -4.55518 -4.66205 0
M  V30 4752 N 440.474 -0.00167713 -1.576 0
M  V30 4753 C 441.437 0.974046 -2.07473 0
M  V30 4754 C 442.437 1.27143 -0.984444 0
M  V30 4755 O 443.627 1.21633 -1.24703 0
M  V30 4756 C 440.759 2.29849 -2.51759 0
M  V30 4757 H 441.952 0.54262 -2.9495 0
M  V30 4758 H 439.505 0.245829 -1.54355 0
M  V30 4759 H 440.24 2.77677 -1.67529 0
M  V30 4760 H 440.025 2.09584 -3.31386 0
M  V30 4761 H 441.515 2.9984 -2.90664 0
M  V30 4762 N 441.952 1.55251 0.271103 0
M  V30 4763 C 443.368 1.47133 0.618393 0
M  V30 4764 C 443.568 0.686994 1.89427 0
M  V30 4765 O 442.624 0.206609 2.51653 0
M  V30 4766 C 443.937 2.91361 0.743593 0
M  V30 4767 C 445.485 3.01587 0.837522 0
M  V30 4768 C 445.96 4.47073 0.994483 0
M  V30 4769 N 447.451 4.50909 1.05996 0
M  V30 4770 C 448.186 5.60698 1.20024 0
M  V30 4771 N 447.682 6.80348 1.30759 0
M  V30 4772 N 449.475 5.48444 1.23149 0
M  V30 4773 H 441.626 2.04698 -0.566784 0
M  V30 4774 H 443.889 0.928319 -0.192165 0
M  V30 4775 H 443.595 3.51483 -0.123493 0
M  V30 4776 H 443.469 3.40484 1.62328 0
M  V30 4777 H 445.856 2.4156 1.69507 0
M  V30 4778 H 445.937 2.55713 -0.0668086 0
M  V30 4779 H 445.581 5.07703 0.141582 0
M  V30 4780 H 445.511 4.90605 1.91349 0
M  V30 4781 H 448.002 3.6472 0.989316 0
M  V30 4782 H 448.315 7.59772 1.41303 0
M  V30 4783 H 446.66 6.83156 1.27761 0
M  V30 4784 H 449.851 4.53907 1.14394 0
M  V30 4785 H 450.024 6.34049 1.33738 0
M  V30 4786 N 443.43 -0.535701 1.48216 0
M  V30 4787 C 444.676 -1.2913 1.57153 0
M  V30 4788 C 445.031 -1.90899 0.239823 0
M  V30 4789 O 444.324 -1.76022 -0.756748 0
M  V30 4790 C 444.518 -2.4068 2.64212 0
M  V30 4791 C 444.347 -1.89844 4.07663 0
M  V30 4792 C 443.117 -1.72708 4.74869 0
M  V30 4793 C 445.315 -1.43031 4.94011 0
M  V30 4794 N 443.297 -1.16437 6.02757 0
M  V30 4795 C 444.668 -0.986691 6.12098 0
M  V30 4796 C 446.723 -1.3128 4.80281 0
M  V30 4797 C 445.426 -0.437231 7.1797 0
M  V30 4798 C 447.452 -0.777346 5.86269 0
M  V30 4799 C 446.814 -0.343774 7.03561 0
M  V30 4800 H 442.913 -0.463753 0.629648 0
M  V30 4801 H 445.497 -0.604736 1.8507 0
M  V30 4802 H 443.668 -3.06839 2.38126 0
M  V30 4803 H 445.4 -3.07706 2.62867 0
M  V30 4804 H 442.155 -1.96061 4.31111 0
M  V30 4805 H 442.579 -0.903281 6.70947 0
M  V30 4806 H 447.221 -1.63408 3.89946 0
M  V30 4807 H 444.939 -0.103621 8.08034 0
M  V30 4808 H 448.525 -0.689688 5.77698 0
M  V30 4809 H 447.405 0.0641219 7.84174 0
M  V30 4810 N 444.908 -1.36708 -0.784132 0
M  V30 4811 C 446.154 -1.32433 -1.54379 0
M  V30 4812 C 446.509 0.0941816 -1.92169 0
M  V30 4813 O 445.802 1.04997 -1.60269 0
M  V30 4814 C 445.996 -2.18571 -2.82774 0
M  V30 4815 C 445.825 -3.68656 -2.57533 0
M  V30 4816 C 444.595 -4.37813 -2.52286 0
M  V30 4817 C 446.793 -4.61802 -2.2637 0
M  V30 4818 N 444.775 -5.7351 -2.18997 0
M  V30 4819 C 446.146 -5.85785 -2.03115 0
M  V30 4820 C 448.201 -4.50313 -2.12421 0
M  V30 4821 C 446.904 -6.99569 -1.67321 0
M  V30 4822 C 448.93 -5.63969 -1.78026 0
M  V30 4823 C 448.292 -6.86994 -1.55622 0
M  V30 4824 H 444.391 -0.539886 -0.565727 0
M  V30 4825 H 446.975 -1.71812 -0.915908 0
M  V30 4826 H 445.146 -1.81429 -3.43421 0
M  V30 4827 H 446.878 -2.05646 -3.48557 0
M  V30 4828 H 443.633 -3.90674 -2.67714 0
M  V30 4829 H 444.057 -6.45189 -2.05084 0
M  V30 4830 H 448.699 -3.55781 -2.28429 0
M  V30 4831 H 446.417 -7.94047 -1.5005 0
M  V30 4832 H 450.003 -5.57044 -1.67909 0
M  V30 4833 H 448.883 -7.7345 -1.294 0
M  V30 4834 N 446.386 1.0089 -1.21074 0
M  V30 4835 C 447.349 2.0775 -0.968129 0
M  V30 4836 C 448.349 1.6069 0.0593445 0
M  V30 4837 O 449.539 1.73293 -0.177525 0
M  V30 4838 C 446.671 3.37794 -0.459108 0
M  V30 4839 H 447.864 2.30707 -1.9161 0
M  V30 4840 H 445.417 1.17807 -1.02719 0
M  V30 4841 H 446.152 3.20516 0.49397 0
M  V30 4842 H 445.937 3.7328 -1.20019 0
M  V30 4843 H 447.427 4.16454 -0.309099 0
M  V30 4844 N 447.864 1.01787 1.20321 0
M  V30 4845 C 448.796 0.547357 2.22568 0
M  V30 4846 C 449.809 -0.370922 1.58518 0
M  V30 4847 O 450.998 -0.169067 1.77698 0
M  V30 4848 C 448.098 -0.223031 3.38165 0
M  V30 4849 C 447.271 0.697472 4.31803 0
M  V30 4850 C 446.33 -0.025562 5.26194 0
M  V30 4851 O 445.356 0.597367 5.66057 0
M  V30 4852 N 446.558 -1.29999 5.65757 0
M  V30 4853 H 449.323 1.42668 2.63564 0
M  V30 4854 H 446.884 0.895552 1.34876 0
M  V30 4855 H 448.876 -0.716002 3.98316 0
M  V30 4856 H 447.446 -1.00366 2.9605 0
M  V30 4857 H 446.666 1.37073 3.69601 0
M  V30 4858 H 447.954 1.32347 4.91286 0
M  V30 4859 H 447.352 -1.827 5.35385 0
M  V30 4860 H 445.909 -1.73766 6.28211 0
M  V30 4861 N 449.342 -1.36122 0.79427 0
M  V30 4862 C 450.252 -2.33769 0.197296 0
M  V30 4863 C 451.268 -1.61276 -0.653153 0
M  V30 4864 O 452.444 -1.9323 -0.5678 0
M  V30 4865 C 449.509 -3.40474 -0.654098 0
M  V30 4866 C 448.57 -4.28759 0.215411 0
M  V30 4867 C 447.803 -5.30368 -0.595443 0
M  V30 4868 O 448.026 -5.40211 -1.83107 0
M  V30 4869 O 446.96 -6.019 0.00721351 0
M  V30 4870 H 450.786 -2.86597 1.00478 0
M  V30 4871 H 448.371 -1.38676 0.555818 0
M  V30 4872 H 450.253 -4.05703 -1.13944 0
M  V30 4873 H 448.928 -2.89937 -1.43938 0
M  V30 4874 H 447.835 -3.66554 0.747615 0
M  V30 4875 H 449.168 -4.82661 0.964332 0
M  V30 4876 N 450.82 -0.546701 -1.47814 0
M  V30 4877 C 452.069 -0.0166497 -2.01693 0
M  V30 4878 C 452.382 1.33721 -1.42752 0
M  V30 4879 O 453.588 1.95658 -1.8823 0
M  V30 4880 C 452.044 0.0206769 -3.59894 0
M  V30 4881 C 451.652 -1.3293 -4.27824 0
M  V30 4882 C 453.396 0.498674 -4.21561 0
M  V30 4883 C 451.303 -1.25165 -5.78003 0
M  V30 4884 H 450.233 -0.0024541 -0.753996 0
M  V30 4885 H 452.884 -0.692984 -1.69912 0
M  V30 4886 H 451.266 0.76244 -3.88591 0
M  V30 4887 H 452.44 -2.08795 -4.10781 0
M  V30 4888 H 450.755 -1.74438 -3.78101 0
M  V30 4889 H 453.352 0.575 -5.31599 0
M  V30 4890 H 453.695 1.5083 -3.88016 0
M  V30 4891 H 454.228 -0.18791 -3.97356 0
M  V30 4892 H 450.967 -2.23695 -6.1615 0
M  V30 4893 H 450.487 -0.53464 -5.97412 0
M  V30 4894 H 452.166 -0.949299 -6.39998 0
M  V30 4895 N 452.299 1.55045 -0.282633 0
M  V30 4896 C 453.527 2.04168 0.33512 0
M  V30 4897 C 453.942 1.16071 1.48906 0
M  V30 4898 O 453.299 0.182391 1.81586 0
M  V30 4899 C 453.35 3.52332 0.808957 0
M  V30 4900 O 453.071 4.37078 -0.299038 0
M  V30 4901 C 454.572 4.17375 1.49375 0
M  V30 4902 H 451.792 0.666744 0.0754543 0
M  V30 4903 H 454.336 2.00205 -0.416918 0
M  V30 4904 H 452.491 3.56715 1.51106 0
M  V30 4905 H 452.905 5.24458 0.0665514 0
M  V30 4906 H 454.379 5.22627 1.77664 0
M  V30 4907 H 454.856 3.65999 2.42778 0
M  V30 4908 H 455.462 4.17016 0.835305 0
M  V30 4909 N 453.777 0.010035 1.57597 0
M  V30 4910 C 454.687 -0.994226 2.12491 0
M  V30 4911 C 455.703 -1.37013 1.07254 0
M  V30 4912 O 456.879 -1.45542 1.3921 0
M  V30 4913 C 453.944 -2.2642 2.62555 0
M  V30 4914 C 453.005 -1.95049 3.82432 0
M  V30 4915 C 452.238 -3.15991 4.30099 0
M  V30 4916 O 452.461 -4.28015 3.7704 0
M  V30 4917 O 451.395 -2.99403 5.22151 0
M  V30 4918 H 455.221 -0.557549 2.98538 0
M  V30 4919 H 452.806 -0.209413 1.47925 0
M  V30 4920 H 454.688 -3.01009 2.9491 0
M  V30 4921 H 453.363 -2.69306 1.796 0
M  V30 4922 H 452.27 -1.17904 3.55034 0
M  V30 4923 H 453.603 -1.56992 4.66491 0
M  V30 4924 N 455.255 -1.55392 -0.262866 0
M  V30 4925 C 456.185 -1.91978 -1.32917 0
M  V30 4926 C 457.166 -0.7828 -1.51017 0
M  V30 4927 O 458.351 -1.04178 -1.63892 0
M  V30 4928 C 455.481 -2.20055 -2.68687 0
M  V30 4929 C 454.435 -3.35854 -2.65304 0
M  V30 4930 C 453.761 -3.49435 -4.04721 0
M  V30 4931 C 455.061 -4.71977 -2.23685 0
M  V30 4932 H 456.755 -2.81292 -1.02544 0
M  V30 4933 H 454.301 -1.3534 -0.491846 0
M  V30 4934 H 456.254 -2.44237 -3.43404 0
M  V30 4935 H 454.978 -1.27551 -3.00663 0
M  V30 4936 H 453.637 -3.11655 -1.93045 0
M  V30 4937 H 453.285 -2.54379 -4.33936 0
M  V30 4938 H 452.985 -4.27297 -4.0335 0
M  V30 4939 H 454.509 -3.7592 -4.81161 0
M  V30 4940 H 455.923 -4.95637 -2.88127 0
M  V30 4941 H 454.32 -5.52828 -2.33456 0
M  V30 4942 H 455.39 -4.70115 -1.18827 0
M  V30 4943 N 456.733 0.527833 -1.48498 0
M  V30 4944 C 457.696 1.61439 -1.62696 0
M  V30 4945 C 458.696 1.52824 -0.500136 0
M  V30 4946 O 459.886 1.56456 -0.765976 0
M  V30 4947 C 457.018 3.01063 -1.59918 0
M  V30 4948 H 458.211 1.50189 -2.59583 0
M  V30 4949 H 455.764 0.750055 -1.37127 0
M  V30 4950 H 456.499 3.17818 -0.645163 0
M  V30 4951 H 456.284 3.08725 -2.41726 0
M  V30 4952 H 457.774 3.80057 -1.73051 0
M  V30 4953 N 458.211 1.37122 0.776871 0
M  V30 4954 C 459.143 1.28342 1.89897 0
M  V30 4955 C 460.156 0.200277 1.61563 0
M  V30 4956 O 461.345 0.456012 1.72577 0
M  V30 4957 C 458.445 0.960427 3.25006 0
M  V30 4958 C 457.618 2.148 3.81025 0
M  V30 4959 C 456.677 1.79608 4.94598 0
M  V30 4960 O 455.703 2.51845 5.10454 0
M  V30 4961 N 456.905 0.737171 5.758 0
M  V30 4962 H 459.67 2.25027 1.97947 0
M  V30 4963 H 457.231 1.3068 0.955739 0
M  V30 4964 H 459.223 0.705942 3.98495 0
M  V30 4965 H 457.793 0.0823066 3.12492 0
M  V30 4966 H 457.013 2.56454 2.99374 0
M  V30 4967 H 458.301 2.9411 4.15183 0
M  V30 4968 H 457.699 0.137637 5.65533 0
M  V30 4969 H 456.256 0.542534 6.49538 0
M  V30 4970 N 459.689 -1.00246 1.21608 0
M  V30 4971 C 460.937 -1.73717 1.0328 0
M  V30 4972 C 461.258 -1.90102 -0.434318 0
M  V30 4973 O 460.528 -1.45376 -1.31311 0
M  V30 4974 H 459.108 -0.643613 0.379172 0
M  V30 4975 H 461.77 -1.20787 1.52959 0
M  V30 4976 H 460.866 -2.73535 1.50283 0
M  V30 4977 N 461.167 -1.02423 -1.1978 0
M  V30 4978 C 462.578 -0.748389 -1.71044 0
M  V30 4979 C 462.929 0.732398 -1.82017 0
M  V30 4980 O 462.054 1.57116 -1.48807 0
M  V30 4981 C 462.649 -1.35187 -3.1066 0
M  V30 4982 C 461.208 -1.12472 -3.59203 0
M  V30 4983 C 460.355 -1.45283 -2.36195 0
M  V30 4984 H 463.306 -1.19275 -1.04686 0
M  V30 4985 H 463.327 -0.746408 -3.73107 0
M  V30 4986 H 462.839 -2.4296 -3.02642 0
M  V30 4987 H 460.94 -0.0649983 -3.72543 0
M  V30 4988 H 461.053 -1.81016 -4.43588 0
M  V30 4989 H 459.417 -0.872034 -2.39307 0
M  V30 4990 H 460.2 -2.54129 -2.30811 0
M  V30 4991 N 462.645 1.35699 -0.801477 0
M  V30 4992 C 463.893 1.9852 -0.37871 0
M  V30 4993 C 464.214 1.63907 1.05638 0
M  V30 4994 O 463.484 0.919013 1.73006 0
M  V30 4995 H 462.064 0.734322 -0.137042 0
M  V30 4996 H 464.726 1.65697 -1.02619 0
M  V30 4997 H 463.822 3.08382 -0.480284 0
M  V30 4998 N 464.123 0.554532 1.47522 0
M  V30 4999 C 465.539 0.214107 1.58157 0
M  V30 5000 C 465.739 -1.28331 1.55349 0
M  V30 5001 O 464.795 -2.06329 1.45549 0
M  V30 5002 C 466.108 0.838391 2.88776 0
M  V30 5003 C 467.656 0.809374 3.02354 0
M  V30 5004 C 468.131 1.41268 4.35669 0
M  V30 5005 N 469.622 1.37574 4.42298 0
M  V30 5006 C 470.357 1.8122 5.4401 0
M  V30 5007 N 469.853 2.3271 6.52547 0
M  V30 5008 N 471.646 1.72307 5.35039 0
M  V30 5009 H 463.797 1.52744 1.4759 0
M  V30 5010 H 466.06 0.636812 0.702264 0
M  V30 5011 H 465.766 1.89065 2.96559 0
M  V30 5012 H 465.64 0.329847 3.75755 0
M  V30 5013 H 468.027 -0.234187 2.94169 0
M  V30 5014 H 468.108 1.35565 2.16924 0
M  V30 5015 H 467.752 2.45529 4.4461 0
M  V30 5016 H 467.682 0.841871 5.19827 0
M  V30 5017 H 470.173 0.999081 3.64454 0
M  V30 5018 H 470.486 2.63944 7.26329 0
M  V30 5019 H 468.831 2.36719 6.53444 0
M  V30 5020 H 472.022 1.3186 4.49144 0
M  V30 5021 H 472.195 2.06641 6.14169 0
M  V30 5022 N 465.601 -1.54893 0.290851 0
M  V30 5023 C 466.878 -1.91991 -0.373989 0
M  V30 5024 C 467.258 -1.21694 -1.72493 0
M  V30 5025 O 466.606 -0.34917 -2.25816 0
M  V30 5026 C 466.816 -3.45419 -0.498703 0
M  V30 5027 C 468.164 -4.1748 -0.774298 0
M  V30 5028 O 469.188 -3.51398 -0.582908 0
M  V30 5029 O 468.047 -5.3445 -1.14129 0
M  V30 5030 H 465.141 -0.800593 -0.207315 0
M  V30 5031 H 467.687 -1.66297 0.338164 0
M  V30 5032 H 466.459 -3.88688 0.451392 0
M  V30 5033 H 466.082 -3.77117 -1.25972 0
M  V30 5034 N 467.08 -0.0183926 -1.57589 0
M  V30 5035 C 468.327 0.662562 -1.91354 0
M  V30 5036 C 468.655 1.72747 -0.893788 0
M  V30 5037 O 467.91 1.9545 0.0988509 0
M  V30 5038 C 468.209 1.32676 -3.31861 0
M  V30 5039 C 467.875 0.393267 -4.49182 0
M  V30 5040 C 466.537 0.136302 -4.81007 0
M  V30 5041 C 468.889 -0.248366 -5.20608 0
M  V30 5042 C 466.217 -0.770282 -5.81621 0
M  V30 5043 C 468.569 -1.14294 -6.22189 0
M  V30 5044 C 467.233 -1.4089 -6.52462 0
M  V30 5045 H 466.503 0.242448 -0.700214 0
M  V30 5046 H 469.15 -0.0778629 -1.91342 0
M  V30 5047 H 467.455 2.14168 -3.28084 0
M  V30 5048 H 469.152 1.86001 -3.55253 0
M  V30 5049 H 465.742 0.603723 -4.24327 0
M  V30 5050 H 469.926 -0.062883 -4.9626 0
M  V30 5051 H 465.182 -0.984154 -6.03427 0
M  V30 5052 H 469.356 -1.64637 -6.76659 0
M  V30 5053 H 466.983 -2.11306 -7.30242 0
M  V30 5054 N 468.558 1.5553 0.254621 0
M  V30 5055 C 469.488 1.9268 1.31897 0
M  V30 5056 C 470.469 0.790797 1.506 0
M  V30 5057 O 471.654 1.05045 1.63337 0
M  V30 5058 C 468.784 2.21477 2.67517 0
M  V30 5059 C 467.738 3.37256 2.63519 0
M  V30 5060 C 467.064 3.51576 4.02862 0
M  V30 5061 C 468.364 4.73157 2.21179 0
M  V30 5062 H 470.058 2.81832 1.01051 0
M  V30 5063 H 467.604 1.35599 0.484662 0
M  V30 5064 H 469.557 2.46055 3.42104 0
M  V30 5065 H 468.281 1.29144 2.99982 0
M  V30 5066 H 466.94 3.12675 1.9139 0
M  V30 5067 H 466.588 2.56676 4.32581 0
M  V30 5068 H 466.288 4.2943 4.01078 0
M  V30 5069 H 467.812 3.78467 4.79161 0
M  V30 5070 H 469.226 4.97158 2.85494 0
M  V30 5071 H 467.623 5.54058 2.30521 0
M  V30 5072 H 468.693 4.70739 1.16332 0
M  V30 5073 N 470.036 -0.519951 1.48776 0
M  V30 5074 C 470.968 -1.63973 1.60142 0
M  V30 5075 C 471.981 -1.55404 0.485117 0
M  V30 5076 O 473.17 -1.61682 0.756391 0
M  V30 5077 C 470.27 -3.02676 1.52449 0
M  V30 5078 C 469.443 -3.36624 2.79291 0
M  V30 5079 C 468.502 -4.54652 2.64912 0
M  V30 5080 O 467.528 -4.57374 3.38818 0
M  V30 5081 N 468.73 -5.53432 1.75195 0
M  V30 5082 H 471.495 -1.54656 2.56713 0
M  V30 5083 H 469.056 -0.707439 1.45626 0
M  V30 5084 H 471.048 -3.79525 1.4051 0
M  V30 5085 H 469.618 -3.06018 0.638125 0
M  V30 5086 H 468.838 -2.48855 3.0572 0
M  V30 5087 H 470.126 -3.56094 3.6342 0
M  V30 5088 H 469.524 -5.54018 1.14371 0
M  V30 5089 H 468.081 -6.29459 1.69189 0
M  V30 5090 N 471.514 -1.37532 -0.769588 0
M  V30 5091 C 472.444 -1.36172 -1.89682 0
M  V30 5092 C 473.425 -0.23001 -1.68538 0
M  V30 5093 O 474.61 -0.43069 -1.89364 0
M  V30 5094 C 471.74 -1.1701 -3.26995 0
M  V30 5095 C 470.694 -2.27216 -3.62708 0
M  V30 5096 C 470.02 -1.93174 -4.98586 0
M  V30 5097 C 471.32 -3.6941 -3.69234 0
M  V30 5098 H 473.014 -2.30499 -1.91078 0
M  V30 5099 H 470.56 -1.10953 -0.917902 0
M  V30 5100 H 472.513 -1.14688 -4.05493 0
M  V30 5101 H 471.237 -0.191395 -3.26039 0
M  V30 5102 H 469.896 -2.28697 -2.86519 0
M  V30 5103 H 469.544 -0.938281 -4.94171 0
M  V30 5104 H 469.244 -2.66973 -5.23449 0
M  V30 5105 H 470.768 -1.92443 -5.79481 0
M  V30 5106 H 472.182 -3.70047 -4.37879 0
M  V30 5107 H 470.579 -4.4228 -4.05597 0
M  V30 5108 H 471.649 -4.0288 -2.69844 0
M  V30 5109 N 472.992 0.995999 -1.22138 0
M  V30 5110 C 473.942 2.06988 -0.956042 0
M  V30 5111 C 474.926 1.60636 0.0921576 0
M  V30 5112 O 476.118 1.76607 -0.117958 0
M  V30 5113 C 473.247 3.39148 -0.532335 0
M  V30 5114 C 472.333 3.92142 -1.61509 0
M  V30 5115 N 472.724 4.18397 -2.84214 0
M  V30 5116 C 471.022 4.20514 -1.48606 0
M  V30 5117 C 471.723 4.61425 -3.54206 0
M  V30 5118 N 470.699 4.64934 -2.81669 0
M  V30 5119 H 474.501 2.25223 -1.88816 0
M  V30 5120 H 472.015 1.17748 -1.11845 0
M  V30 5121 H 474.012 4.15642 -0.323574 0
M  V30 5122 H 472.672 3.22314 0.392921 0
M  V30 5123 H 473.683 4.06682 -3.20671 0
M  V30 5124 H 470.36 4.12769 -0.626762 0
M  V30 5125 H 471.75 4.90387 -4.59315 0
M  V30 5126 N 474.47 1.03057 1.19235 0
M  V30 5127 C 475.886 0.747947 1.40989 0
M  V30 5128 C 476.086 -0.666752 1.90149 0
M  V30 5129 O 475.142 -1.43249 2.07933 0
M  V30 5130 C 476.455 1.7855 2.41951 0
M  V30 5131 C 478.003 1.80524 2.55695 0
M  V30 5132 C 478.478 2.83243 3.59913 0
M  V30 5133 N 479.969 2.8207 3.67411 0
M  V30 5134 C 480.704 3.58204 4.47747 0
M  V30 5135 N 480.2 4.44057 5.31775 0
M  V30 5136 N 481.993 3.46738 4.42413 0
M  V30 5137 H 474.144 1.94367 0.856468 0
M  V30 5138 H 476.407 0.840412 0.438647 0
M  V30 5139 H 476.113 2.79973 2.12857 0
M  V30 5140 H 475.987 1.6092 3.41152 0
M  V30 5141 H 478.374 0.79778 2.84112 0
M  V30 5142 H 478.455 2.02229 1.56643 0
M  V30 5143 H 478.099 3.84161 3.32239 0
M  V30 5144 H 478.029 2.58795 4.5862 0
M  V30 5145 H 480.52 2.19803 3.074 0
M  V30 5146 H 480.833 4.98884 5.90199 0
M  V30 5147 H 479.178 4.48129 5.3123 0
M  V30 5148 H 482.369 2.79077 3.75811 0
M  V30 5149 H 482.542 4.06322 5.04783 0
M  V30 5150 N 475.948 -1.35272 0.808662 0
M  V30 5151 C 476.898 -2.27181 0.193124 0
M  V30 5152 C 477.882 -1.47871 -0.634265 0
M  V30 5153 O 479.074 -1.70048 -0.491182 0
M  V30 5154 C 476.203 -3.36979 -0.655751 0
M  V30 5155 C 475.289 -4.23712 0.181481 0
M  V30 5156 N 475.68 -4.90225 1.24551 0
M  V30 5157 C 473.978 -4.45985 -0.0365493 0
M  V30 5158 C 474.679 -5.54537 1.75682 0
M  V30 5159 N 473.655 -5.33107 1.06294 0
M  V30 5160 H 477.457 -2.76101 1.00724 0
M  V30 5161 H 474.971 -1.48823 0.650029 0
M  V30 5162 H 476.968 -4.01774 -1.11279 0
M  V30 5163 H 475.628 -2.89611 -1.46819 0
M  V30 5164 H 476.639 -4.91641 1.62818 0
M  V30 5165 H 473.316 -4.09409 -0.817964 0
M  V30 5166 H 474.706 -6.17597 2.64621 0
M  V30 5167 N 477.426 -0.562348 -1.47226 0
M  V30 5168 C 478.703 0.0256985 -1.95583 0
M  V30 5169 C 479.083 1.48032 -1.50498 0
M  V30 5170 O 478.431 2.15973 -0.746181 0
M  V30 5171 C 478.641 -0.125129 -3.48776 0
M  V30 5172 C 479.989 0.0175728 -4.24596 0
M  V30 5173 O 481.013 -0.0529341 -3.56161 0
M  V30 5174 O 479.872 0.170145 -5.46235 0
M  V30 5175 H 476.966 0.0612565 -0.824728 0
M  V30 5176 H 479.512 -0.629233 -1.57603 0
M  V30 5177 H 478.284 -1.13715 -3.74412 0
M  V30 5178 H 477.907 0.567178 -3.93534 0
M  V30 5179 N 478.904 1.54736 -0.299062 0
M  V30 5180 C 480.129 2.04975 0.316254 0
M  V30 5181 C 480.554 1.17501 1.46885 0
M  V30 5182 O 479.912 0.178678 1.80417 0
M  V30 5183 C 479.96 3.52672 0.751997 0
M  V30 5184 O 479.064 3.68226 1.85697 0
M  V30 5185 H 478.405 0.661126 0.0617175 0
M  V30 5186 H 480.935 1.99805 -0.440341 0
M  V30 5187 H 480.945 3.94488 1.04133 0
M  V30 5188 H 479.62 4.158 -0.0911482 0
M  V30 5189 H 478.197 3.38316 1.56834 0
M  V30 5190 N 480.382 0.0267497 1.57577 0
M  V30 5191 C 481.612 -0.6617 1.95717 0
M  V30 5192 C 482.02 -1.66331 0.901706 0
M  V30 5193 O 481.363 -1.83273 -0.125241 0
M  V30 5194 C 481.425 -1.42649 3.29987 0
M  V30 5195 C 481.089 -0.583482 4.5326 0
M  V30 5196 C 482.086 0.140221 5.19711 0
M  V30 5197 C 479.771 -0.521581 4.99585 0
M  V30 5198 C 481.765 0.914523 6.30805 0
M  V30 5199 C 479.452 0.256428 6.10562 0
M  V30 5200 C 480.45 0.973189 6.76031 0
M  V30 5201 O 480.138 1.73845 7.84878 0
M  V30 5202 H 479.87 -0.187483 0.649481 0
M  V30 5203 H 482.424 0.0820847 2.05236 0
M  V30 5204 H 480.654 -2.21536 3.16952 0
M  V30 5205 H 482.343 -2.00282 3.53047 0
M  V30 5206 H 483.109 0.101716 4.84893 0
M  V30 5207 H 478.988 -1.06904 4.48433 0
M  V30 5208 H 482.532 1.4745 6.81839 0
M  V30 5209 H 478.429 0.296657 6.44818 0
M  V30 5210 H 479.197 1.65797 8.01532 0
M  V30 5211 N 481.861 -1.55662 -0.24637 0
M  V30 5212 C 482.824 -1.89558 -1.28842 0
M  V30 5213 C 483.824 -0.772082 -1.41052 0
M  V30 5214 O 485.014 -1.04007 -1.39743 0
M  V30 5215 C 482.146 -2.12449 -2.66605 0
M  V30 5216 H 483.339 -2.82735 -1.00004 0
M  V30 5217 H 480.892 -1.48562 -0.485684 0
M  V30 5218 H 481.627 -1.21742 -3.00582 0
M  V30 5219 H 481.412 -2.94273 -2.59125 0
M  V30 5220 H 482.902 -2.39854 -3.41847 0
M  V30 5221 N 483.339 0.512053 -1.4905 0
M  V30 5222 C 484.75 1.09376 -1.51307 0
M  V30 5223 C 485.101 1.94 -0.292971 0
M  V30 5224 O 484.226 2.07965 0.598277 0
M  V30 5225 C 484.821 1.99031 -2.74176 0
M  V30 5226 C 483.38 2.52385 -2.79247 0
M  V30 5227 C 482.527 1.29749 -2.45073 0
M  V30 5228 H 485.478 0.296467 -1.55906 0
M  V30 5229 H 485.499 2.83569 -2.53711 0
M  V30 5230 H 485.011 1.37412 -3.62959 0
M  V30 5231 H 483.112 3.17673 -1.94716 0
M  V30 5232 H 483.225 2.90293 -3.81139 0
M  V30 5233 H 481.589 1.61912 -1.96612 0
M  V30 5234 H 482.372 0.698555 -3.36118 0
M  V30 5235 N 484.817 1.37938 0.762283 0
M  V30 5236 C 486.228 1.30094 1.33912 0
M  V30 5237 C 486.579 -0.0472026 1.96143 0
M  V30 5238 O 485.704 -0.94917 1.94473 0
M  V30 5239 C 486.299 2.35592 2.43478 0
M  V30 5240 C 484.858 2.31353 2.96905 0
M  V30 5241 C 484.005 2.18919 1.70205 0
M  V30 5242 H 486.956 1.48423 0.561816 0
M  V30 5243 H 486.977 2.00806 3.23199 0
M  V30 5244 H 486.489 3.33701 1.98155 0
M  V30 5245 H 484.59 1.36799 3.46579 0
M  V30 5246 H 484.703 3.25147 3.51875 0
M  V30 5247 H 483.067 1.65624 1.93496 0
M  V30 5248 H 483.85 3.18956 1.26973 0
M  V30 5249 N 486.295 -0.989507 1.22664 0
M  V30 5250 C 487.711 -1.25395 0.987331 0
M  V30 5251 C 487.911 -1.9899 -0.317056 0
M  V30 5252 O 486.967 -2.30141 -1.03882 0
M  V30 5253 C 488.28 -2.06242 2.18826 0
M  V30 5254 C 489.828 -2.19413 2.23219 0
M  V30 5255 C 490.303 -3.03648 3.42873 0
M  V30 5256 N 491.794 -3.11234 3.43056 0
M  V30 5257 C 492.529 -3.7671 4.32293 0
M  V30 5258 N 492.025 -4.44085 5.31752 0
M  V30 5259 N 493.818 -3.73505 4.2006 0
M  V30 5260 H 485.969 -0.496212 2.06522 0
M  V30 5261 H 488.232 -0.281784 0.905153 0
M  V30 5262 H 487.938 -1.59531 3.13437 0
M  V30 5263 H 487.812 -3.06996 2.19165 0
M  V30 5264 H 490.199 -2.65336 1.29154 0
M  V30 5265 H 490.28 -1.18078 2.26917 0
M  V30 5266 H 489.924 -2.58424 4.37241 0
M  V30 5267 H 489.854 -4.05132 3.36416 0
M  V30 5268 H 492.345 -2.63287 2.71088 0
M  V30 5269 H 492.658 -4.91797 5.96117 0
M  V30 5270 H 491.003 -4.42822 5.35662 0
M  V30 5271 H 494.194 -3.20033 3.41609 0
M  V30 5272 H 494.367 -4.24253 4.8981 0
M  V30 5273 N 487.773 -1.03688 -1.18687 0
M  V30 5274 C 489.184 -0.766488 -1.70241 0
M  V30 5275 C 489.535 0.713052 -1.82784 0
M  V30 5276 O 488.66 1.55529 -1.50465 0
M  V30 5277 C 489.255 -1.38475 -3.09209 0
M  V30 5278 C 487.814 -1.16276 -3.5799 0
M  V30 5279 C 486.961 -1.4778 -2.34641 0
M  V30 5280 H 489.912 -1.20378 -1.03415 0
M  V30 5281 H 489.933 -0.785939 -3.72295 0
M  V30 5282 H 489.445 -2.46157 -3.00048 0
M  V30 5283 H 487.546 -0.104508 -3.72453 0
M  V30 5284 H 487.659 -1.8571 -4.41643 0
M  V30 5285 H 486.023 -0.897366 -2.38368 0
M  V30 5286 H 486.806 -2.56562 -2.28102 0
M  V30 5287 N 489.251 1.34841 -0.815825 0
M  V30 5288 C 490.499 1.98107 -0.399744 0
M  V30 5289 C 490.82 1.65019 1.03894 0
M  V30 5290 O 490.09 0.937311 1.72021 0
M  V30 5291 H 488.67 0.732827 -0.144823 0
M  V30 5292 H 491.332 1.64599 -1.0437 0
M  V30 5293 H 490.428 3.07856 -0.512965 0
M  V30 5294 N 490.729 0.570148 1.46925 0
M  V30 5295 C 491.957 0.0561966 2.06824 0
M  V30 5296 C 492.372 -1.24326 1.42086 0
M  V30 5297 O 491.729 -1.74882 0.521794 0
M  V30 5298 C 491.78 -0.129517 3.61268 0
M  V30 5299 O 491.501 1.1185 4.23581 0
M  V30 5300 C 493.002 -0.679266 4.38065 0
M  V30 5301 H 490.222 0.0517261 0.669003 0
M  V30 5302 H 492.766 0.787243 1.8874 0
M  V30 5303 H 490.921 -0.810739 3.78822 0
M  V30 5304 H 491.335 0.924375 5.1629 0
M  V30 5305 H 492.809 -0.758445 5.46765 0
M  V30 5306 H 493.286 -1.69346 4.05239 0
M  V30 5307 H 493.892 -0.0333237 4.25287 0
M  V30 5308 N 492.207 -1.54576 0.307264 0
M  V30 5309 C 493.137 -2.26708 -0.55907 0
M  V30 5310 C 494.118 -1.26893 -1.1328 0
M  V30 5311 O 495.303 -1.55677 -1.16097 0
M  V30 5312 C 492.433 -3.01259 -1.72801 0
M  V30 5313 C 491.387 -4.08275 -1.28435 0
M  V30 5314 C 490.713 -4.70575 -2.53895 0
M  V30 5315 C 492.013 -5.2068 -0.411038 0
M  V30 5316 H 493.707 -2.9937 0.042576 0
M  V30 5317 H 491.253 -1.43983 0.0219173 0
M  V30 5318 H 493.206 -3.50444 -2.34023 0
M  V30 5319 H 491.93 -2.26187 -2.356 0
M  V30 5320 H 490.589 -3.59949 -0.695161 0
M  V30 5321 H 490.237 -3.92136 -3.15021 0
M  V30 5322 H 489.937 -5.42854 -2.24908 0
M  V30 5323 H 491.461 -5.22527 -3.15908 0
M  V30 5324 H 492.875 -5.65721 -0.929097 0
M  V30 5325 H 491.272 -5.99716 -0.214664 0
M  V30 5326 H 492.342 -4.81629 0.562287 0
M  V30 5327 N 493.685 -0.035106 -1.57561 0
M  V30 5328 C 494.648 0.929819 -2.09492 0
M  V30 5329 C 495.648 1.25026 -1.01119 0
M  V30 5330 O 496.838 1.18961 -1.27255 0
M  V30 5331 C 493.97 2.24457 -2.56577 0
M  V30 5332 H 495.163 0.479935 -2.96035 0
M  V30 5333 H 492.716 0.213033 -1.54841 0
M  V30 5334 H 493.451 2.74061 -1.73382 0
M  V30 5335 H 493.236 2.02508 -3.35757 0
M  V30 5336 H 494.726 2.93607 -2.96959 0
M  V30 5337 N 495.163 1.55791 0.238111 0
M  V30 5338 C 496.579 1.48411 0.587045 0
M  V30 5339 C 496.779 0.72702 1.87927 0
M  V30 5340 O 495.835 0.259942 2.51158 0
M  V30 5341 C 497.148 2.92873 0.681623 0
M  V30 5342 C 498.696 3.03295 0.773363 0
M  V30 5343 C 499.171 4.49082 0.899428 0
M  V30 5344 N 500.662 4.53056 0.964075 0
M  V30 5345 C 501.397 5.63117 1.08104 0
M  V30 5346 N 500.893 6.82969 1.16299 0
M  V30 5347 N 502.686 5.50933 1.11488 0
M  V30 5348 H 494.837 2.0345 -0.610076 0
M  V30 5349 H 497.1 0.924034 -0.211813 0
M  V30 5350 H 496.806 3.51142 -0.19802 0
M  V30 5351 H 496.68 3.43851 1.55069 0
M  V30 5352 H 499.067 2.45101 1.64346 0
M  V30 5353 H 499.148 2.55513 -0.121034 0
M  V30 5354 H 498.792 5.07889 0.0338586 0
M  V30 5355 H 498.722 4.94553 1.809 0
M  V30 5356 H 501.213 3.66737 0.91173 0
M  V30 5357 H 501.526 7.62598 1.25155 0
M  V30 5358 H 499.871 6.85712 1.13241 0
M  V30 5359 H 503.062 4.56231 1.0474 0
M  V30 5360 H 503.235 6.36743 1.20259 0
M  V30 5361 N 496.642 -0.504142 1.49319 0
M  V30 5362 C 497.888 -1.25767 1.59857 0
M  V30 5363 C 498.243 -1.90348 0.280262 0
M  V30 5364 O 497.536 -1.77588 -0.719241 0
M  V30 5365 C 497.73 -2.35021 2.69258 0
M  V30 5366 C 497.559 -1.81154 4.11598 0
M  V30 5367 C 496.329 -1.62596 4.78425 0
M  V30 5368 C 498.527 -1.3252 4.96934 0
M  V30 5369 N 496.509 -1.03625 6.05091 0
M  V30 5370 C 497.88 -0.856633 6.14054 0
M  V30 5371 C 499.935 -1.21063 4.82958 0
M  V30 5372 C 498.638 -0.284841 7.18736 0
M  V30 5373 C 500.664 -0.652815 5.87786 0
M  V30 5374 C 500.026 -0.194461 7.04132 0
M  V30 5375 H 496.125 -0.450293 0.639343 0
M  V30 5376 H 498.709 -0.565344 1.86311 0
M  V30 5377 H 496.88 -3.01719 2.44581 0
M  V30 5378 H 498.612 -3.02061 2.69335 0
M  V30 5379 H 495.367 -1.86873 4.35173 0
M  V30 5380 H 495.791 -0.76076 6.72712 0
M  V30 5381 H 500.433 -1.551 3.93324 0
M  V30 5382 H 498.151 0.0677979 8.08072 0
M  V30 5383 H 501.737 -0.566994 5.79031 0
M  V30 5384 H 500.617 0.230442 7.83861 0
M  V30 5385 N 498.12 -1.38341 -0.754957 0
M  V30 5386 C 499.367 -1.34473 -1.51404 0
M  V30 5387 C 499.695 0.0656458 -1.94389 0
M  V30 5388 O 498.95 1.04244 -1.65625 0
M  V30 5389 C 499.249 -2.2452 -2.78075 0
M  V30 5390 C 498.915 -3.72512 -2.54059 0
M  V30 5391 C 497.577 -4.1284 -2.47218 0
M  V30 5392 C 499.929 -4.66197 -2.33044 0
M  V30 5393 C 497.257 -5.44945 -2.17376 0
M  V30 5394 C 499.609 -5.98558 -2.04723 0
M  V30 5395 C 498.273 -6.37972 -1.96337 0
M  V30 5396 H 497.543 -0.492072 -0.554027 0
M  V30 5397 H 500.19 -1.70687 -0.868223 0
M  V30 5398 H 498.495 -1.81357 -3.473 0
M  V30 5399 H 500.192 -2.18832 -3.36026 0
M  V30 5400 H 496.782 -3.40538 -2.60253 0
M  V30 5401 H 500.966 -4.35888 -2.37309 0
M  V30 5402 H 496.222 -5.74426 -2.09391 0
M  V30 5403 H 500.396 -6.70693 -1.87465 0
M  V30 5404 H 498.023 -7.40258 -1.72978 0
M  V30 5405 N 499.598 0.982988 -1.23187 0
M  V30 5406 C 500.844 1.72648 -1.06398 0
M  V30 5407 C 501.177 1.90066 0.398561 0
M  V30 5408 O 500.452 1.45105 1.29518 0
M  V30 5409 C 500.735 3.12627 -1.78707 0
M  V30 5410 C 500.588 3.02795 -3.32618 0
M  V30 5411 C 501.907 4.11997 -1.54747 0
M  V30 5412 H 499.026 0.626649 -0.387918 0
M  V30 5413 H 501.668 1.14455 -1.51658 0
M  V30 5414 H 499.818 3.62308 -1.40234 0
M  V30 5415 H 501.49 2.60659 -3.80598 0
M  V30 5416 H 499.733 2.39362 -3.61785 0
M  V30 5417 H 500.404 4.01893 -3.78399 0
M  V30 5418 H 502.88 3.71114 -1.88186 0
M  V30 5419 H 501.756 5.08037 -2.07821 0
M  V30 5420 H 502.017 4.39462 -0.482249 0
M  V30 5421 N 501.076 1.04316 1.18135 0
M  V30 5422 C 502.024 0.630175 2.23901 0
M  V30 5423 C 503.018 -0.344254 1.65865 0
M  V30 5424 O 504.224 -0.211273 1.78756 0
M  V30 5425 H 500.599 0.185578 0.728742 0
M  V30 5426 H 502.57 1.53253 2.56039 0
M  V30 5427 C 501.319 0.011666 3.47698 0
M  V30 5428 H 500.642 0.752526 3.92654 0
M  V30 5429 H 502.082 -0.240046 4.2332 0
M  V30 5430 C 500.541 -1.23913 3.13285 0
M  V30 5431 O 501.071 -2.32959 3.27251 0
M  V30 5432 N 499.277 -1.13338 2.67587 0
M  V30 5433 H 498.824 -0.246006 2.56423 0
M  V30 5434 H 498.782 -1.97116 2.44934 0
M  V30 5435 N 502.554 -1.34406 0.822964 0
M  V30 5436 C 503.802 -1.97892 0.410245 0
M  V30 5437 C 504.123 -1.65567 -1.03017 0
M  V30 5438 O 503.393 -0.94642 -1.71522 0
M  V30 5439 H 501.973 -0.732049 0.148707 0
M  V30 5440 H 504.635 -1.64043 1.05242 0
M  V30 5441 H 503.731 -3.07579 0.529284 0
M  V30 5442 N 504.032 -0.577932 -1.46621 0
M  V30 5443 C 504.995 0.147805 -2.28723 0
M  V30 5444 C 505.995 0.823325 -1.38123 0
M  V30 5445 O 507.185 0.676011 -1.60548 0
M  V30 5446 C 504.317 1.21853 -3.18378 0
M  V30 5447 H 505.51 -0.573654 -2.94362 0
M  V30 5448 H 503.063 -0.335703 -1.52652 0
M  V30 5449 H 503.798 1.97173 -2.57475 0
M  V30 5450 H 503.583 0.738714 -3.85078 0
M  V30 5451 H 505.073 1.72768 -3.80186 0
M  V30 5452 N 505.51 1.54411 -0.315457 0
M  V30 5453 C 506.758 2.00023 0.288971 0
M  V30 5454 C 507.079 1.20529 1.5329 0
M  V30 5455 O 506.349 0.304986 1.93511 0
M  V30 5456 H 504.929 0.738891 0.109766 0
M  V30 5457 H 507.591 1.90094 -0.430129 0
M  V30 5458 H 506.687 3.07198 0.550999 0
M  V30 5459 N 506.988 0.0434614 1.5754 0
M  V30 5460 C 508.218 -0.640905 1.96408 0
M  V30 5461 C 508.626 -1.65365 0.919297 0
M  V30 5462 O 507.969 -1.83395 -0.105795 0
M  V30 5463 C 508.031 -1.39141 3.31482 0
M  V30 5464 C 507.695 -0.535375 4.53853 0
M  V30 5465 C 508.692 0.195335 5.19533 0
M  V30 5466 C 506.377 -0.468564 5.0011 0
M  V30 5467 C 508.371 0.981377 6.298 0
M  V30 5468 C 506.058 0.321171 6.10255 0
M  V30 5469 C 507.056 1.04484 6.74961 0
M  V30 5470 O 506.744 1.8216 7.8299 0
M  V30 5471 H 506.476 -0.180584 0.651433 0
M  V30 5472 H 509.03 0.103848 2.05137 0
M  V30 5473 H 507.26 -2.18162 3.19284 0
M  V30 5474 H 508.949 -1.96526 3.55151 0
M  V30 5475 H 509.715 0.15314 4.84758 0
M  V30 5476 H 505.594 -1.02142 4.49542 0
M  V30 5477 H 509.138 1.54674 6.80237 0
M  V30 5478 H 505.035 0.365032 6.44467 0
M  V30 5479 H 505.803 1.74289 7.99728 0
M  V30 5480 N 508.466 -1.55915 -0.229846 0
M  V30 5481 C 509.713 -1.78542 -0.955452 0
M  V30 5482 C 510.041 -0.610785 -1.84661 0
M  V30 5483 O 509.296 0.405213 -1.91459 0
M  V30 5484 C 509.595 -3.06845 -1.8325 0
M  V30 5485 C 509.261 -4.37395 -1.09528 0
M  V30 5486 C 507.923 -4.72868 -0.891598 0
M  V30 5487 C 510.275 -5.18029 -0.574046 0
M  V30 5488 C 507.603 -5.86496 -0.154655 0
M  V30 5489 C 509.955 -6.32423 0.149513 0
M  V30 5490 C 508.619 -6.66504 0.364519 0
M  V30 5491 H 507.889 -0.653333 -0.349625 0
M  V30 5492 H 510.536 -1.90183 -0.224235 0
M  V30 5493 H 508.841 -2.90291 -2.63132 0
M  V30 5494 H 510.538 -3.21553 -2.39592 0
M  V30 5495 H 507.128 -4.09538 -1.26399 0
M  V30 5496 H 511.312 -4.91066 -0.718899 0
M  V30 5497 H 506.568 -6.11396 0.0222356 0
M  V30 5498 H 510.742 -6.94137 0.560947 0
M  V30 5499 H 508.369 -7.54397 0.937495 0
M  V30 5500 N 509.944 0.496216 -1.49584 0
M  V30 5501 C 510.907 1.57952 -1.66084 0
M  V30 5502 C 511.907 1.51729 -0.53244 0
M  V30 5503 O 513.097 1.54796 -0.79899 0
M  V30 5504 C 510.229 2.97604 -1.66268 0
M  V30 5505 H 511.422 1.44649 -2.6271 0
M  V30 5506 H 508.975 0.7208 -1.38687 0
M  V30 5507 H 509.71 3.16378 -0.712432 0
M  V30 5508 H 509.495 3.03528 -2.4822 0
M  V30 5509 H 510.985 3.76301 -1.81073 0
M  V30 5510 N 511.423 1.38739 0.74761 0
M  V30 5511 C 512.386 1.36241 1.84312 0
M  V30 5512 C 513.386 0.261811 1.58654 0
M  V30 5513 O 514.576 0.519031 1.66288 0
M  V30 5514 C 511.708 1.12253 3.21888 0
M  V30 5515 H 512.901 2.33712 1.87933 0
M  V30 5516 H 510.454 1.2412 0.949946 0
M  V30 5517 H 511.189 0.154133 3.23934 0
M  V30 5518 H 510.974 1.91943 3.41907 0
M  V30 5519 H 512.464 1.13215 4.0196 0
M  V30 5520 N 512.901 -0.976442 1.23707 0
M  V30 5521 C 514.147 -1.72081 1.07312 0
M  V30 5522 C 514.48 -1.90275 -0.388476 0
M  V30 5523 O 513.755 -1.4579 -1.28746 0
M  V30 5524 C 514.038 -3.11675 1.80363 0
M  V30 5525 C 513.891 -3.01027 3.3422 0
M  V30 5526 C 515.21 -4.1117 1.5693 0
M  V30 5527 H 512.329 -0.624583 0.391236 0
M  V30 5528 H 514.971 -1.13649 1.52263 0
M  V30 5529 H 513.121 -3.61559 1.42153 0
M  V30 5530 H 514.793 -2.58637 3.81975 0
M  V30 5531 H 513.036 -2.3744 3.63049 0
M  V30 5532 H 513.707 -3.9988 3.80525 0
M  V30 5533 H 516.183 -3.7011 1.90151 0
M  V30 5534 H 515.059 -5.06928 2.10513 0
M  V30 5535 H 515.32 -4.392 0.505548 0
M  V30 5536 N 514.379 -1.04941 -1.1758 0
M  V30 5537 C 515.342 -0.652456 -2.19717 0
M  V30 5538 C 516.342 0.294745 -1.58076 0
M  V30 5539 O 517.532 0.0789579 -1.74021 0
M  V30 5540 C 514.664 0.0420712 -3.40874 0
M  V30 5541 H 515.857 -1.55642 -2.5635 0
M  V30 5542 H 513.41 -0.842995 -1.31618 0
M  V30 5543 H 514.145 0.95943 -3.09783 0
M  V30 5544 H 513.93 -0.638844 -3.86861 0
M  V30 5545 H 515.42 0.306 -4.16477 0
M  V30 5546 N 515.857 1.33968 -0.830081 0
M  V30 5547 C 517.134 1.92554 -0.343858 0
M  V30 5548 C 517.514 1.7573 1.16971 0
M  V30 5549 O 516.862 1.14035 1.98011 0
M  V30 5550 C 517.072 3.40147 -0.781073 0
M  V30 5551 C 518.42 4.17299 -0.78402 0
M  V30 5552 O 519.444 3.48762 -0.724112 0
M  V30 5553 O 518.303 5.39631 -0.863739 0
M  V30 5554 H 515.397 0.821469 -0.0954827 0
M  V30 5555 H 517.943 1.42897 -0.915348 0
M  V30 5556 H 516.715 3.46225 -1.82329 0
M  V30 5557 H 516.338 3.97166 -0.18567 0
M  V30 5558 N 517.335 0.585699 1.46312 0
M  V30 5559 C 518.298 -0.135673 2.28798 0
M  V30 5560 C 519.298 -0.815988 1.38558 0
M  V30 5561 O 520.488 -0.667487 1.60904 0
M  V30 5562 C 517.62 -1.20163 3.1902 0
M  V30 5563 H 518.813 0.589257 2.94054 0
M  V30 5564 H 516.366 0.343794 1.52472 0
M  V30 5565 H 517.101 -1.95804 2.58517 0
M  V30 5566 H 516.886 -0.718282 3.85465 0
M  V30 5567 H 518.376 -1.70749 3.81096 0
M  V30 5568 N 518.813 -1.54241 0.323641 0
M  V30 5569 C 520.062 -1.9975 -0.279806 0
M  V30 5570 C 520.375 -1.2156 -1.5324 0
M  V30 5571 O 521.581 -1.57447 -2.21185 0
M  V30 5572 C 520.037 -3.55686 -0.549115 0
M  V30 5573 C 519.645 -4.4271 0.686432 0
M  V30 5574 C 521.389 -4.09663 -1.11251 0
M  V30 5575 C 519.296 -5.90119 0.389022 0
M  V30 5576 H 518.226 -0.746177 -0.10833 0
M  V30 5577 H 520.877 -1.78248 0.435877 0
M  V30 5578 H 519.259 -3.73176 -1.32499 0
M  V30 5579 H 520.433 -4.36996 1.46188 0
M  V30 5580 H 518.748 -3.99623 1.17005 0
M  V30 5581 H 521.345 -5.17386 -1.34965 0
M  V30 5582 H 521.688 -3.61651 -2.06191 0
M  V30 5583 H 522.221 -3.95806 -0.39782 0
M  V30 5584 H 518.96 -6.42326 1.30759 0
M  V30 5585 H 518.48 -5.98785 -0.348722 0
M  V30 5586 H 520.159 -6.47 -0.0011164 0
M  V30 5587 N 520.291 -0.0518155 -1.57515 0
M  V30 5588 C 521.221 0.920283 -2.146 0
M  V30 5589 C 522.202 1.32406 -1.06783 0
M  V30 5590 O 523.387 1.39866 -1.34726 0
M  V30 5591 C 520.517 2.1949 -2.6915 0
M  V30 5592 C 519.471 1.93116 -3.81956 0
M  V30 5593 C 518.797 3.27037 -4.23026 0
M  V30 5594 C 520.097 1.25225 -5.07066 0
M  V30 5595 H 521.791 0.444801 -2.96077 0
M  V30 5596 H 519.337 0.212508 -1.42423 0
M  V30 5597 H 521.29 2.87894 -3.07725 0
M  V30 5598 H 520.014 2.69244 -1.84865 0
M  V30 5599 H 518.673 1.27123 -3.43854 0
M  V30 5600 H 518.321 3.74595 -3.3569 0
M  V30 5601 H 518.021 3.10189 -4.99056 0
M  V30 5602 H 519.545 3.96673 -4.64202 0
M  V30 5603 H 520.959 1.83666 -5.43083 0
M  V30 5604 H 519.356 1.18702 -5.88243 0
M  V30 5605 H 520.426 0.228382 -4.84362 0
M  V30 5606 N 521.769 1.56035 0.221574 0
M  V30 5607 C 523.185 1.49026 0.571271 0
M  V30 5608 C 523.385 0.746912 1.87146 0
M  V30 5609 O 522.441 0.286566 2.50869 0
M  V30 5610 C 523.754 2.93579 0.650522 0
M  V30 5611 C 525.302 3.04099 0.741151 0
M  V30 5612 C 525.777 4.5001 0.851747 0
M  V30 5613 N 527.268 4.54053 0.915968 0
M  V30 5614 C 528.003 5.64232 1.02125 0
M  V30 5615 N 527.499 6.84164 1.09049 0
M  V30 5616 N 529.292 5.52084 1.05639 0
M  V30 5617 H 521.443 2.02791 -0.63162 0
M  V30 5618 H 523.706 0.921736 -0.221602 0
M  V30 5619 H 523.412 3.50912 -0.235253 0
M  V30 5620 H 523.286 3.45476 1.51413 0
M  V30 5621 H 525.673 2.4683 1.61737 0
M  V30 5622 H 525.754 2.55371 -0.148128 0
M  V30 5623 H 525.398 5.07896 -0.0200117 0
M  V30 5624 H 525.328 4.96444 1.75644 0
M  V30 5625 H 527.819 3.67683 0.872782 0
M  V30 5626 H 528.132 7.63883 1.1706 0
M  V30 5627 H 526.477 6.86875 1.05962 0
M  V30 5628 H 529.668 4.57317 0.998953 0
M  V30 5629 H 529.841 6.37983 1.13498 0
M  V30 5630 N 523.247 -0.488276 1.49845 0
M  V30 5631 C 524.21 -1.57069 1.66919 0
M  V30 5632 C 525.21 -1.51445 0.540479 0
M  V30 5633 O 526.4 -1.5437 0.807188 0
M  V30 5634 C 523.532 -2.96718 1.67844 0
M  V30 5635 H 524.725 -1.43254 2.63474 0
M  V30 5636 H 522.278 -0.713435 1.39068 0
M  V30 5637 H 523.013 -3.15996 0.7292 0
M  V30 5638 H 522.798 -3.02208 2.49826 0
M  V30 5639 H 524.288 -3.75335 1.83066 0
M  V30 5640 N 524.725 -1.39134 -0.740242 0
M  V30 5641 C 525.657 -1.33332 -1.86428 0
M  V30 5642 C 526.67 -0.243042 -1.60976 0
M  V30 5643 O 527.859 -0.501608 -1.71307 0
M  V30 5644 C 524.959 -1.04626 -3.22346 0
M  V30 5645 C 524.132 -2.24826 -3.75196 0
M  V30 5646 C 523.191 -1.92659 -4.89662 0
M  V30 5647 O 522.217 -2.6529 -5.03597 0
M  V30 5648 N 523.419 -0.889575 -5.73643 0
M  V30 5649 H 526.184 -2.30196 -1.91911 0
M  V30 5650 H 523.745 -1.33168 -0.920756 0
M  V30 5651 H 525.737 -0.811347 -3.96484 0
M  V30 5652 H 524.307 -0.165129 -3.12164 0
M  V30 5653 H 523.527 -2.64301 -2.9247 0
M  V30 5654 H 524.815 -3.05015 -4.07239 0
M  V30 5655 H 524.213 -0.287529 -5.64969 0
M  V30 5656 H 522.77 -0.714557 -6.47871 0
M  V30 5657 N 526.204 0.969867 -1.24223 0
M  V30 5658 C 527.114 2.09806 -1.0497 0
M  V30 5659 C 528.13 1.73998 0.00886455 0
M  V30 5660 O 529.306 2.00513 -0.188848 0
M  V30 5661 C 526.371 3.40467 -0.654452 0
M  V30 5662 C 525.432 3.90236 -1.78926 0
M  V30 5663 C 524.665 5.14662 -1.41277 0
M  V30 5664 O 524.888 5.69602 -0.301632 0
M  V30 5665 O 523.822 5.58761 -2.23763 0
M  V30 5666 H 527.648 2.28942 -1.99548 0
M  V30 5667 H 525.233 1.08197 -1.03023 0
M  V30 5668 H 527.115 4.19039 -0.445452 0
M  V30 5669 H 525.79 3.22636 0.262216 0
M  V30 5670 H 524.697 3.12735 -2.05299 0
M  V30 5671 H 526.03 4.1254 -2.68462 0
M  V30 5672 N 527.682 1.05563 1.17022 0
M  V30 5673 C 528.592 0.670758 2.24807 0
M  V30 5674 C 529.608 -0.309865 1.71219 0
M  V30 5675 O 530.784 -0.161025 2.00755 0
M  V30 5676 C 527.849 0.055337 3.46656 0
M  V30 5677 C 526.91 1.08688 4.15314 0
M  V30 5678 C 526.143 0.500736 5.31346 0
M  V30 5679 O 526.366 -0.688718 5.66227 0
M  V30 5680 O 525.3 1.23683 5.89055 0
M  V30 5681 H 529.126 1.56914 2.60023 0
M  V30 5682 H 526.711 0.827428 1.24395 0
M  V30 5683 H 528.593 -0.286492 4.20425 0
M  V30 5684 H 527.268 -0.816638 3.13229 0
M  V30 5685 H 526.175 1.48077 3.43546 0
M  V30 5686 H 527.508 1.93014 4.52777 0
M  V30 5687 N 529.16 -1.33526 0.837174 0
M  V30 5688 C 530.409 -1.97098 0.428387 0
M  V30 5689 C 530.722 -1.67062 -1.01734 0
M  V30 5690 O 531.928 -2.24235 -1.53072 0
M  V30 5691 C 530.384 -3.52725 0.715075 0
M  V30 5692 C 529.992 -3.9164 2.17537 0
M  V30 5693 C 531.736 -4.22857 0.373154 0
M  V30 5694 C 529.643 -5.40237 2.40619 0
M  V30 5695 H 528.573 -0.737589 0.156455 0
M  V30 5696 H 531.224 -1.52169 1.02552 0
M  V30 5697 H 529.606 -3.95971 0.0475904 0
M  V30 5698 H 530.78 -3.59456 2.88319 0
M  V30 5699 H 529.095 -3.34485 2.4801 0
M  V30 5700 H 531.692 -5.32133 0.523264 0
M  V30 5701 H 532.035 -4.10647 -0.683708 0
M  V30 5702 H 532.568 -3.85135 0.995801 0
M  V30 5703 H 529.307 -5.57449 3.44864 0
M  V30 5704 H 528.827 -5.73887 1.74396 0
M  V30 5705 H 530.506 -6.07102 2.23688 0
M  V30 5706 N 530.638 -0.59345 -1.46 0
M  V30 5707 C 531.885 -0.0831523 -2.02329 0
M  V30 5708 C 532.213 1.28093 -1.46364 0
M  V30 5709 O 531.468 1.85526 -0.622793 0
M  V30 5710 C 531.767 0.021178 -3.57394 0
M  V30 5711 C 531.433 -1.27671 -4.32448 0
M  V30 5712 C 530.095 -1.63227 -4.5267 0
M  V30 5713 C 532.447 -2.13511 -4.7546 0
M  V30 5714 C 529.775 -2.84401 -5.1316 0
M  V30 5715 C 532.127 -3.33922 -5.37289 0
M  V30 5716 C 530.791 -3.69747 -5.55737 0
M  V30 5717 H 530.061 -0.0304276 -0.740375 0
M  V30 5718 H 532.708 -0.772239 -1.75239 0
M  V30 5719 H 531.013 0.793454 -3.83682 0
M  V30 5720 H 532.71 0.431942 -3.98667 0
M  V30 5721 H 529.3 -0.989937 -4.17011 0
M  V30 5722 H 533.484 -1.87344 -4.59582 0
M  V30 5723 H 528.74 -3.12282 -5.25633 0
M  V30 5724 H 532.914 -4.00698 -5.69574 0
M  V30 5725 H 530.541 -4.6373 -6.02377 0
M  V30 5726 N 532.116 1.54067 -0.331816 0
M  V30 5727 C 533.365 1.99895 0.269209 0
M  V30 5728 C 533.678 1.22371 1.52593 0
M  V30 5729 O 534.884 1.58618 2.20347 0
M  V30 5730 C 533.34 3.55972 0.530244 0
M  V30 5731 C 532.948 4.4234 -0.709901 0
M  V30 5732 C 534.692 4.10247 1.09077 0
M  V30 5733 C 532.599 5.89905 -0.420312 0
M  V30 5734 H 531.529 0.746741 0.104371 0
M  V30 5735 H 534.18 1.78014 -0.445324 0
M  V30 5736 H 532.562 3.73873 1.30518 0
M  V30 5737 H 533.736 4.36215 -1.48504 0
M  V30 5738 H 532.051 3.98997 -1.19123 0
M  V30 5739 H 534.648 5.18095 1.32219 0
M  V30 5740 H 534.991 3.62739 2.0427 0
M  V30 5741 H 535.524 3.96011 0.376824 0
M  V30 5742 H 532.263 6.41623 -1.34164 0
M  V30 5743 H 531.783 5.98962 0.316962 0
M  V30 5744 H 533.462 6.46991 -0.0331956 0
M  V30 5745 N 533.594 0.0601682 1.57485 0
M  V30 5746 C 534.822 -0.620937 1.97363 0
M  V30 5747 C 535.237 -1.63846 0.938082 0
M  V30 5748 O 534.594 -1.82339 -0.0766578 0
M  V30 5749 C 534.645 -1.29987 3.37321 0
M  V30 5750 O 534.366 -0.323081 4.36907 0
M  V30 5751 C 535.867 -2.06989 3.92008 0
M  V30 5752 H 533.087 -0.169135 0.649334 0
M  V30 5753 H 535.631 0.129132 2.04092 0
M  V30 5754 H 533.786 -2.0011 3.31715 0
M  V30 5755 H 534.2 -0.808754 5.18227 0
M  V30 5756 H 535.674 -2.49901 4.92192 0
M  V30 5757 H 536.151 -2.92173 3.2792 0
M  V30 5758 H 536.757 -1.41757 4.0098 0
M  V30 5759 N 535.072 -1.5615 -0.213296 0
M  V30 5760 C 536.349 -1.70349 -0.961281 0
M  V30 5761 C 536.729 -0.609791 -2.02101 0
M  V30 5762 O 536.077 0.381987 -2.25285 0
M  V30 5763 C 536.287 -3.11982 -1.56424 0
M  V30 5764 C 537.635 -3.71649 -2.05334 0
M  V30 5765 O 538.659 -3.14995 -1.66302 0
M  V30 5766 O 537.518 -4.71038 -2.77102 0
M  V30 5767 H 534.612 -0.694121 -0.449582 0
M  V30 5768 H 537.158 -1.68464 -0.204426 0
M  V30 5769 H 535.93 -3.83046 -0.799457 0
M  V30 5770 H 535.553 -3.18019 -2.38641 0
M  V30 5771 N 536.55 0.480323 -1.50102 0
M  V30 5772 C 537.796 1.23208 -1.61837 0
M  V30 5773 C 538.151 1.89878 -0.310509 0
M  V30 5774 O 537.444 1.7871 0.690897 0
M  V30 5775 C 537.638 2.30708 -2.72963 0
M  V30 5776 C 537.467 1.74583 -4.14428 0
M  V30 5777 C 536.237 1.54964 -4.80951 0
M  V30 5778 C 538.435 1.24597 -4.98979 0
M  V30 5779 N 536.417 0.939855 -6.06663 0
M  V30 5780 C 537.788 0.758834 -6.15339 0
M  V30 5781 C 539.843 1.13365 -4.84822 0
M  V30 5782 C 538.546 0.17046 -7.19098 0
M  V30 5783 C 540.572 0.559221 -5.8875 0
M  V30 5784 C 539.934 0.082415 -7.04352 0
M  V30 5785 H 536.033 0.440065 -0.646426 0
M  V30 5786 H 538.617 0.535632 -1.87187 0
M  V30 5787 H 536.788 2.9779 -2.4935 0
M  V30 5788 H 538.52 2.97738 -2.74106 0
M  V30 5789 H 535.275 1.79926 -4.38091 0
M  V30 5790 H 535.699 0.653641 -6.73837 0
M  V30 5791 H 540.341 1.48823 -3.95742 0
M  V30 5792 H 538.059 -0.196347 -8.07861 0
M  V30 5793 H 541.645 0.474804 -5.79859 0
M  V30 5794 H 540.525 -0.355119 -7.83396 0
M  V30 5795 N 538.028 1.39524 0.732853 0
M  V30 5796 C 539.274 1.38072 1.49358 0
M  V30 5797 C 539.629 -0.0227943 1.92386 0
M  V30 5798 O 538.922 -0.98976 1.64056 0
M  V30 5799 C 539.116 2.28916 2.74468 0
M  V30 5800 C 538.945 3.7796 2.43673 0
M  V30 5801 C 537.715 4.46874 2.35863 0
M  V30 5802 C 539.913 4.69886 2.09074 0
M  V30 5803 N 537.895 5.81242 1.97561 0
M  V30 5804 C 539.266 5.9292 1.81234 0
M  V30 5805 C 541.321 4.57887 1.95561 0
M  V30 5806 C 540.024 7.05297 1.41242 0
M  V30 5807 C 542.05 5.70187 1.56972 0
M  V30 5808 C 541.412 6.92297 1.30018 0
M  V30 5809 H 537.511 0.56051 0.5453 0
M  V30 5810 H 540.095 1.75093 0.85151 0
M  V30 5811 H 538.266 1.9405 3.36451 0
M  V30 5812 H 539.998 2.18441 3.40684 0
M  V30 5813 H 536.753 4.00341 2.5303 0
M  V30 5814 H 537.177 6.52356 1.80997 0
M  V30 5815 H 541.819 3.64014 2.15067 0
M  V30 5816 H 539.537 7.99069 1.20476 0
M  V30 5817 H 543.123 5.62892 1.47119 0
M  V30 5818 H 542.003 7.7772 1.00605 0
M  V30 5819 N 539.506 -0.963266 1.24736 0
M  V30 5820 C 540.436 -2.07628 1.06832 0
M  V30 5821 C 541.417 -1.70088 -0.0200566 0
M  V30 5822 O 542.602 -1.93636 0.147854 0
M  V30 5823 C 539.732 -3.40636 0.677069 0
M  V30 5824 C 538.686 -3.9215 1.71471 0
M  V30 5825 C 538.012 -5.21553 1.1784 0
M  V30 5826 C 539.312 -4.19493 3.11164 0
M  V30 5827 H 541.006 -2.22864 1.9993 0
M  V30 5828 H 538.552 -1.07093 0.96266 0
M  V30 5829 H 540.505 -4.17941 0.538792 0
M  V30 5830 H 539.229 -3.25313 -0.289612 0
M  V30 5831 H 537.888 -3.17005 1.84128 0
M  V30 5832 H 537.536 -5.02593 0.202195 0
M  V30 5833 H 537.236 -5.56988 1.87185 0
M  V30 5834 H 538.76 -6.01463 1.05233 0
M  V30 5835 H 540.174 -4.87487 3.01711 0
M  V30 5836 H 538.571 -4.66165 3.77902 0
M  V30 5837 H 539.641 -3.26097 3.58871 0
M  V30 5838 N 540.985 -1.06182 -1.16461 0
M  V30 5839 C 542.21 -0.798599 -1.91408 0
M  V30 5840 C 542.635 0.640987 -1.76842 0
M  V30 5841 O 541.993 1.44652 -1.09296 0
M  V30 5842 C 542.041 -1.19665 -3.40165 0
M  V30 5843 O 541.145 -0.334768 -4.11039 0
M  V30 5844 H 540.486 -0.291961 -0.596368 0
M  V30 5845 H 543.016 -1.41732 -1.47557 0
M  V30 5846 H 543.026 -1.16772 -3.90933 0
M  V30 5847 H 541.701 -2.24526 -3.50087 0
M  V30 5848 H 540.278 -0.425168 -3.70468 0
M  V30 5849 N 542.463 1.3308 -0.844243 0
M  V30 5850 C 543.874 1.7992 -0.498566 0
M  V30 5851 C 544.225 1.69808 0.982834 0
M  V30 5852 O 543.35 1.25051 1.7661 0
M  V30 5853 C 543.945 3.26677 -0.898204 0
M  V30 5854 C 542.504 3.71513 -0.604583 0
M  V30 5855 C 541.651 2.54393 -1.10362 0
M  V30 5856 H 544.602 1.20526 -1.03244 0
M  V30 5857 H 544.623 3.79918 -0.21039 0
M  V30 5858 H 544.135 3.34004 -1.97643 0
M  V30 5859 H 542.236 3.69708 0.46335 0
M  V30 5860 H 542.349 4.64755 -1.16358 0
M  V30 5861 H 540.713 2.49246 -0.524273 0
M  V30 5862 H 541.496 2.6448 -2.18873 0
M  V30 5863 N 543.941 0.601185 1.45683 0
M  V30 5864 C 544.851 -0.123395 2.34275 0
M  V30 5865 C 545.867 -0.86702 1.5086 0
M  V30 5866 O 547.043 -0.826049 1.8368 0
M  V30 5867 C 544.108 -1.11237 3.2837 0
M  V30 5868 C 543.169 -0.371405 4.2769 0
M  V30 5869 C 542.402 -1.31327 5.1729 0
M  V30 5870 O 542.625 -2.55078 5.10188 0
M  V30 5871 O 541.559 -0.813811 5.96373 0
M  V30 5872 H 545.385 0.604483 2.97623 0
M  V30 5873 H 542.97 0.361477 1.44961 0
M  V30 5874 H 544.852 -1.68214 3.8637 0
M  V30 5875 H 543.527 -1.82139 2.67595 0
M  V30 5876 H 542.434 0.24067 3.73325 0
M  V30 5877 H 543.767 0.296998 4.91303 0
M  V30 5878 N 545.419 -1.53889 0.339982 0
M  V30 5879 C 546.665 -2.01152 -0.258003 0
M  V30 5880 C 546.998 -1.22749 -1.50487 0
M  V30 5881 O 546.273 -0.314156 -1.91946 0
M  V30 5882 C 546.556 -3.55468 -0.575717 0
M  V30 5883 C 546.409 -4.44584 0.682996 0
M  V30 5884 C 547.728 -4.1768 -1.38677 0
M  V30 5885 H 544.847 -0.731198 -0.0922992 0
M  V30 5886 H 547.489 -1.84352 0.459814 0
M  V30 5887 H 545.639 -3.69914 -1.18725 0
M  V30 5888 H 547.311 -4.41981 1.32102 0
M  V30 5889 H 545.554 -4.13592 1.3086 0
M  V30 5890 H 546.225 -5.5043 0.416001 0
M  V30 5891 H 548.701 -4.0691 -0.869705 0
M  V30 5892 H 547.577 -5.25734 -1.57783 0
M  V30 5893 H 547.838 -3.72069 -2.38782 0
M  V30 5894 N 546.897 -0.0685191 -1.57451 0
M  V30 5895 C 548.127 0.609577 -1.97402 0
M  V30 5896 C 548.535 1.63882 -0.945489 0
M  V30 5897 O 547.878 1.8354 0.0766052 0
M  V30 5898 C 547.94 1.3385 -3.33653 0
M  V30 5899 C 547.604 0.463103 -4.54648 0
M  V30 5900 C 548.601 -0.277964 -5.19156 0
M  V30 5901 C 546.286 0.388941 -5.00792 0
M  V30 5902 C 548.28 -1.08145 -6.28159 0
M  V30 5903 C 545.967 -0.418217 -6.09667 0
M  V30 5904 C 546.965 -1.15208 -6.73213 0
M  V30 5905 O 546.653 -1.94594 -7.79993 0
M  V30 5906 H 546.385 0.170197 -0.654224 0
M  V30 5907 H 548.939 -0.13647 -2.04946 0
M  V30 5908 H 547.169 2.13055 -3.22714 0
M  V30 5909 H 548.858 1.90851 -3.58233 0
M  V30 5910 H 549.624 -0.230241 -4.84453 0
M  V30 5911 H 545.503 0.949769 -4.5111 0
M  V30 5912 H 549.047 -1.65476 -6.7769 0
M  V30 5913 H 544.944 -0.467515 -6.43805 0
M  V30 5914 H 545.712 -1.8699 -7.96854 0
M  V30 5915 N 548.375 1.56261 0.205012 0
M  V30 5916 C 549.305 1.96779 1.257 0
M  V30 5917 C 550.286 0.838309 1.48008 0
M  V30 5918 O 551.471 1.10189 1.59913 0
M  V30 5919 C 548.601 2.29876 2.60335 0
M  V30 5920 C 547.555 3.45469 2.52656 0
M  V30 5921 C 546.881 3.64215 3.91473 0
M  V30 5922 C 548.181 4.79954 2.06014 0
M  V30 5923 H 549.875 2.84904 0.920338 0
M  V30 5924 H 547.421 1.37072 0.441277 0
M  V30 5925 H 549.374 2.56814 3.34102 0
M  V30 5926 H 548.098 1.38622 2.95722 0
M  V30 5927 H 546.757 3.18605 1.81345 0
M  V30 5928 H 546.405 2.70309 4.24196 0
M  V30 5929 H 546.105 4.41973 3.87213 0
M  V30 5930 H 547.629 3.93519 4.66878 0
M  V30 5931 H 549.043 5.05989 2.69533 0
M  V30 5932 H 547.44 5.61111 2.12777 0
M  V30 5933 H 548.51 4.74201 1.01297 0
M  V30 5934 N 549.853 -0.472356 1.50355 0
M  V30 5935 C 550.8 -1.57051 1.69126 0
M  V30 5936 C 551.77 -1.5733 0.532574 0
M  V30 5937 O 552.955 -1.7488 0.762994 0
M  V30 5938 C 550.095 -2.95033 1.79024 0
M  V30 5939 C 549.208 -3.04552 3.06386 0
M  V30 5940 C 548.343 -4.33441 3.07087 0
M  V30 5941 C 547.382 -4.36697 4.28908 0
M  V30 5942 N 546.519 -5.57056 4.27356 0
M  V30 5943 H 551.359 -1.40351 2.62879 0
M  V30 5944 H 548.896 -0.682403 1.30314 0
M  V30 5945 H 550.854 -3.75048 1.82744 0
M  V30 5946 H 549.484 -3.10371 0.887109 0
M  V30 5947 H 548.536 -2.17419 3.12143 0
M  V30 5948 H 549.848 -3.02818 3.96362 0
M  V30 5949 H 549.002 -5.21801 3.09529 0
M  V30 5950 H 547.741 -4.37782 2.14939 0
M  V30 5951 H 546.746 -3.46734 4.2668 0
M  V30 5952 H 547.971 -4.34049 5.22282 0
M  V30 5953 H 545.917 -5.62184 3.3806 0
M  V30 5954 H 545.834 -5.57058 5.111 0
M  V30 5955 H 547.102 -6.47545 4.33942 0
M  V30 5956 N 551.331 -1.39911 -0.725443 0
M  V30 5957 C 552.747 -1.21725 -1.03224 0
M  V30 5958 C 552.947 -0.0855224 -2.01318 0
M  V30 5959 O 552.003 0.55976 -2.46217 0
M  V30 5960 C 553.316 -2.55511 -1.58539 0
M  V30 5961 C 554.864 -2.62439 -1.70572 0
M  V30 5962 C 555.339 -3.9647 -2.29294 0
M  V30 5963 N 556.83 -3.98159 -2.36692 0
M  V30 5964 C 557.565 -4.98647 -2.83088 0
M  V30 5965 N 557.061 -6.0953 -3.2931 0
M  V30 5966 N 558.854 -4.8602 -2.82384 0
M  V30 5967 H 551.005 -2.12267 -0.075048 0
M  V30 5968 H 553.268 -0.943136 -0.0959066 0
M  V30 5969 H 552.974 -3.38926 -0.939249 0
M  V30 5970 H 552.848 -2.75905 -2.57208 0
M  V30 5971 H 555.235 -1.79401 -2.34306 0
M  V30 5972 H 555.316 -2.45885 -0.705297 0
M  V30 5973 H 554.96 -4.79942 -1.66186 0
M  V30 5974 H 554.89 -4.10349 -3.30032 0
M  V30 5975 H 557.381 -3.18085 -2.04035 0
M  V30 5976 H 557.694 -6.82106 -3.6325 0
M  V30 5977 H 556.039 -6.1311 -3.27294 0
M  V30 5978 H 559.23 -3.98493 -2.45603 0
M  V30 5979 H 559.403 -5.64478 -3.18226 0
M  V30 5980 N 552.809 0.956637 -1.25245 0
M  V30 5981 C 554.22 1.51569 -1.09012 0
M  V30 5982 C 554.571 1.93322 0.334813 0
M  V30 5983 O 553.696 1.78421 1.22454 0
M  V30 5984 C 554.291 2.75444 -1.97271 0
M  V30 5985 C 552.85 3.27669 -1.8523 0
M  V30 5986 C 551.997 2.00517 -1.91542 0
M  V30 5987 H 554.948 0.773746 -1.3856 0
M  V30 5988 H 554.969 3.4919 -1.51151 0
M  V30 5989 H 554.481 2.45024 -3.00973 0
M  V30 5990 H 552.582 3.62914 -0.844045 0
M  V30 5991 H 552.695 3.9582 -2.69932 0
M  V30 5992 H 551.059 2.15727 -1.35404 0
M  V30 5993 H 551.842 1.72448 -2.96844 0
M  V30 5994 N 554.287 1.06798 1.15896 0
M  V30 5995 C 555.25 0.687328 2.18651 0
M  V30 5996 C 556.25 -0.269559 1.58524 0
M  V30 5997 O 557.44 -0.0512627 1.74125 0
M  V30 5998 C 554.572 0.0121642 3.40898 0
M  V30 5999 H 555.765 1.59701 2.53842 0
M  V30 6000 H 553.318 0.863828 1.3026 0
M  V30 6001 H 554.053 -0.910025 3.1127 0
M  V30 6002 H 553.838 0.700309 3.85795 0
M  V30 6003 H 555.328 -0.239703 4.16911 0
M  V30 6004 N 555.766 -1.3263 0.851289 0
M  V30 6005 C 556.716 -2.26451 0.265302 0
M  V30 6006 C 557.7 -1.49814 -0.586899 0
M  V30 6007 O 558.892 -1.71525 -0.436834 0
M  V30 6008 C 556.021 -3.38895 -0.548212 0
M  V30 6009 C 555.107 -4.2292 0.316189 0
M  V30 6010 N 555.498 -4.86014 1.40084 0
M  V30 6011 C 553.796 -4.45876 0.105356 0
M  V30 6012 C 554.497 -5.48667 1.93235 0
M  V30 6013 N 553.473 -5.29455 1.232 0
M  V30 6014 H 557.275 -2.72757 1.09457 0
M  V30 6015 H 554.789 -1.4668 0.697047 0
M  V30 6016 H 556.786 -4.05111 -0.984402 0
M  V30 6017 H 555.446 -2.94135 -1.37531 0
M  V30 6018 H 556.457 -4.86212 1.78377 0
M  V30 6019 H 553.134 -4.11804 -0.687299 0
M  V30 6020 H 554.524 -6.08865 2.84135 0
M  V30 6021 N 557.244 -0.608902 -1.45362 0
M  V30 6022 C 558.469 -0.10921 -2.07112 0
M  V30 6023 C 558.894 1.19779 -1.45033 0
M  V30 6024 O 558.252 1.72961 -0.543527 0
M  V30 6025 C 558.3 0.0155745 -3.60597 0
M  V30 6026 O 557.404 1.06546 -3.98399 0
M  V30 6027 H 556.745 -0.0746619 -0.659789 0
M  V30 6028 H 559.275 -0.839283 -1.86594 0
M  V30 6029 H 559.285 0.213364 -4.07442 0
M  V30 6030 H 557.96 -0.938765 -4.05167 0
M  V30 6031 H 556.537 0.844024 -3.63223 0
M  V30 6032 N 558.722 1.53707 -0.348139 0
M  V30 6033 C 559.999 1.93247 0.302475 0
M  V30 6034 C 560.379 1.28012 1.67857 0
M  V30 6035 O 559.727 0.43274 2.24365 0
M  V30 6036 C 559.937 3.47031 0.370159 0
M  V30 6037 C 561.285 4.20066 0.61882 0
M  V30 6038 O 562.309 3.53319 0.452087 0
M  V30 6039 O 561.168 5.38318 0.94215 0
M  V30 6040 H 558.262 0.807736 0.177458 0
M  V30 6041 H 560.808 1.64927 -0.399651 0
M  V30 6042 H 559.58 3.86745 -0.59534 0
M  V30 6043 H 559.203 3.81532 1.11888 0
M  V30 6044 N 560.2 0.0768682 1.57412 0
M  V30 6045 C 561.477 -0.632359 1.85096 0
M  V30 6046 C 561.857 -1.87479 0.9703 0
M  V30 6047 O 561.205 -2.28469 0.0379062 0
M  V30 6048 C 561.415 -0.965174 3.35388 0
M  V30 6049 C 562.763 -1.33648 4.03018 0
M  V30 6050 O 563.787 -1.05675 3.40164 0
M  V30 6051 O 562.646 -1.85959 5.13889 0
M  V30 6052 H 559.74 -0.314574 0.764835 0
M  V30 6053 H 562.286 0.108184 1.69355 0
M  V30 6054 H 561.058 -0.0829745 3.91212 0
M  V30 6055 H 560.681 -1.76231 3.5641 0
M  V30 6056 N 561.678 -1.56367 -0.196722 0
M  V30 6057 C 562.924 -1.81698 -0.914182 0
M  V30 6058 C 563.279 -0.65367 -1.80956 0
M  V30 6059 O 562.572 0.351224 -1.88353 0
M  V30 6060 C 562.766 -3.10663 -1.767 0
M  V30 6061 C 562.595 -4.39428 -0.955689 0
M  V30 6062 C 561.365 -5.01221 -0.64076 0
M  V30 6063 C 563.563 -5.1337 -0.309165 0
M  V30 6064 N 561.545 -6.13608 0.189358 0
M  V30 6065 C 562.916 -6.18815 0.383225 0
M  V30 6066 C 564.971 -4.97393 -0.224726 0
M  V30 6067 C 563.674 -7.10015 1.15201 0
M  V30 6068 C 565.7 -5.89014 0.530658 0
M  V30 6069 C 565.062 -6.93903 1.2115 0
M  V30 6070 H 561.161 -0.716203 -0.31397 0
M  V30 6071 H 563.745 -1.93838 -0.18304 0
M  V30 6072 H 561.916 -2.99762 -2.46976 0
M  V30 6073 H 563.648 -3.24088 -2.42382 0
M  V30 6074 H 560.403 -4.63669 -0.96479 0
M  V30 6075 H 560.827 -6.74389 0.593979 0
M  V30 6076 H 565.469 -4.16331 -0.736754 0
M  V30 6077 H 563.187 -7.9054 1.67547 0
M  V30 6078 H 566.773 -5.78726 0.597326 0
M  V30 6079 H 565.653 -7.63576 1.78665 0
M  V30 6080 N 563.156 0.464375 -1.50603 0
M  V30 6081 C 564.572 0.798684 -1.38178 0
M  V30 6082 C 564.772 1.96568 -0.44308 0
M  V30 6083 O 563.828 2.52252 0.111814 0
M  V30 6084 C 565.141 1.10444 -2.79683 0
M  V30 6085 C 566.689 1.2105 -2.88645 0
M  V30 6086 C 567.164 1.54934 -4.30998 0
M  V30 6087 N 568.655 1.61913 -4.3398 0
M  V30 6088 C 569.39 1.8965 -5.41129 0
M  V30 6089 N 568.886 2.15361 -6.58477 0
M  V30 6090 N 570.679 1.91207 -5.28579 0
M  V30 6091 H 562.83 -0.304603 -2.10204 0
M  V30 6092 H 565.093 -0.0737804 -0.945125 0
M  V30 6093 H 564.799 0.319934 -3.50242 0
M  V30 6094 H 564.673 2.03896 -3.17342 0
M  V30 6095 H 567.06 1.98567 -2.18301 0
M  V30 6096 H 567.141 0.255613 -2.5452 0
M  V30 6097 H 566.785 0.779549 -5.01882 0
M  V30 6098 H 566.715 2.51584 -4.62615 0
M  V30 6099 H 569.206 1.44055 -3.49366 0
M  V30 6100 H 569.519 2.35818 -7.35941 0
M  V30 6101 H 567.864 2.1274 -6.6164 0
M  V30 6102 H 571.055 1.70622 -4.35897 0
M  V30 6103 H 571.228 2.12488 -6.12171 0
M  V30 6104 N 564.634 1.40294 0.718013 0
M  V30 6105 C 565.564 1.43118 1.84498 0
M  V30 6106 C 566.545 0.292403 1.67568 0
M  V30 6107 O 567.73 0.500675 1.87635 0
M  V30 6108 C 564.86 1.29065 3.22427 0
M  V30 6109 C 563.814 2.40521 3.54025 0
M  V30 6110 C 563.14 2.11546 4.91073 0
M  V30 6111 C 564.44 3.82859 3.55269 0
M  V30 6112 H 566.134 2.37432 1.82391 0
M  V30 6113 H 563.68 1.14283 0.87609 0
M  V30 6114 H 565.633 1.29658 4.00957 0
M  V30 6115 H 564.357 0.312271 3.25104 0
M  V30 6116 H 563.016 2.39173 2.77834 0
M  V30 6117 H 562.664 1.12104 4.90348 0
M  V30 6118 H 562.364 2.86216 5.1318 0
M  V30 6119 H 563.888 2.13817 5.71939 0
M  V30 6120 H 565.302 3.86044 4.23843 0
M  V30 6121 H 563.699 4.57029 3.88902 0
M  V30 6122 H 564.769 4.12617 2.54706 0
M  V30 6123 N 566.112 -0.949982 1.2575 0
M  V30 6124 C 567.389 -1.6718 1.01539 0
M  V30 6125 C 567.769 -2.06095 -0.456942 0
M  V30 6126 O 567.117 -1.77792 -1.43534 0
M  V30 6127 C 567.327 -2.8906 1.95564 0
M  V30 6128 C 568.675 -3.60909 2.23673 0
M  V30 6129 O 569.699 -2.9915 1.9336 0
M  V30 6130 O 568.558 -4.72127 2.75243 0
M  V30 6131 H 565.652 -0.731697 0.385419 0
M  V30 6132 H 568.198 -1.00249 1.36924 0
M  V30 6133 H 566.97 -2.57128 2.94959 0
M  V30 6134 H 566.593 -3.63719 1.60605 0
M  V30 6135 N 567.59 -1.07411 -1.15328 0
M  V30 6136 C 568.839 -0.792643 -1.85473 0
M  V30 6137 C 569.152 0.683789 -1.83259 0
M  V30 6138 O 570.358 1.08005 -2.49093 0
M  V30 6139 C 568.814 -1.36787 -3.32892 0
M  V30 6140 C 568.422 -2.87536 -3.43551 0
M  V30 6141 C 570.166 -1.16444 -4.08217 0
M  V30 6142 C 568.073 -3.38247 -4.85122 0
M  V30 6143 H 567.003 -0.292838 -0.694811 0
M  V30 6144 H 569.654 -1.29426 -1.30082 0
M  V30 6145 H 568.036 -0.793993 -3.87958 0
M  V30 6146 H 569.21 -3.50973 -2.98588 0
M  V30 6147 H 567.525 -3.06676 -2.81672 0
M  V30 6148 H 570.122 -1.51808 -5.12697 0
M  V30 6149 H 570.465 -0.10353 -4.16171 0
M  V30 6150 H 570.998 -1.70472 -3.59422 0
M  V30 6151 H 567.737 -4.43866 -4.82351 0
M  V30 6152 H 567.257 -2.79564 -5.30664 0
M  V30 6153 H 568.936 -3.34238 -5.5398 0
M  V30 6154 N 569.068 1.32177 -0.85831 0
M  V30 6155 C 570.001 2.26823 -0.25035 0
M  V30 6156 C 570.979 1.50571 0.61378 0
M  V30 6157 O 572.163 1.79682 0.569777 0
M  V30 6158 C 569.29 3.32472 0.646556 0
M  V30 6159 C 568.336 4.26255 -0.144675 0
M  V30 6160 S 569.169 5.13608 -1.5155 0
M  V30 6161 C 570.325 6.22778 -0.624408 0
M  V30 6162 H 570.558 2.7804 -1.05267 0
M  V30 6163 H 568.091 1.39764 -0.656152 0
M  V30 6164 H 570.049 3.93817 1.15837 0
M  V30 6165 H 568.71 2.80031 1.42272 0
M  V30 6166 H 567.903 5.01114 0.538613 0
M  V30 6167 H 567.505 3.69346 -0.588198 0
M  V30 6168 H 569.797 6.77287 0.169846 0
M  V30 6169 H 570.74 6.95233 -1.34376 0
M  V30 6170 H 571.148 5.64156 -0.197128 0
M  V30 6171 N 570.547 0.616602 1.45037 0
M  V30 6172 C 571.477 -0.0840787 2.33349 0
M  V30 6173 C 572.458 -0.849641 1.4736 0
M  V30 6174 O 573.643 -0.818407 1.76113 0
M  V30 6175 C 570.773 -1.07604 3.3021 0
M  V30 6176 C 569.727 -0.423096 4.25904 0
M  V30 6177 C 569.053 -1.52394 5.12523 0
M  V30 6178 C 570.353 0.661457 5.18095 0
M  V30 6179 H 572.047 0.653333 2.92185 0
M  V30 6180 H 569.593 0.315634 1.40498 0
M  V30 6181 H 571.546 -1.57485 3.90866 0
M  V30 6182 H 570.27 -1.84416 2.69552 0
M  V30 6183 H 568.929 0.05493 3.66559 0
M  V30 6184 H 568.577 -2.28257 4.48227 0
M  V30 6185 H 568.277 -1.09251 5.77354 0
M  V30 6186 H 569.801 -2.02485 5.76049 0
M  V30 6187 H 571.215 0.246353 5.7277 0
M  V30 6188 H 569.612 1.01517 5.91451 0
M  V30 6189 H 570.682 1.53446 4.59981 0
M  V30 6190 N 572.025 -1.5352 0.356285 0
M  V30 6191 C 572.972 -2.25439 -0.494569 0
M  V30 6192 C 573.942 -1.25752 -1.08516 0
M  V30 6193 O 575.127 -1.54513 -1.1194 0
M  V30 6194 C 572.267 -3.04011 -1.63313 0
M  V30 6195 C 571.38 -4.18574 -1.06862 0
M  V30 6196 C 570.515 -4.84607 -2.17552 0
M  V30 6197 C 569.554 -5.91218 -1.58518 0
M  V30 6198 N 568.691 -6.50979 -2.63003 0
M  V30 6199 H 573.531 -2.97737 0.125244 0
M  V30 6200 H 571.068 -1.46916 0.0735789 0
M  V30 6201 H 573.026 -3.47834 -2.30363 0
M  V30 6202 H 571.656 -2.33986 -2.22374 0
M  V30 6203 H 570.708 -3.79303 -0.288672 0
M  V30 6204 H 572.02 -4.95215 -0.596924 0
M  V30 6205 H 571.174 -5.31566 -2.92442 0
M  V30 6206 H 569.913 -4.07418 -2.6807 0
M  V30 6207 H 568.918 -5.4363 -0.821391 0
M  V30 6208 H 570.143 -6.70322 -1.08836 0
M  V30 6209 H 568.089 -5.76648 -3.12751 0
M  V30 6210 H 568.006 -7.23131 -2.20493 0
M  V30 6211 H 569.274 -7.02589 -3.37623 0
M  V30 6212 N 573.503 -0.0852151 -1.57369 0
M  V30 6213 C 574.919 0.271436 -1.57275 0
M  V30 6214 C 575.119 1.69109 -1.09565 0
M  V30 6215 O 574.175 2.40549 -0.767611 0
M  V30 6216 C 575.488 0.0688638 -3.00621 0
M  V30 6217 C 577.036 0.137373 -3.12698 0
M  V30 6218 C 577.511 -0.0370832 -4.57985 0
M  V30 6219 N 579.002 0.0180794 -4.63196 0
M  V30 6220 C 579.737 -0.0922953 -5.73326 0
M  V30 6221 N 579.233 -0.256948 -6.92323 0
M  V30 6222 N 581.026 -0.0342702 -5.6209 0
M  V30 6223 H 573.177 -1.01288 -1.86693 0
M  V30 6224 H 575.44 -0.396138 -0.861266 0
M  V30 6225 H 575.146 -0.911277 -3.39689 0
M  V30 6226 H 575.02 0.815442 -3.6828 0
M  V30 6227 H 577.407 1.10801 -2.73509 0
M  V30 6228 H 577.488 -0.640532 -2.47651 0
M  V30 6229 H 577.132 -1.00455 -4.97867 0
M  V30 6230 H 577.062 0.760392 -5.21081 0
M  V30 6231 H 579.553 0.143202 -3.77629 0
M  V30 6232 H 579.866 -0.332949 -7.72082 0
M  V30 6233 H 578.211 -0.292487 -6.94384 0
M  V30 6234 H 581.402 0.0931605 -4.68007 0
M  V30 6235 H 581.575 -0.12374 -6.47882 0
M  V30 6236 N 574.981 1.5647 0.188427 0
M  V30 6237 C 575.928 1.95073 1.23349 0
M  V30 6238 C 576.898 0.812238 1.44886 0
M  V30 6239 O 578.083 1.07095 1.57909 0
M  V30 6240 C 575.223 2.30124 2.57171 0
M  V30 6241 C 574.336 3.57069 2.43157 0
M  V30 6242 C 573.471 3.81411 3.69729 0
M  V30 6243 C 572.51 5.0176 3.50575 0
M  V30 6244 N 571.647 5.22321 4.69175 0
M  V30 6245 H 576.487 2.84171 0.89728 0
M  V30 6246 H 574.024 1.40623 0.431683 0
M  V30 6247 H 575.982 2.48463 3.35145 0
M  V30 6248 H 574.612 1.44159 2.88822 0
M  V30 6249 H 573.664 3.4674 1.56447 0
M  V30 6250 H 574.976 4.452 2.24942 0
M  V30 6251 H 574.13 4.00026 4.56141 0
M  V30 6252 H 572.869 2.91624 3.90905 0
M  V30 6253 H 571.874 4.83061 2.62549 0
M  V30 6254 H 573.099 5.93063 3.30837 0
M  V30 6255 H 571.045 4.35483 4.90602 0
M  V30 6256 H 570.962 6.04643 4.53809 0
M  V30 6257 H 572.23 5.45401 5.56919 0
M  V30 6258 N 576.459 -0.456382 1.50847 0
M  V30 6259 C 577.422 -1.53493 1.70213 0
M  V30 6260 C 578.422 -1.50264 0.572481 0
M  V30 6261 O 579.612 -1.52623 0.839751 0
M  V30 6262 C 576.744 -2.93091 1.741 0
M  V30 6263 H 577.937 -1.37633 2.66453 0
M  V30 6264 H 575.49 -0.683776 1.4055 0
M  V30 6265 H 576.225 -3.14378 0.796063 0
M  V30 6266 H 576.01 -2.9684 2.5618 0
M  V30 6267 H 577.5 -3.71368 1.90987 0
M  V30 6268 N 577.937 -1.40673 -0.710563 0
M  V30 6269 C 578.847 -1.43663 -1.85467 0
M  V30 6270 C 579.863 -0.328721 -1.70867 0
M  V30 6271 O 581.039 -0.574098 -1.93044 0
M  V30 6272 C 578.104 -1.30226 -3.21313 0
M  V30 6273 C 577.165 -2.51204 -3.48131 0
M  V30 6274 C 576.398 -2.38398 -4.77495 0
M  V30 6275 O 576.621 -1.40048 -5.5294 0
M  V30 6276 O 575.555 -3.2787 -5.04762 0
M  V30 6277 H 579.381 -2.40156 -1.859 0
M  V30 6278 H 576.966 -1.22049 -0.861652 0
M  V30 6279 H 578.848 -1.2496 -4.02446 0
M  V30 6280 H 577.523 -0.368419 -3.21597 0
M  V30 6281 H 576.43 -2.62048 -2.66987 0
M  V30 6282 H 577.763 -3.43366 -3.52648 0
M  V30 6283 N 579.415 0.9433 -1.26252 0
M  V30 6284 C 580.325 2.07532 -1.09397 0
M  V30 6285 C 581.341 1.73977 -0.0280449 0
M  V30 6286 O 582.517 2.00067 -0.231337 0
M  V30 6287 C 579.582 3.39002 -0.726523 0
M  V30 6288 C 578.643 3.86353 -1.87163 0
M  V30 6289 C 577.876 5.11549 -1.52162 0
M  V30 6290 O 578.099 5.68834 -0.422385 0
M  V30 6291 O 577.033 5.53889 -2.35565 0
M  V30 6292 H 580.859 2.24658 -2.04359 0
M  V30 6293 H 578.444 1.05988 -1.05295 0
M  V30 6294 H 580.326 4.18 -0.534236 0
M  V30 6295 H 579.001 3.2312 0.193721 0
M  V30 6296 H 577.908 3.0831 -2.11886 0
M  V30 6297 H 579.241 4.06752 -2.77152 0
M  V30 6298 N 580.893 1.08022 1.14757 0
M  V30 6299 C 582.141 0.805913 1.85336 0
M  V30 6300 C 582.462 -0.670162 1.83122 0
M  V30 6301 O 581.732 -1.48567 1.2769 0
M  V30 6302 H 580.312 0.295138 0.686223 0
M  V30 6303 H 582.974 1.36538 1.3908 0
M  V30 6304 H 582.07 1.14655 2.90277 0
M  V30 6305 N 582.371 -1.3172 0.865308 0
M  V30 6306 C 583.617 -1.97168 0.474633 0
M  V30 6307 C 583.95 -1.68263 -0.969604 0
M  V30 6308 O 583.225 -0.976588 -1.68205 0
M  V30 6309 C 583.508 -3.52689 0.726808 0
M  V30 6310 C 583.361 -3.91185 2.22024 0
M  V30 6311 C 584.68 -4.39689 0.190201 0
M  V30 6312 H 581.799 -0.716185 0.17392 0
M  V30 6313 H 584.441 -1.55925 1.08569 0
M  V30 6314 H 582.591 -3.8795 0.206705 0
M  V30 6315 H 584.263 -3.66049 2.80724 0
M  V30 6316 H 582.506 -3.3996 2.69462 0
M  V30 6317 H 583.177 -4.99604 2.34735 0
M  V30 6318 H 585.653 -4.11225 0.635103 0
M  V30 6319 H 584.529 -5.47469 0.396132 0
M  V30 6320 H 584.79 -4.32683 -0.907625 0
M  V30 6321 N 583.85 -0.624285 -1.44708 0
M  V30 6322 C 585.266 -0.289322 -1.56956 0
M  V30 6323 C 585.466 1.20773 -1.61295 0
M  V30 6324 O 584.522 1.9915 -1.55227 0
M  V30 6325 C 585.835 -0.975215 -2.84447 0
M  V30 6326 C 587.383 -0.952709 -2.98148 0
M  V30 6327 C 587.858 -1.61893 -4.28433 0
M  V30 6328 N 589.349 -1.5852 -4.35231 0
M  V30 6329 C 590.084 -2.06969 -5.34744 0
M  V30 6330 N 589.58 -2.63579 -6.40701 0
M  V30 6331 N 591.373 -1.97638 -5.26209 0
M  V30 6332 H 583.524 -1.59612 -1.40135 0
M  V30 6333 H 585.787 -0.669592 -0.671081 0
M  V30 6334 H 585.493 -2.02999 -2.87201 0
M  V30 6335 H 585.367 -0.508749 -3.73753 0
M  V30 6336 H 587.754 0.093568 -2.94952 0
M  V30 6337 H 587.835 -1.4576 -2.10209 0
M  V30 6338 H 587.479 -2.66463 -4.32389 0
M  V30 6339 H 587.409 -1.08893 -5.15218 0
M  V30 6340 H 589.899 -1.17183 -3.59272 0
M  V30 6341 H 590.213 -2.98298 -7.12908 0
M  V30 6342 H 588.558 -2.67626 -6.41406 0
M  V30 6343 H 591.749 -1.5314 -4.42341 0
M  V30 6344 H 591.922 -2.35708 -6.03611 0
M  V30 6345 N 585.328 1.53329 -0.364422 0
M  V30 6346 C 586.574 2.01537 0.225969 0
M  V30 6347 C 586.907 1.25128 1.48515 0
M  V30 6348 O 586.182 0.344653 1.91422 0
M  V30 6349 C 586.465 3.56339 0.519092 0
M  V30 6350 C 586.318 4.43441 -0.753639 0
M  V30 6351 C 587.637 4.19833 1.32015 0
M  V30 6352 H 584.756 0.732573 0.0806548 0
M  V30 6353 H 587.398 1.83597 -0.489084 0
M  V30 6354 H 585.548 3.71756 1.12825 0
M  V30 6355 H 587.22 4.39823 -1.39116 0
M  V30 6356 H 585.463 4.11457 -1.37424 0
M  V30 6357 H 586.134 5.49699 -0.503517 0
M  V30 6358 H 588.61 4.08242 0.804859 0
M  V30 6359 H 587.486 5.28177 1.49399 0
M  V30 6360 H 587.747 3.75821 2.32832 0
M  V30 6361 N 586.806 0.0935595 1.57322 0
M  V30 6362 C 588.031 -0.582324 1.99057 0
M  V30 6363 C 588.456 -1.61025 0.972242 0
M  V30 6364 O 587.814 -1.81202 -0.0594622 0
M  V30 6365 C 587.862 -1.20799 3.39765 0
M  V30 6366 O 586.966 -2.32382 3.40694 0
M  V30 6367 H 586.307 -0.147884 0.647323 0
M  V30 6368 H 588.837 0.174516 2.03854 0
M  V30 6369 H 588.847 -1.54966 3.77425 0
M  V30 6370 H 587.522 -0.454914 4.13405 0
M  V30 6371 H 586.099 -1.99845 3.14827 0
M  V30 6372 N 588.284 -1.56567 -0.180126 0
M  V30 6373 C 589.533 -1.80685 -0.896426 0
M  V30 6374 C 589.846 -0.669335 -1.83791 0
M  V30 6375 O 591.052 -0.795209 -2.59593 0
M  V30 6376 C 589.508 -3.20132 -1.6445 0
M  V30 6377 C 589.116 -4.41727 -0.747088 0
M  V30 6378 C 590.86 -3.53549 -2.34955 0
M  V30 6379 C 588.767 -5.72195 -1.49489 0
M  V30 6380 H 587.697 -0.673758 -0.338477 0
M  V30 6381 H 590.348 -1.8289 -0.149467 0
M  V30 6382 H 588.73 -3.12218 -2.43589 0
M  V30 6383 H 589.904 -4.608 0.00671129 0
M  V30 6384 H 588.219 -4.16122 -0.152134 0
M  V30 6385 H 590.816 -4.48267 -2.91481 0
M  V30 6386 H 591.159 -2.78006 -3.09868 0
M  V30 6387 H 591.692 -3.62976 -1.62768 0
M  V30 6388 H 588.431 -6.50743 -0.788251 0
M  V30 6389 H 587.951 -5.57115 -2.22224 0
M  V30 6390 H 589.63 -6.1384 -2.04472 0
M  V30 6391 N 589.762 0.448376 -1.51087 0
M  V30 6392 C 590.692 1.55102 -1.74544 0
M  V30 6393 C 591.673 1.59357 -0.594932 0
M  V30 6394 O 592.858 1.75261 -0.836491 0
M  V30 6395 C 589.988 2.93268 -1.86041 0
M  V30 6396 C 588.942 3.03877 -3.01402 0
M  V30 6397 C 588.268 4.43914 -2.98068 0
M  V30 6398 C 589.568 2.7898 -4.41551 0
M  V30 6399 H 591.262 1.35724 -2.66869 0
M  V30 6400 H 588.808 0.651498 -1.28419 0
M  V30 6401 H 590.761 3.70356 -2.01034 0
M  V30 6402 H 589.485 3.13853 -0.903548 0
M  V30 6403 H 588.144 2.29227 -2.86096 0
M  V30 6404 H 587.792 4.6145 -2.00182 0
M  V30 6405 H 587.492 4.51944 -3.75527 0
M  V30 6406 H 589.016 5.22991 -3.1514 0
M  V30 6407 H 590.43 3.45805 -4.57265 0
M  V30 6408 H 588.827 2.98431 -5.20633 0
M  V30 6409 H 589.897 1.74663 -4.5235 0
M  V30 6410 N 591.24 1.41047 0.703093 0
M  V30 6411 C 592.17 1.45067 1.82969 0
M  V30 6412 C 593.151 0.31016 1.67248 0
M  V30 6413 O 594.336 0.520548 1.87093 0
M  V30 6414 C 591.466 1.32478 3.2104 0
M  V30 6415 C 590.42 2.44262 3.51454 0
M  V30 6416 C 589.746 2.16742 4.88801 0
M  V30 6417 C 591.046 3.86606 3.51189 0
M  V30 6418 H 592.74 2.39353 1.79863 0
M  V30 6419 H 590.286 1.15206 0.863919 0
M  V30 6420 H 592.239 1.33904 3.99559 0
M  V30 6421 H 590.963 0.346735 3.24754 0
M  V30 6422 H 589.622 2.42107 2.75282 0
M  V30 6423 H 589.27 1.17299 4.89132 0
M  V30 6424 H 588.97 2.91643 5.10116 0
M  V30 6425 H 590.494 2.19872 5.69639 0
M  V30 6426 H 591.908 3.90517 4.19725 0
M  V30 6427 H 590.305 4.61128 3.84033 0
M  V30 6428 H 591.375 4.15296 2.50315 0
M  V30 6429 N 592.718 -0.936591 1.26751 0
M  V30 6430 C 593.965 -1.68331 1.12566 0
M  V30 6431 C 594.293 -1.91677 -0.330168 0
M  V30 6432 O 593.548 -1.49859 -1.2586 0
M  V30 6433 C 593.847 -3.06099 1.84494 0
M  V30 6434 C 593.513 -3.02493 3.34378 0
M  V30 6435 C 592.175 -3.01217 3.75262 0
M  V30 6436 C 594.527 -2.94453 4.30055 0
M  V30 6437 C 591.855 -2.89672 5.10203 0
M  V30 6438 C 594.207 -2.84449 5.65041 0
M  V30 6439 C 592.871 -2.81518 6.0523 0
M  V30 6440 H 592.141 -0.615965 0.411907 0
M  V30 6441 H 594.788 -1.09292 1.5725 0
M  V30 6442 H 593.093 -3.6879 1.32292 0
M  V30 6443 H 594.79 -3.62733 1.70955 0
M  V30 6444 H 591.38 -3.04269 3.01858 0
M  V30 6445 H 595.564 -2.94544 3.99447 0
M  V30 6446 H 590.82 -2.85783 5.40498 0
M  V30 6447 H 594.994 -2.77192 6.38856 0
M  V30 6448 H 592.621 -2.72329 7.09747 0
M  V30 6449 N 594.196 -1.08629 -1.14182 0
M  V30 6450 C 595.143 -0.718299 -2.19338 0
M  V30 6451 C 596.113 0.296587 -1.63431 0
M  V30 6452 O 597.298 0.180079 -1.89948 0
M  V30 6453 C 594.438 -0.136203 -3.44831 0
M  V30 6454 C 593.551 -1.20414 -4.14879 0
M  V30 6455 C 592.686 -0.585666 -5.27962 0
M  V30 6456 C 591.725 -1.63548 -5.89846 0
M  V30 6457 N 590.862 -1.03864 -6.94375 0
M  V30 6458 H 595.702 -1.61932 -2.50164 0
M  V30 6459 H 593.239 -0.80919 -1.22844 0
M  V30 6460 H 595.197 0.219021 -4.16625 0
M  V30 6461 H 593.827 0.728121 -3.14481 0
M  V30 6462 H 592.879 -1.67676 -3.41451 0
M  V30 6463 H 594.191 -1.99959 -4.56966 0
M  V30 6464 H 593.345 -0.178818 -6.06436 0
M  V30 6465 H 592.084 0.24142 -4.87102 0
M  V30 6466 H 591.089 -2.05197 -5.10073 0
M  V30 6467 H 592.314 -2.46509 -6.3278 0
M  V30 6468 H 590.26 -0.232687 -6.55587 0
M  V30 6469 H 590.177 -1.77116 -7.3496 0
M  V30 6470 H 591.445 -0.657724 -7.7672 0
M  V30 6471 N 595.674 1.31259 -0.872281 0
M  V30 6472 C 596.584 2.32221 -0.333255 0
M  V30 6473 C 597.6 1.6481 0.558013 0
M  V30 6474 O 598.776 1.96212 0.454175 0
M  V30 6475 C 595.841 3.43708 0.454479 0
M  V30 6476 C 594.902 4.26774 -0.465024 0
M  V30 6477 C 594.135 5.32937 0.28521 0
M  V30 6478 O 594.358 5.49968 1.513 0
M  V30 6479 O 593.292 6.00834 -0.358126 0
M  V30 6480 H 597.118 2.80252 -1.17016 0
M  V30 6481 H 594.703 1.352 -0.635724 0
M  V30 6482 H 596.585 4.11656 0.900963 0
M  V30 6483 H 595.26 2.97836 1.26789 0
M  V30 6484 H 594.167 3.61571 -0.960055 0
M  V30 6485 H 595.5 4.76217 -1.2441 0
M  V30 6486 N 597.152 0.631951 1.44375 0
M  V30 6487 C 598.398 0.13697 2.02337 0
M  V30 6488 C 598.731 -1.23826 1.49602 0
M  V30 6489 O 598.006 -1.8221 0.680415 0
M  V30 6490 C 598.289 0.124536 3.59885 0
M  V30 6491 C 598.142 1.53217 4.229 0
M  V30 6492 C 599.461 -0.550481 4.36644 0
M  V30 6493 H 596.58 0.051247 0.735216 0
M  V30 6494 H 599.222 0.808581 1.71936 0
M  V30 6495 H 597.372 -0.44737 3.85916 0
M  V30 6496 H 599.044 2.15303 4.07973 0
M  V30 6497 H 597.287 2.0858 3.80364 0
M  V30 6498 H 597.958 1.4755 5.31914 0
M  V30 6499 H 600.434 -0.0641154 4.16051 0
M  V30 6500 H 599.31 -0.528371 5.46351 0
M  V30 6501 H 599.571 -1.62097 4.11311 0
M  V30 6502 N 598.631 -1.53133 0.372548 0
M  V30 6503 C 599.541 -2.29671 -0.478379 0
M  V30 6504 C 600.557 -1.35913 -1.08644 0
M  V30 6505 O 601.733 -1.68975 -1.09588 0
M  V30 6506 C 598.798 -3.07625 -1.599 0
M  V30 6507 C 597.859 -4.17061 -1.01776 0
M  V30 6508 C 597.092 -4.91289 -2.08497 0
M  V30 6509 O 597.315 -4.65442 -3.29727 0
M  V30 6510 O 596.249 -5.7705 -1.71164 0
M  V30 6511 H 600.075 -3.03355 0.144649 0
M  V30 6512 H 597.66 -1.48773 0.136729 0
M  V30 6513 H 599.542 -3.56281 -2.25038 0
M  V30 6514 H 598.217 -2.3677 -2.2073 0
M  V30 6515 H 597.124 -3.72641 -0.330098 0
M  V30 6516 H 598.457 -4.90102 -0.453915 0
M  V30 6517 N 600.109 -0.101901 -1.5727 0
M  V30 6518 C 601.039 0.851544 -2.17419 0
M  V30 6519 C 602.02 1.28942 -1.10941 0
M  V30 6520 O 603.205 1.35509 -1.39107 0
M  V30 6521 C 600.335 2.10816 -2.75996 0
M  V30 6522 C 599.289 1.80867 -3.87906 0
M  V30 6523 C 598.615 3.13413 -4.33216 0
M  V30 6524 C 599.915 1.0903 -5.10793 0
M  V30 6525 H 601.609 0.350381 -2.97343 0
M  V30 6526 H 599.155 0.16709 -1.43027 0
M  V30 6527 H 601.108 2.77959 -3.16729 0
M  V30 6528 H 599.832 2.63227 -1.93337 0
M  V30 6529 H 598.491 1.16119 -3.47724 0
M  V30 6530 H 598.139 3.63725 -3.47438 0
M  V30 6531 H 597.839 2.94155 -5.08671 0
M  V30 6532 H 599.363 3.81704 -4.76586 0
M  V30 6533 H 600.777 1.66295 -5.48652 0
M  V30 6534 H 599.174 0.99927 -5.91722 0
M  V30 6535 H 600.244 0.0741704 -4.84843 0
M  V30 6536 N 601.587 1.56661 0.17182 0
M  V30 6537 C 602.55 1.9549 1.19651 0
M  V30 6538 C 603.55 0.838501 1.37207 0
M  V30 6539 O 604.74 1.10556 1.34622 0
M  V30 6540 C 601.872 2.24927 2.56166 0
M  V30 6541 H 603.065 2.87184 0.864007 0
M  V30 6542 H 600.618 1.50711 0.41425 0
M  V30 6543 H 601.353 1.35944 2.94431 0
M  V30 6544 H 601.138 3.06301 2.4479 0
M  V30 6545 H 602.628 2.55891 3.30014 0
M  V30 6546 N 603.065 -0.440357 1.51323 0
M  V30 6547 C 603.995 -1.54174 1.75364 0
M  V30 6548 C 604.976 -1.59039 0.603375 0
M  V30 6549 O 606.161 -1.74815 0.845774 0
M  V30 6550 C 603.291 -2.92277 1.87593 0
M  V30 6551 C 602.245 -3.02274 3.03009 0
M  V30 6552 C 601.571 -4.42327 3.00418 0
M  V30 6553 C 602.871 -2.76634 4.43024 0
M  V30 6554 H 604.565 -1.34307 2.67585 0
M  V30 6555 H 602.111 -0.644678 1.28763 0
M  V30 6556 H 604.064 -3.69284 2.02995 0
M  V30 6557 H 602.788 -3.13369 0.920179 0
M  V30 6558 H 601.447 -2.27706 2.87307 0
M  V30 6559 H 601.095 -4.60382 2.02626 0
M  V30 6560 H 600.795 -4.49946 3.77918 0
M  V30 6561 H 602.319 -5.21312 3.17909 0
M  V30 6562 H 603.733 -3.43376 4.59093 0
M  V30 6563 H 602.13 -2.95666 5.22208 0
M  V30 6564 H 603.2 -1.72262 4.5327 0
M  V30 6565 N 604.543 -1.41418 -0.695603 0
M  V30 6566 C 605.791 -1.40496 -1.45277 0
M  V30 6567 C 606.112 -0.0149538 -1.94994 0
M  V30 6568 O 605.382 0.9432 -1.71699 0
M  V30 6569 H 603.962 -0.517147 -0.539044 0
M  V30 6570 H 606.624 -1.76656 -0.823321 0
M  V30 6571 H 605.72 -2.09214 -2.31595 0
M  V30 6572 N 606.021 0.929856 -1.27246 0
M  V30 6573 C 607.27 1.67182 -1.12842 0
M  V30 6574 C 607.583 1.9287 0.325666 0
M  V30 6575 O 608.789 2.64999 0.590572 0
M  V30 6576 C 607.245 3.01097 -1.97151 0
M  V30 6577 C 606.853 2.83115 -3.47203 0
M  V30 6578 C 608.597 3.78907 -1.91389 0
M  V30 6579 C 606.504 4.12573 -4.23719 0
M  V30 6580 H 605.434 0.627064 -0.418697 0
M  V30 6581 H 608.085 1.0332 -1.51649 0
M  V30 6582 H 606.467 3.66004 -1.51186 0
M  V30 6583 H 607.641 2.26989 -4.01015 0
M  V30 6584 H 605.956 2.18736 -3.54321 0
M  V30 6585 H 608.553 4.74837 -2.45834 0
M  V30 6586 H 608.896 4.0674 -0.887047 0
M  V30 6587 H 609.429 3.20794 -2.35237 0
M  V30 6588 H 606.168 3.8992 -5.26918 0
M  V30 6589 H 605.688 4.68371 -3.74685 0
M  V30 6590 H 607.367 4.8095 -4.32777 0
M  V30 6591 N 607.499 1.09233 1.13605 0
M  V30 6592 C 608.447 0.724572 2.21027 0
M  V30 6593 C 609.441 -0.273595 1.67176 0
M  V30 6594 O 610.647 -0.135266 1.79491 0
M  V30 6595 H 607.022 0.216319 0.720215 0
M  V30 6596 H 608.993 1.63975 2.49309 0
M  V30 6597 C 607.742 0.159126 3.47336 0
M  V30 6598 H 607.065 0.918387 3.89109 0
M  V30 6599 H 608.505 -0.0602851 4.23957 0
M  V30 6600 C 606.964 -1.10514 3.18258 0
M  V30 6601 O 607.494 -2.18869 3.36837 0
M  V30 6602 N 605.7 -1.01886 2.72154 0
M  V30 6603 H 605.247 -0.137027 2.57235 0
M  V30 6604 H 605.205 -1.8655 2.53074 0
M  V30 6605 N 608.977 -1.30795 0.87923 0
M  V30 6606 C 610.202 -2.01063 0.508769 0
M  V30 6607 C 610.627 -1.65508 -0.893803 0
M  V30 6608 O 609.985 -0.868616 -1.59138 0
M  V30 6609 C 610.033 -3.54054 0.683991 0
M  V30 6610 O 609.137 -4.11498 -0.272654 0
M  V30 6611 H 608.478 -0.632786 0.201191 0
M  V30 6612 H 611.008 -1.66776 1.18519 0
M  V30 6613 H 611.018 -4.03845 0.580798 0
M  V30 6614 H 609.693 -3.79271 1.70665 0
M  V30 6615 H 608.27 -3.72695 -0.12364 0
M  V30 6616 N 610.455 -0.639598 -1.44038 0
M  V30 6617 C 611.703 -0.147188 -2.01563 0
M  V30 6618 C 612.024 1.2384 -1.50628 0
M  V30 6619 O 611.294 1.82452 -0.713316 0
M  V30 6620 H 609.874 -0.0514231 -0.745228 0
M  V30 6621 H 612.536 -0.828205 -1.76428 0
M  V30 6622 H 611.632 -0.121358 -3.11864 0
M  V30 6623 N 611.933 1.52934 -0.380664 0
M  V30 6624 C 613.163 2.05587 0.204302 0
M  V30 6625 C 613.571 1.25288 1.41773 0
M  V30 6626 O 612.914 0.290394 1.8139 0
M  V30 6627 C 612.976 3.53624 0.647324 0
M  V30 6628 C 612.64 4.54765 -0.451465 0
M  V30 6629 C 613.637 5.03226 -1.30614 0
M  V30 6630 C 611.322 4.98508 -0.616025 0
M  V30 6631 C 613.316 5.94046 -2.31058 0
M  V30 6632 C 611.003 5.89131 -1.62381 0
M  V30 6633 C 612.001 6.36792 -2.46952 0
M  V30 6634 O 611.689 7.25626 -3.46009 0
M  V30 6635 H 611.421 0.675013 0.0365198 0
M  V30 6636 H 613.975 1.98125 -0.541827 0
M  V30 6637 H 612.205 3.58676 1.44529 0
M  V30 6638 H 613.894 3.89061 1.15698 0
M  V30 6639 H 614.66 4.70167 -1.19027 0
M  V30 6640 H 610.539 4.60989 0.0324987 0
M  V30 6641 H 614.083 6.3117 -2.97104 0
M  V30 6642 H 609.98 6.21603 -1.7401 0
M  V30 6643 H 610.748 7.43664 -3.41916 0
M  V30 6644 N 613.412 0.11024 1.57214 0
M  V30 6645 C 614.637 -0.561179 1.99664 0
M  V30 6646 C 615.062 -1.59985 0.989266 0
M  V30 6647 O 614.42 -1.81255 -0.0402399 0
M  V30 6648 C 614.468 -1.17189 3.41027 0
M  V30 6649 O 613.572 -2.28755 3.4314 0
M  V30 6650 H 612.913 -0.14101 0.648855 0
M  V30 6651 H 615.443 0.196128 2.03658 0
M  V30 6652 H 615.453 -1.50954 3.79047 0
M  V30 6653 H 614.128 -0.411041 4.13864 0
M  V30 6654 H 612.705 -1.96495 3.16929 0
M  V30 6655 N 614.89 -1.56749 -0.16351 0
M  V30 6656 C 615.837 -1.97011 -1.2023 0
M  V30 6657 C 616.807 -0.835186 -1.43575 0
M  V30 6658 O 617.992 -1.09594 -1.56185 0
M  V30 6659 C 615.132 -2.34186 -2.53478 0
M  V30 6660 C 614.245 -3.60893 -2.37446 0
M  V30 6661 C 613.38 -3.87245 -3.63614 0
M  V30 6662 C 612.419 -5.07274 -3.42548 0
M  V30 6663 N 611.556 -5.29719 -4.60806 0
M  V30 6664 H 616.396 -2.85562 -0.851958 0
M  V30 6665 H 613.933 -1.41292 -0.409257 0
M  V30 6666 H 615.891 -2.53764 -3.31149 0
M  V30 6667 H 614.521 -1.48736 -2.86492 0
M  V30 6668 H 613.573 -3.49185 -1.50911 0
M  V30 6669 H 614.885 -4.48722 -2.1783 0
M  V30 6670 H 614.039 -4.07232 -4.49719 0
M  V30 6671 H 612.778 -2.97806 -3.86216 0
M  V30 6672 H 611.783 -4.87177 -2.5483 0
M  V30 6673 H 613.008 -5.98251 -3.2136 0
M  V30 6674 H 610.954 -4.43233 -4.83612 0
M  V30 6675 H 610.871 -6.11786 -4.44132 0
M  V30 6676 H 612.139 -5.54192 -5.48171 0
M  V30 6677 N 616.368 0.432326 -1.51554 0
M  V30 6678 C 617.784 0.769195 -1.39841 0
M  V30 6679 C 617.984 1.95584 -0.484675 0
M  V30 6680 O 617.04 2.52433 0.0582829 0
M  V30 6681 C 618.353 1.04487 -2.81963 0
M  V30 6682 C 619.901 1.149 -2.91148 0
M  V30 6683 C 620.376 1.45758 -4.34187 0
M  V30 6684 N 621.867 1.52671 -4.37317 0
M  V30 6685 C 622.602 1.78129 -5.4503 0
M  V30 6686 N 622.098 2.01345 -6.62897 0
M  V30 6687 N 623.891 1.79953 -5.32516 0
M  V30 6688 H 616.042 -0.349122 -2.09511 0
M  V30 6689 H 618.305 -0.0938113 -0.943347 0
M  V30 6690 H 618.011 0.24557 -3.50842 0
M  V30 6691 H 617.885 1.97119 -3.21596 0
M  V30 6692 H 620.272 1.93891 -2.22464 0
M  V30 6693 H 620.353 0.201568 -2.55005 0
M  V30 6694 H 619.997 0.672917 -5.03423 0
M  V30 6695 H 619.927 2.41715 -4.67848 0
M  V30 6696 H 622.418 1.36612 -3.52343 0
M  V30 6697 H 622.731 2.20155 -7.40778 0
M  V30 6698 H 621.076 1.98657 -6.66003 0
M  V30 6699 H 624.267 1.61337 -4.39418 0
M  V30 6700 H 624.44 1.99455 -6.1654 0
M  V30 6701 N 617.846 1.41785 0.688094 0
M  V30 6702 C 618.809 1.43936 1.78368 0
M  V30 6703 C 619.809 0.328866 1.57401 0
M  V30 6704 O 620.999 0.589093 1.63937 0
M  V30 6705 C 618.131 1.25804 3.16838 0
M  V30 6706 H 619.324 2.41472 1.77852 0
M  V30 6707 H 616.877 1.28037 0.896448 0
M  V30 6708 H 617.612 0.291386 3.22988 0
M  V30 6709 H 617.397 2.06272 3.33458 0
M  V30 6710 H 618.887 1.30162 3.96797 0
M  V30 6711 N 619.324 -0.923095 1.27737 0
M  V30 6712 C 620.254 -2.04124 1.13383 0
M  V30 6713 C 621.235 -1.70066 0.0340658 0
M  V30 6714 O 622.42 -1.93068 0.209383 0
M  V30 6715 C 619.55 -3.3831 0.785097 0
M  V30 6716 C 618.504 -3.86496 1.8386 0
M  V30 6717 C 617.83 -5.1754 1.34373 0
M  V30 6718 C 619.13 -4.09381 3.24353 0
M  V30 6719 H 620.824 -2.1639 2.06919 0
M  V30 6720 H 618.37 -1.03976 0.996243 0
M  V30 6721 H 620.323 -4.16016 0.671485 0
M  V30 6722 H 619.047 -3.2607 -0.185969 0
M  V30 6723 H 617.706 -3.10987 1.9412 0
M  V30 6724 H 617.354 -5.01696 0.361989 0
M  V30 6725 H 617.054 -5.50751 2.04811 0
M  V30 6726 H 618.578 -5.97811 1.24315 0
M  V30 6727 H 619.992 -4.77641 3.17067 0
M  V30 6728 H 618.389 -4.53906 3.92542 0
M  V30 6729 H 619.459 -3.14515 3.69064 0
M  V30 6730 N 620.802 -1.09834 -1.13024 0
M  V30 6731 C 621.735 -0.685453 -2.17662 0
M  V30 6732 C 622.713 0.310142 -1.59615 0
M  V30 6733 O 623.897 0.21052 -1.87321 0
M  V30 6734 C 621.024 -0.0104476 -3.38698 0
M  V30 6735 C 620.07 -0.968522 -4.15358 0
M  V30 6736 S 620.903 -2.48272 -4.74469 0
M  V30 6737 C 622.059 -1.82025 -5.98847 0
M  V30 6738 H 622.292 -1.57187 -2.52348 0
M  V30 6739 H 619.825 -0.914728 -1.24387 0
M  V30 6740 H 621.783 0.372694 -4.08805 0
M  V30 6741 H 620.444 0.852673 -3.02305 0
M  V30 6742 H 619.637 -0.443373 -5.02046 0
M  V30 6743 H 619.239 -1.29327 -3.50928 0
M  V30 6744 H 621.531 -1.14678 -6.67724 0
M  V30 6745 H 622.474 -2.66645 -6.55977 0
M  V30 6746 H 622.882 -1.2874 -5.49624 0
M  V30 6747 N 622.28 1.30327 -0.886154 0
M  V30 6748 C 623.21 2.30549 -0.370028 0
M  V30 6749 C 624.191 1.61039 0.547751 0
M  V30 6750 O 625.376 1.8864 0.461353 0
M  V30 6751 C 622.506 3.44808 0.415275 0
M  V30 6752 C 621.46 4.26024 -0.41085 0
M  V30 6753 C 620.786 5.32347 0.501128 0
M  V30 6754 C 622.086 4.95433 -1.65359 0
M  V30 6755 H 623.78 2.73969 -1.20754 0
M  V30 6756 H 621.326 1.3171 -0.582097 0
M  V30 6757 H 623.279 4.13986 0.78699 0
M  V30 6758 H 622.003 3.00197 1.28644 0
M  V30 6759 H 620.662 3.58535 -0.764719 0
M  V30 6760 H 620.31 4.83982 1.37004 0
M  V30 6761 H 620.01 5.87581 -0.0478356 0
M  V30 6762 H 621.534 6.0438 0.869333 0
M  V30 6763 H 622.948 5.5712 -1.35239 0
M  V30 6764 H 621.345 5.60537 -2.14284 0
M  V30 6765 H 622.415 4.21493 -2.39733 0
M  V30 6766 N 623.758 0.647228 1.43697 0
M  V30 6767 C 624.688 -0.0345631 2.33474 0
M  V30 6768 C 625.669 -0.818193 1.4913 0
M  V30 6769 O 626.854 -0.780867 1.77809 0
M  V30 6770 C 623.984 -1.00576 3.32418 0
M  V30 6771 C 622.938 -0.33266 4.26705 0
M  V30 6772 C 622.264 -1.41489 5.1564 0
M  V30 6773 C 623.564 0.771204 5.16575 0
M  V30 6774 H 625.258 0.715163 2.90733 0
M  V30 6775 H 622.804 0.345364 1.39797 0
M  V30 6776 H 624.757 -1.49159 3.94119 0
M  V30 6777 H 623.481 -1.78657 2.73403 0
M  V30 6778 H 622.14 0.13267 3.6636 0
M  V30 6779 H 621.788 -2.18698 4.52968 0
M  V30 6780 H 621.488 -0.969799 5.79542 0
M  V30 6781 H 623.012 -1.9022 5.80214 0
M  V30 6782 H 624.426 0.36779 5.72119 0
M  V30 6783 H 622.823 1.1404 5.89165 0
M  V30 6784 H 623.893 1.63169 4.56622 0
M  V30 6785 N 625.236 -1.5273 0.388769 0
M  V30 6786 C 626.186 -2.23238 -0.463567 0
M  V30 6787 C 627.17 -1.23606 -1.03007 0
M  V30 6788 O 628.362 -1.48945 -0.956261 0
M  V30 6789 C 625.491 -3.04228 -1.5906 0
M  V30 6790 C 624.577 -4.11255 -1.03587 0
M  V30 6791 N 624.968 -5.0538 -0.206038 0
M  V30 6792 C 623.266 -4.26376 -1.30841 0
M  V30 6793 C 623.967 -5.81613 0.100359 0
M  V30 6794 N 622.943 -5.41264 -0.503447 0
M  V30 6795 H 626.745 -2.93367 0.176978 0
M  V30 6796 H 624.259 -1.61188 0.198046 0
M  V30 6797 H 626.256 -3.53277 -2.21362 0
M  V30 6798 H 624.916 -2.35634 -2.23398 0
M  V30 6799 H 625.927 -5.17663 0.156659 0
M  V30 6800 H 622.604 -3.69011 -1.95287 0
M  V30 6801 H 623.994 -6.67442 0.772676 0
M  V30 6802 N 626.714 -0.118576 -1.57153 0
M  V30 6803 C 628.125 0.40687 -1.82213 0
M  V30 6804 C 628.476 1.66636 -1.03571 0
M  V30 6805 O 627.601 2.14682 -0.272171 0
M  V30 6806 C 628.196 0.744949 -3.30509 0
M  V30 6807 C 626.755 1.21503 -3.5625 0
M  V30 6808 C 625.902 0.223511 -2.76398 0
M  V30 6809 H 628.853 -0.343712 -1.54933 0
M  V30 6810 H 628.874 1.6024 -3.45114 0
M  V30 6811 H 628.386 -0.171911 -3.87719 0
M  V30 6812 H 626.487 2.1488 -3.04396 0
M  V30 6813 H 626.6 1.16065 -4.64829 0
M  V30 6814 H 624.964 0.71046 -2.44591 0
M  V30 6815 H 625.747 -0.686439 -3.36367 0
M  V30 6816 N 628.193 1.56834 0.155195 0
M  V30 6817 C 629.141 1.98584 1.21107 0
M  V30 6818 C 630.135 0.876987 1.44932 0
M  V30 6819 O 631.341 1.06215 1.45322 0
M  V30 6820 H 627.716 0.632039 0.407469 0
M  V30 6821 H 629.687 2.86561 0.832195 0
M  V30 6822 C 628.436 2.37555 2.53895 0
M  V30 6823 H 627.759 3.22428 2.3639 0
M  V30 6824 H 629.199 2.70598 3.26424 0
M  V30 6825 C 627.658 1.22507 3.13837 0
M  V30 6826 O 628.188 0.521388 3.98302 0
M  V30 6827 N 626.394 0.991444 2.73164 0
M  V30 6828 H 625.941 1.56544 2.04577 0
M  V30 6829 H 625.899 0.223546 3.13604 0
M  V30 6830 N 629.671 -0.424282 1.51781 0
M  V30 6831 C 630.92 -1.16961 1.64326 0
M  V30 6832 C 631.233 -1.92035 0.371749 0
M  V30 6833 O 632.439 -2.68873 0.37676 0
M  V30 6834 C 630.895 -2.12782 2.90262 0
M  V30 6835 C 630.503 -1.43295 4.24465 0
M  V30 6836 C 632.247 -2.87667 3.12166 0
M  V30 6837 C 630.154 -2.37676 5.41538 0
M  V30 6838 H 629.084 -0.440293 0.612093 0
M  V30 6839 H 631.735 -0.435431 1.78259 0
M  V30 6840 H 630.117 -2.8969 2.69992 0
M  V30 6841 H 631.291 -0.718564 4.55163 0
M  V30 6842 H 629.606 -0.805118 4.08542 0
M  V30 6843 H 632.203 -3.58395 3.96808 0
M  V30 6844 H 632.546 -3.49758 2.25776 0
M  V30 6845 H 633.079 -2.17863 3.32837 0
M  V30 6846 H 629.818 -1.80255 6.30229 0
M  V30 6847 H 629.338 -3.07132 5.15199 0
M  V30 6848 H 631.017 -2.98529 5.74012 0
M  V30 6849 N 631.149 -1.42148 -0.680565 0
M  V30 6850 C 632.096 -1.45175 -1.79424 0
M  V30 6851 C 633.066 -0.304352 -1.63288 0
M  V30 6852 O 634.251 -0.507591 -1.83924 0
M  V30 6853 C 631.391 -1.35429 -3.17416 0
M  V30 6854 C 630.504 -2.60158 -3.4488 0
M  V30 6855 C 629.639 -2.42596 -4.72568 0
M  V30 6856 C 628.678 -3.62727 -4.93047 0
M  V30 6857 N 627.815 -3.44143 -6.11973 0
M  V30 6858 H 632.655 -2.40349 -1.76172 0
M  V30 6859 H 630.192 -1.19334 -0.860107 0
M  V30 6860 H 632.15 -1.27777 -3.97151 0
M  V30 6861 H 630.78 -0.438536 -3.19807 0
M  V30 6862 H 629.832 -2.78199 -2.5944 0
M  V30 6863 H 631.144 -3.49473 -3.55908 0
M  V30 6864 H 630.298 -2.32497 -5.60384 0
M  V30 6865 H 629.037 -1.50761 -4.63813 0
M  V30 6866 H 628.042 -3.73264 -4.03676 0
M  V30 6867 H 629.267 -4.55534 -5.03652 0
M  V30 6868 H 627.213 -2.5502 -6.04401 0
M  V30 6869 H 627.13 -4.27041 -6.23836 0
M  V30 6870 H 628.398 -3.37845 -7.02482 0
M  V30 6871 N 632.627 0.916307 -1.28225 0
M  V30 6872 C 633.873 1.66765 -1.154 0
M  V30 6873 C 634.206 1.91912 0.297251 0
M  V30 6874 O 633.481 1.51766 1.21644 0
M  V30 6875 C 633.764 3.02715 -1.95028 0
M  V30 6876 C 633.617 2.84738 -3.48201 0
M  V30 6877 C 634.936 4.03215 -1.76369 0
M  V30 6878 H 632.055 0.605205 -0.42059 0
M  V30 6879 H 634.697 1.06255 -1.57512 0
M  V30 6880 H 632.847 3.54365 -1.59242 0
M  V30 6881 H 634.519 2.40118 -3.9388 0
M  V30 6882 H 632.762 2.19848 -3.73964 0
M  V30 6883 H 633.433 3.8127 -3.99171 0
M  V30 6884 H 635.909 3.60617 -2.07593 0
M  V30 6885 H 634.785 4.96306 -2.34459 0
M  V30 6886 H 635.046 4.36288 -0.71452 0
M  V30 6887 N 634.105 1.10431 1.1244 0
M  V30 6888 C 635.038 0.696987 2.17296 0
M  V30 6889 C 636.016 -0.301673 1.59777 0
M  V30 6890 O 637.2 -0.200583 1.8743 0
M  V30 6891 C 634.327 0.0284094 3.38688 0
M  V30 6892 C 633.373 0.990536 4.14838 0
M  V30 6893 S 634.206 2.50785 4.73146 0
M  V30 6894 C 635.362 1.85198 5.97873 0
M  V30 6895 H 635.595 1.58523 2.51511 0
M  V30 6896 H 633.128 0.921312 1.239 0
M  V30 6897 H 635.086 -0.351009 4.08997 0
M  V30 6898 H 633.747 -0.836629 3.02753 0
M  V30 6899 H 632.94 0.469991 5.01804 0
M  V30 6900 H 632.542 1.31186 3.50237 0
M  V30 6901 H 634.834 1.18217 6.67106 0
M  V30 6902 H 635.777 2.7012 6.54554 0
M  V30 6903 H 636.185 1.31653 5.48933 0
M  V30 6904 N 635.583 -1.29855 0.893053 0
M  V30 6905 C 636.999 -1.48366 0.588199 0
M  V30 6906 C 637.199 -1.81654 -0.872018 0
M  V30 6907 O 636.255 -1.909 -1.65268 0
M  V30 6908 C 637.568 -2.60136 1.5083 0
M  V30 6909 C 639.116 -2.74014 1.51279 0
M  V30 6910 C 639.591 -3.88905 2.41902 0
M  V30 6911 N 641.082 -3.96228 2.39911 0
M  V30 6912 C 641.817 -4.84458 3.06738 0
M  V30 6913 N 641.313 -5.77426 3.8282 0
M  V30 6914 N 643.106 -4.77894 2.95929 0
M  V30 6915 H 635.257 -1.06522 1.83757 0
M  V30 6916 H 637.52 -0.528495 0.787018 0
M  V30 6917 H 637.226 -2.42383 2.54839 0
M  V30 6918 H 637.1 -3.56793 1.22388 0
M  V30 6919 H 639.487 -2.91167 0.480179 0
M  V30 6920 H 639.568 -1.77952 1.83757 0
M  V30 6921 H 639.212 -3.72508 3.45253 0
M  V30 6922 H 639.142 -4.84322 2.06737 0
M  V30 6923 H 641.633 -3.29728 1.84629 0
M  V30 6924 H 641.946 -6.41529 4.30883 0
M  V30 6925 H 640.291 -5.77332 3.86927 0
M  V30 6926 H 643.482 -4.04248 2.36012 0
M  V30 6927 H 643.655 -5.46444 3.48286 0
M  V30 6928 N 637.061 -0.65484 -1.43351 0
M  V30 6929 C 638.011 0.0581325 -2.27926 0
M  V30 6930 C 638.995 0.793188 -1.3999 0
M  V30 6931 O 640.187 0.675387 -1.63608 0
M  V30 6932 C 637.316 1.02272 -3.27712 0
M  V30 6933 C 636.402 0.286048 -4.23134 0
M  V30 6934 N 636.793 -0.698298 -5.00957 0
M  V30 6935 C 635.091 0.527272 -4.42872 0
M  V30 6936 C 635.792 -1.1357 -5.70506 0
M  V30 6937 N 634.768 -0.469631 -5.41568 0
M  V30 6938 H 638.57 -0.697182 -2.85511 0
M  V30 6939 H 636.084 -0.482252 -1.55074 0
M  V30 6940 H 638.081 1.5483 -3.87083 0
M  V30 6941 H 636.741 1.77807 -2.71688 0
M  V30 6942 H 637.752 -1.07708 -5.06576 0
M  V30 6943 H 634.429 1.26367 -3.97916 0
M  V30 6944 H 635.819 -1.95027 -6.42973 0
M  V30 6945 N 638.539 1.52521 -0.396863 0
M  V30 6946 C 639.95 1.86547 0.0754868 0
M  V30 6947 C 640.301 1.31621 1.45501 0
M  V30 6948 O 639.426 0.650563 2.0639 0
M  V30 6949 C 640.021 3.38495 0.143754 0
M  V30 6950 C 638.58 3.72205 0.560413 0
M  V30 6951 C 637.727 2.75954 -0.272856 0
M  V30 6952 H 640.678 1.46323 -0.614434 0
M  V30 6953 H 640.699 3.68153 0.961425 0
M  V30 6954 H 640.211 3.78442 -0.860415 0
M  V30 6955 H 638.312 3.3783 1.57167 0
M  V30 6956 H 638.425 4.78074 0.313314 0
M  V30 6957 H 636.789 2.53339 0.263 0
M  V30 6958 H 637.572 3.1874 -1.27515 0
M  V30 6959 N 640.017 0.126909 1.57088 0
M  V30 6960 C 641.294 -0.573152 1.87014 0
M  V30 6961 C 641.674 -1.84297 1.02945 0
M  V30 6962 O 641.022 -2.28232 0.110573 0
M  V30 6963 C 641.232 -0.857984 3.38289 0
M  V30 6964 C 642.58 -1.20759 4.07066 0
M  V30 6965 O 643.604 -0.947992 3.43353 0
M  V30 6966 O 642.463 -1.69516 5.19545 0
M  V30 6967 H 639.557 -0.290082 0.774456 0
M  V30 6968 H 642.103 0.162008 1.68925 0
M  V30 6969 H 640.875 0.0415286 3.91278 0
M  V30 6970 H 640.498 -1.64803 3.61837 0
M  V30 6971 N 641.495 -1.56914 -0.146875 0
M  V30 6972 C 642.427 -1.94878 -1.20645 0
M  V30 6973 C 643.44 -0.844633 -1.39175 0
M  V30 6974 O 644.629 -1.12304 -1.38744 0
M  V30 6975 C 641.729 -2.20769 -2.57127 0
M  V30 6976 C 640.902 -3.52053 -2.59572 0
M  V30 6977 C 639.961 -3.66482 -3.77594 0
M  V30 6978 O 638.987 -4.38873 -3.62462 0
M  V30 6979 N 640.189 -3.03156 -4.95052 0
M  V30 6980 H 642.954 -2.86374 -0.883757 0
M  V30 6981 H 640.515 -1.58366 -0.336436 0
M  V30 6982 H 642.507 -2.27664 -3.34591 0
M  V30 6983 H 641.077 -1.35538 -2.81688 0
M  V30 6984 H 640.297 -3.56598 -1.68023 0
M  V30 6985 H 641.585 -4.38396 -2.58238 0
M  V30 6986 H 640.983 -2.44258 -5.10249 0
M  V30 6987 H 639.54 -3.15611 -5.70292 0
M  V30 6988 N 642.974 0.416227 -1.52004 0
M  V30 6989 C 644.22 1.16555 -1.6596 0
M  V30 6990 C 644.553 1.90347 -0.384906 0
M  V30 6991 O 643.828 1.84474 0.616405 0
M  V30 6992 C 644.111 2.1657 -2.87696 0
M  V30 6993 C 643.964 1.46722 -4.25197 0
M  V30 6994 C 645.283 3.17321 -3.04951 0
M  V30 6995 H 642.402 0.422369 -0.603965 0
M  V30 6996 H 645.044 0.452141 -1.84542 0
M  V30 6997 H 643.194 2.77411 -2.71985 0
M  V30 6998 H 644.866 0.89056 -4.52622 0
M  V30 6999 H 643.109 0.769263 -4.26925 0
M  V30 7000 H 643.78 2.19665 -5.0641 0
M  V30 7001 H 646.256 2.66552 -3.19514 0
M  V30 7002 H 645.132 3.84573 -3.91656 0
M  V30 7003 H 645.393 3.84643 -2.17951 0
M  V30 7004 N 644.452 1.42507 0.673017 0
M  V30 7005 C 645.68 1.46473 1.46128 0
M  V30 7006 C 646.095 0.0765912 1.88645 0
M  V30 7007 O 645.452 -0.909057 1.58248 0
M  V30 7008 C 645.503 2.39339 2.70923 0
M  V30 7009 O 645.224 3.72752 2.3019 0
M  V30 7010 C 646.725 2.52343 3.64469 0
M  V30 7011 H 643.945 0.49812 0.449575 0
M  V30 7012 H 646.489 1.87041 0.826802 0
M  V30 7013 H 644.644 2.02019 3.30556 0
M  V30 7014 H 645.058 4.22503 3.10791 0
M  V30 7015 H 646.532 3.2144 4.48754 0
M  V30 7016 H 647.009 1.56189 4.1049 0
M  V30 7017 H 647.615 2.90392 3.10729 0
M  V30 7018 N 645.93 -0.909495 1.28709 0
M  V30 7019 C 646.86 -2.0291 1.15542 0
M  V30 7020 C 647.841 -1.7002 0.0521017 0
M  V30 7021 O 649.026 -1.92835 0.229849 0
M  V30 7022 C 646.156 -3.37458 0.820935 0
M  V30 7023 C 645.11 -3.84524 1.87949 0
M  V30 7024 C 644.436 -5.16086 1.39854 0
M  V30 7025 C 645.736 -4.05918 3.28676 0
M  V30 7026 H 647.43 -2.14183 2.09203 0
M  V30 7027 H 644.976 -1.02913 1.00722 0
M  V30 7028 H 646.929 -4.1528 0.715571 0
M  V30 7029 H 645.653 -3.26249 -0.151374 0
M  V30 7030 H 644.312 -3.08911 1.97408 0
M  V30 7031 H 643.96 -5.01284 0.41518 0
M  V30 7032 H 643.66 -5.48547 2.1064 0
M  V30 7033 H 645.184 -5.96459 1.30649 0
M  V30 7034 H 646.598 -4.74252 3.22115 0
M  V30 7035 H 644.995 -4.49717 3.97334 0
M  V30 7036 H 646.065 -3.10583 3.72379 0
M  V30 7037 N 647.408 -1.11026 -1.11852 0
M  V30 7038 C 648.654 -0.867633 -1.83967 0
M  V30 7039 C 649.009 0.600309 -1.82795 0
M  V30 7040 O 648.302 1.43731 -1.26696 0
M  V30 7041 C 648.496 -1.35777 -3.30604 0
M  V30 7042 C 648.325 -2.87183 -3.46058 0
M  V30 7043 C 647.095 -3.55256 -3.59334 0
M  V30 7044 C 649.293 -3.85258 -3.40706 0
M  V30 7045 N 647.275 -4.94923 -3.63215 0
M  V30 7046 C 648.646 -5.1097 -3.51155 0
M  V30 7047 C 650.701 -3.77879 -3.2421 0
M  V30 7048 C 649.404 -6.30171 -3.46809 0
M  V30 7049 C 651.43 -4.96586 -3.2118 0
M  V30 7050 C 650.792 -6.21149 -3.32196 0
M  V30 7051 H 646.891 -0.370574 -0.688621 0
M  V30 7052 H 649.475 -1.41379 -1.33865 0
M  V30 7053 H 647.646 -0.83885 -3.79233 0
M  V30 7054 H 649.378 -1.05874 -3.90606 0
M  V30 7055 H 646.133 -3.05714 -3.61713 0
M  V30 7056 H 646.557 -5.67726 -3.68804 0
M  V30 7057 H 651.199 -2.82485 -3.14582 0
M  V30 7058 H 648.917 -7.25847 -3.55206 0
M  V30 7059 H 652.503 -4.92591 -3.09589 0
M  V30 7060 H 651.383 -7.11463 -3.29834 0
M  V30 7061 N 648.886 1.2938 -0.899927 0
M  V30 7062 C 649.849 2.25983 -0.382677 0
M  V30 7063 C 650.849 1.53366 0.483259 0
M  V30 7064 O 652.039 1.71798 0.28828 0
M  V30 7065 C 649.171 3.37878 0.452915 0
M  V30 7066 H 650.364 2.73252 -1.23586 0
M  V30 7067 H 647.917 1.40825 -0.678088 0
M  V30 7068 H 648.652 2.95949 1.32608 0
M  V30 7069 H 648.437 3.91742 -0.167562 0
M  V30 7070 H 649.927 4.09746 0.806107 0
M  V30 7071 N 650.364 0.662433 1.43002 0
M  V30 7072 C 651.314 -0.0460442 2.27954 0
M  V30 7073 C 652.298 -0.785753 1.40409 0
M  V30 7074 O 653.49 -0.666701 1.63964 0
M  V30 7075 C 650.619 -1.00532 3.2825 0
M  V30 7076 C 649.705 -0.263604 4.2328 0
M  V30 7077 N 650.096 0.724855 5.00579 0
M  V30 7078 C 648.394 -0.503778 4.43146 0
M  V30 7079 C 649.095 1.16594 5.69895 0
M  V30 7080 N 648.071 0.498345 5.41311 0
M  V30 7081 H 651.873 0.712314 2.85137 0
M  V30 7082 H 649.387 0.490469 1.54817 0
M  V30 7083 H 651.384 -1.52775 3.87899 0
M  V30 7084 H 650.044 -1.76364 2.72628 0
M  V30 7085 H 651.055 1.10393 5.05998 0
M  V30 7086 H 647.732 -1.24255 3.98581 0
M  V30 7087 H 649.122 1.98434 6.4193 0
M  V30 7088 N 651.842 -1.52309 0.404946 0
M  V30 7089 C 652.792 -2.23717 -0.439864 0
M  V30 7090 C 653.776 -1.24692 -1.0169 0
M  V30 7091 O 654.968 -1.49951 -0.940409 0
M  V30 7092 C 652.097 -3.05898 -1.55825 0
M  V30 7093 C 651.183 -4.12331 -0.992188 0
M  V30 7094 N 651.574 -5.0557 -0.152424 0
M  V30 7095 C 649.872 -4.2774 -1.26312 0
M  V30 7096 C 650.573 -5.81474 0.162041 0
M  V30 7097 N 649.549 -5.41767 -0.44601 0
M  V30 7098 H 653.351 -2.93162 0.208084 0
M  V30 7099 H 650.865 -1.60969 0.215131 0
M  V30 7100 H 652.862 -3.55605 -2.17603 0
M  V30 7101 H 651.522 -2.37991 -2.20886 0
M  V30 7102 H 652.533 -5.17468 0.211556 0
M  V30 7103 H 649.21 -3.71062 -1.91362 0
M  V30 7104 H 650.6 -6.66585 0.843423 0
M  V30 7105 N 653.32 -0.135238 -1.57019 0
M  V30 7106 C 654.23 0.822226 -2.19719 0
M  V30 7107 C 655.246 1.28057 -1.17802 0
M  V30 7108 O 656.422 1.3402 -1.50335 0
M  V30 7109 C 653.487 2.0484 -2.79717 0
M  V30 7110 C 652.548 1.64042 -3.96723 0
M  V30 7111 C 651.781 2.80814 -4.53849 0
M  V30 7112 O 652.004 3.967 -4.0986 0
M  V30 7113 O 650.938 2.56963 -5.44292 0
M  V30 7114 H 654.764 0.318552 -3.02025 0
M  V30 7115 H 652.349 0.0912021 -1.49121 0
M  V30 7116 H 654.231 2.76622 -3.17897 0
M  V30 7117 H 652.906 2.54182 -2.00432 0
M  V30 7118 H 651.813 0.893182 -3.63281 0
M  V30 7119 H 653.146 1.19426 -4.77492 0
M  V30 7120 N 654.798 1.5699 0.138552 0
M  V30 7121 C 655.745 1.98899 1.17081 0
M  V30 7122 C 656.715 0.857922 1.42228 0
M  V30 7123 O 657.9 1.12065 1.54422 0
M  V30 7124 C 655.04 2.38189 2.4972 0
M  V30 7125 C 654.153 3.64624 2.31674 0
M  V30 7126 C 653.288 3.9298 3.57407 0
M  V30 7127 C 652.327 5.1266 3.34435 0
M  V30 7128 N 651.464 5.36983 4.5232 0
M  V30 7129 H 656.304 2.86881 0.80642 0
M  V30 7130 H 653.841 1.41925 0.386727 0
M  V30 7131 H 655.799 2.59 3.2707 0
M  V30 7132 H 654.429 1.53275 2.84089 0
M  V30 7133 H 653.481 3.51542 1.45337 0
M  V30 7134 H 654.793 4.52131 2.10664 0
M  V30 7135 H 653.947 4.14335 4.43183 0
M  V30 7136 H 652.686 3.03912 3.8143 0
M  V30 7137 H 651.691 4.9117 2.47048 0
M  V30 7138 H 652.916 6.03288 3.11802 0
M  V30 7139 H 650.862 4.50871 4.76499 0
M  V30 7140 H 650.779 6.18775 4.34343 0
M  V30 7141 H 652.047 5.62842 5.39285 0
M  V30 7142 N 656.276 -0.40816 1.52223 0
M  V30 7143 C 657.206 -1.5042 1.78595 0
M  V30 7144 C 658.187 -1.57723 0.636974 0
M  V30 7145 O 659.372 -1.72982 0.882664 0
M  V30 7146 C 656.502 -2.88232 1.93751 0
M  V30 7147 C 655.456 -2.95779 3.09352 0
M  V30 7148 C 654.782 -4.35855 3.09732 0
M  V30 7149 C 656.082 -2.67175 4.48793 0
M  V30 7150 H 657.776 -1.28601 2.70374 0
M  V30 7151 H 655.322 -0.617221 1.30101 0
M  V30 7152 H 657.275 -3.64895 2.10783 0
M  V30 7153 H 655.999 -3.11347 0.986443 0
M  V30 7154 H 654.658 -2.21561 2.92072 0
M  V30 7155 H 654.306 -4.55981 2.12346 0
M  V30 7156 H 654.006 -4.41829 3.87377 0
M  V30 7157 H 655.53 -5.14451 3.28895 0
M  V30 7158 H 656.944 -3.3356 4.66273 0
M  V30 7159 H 655.341 -2.84523 5.28362 0
M  V30 7160 H 656.411 -1.62609 4.56822 0
M  V30 7161 N 657.755 -1.42862 -0.66545 0
M  V30 7162 C 658.685 -1.49867 -1.79059 0
M  V30 7163 C 659.666 -0.354394 -1.66367 0
M  V30 7164 O 660.851 -0.569969 -1.85647 0
M  V30 7165 C 657.981 -1.40943 -3.17415 0
M  V30 7166 C 656.935 -2.53495 -3.44854 0
M  V30 7167 C 656.261 -2.29626 -4.82883 0
M  V30 7168 C 657.561 -3.95781 -3.40815 0
M  V30 7169 H 659.255 -2.44037 -1.73453 0
M  V30 7170 H 656.801 -1.17456 -0.833071 0
M  V30 7171 H 658.754 -1.4445 -3.95869 0
M  V30 7172 H 657.478 -0.432716 -3.23721 0
M  V30 7173 H 656.137 -2.4932 -2.68766 0
M  V30 7174 H 655.785 -1.30226 -4.8585 0
M  V30 7175 H 655.485 -3.05065 -5.02204 0
M  V30 7176 H 657.009 -2.34897 -5.63609 0
M  V30 7177 H 658.423 -4.01508 -4.09224 0
M  V30 7178 H 656.82 -4.71148 -3.71672 0
M  V30 7179 H 657.89 -4.21786 -2.39216 0
M  V30 7180 N 659.233 0.902656 -1.29189 0
M  V30 7181 C 660.479 1.65532 -1.17163 0
M  V30 7182 C 660.812 1.92216 0.276879 0
M  V30 7183 O 660.087 1.53048 1.20027 0
M  V30 7184 C 660.37 3.00629 -1.98228 0
M  V30 7185 C 660.223 2.81029 -3.51202 0
M  V30 7186 C 661.542 4.01321 -1.80635 0
M  V30 7187 H 658.661 0.60071 -0.426985 0
M  V30 7188 H 661.303 1.04578 -1.5863 0
M  V30 7189 H 659.453 3.52656 -1.62991 0
M  V30 7190 H 661.125 2.35927 -3.96404 0
M  V30 7191 H 659.368 2.1587 -3.76275 0
M  V30 7192 H 660.039 3.77014 -4.03192 0
M  V30 7193 H 662.515 3.58394 -2.11406 0
M  V30 7194 H 661.391 4.93792 -2.3971 0
M  V30 7195 H 661.652 4.35505 -0.760754 0
M  V30 7196 N 660.711 1.11618 1.11262 0
M  V30 7197 C 661.957 0.867463 1.83311 0
M  V30 7198 C 662.29 -0.605366 1.84524 0
M  V30 7199 O 661.565 -1.44704 1.29965 0
M  V30 7200 C 661.848 1.43207 3.30399 0
M  V30 7201 C 661.701 2.97265 3.3757 0
M  V30 7202 C 663.02 1.08454 4.26528 0
M  V30 7203 H 660.139 0.316578 0.665543 0
M  V30 7204 H 662.781 1.38137 1.30454 0
M  V30 7205 H 660.931 0.994982 3.75543 0
M  V30 7206 H 662.603 3.49591 3.00971 0
M  V30 7207 H 660.846 3.33237 2.77733 0
M  V30 7208 H 661.517 3.31859 4.41105 0
M  V30 7209 H 663.993 1.4619 3.89574 0
M  V30 7210 H 662.869 1.50633 5.27826 0
M  V30 7211 H 663.13 -0.00444568 4.421 0
M  V30 7212 N 662.189 -1.289 0.906776 0
M  V30 7213 C 663.466 -1.90221 0.455537 0
M  V30 7214 C 663.846 -1.82251 -1.06527 0
M  V30 7215 O 663.194 -1.25385 -1.91026 0
M  V30 7216 C 663.404 -3.35015 0.97806 0
M  V30 7217 C 664.752 -4.12018 1.02598 0
M  V30 7218 O 665.776 -3.43947 0.926218 0
M  V30 7219 O 664.635 -5.33677 1.17689 0
M  V30 7220 H 661.729 -0.814505 0.143214 0
M  V30 7221 H 664.275 -1.37317 0.997104 0
M  V30 7222 H 663.047 -3.35006 2.02204 0
M  V30 7223 H 662.67 -3.95408 0.416914 0
M  V30 7224 N 663.667 -0.670007 -1.42649 0
M  V30 7225 C 664.599 0.0501746 -2.29145 0
M  V30 7226 C 665.612 0.770331 -1.43422 0
M  V30 7227 O 666.801 0.625288 -1.6719 0
M  V30 7228 C 663.901 1.09463 -3.20735 0
M  V30 7229 C 663.074 0.44926 -4.35087 0
M  V30 7230 C 662.133 1.39285 -5.07431 0
M  V30 7231 O 661.159 0.894997 -5.6212 0
M  V30 7232 N 662.361 2.72631 -5.12496 0
M  V30 7233 H 665.126 -0.692312 -2.91594 0
M  V30 7234 H 662.687 -0.514056 -1.53522 0
M  V30 7235 H 664.679 1.72705 -3.65999 0
M  V30 7236 H 663.249 1.73891 -2.59771 0
M  V30 7237 H 662.469 -0.362573 -3.92529 0
M  V30 7238 H 663.757 -0.000544776 -5.088 0
M  V30 7239 H 663.155 3.15623 -4.69467 0
M  V30 7240 H 661.712 3.31132 -5.61422 0
M  V30 7241 N 665.145 1.52092 -0.413018 0
M  V30 7242 C 666.391 2.02154 0.161737 0
M  V30 7243 C 666.724 1.29789 1.44459 0
M  V30 7244 O 665.999 0.405378 1.90229 0
M  V30 7245 C 666.282 3.5781 0.405463 0
M  V30 7246 C 666.135 4.40819 -0.894335 0
M  V30 7247 C 667.454 4.23821 1.18591 0
M  V30 7248 H 664.573 0.734769 0.0573077 0
M  V30 7249 H 667.215 1.81948 -0.547247 0
M  V30 7250 H 665.365 3.75158 1.0094 0
M  V30 7251 H 667.037 4.35175 -1.53039 0
M  V30 7252 H 665.28 4.06877 -1.50444 0
M  V30 7253 H 665.951 5.47819 -0.678144 0
M  V30 7254 H 668.427 4.10596 0.674573 0
M  V30 7255 H 667.303 5.32663 1.3252 0
M  V30 7256 H 667.564 3.83038 2.20758 0
M  V30 7257 N 666.623 0.143563 1.56945 0
M  V30 7258 C 667.869 -0.50916 1.96304 0
M  V30 7259 C 668.202 -1.64741 1.0283 0
M  V30 7260 O 667.477 -1.94374 0.0700361 0
M  V30 7261 C 667.76 -1.0186 3.45393 0
M  V30 7262 C 667.613 0.117923 4.49645 0
M  V30 7263 C 668.932 -1.90151 3.96901 0
M  V30 7264 H 666.051 -0.183608 0.713763 0
M  V30 7265 H 668.693 0.224095 1.88674 0
M  V30 7266 H 666.843 -1.64345 3.52027 0
M  V30 7267 H 668.515 0.754145 4.55094 0
M  V30 7268 H 666.758 0.777568 4.26774 0
M  V30 7269 H 667.429 -0.280187 5.51288 0
M  V30 7270 H 669.905 -1.375 3.92725 0
M  V30 7271 H 668.781 -2.22707 5.0169 0
M  V30 7272 H 669.042 -2.83718 3.39052 0
M  V30 7273 N 668.101 -1.57061 -0.130224 0
M  V30 7274 C 669.064 -1.98593 -1.14426 0
M  V30 7275 C 670.064 -0.874584 -1.34936 0
M  V30 7276 O 671.254 -1.14086 -1.31643 0
M  V30 7277 C 668.386 -2.31639 -2.50112 0
M  V30 7278 H 669.579 -2.89374 -0.787561 0
M  V30 7279 H 667.132 -1.51756 -0.374146 0
M  V30 7280 H 667.867 -1.43703 -2.90723 0
M  V30 7281 H 667.652 -3.12684 -2.36583 0
M  V30 7282 H 669.142 -2.64551 -3.23114 0
M  V30 7283 N 669.579 0.400081 -1.52437 0
M  V30 7284 C 670.826 1.14619 -1.6694 0
M  V30 7285 C 671.154 1.90262 -0.403797 0
M  V30 7286 O 670.409 1.85835 0.61351 0
M  V30 7287 C 670.708 2.15914 -2.84808 0
M  V30 7288 C 670.374 1.57011 -4.2268 0
M  V30 7289 C 669.036 1.40672 -4.60179 0
M  V30 7290 C 671.388 1.14081 -5.08562 0
M  V30 7291 C 668.716 0.799335 -5.81229 0
M  V30 7292 C 671.068 0.547573 -6.30226 0
M  V30 7293 C 669.732 0.371389 -6.66466 0
M  V30 7294 H 669.002 0.419419 -0.610875 0
M  V30 7295 H 671.649 0.432227 -1.86558 0
M  V30 7296 H 669.954 2.93488 -2.59561 0
M  V30 7297 H 671.651 2.73533 -2.93225 0
M  V30 7298 H 668.241 1.70713 -3.93135 0
M  V30 7299 H 672.425 1.2551 -4.80168 0
M  V30 7300 H 667.681 0.65093 -6.07925 0
M  V30 7301 H 671.855 0.206575 -6.96094 0
M  V30 7302 H 669.482 -0.10135 -7.60132 0
M  V30 7303 N 671.057 1.43213 0.657864 0
M  V30 7304 C 671.987 1.50815 1.78262 0
M  V30 7305 C 672.968 0.363211 1.66177 0
M  V30 7306 O 674.153 0.579806 1.85343 0
M  V30 7307 C 671.283 1.42625 3.16663 0
M  V30 7308 C 670.237 2.5532 3.43505 0
M  V30 7309 C 669.563 2.32184 4.81658 0
M  V30 7310 C 670.863 3.97583 3.38711 0
M  V30 7311 H 672.557 2.44954 1.72157 0
M  V30 7312 H 670.103 1.17896 0.82683 0
M  V30 7313 H 672.056 1.46548 3.95097 0
M  V30 7314 H 670.78 0.449877 3.23487 0
M  V30 7315 H 669.439 2.50742 2.6744 0
M  V30 7316 H 669.087 1.32801 4.85153 0
M  V30 7317 H 668.787 3.07724 5.00579 0
M  V30 7318 H 670.311 2.37883 5.62356 0
M  V30 7319 H 671.725 4.03673 4.07089 0
M  V30 7320 H 670.122 4.73112 3.69168 0
M  V30 7321 H 671.192 4.23049 2.36976 0
M  V30 7322 N 672.536 -0.895792 1.29666 0
M  V30 7323 C 673.784 -1.64339 1.17631 0
M  V30 7324 C 674.105 -1.93099 -0.271643 0
M  V30 7325 O 673.375 -1.55981 -1.18518 0
M  V30 7326 H 671.955 -0.609162 0.432354 0
M  V30 7327 H 674.617 -1.07389 1.62646 0
M  V30 7328 H 673.713 -2.59815 1.72924 0
M  V30 7329 N 674.014 -1.12206 -1.10668 0
M  V30 7330 C 675.262 -0.874144 -1.82217 0
M  V30 7331 C 675.583 0.601736 -1.85484 0
M  V30 7332 O 674.853 1.43725 -1.33116 0
M  V30 7333 H 673.433 -0.320404 -0.674797 0
M  V30 7334 H 676.095 -1.41606 -1.33917 0
M  V30 7335 H 675.191 -1.25349 -2.85822 0
M  V30 7336 N 675.492 1.28418 -0.913599 0
M  V30 7337 C 676.422 2.29713 -0.418847 0
M  V30 7338 C 677.403 1.62165 0.513469 0
M  V30 7339 O 678.588 1.89576 0.421235 0
M  V30 7340 C 675.718 3.45612 0.342042 0
M  V30 7341 C 674.672 4.25056 -0.501123 0
M  V30 7342 C 673.998 5.3329 0.388097 0
M  V30 7343 C 675.298 4.91814 -1.75831 0
M  V30 7344 H 676.992 2.71346 -1.26538 0
M  V30 7345 H 674.538 1.30446 -0.609903 0
M  V30 7346 H 676.491 4.15562 0.699 0
M  V30 7347 H 675.215 3.02858 1.22248 0
M  V30 7348 H 673.874 3.56833 -0.840598 0
M  V30 7349 H 673.522 4.8678 1.26707 0
M  V30 7350 H 673.222 5.87347 -0.172459 0
M  V30 7351 H 674.746 6.06088 0.74094 0
M  V30 7352 H 676.16 5.54126 -1.47026 0
M  V30 7353 H 674.557 5.55866 -2.26126 0
M  V30 7354 H 675.627 4.16313 -2.4862 0
M  V30 7355 N 676.97 0.677563 1.42291 0
M  V30 7356 C 678.247 0.129803 1.95169 0
M  V30 7357 C 678.627 -1.35605 1.61786 0
M  V30 7358 O 677.975 -2.09361 0.915444 0
M  V30 7359 C 678.185 0.401889 3.46678 0
M  V30 7360 C 679.533 0.319889 4.23393 0
M  V30 7361 O 680.557 0.33579 3.54614 0
M  V30 7362 O 679.416 0.264459 5.4586 0
M  V30 7363 H 676.51 0.00447433 0.826988 0
M  V30 7364 H 679.056 0.752483 1.52105 0
M  V30 7365 H 677.828 1.43108 3.64192 0
M  V30 7366 H 677.451 -0.252662 3.96796 0
M  V30 7367 N 678.448 -1.51871 0.421078 0
M  V30 7368 C 679.378 -2.30231 -0.389363 0
M  V30 7369 C 680.359 -1.34946 -1.03555 0
M  V30 7370 O 681.544 -1.63859 -1.04229 0
M  V30 7371 C 678.674 -3.13247 -1.49979 0
M  V30 7372 C 677.628 -4.16677 -0.977966 0
M  V30 7373 C 676.954 -4.88112 -2.1829 0
M  V30 7374 C 678.254 -5.22295 -0.0236775 0
M  V30 7375 H 679.948 -2.98229 0.264524 0
M  V30 7376 H 677.494 -1.43424 0.12866 0
M  V30 7377 H 679.447 -3.66838 -2.07383 0
M  V30 7378 H 678.171 -2.4304 -2.18173 0
M  V30 7379 H 676.83 -3.64114 -0.426245 0
M  V30 7380 H 676.478 -4.14423 -2.85066 0
M  V30 7381 H 676.178 -5.58041 -1.84021 0
M  V30 7382 H 677.702 -5.44521 -2.76278 0
M  V30 7383 H 679.116 -5.71055 -0.506899 0
M  V30 7384 H 677.513 -5.99656 0.230782 0
M  V30 7385 H 678.583 -4.76131 0.917999 0
M  V30 7386 N 679.926 -0.151884 -1.56866 0
M  V30 7387 C 680.889 0.771861 -2.15812 0
M  V30 7388 C 681.889 1.17181 -1.10115 0
M  V30 7389 O 683.079 1.09194 -1.35729 0
M  V30 7390 C 680.211 2.04806 -2.7252 0
M  V30 7391 H 681.404 0.259021 -2.98779 0
M  V30 7392 H 678.957 0.097588 -1.55995 0
M  V30 7393 H 679.692 2.60445 -1.93233 0
M  V30 7394 H 679.477 1.77044 -3.49854 0
M  V30 7395 H 680.967 2.70771 -3.1792 0
M  V30 7396 N 681.404 1.57128 0.121893 0
M  V30 7397 C 682.634 1.88609 0.843227 0
M  V30 7398 C 683.042 0.740917 1.74089 0
M  V30 7399 O 682.385 -0.297426 1.81276 0
M  V30 7400 C 682.447 3.15073 1.73117 0
M  V30 7401 C 682.111 4.45742 1.0081 0
M  V30 7402 C 683.108 5.18719 0.350255 0
M  V30 7403 C 680.793 4.92444 0.99014 0
M  V30 7404 C 682.787 6.36617 -0.315889 0
M  V30 7405 C 680.474 6.10261 0.320196 0
M  V30 7406 C 681.472 6.82194 -0.331666 0
M  V30 7407 O 681.16 7.97769 -0.990927 0
M  V30 7408 H 680.892 0.628919 0.247865 0
M  V30 7409 H 683.446 2.05096 0.111725 0
M  V30 7410 H 681.676 2.9466 2.50424 0
M  V30 7411 H 683.365 3.32597 2.32667 0
M  V30 7412 H 684.131 4.83693 0.35577 0
M  V30 7413 H 680.01 4.36361 1.48695 0
M  V30 7414 H 683.554 6.92701 -0.825272 0
M  V30 7415 H 679.451 6.44743 0.312433 0
M  V30 7416 H 680.219 8.13591 -0.895113 0
M  V30 7417 N 682.882 -0.391992 1.52647 0
M  V30 7418 C 684.13 -1.13507 1.67214 0
M  V30 7419 C 684.451 -1.90575 0.41304 0
M  V30 7420 O 683.721 -1.87348 -0.572498 0
M  V30 7421 H 682.301 -0.422013 0.616372 0
M  V30 7422 H 684.963 -0.44502 1.89751 0
M  V30 7423 H 684.059 -1.83964 2.52118 0
M  V30 7424 N 684.36 -1.4356 -0.65026 0
M  V30 7425 C 685.776 -1.27025 -0.966269 0
M  V30 7426 C 685.976 -0.192117 -2.00582 0
M  V30 7427 O 685.032 0.428459 -2.48838 0
M  V30 7428 C 686.345 -2.63556 -1.44772 0
M  V30 7429 C 687.893 -2.71111 -1.56421 0
M  V30 7430 C 688.368 -4.08067 -2.07956 0
M  V30 7431 N 689.859 -4.10146 -2.15254 0
M  V30 7432 C 690.594 -5.12952 -2.56258 0
M  V30 7433 N 690.09 -6.26129 -2.96537 0
M  V30 7434 N 691.883 -5.00306 -2.56224 0
M  V30 7435 H 684.034 -2.12367 0.0375758 0
M  V30 7436 H 686.297 -0.946894 -0.0457782 0
M  V30 7437 H 686.003 -3.43429 -0.758271 0
M  V30 7438 H 685.877 -2.89152 -2.42221 0
M  V30 7439 H 688.264 -1.91569 -2.24467 0
M  V30 7440 H 688.345 -2.49277 -0.573967 0
M  V30 7441 H 687.989 -4.88077 -1.40511 0
M  V30 7442 H 687.919 -4.27266 -3.07817 0
M  V30 7443 H 690.41 -3.28453 -1.86887 0
M  V30 7444 H 690.723 -7.00403 -3.26582 0
M  V30 7445 H 689.068 -6.29597 -2.94334 0
M  V30 7446 H 692.259 -4.10952 -2.24135 0
M  V30 7447 H 692.432 -5.80553 -2.87857 0
M  V30 7448 N 685.838 0.888903 -1.30139 0
M  V30 7449 C 687.084 1.64288 -1.19922 0
M  V30 7450 C 687.439 1.90839 0.244561 0
M  V30 7451 O 686.732 1.51544 1.17239 0
M  V30 7452 C 686.926 2.99041 -1.95728 0
M  V30 7453 C 686.755 2.85644 -3.47329 0
M  V30 7454 C 685.525 2.85836 -4.16685 0
M  V30 7455 C 687.723 2.6188 -4.42632 0
M  V30 7456 N 685.705 2.63289 -5.54574 0
M  V30 7457 C 687.076 2.48418 -5.68057 0
M  V30 7458 C 689.131 2.47073 -4.32272 0
M  V30 7459 C 687.834 2.21655 -6.84296 0
M  V30 7460 C 689.86 2.21695 -5.48275 0
M  V30 7461 C 689.222 2.09007 -6.72678 0
M  V30 7462 H 685.321 0.606315 -0.493868 0
M  V30 7463 H 687.905 1.0478 -1.64102 0
M  V30 7464 H 686.076 3.56589 -1.53945 0
M  V30 7465 H 687.808 3.63607 -1.77685 0
M  V30 7466 H 684.563 2.97521 -3.68481 0
M  V30 7467 H 684.987 2.55039 -6.27124 0
M  V30 7468 H 689.629 2.55621 -3.36776 0
M  V30 7469 H 687.347 2.11845 -7.79838 0
M  V30 7470 H 690.933 2.11067 -5.42164 0
M  V30 7471 H 689.813 1.89643 -7.60924 0
M  V30 7472 N 687.317 1.12792 1.10072 0
M  V30 7473 C 688.594 0.796867 1.78632 0
M  V30 7474 C 688.974 -0.712739 1.98704 0
M  V30 7475 O 688.322 -1.64773 1.5831 0
M  V30 7476 C 688.532 1.57622 3.11378 0
M  V30 7477 C 689.88 1.76463 3.86194 0
M  V30 7478 O 690.904 1.54165 3.2111 0
M  V30 7479 O 689.763 2.13623 5.03018 0
M  V30 7480 H 686.857 0.290248 0.774394 0
M  V30 7481 H 689.403 1.23215 1.16688 0
M  V30 7482 H 688.175 2.60246 2.92212 0
M  V30 7483 H 687.798 1.13543 3.81043 0
M  V30 7484 N 688.795 -1.27931 0.920396 0
M  V30 7485 C 690.072 -1.89728 0.475687 0
M  V30 7486 C 690.452 -1.8337 -1.04588 0
M  V30 7487 O 689.8 -1.27404 -1.89685 0
M  V30 7488 C 690.01 -3.33959 1.01354 0
M  V30 7489 C 691.358 -4.10907 1.06963 0
M  V30 7490 O 692.382 -3.42945 0.962646 0
M  V30 7491 O 691.241 -5.32399 1.23343 0
M  V30 7492 H 688.335 -0.81294 0.151845 0
M  V30 7493 H 690.881 -1.36252 1.01161 0
M  V30 7494 H 689.653 -3.32843 2.05746 0
M  V30 7495 H 689.276 -3.94944 0.458829 0
M  V30 7496 N 690.273 -0.685099 -1.4193 0
M  V30 7497 C 691.203 -0.0273506 -2.33484 0
M  V30 7498 C 692.184 0.778366 -1.51246 0
M  V30 7499 O 693.369 0.733449 -1.79817 0
M  V30 7500 C 690.499 0.917272 -3.34968 0
M  V30 7501 C 689.453 0.21941 -4.27437 0
M  V30 7502 C 688.779 1.27768 -5.1921 0
M  V30 7503 C 690.079 -0.907894 -5.14349 0
M  V30 7504 H 691.773 -0.791994 -2.88735 0
M  V30 7505 H 689.319 -0.382308 -1.38832 0
M  V30 7506 H 691.272 1.38657 -3.97935 0
M  V30 7507 H 689.996 1.71346 -2.78043 0
M  V30 7508 H 688.655 -0.229757 -3.65879 0
M  V30 7509 H 688.303 2.06612 -4.58607 0
M  V30 7510 H 688.003 0.815803 -5.81909 0
M  V30 7511 H 689.527 1.7477 -5.85054 0
M  V30 7512 H 690.941 -0.519348 -5.70943 0
M  V30 7513 H 689.338 -1.2962 -5.85934 0
M  V30 7514 H 690.408 -1.75218 -4.52136 0
M  V30 7515 N 691.751 1.51645 -0.429126 0
M  V30 7516 C 692.701 2.24388 0.404217 0
M  V30 7517 C 693.685 1.26294 0.996933 0
M  V30 7518 O 694.877 1.51428 0.916434 0
M  V30 7519 C 692.006 3.08338 1.50938 0
M  V30 7520 C 691.092 4.13857 0.926464 0
M  V30 7521 N 691.483 5.05749 0.0719732 0
M  V30 7522 C 689.781 4.29695 1.19491 0
M  V30 7523 C 690.482 5.81143 -0.254528 0
M  V30 7524 N 689.458 5.42408 0.359763 0
M  V30 7525 H 693.26 2.92794 -0.254697 0
M  V30 7526 H 690.774 1.60606 -0.240712 0
M  V30 7527 H 692.771 3.59022 2.11918 0
M  V30 7528 H 691.431 2.41475 2.17072 0
M  V30 7529 H 692.442 5.17066 -0.293854 0
M  V30 7530 H 689.119 3.74059 1.85434 0
M  V30 7531 H 690.509 6.65159 -0.949365 0
M  V30 7532 N 693.229 0.160201 1.56784 0
M  V30 7533 C 694.459 -0.493449 2.00621 0
M  V30 7534 C 694.867 -1.5809 1.03943 0
M  V30 7535 O 694.21 -1.83675 0.0305343 0
M  V30 7536 C 694.272 -1.14169 3.4089 0
M  V30 7537 C 693.936 -0.197243 4.56574 0
M  V30 7538 C 694.933 0.580174 5.16653 0
M  V30 7539 C 692.618 -0.0963038 5.02208 0
M  V30 7540 C 694.612 1.44584 6.20785 0
M  V30 7541 C 692.299 0.772959 6.06192 0
M  V30 7542 C 693.297 1.54263 6.65351 0
M  V30 7543 O 692.985 2.39738 7.67321 0
M  V30 7544 H 692.717 -0.131764 0.663034 0
M  V30 7545 H 695.271 0.255728 2.03802 0
M  V30 7546 H 693.501 -1.93877 3.34587 0
M  V30 7547 H 695.19 -1.69641 3.6875 0
M  V30 7548 H 695.956 0.5123 4.82287 0
M  V30 7549 H 691.835 -0.685143 4.5588 0
M  V30 7550 H 695.379 2.04706 6.66889 0
M  V30 7551 H 691.276 0.842077 6.39984 0
M  V30 7552 H 692.044 2.33131 7.84597 0
M  V30 7553 N 694.707 -1.5719 -0.113559 0
M  V30 7554 C 696.123 -1.52607 -0.467253 0
M  V30 7555 C 696.323 -0.874058 -1.81556 0
M  V30 7556 O 695.379 -0.458703 -2.48299 0
M  V30 7557 C 696.692 -2.97363 -0.446736 0
M  V30 7558 C 698.24 -3.08482 -0.529903 0
M  V30 7559 C 698.715 -4.54809 -0.539721 0
M  V30 7560 N 700.206 -4.59284 -0.601005 0
M  V30 7561 C 700.941 -5.69927 -0.630138 0
M  V30 7562 N 700.437 -6.90051 -0.616589 0
M  V30 7563 N 702.23 -5.5805 -0.673558 0
M  V30 7564 H 694.381 -1.97958 0.769819 0
M  V30 7565 H 696.644 -0.90428 0.284572 0
M  V30 7566 H 696.35 -3.48458 0.47643 0
M  V30 7567 H 696.224 -3.55086 -1.27254 0
M  V30 7568 H 698.611 -2.57386 -1.44349 0
M  V30 7569 H 698.692 -2.53744 0.323695 0
M  V30 7570 H 698.336 -5.06552 0.369843 0
M  V30 7571 H 698.266 -5.07364 -1.41028 0
M  V30 7572 H 700.757 -3.72822 -0.617419 0
M  V30 7573 H 701.07 -7.70132 -0.641592 0
M  V30 7574 H 699.415 -6.92543 -0.583927 0
M  V30 7575 H 702.606 -4.63112 -0.681544 0
M  V30 7576 H 702.779 -6.44286 -0.692794 0
M  V30 7577 N 696.185 0.383891 -1.52853 0
M  V30 7578 C 697.115 1.47559 -1.80965 0
M  V30 7579 C 698.096 1.5669 -0.661986 0
M  V30 7580 O 699.281 1.71556 -0.910072 0
M  V30 7581 C 696.411 2.85114 -1.98312 0
M  V30 7582 C 695.365 2.9082 -3.14019 0
M  V30 7583 C 694.691 4.30873 -3.16627 0
M  V30 7584 C 695.991 2.60001 -4.52986 0
M  V30 7585 H 697.685 1.24283 -2.72386 0
M  V30 7586 H 695.231 0.596445 -1.31067 0
M  V30 7587 H 697.184 3.61496 -2.16561 0
M  V30 7588 H 695.908 3.09738 -1.03585 0
M  V30 7589 H 694.567 2.16886 -2.9556 0
M  V30 7590 H 694.215 4.52545 -2.19573 0
M  V30 7591 H 693.915 4.3561 -3.94357 0
M  V30 7592 H 695.439 5.09154 -3.37038 0
M  V30 7593 H 696.853 3.261 -4.71521 0
M  V30 7594 H 695.25 2.76081 -5.32822 0
M  V30 7595 H 696.32 1.5532 -4.59351 0
M  V30 7596 N 697.663 1.43903 0.642637 0
M  V30 7597 C 698.891 1.4954 1.42988 0
M  V30 7598 C 699.306 0.116588 1.8844 0
M  V30 7599 O 698.663 -0.875285 1.60141 0
M  V30 7600 C 698.714 2.45031 2.65785 0
M  V30 7601 O 698.435 3.77551 2.22232 0
M  V30 7602 C 699.936 2.60017 3.59035 0
M  V30 7603 H 697.156 0.507544 0.438907 0
M  V30 7604 H 699.7 1.88752 0.786942 0
M  V30 7605 H 697.855 2.08985 3.26196 0
M  V30 7606 H 698.269 4.29001 3.01759 0
M  V30 7607 H 699.743 3.30887 4.41835 0
M  V30 7608 H 700.22 1.64861 4.07084 0
M  V30 7609 H 700.826 2.96918 3.045 0
M  V30 7610 N 699.141 -0.881989 1.30609 0
M  V30 7611 C 700.418 -1.61563 1.10258 0
M  V30 7612 C 700.798 -2.08228 -0.347053 0
M  V30 7613 O 700.146 -1.85151 -1.33908 0
M  V30 7614 C 700.356 -2.78287 2.10612 0
M  V30 7615 C 701.704 -3.48545 2.4249 0
M  V30 7616 O 702.728 -2.88479 2.08945 0
M  V30 7617 O 701.587 -4.56873 2.99883 0
M  V30 7618 H 698.681 -0.710238 0.423663 0
M  V30 7619 H 701.227 -0.928503 1.42045 0
M  V30 7620 H 699.999 -2.41131 3.08174 0
M  V30 7621 H 699.622 -3.54695 1.79659 0
M  V30 7622 N 700.619 -1.13374 -1.09472 0
M  V30 7623 C 701.549 -0.833268 -2.18126 0
M  V30 7624 C 702.53 0.207169 -1.68834 0
M  V30 7625 O 703.715 0.0662012 -1.94087 0
M  V30 7626 C 700.845 -0.297979 -3.46019 0
M  V30 7627 C 699.799 -1.27261 -4.08642 0
M  V30 7628 C 699.125 -0.597104 -5.31356 0
M  V30 7629 C 700.425 -2.63095 -4.51197 0
M  V30 7630 H 702.119 -1.74182 -2.43518 0
M  V30 7631 H 699.665 -0.838921 -1.17039 0
M  V30 7632 H 701.618 -0.0754444 -4.21332 0
M  V30 7633 H 700.342 0.645959 -3.20148 0
M  V30 7634 H 699.001 -1.48113 -3.35348 0
M  V30 7635 H 698.649 0.352293 -5.01765 0
M  V30 7636 H 698.349 -1.24734 -5.74208 0
M  V30 7637 H 699.873 -0.38384 -6.09392 0
M  V30 7638 H 701.287 -2.46214 -5.17737 0
M  V30 7639 H 699.684 -3.2429 -5.04932 0
M  V30 7640 H 700.754 -3.20793 -3.6362 0
M  V30 7641 N 702.098 1.27442 -0.927168 0
M  V30 7642 C 703.346 1.94007 -0.566203 0
M  V30 7643 C 703.667 1.7323 0.895345 0
M  V30 7644 O 702.937 1.07973 1.63459 0
M  V30 7645 H 701.517 0.717917 -0.206409 0
M  V30 7646 H 704.179 1.55161 -1.17945 0
M  V30 7647 H 703.275 3.02401 -0.772028 0
M  V30 7648 N 703.576 0.692616 1.41565 0
M  V30 7649 C 704.853 0.150496 1.9502 0
M  V30 7650 C 705.233 -1.33881 1.63215 0
M  V30 7651 O 704.581 -2.08378 0.937598 0
M  V30 7652 C 704.791 0.438636 3.46233 0
M  V30 7653 C 706.139 0.364777 4.2303 0
M  V30 7654 O 707.163 0.373383 3.54238 0
M  V30 7655 O 706.022 0.32234 5.45549 0
M  V30 7656 H 703.116 0.0132454 0.826894 0
M  V30 7657 H 705.662 0.768574 1.51298 0
M  V30 7658 H 704.434 1.46962 3.62654 0
M  V30 7659 H 704.057 -0.210562 3.97042 0
M  V30 7660 N 705.054 -1.51416 0.437162 0
M  V30 7661 C 706.279 -2.0699 -0.130424 0
M  V30 7662 C 706.704 -1.30249 -1.35709 0
M  V30 7663 O 706.062 -0.340388 -1.78076 0
M  V30 7664 C 706.11 -3.5801 -0.43142 0
M  V30 7665 O 705.214 -3.8345 -1.5179 0
M  V30 7666 H 704.555 -0.663997 -0.00194339 0
M  V30 7667 H 707.085 -1.95029 0.618445 0
M  V30 7668 H 707.095 -4.02261 -0.681926 0
M  V30 7669 H 705.77 -4.13291 0.465137 0
M  V30 7670 H 704.347 -3.51062 -1.25737 0
M  V30 7671 N 706.532 -0.168513 -1.56696 0
M  V30 7672 C 707.757 0.486688 -2.01609 0
M  V30 7673 C 708.182 1.56203 -1.04796 0
M  V30 7674 O 707.54 1.8128 -0.0270596 0
M  V30 7675 C 707.588 1.04451 -3.45141 0
M  V30 7676 O 706.692 2.15862 -3.51393 0
M  V30 7677 H 706.033 0.116831 -0.653641 0
M  V30 7678 H 708.563 -0.271579 -2.0279 0
M  V30 7679 H 708.573 1.36782 -3.84389 0
M  V30 7680 H 707.248 0.257155 -4.15104 0
M  V30 7681 H 705.825 1.84597 -3.24004 0
M  V30 7682 N 708.01 1.57248 0.105221 0
M  V30 7683 C 708.92 2.04653 1.14693 0
M  V30 7684 C 709.936 0.969488 1.44489 0
M  V30 7685 O 711.112 1.28196 1.55331 0
M  V30 7686 C 708.177 2.45297 2.45011 0
M  V30 7687 C 707.238 3.67148 2.22489 0
M  V30 7688 C 706.471 4.05844 3.46592 0
M  V30 7689 O 706.694 3.44736 4.54437 0
M  V30 7690 O 705.628 4.98862 3.36779 0
M  V30 7691 H 709.454 2.93663 0.774336 0
M  V30 7692 H 707.039 1.45998 0.31701 0
M  V30 7693 H 708.921 2.72112 3.21766 0
M  V30 7694 H 707.596 1.59429 2.81717 0
M  V30 7695 H 706.503 3.45463 1.43547 0
M  V30 7696 H 707.836 4.53764 1.9068 0
M  V30 7697 N 709.488 -0.375779 1.53054 0
M  V30 7698 C 710.713 -1.14484 1.7294 0
M  V30 7699 C 711.138 -1.82572 0.452668 0
M  V30 7700 O 710.496 -1.71343 -0.592567 0
M  V30 7701 C 710.544 -2.15857 2.88857 0
M  V30 7702 O 709.648 -3.22725 2.56753 0
M  V30 7703 H 708.989 -0.332666 0.574656 0
M  V30 7704 H 711.519 -0.436025 1.999 0
M  V30 7705 H 711.529 -2.59631 3.14731 0
M  V30 7706 H 710.204 -1.65689 3.81471 0
M  V30 7707 H 708.781 -2.83996 2.41663 0
M  V30 7708 N 710.966 -1.44241 -0.634997 0
M  V30 7709 C 711.929 -1.50457 -1.72903 0
M  V30 7710 C 712.929 -0.387058 -1.56072 0
M  V30 7711 O 714.119 -0.649531 -1.61638 0
M  V30 7712 C 711.251 -1.37477 -3.1195 0
M  V30 7713 H 712.444 -2.47907 -1.68767 0
M  V30 7714 H 709.997 -1.31276 -0.84831 0
M  V30 7715 H 710.732 -0.41106 -3.21684 0
M  V30 7716 H 710.517 -2.18506 -3.25573 0
M  V30 7717 H 712.007 -1.44799 -3.91692 0
M  V30 7718 N 712.444 0.87505 -1.31075 0
M  V30 7719 C 713.407 1.96333 -1.18263 0
M  V30 7720 C 714.407 1.60416 -0.111106 0
M  V30 7721 O 715.597 1.7044 -0.359987 0
M  V30 7722 C 712.729 3.31036 -0.81414 0
M  V30 7723 H 713.922 2.09125 -2.14958 0
M  V30 7724 H 711.475 1.06271 -1.14614 0
M  V30 7725 H 712.21 3.23944 0.151875 0
M  V30 7726 H 711.995 3.58476 -1.58862 0
M  V30 7727 H 713.485 4.10842 -0.748249 0
M  V30 7728 N 713.922 1.13953 1.08869 0
M  V30 7729 C 715.147 0.928559 1.85452 0
M  V30 7730 C 715.572 -0.517642 1.80837 0
M  V30 7731 O 714.93 -1.36779 1.19001 0
M  V30 7732 C 714.978 1.42814 3.31114 0
M  V30 7733 O 714.082 0.617129 4.07756 0
M  V30 7734 H 713.423 0.33235 0.574839 0
M  V30 7735 H 715.953 1.5156 1.37443 0
M  V30 7736 H 715.963 1.43425 3.8196 0
M  V30 7737 H 714.638 2.48109 3.33788 0
M  V30 7738 H 713.215 0.679365 3.66659 0
M  V30 7739 N 715.4 -1.26948 0.933913 0
M  V30 7740 C 716.332 -2.25768 0.395137 0
M  V30 7741 C 717.345 -1.55637 -0.477585 0
M  V30 7742 O 718.534 -1.76142 -0.289204 0
M  V30 7743 C 715.634 -3.35874 -0.451882 0
M  V30 7744 C 714.807 -4.3554 0.40299 0
M  V30 7745 C 713.866 -5.24809 -0.3824 0
M  V30 7746 O 712.892 -5.68805 0.212057 0
M  V30 7747 N 714.094 -5.55636 -1.68072 0
M  V30 7748 H 716.859 -2.72634 1.24463 0
M  V30 7749 H 714.42 -1.40639 0.802008 0
M  V30 7750 H 716.412 -3.92542 -0.984516 0
M  V30 7751 H 714.982 -2.8856 -1.20215 0
M  V30 7752 H 714.202 -3.78047 1.11688 0
M  V30 7753 H 715.49 -4.99131 0.987201 0
M  V30 7754 H 714.888 -5.2176 -2.18592 0
M  V30 7755 H 713.445 -6.14978 -2.15975 0
M  V30 7756 N 716.879 -0.700114 -1.41195 0
M  V30 7757 C 718.29 -0.307249 -1.84154 0
M  V30 7758 C 718.641 1.15539 -1.58572 0
M  V30 7759 O 717.766 1.88744 -1.05852 0
M  V30 7760 C 718.361 -0.550872 -3.34292 0
M  V30 7761 C 716.92 -0.211877 -3.75803 0
M  V30 7762 C 716.067 -0.830915 -2.64558 0
M  V30 7763 H 719.018 -0.900431 -1.30683 0
M  V30 7764 H 719.039 0.188954 -3.80031 0
M  V30 7765 H 718.551 -1.61548 -3.5288 0
M  V30 7766 H 716.652 0.848283 -3.62815 0
M  V30 7767 H 716.765 -0.67007 -4.74391 0
M  V30 7768 H 715.129 -0.260155 -2.53368 0
M  V30 7769 H 715.912 -1.89948 -2.85963 0
M  V30 7770 N 718.357 1.51182 -0.445186 0
M  V30 7771 C 719.768 1.86693 0.0160999 0
M  V30 7772 C 720.119 1.36183 1.4124 0
M  V30 7773 O 719.244 0.715895 2.04215 0
M  V30 7774 C 719.839 3.38781 0.0359918 0
M  V30 7775 C 718.398 3.73799 0.441715 0
M  V30 7776 C 717.545 2.74947 -0.360511 0
M  V30 7777 H 720.496 1.44294 -0.660674 0
M  V30 7778 H 720.517 3.71026 0.843813 0
M  V30 7779 H 720.029 3.75513 -0.980378 0
M  V30 7780 H 718.13 3.42659 1.4634 0
M  V30 7781 H 718.243 4.78829 0.16106 0
M  V30 7782 H 716.607 2.54047 0.182269 0
M  V30 7783 H 717.39 3.14521 -1.3759 0
M  V30 7784 N 719.835 0.176821 1.56605 0
M  V30 7785 C 721.063 -0.472828 2.01425 0
M  V30 7786 C 721.478 -1.56436 1.05703 0
M  V30 7787 O 720.835 -1.82405 0.058808 0
M  V30 7788 C 720.886 -1.04607 3.46034 0
M  V30 7789 O 720.607 0.00189608 4.381 0
M  V30 7790 C 722.108 -1.7734 4.06282 0
M  V30 7791 H 719.328 -0.120503 0.660091 0
M  V30 7792 H 721.872 0.280166 2.02572 0
M  V30 7793 H 720.027 -1.74953 3.45645 0
M  V30 7794 H 720.441 -0.422118 5.22799 0
M  V30 7795 H 721.915 -2.12703 5.09374 0
M  V30 7796 H 722.392 -2.67043 3.4869 0
M  V30 7797 H 722.998 -1.11623 4.10391 0
M  V30 7798 N 721.313 -1.57302 -0.09688 0
M  V30 7799 C 722.724 -1.7496 -0.651595 0
M  V30 7800 C 723.075 -0.798746 -1.79205 0
M  V30 7801 O 722.2 0.0231858 -2.16388 0
M  V30 7802 C 722.795 -3.17259 -1.18878 0
M  V30 7803 C 721.354 -3.36348 -1.68958 0
M  V30 7804 C 720.501 -2.70766 -0.598413 0
M  V30 7805 H 723.452 -1.58173 0.12918 0
M  V30 7806 H 723.473 -3.20033 -2.05814 0
M  V30 7807 H 722.985 -3.8644 -0.358523 0
M  V30 7808 H 721.086 -2.72243 -2.5439 0
M  V30 7809 H 721.199 -4.44654 -1.7838 0
M  V30 7810 H 719.563 -2.32615 -1.03743 0
M  V30 7811 H 720.346 -3.42586 0.221238 0
M  V30 7812 N 722.791 0.367657 -1.53252 0
M  V30 7813 C 724.207 0.709191 -1.42978 0
M  V30 7814 C 724.407 1.93352 -0.567193 0
M  V30 7815 O 723.463 2.52453 -0.0488349 0
M  V30 7816 C 724.776 0.924338 -2.86141 0
M  V30 7817 C 726.324 1.02448 -2.95759 0
M  V30 7818 C 726.799 1.27211 -4.39979 0
M  V30 7819 N 728.29 1.33986 -4.43398 0
M  V30 7820 C 729.025 1.54852 -5.52095 0
M  V30 7821 N 728.521 1.73049 -6.7084 0
M  V30 7822 N 730.314 1.57205 -5.39669 0
M  V30 7823 H 722.465 -0.437669 -2.07842 0
M  V30 7824 H 724.728 -0.133737 -0.938519 0
M  V30 7825 H 724.434 0.0965455 -3.51567 0
M  V30 7826 H 724.308 1.83302 -3.29667 0
M  V30 7827 H 726.695 1.84282 -2.30487 0
M  V30 7828 H 726.776 0.0932301 -2.5563 0
M  V30 7829 H 726.42 0.458792 -5.05824 0
M  V30 7830 H 726.35 2.21654 -4.77679 0
M  V30 7831 H 728.841 1.21545 -3.5782 0
M  V30 7832 H 729.154 1.88538 -7.49449 0
M  V30 7833 H 727.499 1.70231 -6.7383 0
M  V30 7834 H 730.69 1.42555 -4.45865 0
M  V30 7835 H 730.863 1.73126 -6.24445 0
M  V30 7836 N 724.269 1.44576 0.627338 0
M  V30 7837 C 725.68 1.42266 1.20902 0
M  V30 7838 C 726.031 0.139964 1.957 0
M  V30 7839 O 725.156 -0.759489 2.02634 0
M  V30 7840 C 725.751 2.57727 2.19914 0
M  V30 7841 C 724.31 2.58599 2.73502 0
M  V30 7842 C 723.457 2.34145 1.48564 0
M  V30 7843 H 726.408 1.53102 0.417791 0
M  V30 7844 H 726.429 2.30697 3.02588 0
M  V30 7845 H 725.941 3.51068 1.65447 0
M  V30 7846 H 724.042 1.6921 3.31962 0
M  V30 7847 H 724.155 3.57205 3.19282 0
M  V30 7848 H 722.519 1.83313 1.76829 0
M  V30 7849 H 723.302 3.29606 0.959935 0
M  V30 7850 N 725.747 -0.868086 1.31537 0
M  V30 7851 C 727.024 -1.60384 1.11965 0
M  V30 7852 C 727.404 -2.08584 -0.324949 0
M  V30 7853 O 726.752 -1.86561 -1.31937 0
M  V30 7854 C 726.962 -2.76038 2.13551 0
M  V30 7855 C 728.31 -3.45954 2.46173 0
M  V30 7856 O 729.334 -2.86247 2.11993 0
M  V30 7857 O 728.193 -4.53666 3.04711 0
M  V30 7858 H 725.287 -0.705705 0.431172 0
M  V30 7859 H 727.833 -0.913385 1.43022 0
M  V30 7860 H 726.605 -2.37849 3.10714 0
M  V30 7861 H 726.228 -3.52769 1.83411 0
M  V30 7862 N 727.225 -1.14528 -1.08264 0
M  V30 7863 C 728.45 -0.938381 -1.84957 0
M  V30 7864 C 728.875 0.508044 -1.81109 0
M  V30 7865 O 728.233 1.36146 -1.19724 0
M  V30 7866 C 728.281 -1.44568 -3.30352 0
M  V30 7867 O 727.385 -0.638745 -4.07423 0
M  V30 7868 H 726.726 -0.335394 -0.573068 0
M  V30 7869 H 729.256 -1.52287 -1.36637 0
M  V30 7870 H 729.266 -1.45449 -3.81194 0
M  V30 7871 H 727.941 -2.49876 -3.32468 0
M  V30 7872 H 726.518 -0.698801 -3.66294 0
M  V30 7873 N 728.703 1.26451 -0.940633 0
M  V30 7874 C 730.114 1.75726 -0.630653 0
M  V30 7875 C 730.465 1.76631 0.854167 0
M  V30 7876 O 729.59 1.37807 1.66848 0
M  V30 7877 C 730.185 3.19114 -1.13805 0
M  V30 7878 C 728.744 3.66005 -0.878497 0
M  V30 7879 C 727.891 2.45505 -1.28928 0
M  V30 7880 H 730.842 1.12535 -1.119 0
M  V30 7881 H 730.863 3.77311 -0.491625 0
M  V30 7882 H 730.375 3.18424 -2.21874 0
M  V30 7883 H 728.476 3.72126 0.187833 0
M  V30 7884 H 728.589 4.54844 -1.50512 0
M  V30 7885 H 726.953 2.4467 -0.707713 0
M  V30 7886 H 727.736 2.47516 -2.37888 0
M  V30 7887 N 730.181 0.707592 1.40822 0
M  V30 7888 C 731.144 0.0587224 2.29125 0
M  V30 7889 C 732.144 -0.695624 1.44975 0
M  V30 7890 O 733.334 -0.528718 1.65983 0
M  V30 7891 C 730.466 -0.926939 3.28056 0
M  V30 7892 H 731.659 0.836349 2.88002 0
M  V30 7893 H 729.212 0.471778 1.4901 0
M  V30 7894 H 729.947 -1.7319 2.74182 0
M  V30 7895 H 729.732 -0.389015 3.90165 0
M  V30 7896 H 731.222 -1.37837 3.94196 0
M  V30 7897 N 731.66 -1.50943 0.453197 0
M  V30 7898 C 732.888 -2.06628 -0.106135 0
M  V30 7899 C 733.303 -1.31901 -1.35084 0
M  V30 7900 O 732.66 -0.383074 -1.78434 0
M  V30 7901 C 732.711 -3.5914 -0.412368 0
M  V30 7902 O 732.432 -4.31047 0.782948 0
M  V30 7903 C 733.933 -4.31391 -1.02064 0
M  V30 7904 H 731.153 -0.670999 -0.000885896 0
M  V30 7905 H 733.697 -1.94331 0.63684 0
M  V30 7906 H 731.852 -3.71299 -1.10526 0
M  V30 7907 H 732.266 -5.21948 0.516736 0
M  V30 7908 H 733.74 -5.39135 -1.1848 0
M  V30 7909 H 734.217 -3.90714 -2.00598 0
M  V30 7910 H 734.823 -4.23716 -0.366664 0
M  V30 7911 N 733.138 -0.185124 -1.56509 0
M  V30 7912 C 734.549 0.329221 -1.83774 0
M  V30 7913 C 734.9 1.62093 -1.10545 0
M  V30 7914 O 734.025 2.13334 -0.36298 0
M  V30 7915 C 734.62 0.604099 -3.33371 0
M  V30 7916 C 733.179 1.06284 -3.61083 0
M  V30 7917 C 732.326 0.10608 -2.77097 0
M  V30 7918 H 735.277 -0.409116 -1.53336 0
M  V30 7919 H 735.298 1.45458 -3.51599 0
M  V30 7920 H 734.81 -0.336201 -3.86641 0
M  V30 7921 H 732.911 2.01777 -3.13236 0
M  V30 7922 H 733.024 0.962453 -4.69333 0
M  V30 7923 H 731.388 0.606082 -2.47384 0
M  V30 7924 H 732.171 -0.828486 -3.33153 0
M  V30 7925 N 734.616 1.57351 0.0885366 0
M  V30 7926 C 735.893 1.77449 0.822873 0
M  V30 7927 C 736.273 0.768463 1.96616 0
M  V30 7928 O 735.621 -0.201757 2.27608 0
M  V30 7929 C 735.831 3.23425 1.31137 0
M  V30 7930 C 737.179 3.86791 1.75152 0
M  V30 7931 O 738.203 3.27215 1.40745 0
M  V30 7932 O 737.062 4.91568 2.38794 0
M  V30 7933 H 734.156 0.727653 0.393002 0
M  V30 7934 H 736.702 1.69556 0.0699095 0
M  V30 7935 H 735.474 3.88188 0.49254 0
M  V30 7936 H 735.097 3.35977 2.12615 0
M  V30 7937 N 736.094 -0.359525 1.53444 0
M  V30 7938 C 737.024 -1.44662 1.8329 0
M  V30 7939 C 738.005 -1.55617 0.68683 0
M  V30 7940 O 739.19 -1.70086 0.93725 0
M  V30 7941 C 736.32 -2.81923 2.02822 0
M  V30 7942 C 735.274 -2.85787 3.18606 0
M  V30 7943 C 734.6 -4.25781 3.23442 0
M  V30 7944 C 735.9 -2.52762 4.57065 0
M  V30 7945 H 737.594 -1.19934 2.74329 0
M  V30 7946 H 735.14 -0.575517 1.31999 0
M  V30 7947 H 737.093 -3.58005 2.22285 0
M  V30 7948 H 735.817 -3.08051 1.085 0
M  V30 7949 H 734.476 -2.12157 2.98973 0
M  V30 7950 H 734.124 -4.48994 2.26745 0
M  V30 7951 H 733.824 -4.29281 4.01238 0
M  V30 7952 H 735.348 -5.03727 3.45096 0
M  V30 7953 H 736.762 -3.18557 4.76649 0
M  V30 7954 H 735.159 -2.67569 5.37147 0
M  V30 7955 H 736.229 -1.47993 4.61764 0
M  V30 7956 N 737.572 -1.44907 -0.619662 0
M  V30 7957 C 738.797 -1.52021 -1.41083 0
M  V30 7958 C 739.222 -0.14976 -1.87503 0
M  V30 7959 O 738.58 0.863303 -1.59426 0
M  V30 7960 C 738.628 -2.49911 -2.59955 0
M  V30 7961 O 737.732 -2.00857 -3.60181 0
M  V30 7962 H 737.073 -0.512912 -0.421684 0
M  V30 7963 H 739.603 -1.90149 -0.755282 0
M  V30 7964 H 739.613 -2.68323 -3.07354 0
M  V30 7965 H 738.288 -3.4945 -2.25516 0
M  V30 7966 H 736.865 -1.92265 -3.19513 0
M  V30 7967 N 739.05 0.861098 -1.31996 0
M  V30 7968 C 740 1.95703 -1.1698 0
M  V30 7969 C 740.984 1.60709 -0.0784201 0
M  V30 7970 O 742.176 1.74365 -0.304262 0
M  V30 7971 C 739.305 3.31606 -0.888388 0
M  V30 7972 C 738.391 3.7284 -2.02117 0
M  V30 7973 N 738.782 3.85957 -3.26911 0
M  V30 7974 C 737.08 4.02419 -1.92289 0
M  V30 7975 C 737.781 4.21333 -4.01065 0
M  V30 7976 N 736.757 4.32502 -3.29307 0
M  V30 7977 H 740.559 2.03968 -2.11599 0
M  V30 7978 H 738.073 1.05245 -1.23682 0
M  V30 7979 H 740.07 4.09881 -0.761782 0
M  V30 7980 H 738.73 3.24662 0.0494898 0
M  V30 7981 H 739.741 3.70449 -3.61923 0
M  V30 7982 H 736.418 4.03814 -1.06022 0
M  V30 7983 H 737.808 4.39005 -5.08649 0
M  V30 7984 N 740.528 1.15101 1.07655 0
M  V30 7985 C 741.476 0.840714 2.16875 0
M  V30 7986 C 742.47 -0.184594 1.68391 0
M  V30 7987 O 743.676 -0.0399315 1.79956 0
M  V30 7988 H 740.051 0.254192 0.707736 0
M  V30 7989 H 742.022 1.76959 2.40266 0
M  V30 7990 C 740.771 0.343018 3.46004 0
M  V30 7991 H 740.094 1.12335 3.83694 0
M  V30 7992 H 741.534 0.16453 4.23681 0
M  V30 7993 C 739.993 -0.934881 3.23669 0
M  V30 7994 O 740.523 -2.00706 3.47965 0
M  V30 7995 N 738.729 -0.873167 2.77172 0
M  V30 7996 H 738.276 -0.000479072 2.576 0
M  V30 7997 H 738.234 -1.72873 2.62607 0
M  V30 7998 N 742.006 -1.2595 0.947325 0
M  V30 7999 C 742.938 -2.25336 0.41906 0
M  V30 8000 C 743.951 -1.56135 -0.461051 0
M  V30 8001 O 745.14 -1.76438 -0.270505 0
M  V30 8002 C 742.24 -3.36334 -0.416233 0
M  V30 8003 C 741.413 -4.35088 0.449162 0
M  V30 8004 C 740.472 -5.25185 -0.326716 0
M  V30 8005 O 739.498 -5.68548 0.272374 0
M  V30 8006 N 740.7 -5.57388 -1.6217 0
M  V30 8007 H 743.465 -2.71298 1.27348 0
M  V30 8008 H 741.026 -1.39781 0.81688 0
M  V30 8009 H 743.018 -3.93564 -0.942826 0
M  V30 8010 H 741.588 -2.89819 -1.17148 0
M  V30 8011 H 740.808 -3.76841 1.15692 0
M  V30 8012 H 742.096 -4.98056 1.04008 0
M  V30 8013 H 741.494 -5.2405 -2.13046 0
M  V30 8014 H 740.051 -6.17234 -2.0944 0
M  V30 8015 N 743.484 -0.715051 -1.40445 0
M  V30 8016 C 744.731 -0.254328 -2.00897 0
M  V30 8017 C 745.059 1.15228 -1.56693 0
M  V30 8018 O 744.314 1.7958 -0.777786 0
M  V30 8019 C 744.613 -0.281791 -3.56287 0
M  V30 8020 C 744.279 -1.63862 -4.20071 0
M  V30 8021 C 742.941 -2.01003 -4.37208 0
M  V30 8022 C 745.293 -2.53039 -4.55654 0
M  V30 8023 C 742.621 -3.26869 -4.8721 0
M  V30 8024 C 744.973 -3.78256 -5.07055 0
M  V30 8025 C 743.637 -4.15515 -5.22401 0
M  V30 8026 H 742.907 -0.0930652 -0.735133 0
M  V30 8027 H 745.554 -0.917977 -1.68064 0
M  V30 8028 H 743.859 0.465428 -3.89026 0
M  V30 8029 H 745.556 0.0925158 -4.00893 0
M  V30 8030 H 742.146 -1.33979 -4.07121 0
M  V30 8031 H 746.33 -2.2562 -4.42051 0
M  V30 8032 H 741.586 -3.55706 -4.97276 0
M  V30 8033 H 745.76 -4.47528 -5.33565 0
M  V30 8034 H 743.387 -5.13114 -5.60909 0
M  V30 8035 N 744.962 1.50701 -0.461195 0
M  V30 8036 C 746.209 2.02267 0.0971971 0
M  V30 8037 C 746.537 1.34387 1.40608 0
M  V30 8038 O 745.792 0.455254 1.90331 0
M  V30 8039 C 746.091 3.55788 0.33908 0
M  V30 8040 C 745.757 4.42092 -0.886885 0
M  V30 8041 C 744.419 4.65398 -1.22304 0
M  V30 8042 C 746.771 4.92571 -1.70361 0
M  V30 8043 C 744.099 5.36429 -2.37616 0
M  V30 8044 C 746.451 5.64868 -2.84793 0
M  V30 8045 C 745.115 5.86431 -3.18834 0
M  V30 8046 H 744.385 0.740146 0.0355669 0
M  V30 8047 H 747.032 1.81415 -0.61326 0
M  V30 8048 H 745.337 3.751 1.13168 0
M  V30 8049 H 747.034 3.93243 0.784937 0
M  V30 8050 H 743.624 4.24165 -0.614981 0
M  V30 8051 H 747.808 4.74428 -1.4571 0
M  V30 8052 H 743.064 5.51333 -2.64276 0
M  V30 8053 H 747.238 6.02966 -3.48432 0
M  V30 8054 H 744.865 6.41248 -4.08296 0
M  V30 8055 N 746.441 0.193421 1.56409 0
M  V30 8056 C 747.687 -0.43983 1.98588 0
M  V30 8057 C 748.042 -1.59353 1.07816 0
M  V30 8058 O 747.335 -1.9121 0.122226 0
M  V30 8059 C 747.529 -0.949718 3.44551 0
M  V30 8060 C 747.358 0.153045 4.49439 0
M  V30 8061 C 746.128 0.610119 5.01603 0
M  V30 8062 C 748.326 0.961397 5.05234 0
M  V30 8063 N 746.308 1.69088 5.90155 0
M  V30 8064 C 747.679 1.8916 5.90439 0
M  V30 8065 C 749.734 1.004 4.87672 0
M  V30 8066 C 748.437 2.86086 6.5996 0
M  V30 8067 C 750.463 1.96131 5.57931 0
M  V30 8068 C 749.825 2.87895 6.42881 0
M  V30 8069 H 745.924 -0.128415 0.771384 0
M  V30 8070 H 748.508 0.29873 1.92395 0
M  V30 8071 H 746.679 -1.65772 3.51246 0
M  V30 8072 H 748.411 -1.55344 3.73698 0
M  V30 8073 H 745.166 0.203771 4.73161 0
M  V30 8074 H 745.59 2.23241 6.39134 0
M  V30 8075 H 750.232 0.308536 4.21673 0
M  V30 8076 H 747.95 3.56609 7.25159 0
M  V30 8077 H 751.536 2.00066 5.46319 0
M  V30 8078 H 750.416 3.60763 6.9629 0
M  V30 8079 N 747.919 -1.57396 -0.0801906 0
M  V30 8080 C 748.849 -2.06145 -1.09665 0
M  V30 8081 C 749.83 -0.953273 -1.40878 0
M  V30 8082 O 751.015 -1.22548 -1.50651 0
M  V30 8083 C 748.145 -2.49836 -2.41245 0
M  V30 8084 C 747.099 -3.64454 -2.24405 0
M  V30 8085 C 746.425 -3.94172 -3.61293 0
M  V30 8086 C 747.725 -4.94807 -1.67223 0
M  V30 8087 H 749.419 -2.91316 -0.691028 0
M  V30 8088 H 746.965 -1.40145 -0.330957 0
M  V30 8089 H 748.918 -2.82552 -3.12638 0
M  V30 8090 H 747.642 -1.61683 -2.83771 0
M  V30 8091 H 746.301 -3.32008 -1.55454 0
M  V30 8092 H 745.949 -3.03163 -4.01374 0
M  V30 8093 H 745.649 -4.71345 -3.50867 0
M  V30 8094 H 747.173 -4.29376 -4.3413 0
M  V30 8095 H 748.587 -5.25807 -2.28472 0
M  V30 8096 H 746.984 -5.76245 -1.67515 0
M  V30 8097 H 748.054 -4.80751 -0.632944 0
M  V30 8098 N 749.397 0.351382 -1.53633 0
M  V30 8099 C 750.645 1.09034 -1.70165 0
M  V30 8100 C 750.966 1.89413 -0.463422 0
M  V30 8101 O 750.236 1.888 0.522624 0
M  V30 8102 H 748.816 0.405522 -0.627344 0
M  V30 8103 H 751.478 0.394554 -1.90865 0
M  V30 8104 H 750.574 1.77215 -2.56907 0
M  V30 8105 N 750.875 1.45233 0.611969 0
M  V30 8106 C 751.822 1.5357 1.72293 0
M  V30 8107 C 752.792 0.381912 1.6165 0
M  V30 8108 O 753.977 0.594765 1.81293 0
M  V30 8109 C 751.117 1.50419 3.10593 0
M  V30 8110 C 750.23 2.76316 3.32074 0
M  V30 8111 C 749.365 2.64866 4.60456 0
M  V30 8112 C 748.404 3.85838 4.7518 0
M  V30 8113 N 747.541 3.72949 5.94856 0
M  V30 8114 H 752.381 2.4848 1.64504 0
M  V30 8115 H 749.918 1.23302 0.802191 0
M  V30 8116 H 751.876 1.4658 3.90602 0
M  V30 8117 H 750.506 0.590621 3.17351 0
M  V30 8118 H 749.558 2.90261 2.45872 0
M  V30 8119 H 750.87 3.66055 3.38829 0
M  V30 8120 H 750.024 2.58969 5.48653 0
M  V30 8121 H 748.763 1.72719 4.56092 0
M  V30 8122 H 747.768 3.92099 3.85407 0
M  V30 8123 H 748.993 4.79045 4.81344 0
M  V30 8124 H 746.939 2.83567 5.91545 0
M  V30 8125 H 746.856 4.56319 6.02751 0
M  V30 8126 H 748.124 3.70976 6.85563 0
M  V30 8127 N 752.353 -0.854086 1.3245 0
M  V30 8128 C 753.63 -1.59188 1.1366 0
M  V30 8129 C 754.01 -2.08917 -0.302807 0
M  V30 8130 O 753.358 -1.8795 -1.29951 0
M  V30 8131 C 753.568 -2.73757 2.16467 0
M  V30 8132 C 754.916 -3.43323 2.49829 0
M  V30 8133 O 755.94 -2.83983 2.15017 0
M  V30 8134 O 754.799 -4.50409 3.09506 0
M  V30 8135 H 751.893 -0.701092 0.438633 0
M  V30 8136 H 754.439 -0.898165 1.43983 0
M  V30 8137 H 753.211 -2.3454 3.1322 0
M  V30 8138 H 752.834 -3.50804 1.87142 0
M  V30 8139 N 753.831 -1.1567 -1.07043 0
M  V30 8140 C 755.061 -0.956083 -1.83146 0
M  V30 8141 C 755.469 0.498969 -1.82502 0
M  V30 8142 O 754.812 1.35791 -1.23719 0
M  V30 8143 C 754.874 -1.39704 -3.31245 0
M  V30 8144 C 754.538 -2.87045 -3.55604 0
M  V30 8145 C 755.535 -3.85092 -3.49285 0
M  V30 8146 C 753.22 -3.24787 -3.8317 0
M  V30 8147 C 755.214 -5.18885 -3.70185 0
M  V30 8148 C 752.901 -4.58751 -4.03721 0
M  V30 8149 C 753.899 -5.55609 -3.97224 0
M  V30 8150 O 753.587 -6.87154 -4.17223 0
M  V30 8151 H 753.319 -0.339473 -0.58458 0
M  V30 8152 H 755.873 -1.53922 -1.36005 0
M  V30 8153 H 754.103 -0.757326 -3.79212 0
M  V30 8154 H 755.792 -1.16503 -3.88821 0
M  V30 8155 H 756.558 -3.5728 -3.27988 0
M  V30 8156 H 752.437 -2.49979 -3.87339 0
M  V30 8157 H 755.981 -5.94473 -3.6503 0
M  V30 8158 H 751.878 -4.86277 -4.24505 0
M  V30 8159 H 752.646 -6.93618 -4.34553 0
M  V30 8160 N 755.309 1.25446 -0.953992 0
M  V30 8161 C 756.534 1.97755 -0.625129 0
M  V30 8162 C 756.959 1.70437 0.795787 0
M  V30 8163 O 756.317 0.95992 1.53803 0
M  V30 8164 C 756.365 3.49463 -0.889251 0
M  V30 8165 O 755.469 4.12387 0.0322757 0
M  V30 8166 H 754.81 0.61998 -0.237742 0
M  V30 8167 H 757.34 1.59582 -1.28041 0
M  V30 8168 H 757.35 3.99772 -0.815263 0
M  V30 8169 H 756.025 3.68676 -1.92487 0
M  V30 8170 H 754.602 3.72782 -0.0938625 0
M  V30 8171 N 756.787 0.722489 1.40064 0
M  V30 8172 C 757.735 0.063329 2.32514 0
M  V30 8173 C 758.729 -0.73953 1.52405 0
M  V30 8174 O 759.935 -0.642122 1.68157 0
M  V30 8175 H 756.31 0.00167692 0.751998 0
M  V30 8176 H 758.281 0.859656 2.85749 0
M  V30 8177 C 757.03 -0.839219 3.3742 0
M  V30 8178 H 756.353 -0.230836 3.99133 0
M  V30 8179 H 757.793 -1.26827 4.04587 0
M  V30 8180 C 756.252 -1.96783 2.73456 0
M  V30 8181 O 756.782 -3.05933 2.60323 0
M  V30 8182 N 754.988 -1.75351 2.31734 0
M  V30 8183 H 754.535 -0.865787 2.42615 0
M  V30 8184 H 754.493 -2.51043 1.89275 0
M  V30 8185 N 758.265 -1.50454 0.469181 0
M  V30 8186 C 759.195 -2.31353 -0.31592 0
M  V30 8187 C 760.176 -1.38172 -0.992094 0
M  V30 8188 O 761.361 -1.67093 -0.989633 0
M  V30 8189 C 758.491 -3.1786 -1.39937 0
M  V30 8190 C 757.445 -4.19578 -0.844909 0
M  V30 8191 C 756.771 -4.9481 -2.0265 0
M  V30 8192 C 758.071 -5.22106 0.142499 0
M  V30 8193 H 759.765 -2.97237 0.359269 0
M  V30 8194 H 757.311 -1.42942 0.174224 0
M  V30 8195 H 759.264 -3.7325 -1.95607 0
M  V30 8196 H 757.988 -2.49858 -2.1033 0
M  V30 8197 H 756.647 -3.65285 -0.310189 0
M  V30 8198 H 756.295 -4.23282 -2.71737 0
M  V30 8199 H 755.995 -5.63613 -1.66174 0
M  V30 8200 H 757.519 -5.53035 -2.58815 0
M  V30 8201 H 758.933 -5.72378 -0.324966 0
M  V30 8202 H 757.33 -5.98618 0.421441 0
M  V30 8203 H 758.4 -4.7297 1.06901 0
M  V30 8204 N 759.743 -0.201713 -1.56304 0
M  V30 8205 C 760.992 0.435557 -1.96941 0
M  V30 8206 C 761.305 1.62299 -1.09172 0
M  V30 8207 O 762.511 2.32849 -1.3962 0
M  V30 8208 C 760.967 0.826298 -3.50286 0
M  V30 8209 C 760.575 -0.337216 -4.46729 0
M  V30 8210 C 762.319 1.43028 -3.99679 0
M  V30 8211 C 760.226 0.0748539 -5.91353 0
M  V30 8212 H 759.156 0.1665 -0.735387 0
M  V30 8213 H 761.807 -0.294781 -1.81117 0
M  V30 8214 H 760.189 1.61349 -3.61639 0
M  V30 8215 H 761.363 -1.11476 -4.47113 0
M  V30 8216 H 759.678 -0.853126 -4.07567 0
M  V30 8217 H 762.275 1.75115 -5.05212 0
M  V30 8218 H 762.618 2.33911 -3.44371 0
M  V30 8219 H 763.151 0.706924 -3.91468 0
M  V30 8220 H 759.89 -0.799957 -6.506 0
M  V30 8221 H 759.41 0.817122 -5.94208 0
M  V30 8222 H 761.089 0.508389 -6.45 0
M  V30 8223 N 761.222 1.57436 0.0718424 0
M  V30 8224 C 762.45 1.91474 0.783932 0
M  V30 8225 C 762.865 0.797669 1.71122 0
M  V30 8226 O 762.222 -0.228989 1.81058 0
M  V30 8227 C 762.273 3.25259 1.57761 0
M  V30 8228 O 761.994 4.3267 0.687596 0
M  V30 8229 C 763.495 3.7331 2.3907 0
M  V30 8230 H 760.715 0.632901 0.222885 0
M  V30 8231 H 763.259 2.04457 0.0421262 0
M  V30 8232 H 761.414 3.13804 2.27169 0
M  V30 8233 H 761.828 5.09641 1.23962 0
M  V30 8234 H 763.302 4.69551 2.90216 0
M  V30 8235 H 763.779 3.02318 3.18591 0
M  V30 8236 H 764.385 3.8771 1.74818 0
M  V30 8237 N 762.7 -0.34323 1.53817 0
M  V30 8238 C 763.647 -1.42153 1.81827 0
M  V30 8239 C 764.617 -1.52251 0.663996 0
M  V30 8240 O 765.802 -1.67784 0.908461 0
M  V30 8241 C 762.942 -2.78799 2.03384 0
M  V30 8242 C 762.055 -2.7749 3.31094 0
M  V30 8243 C 761.19 -4.05856 3.42717 0
M  V30 8244 C 760.229 -3.98776 4.64375 0
M  V30 8245 N 759.366 -5.18833 4.73029 0
M  V30 8246 H 764.206 -1.17567 2.73829 0
M  V30 8247 H 761.743 -0.569506 1.35628 0
M  V30 8248 H 763.701 -3.58211 2.13872 0
M  V30 8249 H 762.331 -3.01736 1.14696 0
M  V30 8250 H 761.383 -1.90182 3.29446 0
M  V30 8251 H 762.695 -2.68137 4.206 0
M  V30 8252 H 761.849 -4.93691 3.52638 0
M  V30 8253 H 760.588 -4.1799 2.51267 0
M  V30 8254 H 759.593 -3.09325 4.5453 0
M  V30 8255 H 760.818 -3.88224 5.57189 0
M  V30 8256 H 758.764 -5.31511 3.84489 0
M  V30 8257 H 758.681 -5.11737 5.56472 0
M  V30 8258 H 759.949 -6.08439 4.87261 0
M  V30 8259 N 764.178 -1.45556 -0.604258 0
M  V30 8260 C 765.455 -1.40221 -1.36373 0
M  V30 8261 C 765.835 -0.0745195 -2.10968 0
M  V30 8262 O 765.183 0.943594 -2.08107 0
M  V30 8263 C 765.393 -2.61807 -2.30777 0
M  V30 8264 C 766.741 -3.07037 -2.93281 0
M  V30 8265 O 767.765 -2.62203 -2.41097 0
M  V30 8266 O 766.624 -3.8485 -3.88011 0
M  V30 8267 H 763.718 -0.556602 -0.611656 0
M  V30 8268 H 766.264 -1.57689 -0.627069 0
M  V30 8269 H 765.036 -3.50017 -1.74939 0
M  V30 8270 H 764.659 -2.46688 -3.11818 0
M  V30 8271 N 765.656 0.84705 -1.32902 0
M  V30 8272 C 766.902 1.60389 -1.25088 0
M  V30 8273 C 767.257 1.91521 0.183723 0
M  V30 8274 O 766.55 1.55197 1.12359 0
M  V30 8275 C 766.744 2.92663 -2.05142 0
M  V30 8276 C 766.573 2.74449 -3.56241 0
M  V30 8277 C 765.343 2.72434 -4.25567 0
M  V30 8278 C 767.541 2.47666 -4.5074 0
M  V30 8279 N 765.523 2.45512 -5.62669 0
M  V30 8280 C 766.894 2.30219 -5.75673 0
M  V30 8281 C 768.949 2.33196 -4.39914 0
M  V30 8282 C 767.652 1.99772 -6.91002 0
M  V30 8283 C 769.678 2.0414 -5.5505 0
M  V30 8284 C 769.04 1.875 -6.78987 0
M  V30 8285 H 765.139 0.590296 -0.512908 0
M  V30 8286 H 767.723 0.995058 -1.67352 0
M  V30 8287 H 765.894 3.51511 -1.65211 0
M  V30 8288 H 767.626 3.5777 -1.89163 0
M  V30 8289 H 764.381 2.85647 -3.7776 0
M  V30 8290 H 764.805 2.34958 -6.3492 0
M  V30 8291 H 769.447 2.44777 -3.44738 0
M  V30 8292 H 767.165 1.86928 -7.86183 0
M  V30 8293 H 770.751 1.93711 -5.48605 0
M  V30 8294 H 769.631 1.65339 -7.66572 0
M  V30 8295 N 767.134 1.16236 1.06428 0
M  V30 8296 C 768.38 0.944431 1.79467 0
M  V30 8297 C 768.713 -0.526558 1.86925 0
M  V30 8298 O 767.988 -1.39061 1.35986 0
M  V30 8299 C 768.271 1.57092 3.24028 0
M  V30 8300 C 768.124 3.11315 3.24658 0
M  V30 8301 C 769.443 1.26447 4.21544 0
M  V30 8302 H 766.562 0.344521 0.651517 0
M  V30 8303 H 769.204 1.43545 1.24478 0
M  V30 8304 H 767.354 1.15337 3.70985 0
M  V30 8305 H 769.026 3.62042 2.85873 0
M  V30 8306 H 767.269 3.44716 2.6335 0
M  V30 8307 H 767.94 3.50269 4.26633 0
M  V30 8308 H 770.416 1.62581 3.83023 0
M  V30 8309 H 769.292 1.72885 5.20963 0
M  V30 8310 H 769.553 0.183068 4.41721 0
M  V30 8311 N 768.612 -1.24939 0.960631 0
M  V30 8312 C 769.544 -2.24879 0.442937 0
M  V30 8313 C 770.557 -1.56615 -0.444464 0
M  V30 8314 O 771.746 -1.76715 -0.251776 0
M  V30 8315 C 768.846 -3.36757 -0.380537 0
M  V30 8316 C 768.019 -4.34587 0.495283 0
M  V30 8317 C 767.078 -5.25502 -0.270995 0
M  V30 8318 O 766.104 -5.68227 0.332661 0
M  V30 8319 N 767.306 -5.59077 -1.56249 0
M  V30 8320 H 770.071 -2.69932 1.30218 0
M  V30 8321 H 767.632 -1.38907 0.83166 0
M  V30 8322 H 769.624 -3.94542 -0.90103 0
M  V30 8323 H 768.194 -2.91045 -1.14067 0
M  V30 8324 H 767.414 -3.75593 1.19682 0
M  V30 8325 H 768.702 -4.96925 1.09285 0
M  V30 8326 H 768.1 -5.2628 -2.07476 0
M  V30 8327 H 766.657 -6.19421 -2.02882 0
M  V30 8328 N 770.09 -0.729906 -1.39679 0
M  V30 8329 C 771.02 -0.101618 -2.33279 0
M  V30 8330 C 772.001 0.729854 -1.53646 0
M  V30 8331 O 773.186 0.67587 -1.82059 0
M  V30 8332 C 770.316 0.81024 -3.37716 0
M  V30 8333 C 769.27 0.0833126 -4.27919 0
M  V30 8334 C 768.596 1.11185 -5.23012 0
M  V30 8335 C 769.896 -1.07107 -5.112 0
M  V30 8336 H 771.59 -0.883452 -2.86069 0
M  V30 8337 H 769.136 -0.426283 -1.37546 0
M  V30 8338 H 771.089 1.25927 -4.02145 0
M  V30 8339 H 769.813 1.62413 -2.83354 0
M  V30 8340 H 768.472 -0.346043 -3.64963 0
M  V30 8341 H 768.12 1.91917 -4.64948 0
M  V30 8342 H 767.82 0.63026 -5.8421 0
M  V30 8343 H 769.344 1.56068 -5.90318 0
M  V30 8344 H 770.758 -0.700726 -5.69002 0
M  V30 8345 H 769.155 -1.48196 -5.81514 0
M  V30 8346 H 770.225 -1.89513 -4.46332 0
M  V30 8347 N 771.568 1.50203 -0.477153 0
M  V30 8348 C 772.845 1.95115 0.137609 0
M  V30 8349 C 773.225 1.41778 1.56404 0
M  V30 8350 O 772.573 0.621333 2.1989 0
M  V30 8351 C 772.783 3.4892 0.0747168 0
M  V30 8352 C 774.131 4.238 0.260585 0
M  V30 8353 O 775.155 3.5588 0.151021 0
M  V30 8354 O 774.014 5.44366 0.482534 0
M  V30 8355 H 771.108 0.81987 0.108364 0
M  V30 8356 H 773.654 1.60946 -0.537989 0
M  V30 8357 H 772.426 3.80308 -0.920966 0
M  V30 8358 H 772.049 3.89642 0.791509 0
M  V30 8359 N 773.046 0.209999 1.56195 0
M  V30 8360 C 774.462 -0.145598 1.58934 0
M  V30 8361 C 774.662 -1.59868 1.22656 0
M  V30 8362 O 773.718 -2.33689 0.956336 0
M  V30 8363 C 775.031 0.170243 3.00218 0
M  V30 8364 C 776.579 0.111548 3.12801 0
M  V30 8365 C 777.054 0.400904 4.56242 0
M  V30 8366 N 778.545 0.350058 4.61875 0
M  V30 8367 C 779.28 0.547598 5.70779 0
M  V30 8368 N 778.776 0.806291 6.88092 0
M  V30 8369 N 780.569 0.480827 5.6004 0
M  V30 8370 H 772.72 1.15804 1.78054 0
M  V30 8371 H 774.983 0.463326 0.827063 0
M  V30 8372 H 774.689 1.17833 3.31373 0
M  V30 8373 H 774.563 -0.520208 3.73596 0
M  V30 8374 H 776.95 -0.887162 2.81449 0
M  V30 8375 H 777.031 0.835302 2.41777 0
M  V30 8376 H 776.675 1.397 4.8831 0
M  V30 8377 H 776.605 -0.34391 5.25476 0
M  V30 8378 H 779.096 0.157334 3.77572 0
M  V30 8379 H 779.409 0.945433 7.66995 0
M  V30 8380 H 777.754 0.843355 6.89864 0
M  V30 8381 H 780.945 0.279037 4.67268 0
M  V30 8382 H 781.118 0.638189 6.4485 0
M  V30 8383 N 774.524 -1.57472 -0.0634922 0
M  V30 8384 C 775.935 -1.76303 -0.614337 0
M  V30 8385 C 776.286 -0.836578 -1.77471 0
M  V30 8386 O 775.411 -0.0227184 -2.16388 0
M  V30 8387 C 776.006 -3.19709 -1.12122 0
M  V30 8388 C 774.565 -3.39856 -1.61786 0
M  V30 8389 C 773.712 -2.71975 -0.540845 0
M  V30 8390 H 776.663 -1.57864 0.162702 0
M  V30 8391 H 776.684 -3.24326 -1.98979 0
M  V30 8392 H 776.196 -3.87114 -0.276472 0
M  V30 8393 H 774.297 -2.77578 -2.48558 0
M  V30 8394 H 774.41 -4.48338 -1.68908 0
M  V30 8395 H 772.774 -2.34763 -0.987854 0
M  V30 8396 H 773.557 -3.4204 0.293856 0
M  V30 8397 N 776.003 0.335068 -1.53997 0
M  V30 8398 C 777.25 1.07435 -1.71651 0
M  V30 8399 C 777.578 1.88378 -0.48413 0
M  V30 8400 O 776.833 1.8827 0.534139 0
M  V30 8401 C 777.132 2.0364 -2.9371 0
M  V30 8402 C 776.798 1.38942 -4.28959 0
M  V30 8403 C 775.46 1.21027 -4.65732 0
M  V30 8404 C 777.812 0.924083 -5.12943 0
M  V30 8405 C 775.14 0.552097 -5.84097 0
M  V30 8406 C 777.492 0.27978 -6.31981 0
M  V30 8407 C 776.156 0.0883843 -6.67441 0
M  V30 8408 H 775.426 0.393133 -0.628114 0
M  V30 8409 H 778.073 0.352712 -1.88224 0
M  V30 8410 H 776.378 2.82215 -2.71775 0
M  V30 8411 H 778.075 2.6085 -3.04562 0
M  V30 8412 H 774.665 1.53885 -4.00022 0
M  V30 8413 H 778.849 1.05032 -4.85059 0
M  V30 8414 H 774.105 0.392502 -6.10139 0
M  V30 8415 H 778.279 -0.0888479 -6.96343 0
M  V30 8416 H 775.906 -0.423657 -7.59019 0
M  V30 8417 N 777.481 1.45874 0.596531 0
M  V30 8418 C 778.391 1.57947 1.73464 0
M  V30 8419 C 779.407 0.463461 1.67714 0
M  V30 8420 O 780.583 0.725685 1.87872 0
M  V30 8421 C 777.648 1.55348 3.09948 0
M  V30 8422 C 776.709 2.78074 3.27068 0
M  V30 8423 C 775.942 2.75589 4.57041 0
M  V30 8424 O 776.165 1.83545 5.40063 0
M  V30 8425 O 775.099 3.66945 4.77111 0
M  V30 8426 H 778.925 2.54169 1.66228 0
M  V30 8427 H 776.51 1.2851 0.76194 0
M  V30 8428 H 778.392 1.56545 3.91244 0
M  V30 8429 H 777.067 0.622811 3.17652 0
M  V30 8430 H 775.974 2.82435 2.45319 0
M  V30 8431 H 777.307 3.70303 3.24248 0
M  V30 8432 N 778.959 -0.83999 1.33349 0
M  V30 8433 C 780.236 -1.57973 1.15342 0
M  V30 8434 C 780.616 -2.09226 -0.280632 0
M  V30 8435 O 779.964 -1.89317 -1.2795 0
M  V30 8436 C 780.174 -2.71446 2.19359 0
M  V30 8437 C 781.522 -3.40654 2.53456 0
M  V30 8438 O 782.546 -2.81686 2.18017 0
M  V30 8439 O 781.405 -4.47101 3.14266 0
M  V30 8440 H 778.499 -0.6964 0.446044 0
M  V30 8441 H 781.045 -0.882843 1.44927 0
M  V30 8442 H 779.817 -2.31205 3.1569 0
M  V30 8443 H 779.44 -3.488 1.90852 0
M  V30 8444 N 780.437 -1.16799 -1.0581 0
M  V30 8445 C 781.684 -0.952524 -1.78699 0
M  V30 8446 C 782.012 0.51931 -1.87439 0
M  V30 8447 O 781.267 1.40151 -1.36587 0
M  V30 8448 C 781.566 -1.53111 -3.22942 0
M  V30 8449 C 781.232 -3.0261 -3.34273 0
M  V30 8450 C 779.894 -3.43418 -3.37072 0
M  V30 8451 C 782.246 -3.98611 -3.35795 0
M  V30 8452 C 779.574 -4.78838 -3.39015 0
M  V30 8453 C 781.926 -5.33923 -3.39277 0
M  V30 8454 C 780.59 -5.74205 -3.40361 0
M  V30 8455 H 779.86 -0.348553 -0.653905 0
M  V30 8456 H 782.507 -1.45591 -1.244 0
M  V30 8457 H 780.812 -0.949286 -3.80126 0
M  V30 8458 H 782.509 -1.34002 -3.77948 0
M  V30 8459 H 779.099 -2.70075 -3.32803 0
M  V30 8460 H 783.283 -3.68146 -3.32839 0
M  V30 8461 H 778.539 -5.09369 -3.38161 0
M  V30 8462 H 782.713 -6.08094 -3.39403 0
M  V30 8463 H 780.34 -6.79117 -3.4162 0
M  V30 8464 N 781.915 1.24427 -0.967243 0
M  V30 8465 C 783.164 1.91789 -0.624478 0
M  V30 8466 C 783.477 1.76448 0.844129 0
M  V30 8467 O 784.683 2.38495 1.2974 0
M  V30 8468 C 783.139 3.43743 -1.06626 0
M  V30 8469 C 782.747 3.67771 -2.55829 0
M  V30 8470 C 784.491 4.16958 -0.79662 0
M  V30 8471 C 782.398 5.13293 -2.93742 0
M  V30 8472 H 781.328 0.71811 -0.229856 0
M  V30 8473 H 783.979 1.41081 -1.17339 0
M  V30 8474 H 782.361 3.93484 -0.445663 0
M  V30 8475 H 783.535 3.28631 -3.23015 0
M  V30 8476 H 781.85 3.07841 -2.80398 0
M  V30 8477 H 784.447 5.24171 -1.05589 0
M  V30 8478 H 784.79 4.15442 0.267163 0
M  V30 8479 H 785.323 3.73164 -1.37816 0
M  V30 8480 H 782.062 5.19931 -3.9919 0
M  V30 8481 H 781.582 5.53433 -2.3124 0
M  V30 8482 H 783.261 5.81521 -2.83623 0
M  V30 8483 N 783.393 0.737304 1.3929 0
M  V30 8484 C 784.67 0.212464 1.94443 0
M  V30 8485 C 785.05 -1.28621 1.67391 0
M  V30 8486 O 784.398 -2.0529 1.00342 0
M  V30 8487 C 784.608 0.548565 3.44662 0
M  V30 8488 C 785.956 0.499177 4.21656 0
M  V30 8489 O 786.98 0.485892 3.5287 0
M  V30 8490 O 785.839 0.495739 5.44247 0
M  V30 8491 H 782.933 0.0395457 0.826054 0
M  V30 8492 H 785.479 0.816319 1.48776 0
M  V30 8493 H 784.251 1.58426 3.57795 0
M  V30 8494 H 783.874 -0.0841399 3.97511 0
M  V30 8495 N 784.871 -1.49948 0.485112 0
M  V30 8496 C 786.287 -1.58984 0.140096 0
M  V30 8497 C 786.487 -1.49194 -1.35438 0
M  V30 8498 O 785.543 -1.35765 -2.12894 0
M  V30 8499 C 786.856 -2.92372 0.702769 0
M  V30 8500 C 788.404 -3.05801 0.66745 0
M  V30 8501 C 788.879 -4.41785 1.20791 0
M  V30 8502 N 790.37 -4.48234 1.16792 0
M  V30 8503 C 791.105 -5.51871 1.55646 0
M  V30 8504 N 790.601 -6.62692 2.02016 0
M  V30 8505 N 792.394 -5.42494 1.47161 0
M  V30 8506 H 784.545 -1.54555 1.45693 0
M  V30 8507 H 786.808 -0.731206 0.603359 0
M  V30 8508 H 786.514 -3.05056 1.75025 0
M  V30 8509 H 786.388 -3.76885 0.154205 0
M  V30 8510 H 788.775 -2.92757 -0.371157 0
M  V30 8511 H 788.856 -2.23011 1.25298 0
M  V30 8512 H 788.5 -4.55579 2.24522 0
M  V30 8513 H 788.43 -5.23188 0.598464 0
M  V30 8514 H 790.921 -3.68718 0.827982 0
M  V30 8515 H 791.234 -7.3785 2.29775 0
M  V30 8516 H 789.579 -6.63775 2.05979 0
M  V30 8517 H 792.77 -4.54806 1.10765 0
M  V30 8518 H 792.943 -6.2314 1.77766 0
M  V30 8519 N 786.349 -0.21828 -1.56081 0
M  V30 8520 C 787.259 0.704602 -2.23769 0
M  V30 8521 C 788.275 1.21633 -1.24425 0
M  V30 8522 O 789.451 1.25862 -1.57228 0
M  V30 8523 C 786.516 1.89725 -2.90182 0
M  V30 8524 C 785.577 1.42782 -4.0486 0
M  V30 8525 C 784.81 2.56361 -4.68097 0
M  V30 8526 O 785.033 3.74417 -4.30312 0
M  V30 8527 O 783.967 2.2775 -5.57148 0
M  V30 8528 H 787.793 0.158007 -3.03289 0
M  V30 8529 H 785.378 0.0120279 -1.49395 0
M  V30 8530 H 787.26 2.59382 -3.32113 0
M  V30 8531 H 785.935 2.432 -2.13624 0
M  V30 8532 H 784.842 0.699359 -3.67505 0
M  V30 8533 H 786.175 0.939474 -4.83151 0
M  V30 8534 N 787.827 1.57504 0.0551401 0
M  V30 8535 C 789.055 1.92294 0.76358 0
M  V30 8536 C 789.47 0.815774 1.70266 0
M  V30 8537 O 788.827 -0.209772 1.8129 0
M  V30 8538 C 788.878 3.26914 1.54302 0
M  V30 8539 O 788.599 4.33375 0.641666 0
M  V30 8540 C 790.1 3.75825 2.35097 0
M  V30 8541 H 787.32 0.635229 0.216159 0
M  V30 8542 H 789.864 2.0449 0.0204385 0
M  V30 8543 H 788.019 3.16196 2.23828 0
M  V30 8544 H 788.433 5.10927 1.1855 0
M  V30 8545 H 789.907 4.72603 2.8522 0
M  V30 8546 H 790.384 3.0568 3.15367 0
M  V30 8547 H 790.99 3.89542 1.70696 0
M  V30 8548 N 789.305 -0.326896 1.54172 0
M  V30 8549 C 790.533 -1.08486 1.76177 0
M  V30 8550 C 790.948 -1.81815 0.508788 0
M  V30 8551 O 790.305 -1.74924 -0.520362 0
M  V30 8552 C 790.356 -2.08552 2.95276 0
M  V30 8553 O 790.077 -1.38202 4.15731 0
M  V30 8554 C 791.578 -2.96593 3.29466 0
M  V30 8555 H 788.798 -0.322835 0.588233 0
M  V30 8556 H 791.342 -0.374036 2.0105 0
M  V30 8557 H 789.497 -2.75174 2.72687 0
M  V30 8558 H 789.911 -2.05186 4.827 0
M  V30 8559 H 791.385 -3.62708 4.16109 0
M  V30 8560 H 791.862 -3.63511 2.46487 0
M  V30 8561 H 792.468 -2.35537 3.54122 0
M  V30 8562 N 790.784 -1.46188 -0.588786 0
M  V30 8563 C 792.195 -1.45421 -1.17088 0
M  V30 8564 C 792.546 -0.191801 -1.9526 0
M  V30 8565 O 791.671 0.705497 -2.04577 0
M  V30 8566 C 792.266 -2.63467 -2.13004 0
M  V30 8567 C 790.825 -2.6576 -2.6655 0
M  V30 8568 C 789.972 -2.38002 -1.42304 0
M  V30 8569 H 792.923 -1.54156 -0.377052 0
M  V30 8570 H 792.944 -2.38638 -2.96365 0
M  V30 8571 H 792.456 -3.55331 -1.56081 0
M  V30 8572 H 790.557 -1.77952 -3.27359 0
M  V30 8573 H 790.67 -3.65545 -3.09699 0
M  V30 8574 H 789.034 -1.87936 -1.71907 0
M  V30 8575 H 789.817 -3.32035 -0.872209 0
M  V30 8576 N 792.262 0.832906 -1.33792 0
M  V30 8577 C 793.678 1.1245 -1.13257 0
M  V30 8578 C 793.878 2.01369 0.0725832 0
M  V30 8579 O 792.934 2.41071 0.751082 0
M  V30 8580 C 794.247 1.78084 -2.42294 0
M  V30 8581 C 795.795 1.90624 -2.48257 0
M  V30 8582 C 796.27 2.59673 -3.77271 0
M  V30 8583 N 797.761 2.67181 -3.78376 0
M  V30 8584 C 798.496 3.21313 -4.74916 0
M  V30 8585 N 797.992 3.76086 -5.81835 0
M  V30 8586 N 799.785 3.19621 -4.62384 0
M  V30 8587 H 791.936 0.241244 -2.11026 0
M  V30 8588 H 794.199 0.169557 -0.932713 0
M  V30 8589 H 793.905 1.20209 -3.30519 0
M  V30 8590 H 793.779 2.78049 -2.5489 0
M  V30 8591 H 796.166 2.4765 -1.60478 0
M  V30 8592 H 796.247 0.89591 -2.39598 0
M  V30 8593 H 795.891 2.03304 -4.65435 0
M  V30 8594 H 795.821 3.61189 -3.8321 0
M  V30 8595 H 798.312 2.28346 -3.01108 0
M  V30 8596 H 798.625 4.15612 -6.51526 0
M  V30 8597 H 796.97 3.74357 -5.85561 0
M  V30 8598 H 800.161 2.76091 -3.7801 0
M  V30 8599 H 800.334 3.61504 -5.37791 0
M  V30 8600 N 793.74 1.17359 1.05189 0
M  V30 8601 C 794.673 0.833768 2.12423 0
M  V30 8602 C 795.651 -0.19945 1.61372 0
M  V30 8603 O 796.835 -0.080979 1.88326 0
M  V30 8604 C 793.962 0.243745 3.37822 0
M  V30 8605 C 793.008 1.25235 4.07699 0
M  V30 8606 S 793.841 2.80368 4.56239 0
M  V30 8607 C 794.997 2.22846 5.84885 0
M  V30 8608 H 795.23 1.74197 2.40921 0
M  V30 8609 H 792.763 0.998242 1.1779 0
M  V30 8610 H 794.721 -0.0901915 4.10401 0
M  V30 8611 H 793.382 -0.642396 3.07461 0
M  V30 8612 H 792.575 0.788168 4.97799 0
M  V30 8613 H 792.177 1.53194 3.41185 0
M  V30 8614 H 794.469 1.60403 6.58238 0
M  V30 8615 H 795.412 3.112 6.3605 0
M  V30 8616 H 795.82 1.66296 5.39449 0
M  V30 8617 N 795.218 -1.23913 0.973828 0
M  V30 8618 C 796.629 -1.73992 0.677021 0
M  V30 8619 C 796.98 -1.78833 -0.807036 0
M  V30 8620 O 796.105 -1.42183 -1.63135 0
M  V30 8621 C 796.7 -3.15985 1.22226 0
M  V30 8622 C 795.259 -3.63547 0.975228 0
M  V30 8623 C 794.406 -2.42001 1.35392 0
M  V30 8624 H 797.357 -1.09529 1.14844 0
M  V30 8625 H 797.378 -3.75875 0.591489 0
M  V30 8626 H 796.89 -3.12429 2.30238 0
M  V30 8627 H 794.991 -3.72493 -0.0891047 0
M  V30 8628 H 795.104 -4.50693 1.62518 0
M  V30 8629 H 793.468 -2.42708 0.772334 0
M  V30 8630 H 794.251 -2.41122 2.44367 0
M  V30 8631 N 796.696 -0.74468 -1.38897 0
M  V30 8632 C 797.942 -0.306249 -2.01081 0
M  V30 8633 C 798.297 1.09724 -1.58046 0
M  V30 8634 O 797.59 1.73923 -0.803834 0
M  V30 8635 C 797.784 -0.357302 -3.55609 0
M  V30 8636 C 797.613 -1.76421 -4.13649 0
M  V30 8637 C 796.383 -2.3787 -4.4581 0
M  V30 8638 C 798.581 -2.71942 -4.36523 0
M  V30 8639 N 796.563 -3.70614 -4.89406 0
M  V30 8640 C 797.934 -3.89437 -4.8243 0
M  V30 8641 C 799.989 -2.69579 -4.18607 0
M  V30 8642 C 798.692 -5.04917 -5.123 0
M  V30 8643 C 800.718 -3.8421 -4.49596 0
M  V30 8644 C 800.08 -5.00442 -4.95719 0
M  V30 8645 H 796.179 -0.158531 -0.765762 0
M  V30 8646 H 798.763 -0.972726 -1.6866 0
M  V30 8647 H 796.934 0.278865 -3.87398 0
M  V30 8648 H 798.666 0.100599 -4.04575 0
M  V30 8649 H 795.421 -1.8971 -4.33943 0
M  V30 8650 H 795.845 -4.38791 -5.1555 0
M  V30 8651 H 800.487 -1.80905 -3.82143 0
M  V30 8652 H 798.205 -5.94213 -5.47665 0
M  V30 8653 H 801.791 -3.83691 -4.37347 0
M  V30 8654 H 800.671 -5.87671 -5.19242 0
M  V30 8655 N 798.174 1.49689 -0.493057 0
M  V30 8656 C 799.59 1.58907 -0.148526 0
M  V30 8657 C 799.79 1.4991 1.34645 0
M  V30 8658 O 798.846 1.36893 2.12171 0
M  V30 8659 C 800.159 2.91996 -0.718265 0
M  V30 8660 C 801.707 3.05443 -0.683658 0
M  V30 8661 C 802.182 4.41138 -1.23132 0
M  V30 8662 N 803.673 4.47608 -1.19167 0
M  V30 8663 C 804.408 5.51038 -1.5857 0
M  V30 8664 N 803.904 6.61612 -2.05528 0
M  V30 8665 N 805.697 5.41706 -1.50036 0
M  V30 8666 H 797.848 1.5378 -1.46511 0
M  V30 8667 H 800.111 0.727996 -0.607228 0
M  V30 8668 H 799.817 3.04123 -1.7664 0
M  V30 8669 H 799.691 3.76798 -0.17419 0
M  V30 8670 H 802.078 2.92949 0.355626 0
M  V30 8671 H 802.159 2.22344 -1.26479 0
M  V30 8672 H 801.803 4.54382 -2.26935 0
M  V30 8673 H 801.733 5.22864 -0.626201 0
M  V30 8674 H 804.224 3.68274 -0.847524 0
M  V30 8675 H 804.537 7.36622 -2.33685 0
M  V30 8676 H 802.882 6.62674 -2.09497 0
M  V30 8677 H 806.073 4.54212 -1.13176 0
M  V30 8678 H 806.246 6.22188 -1.81068 0
M  V30 8679 N 799.652 0.226554 1.55963 0
M  V30 8680 C 800.929 -0.453058 1.90281 0
M  V30 8681 C 801.309 -1.77377 1.14458 0
M  V30 8682 O 800.657 -2.27067 0.255496 0
M  V30 8683 C 800.867 -0.641108 3.43061 0
M  V30 8684 C 802.215 -0.946265 4.13921 0
M  V30 8685 O 803.239 -0.727713 3.48687 0
M  V30 8686 O 802.098 -1.36131 5.29274 0
M  V30 8687 H 799.192 -0.240242 0.791336 0
M  V30 8688 H 801.738 0.26911 1.67553 0
M  V30 8689 H 800.51 0.290283 3.90222 0
M  V30 8690 H 800.133 -1.41458 3.71585 0
M  V30 8691 N 801.13 -1.57531 -0.0467866 0
M  V30 8692 C 802.376 -1.8873 -0.742218 0
M  V30 8693 C 802.709 -0.822084 -1.75941 0
M  V30 8694 O 801.984 0.164922 -1.938 0
M  V30 8695 C 802.267 -3.30586 -1.42776 0
M  V30 8696 C 802.12 -4.47785 -0.425285 0
M  V30 8697 C 803.439 -3.71068 -2.36636 0
M  V30 8698 H 800.558 -0.686406 -0.268359 0
M  V30 8699 H 803.2 -1.89999 -0.00511341 0
M  V30 8700 H 801.35 -3.29634 -2.05605 0
M  V30 8701 H 803.022 -4.60867 0.199721 0
M  V30 8702 H 801.265 -4.33037 0.25713 0
M  V30 8703 H 801.936 -5.43884 -0.943086 0
M  V30 8704 H 804.412 -3.73273 -1.83866 0
M  V30 8705 H 803.288 -4.71165 -2.81593 0
M  V30 8706 H 803.549 -3.02355 -3.22542 0
M  V30 8707 N 802.608 0.318715 -1.54344 0
M  V30 8708 C 803.856 1.054 -1.72439 0
M  V30 8709 C 804.177 1.88388 -0.503495 0
M  V30 8710 O 803.447 1.89866 0.48246 0
M  V30 8711 H 802.027 0.392124 -0.635805 0
M  V30 8712 H 804.689 0.35398 -1.91659 0
M  V30 8713 H 803.785 1.71726 -2.60608 0
M  V30 8714 N 804.086 1.46499 0.581025 0
M  V30 8715 C 805.332 1.52121 1.34116 0
M  V30 8716 C 805.665 0.173031 1.93428 0
M  V30 8717 O 804.94 -0.815729 1.76568 0
M  V30 8718 C 805.223 2.62108 2.46924 0
M  V30 8719 C 805.076 4.06462 1.92636 0
M  V30 8720 C 806.395 2.68167 3.48962 0
M  V30 8721 H 803.514 0.5538 0.486287 0
M  V30 8722 H 806.156 1.78443 0.652538 0
M  V30 8723 H 804.306 2.39794 3.05665 0
M  V30 8724 H 805.978 4.40068 1.3834 0
M  V30 8725 H 804.221 4.15862 1.23455 0
M  V30 8726 H 804.892 4.79152 2.74076 0
M  V30 8727 H 807.368 2.8823 3.00104 0
M  V30 8728 H 806.244 3.46942 4.2535 0
M  V30 8729 H 806.505 1.74284 4.06297 0
M  V30 8730 N 805.565 -0.825799 1.34232 0
M  V30 8731 C 806.811 -1.58419 1.26614 0
M  V30 8732 C 807.144 -1.93503 -0.164341 0
M  V30 8733 O 806.419 -1.59785 -1.109 0
M  V30 8734 C 806.702 -2.8856 2.15418 0
M  V30 8735 C 806.555 -2.60075 3.66989 0
M  V30 8736 C 807.874 -3.90107 2.03726 0
M  V30 8737 H 804.993 -0.574794 0.461282 0
M  V30 8738 H 807.635 -0.951519 1.64457 0
M  V30 8739 H 805.785 -3.42553 1.83275 0
M  V30 8740 H 807.457 -2.12414 4.09485 0
M  V30 8741 H 805.7 -1.93565 3.88221 0
M  V30 8742 H 806.371 -3.52866 4.24488 0
M  V30 8743 H 808.847 -3.45459 2.31942 0
M  V30 8744 H 807.723 -4.78976 2.68092 0
M  V30 8745 H 807.984 -4.30329 1.01337 0
M  V30 8746 N 807.043 -1.17915 -1.04565 0
M  V30 8747 C 808.289 -0.972863 -1.77942 0
M  V30 8748 C 808.622 0.496753 -1.87739 0
M  V30 8749 O 807.897 1.3688 -1.38181 0
M  V30 8750 C 808.18 -1.62227 -3.21488 0
M  V30 8751 C 808.033 -3.16441 -3.19664 0
M  V30 8752 C 809.352 -1.33137 -4.19479 0
M  V30 8753 H 806.471 -0.354843 -0.645953 0
M  V30 8754 H 809.113 -1.45508 -1.22178 0
M  V30 8755 H 807.263 -1.21224 -3.69103 0
M  V30 8756 H 808.935 -3.66544 -2.80077 0
M  V30 8757 H 807.178 -3.48863 -2.57832 0
M  V30 8758 H 807.849 -3.57012 -4.21006 0
M  V30 8759 H 810.325 -1.68654 -3.80388 0
M  V30 8760 H 809.201 -1.81151 -5.18146 0
M  V30 8761 H 809.462 -0.253319 -4.41374 0
M  V30 8762 N 808.521 1.23394 -0.980386 0
M  V30 8763 C 809.471 2.22634 -0.491747 0
M  V30 8764 C 810.455 1.54958 0.433222 0
M  V30 8765 O 811.647 1.75049 0.262078 0
M  V30 8766 C 808.776 3.4269 0.204531 0
M  V30 8767 C 807.862 4.17594 -0.740007 0
M  V30 8768 N 808.253 4.69458 -1.88263 0
M  V30 8769 C 806.551 4.42554 -0.553335 0
M  V30 8770 C 807.252 5.26446 -2.47446 0
M  V30 8771 N 806.228 5.14377 -1.75834 0
M  V30 8772 H 810.03 2.60363 -1.36339 0
M  V30 8773 H 807.544 1.38924 -0.841059 0
M  V30 8774 H 809.541 4.12959 0.571901 0
M  V30 8775 H 808.201 3.06477 1.07246 0
M  V30 8776 H 809.212 4.65803 -2.26381 0
M  V30 8777 H 805.889 4.16629 0.269573 0
M  V30 8778 H 807.279 5.77195 -3.43941 0
M  V30 8779 N 809.999 0.752036 1.385 0
M  V30 8780 C 811.247 0.306895 1.99756 0
M  V30 8781 C 811.568 -1.11478 1.59992 0
M  V30 8782 O 810.838 -1.76206 0.856045 0
M  V30 8783 H 809.418 0.11048 0.738785 0
M  V30 8784 H 812.08 0.965785 1.69289 0
M  V30 8785 H 811.176 0.368797 3.09913 0
M  V30 8786 N 811.477 -1.49425 0.500989 0
M  V30 8787 C 812.407 -2.31971 -0.266775 0
M  V30 8788 C 813.388 -1.40245 -0.962563 0
M  V30 8789 O 814.573 -1.69154 -0.953968 0
M  V30 8790 C 811.703 -3.20757 -1.33163 0
M  V30 8791 C 810.657 -4.21275 -0.75572 0
M  V30 8792 C 809.983 -4.98997 -1.92109 0
M  V30 8793 C 811.283 -5.21686 0.253213 0
M  V30 8794 H 812.977 -2.96408 0.422237 0
M  V30 8795 H 810.523 -1.4254 0.204505 0
M  V30 8796 H 812.476 -3.77315 -1.87646 0
M  V30 8797 H 811.2 -2.54263 -2.04983 0
M  V30 8798 H 809.859 -3.65861 -0.232637 0
M  V30 8799 H 809.507 -4.28951 -2.62698 0
M  V30 8800 H 809.207 -5.67011 -1.54182 0
M  V30 8801 H 810.731 -5.584 -2.47026 0
M  V30 8802 H 812.145 -5.72939 -0.203483 0
M  V30 8803 H 810.542 -5.9759 0.548322 0
M  V30 8804 H 811.612 -4.70596 1.16909 0
M  V30 8805 N 812.955 -0.234822 -1.55841 0
M  V30 8806 C 814.366 0.270588 -1.84729 0
M  V30 8807 C 814.717 1.58494 -1.15646 0
M  V30 8808 O 813.842 2.12071 -0.430667 0
M  V30 8809 C 814.437 0.497733 -3.35124 0
M  V30 8810 C 812.996 0.947428 -3.64281 0
M  V30 8811 C 812.143 0.01787 -2.77294 0
M  V30 8812 H 815.094 -0.457691 -1.51957 0
M  V30 8813 H 815.115 1.34199 -3.56049 0
M  V30 8814 H 814.627 -0.459037 -3.85376 0
M  V30 8815 H 812.728 1.91709 -3.19497 0
M  V30 8816 H 812.841 0.812651 -4.72158 0
M  V30 8817 H 811.205 0.527071 -2.49187 0
M  V30 8818 H 811.988 -0.934056 -3.30349 0
M  V30 8819 N 814.433 1.57553 0.0384317 0
M  V30 8820 C 815.396 2.04927 1.02653 0
M  V30 8821 C 816.396 0.951768 1.29607 0
M  V30 8822 O 817.586 1.21568 1.24768 0
M  V30 8823 C 814.718 2.45828 2.36181 0
M  V30 8824 H 815.911 2.93474 0.617508 0
M  V30 8825 H 813.464 1.53679 0.285031 0
M  V30 8826 H 814.199 1.60408 2.8185 0
M  V30 8827 H 813.984 3.25945 2.1795 0
M  V30 8828 H 815.474 2.82939 3.0714 0
M  V30 8829 N 815.911 -0.310526 1.54511 0
M  V30 8830 C 817.327 -0.655637 1.45511 0
M  V30 8831 C 817.527 -1.91114 0.638564 0
M  V30 8832 O 816.583 -2.52098 0.142497 0
M  V30 8833 C 817.896 -0.817501 2.89374 0
M  V30 8834 C 819.444 -0.914003 2.99358 0
M  V30 8835 C 819.919 -1.10794 4.44397 0
M  V30 8836 N 821.41 -1.17437 4.48066 0
M  V30 8837 C 822.145 -1.34255 5.57461 0
M  V30 8838 N 821.641 -1.48032 6.768 0
M  V30 8839 N 823.434 -1.37067 5.45132 0
M  V30 8840 H 815.585 0.514506 2.06074 0
M  V30 8841 H 817.848 0.168478 0.932909 0
M  V30 8842 H 817.554 0.034003 3.51684 0
M  V30 8843 H 817.428 -1.7094 3.36243 0
M  V30 8844 H 819.815 -1.756 2.37168 0
M  V30 8845 H 819.896 0.00170958 2.558 0
M  V30 8846 H 819.54 -0.270743 5.07178 0
M  V30 8847 H 819.47 -2.03773 4.85576 0
M  V30 8848 H 821.961 -1.08181 3.62084 0
M  V30 8849 H 822.274 -1.60593 7.5593 0
M  V30 8850 H 820.619 -1.45105 6.79683 0
M  V30 8851 H 823.81 -1.25909 4.50849 0
M  V30 8852 H 823.983 -1.49831 6.3044 0
M  V30 8853 N 817.389 -1.46805 -0.573248 0
M  V30 8854 C 818.666 -1.43082 -1.33368 0
M  V30 8855 C 819.046 -0.119252 -2.10763 0
M  V30 8856 O 818.394 0.899239 -2.10062 0
M  V30 8857 C 818.604 -2.66643 -2.25172 0
M  V30 8858 C 819.952 -3.13188 -2.86702 0
M  V30 8859 O 820.976 -2.67258 -2.35482 0
M  V30 8860 O 819.835 -3.92994 -3.79761 0
M  V30 8861 H 816.929 -0.569451 -0.599712 0
M  V30 8862 H 819.475 -1.58984 -0.59348 0
M  V30 8863 H 818.247 -3.53649 -1.67475 0
M  V30 8864 H 817.87 -2.53247 -3.06516 0
M  V30 8865 N 818.867 0.818669 -1.34668 0
M  V30 8866 C 819.797 1.94468 -1.29245 0
M  V30 8867 C 820.778 1.69257 -0.169101 0
M  V30 8868 O 821.963 1.90794 -0.362143 0
M  V30 8869 C 819.093 3.31001 -1.05145 0
M  V30 8870 C 818.047 3.70663 -2.13992 0
M  V30 8871 C 817.373 5.05226 -1.75074 0
M  V30 8872 C 818.673 3.82312 -3.55858 0
M  V30 8873 H 820.367 1.99263 -2.2346 0
M  V30 8874 H 817.913 0.957304 -1.07572 0
M  V30 8875 H 819.866 4.09364 -0.999949 0
M  V30 8876 H 818.59 3.26517 -0.0737312 0
M  V30 8877 H 817.249 2.94578 -2.18219 0
M  V30 8878 H 816.897 4.97233 -0.759518 0
M  V30 8879 H 816.597 5.32734 -2.47928 0
M  V30 8880 H 818.121 5.86042 -1.71427 0
M  V30 8881 H 819.535 4.50935 -3.5402 0
M  V30 8882 H 817.932 4.21278 -4.2737 0
M  V30 8883 H 819.002 2.84193 -3.9289 0
M  V30 8884 N 820.346 1.18468 1.03938 0
M  V30 8885 C 821.309 0.914944 2.10146 0
M  V30 8886 C 822.309 -0.10022 1.60487 0
M  V30 8887 O 823.499 0.133365 1.73689 0
M  V30 8888 C 820.631 0.372993 3.38853 0
M  V30 8889 H 821.824 1.85677 2.35508 0
M  V30 8890 H 819.377 0.996876 1.20383 0
M  V30 8891 H 820.112 -0.57538 3.19155 0
M  V30 8892 H 819.897 1.1048 3.76213 0
M  V30 8893 H 821.387 0.203014 4.17106 0
M  V30 8894 N 821.824 -1.22873 0.986916 0
M  V30 8895 C 823.24 -1.43594 0.696633 0
M  V30 8896 C 823.44 -1.87622 -0.734869 0
M  V30 8897 O 822.496 -2.02633 -1.50652 0
M  V30 8898 C 823.809 -2.48231 1.69711 0
M  V30 8899 C 825.357 -2.62037 1.71188 0
M  V30 8900 C 825.832 -3.6989 2.70084 0
M  V30 8901 N 827.323 -3.77341 2.68641 0
M  V30 8902 C 828.058 -4.6037 3.41829 0
M  V30 8903 N 827.554 -5.47438 4.24598 0
M  V30 8904 N 829.347 -4.54626 3.30563 0
M  V30 8905 H 821.498 -0.925982 1.91153 0
M  V30 8906 H 823.761 -0.46866 0.824052 0
M  V30 8907 H 823.467 -2.22812 2.72117 0
M  V30 8908 H 823.341 -3.46731 1.48516 0
M  V30 8909 H 825.728 -2.86803 0.694837 0
M  V30 8910 H 825.809 -1.63831 1.96451 0
M  V30 8911 H 825.453 -3.45872 3.71934 0
M  V30 8912 H 825.383 -4.67652 2.42093 0
M  V30 8913 H 827.874 -3.15124 2.08578 0
M  V30 8914 H 828.187 -6.078 4.77283 0
M  V30 8915 H 826.532 -5.4704 4.28687 0
M  V30 8916 H 829.723 -3.85627 2.65347 0
M  V30 8917 H 829.896 -5.19103 3.8786 0
M  V30 8918 N 823.302 -0.75937 -1.38099 0
M  V30 8919 C 824.252 -0.111098 -2.27729 0
M  V30 8920 C 825.236 0.687161 -1.45489 0
M  V30 8921 O 826.428 0.552167 -1.68167 0
M  V30 8922 C 823.557 0.776809 -3.34396 0
M  V30 8923 C 822.643 -0.0286108 -4.2409 0
M  V30 8924 N 823.034 -1.06797 -4.94397 0
M  V30 8925 C 821.332 0.197307 -4.45563 0
M  V30 8926 C 822.033 -1.55576 -5.6051 0
M  V30 8927 N 821.009 -0.870059 -5.36592 0
M  V30 8928 H 824.811 -0.907047 -2.79553 0
M  V30 8929 H 822.325 -0.595954 -1.5107 0
M  V30 8930 H 824.322 1.25691 -3.97502 0
M  V30 8931 H 822.982 1.57164 -2.84129 0
M  V30 8932 H 823.993 -1.44988 -4.97191 0
M  V30 8933 H 820.67 0.965028 -4.06194 0
M  V30 8934 H 822.06 -2.42184 -6.26735 0
M  V30 8935 N 824.78 1.49157 -0.508906 0
M  V30 8936 C 826.027 2.02473 0.0327983 0
M  V30 8937 C 826.355 1.38792 1.36261 0
M  V30 8938 O 825.61 0.515576 1.88786 0
M  V30 8939 C 825.909 3.56687 0.225717 0
M  V30 8940 C 825.575 4.39046 -1.02708 0
M  V30 8941 C 824.237 4.61271 -1.37048 0
M  V30 8942 C 826.589 4.86902 -1.85946 0
M  V30 8943 C 823.917 5.28598 -2.54562 0
M  V30 8944 C 826.269 5.55521 -3.0262 0
M  V30 8945 C 824.933 5.7599 -3.3733 0
M  V30 8946 H 824.203 0.740903 0.0120017 0
M  V30 8947 H 826.85 1.79372 -0.670665 0
M  V30 8948 H 825.155 3.78511 1.01177 0
M  V30 8949 H 826.852 3.95541 0.659433 0
M  V30 8950 H 823.442 4.21994 -0.749615 0
M  V30 8951 H 827.626 4.69553 -1.6073 0
M  V30 8952 H 822.882 5.42646 -2.81682 0
M  V30 8953 H 827.056 5.91576 -3.67438 0
M  V30 8954 H 824.683 6.27934 -4.2849 0
M  V30 8955 N 826.258 0.243083 1.55714 0
M  V30 8956 C 827.507 -0.383188 1.98027 0
M  V30 8957 C 827.82 -1.59347 1.13436 0
M  V30 8958 O 829.026 -2.29065 1.45745 0
M  V30 8959 C 827.482 -0.733135 3.52354 0
M  V30 8960 C 827.09 0.455539 4.45678 0
M  V30 8961 C 828.834 -1.32381 4.03331 0
M  V30 8962 C 826.741 0.0819591 5.91343 0
M  V30 8963 H 825.671 -0.146944 0.739543 0
M  V30 8964 H 828.322 0.342697 1.80272 0
M  V30 8965 H 826.704 -1.51704 3.65789 0
M  V30 8966 H 827.878 1.23291 4.44 0
M  V30 8967 H 826.193 0.960886 4.05162 0
M  V30 8968 H 828.79 -1.61658 5.09677 0
M  V30 8969 H 829.133 -2.24698 3.50452 0
M  V30 8970 H 829.666 -0.602885 3.93205 0
M  V30 8971 H 826.405 0.972171 6.48251 0
M  V30 8972 H 825.925 -0.659291 5.96166 0
M  V30 8973 H 827.604 -0.3372 6.46121 0
M  V30 8974 N 827.736 -1.57571 -0.0300757 0
M  V30 8975 C 828.668 -2.0329 -1.05857 0
M  V30 8976 C 829.681 -0.945543 -1.32527 0
M  V30 8977 O 830.87 -1.22287 -1.30032 0
M  V30 8978 C 827.97 -2.39234 -2.40042 0
M  V30 8979 C 827.143 -3.70337 -2.32743 0
M  V30 8980 C 826.202 -3.93482 -3.49369 0
M  V30 8981 O 825.228 -4.64551 -3.28909 0
M  V30 8982 N 826.43 -3.39042 -4.71201 0
M  V30 8983 H 829.195 -2.9214 -0.668897 0
M  V30 8984 H 826.756 -1.60425 -0.218038 0
M  V30 8985 H 828.748 -2.51856 -3.16782 0
M  V30 8986 H 827.318 -1.5606 -2.70858 0
M  V30 8987 H 826.538 -3.68079 -1.41109 0
M  V30 8988 H 827.826 -4.56343 -2.25007 0
M  V30 8989 H 827.224 -2.81434 -4.90725 0
M  V30 8990 H 825.781 -3.57045 -5.45309 0
M  V30 8991 N 829.214 0.302327 -1.54673 0
M  V30 8992 C 830.63 0.647911 -1.45857 0
M  V30 8993 C 830.83 1.90773 -0.64869 0
M  V30 8994 O 829.886 2.52018 -0.155865 0
M  V30 8995 C 831.199 0.802144 -2.89804 0
M  V30 8996 C 832.747 0.898114 -2.99838 0
M  V30 8997 C 833.222 1.08436 -4.44978 0
M  V30 8998 N 834.713 1.15059 -4.48682 0
M  V30 8999 C 835.448 1.31296 -5.58166 0
M  V30 9000 N 834.944 1.4444 -6.77576 0
M  V30 9001 N 836.737 1.34174 -5.45851 0
M  V30 9002 H 828.888 -0.525428 -2.05798 0
M  V30 9003 H 831.151 -0.173423 -0.932002 0
M  V30 9004 H 830.857 -0.0526531 -3.51661 0
M  V30 9005 H 830.731 1.69155 -3.37145 0
M  V30 9006 H 833.118 1.7434 -2.38096 0
M  V30 9007 H 833.199 -0.0152752 -2.55795 0
M  V30 9008 H 832.843 0.243843 -5.07314 0
M  V30 9009 H 832.773 2.01195 -4.8665 0
M  V30 9010 H 835.264 1.0626 -3.62653 0
M  V30 9011 H 835.577 1.56582 -7.56771 0
M  V30 9012 H 833.922 1.41499 -6.80443 0
M  V30 9013 H 837.113 1.23516 -4.5151 0
M  V30 9014 H 837.286 1.46485 -6.31226 0
M  V30 9015 N 830.692 1.47107 0.565454 0
M  V30 9016 C 831.938 1.54519 1.3227 0
M  V30 9017 C 832.293 0.201313 1.91344 0
M  V30 9018 O 831.586 -0.792058 1.74462 0
M  V30 9019 C 831.78 2.59309 2.45954 0
M  V30 9020 C 831.609 4.03756 1.98019 0
M  V30 9021 C 830.379 4.71293 1.8224 0
M  V30 9022 C 832.577 4.91029 1.52955 0
M  V30 9023 N 830.559 6.00288 1.28557 0
M  V30 9024 C 831.93 6.09986 1.10981 0
M  V30 9025 C 833.985 4.77539 1.4093 0
M  V30 9026 C 832.688 7.16943 0.581796 0
M  V30 9027 C 834.714 5.84584 0.895307 0
M  V30 9028 C 834.076 7.02725 0.485454 0
M  V30 9029 H 830.175 0.620177 0.476345 0
M  V30 9030 H 832.759 1.83814 0.641901 0
M  V30 9031 H 830.93 2.31896 3.11575 0
M  V30 9032 H 832.662 2.56614 3.1294 0
M  V30 9033 H 829.417 4.27074 2.04707 0
M  V30 9034 H 829.841 6.68991 1.03828 0
M  V30 9035 H 834.483 3.86574 1.71231 0
M  V30 9036 H 832.201 8.07661 0.266399 0
M  V30 9037 H 835.787 5.76191 0.805939 0
M  V30 9038 H 834.667 7.84144 0.0938828 0
M  V30 9039 N 832.17 -0.811516 1.35101 0
M  V30 9040 C 833.118 -1.94449 1.27642 0
M  V30 9041 C 834.112 -1.68522 0.172287 0
M  V30 9042 O 835.318 -1.76799 0.337967 0
M  V30 9043 H 831.693 -0.638776 0.396824 0
M  V30 9044 H 833.664 -1.97861 2.23369 0
M  V30 9045 C 832.413 -3.31139 1.06029 0
M  V30 9046 H 831.736 -3.51644 1.90227 0
M  V30 9047 H 833.176 -4.10831 1.0485 0
M  V30 9048 C 831.635 -3.36072 -0.236039 0
M  V30 9049 O 832.165 -3.82292 -1.23353 0
M  V30 9050 N 830.371 -2.89314 -0.273107 0
M  V30 9051 H 829.918 -2.51893 0.539211 0
M  V30 9052 H 829.876 -2.92996 -1.1402 0
M  V30 9053 N 833.648 -1.19017 -1.03309 0
M  V30 9054 C 834.895 -0.990214 -1.76638 0
M  V30 9055 C 835.223 0.479435 -1.88498 0
M  V30 9056 O 834.478 1.37223 -1.39529 0
M  V30 9057 C 834.777 -1.59927 -3.19622 0
M  V30 9058 C 834.443 -3.09632 -3.27779 0
M  V30 9059 C 833.105 -3.50491 -3.29712 0
M  V30 9060 C 835.457 -4.05644 -3.27264 0
M  V30 9061 C 832.785 -4.85921 -3.28782 0
M  V30 9062 C 835.137 -5.41 -3.27875 0
M  V30 9063 C 833.801 -5.81295 -3.28104 0
M  V30 9064 H 833.071 -0.362345 -0.646364 0
M  V30 9065 H 835.718 -1.48197 -1.21284 0
M  V30 9066 H 834.023 -1.0297 -3.78027 0
M  V30 9067 H 835.72 -1.41989 -3.7502 0
M  V30 9068 H 832.31 -2.77073 -3.26999 0
M  V30 9069 H 836.494 -3.75124 -3.24955 0
M  V30 9070 H 831.75 -5.16427 -3.27281 0
M  V30 9071 H 835.924 -6.15157 -3.26428 0
M  V30 9072 H 833.551 -6.86211 -3.27138 0
M  V30 9073 N 835.127 1.22348 -0.993418 0
M  V30 9074 C 836.355 1.95125 -0.688021 0
M  V30 9075 C 836.77 1.73377 0.747388 0
M  V30 9076 O 836.127 1.03317 1.50439 0
M  V30 9077 C 836.178 3.47819 -0.985097 0
M  V30 9078 O 835.899 3.68838 -2.3641 0
M  V30 9079 C 837.4 4.37779 -0.697474 0
M  V30 9080 H 834.62 0.62087 -0.254481 0
M  V30 9081 H 837.164 1.55485 -1.32833 0
M  V30 9082 H 835.319 3.85426 -0.390583 0
M  V30 9083 H 835.733 4.63032 -2.46377 0
M  V30 9084 H 837.207 5.43666 -0.955604 0
M  V30 9085 H 837.684 4.37651 0.368524 0
M  V30 9086 H 838.29 4.05799 -1.27306 0
M  V30 9087 N 836.605 0.766683 1.37694 0
M  V30 9088 C 837.552 0.147725 2.30327 0
M  V30 9089 C 838.522 -0.695366 1.50844 0
M  V30 9090 O 839.707 -0.64878 1.79431 0
M  V30 9091 C 836.847 -0.72935 3.37305 0
M  V30 9092 C 835.96 0.129795 4.31805 0
M  V30 9093 C 835.095 -0.751511 5.25857 0
M  V30 9094 C 834.134 0.110475 6.12 0
M  V30 9095 N 833.271 -0.728522 6.9831 0
M  V30 9096 H 838.111 0.943204 2.82679 0
M  V30 9097 H 835.648 0.476736 1.3916 0
M  V30 9098 H 837.606 -1.25263 3.97951 0
M  V30 9099 H 836.236 -1.49048 2.86329 0
M  V30 9100 H 835.288 0.770829 3.72508 0
M  V30 9101 H 836.6 0.794923 4.92425 0
M  V30 9102 H 835.754 -1.34146 5.91684 0
M  V30 9103 H 834.493 -1.45034 4.65636 0
M  V30 9104 H 833.498 0.712999 5.45157 0
M  V30 9105 H 834.723 0.806557 6.74293 0
M  V30 9106 H 832.669 -1.41206 6.40622 0
M  V30 9107 H 832.586 -0.12058 7.55904 0
M  V30 9108 H 833.854 -1.30303 7.68532 0
M  V30 9109 N 838.083 -1.48885 0.516809 0
M  V30 9110 C 839.311 -2.06892 -0.0184017 0
M  V30 9111 C 839.726 -1.37511 -1.29368 0
M  V30 9112 O 839.083 -0.458409 -1.76649 0
M  V30 9113 C 839.134 -3.60566 -0.259673 0
M  V30 9114 O 838.855 -4.27338 0.965065 0
M  V30 9115 C 840.356 -4.35331 -0.836751 0
M  V30 9116 H 837.576 -0.670433 0.0275743 0
M  V30 9117 H 840.12 -1.91455 0.718689 0
M  V30 9118 H 838.275 -3.75653 -0.94678 0
M  V30 9119 H 838.689 -5.19287 0.737647 0
M  V30 9120 H 840.163 -5.43675 -0.955065 0
M  V30 9121 H 840.64 -3.9887 -1.83845 0
M  V30 9122 H 841.246 -4.2489 -0.186622 0
M  V30 9123 N 839.561 -0.251338 -1.55583 0
M  V30 9124 C 840.789 0.376187 -2.03451 0
M  V30 9125 C 841.204 1.51215 -1.13047 0
M  V30 9126 O 840.561 1.81917 -0.145769 0
M  V30 9127 C 840.612 0.879779 -3.50631 0
M  V30 9128 O 840.333 -0.210917 -4.37592 0
M  V30 9129 C 841.834 1.57754 -4.14281 0
M  V30 9130 H 839.054 0.0888722 -0.665089 0
M  V30 9131 H 841.598 -0.376497 -2.01004 0
M  V30 9132 H 839.753 1.58263 -3.53598 0
M  V30 9133 H 840.167 0.172203 -5.24217 0
M  V30 9134 H 841.641 1.88158 -5.18942 0
M  V30 9135 H 842.118 2.50103 -3.61034 0
M  V30 9136 H 842.724 0.919154 -4.15249 0
M  V30 9137 N 841.039 1.57585 0.0217189 0
M  V30 9138 C 841.986 2.07036 1.02004 0
M  V30 9139 C 842.956 0.96106 1.35473 0
M  V30 9140 O 844.141 1.23211 1.45684 0
M  V30 9141 C 841.281 2.56056 2.31364 0
M  V30 9142 C 840.394 3.80805 2.03989 0
M  V30 9143 C 839.529 4.18409 3.27272 0
M  V30 9144 C 838.568 5.36055 2.95486 0
M  V30 9145 N 837.705 5.69056 4.11242 0
M  V30 9146 H 842.545 2.92073 0.591396 0
M  V30 9147 H 840.082 1.44403 0.280384 0
M  V30 9148 H 842.04 2.82548 3.06957 0
M  V30 9149 H 840.67 1.73925 2.71937 0
M  V30 9150 H 839.722 3.61354 1.1886 0
M  V30 9151 H 841.034 4.66512 1.76546 0
M  V30 9152 H 840.188 4.46068 4.11228 0
M  V30 9153 H 838.927 3.31369 3.57835 0
M  V30 9154 H 837.932 5.08142 2.09933 0
M  V30 9155 H 839.157 6.24755 2.66193 0
M  V30 9156 H 837.103 4.84974 4.41742 0
M  V30 9157 H 837.02 6.49288 3.87247 0
M  V30 9158 H 838.288 6.01295 4.96049 0
M  V30 9159 N 842.517 -0.29412 1.54831 0
M  V30 9160 C 843.48 -1.3461 1.85507 0
M  V30 9161 C 844.48 -1.43359 0.728343 0
M  V30 9162 O 845.67 -1.42875 0.996609 0
M  V30 9163 C 842.802 -2.73012 2.0415 0
M  V30 9164 H 843.995 -1.08651 2.79526 0
M  V30 9165 H 841.548 -0.531138 1.46999 0
M  V30 9166 H 842.283 -3.04183 1.12441 0
M  V30 9167 H 842.068 -2.68051 2.86166 0
M  V30 9168 H 843.558 -3.49061 2.29229 0
M  V30 9169 N 843.995 -1.47404 -0.557645 0
M  V30 9170 C 844.942 -1.59859 -1.66475 0
M  V30 9171 C 845.912 -0.441644 -1.60121 0
M  V30 9172 O 847.097 -0.661641 -1.78961 0
M  V30 9173 C 844.237 -1.61843 -3.04797 0
M  V30 9174 C 843.35 -2.8845 -3.2159 0
M  V30 9175 C 842.485 -2.81773 -4.50308 0
M  V30 9176 C 841.524 -4.03208 -4.60532 0
M  V30 9177 N 840.661 -3.94769 -5.80604 0
M  V30 9178 H 845.501 -2.54415 -1.55168 0
M  V30 9179 H 843.038 -1.26194 -0.755876 0
M  V30 9180 H 844.996 -1.60976 -3.84893 0
M  V30 9181 H 843.626 -0.707997 -3.1494 0
M  V30 9182 H 842.678 -2.99186 -2.34929 0
M  V30 9183 H 843.99 -3.78379 -3.25009 0
M  V30 9184 H 843.144 -2.79153 -5.38663 0
M  V30 9185 H 841.883 -1.89527 -4.49367 0
M  V30 9186 H 840.888 -4.06133 -3.70589 0
M  V30 9187 H 842.113 -4.9658 -4.63233 0
M  V30 9188 H 840.059 -3.05326 -5.80613 0
M  V30 9189 H 839.976 -4.78375 -5.854 0
M  V30 9190 H 841.244 -3.96165 -6.71322 0
M  V30 9191 N 845.473 0.80434 -1.35529 0
M  V30 9192 C 846.703 1.59052 -1.31856 0
M  V30 9193 C 847.111 1.88905 0.105549 0
M  V30 9194 O 846.454 1.49422 1.06858 0
M  V30 9195 C 846.516 2.94626 -2.06 0
M  V30 9196 C 846.18 2.87576 -3.55175 0
M  V30 9197 C 847.177 2.60856 -4.49722 0
M  V30 9198 C 844.862 3.06623 -3.97854 0
M  V30 9199 C 846.856 2.53262 -5.84925 0
M  V30 9200 C 844.543 2.98652 -5.33151 0
M  V30 9201 C 845.541 2.72007 -6.26499 0
M  V30 9202 O 845.229 2.64003 -7.59314 0
M  V30 9203 H 844.961 0.500486 -0.454411 0
M  V30 9204 H 847.515 1.0074 -1.78999 0
M  V30 9205 H 845.745 3.5493 -1.53498 0
M  V30 9206 H 847.434 3.55785 -1.95376 0
M  V30 9207 H 848.2 2.45858 -4.18066 0
M  V30 9208 H 844.079 3.26372 -3.2558 0
M  V30 9209 H 847.623 2.32386 -6.57756 0
M  V30 9210 H 843.52 3.13208 -5.64421 0
M  V30 9211 H 844.288 2.79595 -7.69265 0
M  V30 9212 N 846.951 1.19563 1.02676 0
M  V30 9213 C 847.898 0.935291 2.11 0
M  V30 9214 C 848.868 -0.130685 1.65585 0
M  V30 9215 O 850.053 0.0119062 1.90796 0
M  V30 9216 C 847.193 0.482384 3.41712 0
M  V30 9217 C 846.306 1.61537 4.00662 0
M  V30 9218 C 845.441 1.11378 5.19392 0
M  V30 9219 C 844.48 2.22052 5.70403 0
M  V30 9220 N 843.617 1.73185 6.80405 0
M  V30 9221 H 848.457 1.86275 2.32606 0
M  V30 9222 H 845.994 0.928656 1.14081 0
M  V30 9223 H 847.952 0.20118 4.16715 0
M  V30 9224 H 846.582 -0.408086 3.2021 0
M  V30 9225 H 845.634 2.01173 3.22852 0
M  V30 9226 H 846.946 2.44912 4.34534 0
M  V30 9227 H 846.1 0.787935 6.01562 0
M  V30 9228 H 844.839 0.249789 4.8706 0
M  V30 9229 H 843.844 2.55465 4.86845 0
M  V30 9230 H 845.069 3.08911 6.04774 0
M  V30 9231 H 843.015 0.890973 6.49921 0
M  V30 9232 H 842.932 2.50148 7.13416 0
M  V30 9233 H 844.2 1.4357 7.66164 0
M  V30 9234 N 848.429 -1.21819 0.999893 0
M  V30 9235 C 849.657 -1.94758 0.698359 0
M  V30 9236 C 850.072 -1.73771 -0.738183 0
M  V30 9237 O 849.429 -1.04113 -1.49889 0
M  V30 9238 C 849.48 -3.47292 1.00353 0
M  V30 9239 O 849.201 -3.67579 2.38363 0
M  V30 9240 C 850.702 -4.37403 0.72068 0
M  V30 9241 H 847.922 -0.619512 0.257771 0
M  V30 9242 H 850.466 -1.54778 1.33656 0
M  V30 9243 H 848.621 -3.85213 0.411018 0
M  V30 9244 H 849.035 -4.61719 2.48829 0
M  V30 9245 H 850.509 -5.43151 0.984422 0
M  V30 9246 H 850.986 -4.3784 -0.345309 0
M  V30 9247 H 851.592 -4.05119 1.29456 0
M  V30 9248 N 849.908 -0.773975 -1.37286 0
M  V30 9249 C 851.319 -0.404433 -1.82267 0
M  V30 9250 C 851.67 1.06971 -1.64474 0
M  V30 9251 O 850.795 1.82867 -1.15708 0
M  V30 9252 C 851.39 -0.727298 -3.30902 0
M  V30 9253 C 849.949 -0.410784 -3.74152 0
M  V30 9254 C 849.096 -0.969983 -2.59782 0
M  V30 9255 H 852.047 -0.968437 -1.25726 0
M  V30 9256 H 852.068 -0.0127575 -3.80498 0
M  V30 9257 H 851.58 -1.80026 -3.4382 0
M  V30 9258 H 849.681 0.65477 -3.66802 0
M  V30 9259 H 849.794 -0.920592 -4.70172 0
M  V30 9260 H 848.158 -0.394094 -2.51633 0
M  V30 9261 H 848.941 -2.04839 -2.75492 0
M  V30 9262 N 851.386 1.48609 -0.524698 0
M  V30 9263 C 852.614 2.06899 0.00742946 0
M  V30 9264 C 853.029 1.38196 1.28637 0
M  V30 9265 O 852.386 0.467771 1.76403 0
M  V30 9266 C 852.437 3.60699 0.240548 0
M  V30 9267 O 852.158 4.26821 -0.987715 0
M  V30 9268 C 853.659 4.35769 0.813652 0
M  V30 9269 H 850.879 0.670278 -0.0311294 0
M  V30 9270 H 853.423 1.91071 -0.728832 0
M  V30 9271 H 851.578 3.76149 0.926845 0
M  V30 9272 H 851.992 5.18889 -0.765175 0
M  V30 9273 H 853.466 5.44174 0.926219 0
M  V30 9274 H 853.943 3.9984 1.81728 0
M  V30 9275 H 854.549 4.24983 0.164086 0
M  V30 9276 N 852.864 0.259585 1.55447 0
M  V30 9277 C 854.094 -0.364863 2.03353 0
M  V30 9278 C 854.502 -1.5116 1.13786 0
M  V30 9279 O 853.845 -1.83109 0.147283 0
M  V30 9280 C 853.907 -0.922587 3.4746 0
M  V30 9281 C 853.571 0.0935207 4.56904 0
M  V30 9282 C 854.568 0.907571 5.11917 0
M  V30 9283 C 852.253 0.223276 5.01804 0
M  V30 9284 C 854.247 1.83771 6.10333 0
M  V30 9285 C 851.934 1.15691 6.00049 0
M  V30 9286 C 852.932 1.96264 6.54194 0
M  V30 9287 O 852.62 2.88052 7.50521 0
M  V30 9288 H 852.352 -0.0893313 0.670072 0
M  V30 9289 H 854.906 0.384821 2.01763 0
M  V30 9290 H 853.136 -1.72206 3.4624 0
M  V30 9291 H 854.825 -1.45846 3.78792 0
M  V30 9292 H 855.591 0.817979 4.78052 0
M  V30 9293 H 851.47 -0.393834 4.59315 0
M  V30 9294 H 855.014 2.46703 6.52521 0
M  V30 9295 H 850.911 1.24738 6.33333 0
M  V30 9296 H 851.679 2.82557 7.68182 0
M  V30 9297 N 854.342 -1.57594 -0.0133615 0
M  V30 9298 C 855.753 -1.78168 -0.557937 0
M  V30 9299 C 856.104 -0.892616 -1.74719 0
M  V30 9300 O 855.229 -0.0915491 -2.16206 0
M  V30 9301 C 855.824 -3.23115 -1.01894 0
M  V30 9302 C 854.383 -3.44831 -1.50892 0
M  V30 9303 C 853.53 -2.73558 -0.454044 0
M  V30 9304 H 856.481 -1.57266 0.212843 0
M  V30 9305 H 856.502 -3.30493 -1.8856 0
M  V30 9306 H 856.014 -3.87798 -0.153175 0
M  V30 9307 H 854.115 -2.85345 -2.39602 0
M  V30 9308 H 854.228 -4.53485 -1.54559 0
M  V30 9309 H 852.592 -2.37787 -0.912666 0
M  V30 9310 H 853.375 -3.40932 0.402524 0
M  V30 9311 N 855.82 0.285905 -1.54985 0
M  V30 9312 C 857.05 1.03626 -1.78732 0
M  V30 9313 C 857.458 1.80896 -0.554377 0
M  V30 9314 O 856.801 1.77161 0.48578 0
M  V30 9315 C 856.863 2.05185 -2.95193 0
M  V30 9316 C 856.527 1.46973 -4.32722 0
M  V30 9317 C 857.524 0.891986 -5.12191 0
M  V30 9318 C 855.209 1.50081 -4.79355 0
M  V30 9319 C 857.203 0.353078 -6.36421 0
M  V30 9320 C 854.89 0.958037 -6.03544 0
M  V30 9321 C 855.888 0.385157 -6.81913 0
M  V30 9322 O 855.576 -0.149341 -8.03761 0
M  V30 9323 H 855.308 0.312416 -0.599477 0
M  V30 9324 H 857.862 0.326067 -2.02795 0
M  V30 9325 H 856.092 2.79928 -2.66791 0
M  V30 9326 H 857.781 2.66244 -3.0638 0
M  V30 9327 H 858.547 0.860762 -4.77301 0
M  V30 9328 H 854.426 1.9361 -4.18373 0
M  V30 9329 H 857.97 -0.0947181 -6.97536 0
M  V30 9330 H 853.867 0.986458 -6.37918 0
M  V30 9331 H 854.635 -0.0374719 -8.18491 0
M  V30 9332 N 857.298 1.47698 0.54982 0
M  V30 9333 C 858.228 1.63622 1.66583 0
M  V30 9334 C 859.209 0.485477 1.63025 0
M  V30 9335 O 860.394 0.715692 1.80531 0
M  V30 9336 C 857.524 1.65721 3.05211 0
M  V30 9337 C 856.478 2.80097 3.2362 0
M  V30 9338 C 855.804 2.67272 4.63109 0
M  V30 9339 C 857.104 4.21612 3.08286 0
M  V30 9340 H 858.798 2.57049 1.53512 0
M  V30 9341 H 856.344 1.23705 0.737099 0
M  V30 9342 H 858.297 1.75451 3.83138 0
M  V30 9343 H 857.021 0.688593 3.19258 0
M  V30 9344 H 855.68 2.69889 2.48104 0
M  V30 9345 H 855.328 1.68422 4.73965 0
M  V30 9346 H 855.028 3.44008 4.76374 0
M  V30 9347 H 856.552 2.78942 5.43161 0
M  V30 9348 H 857.966 4.32758 3.76024 0
M  V30 9349 H 856.363 4.99193 3.33057 0
M  V30 9350 H 857.433 4.39462 2.04942 0
M  V30 9351 N 858.776 -0.797141 1.35954 0
M  V30 9352 C 859.706 -1.92387 1.32323 0
M  V30 9353 C 860.687 -1.68967 0.196007 0
M  V30 9354 O 861.872 -1.90193 0.39245 0
M  V30 9355 C 859.002 -3.29286 1.10398 0
M  V30 9356 C 857.956 -3.67212 2.19862 0
M  V30 9357 C 857.282 -5.02377 1.8309 0
M  V30 9358 C 858.582 -3.76602 3.61896 0
M  V30 9359 H 860.276 -1.95683 2.26602 0
M  V30 9360 H 857.822 -0.94007 1.09081 0
M  V30 9361 H 859.775 -4.07721 1.06495 0
M  V30 9362 H 858.499 -3.26358 0.125668 0
M  V30 9363 H 857.158 -2.91069 2.22878 0
M  V30 9364 H 856.806 -4.95961 0.838527 0
M  V30 9365 H 856.506 -5.28722 2.56372 0
M  V30 9366 H 858.03 -5.8324 1.80729 0
M  V30 9367 H 859.444 -4.45246 3.6115 0
M  V30 9368 H 857.841 -4.14425 4.34018 0
M  V30 9369 H 858.911 -2.77906 3.97361 0
M  V30 9370 N 860.254 -1.20106 -1.0204 0
M  V30 9371 C 861.665 -1.00992 -1.57027 0
M  V30 9372 C 862.016 0.434782 -1.91322 0
M  V30 9373 O 861.141 1.31557 -1.71819 0
M  V30 9374 C 861.736 -1.82697 -2.85319 0
M  V30 9375 C 860.295 -1.67959 -3.36848 0
M  V30 9376 C 859.442 -1.80868 -2.10195 0
M  V30 9377 H 862.393 -1.34354 -0.844676 0
M  V30 9378 H 862.414 -1.32809 -3.5657 0
M  V30 9379 H 861.926 -2.87839 -2.60328 0
M  V30 9380 H 860.027 -0.654389 -3.66809 0
M  V30 9381 H 860.14 -2.49006 -4.09308 0
M  V30 9382 H 858.504 -1.24015 -2.22469 0
M  V30 9383 H 859.287 -2.87486 -1.87635 0
M  V30 9384 N 861.732 1.21287 -1.00634 0
M  V30 9385 C 862.679 2.23705 -0.567876 0
M  V30 9386 C 863.649 1.61043 0.406753 0
M  V30 9387 O 864.834 1.88289 0.308499 0
M  V30 9388 C 861.974 3.44961 0.097996 0
M  V30 9389 C 861.087 4.22091 -0.919972 0
M  V30 9390 C 860.222 5.30718 -0.226222 0
M  V30 9391 C 859.261 5.99581 -1.23165 0
M  V30 9392 N 858.398 6.99821 -0.565278 0
M  V30 9393 H 863.238 2.60571 -1.44592 0
M  V30 9394 H 860.775 1.28049 -0.724006 0
M  V30 9395 H 862.733 4.1418 0.501097 0
M  V30 9396 H 861.363 3.08818 0.939744 0
M  V30 9397 H 860.415 3.52038 -1.44131 0
M  V30 9398 H 861.727 4.69476 -1.68505 0
M  V30 9399 H 860.881 6.06253 0.232917 0
M  V30 9400 H 859.62 4.84343 0.571247 0
M  V30 9401 H 858.625 5.22816 -1.70128 0
M  V30 9402 H 859.85 6.48042 -2.03022 0
M  V30 9403 H 857.796 6.55656 0.212508 0
M  V30 9404 H 857.713 7.4528 -1.26858 0
M  V30 9405 H 858.981 7.79393 -0.129389 0
M  V30 9406 N 863.21 0.781244 1.36873 0
M  V30 9407 C 864.435 0.360398 2.04245 0
M  V30 9408 C 864.86 -1.01242 1.58529 0
M  V30 9409 O 864.218 -1.65063 0.749936 0
M  V30 9410 C 864.266 0.42329 3.58107 0
M  V30 9411 O 863.37 -0.572796 4.08403 0
M  V30 9412 H 862.711 0.154386 0.645803 0
M  V30 9413 H 865.241 1.06008 1.74996 0
M  V30 9414 H 865.251 0.283967 4.07011 0
M  V30 9415 H 863.926 1.42477 3.90734 0
M  V30 9416 H 862.503 -0.395809 3.70793 0
M  V30 9417 N 864.689 -1.48329 0.532571 0
M  V30 9418 C 865.917 -2.069 0.00354299 0
M  V30 9419 C 866.332 -1.38876 -1.27902 0
M  V30 9420 O 865.689 -0.477119 -1.76153 0
M  V30 9421 C 865.74 -3.60821 -0.221416 0
M  V30 9422 O 865.461 -4.26291 1.01034 0
M  V30 9423 C 866.962 -4.36194 -0.790531 0
M  V30 9424 H 864.182 -0.670103 0.0346836 0
M  V30 9425 H 866.726 -1.90682 0.738955 0
M  V30 9426 H 864.881 -3.76636 -0.906884 0
M  V30 9427 H 865.295 -5.18475 0.792683 0
M  V30 9428 H 866.769 -5.44657 -0.897347 0
M  V30 9429 H 867.246 -4.00798 -1.79605 0
M  V30 9430 H 867.852 -4.25064 -0.141546 0
M  V30 9431 N 866.167 -0.267825 -1.55308 0
M  V30 9432 C 867.392 0.357487 -2.04296 0
M  V30 9433 C 867.817 1.49222 -1.14518 0
M  V30 9434 O 867.175 1.80741 -0.142292 0
M  V30 9435 C 867.223 0.822899 -3.51085 0
M  V30 9436 O 866.327 1.93078 -3.6441 0
M  V30 9437 H 865.668 0.075025 -0.659748 0
M  V30 9438 H 868.198 -0.399996 -2.00652 0
M  V30 9439 H 868.208 1.12059 -3.92309 0
M  V30 9440 H 866.883 -0.0073562 -4.15899 0
M  V30 9441 H 865.46 1.63618 -3.35087 0
M  V30 9442 N 867.645 1.57599 0.00500368 0
M  V30 9443 C 868.873 1.94626 0.702016 0
M  V30 9444 C 869.288 0.86953 1.67585 0
M  V30 9445 O 868.645 -0.15199 1.81866 0
M  V30 9446 C 868.696 3.31658 1.43824 0
M  V30 9447 O 868.417 4.35197 0.503467 0
M  V30 9448 C 869.918 3.83114 2.23021 0
M  V30 9449 H 867.138 0.641785 0.195841 0
M  V30 9450 H 869.682 2.04451 -0.0446287 0
M  V30 9451 H 867.837 3.23156 2.13655 0
M  V30 9452 H 868.251 5.1444 1.02235 0
M  V30 9453 H 869.725 4.81438 2.7004 0
M  V30 9454 H 870.202 3.15559 3.05482 0
M  V30 9455 H 870.808 3.94775 1.58216 0
M  V30 9456 N 869.123 -0.277682 1.55134 0
M  V30 9457 C 870.086 -1.32635 1.86924 0
M  V30 9458 C 871.086 -1.42578 0.743507 0
M  V30 9459 O 872.276 -1.4181 1.01171 0
M  V30 9460 C 869.408 -2.70832 2.07034 0
M  V30 9461 H 870.601 -1.0568 2.80663 0
M  V30 9462 H 868.154 -0.515517 1.47554 0
M  V30 9463 H 868.889 -3.02974 1.15661 0
M  V30 9464 H 868.674 -2.65001 2.88993 0
M  V30 9465 H 870.164 -3.46611 2.32918 0
M  V30 9466 N 870.601 -1.47988 -0.541979 0
M  V30 9467 C 871.549 -1.62044 -1.66867 0
M  V30 9468 C 872.543 -0.487217 -1.62242 0
M  V30 9469 O 873.749 -0.66554 -1.67244 0
M  V30 9470 H 870.124 -0.51024 -0.552412 0
M  V30 9471 H 872.095 -2.56695 -1.52153 0
M  V30 9472 C 870.844 -1.66615 -3.0518 0
M  V30 9473 H 870.167 -2.5317 -3.09427 0
M  V30 9474 H 871.607 -1.80496 -3.83663 0
M  V30 9475 C 870.066 -0.402421 -3.34488 0
M  V30 9476 O 870.596 0.48992 -3.98701 0
M  V30 9477 N 868.802 -0.277778 -2.89269 0
M  V30 9478 H 868.349 -1.00488 -2.37192 0
M  V30 9479 H 868.307 0.566784 -3.09249 0
M  V30 9480 N 872.079 0.78992 -1.36375 0
M  V30 9481 C 873.011 1.91113 -1.26524 0
M  V30 9482 C 874.024 1.61747 -0.184851 0
M  V30 9483 O 875.213 1.73004 -0.439524 0
M  V30 9484 C 872.313 3.25908 -0.92937 0
M  V30 9485 C 871.486 3.83057 -2.11154 0
M  V30 9486 C 870.545 4.96289 -1.74881 0
M  V30 9487 O 869.571 5.12834 -2.46962 0
M  V30 9488 N 870.773 5.76478 -0.682193 0
M  V30 9489 H 873.538 2.00085 -2.23128 0
M  V30 9490 H 871.099 0.968165 -1.29762 0
M  V30 9491 H 873.091 3.99151 -0.667884 0
M  V30 9492 H 871.661 3.12556 -0.0524843 0
M  V30 9493 H 870.881 3.01808 -2.53586 0
M  V30 9494 H 872.169 4.1797 -2.90135 0
M  V30 9495 H 871.567 5.65638 -0.0836661 0
M  V30 9496 H 870.124 6.50026 -0.480529 0
M  V30 9497 N 873.557 1.20646 1.01402 0
M  V30 9498 C 874.487 0.98155 2.11867 0
M  V30 9499 C 875.468 -0.0903712 1.6986 0
M  V30 9500 O 876.653 0.0676586 1.94082 0
M  V30 9501 C 873.783 0.535636 3.43145 0
M  V30 9502 C 872.737 1.55109 3.98905 0
M  V30 9503 C 872.063 0.961725 5.2598 0
M  V30 9504 C 873.363 2.93552 4.32001 0
M  V30 9505 H 875.057 1.90544 2.3094 0
M  V30 9506 H 872.603 0.917554 1.10982 0
M  V30 9507 H 874.556 0.365512 4.19812 0
M  V30 9508 H 873.28 -0.423882 3.23838 0
M  V30 9509 H 871.939 1.70862 3.24348 0
M  V30 9510 H 871.587 -0.00580108 5.03 0
M  V30 9511 H 871.287 1.63993 5.64252 0
M  V30 9512 H 872.811 0.802726 6.053 0
M  V30 9513 H 874.225 2.81295 4.99546 0
M  V30 9514 H 872.622 3.58303 4.81393 0
M  V30 9515 H 873.692 3.4508 3.40658 0
M  V30 9516 N 875.035 -1.20752 1.01276 0
M  V30 9517 C 876.446 -1.7175 0.732033 0
M  V30 9518 C 876.797 -1.8131 -0.749733 0
M  V30 9519 O 875.922 -1.47301 -1.58529 0
M  V30 9520 C 876.517 -3.11936 1.32217 0
M  V30 9521 C 875.076 -3.6026 1.09039 0
M  V30 9522 C 874.223 -2.37571 1.43022 0
M  V30 9523 H 877.174 -1.0582 1.1827 0
M  V30 9524 H 877.195 -3.73802 0.710771 0
M  V30 9525 H 876.707 -3.04946 2.40061 0
M  V30 9526 H 874.808 -3.72588 0.0294464 0
M  V30 9527 H 874.921 -4.45295 1.76775 0
M  V30 9528 H 873.285 -2.40128 0.849159 0
M  V30 9529 H 874.068 -2.33225 2.51915 0
M  V30 9530 N 876.513 -0.788492 -1.36457 0
M  V30 9531 C 877.76 -0.360461 -1.99266 0
M  V30 9532 C 878.088 1.0676 -1.62581 0
M  V30 9533 O 877.343 1.75205 -0.871884 0
M  V30 9534 C 877.642 -0.470255 -3.54293 0
M  V30 9535 C 877.308 -1.85899 -4.10795 0
M  V30 9536 C 875.97 -2.23896 -4.25939 0
M  V30 9537 C 878.322 -2.76836 -4.41601 0
M  V30 9538 C 875.65 -3.52235 -4.69199 0
M  V30 9539 C 878.002 -4.04602 -4.86292 0
M  V30 9540 C 876.666 -4.42623 -4.99641 0
M  V30 9541 H 875.936 -0.131902 -0.729166 0
M  V30 9542 H 878.583 -1.00577 -1.62962 0
M  V30 9543 H 876.888 0.258559 -3.90946 0
M  V30 9544 H 878.585 -0.120119 -4.0082 0
M  V30 9545 H 875.175 -1.55372 -3.99447 0
M  V30 9546 H 879.359 -2.48735 -4.2947 0
M  V30 9547 H 874.615 -3.81565 -4.77722 0
M  V30 9548 H 878.789 -4.75182 -5.09092 0
M  V30 9549 H 876.416 -5.42125 -5.32921 0
M  V30 9550 N 877.991 1.48044 -0.54043 0
M  V30 9551 C 879.219 2.06895 -0.0145153 0
M  V30 9552 C 879.634 1.39552 1.27164 0
M  V30 9553 O 878.991 0.486454 1.75897 0
M  V30 9554 C 879.042 3.60934 0.202278 0
M  V30 9555 O 878.763 4.25749 -1.03293 0
M  V30 9556 C 880.264 4.36607 0.767387 0
M  V30 9557 H 877.484 0.66991 -0.0382368 0
M  V30 9558 H 880.028 1.90288 -0.749057 0
M  V30 9559 H 878.183 3.77111 0.886897 0
M  V30 9560 H 878.597 5.18048 -0.820167 0
M  V30 9561 H 880.071 5.45126 0.86845 0
M  V30 9562 H 880.548 4.01745 1.77477 0
M  V30 9563 H 881.154 4.25133 0.119002 0
M  V30 9564 N 879.47 0.276058 1.55163 0
M  V30 9565 C 880.4 -0.604633 2.25536 0
M  V30 9566 C 881.381 -1.15813 1.24585 0
M  V30 9567 O 882.566 -1.1921 1.53306 0
M  V30 9568 C 879.696 -1.78836 2.97716 0
M  V30 9569 C 878.65 -1.36635 4.05604 0
M  V30 9570 C 877.976 -2.63325 4.65364 0
M  V30 9571 C 879.276 -0.515858 5.19746 0
M  V30 9572 H 880.97 -0.0177483 2.99395 0
M  V30 9573 H 878.516 -0.00709627 1.43998 0
M  V30 9574 H 880.469 -2.41036 3.45658 0
M  V30 9575 H 879.193 -2.40109 2.21394 0
M  V30 9576 H 877.852 -0.767541 3.58475 0
M  V30 9577 H 877.5 -3.22858 3.85709 0
M  V30 9578 H 877.2 -2.358 5.38212 0
M  V30 9579 H 878.724 -3.26372 5.16056 0
M  V30 9580 H 880.138 -1.04289 5.63735 0
M  V30 9581 H 878.535 -0.335449 5.99162 0
M  V30 9582 H 879.605 0.465137 4.82664 0
M  V30 9583 N 880.948 -1.576 0.00335426 0
M  V30 9584 C 882.359 -1.7875 -0.539008 0
M  V30 9585 C 882.71 -0.911097 -1.73763 0
M  V30 9586 O 881.835 -0.114476 -2.16097 0
M  V30 9587 C 882.43 -3.24177 -0.984611 0
M  V30 9588 C 880.989 -3.46412 -1.47226 0
M  V30 9589 C 880.136 -2.74024 -0.425004 0
M  V30 9590 H 883.087 -1.57032 0.229511 0
M  V30 9591 H 883.108 -3.32474 -1.85044 0
M  V30 9592 H 882.62 -3.87938 -0.112035 0
M  V30 9593 H 880.721 -2.8787 -2.36562 0
M  V30 9594 H 880.834 -4.55098 -1.49741 0
M  V30 9595 H 879.198 -2.38741 -0.887394 0
M  V30 9596 H 879.981 -3.40486 0.438662 0
M  V30 9597 N 882.426 0.269451 -1.5528 0
M  V30 9598 C 883.674 0.998604 -1.75705 0
M  V30 9599 C 883.995 1.86691 -0.563175 0
M  V30 9600 O 883.265 1.91305 0.421811 0
M  V30 9601 H 881.845 0.371698 -0.647958 0
M  V30 9602 H 884.507 0.292826 -1.92688 0
M  V30 9603 H 883.603 1.63348 -2.6594 0
M  V30 9604 N 883.904 1.48273 0.534124 0
M  V30 9605 C 885.152 1.55771 1.28762 0
M  V30 9606 C 885.473 0.231575 1.9362 0
M  V30 9607 O 884.743 -0.746533 1.81118 0
M  V30 9608 H 883.323 0.573851 0.47823 0
M  V30 9609 H 885.985 1.84712 0.621888 0
M  V30 9610 H 885.081 2.33657 2.06908 0
M  V30 9611 N 885.382 -0.782676 1.36792 0
M  V30 9612 C 886.314 -1.9044 1.27536 0
M  V30 9613 C 887.327 -1.61647 0.193426 0
M  V30 9614 O 888.516 -1.72769 0.448692 0
M  V30 9615 C 885.616 -3.2541 0.946641 0
M  V30 9616 C 884.789 -3.81932 2.13183 0
M  V30 9617 C 883.848 -4.95355 1.7751 0
M  V30 9618 O 882.874 -5.11517 2.49678 0
M  V30 9619 N 884.076 -5.76108 0.712755 0
M  V30 9620 H 886.841 -1.98899 2.24186 0
M  V30 9621 H 884.402 -0.96127 1.30274 0
M  V30 9622 H 886.394 -3.98791 0.689043 0
M  V30 9623 H 884.964 -3.12524 0.0690591 0
M  V30 9624 H 884.184 -3.00459 2.55183 0
M  V30 9625 H 885.472 -4.16426 2.92347 0
M  V30 9626 H 884.87 -5.65586 0.113662 0
M  V30 9627 H 883.427 -6.49762 0.514995 0
M  V30 9628 N 886.86 -1.21182 -1.00761 0
M  V30 9629 C 888.1 -1.03886 -1.76031 0
M  V30 9630 C 888.464 0.420593 -1.87337 0
M  V30 9631 O 889.665 0.713994 -2.59144 0
M  V30 9632 C 887.936 -1.71394 -3.13622 0
M  V30 9633 S 889.495 -1.69319 -4.04816 0
M  V30 9634 H 886.313 -0.372327 -0.605717 0
M  V30 9635 H 888.915 -1.53885 -1.20581 0
M  V30 9636 H 887.619 -2.76773 -3.03026 0
M  V30 9637 H 887.15 -1.21564 -3.74147 0
M  V30 9638 H 889.165 -0.732434 -4.90765 0
M  V30 9639 N 888.338 1.20213 -1.01915 0
M  V30 9640 C 889.566 1.93622 -0.729255 0
M  V30 9641 C 889.981 1.74923 0.710444 0
M  V30 9642 O 889.338 1.06484 1.48214 0
M  V30 9643 C 889.389 3.45651 -1.05865 0
M  V30 9644 O 889.11 3.63741 -2.44181 0
M  V30 9645 C 890.611 4.36201 -0.790176 0
M  V30 9646 H 887.831 0.615333 -0.267594 0
M  V30 9647 H 890.375 1.52633 -1.36101 0
M  V30 9648 H 888.53 3.84511 -0.47225 0
M  V30 9649 H 888.944 4.57702 -2.56143 0
M  V30 9650 H 890.418 5.41516 -1.07071 0
M  V30 9651 H 890.895 4.38334 0.275609 0
M  V30 9652 H 891.501 4.03008 -1.35885 0
M  V30 9653 N 889.816 0.795718 1.36037 0
M  V30 9654 C 891.044 0.383153 2.03321 0
M  V30 9655 C 891.459 -1.00246 1.59988 0
M  V30 9656 O 890.816 -1.64406 0.792265 0
M  V30 9657 C 890.867 0.444467 3.58757 0
M  V30 9658 O 890.588 1.77544 4.00512 0
M  V30 9659 C 892.089 0.0233291 4.43294 0
M  V30 9660 H 889.309 0.157061 0.652359 0
M  V30 9661 H 891.853 1.07632 1.73884 0
M  V30 9662 H 890.008 -0.200341 3.86882 0
M  V30 9663 H 890.422 1.73065 4.95125 0
M  V30 9664 H 891.896 0.117361 5.51875 0
M  V30 9665 H 892.373 -1.03007 4.2695 0
M  V30 9666 H 892.979 0.64087 4.20444 0
M  V30 9667 N 891.294 -1.47756 0.548274 0
M  V30 9668 C 892.54 -2.02789 0.0209265 0
M  V30 9669 C 892.873 -1.42268 -1.32187 0
M  V30 9670 O 892.148 -0.575001 -1.85806 0
M  V30 9671 C 892.431 -3.60007 -0.0816674 0
M  V30 9672 C 892.284 -4.30977 1.28759 0
M  V30 9673 C 893.603 -4.32777 -0.799515 0
M  V30 9674 H 890.722 -0.736944 0.00907884 0
M  V30 9675 H 893.364 -1.76282 0.708839 0
M  V30 9676 H 891.514 -3.82722 -0.667537 0
M  V30 9677 H 893.186 -4.19629 1.91597 0
M  V30 9678 H 891.429 -3.9168 1.86466 0
M  V30 9679 H 892.1 -5.39488 1.16861 0
M  V30 9680 H 894.576 -4.15001 -0.30216 0
M  V30 9681 H 893.452 -5.42431 -0.840239 0
M  V30 9682 H 893.713 -4.01358 -1.85375 0
M  V30 9683 N 892.772 -0.284283 -1.55015 0
M  V30 9684 C 893.704 0.63258 -2.20298 0
M  V30 9685 C 894.717 1.11045 -1.1905 0
M  V30 9686 O 895.906 1.03078 -1.4573 0
M  V30 9687 C 893.006 1.87599 -2.82241 0
M  V30 9688 C 892.179 1.5434 -4.09265 0
M  V30 9689 C 891.238 2.64023 -4.55169 0
M  V30 9690 O 890.264 2.29821 -5.20741 0
M  V30 9691 N 891.466 3.94255 -4.26079 0
M  V30 9692 H 894.231 0.0737928 -2.99609 0
M  V30 9693 H 891.792 -0.105767 -1.61554 0
M  V30 9694 H 893.784 2.60289 -3.0989 0
M  V30 9695 H 892.354 2.3436 -2.06868 0
M  V30 9696 H 891.574 0.649912 -3.88806 0
M  V30 9697 H 892.862 1.29634 -4.92009 0
M  V30 9698 H 892.26 4.24859 -3.73512 0
M  V30 9699 H 890.817 4.63295 -4.58477 0
M  V30 9700 N 894.251 1.57596 -0.0117121 0
M  V30 9701 C 895.497 1.91355 0.671661 0
M  V30 9702 C 895.83 0.886818 1.72769 0
M  V30 9703 O 895.105 -0.0928813 1.94278 0
M  V30 9704 C 895.388 3.35657 1.30409 0
M  V30 9705 C 895.241 4.49055 0.2588 0
M  V30 9706 C 896.56 3.79595 2.22701 0
M  V30 9707 H 893.679 0.695893 0.242698 0
M  V30 9708 H 896.321 1.89887 -0.0654071 0
M  V30 9709 H 894.471 3.37038 1.9323 0
M  V30 9710 H 896.143 4.59809 -0.370631 0
M  V30 9711 H 894.386 4.31785 -0.417672 0
M  V30 9712 H 895.057 5.4701 0.740578 0
M  V30 9713 H 897.533 3.7984 1.69885 0
M  V30 9714 H 896.409 4.81292 2.63912 0
M  V30 9715 H 896.67 3.14118 3.11098 0
M  V30 9716 N 895.729 -0.261212 1.5542 0
M  V30 9717 C 896.659 -1.32712 1.92119 0
M  V30 9718 C 897.64 -1.50934 0.784406 0
M  V30 9719 O 898.825 -1.63781 1.04352 0
M  V30 9720 C 895.955 -2.68453 2.20341 0
M  V30 9721 C 894.909 -2.64947 3.36136 0
M  V30 9722 C 894.235 -4.04349 3.49865 0
M  V30 9723 C 895.535 -2.23182 4.72215 0
M  V30 9724 H 897.229 -1.02245 2.81401 0
M  V30 9725 H 894.775 -0.490406 1.35392 0
M  V30 9726 H 896.728 -3.43144 2.44603 0
M  V30 9727 H 895.452 -3.00527 1.27871 0
M  V30 9728 H 894.111 -1.92714 3.11861 0
M  V30 9729 H 893.759 -4.33665 2.5484 0
M  V30 9730 H 893.459 -4.02895 4.27726 0
M  V30 9731 H 894.983 -4.80761 3.76432 0
M  V30 9732 H 896.397 -2.87599 4.95943 0
M  V30 9733 H 894.794 -2.32867 5.53076 0
M  V30 9734 H 895.864 -1.18327 4.70241 0
M  V30 9735 N 897.207 -1.48554 -0.526253 0
M  V30 9736 C 898.623 -1.34757 -0.855138 0
M  V30 9737 C 898.823 -0.36142 -1.98232 0
M  V30 9738 O 897.879 0.216026 -2.51574 0
M  V30 9739 C 899.192 -2.74877 -1.21915 0
M  V30 9740 C 900.74 -2.83393 -1.32882 0
M  V30 9741 C 901.215 -4.24223 -1.72624 0
M  V30 9742 N 902.706 -4.26913 -1.7972 0
M  V30 9743 C 903.441 -5.32824 -2.11863 0
M  V30 9744 N 902.937 -6.49008 -2.42405 0
M  V30 9745 N 904.73 -5.20221 -2.12901 0
M  V30 9746 H 896.881 -2.11284 0.217422 0
M  V30 9747 H 899.144 -0.947367 0.0346362 0
M  V30 9748 H 898.85 -3.48619 -0.464486 0
M  V30 9749 H 898.724 -3.0864 -2.16844 0
M  V30 9750 H 901.111 -2.09904 -2.07424 0
M  V30 9751 H 901.192 -2.53245 -0.360638 0
M  V30 9752 H 900.836 -4.98229 -0.986411 0
M  V30 9753 H 900.766 -4.51817 -2.70498 0
M  V30 9754 H 903.257 -3.4311 -1.58379 0
M  V30 9755 H 903.57 -7.25561 -2.66048 0
M  V30 9756 H 901.915 -6.52277 -2.39917 0
M  V30 9757 H 905.106 -4.28469 -1.885 0
M  V30 9758 H 905.279 -6.02861 -2.37619 0
M  V30 9759 N 898.685 0.775411 -1.37205 0
M  V30 9760 C 899.91 1.5696 -1.35567 0
M  V30 9761 C 900.335 1.88012 0.0575554 0
M  V30 9762 O 899.693 1.48954 1.03355 0
M  V30 9763 C 899.741 2.85886 -2.19776 0
M  V30 9764 O 898.845 3.80103 -1.59987 0
M  V30 9765 H 898.186 0.475583 -0.463375 0
M  V30 9766 H 900.716 0.96001 -1.80679 0
M  V30 9767 H 900.726 3.35024 -2.32859 0
M  V30 9768 H 899.401 2.62613 -3.22502 0
M  V30 9769 H 897.978 3.38736 -1.55924 0
M  V30 9770 N 900.163 1.21714 1.00117 0
M  V30 9771 C 901.409 1.03823 1.74208 0
M  V30 9772 C 901.742 -0.426733 1.89454 0
M  V30 9773 O 901.017 -1.31658 1.43166 0
M  V30 9774 C 901.3 1.74047 3.15246 0
M  V30 9775 C 901.153 3.28087 3.077 0
M  V30 9776 C 902.472 1.48614 4.14249 0
M  V30 9777 H 899.591 0.378573 0.632338 0
M  V30 9778 H 902.233 1.49942 1.16694 0
M  V30 9779 H 900.383 1.3484 3.64349 0
M  V30 9780 H 902.055 3.76686 2.6628 0
M  V30 9781 H 900.298 3.58191 2.44707 0
M  V30 9782 H 900.969 3.72392 4.07466 0
M  V30 9783 H 903.445 1.82656 3.73866 0
M  V30 9784 H 902.321 2.00257 5.11066 0
M  V30 9785 H 902.582 0.416957 4.40129 0
M  V30 9786 N 901.641 -1.19671 1.02551 0
M  V30 9787 C 902.918 -1.85014 0.634771 0
M  V30 9788 C 903.298 -1.91574 -0.886706 0
M  V30 9789 O 902.646 -1.43022 -1.78205 0
M  V30 9790 C 902.856 -3.24167 1.29292 0
M  V30 9791 C 904.204 -4.00363 1.41402 0
M  V30 9792 O 905.228 -3.33553 1.24983 0
M  V30 9793 O 904.087 -5.2003 1.6802 0
M  V30 9794 H 901.181 -0.797147 0.220196 0
M  V30 9795 H 903.727 -1.27188 1.12345 0
M  V30 9796 H 902.499 -3.14208 2.33215 0
M  V30 9797 H 902.122 -3.89634 0.791895 0
M  V30 9798 N 903.119 -0.802921 -1.35613 0
M  V30 9799 C 904.535 -0.486214 -1.52014 0
M  V30 9800 C 904.735 0.993219 -1.75321 0
M  V30 9801 O 903.791 1.77835 -1.79251 0
M  V30 9802 C 905.104 -1.32839 -2.69767 0
M  V30 9803 C 906.652 -1.32346 -2.83643 0
M  V30 9804 C 907.127 -2.14967 -4.04417 0
M  V30 9805 N 908.618 -2.12484 -4.11588 0
M  V30 9806 C 909.353 -2.73173 -5.04147 0
M  V30 9807 N 908.849 -3.42774 -6.02061 0
M  V30 9808 N 910.642 -2.62834 -4.96865 0
M  V30 9809 H 902.793 -1.76109 -1.18741 0
M  V30 9810 H 905.056 -0.74936 -0.580658 0
M  V30 9811 H 904.762 -2.37813 -2.5911 0
M  V30 9812 H 904.636 -0.979058 -3.64272 0
M  V30 9813 H 907.023 -0.281586 -2.93753 0
M  V30 9814 H 907.104 -1.71264 -1.90006 0
M  V30 9815 H 906.748 -3.19193 -3.95068 0
M  V30 9816 H 906.678 -1.73411 -4.97228 0
M  V30 9817 H 909.169 -1.61839 -3.41492 0
M  V30 9818 H 909.482 -3.86378 -6.69277 0
M  V30 9819 H 907.827 -3.46878 -6.02246 0
M  V30 9820 H 911.018 -2.08049 -4.19325 0
M  V30 9821 H 911.191 -3.10421 -5.68808 0
M  V30 9822 N 904.597 1.47463 -0.556102 0
M  V30 9823 C 905.843 2.03361 -0.039909 0
M  V30 9824 C 906.198 1.42292 1.29502 0
M  V30 9825 O 905.491 0.568813 1.82962 0
M  V30 9826 C 905.685 3.57224 0.112126 0
M  V30 9827 C 905.514 4.33213 -1.20652 0
M  V30 9828 C 904.284 4.73153 -1.77352 0
M  V30 9829 C 906.482 4.68415 -2.12348 0
M  V30 9830 N 904.464 5.33781 -3.03233 0
M  V30 9831 C 905.835 5.29334 -3.22808 0
M  V30 9832 C 907.89 4.50344 -2.12356 0
M  V30 9833 C 906.593 5.7409 -4.33374 0
M  V30 9834 C 908.619 4.96098 -3.21933 0
M  V30 9835 C 907.981 5.57065 -4.31112 0
M  V30 9836 H 904.08 0.779939 -0.0567407 0
M  V30 9837 H 906.664 1.79959 -0.743147 0
M  V30 9838 H 904.835 3.80395 0.784485 0
M  V30 9839 H 906.567 3.99762 0.630285 0
M  V30 9840 H 903.322 4.55074 -1.31165 0
M  V30 9841 H 903.746 5.6864 -3.67393 0
M  V30 9842 H 908.388 4.02566 -1.29229 0
M  V30 9843 H 906.106 6.2086 -5.17261 0
M  V30 9844 H 909.692 4.83887 -3.23024 0
M  V30 9845 H 908.572 5.91824 -5.14504 0
M  V30 9846 N 906.075 0.2925 1.54862 0
M  V30 9847 C 907.3 -0.32494 2.04839 0
M  V30 9848 C 907.725 -1.47381 1.16877 0
M  V30 9849 O 907.083 -1.80492 0.171028 0
M  V30 9850 C 907.131 -0.76694 3.5235 0
M  V30 9851 O 906.235 -1.87256 3.67436 0
M  V30 9852 H 905.576 -0.0645195 0.660858 0
M  V30 9853 H 908.106 0.431867 1.9999 0
M  V30 9854 H 908.116 -1.05804 3.94043 0
M  V30 9855 H 906.791 0.0735212 4.15835 0
M  V30 9856 H 905.368 -1.58266 3.37648 0
M  V30 9857 N 907.553 -1.57587 0.0200696 0
M  V30 9858 C 908.516 -2.08595 -0.949767 0
M  V30 9859 C 909.516 -0.999215 -1.25985 0
M  V30 9860 O 910.706 -1.26115 -1.2017 0
M  V30 9861 C 907.838 -2.54424 -2.26895 0
M  V30 9862 H 909.031 -2.95563 -0.508161 0
M  V30 9863 H 906.584 -1.54631 -0.227798 0
M  V30 9864 H 907.319 -1.70758 -2.75703 0
M  V30 9865 H 907.104 -3.3381 -2.05702 0
M  V30 9866 H 908.594 -2.94144 -2.96427 0
M  V30 9867 N 909.032 0.252966 -1.55557 0
M  V30 9868 C 910.28 0.979912 -1.76754 0
M  V30 9869 C 910.601 1.86083 -0.582944 0
M  V30 9870 O 909.871 1.91742 0.401497 0
M  V30 9871 H 908.451 0.364805 -0.651864 0
M  V30 9872 H 911.113 0.272372 -1.92987 0
M  V30 9873 H 910.209 1.60518 -2.67657 0
M  V30 9874 N 910.51 1.48831 0.518367 0
M  V30 9875 C 911.738 1.6112 1.298 0
M  V30 9876 C 912.153 0.275872 1.86774 0
M  V30 9877 O 911.51 -0.736416 1.66983 0
M  V30 9878 C 911.561 2.66675 2.44063 0
M  V30 9879 O 911.282 3.95027 1.89434 0
M  V30 9880 C 912.783 2.8951 3.35706 0
M  V30 9881 H 910.003 0.542916 0.394314 0
M  V30 9882 H 912.547 1.94743 0.624142 0
M  V30 9883 H 910.702 2.35879 3.07311 0
M  V30 9884 H 911.116 4.53031 2.64316 0
M  V30 9885 H 912.59 3.67142 4.12202 0
M  V30 9886 H 913.067 1.98768 3.91648 0
M  V30 9887 H 913.673 3.21656 2.7824 0
M  V30 9888 N 911.988 -0.768124 1.37614 0
M  V30 9889 C 912.918 -1.89537 1.36374 0
M  V30 9890 C 913.899 -1.68513 0.231803 0
M  V30 9891 O 915.084 -1.89318 0.432705 0
M  V30 9892 C 912.214 -3.26871 1.17358 0
M  V30 9893 C 911.168 -3.62466 2.27602 0
M  V30 9894 C 910.494 -4.9838 1.93705 0
M  V30 9895 C 911.794 -3.68841 3.69802 0
M  V30 9896 H 913.488 -1.90832 2.30702 0
M  V30 9897 H 911.034 -0.91672 1.11051 0
M  V30 9898 H 912.987 -4.05371 1.15119 0
M  V30 9899 H 911.711 -3.26018 0.194865 0
M  V30 9900 H 910.37 -2.86276 2.29002 0
M  V30 9901 H 910.018 -4.94071 0.943539 0
M  V30 9902 H 909.718 -5.23165 2.6753 0
M  V30 9903 H 911.242 -5.79276 1.93059 0
M  V30 9904 H 912.656 -4.37485 3.70513 0
M  V30 9905 H 911.053 -4.05126 4.42711 0
M  V30 9906 H 912.123 -2.69415 4.03167 0
M  V30 9907 N 913.466 -1.22244 -0.994698 0
M  V30 9908 C 914.376 -1.00722 -2.11878 0
M  V30 9909 C 915.392 0.043919 -1.73945 0
M  V30 9910 O 916.568 -0.148411 -2.00852 0
M  V30 9911 C 913.633 -0.585723 -3.41717 0
M  V30 9912 C 912.694 -1.71027 -3.93762 0
M  V30 9913 C 911.927 -1.30879 -5.17403 0
M  V30 9914 O 912.15 -0.18681 -5.70094 0
M  V30 9915 O 911.084 -2.1246 -5.63156 0
M  V30 9916 H 914.91 -1.94894 -2.32916 0
M  V30 9917 H 912.495 -1.00822 -1.10251 0
M  V30 9918 H 914.377 -0.360935 -4.19851 0
M  V30 9919 H 913.052 0.327166 -3.22042 0
M  V30 9920 H 911.959 -1.98956 -3.16808 0
M  V30 9921 H 913.292 -2.60096 -4.17865 0
M  V30 9922 N 914.944 1.19125 -1.03184 0
M  V30 9923 C 915.892 2.24492 -0.608781 0
M  V30 9924 C 916.886 1.65529 0.360065 0
M  V30 9925 O 918.092 1.78546 0.22832 0
M  V30 9926 H 914.467 0.73048 -0.178616 0
M  V30 9927 H 916.438 2.5749 -1.50803 0
M  V30 9928 C 915.187 3.47693 0.0215126 0
M  V30 9929 H 914.51 3.93354 -0.715024 0
M  V30 9930 H 915.95 4.23072 0.280429 0
M  V30 9931 C 914.409 3.12088 1.26896 0
M  V30 9932 O 914.939 3.25013 2.36071 0
M  V30 9933 N 913.145 2.66494 1.15886 0
M  V30 9934 H 912.692 2.56176 0.270463 0
M  V30 9935 H 912.65 2.43042 1.99444 0
M  V30 9936 N 916.422 0.810101 1.35185 0
M  V30 9937 C 917.647 0.40364 2.03434 0
M  V30 9938 C 918.072 -0.97857 1.60641 0
M  V30 9939 O 917.43 -1.63435 0.784779 0
M  V30 9940 C 917.478 0.499154 3.57129 0
M  V30 9941 O 916.582 -0.486039 4.09526 0
M  V30 9942 H 915.923 0.168049 0.642383 0
M  V30 9943 H 918.453 1.09696 1.72708 0
M  V30 9944 H 918.463 0.370236 4.06317 0
M  V30 9945 H 917.138 1.50733 3.87624 0
M  V30 9946 H 915.715 -0.31707 3.7155 0
M  V30 9947 N 917.9 -1.47166 0.563914 0
M  V30 9948 C 919.149 -2.0166 0.0401871 0
M  V30 9949 C 919.462 -1.44303 -1.32046 0
M  V30 9950 O 920.668 -1.905 -1.93448 0
M  V30 9951 C 919.124 -3.59894 0.0213257 0
M  V30 9952 C 918.732 -4.26244 1.37914 0
M  V30 9953 C 920.476 -4.22114 -0.449442 0
M  V30 9954 C 918.383 -5.76503 1.31902 0
M  V30 9955 H 917.313 -0.753916 0.0112534 0
M  V30 9956 H 919.964 -1.69091 0.712766 0
M  V30 9957 H 918.346 -3.89454 -0.717038 0
M  V30 9958 H 919.52 -4.08317 2.13574 0
M  V30 9959 H 917.835 -3.76039 1.78839 0
M  V30 9960 H 920.432 -5.32234 -0.51292 0
M  V30 9961 H 920.775 -3.89749 -1.46291 0
M  V30 9962 H 921.308 -3.9711 0.23427 0
M  V30 9963 H 918.047 -6.13498 2.3087 0
M  V30 9964 H 917.567 -5.96748 0.604324 0
M  V30 9965 H 919.246 -6.38846 1.02392 0
M  V30 9966 N 919.378 -0.300708 -1.54705 0
M  V30 9967 C 920.308 0.568675 -2.26469 0
M  V30 9968 C 921.289 1.13817 -1.26411 0
M  V30 9969 O 922.474 1.16756 -1.55183 0
M  V30 9970 C 919.604 1.74077 -3.00524 0
M  V30 9971 C 918.558 1.30165 -4.07727 0
M  V30 9972 C 917.884 2.55888 -4.69495 0
M  V30 9973 C 919.184 0.433106 -5.20501 0
M  V30 9974 H 920.878 -0.0298851 -2.99385 0
M  V30 9975 H 918.424 -0.0158135 -1.43991 0
M  V30 9976 H 920.377 2.35506 -3.49449 0
M  V30 9977 H 919.101 2.36556 -2.25186 0
M  V30 9978 H 917.76 0.710414 -3.59651 0
M  V30 9979 H 917.408 3.16681 -3.90797 0
M  V30 9980 H 917.108 2.27207 -5.41895 0
M  V30 9981 H 918.632 3.18121 -5.21183 0
M  V30 9982 H 920.046 0.95307 -5.65322 0
M  V30 9983 H 918.443 0.240085 -5.9962 0
M  V30 9984 H 919.513 -0.541866 -4.81863 0
M  V30 9985 N 920.856 1.57574 -0.0284266 0
M  V30 9986 C 921.804 2.11332 0.971675 0
M  V30 9987 C 922.798 1.03974 1.33738 0
M  V30 9988 O 924.004 1.22409 1.31969 0
M  V30 9989 H 920.379 0.675174 0.331125 0
M  V30 9990 H 922.35 2.943 0.49296 0
M  V30 9991 C 921.099 2.65496 2.24516 0
M  V30 9992 H 920.422 3.47753 1.9725 0
M  V30 9993 H 921.862 3.06757 2.92705 0
M  V30 9994 C 920.321 1.58207 2.97443 0
M  V30 9995 O 920.851 0.981496 3.89525 0
M  V30 9996 N 919.057 1.30269 2.59766 0
M  V30 9997 H 918.604 1.79294 1.84963 0
M  V30 9998 H 918.562 0.587085 3.0887 0
M  V30 9999 N 922.334 -0.244713 1.55689 0
M  V30 10000 C 923.297 -1.2864 1.89695 0
M  V30 10001 C 924.297 -1.40969 0.773583 0
M  V30 10002 O 925.487 -1.39632 1.04156 0
M  V30 10003 C 922.619 -2.66379 2.12732 0
M  V30 10004 H 923.812 -0.997033 2.82841 0
M  V30 10005 H 921.365 -0.484103 1.48614 0
M  V30 10006 H 922.1 -3.00452 1.22062 0
M  V30 10007 H 921.885 -2.58812 2.94549 0
M  V30 10008 H 923.375 -3.41592 2.40218 0
M  V30 10009 N 923.813 -1.49104 -0.510467 0
M  V30 10010 C 925.043 -1.61571 -1.28757 0
M  V30 10011 C 925.451 -0.282638 -1.87077 0
M  V30 10012 O 924.794 0.740749 -1.68103 0
M  V30 10013 C 924.856 -2.61851 -2.46322 0
M  V30 10014 C 924.52 -4.06438 -2.08942 0
M  V30 10015 C 925.517 -4.93532 -1.63469 0
M  V30 10016 C 923.202 -4.52109 -2.18867 0
M  V30 10017 C 925.196 -6.24331 -1.28411 0
M  V30 10018 C 922.883 -5.82924 -1.83421 0
M  V30 10019 C 923.881 -6.68858 -1.38267 0
M  V30 10020 O 923.569 -7.97236 -1.03296 0
M  V30 10021 H 923.301 -0.547082 -0.397086 0
M  V30 10022 H 925.855 -1.95806 -0.620424 0
M  V30 10023 H 924.085 -2.22777 -3.16081 0
M  V30 10024 H 925.774 -2.63947 -3.08362 0
M  V30 10025 H 926.54 -4.59479 -1.55255 0
M  V30 10026 H 922.419 -3.85395 -2.52966 0
M  V30 10027 H 925.963 -6.9136 -0.930946 0
M  V30 10028 H 921.86 -6.16507 -1.91282 0
M  V30 10029 H 922.628 -8.10163 -1.16525 0
M  V30 10030 N 925.291 0.760815 -1.38019 0
M  V30 10031 C 926.221 1.88811 -1.37377 0
M  V30 10032 C 927.202 1.68388 -0.240737 0
M  V30 10033 O 928.387 1.89086 -0.442739 0
M  V30 10034 C 925.517 3.26244 -1.1909 0
M  V30 10035 C 924.471 3.61254 -2.29521 0
M  V30 10036 C 923.797 4.97346 -1.96345 0
M  V30 10037 C 925.097 3.66874 -3.71753 0
M  V30 10038 H 926.791 1.89606 -2.31711 0
M  V30 10039 H 924.337 0.910818 -1.11535 0
M  V30 10040 H 926.29 4.04755 -1.17267 0
M  V30 10041 H 925.014 3.2591 -0.212152 0
M  V30 10042 H 923.673 2.85057 -2.30517 0
M  V30 10043 H 923.321 4.93564 -0.969728 0
M  V30 10044 H 923.021 5.21739 -2.703 0
M  V30 10045 H 924.545 5.78244 -1.96129 0
M  V30 10046 H 925.959 4.35514 -3.72828 0
M  V30 10047 H 924.356 4.02772 -4.44853 0
M  V30 10048 H 925.426 2.67273 -4.0459 0
M  V30 10049 N 926.769 1.22769 0.988202 0
M  V30 10050 C 927.719 0.969202 2.06375 0
M  V30 10051 C 928.703 -0.0819274 1.60691 0
M  V30 10052 O 929.895 0.129201 1.76528 0
M  V30 10053 C 927.024 0.553919 3.38802 0
M  V30 10054 C 926.11 1.64003 3.91106 0
M  V30 10055 N 926.501 2.86872 4.16579 0
M  V30 10056 C 924.799 1.5128 4.1956 0
M  V30 10057 C 925.5 3.57137 4.5916 0
M  V30 10058 N 924.476 2.84624 4.63131 0
M  V30 10059 H 928.278 1.90247 2.24017 0
M  V30 10060 H 925.792 1.12592 1.17033 0
M  V30 10061 H 927.789 0.350033 4.15428 0
M  V30 10062 H 926.449 -0.37239 3.22558 0
M  V30 10063 H 927.46 3.23254 4.04632 0
M  V30 10064 H 924.137 0.653032 4.12361 0
M  V30 10065 H 925.527 4.62428 4.87452 0
M  V30 10066 N 928.247 -1.18576 1.03814 0
M  V30 10067 C 929.475 -1.92437 0.759966 0
M  V30 10068 C 929.89 -1.76031 -0.682526 0
M  V30 10069 O 929.247 -1.08829 -1.46501 0
M  V30 10070 C 929.298 -3.43923 1.11351 0
M  V30 10071 O 929.019 -3.5981 2.49937 0
M  V30 10072 C 930.52 -4.34888 0.859472 0
M  V30 10073 H 927.74 -0.610998 0.277349 0
M  V30 10074 H 930.284 -1.50448 1.38512 0
M  V30 10075 H 928.439 -3.83711 0.533362 0
M  V30 10076 H 928.853 -4.53569 2.63393 0
M  V30 10077 H 930.327 -5.39744 1.15672 0
M  V30 10078 H 930.804 -4.38717 -0.205839 0
M  V30 10079 H 931.41 -4.00795 1.42279 0
M  V30 10080 N 929.725 -0.817259 -1.34754 0
M  V30 10081 C 930.974 -0.39908 -1.97713 0
M  V30 10082 C 931.287 1.04203 -1.65533 0
M  V30 10083 O 932.493 1.56384 -2.21937 0
M  V30 10084 C 930.949 -0.662634 -3.53747 0
M  V30 10085 C 930.557 -2.11699 -3.94826 0
M  V30 10086 C 932.301 -0.31034 -4.23364 0
M  V30 10087 C 930.208 -2.32573 -5.4375 0
M  V30 10088 H 929.138 -0.145488 -0.739831 0
M  V30 10089 H 931.789 -1.00282 -1.53674 0
M  V30 10090 H 930.171 0.0111972 -3.95998 0
M  V30 10091 H 931.345 -2.82951 -3.63697 0
M  V30 10092 H 929.66 -2.43017 -3.3813 0
M  V30 10093 H 932.257 -0.44421 -5.32852 0
M  V30 10094 H 932.6 0.744594 -4.09587 0
M  V30 10095 H 933.133 -0.938518 -3.8657 0
M  V30 10096 H 929.872 -3.36551 -5.62507 0
M  V30 10097 H 929.392 -1.65858 -5.76412 0
M  V30 10098 H 931.071 -2.14651 -6.10356 0
M  V30 10099 N 931.203 1.46865 -0.571711 0
M  V30 10100 C 932.619 1.57897 -0.23255 0
M  V30 10101 C 932.819 1.56836 1.26509 0
M  V30 10102 O 931.875 1.47947 2.04617 0
M  V30 10103 C 933.188 2.87778 -0.872036 0
M  V30 10104 C 934.736 3.01389 -0.844605 0
M  V30 10105 C 935.211 4.33991 -1.46343 0
M  V30 10106 N 936.702 4.40662 -1.42727 0
M  V30 10107 C 937.437 5.41858 -1.87557 0
M  V30 10108 N 936.933 6.49787 -2.4031 0
M  V30 10109 N 938.726 5.32992 -1.7854 0
M  V30 10110 H 930.877 1.45798 -1.54457 0
M  V30 10111 H 933.14 0.694785 -0.644964 0
M  V30 10112 H 932.846 2.94332 -1.92513 0
M  V30 10113 H 932.72 3.75345 -0.373677 0
M  V30 10114 H 935.107 2.94423 0.19984 0
M  V30 10115 H 935.188 2.15327 -1.38087 0
M  V30 10116 H 934.832 4.41714 -2.50701 0
M  V30 10117 H 934.762 5.18809 -0.902479 0
M  V30 10118 H 937.253 3.63263 -1.04155 0
M  V30 10119 H 937.566 7.23199 -2.72403 0
M  V30 10120 H 935.911 6.50637 -2.44329 0
M  V30 10121 H 939.102 4.47575 -1.37093 0
M  V30 10122 H 939.275 6.11716 -2.13794 0
M  V30 10123 N 932.681 0.308908 1.54543 0
M  V30 10124 C 933.591 -0.572939 2.27496 0
M  V30 10125 C 934.607 -1.14171 1.31305 0
M  V30 10126 O 935.783 -1.16481 1.64299 0
M  V30 10127 C 932.848 -1.72483 3.0075 0
M  V30 10128 C 931.909 -1.18934 4.12496 0
M  V30 10129 C 931.142 -2.28634 4.82247 0
M  V30 10130 O 931.365 -3.48691 4.5141 0
M  V30 10131 O 930.299 -1.94879 5.69478 0
M  V30 10132 H 934.125 0.0190877 3.03694 0
M  V30 10133 H 931.71 0.0750943 1.49211 0
M  V30 10134 H 933.592 -2.39578 3.46671 0
M  V30 10135 H 932.267 -2.30332 2.2744 0
M  V30 10136 H 931.174 -0.483904 3.70957 0
M  V30 10137 H 932.507 -0.656185 4.87806 0
M  V30 10138 N 934.159 -1.57557 0.0367827 0
M  V30 10139 C 935.384 -1.96828 -0.653707 0
M  V30 10140 C 935.809 -0.913559 -1.64425 0
M  V30 10141 O 935.167 0.124749 -1.8087 0
M  V30 10142 C 935.215 -3.35189 -1.32969 0
M  V30 10143 O 934.319 -3.32095 -2.44513 0
M  V30 10144 H 933.66 -0.64157 -0.171124 0
M  V30 10145 H 936.19 -2.04351 0.100912 0
M  V30 10146 H 936.2 -3.71593 -1.68472 0
M  V30 10147 H 934.875 -4.11496 -0.603654 0
M  V30 10148 H 933.452 -3.07418 -2.11065 0
M  V30 10149 N 935.637 0.236453 -1.55816 0
M  V30 10150 C 936.569 1.31602 -1.87653 0
M  V30 10151 C 937.582 1.43782 -0.763584 0
M  V30 10152 O 938.771 1.44945 -1.04178 0
M  V30 10153 C 935.871 2.69342 -2.05689 0
M  V30 10154 C 935.044 2.79298 -3.36617 0
M  V30 10155 C 934.103 3.97952 -3.44268 0
M  V30 10156 O 933.129 3.86989 -4.17406 0
M  V30 10157 N 934.331 5.11594 -2.74321 0
M  V30 10158 H 937.096 1.04623 -2.80845 0
M  V30 10159 H 934.657 0.426534 -1.5618 0
M  V30 10160 H 936.649 3.47074 -2.08138 0
M  V30 10161 H 935.219 2.88984 -1.19192 0
M  V30 10162 H 934.439 1.8816 -3.46395 0
M  V30 10163 H 935.727 2.82908 -4.22895 0
M  V30 10164 H 935.125 5.23394 -2.14651 0
M  V30 10165 H 933.682 5.87422 -2.8245 0
M  V30 10166 N 937.115 1.49373 0.502552 0
M  V30 10167 C 938.065 1.62321 1.60112 0
M  V30 10168 C 939.049 0.47895 1.53606 0
M  V30 10169 O 940.241 0.731824 1.61162 0
M  V30 10170 C 937.37 1.69162 2.98729 0
M  V30 10171 C 936.456 2.89161 3.10237 0
M  V30 10172 N 936.847 4.13256 2.91638 0
M  V30 10173 C 935.145 2.87065 3.41335 0
M  V30 10174 C 935.846 4.93913 3.07287 0
M  V30 10175 N 934.822 4.27249 3.36094 0
M  V30 10176 H 938.624 2.55989 1.44384 0
M  V30 10177 H 936.138 1.46123 0.708644 0
M  V30 10178 H 938.135 1.76536 3.77678 0
M  V30 10179 H 936.795 0.766301 3.15528 0
M  V30 10180 H 937.806 4.4326 2.67844 0
M  V30 10181 H 934.483 2.03905 3.6432 0
M  V30 10182 H 935.873 6.02491 2.97413 0
M  V30 10183 N 938.594 -0.753485 1.38421 0
M  V30 10184 C 939.841 -1.51261 1.34634 0
M  V30 10185 C 940.169 -1.94396 -0.0635771 0
M  V30 10186 O 939.424 -1.65736 -1.04068 0
M  V30 10187 C 939.723 -2.77836 2.24816 0
M  V30 10188 C 939.389 -2.53662 3.72782 0
M  V30 10189 C 938.051 -2.46779 4.13103 0
M  V30 10190 C 940.403 -2.32548 4.66445 0
M  V30 10191 C 937.731 -2.16796 5.45176 0
M  V30 10192 C 940.083 -2.04085 5.98775 0
M  V30 10193 C 938.747 -1.95658 6.3818 0
M  V30 10194 H 938.017 -0.553503 0.492661 0
M  V30 10195 H 940.664 -0.866406 1.7078 0
M  V30 10196 H 938.969 -3.47106 1.81726 0
M  V30 10197 H 940.666 -3.35793 2.19189 0
M  V30 10198 H 937.256 -2.59891 3.40815 0
M  V30 10199 H 941.44 -2.36845 4.3614 0
M  V30 10200 H 936.696 -2.0878 5.74648 0
M  V30 10201 H 940.87 -1.86751 6.70893 0
M  V30 10202 H 938.497 -1.7219 7.40442 0
M  V30 10203 N 940.072 -1.23292 -0.981677 0
M  V30 10204 C 941.002 -1.03738 -2.09191 0
M  V30 10205 C 941.983 0.0453041 -1.7004 0
M  V30 10206 O 943.168 -0.119092 -1.93834 0
M  V30 10207 C 940.298 -0.626426 -3.41604 0
M  V30 10208 C 939.252 -1.65631 -3.94652 0
M  V30 10209 C 938.578 -1.10084 -5.23245 0
M  V30 10210 C 939.878 -3.04903 -4.24066 0
M  V30 10211 H 941.572 -1.966 -2.25807 0
M  V30 10212 H 939.118 -0.946656 -1.0851 0
M  V30 10213 H 941.071 -0.476689 -4.18695 0
M  V30 10214 H 939.795 0.337873 -3.24848 0
M  V30 10215 H 938.454 -1.79402 -3.19704 0
M  V30 10216 H 938.102 -0.127562 -5.02838 0
M  V30 10217 H 937.802 -1.78896 -5.59705 0
M  V30 10218 H 939.326 -0.962928 -6.02959 0
M  V30 10219 H 940.74 -2.94441 -4.91912 0
M  V30 10220 H 939.137 -3.70941 -4.71724 0
M  V30 10221 H 940.207 -3.53991 -3.31389 0
M  V30 10222 N 941.55 1.18024 -1.04442 0
M  V30 10223 C 942.78 1.91753 -0.769044 0
M  V30 10224 C 943.188 1.76629 0.678141 0
M  V30 10225 O 942.531 1.09589 1.47431 0
M  V30 10226 C 942.593 3.43505 -1.0604 0
M  V30 10227 C 942.257 3.82409 -2.50225 0
M  V30 10228 C 943.254 3.8588 -3.48414 0
M  V30 10229 C 940.939 4.13594 -2.85036 0
M  V30 10230 C 942.933 4.19993 -4.79463 0
M  V30 10231 C 940.62 4.47377 -4.1629 0
M  V30 10232 C 941.618 4.50553 -5.13314 0
M  V30 10233 O 941.306 4.83546 -6.42214 0
M  V30 10234 H 941.038 0.615466 -0.279603 0
M  V30 10235 H 943.592 1.5065 -1.3962 0
M  V30 10236 H 941.822 3.84866 -0.376125 0
M  V30 10237 H 943.511 3.98486 -0.772235 0
M  V30 10238 H 944.277 3.6192 -3.2286 0
M  V30 10239 H 940.156 4.10297 -2.10185 0
M  V30 10240 H 943.7 4.22387 -5.55189 0
M  V30 10241 H 939.597 4.70798 -4.4161 0
M  V30 10242 H 940.365 5.01433 -6.46921 0
M  V30 10243 N 943.028 0.824394 1.34319 0
M  V30 10244 C 944.277 0.40956 1.97498 0
M  V30 10245 C 944.59 -1.03323 1.66083 0
M  V30 10246 O 945.796 -1.55205 2.22764 0
M  V30 10247 C 944.252 0.681384 3.53391 0
M  V30 10248 C 943.86 2.1379 3.93698 0
M  V30 10249 C 945.604 0.332788 4.23194 0
M  V30 10250 C 943.511 2.35453 5.42509 0
M  V30 10251 H 942.441 0.149409 0.739049 0
M  V30 10252 H 945.092 1.01095 1.5314 0
M  V30 10253 H 943.474 0.00980375 3.95999 0
M  V30 10254 H 944.648 2.84876 3.62191 0
M  V30 10255 H 942.963 2.44807 3.36836 0
M  V30 10256 H 945.56 0.472463 5.32609 0
M  V30 10257 H 945.903 -0.722862 4.09976 0
M  V30 10258 H 946.436 0.959005 3.86067 0
M  V30 10259 H 943.175 3.39529 5.60714 0
M  V30 10260 H 942.695 1.68912 5.75525 0
M  V30 10261 H 944.374 2.17885 6.09209 0
M  V30 10262 N 944.506 -1.46559 0.579492 0
M  V30 10263 C 945.416 -2.34066 -0.15816 0
M  V30 10264 C 946.432 -1.49556 -0.88932 0
M  V30 10265 O 947.608 -1.82434 -0.853226 0
M  V30 10266 C 944.673 -3.26683 -1.161 0
M  V30 10267 C 943.734 -4.27092 -0.434855 0
M  V30 10268 C 942.967 -5.15283 -1.38992 0
M  V30 10269 O 943.19 -5.06345 -2.62623 0
M  V30 10270 O 942.124 -5.95099 -0.902253 0
M  V30 10271 H 945.95 -2.98488 0.560234 0
M  V30 10272 H 943.535 -1.45482 0.339918 0
M  V30 10273 H 945.417 -3.8383 -1.73932 0
M  V30 10274 H 944.092 -2.64862 -1.86091 0
M  V30 10275 H 942.999 -3.73641 0.185224 0
M  V30 10276 H 944.332 -4.9169 0.224031 0
M  V30 10277 N 945.984 -0.3171 -1.54377 0
M  V30 10278 C 946.932 0.567371 -2.25574 0
M  V30 10279 C 947.926 1.12387 -1.2675 0
M  V30 10280 O 949.132 1.07266 -1.44548 0
M  V30 10281 H 945.507 0.201605 -0.724472 0
M  V30 10282 H 947.478 -0.0554644 -2.98348 0
M  V30 10283 C 946.227 1.71984 -3.02187 0
M  V30 10284 H 945.55 1.30086 -3.78044 0
M  V30 10285 H 946.99 2.31443 -3.5526 0
M  V30 10286 C 945.449 2.6336 -2.10103 0
M  V30 10287 O 945.979 3.64899 -1.67962 0
M  V30 10288 N 944.185 2.3145 -1.75725 0
M  V30 10289 H 943.732 1.48921 -2.10191 0
M  V30 10290 H 943.69 2.92852 -1.14391 0
M  V30 10291 N 947.462 1.57535 -0.0451378 0
M  V30 10292 C 948.394 2.08109 0.960372 0
M  V30 10293 C 949.407 1.0077 1.27864 0
M  V30 10294 O 950.596 1.28351 1.24049 0
M  V30 10295 C 947.696 2.50414 2.28355 0
M  V30 10296 C 946.869 3.8102 2.14808 0
M  V30 10297 C 945.928 4.09702 3.30198 0
M  V30 10298 O 944.954 4.79715 3.0637 0
M  V30 10299 N 946.156 3.61138 4.54489 0
M  V30 10300 H 948.921 2.94999 0.528752 0
M  V30 10301 H 946.482 1.61283 0.141248 0
M  V30 10302 H 948.474 2.66683 3.04405 0
M  V30 10303 H 947.044 1.68805 2.63104 0
M  V30 10304 H 946.264 3.74392 1.23387 0
M  V30 10305 H 947.552 4.66559 2.02978 0
M  V30 10306 H 946.95 3.04527 4.76739 0
M  V30 10307 H 945.507 3.82656 5.27653 0
M  V30 10308 N 948.94 -0.228186 1.55939 0
M  V30 10309 C 950.187 -0.953552 1.78644 0
M  V30 10310 C 950.515 -1.84596 0.61275 0
M  V30 10311 O 949.77 -1.91502 -0.403175 0
M  V30 10312 C 950.069 -1.82924 3.0704 0
M  V30 10313 C 949.735 -1.09062 4.37511 0
M  V30 10314 C 948.397 -0.886565 4.72962 0
M  V30 10315 C 950.749 -0.568533 5.1809 0
M  V30 10316 C 948.077 -0.148413 5.86512 0
M  V30 10317 C 950.429 0.156243 6.32407 0
M  V30 10318 C 949.093 0.371612 6.66465 0
M  V30 10319 H 948.363 -0.348929 0.653704 0
M  V30 10320 H 951.01 -0.222211 1.90206 0
M  V30 10321 H 949.315 -2.62823 2.90571 0
M  V30 10322 H 951.012 -2.3925 3.21808 0
M  V30 10323 H 947.602 -1.25963 4.09672 0
M  V30 10324 H 951.786 -0.713673 4.91142 0
M  V30 10325 H 947.042 0.0287418 6.11393 0
M  V30 10326 H 951.216 0.568333 6.94077 0
M  V30 10327 H 948.843 0.945522 7.54297 0
M  V30 10328 N 950.418 -1.49637 -0.494624 0
M  V30 10329 C 951.665 -1.59445 -1.24834 0
M  V30 10330 C 951.993 -0.284028 -1.92415 0
M  V30 10331 O 951.248 0.728519 -1.81634 0
M  V30 10332 C 951.547 -2.70749 -2.33302 0
M  V30 10333 C 951.213 -4.12034 -1.83135 0
M  V30 10334 C 949.875 -4.50482 -1.69173 0
M  V30 10335 C 952.227 -5.00432 -1.4566 0
M  V30 10336 C 949.555 -5.75093 -1.16124 0
M  V30 10337 C 951.907 -6.25568 -0.940608 0
M  V30 10338 C 950.571 -6.62839 -0.787432 0
M  V30 10339 H 949.841 -0.583451 -0.456799 0
M  V30 10340 H 952.488 -1.8349 -0.548044 0
M  V30 10341 H 950.793 -2.407 -3.09145 0
M  V30 10342 H 952.49 -2.75546 -2.91334 0
M  V30 10343 H 949.08 -3.8169 -1.94964 0
M  V30 10344 H 953.264 -4.71379 -1.55291 0
M  V30 10345 H 948.52 -6.02665 -1.02982 0
M  V30 10346 H 952.694 -6.93439 -0.641467 0
M  V30 10347 H 950.321 -7.59279 -0.374191 0
M  V30 10348 N 951.896 0.746133 -1.38819 0
M  V30 10349 C 953.145 1.50085 -1.34749 0
M  V30 10350 C 953.458 1.95516 0.0574786 0
M  V30 10351 O 954.664 2.70601 0.22073 0
M  V30 10352 C 953.12 2.71141 -2.36665 0
M  V30 10353 C 952.728 2.32706 -3.82821 0
M  V30 10354 C 954.472 3.49005 -2.41652 0
M  V30 10355 C 952.379 3.50418 -4.76405 0
M  V30 10356 H 951.309 0.563563 -0.500912 0
M  V30 10357 H 953.96 0.814951 -1.6441 0
M  V30 10358 H 952.342 3.4175 -2.00058 0
M  V30 10359 H 953.516 1.69715 -4.28408 0
M  V30 10360 H 951.831 1.67959 -3.81023 0
M  V30 10361 H 954.428 4.36541 -3.08766 0
M  V30 10362 H 954.771 3.90687 -1.43769 0
M  V30 10363 H 955.304 2.85416 -2.77097 0
M  V30 10364 H 952.043 3.13795 -5.75511 0
M  V30 10365 H 951.563 4.12426 -4.35505 0
M  V30 10366 H 953.242 4.16901 -4.94775 0
M  V30 10367 N 953.375 1.23811 0.975125 0
M  V30 10368 C 954.6 1.10109 1.75757 0
M  V30 10369 C 955.025 -0.342922 1.84948 0
M  V30 10370 O 954.383 -1.24814 1.31496 0
M  V30 10371 C 954.431 1.73724 3.15994 0
M  V30 10372 O 953.535 1.00297 4.00018 0
M  V30 10373 H 952.876 0.385627 0.540544 0
M  V30 10374 H 955.406 1.63971 1.22372 0
M  V30 10375 H 955.416 1.79178 3.6655 0
M  V30 10376 H 954.091 2.78794 3.0862 0
M  V30 10377 H 952.668 1.02575 3.58515 0
M  V30 10378 N 954.853 -1.17469 1.05066 0
M  V30 10379 C 956.093 -1.89382 0.769012 0
M  V30 10380 C 956.457 -1.79126 -0.691217 0
M  V30 10381 O 957.658 -2.45845 -1.08692 0
M  V30 10382 C 955.929 -3.35397 1.23465 0
M  V30 10383 S 957.488 -4.25297 1.08018 0
M  V30 10384 H 954.306 -0.653839 0.279312 0
M  V30 10385 H 956.908 -1.41877 1.34503 0
M  V30 10386 H 955.612 -3.40395 2.29258 0
M  V30 10387 H 955.143 -3.87945 0.652853 0
M  V30 10388 H 957.158 -4.962 0.00358573 0
M  V30 10389 N 956.331 -0.831506 -1.3388 0
M  V30 10390 C 957.556 -0.435954 -2.02766 0
M  V30 10391 C 957.981 0.952889 -1.62178 0
M  V30 10392 O 957.339 1.62166 -0.810681 0
M  V30 10393 C 957.387 -0.555907 -3.56289 0
M  V30 10394 O 956.491 0.420826 -4.10247 0
M  V30 10395 H 955.832 -0.178248 -0.639628 0
M  V30 10396 H 958.362 -1.1243 -1.70941 0
M  V30 10397 H 958.372 -0.434831 -4.05676 0
M  V30 10398 H 957.047 -1.56881 -3.85177 0
M  V30 10399 H 955.624 0.257919 -3.72007 0
M  V30 10400 N 957.809 1.4625 -0.587256 0
M  V30 10401 C 959.086 1.95599 -0.00750181 0
M  V30 10402 C 959.466 1.52989 1.45457 0
M  V30 10403 O 958.814 0.782731 2.14676 0
M  V30 10404 C 959.024 3.48513 -0.184309 0
M  V30 10405 C 960.372 4.24565 -0.0544972 0
M  V30 10406 O 961.396 3.5602 -0.113378 0
M  V30 10407 O 960.255 5.46445 0.0774075 0
M  V30 10408 H 957.349 0.825649 0.0472495 0
M  V30 10409 H 959.895 1.56512 -0.655893 0
M  V30 10410 H 958.667 3.72428 -1.20053 0
M  V30 10411 H 958.29 3.9444 0.500301 0
M  V30 10412 N 959.287 0.325282 1.54207 0
M  V30 10413 C 960.535 -0.276229 2.00203 0
M  V30 10414 C 960.856 -1.52519 1.21503 0
M  V30 10415 O 960.126 -1.93313 0.317302 0
M  V30 10416 H 958.706 -0.105059 0.739575 0
M  V30 10417 H 961.368 0.442225 1.89817 0
M  V30 10418 H 960.464 -0.531427 3.07542 0
M  V30 10419 N 960.765 -1.57509 0.0534917 0
M  V30 10420 C 962.181 -1.56696 -0.303067 0
M  V30 10421 C 962.381 -1.06135 -1.71282 0
M  V30 10422 O 961.437 -0.71899 -2.42047 0
M  V30 10423 C 962.75 -3.00421 -0.129418 0
M  V30 10424 C 964.298 -3.12358 -0.200346 0
M  V30 10425 C 964.773 -4.57967 -0.0551971 0
M  V30 10426 N 966.264 -4.63066 -0.111398 0
M  V30 10427 C 966.999 -5.73395 -0.0232344 0
M  V30 10428 N 966.495 -6.92701 0.11741 0
M  V30 10429 N 968.288 -5.62045 -0.078984 0
M  V30 10430 H 960.439 -1.88696 0.975064 0
M  V30 10431 H 962.702 -0.869072 0.378706 0
M  V30 10432 H 962.408 -3.41456 0.842653 0
M  V30 10433 H 962.282 -3.66563 -0.889476 0
M  V30 10434 H 964.669 -2.71221 -1.16289 0
M  V30 10435 H 964.75 -2.48891 0.590506 0
M  V30 10436 H 964.394 -4.9979 0.904034 0
M  V30 10437 H 964.324 -5.19443 -0.865223 0
M  V30 10438 H 966.815 -3.77263 -0.219256 0
M  V30 10439 H 967.128 -7.72597 0.177326 0
M  V30 10440 H 965.473 -6.94833 0.152526 0
M  V30 10441 H 968.664 -4.67725 -0.187434 0
M  V30 10442 H 968.837 -6.48 -0.00681731 0
M  V30 10443 N 962.243 0.219913 -1.56058 0
M  V30 10444 C 963.471 0.960915 -1.83232 0
M  V30 10445 C 963.886 1.77878 -0.632828 0
M  V30 10446 O 963.243 1.78093 0.398624 0
M  V30 10447 C 963.294 1.87716 -3.08942 0
M  V30 10448 O 963.015 1.09235 -4.24263 0
M  V30 10449 C 964.516 2.73192 -3.49115 0
M  V30 10450 H 961.736 0.281546 -0.609075 0
M  V30 10451 H 964.28 0.234648 -2.03149 0
M  V30 10452 H 962.435 2.55736 -2.90995 0
M  V30 10453 H 962.849 1.71446 -4.95688 0
M  V30 10454 H 964.323 3.33181 -4.40107 0
M  V30 10455 H 964.8 3.45668 -2.70943 0
M  V30 10456 H 965.406 2.10583 -3.69506 0
M  V30 10457 N 963.721 1.49897 0.486681 0
M  V30 10458 C 964.967 1.60342 1.2417 0
M  V30 10459 C 965.3 0.295694 1.91936 0
M  V30 10460 O 964.575 -0.701788 1.81398 0
M  V30 10461 C 964.858 2.77281 2.29755 0
M  V30 10462 C 964.711 4.1789 1.66397 0
M  V30 10463 C 966.03 2.89817 3.31201 0
M  V30 10464 H 963.149 0.583605 0.450083 0
M  V30 10465 H 965.791 1.82232 0.537734 0
M  V30 10466 H 963.941 2.58748 2.89796 0
M  V30 10467 H 965.613 4.47975 1.10073 0
M  V30 10468 H 963.856 4.22872 0.967579 0
M  V30 10469 H 964.527 4.95612 2.43049 0
M  V30 10470 H 967.003 3.06732 2.81167 0
M  V30 10471 H 965.879 3.7329 4.02425 0
M  V30 10472 H 966.14 1.9977 3.94391 0
M  V30 10473 N 965.199 -0.738761 1.39212 0
M  V30 10474 C 966.129 -1.86602 1.40364 0
M  V30 10475 C 967.11 -1.67984 0.267495 0
M  V30 10476 O 968.295 -1.88358 0.472765 0
M  V30 10477 C 965.425 -3.24308 1.24265 0
M  V30 10478 C 964.379 -3.57557 2.35239 0
M  V30 10479 C 963.705 -4.94159 2.04233 0
M  V30 10480 C 965.005 -3.60914 3.77543 0
M  V30 10481 H 966.699 -1.85896 2.34698 0
M  V30 10482 H 964.245 -0.892959 1.1297 0
M  V30 10483 H 966.198 -4.02838 1.23692 0
M  V30 10484 H 964.922 -3.25531 0.263974 0
M  V30 10485 H 963.581 -2.81354 2.35022 0
M  V30 10486 H 963.229 -4.91959 1.04813 0
M  V30 10487 H 962.929 -5.17373 2.78567 0
M  V30 10488 H 964.453 -5.7505 2.05303 0
M  V30 10489 H 965.867 -4.29528 3.79709 0
M  V30 10490 H 964.264 -3.95644 4.51205 0
M  V30 10491 H 965.334 -2.60803 4.08791 0
M  V30 10492 N 966.677 -1.24326 -0.968545 0
M  V30 10493 C 967.625 -1.03256 -2.08425 0
M  V30 10494 C 968.619 0.0322356 -1.69369 0
M  V30 10495 O 969.825 -0.122251 -1.79584 0
M  V30 10496 H 966.2 -0.31688 -0.681976 0
M  V30 10497 H 968.171 -1.97873 -2.23358 0
M  V30 10498 C 966.92 -0.653144 -3.4151 0
M  V30 10499 H 966.243 -1.46424 -3.72021 0
M  V30 10500 H 967.683 -0.545316 -4.20479 0
M  V30 10501 C 966.142 0.639674 -3.30771 0
M  V30 10502 O 966.672 1.68563 -3.64622 0
M  V30 10503 N 964.878 0.620074 -2.83907 0
M  V30 10504 H 964.425 -0.231449 -2.56558 0
M  V30 10505 H 964.383 1.48528 -2.77104 0
M  V30 10506 N 968.156 1.1691 -1.05688 0
M  V30 10507 C 969.103 2.21095 -0.662246 0
M  V30 10508 C 970.073 1.62623 0.338083 0
M  V30 10509 O 971.258 1.89428 0.228362 0
M  V30 10510 C 968.398 3.45066 -0.0484018 0
M  V30 10511 C 967.511 4.17809 -1.09817 0
M  V30 10512 C 966.646 5.29281 -0.451114 0
M  V30 10513 C 965.685 5.93817 -1.48484 0
M  V30 10514 N 964.822 6.96793 -0.861588 0
M  V30 10515 H 969.662 2.54204 -1.55513 0
M  V30 10516 H 967.199 1.24863 -0.777665 0
M  V30 10517 H 969.157 4.15932 0.324978 0
M  V30 10518 H 967.787 3.12526 0.807918 0
M  V30 10519 H 966.839 3.45608 -1.58932 0
M  V30 10520 H 968.151 4.61907 -1.88265 0
M  V30 10521 H 967.305 6.06695 -0.0244251 0
M  V30 10522 H 966.044 4.8633 0.365306 0
M  V30 10523 H 965.049 5.1513 -1.92149 0
M  V30 10524 H 966.274 6.38848 -2.30325 0
M  V30 10525 H 964.22 6.55967 -0.0657688 0
M  V30 10526 H 964.137 7.39229 -1.58354 0
M  V30 10527 H 965.405 7.78142 -0.45984 0
M  V30 10528 N 969.634 0.838594 1.33437 0
M  V30 10529 C 970.88 0.434813 1.98084 0
M  V30 10530 C 971.213 -1.00331 1.66275 0
M  V30 10531 O 970.488 -1.70139 0.942501 0
M  V30 10532 C 970.771 0.655602 3.54082 0
M  V30 10533 C 970.624 2.14097 3.95578 0
M  V30 10534 C 971.943 0.101576 4.39983 0
M  V30 10535 H 969.062 0.159456 0.719544 0
M  V30 10536 H 971.704 1.05406 1.58081 0
M  V30 10537 H 969.854 0.128501 3.88287 0
M  V30 10538 H 971.526 2.73292 3.71631 0
M  V30 10539 H 969.769 2.62558 3.4532 0
M  V30 10540 H 970.44 2.24621 5.04231 0
M  V30 10541 H 972.916 0.552122 4.12421 0
M  V30 10542 H 971.792 0.28575 5.48156 0
M  V30 10543 H 972.053 -0.994616 4.30767 0
M  V30 10544 N 971.112 -1.45937 0.595003 0
M  V30 10545 C 972.36 -2.01921 0.0851368 0
M  V30 10546 C 972.681 -1.46748 -1.28413 0
M  V30 10547 O 971.951 -0.656873 -1.84559 0
M  V30 10548 H 970.531 -0.746457 0.0284826 0
M  V30 10549 H 973.193 -1.78891 0.773561 0
M  V30 10550 H 972.289 -3.1209 0.0254002 0
M  V30 10551 N 972.59 -0.333456 -1.54032 0
M  V30 10552 C 973.867 0.320902 -1.9295 0
M  V30 10553 C 974.247 1.69071 -1.26405 0
M  V30 10554 O 973.595 2.24768 -0.411311 0
M  V30 10555 C 973.805 0.403257 -3.46662 0
M  V30 10556 C 975.153 0.658875 -4.19457 0
M  V30 10557 O 976.177 0.485781 -3.52872 0
M  V30 10558 O 975.036 0.993475 -5.37394 0
M  V30 10559 H 972.13 0.185158 -0.806006 0
M  V30 10560 H 974.676 -0.383895 -1.65301 0
M  V30 10561 H 973.448 -0.558409 -3.87295 0
M  V30 10562 H 973.071 1.15524 -3.80447 0
M  V30 10563 N 974.068 1.57479 -0.061844 0
M  V30 10564 C 974.978 2.15645 0.923826 0
M  V30 10565 C 975.994 1.117 1.33413 0
M  V30 10566 O 977.17 1.4392 1.40887 0
M  V30 10567 C 974.235 2.69857 2.17665 0
M  V30 10568 C 973.296 3.88638 1.8237 0
M  V30 10569 C 972.529 4.40256 3.01679 0
M  V30 10570 O 972.752 3.90908 4.15388 0
M  V30 10571 O 971.686 5.31713 2.82073 0
M  V30 10572 H 975.512 3.0021 0.459094 0
M  V30 10573 H 973.097 1.48534 0.160665 0
M  V30 10574 H 974.979 3.04647 2.9115 0
M  V30 10575 H 973.654 1.88357 2.63255 0
M  V30 10576 H 972.561 3.58719 1.06167 0
M  V30 10577 H 973.894 4.71401 1.4157 0
M  V30 10578 N 975.546 -0.211634 1.56173 0
M  V30 10579 C 976.795 -0.932647 1.78842 0
M  V30 10580 C 977.108 -1.85103 0.63217 0
M  V30 10581 O 978.314 -2.61143 0.742746 0
M  V30 10582 C 976.77 -1.70866 3.16753 0
M  V30 10583 C 976.378 -0.835934 4.40132 0
M  V30 10584 C 978.122 -2.4203 3.48743 0
M  V30 10585 C 976.029 -1.60987 5.69067 0
M  V30 10586 H 974.959 -0.351983 0.666801 0
M  V30 10587 H 977.61 -0.186284 1.82552 0
M  V30 10588 H 975.992 -2.4983 3.07247 0
M  V30 10589 H 977.166 -0.0861298 4.60719 0
M  V30 10590 H 975.481 -0.235941 4.15731 0
M  V30 10591 H 978.078 -3.00453 4.42303 0
M  V30 10592 H 978.421 -3.15406 2.71707 0
M  V30 10593 H 978.954 -1.70048 3.59623 0
M  V30 10594 H 975.693 -0.9192 6.49023 0
M  V30 10595 H 975.213 -2.33403 5.52524 0
M  V30 10596 H 976.892 -2.16798 6.09596 0
M  V30 10597 N 977.024 -1.50153 -0.478725 0
M  V30 10598 C 978.27 -1.60998 -1.23318 0
M  V30 10599 C 978.603 -0.305868 -1.91776 0
M  V30 10600 O 977.878 0.692158 -1.81767 0
M  V30 10601 C 978.161 -2.78495 -2.28282 0
M  V30 10602 C 978.014 -4.18767 -1.64178 0
M  V30 10603 C 979.333 -2.91569 -3.2966 0
M  V30 10604 H 976.452 -0.585983 -0.446982 0
M  V30 10605 H 979.094 -1.82514 -0.528063 0
M  V30 10606 H 977.244 -2.60281 -2.8842 0
M  V30 10607 H 978.916 -4.48552 -1.07696 0
M  V30 10608 H 977.159 -4.23379 -0.94514 0
M  V30 10609 H 977.83 -4.96894 -2.40417 0
M  V30 10610 H 980.306 -3.08219 -2.79536 0
M  V30 10611 H 979.182 -3.75419 -4.0044 0
M  V30 10612 H 979.443 -2.01859 -3.93326 0
M  V30 10613 N 978.502 0.731368 -1.39602 0
M  V30 10614 C 979.779 1.48308 -1.27531 0
M  V30 10615 C 980.159 2.10795 0.113482 0
M  V30 10616 O 979.507 1.98886 1.12501 0
M  V30 10617 C 979.717 2.53156 -2.40235 0
M  V30 10618 C 981.065 3.19436 -2.79725 0
M  V30 10619 O 982.089 2.6347 -2.39712 0
M  V30 10620 O 980.948 4.20714 -3.48801 0
M  V30 10621 H 978.042 0.658753 -0.499973 0
M  V30 10622 H 980.588 0.764884 -1.51485 0
M  V30 10623 H 979.36 2.05387 -3.33064 0
M  V30 10624 H 978.983 3.3253 -2.17966 0
M  V30 10625 N 979.98 1.24838 0.961938 0
M  V30 10626 C 981.396 1.01502 1.23165 0
M  V30 10627 C 981.596 -0.272651 1.99647 0
M  V30 10628 O 980.652 -0.987297 2.32398 0
M  V30 10629 C 981.965 2.23366 2.01316 0
M  V30 10630 C 983.513 2.28051 2.14387 0
M  V30 10631 C 983.988 3.49552 2.95935 0
M  V30 10632 N 985.479 3.49904 3.03515 0
M  V30 10633 C 986.214 4.40577 3.66987 0
M  V30 10634 N 985.71 5.41512 4.3213 0
M  V30 10635 N 987.503 4.28275 3.64056 0
M  V30 10636 H 979.654 2.07576 0.450086 0
M  V30 10637 H 981.917 0.911205 0.261551 0
M  V30 10638 H 981.623 3.16913 1.5251 0
M  V30 10639 H 981.497 2.25949 3.02038 0
M  V30 10640 H 983.884 1.35032 2.62393 0
M  V30 10641 H 983.965 2.29491 1.12994 0
M  V30 10642 H 983.609 4.42889 2.4862 0
M  V30 10643 H 983.539 3.45357 3.97538 0
M  V30 10644 H 986.03 2.76885 2.57183 0
M  V30 10645 H 986.343 6.06924 4.78396 0
M  V30 10646 H 984.688 5.45393 4.3078 0
M  V30 10647 H 987.879 3.48653 3.12344 0
M  V30 10648 H 988.052 4.99138 4.13237 0
M  V30 10649 N 981.458 -1.16348 1.06306 0
M  V30 10650 C 982.707 -1.8622 0.774909 0
M  V30 10651 C 983.02 -1.82598 -0.701245 0
M  V30 10652 O 984.226 -2.48051 -1.10377 0
M  V30 10653 C 982.682 -3.34182 1.33604 0
M  V30 10654 C 982.29 -3.46279 2.84245 0
M  V30 10655 C 984.034 -4.09309 1.12544 0
M  V30 10656 C 981.941 -4.88327 3.33602 0
M  V30 10657 H 980.871 -0.697574 0.286194 0
M  V30 10658 H 983.522 -1.31311 1.28179 0
M  V30 10659 H 981.904 -3.88698 0.756937 0
M  V30 10660 H 983.078 -3.01923 3.48108 0
M  V30 10661 H 981.393 -2.84585 3.03974 0
M  V30 10662 H 983.99 -5.14123 1.46909 0
M  V30 10663 H 984.333 -4.16251 0.0638129 0
M  V30 10664 H 984.866 -3.61032 1.67034 0
M  V30 10665 H 981.605 -4.86565 4.39244 0
M  V30 10666 H 981.125 -5.33307 2.74487 0
M  V30 10667 H 982.804 -5.57144 3.28937 0
M  V30 10668 N 982.937 -0.845659 -1.3299 0
M  V30 10669 C 983.867 -0.298957 -2.31578 0
M  V30 10670 C 984.848 0.597012 -1.59279 0
M  V30 10671 O 986.033 0.519142 -1.87132 0
M  V30 10672 C 983.163 0.521109 -3.43368 0
M  V30 10673 C 982.117 -0.279651 -4.27085 0
M  V30 10674 C 981.443 0.664591 -5.30554 0
M  V30 10675 C 982.743 -1.50046 -5.00283 0
M  V30 10676 H 984.437 -1.12272 -2.77552 0
M  V30 10677 H 981.983 -0.54132 -1.33438 0
M  V30 10678 H 983.936 0.913921 -4.1137 0
M  V30 10679 H 982.66 1.37815 -2.96099 0
M  V30 10680 H 981.319 -0.654106 -3.60717 0
M  V30 10681 H 980.967 1.51822 -4.79541 0
M  V30 10682 H 980.667 0.132871 -5.8745 0
M  V30 10683 H 982.191 1.05477 -6.01421 0
M  V30 10684 H 983.605 -1.18044 -5.61016 0
M  V30 10685 H 982.002 -1.96946 -5.66862 0
M  V30 10686 H 983.072 -2.26659 -4.28665 0
M  V30 10687 N 984.415 1.45619 -0.602734 0
M  V30 10688 C 985.362 2.30493 0.118944 0
M  V30 10689 C 986.332 1.41816 0.864723 0
M  V30 10690 O 987.517 1.7075 0.851424 0
M  V30 10691 C 984.657 3.2664 1.11356 0
M  V30 10692 C 983.77 4.3042 0.369161 0
M  V30 10693 C 982.905 5.13678 1.35307 0
M  V30 10694 C 981.944 6.09189 0.596207 0
M  V30 10695 N 981.081 6.85245 1.52916 0
M  V30 10696 H 985.921 2.91672 -0.610836 0
M  V30 10697 H 983.458 1.43731 -0.313032 0
M  V30 10698 H 985.416 3.80846 1.7033 0
M  V30 10699 H 984.046 2.67225 1.81081 0
M  V30 10700 H 983.098 3.78913 -0.335994 0
M  V30 10701 H 984.41 4.98307 -0.221603 0
M  V30 10702 H 983.564 5.7226 2.01502 0
M  V30 10703 H 982.303 4.45798 1.97777 0
M  V30 10704 H 981.308 5.49743 -0.0793984 0
M  V30 10705 H 982.533 6.79096 -0.0233734 0
M  V30 10706 H 980.479 6.20058 2.14159 0
M  V30 10707 H 980.396 7.49467 0.991713 0
M  V30 10708 H 981.664 7.48371 2.18083 0
M  V30 10709 N 985.893 0.34162 1.53853 0
M  V30 10710 C 986.856 -0.503541 2.236 0
M  V30 10711 C 987.856 -1.02912 1.23554 0
M  V30 10712 O 989.046 -0.918678 1.48007 0
M  V30 10713 C 986.178 -1.70126 2.95415 0
M  V30 10714 H 987.371 0.106437 2.99711 0
M  V30 10715 H 984.924 0.0929408 1.56023 0
M  V30 10716 H 985.659 -2.34999 2.23486 0
M  V30 10717 H 985.444 -1.33161 3.68796 0
M  V30 10718 H 986.934 -2.30077 3.48503 0
M  V30 10719 N 987.371 -1.57444 0.0701946 0
M  V30 10720 C 988.321 -2.09154 -0.90767 0
M  V30 10721 C 989.305 -1.00087 -1.25982 0
M  V30 10722 O 990.497 -1.26397 -1.23906 0
M  V30 10723 C 987.626 -2.65544 -2.17581 0
M  V30 10724 C 986.712 -3.81613 -1.85021 0
M  V30 10725 N 987.103 -4.90641 -1.22904 0
M  V30 10726 C 985.401 -3.90878 -2.1478 0
M  V30 10727 C 986.102 -5.71511 -1.084 0
M  V30 10728 N 985.078 -5.1973 -1.59318 0
M  V30 10729 H 988.88 -2.90839 -0.423051 0
M  V30 10730 H 986.394 -1.61848 -0.13374 0
M  V30 10731 H 988.391 -3.00904 -2.88552 0
M  V30 10732 H 987.051 -1.85304 -2.66632 0
M  V30 10733 H 988.062 -5.1004 -0.898878 0
M  V30 10734 H 984.739 -3.21611 -2.66219 0
M  V30 10735 H 986.129 -6.69214 -0.600183 0
M  V30 10736 N 988.849 0.203349 -1.56283 0
M  V30 10737 C 989.796 1.25205 -1.93888 0
M  V30 10738 C 990.766 1.45654 -0.798376 0
M  V30 10739 O 991.951 1.58924 -1.05583 0
M  V30 10740 C 989.091 2.59355 -2.27659 0
M  V30 10741 C 988.204 2.46553 -3.54733 0
M  V30 10742 C 987.339 3.73351 -3.77865 0
M  V30 10743 C 986.378 3.55347 -4.98392 0
M  V30 10744 N 985.515 4.74137 -5.17821 0
M  V30 10745 H 990.355 0.924356 -2.83301 0
M  V30 10746 H 987.892 0.445082 -1.40205 0
M  V30 10747 H 989.85 3.375 -2.45254 0
M  V30 10748 H 988.48 2.90184 -1.41396 0
M  V30 10749 H 987.532 1.59749 -3.45231 0
M  V30 10750 H 988.844 2.2918 -4.43033 0
M  V30 10751 H 987.998 4.59937 -3.95655 0
M  V30 10752 H 986.737 3.9367 -2.8788 0
M  V30 10753 H 985.742 2.67146 -4.80534 0
M  V30 10754 H 986.967 3.36482 -5.89879 0
M  V30 10755 H 984.913 4.94735 -4.30782 0
M  V30 10756 H 984.83 4.59558 -6.00285 0
M  V30 10757 H 986.098 5.62098 -5.40061 0
M  V30 10758 N 990.327 1.50405 0.470755 0
M  V30 10759 C 991.259 1.65447 1.58619 0
M  V30 10760 C 992.272 0.535949 1.53725 0
M  V30 10761 O 993.461 0.80914 1.59107 0
M  V30 10762 C 990.561 1.62318 2.975 0
M  V30 10763 C 989.734 2.90207 3.27259 0
M  V30 10764 C 988.793 2.79717 4.45696 0
M  V30 10765 O 987.819 3.53672 4.45987 0
M  V30 10766 N 989.021 1.93296 5.47373 0
M  V30 10767 H 991.786 2.61659 1.46132 0
M  V30 10768 H 989.347 1.47873 0.659178 0
M  V30 10769 H 991.339 1.52912 3.747 0
M  V30 10770 H 989.909 0.738392 3.03754 0
M  V30 10771 H 989.129 3.13737 2.38669 0
M  V30 10772 H 990.417 3.74931 3.43953 0
M  V30 10773 H 989.815 1.32524 5.49958 0
M  V30 10774 H 988.372 1.89793 6.23556 0
M  V30 10775 N 991.805 -0.723954 1.39988 0
M  V30 10776 C 993.053 -1.48078 1.3754 0
M  V30 10777 C 993.374 -1.94985 -0.0243358 0
M  V30 10778 O 992.644 -1.69764 -0.977602 0
M  V30 10779 H 991.224 -0.549354 0.506181 0
M  V30 10780 H 993.886 -0.858746 1.74962 0
M  V30 10781 H 992.982 -2.35763 2.04505 0
M  V30 10782 N 993.283 -1.25346 -0.955304 0
M  V30 10783 C 994.529 -1.11226 -1.70295 0
M  V30 10784 C 994.884 0.343362 -1.89311 0
M  V30 10785 O 994.177 1.24953 -1.45249 0
M  V30 10786 C 994.371 -1.7993 -3.08804 0
M  V30 10787 C 994.2 -3.32023 -3.033 0
M  V30 10788 C 992.97 -4.01274 -3.07094 0
M  V30 10789 C 995.168 -4.28431 -2.84519 0
M  V30 10790 N 993.15 -5.40149 -2.91741 0
M  V30 10791 C 994.521 -5.54386 -2.7759 0
M  V30 10792 C 996.576 -4.18854 -2.69194 0
M  V30 10793 C 995.279 -6.71859 -2.56902 0
M  V30 10794 C 997.305 -5.36018 -2.49876 0
M  V30 10795 C 996.667 -6.60913 -2.43667 0
M  V30 10796 H 992.766 -0.461707 -0.631151 0
M  V30 10797 H 995.35 -1.58437 -1.13162 0
M  V30 10798 H 993.521 -1.35214 -3.64104 0
M  V30 10799 H 995.253 -1.58557 -3.72346 0
M  V30 10800 H 992.008 -3.52529 -3.1626 0
M  V30 10801 H 992.432 -6.13029 -2.8727 0
M  V30 10802 H 997.074 -3.23043 -2.7277 0
M  V30 10803 H 994.792 -7.67781 -2.52068 0
M  V30 10804 H 998.378 -5.30468 -2.38944 0
M  V30 10805 H 997.258 -7.50045 -2.28914 0
M  V30 10806 N 994.761 1.15782 -1.06922 0
M  V30 10807 C 996.001 1.88135 -0.799043 0
M  V30 10808 C 996.365 1.80203 0.662632 0
M  V30 10809 O 997.566 2.47543 1.04767 0
M  V30 10810 C 995.837 3.3339 -1.28786 0
M  V30 10811 S 997.396 4.23525 -1.1477 0
M  V30 10812 H 994.214 0.649313 -0.289679 0
M  V30 10813 H 996.816 1.3972 -1.36743 0
M  V30 10814 H 995.52 3.36705 -2.34645 0
M  V30 10815 H 995.051 3.86857 -0.714489 0
M  V30 10816 H 997.066 4.96131 -0.0825264 0
M  V30 10817 N 996.239 0.8527 1.3254 0
M  V30 10818 C 997.469 0.468363 2.01221 0
M  V30 10819 C 997.877 -0.938966 1.64256 0
M  V30 10820 O 997.22 -1.62387 0.858837 0
M  V30 10821 C 997.282 0.525457 3.55639 0
M  V30 10822 C 996.946 1.89133 4.16026 0
M  V30 10823 C 997.943 2.85652 4.34395 0
M  V30 10824 C 995.628 2.18795 4.52144 0
M  V30 10825 C 997.622 4.09985 4.88048 0
M  V30 10826 C 995.309 3.43381 5.05502 0
M  V30 10827 C 996.307 4.38792 5.23403 0
M  V30 10828 O 995.995 5.61173 5.75622 0
M  V30 10829 H 995.727 0.182712 0.65084 0
M  V30 10830 H 998.281 1.15076 1.70138 0
M  V30 10831 H 996.511 -0.213779 3.86109 0
M  V30 10832 H 998.2 0.156999 4.05596 0
M  V30 10833 H 998.966 2.6404 4.06827 0
M  V30 10834 H 994.845 1.45317 4.37498 0
M  V30 10835 H 998.389 4.84465 5.01936 0
M  V30 10836 H 994.286 3.64844 5.32503 0
M  V30 10837 H 995.054 5.63104 5.94017 0
M  V30 10838 N 997.718 -1.45297 0.610449 0
M  V30 10839 C 999.134 -1.57225 0.274332 0
M  V30 10840 C 999.334 -1.60136 -1.22306 0
M  V30 10841 O 998.39 -1.5332 -2.00622 0
M  V30 10842 C 999.703 -2.85365 0.948028 0
M  V30 10843 C 1001.25 -2.99044 0.924216 0
M  V30 10844 C 1001.73 -4.29958 1.57798 0
M  V30 10845 N 1003.22 -4.36723 1.5436 0
M  V30 10846 C 1003.95 -5.36695 2.01857 0
M  V30 10847 N 1003.45 -6.43187 2.57453 0
M  V30 10848 N 1005.24 -5.28071 1.92608 0
M  V30 10849 H 997.392 -1.41651 1.58268 0
M  V30 10850 H 999.655 -0.67744 0.663158 0
M  V30 10851 H 999.361 -2.89125 2.00249 0
M  V30 10852 H 999.235 -3.74222 0.473062 0
M  V30 10853 H 1001.62 -2.94849 -0.121709 0
M  V30 10854 H 1001.7 -2.1159 1.43748 0
M  V30 10855 H 1001.35 -4.34912 2.62325 0
M  V30 10856 H 1001.28 -5.16234 1.03972 0
M  V30 10857 H 1003.77 -3.60374 1.13749 0
M  V30 10858 H 1004.08 -7.15722 2.91482 0
M  V30 10859 H 1002.43 -6.4393 2.61493 0
M  V30 10860 H 1005.62 -4.43783 1.48912 0
M  V30 10861 H 1005.79 -6.05832 2.29938 0
M  V30 10862 N 999.196 -0.349774 -1.5367 0
M  V30 10863 C 1000.44 0.245189 -2.01312 0
M  V30 10864 C 1000.77 1.49702 -1.23705 0
M  V30 10865 O 1000.05 1.91742 -0.326371 0
M  V30 10866 C 1000.33 0.553071 -3.55827 0
M  V30 10867 C 1000.19 -0.71129 -4.4414 0
M  V30 10868 C 1001.5 1.36015 -4.18555 0
M  V30 10869 H 998.624 0.0876415 -0.73177 0
M  V30 10870 H 1001.27 -0.471543 -1.84056 0
M  V30 10871 H 999.416 1.16367 -3.70663 0
M  V30 10872 H 1001.09 -1.34913 -4.41131 0
M  V30 10873 H 999.331 -1.33491 -4.1275 0
M  V30 10874 H 1000 -0.45104 -5.50154 0
M  V30 10875 H 1002.48 0.843778 -4.07455 0
M  V30 10876 H 1001.35 1.54432 -5.26728 0
M  V30 10877 H 1001.61 2.36408 -3.73582 0
M  V30 10878 N 1000.67 1.57404 -0.0785433 0
M  V30 10879 C 1001.9 1.97787 0.596995 0
M  V30 10880 C 1002.31 0.955904 1.63276 0
M  V30 10881 O 1001.65 -0.0649169 1.83585 0
M  V30 10882 C 1001.72 3.34499 1.31723 0
M  V30 10883 C 1001.38 4.54933 0.434144 0
M  V30 10884 C 1002.38 5.18969 -0.311015 0
M  V30 10885 C 1000.06 5.01029 0.357046 0
M  V30 10886 C 1002.06 6.27457 -1.12142 0
M  V30 10887 C 999.744 6.09389 -0.457029 0
M  V30 10888 C 1000.74 6.72466 -1.19493 0
M  V30 10889 O 1000.43 7.78738 -1.99556 0
M  V30 10890 H 1000.16 0.655294 0.166028 0
M  V30 10891 H 1002.72 2.04855 -0.149517 0
M  V30 10892 H 1000.95 3.24064 2.10996 0
M  V30 10893 H 1002.63 3.5944 1.88567 0
M  V30 10894 H 1003.4 4.84297 -0.261084 0
M  V30 10895 H 999.28 4.51706 0.921026 0
M  V30 10896 H 1002.82 6.76622 -1.69788 0
M  V30 10897 H 998.721 6.43494 -0.508499 0
M  V30 10898 H 999.489 7.95648 -1.9206 0
M  V30 10899 N 1002.15 -0.195058 1.56388 0
M  V30 10900 C 1003.4 -0.9168 1.80894 0
M  V30 10901 C 1003.73 -1.82907 0.652592 0
M  V30 10902 O 1003.01 -1.91382 -0.346853 0
M  V30 10903 C 1003.29 -1.733 3.15657 0
M  V30 10904 C 1003.14 -0.845449 4.41783 0
M  V30 10905 C 1004.46 -2.70557 3.47112 0
M  V30 10906 H 1001.58 -0.331861 0.658056 0
M  V30 10907 H 1004.22 -0.184174 1.89105 0
M  V30 10908 H 1002.37 -2.3576 3.08787 0
M  V30 10909 H 1004.04 -0.235557 4.60698 0
M  V30 10910 H 1002.29 -0.152172 4.33533 0
M  V30 10911 H 1002.96 -1.45152 5.32574 0
M  V30 10912 H 1005.43 -2.1823 3.54281 0
M  V30 10913 H 1004.31 -3.24749 4.42526 0
M  V30 10914 H 1004.57 -3.49605 2.70608 0
M  V30 10915 N 1003.63 -1.50653 -0.462772 0
M  V30 10916 C 1004.56 -1.73056 -1.5676 0
M  V30 10917 C 1005.54 -0.579699 -1.59917 0
M  V30 10918 O 1006.73 -0.819729 -1.76051 0
M  V30 10919 C 1003.86 -1.83234 -2.9503 0
M  V30 10920 C 1002.81 -2.98488 -3.06739 0
M  V30 10921 C 1002.14 -2.93818 -4.46738 0
M  V30 10922 C 1003.44 -4.38869 -2.83181 0
M  V30 10923 H 1005.13 -2.65562 -1.38265 0
M  V30 10924 H 1002.68 -1.27792 -0.663722 0
M  V30 10925 H 1004.63 -1.97491 -3.72257 0
M  V30 10926 H 1003.35 -0.873558 -3.14701 0
M  V30 10927 H 1002.01 -2.83895 -2.31946 0
M  V30 10928 H 1001.66 -1.95769 -4.63339 0
M  V30 10929 H 1001.36 -3.71197 -4.55507 0
M  V30 10930 H 1002.88 -3.10135 -5.25974 0
M  V30 10931 H 1004.3 -4.53945 -3.50153 0
M  V30 10932 H 1002.69 -5.17762 -3.03386 0
M  V30 10933 H 1003.76 -4.50663 -1.78972 0
M  V30 10934 N 1005.11 0.71652 -1.4037 0
M  V30 10935 C 1006.04 1.84345 -1.43315 0
M  V30 10936 C 1007.02 1.67537 -0.294186 0
M  V30 10937 O 1008.2 1.87582 -0.502671 0
M  V30 10938 C 1005.33 3.2229 -1.29408 0
M  V30 10939 C 1004.29 3.53769 -2.40897 0
M  V30 10940 C 1003.61 4.90847 -2.12068 0
M  V30 10941 C 1004.91 3.54862 -3.83237 0
M  V30 10942 H 1006.61 1.82138 -2.37626 0
M  V30 10943 H 1004.15 0.874873 -1.14376 0
M  V30 10944 H 1006.11 4.00819 -1.30085 0
M  V30 10945 H 1004.83 3.2507 -0.31573 0
M  V30 10946 H 1003.49 2.77579 -2.39469 0
M  V30 10947 H 1003.14 4.90229 -1.12626 0
M  V30 10948 H 1002.84 5.12875 -2.86762 0
M  V30 10949 H 1004.36 5.71711 -2.14426 0
M  V30 10950 H 1005.78 4.23432 -3.86494 0
M  V30 10951 H 1004.17 3.88416 -4.57442 0
M  V30 10952 H 1005.24 2.54266 -4.12888 0
M  V30 10953 N 1006.59 1.25851 0.948643 0
M  V30 10954 C 1008 1.09975 1.50872 0
M  V30 10955 C 1008.35 -0.322497 1.93531 0
M  V30 10956 O 1007.47 -1.21316 1.79197 0
M  V30 10957 C 1008.07 1.99021 2.74182 0
M  V30 10958 C 1006.63 1.87313 3.26483 0
M  V30 10959 C 1005.77 1.92815 1.99293 0
M  V30 10960 H 1008.73 1.3905 0.764908 0
M  V30 10961 H 1008.75 1.53372 3.4822 0
M  V30 10962 H 1008.26 3.02527 2.43103 0
M  V30 10963 H 1006.36 0.867136 3.62369 0
M  V30 10964 H 1006.47 2.72446 3.94094 0
M  V30 10965 H 1004.84 1.36774 2.1486 0
M  V30 10966 H 1005.62 2.97936 1.70554 0
M  V30 10967 N 1008.06 -1.15214 1.07534 0
M  V30 10968 C 1008.99 -2.2216 0.718837 0
M  V30 10969 C 1009.98 -1.6753 -0.29459 0
M  V30 10970 O 1011.16 -1.93481 -0.166931 0
M  V30 10971 C 1008.29 -3.471 0.117836 0
M  V30 10972 C 1007.24 -4.14701 1.05862 0
M  V30 10973 C 1006.57 -5.3374 0.320284 0
M  V30 10974 C 1007.87 -4.64254 2.39302 0
M  V30 10975 H 1009.56 -2.52237 1.61297 0
M  V30 10976 H 1007.11 -1.21239 0.776992 0
M  V30 10977 H 1009.06 -4.21156 -0.143519 0
M  V30 10978 H 1007.79 -3.16361 -0.811389 0
M  V30 10979 H 1006.45 -3.42589 1.30493 0
M  V30 10980 H 1006.09 -4.99257 -0.61246 0
M  V30 10981 H 1005.79 -5.79912 0.947381 0
M  V30 10982 H 1007.32 -6.10563 0.0667721 0
M  V30 10983 H 1008.73 -5.29827 2.18988 0
M  V30 10984 H 1007.13 -5.21095 2.97623 0
M  V30 10985 H 1008.2 -3.79793 3.01472 0
M  V30 10986 N 1009.54 -0.859717 -1.32086 0
M  V30 10987 C 1010.47 -0.323502 -2.31248 0
M  V30 10988 C 1011.45 0.580085 -1.59903 0
M  V30 10989 O 1012.64 0.499265 -1.87673 0
M  V30 10990 C 1009.77 0.484661 -3.43902 0
M  V30 10991 C 1008.72 -0.324933 -4.26765 0
M  V30 10992 C 1008.05 0.608281 -5.31229 0
M  V30 10993 C 1009.35 -1.55344 -4.98664 0
M  V30 10994 H 1011.04 -1.15209 -2.76346 0
M  V30 10995 H 1008.59 -0.555442 -1.32856 0
M  V30 10996 H 1010.54 0.870238 -4.12316 0
M  V30 10997 H 1009.27 1.34666 -2.97544 0
M  V30 10998 H 1007.92 -0.692328 -3.60003 0
M  V30 10999 H 1007.57 1.46727 -4.81124 0
M  V30 11000 H 1007.27 0.0705571 -5.87558 0
M  V30 11001 H 1008.8 0.990925 -6.02506 0
M  V30 11002 H 1010.21 -1.23987 -5.59732 0
M  V30 11003 H 1008.61 -2.02947 -5.64741 0
M  V30 11004 H 1009.68 -2.31192 -4.26237 0
M  V30 11005 N 1011.02 1.44971 -0.618145 0
M  V30 11006 C 1012.43 1.85611 -0.201334 0
M  V30 11007 C 1012.78 1.51698 1.24427 0
M  V30 11008 O 1011.91 0.94875 1.94493 0
M  V30 11009 C 1012.5 3.36897 -0.358619 0
M  V30 11010 C 1011.06 3.764 0.00358196 0
M  V30 11011 C 1010.21 2.68881 -0.678118 0
M  V30 11012 H 1013.16 1.35622 -0.824152 0
M  V30 11013 H 1013.18 3.78326 0.406176 0
M  V30 11014 H 1012.69 3.61548 -1.41084 0
M  V30 11015 H 1010.79 3.57365 1.05457 0
M  V30 11016 H 1010.91 4.77449 -0.397427 0
M  V30 11017 H 1009.27 2.54442 -0.114699 0
M  V30 11018 H 1010.05 2.96367 -1.73268 0
M  V30 11019 N 1012.5 0.357919 1.53482 0
M  V30 11020 C 1013.75 -0.2337 2.00744 0
M  V30 11021 C 1014.07 -1.49908 1.2471 0
M  V30 11022 O 1013.34 -1.92597 0.358235 0
M  V30 11023 H 1011.92 -0.0893474 0.741637 0
M  V30 11024 H 1014.58 0.482388 1.88836 0
M  V30 11025 H 1013.68 -0.466073 3.086 0
M  V30 11026 N 1013.98 -1.5736 0.0868897 0
M  V30 11027 C 1015.22 -1.94054 -0.578741 0
M  V30 11028 C 1015.55 -0.968047 -1.68698 0
M  V30 11029 O 1014.81 0.0137824 -1.95695 0
M  V30 11030 C 1015.11 -3.37316 -1.18123 0
M  V30 11031 C 1014.77 -4.50467 -0.197607 0
M  V30 11032 C 1013.43 -4.81145 0.072952 0
M  V30 11033 C 1015.79 -5.19036 0.474473 0
M  V30 11034 C 1013.11 -5.77723 1.02242 0
M  V30 11035 C 1015.47 -6.16632 1.41236 0
M  V30 11036 C 1014.13 -6.45719 1.69124 0
M  V30 11037 H 1013.4 -0.710093 -0.211776 0
M  V30 11038 H 1016.05 -1.90822 0.160978 0
M  V30 11039 H 1014.35 -3.37085 -1.99701 0
M  V30 11040 H 1016.05 -3.63003 -1.7038 0
M  V30 11041 H 1012.64 -4.2655 -0.418669 0
M  V30 11042 H 1016.82 -4.95518 0.278581 0
M  V30 11043 H 1012.08 -5.98578 1.24557 0
M  V30 11044 H 1016.25 -6.68862 1.939 0
M  V30 11045 H 1013.88 -7.20365 2.42855 0
M  V30 11046 N 1015.45 0.186762 -1.56489 0
M  V30 11047 C 1016.36 1.25169 -1.98419 0
M  V30 11048 C 1017.38 1.49329 -0.893124 0
M  V30 11049 O 1018.56 1.61781 -1.19954 0
M  V30 11050 C 1015.62 2.57422 -2.32239 0
M  V30 11051 C 1014.68 2.4126 -3.55095 0
M  V30 11052 C 1013.92 3.67206 -3.87292 0
M  V30 11053 O 1014.14 4.71731 -3.20665 0
M  V30 11054 O 1013.07 3.62238 -4.80695 0
M  V30 11055 H 1016.9 0.925834 -2.89244 0
M  V30 11056 H 1014.48 0.392421 -1.44154 0
M  V30 11057 H 1016.37 3.35466 -2.5503 0
M  V30 11058 H 1015.04 2.89618 -1.44579 0
M  V30 11059 H 1013.95 1.61299 -3.37541 0
M  V30 11060 H 1015.28 2.13994 -4.43247 0
M  V30 11061 N 1016.93 1.50896 0.454776 0
M  V30 11062 C 1018.18 1.62378 1.20324 0
M  V30 11063 C 1018.5 0.333883 1.9212 0
M  V30 11064 O 1017.77 -0.649477 1.8482 0
M  V30 11065 H 1016.35 0.598395 0.447139 0
M  V30 11066 H 1019.01 1.87749 0.523102 0
M  V30 11067 H 1018.11 2.44296 1.94232 0
M  V30 11068 N 1018.41 -0.709066 1.40748 0
M  V30 11069 C 1019.69 -1.4626 1.29874 0
M  V30 11070 C 1020.07 -2.10949 -0.0799322 0
M  V30 11071 O 1019.42 -2.00651 -1.09323 0
M  V30 11072 C 1019.63 -2.49302 2.44232 0
M  V30 11073 C 1020.97 -3.14945 2.84771 0
M  V30 11074 O 1022 -2.59623 2.43873 0
M  V30 11075 O 1020.86 -4.15111 3.5545 0
M  V30 11076 H 1017.95 -0.650716 0.51039 0
M  V30 11077 H 1020.5 -0.740687 1.52682 0
M  V30 11078 H 1019.27 -2.00063 3.36289 0
M  V30 11079 H 1018.89 -3.29021 2.23229 0
M  V30 11080 N 1019.89 -1.26353 -0.941956 0
M  V30 11081 C 1021.14 -1.11241 -1.68251 0
M  V30 11082 C 1021.45 0.344055 -1.9255 0
M  V30 11083 O 1022.66 0.615832 -2.64423 0
M  V30 11084 C 1021.11 -1.94269 -3.02965 0
M  V30 11085 C 1020.72 -3.44485 -2.86415 0
M  V30 11086 C 1022.47 -1.87764 -3.80716 0
M  V30 11087 C 1020.37 -4.19763 -4.16597 0
M  V30 11088 H 1019.3 -0.412694 -0.63103 0
M  V30 11089 H 1021.95 -1.50656 -1.04762 0
M  V30 11090 H 1020.34 -1.47687 -3.6743 0
M  V30 11091 H 1021.51 -3.9883 -2.30805 0
M  V30 11092 H 1019.82 -3.52218 -2.22107 0
M  V30 11093 H 1022.42 -2.41292 -4.77161 0
M  V30 11094 H 1022.76 -0.848195 -4.07568 0
M  V30 11095 H 1023.3 -2.32165 -3.23024 0
M  V30 11096 H 1020.04 -5.23173 -3.9493 0
M  V30 11097 H 1019.56 -3.70198 -4.71925 0
M  V30 11098 H 1021.24 -4.28168 -4.85058 0
M  V30 11099 N 1021.37 1.14642 -1.08144 0
M  V30 11100 C 1022.59 1.90025 -0.830972 0
M  V30 11101 C 1023.02 1.77904 0.610879 0
M  V30 11102 O 1022.38 1.11735 1.42776 0
M  V30 11103 C 1022.42 3.38085 -1.25422 0
M  V30 11104 O 1021.53 4.10412 -0.404486 0
M  V30 11105 H 1020.87 0.591327 -0.302041 0
M  V30 11106 H 1023.4 1.4513 -1.44216 0
M  V30 11107 H 1023.41 3.88894 -1.23391 0
M  V30 11108 H 1022.08 3.46226 -2.30435 0
M  V30 11109 H 1020.66 3.69693 -0.487987 0
M  V30 11110 N 1022.85 0.866709 1.31628 0
M  V30 11111 C 1024.07 0.49039 2.01004 0
M  V30 11112 C 1024.49 -0.916244 1.65077 0
M  V30 11113 O 1023.85 -1.59975 0.8783 0
M  V30 11114 C 1023.9 0.634011 3.55897 0
M  V30 11115 O 1023.62 1.98525 3.90537 0
M  V30 11116 C 1025.12 0.258277 4.42547 0
M  V30 11117 H 1022.34 0.191421 0.643117 0
M  V30 11118 H 1024.88 1.16698 1.67934 0
M  V30 11119 H 1023.04 0.00501801 3.874 0
M  V30 11120 H 1023.45 1.99067 4.85255 0
M  V30 11121 H 1024.93 0.409733 5.50477 0
M  V30 11122 H 1025.4 -0.802301 4.3181 0
M  V30 11123 H 1026.01 0.862837 4.16456 0
M  V30 11124 N 1024.32 -1.44642 0.625825 0
M  V30 11125 C 1025.57 -2.01695 0.127948 0
M  V30 11126 C 1025.89 -1.49439 -1.25271 0
M  V30 11127 O 1025.16 -0.695873 -1.83124 0
M  V30 11128 H 1023.74 -0.745685 0.0443096 0
M  V30 11129 H 1026.4 -1.7721 0.811332 0
M  V30 11130 H 1025.5 -3.11966 0.0915933 0
M  V30 11131 N 1025.8 -0.366053 -1.5329 0
M  V30 11132 C 1027.05 0.223051 -2.00865 0
M  V30 11133 C 1027.37 1.49244 -1.25504 0
M  V30 11134 O 1026.64 1.92404 -0.368444 0
M  V30 11135 H 1025.22 0.085413 -0.742101 0
M  V30 11136 H 1027.88 -0.492396 -1.88578 0
M  V30 11137 H 1026.98 0.449701 -3.08843 0
M  V30 11138 N 1027.28 1.57312 -0.0952337 0
M  V30 11139 C 1028.53 1.93974 0.567319 0
M  V30 11140 C 1028.85 0.977805 1.68713 0
M  V30 11141 O 1028.12 0.0298944 1.95877 0
M  V30 11142 H 1026.7 0.71612 0.212558 0
M  V30 11143 H 1029.36 1.94254 -0.158598 0
M  V30 11144 H 1028.46 2.964 0.977423 0
M  V30 11145 N 1028.76 -0.17846 1.56586 0
M  V30 11146 C 1029.71 -1.24042 1.96765 0
M  V30 11147 C 1030.7 -1.46218 0.855375 0
M  V30 11148 O 1031.91 -1.46882 1.04046 0
M  V30 11149 H 1028.28 -0.416807 0.62592 0
M  V30 11150 H 1030.25 -0.874644 2.85294 0
M  V30 11151 C 1029 -2.57394 2.3376 0
M  V30 11152 H 1028.32 -2.41151 3.18883 0
M  V30 11153 H 1029.76 -3.30405 2.65723 0
M  V30 11154 C 1028.22 -3.15621 1.17835 0
M  V30 11155 O 1028.75 -3.99032 0.462202 0
M  V30 11156 N 1026.96 -2.74606 0.950783 0
M  V30 11157 H 1026.51 -2.06878 1.5349 0
M  V30 11158 H 1026.46 -3.13902 0.176967 0
M  V30 11159 N 1030.24 -1.51135 -0.446768 0
M  V30 11160 C 1031.46 -1.67411 -1.22427 0
M  V30 11161 C 1031.89 -0.367009 -1.84485 0
M  V30 11162 O 1031.24 0.67185 -1.68392 0
M  V30 11163 C 1031.29 -2.78473 -2.29096 0
M  V30 11164 O 1030.4 -2.41419 -3.34351 0
M  V30 11165 H 1029.74 -0.558512 -0.359111 0
M  V30 11166 H 1032.27 -1.97648 -0.5288 0
M  V30 11167 H 1032.28 -3.02277 -2.7403 0
M  V30 11168 H 1030.95 -3.73326 -1.83304 0
M  V30 11169 H 1029.53 -2.28152 -2.9496 0
M  V30 11170 N 1031.71 0.701592 -1.41122 0
M  V30 11171 C 1032.96 1.45722 -1.39456 0
M  V30 11172 C 1033.28 1.95599 -0.00475228 0
M  V30 11173 O 1034.48 2.71166 0.134529 0
M  V30 11174 C 1032.94 2.63475 -2.45172 0
M  V30 11175 C 1032.55 2.20409 -3.90031 0
M  V30 11176 C 1034.29 3.4114 -2.52633 0
M  V30 11177 C 1032.2 3.35084 -4.87312 0
M  V30 11178 H 1031.13 0.547341 -0.518588 0
M  V30 11179 H 1033.78 0.762233 -1.6692 0
M  V30 11180 H 1032.16 3.35212 -2.10829 0
M  V30 11181 H 1033.33 1.56 -4.3359 0
M  V30 11182 H 1031.65 1.55752 -3.86174 0
M  V30 11183 H 1034.25 4.26496 -3.22498 0
M  V30 11184 H 1034.59 3.85915 -1.56125 0
M  V30 11185 H 1035.12 2.76456 -2.86037 0
M  V30 11186 H 1031.86 2.95327 -5.85203 0
M  V30 11187 H 1031.38 3.98362 -4.48406 0
M  V30 11188 H 1033.06 4.00949 -5.07788 0
M  V30 11189 N 1033.19 1.2685 0.935242 0
M  V30 11190 C 1034.12 1.04717 2.0388 0
M  V30 11191 C 1035.14 0.00567507 1.62799 0
M  V30 11192 O 1036.33 0.246408 1.76791 0
M  V30 11193 C 1033.43 0.56496 3.34158 0
M  V30 11194 C 1032.6 1.67704 4.03973 0
M  V30 11195 C 1031.66 1.19186 5.12524 0
M  V30 11196 O 1030.68 1.89008 5.36903 0
M  V30 11197 N 1031.89 0.0434554 5.80484 0
M  V30 11198 H 1034.65 1.99746 2.23431 0
M  V30 11199 H 1032.21 1.18316 1.10512 0
M  V30 11200 H 1034.2 0.224436 4.04077 0
M  V30 11201 H 1032.77 -0.291899 3.11234 0
M  V30 11202 H 1031.99 2.18821 3.27889 0
M  V30 11203 H 1033.28 2.42361 4.47368 0
M  V30 11204 H 1032.68 -0.539502 5.63122 0
M  V30 11205 H 1031.24 -0.237946 6.51366 0
M  V30 11206 N 1034.67 -1.14067 1.0875 0
M  V30 11207 C 1035.63 -2.17453 0.724341 0
M  V30 11208 C 1036.63 -1.58959 -0.242614 0
M  V30 11209 O 1037.82 -1.74186 -0.0217008 0
M  V30 11210 C 1034.96 -3.40828 0.0700236 0
M  V30 11211 H 1036.15 -2.51094 1.63987 0
M  V30 11212 H 1033.7 -1.28775 0.885813 0
M  V30 11213 H 1034.44 -3.1277 -0.857061 0
M  V30 11214 H 1034.22 -3.84551 0.76569 0
M  V30 11215 H 1035.71 -4.17258 -0.168905 0
M  V30 11216 N 1036.15 -0.873678 -1.31166 0
M  V30 11217 C 1037.4 -0.482577 -1.95842 0
M  V30 11218 C 1037.71 0.970881 -1.69804 0
M  V30 11219 O 1038.92 1.4683 -2.28371 0
M  V30 11220 C 1037.37 -0.812074 -3.50619 0
M  V30 11221 C 1036.98 -2.28254 -3.85492 0
M  V30 11222 C 1038.72 -0.489624 -4.21667 0
M  V30 11223 C 1036.63 -2.55426 -5.33396 0
M  V30 11224 H 1035.56 -0.176736 -0.732994 0
M  V30 11225 H 1038.21 -1.06709 -1.49283 0
M  V30 11226 H 1036.59 -0.156769 -3.9569 0
M  V30 11227 H 1037.77 -2.98122 -3.51369 0
M  V30 11228 H 1036.08 -2.5714 -3.27518 0
M  V30 11229 H 1038.68 -0.669811 -5.30488 0
M  V30 11230 H 1039.02 0.570204 -4.12376 0
M  V30 11231 H 1039.56 -1.10163 -3.82242 0
M  V30 11232 H 1036.3 -3.60106 -5.47726 0
M  V30 11233 H 1035.82 -1.90156 -5.68859 0
M  V30 11234 H 1037.49 -2.40345 -6.00702 0
M  V30 11235 N 1037.63 1.44308 -0.633487 0
M  V30 11236 C 1038.56 2.33431 0.0568402 0
M  V30 11237 C 1039.54 1.48342 0.832386 0
M  V30 11238 O 1040.72 1.77056 0.797798 0
M  V30 11239 C 1037.85 3.31443 1.03743 0
M  V30 11240 C 1036.81 4.26368 0.373362 0
M  V30 11241 C 1036.13 5.14267 1.46403 0
M  V30 11242 C 1037.43 5.17287 -0.721876 0
M  V30 11243 H 1039.13 2.91402 -0.687388 0
M  V30 11244 H 1036.67 1.4012 -0.332009 0
M  V30 11245 H 1038.63 3.92677 1.52913 0
M  V30 11246 H 1037.35 2.71686 1.81258 0
M  V30 11247 H 1036.01 3.6647 -0.0977053 0
M  V30 11248 H 1035.66 4.50861 2.23011 0
M  V30 11249 H 1035.36 5.7859 1.02506 0
M  V30 11250 H 1036.88 5.78373 1.95748 0
M  V30 11251 H 1038.29 5.72444 -0.313181 0
M  V30 11252 H 1036.69 5.90226 -1.08413 0
M  V30 11253 H 1037.76 4.58159 -1.58804 0
M  V30 11254 N 1039.1 0.374177 1.53094 0
M  V30 11255 C 1040.05 -0.484848 2.22785 0
M  V30 11256 C 1041.04 -1.04181 1.22617 0
M  V30 11257 O 1042.23 -0.97043 1.48026 0
M  V30 11258 C 1039.36 -1.61956 3.02696 0
M  V30 11259 C 1038.45 -1.07506 4.10248 0
M  V30 11260 N 1038.84 -0.254253 5.05161 0
M  V30 11261 C 1037.13 -1.34904 4.25108 0
M  V30 11262 C 1037.84 0.0448558 5.81683 0
M  V30 11263 N 1036.81 -0.555073 5.40759 0
M  V30 11264 H 1040.61 0.148976 2.93522 0
M  V30 11265 H 1038.13 0.182656 1.6137 0
M  V30 11266 H 1040.12 -2.24723 3.51148 0
M  V30 11267 H 1038.78 -2.25636 2.33492 0
M  V30 11268 H 1039.8 0.107256 5.17789 0
M  V30 11269 H 1036.47 -1.98799 3.67131 0
M  V30 11270 H 1037.86 0.708952 6.68149 0
M  V30 11271 N 1040.58 -1.57259 0.103575 0
M  V30 11272 C 1041.83 -1.94657 -0.558126 0
M  V30 11273 C 1042.16 -0.985886 -1.67662 0
M  V30 11274 O 1041.41 -0.0069745 -1.95699 0
M  V30 11275 C 1041.71 -3.38549 -1.14538 0
M  V30 11276 C 1041.38 -4.50651 -0.149818 0
M  V30 11277 C 1040.04 -4.8104 0.12398 0
M  V30 11278 C 1042.39 -5.18503 0.529497 0
M  V30 11279 C 1039.72 -5.76606 1.08364 0
M  V30 11280 C 1042.07 -6.15099 1.47769 0
M  V30 11281 C 1040.74 -6.43889 1.75963 0
M  V30 11282 H 1040.01 -0.712299 -0.204233 0
M  V30 11283 H 1042.65 -1.90641 0.181208 0
M  V30 11284 H 1040.96 -3.39185 -1.96115 0
M  V30 11285 H 1042.65 -3.6479 -1.66521 0
M  V30 11286 H 1039.24 -4.2697 -0.373404 0
M  V30 11287 H 1043.43 -4.95194 0.331121 0
M  V30 11288 H 1038.68 -5.97223 1.30899 0
M  V30 11289 H 1042.86 -6.66767 2.00983 0
M  V30 11290 H 1040.49 -7.17749 2.50481 0
M  V30 11291 N 1042.06 0.170153 -1.56679 0
M  V30 11292 C 1043.29 0.902134 -1.86197 0
M  V30 11293 C 1043.7 1.75775 -0.689098 0
M  V30 11294 O 1043.06 1.79271 0.341763 0
M  V30 11295 C 1043.11 1.77792 -3.14757 0
M  V30 11296 O 1042.83 0.956817 -4.27524 0
M  V30 11297 C 1044.33 2.61947 -3.57629 0
M  V30 11298 H 1041.55 0.262026 -0.617724 0
M  V30 11299 H 1044.1 0.169899 -2.03793 0
M  V30 11300 H 1042.25 2.46348 -2.98984 0
M  V30 11301 H 1042.67 1.5559 -5.00891 0
M  V30 11302 H 1044.14 3.19011 -4.50484 0
M  V30 11303 H 1044.62 3.36873 -2.81803 0
M  V30 11304 H 1045.22 1.98721 -3.76019 0
M  V30 11305 N 1043.54 1.5137 0.438746 0
M  V30 11306 C 1044.77 1.6753 1.20901 0
M  V30 11307 C 1045.18 0.371573 1.85515 0
M  V30 11308 O 1044.52 -0.659701 1.71446 0
M  V30 11309 C 1044.58 2.73305 2.33548 0
M  V30 11310 C 1044.25 4.15944 1.89313 0
M  V30 11311 C 1045.24 5.00769 1.39736 0
M  V30 11312 C 1042.93 4.62036 1.97047 0
M  V30 11313 C 1044.92 6.29747 0.984773 0
M  V30 11314 C 1042.61 5.91011 1.554 0
M  V30 11315 C 1043.61 6.74693 1.06197 0
M  V30 11316 O 1043.29 8.01256 0.651407 0
M  V30 11317 H 1043.03 0.565404 0.370532 0
M  V30 11318 H 1045.58 1.98543 0.526296 0
M  V30 11319 H 1043.81 2.37604 3.05092 0
M  V30 11320 H 1045.5 2.78359 2.95417 0
M  V30 11321 H 1046.27 4.66363 1.33156 0
M  V30 11322 H 1042.14 3.97025 2.34291 0
M  V30 11323 H 1045.69 6.95015 0.600029 0
M  V30 11324 H 1041.59 6.24932 1.6165 0
M  V30 11325 H 1042.35 8.148 0.777382 0
M  V30 11326 N 1045.02 -0.694098 1.41492 0
M  V30 11327 C 1046.43 -1.00487 1.23994 0
M  V30 11328 C 1046.63 -2.01078 0.130346 0
M  V30 11329 O 1045.69 -2.47403 -0.504775 0
M  V30 11330 C 1047 -1.52808 2.58979 0
M  V30 11331 C 1048.55 -1.64684 2.66173 0
M  V30 11332 C 1049.02 -2.20406 4.01479 0
M  V30 11333 N 1050.52 -2.27765 4.03333 0
M  V30 11334 C 1051.25 -2.7191 5.04829 0
M  V30 11335 N 1050.75 -3.1565 6.16714 0
M  V30 11336 N 1052.54 -2.71487 4.9219 0
M  V30 11337 H 1044.69 -0.027746 2.12382 0
M  V30 11338 H 1046.95 -0.0748741 0.945039 0
M  V30 11339 H 1046.66 -0.863519 3.40934 0
M  V30 11340 H 1046.53 -2.50998 2.81566 0
M  V30 11341 H 1048.92 -2.30251 1.84576 0
M  V30 11342 H 1049 -0.65035 2.47395 0
M  V30 11343 H 1048.65 -1.55454 4.83525 0
M  V30 11344 H 1048.58 -3.2081 4.17599 0
M  V30 11345 H 1051.07 -1.96899 3.22551 0
M  V30 11346 H 1051.38 -3.47966 6.90029 0
M  V30 11347 H 1049.72 -3.13555 6.20248 0
M  V30 11348 H 1052.92 -2.36666 4.03865 0
M  V30 11349 H 1053.09 -3.05573 5.71427 0
M  V30 11350 N 1046.49 -1.27344 -0.928501 0
M  V30 11351 C 1047.72 -1.16447 -1.7102 0
M  V30 11352 C 1048.14 0.278799 -1.8673 0
M  V30 11353 O 1047.49 1.18989 -1.38376 0
M  V30 11354 C 1047.55 -1.84242 -3.11026 0
M  V30 11355 O 1047.27 -3.2293 -2.96054 0
M  V30 11356 C 1048.77 -1.7946 -4.05351 0
M  V30 11357 H 1045.99 -0.404898 -0.535069 0
M  V30 11358 H 1048.53 -1.68201 -1.16313 0
M  V30 11359 H 1046.69 -1.36395 -3.62595 0
M  V30 11360 H 1047.1 -3.5667 -3.8456 0
M  V30 11361 H 1048.57 -2.31511 -5.01105 0
M  V30 11362 H 1049.05 -0.763771 -4.32508 0
M  V30 11363 H 1049.66 -2.26918 -3.59706 0
M  V30 11364 N 1047.97 1.13488 -1.09353 0
M  V30 11365 C 1048.9 2.20988 -0.75409 0
M  V30 11366 C 1049.88 1.67977 0.267901 0
M  V30 11367 O 1051.07 1.93722 0.136128 0
M  V30 11368 C 1048.2 3.46869 -0.173042 0
M  V30 11369 C 1047.15 4.12965 -1.12446 0
M  V30 11370 C 1046.48 5.33163 -0.405157 0
M  V30 11371 C 1047.78 4.60388 -2.46658 0
M  V30 11372 H 1049.47 2.49639 -1.6529 0
M  V30 11373 H 1047.02 1.19987 -0.796182 0
M  V30 11374 H 1048.97 4.21331 0.0764988 0
M  V30 11375 H 1047.7 3.17611 0.760956 0
M  V30 11376 H 1046.35 3.40469 -1.35927 0
M  V30 11377 H 1046 5.00169 0.532955 0
M  V30 11378 H 1045.7 5.78332 -1.03952 0
M  V30 11379 H 1047.23 6.1038 -0.163899 0
M  V30 11380 H 1048.64 5.26276 -2.27389 0
M  V30 11381 H 1047.04 5.16294 -3.05876 0
M  V30 11382 H 1048.11 3.74949 -3.07476 0
M  V30 11383 N 1049.45 0.880621 1.30701 0
M  V30 11384 C 1050.69 0.503519 1.98101 0
M  V30 11385 C 1051.06 -0.929075 1.68024 0
M  V30 11386 O 1052.26 -1.41208 2.28722 0
M  V30 11387 C 1050.53 0.765652 3.49102 0
M  V30 11388 S 1052.09 0.490001 4.36056 0
M  V30 11389 H 1048.9 0.187522 0.685825 0
M  V30 11390 H 1051.51 1.13895 1.58897 0
M  V30 11391 H 1050.21 1.80688 3.68484 0
M  V30 11392 H 1049.74 0.117616 3.93224 0
M  V30 11393 H 1051.76 -0.673236 4.91612 0
M  V30 11394 N 1050.93 -1.4397 0.641131 0
M  V30 11395 C 1052.35 -1.56607 0.30762 0
M  V30 11396 C 1052.55 -1.62694 -1.18882 0
M  V30 11397 O 1051.6 -1.57541 -1.97325 0
M  V30 11398 C 1052.91 -2.83289 1.00834 0
M  V30 11399 C 1054.46 -2.97016 0.98744 0
M  V30 11400 C 1054.94 -4.26514 1.66882 0
M  V30 11401 N 1056.43 -4.33351 1.63589 0
M  V30 11402 C 1057.16 -5.32292 2.13196 0
M  V30 11403 N 1056.66 -6.37582 2.71038 0
M  V30 11404 N 1058.45 -5.23866 2.03766 0
M  V30 11405 H 1050.6 -1.38262 1.61237 0
M  V30 11406 H 1052.87 -0.663221 0.677378 0
M  V30 11407 H 1052.57 -2.84812 2.06337 0
M  V30 11408 H 1052.45 -3.73134 0.552333 0
M  V30 11409 H 1054.83 -2.95041 -0.0591395 0
M  V30 11410 H 1054.91 -2.08493 1.48203 0
M  V30 11411 H 1054.56 -4.2925 2.71491 0
M  V30 11412 H 1054.49 -5.13912 1.14898 0
M  V30 11413 H 1056.98 -3.5788 1.21368 0
M  V30 11414 H 1057.29 -7.09378 3.06597 0
M  V30 11415 H 1055.64 -6.38239 2.75093 0
M  V30 11416 H 1058.83 -4.40524 1.58291 0
M  V30 11417 H 1059 -6.00819 2.42737 0
M  V30 11418 N 1052.41 -0.382291 -1.52893 0
M  V30 11419 C 1053.66 0.201734 -2.01091 0
M  V30 11420 C 1053.98 1.47905 -1.2708 0
M  V30 11421 O 1053.25 1.92002 -0.38883 0
M  V30 11422 H 1051.83 0.0775373 -0.742965 0
M  V30 11423 H 1054.49 -0.512369 -1.88045 0
M  V30 11424 H 1053.58 0.416919 -3.09303 0
M  V30 11425 N 1053.89 1.57202 -0.111913 0
M  V30 11426 C 1054.8 2.18475 0.854753 0
M  V30 11427 C 1055.81 1.15888 1.29792 0
M  V30 11428 O 1056.99 1.48329 1.36237 0
M  V30 11429 C 1054.05 2.76645 2.0897 0
M  V30 11430 C 1053.11 3.94244 1.69913 0
M  V30 11431 C 1052.35 4.49631 2.8752 0
M  V30 11432 O 1052.57 4.03926 4.02741 0
M  V30 11433 O 1051.5 5.40417 2.65015 0
M  V30 11434 H 1055.33 3.01519 0.363352 0
M  V30 11435 H 1052.91 1.4897 0.113329 0
M  V30 11436 H 1054.8 3.13755 2.81311 0
M  V30 11437 H 1053.47 1.96637 2.5713 0
M  V30 11438 H 1052.38 3.61915 0.947013 0
M  V30 11439 H 1053.71 4.75666 1.26501 0
M  V30 11440 N 1055.36 -0.161842 1.56767 0
M  V30 11441 C 1056.59 -0.890953 1.86402 0
M  V30 11442 C 1057 -1.75918 0.696373 0
M  V30 11443 O 1056.34 -1.80461 -0.343463 0
M  V30 11444 C 1056.41 -1.81079 3.10565 0
M  V30 11445 C 1056.07 -1.12121 4.43032 0
M  V30 11446 C 1057.07 -0.482152 5.17659 0
M  V30 11447 C 1054.75 -1.11514 4.89765 0
M  V30 11448 C 1056.75 0.153772 6.37214 0
M  V30 11449 C 1054.43 -0.4754 6.09248 0
M  V30 11450 C 1055.43 0.157944 6.82817 0
M  V30 11451 O 1055.12 0.787579 8.00033 0
M  V30 11452 H 1054.85 -0.26379 0.622407 0
M  V30 11453 H 1057.41 -0.163884 2.04745 0
M  V30 11454 H 1055.64 -2.57842 2.88192 0
M  V30 11455 H 1057.32 -2.41056 3.26568 0
M  V30 11456 H 1058.09 -0.478752 4.82631 0
M  V30 11457 H 1053.97 -1.59752 4.32435 0
M  V30 11458 H 1057.51 0.648716 6.94577 0
M  V30 11459 H 1053.41 -0.476416 6.43739 0
M  V30 11460 H 1054.18 0.687769 8.15605 0
M  V30 11461 N 1056.84 -1.516 -0.430713 0
M  V30 11462 C 1058.07 -1.687 -1.20644 0
M  V30 11463 C 1058.49 -0.386555 -1.84085 0
M  V30 11464 O 1057.85 0.653952 -1.69095 0
M  V30 11465 C 1057.9 -2.80887 -2.2613 0
M  V30 11466 O 1057 -2.44952 -3.31772 0
M  V30 11467 H 1056.34 -0.562289 -0.353167 0
M  V30 11468 H 1058.87 -1.98198 -0.507807 0
M  V30 11469 H 1058.88 -3.05167 -2.70809 0
M  V30 11470 H 1057.56 -3.75249 -1.79334 0
M  V30 11471 H 1056.13 -2.31267 -2.92523 0
M  V30 11472 N 1058.32 0.686584 -1.41858 0
M  V30 11473 C 1059.57 1.44235 -1.40994 0
M  V30 11474 C 1059.88 1.95583 -0.0254979 0
M  V30 11475 O 1061.09 2.71294 0.10576 0
M  V30 11476 C 1059.54 2.6086 -2.47952 0
M  V30 11477 C 1059.15 2.16259 -3.92347 0
M  V30 11478 C 1060.9 3.38441 -2.56237 0
M  V30 11479 C 1058.8 3.29896 -4.90838 0
M  V30 11480 H 1057.73 0.54181 -0.524364 0
M  V30 11481 H 1060.38 0.744486 -1.67719 0
M  V30 11482 H 1058.77 3.32957 -2.14373 0
M  V30 11483 H 1059.94 1.51392 -4.35221 0
M  V30 11484 H 1058.25 1.51648 -3.87804 0
M  V30 11485 H 1060.85 4.23052 -3.27003 0
M  V30 11486 H 1061.19 3.84238 -1.6021 0
M  V30 11487 H 1061.73 2.73406 -2.88953 0
M  V30 11488 H 1058.47 2.89104 -5.88302 0
M  V30 11489 H 1057.99 3.93584 -4.52606 0
M  V30 11490 H 1059.67 3.95541 -5.12012 0
M  V30 11491 N 1059.8 1.27835 0.921735 0
M  V30 11492 C 1060.73 1.136 2.04003 0
M  V30 11493 C 1061.71 0.0358756 1.70062 0
M  V30 11494 O 1062.89 0.211438 1.93046 0
M  V30 11495 C 1060.02 0.788697 3.38226 0
M  V30 11496 C 1058.98 1.84272 3.863 0
M  V30 11497 C 1058.3 1.34923 5.17397 0
M  V30 11498 C 1059.6 3.24788 4.09035 0
M  V30 11499 H 1061.3 2.07149 2.1617 0
M  V30 11500 H 1058.84 0.997349 1.0387 0
M  V30 11501 H 1060.8 0.675911 4.15944 0
M  V30 11502 H 1059.52 -0.182499 3.2609 0
M  V30 11503 H 1058.18 1.94451 3.1078 0
M  V30 11504 H 1057.83 0.367328 5.01657 0
M  V30 11505 H 1057.53 2.05397 5.50532 0
M  V30 11506 H 1059.05 1.24951 5.97678 0
M  V30 11507 H 1060.47 3.17575 4.77304 0
M  V30 11508 H 1058.86 3.93025 4.53488 0
M  V30 11509 H 1059.93 3.69398 3.14122 0
M  V30 11510 N 1061.28 -1.12907 1.09954 0
M  V30 11511 C 1062.23 -2.16558 0.713204 0
M  V30 11512 C 1063.21 -1.5853 -0.27515 0
M  V30 11513 O 1064.4 -1.76797 -0.0846643 0
M  V30 11514 C 1061.53 -3.43009 0.141224 0
M  V30 11515 C 1060.62 -4.08032 1.15632 0
M  V30 11516 N 1061.01 -4.48139 2.34531 0
M  V30 11517 C 1059.31 -4.34743 0.995701 0
M  V30 11518 C 1060.01 -4.98885 2.99147 0
M  V30 11519 N 1058.98 -4.9408 2.26684 0
M  V30 11520 H 1062.78 -2.45328 1.61838 0
M  V30 11521 H 1060.3 -1.29759 0.976539 0
M  V30 11522 H 1062.3 -4.16617 -0.153598 0
M  V30 11523 H 1060.96 -3.15711 -0.758729 0
M  V30 11524 H 1061.97 -4.40668 2.72089 0
M  V30 11525 H 1058.64 -4.17227 0.150888 0
M  V30 11526 H 1060.03 -5.3967 4.00257 0
M  V30 11527 N 1062.75 -0.88754 -1.30232 0
M  V30 11528 C 1064.17 -0.581904 -1.48614 0
M  V30 11529 C 1064.37 0.879711 -1.81282 0
M  V30 11530 O 1063.43 1.66076 -1.90198 0
M  V30 11531 C 1064.74 -1.49726 -2.60773 0
M  V30 11532 C 1066.29 -1.50117 -2.74653 0
M  V30 11533 C 1066.76 -2.40251 -3.89927 0
M  V30 11534 N 1068.25 -2.38229 -3.97242 0
M  V30 11535 C 1068.99 -3.04682 -4.85754 0
M  V30 11536 N 1068.48 -3.80369 -5.79043 0
M  V30 11537 N 1070.28 -2.93901 -4.79144 0
M  V30 11538 H 1062.43 -1.83304 -1.073 0
M  V30 11539 H 1064.69 -0.78477 -0.531826 0
M  V30 11540 H 1064.4 -2.5381 -2.43462 0
M  V30 11541 H 1064.27 -1.20874 -3.57308 0
M  V30 11542 H 1066.66 -0.467832 -2.91368 0
M  V30 11543 H 1066.74 -1.83001 -1.7873 0
M  V30 11544 H 1066.38 -3.43671 -3.73969 0
M  V30 11545 H 1066.31 -2.04682 -4.85194 0
M  V30 11546 H 1068.8 -1.83229 -3.30508 0
M  V30 11547 H 1069.12 -4.28159 -6.4335 0
M  V30 11548 H 1067.46 -3.84477 -5.78967 0
M  V30 11549 H 1070.65 -2.34296 -4.05245 0
M  V30 11550 H 1070.83 -3.45967 -5.47915 0
M  V30 11551 N 1064.23 1.43628 -0.648757 0
M  V30 11552 C 1065.16 2.33478 0.0320785 0
M  V30 11553 C 1066.14 1.49217 0.816605 0
M  V30 11554 O 1067.33 1.77892 0.778974 0
M  V30 11555 C 1064.46 3.32525 1.00222 0
M  V30 11556 C 1063.41 4.2674 0.328119 0
M  V30 11557 C 1062.74 5.15791 1.4094 0
M  V30 11558 C 1064.04 5.16493 -0.776701 0
M  V30 11559 H 1065.73 2.90657 -0.718257 0
M  V30 11560 H 1063.28 1.3976 -0.346852 0
M  V30 11561 H 1065.23 3.94277 1.4874 0
M  V30 11562 H 1063.96 2.73593 1.78366 0
M  V30 11563 H 1062.61 3.66346 -0.136569 0
M  V30 11564 H 1062.26 4.53201 2.18216 0
M  V30 11565 H 1061.96 5.79645 0.963631 0
M  V30 11566 H 1063.49 5.80416 1.89603 0
M  V30 11567 H 1064.9 5.7208 -0.373878 0
M  V30 11568 H 1063.3 5.89043 -1.14667 0
M  V30 11569 H 1064.37 4.56448 -1.63654 0
M  V30 11570 N 1065.71 0.390394 1.52688 0
M  V30 11571 C 1066.66 -0.444229 2.26485 0
M  V30 11572 C 1067.63 -1.05688 1.28138 0
M  V30 11573 O 1068.81 -1.0847 1.56968 0
M  V30 11574 C 1065.95 -1.56501 3.07574 0
M  V30 11575 C 1065.07 -0.975111 4.20851 0
M  V30 11576 C 1064.2 -2.06704 4.89333 0
M  V30 11577 C 1063.24 -1.45309 5.94602 0
M  V30 11578 N 1062.38 -2.48437 6.56676 0
M  V30 11579 H 1067.22 0.191535 2.97384 0
M  V30 11580 H 1064.75 0.106287 1.46716 0
M  V30 11581 H 1066.71 -2.22558 3.52879 0
M  V30 11582 H 1065.34 -2.17107 2.38881 0
M  V30 11583 H 1064.39 -0.204109 3.79852 0
M  V30 11584 H 1065.71 -0.486465 4.96422 0
M  V30 11585 H 1064.86 -2.80528 5.37949 0
M  V30 11586 H 1063.6 -2.58928 4.13289 0
M  V30 11587 H 1062.6 -0.700091 5.45324 0
M  V30 11588 H 1063.83 -0.938775 6.7258 0
M  V30 11589 H 1061.77 -2.99829 5.83471 0
M  V30 11590 H 1061.69 -2.04331 7.27863 0
M  V30 11591 H 1062.96 -3.21888 7.09935 0
M  V30 11592 N 1067.19 -1.57141 0.120249 0
M  V30 11593 C 1068.15 -2.14213 -0.815185 0
M  V30 11594 C 1069.15 -1.07731 -1.19376 0
M  V30 11595 O 1070.34 -1.33502 -1.11906 0
M  V30 11596 C 1067.47 -2.68339 -2.10255 0
M  V30 11597 H 1068.67 -2.98197 -0.319166 0
M  V30 11598 H 1066.22 -1.55767 -0.128997 0
M  V30 11599 H 1066.95 -1.87946 -2.64285 0
M  V30 11600 H 1066.74 -3.46216 -1.84057 0
M  V30 11601 H 1068.23 -3.124 -2.77121 0
M  V30 11602 N 1068.67 0.153526 -1.5685 0
M  V30 11603 C 1069.63 1.17362 -1.96873 0
M  V30 11604 C 1070.63 1.36219 -0.854456 0
M  V30 11605 O 1071.82 1.33322 -1.1212 0
M  V30 11606 C 1068.95 2.53523 -2.27901 0
M  V30 11607 H 1070.14 0.830432 -2.88173 0
M  V30 11608 H 1067.7 0.396633 -1.51184 0
M  V30 11609 H 1068.43 2.92824 -1.39371 0
M  V30 11610 H 1068.22 2.41198 -3.09137 0
M  V30 11611 H 1069.71 3.27006 -2.59725 0
M  V30 11612 N 1070.14 1.51827 0.422667 0
M  V30 11613 C 1071.08 1.68901 1.53453 0
M  V30 11614 C 1072.06 0.536549 1.53492 0
M  V30 11615 O 1073.24 0.762226 1.72402 0
M  V30 11616 C 1070.37 1.71599 2.92013 0
M  V30 11617 C 1069.41 2.92984 3.0994 0
M  V30 11618 S 1070.25 4.53559 2.84683 0
M  V30 11619 C 1071.4 4.59024 4.25498 0
M  V30 11620 H 1071.63 2.62943 1.38739 0
M  V30 11621 H 1069.17 1.41695 0.613347 0
M  V30 11622 H 1071.13 1.73838 3.71874 0
M  V30 11623 H 1069.79 0.787083 3.04079 0
M  V30 11624 H 1068.98 2.91315 4.1128 0
M  V30 11625 H 1068.58 2.88562 2.37924 0
M  V30 11626 H 1070.87 4.35567 5.18929 0
M  V30 11627 H 1071.82 5.60904 4.32195 0
M  V30 11628 H 1072.22 3.88193 4.09837 0
M  V30 11629 N 1071.62 -0.679052 1.4222 0
M  V30 11630 C 1072.87 -1.43627 1.42182 0
M  V30 11631 C 1073.19 -1.94964 0.0377095 0
M  V30 11632 O 1072.46 -1.72788 -0.923098 0
M  V30 11633 H 1071.04 -0.532972 0.523402 0
M  V30 11634 H 1073.7 -0.802649 1.77605 0
M  V30 11635 H 1072.8 -2.29137 2.11902 0
M  V30 11636 N 1073.1 -1.28322 -0.914942 0
M  V30 11637 C 1074.33 -1.18254 -1.69775 0
M  V30 11638 C 1074.74 0.258978 -1.87015 0
M  V30 11639 O 1074.1 1.17514 -1.3963 0
M  V30 11640 C 1074.15 -1.8753 -3.09054 0
M  V30 11641 O 1073.87 -3.26051 -2.92613 0
M  V30 11642 C 1075.37 -1.83749 -4.03424 0
M  V30 11643 H 1072.59 -0.41055 -0.530744 0
M  V30 11644 H 1075.14 -1.69425 -1.14523 0
M  V30 11645 H 1073.29 -1.40233 -3.61128 0
M  V30 11646 H 1073.71 -3.60729 -3.80756 0
M  V30 11647 H 1075.18 -2.36813 -4.98622 0
M  V30 11648 H 1075.66 -0.809601 -4.31674 0
M  V30 11649 H 1076.26 -2.3072 -3.57279 0
M  V30 11650 N 1074.58 1.12322 -1.10551 0
M  V30 11651 C 1075.54 2.16273 -0.758844 0
M  V30 11652 C 1076.54 1.59325 0.217294 0
M  V30 11653 O 1077.73 1.74199 -0.00601346 0
M  V30 11654 C 1074.86 3.40674 -0.124238 0
M  V30 11655 H 1076.06 2.48454 -1.6796 0
M  V30 11656 H 1073.61 1.2735 -0.906188 0
M  V30 11657 H 1074.34 3.14094 0.807194 0
M  V30 11658 H 1074.13 3.83284 -0.826772 0
M  V30 11659 H 1075.62 4.17474 0.102502 0
M  V30 11660 N 1076.06 0.894434 1.2976 0
M  V30 11661 C 1077.3 0.527831 1.96432 0
M  V30 11662 C 1077.66 -0.914793 1.69261 0
M  V30 11663 O 1076.95 -1.63911 0.99215 0
M  V30 11664 C 1077.14 0.750307 3.49435 0
M  V30 11665 C 1076.97 2.213 3.91479 0
M  V30 11666 C 1075.74 2.85943 4.16611 0
M  V30 11667 C 1077.94 3.18771 4.03595 0
M  V30 11668 N 1075.92 4.2271 4.45185 0
M  V30 11669 C 1077.29 4.40641 4.3616 0
M  V30 11670 C 1079.35 3.14432 3.86053 0
M  V30 11671 C 1078.05 5.58725 4.53011 0
M  V30 11672 C 1080.08 4.31797 4.0411 0
M  V30 11673 C 1079.44 5.52435 4.37029 0
M  V30 11674 H 1075.54 0.242654 0.7434 0
M  V30 11675 H 1078.12 1.15415 1.56804 0
M  V30 11676 H 1076.29 0.153411 3.88097 0
M  V30 11677 H 1078.03 0.349663 4.03187 0
M  V30 11678 H 1074.78 2.36763 4.10171 0
M  V30 11679 H 1075.21 4.9337 4.63589 0
M  V30 11680 H 1079.85 2.22255 3.5967 0
M  V30 11681 H 1077.57 6.51398 4.78232 0
M  V30 11682 H 1081.15 4.2992 3.91995 0
M  V30 11683 H 1080.03 6.41738 4.50712 0
M  V30 11684 N 1077.53 -1.43282 0.656365 0
M  V30 11685 C 1078.95 -1.56272 0.324213 0
M  V30 11686 C 1079.15 -1.63946 -1.1715 0
M  V30 11687 O 1078.21 -1.59625 -1.95643 0
M  V30 11688 C 1079.52 -2.82204 1.03833 0
M  V30 11689 C 1081.07 -2.95952 1.01889 0
M  V30 11690 C 1081.54 -4.2472 1.71397 0
M  V30 11691 N 1083.03 -4.31591 1.68176 0
M  V30 11692 C 1083.77 -5.30001 2.1883 0
M  V30 11693 N 1083.26 -6.34671 2.77785 0
M  V30 11694 N 1085.06 -5.21676 2.09311 0
M  V30 11695 H 1077.21 -1.36544 1.62694 0
M  V30 11696 H 1079.47 -0.655999 0.684375 0
M  V30 11697 H 1079.18 -2.82608 2.09346 0
M  V30 11698 H 1079.05 -3.72527 0.591878 0
M  V30 11699 H 1081.44 -2.95087 -0.0278431 0
M  V30 11700 H 1081.52 -2.0691 1.50406 0
M  V30 11701 H 1081.16 -4.26346 2.76028 0
M  V30 11702 H 1081.09 -5.12665 1.20342 0
M  V30 11703 H 1083.58 -3.56573 1.25157 0
M  V30 11704 H 1083.9 -7.06087 3.14104 0
M  V30 11705 H 1082.24 -6.35285 2.81847 0
M  V30 11706 H 1085.43 -4.3882 1.62955 0
M  V30 11707 H 1085.61 -5.9821 2.49095 0
M  V30 11708 N 1079.01 -0.398486 -1.52479 0
M  V30 11709 C 1080.29 0.238776 -1.94137 0
M  V30 11710 C 1080.67 1.63558 -1.33462 0
M  V30 11711 O 1080.02 2.22821 -0.506272 0
M  V30 11712 C 1080.23 0.255863 -3.48061 0
M  V30 11713 C 1081.58 0.480376 -4.21874 0
M  V30 11714 O 1082.6 0.335679 -3.54615 0
M  V30 11715 O 1081.46 0.764654 -5.41124 0
M  V30 11716 H 1078.55 0.150806 -0.813134 0
M  V30 11717 H 1081.1 -0.453659 -1.63524 0
M  V30 11718 H 1079.87 -0.722171 -3.84578 0
M  V30 11719 H 1079.49 0.99284 -3.85004 0
M  V30 11720 N 1080.49 1.57075 -0.12858 0
M  V30 11721 C 1081.72 1.99586 0.533769 0
M  V30 11722 C 1082.13 1.00737 1.60152 0
M  V30 11723 O 1081.47 -0.00647783 1.83699 0
M  V30 11724 C 1081.53 3.3852 1.21014 0
M  V30 11725 C 1081.2 4.56084 0.289191 0
M  V30 11726 C 1082.2 5.17717 -0.475963 0
M  V30 11727 C 1079.88 5.01912 0.197467 0
M  V30 11728 C 1081.87 6.23572 -1.32048 0
M  V30 11729 C 1079.56 6.07626 -0.65067 0
M  V30 11730 C 1080.56 6.68324 -1.40826 0
M  V30 11731 O 1080.25 7.71995 -2.2423 0
M  V30 11732 H 1079.98 0.660245 0.145096 0
M  V30 11733 H 1082.53 2.04276 -0.214615 0
M  V30 11734 H 1080.76 3.30613 2.00579 0
M  V30 11735 H 1082.45 3.65258 1.77036 0
M  V30 11736 H 1083.22 4.83221 -0.415027 0
M  V30 11737 H 1079.1 4.54407 0.776853 0
M  V30 11738 H 1082.64 6.70878 -1.91228 0
M  V30 11739 H 1078.54 6.41551 -0.712965 0
M  V30 11740 H 1079.31 7.89135 -2.17276 0
M  V30 11741 N 1081.97 -0.145205 1.5693 0
M  V30 11742 C 1083.22 -0.855955 1.82637 0
M  V30 11743 C 1083.53 -1.82255 0.710109 0
M  V30 11744 O 1084.74 -2.57758 0.852837 0
M  V30 11745 C 1083.19 -1.57278 3.23715 0
M  V30 11746 C 1082.8 -0.648507 4.43281 0
M  V30 11747 C 1084.55 -2.27021 3.58695 0
M  V30 11748 C 1082.45 -1.36706 5.75383 0
M  V30 11749 H 1081.38 -0.323385 0.68113 0
M  V30 11750 H 1084.03 -0.10869 1.83178 0
M  V30 11751 H 1082.42 -2.36574 3.17567 0
M  V30 11752 H 1083.59 0.109355 4.6067 0
M  V30 11753 H 1081.9 -0.0594029 4.16358 0
M  V30 11754 H 1084.5 -2.81423 4.54648 0
M  V30 11755 H 1084.84 -3.03598 2.8484 0
M  V30 11756 H 1085.38 -1.54642 3.66512 0
M  V30 11757 H 1082.12 -0.6431 6.52338 0
M  V30 11758 H 1081.64 -2.09759 5.61926 0
M  V30 11759 H 1083.32 -1.90748 6.18243 0
M  V30 11760 N 1083.45 -1.52049 -0.414609 0
M  V30 11761 C 1084.67 -1.6997 -1.18848 0
M  V30 11762 C 1085.1 -0.406058 -1.83665 0
M  V30 11763 O 1084.46 0.635981 -1.69779 0
M  V30 11764 C 1084.5 -2.8327 -2.23138 0
M  V30 11765 O 1083.61 -2.48457 -3.29155 0
M  V30 11766 H 1082.95 -0.566003 -0.347183 0
M  V30 11767 H 1085.48 -1.98726 -0.486757 0
M  V30 11768 H 1085.49 -3.08022 -2.67557 0
M  V30 11769 H 1084.16 -3.7713 -1.75344 0
M  V30 11770 H 1082.74 -2.34357 -2.90054 0
M  V30 11771 N 1084.93 0.6715 -1.42579 0
M  V30 11772 C 1086.17 1.42731 -1.42516 0
M  V30 11773 C 1086.49 1.95545 -0.0462407 0
M  V30 11774 O 1087.69 2.71391 0.0769798 0
M  V30 11775 C 1086.15 2.58215 -2.50705 0
M  V30 11776 C 1085.76 2.12086 -3.94618 0
M  V30 11777 C 1087.5 3.35705 -2.59813 0
M  V30 11778 C 1085.41 3.24672 -4.9431 0
M  V30 11779 H 1084.34 0.536218 -0.530081 0
M  V30 11780 H 1086.99 0.726655 -1.68499 0
M  V30 11781 H 1085.37 3.30665 -2.17892 0
M  V30 11782 H 1086.55 1.46768 -4.36802 0
M  V30 11783 H 1084.86 1.47526 -3.89391 0
M  V30 11784 H 1087.46 4.1956 -3.31472 0
M  V30 11785 H 1087.8 3.82517 -1.64276 0
M  V30 11786 H 1088.33 2.70326 -2.91836 0
M  V30 11787 H 1085.07 2.82848 -5.91335 0
M  V30 11788 H 1084.59 3.88761 -4.56755 0
M  V30 11789 H 1086.27 3.90088 -5.16179 0
M  V30 11790 N 1086.4 1.28806 0.908124 0
M  V30 11791 C 1087.64 1.17546 1.67219 0
M  V30 11792 C 1088.01 -0.270396 1.90086 0
M  V30 11793 O 1089.21 -0.505808 2.63998 0
M  V30 11794 C 1087.48 1.95774 2.99011 0
M  V30 11795 S 1089.04 2.00953 3.90081 0
M  V30 11796 H 1085.86 0.419283 0.574215 0
M  V30 11797 H 1088.46 1.6298 1.07971 0
M  V30 11798 H 1087.16 2.99978 2.80074 0
M  V30 11799 H 1086.69 1.50911 3.63303 0
M  V30 11800 H 1088.71 1.1201 4.83392 0
M  V30 11801 N 1087.88 -1.11734 1.11145 0
M  V30 11802 C 1089.13 -1.83043 0.856717 0
M  V30 11803 C 1089.45 -1.84901 -0.619407 0
M  V30 11804 O 1088.72 -1.31738 -1.44989 0
M  V30 11805 H 1087.3 -0.677823 0.31395 0
M  V30 11806 H 1089.96 -1.35262 1.40322 0
M  V30 11807 H 1089.06 -2.87005 1.22616 0
M  V30 11808 N 1089.36 -0.901303 -1.29284 0
M  V30 11809 C 1090.29 -0.396909 -2.30102 0
M  V30 11810 C 1091.27 0.528919 -1.61668 0
M  V30 11811 O 1092.46 0.439306 -1.89166 0
M  V30 11812 C 1089.59 0.375006 -3.45269 0
M  V30 11813 C 1088.54 -0.46054 -4.25515 0
M  V30 11814 C 1087.87 0.438967 -5.32895 0
M  V30 11815 C 1089.17 -1.7113 -4.93469 0
M  V30 11816 H 1090.86 -1.23943 -2.72541 0
M  V30 11817 H 1088.41 -0.597428 -1.31022 0
M  V30 11818 H 1090.36 0.738622 -4.14876 0
M  V30 11819 H 1089.08 1.25132 -3.01678 0
M  V30 11820 H 1087.74 -0.80651 -3.57618 0
M  V30 11821 H 1087.39 1.31346 -4.85548 0
M  V30 11822 H 1087.09 -0.116406 -5.87485 0
M  V30 11823 H 1088.61 0.79874 -6.05353 0
M  V30 11824 H 1090.03 -1.41732 -5.55504 0
M  V30 11825 H 1088.42 -2.20811 -5.57999 0
M  V30 11826 H 1089.49 -2.44636 -4.18666 0
M  V30 11827 N 1090.84 1.42931 -0.663954 0
M  V30 11828 C 1092.25 1.56098 -0.332496 0
M  V30 11829 C 1092.45 1.64564 1.16279 0
M  V30 11830 O 1091.51 1.6066 1.94794 0
M  V30 11831 C 1092.82 2.81649 -1.05329 0
M  V30 11832 C 1094.37 2.95408 -1.03457 0
M  V30 11833 C 1094.85 4.23805 -1.73647 0
M  V30 11834 N 1096.34 4.30693 -1.70462 0
M  V30 11835 C 1097.07 5.28833 -2.21637 0
M  V30 11836 N 1096.57 6.33189 -2.81147 0
M  V30 11837 N 1098.36 5.20558 -2.12075 0
M  V30 11838 H 1090.51 1.3568 -1.63416 0
M  V30 11839 H 1092.77 0.652361 -0.687844 0
M  V30 11840 H 1092.48 2.81494 -2.10842 0
M  V30 11841 H 1092.35 3.72208 -0.611626 0
M  V30 11842 H 1094.74 2.95097 0.0121936 0
M  V30 11843 H 1094.82 2.06109 -1.51502 0
M  V30 11844 H 1094.47 4.24876 -2.78285 0
M  V30 11845 H 1094.4 5.12019 -1.2306 0
M  V30 11846 H 1096.89 3.55904 -1.27046 0
M  V30 11847 H 1097.2 7.04411 -3.17844 0
M  V30 11848 H 1095.55 6.33781 -2.85212 0
M  V30 11849 H 1098.74 4.3795 -1.6528 0
M  V30 11850 H 1098.91 5.96881 -2.52264 0
M  V30 11851 N 1092.32 0.406567 1.52266 0
M  V30 11852 C 1093.54 -0.169624 2.06204 0
M  V30 11853 C 1093.96 -1.39076 1.27684 0
M  V30 11854 O 1093.32 -1.79528 0.328023 0
M  V30 11855 C 1093.37 -0.522611 3.57702 0
M  V30 11856 O 1093.09 0.650028 4.33251 0
M  V30 11857 C 1094.59 -1.15281 4.28048 0
M  V30 11858 H 1091.81 -0.0215191 0.670655 0
M  V30 11859 H 1094.35 0.576781 1.96198 0
M  V30 11860 H 1092.51 -1.21891 3.67725 0
M  V30 11861 H 1092.92 0.355989 5.23291 0
M  V30 11862 H 1094.4 -1.35002 5.35237 0
M  V30 11863 H 1094.87 -2.12517 3.84361 0
M  V30 11864 H 1095.48 -0.496786 4.22389 0
M  V30 11865 N 1093.79 -1.57004 0.136909 0
M  V30 11866 C 1094.74 -2.12815 -0.818144 0
M  V30 11867 C 1095.73 -1.0534 -1.21623 0
M  V30 11868 O 1096.92 -1.31539 -1.18434 0
M  V30 11869 C 1094.05 -2.74533 -2.06122 0
M  V30 11870 C 1093.14 -3.89117 -1.68669 0
M  V30 11871 N 1093.53 -4.95412 -1.01983 0
M  V30 11872 C 1091.82 -3.99636 -1.98009 0
M  V30 11873 C 1092.53 -5.75594 -0.840624 0
M  V30 11874 N 1091.5 -5.26019 -1.37131 0
M  V30 11875 H 1095.3 -2.92372 -0.299315 0
M  V30 11876 H 1092.82 -1.6227 -0.0649741 0
M  V30 11877 H 1094.81 -3.12872 -2.7553 0
M  V30 11878 H 1093.47 -1.96446 -2.58532 0
M  V30 11879 H 1094.49 -5.13393 -0.681744 0
M  V30 11880 H 1091.16 -3.32613 -2.52339 0
M  V30 11881 H 1092.55 -6.71157 -0.315807 0
M  V30 11882 N 1095.27 0.136881 -1.57004 0
M  V30 11883 C 1096.52 0.8461 -1.83536 0
M  V30 11884 C 1096.84 1.81246 -0.71937 0
M  V30 11885 O 1096.11 1.94191 0.258161 0
M  V30 11886 H 1094.69 0.315446 -0.677128 0
M  V30 11887 H 1097.35 0.128469 -1.94476 0
M  V30 11888 H 1096.45 1.40221 -2.78827 0
M  V30 11889 N 1096.75 1.52266 0.40654 0
M  V30 11890 C 1097.66 1.78688 1.52012 0
M  V30 11891 C 1098.68 0.6726 1.60475 0
M  V30 11892 O 1099.85 0.95829 1.77141 0
M  V30 11893 C 1096.92 1.93434 2.87722 0
M  V30 11894 C 1095.98 3.17341 2.89125 0
M  V30 11895 C 1095.21 3.31374 4.18362 0
M  V30 11896 O 1095.43 2.50613 5.12396 0
M  V30 11897 O 1094.37 4.24539 4.26674 0
M  V30 11898 H 1098.19 2.73213 1.3262 0
M  V30 11899 H 1095.78 1.37142 0.592653 0
M  V30 11900 H 1097.66 2.04941 3.68208 0
M  V30 11901 H 1096.34 1.02099 3.07177 0
M  V30 11902 H 1095.24 3.1129 2.07483 0
M  V30 11903 H 1096.58 4.08466 2.7462 0
M  V30 11904 N 1098.23 -0.663929 1.42933 0
M  V30 11905 C 1099.16 -1.78899 1.50058 0
M  V30 11906 C 1100.14 -1.66329 0.356164 0
M  V30 11907 O 1101.32 -1.85587 0.571944 0
M  V30 11908 C 1098.45 -3.17265 1.41281 0
M  V30 11909 C 1097.41 -3.44584 2.53861 0
M  V30 11910 C 1096.73 -4.82638 2.3014 0
M  V30 11911 C 1098.03 -3.40394 3.96143 0
M  V30 11912 H 1099.73 -1.73194 2.44222 0
M  V30 11913 H 1097.27 -0.83182 1.17545 0
M  V30 11914 H 1099.23 -3.95715 1.44872 0
M  V30 11915 H 1097.95 -3.23675 0.43616 0
M  V30 11916 H 1096.61 -2.685 2.49606 0
M  V30 11917 H 1096.26 -4.85711 1.30743 0
M  V30 11918 H 1095.96 -5.01879 3.056 0
M  V30 11919 H 1097.48 -5.63359 2.35497 0
M  V30 11920 H 1098.9 -4.08796 4.01943 0
M  V30 11921 H 1097.29 -3.7117 4.71543 0
M  V30 11922 H 1098.36 -2.38767 4.22041 0
M  V30 11923 N 1099.71 -1.29285 -0.901281 0
M  V30 11924 C 1100.95 -1.16934 -1.64836 0
M  V30 11925 C 1101.28 0.279826 -1.92982 0
M  V30 11926 O 1100.55 1.19179 -1.55478 0
M  V30 11927 H 1099.13 -0.429768 -0.61099 0
M  V30 11928 H 1101.79 -1.62189 -1.08077 0
M  V30 11929 H 1100.88 -1.71821 -2.60545 0
M  V30 11930 N 1101.18 1.11143 -1.11736 0
M  V30 11931 C 1102.43 1.82586 -0.866412 0
M  V30 11932 C 1102.75 1.85227 0.609593 0
M  V30 11933 O 1102.02 1.32505 1.44288 0
M  V30 11934 H 1100.6 0.676149 -0.31754 0
M  V30 11935 H 1103.27 1.34516 -1.41037 0
M  V30 11936 H 1102.36 2.8635 -1.24136 0
M  V30 11937 N 1102.66 0.908147 1.28804 0
M  V30 11938 C 1103.61 0.363504 2.25084 0
M  V30 11939 C 1104.6 -0.52121 1.52224 0
M  V30 11940 O 1105.79 -0.361848 1.73262 0
M  V30 11941 C 1102.92 -0.400353 3.40958 0
M  V30 11942 C 1102 0.499761 4.21145 0
M  V30 11943 N 1102.39 1.61082 4.79464 0
M  V30 11944 C 1100.69 0.299108 4.44996 0
M  V30 11945 C 1101.39 2.16906 5.39747 0
M  V30 11946 N 1100.37 1.46103 5.23598 0
M  V30 11947 H 1104.17 1.21212 2.6774 0
M  V30 11948 H 1101.69 0.760159 1.43511 0
M  V30 11949 H 1103.68 -0.807343 4.09008 0
M  V30 11950 H 1102.34 -1.24613 2.99836 0
M  V30 11951 H 1103.35 1.99347 4.77997 0
M  V30 11952 H 1100.03 -0.507611 4.14403 0
M  V30 11953 H 1101.42 3.10338 5.95936 0
M  V30 11954 N 1104.14 -1.42577 0.671525 0
M  V30 11955 C 1105.55 -1.84736 0.270084 0
M  V30 11956 C 1105.9 -1.56212 -1.18711 0
M  V30 11957 O 1105.03 -1.02028 -1.90838 0
M  V30 11958 C 1105.62 -3.35334 0.483409 0
M  V30 11959 C 1104.18 -3.76154 0.136119 0
M  V30 11960 C 1103.33 -2.66179 0.777444 0
M  V30 11961 H 1106.28 -1.3247 0.873919 0
M  V30 11962 H 1106.3 -3.79573 -0.265483 0
M  V30 11963 H 1105.81 -3.56063 1.54405 0
M  V30 11964 H 1103.91 -3.61033 -0.921209 0
M  V30 11965 H 1104.03 -4.75645 0.574356 0
M  V30 11966 H 1102.39 -2.53841 0.209055 0
M  V30 11967 H 1103.17 -2.89732 1.84148 0
M  V30 11968 N 1105.62 -0.414636 -1.52048 0
M  V30 11969 C 1106.86 0.159585 -2.02171 0
M  V30 11970 C 1107.2 1.44321 -1.29943 0
M  V30 11971 O 1106.47 1.90185 -0.407402 0
M  V30 11972 C 1106.76 0.401655 -3.57853 0
M  V30 11973 C 1106.61 -0.899026 -4.40724 0
M  V30 11974 C 1107.93 1.1814 -4.23947 0
M  V30 11975 H 1105.05 0.0565257 -0.734829 0
M  V30 11976 H 1107.69 -0.549183 -1.8189 0
M  V30 11977 H 1105.84 1.00541 -3.75265 0
M  V30 11978 H 1107.51 -1.53502 -4.35011 0
M  V30 11979 H 1105.75 -1.50877 -4.06717 0
M  V30 11980 H 1106.42 -0.683974 -5.47746 0
M  V30 11981 H 1108.9 0.670203 -4.10667 0
M  V30 11982 H 1107.78 1.31953 -5.32804 0
M  V30 11983 H 1108.04 2.2035 -3.83273 0
M  V30 11984 N 1107.1 1.56929 -0.145233 0
M  V30 11985 C 1108.32 2.00864 0.516564 0
M  V30 11986 C 1108.75 1.02466 1.57741 0
M  V30 11987 O 1108.1 0.000145439 1.813 0
M  V30 11988 C 1108.15 3.43552 1.09563 0
M  V30 11989 O 1107.26 3.4815 2.21055 0
M  V30 11990 H 1106.6 0.651835 0.126521 0
M  V30 11991 H 1109.13 2.0317 -0.241445 0
M  V30 11992 H 1109.14 3.82316 1.42473 0
M  V30 11993 H 1107.81 4.14677 0.318749 0
M  V30 11994 H 1106.39 3.21228 1.89387 0
M  V30 11995 N 1108.58 -0.128553 1.57075 0
M  V30 11996 C 1109.49 -1.17718 2.02927 0
M  V30 11997 C 1110.5 -1.45912 0.947932 0
M  V30 11998 O 1111.68 -1.57217 1.25876 0
M  V30 11999 C 1108.74 -2.48625 2.41633 0
M  V30 12000 C 1107.8 -2.27914 3.63804 0
M  V30 12001 C 1107.04 -3.52579 4.00654 0
M  V30 12002 O 1107.26 -4.59505 3.37952 0
M  V30 12003 O 1106.19 -3.44147 4.93808 0
M  V30 12004 H 1110.02 -0.817846 2.92481 0
M  V30 12005 H 1107.6 -0.338649 1.45511 0
M  V30 12006 H 1109.49 -3.2577 2.67305 0
M  V30 12007 H 1108.16 -2.84052 1.55229 0
M  V30 12008 H 1107.07 -1.4866 3.43294 0
M  V30 12009 H 1108.4 -1.97395 4.50883 0
M  V30 12010 N 1110.05 -1.5248 -0.398459 0
M  V30 12011 C 1110.98 -1.79549 -1.49279 0
M  V30 12012 C 1111.96 -0.647004 -1.57315 0
M  V30 12013 O 1113.15 -0.893661 -1.72416 0
M  V30 12014 C 1110.28 -1.95582 -2.86993 0
M  V30 12015 C 1109.23 -3.1123 -2.93803 0
M  V30 12016 C 1108.56 -3.12501 -4.33874 0
M  V30 12017 C 1109.86 -4.50485 -2.64312 0
M  V30 12018 H 1111.55 -2.71187 -1.26877 0
M  V30 12019 H 1109.1 -1.30492 -0.608924 0
M  V30 12020 H 1111.05 -2.13102 -3.63546 0
M  V30 12021 H 1109.78 -1.00625 -3.10712 0
M  V30 12022 H 1108.44 -2.93477 -2.19697 0
M  V30 12023 H 1108.08 -2.15245 -4.54619 0
M  V30 12024 H 1107.78 -3.90183 -4.39353 0
M  V30 12025 H 1109.31 -3.32164 -5.12347 0
M  V30 12026 H 1110.72 -4.68387 -3.30585 0
M  V30 12027 H 1109.12 -5.30163 -2.81153 0
M  V30 12028 H 1110.19 -4.57848 -1.59696 0
M  V30 12029 N 1111.53 0.65634 -1.43283 0
M  V30 12030 C 1112.78 1.41212 -1.44021 0
M  V30 12031 C 1113.09 1.95485 -0.0669783 0
M  V30 12032 O 1114.3 2.71457 0.0481909 0
M  V30 12033 C 1112.76 2.55541 -2.5343 0
M  V30 12034 C 1112.36 2.07889 -3.96845 0
M  V30 12035 C 1114.11 3.3293 -2.63359 0
M  V30 12036 C 1112.01 3.19411 -4.97726 0
M  V30 12037 H 1110.94 0.530566 -0.535739 0
M  V30 12038 H 1113.6 0.708743 -1.6926 0
M  V30 12039 H 1111.98 3.28335 -2.21387 0
M  V30 12040 H 1113.15 1.42127 -4.38334 0
M  V30 12041 H 1111.47 1.43388 -3.90933 0
M  V30 12042 H 1114.06 4.1602 -3.35903 0
M  V30 12043 H 1114.41 3.80753 -1.68324 0
M  V30 12044 H 1114.94 2.67216 -2.94687 0
M  V30 12045 H 1111.68 2.7656 -5.94302 0
M  V30 12046 H 1111.2 3.83895 -4.60853 0
M  V30 12047 H 1112.88 3.84591 -5.20287 0
M  V30 12048 N 1113.01 1.29761 0.894412 0
M  V30 12049 C 1114.24 1.20765 1.67629 0
M  V30 12050 C 1114.65 -0.233434 1.87754 0
M  V30 12051 O 1113.99 -1.16747 1.4183 0
M  V30 12052 C 1114.05 1.85542 3.07919 0
M  V30 12053 C 1113.72 3.34852 3.11004 0
M  V30 12054 C 1114.71 4.30994 2.90758 0
M  V30 12055 C 1112.4 3.76141 3.32901 0
M  V30 12056 C 1114.39 5.664 2.92352 0
M  V30 12057 C 1112.08 5.11667 3.34126 0
M  V30 12058 C 1113.08 6.06607 3.13874 0
M  V30 12059 O 1112.77 7.39659 3.14897 0
M  V30 12060 H 1112.5 0.419418 0.530155 0
M  V30 12061 H 1115.05 1.71754 1.12648 0
M  V30 12062 H 1113.28 1.29071 3.64524 0
M  V30 12063 H 1114.97 1.70795 3.68217 0
M  V30 12064 H 1115.74 4.00427 2.73648 0
M  V30 12065 H 1111.62 3.02694 3.47703 0
M  V30 12066 H 1115.16 6.40479 2.76464 0
M  V30 12067 H 1111.06 5.41877 3.50769 0
M  V30 12068 H 1111.82 7.4853 3.31127 0
M  V30 12069 N 1114.49 -1.10549 1.12324 0
M  V30 12070 C 1115.74 -1.81851 0.872531 0
M  V30 12071 C 1116.05 -1.86058 -0.603468 0
M  V30 12072 O 1117.26 -2.53553 -0.970736 0
M  V30 12073 C 1115.71 -3.26631 1.51131 0
M  V30 12074 C 1115.32 -3.30725 3.02201 0
M  V30 12075 C 1117.06 -4.02768 1.34082 0
M  V30 12076 C 1114.97 -4.69957 3.59018 0
M  V30 12077 H 1113.9 -0.681422 0.322769 0
M  V30 12078 H 1116.55 -1.24332 1.34959 0
M  V30 12079 H 1114.93 -3.8414 0.961913 0
M  V30 12080 H 1116.11 -2.83046 3.63623 0
M  V30 12081 H 1114.42 -2.68072 3.18632 0
M  V30 12082 H 1117.02 -5.05612 1.73955 0
M  V30 12083 H 1117.36 -4.15328 0.284369 0
M  V30 12084 H 1117.9 -3.51671 1.85937 0
M  V30 12085 H 1114.63 -4.62597 4.64418 0
M  V30 12086 H 1114.15 -5.18008 3.02371 0
M  V30 12087 H 1115.83 -5.38925 3.58007 0
M  V30 12088 N 1115.97 -0.914965 -1.28321 0
M  V30 12089 C 1116.92 -0.375436 -2.24888 0
M  V30 12090 C 1117.9 0.51313 -1.52498 0
M  V30 12091 O 1119.09 0.352654 -1.73451 0
M  V30 12092 C 1116.22 0.382266 -3.41165 0
M  V30 12093 C 1115.31 -0.522089 -4.20874 0
M  V30 12094 N 1115.7 -1.63623 -4.78603 0
M  V30 12095 C 1114 -0.322703 -4.44831 0
M  V30 12096 C 1114.7 -2.19766 -5.38589 0
M  V30 12097 N 1113.67 -1.48878 -5.22816 0
M  V30 12098 H 1117.47 -1.2263 -2.67094 0
M  V30 12099 H 1114.99 -0.767759 -1.43106 0
M  V30 12100 H 1116.99 0.785641 -4.0943 0
M  V30 12101 H 1115.65 1.23021 -3.00493 0
M  V30 12102 H 1116.66 -2.01879 -4.76933 0
M  V30 12103 H 1113.33 0.485627 -4.14666 0
M  V30 12104 H 1114.72 -3.13494 -5.94282 0
M  V30 12105 N 1117.44 1.42219 -0.679077 0
M  V30 12106 C 1118.67 2.06333 -0.210097 0
M  V30 12107 C 1119.09 1.50703 1.12562 0
M  V30 12108 O 1118.45 0.627241 1.70104 0
M  V30 12109 C 1118.5 3.60243 -0.160322 0
M  V30 12110 O 1117.6 4.03122 0.869872 0
M  V30 12111 H 1116.94 0.655362 -0.106754 0
M  V30 12112 H 1119.47 1.82278 -0.929294 0
M  V30 12113 H 1119.48 4.07997 0.014384 0
M  V30 12114 H 1118.16 4.00106 -1.13526 0
M  V30 12115 H 1116.74 3.66907 0.66586 0
M  V30 12116 N 1118.92 0.422693 1.51826 0
M  V30 12117 C 1119.87 -0.396088 2.27376 0
M  V30 12118 C 1120.84 -1.02946 1.30351 0
M  V30 12119 O 1122.02 -1.05116 1.59233 0
M  V30 12120 C 1119.16 -1.49942 3.10824 0
M  V30 12121 C 1118.28 -0.885623 4.22825 0
M  V30 12122 C 1117.41 -1.96278 4.93608 0
M  V30 12123 C 1116.45 -1.32664 5.97551 0
M  V30 12124 N 1115.59 -2.34452 6.61798 0
M  V30 12125 H 1120.43 0.254571 2.96911 0
M  V30 12126 H 1117.96 0.137383 1.46457 0
M  V30 12127 H 1119.92 -2.15023 3.57521 0
M  V30 12128 H 1118.55 -2.11991 2.43433 0
M  V30 12129 H 1117.6 -0.123491 3.80199 0
M  V30 12130 H 1118.92 -0.381057 4.97342 0
M  V30 12131 H 1118.07 -2.69055 5.43778 0
M  V30 12132 H 1116.81 -2.50103 4.18688 0
M  V30 12133 H 1115.81 -0.584262 5.46687 0
M  V30 12134 H 1117.04 -0.7959 6.7442 0
M  V30 12135 H 1114.99 -2.87385 5.897 0
M  V30 12136 H 1114.9 -1.88845 7.32034 0
M  V30 12137 H 1116.17 -3.06757 7.16603 0
M  V30 12138 N 1120.4 -1.5685 0.153553 0
M  V30 12139 C 1121.65 -1.96625 -0.49665 0
M  V30 12140 C 1121.98 -1.03877 -1.64083 0
M  V30 12141 O 1121.25 -0.0824112 -1.94325 0
M  V30 12142 C 1121.54 -3.46035 -0.996585 0
M  V30 12143 C 1121.39 -4.49561 0.146551 0
M  V30 12144 C 1122.71 -3.98104 -1.8762 0
M  V30 12145 H 1119.83 -0.714917 -0.179059 0
M  V30 12146 H 1122.47 -1.88527 0.236104 0
M  V30 12147 H 1120.62 -3.53066 -1.621 0
M  V30 12148 H 1122.29 -4.54604 0.783108 0
M  V30 12149 H 1120.53 -4.26271 0.804727 0
M  V30 12150 H 1121.21 -5.51456 -0.245078 0
M  V30 12151 H 1123.68 -3.93593 -1.34997 0
M  V30 12152 H 1122.56 -5.03098 -2.19508 0
M  V30 12153 H 1122.82 -3.40852 -2.81554 0
M  V30 12154 N 1121.88 0.120221 -1.57141 0
M  V30 12155 C 1122.81 1.14876 -2.03287 0
M  V30 12156 C 1123.79 1.43259 -0.917112 0
M  V30 12157 O 1124.97 1.53721 -1.18674 0
M  V30 12158 C 1122.1 2.47525 -2.43616 0
M  V30 12159 C 1121.06 2.33607 -3.58625 0
M  V30 12160 C 1120.38 3.71207 -3.84849 0
M  V30 12161 C 1121.68 1.79761 -4.90391 0
M  V30 12162 H 1123.38 0.764943 -2.89463 0
M  V30 12163 H 1120.92 0.366516 -1.39258 0
M  V30 12164 H 1122.88 3.19728 -2.74504 0
M  V30 12165 H 1121.6 2.87794 -1.54409 0
M  V30 12166 H 1120.26 1.63853 -3.27945 0
M  V30 12167 H 1119.91 4.0896 -2.9285 0
M  V30 12168 H 1119.61 3.62749 -4.62263 0
M  V30 12169 H 1121.13 4.44917 -4.18188 0
M  V30 12170 H 1122.55 2.4178 -5.19822 0
M  V30 12171 H 1120.94 1.82126 -5.71795 0
M  V30 12172 H 1122.01 0.755087 -4.78985 0
M  V30 12173 N 1123.36 1.52689 0.390367 0
M  V30 12174 C 1124.61 1.6689 1.13272 0
M  V30 12175 C 1124.92 0.414433 1.91159 0
M  V30 12176 O 1126.12 0.436559 2.67967 0
M  V30 12177 C 1124.58 2.94929 2.06264 0
M  V30 12178 C 1124.19 4.27551 1.33805 0
M  V30 12179 C 1125.93 3.18497 2.80642 0
M  V30 12180 C 1123.84 5.46698 2.25554 0
M  V30 12181 H 1122.77 0.621749 0.426549 0
M  V30 12182 H 1125.42 1.79185 0.395615 0
M  V30 12183 H 1123.8 2.76378 2.83604 0
M  V30 12184 H 1124.98 4.56651 0.616997 0
M  V30 12185 H 1123.29 4.10234 0.713913 0
M  V30 12186 H 1125.89 4.04693 3.49467 0
M  V30 12187 H 1126.23 2.33511 3.44642 0
M  V30 12188 H 1126.76 3.37607 2.10395 0
M  V30 12189 H 1123.5 6.34088 1.66171 0
M  V30 12190 H 1123.02 5.21913 2.95579 0
M  V30 12191 H 1124.7 5.80519 2.85668 0
M  V30 12192 N 1124.83 -0.648732 1.43629 0
M  V30 12193 C 1125.8 -1.74331 1.488 0
M  V30 12194 C 1126.8 -1.56434 0.372147 0
M  V30 12195 O 1127.99 -1.6225 0.634078 0
M  V30 12196 C 1125.12 -3.13248 1.34494 0
M  V30 12197 H 1126.31 -1.71125 2.46285 0
M  V30 12198 H 1123.87 -0.860798 1.30461 0
M  V30 12199 H 1124.6 -3.22062 0.380345 0
M  V30 12200 H 1124.39 -3.27643 2.15389 0
M  V30 12201 H 1125.88 -3.93056 1.41055 0
M  V30 12202 N 1126.31 -1.30234 -0.887518 0
M  V30 12203 C 1127.59 -1.09572 -1.62029 0
M  V30 12204 C 1127.97 0.355877 -2.08079 0
M  V30 12205 O 1127.32 1.34692 -1.84582 0
M  V30 12206 C 1127.53 -2.0943 -2.79177 0
M  V30 12207 C 1128.88 -2.4101 -3.4957 0
M  V30 12208 O 1129.9 -2.0772 -2.89363 0
M  V30 12209 O 1128.76 -2.97943 -4.5814 0
M  V30 12210 H 1125.85 -0.420648 -0.712028 0
M  V30 12211 H 1128.4 -1.41651 -0.934517 0
M  V30 12212 H 1127.17 -3.07149 -2.42436 0
M  V30 12213 H 1126.79 -1.78154 -3.55453 0
M  V30 12214 N 1127.79 1.09952 -1.12909 0
M  V30 12215 C 1129.07 1.78547 -0.798767 0
M  V30 12216 C 1129.45 1.9878 0.710624 0
M  V30 12217 O 1128.8 1.58485 1.64604 0
M  V30 12218 C 1129.01 3.1121 -1.57953 0
M  V30 12219 C 1130.35 3.86006 -1.76874 0
M  V30 12220 O 1131.38 3.20946 -1.54506 0
M  V30 12221 O 1130.24 5.02791 -2.14158 0
M  V30 12222 H 1127.33 0.774084 -0.291072 0
M  V30 12223 H 1129.88 1.16557 -1.2334 0
M  V30 12224 H 1128.65 2.91935 -2.60557 0
M  V30 12225 H 1128.27 3.80922 -1.13948 0
M  V30 12226 N 1129.27 0.921757 1.27833 0
M  V30 12227 C 1130.68 0.621102 1.47019 0
M  V30 12228 C 1130.88 -0.831338 1.83551 0
M  V30 12229 O 1129.94 -1.60974 1.94534 0
M  V30 12230 C 1131.25 1.56588 2.56712 0
M  V30 12231 C 1132.8 1.57346 2.70576 0
M  V30 12232 C 1133.28 2.50505 3.8342 0
M  V30 12233 N 1134.77 2.48678 3.90786 0
M  V30 12234 C 1135.5 3.17454 4.77505 0
M  V30 12235 N 1135 3.95588 5.68755 0
M  V30 12236 N 1136.79 3.06501 4.71183 0
M  V30 12237 H 1128.94 1.86085 1.02403 0
M  V30 12238 H 1131.21 0.798595 0.510833 0
M  V30 12239 H 1130.91 2.60175 2.36647 0
M  V30 12240 H 1130.79 1.30305 3.53978 0
M  V30 12241 H 1133.17 0.544919 2.90025 0
M  V30 12242 H 1133.25 1.87675 1.73815 0
M  V30 12243 H 1132.9 3.53466 3.64725 0
M  V30 12244 H 1132.83 2.17474 4.79596 0
M  V30 12245 H 1135.32 1.91928 3.25534 0
M  V30 12246 H 1135.63 4.45066 6.31772 0
M  V30 12247 H 1133.98 3.99692 5.6857 0
M  V30 12248 H 1137.17 2.44958 3.9889 0
M  V30 12249 H 1137.34 3.60372 5.3855 0
M  V30 12250 N 1130.75 -1.41857 0.686609 0
M  V30 12251 C 1131.97 -2.05699 0.222561 0
M  V30 12252 C 1132.39 -1.51636 -1.12481 0
M  V30 12253 O 1131.75 -0.660925 -1.70112 0
M  V30 12254 C 1131.8 -3.61138 0.161818 0
M  V30 12255 O 1131.52 -4.13199 1.45596 0
M  V30 12256 C 1133.02 -4.42112 -0.324304 0
M  V30 12257 H 1130.24 -0.662665 0.10543 0
M  V30 12258 H 1132.78 -1.81788 0.936671 0
M  V30 12259 H 1130.94 -3.8412 -0.503056 0
M  V30 12260 H 1131.35 -5.0717 1.33712 0
M  V30 12261 H 1132.83 -5.51097 -0.315694 0
M  V30 12262 H 1133.3 -4.1756 -1.36164 0
M  V30 12263 H 1133.91 -4.24174 0.309251 0
M  V30 12264 N 1132.22 -0.430739 -1.51599 0
M  V30 12265 C 1133.47 0.138133 -2.02329 0
M  V30 12266 C 1133.8 1.42934 -1.31466 0
M  V30 12267 O 1133.08 1.89743 -0.427551 0
M  V30 12268 C 1133.36 0.363677 -3.58259 0
M  V30 12269 C 1133.21 -0.94572 -4.39746 0
M  V30 12270 C 1134.53 1.13637 -4.25176 0
M  V30 12271 H 1131.65 0.0487287 -0.735387 0
M  V30 12272 H 1134.29 -0.568444 -1.81297 0
M  V30 12273 H 1132.44 0.965552 -3.7631 0
M  V30 12274 H 1134.12 -1.58107 -4.33359 0
M  V30 12275 H 1132.36 -1.55183 -4.05094 0
M  V30 12276 H 1133.03 -0.742031 -5.4699 0
M  V30 12277 H 1135.51 0.626608 -4.11355 0
M  V30 12278 H 1134.38 1.26294 -5.34173 0
M  V30 12279 H 1134.64 2.16273 -3.85588 0
M  V30 12280 N 1133.7 1.56767 -0.161869 0
M  V30 12281 C 1134.95 1.95769 0.485536 0
M  V30 12282 C 1135.26 1.05006 1.65025 0
M  V30 12283 O 1136.47 1.33649 2.36326 0
M  V30 12284 C 1134.93 3.4807 0.915176 0
M  V30 12285 C 1134.53 4.47443 -0.223416 0
M  V30 12286 C 1136.28 3.95909 1.53153 0
M  V30 12287 C 1134.19 5.90971 0.225325 0
M  V30 12288 H 1133.12 0.730911 0.185161 0
M  V30 12289 H 1135.77 1.81808 -0.248592 0
M  V30 12290 H 1134.15 3.57415 1.705 0
M  V30 12291 H 1135.32 4.49805 -1.00061 0
M  V30 12292 H 1133.64 4.09606 -0.749127 0
M  V30 12293 H 1136.23 5.00592 1.87915 0
M  V30 12294 H 1136.58 3.38307 2.42599 0
M  V30 12295 H 1137.11 3.89542 0.806322 0
M  V30 12296 H 1133.85 6.52426 -0.634124 0
M  V30 12297 H 1133.37 5.91936 0.96808 0
M  V30 12298 H 1135.05 6.43497 0.672373 0
M  V30 12299 N 1135.18 -0.111886 1.57202 0
M  V30 12300 C 1136.43 -0.817022 1.84412 0
M  V30 12301 C 1136.74 -1.80708 0.748608 0
M  V30 12302 O 1137.95 -2.55891 0.907319 0
M  V30 12303 C 1136.4 -1.50376 3.26979 0
M  V30 12304 C 1136.01 -0.554334 4.44557 0
M  V30 12305 C 1137.76 -2.19361 3.63429 0
M  V30 12306 C 1135.66 -1.24471 5.78153 0
M  V30 12307 H 1134.59 -0.308864 0.687836 0
M  V30 12308 H 1137.24 -0.0698109 1.83367 0
M  V30 12309 H 1135.63 -2.29785 3.22514 0
M  V30 12310 H 1136.8 0.207045 4.60335 0
M  V30 12311 H 1135.12 0.0289261 4.1639 0
M  V30 12312 H 1137.71 -2.71716 4.60515 0
M  V30 12313 H 1138.06 -2.97488 2.91215 0
M  V30 12314 H 1138.59 -1.46833 3.69709 0
M  V30 12315 H 1135.33 -0.504584 6.53555 0
M  V30 12316 H 1134.85 -1.97792 5.66249 0
M  V30 12317 H 1136.53 -1.77591 6.2215 0
M  V30 12318 N 1136.66 -1.52894 -0.382264 0
M  V30 12319 C 1137.91 -1.67933 -1.1244 0
M  V30 12320 C 1138.23 -0.425166 -1.90309 0
M  V30 12321 O 1137.5 0.560557 -1.87709 0
M  V30 12322 H 1136.08 -0.619047 -0.418079 0
M  V30 12323 H 1138.74 -1.90031 -0.432928 0
M  V30 12324 H 1137.84 -2.53285 -1.82355 0
M  V30 12325 N 1138.14 0.641106 -1.43971 0
M  V30 12326 C 1139.36 1.43324 -1.4991 0
M  V30 12327 C 1139.79 1.87705 -0.121908 0
M  V30 12328 O 1139.15 1.58127 0.886875 0
M  V30 12329 C 1139.19 2.63637 -2.46025 0
M  V30 12330 O 1138.3 3.63123 -1.95488 0
M  V30 12331 H 1137.64 0.429252 -0.506595 0
M  V30 12332 H 1140.17 0.783427 -1.89007 0
M  V30 12333 H 1140.18 3.11304 -2.63731 0
M  V30 12334 H 1138.85 2.30678 -3.46064 0
M  V30 12335 H 1137.43 3.22332 -1.87501 0
M  V30 12336 N 1139.62 1.30703 0.880598 0
M  V30 12337 C 1140.58 1.17429 1.96832 0
M  V30 12338 C 1141.58 0.104305 1.60461 0
M  V30 12339 O 1142.77 0.352758 1.70591 0
M  V30 12340 C 1139.9 0.800099 3.31378 0
M  V30 12341 H 1141.09 2.14069 2.10034 0
M  V30 12342 H 1138.65 1.14162 1.06755 0
M  V30 12343 H 1139.38 -0.165606 3.23877 0
M  V30 12344 H 1139.17 1.57341 3.59146 0
M  V30 12345 H 1140.66 0.730826 4.11155 0
M  V30 12346 N 1141.09 -1.09351 1.1349 0
M  V30 12347 C 1142.04 -2.18099 0.808426 0
M  V30 12348 C 1143.04 -1.68099 -0.209571 0
M  V30 12349 O 1144.24 -1.79877 -0.0666417 0
M  V30 12350 H 1140.62 -0.711432 0.243658 0
M  V30 12351 H 1142.59 -2.42867 1.73373 0
M  V30 12352 C 1141.34 -3.46475 0.291615 0
M  V30 12353 H 1140.66 -3.85319 1.06627 0
M  V30 12354 H 1142.1 -4.23878 0.101616 0
M  V30 12355 C 1140.56 -3.22245 -0.982827 0
M  V30 12356 O 1141.09 -3.44947 -2.0585 0
M  V30 12357 N 1139.29 -2.75845 -0.914218 0
M  V30 12358 H 1138.84 -2.57571 -0.03872 0
M  V30 12359 H 1138.8 -2.60011 -1.76753 0
M  V30 12360 N 1142.57 -0.928524 -1.27343 0
M  V30 12361 C 1143.82 -0.565207 -1.93619 0
M  V30 12362 C 1144.13 0.897988 -1.73769 0
M  V30 12363 O 1145.34 1.37012 -2.34393 0
M  V30 12364 C 1143.8 -0.960052 -3.46859 0
M  V30 12365 C 1143.4 -2.44399 -3.75464 0
M  V30 12366 C 1145.15 -0.668026 -4.19211 0
M  V30 12367 C 1143.05 -2.77819 -5.22083 0
M  V30 12368 H 1141.98 -0.207665 -0.724839 0
M  V30 12369 H 1144.64 -1.12945 -1.44623 0
M  V30 12370 H 1143.02 -0.324454 -3.94669 0
M  V30 12371 H 1144.19 -3.12756 -3.38408 0
M  V30 12372 H 1142.51 -2.70799 -3.16317 0
M  V30 12373 H 1145.1 -0.894207 -5.2717 0
M  V30 12374 H 1145.45 0.394788 -4.14424 0
M  V30 12375 H 1145.98 -1.26276 -3.77226 0
M  V30 12376 H 1142.72 -3.83013 -5.3196 0
M  V30 12377 H 1142.24 -2.14112 -5.60282 0
M  V30 12378 H 1143.92 -2.65607 -5.89968 0
M  V30 12379 N 1144.05 1.41491 -0.694123 0
M  V30 12380 C 1145 2.32594 -0.0164704 0
M  V30 12381 C 1145.99 1.50884 0.770086 0
M  V30 12382 O 1147.2 1.66829 0.675871 0
M  V30 12383 H 1143.57 0.751879 0.0134743 0
M  V30 12384 H 1145.54 2.87423 -0.80191 0
M  V30 12385 C 1144.29 3.35661 0.90703 0
M  V30 12386 H 1143.62 3.98587 0.311205 0
M  V30 12387 H 1145.06 4.0195 1.34952 0
M  V30 12388 C 1143.51 2.69436 2.02253 0
M  V30 12389 O 1144.04 2.54107 3.11115 0
M  V30 12390 N 1142.25 2.28154 1.79984 0
M  V30 12391 H 1141.8 2.40821 0.914492 0
M  V30 12392 H 1141.76 1.84178 2.54805 0
M  V30 12393 N 1145.53 0.438773 1.51369 0
M  V30 12394 C 1146.8 -0.18722 1.94702 0
M  V30 12395 C 1147.18 -1.59962 1.37752 0
M  V30 12396 O 1146.53 -2.214 0.565171 0
M  V30 12397 C 1146.74 -0.163491 3.48617 0
M  V30 12398 C 1148.09 -0.368355 4.22999 0
M  V30 12399 O 1149.11 -0.241541 3.5538 0
M  V30 12400 O 1147.97 -0.620916 5.42961 0
M  V30 12401 H 1145.07 -0.129194 0.816846 0
M  V30 12402 H 1147.61 0.496855 1.62263 0
M  V30 12403 H 1146.39 0.823882 3.82528 0
M  V30 12404 H 1146.01 -0.890414 3.87501 0
M  V30 12405 N 1147.01 -1.56678 0.170181 0
M  V30 12406 C 1148.42 -1.58512 -0.185999 0
M  V30 12407 C 1148.62 -1.18548 -1.62937 0
M  V30 12408 O 1147.68 -0.896554 -2.36047 0
M  V30 12409 C 1148.99 -3.00554 0.0937842 0
M  V30 12410 C 1150.54 -3.12984 0.0319057 0
M  V30 12411 C 1151.01 -4.57115 0.284664 0
M  V30 12412 N 1152.5 -4.62617 0.2324 0
M  V30 12413 C 1153.24 -5.71988 0.40216 0
M  V30 12414 N 1152.74 -6.89921 0.630915 0
M  V30 12415 N 1154.53 -5.61082 0.338144 0
M  V30 12416 H 1146.68 -1.80944 1.11235 0
M  V30 12417 H 1148.94 -0.838586 0.442128 0
M  V30 12418 H 1148.65 -3.34265 1.09362 0
M  V30 12419 H 1148.52 -3.72151 -0.615118 0
M  V30 12420 H 1150.91 -2.791 -0.958502 0
M  V30 12421 H 1150.99 -2.43825 0.773501 0
M  V30 12422 H 1150.63 -4.91707 1.27227 0
M  V30 12423 H 1150.56 -5.2443 -0.477529 0
M  V30 12424 H 1153.06 -3.7785 0.0611933 0
M  V30 12425 H 1153.37 -7.69153 0.749931 0
M  V30 12426 H 1151.71 -6.91787 0.667516 0
M  V30 12427 H 1154.9 -4.67826 0.16003 0
M  V30 12428 H 1155.08 -6.46265 0.473872 0
M  V30 12429 N 1148.48 0.103547 -1.57259 0
M  V30 12430 C 1149.71 0.82624 -1.90232 0
M  V30 12431 C 1150.13 1.71902 -0.763641 0
M  V30 12432 O 1149.49 1.79043 0.285181 0
M  V30 12433 C 1149.54 1.62265 -3.22029 0
M  V30 12434 O 1148.64 2.73091 -3.09023 0
M  V30 12435 H 1147.98 0.227528 -0.6238 0
M  V30 12436 H 1150.51 0.081307 -2.04438 0
M  V30 12437 H 1150.52 2.00865 -3.5513 0
M  V30 12438 H 1149.2 0.967383 -4.04493 0
M  V30 12439 H 1147.78 2.3758 -2.8742 0
M  V30 12440 N 1149.96 1.53094 0.37415 0
M  V30 12441 C 1150.89 1.81901 1.46404 0
M  V30 12442 C 1151.87 0.671949 1.56265 0
M  V30 12443 O 1153.06 0.920978 1.70973 0
M  V30 12444 C 1150.19 2.00123 2.83845 0
M  V30 12445 C 1149.14 3.15864 2.88814 0
M  V30 12446 C 1148.47 3.19364 4.28848 0
M  V30 12447 C 1149.77 4.54633 2.57112 0
M  V30 12448 H 1151.46 2.73172 1.22546 0
M  V30 12449 H 1149.01 1.31444 0.588087 0
M  V30 12450 H 1150.96 2.18859 3.6011 0
M  V30 12451 H 1149.68 1.05555 3.09072 0
M  V30 12452 H 1148.34 2.96935 2.15 0
M  V30 12453 H 1147.99 2.2245 4.51137 0
M  V30 12454 H 1147.69 3.97123 4.3309 0
M  V30 12455 H 1149.22 3.40273 5.06997 0
M  V30 12456 H 1150.63 4.73587 3.23091 0
M  V30 12457 H 1149.03 5.34569 2.72683 0
M  V30 12458 H 1150.1 4.60331 1.52392 0
M  V30 12459 N 1151.44 -0.633461 1.44309 0
M  V30 12460 C 1152.37 -1.75676 1.53819 0
M  V30 12461 C 1153.35 -1.65537 0.391365 0
M  V30 12462 O 1154.54 -1.84332 0.611181 0
M  V30 12463 C 1151.67 -3.14197 1.47979 0
M  V30 12464 C 1150.62 -3.39122 2.61113 0
M  V30 12465 C 1149.95 -4.77648 2.40325 0
M  V30 12466 C 1151.25 -3.31914 4.03274 0
M  V30 12467 H 1152.94 -1.67974 2.47841 0
M  V30 12468 H 1150.49 -0.8067 1.19283 0
M  V30 12469 H 1152.44 -3.92553 1.53233 0
M  V30 12470 H 1151.16 -3.22677 0.504718 0
M  V30 12471 H 1149.82 -2.63145 2.55245 0
M  V30 12472 H 1149.47 -4.82829 1.41016 0
M  V30 12473 H 1149.17 -4.95284 3.16177 0
M  V30 12474 H 1150.69 -5.58237 2.47394 0
M  V30 12475 H 1152.11 -4.00178 4.10524 0
M  V30 12476 H 1150.5 -3.61085 4.7931 0
M  V30 12477 H 1151.57 -2.29761 4.2701 0
M  V30 12478 N 1152.92 -1.31168 -0.873655 0
M  V30 12479 C 1154.17 -1.20404 -1.62319 0
M  V30 12480 C 1154.49 0.238829 -1.93532 0
M  V30 12481 O 1153.76 1.15854 -1.57971 0
M  V30 12482 H 1152.34 -0.442632 -0.601736 0
M  V30 12483 H 1155 -1.64445 -1.04613 0
M  V30 12484 H 1154.1 -1.77309 -2.56842 0
M  V30 12485 N 1154.4 1.08748 -1.14068 0
M  V30 12486 C 1155.34 2.15573 -0.824425 0
M  V30 12487 C 1156.31 1.64683 0.216522 0
M  V30 12488 O 1157.5 1.90601 0.0872193 0
M  V30 12489 C 1154.64 3.43756 -0.30423 0
M  V30 12490 C 1153.75 4.08512 -1.40506 0
M  V30 12491 C 1152.89 5.24477 -0.842479 0
M  V30 12492 C 1151.93 5.81167 -1.92123 0
M  V30 12493 N 1151.06 6.88483 -1.37608 0
M  V30 12494 H 1155.9 2.41968 -1.73941 0
M  V30 12495 H 1153.44 1.18751 -0.868143 0
M  V30 12496 H 1155.4 4.17197 0.0155546 0
M  V30 12497 H 1154.03 3.17658 0.573868 0
M  V30 12498 H 1153.08 3.32866 -1.84131 0
M  V30 12499 H 1154.39 4.46669 -2.2201 0
M  V30 12500 H 1153.55 6.04842 -0.474389 0
M  V30 12501 H 1152.28 4.877 0.00355212 0
M  V30 12502 H 1151.29 4.99458 -2.29831 0
M  V30 12503 H 1152.51 6.20003 -2.77079 0
M  V30 12504 H 1150.46 6.53672 -0.552168 0
M  V30 12505 H 1150.38 7.25446 -2.12752 0
M  V30 12506 H 1151.65 7.72588 -1.03578 0
M  V30 12507 N 1155.87 0.935264 1.26849 0
M  V30 12508 C 1157.29 0.636661 1.46352 0
M  V30 12509 C 1157.49 -0.811823 1.84423 0
M  V30 12510 O 1156.55 -1.58902 1.9623 0
M  V30 12511 C 1157.86 1.59301 2.55036 0
M  V30 12512 C 1159.41 1.60207 2.68892 0
M  V30 12513 C 1159.88 2.54558 3.80742 0
M  V30 12514 N 1161.37 2.52809 3.88126 0
M  V30 12515 C 1162.11 3.225 4.74111 0
M  V30 12516 N 1161.6 4.01598 5.64527 0
M  V30 12517 N 1163.4 3.11481 4.67906 0
M  V30 12518 H 1155.55 1.8716 1.00423 0
M  V30 12519 H 1157.81 0.803968 0.502334 0
M  V30 12520 H 1157.52 2.62671 2.33874 0
M  V30 12521 H 1157.39 1.34052 3.52576 0
M  V30 12522 H 1159.78 0.575649 2.89431 0
M  V30 12523 H 1159.86 1.89508 1.71815 0
M  V30 12524 H 1159.5 3.57314 3.60956 0
M  V30 12525 H 1159.43 2.22549 4.77263 0
M  V30 12526 H 1161.92 1.9537 3.2348 0
M  V30 12527 H 1162.24 4.51742 6.27016 0
M  V30 12528 H 1160.58 4.057 5.64298 0
M  V30 12529 H 1163.77 2.49175 3.9627 0
M  V30 12530 H 1163.95 3.66064 5.34697 0
M  V30 12531 N 1157.35 -1.41121 0.701616 0
M  V30 12532 C 1158.63 -1.9492 0.162911 0
M  V30 12533 C 1159.01 -1.64064 -1.32839 0
M  V30 12534 O 1158.36 -0.950848 -2.07777 0
M  V30 12535 C 1158.57 -3.45946 0.460673 0
M  V30 12536 C 1159.92 -4.22789 0.391706 0
M  V30 12537 O 1160.94 -3.53993 0.395931 0
M  V30 12538 O 1159.8 -5.45332 0.357071 0
M  V30 12539 H 1156.89 -0.826793 0.0185103 0
M  V30 12540 H 1159.44 -1.50805 0.778192 0
M  V30 12541 H 1158.21 -3.61711 1.49269 0
M  V30 12542 H 1157.83 -3.97168 -0.185277 0
M  V30 12543 N 1158.83 -0.446794 -1.51134 0
M  V30 12544 C 1160.06 0.117242 -2.07068 0
M  V30 12545 C 1160.48 1.34877 -1.3111 0
M  V30 12546 O 1159.84 1.77856 -0.35172 0
M  V30 12547 C 1159.89 0.408616 -3.58277 0
M  V30 12548 O 1158.99 1.49345 -3.84408 0
M  V30 12549 H 1158.33 -0.00228458 -0.663996 0
M  V30 12550 H 1160.86 -0.63085 -1.94632 0
M  V30 12551 H 1160.87 0.656298 -4.02687 0
M  V30 12552 H 1159.55 -0.491444 -4.12986 0
M  V30 12553 H 1158.12 1.23499 -3.51856 0
M  V30 12554 N 1160.31 1.56586 -0.178487 0
M  V30 12555 C 1161.22 2.21903 0.761321 0
M  V30 12556 C 1162.23 1.21289 1.2476 0
M  V30 12557 O 1163.41 1.53974 1.29823 0
M  V30 12558 C 1160.48 2.85259 1.97048 0
M  V30 12559 C 1159.54 4.01095 1.53039 0
M  V30 12560 C 1158.77 4.61421 2.68191 0
M  V30 12561 O 1158.99 4.20644 3.85247 0
M  V30 12562 O 1157.93 5.51171 2.41855 0
M  V30 12563 H 1161.75 3.02788 0.235141 0
M  V30 12564 H 1159.34 1.49316 0.0500442 0
M  V30 12565 H 1161.22 3.25404 2.6775 0
M  V30 12566 H 1159.89 2.07366 2.48558 0
M  V30 12567 H 1158.8 3.65606 0.792661 0
M  V30 12568 H 1160.13 4.80603 1.06213 0
M  V30 12569 N 1161.79 -0.095206 1.57312 0
M  V30 12570 C 1162.72 -1.11627 2.05089 0
M  V30 12571 C 1163.7 -1.41782 0.939787 0
M  V30 12572 O 1164.88 -1.51813 1.21105 0
M  V30 12573 C 1162.01 -2.43618 2.47523 0
M  V30 12574 C 1160.97 -2.27872 3.62296 0
M  V30 12575 C 1160.29 -3.65038 3.90706 0
M  V30 12576 C 1161.59 -1.71936 4.93189 0
M  V30 12577 H 1163.29 -0.718795 2.90644 0
M  V30 12578 H 1160.83 -0.344315 1.39823 0
M  V30 12579 H 1162.79 -3.1532 2.79556 0
M  V30 12580 H 1161.51 -2.85301 1.58968 0
M  V30 12581 H 1160.17 -1.58615 3.3051 0
M  V30 12582 H 1159.82 -4.04249 2.99319 0
M  V30 12583 H 1159.52 -3.55349 4.67976 0
M  V30 12584 H 1161.04 -4.38208 4.25213 0
M  V30 12585 H 1162.45 -2.33479 5.23603 0
M  V30 12586 H 1160.85 -1.73006 5.74621 0
M  V30 12587 H 1161.92 -0.678789 4.80125 0
M  V30 12588 N 1163.26 -1.53291 -0.366026 0
M  V30 12589 C 1164.23 -1.79025 -1.43117 0
M  V30 12590 C 1165.23 -0.660676 -1.46601 0
M  V30 12591 O 1166.42 -0.928875 -1.47369 0
M  V30 12592 C 1163.55 -1.91192 -2.82238 0
M  V30 12593 H 1164.74 -2.74154 -1.21572 0
M  V30 12594 H 1162.3 -1.44361 -0.599132 0
M  V30 12595 H 1163.03 -0.98129 -3.09097 0
M  V30 12596 H 1162.82 -2.7335 -2.81109 0
M  V30 12597 H 1164.31 -2.12696 -3.59375 0
M  V30 12598 N 1164.74 0.6258 -1.44643 0
M  V30 12599 C 1165.99 1.3873 -1.47925 0
M  V30 12600 C 1166.32 1.93868 -0.113469 0
M  V30 12601 O 1165.6 1.73976 0.869639 0
M  V30 12602 C 1165.88 2.54867 -2.54391 0
M  V30 12603 C 1165.73 2.05044 -4.00346 0
M  V30 12604 C 1167.05 3.57043 -2.57309 0
M  V30 12605 H 1164.17 0.503087 -0.538584 0
M  V30 12606 H 1166.81 0.707102 -1.76352 0
M  V30 12607 H 1164.96 3.12894 -2.30281 0
M  V30 12608 H 1166.63 1.51807 -4.35606 0
M  V30 12609 H 1164.88 1.36185 -4.11869 0
M  V30 12610 H 1165.55 2.88681 -4.70497 0
M  V30 12611 H 1168.02 3.08826 -2.78865 0
M  V30 12612 H 1166.9 4.35818 -3.33698 0
M  V30 12613 H 1167.16 4.11464 -1.61708 0
M  V30 12614 N 1166.22 1.31629 0.866686 0
M  V30 12615 C 1167.15 1.22151 1.99001 0
M  V30 12616 C 1168.13 0.107972 1.69757 0
M  V30 12617 O 1169.32 0.293125 1.91975 0
M  V30 12618 C 1166.45 0.93144 3.34577 0
M  V30 12619 C 1165.4 2.0049 3.78137 0
M  V30 12620 C 1164.73 1.56747 5.11209 0
M  V30 12621 C 1166.03 3.41844 3.94892 0
M  V30 12622 H 1167.72 2.16132 2.0719 0
M  V30 12623 H 1165.27 1.04051 0.995463 0
M  V30 12624 H 1167.22 0.851719 4.12703 0
M  V30 12625 H 1165.94 -0.0440289 3.2657 0
M  V30 12626 H 1164.6 2.07457 3.02253 0
M  V30 12627 H 1164.25 0.579767 4.99648 0
M  V30 12628 H 1163.95 2.28562 5.41326 0
M  V30 12629 H 1165.47 1.50188 5.91841 0
M  V30 12630 H 1166.89 3.37534 4.63405 0
M  V30 12631 H 1165.29 4.11905 4.36411 0
M  V30 12632 H 1166.36 3.82389 2.98172 0
M  V30 12633 N 1167.7 -1.08142 1.14644 0
M  V30 12634 C 1168.95 -1.79959 0.910908 0
M  V30 12635 C 1169.26 -1.87296 -0.563866 0
M  V30 12636 O 1170.47 -2.55555 -0.916735 0
M  V30 12637 C 1168.92 -3.23351 1.58025 0
M  V30 12638 C 1168.53 -3.2424 3.09148 0
M  V30 12639 C 1170.28 -3.99834 1.42595 0
M  V30 12640 C 1168.18 -4.62236 3.68906 0
M  V30 12641 H 1167.11 -0.674423 0.33715 0
M  V30 12642 H 1169.76 -1.21441 1.37566 0
M  V30 12643 H 1168.15 -3.82013 1.04318 0
M  V30 12644 H 1169.32 -2.75269 3.69545 0
M  V30 12645 H 1167.63 -2.61253 3.24246 0
M  V30 12646 H 1170.23 -5.01809 1.8464 0
M  V30 12647 H 1170.57 -4.14631 0.372402 0
M  V30 12648 H 1171.11 -3.47648 1.93354 0
M  V30 12649 H 1167.85 -4.52642 4.74126 0
M  V30 12650 H 1167.37 -5.11477 3.1329 0
M  V30 12651 H 1169.05 -5.3121 3.69358 0
M  V30 12652 N 1169.18 -0.941978 -1.26351 0
M  V30 12653 C 1170.09 -0.45833 -2.30079 0
M  V30 12654 C 1171.1 0.468084 -1.67586 0
M  V30 12655 O 1172.28 0.347418 -1.98381 0
M  V30 12656 C 1169.34 0.26797 -3.45663 0
M  V30 12657 C 1168.41 -0.695102 -4.23635 0
M  V30 12658 C 1167.64 -0.003369 -5.337 0
M  V30 12659 O 1167.86 1.21342 -5.57344 0
M  V30 12660 O 1166.8 -0.682476 -5.98018 0
M  V30 12661 H 1170.62 -1.31998 -2.73514 0
M  V30 12662 H 1168.21 -0.707897 -1.31564 0
M  V30 12663 H 1170.09 0.677061 -4.15925 0
M  V30 12664 H 1168.76 1.105 -3.04256 0
M  V30 12665 H 1167.67 -1.15415 -3.55851 0
M  V30 12666 H 1169 -1.49977 -4.68794 0
M  V30 12667 N 1170.66 1.40747 -0.709091 0
M  V30 12668 C 1171.93 1.94831 -0.173246 0
M  V30 12669 C 1172.31 1.64766 1.31967 0
M  V30 12670 O 1171.66 0.961853 2.07269 0
M  V30 12671 C 1171.87 3.45697 -0.479013 0
M  V30 12672 C 1173.22 4.22576 -0.414122 0
M  V30 12673 O 1174.24 3.53778 -0.414699 0
M  V30 12674 O 1173.1 5.45135 -0.385986 0
M  V30 12675 H 1170.2 0.826683 -0.0228947 0
M  V30 12676 H 1172.74 1.50391 -0.786178 0
M  V30 12677 H 1171.51 3.60914 -1.51185 0
M  V30 12678 H 1171.14 3.97261 0.164211 0
M  V30 12679 N 1172.13 0.454803 1.50895 0
M  V30 12680 C 1173.36 -0.103936 2.06639 0
M  V30 12681 C 1173.78 -1.34943 1.32044 0
M  V30 12682 O 1173.13 -1.78393 0.384972 0
M  V30 12683 C 1173.18 -0.408546 3.59184 0
M  V30 12684 O 1172.91 0.787535 4.30963 0
M  V30 12685 C 1174.41 -1.01605 4.31499 0
M  V30 12686 H 1171.63 -0.000171839 0.671 0
M  V30 12687 H 1174.17 0.638907 1.94263 0
M  V30 12688 H 1172.33 -1.1013 3.71416 0
M  V30 12689 H 1172.74 0.52229 5.21893 0
M  V30 12690 H 1174.21 -1.17906 5.39261 0
M  V30 12691 H 1174.69 -2.00182 3.90927 0
M  V30 12692 H 1175.3 -0.362155 4.23755 0
M  V30 12693 N 1173.61 -1.56489 0.186789 0
M  V30 12694 C 1174.52 -2.22304 -0.749543 0
M  V30 12695 C 1175.54 -1.21949 -1.24115 0
M  V30 12696 O 1176.71 -1.5466 -1.29005 0
M  V30 12697 C 1173.78 -2.863 -1.95533 0
M  V30 12698 C 1172.84 -4.01901 -1.5091 0
M  V30 12699 C 1172.07 -4.62837 -2.6574 0
M  V30 12700 O 1172.3 -4.22681 -3.8301 0
M  V30 12701 O 1171.23 -5.52446 -2.38929 0
M  V30 12702 H 1175.06 -3.02909 -0.21908 0
M  V30 12703 H 1172.64 -1.49341 -0.0421249 0
M  V30 12704 H 1174.52 -3.2682 -2.6602 0
M  V30 12705 H 1173.2 -2.08681 -2.47455 0
M  V30 12706 H 1172.1 -3.66021 -0.773261 0
M  V30 12707 H 1173.44 -4.8116 -1.03663 0
M  V30 12708 N 1175.09 0.086862 -1.5736 0
M  V30 12709 C 1176.32 0.802167 -1.90717 0
M  V30 12710 C 1176.73 1.71875 -0.781304 0
M  V30 12711 O 1176.09 1.80831 0.246255 0
M  V30 12712 C 1176.14 1.60858 -3.23739 0
M  V30 12713 O 1175.86 0.728851 -4.31995 0
M  V30 12714 C 1177.36 2.42621 -3.71012 0
M  V30 12715 H 1174.58 0.228914 -0.630745 0
M  V30 12716 H 1177.13 0.061634 -2.04407 0
M  V30 12717 H 1175.28 2.30153 -3.11622 0
M  V30 12718 H 1175.7 1.2882 -5.08435 0
M  V30 12719 H 1177.17 2.94683 -4.66761 0
M  V30 12720 H 1177.65 3.21462 -2.99264 0
M  V30 12721 H 1178.25 1.78509 -3.86024 0
M  V30 12722 N 1176.57 1.53483 0.357892 0
M  V30 12723 C 1177.48 1.83434 1.4625 0
M  V30 12724 C 1178.49 0.723313 1.58254 0
M  V30 12725 O 1179.67 1.01416 1.74002 0
M  V30 12726 C 1176.73 2.0249 2.81423 0
M  V30 12727 C 1175.8 3.26378 2.78883 0
M  V30 12728 C 1175.03 3.44516 4.07608 0
M  V30 12729 O 1175.25 2.66787 5.04163 0
M  V30 12730 O 1174.19 4.37898 4.12952 0
M  V30 12731 H 1178.01 2.77294 1.23861 0
M  V30 12732 H 1175.6 1.38958 0.548722 0
M  V30 12733 H 1177.48 2.16552 3.61501 0
M  V30 12734 H 1176.15 1.11819 3.03773 0
M  V30 12735 H 1175.06 3.17733 1.97475 0
M  V30 12736 H 1176.39 4.16996 2.61486 0
M  V30 12737 N 1178.05 -0.61812 1.44973 0
M  V30 12738 C 1179.46 -1.19994 1.43033 0
M  V30 12739 C 1179.81 -1.95607 0.152422 0
M  V30 12740 O 1178.93 -2.03114 -0.746571 0
M  V30 12741 C 1179.53 -2.18269 2.59122 0
M  V30 12742 C 1178.09 -2.7185 2.60336 0
M  V30 12743 C 1177.23 -1.4707 2.35086 0
M  V30 12744 H 1180.18 -0.408034 1.53365 0
M  V30 12745 H 1180.21 -3.01113 2.32619 0
M  V30 12746 H 1179.72 -1.63208 3.52115 0
M  V30 12747 H 1177.82 -3.30878 1.7132 0
M  V30 12748 H 1177.93 -3.17001 3.59231 0
M  V30 12749 H 1176.3 -1.75658 1.84435 0
M  V30 12750 H 1177.08 -0.938928 3.30211 0
M  V30 12751 N 1179.52 -1.32087 -0.859693 0
M  V30 12752 C 1180.75 -1.25486 -1.6513 0
M  V30 12753 C 1181.17 0.175015 -1.87284 0
M  V30 12754 O 1180.53 1.12468 -1.42199 0
M  V30 12755 C 1180.58 -2.01469 -2.9907 0
M  V30 12756 O 1179.68 -1.35904 -3.89363 0
M  V30 12757 H 1179.02 -0.432728 -0.503629 0
M  V30 12758 H 1181.55 -1.74322 -1.07112 0
M  V30 12759 H 1181.56 -2.11452 -3.4893 0
M  V30 12760 H 1180.24 -3.05448 -2.82266 0
M  V30 12761 H 1178.82 -1.34437 -3.47823 0
M  V30 12762 N 1181 1.07532 -1.15215 0
M  V30 12763 C 1181.93 2.1668 -0.870171 0
M  V30 12764 C 1182.91 1.69161 0.178483 0
M  V30 12765 O 1184.1 1.94172 0.0332489 0
M  V30 12766 C 1181.23 3.45464 -0.356666 0
M  V30 12767 C 1180.18 4.06424 -1.34179 0
M  V30 12768 C 1179.51 5.30266 -0.687206 0
M  V30 12769 C 1180.81 4.46666 -2.70715 0
M  V30 12770 H 1182.5 2.40526 -1.7829 0
M  V30 12771 H 1180.05 1.15598 -0.858665 0
M  V30 12772 H 1182 4.21144 -0.146947 0
M  V30 12773 H 1180.72 3.21199 0.591527 0
M  V30 12774 H 1179.38 3.32786 -1.53783 0
M  V30 12775 H 1179.03 5.0229 0.267077 0
M  V30 12776 H 1178.73 5.72009 -1.34462 0
M  V30 12777 H 1180.26 6.08653 -0.487218 0
M  V30 12778 H 1181.67 5.13483 -2.54966 0
M  V30 12779 H 1180.07 4.99355 -3.32813 0
M  V30 12780 H 1181.14 3.58123 -3.26919 0
M  V30 12781 N 1182.48 0.948665 1.2585 0
M  V30 12782 C 1183.41 0.408398 2.24516 0
M  V30 12783 C 1184.39 -0.506954 1.54495 0
M  V30 12784 O 1185.58 -0.442695 1.83228 0
M  V30 12785 C 1182.7 -0.41241 3.3618 0
M  V30 12786 C 1181.75 0.442483 4.24198 0
M  V30 12787 S 1182.58 1.87106 5.01749 0
M  V30 12788 C 1183.74 1.05851 6.16884 0
M  V30 12789 H 1183.97 1.24458 2.69995 0
M  V30 12790 H 1181.5 0.752309 1.34832 0
M  V30 12791 H 1183.46 -0.880064 4.00955 0
M  V30 12792 H 1182.12 -1.22335 2.89297 0
M  V30 12793 H 1181.32 -0.186767 5.03654 0
M  V30 12794 H 1180.92 0.845113 3.64327 0
M  V30 12795 H 1183.21 0.304329 6.76816 0
M  V30 12796 H 1184.15 1.82678 6.8413 0
M  V30 12797 H 1184.56 0.591269 5.61395 0
M  V30 12798 N 1183.96 -1.40369 0.716545 0
M  V30 12799 C 1184.91 -2.32539 0.053472 0
M  V30 12800 C 1185.9 -1.5209 -0.745984 0
M  V30 12801 O 1187.11 -1.67883 -0.649245 0
M  V30 12802 H 1183.48 -0.751998 -0.00151088 0
M  V30 12803 H 1185.45 -2.86111 0.847535 0
M  V30 12804 C 1184.2 -3.37061 -0.853515 0
M  V30 12805 H 1183.52 -3.99032 -0.247754 0
M  V30 12806 H 1184.96 -4.04046 -1.28541 0
M  V30 12807 C 1183.42 -2.72619 -1.97941 0
M  V30 12808 O 1183.95 -2.59024 -3.07033 0
M  V30 12809 N 1182.16 -2.30988 -1.76332 0
M  V30 12810 H 1181.71 -2.42246 -0.876063 0
M  V30 12811 H 1181.66 -1.88209 -2.51843 0
M  V30 12812 N 1185.44 -0.462799 -1.50652 0
M  V30 12813 C 1186.68 0.0948568 -2.01877 0
M  V30 12814 C 1187.01 1.4096 -1.34741 0
M  V30 12815 O 1186.28 1.89671 -0.49006 0
M  V30 12816 H 1184.86 0.0380453 -0.746031 0
M  V30 12817 H 1187.52 -0.611327 -1.85064 0
M  V30 12818 H 1186.61 0.252378 -3.11078 0
M  V30 12819 N 1186.91 1.56388 -0.195085 0
M  V30 12820 C 1187.88 2.17859 0.712053 0
M  V30 12821 C 1188.88 1.13304 1.141 0
M  V30 12822 O 1190.07 1.38689 1.05409 0
M  V30 12823 C 1187.2 2.78065 1.97213 0
M  V30 12824 H 1188.39 2.9938 0.176529 0
M  V30 12825 H 1185.95 1.56205 0.0545322 0
M  V30 12826 H 1186.68 2.00342 2.55017 0
M  V30 12827 H 1186.47 3.54603 1.67329 0
M  V30 12828 H 1187.96 3.25266 2.619 0
M  V30 12829 N 1188.39 -0.0785156 1.57404 0
M  V30 12830 C 1189.3 -1.11203 2.0657 0
M  V30 12831 C 1190.32 -1.42822 0.993872 0
M  V30 12832 O 1191.49 -1.53133 1.30814 0
M  V30 12833 C 1188.56 -2.40812 2.4942 0
M  V30 12834 C 1187.62 -2.16225 3.70871 0
M  V30 12835 C 1186.85 -3.39654 4.11668 0
M  V30 12836 O 1187.08 -4.48521 3.524 0
M  V30 12837 O 1186.01 -3.28263 5.04507 0
M  V30 12838 H 1189.84 -0.724381 2.94935 0
M  V30 12839 H 1187.42 -0.292184 1.46515 0
M  V30 12840 H 1189.3 -3.17101 2.77534 0
M  V30 12841 H 1187.98 -2.7897 1.64187 0
M  V30 12842 H 1186.89 -1.37663 3.4785 0
M  V30 12843 H 1188.22 -1.82951 4.56935 0
M  V30 12844 N 1189.87 -1.5367 -0.349747 0
M  V30 12845 C 1191.1 -1.74294 -1.10928 0
M  V30 12846 C 1191.51 -0.479102 -1.83033 0
M  V30 12847 O 1190.85 0.558621 -1.75 0
M  V30 12848 C 1190.91 -2.86457 -2.17216 0
M  V30 12849 C 1190.58 -4.26274 -1.6474 0
M  V30 12850 C 1191.57 -5.08065 -1.10302 0
M  V30 12851 C 1189.26 -4.72739 -1.69774 0
M  V30 12852 C 1191.25 -6.34417 -0.615938 0
M  V30 12853 C 1188.94 -5.99066 -1.20678 0
M  V30 12854 C 1189.94 -6.79737 -0.6668 0
M  V30 12855 O 1189.63 -8.03691 -0.183143 0
M  V30 12856 H 1189.36 -0.586046 -0.336937 0
M  V30 12857 H 1191.91 -2.01274 -0.409645 0
M  V30 12858 H 1190.14 -2.54988 -2.9072 0
M  V30 12859 H 1191.83 -2.95109 -2.78686 0
M  V30 12860 H 1192.6 -4.73333 -1.05739 0
M  V30 12861 H 1188.48 -4.1001 -2.10744 0
M  V30 12862 H 1192.02 -6.97331 -0.193795 0
M  V30 12863 H 1187.92 -6.33293 -1.24939 0
M  V30 12864 H 1188.69 -8.17946 -0.301008 0
M  V30 12865 N 1191.35 0.610423 -1.45298 0
M  V30 12866 C 1192.28 1.73507 -1.4976 0
M  V30 12867 C 1193.29 1.58092 -0.38867 0
M  V30 12868 O 1194.48 1.66026 -0.655571 0
M  V30 12869 C 1191.58 3.11475 -1.33554 0
M  V30 12870 C 1190.76 3.53156 -2.5807 0
M  V30 12871 C 1189.81 4.70076 -2.36463 0
M  V30 12872 O 1188.84 4.77337 -3.10061 0
M  V30 12873 N 1190.04 5.63155 -1.40843 0
M  V30 12874 H 1192.81 1.70144 -2.46721 0
M  V30 12875 H 1190.37 0.79562 -1.41002 0
M  V30 12876 H 1192.36 3.87444 -1.16914 0
M  V30 12877 H 1190.93 3.09361 -0.448803 0
M  V30 12878 H 1190.15 2.67178 -2.89844 0
M  V30 12879 H 1191.44 3.77761 -3.40843 0
M  V30 12880 H 1190.84 5.60001 -0.800982 0
M  V30 12881 H 1189.39 6.38669 -1.30175 0
M  V30 12882 N 1192.83 1.32541 0.852676 0
M  V30 12883 C 1193.79 1.21578 1.94297 0
M  V30 12884 C 1194.79 0.138318 1.60204 0
M  V30 12885 O 1195.98 0.388864 1.69804 0
M  V30 12886 C 1193.11 0.870209 3.29606 0
M  V30 12887 H 1194.3 2.18476 2.05446 0
M  V30 12888 H 1191.86 1.16401 1.0431 0
M  V30 12889 H 1192.59 -0.0968698 3.24155 0
M  V30 12890 H 1192.38 1.64924 3.55728 0
M  V30 12891 H 1193.87 0.817874 4.09513 0
M  V30 12892 N 1194.3 -1.0692 1.15784 0
M  V30 12893 C 1195.55 -1.79245 0.933581 0
M  V30 12894 C 1195.87 -1.87362 -0.540427 0
M  V30 12895 O 1195.14 -1.37769 -1.39271 0
M  V30 12896 H 1193.72 -0.663898 0.342416 0
M  V30 12897 H 1196.39 -1.29189 1.45932 0
M  V30 12898 H 1195.48 -2.81546 1.34679 0
M  V30 12899 N 1195.78 -0.955326 -1.25345 0
M  V30 12900 C 1197.2 -0.659863 -1.4532 0
M  V30 12901 C 1197.4 0.78238 -1.85691 0
M  V30 12902 O 1196.45 1.5576 -1.98734 0
M  V30 12903 C 1197.77 -1.63339 -2.5247 0
M  V30 12904 C 1199.32 -1.64464 -2.66309 0
M  V30 12905 C 1199.79 -2.60583 -3.76644 0
M  V30 12906 N 1201.28 -2.58951 -3.84055 0
M  V30 12907 C 1202.02 -3.30002 -4.6892 0
M  V30 12908 N 1201.51 -4.10528 -5.58067 0
M  V30 12909 N 1203.31 -3.18886 -4.62891 0
M  V30 12910 H 1195.46 -1.88734 -0.97433 0
M  V30 12911 H 1197.72 -0.811858 -0.48948 0
M  V30 12912 H 1197.43 -2.66358 -2.29665 0
M  V30 12913 H 1197.3 -1.39644 -3.50399 0
M  V30 12914 H 1199.69 -0.621622 -2.88479 0
M  V30 12915 H 1199.77 -1.92218 -1.68778 0
M  V30 12916 H 1199.41 -3.63011 -3.55226 0
M  V30 12917 H 1199.34 -2.30113 -4.73662 0
M  V30 12918 H 1201.83 -2.00491 -3.20331 0
M  V30 12919 H 1202.15 -4.6166 -6.1975 0
M  V30 12920 H 1200.49 -4.14626 -5.57773 0
M  V30 12921 H 1203.68 -2.55447 -3.92255 0
M  V30 12922 H 1203.85 -3.74524 -5.28806 0
M  V30 12923 N 1197.26 1.39987 -0.723979 0
M  V30 12924 C 1198.51 2.00731 -0.267115 0
M  V30 12925 C 1198.84 1.57424 1.14228 0
M  V30 12926 O 1198.09 0.789205 1.79081 0
M  V30 12927 C 1198.39 3.56101 -0.304472 0
M  V30 12928 C 1198.06 4.1902 -1.66533 0
M  V30 12929 C 1196.72 4.3592 -2.03783 0
M  V30 12930 C 1199.07 4.54034 -2.55935 0
M  V30 12931 C 1196.4 4.85119 -3.29964 0
M  V30 12932 C 1198.75 5.04637 -3.81477 0
M  V30 12933 C 1197.41 5.19745 -4.18833 0
M  V30 12934 H 1196.68 0.734525 -0.0977442 0
M  V30 12935 H 1199.33 1.67476 -0.928659 0
M  V30 12936 H 1197.64 3.89314 0.440647 0
M  V30 12937 H 1199.33 4.00944 0.0669875 0
M  V30 12938 H 1195.92 4.0626 -1.36569 0
M  V30 12939 H 1200.11 4.40606 -2.2843 0
M  V30 12940 H 1195.36 4.95001 -3.58865 0
M  V30 12941 H 1199.54 5.30705 -4.50916 0
M  V30 12942 H 1197.16 5.5763 -5.16675 0
M  V30 12943 N 1198.74 0.470782 1.50404 0
M  V30 12944 C 1199.7 -0.312227 2.27063 0
M  V30 12945 C 1200.7 -0.920709 1.31832 0
M  V30 12946 O 1201.89 -0.789937 1.5526 0
M  V30 12947 C 1199.02 -1.44477 3.0877 0
M  V30 12948 H 1200.22 0.36006 2.97731 0
M  V30 12949 H 1197.77 0.224837 1.54674 0
M  V30 12950 H 1198.51 -2.15212 2.42599 0
M  V30 12951 H 1198.29 -1.01426 3.78755 0
M  V30 12952 H 1199.78 -1.99713 3.66749 0
M  V30 12953 N 1200.22 -1.56282 0.203376 0
M  V30 12954 C 1201.15 -2.2247 -0.709183 0
M  V30 12955 C 1202.13 -1.19046 -1.21499 0
M  V30 12956 O 1203.31 -1.47578 -1.26231 0
M  V30 12957 C 1200.44 -2.8905 -1.92529 0
M  V30 12958 C 1199.4 -3.98789 -1.55407 0
M  V30 12959 C 1198.72 -4.52574 -2.84747 0
M  V30 12960 C 1200.02 -5.16774 -0.75775 0
M  V30 12961 H 1201.72 -2.98986 -0.157392 0
M  V30 12962 H 1199.26 -1.43808 -0.0742613 0
M  V30 12963 H 1201.22 -3.34038 -2.56898 0
M  V30 12964 H 1199.94 -2.09952 -2.50175 0
M  V30 12965 H 1198.6 -3.54504 -0.933928 0
M  V30 12966 H 1198.25 -3.70229 -3.40499 0
M  V30 12967 H 1197.95 -5.26627 -2.6065 0
M  V30 12968 H 1199.47 -5.00269 -3.5009 0
M  V30 12969 H 1200.89 -5.58256 -1.30472 0
M  V30 12970 H 1199.28 -5.96945 -0.614583 0
M  V30 12971 H 1200.35 -4.84308 0.239476 0
M  V30 12972 N 1201.7 0.070167 -1.57444 0
M  V30 12973 C 1202.92 0.785703 -1.91941 0
M  V30 12974 C 1203.35 1.70243 -0.799932 0
M  V30 12975 O 1202.7 1.79608 0.247139 0
M  V30 12976 C 1202.75 1.55398 -3.25398 0
M  V30 12977 O 1201.86 2.66475 -3.14746 0
M  V30 12978 H 1201.2 0.214245 -0.628486 0
M  V30 12979 H 1203.73 0.0379243 -2.04565 0
M  V30 12980 H 1203.74 1.93287 -3.5931 0
M  V30 12981 H 1202.41 0.881366 -4.06454 0
M  V30 12982 H 1200.99 2.3143 -2.92394 0
M  V30 12983 N 1203.17 1.53854 0.341593 0
M  V30 12984 C 1204.1 1.84966 1.42513 0
M  V30 12985 C 1205.08 0.704944 1.54805 0
M  V30 12986 O 1206.27 0.957036 1.68981 0
M  V30 12987 C 1203.4 2.06099 2.79536 0
M  V30 12988 C 1202.35 3.21919 2.82049 0
M  V30 12989 C 1201.68 3.28389 4.21977 0
M  V30 12990 C 1202.98 4.59984 2.4741 0
M  V30 12991 H 1204.67 2.7571 1.16724 0
M  V30 12992 H 1202.22 1.32662 0.560073 0
M  V30 12993 H 1204.17 2.26448 3.55386 0
M  V30 12994 H 1202.9 1.12087 3.06764 0
M  V30 12995 H 1201.56 3.01429 2.08653 0
M  V30 12996 H 1201.2 2.3197 4.46317 0
M  V30 12997 H 1200.9 4.0622 4.24569 0
M  V30 12998 H 1202.43 3.50951 4.99666 0
M  V30 12999 H 1203.84 4.80334 3.12973 0
M  V30 13000 H 1202.24 5.40233 2.61282 0
M  V30 13001 H 1203.31 4.6346 1.42594 0
M  V30 13002 N 1204.65 -0.602709 1.4562 0
M  V30 13003 C 1206.07 -0.923983 1.30133 0
M  V30 13004 C 1206.27 -1.99842 0.25796 0
M  V30 13005 O 1205.32 -2.50112 -0.346414 0
M  V30 13006 C 1206.64 -1.36029 2.68173 0
M  V30 13007 C 1208.18 -1.47423 2.76108 0
M  V30 13008 C 1208.66 -1.94427 4.14683 0
M  V30 13009 N 1210.15 -2.01653 4.17002 0
M  V30 13010 C 1210.89 -2.39255 5.211 0
M  V30 13011 N 1210.38 -2.75791 6.3554 0
M  V30 13012 N 1212.17 -2.39636 5.08459 0
M  V30 13013 H 1204.33 0.107377 2.12128 0
M  V30 13014 H 1206.59 -0.0146216 0.947887 0
M  V30 13015 H 1206.29 -0.644949 3.45736 0
M  V30 13016 H 1206.17 -2.32584 2.96959 0
M  V30 13017 H 1208.56 -2.18047 1.98845 0
M  V30 13018 H 1208.64 -0.4917 2.5103 0
M  V30 13019 H 1208.28 -1.24389 4.92433 0
M  V30 13020 H 1208.21 -2.93603 4.37156 0
M  V30 13021 H 1210.7 -1.75988 3.3442 0
M  V30 13022 H 1211.01 -3.03378 7.10761 0
M  V30 13023 H 1209.36 -2.73475 6.38934 0
M  V30 13024 H 1212.55 -2.10502 4.18098 0
M  V30 13025 H 1212.72 -2.68614 5.89704 0
M  V30 13026 N 1206.13 -1.32992 -0.845635 0
M  V30 13027 C 1207.08 -1.22682 -1.95494 0
M  V30 13028 C 1208.05 -0.106942 -1.65755 0
M  V30 13029 O 1209.23 -0.28405 -1.88674 0
M  V30 13030 C 1206.37 -0.965068 -3.31331 0
M  V30 13031 C 1205.48 -2.17058 -3.7351 0
M  V30 13032 C 1204.62 -1.84355 -4.98183 0
M  V30 13033 C 1203.66 -3.01176 -5.32878 0
M  V30 13034 N 1202.8 -2.68506 -6.48729 0
M  V30 13035 H 1207.64 -2.17562 -2.03644 0
M  V30 13036 H 1205.17 -1.08194 -0.996613 0
M  V30 13037 H 1207.13 -0.793771 -4.09579 0
M  V30 13038 H 1205.76 -0.0530285 -3.22756 0
M  V30 13039 H 1204.81 -2.45185 -2.90841 0
M  V30 13040 H 1206.12 -3.04413 -3.95138 0
M  V30 13041 H 1205.28 -1.6383 -5.84162 0
M  V30 13042 H 1204.02 -0.942264 -4.78511 0
M  V30 13043 H 1203.02 -3.22323 -4.45408 0
M  V30 13044 H 1204.25 -3.9205 -5.54503 0
M  V30 13045 H 1202.19 -1.80929 -6.30556 0
M  V30 13046 H 1202.11 -3.49392 -6.70419 0
M  V30 13047 H 1203.38 -2.51432 -7.37836 0
M  V30 13048 N 1207.61 1.06304 -1.1635 0
M  V30 13049 C 1208.56 2.12032 -0.83825 0
M  V30 13050 C 1209.54 1.59864 0.182254 0
M  V30 13051 O 1210.73 1.7699 -0.0185576 0
M  V30 13052 C 1207.86 3.41603 -0.340968 0
M  V30 13053 C 1206.95 4.00596 -1.39225 0
M  V30 13054 N 1207.34 4.33703 -2.6026 0
M  V30 13055 C 1205.64 4.28199 -1.24748 0
M  V30 13056 C 1206.34 4.80595 -3.27725 0
M  V30 13057 N 1205.31 4.80023 -2.55105 0
M  V30 13058 H 1209.12 2.35475 -1.75866 0
M  V30 13059 H 1206.63 1.23845 -1.05053 0
M  V30 13060 H 1208.63 4.16804 -0.0895629 0
M  V30 13061 H 1207.29 3.19598 0.57337 0
M  V30 13062 H 1208.3 4.24055 -2.97318 0
M  V30 13063 H 1204.98 4.15638 -0.393887 0
M  V30 13064 H 1206.37 5.15416 -4.31041 0
M  V30 13065 N 1209.09 0.96196 1.24836 0
M  V30 13066 C 1210.33 0.628484 1.94498 0
M  V30 13067 C 1210.69 -0.820337 1.73593 0
M  V30 13068 O 1211.89 -1.26376 2.37239 0
M  V30 13069 C 1210.16 0.986119 3.43527 0
M  V30 13070 S 1211.72 0.766324 4.32057 0
M  V30 13071 H 1208.54 0.230758 0.672511 0
M  V30 13072 H 1211.14 1.23769 1.51332 0
M  V30 13073 H 1209.84 2.03756 3.56247 0
M  V30 13074 H 1209.38 0.367454 3.9168 0
M  V30 13075 H 1211.39 -0.359227 4.94898 0
M  V30 13076 N 1210.56 -1.39601 0.731392 0
M  V30 13077 C 1211.81 -2.00586 0.277756 0
M  V30 13078 C 1212.14 -1.58027 -1.13391 0
M  V30 13079 O 1211.39 -0.798691 -1.7866 0
M  V30 13080 C 1211.69 -3.55934 0.323352 0
M  V30 13081 C 1211.36 -4.18131 1.68753 0
M  V30 13082 C 1210.02 -4.34833 2.06092 0
M  V30 13083 C 1212.37 -4.5267 2.58339 0
M  V30 13084 C 1209.7 -4.83362 3.32532 0
M  V30 13085 C 1212.05 -5.02607 3.84148 0
M  V30 13086 C 1210.72 -5.17517 4.21584 0
M  V30 13087 H 1209.99 -0.733996 0.101638 0
M  V30 13088 H 1212.63 -1.66981 0.937528 0
M  V30 13089 H 1210.94 -3.89542 -0.419995 0
M  V30 13090 H 1212.64 -4.00974 -0.0457235 0
M  V30 13091 H 1209.23 -4.0553 1.38722 0
M  V30 13092 H 1213.41 -4.39388 2.30763 0
M  V30 13093 H 1208.67 -4.93091 3.61485 0
M  V30 13094 H 1212.84 -5.28306 4.53724 0
M  V30 13095 H 1210.47 -5.54882 5.19625 0
M  V30 13096 N 1212.04 -0.478751 -1.50152 0
M  V30 13097 C 1213.29 0.0734397 -2.01967 0
M  V30 13098 C 1213.61 1.39523 -1.36229 0
M  V30 13099 O 1212.88 1.89141 -0.510149 0
M  V30 13100 H 1211.46 0.0301305 -0.746392 0
M  V30 13101 H 1214.12 -0.630921 -1.84406 0
M  V30 13102 H 1213.22 0.21937 -3.11328 0
M  V30 13103 N 1213.52 1.56172 -0.211661 0
M  V30 13104 C 1214.77 1.98332 0.423332 0
M  V30 13105 C 1215.1 1.09895 1.60115 0
M  V30 13106 O 1214.37 0.154477 1.93886 0
M  V30 13107 C 1214.66 3.49495 0.86747 0
M  V30 13108 C 1214.51 4.48708 -0.313302 0
M  V30 13109 C 1215.83 4.04793 1.72716 0
M  V30 13110 H 1212.95 0.72107 0.152402 0
M  V30 13111 H 1215.59 1.87521 -0.305912 0
M  V30 13112 H 1213.74 3.58839 1.48885 0
M  V30 13113 H 1215.41 4.51385 -0.951291 0
M  V30 13114 H 1213.66 4.2299 -0.96238 0
M  V30 13115 H 1214.33 5.51985 0.0402402 0
M  V30 13116 H 1216.8 3.98332 1.20296 0
M  V30 13117 H 1215.68 5.10898 2.00684 0
M  V30 13118 H 1215.94 3.51067 2.68709 0
M  V30 13119 N 1215 -0.0618163 1.57479 0
M  V30 13120 C 1216.25 -0.75794 1.86918 0
M  V30 13121 C 1216.56 -1.78234 0.80572 0
M  V30 13122 O 1217.77 -2.52874 0.98827 0
M  V30 13123 C 1216.22 -1.39898 3.31597 0
M  V30 13124 C 1215.83 -0.412621 4.46096 0
M  V30 13125 C 1217.57 -2.07688 3.70224 0
M  V30 13126 C 1215.48 -1.06014 5.8182 0
M  V30 13127 H 1214.41 -0.286825 0.697314 0
M  V30 13128 H 1217.06 -0.0114386 1.83496 0
M  V30 13129 H 1215.44 -2.19408 3.29661 0
M  V30 13130 H 1216.62 0.353392 4.59443 0
M  V30 13131 H 1214.93 0.161383 4.16087 0
M  V30 13132 H 1217.53 -2.56928 4.68927 0
M  V30 13133 H 1217.87 -2.88073 3.00532 0
M  V30 13134 H 1218.41 -1.34996 3.74194 0
M  V30 13135 H 1215.15 -0.296405 6.5483 0
M  V30 13136 H 1214.67 -1.79677 5.72255 0
M  V30 13137 H 1216.34 -1.57708 6.27485 0
M  V30 13138 N 1216.48 -1.54033 -0.333429 0
M  V30 13139 C 1217.41 -1.85719 -1.4153 0
M  V30 13140 C 1218.39 -0.713144 -1.54429 0
M  V30 13141 O 1219.57 -0.965984 -1.68471 0
M  V30 13142 C 1216.7 -2.07578 -2.78439 0
M  V30 13143 C 1215.66 -3.23411 -2.80338 0
M  V30 13144 C 1214.98 -3.30622 -4.2023 0
M  V30 13145 C 1216.28 -4.6129 -2.44968 0
M  V30 13146 H 1217.98 -2.76325 -1.15261 0
M  V30 13147 H 1215.52 -1.32957 -0.55303 0
M  V30 13148 H 1217.48 -2.28329 -3.5418 0
M  V30 13149 H 1216.2 -1.13713 -3.06165 0
M  V30 13150 H 1214.86 -3.02531 -2.07052 0
M  V30 13151 H 1214.51 -2.34333 -4.45081 0
M  V30 13152 H 1214.21 -4.08466 -4.22409 0
M  V30 13153 H 1215.73 -3.53596 -4.97798 0
M  V30 13154 H 1217.14 -4.81987 -3.10421 0
M  V30 13155 H 1215.54 -5.41611 -2.58414 0
M  V30 13156 H 1216.61 -4.6421 -1.40134 0
M  V30 13157 N 1217.95 0.594978 -1.45938 0
M  V30 13158 C 1219.2 1.35093 -1.50314 0
M  V30 13159 C 1219.52 1.94412 -0.151315 0
M  V30 13160 O 1218.79 1.77876 0.820787 0
M  V30 13161 H 1217.37 0.501549 -0.553586 0
M  V30 13162 H 1220.04 0.697735 -1.81983 0
M  V30 13163 H 1219.13 2.16393 -2.24901 0
M  V30 13164 N 1219.43 1.33438 0.838571 0
M  V30 13165 C 1220.4 1.23632 1.92997 0
M  V30 13166 C 1221.4 0.155302 1.60048 0
M  V30 13167 O 1222.59 0.406852 1.69382 0
M  V30 13168 C 1219.72 0.90512 3.28665 0
M  V30 13169 H 1220.91 2.20643 2.03117 0
M  V30 13170 H 1218.46 1.17501 1.03069 0
M  V30 13171 H 1219.2 -0.0624833 3.2424 0
M  V30 13172 H 1218.98 1.68688 3.53959 0
M  V30 13173 H 1220.47 0.861262 4.08622 0
M  V30 13174 N 1220.91 -1.05686 1.16912 0
M  V30 13175 C 1221.86 -2.15417 0.877404 0
M  V30 13176 C 1222.85 -1.6868 -0.155986 0
M  V30 13177 O 1224.06 -1.79998 -0.00938156 0
M  V30 13178 H 1220.43 -0.70332 0.266168 0
M  V30 13179 H 1222.4 -2.37228 1.81012 0
M  V30 13180 C 1221.15 -3.45372 0.401696 0
M  V30 13181 H 1220.48 -3.81732 1.18832 0
M  V30 13182 H 1221.92 -4.2334 0.236418 0
M  V30 13183 C 1220.38 -3.25209 -0.87981 0
M  V30 13184 O 1220.91 -3.51322 -1.94771 0
M  V30 13185 N 1219.11 -2.78614 -0.825997 0
M  V30 13186 H 1218.66 -2.57564 0.0432439 0
M  V30 13187 H 1218.62 -2.65503 -1.68391 0
M  V30 13188 N 1222.39 -0.968567 -1.24324 0
M  V30 13189 C 1223.62 -0.648568 -1.96472 0
M  V30 13190 C 1224.03 0.782168 -1.71836 0
M  V30 13191 O 1223.39 1.5249 -1.00265 0
M  V30 13192 C 1223.44 -0.91482 -3.49733 0
M  V30 13193 O 1223.16 -2.28931 -3.73527 0
M  V30 13194 C 1224.66 -0.609131 -4.39095 0
M  V30 13195 H 1221.88 -0.241921 -0.625872 0
M  V30 13196 H 1224.43 -1.29673 -1.5813 0
M  V30 13197 H 1222.58 -0.31285 -3.86135 0
M  V30 13198 H 1222.99 -2.36998 -4.67902 0
M  V30 13199 H 1224.47 -0.845875 -5.4548 0
M  V30 13200 H 1224.95 0.456625 -4.3682 0
M  V30 13201 H 1225.55 -1.19105 -4.08282 0
M  V30 13202 N 1223.87 1.39211 -0.738786 0
M  V30 13203 C 1225.28 1.54116 -0.414773 0
M  V30 13204 C 1225.48 1.70497 1.07392 0
M  V30 13205 O 1224.54 1.7076 1.86003 0
M  V30 13206 C 1225.85 2.7567 -1.2011 0
M  V30 13207 C 1227.4 2.89508 -1.1897 0
M  V30 13208 C 1227.87 4.14005 -1.95868 0
M  V30 13209 N 1229.37 4.21052 -1.93053 0
M  V30 13210 C 1230.1 5.16341 -2.49358 0
M  V30 13211 N 1229.6 6.17396 -3.14316 0
M  V30 13212 N 1231.39 5.08585 -2.3937 0
M  V30 13213 H 1223.54 1.26827 -1.70378 0
M  V30 13214 H 1225.8 0.614983 -0.721457 0
M  V30 13215 H 1225.51 2.69922 -2.25467 0
M  V30 13216 H 1225.38 3.68443 -0.808065 0
M  V30 13217 H 1227.77 2.94747 -0.144248 0
M  V30 13218 H 1227.85 1.97788 -1.62214 0
M  V30 13219 H 1227.5 4.09527 -3.00416 0
M  V30 13220 H 1227.43 5.04776 -1.50028 0
M  V30 13221 H 1229.92 3.48669 -1.45733 0
M  V30 13222 H 1230.23 6.86572 -3.54737 0
M  V30 13223 H 1228.57 6.17772 -3.18407 0
M  V30 13224 H 1231.77 4.28573 -1.88262 0
M  V30 13225 H 1231.94 5.8267 -2.83549 0
M  V30 13226 N 1225.34 0.486708 1.49896 0
M  V30 13227 C 1226.76 0.0353906 1.86666 0
M  V30 13228 C 1227.11 -1.3743 1.40026 0
M  V30 13229 O 1226.23 -2.02163 0.77194 0
M  V30 13230 C 1226.83 0.0574475 3.38751 0
M  V30 13231 C 1225.39 -0.338464 3.74875 0
M  V30 13232 C 1224.53 0.436196 2.73848 0
M  V30 13233 H 1227.48 0.700215 1.42417 0
M  V30 13234 H 1227.5 -0.741175 3.73212 0
M  V30 13235 H 1227.02 1.08356 3.72667 0
M  V30 13236 H 1225.12 -1.36835 3.46565 0
M  V30 13237 H 1225.23 -0.0289519 4.79091 0
M  V30 13238 H 1223.59 -0.112141 2.54453 0
M  V30 13239 H 1224.38 1.46212 3.10608 0
M  V30 13240 N 1226.82 -1.56058 0.219941 0
M  V30 13241 C 1228.1 -1.90087 -0.46112 0
M  V30 13242 C 1228.48 -1.13705 -1.77861 0
M  V30 13243 O 1227.83 -0.245868 -2.27173 0
M  V30 13244 C 1228.04 -3.42786 -0.655644 0
M  V30 13245 C 1229.39 -4.13517 -0.963803 0
M  V30 13246 O 1230.41 -3.48376 -0.742488 0
M  V30 13247 O 1229.27 -5.28692 -1.38374 0
M  V30 13248 H 1226.36 -0.790311 -0.243595 0
M  V30 13249 H 1228.91 -1.67665 0.262005 0
M  V30 13250 H 1227.68 -3.90341 0.273738 0
M  V30 13251 H 1227.3 -3.70982 -1.43032 0
M  V30 13252 N 1228.3 0.053464 -1.57509 0
M  V30 13253 C 1229.23 1.06151 -2.07977 0
M  V30 13254 C 1230.21 1.3924 -0.977047 0
M  V30 13255 O 1231.4 1.48549 -1.25087 0
M  V30 13256 C 1228.53 2.36969 -2.53895 0
M  V30 13257 C 1227.48 2.18186 -3.6821 0
M  V30 13258 C 1226.81 3.54551 -4.00247 0
M  V30 13259 C 1228.11 1.588 -4.97574 0
M  V30 13260 H 1229.8 0.641483 -2.92447 0
M  V30 13261 H 1227.35 0.307122 -1.40687 0
M  V30 13262 H 1229.3 3.07797 -2.87817 0
M  V30 13263 H 1228.02 2.80986 -1.66476 0
M  V30 13264 H 1226.68 1.49796 -3.34599 0
M  V30 13265 H 1226.33 3.96171 -3.09932 0
M  V30 13266 H 1226.03 3.42816 -4.77232 0
M  V30 13267 H 1227.56 4.2678 -4.36682 0
M  V30 13268 H 1228.97 2.19515 -5.29609 0
M  V30 13269 H 1227.37 1.57711 -5.79006 0
M  V30 13270 H 1228.44 0.551254 -4.81756 0
M  V30 13271 N 1229.78 1.54207 0.325255 0
M  V30 13272 C 1231.06 1.6298 1.08153 0
M  V30 13273 C 1231.44 0.462583 2.05969 0
M  V30 13274 O 1230.78 -0.543323 2.21947 0
M  V30 13275 C 1230.99 2.999 1.78497 0
M  V30 13276 C 1232.34 3.55888 2.3158 0
M  V30 13277 O 1233.37 3.02194 1.88566 0
M  V30 13278 O 1232.23 4.49847 3.10322 0
M  V30 13279 H 1229.32 0.659923 0.498429 0
M  V30 13280 H 1231.87 1.66553 0.325282 0
M  V30 13281 H 1230.64 3.7629 1.07338 0
M  V30 13282 H 1230.26 2.99997 2.60936 0
M  V30 13283 N 1231.26 -0.58723 1.46251 0
M  V30 13284 C 1232.19 -1.70694 1.5933 0
M  V30 13285 C 1233.17 -1.64208 0.443831 0
M  V30 13286 O 1234.35 -1.82294 0.669516 0
M  V30 13287 C 1231.48 -3.0933 1.579 0
M  V30 13288 C 1230.44 -3.30643 2.7177 0
M  V30 13289 C 1229.76 -4.69761 2.554 0
M  V30 13290 C 1231.06 -3.18916 4.1363 0
M  V30 13291 H 1232.76 -1.60004 2.53059 0
M  V30 13292 H 1230.3 -0.768343 1.21789 0
M  V30 13293 H 1232.26 -3.87479 1.65644 0
M  V30 13294 H 1230.98 -3.20907 0.60712 0
M  V30 13295 H 1229.64 -2.54892 2.63488 0
M  V30 13296 H 1229.29 -4.78098 1.56306 0
M  V30 13297 H 1228.99 -4.84974 3.31774 0
M  V30 13298 H 1230.51 -5.50084 2.65028 0
M  V30 13299 H 1231.93 -3.86915 4.23048 0
M  V30 13300 H 1230.32 -3.45653 4.90555 0
M  V30 13301 H 1231.39 -2.1606 4.34104 0
M  V30 13302 N 1232.74 -1.33881 -0.831482 0
M  V30 13303 C 1234.15 -1.13376 -1.1233 0
M  V30 13304 C 1234.35 0.0704402 -2.01377 0
M  V30 13305 O 1233.41 0.748516 -2.4115 0
M  V30 13306 C 1234.72 -2.42484 -1.77826 0
M  V30 13307 C 1236.27 -2.4846 -1.90359 0
M  V30 13308 C 1236.74 -3.77548 -2.59272 0
M  V30 13309 N 1238.23 -3.7866 -2.66778 0
M  V30 13310 C 1238.97 -4.75258 -3.20807 0
M  V30 13311 N 1238.47 -5.82234 -3.75466 0
M  V30 13312 N 1240.26 -4.62724 -3.19128 0
M  V30 13313 H 1232.41 -2.11051 -0.238998 0
M  V30 13314 H 1234.67 -0.932893 -0.168565 0
M  V30 13315 H 1234.38 -3.30647 -1.19857 0
M  V30 13316 H 1234.25 -2.55186 -2.77777 0
M  V30 13317 H 1236.64 -1.60742 -2.47479 0
M  V30 13318 H 1236.72 -2.39693 -0.893359 0
M  V30 13319 H 1236.36 -4.65651 -2.02808 0
M  V30 13320 H 1236.29 -3.83594 -3.60781 0
M  V30 13321 H 1238.79 -3.01351 -2.28026 0
M  V30 13322 H 1239.1 -6.51968 -4.14918 0
M  V30 13323 H 1237.44 -5.85959 -3.73733 0
M  V30 13324 H 1240.63 -3.78303 -2.75688 0
M  V30 13325 H 1240.81 -5.38175 -3.60932 0
M  V30 13326 N 1234.21 1.05064 -1.1747 0
M  V30 13327 C 1235.49 1.74999 -0.873776 0
M  V30 13328 C 1235.87 2.01615 0.625676 0
M  V30 13329 O 1235.22 1.65324 1.57734 0
M  V30 13330 C 1235.43 3.04231 -1.7101 0
M  V30 13331 C 1236.78 3.78157 -1.93087 0
M  V30 13332 O 1237.8 3.14104 -1.6798 0
M  V30 13333 O 1236.66 4.93255 -2.3529 0
M  V30 13334 H 1233.75 0.761042 -0.323641 0
M  V30 13335 H 1236.3 1.1122 -1.28172 0
M  V30 13336 H 1235.07 2.80621 -2.72704 0
M  V30 13337 H 1234.69 3.75746 -1.30002 0
M  V30 13338 N 1235.69 0.975146 1.23809 0
M  V30 13339 C 1237.1 0.678873 1.7392 0
M  V30 13340 C 1237.45 -0.805133 1.78919 0
M  V30 13341 O 1236.58 -1.62984 1.42356 0
M  V30 13342 C 1237.17 1.22562 3.15854 0
M  V30 13343 C 1235.73 0.979096 3.63443 0
M  V30 13344 C 1234.88 1.35649 2.41857 0
M  V30 13345 H 1237.83 1.14961 1.09406 0
M  V30 13346 H 1237.85 0.595489 3.75811 0
M  V30 13347 H 1237.36 2.30571 3.12184 0
M  V30 13348 H 1235.46 -0.0851407 3.72503 0
M  V30 13349 H 1235.58 1.62998 4.5052 0
M  V30 13350 H 1233.94 0.774916 2.42626 0
M  V30 13351 H 1234.72 2.44624 2.40861 0
M  V30 13352 N 1237.17 -1.38817 0.746158 0
M  V30 13353 C 1238.42 -1.99519 0.295839 0
M  V30 13354 C 1238.73 -1.59897 -1.12661 0
M  V30 13355 O 1239.94 -2.13514 -1.67702 0
M  V30 13356 C 1238.39 -3.56712 0.477984 0
M  V30 13357 C 1238 -4.0529 1.90904 0
M  V30 13358 C 1239.75 -4.24405 0.0900039 0
M  V30 13359 C 1237.65 -5.55097 2.04014 0
M  V30 13360 H 1236.58 -0.746389 0.106861 0
M  V30 13361 H 1239.23 -1.58676 0.921637 0
M  V30 13362 H 1237.62 -3.95406 -0.216884 0
M  V30 13363 H 1238.79 -3.77904 2.63677 0
M  V30 13364 H 1237.1 -3.50297 2.25125 0
M  V30 13365 H 1239.7 -5.3444 0.16682 0
M  V30 13366 H 1240.04 -4.05166 -0.956349 0
M  V30 13367 H 1240.58 -3.90924 0.736446 0
M  V30 13368 H 1237.32 -5.7923 3.06877 0
M  V30 13369 H 1236.84 -5.8425 1.35692 0
M  V30 13370 H 1238.52 -6.20682 1.82656 0
M  V30 13371 N 1238.65 -0.49465 -1.49636 0
M  V30 13372 C 1239.89 0.0505629 -2.04337 0
M  V30 13373 C 1240.25 1.34858 -1.36665 0
M  V30 13374 O 1241.45 1.97763 -1.82052 0
M  V30 13375 C 1239.72 0.206247 -3.56804 0
M  V30 13376 S 1241.28 0.706624 -4.33073 0
M  V30 13377 H 1238.1 0.00479193 -0.710984 0
M  V30 13378 H 1240.7 -0.667169 -1.83764 0
M  V30 13379 H 1239.41 -0.743862 -4.03602 0
M  V30 13380 H 1238.94 0.949406 -3.81772 0
M  V30 13381 H 1240.95 1.97672 -4.55127 0
M  V30 13382 N 1240.13 1.55939 -0.228214 0
M  V30 13383 C 1241.4 1.90329 0.451033 0
M  V30 13384 C 1241.78 1.14646 1.77255 0
M  V30 13385 O 1241.13 0.257912 2.2704 0
M  V30 13386 C 1241.34 3.43129 0.637456 0
M  V30 13387 C 1242.69 4.14022 0.94186 0
M  V30 13388 O 1243.71 3.48764 0.724002 0
M  V30 13389 O 1242.57 5.29418 1.35568 0
M  V30 13390 H 1239.67 0.791591 0.2394 0
M  V30 13391 H 1242.21 1.67524 -0.270893 0
M  V30 13392 H 1240.98 3.90191 -0.294435 0
M  V30 13393 H 1240.61 3.71735 1.41062 0
M  V30 13394 N 1241.6 -0.0451101 1.57535 0
M  V30 13395 C 1242.88 -0.773625 1.79651 0
M  V30 13396 C 1243.26 -1.94422 0.822391 0
M  V30 13397 O 1242.61 -2.28077 -0.138913 0
M  V30 13398 C 1242.82 -1.22168 3.26919 0
M  V30 13399 C 1244.17 -1.64419 3.91474 0
M  V30 13400 O 1245.19 -1.31668 3.30971 0
M  V30 13401 O 1244.05 -2.25148 4.97967 0
M  V30 13402 H 1241.14 -0.372786 0.738214 0
M  V30 13403 H 1243.69 -0.0231245 1.69684 0
M  V30 13404 H 1242.46 -0.385302 3.89398 0
M  V30 13405 H 1242.09 -2.03269 3.41713 0
M  V30 13406 N 1243.08 -1.54377 -0.317073 0
M  V30 13407 C 1244.33 -1.72893 -1.05424 0
M  V30 13408 C 1244.66 -0.506082 -1.87801 0
M  V30 13409 O 1243.91 0.51213 -1.8888 0
M  V30 13410 C 1244.21 -2.96066 -2.00199 0
M  V30 13411 C 1243.88 -4.30551 -1.33927 0
M  V30 13412 C 1242.54 -4.67112 -1.15584 0
M  V30 13413 C 1244.89 -5.13986 -0.864158 0
M  V30 13414 C 1242.22 -5.84701 -0.483892 0
M  V30 13415 C 1244.57 -6.32264 -0.206006 0
M  V30 13416 C 1243.24 -6.67499 -0.0104849 0
M  V30 13417 H 1242.51 -0.63266 -0.385776 0
M  V30 13418 H 1245.15 -1.88623 -0.330722 0
M  V30 13419 H 1243.46 -2.7505 -2.79024 0
M  V30 13420 H 1245.15 -3.07586 -2.57278 0
M  V30 13421 H 1241.74 -4.0179 -1.49207 0
M  V30 13422 H 1245.93 -4.86252 -0.993635 0
M  V30 13423 H 1241.18 -6.10555 -0.32127 0
M  V30 13424 H 1245.36 -6.96192 0.170108 0
M  V30 13425 H 1242.99 -7.58472 0.512209 0
M  V30 13426 N 1244.56 0.579466 -1.4656 0
M  V30 13427 C 1245.81 1.33756 -1.52038 0
M  V30 13428 C 1246.14 1.93725 -0.173423 0
M  V30 13429 O 1245.39 1.77167 0.831293 0
M  V30 13430 C 1245.69 2.48417 -2.56951 0
M  V30 13431 C 1245.36 2.0642 -4.00876 0
M  V30 13432 C 1244.02 1.94682 -4.4006 0
M  V30 13433 C 1246.37 1.74066 -4.91274 0
M  V30 13434 C 1243.7 1.48852 -5.67503 0
M  V30 13435 C 1246.05 1.29714 -6.19158 0
M  V30 13436 C 1244.71 1.16555 -6.57245 0
M  V30 13437 H 1243.98 0.489447 -0.556347 0
M  V30 13438 H 1246.63 0.652176 -1.80053 0
M  V30 13439 H 1244.94 3.22416 -2.2261 0
M  V30 13440 H 1246.63 3.06629 -2.58418 0
M  V30 13441 H 1243.22 2.16492 -3.69904 0
M  V30 13442 H 1247.41 1.82019 -4.61717 0
M  V30 13443 H 1242.66 1.3731 -5.95782 0
M  V30 13444 H 1246.84 1.03734 -6.88631 0
M  V30 13445 H 1244.46 0.808193 -7.55892 0
M  V30 13446 N 1246.04 1.3432 0.824371 0
M  V30 13447 C 1246.97 1.21619 1.94271 0
M  V30 13448 C 1247.98 0.143628 1.62165 0
M  V30 13449 O 1249.17 0.395353 1.74067 0
M  V30 13450 C 1246.27 0.846128 3.28167 0
M  V30 13451 C 1245.45 2.01337 3.88307 0
M  V30 13452 C 1244.5 1.62194 5.00579 0
M  V30 13453 O 1243.53 2.33831 5.18953 0
M  V30 13454 N 1244.73 0.535262 5.78027 0
M  V30 13455 H 1247.5 2.17963 2.05699 0
M  V30 13456 H 1245.06 1.27256 1.00088 0
M  V30 13457 H 1247.05 0.566086 4.00721 0
M  V30 13458 H 1245.62 -0.0270764 3.12588 0
M  V30 13459 H 1244.84 2.45823 3.08164 0
M  V30 13460 H 1246.13 2.79404 4.25219 0
M  V30 13461 H 1245.53 -0.0603126 5.65668 0
M  V30 13462 H 1244.08 0.314946 6.51039 0
M  V30 13463 N 1247.52 -1.0444 1.18026 0
M  V30 13464 C 1248.45 -2.14297 0.927314 0
M  V30 13465 C 1249.43 -1.69575 -0.13357 0
M  V30 13466 O 1250.61 -1.94191 0.0182439 0
M  V30 13467 C 1247.74 -3.44397 0.448134 0
M  V30 13468 C 1246.7 -4.02723 1.44907 0
M  V30 13469 C 1246.02 -5.28257 0.827555 0
M  V30 13470 C 1247.32 -4.39331 2.82463 0
M  V30 13471 H 1249.02 -2.35715 1.84605 0
M  V30 13472 H 1246.56 -1.13281 0.889012 0
M  V30 13473 H 1248.52 -4.20606 0.258554 0
M  V30 13474 H 1247.24 -3.22654 -0.506159 0
M  V30 13475 H 1245.9 -3.28591 1.62552 0
M  V30 13476 H 1245.55 -5.02822 -0.13381 0
M  V30 13477 H 1245.25 -5.68242 1.49581 0
M  V30 13478 H 1246.77 -6.07147 0.64842 0
M  V30 13479 H 1248.18 -5.06543 2.68491 0
M  V30 13480 H 1246.58 -4.90355 3.45936 0
M  V30 13481 H 1247.65 -3.4933 3.36299 0
M  V30 13482 N 1248.99 -0.981699 -1.2329 0
M  V30 13483 C 1250.24 -0.661895 -1.92329 0
M  V30 13484 C 1250.6 0.79602 -1.75161 0
M  V30 13485 O 1249.89 1.56687 -1.10271 0
M  V30 13486 C 1250.08 -0.989244 -3.43437 0
M  V30 13487 C 1249.91 -2.47743 -3.75305 0
M  V30 13488 C 1248.68 -3.13963 -3.95924 0
M  V30 13489 C 1250.88 -3.45817 -3.80677 0
M  V30 13490 N 1248.86 -4.52374 -4.15008 0
M  V30 13491 C 1250.23 -4.6964 -4.04769 0
M  V30 13492 C 1252.29 -3.4028 -3.63475 0
M  V30 13493 C 1250.99 -5.88605 -4.13445 0
M  V30 13494 C 1253.02 -4.5861 -3.73405 0
M  V30 13495 C 1252.38 -5.81229 -3.97935 0
M  V30 13496 H 1248.48 -0.293289 -0.724918 0
M  V30 13497 H 1251.06 -1.25942 -1.48481 0
M  V30 13498 H 1249.23 -0.420398 -3.86118 0
M  V30 13499 H 1250.96 -0.626579 -3.9982 0
M  V30 13500 H 1247.72 -2.64456 -3.92887 0
M  V30 13501 H 1248.14 -5.24134 -4.28501 0
M  V30 13502 H 1252.79 -2.46504 -3.43505 0
M  V30 13503 H 1250.5 -6.82795 -4.32223 0
M  V30 13504 H 1254.09 -4.55903 -3.61447 0
M  V30 13505 H 1252.97 -6.71263 -4.05433 0
M  V30 13506 N 1250.47 1.3842 -0.753509 0
M  V30 13507 C 1251.4 2.29039 -0.0859463 0
M  V30 13508 C 1252.42 1.47742 0.68383 0
M  V30 13509 O 1253.61 1.70607 0.524933 0
M  V30 13510 C 1250.71 3.26668 0.902296 0
M  V30 13511 C 1249.88 4.36986 0.190178 0
M  V30 13512 C 1248.94 5.14805 1.08916 0
M  V30 13513 O 1247.96 5.66441 0.559715 0
M  V30 13514 N 1249.17 5.27777 2.41726 0
M  V30 13515 H 1251.93 2.8697 -0.864196 0
M  V30 13516 H 1249.49 1.502 -0.604288 0
M  V30 13517 H 1251.48 3.75606 1.50672 0
M  V30 13518 H 1250.05 2.69636 1.58163 0
M  V30 13519 H 1249.27 3.89684 -0.594959 0
M  V30 13520 H 1250.56 5.07899 -0.302594 0
M  V30 13521 H 1249.96 4.87376 2.87196 0
M  V30 13522 H 1248.52 5.8009 2.97219 0
M  V30 13523 N 1251.95 0.502579 1.49372 0
M  V30 13524 C 1253.23 -0.104472 1.95321 0
M  V30 13525 C 1253.61 -1.53975 1.44412 0
M  V30 13526 O 1252.96 -2.18804 0.658566 0
M  V30 13527 C 1253.17 -0.0154833 3.48997 0
M  V30 13528 C 1254.51 -0.188615 4.24181 0
M  V30 13529 O 1255.54 -0.090595 3.56085 0
M  V30 13530 O 1254.4 -0.390068 5.45106 0
M  V30 13531 H 1251.49 -0.0944325 0.821591 0
M  V30 13532 H 1254.04 0.565229 1.6001 0
M  V30 13533 H 1252.81 0.985383 3.7869 0
M  V30 13534 H 1252.43 -0.72526 3.90929 0
M  V30 13535 N 1253.43 -1.55816 0.23648 0
M  V30 13536 C 1254.36 -2.16945 -0.707826 0
M  V30 13537 C 1255.34 -1.11832 -1.18036 0
M  V30 13538 O 1256.52 -1.40166 -1.26039 0
M  V30 13539 C 1253.65 -2.76175 -1.96074 0
M  V30 13540 C 1252.7 -3.9425 -1.62695 0
M  V30 13541 S 1253.53 -5.30381 -0.738663 0
M  V30 13542 C 1254.69 -5.93059 -2.00081 0
M  V30 13543 H 1254.92 -2.96703 -0.188303 0
M  V30 13544 H 1252.45 -1.54386 0.0210284 0
M  V30 13545 H 1254.41 -3.10938 -2.68007 0
M  V30 13546 H 1253.07 -1.96382 -2.45138 0
M  V30 13547 H 1252.26 -4.34247 -2.55823 0
M  V30 13548 H 1251.87 -3.6071 -0.988129 0
M  V30 13549 H 1254.16 -6.09941 -2.94921 0
M  V30 13550 H 1255.1 -6.88739 -1.64449 0
M  V30 13551 H 1255.51 -5.2203 -2.14815 0
M  V30 13552 N 1254.91 0.036755 -1.57557 0
M  V30 13553 C 1255.87 1.02435 -2.05036 0
M  V30 13554 C 1256.87 1.29506 -0.953146 0
M  V30 13555 O 1258.06 1.24638 -1.217 0
M  V30 13556 C 1255.19 2.3592 -2.46079 0
M  V30 13557 H 1256.38 0.614384 -2.93539 0
M  V30 13558 H 1253.94 0.283396 -1.53709 0
M  V30 13559 H 1254.67 2.8168 -1.60708 0
M  V30 13560 H 1254.46 2.17603 -3.26177 0
M  V30 13561 H 1255.95 3.06839 -2.83266 0
M  V30 13562 N 1256.39 1.54543 0.308881 0
M  V30 13563 C 1257.3 1.87994 1.4034 0
M  V30 13564 C 1258.31 0.773294 1.55872 0
M  V30 13565 O 1259.49 1.069 1.70688 0
M  V30 13566 C 1256.55 2.11341 2.74838 0
M  V30 13567 C 1255.61 3.35086 2.68358 0
M  V30 13568 C 1254.85 3.5731 3.96441 0
M  V30 13569 O 1255.07 2.82692 4.9542 0
M  V30 13570 O 1254 4.50814 3.98811 0
M  V30 13571 H 1257.83 2.81094 1.14976 0
M  V30 13572 H 1255.41 1.40634 0.504236 0
M  V30 13573 H 1257.3 2.27943 3.54429 0
M  V30 13574 H 1255.97 1.21427 3.00062 0
M  V30 13575 H 1254.88 3.23855 1.87267 0
M  V30 13576 H 1256.21 4.25104 2.48087 0
M  V30 13577 N 1257.86 -0.571685 1.46866 0
M  V30 13578 C 1259.09 -1.36008 1.56578 0
M  V30 13579 C 1259.51 -1.86909 0.211326 0
M  V30 13580 O 1258.87 -1.62179 -0.810421 0
M  V30 13581 C 1258.92 -2.51598 2.58323 0
M  V30 13582 O 1258.02 -3.53383 2.1259 0
M  V30 13583 H 1257.36 -0.404593 0.526498 0
M  V30 13584 H 1259.89 -0.692357 1.92529 0
M  V30 13585 H 1259.9 -2.98366 2.78283 0
M  V30 13586 H 1258.58 -2.13904 3.56676 0
M  V30 13587 H 1257.16 -3.13019 2.02666 0
M  V30 13588 N 1259.34 -1.34755 -0.817236 0
M  V30 13589 C 1260.29 -1.26816 -1.94988 0
M  V30 13590 C 1261.28 -0.165142 -1.68593 0
M  V30 13591 O 1262.49 -0.330469 -1.7694 0
M  V30 13592 H 1258.86 -0.394113 -0.640452 0
M  V30 13593 H 1260.84 -2.22528 -1.98806 0
M  V30 13594 C 1259.58 -1.04625 -3.31586 0
M  V30 13595 H 1258.91 -1.88735 -3.52447 0
M  V30 13596 H 1260.35 -1.03108 -4.11272 0
M  V30 13597 C 1258.81 0.250283 -3.35969 0
M  V30 13598 O 1259.34 1.24972 -3.81765 0
M  V30 13599 N 1257.54 0.285369 -2.89195 0
M  V30 13600 H 1257.09 -0.528528 -2.5212 0
M  V30 13601 H 1257.05 1.15261 -2.9251 0
M  V30 13602 N 1260.82 1.03812 -1.18578 0
M  V30 13603 C 1261.78 2.10049 -0.91718 0
M  V30 13604 C 1262.78 1.60498 0.0985122 0
M  V30 13605 O 1263.97 1.73674 -0.135213 0
M  V30 13606 C 1261.1 3.38813 -0.376599 0
M  V30 13607 H 1262.3 2.3531 -1.85927 0
M  V30 13608 H 1259.85 1.20277 -0.998156 0
M  V30 13609 H 1260.59 3.19216 0.571983 0
M  V30 13610 H 1260.37 3.76096 -1.10881 0
M  V30 13611 H 1261.86 4.17084 -0.207453 0
M  V30 13612 N 1262.3 0.988223 1.22768 0
M  V30 13613 C 1263.25 0.527454 2.26541 0
M  V30 13614 C 1264.24 -0.419506 1.64123 0
M  V30 13615 O 1265.45 -0.292539 1.77607 0
M  V30 13616 H 1261.82 0.152165 0.736444 0
M  V30 13617 H 1263.79 1.41422 2.62759 0
M  V30 13618 C 1262.54 -0.146845 3.4739 0
M  V30 13619 H 1261.86 0.572752 3.95676 0
M  V30 13620 H 1263.3 -0.432768 4.21786 0
M  V30 13621 C 1261.76 -1.38065 3.0731 0
M  V30 13622 O 1262.29 -2.47634 3.16291 0
M  V30 13623 N 1260.5 -1.25418 2.62143 0
M  V30 13624 H 1260.05 -0.362641 2.55035 0
M  V30 13625 H 1260 -2.08077 2.35694 0
M  V30 13626 N 1263.78 -1.38018 0.760839 0
M  V30 13627 C 1265.02 -1.99194 0.316984 0
M  V30 13628 C 1265.34 -1.61083 -1.10958 0
M  V30 13629 O 1266.54 -2.15281 -1.65428 0
M  V30 13630 C 1265 -3.56185 0.515792 0
M  V30 13631 C 1264.61 -4.03242 1.95191 0
M  V30 13632 C 1266.35 -4.24285 0.135013 0
M  V30 13633 C 1264.26 -5.52902 2.0989 0
M  V30 13634 H 1263.19 -0.745214 0.114771 0
M  V30 13635 H 1265.84 -1.5769 0.938415 0
M  V30 13636 H 1264.22 -3.95613 -0.174934 0
M  V30 13637 H 1265.4 -3.75086 2.6767 0
M  V30 13638 H 1263.71 -3.47889 2.28827 0
M  V30 13639 H 1266.31 -5.34233 0.223495 0
M  V30 13640 H 1266.65 -4.06158 -0.913322 0
M  V30 13641 H 1267.18 -3.90121 0.777868 0
M  V30 13642 H 1263.92 -5.75942 3.13003 0
M  V30 13643 H 1263.44 -5.82778 1.41881 0
M  V30 13644 H 1265.12 -6.18709 1.89229 0
M  V30 13645 N 1265.25 -0.510493 -1.49103 0
M  V30 13646 C 1266.48 0.0271324 -2.06582 0
M  V30 13647 C 1266.89 1.30499 -1.36991 0
M  V30 13648 O 1266.23 1.78229 -0.444976 0
M  V30 13649 C 1266.3 0.341488 -3.57874 0
M  V30 13650 C 1265.96 -0.840037 -4.49213 0
M  V30 13651 C 1266.96 -1.73315 -4.90161 0
M  V30 13652 C 1264.64 -1.04153 -4.91383 0
M  V30 13653 C 1266.64 -2.81182 -5.72028 0
M  V30 13654 C 1264.32 -2.12336 -5.73024 0
M  V30 13655 C 1265.32 -3.00684 -6.13252 0
M  V30 13656 O 1265.01 -4.06999 -6.93258 0
M  V30 13657 H 1264.74 -0.0215383 -0.675657 0
M  V30 13658 H 1267.3 -0.709841 -1.92744 0
M  V30 13659 H 1265.53 1.13218 -3.69755 0
M  V30 13660 H 1267.21 0.818859 -3.97554 0
M  V30 13661 H 1267.98 -1.58934 -4.58219 0
M  V30 13662 H 1263.86 -0.363199 -4.59567 0
M  V30 13663 H 1267.4 -3.50169 -6.03347 0
M  V30 13664 H 1263.3 -2.26708 -6.04379 0
M  V30 13665 H 1264.07 -4.04469 -7.11581 0
M  V30 13666 N 1266.73 1.55688 -0.24474 0
M  V30 13667 C 1267.64 2.24933 0.666519 0
M  V30 13668 C 1268.66 1.26471 1.19503 0
M  V30 13669 O 1269.83 1.59342 1.23176 0
M  V30 13670 C 1266.9 2.9336 1.84772 0
M  V30 13671 C 1265.96 4.07225 1.35889 0
M  V30 13672 C 1265.19 4.72381 2.48379 0
M  V30 13673 O 1265.42 4.36605 3.67059 0
M  V30 13674 O 1264.35 5.60933 2.18261 0
M  V30 13675 H 1268.18 3.03513 0.106507 0
M  V30 13676 H 1265.76 1.49394 -0.0133309 0
M  V30 13677 H 1267.64 3.36468 2.53708 0
M  V30 13678 H 1266.32 2.17721 2.39539 0
M  V30 13679 H 1265.22 3.68639 0.636881 0
M  V30 13680 H 1266.56 4.84676 0.857333 0
M  V30 13681 N 1268.21 -0.0283989 1.57574 0
M  V30 13682 C 1269.14 -1.05641 2.03403 0
M  V30 13683 C 1270.15 -1.32426 0.946953 0
M  V30 13684 O 1271.34 -1.29902 1.22425 0
M  V30 13685 C 1268.44 -2.39788 2.39489 0
M  V30 13686 C 1267.62 -2.32348 3.70585 0
M  V30 13687 C 1266.68 -3.4895 3.93853 0
M  V30 13688 O 1265.7 -3.28414 4.64901 0
M  V30 13689 N 1266.9 -4.7084 3.39543 0
M  V30 13690 H 1269.67 -0.665788 2.92211 0
M  V30 13691 H 1267.23 -0.21633 1.60448 0
M  V30 13692 H 1269.22 -3.16514 2.52193 0
M  V30 13693 H 1267.79 -2.70692 1.56348 0
M  V30 13694 H 1267.01 -1.40717 3.68229 0
M  V30 13695 H 1268.3 -2.24521 4.56582 0
M  V30 13696 H 1267.7 -4.90425 2.81956 0
M  V30 13697 H 1266.25 -5.44929 3.57625 0
M  V30 13698 N 1269.69 -1.54705 -0.300681 0
M  V30 13699 C 1270.94 -1.73211 -1.03349 0
M  V30 13700 C 1271.25 -0.52518 -1.88418 0
M  V30 13701 O 1272.46 -0.592049 -2.64966 0
M  V30 13702 C 1270.91 -3.06453 -1.88717 0
M  V30 13703 C 1270.52 -4.34625 -1.0865 0
M  V30 13704 C 1272.26 -3.34317 -2.61595 0
M  V30 13705 C 1270.17 -5.58919 -1.93297 0
M  V30 13706 H 1269.1 -0.64556 -0.389574 0
M  V30 13707 H 1271.75 -1.81186 -0.290472 0
M  V30 13708 H 1270.13 -2.92443 -2.67008 0
M  V30 13709 H 1271.31 -4.59471 -0.349707 0
M  V30 13710 H 1269.62 -4.13699 -0.473521 0
M  V30 13711 H 1272.22 -4.2438 -3.25278 0
M  V30 13712 H 1272.56 -2.53207 -3.30442 0
M  V30 13713 H 1273.1 -3.493 -1.90354 0
M  V30 13714 H 1269.83 -6.42697 -1.2892 0
M  V30 13715 H 1269.35 -5.38258 -2.64647 0
M  V30 13716 H 1271.03 -5.96187 -2.51336 0
M  V30 13717 N 1271.17 0.563888 -1.47167 0
M  V30 13718 C 1272.41 1.32136 -1.53448 0
M  V30 13719 C 1272.74 1.9353 -0.19396 0
M  V30 13720 O 1272 1.78038 0.812456 0
M  V30 13721 C 1272.3 2.45678 -2.59571 0
M  V30 13722 C 1271.96 2.02157 -4.03043 0
M  V30 13723 C 1270.62 1.90003 -4.421 0
M  V30 13724 C 1272.98 1.68846 -4.93093 0
M  V30 13725 C 1270.3 1.42825 -5.6905 0
M  V30 13726 C 1272.66 1.2314 -6.20499 0
M  V30 13727 C 1271.32 1.09578 -6.58444 0
M  V30 13728 H 1270.59 0.483519 -0.561507 0
M  V30 13729 H 1273.24 0.633042 -1.80734 0
M  V30 13730 H 1271.54 3.20037 -2.26017 0
M  V30 13731 H 1273.24 3.03871 -2.61655 0
M  V30 13732 H 1269.83 2.12557 -3.7218 0
M  V30 13733 H 1274.01 1.77111 -4.63622 0
M  V30 13734 H 1269.27 1.30983 -5.97205 0
M  V30 13735 H 1273.44 0.964247 -6.89692 0
M  V30 13736 H 1271.07 0.727975 -7.56706 0
M  V30 13737 N 1272.64 1.35187 0.810078 0
M  V30 13738 C 1274.06 1.15149 1.10512 0
M  V30 13739 C 1274.26 -0.038394 2.01463 0
M  V30 13740 O 1273.32 -0.710056 2.42311 0
M  V30 13741 C 1274.63 2.45282 1.73946 0
M  V30 13742 C 1276.18 2.51457 1.86382 0
M  V30 13743 C 1276.65 3.81625 2.53232 0
M  V30 13744 N 1278.14 3.82856 2.6072 0
M  V30 13745 C 1278.88 4.80302 3.13206 0
M  V30 13746 N 1278.37 5.88134 3.66156 0
M  V30 13747 N 1280.17 4.67743 3.11726 0
M  V30 13748 H 1272.32 2.11405 0.205391 0
M  V30 13749 H 1274.58 0.935457 0.153702 0
M  V30 13750 H 1274.29 3.32512 1.14582 0
M  V30 13751 H 1274.16 2.59573 2.73682 0
M  V30 13752 H 1276.55 1.64659 2.44891 0
M  V30 13753 H 1276.63 2.41084 0.855113 0
M  V30 13754 H 1276.27 4.68819 1.95375 0
M  V30 13755 H 1276.2 3.89285 3.54633 0
M  V30 13756 H 1278.69 3.04941 2.23203 0
M  V30 13757 H 1279.01 6.58487 4.04494 0
M  V30 13758 H 1277.35 5.91831 3.64364 0
M  V30 13759 H 1280.54 3.82642 2.69635 0
M  V30 13760 H 1280.72 5.43849 3.52324 0
M  V30 13761 N 1274.12 -1.03182 1.19127 0
M  V30 13762 C 1275.36 -1.78089 1.00318 0
M  V30 13763 C 1275.73 -1.86451 -0.458252 0
M  V30 13764 O 1276.93 -2.57653 -0.766061 0
M  V30 13765 C 1275.2 -3.17012 1.6504 0
M  V30 13766 S 1276.76 -4.08146 1.61129 0
M  V30 13767 H 1273.58 -0.613096 0.360048 0
M  V30 13768 H 1276.18 -1.23657 1.51424 0
M  V30 13769 H 1274.88 -3.08541 2.70612 0
M  V30 13770 H 1274.41 -3.7652 1.14001 0
M  V30 13771 H 1276.43 -4.92141 0.633408 0
M  V30 13772 N 1275.6 -0.99472 -1.22242 0
M  V30 13773 C 1276.53 -0.566499 -2.26524 0
M  V30 13774 C 1277.51 0.407541 -1.65146 0
M  V30 13775 O 1278.7 0.297777 -1.91903 0
M  V30 13776 C 1275.83 0.11786 -3.471 0
M  V30 13777 C 1274.78 -0.774908 -4.20927 0
M  V30 13778 C 1274.11 0.0424687 -5.34683 0
M  V30 13779 C 1275.41 -2.07263 -4.79416 0
M  V30 13780 H 1277.1 -1.43818 -2.62596 0
M  V30 13781 H 1274.65 -0.692971 -1.2623 0
M  V30 13782 H 1276.6 0.428842 -4.19212 0
M  V30 13783 H 1275.32 1.0241 -3.10129 0
M  V30 13784 H 1273.98 -1.06956 -3.50651 0
M  V30 13785 H 1273.63 0.949677 -4.93954 0
M  V30 13786 H 1273.33 -0.551867 -5.85003 0
M  V30 13787 H 1274.85 0.347504 -6.0961 0
M  V30 13788 H 1276.27 -1.82548 -5.4346 0
M  V30 13789 H 1274.67 -2.61594 -5.40082 0
M  V30 13790 H 1275.74 -2.75017 -3.99366 0
M  V30 13791 N 1277.08 1.37613 -0.768148 0
M  V30 13792 C 1278.49 1.82437 -0.396703 0
M  V30 13793 C 1278.84 1.64019 1.07668 0
M  V30 13794 O 1277.97 1.14932 1.83356 0
M  V30 13795 C 1278.56 3.31207 -0.713265 0
M  V30 13796 C 1277.12 3.74323 -0.39492 0
M  V30 13797 C 1276.27 2.60191 -0.958962 0
M  V30 13798 H 1279.22 1.26135 -0.963099 0
M  V30 13799 H 1279.24 3.805 0.00337228 0
M  V30 13800 H 1278.75 3.4458 -1.78567 0
M  V30 13801 H 1276.85 3.66521 0.670313 0
M  V30 13802 H 1276.96 4.70558 -0.900653 0
M  V30 13803 H 1275.33 2.51797 -0.383423 0
M  V30 13804 H 1276.11 2.76358 -2.03669 0
M  V30 13805 N 1278.56 0.518393 1.4883 0
M  V30 13806 C 1279.78 -0.0183131 2.07392 0
M  V30 13807 C 1280.21 -1.28468 1.37396 0
M  V30 13808 O 1279.56 -1.75975 0.436177 0
M  V30 13809 C 1279.61 -0.237211 3.59819 0
M  V30 13810 O 1278.72 -1.30835 3.91096 0
M  V30 13811 H 1278.06 0.0339621 0.663131 0
M  V30 13812 H 1280.59 0.722993 1.914 0
M  V30 13813 H 1280.6 -0.463424 4.0536 0
M  V30 13814 H 1279.27 0.687925 4.10171 0
M  V30 13815 H 1277.85 -1.06571 3.57347 0
M  V30 13816 N 1280.03 -1.55556 0.252993 0
M  V30 13817 C 1280.98 -2.23035 -0.660161 0
M  V30 13818 C 1281.98 -1.21994 -1.17532 0
M  V30 13819 O 1283.18 -1.39989 -1.13151 0
M  V30 13820 H 1279.56 -0.715516 -0.23139 0
M  V30 13821 H 1281.53 -2.98323 -0.0679506 0
M  V30 13822 C 1280.28 -2.94817 -1.84332 0
M  V30 13823 H 1279.6 -3.72342 -1.45607 0
M  V30 13824 H 1281.04 -3.45386 -2.45936 0
M  V30 13825 C 1279.5 -1.99033 -2.71822 0
M  V30 13826 O 1280.03 -1.5273 -3.71533 0
M  V30 13827 N 1278.24 -1.66004 -2.38518 0
M  V30 13828 H 1277.78 -2.03853 -1.57485 0
M  V30 13829 H 1277.74 -1.02183 -2.97331 0
M  V30 13830 N 1281.51 0.0200419 -1.57587 0
M  V30 13831 C 1282.48 1.00255 -2.06111 0
M  V30 13832 C 1283.48 1.28488 -0.966829 0
M  V30 13833 O 1284.67 1.2334 -1.23015 0
M  V30 13834 C 1281.8 2.33296 -2.48567 0
M  V30 13835 H 1282.99 0.583216 -2.94174 0
M  V30 13836 H 1280.54 0.267077 -1.54001 0
M  V30 13837 H 1281.28 2.79959 -1.63687 0
M  V30 13838 H 1281.06 2.14131 -3.28467 0
M  V30 13839 H 1282.55 3.03817 -2.86505 0
M  V30 13840 N 1282.99 1.54862 0.292472 0
M  V30 13841 C 1284.22 1.7855 1.04534 0
M  V30 13842 C 1284.63 0.549161 1.80637 0
M  V30 13843 O 1283.99 -0.481268 1.7604 0
M  V30 13844 C 1284.04 2.99849 2.01923 0
M  V30 13845 O 1283.76 4.18706 1.28907 0
M  V30 13846 C 1285.26 3.35991 2.8918 0
M  V30 13847 H 1282.48 0.595279 0.309652 0
M  V30 13848 H 1285.03 2.01834 0.329159 0
M  V30 13849 H 1283.18 2.78749 2.69032 0
M  V30 13850 H 1283.6 4.87151 1.94383 0
M  V30 13851 H 1285.07 4.24085 3.53349 0
M  V30 13852 H 1285.55 2.54524 3.57931 0
M  V30 13853 H 1286.15 3.59281 2.27591 0
M  V30 13854 N 1284.47 -0.556076 1.47464 0
M  V30 13855 C 1285.88 -0.882115 1.33007 0
M  V30 13856 C 1286.08 -1.9892 0.321407 0
M  V30 13857 O 1285.14 -2.51088 -0.266668 0
M  V30 13858 C 1286.45 -1.27428 2.72365 0
M  V30 13859 C 1288 -1.38564 2.80658 0
M  V30 13860 C 1288.48 -1.81136 4.20659 0
M  V30 13861 N 1289.97 -1.88284 4.23206 0
M  V30 13862 C 1290.7 -2.22555 5.28447 0
M  V30 13863 N 1290.2 -2.55432 6.43993 0
M  V30 13864 N 1291.99 -2.23339 5.15826 0
M  V30 13865 H 1284.14 0.17481 2.11679 0
M  V30 13866 H 1286.41 0.0155421 0.947873 0
M  V30 13867 H 1286.11 -0.53463 3.47613 0
M  V30 13868 H 1285.99 -2.23019 3.04208 0
M  V30 13869 H 1288.37 -2.1161 2.05682 0
M  V30 13870 H 1288.45 -0.411588 2.52467 0
M  V30 13871 H 1288.1 -1.08659 4.96141 0
M  V30 13872 H 1288.03 -2.79546 4.46275 0
M  V30 13873 H 1290.52 -1.65259 3.3985 0
M  V30 13874 H 1290.83 -2.80612 7.20053 0
M  V30 13875 H 1289.18 -2.5301 6.47311 0
M  V30 13876 H 1292.37 -1.97094 4.24584 0
M  V30 13877 H 1292.54 -2.49717 5.97951 0
M  V30 13878 N 1285.95 -1.35615 -0.802897 0
M  V30 13879 C 1287.17 -1.32377 -1.59659 0
M  V30 13880 C 1287.6 0.0954235 -1.87858 0
M  V30 13881 O 1286.96 1.06336 -1.46842 0
M  V30 13882 C 1287 -2.13972 -2.90256 0
M  V30 13883 O 1286.11 -1.52296 -3.83249 0
M  V30 13884 H 1285.45 -0.453699 -0.484823 0
M  V30 13885 H 1287.98 -1.78708 -0.996217 0
M  V30 13886 H 1287.99 -2.26061 -3.39647 0
M  V30 13887 H 1286.66 -3.17145 -2.69057 0
M  V30 13888 H 1285.24 -1.49068 -3.41809 0
M  V30 13889 N 1287.43 1.02549 -1.19673 0
M  V30 13890 C 1288.36 2.12794 -0.961289 0
M  V30 13891 C 1289.34 1.69766 0.106575 0
M  V30 13892 O 1290.52 1.94138 -0.0491358 0
M  V30 13893 C 1287.65 3.4364 -0.502868 0
M  V30 13894 C 1286.61 4.00367 -1.51296 0
M  V30 13895 C 1285.93 5.26874 -0.911491 0
M  V30 13896 C 1287.23 4.34782 -2.89416 0
M  V30 13897 H 1288.93 2.32748 -1.88331 0
M  V30 13898 H 1286.47 1.11852 -0.906922 0
M  V30 13899 H 1288.42 4.20141 -0.325436 0
M  V30 13900 H 1287.15 3.23418 0.454764 0
M  V30 13901 H 1285.81 3.25964 -1.67759 0
M  V30 13902 H 1285.46 5.02971 0.0537982 0
M  V30 13903 H 1285.16 5.65791 -1.58602 0
M  V30 13904 H 1286.68 6.06039 -0.74493 0
M  V30 13905 H 1288.09 5.02207 -2.76516 0
M  V30 13906 H 1286.49 4.8479 -3.53693 0
M  V30 13907 H 1287.56 3.43935 -3.41814 0
M  V30 13908 N 1288.9 1.00119 1.21713 0
M  V30 13909 C 1290.32 0.713343 1.42771 0
M  V30 13910 C 1290.52 -0.712923 1.88467 0
M  V30 13911 O 1289.58 -1.48277 2.04378 0
M  V30 13912 C 1290.89 1.72596 2.46234 0
M  V30 13913 C 1292.44 1.74235 2.60022 0
M  V30 13914 C 1292.91 2.74382 3.66713 0
M  V30 13915 N 1294.4 2.73027 3.7418 0
M  V30 13916 C 1295.14 3.47178 4.56349 0
M  V30 13917 N 1294.63 4.30958 5.42446 0
M  V30 13918 N 1296.43 3.35846 4.50737 0
M  V30 13919 H 1288.58 1.9222 0.903611 0
M  V30 13920 H 1290.84 0.829466 0.459011 0
M  V30 13921 H 1290.55 2.74699 2.19621 0
M  V30 13922 H 1290.42 1.52553 3.44975 0
M  V30 13923 H 1292.81 0.728261 2.85973 0
M  V30 13924 H 1292.89 1.98349 1.61528 0
M  V30 13925 H 1292.53 3.75945 3.41508 0
M  V30 13926 H 1292.46 2.47534 4.64795 0
M  V30 13927 H 1294.95 2.12242 3.12669 0
M  V30 13928 H 1295.27 4.84344 6.02189 0
M  V30 13929 H 1293.61 4.35042 5.42 0
M  V30 13930 H 1296.8 2.6983 3.82504 0
M  V30 13931 H 1296.98 3.93892 5.14541 0
M  V30 13932 N 1290.38 -1.37203 0.775435 0
M  V30 13933 C 1291.61 -2.03868 0.352927 0
M  V30 13934 C 1292.02 -1.58482 -1.0261 0
M  V30 13935 O 1291.38 -0.767772 -1.65564 0
M  V30 13936 C 1291.43 -3.59378 0.39116 0
M  V30 13937 O 1291.15 -4.03103 1.71579 0
M  V30 13938 C 1292.65 -4.4328 -0.0424808 0
M  V30 13939 H 1289.87 -0.654619 0.14736 0
M  V30 13940 H 1292.42 -1.75463 1.05039 0
M  V30 13941 H 1290.57 -3.86542 -0.257752 0
M  V30 13942 H 1290.99 -4.9764 1.65695 0
M  V30 13943 H 1292.46 -5.51989 0.0354215 0
M  V30 13944 H 1292.94 -4.25374 -1.09333 0
M  V30 13945 H 1293.54 -4.21349 0.578384 0
M  V30 13946 N 1291.86 -0.526279 -1.48553 0
M  V30 13947 C 1292.79 0.227364 -2.3239 0
M  V30 13948 C 1293.77 0.93862 -1.41859 0
M  V30 13949 O 1294.96 0.925119 -1.70749 0
M  V30 13950 C 1292.09 1.277 -3.22971 0
M  V30 13951 C 1291.04 0.684107 -4.22497 0
M  V30 13952 C 1290.37 1.83612 -5.02186 0
M  V30 13953 C 1291.67 -0.341723 -5.21181 0
M  V30 13954 H 1293.36 -0.472486 -2.95648 0
M  V30 13955 H 1290.91 -0.228669 -1.42173 0
M  V30 13956 H 1292.86 1.81215 -3.80446 0
M  V30 13957 H 1291.58 2.00638 -2.57705 0
M  V30 13958 H 1290.24 0.170505 -3.66203 0
M  V30 13959 H 1289.89 2.55379 -4.33348 0
M  V30 13960 H 1289.59 1.44536 -5.69547 0
M  V30 13961 H 1291.11 2.37513 -5.62512 0
M  V30 13962 H 1292.53 0.106207 -5.73202 0
M  V30 13963 H 1290.92 -0.649673 -5.96573 0
M  V30 13964 H 1291.99 -1.2488 -4.68543 0
M  V30 13965 N 1293.34 1.5542 -0.261239 0
M  V30 13966 C 1294.75 1.59327 0.0932655 0
M  V30 13967 C 1294.95 1.27846 1.55748 0
M  V30 13968 O 1294.01 1.03265 2.30418 0
M  V30 13969 C 1295.32 2.99496 -0.268856 0
M  V30 13970 C 1296.87 3.12265 -0.21433 0
M  V30 13971 C 1297.35 4.54677 -0.55069 0
M  V30 13972 N 1298.84 4.60475 -0.501723 0
M  V30 13973 C 1299.57 5.6867 -0.734961 0
M  V30 13974 N 1299.07 6.85069 -1.03209 0
M  V30 13975 N 1300.86 5.58156 -0.664696 0
M  V30 13976 H 1293.01 1.7415 -1.21595 0
M  V30 13977 H 1295.27 0.811382 -0.490268 0
M  V30 13978 H 1294.98 3.2732 -1.28664 0
M  V30 13979 H 1294.85 3.75104 0.397097 0
M  V30 13980 H 1297.24 2.84213 0.794148 0
M  V30 13981 H 1297.32 2.389 -0.914342 0
M  V30 13982 H 1296.97 4.83453 -1.55679 0
M  V30 13983 H 1296.9 5.26322 0.170959 0
M  V30 13984 H 1299.39 3.76851 -0.281387 0
M  V30 13985 H 1299.7 7.63472 -1.19709 0
M  V30 13986 H 1298.05 6.86718 -1.06971 0
M  V30 13987 H 1301.24 4.66098 -0.432513 0
M  V30 13988 H 1301.41 6.42403 -0.849857 0
M  V30 13989 N 1294.82 -0.0116844 1.57596 0
M  V30 13990 C 1295.73 -1.02342 2.111 0
M  V30 13991 C 1296.74 -1.38478 1.05355 0
M  V30 13992 O 1297.92 -1.47447 1.37191 0
M  V30 13993 C 1294.98 -2.30016 2.5941 0
M  V30 13994 C 1294.04 -2.003 3.79708 0
M  V30 13995 C 1293.28 -3.21888 4.25704 0
M  V30 13996 O 1293.5 -4.33171 3.71106 0
M  V30 13997 O 1292.43 -3.0657 5.17975 0
M  V30 13998 H 1296.26 -0.598637 2.97742 0
M  V30 13999 H 1293.84 -0.229779 1.47622 0
M  V30 14000 H 1295.73 -3.05044 2.90733 0
M  V30 14001 H 1294.4 -2.71755 1.75871 0
M  V30 14002 H 1293.31 -1.22785 3.53376 0
M  V30 14003 H 1294.64 -1.63406 4.64284 0
M  V30 14004 N 1296.29 -1.55015 -0.284256 0
M  V30 14005 C 1297.52 -1.78842 -1.03436 0
M  V30 14006 C 1297.93 -0.556301 -1.80837 0
M  V30 14007 O 1297.27 0.483895 -1.77212 0
M  V30 14008 C 1297.34 -2.95412 -2.04871 0
M  V30 14009 C 1297 -4.32878 -1.46512 0
M  V30 14010 C 1298 -5.12286 -0.886535 0
M  V30 14011 C 1295.68 -4.79514 -1.49571 0
M  V30 14012 C 1297.68 -6.36459 -0.346305 0
M  V30 14013 C 1295.36 -6.03645 -0.951613 0
M  V30 14014 C 1296.36 -6.81954 -0.3779 0
M  V30 14015 O 1296.05 -8.03745 0.157894 0
M  V30 14016 H 1295.78 -0.599809 -0.311778 0
M  V30 14017 H 1298.34 -2.0283 -0.323909 0
M  V30 14018 H 1296.57 -2.67089 -2.79644 0
M  V30 14019 H 1298.25 -3.06663 -2.65918 0
M  V30 14020 H 1299.02 -4.77392 -0.855682 0
M  V30 14021 H 1294.9 -4.18579 -1.93165 0
M  V30 14022 H 1298.44 -6.97525 0.102141 0
M  V30 14023 H 1294.34 -6.38023 -0.979669 0
M  V30 14024 H 1295.11 -8.18487 0.046182 0
M  V30 14025 N 1297.77 0.548248 -1.47757 0
M  V30 14026 C 1299.02 1.30694 -1.55071 0
M  V30 14027 C 1299.35 1.92994 -0.216075 0
M  V30 14028 O 1298.63 1.78341 0.776196 0
M  V30 14029 C 1298.91 2.41024 -2.67543 0
M  V30 14030 C 1298.76 1.83534 -4.10652 0
M  V30 14031 C 1300.08 3.42902 -2.75874 0
M  V30 14032 H 1297.2 0.47383 -0.564494 0
M  V30 14033 H 1299.84 0.612628 -1.79852 0
M  V30 14034 H 1297.99 3.00248 -2.46543 0
M  V30 14035 H 1299.66 1.28503 -4.4304 0
M  V30 14036 H 1297.91 1.14161 -4.18509 0
M  V30 14037 H 1298.58 2.63335 -4.85138 0
M  V30 14038 H 1301.05 2.9361 -2.94843 0
M  V30 14039 H 1299.93 4.17516 -3.5633 0
M  V30 14040 H 1300.19 4.02314 -1.83291 0
M  V30 14041 N 1299.25 1.36039 0.795694 0
M  V30 14042 C 1300.21 1.29709 1.88966 0
M  V30 14043 C 1301.21 0.206142 1.59473 0
M  V30 14044 O 1302.4 0.460534 1.68002 0
M  V30 14045 C 1299.53 1.00922 3.25619 0
M  V30 14046 H 1300.73 2.26993 1.95995 0
M  V30 14047 H 1298.28 1.2072 0.992791 0
M  V30 14048 H 1299.02 0.0407027 3.24274 0
M  V30 14049 H 1298.8 1.79863 3.48413 0
M  V30 14050 H 1300.29 0.990826 4.05675 0
M  V30 14051 N 1300.73 -1.01913 1.20215 0
M  V30 14052 C 1301.97 -1.7573 1.01226 0
M  V30 14053 C 1302.31 -1.88799 -0.45481 0
M  V30 14054 O 1301.58 -1.41196 -1.33768 0
M  V30 14055 C 1301.87 -3.17795 1.69348 0
M  V30 14056 C 1301.72 -3.12536 3.23483 0
M  V30 14057 C 1303.04 -4.16409 1.42448 0
M  V30 14058 H 1300.16 -0.637889 0.369144 0
M  V30 14059 H 1302.8 -1.18907 1.48193 0
M  V30 14060 H 1300.95 -3.66311 1.29416 0
M  V30 14061 H 1302.62 -2.71843 3.72692 0
M  V30 14062 H 1300.86 -2.49997 3.54519 0
M  V30 14063 H 1301.53 -4.12949 3.66302 0
M  V30 14064 H 1304.01 -3.76537 1.77086 0
M  V30 14065 H 1302.89 -5.13983 1.92648 0
M  V30 14066 H 1303.15 -4.407 0.351574 0
M  V30 14067 N 1302.21 -1.00763 -1.2118 0
M  V30 14068 C 1303.12 -0.579646 -2.27326 0
M  V30 14069 C 1304.13 0.378592 -1.69831 0
M  V30 14070 O 1305.31 0.241772 -1.99944 0
M  V30 14071 C 1302.37 0.0843648 -3.46597 0
M  V30 14072 C 1301.43 -0.918685 -4.19355 0
M  V30 14073 C 1300.67 -0.286267 -5.32932 0
M  V30 14074 O 1300.89 0.916274 -5.62993 0
M  V30 14075 O 1299.82 -0.998513 -5.9356 0
M  V30 14076 H 1303.65 -1.46311 -2.66133 0
M  V30 14077 H 1301.24 -0.776641 -1.27627 0
M  V30 14078 H 1303.12 0.455636 -4.18929 0
M  V30 14079 H 1301.79 0.942166 -3.09685 0
M  V30 14080 H 1300.7 -1.34116 -3.49233 0
M  V30 14081 H 1302.03 -1.74616 -4.60185 0
M  V30 14082 N 1303.68 1.3679 -0.7827 0
M  V30 14083 C 1305.1 1.82006 -0.41603 0
M  V30 14084 C 1305.45 1.65151 1.05922 0
M  V30 14085 O 1304.57 1.1687 1.82127 0
M  V30 14086 C 1305.17 3.30432 -0.748353 0
M  V30 14087 C 1303.73 3.73883 -0.4346 0
M  V30 14088 C 1302.87 2.59159 -0.986505 0
M  V30 14089 H 1305.82 1.25107 -0.976423 0
M  V30 14090 H 1305.84 3.80482 -0.036985 0
M  V30 14091 H 1305.36 3.42667 -1.82212 0
M  V30 14092 H 1303.46 3.67211 0.631401 0
M  V30 14093 H 1303.57 4.69577 -0.950511 0
M  V30 14094 H 1301.93 2.51377 -0.410108 0
M  V30 14095 H 1302.72 2.74182 -2.06589 0
M  V30 14096 N 1305.16 0.53415 1.48272 0
M  V30 14097 C 1306.09 -0.215037 2.32508 0
M  V30 14098 C 1307.07 -0.931083 1.42355 0
M  V30 14099 O 1308.26 -0.916051 1.71237 0
M  V30 14100 C 1305.39 -1.25985 3.23643 0
M  V30 14101 C 1304.34 -0.661692 4.22854 0
M  V30 14102 C 1303.67 -1.80946 5.03153 0
M  V30 14103 C 1304.97 0.369358 5.20992 0
M  V30 14104 H 1306.66 0.488158 2.95394 0
M  V30 14105 H 1304.21 0.236206 1.4205 0
M  V30 14106 H 1306.16 -1.79195 3.81402 0
M  V30 14107 H 1304.89 -1.99268 2.58766 0
M  V30 14108 H 1303.54 -0.151082 3.66289 0
M  V30 14109 H 1303.19 -2.53077 4.34696 0
M  V30 14110 H 1302.89 -1.41513 5.70305 0
M  V30 14111 H 1304.42 -2.34526 5.63764 0
M  V30 14112 H 1305.83 -0.0758076 5.7325 0
M  V30 14113 H 1304.23 0.681301 5.9622 0
M  V30 14114 H 1305.3 1.27363 4.67875 0
M  V30 14115 N 1306.64 -1.55279 0.269478 0
M  V30 14116 C 1307.6 -2.21008 -0.607299 0
M  V30 14117 C 1308.6 -1.18619 -1.08564 0
M  V30 14118 O 1309.79 -1.4356 -0.986721 0
M  V30 14119 C 1306.93 -2.87157 -1.83721 0
M  V30 14120 H 1308.12 -2.99881 -0.0334894 0
M  V30 14121 H 1305.67 -1.56287 0.0200573 0
M  V30 14122 H 1306.41 -2.12281 -2.45168 0
M  V30 14123 H 1306.19 -3.62183 -1.5022 0
M  V30 14124 H 1307.68 -3.37391 -2.46083 0
M  V30 14125 N 1308.12 0.00332656 -1.576 0
M  V30 14126 C 1309.35 0.699945 -1.94701 0
M  V30 14127 C 1309.76 1.67492 -0.871312 0
M  V30 14128 O 1309.12 1.81882 0.150054 0
M  V30 14129 C 1309.17 1.43471 -3.31811 0
M  V30 14130 O 1308.89 0.498835 -4.35251 0
M  V30 14131 C 1310.39 2.22614 -3.83351 0
M  V30 14132 H 1307.61 0.195158 -0.641993 0
M  V30 14133 H 1310.16 -0.0468044 -2.04446 0
M  V30 14134 H 1308.31 2.13311 -3.23384 0
M  V30 14135 H 1308.72 1.01688 -5.14548 0
M  V30 14136 H 1310.2 2.69527 -4.81725 0
M  V30 14137 H 1310.68 3.05146 -3.15883 0
M  V30 14138 H 1311.28 1.57796 -3.94944 0
M  V30 14139 N 1309.6 1.55164 0.276031 0
M  V30 14140 C 1310.84 1.75887 1.00953 0
M  V30 14141 C 1311.18 0.5567 1.8605 0
M  V30 14142 O 1310.45 -0.445799 1.89322 0
M  V30 14143 C 1310.73 3.06228 1.89463 0
M  V30 14144 C 1310.59 4.36795 1.07379 0
M  V30 14145 C 1311.91 3.32589 2.88223 0
M  V30 14146 H 1309.02 0.639929 0.365596 0
M  V30 14147 H 1311.67 1.87893 0.282156 0
M  V30 14148 H 1309.82 2.96124 2.51481 0
M  V30 14149 H 1311.49 4.58853 0.474549 0
M  V30 14150 H 1309.73 4.32157 0.377165 0
M  V30 14151 H 1310.4 5.24315 1.72621 0
M  V30 14152 H 1312.88 3.42467 2.36338 0
M  V30 14153 H 1311.75 4.2506 3.47297 0
M  V30 14154 H 1312.02 2.52083 3.6319 0
M  V30 14155 N 1311.07 -0.540404 1.48045 0
M  V30 14156 C 1312.3 -1.32656 1.59427 0
M  V30 14157 C 1312.72 -1.86419 0.250924 0
M  V30 14158 O 1312.08 -1.63861 -0.775838 0
M  V30 14159 C 1312.13 -2.46062 2.63602 0
M  V30 14160 O 1311.23 -3.48794 2.20038 0
M  V30 14161 H 1310.58 -0.393334 0.534962 0
M  V30 14162 H 1313.11 -0.651363 1.93955 0
M  V30 14163 H 1313.12 -2.92396 2.84549 0
M  V30 14164 H 1311.79 -2.06291 3.61133 0
M  V30 14165 H 1310.37 -3.0865 2.0926 0
M  V30 14166 N 1312.55 -1.36459 -0.788468 0
M  V30 14167 C 1313.96 -1.27515 -1.3637 0
M  V30 14168 C 1314.31 0.0846251 -1.96017 0
M  V30 14169 O 1313.44 0.98611 -1.92626 0
M  V30 14170 C 1314.03 -2.30903 -2.4793 0
M  V30 14171 C 1312.59 -2.25645 -3.01266 0
M  V30 14172 C 1311.74 -2.15631 -1.74352 0
M  V30 14173 H 1314.69 -1.47324 -0.590039 0
M  V30 14174 H 1314.71 -1.94601 -3.26972 0
M  V30 14175 H 1314.22 -3.29858 -2.04487 0
M  V30 14176 H 1312.33 -1.3016 -3.49126 0
M  V30 14177 H 1312.44 -3.18373 -3.58016 0
M  V30 14178 H 1310.8 -1.61901 -1.96622 0
M  V30 14179 H 1311.59 -3.16475 -1.33036 0
M  V30 14180 N 1314.03 1.01274 -1.20754 0
M  V30 14181 C 1315.44 1.56381 -1.0199 0
M  V30 14182 C 1315.79 1.91595 0.422591 0
M  V30 14183 O 1314.92 1.72653 1.3046 0
M  V30 14184 C 1315.51 2.8415 -1.8451 0
M  V30 14185 C 1314.07 3.35772 -1.70101 0
M  V30 14186 C 1313.22 2.0904 -1.82202 0
M  V30 14187 H 1316.17 0.836105 -1.34889 0
M  V30 14188 H 1316.19 3.55717 -1.35076 0
M  V30 14189 H 1315.7 2.5849 -2.8949 0
M  V30 14190 H 1313.8 3.66384 -0.677732 0
M  V30 14191 H 1313.92 4.07714 -2.51607 0
M  V30 14192 H 1312.28 2.21675 -1.25429 0
M  V30 14193 H 1313.06 1.858 -2.88675 0
M  V30 14194 N 1315.51 1.01404 1.20644 0
M  V30 14195 C 1316.44 0.602465 2.25594 0
M  V30 14196 C 1317.42 -0.381216 1.65773 0
M  V30 14197 O 1318.61 -0.267209 1.92353 0
M  V30 14198 C 1315.74 -0.0626245 3.47244 0
M  V30 14199 C 1314.69 0.841776 4.1964 0
M  V30 14200 C 1314.02 0.0426002 5.34683 0
M  V30 14201 C 1315.32 2.14864 4.76058 0
M  V30 14202 H 1317.01 1.47977 2.60275 0
M  V30 14203 H 1314.56 0.712966 1.25111 0
M  V30 14204 H 1316.51 -0.362095 4.19841 0
M  V30 14205 H 1315.23 -0.974627 3.11719 0
M  V30 14206 H 1313.89 1.12521 3.48905 0
M  V30 14207 H 1313.54 -0.870973 4.95402 0
M  V30 14208 H 1313.24 0.644866 5.84051 0
M  V30 14209 H 1314.76 -0.250476 6.10086 0
M  V30 14210 H 1316.18 1.9117 5.40488 0
M  V30 14211 H 1314.57 2.70153 5.35852 0
M  V30 14212 H 1315.64 2.81336 3.9494 0
M  V30 14213 N 1316.99 -1.36373 0.789944 0
M  V30 14214 C 1317.95 -2.28372 0.194639 0
M  V30 14215 C 1318.95 -1.48849 -0.608332 0
M  V30 14216 O 1320.14 -1.68829 -0.42925 0
M  V30 14217 C 1317.27 -3.3298 -0.730553 0
M  V30 14218 H 1318.47 -2.82529 1.00585 0
M  V30 14219 H 1316.02 -1.45946 0.559406 0
M  V30 14220 H 1316.75 -2.8398 -1.56608 0
M  V30 14221 H 1316.54 -3.91787 -0.156706 0
M  V30 14222 H 1318.03 -4.01684 -1.14192 0
M  V30 14223 N 1318.47 -0.542005 -1.47987 0
M  V30 14224 C 1319.88 -0.200691 -1.58333 0
M  V30 14225 C 1320.08 1.29643 -1.54256 0
M  V30 14226 O 1319.14 2.07556 -1.43794 0
M  V30 14227 C 1320.45 -0.813878 -2.89476 0
M  V30 14228 C 1322 -0.783711 -3.0303 0
M  V30 14229 C 1322.47 -1.37569 -4.36851 0
M  V30 14230 N 1323.96 -1.33819 -4.43449 0
M  V30 14231 C 1324.7 -1.76602 -5.45527 0
M  V30 14232 N 1324.2 -2.27169 -6.54497 0
M  V30 14233 N 1325.99 -1.67765 -5.3648 0
M  V30 14234 H 1318.14 -1.51488 -1.4888 0
M  V30 14235 H 1320.4 -0.630835 -0.707638 0
M  V30 14236 H 1320.11 -1.86544 -2.98151 0
M  V30 14237 H 1319.98 -0.297978 -3.76021 0
M  V30 14238 H 1322.37 0.259118 -2.9396 0
M  V30 14239 H 1322.45 -1.33721 -2.18065 0
M  V30 14240 H 1322.09 -2.41751 -4.46675 0
M  V30 14241 H 1322.02 -0.797769 -5.20522 0
M  V30 14242 H 1324.52 -0.968147 -3.65288 0
M  V30 14243 H 1324.83 -2.57777 -7.2854 0
M  V30 14244 H 1323.17 -2.31171 -6.55427 0
M  V30 14245 H 1326.36 -1.28048 -4.50246 0
M  V30 14246 H 1326.54 -2.01426 -6.15899 0
M  V30 14247 N 1319.94 1.55134 -0.277709 0
M  V30 14248 C 1321.17 2.04519 0.344472 0
M  V30 14249 C 1321.59 1.15466 1.4849 0
M  V30 14250 O 1320.95 0.153798 1.80646 0
M  V30 14251 C 1321 3.51602 0.800527 0
M  V30 14252 O 1320.1 3.65632 1.90754 0
M  V30 14253 H 1319.44 0.660212 0.0708226 0
M  V30 14254 H 1321.97 2.00393 -0.412764 0
M  V30 14255 H 1321.98 3.93015 1.09559 0
M  V30 14256 H 1320.66 4.15886 -0.033838 0
M  V30 14257 H 1319.24 3.36122 1.61481 0
M  V30 14258 N 1321.42 0.00503138 1.57599 0
M  V30 14259 C 1322.33 -1.00097 2.12174 0
M  V30 14260 C 1323.35 -1.37353 1.06818 0
M  V30 14261 O 1324.52 -1.45984 1.38747 0
M  V30 14262 C 1321.59 -2.27252 2.61835 0
M  V30 14263 C 1320.65 -1.96262 3.81811 0
M  V30 14264 C 1319.88 -3.17355 4.29094 0
M  V30 14265 O 1320.11 -4.2921 3.75679 0
M  V30 14266 O 1319.04 -3.01059 5.21198 0
M  V30 14267 H 1322.87 -0.567024 2.9836 0
M  V30 14268 H 1320.45 -0.214109 1.47858 0
M  V30 14269 H 1322.33 -3.01944 2.93952 0
M  V30 14270 H 1321.01 -2.69875 1.78744 0
M  V30 14271 H 1319.91 -1.19031 3.54658 0
M  V30 14272 H 1321.25 -1.58473 4.65991 0
M  V30 14273 N 1322.9 -1.55308 -0.267798 0
M  V30 14274 C 1323.83 -1.91555 -1.33525 0
M  V30 14275 C 1324.81 -0.778001 -1.51265 0
M  V30 14276 O 1326 -1.03657 -1.64222 0
M  V30 14277 C 1323.13 -2.19201 -2.69385 0
M  V30 14278 C 1322.08 -3.3501 -2.66369 0
M  V30 14279 C 1321.41 -3.48148 -4.05829 0
M  V30 14280 C 1322.71 -4.71265 -2.25182 0
M  V30 14281 H 1324.4 -2.80965 -1.03437 0
M  V30 14282 H 1321.95 -1.35183 -0.496141 0
M  V30 14283 H 1323.9 -2.43146 -3.44177 0
M  V30 14284 H 1322.62 -1.26596 -3.01067 0
M  V30 14285 H 1321.28 -3.11041 -1.94034 0
M  V30 14286 H 1320.93 -2.53 -4.34741 0
M  V30 14287 H 1320.63 -4.26014 -4.04704 0
M  V30 14288 H 1322.15 -3.74391 -4.82352 0
M  V30 14289 H 1323.57 -4.94719 -2.89699 0
M  V30 14290 H 1321.96 -5.52084 -2.3521 0
M  V30 14291 H 1323.03 -4.69735 -1.20319 0
M  V30 14292 N 1324.38 0.532545 -1.4833 0
M  V30 14293 C 1325.61 1.31331 -1.59874 0
M  V30 14294 C 1326.02 1.87028 -0.258037 0
M  V30 14295 O 1325.38 1.66272 0.752317 0
M  V30 14296 C 1325.43 2.46596 -2.64334 0
M  V30 14297 O 1325.15 1.93195 -3.93201 0
M  V30 14298 C 1326.65 3.38454 -2.86294 0
M  V30 14299 H 1323.87 0.399476 -0.539129 0
M  V30 14300 H 1326.41 0.642696 -1.94138 0
M  V30 14301 H 1324.57 3.09548 -2.32936 0
M  V30 14302 H 1324.98 2.68627 -4.50489 0
M  V30 14303 H 1326.46 4.15687 -3.63192 0
M  V30 14304 H 1326.93 3.93526 -1.95022 0
M  V30 14305 H 1327.54 2.81297 -3.18986 0
M  V30 14306 N 1325.86 1.36875 0.78122 0
M  V30 14307 C 1326.79 1.27738 1.90304 0
M  V30 14308 C 1327.8 0.195147 1.61626 0
M  V30 14309 O 1328.99 0.450531 1.72721 0
M  V30 14310 C 1326.09 0.950103 3.25309 0
M  V30 14311 C 1325.26 2.13589 3.81705 0
M  V30 14312 C 1324.32 1.78037 4.95166 0
M  V30 14313 O 1323.35 2.50223 5.11251 0
M  V30 14314 N 1324.55 0.718886 5.76031 0
M  V30 14315 H 1327.31 2.24397 1.98661 0
M  V30 14316 H 1324.88 1.30376 0.959883 0
M  V30 14317 H 1326.87 0.693286 3.98717 0
M  V30 14318 H 1325.44 0.0723849 3.12516 0
M  V30 14319 H 1324.66 2.55502 3.00187 0
M  V30 14320 H 1325.95 2.9279 4.16114 0
M  V30 14321 H 1325.34 0.119681 5.65573 0
M  V30 14322 H 1323.9 0.521909 6.49707 0
M  V30 14323 N 1327.33 -1.00632 1.21289 0
M  V30 14324 C 1328.58 -1.74647 1.03084 0
M  V30 14325 C 1328.91 -1.89271 -0.43476 0
M  V30 14326 O 1328.19 -1.42607 -1.32263 0
M  V30 14327 C 1328.47 -3.15981 1.72709 0
M  V30 14328 C 1328.32 -3.09088 3.2678 0
M  V30 14329 C 1329.64 -4.14875 1.46857 0
M  V30 14330 H 1326.76 -0.633938 0.375889 0
M  V30 14331 H 1329.4 -1.17328 1.49446 0
M  V30 14332 H 1327.55 -3.64918 1.33294 0
M  V30 14333 H 1329.23 -2.67875 3.75554 0
M  V30 14334 H 1327.47 -2.46223 3.57151 0
M  V30 14335 H 1328.14 -4.09041 3.70661 0
M  V30 14336 H 1330.62 -3.74637 1.81069 0
M  V30 14337 H 1329.49 -5.1191 1.98088 0
M  V30 14338 H 1329.75 -4.40302 0.398296 0
M  V30 14339 N 1328.81 -1.02043 -1.20104 0
M  V30 14340 C 1329.74 -0.552093 -2.22451 0
M  V30 14341 C 1330.76 0.367547 -1.58597 0
M  V30 14342 O 1331.95 0.165285 -1.77733 0
M  V30 14343 C 1329.05 0.215833 -3.38212 0
M  V30 14344 C 1328.22 -0.70666 -4.31654 0
M  V30 14345 C 1327.28 0.0143628 -5.26198 0
M  V30 14346 O 1326.3 -0.609413 -5.65928 0
M  V30 14347 N 1327.51 1.28794 -5.66032 0
M  V30 14348 H 1330.27 -1.43229 -2.6326 0
M  V30 14349 H 1327.83 -0.89842 -1.34685 0
M  V30 14350 H 1329.82 0.707523 -3.98467 0
M  V30 14351 H 1328.39 0.997358 -2.96263 0
M  V30 14352 H 1327.61 -1.37859 -3.69308 0
M  V30 14353 H 1328.9 -1.33392 -4.91003 0
M  V30 14354 H 1328.3 1.8156 -5.35773 0
M  V30 14355 H 1326.86 1.72429 -6.28579 0
M  V30 14356 N 1330.29 1.35952 -0.797165 0
M  V30 14357 C 1331.54 1.98639 -0.372405 0
M  V30 14358 C 1331.86 1.63571 1.06158 0
M  V30 14359 O 1331.13 0.913516 1.73297 0
M  V30 14360 H 1329.71 0.734753 -0.13471 0
M  V30 14361 H 1332.37 1.66022 -1.02092 0
M  V30 14362 H 1331.47 3.08533 -0.47049 0
M  V30 14363 N 1331.77 0.549846 1.47697 0
M  V30 14364 C 1332.72 -0.222213 2.26915 0
M  V30 14365 C 1333.7 -0.891996 1.33911 0
M  V30 14366 O 1334.89 -0.791519 1.58316 0
M  V30 14367 C 1332.02 -1.25619 3.19491 0
M  V30 14368 C 1331.11 -0.590193 4.19973 0
M  V30 14369 N 1331.5 0.335519 5.04686 0
M  V30 14370 C 1329.8 -0.845012 4.37922 0
M  V30 14371 C 1330.5 0.721672 5.77206 0
M  V30 14372 N 1329.48 0.078184 5.43544 0
M  V30 14373 H 1333.28 0.489645 2.89792 0
M  V30 14374 H 1330.79 0.36926 1.58146 0
M  V30 14375 H 1332.79 -1.82319 3.74921 0
M  V30 14376 H 1331.45 -1.96922 2.5817 0
M  V30 14377 H 1332.46 0.709271 5.1302 0
M  V30 14378 H 1329.14 -1.54711 3.87777 0
M  V30 14379 H 1330.53 1.48191 6.55354 0
M  V30 14380 N 1333.25 -1.54984 0.285932 0
M  V30 14381 C 1334.18 -2.25916 -0.590259 0
M  V30 14382 C 1335.16 -1.25319 -1.15018 0
M  V30 14383 O 1336.34 -1.54062 -1.18231 0
M  V30 14384 C 1333.47 -2.98849 -1.76936 0
M  V30 14385 C 1332.43 -4.06466 -1.3405 0
M  V30 14386 C 1331.75 -4.67032 -2.60356 0
M  V30 14387 C 1333.05 -5.20064 -0.482754 0
M  V30 14388 H 1334.75 -2.994 0.00131571 0
M  V30 14389 H 1332.29 -1.44 0.00207281 0
M  V30 14390 H 1334.25 -3.47186 -2.3883 0
M  V30 14391 H 1332.97 -2.22918 -2.38694 0
M  V30 14392 H 1331.63 -3.58957 -0.7447 0
M  V30 14393 H 1331.28 -3.87757 -3.20396 0
M  V30 14394 H 1330.98 -5.39703 -2.32368 0
M  V30 14395 H 1332.5 -5.18124 -3.23079 0
M  V30 14396 H 1333.91 -5.64387 -1.00697 0
M  V30 14397 H 1332.31 -5.99363 -0.297291 0
M  V30 14398 H 1333.38 -4.82358 0.495861 0
M  V30 14399 N 1334.72 -0.0133892 -1.57594 0
M  V30 14400 C 1335.97 0.669624 -1.91426 0
M  V30 14401 C 1336.3 1.72675 -0.888656 0
M  V30 14402 O 1335.58 1.94288 0.0908138 0
M  V30 14403 C 1335.86 1.30051 -3.35796 0
M  V30 14404 C 1335.71 0.254021 -4.49082 0
M  V30 14405 C 1337.03 2.22297 -3.79832 0
M  V30 14406 H 1334.15 0.241958 -0.69615 0
M  V30 14407 H 1336.79 -0.0674278 -1.8988 0
M  V30 14408 H 1334.94 1.92871 -3.37243 0
M  V30 14409 H 1336.62 -0.375524 -4.59769 0
M  V30 14410 H 1334.86 -0.422267 -4.3174 0
M  V30 14411 H 1335.53 0.734756 -5.47088 0
M  V30 14412 H 1338.01 1.69481 -3.8002 0
M  V30 14413 H 1336.88 2.634 -4.81572 0
M  V30 14414 H 1337.14 3.10764 -3.14449 0
M  V30 14415 N 1336.2 1.55448 0.259558 0
M  V30 14416 C 1337.15 1.85637 1.32374 0
M  V30 14417 C 1338.14 0.716256 1.44078 0
M  V30 14418 O 1339.33 0.977907 1.47533 0
M  V30 14419 C 1336.46 2.14353 2.68156 0
M  V30 14420 C 1335.54 3.34659 2.60508 0
M  V30 14421 N 1335.93 4.54241 2.22484 0
M  V30 14422 C 1334.23 3.37517 2.91545 0
M  V30 14423 C 1334.93 5.36358 2.25157 0
M  V30 14424 N 1333.91 4.751 2.64162 0
M  V30 14425 H 1337.71 2.75631 1.02005 0
M  V30 14426 H 1335.23 1.55505 0.468194 0
M  V30 14427 H 1337.22 2.34141 3.4494 0
M  V30 14428 H 1335.88 1.25651 2.99403 0
M  V30 14429 H 1336.89 4.80096 1.94237 0
M  V30 14430 H 1333.57 2.59048 3.27414 0
M  V30 14431 H 1334.96 6.42 1.98206 0
M  V30 14432 N 1337.68 -0.524672 1.4861 0
M  V30 14433 C 1338.93 -1.28021 1.56898 0
M  V30 14434 C 1339.26 -1.92948 0.245203 0
M  V30 14435 O 1338.51 -1.8013 -0.764966 0
M  V30 14436 C 1338.81 -2.3871 2.65993 0
M  V30 14437 C 1338.48 -1.914 4.08261 0
M  V30 14438 C 1337.14 -1.78215 4.46982 0
M  V30 14439 C 1339.49 -1.55713 4.97396 0
M  V30 14440 C 1336.82 -1.27687 5.72637 0
M  V30 14441 C 1339.17 -1.06645 6.23546 0
M  V30 14442 C 1337.83 -0.920818 6.61118 0
M  V30 14443 H 1337.1 -0.468461 0.57413 0
M  V30 14444 H 1339.75 -0.584901 1.82349 0
M  V30 14445 H 1338.06 -3.13932 2.34422 0
M  V30 14446 H 1339.75 -2.96827 2.6962 0
M  V30 14447 H 1336.34 -2.02614 3.77684 0
M  V30 14448 H 1340.53 -1.64757 4.68155 0
M  V30 14449 H 1335.78 -1.15103 6.00468 0
M  V30 14450 H 1339.96 -0.781048 6.92006 0
M  V30 14451 H 1337.58 -0.527091 7.5837 0
M  V30 14452 N 1339.16 -1.37287 -0.77395 0
M  V30 14453 C 1340.57 -1.28954 -1.3501 0
M  V30 14454 C 1340.92 0.0638301 -1.96096 0
M  V30 14455 O 1340.05 0.965624 -1.93661 0
M  V30 14456 C 1340.64 -2.3352 -2.45467 0
M  V30 14457 C 1339.2 -2.28828 -2.98856 0
M  V30 14458 C 1338.35 -2.17468 -1.72055 0
M  V30 14459 H 1341.3 -1.47941 -0.57438 0
M  V30 14460 H 1341.32 -1.98058 -3.24889 0
M  V30 14461 H 1340.83 -3.32009 -2.00977 0
M  V30 14462 H 1338.93 -1.33855 -3.47726 0
M  V30 14463 H 1339.04 -3.22152 -3.54619 0
M  V30 14464 H 1337.41 -1.63977 -1.94894 0
M  V30 14465 H 1338.19 -3.17868 -1.29672 0
M  V30 14466 N 1340.64 0.999871 -1.21821 0
M  V30 14467 C 1341.57 2.10708 -1.00621 0
M  V30 14468 C 1342.55 1.69954 0.0705417 0
M  V30 14469 O 1343.73 1.9399 -0.0903042 0
M  V30 14470 C 1340.86 3.42496 -0.575646 0
M  V30 14471 C 1339.82 3.97068 -1.59754 0
M  V30 14472 C 1339.14 5.24822 -1.02304 0
M  V30 14473 C 1340.44 4.28545 -2.98574 0
M  V30 14474 H 1342.14 2.28701 -1.93226 0
M  V30 14475 H 1339.68 1.09903 -0.930443 0
M  V30 14476 H 1341.64 4.19357 -0.414481 0
M  V30 14477 H 1340.36 3.2431 0.386059 0
M  V30 14478 H 1339.02 3.22332 -1.74636 0
M  V30 14479 H 1338.67 5.02972 -0.0529016 0
M  V30 14480 H 1338.37 5.62299 -1.70567 0
M  V30 14481 H 1339.89 6.04322 -0.873312 0
M  V30 14482 H 1341.3 4.96229 -2.87106 0
M  V30 14483 H 1339.7 4.77178 -3.63897 0
M  V30 14484 H 1340.77 3.36607 -3.49032 0
M  V30 14485 N 1342.11 1.02678 1.19562 0
M  V30 14486 C 1343.06 0.605764 2.22709 0
M  V30 14487 C 1344.03 -0.37936 1.6171 0
M  V30 14488 O 1345.22 -0.276496 1.88786 0
M  V30 14489 C 1342.36 -0.0394312 3.45077 0
M  V30 14490 C 1341.47 0.991481 4.20468 0
M  V30 14491 C 1340.6 0.316269 5.30258 0
M  V30 14492 C 1339.64 1.33324 5.97404 0
M  V30 14493 N 1338.78 0.683979 6.9876 0
M  V30 14494 H 1343.62 1.48994 2.58079 0
M  V30 14495 H 1341.16 0.745636 1.26802 0
M  V30 14496 H 1343.12 -0.430726 4.14971 0
M  V30 14497 H 1341.75 -0.887193 3.10369 0
M  V30 14498 H 1340.8 1.50085 3.49541 0
M  V30 14499 H 1342.11 1.76449 4.66548 0
M  V30 14500 H 1341.26 -0.129983 6.06561 0
M  V30 14501 H 1340 -0.488956 4.85243 0
M  V30 14502 H 1339.01 1.78977 5.19853 0
M  V30 14503 H 1340.23 2.13992 6.44503 0
M  V30 14504 H 1338.18 -0.101192 6.55922 0
M  V30 14505 H 1338.1 1.3949 7.4302 0
M  V30 14506 H 1339.36 0.261658 7.79061 0
M  V30 14507 N 1343.59 -1.35528 0.804364 0
M  V30 14508 C 1344.84 -1.98832 0.383692 0
M  V30 14509 C 1345.17 -1.63816 -1.04855 0
M  V30 14510 O 1344.42 -0.892272 -1.74175 0
M  V30 14511 C 1344.72 -3.5372 0.511571 0
M  V30 14512 C 1344.39 -4.08597 1.9068 0
M  V30 14513 C 1343.05 -4.23297 2.28852 0
M  V30 14514 C 1345.4 -4.3834 2.81971 0
M  V30 14515 C 1342.73 -4.65056 3.57687 0
M  V30 14516 C 1345.08 -4.81537 4.1025 0
M  V30 14517 C 1343.75 -4.94442 4.48423 0
M  V30 14518 H 1343.02 -0.727577 0.140403 0
M  V30 14519 H 1345.66 -1.61777 1.02472 0
M  V30 14520 H 1343.97 -3.91221 -0.212916 0
M  V30 14521 H 1345.66 -4.00653 0.166888 0
M  V30 14522 H 1342.25 -3.97606 1.60023 0
M  V30 14523 H 1346.44 -4.26538 2.5373 0
M  V30 14524 H 1341.69 -4.73236 3.87115 0
M  V30 14525 H 1345.87 -5.03512 4.81091 0
M  V30 14526 H 1343.5 -5.26558 5.48307 0
M  V30 14527 N 1345.07 -0.557671 -1.47404 0
M  V30 14528 C 1346 0.178019 -2.3282 0
M  V30 14529 C 1346.98 0.908318 -1.43818 0
M  V30 14530 O 1348.17 0.888693 -1.72673 0
M  V30 14531 C 1345.3 1.2082 -3.25607 0
M  V30 14532 C 1344.25 0.594335 -4.23853 0
M  V30 14533 C 1343.58 1.72919 -5.05968 0
M  V30 14534 C 1344.88 -0.452196 -5.20339 0
M  V30 14535 H 1346.57 -0.535091 -2.9458 0
M  V30 14536 H 1344.12 -0.258775 -1.41656 0
M  V30 14537 H 1346.07 1.73104 -3.84204 0
M  V30 14538 H 1344.79 1.95126 -2.61903 0
M  V30 14539 H 1343.45 0.0927898 -3.66483 0
M  V30 14540 H 1343.1 2.4613 -4.38668 0
M  V30 14541 H 1342.8 1.32422 -5.72484 0
M  V30 14542 H 1344.33 2.25527 -5.67424 0
M  V30 14543 H 1345.74 -0.0154011 -5.73298 0
M  V30 14544 H 1344.14 -0.776068 -5.95061 0
M  V30 14545 H 1345.21 -1.34791 -4.65789 0
M  V30 14546 N 1346.55 1.54831 -0.294147 0
M  V30 14547 C 1347.46 2.26939 0.594621 0
M  V30 14548 C 1348.48 1.30209 1.15419 0
M  V30 14549 O 1349.65 1.6318 1.18044 0
M  V30 14550 C 1346.72 2.9909 1.75345 0
M  V30 14551 C 1345.78 4.11342 1.22865 0
M  V30 14552 C 1345.01 4.80043 2.33225 0
M  V30 14553 O 1345.23 4.48062 3.52983 0
M  V30 14554 O 1344.17 5.67593 2.00304 0
M  V30 14555 H 1347.99 3.03698 0.00989235 0
M  V30 14556 H 1345.58 1.49276 -0.0608528 0
M  V30 14557 H 1347.46 3.44369 2.42875 0
M  V30 14558 H 1346.14 2.25232 2.32492 0
M  V30 14559 H 1345.04 3.70478 0.519279 0
M  V30 14560 H 1346.38 4.87158 0.702703 0
M  V30 14561 N 1348.03 0.0217466 1.57585 0
M  V30 14562 C 1349.3 -0.696733 1.8277 0
M  V30 14563 C 1349.68 -1.90759 0.904112 0
M  V30 14564 O 1349.03 -2.28461 -0.0420522 0
M  V30 14565 C 1349.24 -1.08193 3.31806 0
M  V30 14566 C 1350.59 -1.47667 3.98095 0
M  V30 14567 O 1351.61 -1.17511 3.36258 0
M  V30 14568 O 1350.47 -2.03825 5.07068 0
M  V30 14569 H 1347.57 -0.341141 0.75336 0
M  V30 14570 H 1350.11 0.0488652 1.6963 0
M  V30 14571 H 1348.89 -0.219799 3.90682 0
M  V30 14572 H 1348.51 -1.88593 3.50026 0
M  V30 14573 N 1349.51 -1.55583 -0.251311 0
M  V30 14574 C 1350.42 -1.93073 -1.33266 0
M  V30 14575 C 1351.43 -0.830612 -1.52895 0
M  V30 14576 O 1352.61 -1.13162 -1.66602 0
M  V30 14577 C 1349.67 -2.21396 -2.66805 0
M  V30 14578 C 1348.73 -3.44815 -2.55737 0
M  V30 14579 C 1347.97 -3.71777 -3.82907 0
M  V30 14580 O 1348.19 -3.00884 -4.84587 0
M  V30 14581 O 1347.12 -4.65305 -3.81805 0
M  V30 14582 H 1350.95 -2.85168 -1.04465 0
M  V30 14583 H 1348.53 -1.42408 -0.451693 0
M  V30 14584 H 1350.42 -2.4094 -3.45725 0
M  V30 14585 H 1349.09 -1.3248 -2.95348 0
M  V30 14586 H 1348 -3.30582 -1.75118 0
M  V30 14587 H 1349.33 -4.34019 -2.32139 0
M  V30 14588 N 1350.98 0.516783 -1.48886 0
M  V30 14589 C 1352.21 1.30103 -1.61518 0
M  V30 14590 C 1352.63 1.85996 -0.28055 0
M  V30 14591 O 1351.99 1.65075 0.749671 0
M  V30 14592 C 1352.04 2.41837 -2.67483 0
M  V30 14593 O 1351.14 3.45249 -2.25559 0
M  V30 14594 H 1350.48 0.384774 -0.541152 0
M  V30 14595 H 1353.01 0.620424 -1.94966 0
M  V30 14596 H 1353.02 2.87832 -2.89165 0
M  V30 14597 H 1351.7 2.00519 -3.64369 0
M  V30 14598 H 1350.28 3.05281 -2.14144 0
M  V30 14599 N 1352.46 1.37696 0.766659 0
M  V30 14600 C 1353.39 1.36576 1.89392 0
M  V30 14601 C 1354.37 0.233597 1.68488 0
M  V30 14602 O 1355.56 0.434719 1.89272 0
M  V30 14603 C 1352.69 1.17705 3.26746 0
M  V30 14604 C 1351.64 2.27987 3.62224 0
M  V30 14605 C 1350.97 1.94235 4.98174 0
M  V30 14606 C 1352.27 3.70195 3.68447 0
M  V30 14607 H 1353.96 2.30905 1.90587 0
M  V30 14608 H 1351.51 1.11148 0.915538 0
M  V30 14609 H 1353.46 1.15551 4.05248 0
M  V30 14610 H 1352.18 0.198334 3.25997 0
M  V30 14611 H 1350.84 2.29306 2.86032 0
M  V30 14612 H 1350.49 0.948796 4.93971 0
M  V30 14613 H 1350.19 2.68086 5.2288 0
M  V30 14614 H 1351.72 1.93676 5.7907 0
M  V30 14615 H 1353.13 3.70978 4.37091 0
M  V30 14616 H 1351.53 4.43142 4.04654 0
M  V30 14617 H 1352.6 4.03453 2.68986 0
M  V30 14618 N 1353.94 -0.993397 1.22349 0
M  V30 14619 C 1354.87 -2.10171 1.01737 0
M  V30 14620 C 1355.85 -1.69989 -0.0615276 0
M  V30 14621 O 1357.04 -1.93939 0.100591 0
M  V30 14622 C 1354.17 -3.42186 0.593801 0
M  V30 14623 C 1353.12 -3.96215 1.61858 0
M  V30 14624 C 1352.45 -5.24272 1.05086 0
M  V30 14625 C 1353.75 -4.26956 3.00842 0
M  V30 14626 H 1355.44 -2.27673 1.94436 0
M  V30 14627 H 1352.99 -1.09408 0.936258 0
M  V30 14628 H 1354.94 -4.19131 0.436715 0
M  V30 14629 H 1353.66 -3.2451 -0.368855 0
M  V30 14630 H 1352.32 -3.21401 1.76343 0
M  V30 14631 H 1351.97 -5.02937 0.0795747 0
M  V30 14632 H 1351.67 -5.61387 1.73547 0
M  V30 14633 H 1353.19 -6.03851 0.905349 0
M  V30 14634 H 1354.61 -4.94699 2.89734 0
M  V30 14635 H 1353 -4.75242 3.66422 0
M  V30 14636 H 1354.07 -3.34752 3.50812 0
M  V30 14637 N 1355.42 -1.03311 -1.19015 0
M  V30 14638 C 1356.83 -0.761079 -1.70483 0
M  V30 14639 C 1357.18 0.718851 -1.82557 0
M  V30 14640 O 1356.3 1.56006 -1.4997 0
M  V30 14641 C 1356.9 -1.37492 -3.09647 0
M  V30 14642 C 1355.46 -1.15138 -3.58358 0
M  V30 14643 C 1354.61 -1.47034 -2.35109 0
M  V30 14644 H 1357.56 -1.2005 -1.03797 0
M  V30 14645 H 1357.58 -0.774115 -3.72542 0
M  V30 14646 H 1357.09 -2.45203 -3.00828 0
M  V30 14647 H 1355.19 -0.0926822 -3.72485 0
M  V30 14648 H 1355.3 -1.84307 -4.4223 0
M  V30 14649 H 1353.67 -0.889794 -2.38652 0
M  V30 14650 H 1354.45 -2.55837 -2.28916 0
M  V30 14651 N 1356.9 1.35099 -0.81154 0
M  V30 14652 C 1358.31 1.81082 -0.454543 0
M  V30 14653 C 1358.66 1.67361 1.02395 0
M  V30 14654 O 1357.78 1.20707 1.79607 0
M  V30 14655 C 1358.38 3.2877 -0.818274 0
M  V30 14656 C 1356.94 3.72877 -0.513808 0
M  V30 14657 C 1356.08 2.57008 -1.04125 0
M  V30 14658 H 1359.03 1.23007 -1.00274 0
M  V30 14659 H 1359.06 3.80318 -0.117683 0
M  V30 14660 H 1358.57 3.38725 -1.89439 0
M  V30 14661 H 1356.67 3.68468 0.553368 0
M  V30 14662 H 1356.78 4.67455 -1.0499 0
M  V30 14663 H 1355.15 2.5045 -0.463337 0
M  V30 14664 H 1355.93 2.69738 -2.12358 0
M  V30 14665 N 1358.37 0.56548 1.47106 0
M  V30 14666 C 1359.3 -0.16567 2.32912 0
M  V30 14667 C 1360.28 -0.900678 1.44298 0
M  V30 14668 O 1361.47 -0.879523 1.73142 0
M  V30 14669 C 1358.6 -1.19092 3.26243 0
M  V30 14670 C 1357.55 -0.571849 4.24163 0
M  V30 14671 C 1356.88 -1.70233 5.06878 0
M  V30 14672 C 1358.18 0.479785 5.20092 0
M  V30 14673 H 1359.87 0.550705 2.94292 0
M  V30 14674 H 1357.42 0.266284 1.41517 0
M  V30 14675 H 1359.37 -1.71064 3.85117 0
M  V30 14676 H 1358.1 -1.93734 2.62934 0
M  V30 14677 H 1356.76 -0.073353 3.66527 0
M  V30 14678 H 1356.4 -2.438 4.39967 0
M  V30 14679 H 1356.1 -1.29384 5.73178 0
M  V30 14680 H 1357.63 -2.22515 5.68612 0
M  V30 14681 H 1359.04 0.0458042 5.73282 0
M  V30 14682 H 1357.44 0.807615 5.94641 0
M  V30 14683 H 1358.51 1.37259 4.65068 0
M  V30 14684 N 1359.85 -1.54672 0.302354 0
M  V30 14685 C 1361.1 -1.99771 -0.305919 0
M  V30 14686 C 1361.42 -1.19225 -1.54306 0
M  V30 14687 O 1360.69 -0.288569 -1.93763 0
M  V30 14688 H 1359.27 -0.737934 -0.116026 0
M  V30 14689 H 1361.93 -1.90452 0.413997 0
M  V30 14690 H 1361.03 -3.06719 -0.577024 0
M  V30 14691 N 1361.33 -0.0301034 -1.57571 0
M  V30 14692 C 1362.56 0.662045 -1.9655 0
M  V30 14693 C 1362.98 1.64811 -0.906581 0
M  V30 14694 O 1362.34 1.80816 0.132415 0
M  V30 14695 C 1362.39 1.34389 -3.34622 0
M  V30 14696 O 1361.49 2.45919 -3.31056 0
M  V30 14697 H 1360.83 0.173842 -0.640839 0
M  V30 14698 H 1363.36 -0.092248 -2.04392 0
M  V30 14699 H 1363.37 1.70045 -3.70875 0
M  V30 14700 H 1362.05 0.621092 -4.11236 0
M  V30 14701 H 1360.62 2.12367 -3.06521 0
M  V30 14702 N 1362.81 1.55714 0.243056 0
M  V30 14703 C 1363.76 1.90638 1.30099 0
M  V30 14704 C 1364.73 0.761049 1.47639 0
M  V30 14705 O 1365.91 1.01505 1.61559 0
M  V30 14706 C 1363.05 2.20985 2.65065 0
M  V30 14707 C 1362.16 3.48343 2.55501 0
M  V30 14708 C 1361.3 3.68241 3.82847 0
M  V30 14709 C 1360.34 4.89187 3.67916 0
M  V30 14710 N 1359.47 5.05586 4.87162 0
M  V30 14711 H 1364.31 2.80857 0.996155 0
M  V30 14712 H 1361.85 1.39027 0.480619 0
M  V30 14713 H 1363.81 2.36585 3.43632 0
M  V30 14714 H 1362.44 1.33966 2.93689 0
M  V30 14715 H 1361.49 3.41054 1.68483 0
M  V30 14716 H 1362.8 4.37057 2.4038 0
M  V30 14717 H 1361.96 3.83822 4.69857 0
M  V30 14718 H 1360.7 2.77768 4.00869 0
M  V30 14719 H 1359.7 4.7358 2.79289 0
M  V30 14720 H 1360.93 5.81124 3.51385 0
M  V30 14721 H 1358.87 4.18051 5.05538 0
M  V30 14722 H 1358.79 5.88395 4.74686 0
M  V30 14723 H 1360.06 5.25582 5.7566 0
M  V30 14724 N 1364.29 -0.50888 1.49158 0
M  V30 14725 C 1365.2 -1.63782 1.67966 0
M  V30 14726 C 1366.21 -1.64667 0.562207 0
M  V30 14727 O 1367.39 -1.83232 0.835935 0
M  V30 14728 C 1364.45 -3.00179 1.73474 0
M  V30 14729 C 1363.51 -3.09983 2.97 0
M  V30 14730 C 1362.75 -4.39875 3.02235 0
M  V30 14731 O 1362.97 -5.28214 2.15282 0
M  V30 14732 O 1361.9 -4.54486 3.94621 0
M  V30 14733 H 1365.73 -1.50846 2.63589 0
M  V30 14734 H 1363.32 -0.684306 1.32807 0
M  V30 14735 H 1365.2 -3.8126 1.79495 0
M  V30 14736 H 1363.87 -3.13394 0.810287 0
M  V30 14737 H 1362.78 -2.28119 2.965 0
M  V30 14738 H 1364.11 -3.01693 3.88899 0
M  V30 14739 N 1365.76 -1.381 -0.759346 0
M  V30 14740 C 1367.01 -1.33727 -1.5153 0
M  V30 14741 C 1367.33 0.0739504 -1.9486 0
M  V30 14742 O 1366.6 1.02049 -1.67221 0
M  V30 14743 H 1365.18 -0.492037 -0.562058 0
M  V30 14744 H 1367.85 -1.72719 -0.902995 0
M  V30 14745 H 1366.94 -1.98439 -2.40891 0
M  V30 14746 N 1367.24 0.986894 -1.22875 0
M  V30 14747 C 1368.18 2.07604 -0.947406 0
M  V30 14748 C 1369.15 1.62214 0.111904 0
M  V30 14749 O 1370.34 1.88488 -0.0209682 0
M  V30 14750 C 1367.46 3.3601 -0.42605 0
M  V30 14751 C 1366.51 4.00331 -1.47097 0
M  V30 14752 S 1367.34 4.40412 -3.04627 0
M  V30 14753 C 1368.5 5.7198 -2.54145 0
M  V30 14754 H 1368.73 2.31149 -1.86969 0
M  V30 14755 H 1366.27 1.1222 -1.06047 0
M  V30 14756 H 1368.22 4.10288 -0.131846 0
M  V30 14757 H 1366.88 3.10484 0.475211 0
M  V30 14758 H 1366.08 4.92809 -1.05618 0
M  V30 14759 H 1365.68 3.32403 -1.71418 0
M  V30 14760 H 1367.97 6.48602 -1.9576 0
M  V30 14761 H 1368.91 6.18293 -3.45137 0
M  V30 14762 H 1369.32 5.29669 -1.95221 0
M  V30 14763 N 1368.72 1.0394 1.18466 0
M  V30 14764 C 1369.97 0.737233 1.87744 0
M  V30 14765 C 1370.28 -0.737891 1.81148 0
M  V30 14766 O 1371.49 -1.15353 2.45776 0
M  V30 14767 C 1369.94 1.26844 3.36806 0
M  V30 14768 C 1369.55 2.7721 3.51935 0
M  V30 14769 C 1371.3 1.04274 4.11494 0
M  V30 14770 C 1369.2 3.23696 4.9495 0
M  V30 14771 H 1368.13 0.272082 0.703198 0
M  V30 14772 H 1370.78 1.25507 1.33866 0
M  V30 14773 H 1369.17 0.67847 3.90145 0
M  V30 14774 H 1370.34 3.41954 3.08875 0
M  V30 14775 H 1368.66 2.98179 2.90652 0
M  V30 14776 H 1371.25 1.3652 5.16978 0
M  V30 14777 H 1371.6 -0.0200645 4.16295 0
M  V30 14778 H 1372.13 1.59726 3.64325 0
M  V30 14779 H 1368.87 4.29351 4.95316 0
M  V30 14780 H 1368.39 2.63687 5.38729 0
M  V30 14781 H 1370.07 3.17645 5.63658 0
M  V30 14782 N 1370.2 -1.34667 0.818693 0
M  V30 14783 C 1371.61 -1.80839 0.46414 0
M  V30 14784 C 1371.96 -1.67902 -1.01506 0
M  V30 14785 O 1371.09 -1.21658 -1.78964 0
M  V30 14786 C 1371.68 -3.28331 0.835698 0
M  V30 14787 C 1370.24 -3.72599 0.533575 0
M  V30 14788 C 1369.39 -2.56452 1.05487 0
M  V30 14789 H 1372.34 -1.22474 1.00925 0
M  V30 14790 H 1372.36 -3.8025 0.13785 0
M  V30 14791 H 1371.87 -3.37715 1.91233 0
M  V30 14792 H 1369.97 -3.68756 -0.533819 0
M  V30 14793 H 1370.08 -4.66891 1.07468 0
M  V30 14794 H 1368.45 -2.50201 0.476612 0
M  V30 14795 H 1369.23 -2.68608 2.13786 0
M  V30 14796 N 1371.68 -0.573274 -1.46804 0
M  V30 14797 C 1372.61 0.153316 -2.32996 0
M  V30 14798 C 1373.59 0.893013 -1.44773 0
M  V30 14799 O 1374.77 0.870329 -1.73606 0
M  V30 14800 C 1371.9 1.1736 -3.2687 0
M  V30 14801 C 1370.86 0.549347 -4.2446 0
M  V30 14802 C 1370.18 1.67542 -5.07773 0
M  V30 14803 C 1371.48 -0.50736 -5.1983 0
M  V30 14804 H 1373.18 -0.566305 -2.93995 0
M  V30 14805 H 1370.72 -0.273785 -1.41373 0
M  V30 14806 H 1372.68 1.6902 -3.86019 0
M  V30 14807 H 1371.4 1.92337 -2.63958 0
M  V30 14808 H 1370.06 0.0539142 -3.6656 0
M  V30 14809 H 1369.71 2.41463 -4.41253 0
M  V30 14810 H 1369.41 1.26343 -5.73856 0
M  V30 14811 H 1370.93 2.19496 -5.69784 0
M  V30 14812 H 1372.34 -0.0762061 -5.73249 0
M  V30 14813 H 1370.74 -0.839139 -5.94204 0
M  V30 14814 H 1371.81 -1.39723 -4.64333 0
M  V30 14815 N 1373.15 1.5451 -0.310553 0
M  V30 14816 C 1374.06 2.27557 0.570518 0
M  V30 14817 C 1375.08 1.31426 1.14032 0
M  V30 14818 O 1376.26 1.64423 1.16306 0
M  V30 14819 C 1373.32 3.00933 1.72163 0
M  V30 14820 C 1372.38 4.12623 1.18495 0
M  V30 14821 C 1371.62 4.8249 2.28121 0
M  V30 14822 O 1371.84 4.5178 3.48211 0
M  V30 14823 O 1370.77 5.69686 1.94273 0
M  V30 14824 H 1374.6 3.03692 -0.0223195 0
M  V30 14825 H 1372.18 1.49203 -0.0766821 0
M  V30 14826 H 1374.07 3.46925 2.39208 0
M  V30 14827 H 1372.74 2.27685 2.3009 0
M  V30 14828 H 1371.65 3.71008 0.479956 0
M  V30 14829 H 1372.98 4.87876 0.650994 0
M  V30 14830 N 1374.63 0.0384594 1.57553 0
M  V30 14831 C 1375.88 -0.639085 1.92467 0
M  V30 14832 C 1376.21 -1.71239 0.916014 0
M  V30 14833 O 1375.49 -1.94408 -0.0598928 0
M  V30 14834 C 1375.77 -1.24693 3.37822 0
M  V30 14835 C 1375.62 -0.182544 4.49429 0
M  V30 14836 C 1376.94 -2.16226 3.8332 0
M  V30 14837 H 1374.06 -0.230852 0.699912 0
M  V30 14838 H 1376.7 0.0976276 1.89749 0
M  V30 14839 H 1374.85 -1.87481 3.40269 0
M  V30 14840 H 1376.53 0.448622 4.59113 0
M  V30 14841 H 1374.77 0.4909 4.31013 0
M  V30 14842 H 1375.44 -0.647626 5.48188 0
M  V30 14843 H 1377.92 -1.63413 3.82669 0
M  V30 14844 H 1376.79 -2.55705 4.85702 0
M  V30 14845 H 1377.05 -3.05722 3.19353 0
M  V30 14846 N 1376.11 -1.55841 -0.234795 0
M  V30 14847 C 1377.36 -1.79415 -0.958219 0
M  V30 14848 C 1377.71 -0.609349 -1.82496 0
M  V30 14849 O 1377.01 0.397051 -1.87441 0
M  V30 14850 C 1377.2 -3.06262 -1.84223 0
M  V30 14851 C 1377.03 -4.36966 -1.06256 0
M  V30 14852 C 1375.8 -4.99509 -0.762795 0
M  V30 14853 C 1378 -5.12463 -0.434262 0
M  V30 14854 N 1375.98 -6.13887 0.0396694 0
M  V30 14855 C 1377.35 -6.19565 0.232209 0
M  V30 14856 C 1379.4 -4.96697 -0.345951 0
M  V30 14857 C 1378.11 -7.12613 0.978527 0
M  V30 14858 C 1380.13 -5.90133 0.386865 0
M  V30 14859 C 1379.5 -6.96651 1.04193 0
M  V30 14860 H 1375.59 -0.708334 -0.331342 0
M  V30 14861 H 1378.18 -1.93334 -0.230254 0
M  V30 14862 H 1376.35 -2.9365 -2.54213 0
M  V30 14863 H 1378.08 -3.18081 -2.50213 0
M  V30 14864 H 1374.84 -4.61178 -1.07757 0
M  V30 14865 H 1375.26 -6.75637 0.429349 0
M  V30 14866 H 1379.9 -4.14411 -0.83806 0
M  V30 14867 H 1377.62 -7.94391 1.4822 0
M  V30 14868 H 1381.21 -5.8001 0.456023 0
M  V30 14869 H 1380.09 -7.67706 1.59992 0
M  V30 14870 N 1377.59 0.500963 -1.49426 0
M  V30 14871 C 1378.82 1.27911 -1.62624 0
M  V30 14872 C 1379.23 1.86439 -0.297651 0
M  V30 14873 O 1378.59 1.67831 0.716879 0
M  V30 14874 C 1378.64 2.40934 -2.69505 0
M  V30 14875 O 1378.36 1.84811 -3.97211 0
M  V30 14876 C 1379.86 3.32305 -2.93408 0
M  V30 14877 H 1377.08 0.387951 -0.547481 0
M  V30 14878 H 1379.63 0.601372 -1.95458 0
M  V30 14879 H 1377.78 3.04537 -2.39449 0
M  V30 14880 H 1378.2 2.59011 -4.56085 0
M  V30 14881 H 1379.67 4.0789 -3.71927 0
M  V30 14882 H 1380.15 3.89301 -2.03325 0
M  V30 14883 H 1380.75 2.74467 -3.24881 0
M  V30 14884 O 1379.11 1.48006 0.64625 0
M  V30 14885 H 1379.8 1.43604 1.29991 0
M  V30 END ATOM
M  V30 BEGIN BOND
M  V30 END BOND
M  V30 END CTAB
M  END
$$$$
