drugbank_target|P0A7D4 Adenylosuccinate synthetase (DB02109; DB02493; DB02666; DB02836; DB02954; DB03146; DB04315; DB04460; DB04566)
 OpenBabel12092119543D

  0  0  0     0  0            999 V3000
M  V30 BEGIN CTAB
M  V30 COUNTS 6664 6722 0 0 0
M  V30 BEGIN ATOM
M  V30 1 H -0.908 1.98254 -0.117106 0
M  V30 2 N 0 1.576 0 0
M  V30 3 C 0.933 2.03868 1.02534 0
M  V30 4 C 1.911 0.928543 1.3348 0
M  V30 5 O 3.095 1.19667 1.45644 0
M  V30 6 C 0.222 2.43627 2.35294 0
M  V30 7 C -0.732 3.65373 2.2001 0
M  V30 8 S 0.101 5.13292 1.52614 0
M  V30 9 C 1.257 5.56322 2.86805 0
M  V30 10 H 1.49 2.90518 0.631377 0
M  V30 11 H -0.977 1.52953 0.210867 0
M  V30 12 H 0.981 2.67203 3.11629 0
M  V30 13 H -0.358 1.57376 2.7183 0
M  V30 14 H -1.165 3.90944 3.18086 0
M  V30 15 H -1.563 3.418 1.51819 0
M  V30 16 H 0.729 5.58782 3.83104 0
M  V30 17 H 1.672 6.56266 2.65933 0
M  V30 18 H 2.08 4.83886 2.90714 0
M  V30 19 N 1.4781 -0.272755 1.55222 0
M  V30 20 C 2.7261 -1.00234 1.75492 0
M  V30 21 C 3.0471 -1.8681 0.5592 0
M  V30 22 O 2.3171 -1.91215 -0.425882 0
M  V30 23 H 0.8971 -0.373076 0.647166 0
M  V30 24 H 3.5591 -0.296926 1.92625 0
M  V30 25 H 2.6551 -1.63913 2.65592 0
M  V30 26 N 2.9562 -1.48159 -0.537278 0
M  V30 27 C 3.9042 -1.62573 -1.66352 0
M  V30 28 C 4.8982 -0.492366 -1.62087 0
M  V30 29 O 6.1042 -0.670847 -1.67032 0
M  V30 30 H 2.4792 -0.511992 -0.550789 0
M  V30 31 H 4.4502 -2.57176 -1.51337 0
M  V30 32 C 3.1992 -1.67583 -3.04649 0
M  V30 33 H 2.5222 -2.54151 -3.08622 0
M  V30 34 H 3.9622 -1.81713 -3.83088 0
M  V30 35 C 2.4212 -0.413039 -3.34358 0
M  V30 36 O 2.9512 0.477259 -3.98855 0
M  V30 37 N 1.1572 -0.286961 -2.8918 0
M  V30 38 H 0.7042 -1.01241 -2.36871 0
M  V30 39 H 0.6622 0.556963 -3.09427 0
M  V30 40 N 4.4343 0.785586 -1.36625 0
M  V30 41 C 5.3823 1.91978 -1.31329 0
M  V30 42 C 6.3763 1.68162 -0.204416 0
M  V30 43 O 7.5823 1.76122 -0.371645 0
M  V30 44 H 3.9573 0.631087 -0.408942 0
M  V30 45 H 5.9283 1.93562 -2.27104 0
M  V30 46 C 4.6773 3.29055 -1.12329 0
M  V30 47 H 4.0003 3.4795 -1.96903 0
M  V30 48 H 5.4403 4.08756 -1.12671 0
M  V30 49 C 3.8993 3.36461 0.171861 0
M  V30 50 O 4.4293 3.84576 1.16035 0
M  V30 51 N 2.6353 2.89782 0.217846 0
M  V30 52 H 2.1823 2.50819 -0.587183 0
M  V30 53 H 2.1403 2.95119 1.08408 0
M  V30 54 N 5.9124 1.20967 1.01018 0
M  V30 55 C 7.1584 1.02526 1.74975 0
M  V30 56 C 7.4914 -0.4408 1.89131 0
M  V30 57 O 6.7664 -1.32718 1.42184 0
M  V30 58 C 7.0494 1.71699 3.1653 0
M  V30 59 C 6.9024 3.25791 3.10129 0
M  V30 60 C 8.2214 1.45531 4.15342 0
M  V30 61 H 5.3404 0.373863 0.635134 0
M  V30 62 H 7.9824 1.49071 1.17805 0
M  V30 63 H 6.1324 1.32128 3.65341 0
M  V30 64 H 7.8044 3.74697 2.69072 0
M  V30 65 H 6.0474 3.56363 2.47362 0
M  V30 66 H 6.7184 3.69353 4.10222 0
M  V30 67 H 9.1944 1.79872 3.75213 0
M  V30 68 H 8.0704 1.96453 5.1254 0
M  V30 69 H 8.3314 0.384237 4.40427 0
M  V30 70 N 7.3905 -1.2043 1.01659 0
M  V30 71 C 8.6365 -1.90079 0.706963 0
M  V30 72 C 8.9695 -1.78648 -0.761474 0
M  V30 73 O 8.2445 -1.17069 -1.55323 0
M  V30 74 C 8.5275 -3.41469 1.14327 0
M  V30 75 C 8.3805 -3.61833 2.67201 0
M  V30 76 C 9.6995 -4.34261 0.714529 0
M  V30 77 H 6.8185 -0.690254 0.2583 0
M  V30 78 H 9.4605 -1.41826 1.26433 0
M  V30 79 H 7.6105 -3.82696 0.669056 0
M  V30 80 H 9.2825 -3.2986 3.22475 0
M  V30 81 H 7.5255 -3.05304 3.08175 0
M  V30 82 H 8.1965 -4.67955 2.92783 0
M  V30 83 H 10.6725 -4.00682 1.12221 0
M  V30 84 H 9.5485 -5.38806 1.04784 0
M  V30 85 H 9.8095 -4.40431 -0.383799 0
M  V30 86 N 8.8686 -0.792821 -1.36206 0
M  V30 87 C 10.1146 -0.36733 -1.99446 0
M  V30 88 C 10.4476 1.05917 -1.62774 0
M  V30 89 O 9.7226 1.7324 -0.88421 0
M  V30 90 C 10.0056 -0.535044 -3.56103 0
M  V30 91 C 9.8586 -2.00548 -4.02617 0
M  V30 92 C 11.1776 0.0478191 -4.40074 0
M  V30 93 H 8.2966 -0.134941 -0.724541 0
M  V30 94 H 10.9386 -0.999794 -1.61568 0
M  V30 95 H 9.0886 0.00336329 -3.885 0
M  V30 96 H 10.7606 -2.60521 -3.80692 0
M  V30 97 H 9.0036 -2.50686 -3.54032 0
M  V30 98 H 9.6746 -2.07377 -5.11565 0
M  V30 99 H 12.1506 -0.411822 -4.14057 0
M  V30 100 H 11.0266 -0.0995336 -5.4881 0
M  V30 101 H 11.2876 1.14025 -4.27142 0
M  V30 102 N 10.3467 1.47872 -0.545128 0
M  V30 103 C 11.2767 2.32661 0.197793 0
M  V30 104 C 12.2577 1.43041 0.920504 0
M  V30 105 O 13.4427 1.71912 0.90333 0
M  V30 106 C 10.5727 3.24569 1.23582 0
M  V30 107 C 9.5267 4.23333 0.630323 0
M  V30 108 C 8.8527 5.0448 1.77211 0
M  V30 109 C 10.1527 5.20704 -0.407974 0
M  V30 110 H 11.8467 2.95024 -0.510045 0
M  V30 111 H 9.3927 1.4187 -0.246731 0
M  V30 112 H 11.3457 3.8272 1.76362 0
M  V30 113 H 10.0697 2.60236 1.97344 0
M  V30 114 H 8.7287 3.6639 0.123922 0
M  V30 115 H 8.3767 4.36561 2.49847 0
M  V30 116 H 8.0767 5.71339 1.37281 0
M  V30 117 H 9.6007 5.65487 2.3034 0
M  V30 118 H 11.0147 5.7329 0.033305 0
M  V30 119 H 9.4117 5.95699 -0.725486 0
M  V30 120 H 10.4817 4.66917 -1.30828 0
M  V30 121 N 11.8248 0.280983 1.55075 0
M  V30 122 C 13.0728 -0.333455 1.9933 0
M  V30 123 C 13.3938 -1.55937 1.17085 0
M  V30 124 O 12.6638 -1.94143 0.261805 0
M  V30 125 H 11.2438 -0.126197 0.736263 0
M  V30 126 H 13.9058 0.387678 1.91005 0
M  V30 127 H 13.0018 -0.619292 3.05894 0
M  V30 128 N 13.3029 -1.57598 0.00835791 0
M  V30 129 C 14.5309 -1.95214 -0.68549 0
M  V30 130 C 14.9459 -0.883706 -1.66841 0
M  V30 131 O 14.3029 0.136565 -1.81988 0
M  V30 132 C 14.3539 -3.32865 -1.41007 0
M  V30 133 O 14.0749 -4.35609 -0.466552 0
M  V30 134 C 15.5759 -3.84991 -2.19765 0
M  V30 135 H 12.7959 -0.643422 -0.190392 0
M  V30 136 H 15.3399 -2.04406 0.0619607 0
M  V30 137 H 13.4949 -3.24956 -2.10908 0
M  V30 138 H 13.9089 -5.15288 -0.978699 0
M  V30 139 H 15.3829 -4.8371 -2.65948 0
M  V30 140 H 15.8599 -3.18137 -3.02796 0
M  V30 141 H 16.4659 -3.96103 -1.54864 0
M  V30 142 N 14.781 0.264519 -1.55364 0
M  V30 143 C 15.713 1.34965 -1.85248 0
M  V30 144 C 16.726 1.45136 -0.737525 0
M  V30 145 O 17.915 1.46801 -1.01547 0
M  V30 146 C 15.015 2.73008 -2.00797 0
M  V30 147 C 14.188 2.85324 -3.31525 0
M  V30 148 C 13.247 4.04097 -3.37034 0
M  V30 149 O 12.273 3.94455 -4.10358 0
M  V30 150 N 13.475 5.16458 -2.65049 0
M  V30 151 H 16.24 1.09672 -2.78913 0
M  V30 152 H 13.801 0.454635 -1.55386 0
M  V30 153 H 15.793 3.50772 -2.01844 0
M  V30 154 H 14.363 2.91087 -1.1396 0
M  V30 155 H 13.583 1.94377 -3.42945 0
M  V30 156 H 14.871 2.9049 -4.17724 0
M  V30 157 H 14.269 5.27181 -2.05175 0
M  V30 158 H 12.826 5.92422 -2.71809 0
M  V30 159 N 16.2591 1.48442 0.529413 0
M  V30 160 C 17.5051 1.57699 1.28463 0
M  V30 161 C 17.8601 0.247913 1.90796 0
M  V30 162 O 17.1531 -0.749279 1.76342 0
M  V30 163 C 17.3471 2.6523 2.39558 0
M  V30 164 C 17.1761 4.08464 1.88114 0
M  V30 165 C 15.9461 4.75596 1.70693 0
M  V30 166 C 18.1441 4.94613 1.40935 0
M  V30 167 N 16.1261 6.03245 1.13881 0
M  V30 168 C 17.4971 6.12511 0.960734 0
M  V30 169 C 19.5521 4.80833 1.29243 0
M  V30 170 C 18.2551 7.18149 0.406792 0
M  V30 171 C 20.2811 5.86593 0.752487 0
M  V30 172 C 19.6431 7.037 0.313946 0
M  V30 173 H 15.7421 0.631608 0.46108 0
M  V30 174 H 18.3261 1.85325 0.596886 0
M  V30 175 H 16.4971 2.39425 3.05827 0
M  V30 176 H 18.2291 2.64169 3.06589 0
M  V30 177 H 14.9841 4.31938 1.94232 0
M  V30 178 H 15.4081 6.71324 0.874831 0
M  V30 179 H 20.0501 3.90635 1.61754 0
M  V30 180 H 17.7681 8.0807 0.0693671 0
M  V30 181 H 21.3541 5.77985 0.665192 0
M  V30 182 H 20.2341 7.8414 -0.0973632 0
M  V30 183 N 17.7372 -0.778329 1.37039 0
M  V30 184 C 18.9852 -1.53361 1.31623 0
M  V30 185 C 19.3062 -1.94739 -0.100831 0
M  V30 186 O 18.5762 -1.65797 -1.04347 0
M  V30 187 H 17.1562 -0.568794 0.484234 0
M  V30 188 H 19.8182 -0.926742 1.71457 0
M  V30 189 H 18.9142 -2.43606 1.95096 0
M  V30 190 N 19.2153 -1.21501 -1.00376 0
M  V30 191 C 20.4923 -0.941745 -1.71437 0
M  V30 192 C 20.8723 0.546114 -2.03914 0
M  V30 193 O 20.2203 1.51128 -1.71384 0
M  V30 194 C 20.4303 -1.82812 -2.97289 0
M  V30 195 C 21.7783 -2.07771 -3.70292 0
M  V30 196 O 22.8023 -1.80171 -3.07273 0
M  V30 197 O 21.6613 -2.54456 -4.83647 0
M  V30 198 H 18.7553 -0.353243 -0.747762 0
M  V30 199 H 21.3013 -1.32436 -1.06108 0
M  V30 200 H 20.0733 -2.83501 -2.69709 0
M  V30 201 H 19.6963 -1.4464 -3.70358 0
M  V30 202 N 20.6934 1.19889 -1.02296 0
M  V30 203 C 21.6034 2.26571 -0.608508 0
M  V30 204 C 22.6194 1.70299 0.356964 0
M  V30 205 O 23.7954 2.00235 0.216326 0
M  V30 206 C 20.8604 3.46677 0.0402814 0
M  V30 207 C 19.9214 4.18153 -0.97194 0
M  V30 208 C 19.1544 5.32525 -0.354016 0
M  V30 209 O 19.3774 5.64112 0.844604 0
M  V30 210 O 18.3114 5.92242 -1.07391 0
M  V30 211 H 22.1374 2.64251 -1.49684 0
M  V30 212 H 19.7224 1.26629 -0.792809 0
M  V30 213 H 21.6044 4.19475 0.402324 0
M  V30 214 H 20.2794 3.10858 0.902707 0
M  V30 215 H 19.1864 3.47499 -1.38546 0
M  V30 216 H 20.5194 4.57927 -1.80454 0
M  V30 217 N 22.1715 0.800033 1.35784 0
M  V30 218 C 23.4195 0.376597 1.9856 0
M  V30 219 C 23.7405 -1.05812 1.63795 0
M  V30 220 O 23.0105 -1.73103 0.917171 0
M  V30 221 H 21.5905 0.136261 0.734467 0
M  V30 222 H 24.2525 1.02442 1.65806 0
M  V30 223 H 23.3485 0.477002 3.08433 0
M  V30 224 N 23.6496 -1.47581 0.552962 0
M  V30 225 C 24.5966 -2.29957 -0.197108 0
M  V30 226 C 25.5666 -1.38799 -0.912359 0
M  V30 227 O 26.7516 -1.67761 -0.908888 0
M  V30 228 C 23.8916 -3.22672 -1.22379 0
M  V30 229 C 23.0046 -4.28919 -0.515038 0
M  V30 230 C 22.1396 -5.0879 -1.52664 0
M  V30 231 C 21.1786 -6.06815 -0.802631 0
M  V30 232 N 20.3156 -6.7966 -1.76086 0
M  V30 233 H 25.1556 -2.93578 0.511486 0
M  V30 234 H 22.6926 -1.4471 0.264067 0
M  V30 235 H 24.6506 -3.74845 -1.83159 0
M  V30 236 H 23.2806 -2.60925 -1.90047 0
M  V30 237 H 22.3326 -3.79835 0.207192 0
M  V30 238 H 23.6446 -4.98773 0.0523425 0
M  V30 239 H 22.7986 -5.65091 -2.20809 0
M  V30 240 H 21.5376 -4.38828 -2.12794 0
M  V30 241 H 20.5426 -5.49695 -0.107238 0
M  V30 242 H 21.7676 -6.78784 -0.207135 0
M  V30 243 H 19.7136 -6.12432 -2.35081 0
M  V30 244 H 19.6306 -7.45669 -1.24552 0
M  V30 245 H 20.8986 -7.40538 -2.43359 0
M  V30 246 N 25.1277 -0.289203 -1.54924 0
M  V30 247 C 26.3757 0.322879 -1.99504 0
M  V30 248 C 26.6967 1.55313 -1.1791 0
M  V30 249 O 25.9667 1.94001 -0.272097 0
M  V30 250 H 24.5467 0.122291 -0.736922 0
M  V30 251 H 27.2087 -0.397802 -1.90797 0
M  V30 252 H 26.3047 0.603061 -3.06218 0
M  V30 253 N 26.6058 1.57591 -0.0167156 0
M  V30 254 C 27.5528 2.09462 0.969251 0
M  V30 255 C 28.5228 0.99381 1.33089 0
M  V30 256 O 29.7078 1.26726 1.42636 0
M  V30 257 C 26.8478 2.61622 2.25051 0
M  V30 258 C 25.9608 3.85666 1.94642 0
M  V30 259 C 25.0958 4.26266 3.16972 0
M  V30 260 C 24.1348 5.43101 2.82326 0
M  V30 261 N 23.2718 5.78915 3.97243 0
M  V30 262 H 28.1118 2.93428 0.519997 0
M  V30 263 H 25.6488 1.45044 0.245087 0
M  V30 264 H 27.6068 2.89949 2.99976 0
M  V30 265 H 26.2368 1.80505 2.67615 0
M  V30 266 H 25.2888 3.64145 1.10013 0
M  V30 267 H 26.6008 4.70678 1.65117 0
M  V30 268 H 25.7548 4.55963 4.00228 0
M  V30 269 H 24.4938 3.39996 3.49648 0
M  V30 270 H 23.4988 5.1311 1.97479 0
M  V30 271 H 24.7238 6.3106 2.50879 0
M  V30 272 H 22.6698 4.95602 4.29785 0
M  V30 273 H 22.5868 6.58539 3.71299 0
M  V30 274 H 23.8548 6.13212 4.81239 0
M  V30 275 N 28.0839 -0.256276 1.55502 0
M  V30 276 C 29.3329 -0.983486 1.76098 0
M  V30 277 C 29.6459 -1.86837 0.578896 0
M  V30 278 O 30.8519 -2.63163 0.667648 0
M  V30 279 C 29.3079 -1.79868 3.1173 0
M  V30 280 C 28.9159 -0.961648 4.37557 0
M  V30 281 C 30.6599 -2.51919 3.41668 0
M  V30 282 C 28.5669 -1.77219 5.64223 0
M  V30 283 H 27.4969 -0.370936 0.656447 0
M  V30 284 H 30.1479 -0.238492 1.81944 0
M  V30 285 H 28.5299 -2.58527 2.99966 0
M  V30 286 H 29.7039 -0.218048 4.60284 0
M  V30 287 H 28.0189 -0.354913 4.14885 0
M  V30 288 H 30.6159 -3.12998 4.33516 0
M  V30 289 H 30.9589 -3.23059 2.62562 0
M  V30 290 H 31.4919 -1.80278 3.54605 0
M  V30 291 H 28.2309 -1.10471 6.46124 0
M  V30 292 H 27.7509 -2.49132 5.45613 0
M  V30 293 H 29.4299 -2.34169 6.03137 0
M  V30 294 N 29.562 -1.4872 -0.521534 0
M  V30 295 C 30.808 -1.574 -1.27879 0
M  V30 296 C 31.141 -0.250817 -1.92573 0
M  V30 297 O 30.416 0.743934 -1.79711 0
M  V30 298 C 30.699 -2.71843 -2.36164 0
M  V30 299 C 30.552 -4.13893 -1.76105 0
M  V30 300 C 31.871 -2.82008 -3.37875 0
M  V30 301 H 28.99 -0.572941 -0.463581 0
M  V30 302 H 31.632 -1.80927 -0.580119 0
M  V30 303 H 29.782 -2.51914 -2.95756 0
M  V30 304 H 31.454 -4.45284 -1.20499 0
M  V30 305 H 29.697 -4.20498 -1.06601 0
M  V30 306 H 30.368 -4.89804 -2.5455 0
M  V30 307 H 32.844 -3.00086 -2.88249 0
M  V30 308 H 31.72 -3.63796 -4.11028 0
M  V30 309 H 31.981 -1.90511 -3.98946 0
M  V30 310 N 31.0401 0.771051 -1.3745 0
M  V30 311 C 32.3171 1.519 -1.23231 0
M  V30 312 C 32.6971 2.10383 0.173809 0
M  V30 313 O 32.0451 1.95583 1.18151 0
M  V30 314 C 32.2551 2.59933 -2.32886 0
M  V30 315 C 33.6031 3.27316 -2.70461 0
M  V30 316 O 34.6271 2.70228 -2.32068 0
M  V30 317 O 33.4861 4.30531 -3.36608 0
M  V30 318 H 30.5801 0.672803 -0.480901 0
M  V30 319 H 33.1261 0.807957 -1.49232 0
M  V30 320 H 31.8981 2.14842 -3.27045 0
M  V30 321 H 31.5211 3.38637 -2.08353 0
M  V30 322 N 32.5182 1.22032 0.997298 0
M  V30 323 C 33.4482 1.01065 2.10495 0
M  V30 324 C 34.4292 -0.0669542 1.69968 0
M  V30 325 O 35.6142 0.0943987 1.9397 0
M  V30 326 C 32.7442 0.582874 3.42374 0
M  V30 327 C 31.6982 1.60592 3.96729 0
M  V30 328 C 31.0242 1.03412 5.24605 0
M  V30 329 C 32.3242 2.99478 4.27914 0
M  V30 330 H 34.0182 1.93708 2.28292 0
M  V30 331 H 31.5642 0.932761 1.09707 0
M  V30 332 H 33.5172 0.423332 4.19268 0
M  V30 333 H 32.2412 -0.379213 3.24391 0
M  V30 334 H 30.9002 1.75316 3.21963 0
M  V30 335 H 30.5482 0.063518 5.0296 0
M  V30 336 H 30.2482 1.71754 5.61938 0
M  V30 337 H 31.7722 0.886066 6.04137 0
M  V30 338 H 33.1862 2.88153 4.95622 0
M  V30 339 H 31.5832 3.64903 4.76409 0
M  V30 340 H 32.6532 3.49742 3.3587 0
M  V30 341 N 33.9963 -1.19345 1.0293 0
M  V30 342 C 34.9263 -2.2481 0.631105 0
M  V30 343 C 35.9073 -1.66245 -0.360104 0
M  V30 344 O 37.0923 -1.92677 -0.242726 0
M  V30 345 C 34.2223 -3.47295 -0.0184607 0
M  V30 346 C 33.1763 -4.18536 0.895073 0
M  V30 347 C 32.5023 -5.34586 0.110592 0
M  V30 348 C 33.8023 -4.73287 2.209 0
M  V30 349 H 35.4963 -2.58372 1.51275 0
M  V30 350 H 33.0423 -1.24194 0.728818 0
M  V30 351 H 34.9953 -4.20268 -0.308675 0
M  V30 352 H 33.7193 -3.12933 -0.934907 0
M  V30 353 H 32.3783 -3.47446 1.16949 0
M  V30 354 H 32.0263 -4.96469 -0.807902 0
M  V30 355 H 31.7263 -5.83183 0.719087 0
M  V30 356 H 33.2503 -6.10355 -0.172871 0
M  V30 357 H 34.6643 -5.38013 1.98028 0
M  V30 358 H 33.0613 -5.32373 2.76946 0
M  V30 359 H 34.1313 -3.91331 2.86336 0
M  V30 360 N 35.4744 -0.807222 -1.35358 0
M  V30 361 C 36.7024 -0.400377 -2.02989 0
M  V30 362 C 37.1174 0.988859 -1.60832 0
M  V30 363 O 36.4744 1.63729 -0.806175 0
M  V30 364 C 36.5254 -0.474867 -3.58368 0
M  V30 365 O 36.2464 -1.80933 -3.98992 0
M  V30 366 C 37.7474 -0.0609112 -4.43258 0
M  V30 367 H 34.9674 -0.162587 -0.651004 0
M  V30 368 H 37.5114 -1.09102 -1.72965 0
M  V30 369 H 35.6664 0.167534 -3.87038 0
M  V30 370 H 36.0804 -1.77256 -4.9364 0
M  V30 371 H 37.5544 -0.164145 -5.51756 0
M  V30 372 H 38.0314 0.993831 -4.27808 0
M  V30 373 H 38.6374 -0.676492 -4.19885 0
M  V30 374 N 36.9525 1.47285 -0.560781 0
M  V30 375 C 37.8625 2.33846 0.187954 0
M  V30 376 C 38.8785 1.48412 0.908293 0
M  V30 377 O 40.0545 1.81332 0.876388 0
M  V30 378 C 37.1195 3.25178 1.2025 0
M  V30 379 C 36.1805 4.26504 0.489208 0
M  V30 380 C 35.4135 5.13472 1.45542 0
M  V30 381 O 35.6365 5.02959 2.6905 0
M  V30 382 O 34.5705 5.93902 0.977963 0
M  V30 383 H 38.3965 2.99177 -0.522177 0
M  V30 384 H 35.9815 1.45903 -0.321364 0
M  V30 385 H 37.8635 3.81584 1.78805 0
M  V30 386 H 36.5385 2.6247 1.89449 0
M  V30 387 H 35.4455 3.73847 -0.137627 0
M  V30 388 H 36.7785 4.91935 -0.161399 0
M  V30 389 N 38.4306 0.297415 1.54768 0
M  V30 390 C 39.8466 -0.0560823 1.59501 0
M  V30 391 C 40.0466 -1.52725 1.31444 0
M  V30 392 O 39.1026 -2.27947 1.08611 0
M  V30 393 C 40.4156 0.338631 2.98787 0
M  V30 394 C 41.9636 0.287097 3.11681 0
M  V30 395 C 42.4386 0.656579 4.53269 0
M  V30 396 N 43.9296 0.608977 4.59179 0
M  V30 397 C 44.6646 0.867385 5.66802 0
M  V30 398 N 44.1606 1.19157 6.82476 0
M  V30 399 N 45.9536 0.794687 5.56454 0
M  V30 400 H 38.1046 1.25624 1.71267 0
M  V30 401 H 40.3676 0.509057 0.799728 0
M  V30 402 H 40.0736 1.36263 3.2423 0
M  V30 403 H 39.9476 -0.309508 3.75928 0
M  V30 404 H 42.3346 -0.727649 2.85988 0
M  V30 405 H 42.4156 0.969809 2.36703 0
M  V30 406 H 42.0596 1.66912 4.7969 0
M  V30 407 H 41.9896 -0.0481649 5.26578 0
M  V30 408 H 44.4806 0.369198 3.76092 0
M  V30 409 H 44.7936 1.37482 7.60473 0
M  V30 410 H 43.1386 1.22958 6.84037 0
M  V30 411 H 46.3296 0.541098 4.64962 0
M  V30 412 H 46.5026 0.999445 6.40246 0
M  V30 413 N 39.9087 -1.5758 0.0250728 0
M  V30 414 C 40.8717 -2.08896 -0.943139 0
M  V30 415 C 41.8717 -1.00321 -1.25668 0
M  V30 416 O 43.0617 -1.26495 -1.19769 0
M  V30 417 C 40.1937 -2.55143 -2.26086 0
M  V30 418 H 41.3867 -2.95723 -0.498775 0
M  V30 419 H 38.9397 -1.54703 -0.222888 0
M  V30 420 H 39.6747 -1.71633 -2.75159 0
M  V30 421 H 39.4597 -3.34461 -2.04641 0
M  V30 422 H 40.9497 -2.95083 -2.95492 0
M  V30 423 N 41.3868 0.248026 -1.55636 0
M  V30 424 C 42.3338 1.30707 -1.90222 0
M  V30 425 C 43.3038 1.47881 -0.756332 0
M  V30 426 O 44.4888 1.61883 -1.00988 0
M  V30 427 C 41.6288 2.65769 -2.20138 0
M  V30 428 C 40.7418 2.56612 -3.47526 0
M  V30 429 C 39.8768 3.8402 -3.67017 0
M  V30 430 C 38.9158 3.69476 -4.8801 0
M  V30 431 N 38.0528 4.88774 -5.04029 0
M  V30 432 H 42.8928 1.00512 -2.80538 0
M  V30 433 H 40.4298 0.485055 -1.38873 0
M  V30 434 H 42.3878 3.44386 -2.35487 0
M  V30 435 H 41.0178 2.94115 -1.33027 0
M  V30 436 H 40.0698 1.69571 -3.40514 0
M  V30 437 H 41.3818 2.41774 -4.36287 0
M  V30 438 H 40.5358 4.7108 -3.8232 0
M  V30 439 H 39.2748 4.01754 -2.76487 0
M  V30 440 H 38.2798 2.80799 -4.72686 0
M  V30 441 H 39.5048 3.53238 -5.8 0
M  V30 442 H 37.4508 5.0687 -4.16435 0
M  V30 443 H 37.3678 4.76562 -5.86877 0
M  V30 444 H 38.6358 5.77335 -5.23741 0
M  V30 445 N 42.8649 1.48995 0.513639 0
M  V30 446 C 44.0949 1.61297 1.291 0
M  V30 447 C 44.5029 0.278656 1.87137 0
M  V30 448 O 43.8459 -0.744325 1.67945 0
M  V30 449 C 43.9079 2.61326 2.46879 0
M  V30 450 C 43.5719 4.05993 2.09807 0
M  V30 451 C 44.5689 4.93183 1.64519 0
M  V30 452 C 42.2539 4.51642 2.19829 0
M  V30 453 C 44.2479 6.24056 1.2974 0
M  V30 454 C 41.9349 5.82532 1.84662 0
M  V30 455 C 42.9329 6.68562 1.3969 0
M  V30 456 O 42.6209 7.97014 1.04992 0
M  V30 457 H 42.3529 0.546236 0.39825 0
M  V30 458 H 44.9069 1.95673 0.62459 0
M  V30 459 H 43.1369 2.22104 3.16554 0
M  V30 460 H 44.8259 2.6329 3.08923 0
M  V30 461 H 45.5919 4.59147 1.56233 0
M  V30 462 H 41.4709 3.84855 2.53786 0
M  V30 463 H 45.0149 6.91161 0.945659 0
M  V30 464 H 40.9119 6.16099 1.92594 0
M  V30 465 H 41.6799 8.09913 1.18249 0
M  V30 466 N 44.343 -0.763751 1.37857 0
M  V30 467 C 45.589 -1.52483 1.33704 0
M  V30 468 C 45.922 -1.94051 -0.0759612 0
M  V30 469 O 45.197 -1.64675 -1.03501 0
M  V30 470 C 45.48 -2.78441 2.28348 0
M  V30 471 C 45.333 -2.43075 3.78463 0
M  V30 472 C 46.652 -3.80415 2.21298 0
M  V30 473 H 43.771 -0.553169 0.487005 0
M  V30 474 H 46.413 -0.875562 1.68624 0
M  V30 475 H 44.563 -3.33842 1.987 0
M  V30 476 H 46.235 -1.93527 4.18742 0
M  V30 477 H 44.478 -1.75666 3.96641 0
M  V30 478 H 45.149 -3.33149 4.40132 0
M  V30 479 H 47.625 -3.34527 2.47449 0
M  V30 480 H 46.501 -4.66257 2.89647 0
M  V30 481 H 46.762 -4.25262 1.20849 0
M  V30 482 N 45.8211 -1.22559 -0.990812 0
M  V30 483 C 47.0671 -1.05297 -1.73322 0
M  V30 484 C 47.4001 0.410655 -1.89808 0
M  V30 485 O 46.6751 1.30439 -1.44277 0
M  V30 486 C 46.9581 -1.76713 -3.13759 0
M  V30 487 C 46.8111 -3.30684 -3.04907 0
M  V30 488 C 48.1301 -1.52121 -4.12974 0
M  V30 489 H 45.2491 -0.38392 -0.629106 0
M  V30 490 H 47.8911 -1.50926 -1.15418 0
M  V30 491 H 46.0411 -1.37924 -3.63193 0
M  V30 492 H 47.7131 -3.7893 -2.63077 0
M  V30 493 H 45.9561 -3.60253 -2.41661 0
M  V30 494 H 46.6271 -3.75833 -4.04294 0
M  V30 495 H 49.1031 -1.85819 -3.72304 0
M  V30 496 H 47.9791 -2.04582 -5.0935 0
M  V30 497 H 48.2401 -0.454257 -4.3976 0
M  V30 498 N 47.2992 1.18797 -1.03562 0
M  V30 499 C 48.7152 1.40671 -0.753917 0
M  V30 500 C 48.9152 1.9043 0.658686 0
M  V30 501 O 47.9712 2.08538 1.42366 0
M  V30 502 C 49.2842 2.41192 -1.79574 0
M  V30 503 C 50.8322 2.54928 -1.81606 0
M  V30 504 C 51.3072 3.58709 -2.84766 0
M  V30 505 N 52.7982 3.66212 -2.83625 0
M  V30 506 C 53.5332 4.46225 -3.60098 0
M  V30 507 N 53.0292 5.29888 -4.46308 0
M  V30 508 N 54.8222 4.40939 -3.4861 0
M  V30 509 H 46.9732 0.848221 -1.94728 0
M  V30 510 H 49.2362 0.435081 -0.842264 0
M  V30 511 H 48.9422 2.11669 -2.80872 0
M  V30 512 H 48.8162 3.40467 -1.62365 0
M  V30 513 H 51.2032 2.83771 -0.809817 0
M  V30 514 H 51.2842 1.55784 -2.02891 0
M  V30 515 H 50.9282 3.30607 -3.85566 0
M  V30 516 H 50.8582 4.57519 -2.60737 0
M  V30 517 H 53.3492 3.06466 -2.21105 0
M  V30 518 H 53.6622 5.88078 -5.01382 0
M  V30 519 H 52.0072 5.29326 -4.50377 0
M  V30 520 H 55.1982 3.74624 -2.80668 0
M  V30 521 H 55.3712 5.03056 -4.08459 0
M  V30 522 N 48.7773 0.814389 1.34928 0
M  V30 523 C 50.0073 0.41054 2.0248 0
M  V30 524 C 50.4153 -0.985625 1.61499 0
M  V30 525 O 49.7583 -1.64781 0.811976 0
M  V30 526 C 49.8203 0.423384 3.56998 0
M  V30 527 C 49.4843 1.77141 4.21272 0
M  V30 528 C 50.4813 2.73093 4.42398 0
M  V30 529 C 48.1663 2.05755 4.58225 0
M  V30 530 C 50.1603 3.95838 4.9959 0
M  V30 531 C 47.8473 3.28762 5.1513 0
M  V30 532 C 48.8453 4.23621 5.35755 0
M  V30 533 O 48.5333 5.44456 5.91458 0
M  V30 534 H 48.2653 0.163997 0.655806 0
M  V30 535 H 50.8193 1.10155 1.73364 0
M  V30 536 H 49.0493 -0.324276 3.85338 0
M  V30 537 H 50.7383 0.0407683 4.0588 0
M  V30 538 H 51.5043 2.5228 4.14222 0
M  V30 539 H 47.3833 1.32727 4.4148 0
M  V30 540 H 50.9273 4.69891 5.15605 0
M  V30 541 H 46.8243 3.49443 5.42734 0
M  V30 542 H 47.5923 5.4586 6.09901 0
M  V30 543 N 50.2554 -1.46986 0.568584 0
M  V30 544 C 51.1874 -2.28233 -0.210337 0
M  V30 545 C 52.2004 -1.37682 -0.868767 0
M  V30 546 O 53.3894 -1.62406 -0.740705 0
M  V30 547 C 50.4894 -3.12293 -1.3163 0
M  V30 548 C 49.6624 -4.30878 -0.7525 0
M  V30 549 C 48.7214 -4.96445 -1.74439 0
M  V30 550 O 47.7474 -5.54482 -1.286 0
M  V30 551 N 48.9494 -4.92171 -3.07812 0
M  V30 552 H 51.7144 -2.95723 0.486648 0
M  V30 553 H 49.2754 -1.56742 0.405409 0
M  V30 554 H 51.2674 -3.53022 -1.97883 0
M  V30 555 H 49.8374 -2.46971 -1.91636 0
M  V30 556 H 49.0574 -3.94104 0.0871128 0
M  V30 557 H 50.3454 -5.07558 -0.35536 0
M  V30 558 H 49.7434 -4.46239 -3.47688 0
M  V30 559 H 48.3004 -5.36884 -3.69592 0
M  V30 560 N 51.7335 -0.305618 -1.54608 0
M  V30 561 C 52.9815 0.301701 -1.99835 0
M  V30 562 C 53.3025 1.54054 -1.19551 0
M  V30 563 O 52.5725 1.93702 -0.292658 0
M  V30 564 H 51.1525 0.114468 -0.738178 0
M  V30 565 H 53.8145 -0.418016 -1.90364 0
M  V30 566 H 52.9105 0.570548 -3.06841 0
M  V30 567 N 53.2116 1.57565 -0.0334293 0
M  V30 568 C 54.4596 1.91598 0.642999 0
M  V30 569 C 54.7806 0.910847 1.7242 0
M  V30 570 O 54.0506 -0.0469931 1.95844 0
M  V30 571 H 52.6306 0.707228 0.240496 0
M  V30 572 H 55.2926 1.94726 -0.0822488 0
M  V30 573 H 54.3886 2.92336 1.09298 0
M  V30 574 N 54.6897 -0.239769 1.55765 0
M  V30 575 C 55.6397 -1.30002 1.87306 0
M  V30 576 C 56.6237 -1.43156 0.73452 0
M  V30 577 O 57.8157 -1.46277 0.99659 0
M  V30 578 C 54.9447 -2.65409 2.17745 0
M  V30 579 C 54.0307 -2.56231 3.37945 0
M  V30 580 N 54.4217 -2.16689 4.57033 0
M  V30 581 C 52.7197 -2.87229 3.41197 0
M  V30 582 C 53.4207 -2.18318 5.39177 0
M  V30 583 N 52.3967 -2.58098 4.78421 0
M  V30 584 H 56.1987 -0.984912 2.76906 0
M  V30 585 H 53.7127 -0.448381 1.56087 0
M  V30 586 H 55.7097 -3.41934 2.38509 0
M  V30 587 H 54.3697 -2.97781 1.29448 0
M  V30 588 H 55.3807 -1.88116 4.82528 0
M  V30 589 H 52.0577 -3.24094 2.63191 0
M  V30 590 H 53.4477 -1.90025 6.44469 0
M  V30 591 N 56.1678 -1.49265 -0.50573 0
M  V30 592 C 57.1158 -1.66065 -1.62866 0
M  V30 593 C 58.1098 -0.526636 -1.61006 0
M  V30 594 O 59.3158 -0.706126 -1.65571 0
M  V30 595 H 55.6908 -0.52356 -0.539805 0
M  V30 596 H 57.6618 -2.60329 -1.45848 0
M  V30 597 C 56.4108 -1.74008 -3.01026 0
M  V30 598 H 55.7338 -2.6064 -3.03161 0
M  V30 599 H 57.1738 -1.89798 -3.79147 0
M  V30 600 C 55.6328 -0.483868 -3.33407 0
M  V30 601 O 56.1628 0.392548 -3.99777 0
M  V30 602 N 54.3688 -0.348236 -2.88506 0
M  V30 603 H 53.9158 -1.06242 -2.34671 0
M  V30 604 H 53.8738 0.491204 -3.10539 0
M  V30 605 N 57.6459 0.756429 -1.3826 0
M  V30 606 C 58.6089 1.85176 -1.35065 0
M  V30 607 C 59.6089 1.58818 -0.251703 0
M  V30 608 O 60.7989 1.66615 -0.508433 0
M  V30 609 C 57.9309 3.22596 -1.10201 0
M  V30 610 H 59.1239 1.89417 -2.3251 0
M  V30 611 H 56.6769 0.95783 -1.23512 0
M  V30 612 H 57.4119 3.24025 -0.133504 0
M  V30 613 H 57.1969 3.43122 -1.89762 0
M  V30 614 H 58.6869 4.02673 -1.10654 0
M  V30 615 N 59.124 1.23083 0.984299 0
M  V30 616 C 60.372 1.05848 1.72165 0
M  V30 617 C 60.693 -0.406049 1.90726 0
M  V30 618 O 59.963 -1.29139 1.47309 0
M  V30 619 H 58.543 0.388685 0.637913 0
M  V30 620 H 61.205 1.54736 1.18503 0
M  V30 621 H 60.301 1.54327 2.71274 0
M  V30 622 N 60.6021 -1.18246 1.0419 0
M  V30 623 C 61.5521 -2.19843 0.604392 0
M  V30 624 C 62.5361 -1.56962 -0.353814 0
M  V30 625 O 63.7281 -1.76156 -0.17267 0
M  V30 626 C 60.8571 -3.43287 -0.0298975 0
M  V30 627 C 59.9431 -4.13288 0.951531 0
M  V30 628 N 60.3341 -4.59271 2.11906 0
M  V30 629 C 58.6321 -4.39165 0.7778 0
M  V30 630 C 59.3331 -5.13173 2.73912 0
M  V30 631 N 58.3091 -5.04763 2.01779 0
M  V30 632 H 62.1111 -2.53089 1.4941 0
M  V30 633 H 59.6251 -1.34465 0.910658 0
M  V30 634 H 61.6221 -4.15334 -0.361037 0
M  V30 635 H 60.2821 -3.11537 -0.915127 0
M  V30 636 H 61.2931 -4.5368 2.49789 0
M  V30 637 H 57.9701 -4.17461 -0.0572331 0
M  V30 638 H 59.3601 -5.58947 3.72864 0
M  V30 639 N 62.0802 -0.821533 -1.34494 0
M  V30 640 C 63.3082 -0.421884 -2.02553 0
M  V30 641 C 63.7232 0.971745 -1.61872 0
M  V30 642 O 63.0802 1.62864 -0.823496 0
M  V30 643 C 63.1312 -0.51285 -3.57844 0
M  V30 644 O 62.8522 -1.85155 -3.97051 0
M  V30 645 C 64.3532 -0.107921 -4.43169 0
M  V30 646 H 61.5732 -0.169482 -0.649243 0
M  V30 647 H 64.1172 -1.1093 -1.71798 0
M  V30 648 H 62.2722 0.126474 -3.87193 0
M  V30 649 H 62.6862 -1.82482 -4.91732 0
M  V30 650 H 64.1602 -0.222657 -5.51551 0
M  V30 651 H 64.6372 0.948401 -4.28838 0
M  V30 652 H 65.2432 -0.720989 -4.19144 0
M  V30 653 N 63.5583 1.46682 -0.576371 0
M  V30 654 C 64.4883 2.33028 0.148397 0
M  V30 655 C 65.4693 1.44961 0.889956 0
M  V30 656 O 66.6543 1.73789 0.866662 0
M  V30 657 C 63.7843 3.27117 1.1667 0
M  V30 658 C 62.7383 4.24575 0.540386 0
M  V30 659 C 62.0643 5.08126 1.6647 0
M  V30 660 C 63.3643 5.19722 -0.518331 0
M  V30 661 H 65.0583 2.93875 -0.572509 0
M  V30 662 H 62.6043 1.41315 -0.276768 0
M  V30 663 H 64.5573 3.86374 1.68204 0
M  V30 664 H 63.2813 2.64364 1.9178 0
M  V30 665 H 61.9403 3.66571 0.0461769 0
M  V30 666 H 61.5883 4.41762 2.40531 0
M  V30 667 H 61.2883 5.74122 1.25131 0
M  V30 668 H 62.8123 5.70246 2.18293 0
M  V30 669 H 64.2263 5.73232 -0.0883058 0
M  V30 670 H 62.6233 5.94026 -0.851679 0
M  V30 671 H 63.6933 4.64037 -1.40703 0
M  V30 672 N 65.0364 0.313813 1.54444 0
M  V30 673 C 66.2824 -0.292108 2.00685 0
M  V30 674 C 66.6154 -1.52548 1.20177 0
M  V30 675 O 65.8904 -1.92452 0.281531 0
M  V30 676 C 66.1734 -0.635968 3.5444 0
M  V30 677 C 66.0264 0.607437 4.4568 0
M  V30 678 C 67.3454 -1.45747 4.15266 0
M  V30 679 H 64.4644 -0.104697 0.729526 0
M  V30 680 H 67.1064 0.428457 1.85106 0
M  V30 681 H 65.2564 -1.24986 3.67846 0
M  V30 682 H 66.9284 1.24581 4.44159 0
M  V30 683 H 65.1714 1.23822 4.15753 0
M  V30 684 H 65.8424 0.322515 5.51057 0
M  V30 685 H 68.3184 -0.938645 4.05375 0
M  V30 686 H 67.1944 -1.66683 5.2298 0
M  V30 687 H 67.4554 -2.45063 3.67963 0
M  V30 688 N 66.5145 -1.57545 0.0417849 0
M  V30 689 C 67.7635 -1.91494 -0.633492 0
M  V30 690 C 68.0765 -0.921084 -1.72556 0
M  V30 691 O 69.2825 -1.15228 -2.45835 0
M  V30 692 C 67.7385 -3.40072 -1.17808 0
M  V30 693 C 67.3465 -4.47843 -0.118633 0
M  V30 694 C 69.0905 -3.8307 -1.82915 0
M  V30 695 C 66.9975 -5.87529 -0.675578 0
M  V30 696 H 65.9275 -0.714653 -0.24039 0
M  V30 697 H 68.5785 -1.83175 0.109148 0
M  V30 698 H 66.9605 -3.43364 -1.97274 0
M  V30 699 H 68.1345 -4.56128 0.654494 0
M  V30 700 H 66.4495 -4.14128 0.434414 0
M  V30 701 H 69.0465 -4.84794 -2.25563 0
M  V30 702 H 69.3895 -3.1881 -2.67705 0
M  V30 703 H 69.9225 -3.82255 -1.10119 0
M  V30 704 H 66.6615 -6.55362 0.134475 0
M  V30 705 H 66.1815 -5.82824 -1.4169 0
M  V30 706 H 67.8605 -6.36491 -1.1614 0
M  V30 707 N 67.9926 0.231505 -1.5589 0
M  V30 708 C 68.9406 1.30649 -1.92441 0
M  V30 709 C 69.9346 1.49037 -0.805254 0
M  V30 710 O 71.1406 1.50329 -0.990007 0
M  V30 711 H 67.5156 0.437812 -0.611412 0
M  V30 712 H 69.4866 0.970973 -2.82161 0
M  V30 713 C 68.2356 2.65179 -2.24889 0
M  V30 714 H 67.5586 2.51835 -3.10514 0
M  V30 715 H 68.9986 3.39234 -2.54355 0
M  V30 716 C 67.4576 3.19439 -1.07054 0
M  V30 717 O 67.9876 4.00371 -0.326499 0
M  V30 718 N 66.1936 2.77675 -0.85703 0
M  V30 719 H 65.7406 2.11969 -1.46379 0
M  V30 720 H 65.6986 3.14321 -0.0703223 0
M  V30 721 N 69.4707 1.49531 0.497807 0
M  V30 722 C 70.7187 1.58865 1.24926 0
M  V30 723 C 71.0397 0.278721 1.92998 0
M  V30 724 O 70.3097 -0.702144 1.82885 0
M  V30 725 H 68.8897 0.585343 0.464094 0
M  V30 726 H 71.5517 1.86174 0.57666 0
M  V30 727 H 70.6477 2.38633 2.01149 0
M  V30 728 N 70.9488 -0.749086 1.3866 0
M  V30 729 C 71.8588 -1.89358 1.38494 0
M  V30 730 C 72.8748 -1.71708 0.281476 0
M  V30 731 O 74.0508 -1.94554 0.520643 0
M  V30 732 C 71.1158 -3.24782 1.21316 0
M  V30 733 C 70.1768 -3.54926 2.41508 0
M  V30 734 C 69.4098 -4.83888 2.2514 0
M  V30 735 O 69.6328 -5.56592 1.24746 0
M  V30 736 O 68.5668 -5.13612 3.13826 0
M  V30 737 H 72.3928 -1.92452 2.34938 0
M  V30 738 H 69.9778 -0.894981 1.19626 0
M  V30 739 H 71.8598 -4.05739 1.13814 0
M  V30 740 H 70.5348 -3.2249 0.279592 0
M  V30 741 H 69.4418 -2.74112 2.54585 0
M  V30 742 H 70.7748 -3.61983 3.3351 0
M  V30 743 N 72.4269 -1.23603 -0.977757 0
M  V30 744 C 73.3739 -1.01954 -2.07061 0
M  V30 745 C 74.3439 0.0638697 -1.65977 0
M  V30 746 O 75.5289 -0.0887624 -1.90593 0
M  V30 747 C 72.6689 -0.619658 -3.39491 0
M  V30 748 C 71.7819 -1.77547 -3.93829 0
M  V30 749 C 70.9169 -1.32212 -5.14484 0
M  V30 750 C 69.9559 -2.44852 -5.60994 0
M  V30 751 N 69.0929 -2.00456 -6.72876 0
M  V30 752 H 73.9329 -1.95495 -2.24913 0
M  V30 753 H 71.4699 -0.973861 -1.10247 0
M  V30 754 H 73.4279 -0.368898 -4.15566 0
M  V30 755 H 72.0579 0.278752 -3.21594 0
M  V30 756 H 71.1099 -2.14016 -3.14486 0
M  V30 757 H 72.4219 -2.62219 -4.24314 0
M  V30 758 H 71.5759 -1.02965 -5.97899 0
M  V30 759 H 70.3149 -0.445808 -4.85658 0
M  V30 760 H 69.3199 -2.74871 -4.76157 0
M  V30 761 H 70.5449 -3.33024 -5.91837 0
M  V30 762 H 68.4909 -1.15208 -6.45804 0
M  V30 763 H 68.4079 -2.78687 -7.02759 0
M  V30 764 H 69.6759 -1.7432 -7.59758 0
M  V30 765 N 73.905 1.17692 -1.04816 0
M  V30 766 C 75.133 1.91786 -0.776254 0
M  V30 767 C 75.548 1.76604 0.667577 0
M  V30 768 O 74.905 1.10067 1.45573 0
M  V30 769 C 74.956 3.42967 -1.14263 0
M  V30 770 O 74.677 3.57678 -2.52978 0
M  V30 771 C 76.178 4.34144 -0.896311 0
M  V30 772 H 73.398 0.608624 -0.282519 0
M  V30 773 H 75.942 1.49268 -1.39783 0
M  V30 774 H 74.097 3.83245 -0.565874 0
M  V30 775 H 74.511 4.51319 -2.67229 0
M  V30 776 H 75.985 5.38744 -1.20244 0
M  V30 777 H 76.462 4.38876 0.168636 0
M  V30 778 H 77.068 3.99574 -1.45672 0
M  V30 779 N 75.3831 0.828654 1.34056 0
M  V30 780 C 76.6291 0.42008 1.98402 0
M  V30 781 C 76.9621 -1.01564 1.65525 0
M  V30 782 O 76.2371 -1.70834 0.929831 0
M  V30 783 C 76.5201 0.62927 3.54559 0
M  V30 784 C 76.3731 2.11152 3.97159 0
M  V30 785 C 77.6921 0.0688756 4.40046 0
M  V30 786 H 74.8111 0.154104 0.720709 0
M  V30 787 H 77.4531 1.04228 1.5886 0
M  V30 788 H 75.6031 0.0996418 3.88372 0
M  V30 789 H 77.2751 2.70522 3.73651 0
M  V30 790 H 75.5181 2.59985 3.47261 0
M  V30 791 H 76.1891 2.20868 5.05887 0
M  V30 792 H 78.6651 0.521458 4.1282 0
M  V30 793 H 77.5411 0.245006 5.48353 0
M  V30 794 H 77.8021 -1.0266 4.30015 0
M  V30 795 N 76.8612 -1.46375 0.584142 0
M  V30 796 C 77.7912 -2.33103 -0.136037 0
M  V30 797 C 78.7722 -1.45431 -0.882255 0
M  V30 798 O 79.9572 -1.74246 -0.857434 0
M  V30 799 C 77.0872 -3.27731 -1.14933 0
M  V30 800 C 76.0412 -4.24855 -0.517862 0
M  V30 801 C 75.3672 -5.09001 -1.63773 0
M  V30 802 C 76.6672 -5.19439 0.545886 0
M  V30 803 H 78.3612 -2.93568 0.588086 0
M  V30 804 H 75.9072 -1.41166 0.284259 0
M  V30 805 H 77.8602 -3.87261 -1.66153 0
M  V30 806 H 76.5842 -2.65377 -1.90375 0
M  V30 807 H 75.2432 -3.6659 -0.0267361 0
M  V30 808 H 74.8912 -4.43031 -2.38185 0
M  V30 809 H 74.5912 -5.74777 -1.22085 0
M  V30 810 H 76.1152 -5.71396 -2.15266 0
M  V30 811 H 77.5292 -5.73177 0.118704 0
M  V30 812 H 75.9262 -5.93566 0.88317 0
M  V30 813 H 76.9962 -4.63285 1.43162 0
M  V30 814 N 78.3393 -0.321999 -1.54275 0
M  V30 815 C 79.2893 0.560185 -2.21011 0
M  V30 816 C 80.2733 1.08283 -1.19011 0
M  V30 817 O 81.4653 1.02011 -1.44647 0
M  V30 818 C 78.5943 1.72137 -2.97025 0
M  V30 819 C 77.6803 1.21369 -4.06363 0
M  V30 820 N 78.0713 0.425566 -5.04007 0
M  V30 821 C 76.3693 1.49255 -4.20284 0
M  V30 822 C 77.0703 0.152601 -5.815 0
M  V30 823 N 76.0463 0.738294 -5.38563 0
M  V30 824 H 79.8483 -0.049265 -2.93859 0
M  V30 825 H 77.3623 -0.127779 -1.61897 0
M  V30 826 H 79.3593 2.36512 -3.43319 0
M  V30 827 H 78.0193 2.33431 -2.25699 0
M  V30 828 H 79.0303 0.068551 -5.17855 0
M  V30 829 H 75.7073 2.11145 -3.60172 0
M  V30 830 H 77.0973 -0.481764 -6.70171 0
M  V30 831 N 79.8174 1.5752 -0.0501392 0
M  V30 832 C 80.7474 2.14502 0.922566 0
M  V30 833 C 81.7284 1.06642 1.3252 0
M  V30 834 O 82.9134 1.34577 1.4001 0
M  V30 835 C 80.0434 2.68916 2.19776 0
M  V30 836 C 78.9974 3.8175 1.93523 0
M  V30 837 C 78.3234 4.22677 3.27487 0
M  V30 838 C 79.6234 5.06932 1.25765 0
M  V30 839 H 81.3174 2.9603 0.447952 0
M  V30 840 H 78.8634 1.42401 0.214024 0
M  V30 841 H 80.8164 3.07419 2.88222 0
M  V30 842 H 79.5404 1.84578 2.69441 0
M  V30 843 H 78.1994 3.43718 1.27489 0
M  V30 844 H 77.8474 3.35291 3.74952 0
M  V30 845 H 77.5474 4.98725 3.1072 0
M  V30 846 H 79.0714 4.63779 3.97166 0
M  V30 847 H 80.4854 5.42888 1.84244 0
M  V30 848 H 78.8824 5.88116 1.19328 0
M  V30 849 H 79.9524 4.84337 0.233536 0
M  V30 850 N 81.2955 -0.223234 1.56011 0
M  V30 851 C 82.5445 -0.945912 1.78144 0
M  V30 852 C 82.8575 -1.85567 0.618396 0
M  V30 853 O 84.0635 -2.61688 0.723318 0
M  V30 854 C 82.5195 -1.73216 3.15475 0
M  V30 855 C 82.1275 -0.868619 4.39499 0
M  V30 856 C 83.8715 -2.44615 3.46935 0
M  V30 857 C 81.7785 -1.65212 5.67855 0
M  V30 858 H 80.7085 -0.356929 0.664167 0
M  V30 859 H 83.3595 -0.199845 1.82409 0
M  V30 860 H 81.7415 -2.52107 3.05382 0
M  V30 861 H 82.9155 -0.120366 4.60643 0
M  V30 862 H 81.2305 -0.26683 4.15544 0
M  V30 863 H 83.8275 -3.03732 4.40058 0
M  V30 864 H 84.1705 -3.17417 2.69355 0
M  V30 865 H 84.7035 -1.72715 3.58349 0
M  V30 866 H 81.4425 -0.967407 6.48322 0
M  V30 867 H 80.9625 -2.37503 5.50774 0
M  V30 868 H 82.6415 -2.21322 6.07968 0
M  V30 869 N 82.7736 -1.49793 -0.48987 0
M  V30 870 C 84.1846 -1.52914 -1.07118 0
M  V30 871 C 84.5356 -0.321738 -1.93544 0
M  V30 872 O 83.6606 0.567338 -2.08831 0
M  V30 873 C 84.2556 -2.771 -1.94938 0
M  V30 874 C 82.8146 -2.82963 -2.48212 0
M  V30 875 C 81.9616 -2.46972 -1.26096 0
M  V30 876 H 84.9126 -1.56329 -0.273289 0
M  V30 877 H 84.9336 -2.57892 -2.79771 0
M  V30 878 H 84.4456 -3.64959 -1.32009 0
M  V30 879 H 82.5466 -1.99411 -3.14748 0
M  V30 880 H 82.6596 -3.85406 -2.84603 0
M  V30 881 H 81.0236 -1.98994 -1.58976 0
M  V30 882 H 81.8066 -3.37118 -0.648581 0
M  V30 883 N 84.2517 0.741722 -1.39055 0
M  V30 884 C 85.4767 1.53607 -1.39354 0
M  V30 885 C 85.9017 1.88096 0.0116905 0
M  V30 886 O 85.2597 1.5143 0.996924 0
M  V30 887 C 85.3077 2.80441 -2.26682 0
M  V30 888 O 84.4117 3.76088 -1.69208 0
M  V30 889 H 83.7527 0.464142 -0.474835 0
M  V30 890 H 86.2827 0.915665 -1.82967 0
M  V30 891 H 86.2927 3.29246 -2.40959 0
M  V30 892 H 84.9677 2.5467 -3.2881 0
M  V30 893 H 83.5447 3.34833 -1.64138 0
M  V30 894 N 85.7298 1.2412 0.971189 0
M  V30 895 C 86.9778 1.07668 1.71032 0
M  V30 896 C 87.2988 -0.385797 1.91146 0
M  V30 897 O 86.5688 -1.27569 1.4867 0
M  V30 898 H 85.1488 0.395429 0.633755 0
M  V30 899 H 87.8108 1.55984 1.16855 0
M  V30 900 H 86.9068 1.57195 2.69622 0
M  V30 901 N 87.2079 -1.17134 1.05439 0
M  V30 902 C 88.4569 -1.86791 0.761049 0
M  V30 903 C 88.7699 -1.82072 -0.714795 0
M  V30 904 O 89.9759 -2.47223 -1.12218 0
M  V30 905 C 88.4319 -3.35166 1.31117 0
M  V30 906 C 88.0399 -3.48381 2.81664 0
M  V30 907 C 89.7839 -4.10134 1.09499 0
M  V30 908 C 87.6909 -4.90793 3.29964 0
M  V30 909 H 86.6209 -0.699681 0.281002 0
M  V30 910 H 89.2719 -1.3226 1.27199 0
M  V30 911 H 87.6539 -3.8925 0.72803 0
M  V30 912 H 88.8279 -3.04502 3.45855 0
M  V30 913 H 87.1429 -2.86836 3.01851 0
M  V30 914 H 89.7399 -5.152 1.43084 0
M  V30 915 H 90.0829 -4.16287 0.0328772 0
M  V30 916 H 90.6159 -3.62264 1.64346 0
M  V30 917 H 87.3549 -4.89816 4.35616 0
M  V30 918 H 86.8749 -5.35333 2.70516 0
M  V30 919 H 88.5539 -5.59573 3.24787 0
M  V30 920 N 88.686 -0.835752 -1.33615 0
M  V30 921 C 89.616 -0.281739 -2.31794 0
M  V30 922 C 90.597 0.608833 -1.58831 0
M  V30 923 O 91.782 0.533035 -1.86741 0
M  V30 924 C 88.912 0.546612 -3.42971 0
M  V30 925 C 87.866 -0.247904 -4.27281 0
M  V30 926 C 87.192 0.704001 -5.30045 0
M  V30 927 C 88.492 -1.46324 -5.01385 0
M  V30 928 H 90.186 -1.10206 -2.78379 0
M  V30 929 H 87.732 -0.531388 -1.33837 0
M  V30 930 H 89.685 0.944467 -4.1068 0
M  V30 931 H 88.409 1.40011 -2.95067 0
M  V30 932 H 87.068 -0.627281 -3.61194 0
M  V30 933 H 86.716 1.55381 -4.78399 0
M  V30 934 H 86.416 0.176524 -5.87335 0
M  V30 935 H 87.94 1.09944 -6.0062 0
M  V30 936 H 89.354 -1.13871 -5.61877 0
M  V30 937 H 87.751 -1.92728 -5.6831 0
M  V30 938 H 88.821 -2.23467 -4.30338 0
M  V30 939 N 90.1641 1.46063 -0.591896 0
M  V30 940 C 91.5801 1.57561 -0.254288 0
M  V30 941 C 91.7801 1.58565 1.24336 0
M  V30 942 O 90.8361 1.50753 2.02558 0
M  V30 943 C 92.1491 2.86549 -0.911611 0
M  V30 944 C 93.6971 3.00197 -0.886059 0
M  V30 945 C 94.1721 4.31933 -1.5231 0
M  V30 946 N 95.6631 4.38654 -1.48786 0
M  V30 947 C 96.3981 5.39222 -1.95006 0
M  V30 948 N 95.8941 6.46414 -2.49241 0
M  V30 949 N 97.6871 5.3048 -1.85868 0
M  V30 950 H 89.8381 1.43655 -1.56451 0
M  V30 951 H 92.1011 0.68583 -0.654478 0
M  V30 952 H 91.8071 2.91651 -1.96551 0
M  V30 953 H 91.6811 3.74794 -0.425368 0
M  V30 954 H 94.0681 2.9467 0.159246 0
M  V30 955 H 94.1491 2.13403 -1.41041 0
M  V30 956 H 93.7931 4.38217 -2.56765 0
M  V30 957 H 93.7231 5.17516 -0.973891 0
M  V30 958 H 96.2141 3.61793 -1.09151 0
M  V30 959 H 96.5271 7.19376 -2.82344 0
M  V30 960 H 94.8721 6.47208 -2.53272 0
M  V30 961 H 98.0631 4.45643 -1.43248 0
M  V30 962 H 98.2361 6.08711 -2.22204 0
M  V30 963 N 91.6422 0.330177 1.54103 0
M  V30 964 C 92.5522 -0.541534 2.28264 0
M  V30 965 C 93.5682 -1.12351 1.32866 0
M  V30 966 O 94.7442 -1.14206 1.65888 0
M  V30 967 C 91.8092 -1.68322 3.03098 0
M  V30 968 C 90.8702 -1.13238 4.14096 0
M  V30 969 C 90.1032 -2.21966 4.85352 0
M  V30 970 O 90.3262 -3.42437 4.56172 0
M  V30 971 O 89.2602 -1.87013 5.7211 0
M  V30 972 H 93.0862 0.060938 3.03639 0
M  V30 973 H 90.6712 0.09565 1.49093 0
M  V30 974 H 92.5532 -2.34777 3.49939 0
M  V30 975 H 91.2282 -2.27176 2.30593 0
M  V30 976 H 90.1352 -0.432736 3.71589 0
M  V30 977 H 91.4682 -0.588898 4.88664 0
M  V30 978 N 93.1203 -1.57491 0.0584922 0
M  V30 979 C 94.0683 -2.13148 -0.931168 0
M  V30 980 C 95.0623 -1.06507 -1.31729 0
M  V30 981 O 96.2683 -1.24906 -1.29609 0
M  V30 982 H 92.6433 -0.68137 -0.31818 0
M  V30 983 H 94.6143 -2.95187 -0.436707 0
M  V30 984 C 93.3633 -2.69732 -2.19408 0
M  V30 985 H 92.6863 -3.51454 -1.90578 0
M  V30 986 H 94.1263 -3.12287 -2.86798 0
M  V30 987 C 92.5853 -1.63855 -2.94369 0
M  V30 988 O 93.1153 -1.05565 -3.87581 0
M  V30 989 N 91.3213 -1.35202 -2.57233 0
M  V30 990 H 90.8683 -1.82791 -1.81508 0
M  V30 991 H 90.8263 -0.645922 -3.07693 0
M  V30 992 N 94.5984 0.214957 -1.56127 0
M  V30 993 C 95.8444 0.939762 -1.79712 0
M  V30 994 C 96.1774 1.83723 -0.629247 0
M  V30 995 O 95.4524 1.90925 0.371197 0
M  V30 996 C 95.7354 1.77306 -3.13424 0
M  V30 997 C 95.5884 0.90164 -4.40671 0
M  V30 998 C 96.9074 2.74956 -3.43638 0
M  V30 999 H 94.0264 0.340214 -0.653776 0
M  V30 1000 H 96.6684 0.20824 -1.88855 0
M  V30 1001 H 94.8184 2.39673 -3.0576 0
M  V30 1002 H 96.4904 0.294206 -4.60361 0
M  V30 1003 H 94.7334 0.207368 -4.33304 0
M  V30 1004 H 95.4044 1.51923 -5.30682 0
M  V30 1005 H 97.8804 2.22724 -3.51473 0
M  V30 1006 H 96.7564 3.30358 -4.38355 0
M  V30 1007 H 97.0174 3.53023 -2.66134 0
M  V30 1008 N 96.0765 1.50051 0.48192 0
M  V30 1009 C 97.3045 1.64237 1.25832 0
M  V30 1010 C 97.7195 0.321336 1.86045 0
M  V30 1011 O 97.0765 -0.695478 1.68729 0
M  V30 1012 C 97.1275 2.72548 2.37487 0
M  V30 1013 O 96.8485 3.99529 1.79745 0
M  V30 1014 C 98.3495 2.9761 3.28547 0
M  V30 1015 H 95.5695 0.55237 0.380957 0
M  V30 1016 H 98.1135 1.96207 0.576467 0
M  V30 1017 H 96.2685 2.43303 3.01467 0
M  V30 1018 H 96.6825 4.59342 2.5319 0
M  V30 1019 H 98.1565 3.77084 4.03127 0
M  V30 1020 H 98.6335 2.0826 3.86684 0
M  V30 1021 H 99.2395 3.28345 2.70314 0
M  V30 1022 N 97.5546 -0.734337 1.39446 0
M  V30 1023 C 98.7796 -1.52866 1.40167 0
M  V30 1024 C 99.2046 -1.881 -0.00171513 0
M  V30 1025 O 98.5626 -1.51957 -0.988879 0
M  V30 1026 C 98.6106 -2.79235 2.28167 0
M  V30 1027 O 97.7146 -3.75185 1.71201 0
M  V30 1028 H 97.0556 -0.461618 0.477289 0
M  V30 1029 H 99.5856 -0.905949 1.8345 0
M  V30 1030 H 99.5956 -3.27963 2.42702 0
M  V30 1031 H 98.2706 -2.52923 3.30156 0
M  V30 1032 H 96.8476 -3.33958 1.65912 0
M  V30 1033 N 99.0327 -1.24633 -0.964593 0
M  V30 1034 C 100.282 -1.08188 -1.7023 0
M  V30 1035 C 100.595 0.37873 -1.91898 0
M  V30 1036 O 101.801 0.663427 -2.6327 0
M  V30 1037 C 100.257 -1.88773 -3.06419 0
M  V30 1038 C 99.8647 -3.39263 -2.92582 0
M  V30 1039 C 101.609 -1.80867 -3.84041 0
M  V30 1040 C 99.5157 -4.1218 -4.24101 0
M  V30 1041 H 98.4457 -0.401245 -0.638372 0
M  V30 1042 H 101.097 -1.48742 -1.07462 0
M  V30 1043 H 99.4787 -1.41035 -3.70034 0
M  V30 1044 H 100.653 -3.94603 -2.37961 0
M  V30 1045 H 98.9677 -3.48154 -2.28424 0
M  V30 1046 H 101.565 -2.32646 -4.81435 0
M  V30 1047 H 101.908 -0.774543 -4.09031 0
M  V30 1048 H 102.441 -2.26301 -3.27159 0
M  V30 1049 H 99.1797 -5.15965 -4.04303 0
M  V30 1050 H 98.6997 -3.61626 -4.78526 0
M  V30 1051 H 100.379 -4.19349 -4.92702 0
M  V30 1052 N 100.511 1.16574 -1.06058 0
M  V30 1053 C 101.76 1.86385 -0.770944 0
M  V30 1054 C 102.073 1.82448 0.705129 0
M  V30 1055 O 103.279 2.47815 1.10905 0
M  V30 1056 C 101.735 3.34466 -1.32893 0
M  V30 1057 C 101.343 3.46883 -2.83507 0
M  V30 1058 C 103.087 4.09548 -1.11672 0
M  V30 1059 C 100.994 4.89036 -3.32562 0
M  V30 1060 H 99.9238 0.698181 -0.284709 0
M  V30 1061 H 102.575 1.31583 -1.27899 0
M  V30 1062 H 100.957 3.88859 -0.748662 0
M  V30 1063 H 102.131 3.02663 -3.47465 0
M  V30 1064 H 100.446 2.85232 -3.03368 0
M  V30 1065 H 103.043 5.14434 -1.45814 0
M  V30 1066 H 103.386 4.16264 -0.0549535 0
M  V30 1067 H 103.919 3.61387 -1.66265 0
M  V30 1068 H 100.658 4.87499 -4.38207 0
M  V30 1069 H 100.178 5.3389 -2.73351 0
M  V30 1070 H 101.857 5.57843 -3.2775 0
M  V30 1071 N 101.989 0.842826 1.3317 0
M  V30 1072 C 103.237 0.439577 1.97262 0
M  V30 1073 C 103.558 -1.00548 1.67078 0
M  V30 1074 O 102.828 -1.70098 0.971779 0
M  V30 1075 H 101.408 0.159558 0.72976 0
M  V30 1076 H 104.07 1.07665 1.62463 0
M  V30 1077 H 103.166 0.574886 3.0676 0
M  V30 1078 N 103.467 -1.45747 0.599634 0
M  V30 1079 C 104.415 -2.322 -0.136426 0
M  V30 1080 C 105.409 -1.45497 -0.867583 0
M  V30 1081 O 106.615 -1.62027 -0.78405 0
M  V30 1082 H 102.99 -0.749368 -0.0628588 0
M  V30 1083 H 104.961 -2.92072 0.611281 0
M  V30 1084 C 103.71 -3.28974 -1.12567 0
M  V30 1085 H 103.033 -3.9568 -0.572484 0
M  V30 1086 H 104.473 -3.92212 -1.61077 0
M  V30 1087 C 102.932 -2.55561 -2.19523 0
M  V30 1088 O 103.462 -2.33111 -3.27143 0
M  V30 1089 N 101.668 -2.15832 -1.94589 0
M  V30 1090 H 101.215 -2.3429 -1.07078 0
M  V30 1091 H 101.173 -1.67034 -2.66359 0
M  V30 1092 N 104.945 -0.338344 -1.53925 0
M  V30 1093 C 106.193 0.259245 -2.0043 0
M  V30 1094 C 106.514 1.51484 -1.22791 0
M  V30 1095 O 105.784 1.93037 -0.33368 0
M  V30 1096 H 104.364 0.0987845 -0.740439 0
M  V30 1097 H 107.026 -0.458302 -1.89435 0
M  V30 1098 H 106.122 0.505334 -3.07982 0
M  V30 1099 N 106.423 1.57458 -0.0668435 0
M  V30 1100 C 107.669 1.93587 0.6043 0
M  V30 1101 C 108.002 0.946722 1.69561 0
M  V30 1102 O 107.277 -0.0248516 1.94484 0
M  V30 1103 C 107.56 3.40014 1.18585 0
M  V30 1104 C 107.413 4.49685 0.101529 0
M  V30 1105 C 108.732 3.87154 2.09284 0
M  V30 1106 H 105.851 0.703958 0.218202 0
M  V30 1107 H 108.493 1.89542 -0.131804 0
M  V30 1108 H 106.643 3.43592 1.81319 0
M  V30 1109 H 108.315 4.5823 -0.531279 0
M  V30 1110 H 106.558 4.30059 -0.568487 0
M  V30 1111 H 107.229 5.49266 0.54874 0
M  V30 1112 H 109.705 3.85551 1.56491 0
M  V30 1113 H 108.581 4.90231 2.46911 0
M  V30 1114 H 108.842 3.2481 2.99918 0
M  V30 1115 N 107.901 -0.206675 1.56239 0
M  V30 1116 C 109.147 -0.930218 1.80208 0
M  V30 1117 C 109.48 -1.83387 0.638981 0
M  V30 1118 O 108.755 -1.91119 -0.361066 0
M  V30 1119 C 109.038 -1.75641 3.1436 0
M  V30 1120 C 108.891 -0.878257 4.41142 0
M  V30 1121 C 110.21 -2.73129 3.45092 0
M  V30 1122 H 107.329 -0.336742 0.655571 0
M  V30 1123 H 109.971 -0.198222 1.88963 0
M  V30 1124 H 108.121 -2.38048 3.07027 0
M  V30 1125 H 109.793 -0.269787 4.6051 0
M  V30 1126 H 108.036 -0.184385 4.33408 0
M  V30 1127 H 108.707 -1.49106 5.3148 0
M  V30 1128 H 111.183 -2.20856 3.52649 0
M  V30 1129 H 110.059 -3.28028 4.40101 0
M  V30 1130 H 110.32 -3.51606 2.68003 0
M  V30 1131 N 109.379 -1.50304 -0.473955 0
M  V30 1132 C 110.309 -1.71886 -1.58042 0
M  V30 1133 C 111.29 -0.567799 -1.60344 0
M  V30 1134 O 112.475 -0.806623 -1.76656 0
M  V30 1135 C 109.605 -1.81036 -2.96384 0
M  V30 1136 C 108.559 -2.962 -3.08949 0
M  V30 1137 C 107.885 -2.9049 -4.48909 0
M  V30 1138 C 109.185 -4.36752 -2.86434 0
M  V30 1139 H 110.879 -2.64527 -1.40234 0
M  V30 1140 H 108.425 -1.27295 -0.673201 0
M  V30 1141 H 110.378 -1.94719 -3.73714 0
M  V30 1142 H 109.102 -0.850147 -3.15341 0
M  V30 1143 H 107.761 -2.82164 -2.3405 0
M  V30 1144 H 107.409 -1.92321 -4.64781 0
M  V30 1145 H 107.109 -3.67802 -4.58253 0
M  V30 1146 H 108.633 -3.06218 -5.28264 0
M  V30 1147 H 110.047 -4.5133 -3.53517 0
M  V30 1148 H 108.444 -5.15493 -3.07225 0
M  V30 1149 H 109.514 -4.49321 -1.82316 0
M  V30 1150 N 110.857 0.726932 -1.39834 0
M  V30 1151 C 112.082 1.52121 -1.40976 0
M  V30 1152 C 112.507 1.88098 -0.00826029 0
M  V30 1153 O 111.865 1.52479 0.980807 0
M  V30 1154 C 111.913 2.78021 -2.29644 0
M  V30 1155 O 111.017 3.74272 -1.73188 0
M  V30 1156 H 110.358 0.45908 -0.479731 0
M  V30 1157 H 112.888 0.896207 -1.83927 0
M  V30 1158 H 112.898 3.26671 -2.44438 0
M  V30 1159 H 111.573 2.51169 -3.31492 0
M  V30 1160 H 110.15 3.33073 -1.6768 0
M  V30 1161 N 112.336 1.25143 0.95797 0
M  V30 1162 C 113.747 1.08851 1.51685 0
M  V30 1163 C 114.098 -0.33687 1.93286 0
M  V30 1164 O 113.223 -1.22644 1.7829 0
M  V30 1165 C 113.818 1.96978 2.75654 0
M  V30 1166 C 112.377 1.84881 3.27866 0
M  V30 1167 C 111.524 1.91329 2.0072 0
M  V30 1168 H 114.475 1.38478 0.77522 0
M  V30 1169 H 114.496 1.5078 3.4935 0
M  V30 1170 H 114.008 3.00712 2.45345 0
M  V30 1171 H 112.109 0.840182 3.63004 0
M  V30 1172 H 112.222 2.6951 3.96107 0
M  V30 1173 H 110.586 1.35174 2.15871 0
M  V30 1174 H 111.369 2.96661 1.72764 0
M  V30 1175 N 113.814 -1.1601 1.06675 0
M  V30 1176 C 114.777 -2.18724 0.685001 0
M  V30 1177 C 115.777 -1.58496 -0.271246 0
M  V30 1178 O 116.967 -1.74119 -0.0531156 0
M  V30 1179 C 114.099 -3.40899 0.00853648 0
M  V30 1180 H 115.292 -2.54011 1.59431 0
M  V30 1181 H 112.845 -1.30352 0.862441 0
M  V30 1182 H 113.58 -3.11173 -0.913337 0
M  V30 1183 H 113.365 -3.8587 0.696204 0
M  V30 1184 H 114.855 -4.16886 -0.24414 0
M  V30 1185 N 115.292 -0.849877 -1.32721 0
M  V30 1186 C 116.255 -0.296122 -2.27279 0
M  V30 1187 C 117.255 0.541458 -1.5141 0
M  V30 1188 O 118.445 0.353658 -1.70572 0
M  V30 1189 C 115.577 0.581579 -3.35902 0
M  V30 1190 H 116.77 -1.13064 -2.77771 0
M  V30 1191 H 114.323 -0.62383 -1.43311 0
M  V30 1192 H 115.058 1.43809 -2.9067 0
M  V30 1193 H 114.843 -0.0178814 -3.92096 0
M  V30 1194 H 116.333 0.961951 -4.0637 0
M  V30 1195 N 116.77 1.45427 -0.607355 0
M  V30 1196 C 117.7 2.3329 0.0989352 0
M  V30 1197 C 118.681 1.46816 0.859007 0
M  V30 1198 O 119.866 1.75588 0.829604 0
M  V30 1199 C 116.996 3.29518 1.09705 0
M  V30 1200 C 115.95 4.25626 0.450206 0
M  V30 1201 C 115.276 5.11542 1.55655 0
M  V30 1202 C 116.576 5.18505 -0.628455 0
M  V30 1203 H 118.27 2.92595 -0.634716 0
M  V30 1204 H 115.816 1.40696 -0.306681 0
M  V30 1205 H 117.769 3.89855 1.59971 0
M  V30 1206 H 116.493 2.68372 1.86129 0
M  V30 1207 H 115.152 3.66586 -0.0315886 0
M  V30 1208 H 114.8 4.46765 2.31107 0
M  V30 1209 H 114.5 5.76647 1.12925 0
M  V30 1210 H 116.024 5.74748 2.06148 0
M  V30 1211 H 117.438 5.72916 -0.209877 0
M  V30 1212 H 115.835 5.92085 -0.977489 0
M  V30 1213 H 116.905 4.60948 -1.50514 0
M  V30 1214 N 118.248 0.346503 1.53744 0
M  V30 1215 C 119.181 -0.552023 2.21423 0
M  V30 1216 C 120.159 -1.09798 1.19929 0
M  V30 1217 O 121.343 -1.1577 1.4876 0
M  V30 1218 C 118.47 -1.75972 2.89398 0
M  V30 1219 C 117.516 -1.34295 4.04805 0
M  V30 1220 S 118.349 -0.360263 5.34287 0
M  V30 1221 C 119.505 -1.57473 6.05767 0
M  V30 1222 H 119.738 0.0228119 2.97291 0
M  V30 1223 H 117.271 0.130579 1.53847 0
M  V30 1224 H 119.229 -2.45256 3.2918 0
M  V30 1225 H 117.89 -2.30578 2.1329 0
M  V30 1226 H 117.083 -2.24349 4.51313 0
M  V30 1227 H 116.685 -0.729555 3.66815 0
M  V30 1228 H 118.977 -2.50875 6.29339 0
M  V30 1229 H 119.92 -1.15138 6.98676 0
M  V30 1230 H 120.328 -1.77212 5.35963 0
M  V30 1231 N 119.726 -1.57421 0.075193 0
M  V30 1232 C 120.673 -2.12915 -0.890843 0
M  V30 1233 C 121.643 -1.04252 -1.29309 0
M  V30 1234 O 122.828 -1.31933 -1.37834 0
M  V30 1235 C 119.968 -2.69795 -2.15186 0
M  V30 1236 C 119.081 -3.92624 -1.80194 0
M  V30 1237 C 118.216 -4.37736 -3.00933 0
M  V30 1238 C 117.255 -5.53205 -2.61974 0
M  V30 1239 N 116.392 -5.9326 -3.75483 0
M  V30 1240 H 121.232 -2.95156 -0.410735 0
M  V30 1241 H 118.769 -1.45854 -0.191086 0
M  V30 1242 H 120.727 -3.00883 -2.89008 0
M  V30 1243 H 119.357 -1.90313 -2.60731 0
M  V30 1244 H 118.409 -3.67977 -0.964218 0
M  V30 1245 H 119.721 -4.76482 -1.47534 0
M  V30 1246 H 118.875 -4.70503 -3.8303 0
M  V30 1247 H 117.614 -3.52739 -3.36789 0
M  V30 1248 H 116.619 -5.20086 -1.783 0
M  V30 1249 H 117.844 -6.39936 -2.27284 0
M  V30 1250 H 115.79 -5.11212 -4.11094 0
M  V30 1251 H 115.707 -6.71865 -3.46602 0
M  V30 1252 H 116.975 -6.30651 -4.58148 0
M  V30 1253 N 121.204 0.198386 -1.56346 0
M  V30 1254 C 122.114 1.2664 -1.97483 0
M  V30 1255 C 123.13 1.49989 -0.882002 0
M  V30 1256 O 124.306 1.62668 -1.18748 0
M  V30 1257 C 121.371 2.59141 -2.30319 0
M  V30 1258 C 120.432 2.43892 -3.53292 0
M  V30 1259 C 119.665 3.70074 -3.84553 0
M  V30 1260 O 119.888 4.74101 -3.1715 0
M  V30 1261 O 118.822 3.658 -4.7799 0
M  V30 1262 H 122.648 0.947304 -2.88548 0
M  V30 1263 H 120.233 0.403123 -1.43859 0
M  V30 1264 H 122.115 3.37352 -2.5253 0
M  V30 1265 H 120.79 2.90684 -1.42423 0
M  V30 1266 H 119.697 1.63803 -3.36332 0
M  V30 1267 H 121.03 2.17282 -4.41644 0
M  V30 1268 N 122.682 1.50554 0.465978 0
M  V30 1269 C 123.615 1.64436 1.58227 0
M  V30 1270 C 124.593 0.492367 1.54966 0
M  V30 1271 O 125.777 0.712536 1.74514 0
M  V30 1272 C 122.904 1.63165 2.96808 0
M  V30 1273 C 121.95 2.83987 3.18204 0
M  V30 1274 S 122.783 4.45219 2.97557 0
M  V30 1275 C 123.939 4.46649 4.3847 0
M  V30 1276 H 124.172 2.58861 1.46213 0
M  V30 1277 H 121.705 1.3988 0.653678 0
M  V30 1278 H 123.663 1.63116 3.76701 0
M  V30 1279 H 122.324 0.69967 3.06208 0
M  V30 1280 H 121.517 2.79416 4.19455 0
M  V30 1281 H 121.119 2.81629 2.46092 0
M  V30 1282 H 123.411 4.20526 5.31191 0
M  V30 1283 H 124.354 5.48295 4.48082 0
M  V30 1284 H 124.762 3.76296 4.20787 0
M  V30 1285 N 124.16 -0.719506 1.40217 0
M  V30 1286 C 125.107 -1.83359 1.40172 0
M  V30 1287 C 126.077 -1.64065 0.259206 0
M  V30 1288 O 127.262 -1.85254 0.456677 0
M  V30 1289 C 124.402 -3.2103 1.26624 0
M  V30 1290 C 123.515 -3.51923 2.50548 0
M  V30 1291 C 122.65 -4.79079 2.29471 0
M  V30 1292 C 121.689 -5.02863 3.48992 0
M  V30 1293 N 120.826 -6.2123 3.27135 0
M  V30 1294 H 125.666 -1.82733 2.35399 0
M  V30 1295 H 123.203 -0.892688 1.16917 0
M  V30 1296 H 125.161 -4.00524 1.16776 0
M  V30 1297 H 123.791 -3.20895 0.350176 0
M  V30 1298 H 122.843 -2.67014 2.70939 0
M  V30 1299 H 124.155 -3.6541 3.39525 0
M  V30 1300 H 123.309 -5.66582 2.16955 0
M  V30 1301 H 122.048 -4.67794 1.37913 0
M  V30 1302 H 121.053 -4.13816 3.6199 0
M  V30 1303 H 122.278 -5.16023 4.41472 0
M  V30 1304 H 120.224 -6.11204 2.38256 0
M  V30 1305 H 120.141 -6.35375 4.09675 0
M  V30 1306 H 121.409 -7.11532 3.18344 0
M  V30 1307 N 125.638 -1.25649 -0.95132 0
M  V30 1308 C 126.548 -1.08073 -2.08224 0
M  V30 1309 C 127.564 -0.0169666 -1.73992 0
M  V30 1310 O 128.74 -0.218593 -2.0021 0
M  V30 1311 C 125.805 -0.704922 -3.39458 0
M  V30 1312 C 124.866 -1.84699 -3.87537 0
M  V30 1313 C 124.099 -1.48902 -5.12508 0
M  V30 1314 O 124.322 -0.386156 -5.69091 0
M  V30 1315 O 123.256 -2.32033 -5.55378 0
M  V30 1316 H 127.082 -2.02924 -2.25954 0
M  V30 1317 H 124.667 -1.04618 -1.06656 0
M  V30 1318 H 126.549 -0.507609 -4.18332 0
M  V30 1319 H 125.224 0.214291 -3.2299 0
M  V30 1320 H 124.131 -2.09919 -3.09653 0
M  V30 1321 H 125.464 -2.74557 -4.08509 0
M  V30 1322 N 127.117 1.15442 -1.07289 0
M  V30 1323 C 128.047 2.22312 -0.714107 0
M  V30 1324 C 129.028 1.67467 0.298155 0
M  V30 1325 O 130.213 1.93445 0.171048 0
M  V30 1326 C 127.343 3.47124 -0.110448 0
M  V30 1327 C 126.297 4.14926 -1.04979 0
M  V30 1328 C 125.623 5.33807 -0.308924 0
M  V30 1329 C 126.923 4.64762 -2.38314 0
M  V30 1330 H 128.617 2.5258 -1.6076 0
M  V30 1331 H 126.163 1.21404 -0.77441 0
M  V30 1332 H 128.116 4.21124 0.152482 0
M  V30 1333 H 126.84 3.16187 0.81812 0
M  V30 1334 H 125.499 3.42866 -1.29764 0
M  V30 1335 H 125.147 4.99126 0.623084 0
M  V30 1336 H 124.847 5.80113 -0.935036 0
M  V30 1337 H 126.371 6.10576 -0.0537771 0
M  V30 1338 H 127.785 5.30292 -2.1786 0
M  V30 1339 H 126.182 5.21728 -2.96514 0
M  V30 1340 H 127.252 3.80434 -3.00663 0
M  V30 1341 N 128.595 0.856903 1.32268 0
M  V30 1342 C 129.505 0.306131 2.32594 0
M  V30 1343 C 130.521 -0.577209 1.64147 0
M  V30 1344 O 131.697 -0.477043 1.95669 0
M  V30 1345 C 128.762 -0.494561 3.43154 0
M  V30 1346 C 127.823 0.415186 4.27288 0
M  V30 1347 C 127.056 -0.347387 5.32568 0
M  V30 1348 O 127.279 -1.57708 5.48165 0
M  V30 1349 O 126.213 0.287982 6.01211 0
M  V30 1350 H 130.039 1.13737 2.81598 0
M  V30 1351 H 127.624 0.619902 1.35932 0
M  V30 1352 H 129.506 -0.948944 4.10576 0
M  V30 1353 H 128.181 -1.30257 2.96336 0
M  V30 1354 H 127.088 0.917793 3.62667 0
M  V30 1355 H 128.421 1.18844 4.77637 0
M  V30 1356 N 130.073 -1.45103 0.615059 0
M  V30 1357 C 131.35 -1.95549 0.0448276 0
M  V30 1358 C 131.73 -1.55737 -1.4251 0
M  V30 1359 O 131.078 -0.823556 -2.13143 0
M  V30 1360 C 131.288 -3.48098 0.250785 0
M  V30 1361 C 132.636 -4.24384 0.135509 0
M  V30 1362 O 133.66 -3.55738 0.181299 0
M  V30 1363 O 132.519 -5.46493 0.0268878 0
M  V30 1364 H 129.613 -0.8264 -0.0314845 0
M  V30 1365 H 132.159 -1.55232 0.685642 0
M  V30 1366 H 130.931 -3.7007 1.27139 0
M  V30 1367 H 130.554 -3.95323 -0.424937 0
M  V30 1368 N 131.551 -0.354651 -1.53558 0
M  V30 1369 C 132.967 -0.00315426 -1.596 0
M  V30 1370 C 133.167 1.47741 -1.37021 0
M  V30 1371 O 132.223 2.23759 -1.16996 0
M  V30 1372 C 133.536 -0.44929 -2.97325 0
M  V30 1373 C 135.084 -0.402578 -3.104 0
M  V30 1374 C 135.559 -0.824355 -4.5052 0
M  V30 1375 N 137.05 -0.778979 -4.56603 0
M  V30 1376 C 137.785 -1.07715 -5.63192 0
M  V30 1377 N 137.281 -1.44405 -6.77583 0
M  V30 1378 N 139.074 -1.00066 -5.53121 0
M  V30 1379 H 131.225 -1.31893 -1.66487 0
M  V30 1380 H 133.488 -0.538388 -0.780284 0
M  V30 1381 H 133.194 -1.48202 -3.1895 0
M  V30 1382 H 133.068 0.169772 -3.76818 0
M  V30 1383 H 135.455 0.621004 -2.88492 0
M  V30 1384 H 135.536 -1.05699 -2.32941 0
M  V30 1385 H 135.18 -1.846 -4.73165 0
M  V30 1386 H 135.11 -0.147304 -5.26394 0
M  V30 1387 H 137.601 -0.508528 -3.74463 0
M  V30 1388 H 137.914 -1.65612 -7.54846 0
M  V30 1389 H 136.259 -1.4826 -6.79002 0
M  V30 1390 H 139.45 -0.713293 -4.62633 0
M  V30 1391 H 139.623 -1.23638 -6.36096 0
M  V30 1392 N 133.029 1.57378 -0.0835403 0
M  V30 1393 C 134.277 1.93547 0.581718 0
M  V30 1394 C 134.598 0.96524 1.69435 0
M  V30 1395 O 133.868 0.0153369 1.95894 0
M  V30 1396 H 132.448 0.714521 0.217874 0
M  V30 1397 H 135.11 1.94366 -0.144158 0
M  V30 1398 H 134.206 2.95665 0.999423 0
M  V30 1399 N 134.507 -0.190092 1.56449 0
M  V30 1400 C 135.756 -0.907912 1.80111 0
M  V30 1401 C 136.069 -1.84214 0.657619 0
M  V30 1402 O 137.275 -2.60094 0.778663 0
M  V30 1403 C 135.731 -1.66485 3.19078 0
M  V30 1404 C 135.339 -0.7752 4.41242 0
M  V30 1405 C 137.083 -2.37201 3.52045 0
M  V30 1406 C 134.99 -1.53129 5.71231 0
M  V30 1407 H 133.92 -0.34276 0.671589 0
M  V30 1408 H 136.571 -0.161109 1.82791 0
M  V30 1409 H 134.953 -2.45572 3.10661 0
M  V30 1410 H 136.127 -0.0226298 4.60794 0
M  V30 1411 H 134.442 -0.178627 4.16017 0
M  V30 1412 H 137.039 -2.94329 4.46402 0
M  V30 1413 H 137.382 -3.11632 2.76028 0
M  V30 1414 H 137.915 -1.65075 3.61932 0
M  V30 1415 H 134.654 -0.82967 6.50228 0
M  V30 1416 H 134.174 -2.25767 5.55688 0
M  V30 1417 H 135.853 -2.08377 6.12526 0
M  V30 1418 N 135.985 -1.50799 -0.457987 0
M  V30 1419 C 137.396 -1.55152 -1.0385 0
M  V30 1420 C 137.747 -0.362719 -1.92818 0
M  V30 1421 O 136.872 0.522915 -2.09987 0
M  V30 1422 C 137.467 -2.81173 -1.89017 0
M  V30 1423 C 136.026 -2.88164 -2.42154 0
M  V30 1424 C 135.173 -2.49591 -1.20829 0
M  V30 1425 H 138.124 -1.56874 -0.240068 0
M  V30 1426 H 138.145 -2.63769 -2.74238 0
M  V30 1427 H 137.657 -3.67677 -1.24238 0
M  V30 1428 H 135.758 -2.06042 -3.10447 0
M  V30 1429 H 135.871 -3.91356 -2.76364 0
M  V30 1430 H 134.235 -2.02322 -1.54719 0
M  V30 1431 H 135.018 -3.38418 -0.576927 0
M  V30 1432 N 137.463 0.71206 -1.40597 0
M  V30 1433 C 138.709 1.47416 -1.39271 0
M  V30 1434 C 139.042 1.942 0.00388791 0
M  V30 1435 O 138.317 1.68403 0.973179 0
M  V30 1436 C 138.6 2.69774 -2.38525 0
M  V30 1437 C 138.453 2.28861 -3.87224 0
M  V30 1438 C 139.772 3.71939 -2.35264 0
M  V30 1439 H 136.891 0.534713 -0.5072 0
M  V30 1440 H 139.533 0.812375 -1.71757 0
M  V30 1441 H 137.683 3.26238 -2.10953 0
M  V30 1442 H 139.355 1.77852 -4.25636 0
M  V30 1443 H 137.598 1.60824 -4.02887 0
M  V30 1444 H 138.269 3.16584 -4.52193 0
M  V30 1445 H 140.745 3.25113 -2.59694 0
M  V30 1446 H 139.621 4.55186 -3.06753 0
M  V30 1447 H 139.882 4.20484 -1.36549 0
M  V30 1448 N 138.941 1.26152 0.944643 0
M  V30 1449 C 140.357 1.03189 1.21754 0
M  V30 1450 C 140.557 -0.245112 2.00004 0
M  V30 1451 O 139.613 -0.955176 2.33736 0
M  V30 1452 C 140.926 2.26119 1.98219 0
M  V30 1453 C 142.474 2.30984 2.11224 0
M  V30 1454 C 142.949 3.53597 2.91089 0
M  V30 1455 N 144.44 3.54053 2.98664 0
M  V30 1456 C 145.175 4.45593 3.60881 0
M  V30 1457 N 144.671 5.47416 4.24626 0
M  V30 1458 N 146.464 4.33252 3.58119 0
M  V30 1459 H 138.615 2.08177 0.421437 0
M  V30 1460 H 140.878 0.914723 0.248969 0
M  V30 1461 H 140.584 3.18984 1.48128 0
M  V30 1462 H 140.458 2.3009 2.98895 0
M  V30 1463 H 142.845 1.38635 2.60508 0
M  V30 1464 H 142.926 2.31026 1.09821 0
M  V30 1465 H 142.57 4.46273 2.42493 0
M  V30 1466 H 142.5 3.50802 3.92741 0
M  V30 1467 H 144.991 2.80403 2.53343 0
M  V30 1468 H 145.304 6.13459 4.69987 0
M  V30 1469 H 143.649 5.51278 4.23223 0
M  V30 1470 H 146.84 3.52924 3.0751 0
M  V30 1471 H 147.013 5.04786 4.06319 0
M  V30 1472 N 140.419 -1.14872 1.07899 0
M  V30 1473 C 141.329 -2.2341 0.715915 0
M  V30 1474 C 142.345 -1.71808 -0.275306 0
M  V30 1475 O 143.521 -2.01039 -0.120545 0
M  V30 1476 C 140.586 -3.46474 0.125168 0
M  V30 1477 C 139.647 -4.13039 1.17034 0
M  V30 1478 C 138.88 -5.30229 0.607688 0
M  V30 1479 O 139.103 -5.675 -0.574497 0
M  V30 1480 O 138.037 -5.86444 1.35526 0
M  V30 1481 H 141.863 -2.56808 1.62121 0
M  V30 1482 H 139.448 -1.22702 0.852322 0
M  V30 1483 H 141.33 -4.20917 -0.201729 0
M  V30 1484 H 140.005 -3.14811 -0.753364 0
M  V30 1485 H 138.912 -3.40493 1.54968 0
M  V30 1486 H 140.245 -4.48796 2.02097 0
M  V30 1487 N 141.898 -0.863906 -1.31812 0
M  V30 1488 C 143.314 -0.555004 -1.49639 0
M  V30 1489 C 143.514 0.912266 -1.79666 0
M  V30 1490 O 142.57 1.69479 -1.87171 0
M  V30 1491 C 143.883 -1.44998 -2.63431 0
M  V30 1492 C 145.431 -1.45138 -2.77316 0
M  V30 1493 C 145.906 -2.33179 -3.94197 0
M  V30 1494 N 147.397 -2.31025 -4.01474 0
M  V30 1495 C 148.132 -2.95871 -4.9117 0
M  V30 1496 N 147.628 -3.69863 -5.8581 0
M  V30 1497 N 149.421 -2.85211 -4.84367 0
M  V30 1498 H 141.572 -1.81339 -1.10589 0
M  V30 1499 H 143.835 -0.77505 -0.545895 0
M  V30 1500 H 143.541 -2.49377 -2.48 0
M  V30 1501 H 143.415 -1.14409 -3.59431 0
M  V30 1502 H 145.802 -0.415201 -2.92164 0
M  V30 1503 H 145.883 -1.79747 -1.82001 0
M  V30 1504 H 145.527 -3.3687 -3.80107 0
M  V30 1505 H 145.457 -1.95897 -4.88807 0
M  V30 1506 H 147.948 -1.77238 -3.33759 0
M  V30 1507 H 148.261 -4.16486 -6.50968 0
M  V30 1508 H 146.606 -3.73971 -5.85808 0
M  V30 1509 H 149.797 -2.26948 -4.09405 0
M  V30 1510 H 149.97 -3.36027 -5.54066 0
M  V30 1511 N 143.376 1.44774 -0.622745 0
M  V30 1512 C 144.306 2.33382 0.0741861 0
M  V30 1513 C 145.287 1.47719 0.843387 0
M  V30 1514 O 146.472 1.76458 0.810934 0
M  V30 1515 C 143.602 3.30663 1.06204 0
M  V30 1516 C 142.556 4.26079 0.405037 0
M  V30 1517 C 141.882 5.13165 1.5022 0
M  V30 1518 C 143.182 5.1781 -0.683414 0
M  V30 1519 H 144.876 2.91905 -0.665713 0
M  V30 1520 H 142.422 1.40363 -0.321587 0
M  V30 1521 H 144.375 3.9153 1.55827 0
M  V30 1522 H 143.099 2.70331 1.83272 0
M  V30 1523 H 141.758 3.66532 -0.0704683 0
M  V30 1524 H 141.406 4.49191 2.26355 0
M  V30 1525 H 141.106 5.77812 1.06803 0
M  V30 1526 H 142.63 5.76902 2.00041 0
M  V30 1527 H 144.044 5.72661 -0.270631 0
M  V30 1528 H 142.441 5.91015 -1.04023 0
M  V30 1529 H 143.511 4.59326 -1.55395 0
M  V30 1530 N 144.854 0.36279 1.53368 0
M  V30 1531 C 145.784 -0.476976 2.28576 0
M  V30 1532 C 146.765 -1.08631 1.30894 0
M  V30 1533 O 147.95 -1.10409 1.59761 0
M  V30 1534 C 145.08 -1.61828 3.07293 0
M  V30 1535 C 144.034 -1.13633 4.1264 0
M  V30 1536 C 143.36 -2.36766 4.79423 0
M  V30 1537 C 144.66 -0.223061 5.21823 0
M  V30 1538 H 146.354 0.150474 2.99022 0
M  V30 1539 H 143.9 0.0738103 1.43811 0
M  V30 1540 H 145.853 -2.21237 3.58653 0
M  V30 1541 H 144.577 -2.27292 2.34533 0
M  V30 1542 H 143.236 -0.564945 3.62221 0
M  V30 1543 H 142.884 -3.0068 4.03238 0
M  V30 1544 H 142.584 -2.05192 5.50609 0
M  V30 1545 H 144.108 -2.96865 5.33576 0
M  V30 1546 H 145.522 -0.724545 5.68703 0
M  V30 1547 H 143.919 0.001678 6.001 0
M  V30 1548 H 144.989 0.735553 4.79289 0
M  V30 1549 N 146.332 -1.57332 0.0918853 0
M  V30 1550 C 147.262 -2.16872 -0.865371 0
M  V30 1551 C 148.243 -1.10118 -1.29646 0
M  V30 1552 O 149.428 -1.38242 -1.36392 0
M  V30 1553 C 146.558 -2.74649 -2.12569 0
M  V30 1554 C 145.512 -3.86747 -1.83333 0
M  V30 1555 C 144.838 -4.31212 -3.16166 0
M  V30 1556 C 146.138 -5.10089 -1.1228 0
M  V30 1557 H 147.832 -2.97114 -0.369307 0
M  V30 1558 H 145.378 -1.42918 -0.176194 0
M  V30 1559 H 147.331 -3.14952 -2.7997 0
M  V30 1560 H 146.055 -1.91657 -2.64452 0
M  V30 1561 H 144.714 -3.46978 -1.18331 0
M  V30 1562 H 144.362 -3.45115 -3.6593 0
M  V30 1563 H 144.062 -5.06788 -2.97388 0
M  V30 1564 H 145.586 -4.74146 -3.84731 0
M  V30 1565 H 147 -5.47582 -1.69785 0
M  V30 1566 H 145.397 -5.91073 -1.03693 0
M  V30 1567 H 146.467 -4.84786 -0.105041 0
M  V30 1568 N 147.81 0.181792 -1.56548 0
M  V30 1569 C 149.035 0.920019 -1.85877 0
M  V30 1570 C 149.46 1.75494 -0.677021 0
M  V30 1571 O 148.818 1.77399 0.374056 0
M  V30 1572 C 148.866 1.78112 -3.13542 0
M  V30 1573 O 147.97 2.88152 -2.95029 0
M  V30 1574 H 147.311 0.258334 -0.611686 0
M  V30 1575 H 149.841 0.183092 -2.03779 0
M  V30 1576 H 149.851 2.18314 -3.44678 0
M  V30 1577 H 148.526 1.16777 -3.99169 0
M  V30 1578 H 147.103 2.51609 -2.75222 0
M  V30 1579 N 149.288 1.51039 0.449983 0
M  V30 1580 C 150.198 1.74261 1.57067 0
M  V30 1581 C 151.214 0.626363 1.62335 0
M  V30 1582 O 152.39 0.907162 1.79812 0
M  V30 1583 C 149.455 1.85114 2.93144 0
M  V30 1584 C 148.516 3.0893 2.98095 0
M  V30 1585 C 147.749 3.19256 4.27681 0
M  V30 1586 O 147.972 2.35835 5.19363 0
M  V30 1587 O 146.906 4.12144 4.38658 0
M  V30 1588 H 150.732 2.69303 1.40391 0
M  V30 1589 H 148.317 1.35389 0.631688 0
M  V30 1590 H 150.199 1.94311 3.73926 0
M  V30 1591 H 148.874 0.932588 3.09975 0
M  V30 1592 H 147.781 3.0522 2.16314 0
M  V30 1593 H 149.114 4.00433 2.86206 0
M  V30 1594 N 150.766 -0.704594 1.40972 0
M  V30 1595 C 151.729 -1.80035 1.41845 0
M  V30 1596 C 152.729 -1.57774 0.310474 0
M  V30 1597 O 153.919 -1.64613 0.56992 0
M  V30 1598 C 151.051 -3.18284 1.22098 0
M  V30 1599 H 152.244 -1.80658 2.3938 0
M  V30 1600 H 149.797 -0.911329 1.26982 0
M  V30 1601 H 150.532 -3.23306 0.253672 0
M  V30 1602 H 150.317 -3.35843 2.02366 0
M  V30 1603 H 151.807 -3.98289 1.25522 0
M  V30 1604 N 152.244 -1.26651 -0.937939 0
M  V30 1605 C 153.484 -1.13611 -1.69917 0
M  V30 1606 C 153.848 0.314687 -1.89404 0
M  V30 1607 O 155.049 0.567285 -2.62746 0
M  V30 1608 C 153.32 -1.88742 -3.03498 0
M  V30 1609 S 154.879 -1.91794 -3.94665 0
M  V30 1610 H 151.697 -0.405767 -0.583844 0
M  V30 1611 H 154.299 -1.60416 -1.11745 0
M  V30 1612 H 153.003 -2.9336 -2.86999 0
M  V30 1613 H 152.534 -1.42391 -3.66727 0
M  V30 1614 H 154.549 -1.00698 -4.85875 0
M  V30 1615 N 153.722 1.14298 -1.08507 0
M  V30 1616 C 155.133 1.66926 -0.836227 0
M  V30 1617 C 155.484 1.85576 0.63686 0
M  V30 1618 O 154.609 1.56767 1.49175 0
M  V30 1619 C 155.204 3.03219 -1.51142 0
M  V30 1620 C 153.763 3.52876 -1.30979 0
M  V30 1621 C 152.91 2.2833 -1.57356 0
M  V30 1622 H 155.861 0.983491 -1.24552 0
M  V30 1623 H 155.882 3.68726 -0.939211 0
M  V30 1624 H 155.394 2.89612 -2.58353 0
M  V30 1625 H 153.495 3.71703 -0.258429 0
M  V30 1626 H 153.608 4.33586 -2.03814 0
M  V30 1627 H 151.972 2.34454 -0.995164 0
M  V30 1628 H 152.755 2.17298 -2.65775 0
M  V30 1629 N 155.201 0.870884 1.31352 0
M  V30 1630 C 156.131 0.343096 2.30966 0
M  V30 1631 C 157.112 -0.566507 1.60389 0
M  V30 1632 O 158.297 -0.483336 1.88089 0
M  V30 1633 C 155.427 -0.455487 3.443 0
M  V30 1634 C 154.381 0.361103 4.26474 0
M  V30 1635 C 153.707 -0.563221 5.31725 0
M  V30 1636 C 155.007 1.59566 4.97329 0
M  V30 1637 H 156.701 1.17548 2.75359 0
M  V30 1638 H 154.247 0.566686 1.32381 0
M  V30 1639 H 156.2 -0.83525 4.13039 0
M  V30 1640 H 154.924 -1.32139 2.98675 0
M  V30 1641 H 153.583 0.722825 3.59403 0
M  V30 1642 H 153.231 -1.42643 4.82351 0
M  V30 1643 H 152.931 -0.0207409 5.87596 0
M  V30 1644 H 154.455 -0.939808 6.03324 0
M  V30 1645 H 155.869 1.28728 5.58661 0
M  V30 1646 H 154.266 2.07728 5.63 0
M  V30 1647 H 155.336 2.34798 4.24262 0
M  V30 1648 N 156.679 -1.44442 0.630414 0
M  V30 1649 C 157.928 -2.01267 0.132073 0
M  V30 1650 C 158.241 -1.50172 -1.25331 0
M  V30 1651 O 159.447 -1.9912 -1.84562 0
M  V30 1652 C 157.903 -3.59422 0.185362 0
M  V30 1653 C 157.511 -4.19514 1.57201 0
M  V30 1654 C 159.255 -4.23724 -0.256553 0
M  V30 1655 C 157.162 -5.69891 1.58045 0
M  V30 1656 H 156.092 -0.752619 0.0456092 0
M  V30 1657 H 158.743 -1.65666 0.789106 0
M  V30 1658 H 157.125 -3.92318 -0.538759 0
M  V30 1659 H 158.299 -3.98156 2.31966 0
M  V30 1660 H 156.614 -3.67496 1.95795 0
M  V30 1661 H 159.211 -5.34019 -0.269767 0
M  V30 1662 H 159.554 -3.96013 -1.28372 0
M  V30 1663 H 160.087 -3.95629 0.41505 0
M  V30 1664 H 156.826 -6.02336 2.58597 0
M  V30 1665 H 156.346 -5.93373 0.875725 0
M  V30 1666 H 158.025 -6.33515 1.31408 0
M  V30 1667 N 158.157 -0.370918 -1.53173 0
M  V30 1668 C 159.087 0.464847 -2.28826 0
M  V30 1669 C 160.068 1.07936 -1.31468 0
M  V30 1670 O 161.253 1.0956 -1.60344 0
M  V30 1671 C 158.383 1.60196 -3.08147 0
M  V30 1672 C 157.337 1.11443 -4.13237 0
M  V30 1673 C 156.663 2.3422 -4.80672 0
M  V30 1674 C 157.963 0.195384 -5.21934 0
M  V30 1675 H 159.657 -0.166329 -2.98938 0
M  V30 1676 H 157.203 -0.0814359 -1.4377 0
M  V30 1677 H 159.156 2.19332 -3.59822 0
M  V30 1678 H 157.88 2.26045 -2.35735 0
M  V30 1679 H 156.539 0.545727 -3.62515 0
M  V30 1680 H 156.187 2.98537 -4.04827 0
M  V30 1681 H 155.887 2.02269 -5.51689 0
M  V30 1682 H 157.411 2.94032 -5.35143 0
M  V30 1683 H 158.825 0.694375 -5.69079 0
M  V30 1684 H 157.222 -0.0335027 -6.00091 0
M  V30 1685 H 158.292 -0.760961 -4.78892 0
M  V30 1686 N 159.635 1.57281 -0.100228 0
M  V30 1687 C 160.912 1.86014 0.604812 0
M  V30 1688 C 161.292 0.998025 1.86018 0
M  V30 1689 O 160.64 0.0718184 2.28387 0
M  V30 1690 C 160.85 3.36784 0.915278 0
M  V30 1691 C 162.198 4.04957 1.27651 0
M  V30 1692 O 163.222 3.41695 1.00613 0
M  V30 1693 O 162.081 5.16593 1.7831 0
M  V30 1694 H 159.175 0.76942 0.303185 0
M  V30 1695 H 161.721 1.69176 -0.133313 0
M  V30 1696 H 160.493 3.91292 0.0248896 0
M  V30 1697 H 160.116 3.58987 1.70921 0
M  V30 1698 N 161.113 -0.173488 1.56642 0
M  V30 1699 C 162.343 -0.904781 1.85734 0
M  V30 1700 C 162.751 -1.76431 0.68328 0
M  V30 1701 O 162.094 -1.802 -0.356865 0
M  V30 1702 C 162.156 -1.83382 3.09211 0
M  V30 1703 C 161.82 -1.15411 4.42187 0
M  V30 1704 C 162.817 -0.520609 5.17287 0
M  V30 1705 C 160.502 -1.15151 4.88923 0
M  V30 1706 C 162.496 0.106412 6.37311 0
M  V30 1707 C 160.183 -0.520664 6.08878 0
M  V30 1708 C 161.181 0.107196 6.82916 0
M  V30 1709 O 160.869 0.728102 8.00596 0
M  V30 1710 H 160.601 -0.268408 0.62043 0
M  V30 1711 H 163.155 -0.179096 2.04618 0
M  V30 1712 H 161.385 -2.59976 2.86268 0
M  V30 1713 H 163.074 -2.43476 3.24768 0
M  V30 1714 H 163.84 -0.514606 4.82262 0
M  V30 1715 H 159.719 -1.62961 4.31236 0
M  V30 1716 H 163.263 0.597081 6.9504 0
M  V30 1717 H 159.16 -0.524242 6.43368 0
M  V30 1718 H 159.928 0.627138 8.16094 0
M  V30 1719 N 162.591 -1.51276 -0.441967 0
M  V30 1720 C 163.541 -1.6864 -1.53442 0
M  V30 1721 C 164.525 -0.540444 -1.51552 0
M  V30 1722 O 165.717 -0.796157 -1.58083 0
M  V30 1723 C 162.846 -1.8106 -2.91672 0
M  V30 1724 C 161.932 -3.01424 -2.98336 0
M  V30 1725 N 162.323 -4.2467 -2.74752 0
M  V30 1726 C 160.621 -3.00584 -3.29493 0
M  V30 1727 C 161.322 -5.05891 -2.87139 0
M  V30 1728 N 160.298 -4.40442 -3.18609 0
M  V30 1729 H 164.1 -2.61598 -1.33954 0
M  V30 1730 H 161.614 -1.4886 -0.6492 0
M  V30 1731 H 163.611 -1.91609 -3.70259 0
M  V30 1732 H 162.271 -0.892795 -3.12185 0
M  V30 1733 H 163.282 -4.53691 -2.49769 0
M  V30 1734 H 159.959 -2.18417 -3.55809 0
M  V30 1735 H 161.349 -6.13983 -2.72899 0
M  V30 1736 N 164.069 0.697108 -1.41344 0
M  V30 1737 C 165.315 1.4593 -1.40827 0
M  V30 1738 C 165.648 1.94193 -0.0167098 0
M  V30 1739 O 164.923 1.69425 0.955263 0
M  V30 1740 C 165.206 2.67229 -2.41373 0
M  V30 1741 C 165.059 2.24741 -3.8963 0
M  V30 1742 C 166.378 3.69423 -2.39196 0
M  V30 1743 H 163.497 0.529303 -0.512842 0
M  V30 1744 H 166.139 0.794112 -1.72609 0
M  V30 1745 H 164.289 3.23982 -2.14401 0
M  V30 1746 H 165.961 1.73327 -4.27499 0
M  V30 1747 H 164.204 1.56542 -4.0457 0
M  V30 1748 H 164.875 3.1177 -4.55525 0
M  V30 1749 H 167.351 3.2234 -2.63128 0
M  V30 1750 H 166.227 4.51907 -3.11563 0
M  V30 1751 H 166.488 4.19012 -1.41001 0
M  V30 1752 N 165.547 1.27147 0.931209 0
M  V30 1753 C 166.51 1.09615 2.01289 0
M  V30 1754 C 167.51 0.0412581 1.60747 0
M  V30 1755 O 168.7 0.285545 1.71844 0
M  V30 1756 C 165.832 0.669447 3.34262 0
M  V30 1757 H 167.025 2.05662 2.18273 0
M  V30 1758 H 164.578 1.09885 1.11153 0
M  V30 1759 H 165.313 -0.292572 3.22978 0
M  V30 1760 H 165.098 1.43127 3.65044 0
M  V30 1761 H 166.588 0.568921 4.13706 0
M  V30 1762 N 167.025 -1.13721 1.09112 0
M  V30 1763 C 167.955 -2.21148 0.749385 0
M  V30 1764 C 168.936 -1.6792 -0.271475 0
M  V30 1765 O 170.121 -1.93693 -0.140251 0
M  V30 1766 C 167.251 -3.46905 0.165659 0
M  V30 1767 C 166.205 -4.13203 1.11567 0
M  V30 1768 C 165.531 -5.33248 0.393809 0
M  V30 1769 C 166.831 -4.60912 2.45678 0
M  V30 1770 H 168.525 -2.4999 1.64758 0
M  V30 1771 H 166.071 -1.20156 0.793626 0
M  V30 1772 H 168.024 -4.21313 -0.085466 0
M  V30 1773 H 166.748 -3.17449 -0.767714 0
M  V30 1774 H 165.407 -3.40758 1.35202 0
M  V30 1775 H 165.055 -5.00054 -0.543599 0
M  V30 1776 H 164.755 -5.78552 1.02721 0
M  V30 1777 H 166.279 -6.10413 0.150908 0
M  V30 1778 H 167.693 -5.26759 2.26269 0
M  V30 1779 H 166.09 -5.16944 3.04776 0
M  V30 1780 H 167.16 -3.75603 3.06677 0
M  V30 1781 N 168.503 -0.877838 -1.30888 0
M  V30 1782 C 169.78 -0.413052 -1.91189 0
M  V30 1783 C 170.16 1.1056 -1.79832 0
M  V30 1784 O 169.508 1.93771 -1.21099 0
M  V30 1785 C 169.718 -0.903191 -3.3711 0
M  V30 1786 C 171.066 -0.93395 -4.14201 0
M  V30 1787 O 172.09 -0.849373 -3.45925 0
M  V30 1788 O 170.949 -1.05772 -5.36167 0
M  V30 1789 H 168.043 -0.125035 -0.817493 0
M  V30 1790 H 170.589 -0.966269 -1.39504 0
M  V30 1791 H 169.361 -1.94692 -3.39427 0
M  V30 1792 H 168.984 -0.328732 -3.96239 0
M  V30 1793 N 169.982 1.44106 -0.638065 0
M  V30 1794 C 170.93 2.3248 0.0748149 0
M  V30 1795 C 171.924 1.47746 0.828702 0
M  V30 1796 O 173.13 1.64049 0.740816 0
M  V30 1797 H 169.505 0.750771 0.0429686 0
M  V30 1798 H 171.476 2.90348 -0.688504 0
M  V30 1799 C 170.225 3.31843 1.03805 0
M  V30 1800 H 169.548 3.97059 0.467375 0
M  V30 1801 H 170.988 3.96345 1.50622 0
M  V30 1802 C 169.447 2.61291 2.1267 0
M  V30 1803 O 169.977 2.41702 3.20847 0
M  V30 1804 N 168.183 2.20915 1.88798 0
M  V30 1805 H 167.73 2.37047 1.00829 0
M  V30 1806 H 167.688 1.74038 2.61836 0
M  V30 1807 N 171.46 0.379036 1.52974 0
M  V30 1808 C 172.423 -0.448865 2.24762 0
M  V30 1809 C 173.423 -0.998689 1.26027 0
M  V30 1810 O 174.613 -0.882313 1.50203 0
M  V30 1811 C 171.745 -1.62872 2.99476 0
M  V30 1812 H 172.938 0.179491 2.99362 0
M  V30 1813 H 170.491 0.13096 1.5575 0
M  V30 1814 H 171.226 -2.29479 2.29151 0
M  V30 1815 H 171.011 -1.24128 3.71934 0
M  V30 1816 H 172.501 -2.2151 3.5401 0
M  V30 1817 N 172.938 -1.57226 0.108567 0
M  V30 1818 C 174.354 -1.5766 -0.248058 0
M  V30 1819 C 174.554 -1.12063 -1.67464 0
M  V30 1820 O 173.61 -0.803236 -2.39383 0
M  V30 1821 C 174.923 -3.0069 -0.0242287 0
M  V30 1822 C 176.471 -3.12868 -0.0909372 0
M  V30 1823 C 176.946 -4.57879 0.105067 0
M  V30 1824 N 178.437 -4.63172 0.0506846 0
M  V30 1825 C 179.172 -5.73126 0.177396 0
M  V30 1826 N 178.668 -6.91866 0.359696 0
M  V30 1827 N 180.461 -5.61977 0.117709 0
M  V30 1828 H 172.612 -1.85169 1.04049 0
M  V30 1829 H 174.875 -0.85529 0.40888 0
M  V30 1830 H 174.581 -3.38299 0.961604 0
M  V30 1831 H 174.455 -3.6945 -0.76068 0
M  V30 1832 H 176.842 -2.75124 -1.06729 0
M  V30 1833 H 176.923 -2.46672 0.677225 0
M  V30 1834 H 176.567 -4.96321 1.07834 0
M  V30 1835 H 176.497 -5.22153 -0.682954 0
M  V30 1836 H 178.988 -3.778 -0.0871266 0
M  V30 1837 H 179.301 -7.71503 0.447529 0
M  V30 1838 H 177.646 -6.93874 0.395536 0
M  V30 1839 H 180.837 -4.68094 -0.0236741 0
M  V30 1840 H 181.01 -6.47627 0.219905 0
M  V30 1841 N 174.416 0.165178 -1.56732 0
M  V30 1842 C 175.326 1.22423 -2.00125 0
M  V30 1843 C 176.342 1.48084 -0.913619 0
M  V30 1844 O 177.518 1.60112 -1.22172 0
M  V30 1845 C 174.583 2.54197 -2.35764 0
M  V30 1846 C 173.644 2.36343 -3.58386 0
M  V30 1847 C 172.877 3.61834 -3.92316 0
M  V30 1848 O 173.1 4.67267 -3.27135 0
M  V30 1849 O 172.034 3.55579 -4.85641 0
M  V30 1850 H 175.86 0.885886 -2.90492 0
M  V30 1851 H 173.445 0.372518 -1.44681 0
M  V30 1852 H 175.327 3.3192 -2.59629 0
M  V30 1853 H 174.002 2.87598 -1.48557 0
M  V30 1854 H 172.909 1.56632 -3.39731 0
M  V30 1855 H 174.242 2.07865 -4.46154 0
M  V30 1856 N 175.894 1.51508 0.433938 0
M  V30 1857 C 176.841 1.73068 1.52696 0
M  V30 1858 C 177.811 0.572441 1.55924 0
M  V30 1859 O 178.996 0.807253 1.72882 0
M  V30 1860 C 176.136 1.86474 2.90381 0
M  V30 1861 C 175.249 3.14037 2.96656 0
M  V30 1862 C 174.384 3.18019 4.25485 0
M  V30 1863 C 173.423 4.39882 4.2564 0
M  V30 1864 N 172.56 4.41394 5.45999 0
M  V30 1865 H 177.4 2.66366 1.33615 0
M  V30 1866 H 174.937 1.32008 0.649018 0
M  V30 1867 H 176.895 1.92229 3.70275 0
M  V30 1868 H 175.525 0.965809 3.08013 0
M  V30 1869 H 174.577 3.17575 2.09404 0
M  V30 1870 H 175.889 4.0394 2.92633 0
M  V30 1871 H 175.043 3.22708 5.13755 0
M  V30 1872 H 173.782 2.2601 4.3217 0
M  V30 1873 H 172.787 4.35366 3.35763 0
M  V30 1874 H 174.012 5.33159 4.20617 0
M  V30 1875 H 171.958 3.52258 5.53399 0
M  V30 1876 H 171.875 5.25111 5.4387 0
M  V30 1877 H 173.143 4.50281 6.36292 0
M  V30 1878 N 177.372 -0.689602 1.41712 0
M  V30 1879 C 178.335 -1.78521 1.43746 0
M  V30 1880 C 179.335 -1.57436 0.327191 0
M  V30 1881 O 180.525 -1.64 0.587348 0
M  V30 1882 C 177.657 -3.16971 1.25467 0
M  V30 1883 H 178.85 -1.78108 2.41283 0
M  V30 1884 H 176.403 -0.89781 1.27942 0
M  V30 1885 H 177.138 -3.23019 0.287948 0
M  V30 1886 H 176.923 -3.33678 2.05917 0
M  V30 1887 H 178.413 -3.96935 1.2974 0
M  V30 1888 N 178.85 -1.27639 -0.924453 0
M  V30 1889 C 180.266 -1.05113 -1.20097 0
M  V30 1890 C 180.466 0.213262 -2.00368 0
M  V30 1891 O 179.522 0.91787 -2.35226 0
M  V30 1892 C 180.835 -2.29244 -1.94596 0
M  V30 1893 C 182.383 -2.34315 -2.07522 0
M  V30 1894 C 182.858 -3.58183 -2.85427 0
M  V30 1895 N 184.349 -3.5876 -2.92994 0
M  V30 1896 C 185.084 -4.51277 -3.53746 0
M  V30 1897 N 184.58 -5.54102 -4.15863 0
M  V30 1898 N 186.373 -4.38894 -3.51181 0
M  V30 1899 H 178.524 -2.08821 -0.388264 0
M  V30 1900 H 180.787 -0.918568 -0.234385 0
M  V30 1901 H 180.493 -3.21301 -1.43034 0
M  V30 1902 H 180.367 -2.34816 -2.95197 0
M  V30 1903 H 182.754 -1.42762 -2.58269 0
M  V30 1904 H 182.835 -2.32744 -1.06131 0
M  V30 1905 H 182.479 -4.50074 -2.35363 0
M  V30 1906 H 182.409 -3.57006 -3.8711 0
M  V30 1907 H 184.9 -2.84398 -2.4885 0
M  V30 1908 H 185.213 -6.20859 -4.60168 0
M  V30 1909 H 183.558 -5.57941 -4.144 0
M  V30 1910 H 186.749 -3.57772 -3.01856 0
M  V30 1911 H 186.922 -5.11186 -3.98237 0
M  V30 1912 N 180.328 1.1314 -1.09713 0
M  V30 1913 C 181.576 1.84119 -0.833338 0
M  V30 1914 C 181.897 1.84097 0.642904 0
M  V30 1915 O 181.167 1.29881 1.46655 0
M  V30 1916 H 179.747 0.681766 -0.305293 0
M  V30 1917 H 182.409 1.37038 -1.38588 0
M  V30 1918 H 181.505 2.88543 -1.18951 0
M  V30 1919 N 181.806 0.884767 1.30421 0
M  V30 1920 C 182.769 0.356277 2.26414 0
M  V30 1921 C 183.769 -0.501124 1.52792 0
M  V30 1922 O 184.959 -0.30831 1.7145 0
M  V30 1923 C 182.091 -0.492316 3.37326 0
M  V30 1924 H 183.284 1.20389 2.74675 0
M  V30 1925 H 180.837 0.661607 1.41607 0
M  V30 1926 H 181.572 -1.36052 2.94381 0
M  V30 1927 H 181.357 0.121832 3.91911 0
M  V30 1928 H 182.847 -0.853871 4.08777 0
M  V30 1929 N 183.284 -1.43765 0.645699 0
M  V30 1930 C 184.231 -2.30745 -0.0504648 0
M  V30 1931 C 185.201 -1.4432 -0.822241 0
M  V30 1932 O 186.386 -1.73202 -0.800358 0
M  V30 1933 C 183.526 -3.29802 -1.0161 0
M  V30 1934 C 182.639 -4.31326 -0.241219 0
M  V30 1935 C 181.774 -5.17469 -1.19998 0
M  V30 1936 C 180.813 -6.10691 -0.415094 0
M  V30 1937 N 179.95 -6.89483 -1.32506 0
M  V30 1938 H 184.79 -2.8973 0.697155 0
M  V30 1939 H 182.327 -1.42738 0.355563 0
M  V30 1940 H 184.285 -3.85734 -1.58949 0
M  V30 1941 H 182.915 -2.72483 -1.73069 0
M  V30 1942 H 181.967 -3.77749 0.448334 0
M  V30 1943 H 183.279 -4.9743 0.369437 0
M  V30 1944 H 182.433 -5.7799 -1.84424 0
M  V30 1945 H 181.172 -4.51473 -1.84455 0
M  V30 1946 H 180.177 -5.49265 0.242565 0
M  V30 1947 H 181.402 -6.78727 0.224966 0
M  V30 1948 H 179.348 -6.26142 -1.95657 0
M  V30 1949 H 179.265 -7.52081 -0.768783 0
M  V30 1950 H 180.533 -7.54516 -1.9577 0
M  V30 1951 N 184.763 -0.387143 -1.52771 0
M  V30 1952 C 185.726 0.436939 -2.24997 0
M  V30 1953 C 186.726 0.991991 -1.26555 0
M  V30 1954 O 187.916 0.874335 -1.50669 0
M  V30 1955 C 185.048 1.61281 -3.00335 0
M  V30 1956 H 186.241 -0.195365 -2.99263 0
M  V30 1957 H 183.794 -0.139218 -1.55679 0
M  V30 1958 H 184.529 2.2826 -2.30364 0
M  V30 1959 H 184.314 1.22154 -3.72587 0
M  V30 1960 H 185.804 2.19629 -3.5518 0
M  V30 1961 N 186.241 1.57166 -0.116904 0
M  V30 1962 C 187.49 1.94298 0.541407 0
M  V30 1963 C 187.803 1.00236 1.67964 0
M  V30 1964 O 189.009 1.26826 2.40057 0
M  V30 1965 C 187.465 3.45306 1.01449 0
M  V30 1966 C 187.073 4.47899 -0.0951738 0
M  V30 1967 C 188.817 3.91361 1.6443 0
M  V30 1968 C 186.724 5.90083 0.394491 0
M  V30 1969 H 185.654 0.725308 0.206019 0
M  V30 1970 H 188.305 1.82446 -0.196419 0
M  V30 1971 H 186.687 3.52385 1.80667 0
M  V30 1972 H 187.861 4.52486 -0.871374 0
M  V30 1973 H 186.176 4.11583 -0.631505 0
M  V30 1974 H 188.773 4.95004 2.02176 0
M  V30 1975 H 189.116 3.3122 2.52189 0
M  V30 1976 H 189.649 3.87073 0.917559 0
M  V30 1977 H 186.388 6.53974 -0.447004 0
M  V30 1978 H 185.908 5.88921 1.13722 0
M  V30 1979 H 187.587 6.41307 0.856399 0
M  V30 1980 N 187.719 -0.156864 1.56817 0
M  V30 1981 C 188.967 -0.869404 1.82444 0
M  V30 1982 C 189.288 -1.82147 0.69623 0
M  V30 1983 O 188.558 -1.93847 -0.28287 0
M  V30 1984 H 187.138 -0.324043 0.673056 0
M  V30 1985 H 189.8 -0.153224 1.94297 0
M  V30 1986 H 188.896 -1.43761 2.77019 0
M  V30 1987 N 189.197 -1.51736 -0.425897 0
M  V30 1988 C 190.425 -1.68794 -1.1965 0
M  V30 1989 C 190.84 -0.390164 -1.84725 0
M  V30 1990 O 190.197 0.632376 -1.71194 0
M  V30 1991 C 190.248 -2.81174 -2.27208 0
M  V30 1992 O 189.969 -4.05925 -1.64793 0
M  V30 1993 C 191.47 -3.09599 -3.17275 0
M  V30 1994 H 188.69 -0.566128 -0.360194 0
M  V30 1995 H 191.234 -1.98211 -0.503249 0
M  V30 1996 H 189.389 -2.54324 -2.9223 0
M  V30 1997 H 189.803 -4.68423 -2.35967 0
M  V30 1998 H 191.277 -3.91786 -3.88854 0
M  V30 1999 H 191.754 -2.22468 -3.78688 0
M  V30 2000 H 192.36 -3.38151 -2.57941 0
M  V30 2001 N 190.675 0.682077 -1.42076 0
M  V30 2002 C 191.903 1.47057 -1.4554 0
M  V30 2003 C 192.318 1.8869 -0.0645779 0
M  V30 2004 O 191.675 1.57666 0.919115 0
M  V30 2005 C 191.726 2.72442 -2.37609 0
M  V30 2006 O 191.447 2.32559 -3.71279 0
M  V30 2007 C 192.948 3.66069 -2.50017 0
M  V30 2008 H 190.168 0.452737 -0.495248 0
M  V30 2009 H 192.712 0.838695 -1.8651 0
M  V30 2010 H 190.867 3.31835 -1.9991 0
M  V30 2011 H 191.281 3.13475 -4.20516 0
M  V30 2012 H 192.755 4.50792 -3.18576 0
M  V30 2013 H 193.232 4.11476 -1.53572 0
M  V30 2014 H 193.838 3.12572 -2.88407 0
M  V30 2015 N 192.153 1.28127 0.917671 0
M  V30 2016 C 193.401 1.14825 1.66312 0
M  V30 2017 C 193.722 -0.304379 1.9261 0
M  V30 2018 O 192.992 -1.21149 1.53947 0
M  V30 2019 H 191.572 0.421953 0.616413 0
M  V30 2020 H 194.234 1.608 1.10134 0
M  V30 2021 H 193.33 1.68489 2.62712 0
M  V30 2022 N 193.631 -1.12557 1.10312 0
M  V30 2023 C 195.047 -1.36036 0.834649 0
M  V30 2024 C 195.247 -1.93946 -0.546539 0
M  V30 2025 O 194.303 -2.16484 -1.29966 0
M  V30 2026 C 195.616 -2.30312 1.9333 0
M  V30 2027 C 197.164 -2.43906 1.9616 0
M  V30 2028 C 197.639 -3.41496 3.05195 0
M  V30 2029 N 199.13 -3.49053 3.04494 0
M  V30 2030 C 199.865 -4.24471 3.85502 0
M  V30 2031 N 199.361 -5.02966 4.76442 0
M  V30 2032 N 201.154 -4.19864 3.73725 0
M  V30 2033 H 193.305 -0.733246 1.99342 0
M  V30 2034 H 195.568 -0.385234 0.866198 0
M  V30 2035 H 195.274 -1.94933 2.92735 0
M  V30 2036 H 195.148 -3.30421 1.81939 0
M  V30 2037 H 197.535 -2.78567 0.973886 0
M  V30 2038 H 197.616 -1.4369 2.11629 0
M  V30 2039 H 197.26 -3.07565 4.04186 0
M  V30 2040 H 197.19 -4.41539 2.86968 0
M  V30 2041 H 199.681 -2.93053 2.38596 0
M  V30 2042 H 199.994 -5.57846 5.34815 0
M  V30 2043 H 198.339 -5.02167 4.80472 0
M  V30 2044 H 201.53 -3.57623 3.02032 0
M  V30 2045 H 201.703 -4.78386 4.37093 0
M  V30 2046 N 195.109 -0.891671 -1.2995 0
M  V30 2047 C 196.357 -0.512486 -1.95494 0
M  V30 2048 C 196.678 0.942776 -1.70695 0
M  V30 2049 O 195.948 1.66374 -1.03424 0
M  V30 2050 H 194.528 -0.186533 -0.723336 0
M  V30 2051 H 197.19 -1.13621 -1.58355 0
M  V30 2052 H 196.286 -0.688342 -3.04415 0
M  V30 2053 N 196.587 1.43421 -0.653314 0
M  V30 2054 C 197.836 2.01032 -0.164076 0
M  V30 2055 C 198.149 1.52147 1.22926 0
M  V30 2056 O 199.355 2.02031 1.81371 0
M  V30 2057 C 197.811 3.59082 -0.24252 0
M  V30 2058 C 197.419 4.1696 -1.63855 0
M  V30 2059 C 199.163 4.24079 0.18911 0
M  V30 2060 C 197.07 5.67304 -1.67092 0
M  V30 2061 H 196 0.751798 -0.0575769 0
M  V30 2062 H 198.651 1.6439 -0.815362 0
M  V30 2063 H 197.033 3.93125 0.476276 0
M  V30 2064 H 198.207 3.94416 -2.38271 0
M  V30 2065 H 196.522 3.64335 -2.01616 0
M  V30 2066 H 199.119 5.34381 0.184775 0
M  V30 2067 H 199.462 3.98005 1.22056 0
M  V30 2068 H 199.995 3.94918 -0.477938 0
M  V30 2069 H 196.734 5.98145 -2.68146 0
M  V30 2070 H 196.254 5.91904 -0.970014 0
M  V30 2071 H 197.933 6.31344 -1.4147 0
M  V30 2072 N 198.065 0.39524 1.52563 0
M  V30 2073 C 199.313 -0.184678 2.01254 0
M  V30 2074 C 199.634 -1.46822 1.28329 0
M  V30 2075 O 198.904 -1.91666 0.405094 0
M  V30 2076 H 197.484 -0.0712355 0.743596 0
M  V30 2077 H 200.146 0.528293 1.87603 0
M  V30 2078 H 199.242 -0.390681 3.09645 0
M  V30 2079 N 199.544 -1.57102 0.125237 0
M  V30 2080 C 200.955 -1.82384 -0.399142 0
M  V30 2081 C 201.306 -1.04276 -1.66195 0
M  V30 2082 O 200.431 -0.281269 -2.14564 0
M  V30 2083 C 201.026 -3.30821 -0.730932 0
M  V30 2084 C 199.585 -3.56762 -1.19992 0
M  V30 2085 C 198.732 -2.7649 -0.211792 0
M  V30 2086 H 201.683 -1.54786 0.350277 0
M  V30 2087 H 201.704 -3.4579 -1.58775 0
M  V30 2088 H 201.216 -3.87643 0.188345 0
M  V30 2089 H 199.317 -3.05305 -2.13588 0
M  V30 2090 H 199.43 -4.65317 -1.14093 0
M  V30 2091 H 197.794 -2.4489 -0.700085 0
M  V30 2092 H 198.577 -3.36073 0.700691 0
M  V30 2093 N 201.022 0.148545 -1.56898 0
M  V30 2094 C 201.985 1.16736 -1.97244 0
M  V30 2095 C 202.985 1.35947 -0.858777 0
M  V30 2096 O 204.175 1.32966 -1.12542 0
M  V30 2097 C 201.307 2.52798 -2.28705 0
M  V30 2098 H 202.5 0.821279 -2.88435 0
M  V30 2099 H 200.053 0.391831 -1.51309 0
M  V30 2100 H 200.788 2.92381 -1.403 0
M  V30 2101 H 200.573 2.40216 -3.09901 0
M  V30 2102 H 202.063 3.26179 -2.60762 0
M  V30 2103 N 202.5 1.5196 0.417844 0
M  V30 2104 C 203.73 1.69181 1.18581 0
M  V30 2105 C 204.138 0.397104 1.84986 0
M  V30 2106 O 203.481 -0.636011 1.72339 0
M  V30 2107 C 203.543 2.76497 2.29759 0
M  V30 2108 C 203.207 4.18514 1.83563 0
M  V30 2109 C 204.204 5.02648 1.32821 0
M  V30 2110 C 201.889 4.64708 1.90661 0
M  V30 2111 C 203.883 6.31044 0.897894 0
M  V30 2112 C 201.57 5.93096 1.47241 0
M  V30 2113 C 202.568 6.76093 0.968891 0
M  V30 2114 O 202.256 8.02078 0.540924 0
M  V30 2115 H 201.988 0.570457 0.362705 0
M  V30 2116 H 204.542 1.99249 0.498885 0
M  V30 2117 H 202.772 2.41786 3.01789 0
M  V30 2118 H 204.461 2.82403 2.91553 0
M  V30 2119 H 205.227 4.68154 1.26716 0
M  V30 2120 H 201.106 4.00216 2.28797 0
M  V30 2121 H 204.65 6.95776 0.504192 0
M  V30 2122 H 200.547 6.271 1.53022 0
M  V30 2123 H 201.315 8.15794 0.66502 0
M  V30 2124 N 203.978 -0.674533 1.42435 0
M  V30 2125 C 204.888 -1.81751 1.48337 0
M  V30 2126 C 205.904 -1.69975 0.372099 0
M  V30 2127 O 207.08 -1.91521 0.62304 0
M  V30 2128 C 204.145 -3.17895 1.38361 0
M  V30 2129 C 203.206 -3.41625 2.59982 0
M  V30 2130 C 202.439 -4.71274 2.50473 0
M  V30 2131 O 202.662 -5.49197 1.54075 0
M  V30 2132 O 201.596 -4.96254 3.4061 0
M  V30 2133 H 205.422 -1.79728 2.44809 0
M  V30 2134 H 203.007 -0.830312 1.24202 0
M  V30 2135 H 204.889 -3.99136 1.35161 0
M  V30 2136 H 203.564 -3.20555 0.450144 0
M  V30 2137 H 202.471 -2.60231 2.68757 0
M  V30 2138 H 203.804 -3.43796 3.52229 0
M  V30 2139 N 205.456 -1.28612 -0.910864 0
M  V30 2140 C 206.733 -1.06632 -1.63979 0
M  V30 2141 C 207.113 0.393351 -2.07403 0
M  V30 2142 O 206.461 1.37999 -1.82122 0
M  V30 2143 C 206.671 -2.0436 -2.8291 0
M  V30 2144 C 208.019 -2.34666 -3.5386 0
M  V30 2145 O 209.043 -2.02467 -2.93062 0
M  V30 2146 O 207.902 -2.89631 -4.63439 0
M  V30 2147 H 204.996 -0.407737 -0.7195 0
M  V30 2148 H 207.542 -1.39942 -0.959914 0
M  V30 2149 H 206.314 -3.02727 -2.47936 0
M  V30 2150 H 205.937 -1.71714 -3.58609 0
M  V30 2151 N 206.934 1.1197 -1.10907 0
M  V30 2152 C 207.881 2.17846 -0.762345 0
M  V30 2153 C 208.851 1.63995 0.263599 0
M  V30 2154 O 210.036 1.90273 0.141773 0
M  V30 2155 C 207.176 3.44487 -0.205651 0
M  V30 2156 C 206.289 4.12369 -1.28748 0
M  V30 2157 C 205.424 5.26674 -0.691919 0
M  V30 2158 C 204.463 5.86431 -1.75399 0
M  V30 2159 N 203.6 6.92142 -1.17833 0
M  V30 2160 H 208.44 2.46851 -1.6694 0
M  V30 2161 H 205.977 1.21188 -0.833776 0
M  V30 2162 H 207.935 4.16981 0.135037 0
M  V30 2163 H 206.565 3.15884 0.664613 0
M  V30 2164 H 205.617 3.38003 -1.74522 0
M  V30 2165 H 206.929 4.52844 -2.09125 0
M  V30 2166 H 206.083 6.05953 -0.300963 0
M  V30 2167 H 204.822 4.8749 0.143232 0
M  V30 2168 H 203.827 5.05835 -2.15432 0
M  V30 2169 H 205.052 6.27685 -2.59208 0
M  V30 2170 H 202.998 6.54985 -0.364725 0
M  V30 2171 H 202.915 7.31242 -1.91887 0
M  V30 2172 H 204.183 7.75237 -0.81408 0
M  V30 2173 N 208.412 0.89855 1.29475 0
M  V30 2174 C 209.658 0.524658 1.95896 0
M  V30 2175 C 209.991 -0.926468 1.70676 0
M  V30 2176 O 209.266 -1.65665 1.01908 0
M  V30 2177 C 209.549 0.81633 3.50725 0
M  V30 2178 C 209.402 2.31907 3.85408 0
M  V30 2179 C 210.721 0.302038 4.39062 0
M  V30 2180 H 207.84 0.19209 0.711527 0
M  V30 2181 H 210.482 1.12502 1.53112 0
M  V30 2182 H 208.632 0.305369 3.87298 0
M  V30 2183 H 210.304 2.89949 3.58786 0
M  V30 2184 H 208.547 2.78027 3.32992 0
M  V30 2185 H 209.218 2.47373 4.93468 0
M  V30 2186 H 211.694 0.739551 4.09475 0
M  V30 2187 H 210.57 0.535331 5.46283 0
M  V30 2188 H 210.831 -0.797216 4.34853 0
M  V30 2189 N 209.89 -1.43072 0.660911 0
M  V30 2190 C 210.853 -2.29194 -0.0166406 0
M  V30 2191 C 211.853 -1.42609 -0.742912 0
M  V30 2192 O 213.043 -1.64155 -0.583004 0
M  V30 2193 C 210.175 -3.24831 -1.0343 0
M  V30 2194 H 211.368 -2.90596 0.741208 0
M  V30 2195 H 208.921 -1.5048 0.422532 0
M  V30 2196 H 209.656 -2.68339 -1.82111 0
M  V30 2197 H 209.441 -3.88676 -0.517082 0
M  V30 2198 H 210.931 -3.89451 -1.50723 0
M  V30 2199 N 211.368 -0.403325 -1.52352 0
M  V30 2200 C 212.784 -0.0539281 -1.59509 0
M  V30 2201 C 212.984 1.43307 -1.41652 0
M  V30 2202 O 212.04 2.19924 -1.24056 0
M  V30 2203 C 213.353 -0.543654 -2.95745 0
M  V30 2204 C 214.901 -0.501125 -3.08962 0
M  V30 2205 C 215.376 -0.967267 -4.47669 0
M  V30 2206 N 216.867 -0.923849 -4.53893 0
M  V30 2207 C 217.602 -1.25578 -5.5948 0
M  V30 2208 N 217.098 -1.65889 -6.72646 0
M  V30 2209 N 218.891 -1.17613 -5.49658 0
M  V30 2210 H 211.042 -1.37123 -1.62206 0
M  V30 2211 H 213.305 -0.56294 -0.76276 0
M  V30 2212 H 213.011 -1.58275 -3.14073 0
M  V30 2213 H 212.885 0.0498042 -3.77167 0
M  V30 2214 H 215.272 0.528909 -2.90321 0
M  V30 2215 H 215.353 -1.13056 -2.2946 0
M  V30 2216 H 214.997 -1.9956 -4.67053 0
M  V30 2217 H 214.927 -0.314698 -5.25659 0
M  V30 2218 H 217.418 -0.627403 -3.72655 0
M  V30 2219 H 217.731 -1.89543 -7.49195 0
M  V30 2220 H 216.076 -1.69787 -6.73942 0
M  V30 2221 H 219.267 -0.860115 -4.6013 0
M  V30 2222 H 219.44 -1.43812 -6.3184 0
M  V30 2223 N 212.846 1.57033 -0.133567 0
M  V30 2224 C 214.262 1.58035 0.222944 0
M  V30 2225 C 214.462 1.14713 1.6566 0
M  V30 2226 O 213.518 0.841218 2.38075 0
M  V30 2227 C 214.831 3.00691 -0.0236116 0
M  V30 2228 C 216.379 3.12973 0.0411512 0
M  V30 2229 C 216.854 4.57654 -0.177899 0
M  V30 2230 N 218.345 4.63033 -0.124365 0
M  V30 2231 C 219.08 5.72771 -0.268553 0
M  V30 2232 N 218.576 6.91206 -0.46972 0
M  V30 2233 N 220.369 5.61718 -0.2071 0
M  V30 2234 H 212.52 1.8349 -1.06981 0
M  V30 2235 H 214.783 0.848677 -0.422436 0
M  V30 2236 H 214.489 3.36726 -1.0153 0
M  V30 2237 H 214.363 3.70614 0.701808 0
M  V30 2238 H 216.75 2.76787 1.02338 0
M  V30 2239 H 216.831 2.45564 -0.716383 0
M  V30 2240 H 216.475 4.94542 -1.15717 0
M  V30 2241 H 216.405 5.23173 0.599797 0
M  V30 2242 H 218.896 3.7789 0.027011 0
M  V30 2243 H 219.209 7.70693 -0.570212 0
M  V30 2244 H 217.554 6.93156 -0.505876 0
M  V30 2245 H 220.745 4.68072 -0.0507986 0
M  V30 2246 H 220.918 6.47195 -0.322909 0
M  V30 2247 N 214.325 -0.140222 1.56975 0
M  V30 2248 C 215.573 -0.850005 1.83356 0
M  V30 2249 C 215.894 -1.81399 0.71551 0
M  V30 2250 O 215.164 -1.94136 -0.262294 0
M  V30 2251 H 213.744 -0.316886 0.676456 0
M  V30 2252 H 216.406 -0.132608 1.94448 0
M  V30 2253 H 215.502 -1.40814 2.78528 0
M  V30 2254 N 215.803 -1.52179 -0.40978 0
M  V30 2255 C 216.733 -1.78435 -1.5061 0
M  V30 2256 C 217.714 -0.635295 -1.57791 0
M  V30 2257 O 218.899 -0.880823 -1.73076 0
M  V30 2258 C 216.029 -1.93444 -2.88439 0
M  V30 2259 C 214.983 -3.09038 -2.96108 0
M  V30 2260 C 214.309 -3.09268 -4.36185 0
M  V30 2261 C 215.609 -4.48508 -2.67652 0
M  V30 2262 H 217.303 -2.70237 -1.28889 0
M  V30 2263 H 214.849 -1.30036 -0.618605 0
M  V30 2264 H 216.802 -2.10394 -3.65119 0
M  V30 2265 H 215.526 -0.983129 -3.11452 0
M  V30 2266 H 214.185 -2.91837 -2.21872 0
M  V30 2267 H 213.833 -2.11861 -4.56206 0
M  V30 2268 H 213.533 -3.86907 -4.42241 0
M  V30 2269 H 215.057 -3.28348 -5.14801 0
M  V30 2270 H 216.471 -4.65918 -3.34056 0
M  V30 2271 H 214.868 -5.28059 -2.85085 0
M  V30 2272 H 215.938 -4.56649 -1.63095 0
M  V30 2273 N 217.281 0.66697 -1.42791 0
M  V30 2274 C 218.697 0.981027 -1.25889 0
M  V30 2275 C 218.897 2.00793 -0.168695 0
M  V30 2276 O 217.953 2.48321 0.45747 0
M  V30 2277 C 219.266 1.47838 -2.61848 0
M  V30 2278 C 220.814 1.59575 -2.69267 0
M  V30 2279 C 221.289 2.12704 -4.05612 0
M  V30 2280 N 222.78 2.20026 -4.07606 0
M  V30 2281 C 223.515 2.62227 -5.09926 0
M  V30 2282 N 223.011 3.03824 -6.22626 0
M  V30 2283 N 224.804 2.62045 -4.97281 0
M  V30 2284 H 216.955 -0.0127891 -2.12396 0
M  V30 2285 H 219.218 0.0568258 -0.946295 0
M  V30 2286 H 218.924 0.798299 -3.4252 0
M  V30 2287 H 218.798 2.45579 -2.86305 0
M  V30 2288 H 221.185 2.26687 -1.88936 0
M  V30 2289 H 221.266 0.60302 -2.48591 0
M  V30 2290 H 220.91 1.46198 -4.86404 0
M  V30 2291 H 220.84 3.12782 -4.23645 0
M  V30 2292 H 223.331 1.90708 -3.2625 0
M  V30 2293 H 223.644 3.34734 -6.96544 0
M  V30 2294 H 221.989 3.01662 -6.26119 0
M  V30 2295 H 225.18 2.28916 -4.08308 0
M  V30 2296 H 225.353 2.94613 -5.77154 0
M  V30 2297 N 218.759 1.29093 0.90403 0
M  V30 2298 C 220.005 1.16986 1.65656 0
M  V30 2299 C 220.338 -0.278925 1.92186 0
M  V30 2300 O 219.613 -1.2019 1.5292 0
M  V30 2301 C 219.896 1.97908 3.0084 0
M  V30 2302 C 219.749 3.50903 2.81403 0
M  V30 2303 C 221.068 1.80208 4.01513 0
M  V30 2304 H 218.187 0.426346 0.601164 0
M  V30 2305 H 220.829 1.58518 1.04747 0
M  V30 2306 H 218.979 1.62616 3.52829 0
M  V30 2307 H 220.651 3.96153 2.36348 0
M  V30 2308 H 218.894 3.76045 2.1627 0
M  V30 2309 H 219.565 4.02791 3.77443 0
M  V30 2310 H 222.041 2.11025 3.58619 0
M  V30 2311 H 220.917 2.39184 4.94047 0
M  V30 2312 H 221.178 0.756119 4.35586 0
M  V30 2313 N 220.237 -1.11381 1.11499 0
M  V30 2314 C 221.485 -1.8277 0.862524 0
M  V30 2315 C 221.806 -1.85097 -0.613534 0
M  V30 2316 O 221.076 -1.32198 -1.4457 0
M  V30 2317 H 219.656 -0.676823 0.316101 0
M  V30 2318 H 222.318 -1.34816 1.4075 0
M  V30 2319 H 221.414 -2.86614 1.23527 0
M  V30 2320 N 221.715 -0.905404 -1.28997 0
M  V30 2321 C 222.992 -0.453513 -1.9027 0
M  V30 2322 C 223.372 1.06721 -1.82137 0
M  V30 2323 O 222.72 1.91159 -1.25182 0
M  V30 2324 C 222.93 -0.974494 -3.35119 0
M  V30 2325 C 224.278 -1.0216 -4.12127 0
M  V30 2326 O 225.302 -0.922557 -3.44046 0
M  V30 2327 O 224.161 -1.17121 -5.33802 0
M  V30 2328 H 221.255 -0.142347 -0.814657 0
M  V30 2329 H 223.801 -0.995642 -1.37423 0
M  V30 2330 H 222.573 -2.01848 -3.35221 0
M  V30 2331 H 222.196 -0.412706 -3.95452 0
M  V30 2332 N 223.193 1.4272 -0.668489 0
M  V30 2333 C 224.123 2.335 -0.000100175 0
M  V30 2334 C 225.104 1.50328 0.795964 0
M  V30 2335 O 226.289 1.78949 0.754385 0
M  V30 2336 C 223.419 3.33874 0.956302 0
M  V30 2337 C 222.373 4.27152 0.269278 0
M  V30 2338 C 221.699 5.17684 1.33818 0
M  V30 2339 C 222.999 5.15373 -0.847805 0
M  V30 2340 H 224.693 2.89639 -0.758244 0
M  V30 2341 H 222.239 1.39269 -0.366079 0
M  V30 2342 H 224.192 3.9629 1.43292 0
M  V30 2343 H 222.916 2.76025 1.74579 0
M  V30 2344 H 221.575 3.66123 -0.187042 0
M  V30 2345 H 221.223 4.56165 2.1195 0
M  V30 2346 H 220.923 5.80918 0.883659 0
M  V30 2347 H 222.447 5.82974 1.81586 0
M  V30 2348 H 223.861 5.7151 -0.452681 0
M  V30 2349 H 222.258 5.87407 -1.22773 0
M  V30 2350 H 223.328 4.5415 -1.69929 0
M  V30 2351 N 224.671 0.411399 1.52136 0
M  V30 2352 C 225.918 -0.163645 2.01838 0
M  V30 2353 C 226.246 -1.4495 1.29691 0
M  V30 2354 O 225.501 -1.91725 0.392431 0
M  V30 2355 C 225.8 -0.455872 3.54481 0
M  V30 2356 C 225.466 0.741055 4.44769 0
M  V30 2357 C 224.128 1.06936 4.69167 0
M  V30 2358 C 226.48 1.54075 4.97906 0
M  V30 2359 C 223.808 2.19851 5.43951 0
M  V30 2360 C 226.16 2.66067 5.73926 0
M  V30 2361 C 224.824 2.99381 5.96596 0
M  V30 2362 H 224.094 -0.0598821 0.738576 0
M  V30 2363 H 226.741 0.553283 1.83333 0
M  V30 2364 H 225.046 -1.2544 3.71177 0
M  V30 2365 H 226.743 -0.913802 3.90449 0
M  V30 2366 H 223.333 0.475192 4.25958 0
M  V30 2367 H 227.517 1.30033 4.78963 0
M  V30 2368 H 222.773 2.46006 5.59724 0
M  V30 2369 H 226.947 3.28419 6.14096 0
M  V30 2370 H 224.574 3.86992 6.54325 0
M  V30 2371 N 226.149 -1.5696 0.141893 0
M  V30 2372 C 227.426 -1.87553 -0.555281 0
M  V30 2373 C 227.806 -1.04699 -1.83306 0
M  V30 2374 O 227.154 -0.132346 -2.28116 0
M  V30 2375 C 227.364 -3.39093 -0.825664 0
M  V30 2376 C 228.712 -4.08199 -1.16869 0
M  V30 2377 O 229.736 -3.44242 -0.915185 0
M  V30 2378 O 228.595 -5.21139 -1.6455 0
M  V30 2379 H 225.689 -0.777188 -0.282679 0
M  V30 2380 H 228.235 -1.68763 0.17812 0
M  V30 2381 H 227.007 -3.91221 0.0788633 0
M  V30 2382 H 226.63 -3.63393 -1.61343 0
M  V30 2383 N 227.627 0.131896 -1.57047 0
M  V30 2384 C 228.574 1.16236 -1.99393 0
M  V30 2385 C 229.544 1.41863 -0.863943 0
M  V30 2386 O 230.729 1.53946 -1.12718 0
M  V30 2387 C 227.869 2.48708 -2.39245 0
M  V30 2388 C 226.982 2.30127 -3.65603 0
M  V30 2389 C 226.117 3.55738 -3.94492 0
M  V30 2390 C 225.156 3.32259 -5.14073 0
M  V30 2391 N 224.293 4.50039 -5.38896 0
M  V30 2392 H 229.133 0.794251 -2.87221 0
M  V30 2393 H 226.67 0.380707 -1.42088 0
M  V30 2394 H 228.628 3.25969 -2.60384 0
M  V30 2395 H 227.258 2.83437 -1.54478 0
M  V30 2396 H 226.31 1.43845 -3.52154 0
M  V30 2397 H 227.622 2.08746 -4.5302 0
M  V30 2398 H 226.776 4.41423 -4.1621 0
M  V30 2399 H 225.515 3.80138 -3.05526 0
M  V30 2400 H 224.52 2.44963 -4.92212 0
M  V30 2401 H 225.745 3.09242 -6.04604 0
M  V30 2402 H 223.691 4.74584 -4.52886 0
M  V30 2403 H 223.608 4.31716 -6.2061 0
M  V30 2404 H 224.876 5.36895 -5.65123 0
M  V30 2405 N 229.106 1.52395 0.401703 0
M  V30 2406 C 230.016 1.7917 1.51444 0
M  V30 2407 C 231.032 0.677691 1.6026 0
M  V30 2408 O 232.208 0.963909 1.76835 0
M  V30 2409 C 229.273 1.94347 2.87107 0
M  V30 2410 C 228.334 3.18257 2.88116 0
M  V30 2411 C 227.567 3.32701 4.17308 0
M  V30 2412 O 227.79 2.52238 5.11598 0
M  V30 2413 O 226.724 4.25891 4.25324 0
M  V30 2414 H 230.55 2.73633 1.31752 0
M  V30 2415 H 228.135 1.3733 0.588296 0
M  V30 2416 H 230.017 2.06109 3.67555 0
M  V30 2417 H 228.692 1.03073 3.06851 0
M  V30 2418 H 227.599 3.11947 2.06494 0
M  V30 2419 H 228.932 4.09336 2.73322 0
M  V30 2420 N 230.584 -0.659388 1.43143 0
M  V30 2421 C 231.812 -1.44723 1.47861 0
M  V30 2422 C 232.227 -1.88563 0.0945886 0
M  V30 2423 O 231.584 -1.59108 -0.893915 0
M  V30 2424 C 231.635 -2.68627 2.41913 0
M  V30 2425 O 231.356 -2.26623 3.74932 0
M  V30 2426 C 232.857 -3.62045 2.55809 0
M  V30 2427 H 230.077 -0.444801 0.502387 0
M  V30 2428 H 232.621 -0.808916 1.87821 0
M  V30 2429 H 230.776 -3.28613 2.05164 0
M  V30 2430 H 231.19 -3.06745 4.2545 0
M  V30 2431 H 232.664 -4.45666 3.25708 0
M  V30 2432 H 233.141 -4.08981 1.60099 0
M  V30 2433 H 233.747 -3.07944 2.93344 0
M  V30 2434 N 232.062 -1.29571 -0.897171 0
M  V30 2435 C 233.309 -1.17689 -1.6479 0
M  V30 2436 C 233.637 0.27107 -1.92602 0
M  V30 2437 O 232.892 1.21193 -1.53658 0
M  V30 2438 C 233.191 -1.9382 -3.00281 0
M  V30 2439 C 232.857 -3.43522 -2.92068 0
M  V30 2440 C 231.519 -3.84348 -2.89535 0
M  V30 2441 C 233.871 -4.38906 -2.81089 0
M  V30 2442 C 231.199 -5.18869 -2.73846 0
M  V30 2443 C 233.551 -5.73521 -2.66939 0
M  V30 2444 C 232.215 -6.13601 -2.62774 0
M  V30 2445 H 231.485 -0.430654 -0.603008 0
M  V30 2446 H 234.132 -1.60536 -1.04404 0
M  V30 2447 H 232.437 -1.4357 -3.64547 0
M  V30 2448 H 234.134 -1.82028 -3.57305 0
M  V30 2449 H 230.724 -3.11072 -2.94842 0
M  V30 2450 H 234.908 -4.08315 -2.82121 0
M  V30 2451 H 230.164 -5.4903 -2.69027 0
M  V30 2452 H 234.338 -6.47078 -2.57416 0
M  V30 2453 H 231.965 -7.17786 -2.50375 0
M  V30 2454 N 233.54 1.10788 -1.12088 0
M  V30 2455 C 234.503 2.15207 -0.788577 0
M  V30 2456 C 235.503 1.59609 0.195317 0
M  V30 2457 O 236.693 1.74174 -0.0300193 0
M  V30 2458 C 233.825 3.4047 -0.171174 0
M  V30 2459 H 235.018 2.46116 -1.71368 0
M  V30 2460 H 232.571 1.26089 -0.923652 0
M  V30 2461 H 233.306 3.15176 0.763832 0
M  V30 2462 H 233.091 3.82109 -0.879514 0
M  V30 2463 H 234.581 4.17576 0.04496 0
M  V30 2464 N 235.018 0.912232 1.28515 0
M  V30 2465 C 235.928 0.404506 2.31086 0
M  V30 2466 C 236.944 -0.50707 1.66448 0
M  V30 2467 O 238.12 -0.393624 1.97516 0
M  V30 2468 C 235.185 -0.348572 3.44943 0
M  V30 2469 C 234.246 0.59604 4.25142 0
M  V30 2470 C 233.479 -0.121194 5.33562 0
M  V30 2471 O 233.702 -1.34317 5.5436 0
M  V30 2472 O 232.636 0.542716 5.99448 0
M  V30 2473 H 236.462 1.25579 2.76521 0
M  V30 2474 H 234.047 0.676998 1.33181 0
M  V30 2475 H 235.929 -0.77395 4.14232 0
M  V30 2476 H 234.604 -1.17571 3.01594 0
M  V30 2477 H 233.511 1.07079 3.58448 0
M  V30 2478 H 234.844 1.38995 4.72167 0
M  V30 2479 N 236.496 -1.42363 0.676048 0
M  V30 2480 C 237.443 -2.308 -0.00150904 0
M  V30 2481 C 238.413 -1.46032 -0.791444 0
M  V30 2482 O 239.598 -1.74861 -0.76344 0
M  V30 2483 C 236.738 -3.31883 -0.945919 0
M  V30 2484 C 235.851 -4.31741 -0.149675 0
M  V30 2485 C 234.986 -5.19898 -1.08995 0
M  V30 2486 C 234.025 -6.11434 -0.285465 0
M  V30 2487 N 233.162 -6.92138 -1.17851 0
M  V30 2488 H 238.002 -2.88187 0.758455 0
M  V30 2489 H 235.539 -1.41952 0.38576 0
M  V30 2490 H 237.497 -3.89019 -1.50731 0
M  V30 2491 H 236.127 -2.76093 -1.6725 0
M  V30 2492 H 235.179 -3.76713 0.528359 0
M  V30 2493 H 236.491 -4.96534 0.474866 0
M  V30 2494 H 235.645 -5.81772 -1.72123 0
M  V30 2495 H 234.384 -4.55284 -1.74837 0
M  V30 2496 H 233.389 -5.48627 0.359018 0
M  V30 2497 H 234.614 -6.78097 0.368883 0
M  V30 2498 H 232.56 -6.30152 -1.82332 0
M  V30 2499 H 232.477 -7.53542 -0.609082 0
M  V30 2500 H 233.745 -7.58499 -1.79722 0
M  V30 2501 N 237.974 -0.419461 -1.51915 0
M  V30 2502 C 238.904 0.391813 -2.30189 0
M  V30 2503 C 239.885 1.03699 -1.34836 0
M  V30 2504 O 241.07 1.04403 -1.63748 0
M  V30 2505 C 238.2 1.50312 -3.13087 0
M  V30 2506 C 237.154 0.9824 -4.16573 0
M  V30 2507 C 236.48 2.18809 -4.8788 0
M  V30 2508 C 237.78 0.0292356 -5.22292 0
M  V30 2509 H 239.474 -0.26135 -2.98257 0
M  V30 2510 H 237.02 -0.127134 -1.43438 0
M  V30 2511 H 238.973 2.07773 -3.66617 0
M  V30 2512 H 237.697 2.18431 -2.42807 0
M  V30 2513 H 236.356 0.430119 -3.64068 0
M  V30 2514 H 236.004 2.85507 -4.14119 0
M  V30 2515 H 235.704 1.84615 -5.57845 0
M  V30 2516 H 237.228 2.76858 -5.44226 0
M  V30 2517 H 238.642 0.512976 -5.71 0
M  V30 2518 H 237.039 -0.2244 -5.9968 0
M  V30 2519 H 238.109 -0.912931 -4.76228 0
M  V30 2520 N 239.452 1.56882 -0.150215 0
M  V30 2521 C 240.399 2.16922 0.788244 0
M  V30 2522 C 241.369 1.10303 1.24187 0
M  V30 2523 O 242.554 1.38359 1.31383 0
M  V30 2524 C 239.694 2.79754 2.02068 0
M  V30 2525 C 238.807 4.00775 1.61257 0
M  V30 2526 C 237.942 4.51595 2.79705 0
M  V30 2527 C 236.981 5.65074 2.35282 0
M  V30 2528 N 236.118 6.10499 3.4675 0
M  V30 2529 H 240.958 2.96779 0.269444 0
M  V30 2530 H 238.495 1.46599 0.12128 0
M  V30 2531 H 240.453 3.14329 2.74323 0
M  V30 2532 H 239.083 2.02536 2.51354 0
M  V30 2533 H 238.135 3.72158 0.787553 0
M  V30 2534 H 239.447 4.82978 1.24633 0
M  V30 2535 H 238.601 4.88242 3.60145 0
M  V30 2536 H 237.34 3.68406 3.19576 0
M  V30 2537 H 236.345 5.28 1.53283 0
M  V30 2538 H 237.57 6.50052 1.96493 0
M  V30 2539 H 235.516 5.30243 3.86236 0
M  V30 2540 H 235.433 6.87637 3.14152 0
M  V30 2541 H 236.701 6.51791 4.27537 0
M  V30 2542 N 240.93 -0.123565 1.57115 0
M  V30 2543 C 241.84 -1.17074 2.033 0
M  V30 2544 C 242.856 -1.4561 0.952559 0
M  V30 2545 O 244.032 -1.56817 1.26374 0
M  V30 2546 C 241.097 -2.47857 2.42421 0
M  V30 2547 C 240.158 -2.26758 3.64526 0
M  V30 2548 C 239.391 -3.51305 4.01771 0
M  V30 2549 O 239.614 -4.5843 3.39409 0
M  V30 2550 O 238.548 -3.42578 4.94898 0
M  V30 2551 H 242.374 -0.808555 2.92739 0
M  V30 2552 H 239.959 -0.334027 1.45618 0
M  V30 2553 H 241.841 -3.2492 2.68338 0
M  V30 2554 H 240.516 -2.83558 1.5613 0
M  V30 2555 H 239.423 -1.47569 3.43765 0
M  V30 2556 H 240.756 -1.95963 4.51508 0
M  V30 2557 N 242.408 -1.52605 -0.393616 0
M  V30 2558 C 243.654 -1.67672 -1.14079 0
M  V30 2559 C 243.987 -0.413121 -1.89755 0
M  V30 2560 O 243.262 0.588952 -1.85369 0
M  V30 2561 C 243.545 -2.9088 -2.12276 0
M  V30 2562 C 243.398 -4.27329 -1.40394 0
M  V30 2563 C 244.717 -3.09628 -3.12759 0
M  V30 2564 H 241.836 -0.610168 -0.413356 0
M  V30 2565 H 244.478 -1.85193 -0.424696 0
M  V30 2566 H 242.628 -2.76073 -2.73342 0
M  V30 2567 H 244.3 -4.53894 -0.82327 0
M  V30 2568 H 242.543 -4.2802 -0.705801 0
M  V30 2569 H 243.214 -5.09615 -2.12123 0
M  V30 2570 H 245.69 -3.23436 -2.61779 0
M  V30 2571 H 244.566 -3.97322 -3.78717 0
M  V30 2572 H 244.827 -2.23637 -3.81365 0
M  V30 2573 N 243.887 0.651787 -1.4349 0
M  V30 2574 C 244.82 1.77668 -1.43211 0
M  V30 2575 C 245.798 1.59931 -0.29338 0
M  V30 2576 O 246.982 1.82095 -0.487191 0
M  V30 2577 C 244.109 3.14986 -1.24505 0
M  V30 2578 C 243.155 3.51421 -2.41673 0
M  V30 2579 S 243.988 3.51234 -4.04222 0
M  V30 2580 C 245.144 4.91206 -3.87902 0
M  V30 2581 H 245.377 1.77635 -2.38397 0
M  V30 2582 H 242.91 0.824558 -1.30539 0
M  V30 2583 H 244.868 3.94237 -1.144 0
M  V30 2584 H 243.529 3.1258 -0.308651 0
M  V30 2585 H 242.722 4.51291 -2.24393 0
M  V30 2586 H 242.324 2.79585 -2.48411 0
M  V30 2587 H 244.616 5.79902 -3.50315 0
M  V30 2588 H 245.559 5.13537 -4.8753 0
M  V30 2589 H 245.967 4.64808 -3.20334 0
M  V30 2590 N 245.365 1.30045 0.890287 0
M  V30 2591 C 246.275 1.17885 2.02831 0
M  V30 2592 C 247.291 0.0999609 1.73713 0
M  V30 2593 O 248.467 0.313867 1.98939 0
M  V30 2594 C 245.532 0.866079 3.35708 0
M  V30 2595 C 244.593 2.02979 3.78283 0
M  V30 2596 C 243.826 1.73184 5.0482 0
M  V30 2597 O 244.049 0.657237 5.66601 0
M  V30 2598 O 242.983 2.58267 5.43674 0
M  V30 2599 H 246.809 2.13474 2.16015 0
M  V30 2600 H 244.394 1.09587 1.01543 0
M  V30 2601 H 246.276 0.706623 4.15433 0
M  V30 2602 H 244.951 -0.0599443 3.23644 0
M  V30 2603 H 243.858 2.24454 2.99285 0
M  V30 2604 H 245.191 2.93734 3.94944 0
M  V30 2605 N 246.843 -1.10192 1.12674 0
M  V30 2606 C 248.073 -1.85713 0.905213 0
M  V30 2607 C 248.481 -1.81056 -0.549108 0
M  V30 2608 O 247.824 -1.19927 -1.39151 0
M  V30 2609 C 247.886 -3.34972 1.30516 0
M  V30 2610 C 247.55 -3.63385 2.77129 0
M  V30 2611 C 248.547 -3.59772 3.75313 0
M  V30 2612 C 246.232 -3.91981 3.14096 0
M  V30 2613 C 248.226 -3.84354 5.08479 0
M  V30 2614 C 245.913 -4.16218 4.47443 0
M  V30 2615 C 246.911 -4.12395 5.44444 0
M  V30 2616 O 246.599 -4.36014 6.75387 0
M  V30 2617 H 246.331 -0.593719 0.323223 0
M  V30 2618 H 248.885 -1.40198 1.50112 0
M  V30 2619 H 247.115 -3.81156 0.652463 0
M  V30 2620 H 248.804 -3.91886 1.05736 0
M  V30 2621 H 249.57 -3.37716 3.48099 0
M  V30 2622 H 245.449 -3.94085 2.39202 0
M  V30 2623 H 248.993 -3.81285 5.84181 0
M  V30 2624 H 244.89 -4.37754 4.74386 0
M  V30 2625 H 245.658 -4.53516 6.8137 0
M  V30 2626 N 248.321 -0.919034 -1.28029 0
M  V30 2627 C 249.271 -0.382574 -2.24767 0
M  V30 2628 C 250.255 0.508286 -1.52661 0
M  V30 2629 O 251.447 0.347145 -1.73562 0
M  V30 2630 C 248.576 0.371432 -3.41285 0
M  V30 2631 C 247.662 -0.535449 -4.20706 0
M  V30 2632 N 248.053 -1.65141 -4.78082 0
M  V30 2633 C 246.351 -0.336824 -4.44726 0
M  V30 2634 C 247.052 -2.21475 -5.37888 0
M  V30 2635 N 246.028 -1.50537 -5.22341 0
M  V30 2636 H 249.83 -1.23477 -2.66703 0
M  V30 2637 H 247.344 -0.772299 -1.42861 0
M  V30 2638 H 249.341 0.772638 -4.09678 0
M  V30 2639 H 248.001 1.22066 -3.00882 0
M  V30 2640 H 249.012 -2.03392 -4.7629 0
M  V30 2641 H 245.689 0.47246 -4.14818 0
M  V30 2642 H 247.079 -3.15379 -5.93284 0
M  V30 2643 N 249.799 1.42003 -0.683588 0
M  V30 2644 C 250.747 2.326 0.000815408 0
M  V30 2645 C 251.741 1.50308 0.781278 0
M  V30 2646 O 252.947 1.66322 0.688251 0
M  V30 2647 H 249.322 0.751758 0.0190616 0
M  V30 2648 H 251.293 2.88011 -0.780528 0
M  V30 2649 C 250.042 3.34978 0.93195 0
M  V30 2650 H 249.365 3.98345 0.340817 0
M  V30 2651 H 250.805 4.00936 1.37936 0
M  V30 2652 C 249.264 2.67925 2.04249 0
M  V30 2653 O 249.794 2.51788 3.12995 0
M  V30 2654 N 248 2.2681 1.81675 0
M  V30 2655 H 247.547 2.40135 0.932363 0
M  V30 2656 H 247.505 1.8228 2.56167 0
M  V30 2657 N 251.277 0.427512 1.51691 0
M  V30 2658 C 252.524 -0.142229 2.02 0
M  V30 2659 C 252.852 -1.43566 1.31221 0
M  V30 2660 O 252.107 -1.91298 0.412744 0
M  V30 2661 C 252.406 -0.418249 3.54944 0
M  V30 2662 C 252.072 0.788187 4.43958 0
M  V30 2663 C 250.734 1.11906 4.68007 0
M  V30 2664 C 253.086 1.59347 4.96244 0
M  V30 2665 C 250.414 2.25608 5.41588 0
M  V30 2666 C 252.766 2.7214 5.71072 0
M  V30 2667 C 251.43 3.05692 5.93387 0
M  V30 2668 H 250.7 -0.0520451 0.73917 0
M  V30 2669 H 253.347 0.572697 1.82736 0
M  V30 2670 H 251.652 -1.21496 3.72486 0
M  V30 2671 H 253.349 -0.872339 3.91397 0
M  V30 2672 H 249.939 0.520344 4.2543 0
M  V30 2673 H 254.123 1.35106 4.77556 0
M  V30 2674 H 249.379 2.51929 5.57083 0
M  V30 2675 H 253.553 3.34914 6.10578 0
M  V30 2676 H 251.18 3.9391 6.50184 0
M  V30 2677 N 252.755 -1.56801 0.158532 0
M  V30 2678 C 253.687 -2.14488 -0.807923 0
M  V30 2679 C 254.7 -1.09721 -1.20271 0
M  V30 2680 O 255.889 -1.36956 -1.14478 0
M  V30 2681 C 252.989 -2.66217 -2.09718 0
M  V30 2682 C 252.162 -3.95507 -1.86796 0
M  V30 2683 C 251.221 -4.3243 -2.99818 0
M  V30 2684 O 250.247 -5.00543 -2.71008 0
M  V30 2685 N 251.449 -3.92947 -4.27285 0
M  V30 2686 H 254.214 -2.98042 -0.314816 0
M  V30 2687 H 251.775 -1.61881 -0.0246692 0
M  V30 2688 H 253.767 -2.87924 -2.84398 0
M  V30 2689 H 252.337 -1.87324 -2.50257 0
M  V30 2690 H 251.557 -3.82309 -0.96089 0
M  V30 2691 H 252.845 -4.79972 -1.68833 0
M  V30 2692 H 252.243 -3.38087 -4.53557 0
M  V30 2693 H 250.8 -4.19681 -4.9871 0
M  V30 2694 N 254.233 0.115231 -1.57178 0
M  V30 2695 C 255.163 1.1423 -2.03651 0
M  V30 2696 C 256.144 1.42967 -0.921655 0
M  V30 2697 O 257.329 1.53343 -1.19162 0
M  V30 2698 C 254.459 2.4675 -2.44401 0
M  V30 2699 C 253.413 2.32467 -3.59365 0
M  V30 2700 C 252.739 3.69984 -3.86026 0
M  V30 2701 C 254.039 1.78203 -4.90959 0
M  V30 2702 H 255.733 0.755749 -2.89705 0
M  V30 2703 H 253.279 0.362093 -1.39373 0
M  V30 2704 H 255.232 3.18854 -2.75517 0
M  V30 2705 H 253.956 2.87302 -1.55322 0
M  V30 2706 H 252.615 1.62811 -3.28463 0
M  V30 2707 H 252.263 4.08028 -2.94147 0
M  V30 2708 H 251.963 3.61279 -4.63412 0
M  V30 2709 H 253.487 4.43587 -4.19599 0
M  V30 2710 H 254.901 2.40128 -5.20587 0
M  V30 2711 H 253.298 1.8031 -5.72371 0
M  V30 2712 H 254.368 0.739876 -4.79222 0
M  V30 2713 N 255.711 1.52812 0.385517 0
M  V30 2714 C 256.957 1.68275 1.13188 0
M  V30 2715 C 257.29 0.423179 1.89533 0
M  V30 2716 O 256.565 -0.579113 1.85679 0
M  V30 2717 C 256.848 2.92001 2.1073 0
M  V30 2718 C 256.701 4.28067 1.38125 0
M  V30 2719 C 258.02 3.11283 3.11113 0
M  V30 2720 H 255.139 0.612352 0.410115 0
M  V30 2721 H 257.781 1.85415 0.414869 0
M  V30 2722 H 255.931 2.77519 2.71874 0
M  V30 2723 H 257.603 4.54324 0.799187 0
M  V30 2724 H 255.846 4.28388 0.683092 0
M  V30 2725 H 256.517 5.10733 2.09417 0
M  V30 2726 H 258.993 3.2482 2.6006 0
M  V30 2727 H 257.869 3.99325 3.76605 0
M  V30 2728 H 258.13 2.25656 3.80173 0
M  V30 2729 N 257.189 -0.644168 1.43834 0
M  V30 2730 C 258.137 -1.77793 1.49974 0
M  V30 2731 C 259.131 -1.65253 0.372536 0
M  V30 2732 O 260.337 -1.7149 0.546924 0
M  V30 2733 H 256.712 -0.58675 0.47035 0
M  V30 2734 H 258.683 -1.69736 2.45423 0
M  V30 2735 C 257.432 -3.16087 1.4486 0
M  V30 2736 H 256.755 -3.26378 2.30905 0
M  V30 2737 H 258.195 -3.95349 1.53217 0
M  V30 2738 C 256.654 -3.36484 0.167463 0
M  V30 2739 O 257.184 -3.94298 -0.767609 0
M  V30 2740 N 255.39 -2.90504 0.0747556 0
M  V30 2741 H 254.937 -2.4364 0.836507 0
M  V30 2742 H 254.895 -3.04527 -0.781714 0
M  V30 2743 N 258.668 -1.30515 -0.883378 0
M  V30 2744 C 259.898 -1.22182 -1.66599 0
M  V30 2745 C 260.306 0.217507 -1.87946 0
M  V30 2746 O 259.649 1.1554 -1.42815 0
M  V30 2747 C 259.711 -1.88146 -3.06335 0
M  V30 2748 C 259.375 -3.37476 -3.08154 0
M  V30 2749 C 260.372 -4.33443 -2.87094 0
M  V30 2750 C 258.057 -3.7895 -3.29701 0
M  V30 2751 C 260.051 -5.68858 -2.8754 0
M  V30 2752 C 257.738 -5.14482 -3.29776 0
M  V30 2753 C 258.736 -6.09246 -3.0872 0
M  V30 2754 O 258.424 -7.42302 -3.08615 0
M  V30 2755 H 258.156 -0.423898 -0.52658 0
M  V30 2756 H 260.71 -1.72703 -1.11188 0
M  V30 2757 H 258.94 -1.32157 -3.63416 0
M  V30 2758 H 260.629 -1.7391 -3.66756 0
M  V30 2759 H 261.395 -4.02733 -2.70243 0
M  V30 2760 H 257.274 -3.05631 -3.45124 0
M  V30 2761 H 260.818 -6.428 -2.71024 0
M  V30 2762 H 256.715 -5.44832 -3.46163 0
M  V30 2763 H 257.483 -7.5131 -3.24769 0
M  V30 2764 N 260.146 1.09593 -1.13257 0
M  V30 2765 C 261.376 1.85231 -0.915049 0
M  V30 2766 C 261.784 1.81345 0.539498 0
M  V30 2767 O 261.127 1.20664 1.38513 0
M  V30 2768 C 261.189 3.34275 -1.3229 0
M  V30 2769 C 260.853 3.6191 -2.79052 0
M  V30 2770 C 261.85 3.57777 -3.77216 0
M  V30 2771 C 259.535 3.90309 -3.16171 0
M  V30 2772 C 261.529 3.81652 -5.1051 0
M  V30 2773 C 259.216 4.13839 -4.49644 0
M  V30 2774 C 260.214 4.09502 -5.46623 0
M  V30 2775 O 259.902 4.32426 -6.77689 0
M  V30 2776 H 259.634 0.591997 -0.326367 0
M  V30 2777 H 262.188 1.394 -1.50854 0
M  V30 2778 H 260.418 3.80805 -0.672667 0
M  V30 2779 H 262.107 3.9132 -1.07812 0
M  V30 2780 H 262.873 3.35865 -3.49885 0
M  V30 2781 H 258.752 3.92811 -2.41289 0
M  V30 2782 H 262.296 3.78182 -5.86195 0
M  V30 2783 H 258.193 4.35232 -4.767 0
M  V30 2784 H 258.961 4.49896 -6.83766 0
M  V30 2785 N 261.624 0.925811 1.2754 0
M  V30 2786 C 262.571 0.422045 2.26908 0
M  V30 2787 C 263.541 -0.510029 1.58076 0
M  V30 2788 O 264.726 -0.429599 1.85901 0
M  V30 2789 C 261.866 -0.320837 3.43605 0
M  V30 2790 C 260.979 0.64513 4.27156 0
M  V30 2791 C 260.114 -0.117405 5.3107 0
M  V30 2792 C 259.153 0.841391 6.0629 0
M  V30 2793 N 258.29 0.111604 7.02011 0
M  V30 2794 H 263.13 1.27441 2.69375 0
M  V30 2795 H 260.667 0.639697 1.32462 0
M  V30 2796 H 262.625 -0.76785 4.10073 0
M  V30 2797 H 261.255 -1.13745 3.02096 0
M  V30 2798 H 260.307 1.21067 3.6062 0
M  V30 2799 H 261.619 1.37797 4.79389 0
M  V30 2800 H 260.773 -0.624422 6.03478 0
M  V30 2801 H 259.512 -0.883219 4.79636 0
M  V30 2802 H 258.517 1.35967 5.32722 0
M  V30 2803 H 259.742 1.60696 6.59813 0
M  V30 2804 H 257.688 -0.635999 6.5291 0
M  V30 2805 H 257.605 0.784044 7.51923 0
M  V30 2806 H 258.873 -0.374823 7.78598 0
M  V30 2807 N 263.102 -1.41638 0.69111 0
M  V30 2808 C 264.065 -2.29178 0.0319786 0
M  V30 2809 C 265.065 -1.44153 -0.712496 0
M  V30 2810 O 266.255 -1.65354 -0.548053 0
M  V30 2811 C 263.387 -3.26952 -0.965161 0
M  V30 2812 H 264.58 -2.88959 0.802681 0
M  V30 2813 H 262.133 -1.4955 0.454356 0
M  V30 2814 H 262.868 -2.72142 -1.76378 0
M  V30 2815 H 262.653 -3.89685 -0.434522 0
M  V30 2816 H 264.143 -3.92561 -1.42428 0
M  V30 2817 N 264.58 -0.43555 -1.51462 0
M  V30 2818 C 265.49 0.383001 -2.31453 0
M  V30 2819 C 266.506 1.02931 -1.4029 0
M  V30 2820 O 267.682 1.02507 -1.73362 0
M  V30 2821 C 264.747 1.47043 -3.13973 0
M  V30 2822 C 263.808 0.844433 -4.20913 0
M  V30 2823 C 263.041 1.88004 -4.9949 0
M  V30 2824 O 263.264 3.10199 -4.78678 0
M  V30 2825 O 262.198 1.47157 -5.83634 0
M  V30 2826 H 266.024 -0.269964 -3.02498 0
M  V30 2827 H 263.609 -0.19813 -1.4808 0
M  V30 2828 H 265.491 2.10113 -3.65281 0
M  V30 2829 H 264.166 2.10751 -2.45695 0
M  V30 2830 H 263.073 0.175729 -3.73687 0
M  V30 2831 H 264.406 0.250869 -4.9156 0
M  V30 2832 N 266.058 1.56714 -0.166846 0
M  V30 2833 C 267.021 2.16539 0.751232 0
M  V30 2834 C 268.021 1.11228 1.16125 0
M  V30 2835 O 269.211 1.36765 1.07894 0
M  V30 2836 C 266.343 2.74462 2.02196 0
M  V30 2837 H 267.536 2.99013 0.230499 0
M  V30 2838 H 265.089 1.56081 0.0826982 0
M  V30 2839 H 265.824 1.95709 2.58589 0
M  V30 2840 H 265.609 3.51527 1.73698 0
M  V30 2841 H 267.099 3.20489 2.67725 0
M  V30 2842 N 267.536 -0.106894 1.57237 0
M  V30 2843 C 268.782 -0.81373 1.85759 0
M  V30 2844 C 269.115 -1.78952 0.754315 0
M  V30 2845 O 268.39 -1.93029 -0.23879 0
M  V30 2846 C 268.673 -1.55293 3.24894 0
M  V30 2847 C 268.526 -0.595929 4.45835 0
M  V30 2848 C 269.845 -2.5063 3.61763 0
M  V30 2849 H 266.964 -0.294369 0.67566 0
M  V30 2850 H 269.606 -0.0776472 1.89841 0
M  V30 2851 H 267.756 -2.1804 3.21544 0
M  V30 2852 H 269.428 0.0236262 4.61294 0
M  V30 2853 H 267.671 0.0916191 4.33703 0
M  V30 2854 H 268.342 -1.15004 5.39887 0
M  V30 2855 H 270.818 -1.97982 3.65981 0
M  V30 2856 H 269.694 -2.99376 4.60071 0
M  V30 2857 H 269.955 -3.3385 2.89821 0
M  V30 2858 N 269.014 -1.53014 -0.377408 0
M  V30 2859 C 270.291 -1.59215 -1.13622 0
M  V30 2860 C 270.671 -0.392407 -2.07421 0
M  V30 2861 O 270.019 0.618342 -2.19975 0
M  V30 2862 C 270.229 -2.93669 -1.88573 0
M  V30 2863 C 271.577 -3.47822 -2.43526 0
M  V30 2864 O 272.601 -2.9562 -1.98715 0
M  V30 2865 O 271.46 -4.39055 -3.25412 0
M  V30 2866 H 268.554 -0.642625 -0.52054 0
M  V30 2867 H 271.1 -1.65353 -0.381625 0
M  V30 2868 H 269.872 -3.7243 -1.20048 0
M  V30 2869 H 269.495 -2.90968 -2.70968 0
M  V30 2870 N 270.492 0.636531 -1.44174 0
M  V30 2871 C 271.722 1.42146 -1.49927 0
M  V30 2872 C 272.13 1.88812 -0.121063 0
M  V30 2873 O 271.473 1.61126 0.882267 0
M  V30 2874 C 271.535 2.67883 -2.39748 0
M  V30 2875 C 271.199 2.43048 -3.8701 0
M  V30 2876 C 272.196 2.05216 -4.77684 0
M  V30 2877 C 269.881 2.56856 -4.3166 0
M  V30 2878 C 271.875 1.81512 -6.11009 0
M  V30 2879 C 269.562 2.32766 -5.65034 0
M  V30 2880 C 270.56 1.95152 -6.54526 0
M  V30 2881 O 270.248 1.71326 -7.85431 0
M  V30 2882 H 269.98 0.442567 -0.51099 0
M  V30 2883 H 272.534 0.786158 -1.8976 0
M  V30 2884 H 270.764 3.34032 -1.94832 0
M  V30 2885 H 272.453 3.29874 -2.36513 0
M  V30 2886 H 273.219 1.94111 -4.44462 0
M  V30 2887 H 269.098 2.85104 -3.62266 0
M  V30 2888 H 272.642 1.52077 -6.80822 0
M  V30 2889 H 268.539 2.43479 -5.97819 0
M  V30 2890 H 269.307 1.85616 -7.97176 0
M  V30 2891 N 271.97 1.30982 0.876444 0
M  V30 2892 C 272.902 1.13902 1.98894 0
M  V30 2893 C 273.915 0.0798815 1.62604 0
M  V30 2894 O 275.104 0.326743 1.75484 0
M  V30 2895 C 272.204 0.716699 3.31235 0
M  V30 2896 C 271.377 1.85945 3.95908 0
M  V30 2897 C 270.436 1.42426 5.06558 0
M  V30 2898 O 269.462 2.13287 5.27729 0
M  V30 2899 N 270.664 0.308025 5.79682 0
M  V30 2900 H 273.429 2.09724 2.14094 0
M  V30 2901 H 270.99 1.2323 1.05004 0
M  V30 2902 H 272.982 0.408403 4.02634 0
M  V30 2903 H 271.552 -0.149719 3.12241 0
M  V30 2904 H 270.772 2.33541 3.17573 0
M  V30 2905 H 272.06 2.62503 4.35855 0
M  V30 2906 H 271.458 -0.282241 5.64995 0
M  V30 2907 H 270.015 0.0592282 6.51773 0
M  V30 2908 N 273.449 -1.08991 1.13837 0
M  V30 2909 C 274.396 -2.15748 0.819835 0
M  V30 2910 C 275.366 -1.64636 -0.220026 0
M  V30 2911 O 276.551 -1.90582 -0.0912757 0
M  V30 2912 C 273.691 -3.4382 0.296913 0
M  V30 2913 C 272.804 -4.0881 1.39636 0
M  V30 2914 C 271.939 -5.24655 0.831314 0
M  V30 2915 C 270.978 -5.81575 1.90886 0
M  V30 2916 N 270.115 -6.88774 1.36142 0
M  V30 2917 H 274.955 -2.42338 1.73426 0
M  V30 2918 H 272.492 -1.18935 0.865613 0
M  V30 2919 H 274.45 -4.17193 -0.0244339 0
M  V30 2920 H 273.08 -3.17535 -0.580628 0
M  V30 2921 H 272.132 -3.33258 1.83422 0
M  V30 2922 H 273.444 -4.47141 2.21058 0
M  V30 2923 H 272.598 -6.04942 0.461515 0
M  V30 2924 H 271.337 -4.87698 -0.013932 0
M  V30 2925 H 270.342 -4.99946 2.28767 0
M  V30 2926 H 271.567 -6.20592 2.75758 0
M  V30 2927 H 269.513 -6.53788 0.538254 0
M  V30 2928 H 269.43 -7.25898 2.11208 0
M  V30 2929 H 270.698 -7.72806 1.01933 0
M  V30 2930 N 274.927 -0.932562 -1.27047 0
M  V30 2931 C 276.173 -0.576412 -1.94436 0
M  V30 2932 C 276.506 0.880891 -1.73072 0
M  V30 2933 O 275.781 1.62905 -1.06264 0
M  V30 2934 C 276.064 -0.909031 -3.48437 0
M  V30 2935 C 275.917 -2.42044 -3.79123 0
M  V30 2936 C 277.236 -0.418341 -4.38107 0
M  V30 2937 H 274.355 -0.210888 -0.706184 0
M  V30 2938 H 276.997 -1.16522 -1.50075 0
M  V30 2939 H 275.147 -0.407947 -3.86352 0
M  V30 2940 H 276.819 -2.99359 -3.50973 0
M  V30 2941 H 275.062 -2.86758 -3.25503 0
M  V30 2942 H 275.733 -2.6037 -4.86736 0
M  V30 2943 H 278.209 -0.847856 -4.0737 0
M  V30 2944 H 277.085 -0.679981 -5.44672 0
M  V30 2945 H 277.346 0.681642 -4.36814 0
M  V30 2946 N 276.405 1.4127 -0.698611 0
M  V30 2947 C 277.335 2.33447 -0.049629 0
M  V30 2948 C 278.316 1.51982 0.763898 0
M  V30 2949 O 279.501 1.80509 0.716257 0
M  V30 2950 C 276.631 3.35828 0.885267 0
M  V30 2951 C 275.585 4.27627 0.178613 0
M  V30 2952 C 274.911 5.20406 1.22807 0
M  V30 2953 C 276.211 5.13459 -0.956933 0
M  V30 2954 H 277.905 2.87966 -0.81951 0
M  V30 2955 H 275.451 1.38461 -0.395538 0
M  V30 2956 H 277.404 3.9924 1.34854 0
M  V30 2957 H 276.128 2.79666 1.68685 0
M  V30 2958 H 274.787 3.65643 -0.26466 0
M  V30 2959 H 274.435 4.60558 2.02226 0
M  V30 2960 H 274.135 5.82661 0.760239 0
M  V30 2961 H 275.659 5.86695 1.69179 0
M  V30 2962 H 277.073 5.70421 -0.573805 0
M  V30 2963 H 275.47 5.8467 -1.35205 0
M  V30 2964 H 276.54 4.50443 -1.79524 0
M  V30 2965 N 277.883 0.443576 1.51229 0
M  V30 2966 C 279.16 -0.181038 1.9476 0
M  V30 2967 C 279.54 -1.59523 1.38259 0
M  V30 2968 O 278.888 -2.2122 0.572198 0
M  V30 2969 C 279.098 -0.152422 3.48667 0
M  V30 2970 C 280.446 -0.354923 4.23114 0
M  V30 2971 O 281.47 -0.230257 3.55455 0
M  V30 2972 O 280.329 -0.603674 5.43156 0
M  V30 2973 H 277.423 -0.1266 0.817252 0
M  V30 2974 H 279.969 0.502004 1.62105 0
M  V30 2975 H 278.741 0.836022 3.82265 0
M  V30 2976 H 278.364 -0.878107 3.87782 0
M  V30 2977 N 279.361 -1.56624 0.175154 0
M  V30 2978 C 280.638 -1.88688 -0.515373 0
M  V30 2979 C 281.018 -1.08564 -1.81044 0
M  V30 2980 O 280.366 -0.180703 -2.27784 0
M  V30 2981 C 280.576 -3.40768 -0.753552 0
M  V30 2982 C 281.924 -4.10587 -1.08184 0
M  V30 2983 O 282.948 -3.46106 -0.841961 0
M  V30 2984 O 281.807 -5.24512 -1.53459 0
M  V30 2985 H 278.901 -0.78301 -0.26613 0
M  V30 2986 H 281.447 -1.68347 0.213877 0
M  V30 2987 H 280.219 -3.90965 0.161829 0
M  V30 2988 H 279.842 -3.66733 -1.53598 0
M  V30 2989 N 280.839 0.0985539 -1.57292 0
M  V30 2990 C 282.067 0.816318 -1.90115 0
M  V30 2991 C 282.482 1.72451 -0.768509 0
M  V30 2992 O 281.839 1.80643 0.259687 0
M  V30 2993 C 281.89 1.63259 -3.22535 0
M  V30 2994 O 281.611 0.760934 -4.31441 0
M  V30 2995 C 283.112 2.45372 -3.69199 0
M  V30 2996 H 280.332 0.233595 -0.629027 0
M  V30 2997 H 282.876 0.0768229 -2.04356 0
M  V30 2998 H 281.031 2.32463 -3.09903 0
M  V30 2999 H 281.445 1.32595 -5.07463 0
M  V30 3000 H 282.919 2.98144 -4.64558 0
M  V30 3001 H 283.396 3.23677 -2.96867 0
M  V30 3002 H 284.002 1.81373 -3.84687 0
M  V30 3003 N 282.317 1.53212 0.369288 0
M  V30 3004 C 283.25 1.74166 1.4745 0
M  V30 3005 C 284.228 0.589923 1.51521 0
M  V30 3006 O 285.412 0.822078 1.69629 0
M  V30 3007 C 282.539 1.81711 2.8583 0
M  V30 3008 C 281.585 3.03649 2.99499 0
M  V30 3009 S 282.418 4.63242 2.6864 0
M  V30 3010 C 283.574 4.7363 4.09177 0
M  V30 3011 H 283.807 2.67636 1.29454 0
M  V30 3012 H 281.34 1.43754 0.563396 0
M  V30 3013 H 283.298 1.86743 3.65564 0
M  V30 3014 H 281.959 0.89299 3.01139 0
M  V30 3015 H 281.152 3.05526 4.00836 0
M  V30 3016 H 280.754 2.9671 2.27683 0
M  V30 3017 H 283.046 4.53456 5.03372 0
M  V30 3018 H 283.989 5.75682 4.12306 0
M  V30 3019 H 284.397 4.02295 3.96004 0
M  V30 3020 N 283.795 -0.628877 1.44509 0
M  V30 3021 C 284.758 -1.72263 1.51188 0
M  V30 3022 C 285.758 -1.55907 0.39367 0
M  V30 3023 O 286.948 -1.61361 0.656377 0
M  V30 3024 C 284.08 -3.11365 1.38798 0
M  V30 3025 H 285.273 -1.67714 2.4862 0
M  V30 3026 H 282.826 -0.842737 1.31634 0
M  V30 3027 H 283.561 -3.21507 0.424693 0
M  V30 3028 H 283.346 -3.24644 2.19884 0
M  V30 3029 H 284.836 -3.91075 1.46458 0
M  V30 3030 N 285.273 -1.31445 -0.869486 0
M  V30 3031 C 286.519 -1.21337 -1.62496 0
M  V30 3032 C 286.852 0.227872 -1.92858 0
M  V30 3033 O 286.127 1.16094 -1.56053 0
M  V30 3034 C 286.41 -2.05814 -2.95487 0
M  V30 3035 C 286.263 -3.5824 -2.72 0
M  V30 3036 C 287.582 -1.9079 -3.96594 0
M  V30 3037 H 284.701 -0.442135 -0.589649 0
M  V30 3038 H 287.343 -1.6124 -1.00507 0
M  V30 3039 H 285.493 -1.71913 -3.48394 0
M  V30 3040 H 287.165 -4.0228 -2.25762 0
M  V30 3041 H 285.408 -3.81647 -2.06224 0
M  V30 3042 H 286.079 -4.12657 -3.66631 0
M  V30 3043 H 288.555 -2.20459 -3.52898 0
M  V30 3044 H 287.431 -2.52199 -4.87531 0
M  V30 3045 H 287.692 -0.871341 -4.33428 0
M  V30 3046 N 286.751 1.08385 -1.14413 0
M  V30 3047 C 287.714 2.13486 -0.834048 0
M  V30 3048 C 288.714 1.59988 0.161418 0
M  V30 3049 O 289.904 1.74071 -0.0669575 0
M  V30 3050 C 287.036 3.4003 -0.243354 0
M  V30 3051 H 288.229 2.42425 -1.7655 0
M  V30 3052 H 285.782 1.24101 -0.950189 0
M  V30 3053 H 286.517 3.16726 0.696807 0
M  V30 3054 H 286.302 3.80157 -0.960367 0
M  V30 3055 H 287.792 4.17577 -0.0436242 0
M  V30 3056 N 288.23 0.939286 1.26551 0
M  V30 3057 C 289.507 0.5038 1.89001 0
M  V30 3058 C 289.887 -1.01854 1.84903 0
M  V30 3059 O 289.235 -1.87773 1.30206 0
M  V30 3060 C 289.445 1.063 3.32417 0
M  V30 3061 C 290.793 1.13051 4.09273 0
M  V30 3062 O 291.817 1.01345 3.41479 0
M  V30 3063 O 290.676 1.31233 5.30509 0
M  V30 3064 H 287.77 0.163897 0.810597 0
M  V30 3065 H 290.316 1.03173 1.34735 0
M  V30 3066 H 289.088 2.10665 3.29752 0
M  V30 3067 H 288.711 0.517408 3.94219 0
M  V30 3068 N 289.708 -1.40897 0.706093 0
M  V30 3069 C 290.957 -2.00284 0.238574 0
M  V30 3070 C 291.27 -1.56604 -1.17194 0
M  V30 3071 O 292.476 -2.08624 -1.73748 0
M  V30 3072 C 290.932 -3.57934 0.375623 0
M  V30 3073 C 290.54 -4.10591 1.79217 0
M  V30 3074 C 292.284 -4.24488 -0.0315857 0
M  V30 3075 C 290.191 -5.60712 1.88032 0
M  V30 3076 H 289.121 -0.749144 0.0854398 0
M  V30 3077 H 291.772 -1.61251 0.875813 0
M  V30 3078 H 290.154 -3.94622 -0.330042 0
M  V30 3079 H 291.328 -3.85301 2.52745 0
M  V30 3080 H 289.643 -3.56601 2.15 0
M  V30 3081 H 292.24 -5.34698 0.0136842 0
M  V30 3082 H 292.583 -4.02261 -1.072 0
M  V30 3083 H 293.116 -3.92873 0.624181 0
M  V30 3084 H 289.855 -5.87781 2.90161 0
M  V30 3085 H 289.375 -5.87896 1.18903 0
M  V30 3086 H 291.054 -6.25658 1.64805 0
M  V30 3087 N 291.186 -0.45159 -1.50991 0
M  V30 3088 C 292.116 0.342898 -2.30969 0
M  V30 3089 C 293.097 1.00815 -1.37005 0
M  V30 3090 O 294.282 1.00907 -1.65926 0
M  V30 3091 C 291.412 1.43637 -3.16205 0
M  V30 3092 C 290.366 0.893818 -4.18563 0
M  V30 3093 C 289.692 2.08411 -4.92411 0
M  V30 3094 C 290.992 -0.0815568 -5.22236 0
M  V30 3095 H 292.686 -0.324556 -2.97636 0
M  V30 3096 H 290.232 -0.157531 -1.43136 0
M  V30 3097 H 292.185 1.9995 -3.70942 0
M  V30 3098 H 290.909 2.13232 -2.47386 0
M  V30 3099 H 289.568 0.352798 -3.64898 0
M  V30 3100 H 289.216 2.76658 -4.20082 0
M  V30 3101 H 288.916 1.72741 -5.61636 0
M  V30 3102 H 290.44 2.65251 -5.49976 0
M  V30 3103 H 291.854 0.391742 -5.7196 0
M  V30 3104 H 290.251 -0.351551 -5.99069 0
M  V30 3105 H 291.321 -1.01374 -4.74185 0
M  V30 3106 N 292.664 1.56529 -0.183458 0
M  V30 3107 C 293.892 2.01623 0.464285 0
M  V30 3108 C 294.307 1.06366 1.55986 0
M  V30 3109 O 293.664 0.0665398 1.82379 0
M  V30 3110 C 293.715 3.46475 1.03139 0
M  V30 3111 O 293.436 4.38095 -0.0204675 0
M  V30 3112 C 294.937 4.0703 1.75617 0
M  V30 3113 H 292.157 0.660596 0.117704 0
M  V30 3114 H 294.701 2.02451 -0.288751 0
M  V30 3115 H 292.856 3.46383 1.73486 0
M  V30 3116 H 293.27 5.22973 0.399952 0
M  V30 3117 H 294.744 5.10271 2.10542 0
M  V30 3118 H 295.221 3.49819 2.65563 0
M  V30 3119 H 295.827 4.1086 1.09882 0
M  V30 3120 N 294.142 -0.090211 1.57342 0
M  V30 3121 C 295.367 -0.810082 1.90925 0
M  V30 3122 C 295.792 -1.71248 0.778187 0
M  V30 3123 O 295.15 -1.79278 -0.269991 0
M  V30 3124 C 295.198 -1.59529 3.23393 0
M  V30 3125 O 294.302 -2.70461 3.11327 0
M  V30 3126 H 293.643 -0.222231 0.625707 0
M  V30 3127 H 296.173 -0.0639716 2.045 0
M  V30 3128 H 296.183 -1.97847 3.5682 0
M  V30 3129 H 294.858 -0.933055 4.05299 0
M  V30 3130 H 293.435 -2.35135 2.89423 0
M  V30 3131 N 295.62 -1.53406 -0.361157 0
M  V30 3132 C 296.553 -1.74946 -1.46524 0
M  V30 3133 C 297.531 -0.59795 -1.51206 0
M  V30 3134 O 298.715 -0.831062 -1.69191 0
M  V30 3135 C 295.842 -1.83224 -2.84863 0
M  V30 3136 C 294.888 -3.05233 -2.97885 0
M  V30 3137 S 295.721 -4.6466 -2.66179 0
M  V30 3138 C 296.877 -4.75793 -4.06659 0
M  V30 3139 H 297.11 -2.68319 -1.28033 0
M  V30 3140 H 294.643 -1.44051 -0.555764 0
M  V30 3141 H 296.601 -1.88679 -3.64569 0
M  V30 3142 H 295.262 -0.908948 -3.00661 0
M  V30 3143 H 294.455 -3.07648 -3.9921 0
M  V30 3144 H 294.057 -2.97913 -2.26106 0
M  V30 3145 H 296.349 -4.5612 -5.0096 0
M  V30 3146 H 297.292 -5.7786 -4.09247 0
M  V30 3147 H 297.7 -4.04389 -3.93865 0
M  V30 3148 N 297.098 0.621204 -1.44841 0
M  V30 3149 C 298.344 1.3826 -1.48365 0
M  V30 3150 C 298.677 1.93831 -0.119624 0
M  V30 3151 O 297.952 1.74251 0.864111 0
M  V30 3152 C 298.235 2.54058 -2.55199 0
M  V30 3153 C 298.088 2.03772 -4.00995 0
M  V30 3154 C 299.407 3.56225 -2.58442 0
M  V30 3155 H 296.526 0.501374 -0.540179 0
M  V30 3156 H 299.168 0.7015 -1.76576 0
M  V30 3157 H 297.318 3.12162 -2.31274 0
M  V30 3158 H 298.99 1.50423 -4.36086 0
M  V30 3159 H 297.233 1.34876 -4.12299 0
M  V30 3160 H 297.904 2.87185 -4.71411 0
M  V30 3161 H 300.38 3.07939 -2.79844 0
M  V30 3162 H 299.256 4.34756 -3.3508 0
M  V30 3163 H 299.517 4.10949 -1.63013 0
M  V30 3164 N 298.576 1.31904 0.862503 0
M  V30 3165 C 299.822 1.22197 1.61851 0
M  V30 3166 C 300.155 -0.217641 1.92977 0
M  V30 3167 O 299.43 -1.15264 1.56666 0
M  V30 3168 C 299.713 2.07378 2.94391 0
M  V30 3169 C 299.566 3.59678 2.70096 0
M  V30 3170 C 300.885 1.92891 3.95577 0
M  V30 3171 H 298.004 0.445255 0.587296 0
M  V30 3172 H 300.646 1.6177 0.99651 0
M  V30 3173 H 298.796 1.73758 3.47477 0
M  V30 3174 H 300.468 4.03472 2.23625 0
M  V30 3175 H 298.711 3.82735 2.04197 0
M  V30 3176 H 299.382 4.14595 3.64438 0
M  V30 3177 H 301.858 2.22327 3.51724 0
M  V30 3178 H 300.734 2.54781 4.86187 0
M  V30 3179 H 300.995 0.894315 4.3296 0
M  V30 3180 N 300.054 -1.07777 1.14986 0
M  V30 3181 C 301.331 -1.7699 0.832695 0
M  V30 3182 C 301.711 -2.001 -0.672561 0
M  V30 3183 O 301.059 -1.61598 -1.6155 0
M  V30 3184 C 301.269 -3.08139 1.63863 0
M  V30 3185 C 302.617 -3.8256 1.84208 0
M  V30 3186 O 303.641 -3.17939 1.60603 0
M  V30 3187 O 302.5 -4.98612 2.23714 0
M  V30 3188 H 299.594 -0.768389 0.305791 0
M  V30 3189 H 302.14 -1.14182 1.25541 0
M  V30 3190 H 300.912 -2.86909 2.6608 0
M  V30 3191 H 300.535 -3.78678 1.21197 0
M  V30 3192 N 301.532 -0.945985 -1.26051 0
M  V30 3193 C 302.778 -0.597002 -1.93814 0
M  V30 3194 C 303.111 0.862484 -1.73997 0
M  V30 3195 O 302.386 1.61769 -1.07986 0
M  V30 3196 C 302.669 -0.945937 -3.47454 0
M  V30 3197 C 302.522 -2.46052 -3.76535 0
M  V30 3198 C 303.841 -0.464785 -4.37639 0
M  V30 3199 H 300.96 -0.218366 -0.703907 0
M  V30 3200 H 303.602 -1.18107 -1.48831 0
M  V30 3201 H 301.752 -0.448902 -3.85898 0
M  V30 3202 H 303.424 -3.03065 -3.47778 0
M  V30 3203 H 301.667 -2.90194 -3.22444 0
M  V30 3204 H 302.338 -2.65517 -4.83947 0
M  V30 3205 H 304.814 -0.891016 -4.06448 0
M  V30 3206 H 303.69 -0.737712 -5.4392 0
M  V30 3207 H 303.951 0.635274 -4.37512 0
M  V30 3208 N 303.011 1.40521 -0.713556 0
M  V30 3209 C 304.236 2.05759 -0.26035 0
M  V30 3210 C 304.661 1.53403 1.08854 0
M  V30 3211 O 304.019 0.668535 1.68524 0
M  V30 3212 C 304.067 3.59745 -0.248122 0
M  V30 3213 O 303.171 4.05123 0.77131 0
M  V30 3214 H 302.512 0.652564 -0.122703 0
M  V30 3215 H 305.042 1.79958 -0.973467 0
M  V30 3216 H 305.052 4.07911 -0.0851129 0
M  V30 3217 H 303.727 3.97218 -1.2325 0
M  V30 3218 H 302.304 3.68422 0.57619 0
M  V30 3219 N 304.489 0.459591 1.5075 0
M  V30 3220 C 305.766 -0.160371 1.94941 0
M  V30 3221 C 306.146 -1.58048 1.39943 0
M  V30 3222 O 305.494 -2.206 0.595629 0
M  V30 3223 C 305.704 -0.115432 3.48809 0
M  V30 3224 C 307.052 -0.310026 4.23467 0
M  V30 3225 O 308.076 -0.192543 3.55679 0
M  V30 3226 O 306.935 -0.546031 5.43765 0
M  V30 3227 H 304.029 -0.117925 0.818549 0
M  V30 3228 H 306.575 0.519169 1.61563 0
M  V30 3229 H 305.347 0.87652 3.81357 0
M  V30 3230 H 304.97 -0.836928 3.88692 0
M  V30 3231 N 305.967 -1.56429 0.191757 0
M  V30 3232 C 306.897 -2.21937 -0.725696 0
M  V30 3233 C 307.878 -1.1814 -1.2238 0
M  V30 3234 O 309.063 -1.46636 -1.27325 0
M  V30 3235 C 306.193 -2.87611 -1.94672 0
M  V30 3236 C 305.147 -3.97623 -1.58366 0
M  V30 3237 C 304.473 -4.50446 -2.88102 0
M  V30 3238 C 305.773 -5.16197 -0.796133 0
M  V30 3239 H 307.467 -2.98861 -0.179606 0
M  V30 3240 H 305.013 -1.43749 -0.0849464 0
M  V30 3241 H 306.966 -3.3212 -2.59373 0
M  V30 3242 H 305.69 -2.08087 -2.51728 0
M  V30 3243 H 304.349 -3.53801 -0.960247 0
M  V30 3244 H 303.997 -3.67688 -3.43241 0
M  V30 3245 H 303.697 -5.24675 -2.64556 0
M  V30 3246 H 305.221 -4.97654 -3.53798 0
M  V30 3247 H 306.635 -5.57271 -1.34618 0
M  V30 3248 H 305.032 -5.96471 -0.658928 0
M  V30 3249 H 306.102 -4.84473 0.203478 0
M  V30 3250 N 307.445 0.0818655 -1.57387 0
M  V30 3251 C 308.375 1.09885 -2.06028 0
M  V30 3252 C 309.356 1.4098 -0.951774 0
M  V30 3253 O 310.541 1.50781 -1.22387 0
M  V30 3254 C 307.671 2.4151 -2.4958 0
M  V30 3255 C 306.625 2.24792 -3.64215 0
M  V30 3256 C 305.951 3.61712 -3.93787 0
M  V30 3257 C 307.251 1.67749 -4.94629 0
M  V30 3258 H 308.945 0.694128 -2.91243 0
M  V30 3259 H 306.491 0.332448 -1.4011 0
M  V30 3260 H 308.444 3.12939 -2.82219 0
M  V30 3261 H 307.168 2.83943 -1.61381 0
M  V30 3262 H 305.827 1.55807 -3.31843 0
M  V30 3263 H 305.475 4.01697 -3.02735 0
M  V30 3264 H 305.175 3.51368 -4.70971 0
M  V30 3265 H 306.699 4.34587 -4.28913 0
M  V30 3266 H 308.113 2.29032 -5.25564 0
M  V30 3267 H 306.51 1.68128 -5.76067 0
M  V30 3268 H 307.58 0.638059 -4.80684 0
M  V30 3269 N 308.923 1.53595 0.353017 0
M  V30 3270 C 310.2 1.61002 1.11075 0
M  V30 3271 C 310.58 0.425356 2.0677 0
M  V30 3272 O 309.928 -0.583267 2.2093 0
M  V30 3273 C 310.138 2.96631 1.83877 0
M  V30 3274 C 311.486 3.51653 2.37961 0
M  V30 3275 O 312.51 2.98743 1.93987 0
M  V30 3276 O 311.369 4.44177 3.18386 0
M  V30 3277 H 308.463 0.650825 0.510251 0
M  V30 3278 H 311.009 1.6594 0.35527 0
M  V30 3279 H 309.781 3.74293 1.14108 0
M  V30 3280 H 309.404 2.95242 2.66304 0
M  V30 3281 N 310.401 -0.613514 1.45168 0
M  V30 3282 C 311.333 -1.73825 1.4939 0
M  V30 3283 C 312.346 -1.58175 0.385304 0
M  V30 3284 O 313.535 -1.66165 0.652036 0
M  V30 3285 C 310.635 -3.11758 1.32891 0
M  V30 3286 C 309.808 -3.53704 2.57317 0
M  V30 3287 C 308.867 -4.70579 2.35462 0
M  V30 3288 O 307.893 -4.77996 3.09044 0
M  V30 3289 N 309.095 -5.63454 1.39644 0
M  V30 3290 H 311.86 -1.70669 2.46358 0
M  V30 3291 H 309.421 -0.79862 1.40832 0
M  V30 3292 H 311.413 -3.87692 1.1609 0
M  V30 3293 H 309.983 -3.09456 0.442218 0
M  V30 3294 H 309.203 -2.67794 2.89275 0
M  V30 3295 H 310.491 -3.78486 3.40038 0
M  V30 3296 H 309.889 -5.6017 0.789062 0
M  V30 3297 H 308.446 -6.38944 1.28816 0
M  V30 3298 N 311.879 -1.3236 -0.855495 0
M  V30 3299 C 312.842 -1.21164 -1.94556 0
M  V30 3300 C 313.842 -0.134908 -1.60233 0
M  V30 3301 O 315.032 -0.385249 -1.69887 0
M  V30 3302 C 312.164 -0.863192 -3.29791 0
M  V30 3303 H 313.357 -2.18038 -2.05911 0
M  V30 3304 H 310.91 -1.16179 -1.04557 0
M  V30 3305 H 311.645 0.103769 -3.24134 0
M  V30 3306 H 311.43 -1.64166 -3.56078 0
M  V30 3307 H 312.92 -0.809156 -4.09686 0
M  V30 3308 N 313.357 1.07166 -1.15556 0
M  V30 3309 C 314.773 1.31899 -0.898603 0
M  V30 3310 C 314.973 1.96333 0.453383 0
M  V30 3311 O 314.029 2.22438 1.19489 0
M  V30 3312 C 315.342 2.20826 -2.04099 0
M  V30 3313 C 316.89 2.34269 -2.07574 0
M  V30 3314 C 317.365 3.26546 -3.21141 0
M  V30 3315 N 318.856 3.34127 -3.20801 0
M  V30 3316 C 319.591 4.05595 -4.05315 0
M  V30 3317 N 319.087 4.79661 -4.99897 0
M  V30 3318 N 320.88 4.01555 -3.93332 0
M  V30 3319 H 313.031 0.637302 -2.02613 0
M  V30 3320 H 315.294 0.343468 -0.883591 0
M  V30 3321 H 315 1.80744 -3.01703 0
M  V30 3322 H 314.874 3.21364 -1.97496 0
M  V30 3323 H 317.261 2.73603 -1.10568 0
M  V30 3324 H 317.342 1.33429 -2.18244 0
M  V30 3325 H 316.986 2.87931 -4.184 0
M  V30 3326 H 316.916 4.27345 -3.07708 0
M  V30 3327 H 319.407 2.81336 -2.52306 0
M  V30 3328 H 319.72 5.31694 -5.60822 0
M  V30 3329 H 318.065 4.78671 -5.03884 0
M  V30 3330 H 321.256 3.42806 -3.18751 0
M  V30 3331 H 321.429 4.56987 -4.5942 0
M  V30 3332 N 314.835 0.952656 1.25548 0
M  V30 3333 C 315.767 0.428609 2.25157 0
M  V30 3334 C 316.78 -0.454428 1.56329 0
M  V30 3335 O 317.969 -0.263023 1.76552 0
M  V30 3336 C 315.069 -0.401972 3.36508 0
M  V30 3337 C 314.242 0.467601 4.34893 0
M  V30 3338 C 313.301 -0.30445 5.25319 0
M  V30 3339 O 312.327 0.296473 5.68427 0
M  V30 3340 N 313.529 -1.59805 5.5807 0
M  V30 3341 H 316.294 1.28497 2.70756 0
M  V30 3342 H 313.855 0.822798 1.39433 0
M  V30 3343 H 315.847 -0.926134 3.9396 0
M  V30 3344 H 314.417 -1.15918 2.90313 0
M  V30 3345 H 313.637 1.17288 3.76347 0
M  V30 3346 H 314.925 1.06119 4.97611 0
M  V30 3347 H 314.323 -2.10823 5.24948 0
M  V30 3348 H 312.88 -2.06822 6.18116 0
M  V30 3349 N 316.313 -1.40141 0.720998 0
M  V30 3350 C 317.729 -1.54632 0.395113 0
M  V30 3351 C 317.929 -1.69115 -1.09555 0
M  V30 3352 O 316.985 -1.68377 -1.88163 0
M  V30 3353 C 318.298 -2.77177 1.1659 0
M  V30 3354 C 319.846 -2.91 1.15274 0
M  V30 3355 C 320.321 -4.16465 1.90579 0
M  V30 3356 N 321.812 -4.23476 1.87675 0
M  V30 3357 C 322.547 -5.19475 2.42762 0
M  V30 3358 N 322.043 -6.21348 3.06428 0
M  V30 3359 N 323.836 -5.11592 2.32874 0
M  V30 3360 H 315.987 -1.28986 1.68749 0
M  V30 3361 H 318.25 -0.62412 0.713567 0
M  V30 3362 H 317.956 -2.72771 2.22011 0
M  V30 3363 H 317.83 -3.69442 0.76108 0
M  V30 3364 H 320.217 -2.94907 0.106702 0
M  V30 3365 H 320.298 -1.99838 1.59682 0
M  V30 3366 H 319.942 -4.1332 2.95176 0
M  V30 3367 H 319.872 -5.06646 1.43587 0
M  V30 3368 H 322.363 -3.50497 1.41281 0
M  V30 3369 H 322.676 -6.91034 3.45965 0
M  V30 3370 H 321.021 -6.21777 3.10514 0
M  V30 3371 H 324.212 -4.30936 1.82789 0
M  V30 3372 H 324.385 -5.86233 2.76106 0
M  V30 3373 N 317.792 -0.46758 -1.50504 0
M  V30 3374 C 319.04 0.0884469 -2.01906 0
M  V30 3375 C 319.361 1.40532 -1.35188 0
M  V30 3376 O 318.631 1.89515 -0.496079 0
M  V30 3377 H 317.211 0.0356765 -0.746148 0
M  V30 3378 H 319.873 -0.6172 -1.84869 0
M  V30 3379 H 318.969 0.2425 -3.11156 0
M  V30 3380 N 319.27 1.56325 -0.20005 0
M  V30 3381 C 320.547 1.89484 0.48529 0
M  V30 3382 C 320.927 1.1143 1.79294 0
M  V30 3383 O 320.275 0.216919 2.27468 0
M  V30 3384 C 320.485 3.41923 0.699243 0
M  V30 3385 C 321.833 4.12256 1.01638 0
M  V30 3386 O 322.857 3.47402 0.786792 0
M  V30 3387 O 321.716 5.26887 1.45095 0
M  V30 3388 H 318.81 0.787144 0.253639 0
M  V30 3389 H 321.356 1.67985 -0.240633 0
M  V30 3390 H 320.128 3.90658 -0.224008 0
M  V30 3391 H 319.751 3.69131 1.47744 0
M  V30 3392 N 320.748 -0.0735177 1.57428 0
M  V30 3393 C 321.995 -0.772999 1.87166 0
M  V30 3394 C 322.323 -1.77665 0.791551 0
M  V30 3395 O 321.578 -1.94541 -0.212636 0
M  V30 3396 C 321.877 -1.51799 3.23561 0
M  V30 3397 C 321.543 -0.654484 4.46125 0
M  V30 3398 C 320.205 -0.416511 4.79394 0
M  V30 3399 C 322.557 -0.0555862 5.2117 0
M  V30 3400 C 319.885 0.429869 5.85123 0
M  V30 3401 C 322.237 0.778239 6.27795 0
M  V30 3402 C 320.901 1.0261 6.59566 0
M  V30 3403 H 320.171 -0.282861 0.684888 0
M  V30 3404 H 322.818 -0.0338272 1.9147 0
M  V30 3405 H 321.123 -2.32932 3.1504 0
M  V30 3406 H 322.82 -2.06397 3.43804 0
M  V30 3407 H 319.41 -0.850091 4.20085 0
M  V30 3408 H 323.594 -0.226558 4.95783 0
M  V30 3409 H 318.85 0.630665 6.08139 0
M  V30 3410 H 323.024 1.24906 6.85107 0
M  V30 3411 H 320.651 1.68371 7.4132 0
M  V30 3412 N 322.226 -1.5378 -0.344866 0
M  V30 3413 C 323.472 -1.71216 -1.08687 0
M  V30 3414 C 323.805 -0.473281 -1.88345 0
M  V30 3415 O 323.08 0.52968 -1.87149 0
M  V30 3416 C 323.363 -2.97486 -2.02914 0
M  V30 3417 C 323.216 -4.31579 -1.26727 0
M  V30 3418 C 324.535 -3.19422 -3.0275 0
M  V30 3419 H 321.654 -0.62301 -0.393735 0
M  V30 3420 H 324.296 -1.8645 -0.365563 0
M  V30 3421 H 322.446 -2.84629 -2.64421 0
M  V30 3422 H 324.118 -4.56284 -0.67845 0
M  V30 3423 H 322.361 -4.30049 -0.569273 0
M  V30 3424 H 323.032 -5.16106 -1.95803 0
M  V30 3425 H 325.508 -3.316 -2.51357 0
M  V30 3426 H 324.384 -4.09169 -3.65885 0
M  V30 3427 H 324.645 -2.35656 -3.74057 0
M  V30 3428 N 323.704 0.605807 -1.45491 0
M  V30 3429 C 324.637 1.73022 -1.48791 0
M  V30 3430 C 325.615 1.58917 -0.344112 0
M  V30 3431 O 326.799 1.80453 -0.544876 0
M  V30 3432 C 323.926 3.10865 -1.34463 0
M  V30 3433 C 322.972 3.43554 -2.5273 0
M  V30 3434 S 323.805 3.38196 -4.15191 0
M  V30 3435 C 324.961 4.78616 -4.03333 0
M  V30 3436 H 325.194 1.69961 -2.43928 0
M  V30 3437 H 322.727 0.782611 -1.33096 0
M  V30 3438 H 324.685 3.90398 -1.26884 0
M  V30 3439 H 323.346 3.1144 -0.40794 0
M  V30 3440 H 322.539 4.43924 -2.38637 0
M  V30 3441 H 322.141 2.71541 -2.5718 0
M  V30 3442 H 324.433 5.68463 -3.68587 0
M  V30 3443 H 325.376 4.97767 -5.03621 0
M  V30 3444 H 325.784 4.54381 -3.34959 0
M  V30 3445 N 325.182 1.32811 0.848464 0
M  V30 3446 C 326.429 1.23724 1.60308 0
M  V30 3447 C 326.757 -0.1994 1.93475 0
M  V30 3448 O 326.012 -1.15406 1.5805 0
M  V30 3449 C 326.311 2.04831 2.92881 0
M  V30 3450 C 325.977 3.54125 2.79117 0
M  V30 3451 C 324.639 3.94829 2.7507 0
M  V30 3452 C 326.991 4.49036 2.64606 0
M  V30 3453 C 324.319 5.28675 2.544 0
M  V30 3454 C 326.671 5.83033 2.4547 0
M  V30 3455 C 325.335 6.22931 2.39819 0
M  V30 3456 H 324.605 0.452737 0.586609 0
M  V30 3457 H 327.252 1.64301 0.983743 0
M  V30 3458 H 325.557 1.57001 3.58968 0
M  V30 3459 H 327.254 1.95164 3.50303 0
M  V30 3460 H 323.844 3.21801 2.83094 0
M  V30 3461 H 328.028 4.18505 2.66772 0
M  V30 3462 H 323.284 5.58637 2.48465 0
M  V30 3463 H 327.458 6.56186 2.33222 0
M  V30 3464 H 325.085 7.26584 2.23562 0
M  V30 3465 N 326.66 -1.06551 1.16123 0
M  V30 3466 C 327.57 -2.17484 0.879662 0
M  V30 3467 C 328.586 -1.73377 -0.147104 0
M  V30 3468 O 329.762 -2.01379 0.0289128 0
M  V30 3469 C 326.827 -3.44591 0.381829 0
M  V30 3470 C 325.888 -4.0322 1.4735 0
M  V30 3471 C 325.121 -5.24261 0.999324 0
M  V30 3472 O 325.344 -5.70198 -0.151957 0
M  V30 3473 O 324.278 -5.74775 1.78653 0
M  V30 3474 H 328.104 -2.44075 1.80724 0
M  V30 3475 H 325.689 -1.16042 0.940992 0
M  V30 3476 H 327.571 -4.21254 0.111053 0
M  V30 3477 H 326.246 -3.19532 -0.51777 0
M  V30 3478 H 325.153 -3.2806 1.79798 0
M  V30 3479 H 326.486 -4.32568 2.34831 0
M  V30 3480 N 328.138 -0.959301 -1.25041 0
M  V30 3481 C 329.386 -0.615393 -1.92503 0
M  V30 3482 C 329.707 0.850969 -1.75452 0
M  V30 3483 O 328.977 1.60658 -1.12098 0
M  V30 3484 H 327.557 -0.224613 -0.712431 0
M  V30 3485 H 330.219 -1.21855 -1.5211 0
M  V30 3486 H 329.315 -0.848738 -3.00338 0
M  V30 3487 N 329.616 1.39756 -0.72842 0
M  V30 3488 C 330.579 2.29012 -0.0927297 0
M  V30 3489 C 331.579 1.45992 0.674025 0
M  V30 3490 O 332.769 1.66749 0.50402 0
M  V30 3491 C 329.901 3.29396 0.878137 0
M  V30 3492 H 331.094 2.86729 -0.879011 0
M  V30 3493 H 328.647 1.48293 -0.493847 0
M  V30 3494 H 329.382 2.76722 1.69101 0
M  V30 3495 H 329.167 3.907 0.331051 0
M  V30 3496 H 330.657 3.96199 1.3197 0
M  V30 3497 N 331.094 0.475555 1.50254 0
M  V30 3498 C 332.026 -0.352649 2.26471 0
M  V30 3499 C 333.039 -0.953165 1.3198 0
M  V30 3500 O 334.228 -0.840815 1.57457 0
M  V30 3501 C 331.328 -1.50902 3.0345 0
M  V30 3502 C 330.501 -1.02047 4.25329 0
M  V30 3503 C 329.56 -2.05142 4.84565 0
M  V30 3504 O 328.586 -1.63023 5.45355 0
M  V30 3505 N 329.788 -3.37987 4.71959 0
M  V30 3506 H 332.553 0.300767 2.98187 0
M  V30 3507 H 330.114 0.306598 1.5897 0
M  V30 3508 H 332.106 -2.19572 3.39956 0
M  V30 3509 H 330.676 -2.06705 2.34504 0
M  V30 3510 H 329.896 -0.159507 3.93877 0
M  V30 3511 H 331.184 -0.672061 5.04342 0
M  V30 3512 H 330.582 -3.74913 4.23623 0
M  V30 3513 H 329.139 -4.02443 5.12721 0
M  V30 3514 N 332.573 -1.56217 0.208337 0
M  V30 3515 C 333.821 -1.97558 -0.426076 0
M  V30 3516 C 334.142 -1.09683 -1.61229 0
M  V30 3517 O 333.412 -0.170956 -1.95153 0
M  V30 3518 H 331.992 -0.729575 -0.160405 0
M  V30 3519 H 334.654 -1.92606 0.298155 0
M  V30 3520 H 333.75 -3.02672 -0.761312 0
M  V30 3521 N 334.051 0.0651679 -1.57465 0
M  V30 3522 C 335.279 0.775808 -1.91804 0
M  V30 3523 C 335.694 1.70782 -0.804916 0
M  V30 3524 O 335.051 1.81153 0.221311 0
M  V30 3525 C 335.102 1.56381 -3.25925 0
M  V30 3526 O 334.823 0.669248 -4.32958 0
M  V30 3527 C 336.324 2.37485 -3.7432 0
M  V30 3528 H 333.544 0.2202 -0.63384 0
M  V30 3529 H 336.088 0.0334587 -2.04473 0
M  V30 3530 H 334.243 2.25837 -3.14764 0
M  V30 3531 H 334.657 1.21801 -5.10162 0
M  V30 3532 H 336.131 2.88223 -4.70778 0
M  V30 3533 H 336.608 3.17307 -3.03666 0
M  V30 3534 H 337.214 1.73173 -3.88447 0
M  V30 3535 N 335.529 1.53961 0.336706 0
M  V30 3536 C 336.459 1.85417 1.41925 0
M  V30 3537 C 337.44 0.709856 1.5458 0
M  V30 3538 O 338.625 0.962396 1.68676 0
M  V30 3539 C 335.755 2.06985 2.78881 0
M  V30 3540 C 334.709 3.22813 2.81026 0
M  V30 3541 C 334.035 3.29727 4.20932 0
M  V30 3542 C 335.335 4.60767 2.45949 0
M  V30 3543 H 337.029 2.76079 1.15848 0
M  V30 3544 H 334.575 1.32839 0.555859 0
M  V30 3545 H 336.528 2.27575 3.54665 0
M  V30 3546 H 335.252 1.13061 3.06406 0
M  V30 3547 H 333.911 3.0209 2.07695 0
M  V30 3548 H 333.559 2.33385 4.45579 0
M  V30 3549 H 333.259 4.07566 4.23277 0
M  V30 3550 H 334.783 3.52536 4.98549 0
M  V30 3551 H 336.197 4.81325 3.11446 0
M  V30 3552 H 334.594 5.4106 2.59566 0
M  V30 3553 H 335.664 4.6391 1.41122 0
M  V30 3554 N 337.007 -0.598083 1.45811 0
M  V30 3555 C 337.937 -1.71873 1.58057 0
M  V30 3556 C 338.918 -1.64533 0.431615 0
M  V30 3557 O 340.103 -1.82787 0.65595 0
M  V30 3558 C 337.233 -3.10495 1.55597 0
M  V30 3559 C 336.187 -3.32654 2.69305 0
M  V30 3560 C 335.513 -4.71646 2.51902 0
M  V30 3561 C 336.813 -3.21981 4.11248 0
M  V30 3562 H 338.507 -1.61881 2.51863 0
M  V30 3563 H 336.053 -0.777372 1.21214 0
M  V30 3564 H 338.006 -3.88699 1.6276 0
M  V30 3565 H 336.73 -3.2135 0.583255 0
M  V30 3566 H 335.389 -2.56843 2.61586 0
M  V30 3567 H 335.037 -4.79246 1.52748 0
M  V30 3568 H 334.737 -4.87426 3.2816 0
M  V30 3569 H 336.261 -5.52038 2.60933 0
M  V30 3570 H 337.675 -3.90049 4.20161 0
M  V30 3571 H 336.072 -3.49289 4.87972 0
M  V30 3572 H 337.142 -2.1928 4.32486 0
M  V30 3573 N 338.485 -1.33259 -0.841409 0
M  V30 3574 C 339.762 -1.15174 -1.58096 0
M  V30 3575 C 340.142 0.282858 -2.09196 0
M  V30 3576 O 339.49 1.28151 -1.89181 0
M  V30 3577 C 339.7 -2.1907 -2.71679 0
M  V30 3578 C 341.048 -2.53093 -3.40924 0
M  V30 3579 O 342.072 -2.17717 -2.81918 0
M  V30 3580 O 340.931 -3.1379 -4.47435 0
M  V30 3581 H 338.025 -0.445303 -0.696875 0
M  V30 3582 H 340.571 -1.44833 -0.884385 0
M  V30 3583 H 339.343 -3.15443 -2.31541 0
M  V30 3584 H 338.966 -1.90481 -3.49002 0
M  V30 3585 N 339.963 1.05934 -1.16686 0
M  V30 3586 C 341.212 1.78188 -0.945085 0
M  V30 3587 C 341.525 1.88338 0.528021 0
M  V30 3588 O 342.731 2.57258 0.867799 0
M  V30 3589 C 341.187 3.20277 -1.64167 0
M  V30 3590 C 340.795 3.18281 -3.15279 0
M  V30 3591 C 342.539 3.97039 -1.502 0
M  V30 3592 C 340.446 4.55112 -3.7766 0
M  V30 3593 H 339.376 0.667866 -0.349959 0
M  V30 3594 H 342.027 1.18794 -1.39858 0
M  V30 3595 H 340.409 3.79952 -1.11589 0
M  V30 3596 H 341.583 2.68167 -3.74731 0
M  V30 3597 H 339.898 2.55018 -3.29173 0
M  V30 3598 H 342.495 4.98194 -1.94183 0
M  V30 3599 H 342.838 4.13845 -0.451461 0
M  V30 3600 H 343.371 3.43894 -1.99954 0
M  V30 3601 H 340.11 4.43512 -4.82677 0
M  V30 3602 H 339.63 5.05406 -3.22994 0
M  V30 3603 H 341.309 5.24064 -3.79428 0
M  V30 3604 N 341.441 0.965919 1.2453 0
M  V30 3605 C 342.718 0.543777 1.87889 0
M  V30 3606 C 343.098 -0.97909 1.87021 0
M  V30 3607 O 342.446 -1.84969 1.3416 0
M  V30 3608 C 342.656 1.13327 3.30088 0
M  V30 3609 C 344.004 1.21707 4.06783 0
M  V30 3610 O 345.028 1.08566 3.39252 0
M  V30 3611 O 343.887 1.42456 5.27606 0
M  V30 3612 H 340.981 0.181054 0.806938 0
M  V30 3613 H 343.527 1.06007 1.32516 0
M  V30 3614 H 342.299 2.17612 3.25209 0
M  V30 3615 H 341.922 0.600911 3.93033 0
M  V30 3616 N 342.919 -1.39368 0.735821 0
M  V30 3617 C 343.869 -2.27885 0.0724287 0
M  V30 3618 C 344.853 -1.44301 -0.711756 0
M  V30 3619 O 346.045 -1.67206 -0.58063 0
M  V30 3620 C 343.174 -3.33029 -0.833454 0
M  V30 3621 C 342.26 -4.24078 -0.0433749 0
M  V30 3622 N 342.651 -4.96138 0.983903 0
M  V30 3623 C 340.949 -4.45164 -0.272905 0
M  V30 3624 C 341.65 -5.63069 1.4604 0
M  V30 3625 N 340.626 -5.37991 0.778857 0
M  V30 3626 H 344.428 -2.81052 0.859467 0
M  V30 3627 H 341.942 -1.5206 0.570227 0
M  V30 3628 H 343.939 -3.95311 -1.32419 0
M  V30 3629 H 342.599 -2.81421 -1.61964 0
M  V30 3630 H 343.61 -4.9958 1.36528 0
M  V30 3631 H 340.287 -4.04497 -1.03383 0
M  V30 3632 H 341.677 -6.30755 2.31511 0
M  V30 3633 N 344.397 -0.483516 -1.5 0
M  V30 3634 C 345.645 0.067027 -2.01989 0
M  V30 3635 C 345.966 1.3909 -1.36671 0
M  V30 3636 O 345.236 1.88978 -0.516152 0
M  V30 3637 H 343.816 0.0277606 -0.746484 0
M  V30 3638 H 346.478 -0.636773 -1.84204 0
M  V30 3639 H 345.574 0.209484 -3.11396 0
M  V30 3640 N 345.875 1.56104 -0.216619 0
M  V30 3641 C 347.103 2.02563 0.421413 0
M  V30 3642 C 347.518 1.0965 1.53695 0
M  V30 3643 O 346.875 0.10521 1.82196 0
M  V30 3644 C 346.926 3.48584 0.957665 0
M  V30 3645 O 346.647 4.37953 -0.113389 0
M  V30 3646 C 348.148 4.10664 1.66943 0
M  V30 3647 H 345.368 0.662944 0.103665 0
M  V30 3648 H 347.912 2.01793 -0.331629 0
M  V30 3649 H 346.067 3.49985 1.661 0
M  V30 3650 H 346.481 5.23704 0.288932 0
M  V30 3651 H 347.955 5.14622 1.99671 0
M  V30 3652 H 348.432 3.55373 2.58083 0
M  V30 3653 H 349.038 4.13098 1.01142 0
M  V30 3654 N 347.353 -0.0568162 1.57498 0
M  V30 3655 C 348.583 -0.764515 1.91934 0
M  V30 3656 C 348.991 -1.70877 0.81227 0
M  V30 3657 O 348.334 -1.82351 -0.222213 0
M  V30 3658 C 348.396 -1.5994 3.21962 0
M  V30 3659 C 348.06 -0.822925 4.4953 0
M  V30 3660 C 349.057 -0.135464 5.19723 0
M  V30 3661 C 346.742 -0.785666 4.96117 0
M  V30 3662 C 348.736 0.578861 6.34766 0
M  V30 3663 C 346.423 -0.0675784 6.11063 0
M  V30 3664 C 347.421 0.613471 6.80239 0
M  V30 3665 O 347.109 1.31996 7.92989 0
M  V30 3666 H 346.841 -0.221647 0.63863 0
M  V30 3667 H 349.395 -0.0268218 2.05382 0
M  V30 3668 H 347.625 -2.38026 3.04763 0
M  V30 3669 H 349.314 -2.18715 3.41934 0
M  V30 3670 H 350.08 -0.155458 4.84751 0
M  V30 3671 H 345.959 -1.30524 4.42136 0
M  V30 3672 H 349.503 1.111 6.88696 0
M  V30 3673 H 345.4 -0.0455636 6.45484 0
M  V30 3674 H 346.168 1.23077 8.09194 0
M  V30 3675 N 348.832 -1.54138 -0.328536 0
M  V30 3676 C 350.243 -1.63395 -0.903272 0
M  V30 3677 C 350.594 -0.524828 -1.8905 0
M  V30 3678 O 349.719 0.343068 -2.13663 0
M  V30 3679 C 350.314 -2.9618 -1.64507 0
M  V30 3680 C 348.873 -3.0765 -2.1686 0
M  V30 3681 C 348.02 -2.58933 -0.992416 0
M  V30 3682 H 350.971 -1.58344 -0.106253 0
M  V30 3683 H 350.992 -2.86061 -2.50897 0
M  V30 3684 H 350.504 -3.76884 -0.926302 0
M  V30 3685 H 348.605 -2.31611 -2.91868 0
M  V30 3686 H 348.718 -4.1337 -2.42202 0
M  V30 3687 H 347.082 -2.14706 -1.37016 0
M  V30 3688 H 347.865 -3.42089 -0.288041 0
M  V30 3689 N 350.31 0.590341 -1.46126 0
M  V30 3690 C 351.54 1.37304 -1.54373 0
M  V30 3691 C 351.948 1.88332 -0.181071 0
M  V30 3692 O 351.291 1.63852 0.830559 0
M  V30 3693 C 351.353 2.6012 -2.48149 0
M  V30 3694 C 351.017 2.30613 -3.94546 0
M  V30 3695 C 352.014 1.89915 -4.83971 0
M  V30 3696 C 349.699 2.42993 -4.39613 0
M  V30 3697 C 351.693 1.61981 -6.16475 0
M  V30 3698 C 349.38 2.14672 -5.72153 0
M  V30 3699 C 350.378 1.7423 -6.60404 0
M  V30 3700 O 350.066 1.46251 -7.90485 0
M  V30 3701 H 349.798 0.426086 -0.524811 0
M  V30 3702 H 352.352 0.72539 -1.92165 0
M  V30 3703 H 350.582 3.27664 -2.05361 0
M  V30 3704 H 352.271 3.22182 -2.46887 0
M  V30 3705 H 353.037 1.79872 -4.50412 0
M  V30 3706 H 348.916 2.73435 -3.71153 0
M  V30 3707 H 352.46 1.30341 -6.85315 0
M  V30 3708 H 348.357 2.24337 -6.05263 0
M  V30 3709 H 349.125 1.6016 -8.02677 0
M  V30 3710 N 351.788 1.33704 0.83433 0
M  V30 3711 C 353.034 1.25603 1.59222 0
M  V30 3712 C 353.367 -0.176659 1.93395 0
M  V30 3713 O 352.642 -1.11915 1.59076 0
M  V30 3714 C 352.925 2.13576 2.89926 0
M  V30 3715 C 352.778 3.65326 2.62406 0
M  V30 3716 C 354.097 2.01238 3.91397 0
M  V30 3717 H 351.216 0.457613 0.577719 0
M  V30 3718 H 353.858 1.63848 0.961972 0
M  V30 3719 H 352.008 1.8109 3.43713 0
M  V30 3720 H 353.68 4.08124 2.15017 0
M  V30 3721 H 351.923 3.8698 1.96033 0
M  V30 3722 H 352.594 4.22232 3.55562 0
M  V30 3723 H 355.07 2.29738 3.46929 0
M  V30 3724 H 353.946 2.65036 4.80673 0
M  V30 3725 H 354.207 0.985951 4.30966 0
M  V30 3726 N 353.266 -1.05314 1.17247 0
M  V30 3727 C 354.494 -1.81971 0.984593 0
M  V30 3728 C 354.909 -1.82929 -0.467166 0
M  V30 3729 O 354.266 -1.25564 -1.32438 0
M  V30 3730 C 354.317 -3.28143 1.51672 0
M  V30 3731 O 354.038 -3.27347 2.91163 0
M  V30 3732 C 355.539 -4.21493 1.37326 0
M  V30 3733 H 352.759 -0.573455 0.348411 0
M  V30 3734 H 355.303 -1.32808 1.55506 0
M  V30 3735 H 353.458 -3.74582 0.988302 0
M  V30 3736 H 353.872 -4.18824 3.15732 0
M  V30 3737 H 355.346 -5.22043 1.79375 0
M  V30 3738 H 355.823 -4.38031 0.320169 0
M  V30 3739 H 356.429 -3.80909 1.89178 0
M  V30 3740 N 354.744 -0.972509 -1.24016 0
M  V30 3741 C 355.969 -0.654417 -1.96805 0
M  V30 3742 C 356.394 0.770398 -1.716 0
M  V30 3743 O 355.752 1.52361 -0.982647 0
M  V30 3744 C 355.8 -0.941031 -3.48105 0
M  V30 3745 O 354.904 -0.0289472 -4.1239 0
M  V30 3746 H 354.245 -0.24692 -0.616382 0
M  V30 3747 H 356.775 -1.30396 -1.57664 0
M  V30 3748 H 356.785 -0.87452 -3.98517 0
M  V30 3749 H 355.46 -1.97939 -3.65777 0
M  V30 3750 H 354.037 -0.149192 -3.72601 0
M  V30 3751 N 356.222 1.38976 -0.743202 0
M  V30 3752 C 357.447 2.05161 -0.303936 0
M  V30 3753 C 357.872 1.55677 1.05576 0
M  V30 3754 O 357.23 0.704131 1.67068 0
M  V30 3755 C 357.278 3.59138 -0.324373 0
M  V30 3756 O 356.382 4.06668 0.685204 0
M  V30 3757 H 355.723 0.649815 -0.136518 0
M  V30 3758 H 358.253 1.77852 -1.01142 0
M  V30 3759 H 358.263 4.07639 -0.171618 0
M  V30 3760 H 356.938 3.94515 -1.31647 0
M  V30 3761 H 355.515 3.69561 0.497913 0
M  V30 3762 N 357.7 0.491464 1.49741 0
M  V30 3763 C 358.648 -0.305837 2.30581 0
M  V30 3764 C 359.642 -0.971642 1.38764 0
M  V30 3765 O 360.848 -0.90042 1.5586 0
M  V30 3766 H 357.223 -0.117482 0.742767 0
M  V30 3767 H 359.194 0.396093 2.95759 0
M  V30 3768 C 357.943 -1.36319 3.19863 0
M  V30 3769 H 357.266 -0.860258 3.90435 0
M  V30 3770 H 358.706 -1.89323 3.79385 0
M  V30 3771 C 357.165 -2.37621 2.38826 0
M  V30 3772 O 357.695 -3.43311 2.08567 0
M  V30 3773 N 355.901 -2.09849 2.01026 0
M  V30 3774 H 355.448 -1.23922 2.25834 0
M  V30 3775 H 355.406 -2.77859 1.47112 0
M  V30 3776 N 359.178 -1.55987 0.224894 0
M  V30 3777 C 360.406 -2.02784 -0.410665 0
M  V30 3778 C 360.821 -1.10464 -1.53112 0
M  V30 3779 O 360.178 -0.114871 -1.82138 0
M  V30 3780 C 360.229 -3.49087 -0.939165 0
M  V30 3781 O 359.95 -4.37887 0.136614 0
M  V30 3782 C 361.451 -4.11543 -1.64763 0
M  V30 3783 H 358.671 -0.663484 -0.100148 0
M  V30 3784 H 361.215 -2.01614 0.342326 0
M  V30 3785 H 359.37 -3.50861 -1.64242 0
M  V30 3786 H 359.784 -5.23849 -0.261155 0
M  V30 3787 H 361.258 -5.15673 -1.96939 0
M  V30 3788 H 361.735 -3.56736 -2.56195 0
M  V30 3789 H 362.341 -4.13629 -0.989503 0
M  V30 3790 N 360.656 0.0484629 -1.57525 0
M  V30 3791 C 361.884 0.755421 -1.92616 0
M  V30 3792 C 362.299 1.69919 -0.822984 0
M  V30 3793 O 361.656 1.81378 0.202085 0
M  V30 3794 C 361.707 1.52915 -3.27566 0
M  V30 3795 O 361.428 0.62329 -4.33644 0
M  V30 3796 C 362.929 2.33502 -3.76818 0
M  V30 3797 H 360.149 0.213465 -0.63614 0
M  V30 3798 H 362.693 0.0117698 -2.04497 0
M  V30 3799 H 360.848 2.22486 -3.17142 0
M  V30 3800 H 361.262 1.16383 -5.11425 0
M  V30 3801 H 362.736 2.83214 -4.73808 0
M  V30 3802 H 363.213 3.14068 -3.07014 0
M  V30 3803 H 363.819 1.69043 -3.90262 0
M  V30 3804 N 362.134 1.5431 0.320358 0
M  V30 3805 C 363.097 1.83195 1.3774 0
M  V30 3806 C 364.097 0.703906 1.44575 0
M  V30 3807 O 365.287 0.972214 1.44546 0
M  V30 3808 C 362.419 1.99487 2.76438 0
M  V30 3809 H 363.612 2.77642 1.1338 0
M  V30 3810 H 361.165 1.46076 0.556012 0
M  V30 3811 H 361.9 1.07262 3.06048 0
M  V30 3812 H 361.685 2.81575 2.7287 0
M  V30 3813 H 363.175 2.23271 3.52902 0
M  V30 3814 N 363.613 -0.582584 1.46437 0
M  V30 3815 C 364.861 -1.33814 1.51453 0
M  V30 3816 C 365.182 -1.94277 0.167792 0
M  V30 3817 O 364.452 -1.78566 -0.805677 0
M  V30 3818 H 363.032 -0.496838 0.557818 0
M  V30 3819 H 365.694 -0.682281 1.82568 0
M  V30 3820 H 364.79 -2.14479 2.26728 0
M  V30 3821 N 365.091 -1.34144 -0.827227 0
M  V30 3822 C 366.339 -1.26009 -1.58007 0
M  V30 3823 C 366.66 0.170971 -1.94249 0
M  V30 3824 O 365.93 1.10256 -1.61927 0
M  V30 3825 H 364.51 -0.463414 -0.585881 0
M  V30 3826 H 367.172 -1.68005 -0.987951 0
M  V30 3827 H 366.268 -1.86187 -2.50481 0
M  V30 3828 N 366.569 1.04691 -1.17803 0
M  V30 3829 C 367.815 1.78045 -0.970969 0
M  V30 3830 C 368.148 1.87686 0.498751 0
M  V30 3831 O 367.423 1.38035 1.37027 0
M  V30 3832 C 367.706 3.2166 -1.61884 0
M  V30 3833 C 367.559 3.20001 -3.161 0
M  V30 3834 C 368.878 4.1962 -1.3269 0
M  V30 3835 H 365.997 0.64633 -0.354155 0
M  V30 3836 H 368.639 1.22333 -1.45378 0
M  V30 3837 H 366.789 3.69232 -1.20831 0
M  V30 3838 H 368.461 2.80467 -3.66246 0
M  V30 3839 H 366.704 2.58203 -3.48588 0
M  V30 3840 H 367.375 4.21386 -3.56564 0
M  V30 3841 H 369.851 3.80567 -1.68249 0
M  V30 3842 H 368.727 5.18339 -1.80599 0
M  V30 3843 H 368.988 4.414 -0.248622 0
M  V30 3844 N 368.047 0.979072 1.23499 0
M  V30 3845 C 369.01 0.523244 2.23147 0
M  V30 3846 C 370.01 -0.386406 1.56088 0
M  V30 3847 O 371.2 -0.180283 1.73265 0
M  V30 3848 C 368.332 -0.240739 3.40049 0
M  V30 3849 H 369.525 1.40432 2.64989 0
M  V30 3850 H 367.078 0.764824 1.36309 0
M  V30 3851 H 367.813 -1.13841 3.03662 0
M  V30 3852 H 367.598 0.412207 3.89927 0
M  V30 3853 H 369.088 -0.548297 4.13985 0
M  V30 3854 N 369.525 -1.3858 0.750561 0
M  V30 3855 C 370.753 -2.04471 0.316098 0
M  V30 3856 C 371.168 -1.56606 -1.05452 0
M  V30 3857 O 370.525 -0.737784 -1.66922 0
M  V30 3858 C 370.576 -3.60025 0.326275 0
M  V30 3859 O 370.297 -4.06133 1.6428 0
M  V30 3860 C 371.798 -4.43131 -0.122429 0
M  V30 3861 H 369.018 -0.65717 0.135528 0
M  V30 3862 H 371.562 -1.77329 1.01857 0
M  V30 3863 H 369.717 -3.86014 -0.327431 0
M  V30 3864 H 370.131 -5.00547 1.56693 0
M  V30 3865 H 371.605 -5.51963 -0.0641473 0
M  V30 3866 H 372.082 -4.23333 -1.16988 0
M  V30 3867 H 372.688 -4.22323 0.50229 0
M  V30 3868 N 371.003 -0.499398 -1.49478 0
M  V30 3869 C 372.251 0.0455996 -2.02049 0
M  V30 3870 C 372.572 1.37633 -1.38138 0
M  V30 3871 O 371.842 1.8842 -0.536166 0
M  V30 3872 H 370.422 0.0198416 -0.746736 0
M  V30 3873 H 373.084 -0.656274 -1.83519 0
M  V30 3874 H 372.18 0.176445 -3.11601 0
M  V30 3875 N 372.481 1.55866 -0.233164 0
M  V30 3876 C 373.706 2.03449 0.402906 0
M  V30 3877 C 374.131 1.11166 1.51736 0
M  V30 3878 O 373.489 0.101996 1.81013 0
M  V30 3879 C 373.537 3.49165 0.9009 0
M  V30 3880 O 372.641 3.60019 2.01147 0
M  V30 3881 H 371.982 0.657913 0.0897025 0
M  V30 3882 H 374.512 2.01493 -0.355201 0
M  V30 3883 H 374.522 3.89716 1.2077 0
M  V30 3884 H 373.197 4.15813 0.0852889 0
M  V30 3885 H 371.774 3.3136 1.71042 0
M  V30 3886 N 373.959 -0.0401083 1.57549 0
M  V30 3887 C 375.207 -0.731677 1.8839 0
M  V30 3888 C 375.528 -1.76481 0.829425 0
M  V30 3889 O 374.798 -1.95411 -0.1383 0
M  V30 3890 H 373.378 -0.273225 0.695239 0
M  V30 3891 H 376.04 -0.00867725 1.94898 0
M  V30 3892 H 375.136 -1.22816 2.86919 0
M  V30 3893 N 375.437 -1.54477 -0.31217 0
M  V30 3894 C 376.367 -1.87652 -1.38957 0
M  V30 3895 C 377.348 -0.734358 -1.53431 0
M  V30 3896 O 378.533 -0.98911 -1.67123 0
M  V30 3897 C 375.663 -2.11396 -2.75552 0
M  V30 3898 C 374.617 -3.27243 -2.75855 0
M  V30 3899 C 373.943 -3.36382 -4.15633 0
M  V30 3900 C 375.243 -4.64622 -2.38587 0
M  V30 3901 H 376.937 -2.77887 -1.11442 0
M  V30 3902 H 374.483 -1.33707 -0.534655 0
M  V30 3903 H 376.436 -2.33189 -3.51 0
M  V30 3904 H 375.16 -1.17921 -3.04569 0
M  V30 3905 H 373.819 -3.05356 -2.02863 0
M  V30 3906 H 373.467 -2.40445 -4.41809 0
M  V30 3907 H 373.167 -4.14249 -4.1674 0
M  V30 3908 H 374.691 -3.60422 -4.92877 0
M  V30 3909 H 376.105 -4.86219 -3.03749 0
M  V30 3910 H 374.502 -5.45121 -2.50925 0
M  V30 3911 H 375.572 -4.66097 -1.33723 0
M  V30 3912 N 376.915 0.57481 -1.46744 0
M  V30 3913 C 378.163 1.33009 -1.52161 0
M  V30 3914 C 378.484 1.94185 -0.178092 0
M  V30 3915 O 377.754 1.7899 0.796196 0
M  V30 3916 H 376.334 0.493873 -0.560445 0
M  V30 3917 H 378.996 0.672589 -1.82927 0
M  V30 3918 H 378.092 2.13273 -2.27862 0
M  V30 3919 N 378.394 1.34581 0.820102 0
M  V30 3920 C 379.805 1.24298 1.39309 0
M  V30 3921 C 380.156 -0.130351 1.95767 0
M  V30 3922 O 379.281 -1.0308 1.90272 0
M  V30 3923 C 379.876 2.25054 2.53251 0
M  V30 3924 C 378.435 2.18552 3.0645 0
M  V30 3925 C 377.582 2.11503 1.79337 0
M  V30 3926 H 380.533 1.45906 0.624262 0
M  V30 3927 H 380.554 1.86917 3.31425 0
M  V30 3928 H 380.066 3.24996 2.1213 0
M  V30 3929 H 378.167 1.21976 3.52069 0
M  V30 3930 H 378.28 3.0993 3.65349 0
M  V30 3931 H 376.644 1.57268 2.00347 0
M  V30 3932 H 377.427 3.13284 1.40386 0
M  V30 3933 N 379.872 -1.04064 1.18357 0
M  V30 3934 C 381.288 -1.2947 0.933258 0
M  V30 3935 C 381.488 -1.97466 -0.401169 0
M  V30 3936 O 380.544 -2.25528 -1.13549 0
M  V30 3937 C 381.857 -2.15337 2.09882 0
M  V30 3938 C 383.405 -2.28683 2.13712 0
M  V30 3939 C 383.88 -3.17917 3.29686 0
M  V30 3940 N 385.371 -3.25504 3.29547 0
M  V30 3941 C 386.106 -3.94706 4.15926 0
M  V30 3942 N 385.602 -4.66239 5.12439 0
M  V30 3943 N 387.395 -3.90986 4.0384 0
M  V30 3944 H 379.546 -0.583359 2.04232 0
M  V30 3945 H 381.809 -0.319921 0.892387 0
M  V30 3946 H 381.515 -1.72682 3.06389 0
M  V30 3947 H 381.389 -3.16015 2.05947 0
M  V30 3948 H 383.776 -2.70575 1.17784 0
M  V30 3949 H 383.857 -1.27596 2.21705 0
M  V30 3950 H 383.501 -2.76736 4.25887 0
M  V30 3951 H 383.431 -4.19036 3.1893 0
M  V30 3952 H 385.922 -2.74547 2.59677 0
M  V30 3953 H 386.235 -5.16638 5.74722 0
M  V30 3954 H 384.58 -4.65143 5.16398 0
M  V30 3955 H 387.771 -3.34234 3.27727 0
M  V30 3956 H 387.944 -4.44646 4.71375 0
M  V30 3957 N 381.35 -0.985608 -1.22978 0
M  V30 3958 C 382.58 -0.674603 -1.95276 0
M  V30 3959 C 382.988 0.763483 -1.73111 0
M  V30 3960 O 382.331 1.52601 -1.02268 0
M  V30 3961 C 382.393 -0.891597 -3.48268 0
M  V30 3962 C 382.057 -2.31275 -3.94158 0
M  V30 3963 C 383.054 -3.29179 -4.02415 0
M  V30 3964 C 380.739 -2.64524 -4.27004 0
M  V30 3965 C 382.733 -4.58407 -4.42879 0
M  V30 3966 C 380.42 -3.93974 -4.67149 0
M  V30 3967 C 381.418 -4.90727 -4.75053 0
M  V30 3968 O 381.106 -6.17865 -5.14294 0
M  V30 3969 H 380.838 -0.249251 -0.628371 0
M  V30 3970 H 383.392 -1.32106 -1.5728 0
M  V30 3971 H 381.622 -0.187962 -3.86243 0
M  V30 3972 H 383.311 -0.576957 -4.01779 0
M  V30 3973 H 384.077 -3.04823 -3.77237 0
M  V30 3974 H 379.956 -1.89923 -4.2006 0
M  V30 3975 H 383.5 -5.33926 -4.48964 0
M  V30 3976 H 379.397 -4.18122 -4.91777 0
M  V30 3977 H 380.165 -6.21694 -5.32389 0
M  V30 3978 N 382.828 1.3818 -0.7579 0
M  V30 3979 C 384.074 2.00316 -0.316453 0
M  V30 3980 C 384.407 1.60026 1.10025 0
M  V30 3981 O 383.682 0.839835 1.75434 0
M  V30 3982 C 383.965 3.57349 -0.444245 0
M  V30 3983 C 383.818 4.07591 -1.90236 0
M  V30 3984 C 385.137 4.3981 0.1598 0
M  V30 3985 H 382.256 0.727741 -0.116459 0
M  V30 3986 H 384.898 1.6406 -0.958352 0
M  V30 3987 H 383.048 3.88365 0.102233 0
M  V30 3988 H 384.72 3.87199 -2.50748 0
M  V30 3989 H 382.963 3.60297 -2.41595 0
M  V30 3990 H 383.634 5.16677 -1.94291 0
M  V30 3991 H 386.11 4.14971 -0.306314 0
M  V30 3992 H 384.986 5.48885 0.0401675 0
M  V30 3993 H 385.247 4.24102 1.24859 0
M  V30 3994 N 384.306 0.507319 1.49211 0
M  V30 3995 C 385.583 -0.0982702 1.95353 0
M  V30 3996 C 385.963 -1.53516 1.449 0
M  V30 3997 O 385.311 -2.18594 0.66551 0
M  V30 3998 C 385.521 -0.00440283 3.49 0
M  V30 3999 C 386.869 -0.175147 4.24239 0
M  V30 4000 O 387.893 -0.0792891 3.56112 0
M  V30 4001 O 386.752 -0.37276 5.45227 0
M  V30 4002 H 383.846 -0.0918236 0.821887 0
M  V30 4003 H 386.392 0.570307 1.5983 0
M  V30 4004 H 385.164 0.997402 3.78375 0
M  V30 4005 H 384.787 -0.712845 3.91158 0
M  V30 4006 N 385.784 -1.5574 0.241426 0
M  V30 4007 C 387.014 -2.02913 -0.38857 0
M  V30 4008 C 387.422 -1.12014 -1.52478 0
M  V30 4009 O 386.765 -0.125903 -1.83268 0
M  V30 4010 C 386.827 -3.4636 -0.963075 0
M  V30 4011 C 386.491 -4.56982 0.0401916 0
M  V30 4012 C 387.488 -5.12941 0.847766 0
M  V30 4013 C 385.173 -5.0203 0.164699 0
M  V30 4014 C 387.167 -6.12437 1.76636 0
M  V30 4015 C 384.854 -6.01358 1.0868 0
M  V30 4016 C 385.852 -6.5644 1.88616 0
M  V30 4017 O 385.54 -7.53831 2.79273 0
M  V30 4018 H 385.272 -0.668983 -0.0971452 0
M  V30 4019 H 387.826 -2.02198 0.361248 0
M  V30 4020 H 386.056 -3.44206 -1.76235 0
M  V30 4021 H 387.745 -3.77065 -1.50257 0
M  V30 4022 H 388.511 -4.78974 0.762133 0
M  V30 4023 H 384.39 -4.58824 -0.447411 0
M  V30 4024 H 387.934 -6.55355 2.39071 0
M  V30 4025 H 383.831 -6.34746 1.17338 0
M  V30 4026 H 384.599 -7.71428 2.73572 0
M  V30 4027 N 387.262 0.0317525 -1.57568 0
M  V30 4028 C 388.508 0.724175 -1.8943 0
M  V30 4029 C 388.841 1.75149 -0.838836 0
M  V30 4030 O 388.116 1.93948 0.146422 0
M  V30 4031 C 388.399 1.39615 -3.31933 0
M  V30 4032 C 388.252 0.382537 -4.4817 0
M  V30 4033 C 389.571 2.33084 -3.73309 0
M  V30 4034 H 386.69 0.261797 -0.688935 0
M  V30 4035 H 389.332 -0.013017 -1.89996 0
M  V30 4036 H 387.482 2.02451 -3.31581 0
M  V30 4037 H 389.154 -0.243689 -4.60656 0
M  V30 4038 H 387.397 -0.29844 -4.32772 0
M  V30 4039 H 388.068 0.891145 -5.44759 0
M  V30 4040 H 390.544 1.80295 -3.7501 0
M  V30 4041 H 389.42 2.77084 -4.73831 0
M  V30 4042 H 389.681 3.19643 -3.05419 0
M  V30 4043 N 388.74 1.54641 0.303973 0
M  V30 4044 C 389.67 1.88386 1.3796 0
M  V30 4045 C 390.651 0.742485 1.5304 0
M  V30 4046 O 391.836 0.997959 1.66597 0
M  V30 4047 C 388.966 2.12854 2.74427 0
M  V30 4048 C 387.92 3.28702 2.74115 0
M  V30 4049 C 387.246 3.38582 4.13844 0
M  V30 4050 C 388.546 4.65881 2.3612 0
M  V30 4051 H 390.24 2.78474 1.09966 0
M  V30 4052 H 387.786 1.33988 0.527556 0
M  V30 4053 H 389.739 2.35047 3.49758 0
M  V30 4054 H 388.463 1.19535 3.03939 0
M  V30 4055 H 387.122 3.06428 2.0124 0
M  V30 4056 H 386.77 2.42784 4.40528 0
M  V30 4057 H 386.47 4.16453 4.14537 0
M  V30 4058 H 387.994 3.63031 4.90959 0
M  V30 4059 H 389.408 4.87823 3.01167 0
M  V30 4060 H 387.805 5.46444 2.48031 0
M  V30 4061 H 388.875 4.66799 1.3125 0
M  V30 4062 N 390.218 -0.567019 1.47046 0
M  V30 4063 C 391.466 -1.322 1.52864 0
M  V30 4064 C 391.787 -1.94088 0.188388 0
M  V30 4065 O 391.057 -1.7941 -0.786693 0
M  V30 4066 H 389.637 -0.490894 0.563056 0
M  V30 4067 H 392.299 -0.662879 1.83281 0
M  V30 4068 H 391.395 -2.12062 2.2899 0
M  V30 4069 N 391.696 -1.35014 -0.812953 0
M  V30 4070 C 392.945 -1.27269 -1.56479 0
M  V30 4071 C 393.258 0.152771 -1.95002 0
M  V30 4072 O 394.464 0.352451 -2.69203 0
M  V30 4073 C 392.92 -2.23159 -2.82362 0
M  V30 4074 C 392.528 -3.71016 -2.511 0
M  V30 4075 C 394.272 -2.24342 -3.60376 0
M  V30 4076 C 392.179 -4.58746 -3.73237 0
M  V30 4077 H 391.109 -0.472829 -0.587324 0
M  V30 4078 H 393.76 -1.6024 -0.894171 0
M  V30 4079 H 392.142 -1.83151 -3.51101 0
M  V30 4080 H 393.316 -4.1962 -1.90409 0
M  V30 4081 H 391.631 -3.72378 -1.86343 0
M  V30 4082 H 394.228 -2.87107 -4.51081 0
M  V30 4083 H 394.571 -1.24542 -3.97234 0
M  V30 4084 H 395.104 -2.62846 -2.98591 0
M  V30 4085 H 391.843 -5.59521 -3.41492 0
M  V30 4086 H 391.363 -4.14871 -4.33176 0
M  V30 4087 H 393.042 -4.73852 -4.40537 0
M  V30 4088 N 393.175 1.03435 -1.18907 0
M  V30 4089 C 394.105 2.13503 -0.945448 0
M  V30 4090 C 395.086 1.69682 0.119189 0
M  V30 4091 O 396.271 1.94169 -0.034707 0
M  V30 4092 C 393.401 3.44004 -0.477316 0
M  V30 4093 C 392.355 4.0148 -1.48316 0
M  V30 4094 C 391.681 5.27537 -0.872311 0
M  V30 4095 C 392.981 4.36921 -2.86177 0
M  V30 4096 H 394.675 2.34141 -1.86597 0
M  V30 4097 H 392.221 1.12523 -0.898584 0
M  V30 4098 H 394.174 4.20372 -0.294204 0
M  V30 4099 H 392.898 3.23072 0.478786 0
M  V30 4100 H 391.557 3.27201 -1.65332 0
M  V30 4101 H 391.205 5.02917 0.0911752 0
M  V30 4102 H 390.905 5.66954 -1.54393 0
M  V30 4103 H 392.429 6.06576 -0.699871 0
M  V30 4104 H 393.843 5.04248 -2.72776 0
M  V30 4105 H 392.24 4.87405 -3.50081 0
M  V30 4106 H 393.31 3.46466 -3.39248 0
M  V30 4107 N 394.653 0.992116 1.22453 0
M  V30 4108 C 395.6 0.541731 2.24352 0
M  V30 4109 C 396.57 -0.425519 1.60557 0
M  V30 4110 O 397.755 -0.330453 1.87917 0
M  V30 4111 C 394.895 -0.138248 3.44823 0
M  V30 4112 C 394.008 0.870649 4.23136 0
M  V30 4113 C 393.143 0.164269 5.30946 0
M  V30 4114 C 392.182 1.16159 6.00977 0
M  V30 4115 N 391.319 0.483568 7.00433 0
M  V30 4116 H 396.159 1.41541 2.62241 0
M  V30 4117 H 393.696 0.709013 1.28885 0
M  V30 4118 H 395.654 -0.5494 4.13567 0
M  V30 4119 H 394.284 -0.975721 3.077 0
M  V30 4120 H 393.336 1.40013 3.53696 0
M  V30 4121 H 394.648 1.63014 4.7141 0
M  V30 4122 H 393.802 -0.303653 6.0594 0
M  V30 4123 H 392.541 -0.627733 4.83643 0
M  V30 4124 H 391.546 1.64015 5.24766 0
M  V30 4125 H 392.771 1.95445 6.50368 0
M  V30 4126 H 390.717 -0.289012 6.55363 0
M  V30 4127 H 390.634 1.18152 7.4671 0
M  V30 4128 H 391.902 0.0384219 7.79491 0
M  V30 4129 N 396.131 -1.37776 0.765217 0
M  V30 4130 C 397.094 -2.28686 0.153416 0
M  V30 4131 C 398.094 -1.47727 -0.635081 0
M  V30 4132 O 399.284 -1.68027 -0.459632 0
M  V30 4133 C 396.416 -3.31608 -0.790495 0
M  V30 4134 H 397.609 -2.84297 0.954723 0
M  V30 4135 H 395.162 -1.46932 0.53299 0
M  V30 4136 H 395.897 -2.81109 -1.61705 0
M  V30 4137 H 395.682 -3.9144 -0.227348 0
M  V30 4138 H 397.172 -3.99559 -1.21419 0
M  V30 4139 N 397.609 -0.515225 -1.4894 0
M  V30 4140 C 398.839 0.0205735 -2.0659 0
M  V30 4141 C 399.247 1.30064 -1.37405 0
M  V30 4142 O 398.59 1.78087 -0.450632 0
M  V30 4143 C 398.652 0.330124 -3.57981 0
M  V30 4144 C 398.316 -0.854295 -4.48944 0
M  V30 4145 C 399.313 -1.7487 -4.89609 0
M  V30 4146 C 396.998 -1.05712 -4.9105 0
M  V30 4147 C 398.992 -2.82996 -5.71132 0
M  V30 4148 C 396.679 -2.14154 -5.72347 0
M  V30 4149 C 397.677 -3.0263 -6.12294 0
M  V30 4150 O 397.365 -4.09198 -6.91962 0
M  V30 4151 H 397.097 -0.0236833 -0.675585 0
M  V30 4152 H 399.651 -0.715956 -1.92518 0
M  V30 4153 H 397.881 1.12044 -3.70112 0
M  V30 4154 H 399.57 0.806233 -3.97812 0
M  V30 4155 H 400.336 -1.60388 -4.57712 0
M  V30 4156 H 396.215 -0.377788 -4.59449 0
M  V30 4157 H 399.759 -3.52083 -6.02232 0
M  V30 4158 H 395.656 -2.28626 -6.03656 0
M  V30 4159 H 396.424 -4.06726 -7.10293 0
M  V30 4160 N 399.087 1.5561 -0.249682 0
M  V30 4161 C 400.312 2.03865 0.381305 0
M  V30 4162 C 400.737 1.12769 1.50548 0
M  V30 4163 O 400.095 0.121189 1.80895 0
M  V30 4164 C 400.143 3.50101 0.863816 0
M  V30 4165 O 399.247 3.62132 1.97318 0
M  V30 4166 H 398.588 0.658827 0.0827194 0
M  V30 4167 H 401.118 2.01105 -0.376552 0
M  V30 4168 H 401.128 3.90975 1.1663 0
M  V30 4169 H 399.803 4.1588 0.0411816 0
M  V30 4170 H 398.38 3.33155 1.67517 0
M  V30 4171 N 400.565 -0.0233959 1.57583 0
M  V30 4172 C 401.793 -0.724682 1.93794 0
M  V30 4173 C 402.208 -1.68588 0.849912 0
M  V30 4174 O 401.565 -1.81676 -0.173204 0
M  V30 4175 C 401.616 -1.47684 3.29957 0
M  V30 4176 O 401.337 -0.554222 4.3458 0
M  V30 4177 C 402.838 -2.27477 3.80485 0
M  V30 4178 H 400.058 -0.203317 0.639455 0
M  V30 4179 H 402.602 0.0207653 2.04489 0
M  V30 4180 H 400.757 -2.17412 3.20641 0
M  V30 4181 H 401.171 -1.08232 5.13212 0
M  V30 4182 H 402.645 -2.7564 4.78254 0
M  V30 4183 H 403.122 -3.09144 3.11972 0
M  V30 4184 H 403.728 -1.62813 3.92902 0
M  V30 4185 N 402.043 -1.548 -0.295768 0
M  V30 4186 C 403.459 -1.4613 -0.641722 0
M  V30 4187 C 403.659 -0.656771 -1.90496 0
M  V30 4188 O 402.715 -0.166547 -2.5195 0
M  V30 4189 C 404.028 -2.90141 -0.789852 0
M  V30 4190 C 405.576 -3.00216 -0.885396 0
M  V30 4191 C 406.051 -4.45434 -1.06548 0
M  V30 4192 N 407.542 -4.49166 -1.13156 0
M  V30 4193 C 408.277 -5.58717 -1.28929 0
M  V30 4194 N 407.773 -6.78182 -1.41567 0
M  V30 4195 N 409.566 -5.46415 -1.31859 0
M  V30 4196 H 401.717 -2.05574 0.534147 0
M  V30 4197 H 403.98 -0.931259 0.177372 0
M  V30 4198 H 403.686 -3.51635 0.0675598 0
M  V30 4199 H 403.56 -3.37859 -1.67724 0
M  V30 4200 H 405.947 -2.38833 -1.73329 0
M  V30 4201 H 406.028 -2.55787 0.0261185 0
M  V30 4202 H 405.672 -5.07413 -0.222335 0
M  V30 4203 H 405.602 -4.87499 -1.9913 0
M  V30 4204 H 408.093 -3.631 -1.04721 0
M  V30 4205 H 408.406 -7.57428 -1.53372 0
M  V30 4206 H 406.751 -6.81037 -1.38613 0
M  V30 4207 H 409.942 -4.5203 -1.21601 0
M  V30 4208 H 410.115 -6.31841 -1.43808 0
M  V30 4209 N 403.521 0.559213 -1.47345 0
M  V30 4210 C 404.767 1.31843 -1.54095 0
M  V30 4211 C 405.1 1.93149 -0.201726 0
M  V30 4212 O 404.375 1.77759 0.789428 0
M  V30 4213 C 404.658 2.43006 -2.65744 0
M  V30 4214 C 404.511 1.86581 -4.09277 0
M  V30 4215 C 405.83 3.44943 -2.73318 0
M  V30 4216 H 402.949 0.478012 -0.560957 0
M  V30 4217 H 405.591 0.625977 -1.79392 0
M  V30 4218 H 403.741 3.02072 -2.44305 0
M  V30 4219 H 405.413 1.31792 -4.42073 0
M  V30 4220 H 403.656 1.17268 -4.17649 0
M  V30 4221 H 404.327 2.66933 -4.83168 0
M  V30 4222 H 406.803 2.95793 -2.92653 0
M  V30 4223 H 405.679 4.20153 -3.53218 0
M  V30 4224 H 405.94 4.03665 -1.80296 0
M  V30 4225 N 404.999 1.35443 0.805782 0
M  V30 4226 C 406.247 1.28507 1.55982 0
M  V30 4227 C 406.568 -0.140046 1.94496 0
M  V30 4228 O 405.838 -1.07666 1.63661 0
M  V30 4229 H 404.418 0.472676 0.578434 0
M  V30 4230 H 407.08 1.69555 0.961098 0
M  V30 4231 H 406.176 1.90148 2.47488 0
M  V30 4232 N 406.477 -1.02803 1.19454 0
M  V30 4233 C 407.44 -2.09264 0.934955 0
M  V30 4234 C 408.44 -1.60576 -0.0849015 0
M  V30 4235 O 409.63 -1.73554 0.149933 0
M  V30 4236 C 406.762 -3.38482 0.40531 0
M  V30 4237 H 407.955 -2.33726 1.87916 0
M  V30 4238 H 405.508 -1.19426 1.00832 0
M  V30 4239 H 406.243 -3.19689 -0.544899 0
M  V30 4240 H 406.028 -3.75142 1.14065 0
M  V30 4241 H 407.518 -4.16894 0.242806 0
M  V30 4242 N 407.956 -0.998596 -1.21925 0
M  V30 4243 C 409.204 -0.676325 -1.90448 0
M  V30 4244 C 409.525 0.794719 -1.78071 0
M  V30 4245 O 408.795 1.5701 -1.17152 0
M  V30 4246 H 407.375 -0.247165 -0.704925 0
M  V30 4247 H 410.037 -1.26633 -1.48156 0
M  V30 4248 H 409.133 -0.943858 -2.97486 0
M  V30 4249 N 409.434 1.37368 -0.772513 0
M  V30 4250 C 410.845 1.8231 -0.402493 0
M  V30 4251 C 411.196 1.6436 1.07146 0
M  V30 4252 O 410.321 1.15514 1.82991 0
M  V30 4253 C 410.916 3.30979 -0.723776 0
M  V30 4254 C 409.475 3.74195 -0.406802 0
M  V30 4255 C 408.622 2.59885 -0.967218 0
M  V30 4256 H 411.573 1.25829 -0.967099 0
M  V30 4257 H 411.594 3.80499 -0.00870832 0
M  V30 4258 H 411.106 3.44011 -1.7966 0
M  V30 4259 H 409.207 3.66732 0.658673 0
M  V30 4260 H 409.32 4.7027 -0.915588 0
M  V30 4261 H 407.684 2.51674 -0.391416 0
M  V30 4262 H 408.467 2.7571 -2.04546 0
M  V30 4263 N 410.912 0.523116 1.48665 0
M  V30 4264 C 412.159 -0.0134763 2.02496 0
M  V30 4265 C 412.487 -1.3493 1.40086 0
M  V30 4266 O 411.742 -1.88286 0.533567 0
M  V30 4267 C 412.041 -0.191671 3.56886 0
M  V30 4268 C 411.707 1.06893 4.38046 0
M  V30 4269 C 410.369 1.41443 4.59943 0
M  V30 4270 C 412.721 1.90584 4.85106 0
M  V30 4271 C 410.049 2.59594 5.26144 0
M  V30 4272 C 412.401 3.07907 5.52609 0
M  V30 4273 C 411.065 3.42811 5.72745 0
M  V30 4274 H 410.335 -0.00493133 0.740984 0
M  V30 4275 H 412.982 0.687751 1.78724 0
M  V30 4276 H 411.287 -0.97561 3.79459 0
M  V30 4277 H 412.984 -0.621659 3.96152 0
M  V30 4278 H 409.574 0.789848 4.21259 0
M  V30 4279 H 413.758 1.65203 4.67997 0
M  V30 4280 H 409.014 2.86847 5.39934 0
M  V30 4281 H 413.188 3.73066 5.88043 0
M  V30 4282 H 410.815 4.34462 6.23816 0
M  V30 4283 N 412.39 -1.55475 0.257931 0
M  V30 4284 C 413.801 -1.8511 -0.243135 0
M  V30 4285 C 414.152 -1.17986 -1.5676 0
M  V30 4286 O 413.277 -0.462102 -2.11409 0
M  V30 4287 C 413.872 -3.35826 -0.447929 0
M  V30 4288 C 412.431 -3.65647 -0.893245 0
M  V30 4289 C 411.578 -2.7729 0.0232965 0
M  V30 4290 H 414.529 -1.51261 0.480199 0
M  V30 4291 H 414.55 -3.58002 -1.28898 0
M  V30 4292 H 414.062 -3.84652 0.516196 0
M  V30 4293 H 412.163 -3.22308 -1.86945 0
M  V30 4294 H 412.276 -4.73312 -0.742469 0
M  V30 4295 H 410.64 -2.49942 -0.490021 0
M  V30 4296 H 411.423 -3.28926 0.982994 0
M  V30 4297 N 413.868 0.0150385 -1.57593 0
M  V30 4298 C 415.096 0.714395 -1.94175 0
M  V30 4299 C 415.511 1.68135 -0.858841 0
M  V30 4300 O 414.868 1.81766 0.163567 0
M  V30 4301 C 414.919 1.45933 -3.30735 0
M  V30 4302 O 414.64 0.531167 -4.34868 0
M  V30 4303 C 416.141 2.25456 -3.81686 0
M  V30 4304 H 413.361 0.199923 -0.640525 0
M  V30 4305 H 415.905 -0.0316096 -2.04476 0
M  V30 4306 H 414.06 2.15709 -3.21789 0
M  V30 4307 H 414.474 1.05509 -5.13778 0
M  V30 4308 H 415.948 2.731 -4.79709 0
M  V30 4309 H 416.425 3.07485 -3.13607 0
M  V30 4310 H 417.031 1.60727 -3.9376 0
M  V30 4311 N 415.346 1.54954 0.287554 0
M  V30 4312 C 416.256 1.8991 1.37736 0
M  V30 4313 C 417.272 0.794701 1.54792 0
M  V30 4314 O 418.448 1.09243 1.69198 0
M  V30 4315 C 415.513 2.15108 2.71899 0
M  V30 4316 C 414.574 3.38752 2.63715 0
M  V30 4317 C 413.807 3.62739 3.91479 0
M  V30 4318 O 414.03 2.89492 4.91478 0
M  V30 4319 O 412.964 4.56267 3.92561 0
M  V30 4320 H 416.79 2.82652 1.11092 0
M  V30 4321 H 414.375 1.41315 0.484807 0
M  V30 4322 H 416.257 2.32806 3.51254 0
M  V30 4323 H 414.932 1.25551 2.9836 0
M  V30 4324 H 413.839 3.26405 1.82786 0
M  V30 4325 H 415.172 4.28483 2.42205 0
M  V30 4326 N 416.824 -0.551391 1.4764 0
M  V30 4327 C 417.754 -1.66757 1.63445 0
M  V30 4328 C 418.735 -1.63077 0.483742 0
M  V30 4329 O 419.92 -1.80607 0.71377 0
M  V30 4330 C 417.05 -3.05387 1.65396 0
M  V30 4331 C 416.004 -3.23918 2.79752 0
M  V30 4332 C 415.33 -4.63393 2.66779 0
M  V30 4333 C 416.63 -3.08735 4.21284 0
M  V30 4334 H 418.324 -1.53786 2.56886 0
M  V30 4335 H 415.87 -0.738415 1.23626 0
M  V30 4336 H 417.823 -3.83325 1.75043 0
M  V30 4337 H 416.547 -3.19332 0.685195 0
M  V30 4338 H 415.206 -2.48391 2.69625 0
M  V30 4339 H 414.854 -4.74144 1.67918 0
M  V30 4340 H 414.554 -4.7674 3.43501 0
M  V30 4341 H 416.078 -5.43458 2.78364 0
M  V30 4342 H 417.492 -3.76484 4.32357 0
M  V30 4343 H 415.889 -3.33588 4.98838 0
M  V30 4344 H 416.959 -2.0541 4.39243 0
M  V30 4345 N 418.302 -1.35869 -0.798587 0
M  V30 4346 C 419.549 -1.29588 -1.55606 0
M  V30 4347 C 419.877 0.127456 -1.94082 0
M  V30 4348 O 419.132 1.09461 -1.62225 0
M  V30 4349 C 419.431 -2.1556 -2.85077 0
M  V30 4350 C 419.097 -3.6424 -2.65781 0
M  V30 4351 C 417.759 -4.04766 -2.60227 0
M  V30 4352 C 420.111 -4.58547 -2.47758 0
M  V30 4353 C 417.439 -5.37753 -2.34603 0
M  V30 4354 C 419.791 -5.91742 -2.23662 0
M  V30 4355 C 418.455 -6.31402 -2.16534 0
M  V30 4356 H 417.725 -0.474197 -0.569402 0
M  V30 4357 H 420.372 -1.67839 -0.922086 0
M  V30 4358 H 418.677 -1.70216 -3.52893 0
M  V30 4359 H 420.374 -2.08031 -3.42818 0
M  V30 4360 H 416.964 -3.32086 -2.70956 0
M  V30 4361 H 421.148 -4.28117 -2.51056 0
M  V30 4362 H 416.404 -5.67474 -2.2756 0
M  V30 4363 H 420.578 -6.6439 -2.08708 0
M  V30 4364 H 418.205 -7.34381 -1.96441 0
M  V30 4365 N 419.78 1.02168 -1.19998 0
M  V30 4366 C 421.057 1.72816 -0.916191 0
M  V30 4367 C 421.437 2.03081 0.576325 0
M  V30 4368 O 420.785 1.69122 1.53656 0
M  V30 4369 C 420.995 2.9997 -1.78378 0
M  V30 4370 C 422.343 3.73336 -2.02251 0
M  V30 4371 O 423.367 3.09914 -1.75589 0
M  V30 4372 O 422.226 4.87371 -2.47249 0
M  V30 4373 H 419.32 0.752924 -0.342103 0
M  V30 4374 H 421.866 1.08062 -1.30846 0
M  V30 4375 H 420.638 2.73888 -2.79466 0
M  V30 4376 H 420.261 3.72464 -1.39126 0
M  V30 4377 N 421.258 1.00505 1.21394 0
M  V30 4378 C 422.168 0.574806 2.27449 0
M  V30 4379 C 423.184 -0.382206 1.6975 0
M  V30 4380 O 424.36 -0.246027 1.99892 0
M  V30 4381 C 421.425 -0.0917414 3.46579 0
M  V30 4382 C 420.486 0.909758 4.1955 0
M  V30 4383 C 419.719 0.274924 5.32991 0
M  V30 4384 O 419.942 -0.928254 5.62796 0
M  V30 4385 O 418.876 0.985877 5.93771 0
M  V30 4386 H 422.702 1.45744 2.66444 0
M  V30 4387 H 420.287 0.773923 1.27792 0
M  V30 4388 H 422.169 -0.464551 4.18832 0
M  V30 4389 H 420.844 -0.948755 3.09484 0
M  V30 4390 H 419.751 1.33372 3.49518 0
M  V30 4391 H 421.084 1.73636 4.60555 0
M  V30 4392 N 422.737 -1.36956 0.779787 0
M  V30 4393 C 423.965 -2.03755 0.359398 0
M  V30 4394 C 424.38 -1.58807 -1.02106 0
M  V30 4395 O 423.737 -0.773024 -1.6532 0
M  V30 4396 C 423.788 -3.59251 0.402568 0
M  V30 4397 O 423.509 -4.02557 1.72858 0
M  V30 4398 C 425.01 -4.43291 -0.0284068 0
M  V30 4399 H 422.23 -0.654148 0.149437 0
M  V30 4400 H 424.774 -1.75128 1.05595 0
M  V30 4401 H 422.929 -3.86621 -0.245478 0
M  V30 4402 H 423.343 -4.97111 1.67275 0
M  V30 4403 H 424.817 -5.51975 0.0529466 0
M  V30 4404 H 425.294 -4.25719 -1.07982 0
M  V30 4405 H 425.9 -4.21163 0.591758 0
M  V30 4406 N 424.215 -0.530993 -1.48385 0
M  V30 4407 C 425.463 0.00273189 -2.021 0
M  V30 4408 C 425.784 1.34672 -1.41027 0
M  V30 4409 O 425.054 1.8724 -0.576012 0
M  V30 4410 H 423.634 0.00399774 -0.746989 0
M  V30 4411 H 426.296 -0.695054 -1.82085 0
M  V30 4412 H 425.392 0.11031 -3.11905 0
M  V30 4413 N 425.693 1.55336 -0.266172 0
M  V30 4414 C 426.603 2.2583 0.635458 0
M  V30 4415 C 427.619 1.28106 1.17749 0
M  V30 4416 O 428.795 1.61024 1.20968 0
M  V30 4417 C 425.86 2.95879 1.80712 0
M  V30 4418 C 424.921 4.09059 1.30265 0
M  V30 4419 C 424.154 4.75759 2.41846 0
M  V30 4420 O 424.377 4.41622 3.61007 0
M  V30 4421 O 423.311 5.63888 2.1051 0
M  V30 4422 H 427.137 3.03631 0.0646693 0
M  V30 4423 H 424.722 1.49361 -0.0339177 0
M  V30 4424 H 426.604 3.39932 2.49047 0
M  V30 4425 H 425.279 2.21002 2.36516 0
M  V30 4426 H 424.186 3.69482 0.586019 0
M  V30 4427 H 425.519 4.85811 0.790458 0
M  V30 4428 N 427.171 -0.0066808 1.57599 0
M  V30 4429 C 428.418 -0.69292 1.90276 0
M  V30 4430 C 428.746 -1.74148 0.866192 0
M  V30 4431 O 428.001 -1.95268 -0.129933 0
M  V30 4432 C 428.3 -1.37939 3.29708 0
M  V30 4433 C 427.966 -0.464679 4.48499 0
M  V30 4434 C 426.628 -0.212809 4.80729 0
M  V30 4435 C 428.98 0.16551 5.20937 0
M  V30 4436 C 426.308 0.677653 5.82773 0
M  V30 4437 C 428.66 1.04381 6.23929 0
M  V30 4438 C 427.324 1.30492 6.54621 0
M  V30 4439 H 426.594 -0.253558 0.696268 0
M  V30 4440 H 429.241 0.0474123 1.91441 0
M  V30 4441 H 427.546 -2.1936 3.24636 0
M  V30 4442 H 429.243 -1.9163 3.52249 0
M  V30 4443 H 425.833 -0.671153 4.23313 0
M  V30 4444 H 430.017 -0.0160756 4.96297 0
M  V30 4445 H 425.273 0.88803 6.04917 0
M  V30 4446 H 429.447 1.53851 6.79193 0
M  V30 4447 H 427.074 1.99662 7.33512 0
M  V30 4448 N 428.649 -1.55105 -0.279332 0
M  V30 4449 C 429.579 -1.90557 -1.34945 0
M  V30 4450 C 430.56 -0.766738 -1.51839 0
M  V30 4451 O 431.745 -1.02434 -1.64988 0
M  V30 4452 C 428.875 -2.17193 -2.71006 0
M  V30 4453 C 427.829 -3.33021 -2.68851 0
M  V30 4454 C 427.155 -3.45123 -4.08405 0
M  V30 4455 C 428.455 -4.69578 -2.28678 0
M  V30 4456 H 430.149 -2.80188 -1.05522 0
M  V30 4457 H 427.695 -1.34811 -0.506173 0
M  V30 4458 H 429.648 -2.40581 -3.45975 0
M  V30 4459 H 428.372 -1.24355 -3.01999 0
M  V30 4460 H 427.031 -3.0959 -1.9634 0
M  V30 4461 H 426.679 -2.49762 -4.3661 0
M  V30 4462 H 426.379 -4.22995 -4.07859 0
M  V30 4463 H 427.903 -3.70796 -4.85121 0
M  V30 4464 H 429.317 -4.92553 -2.93368 0
M  V30 4465 H 427.714 -5.5032 -2.39306 0
M  V30 4466 H 428.784 -4.68828 -1.23807 0
M  V30 4467 N 430.127 0.543554 -1.4793 0
M  V30 4468 C 431.367 1.31072 -1.56843 0
M  V30 4469 C 431.731 1.90604 -0.231124 0
M  V30 4470 O 432.932 2.68091 -0.195165 0
M  V30 4471 C 431.203 2.38106 -2.66533 0
M  V30 4472 S 432.762 3.24729 -2.95122 0
M  V30 4473 H 429.58 0.446035 -0.553691 0
M  V30 4474 H 432.182 0.620777 -1.85382 0
M  V30 4475 H 430.886 1.92828 -3.62278 0
M  V30 4476 H 430.417 3.11824 -2.39852 0
M  V30 4477 H 432.432 4.37891 -2.3338 0
M  V30 4478 N 431.605 1.3629 0.791371 0
M  V30 4479 C 432.552 1.30458 1.90393 0
M  V30 4480 C 433.522 0.173632 1.6519 0
M  V30 4481 O 434.707 0.35983 1.87376 0
M  V30 4482 C 431.847 1.09777 3.27174 0
M  V30 4483 C 430.96 2.31929 3.64462 0
M  V30 4484 C 430.095 2.04276 4.90352 0
M  V30 4485 C 429.134 3.224 5.20312 0
M  V30 4486 N 428.271 2.94424 6.37385 0
M  V30 4487 H 433.111 2.25589 1.94714 0
M  V30 4488 H 430.648 1.12122 0.952216 0
M  V30 4489 H 432.606 0.958133 4.06049 0
M  V30 4490 H 431.236 0.183014 3.22281 0
M  V30 4491 H 430.288 2.56703 2.80727 0
M  V30 4492 H 431.6 3.20085 3.82553 0
M  V30 4493 H 430.754 1.87231 5.77087 0
M  V30 4494 H 429.493 1.13428 4.74326 0
M  V30 4495 H 428.498 3.40005 4.32061 0
M  V30 4496 H 429.723 4.14071 5.38258 0
M  V30 4497 H 427.669 2.06185 6.22755 0
M  V30 4498 H 427.586 3.76118 6.55798 0
M  V30 4499 H 428.854 2.80953 7.27108 0
M  V30 4500 N 433.083 -1.0153 1.20538 0
M  V30 4501 C 434.015 -2.10224 0.913155 0
M  V30 4502 C 435.028 -1.62495 -0.0995998 0
M  V30 4503 O 436.217 -1.78014 0.131582 0
M  V30 4504 C 433.317 -3.37111 0.347717 0
M  V30 4505 C 432.49 -4.13971 1.41233 0
M  V30 4506 C 431.549 -5.19158 0.857976 0
M  V30 4507 O 430.575 -5.48 1.53897 0
M  V30 4508 N 431.777 -5.7955 -0.331966 0
M  V30 4509 H 434.542 -2.35879 1.84881 0
M  V30 4510 H 432.103 -1.17931 1.10923 0
M  V30 4511 H 434.095 -4.04683 -0.0373026 0
M  V30 4512 H 432.665 -3.08696 -0.492527 0
M  V30 4513 H 431.885 -3.41351 1.97163 0
M  V30 4514 H 433.173 -4.62103 2.12928 0
M  V30 4515 H 432.571 -5.58455 -0.902478 0
M  V30 4516 H 431.128 -6.48464 -0.65861 0
M  V30 4517 N 434.561 -1.01147 -1.20859 0
M  V30 4518 C 435.809 -0.696486 -1.89719 0
M  V30 4519 C 436.13 0.775788 -1.78904 0
M  V30 4520 O 435.4 1.55759 -1.18811 0
M  V30 4521 H 433.98 -0.254628 -0.702263 0
M  V30 4522 H 436.642 -1.28197 -1.46804 0
M  V30 4523 H 435.738 -0.975357 -2.96468 0
M  V30 4524 N 436.039 1.36541 -0.78704 0
M  V30 4525 C 436.987 2.31965 -0.171724 0
M  V30 4526 C 437.981 1.55689 0.667631 0
M  V30 4527 O 439.187 1.70969 0.562981 0
M  V30 4528 H 435.562 0.751101 -0.0367545 0
M  V30 4529 H 437.533 2.81428 -0.992017 0
M  V30 4530 C 436.282 3.40968 0.680904 0
M  V30 4531 H 435.605 3.99775 0.0443961 0
M  V30 4532 H 437.045 4.10063 1.07815 0
M  V30 4533 C 435.504 2.82338 1.83813 0
M  V30 4534 O 436.034 2.74311 2.93456 0
M  V30 4535 N 434.24 2.39661 1.6435 0
M  V30 4536 H 433.787 2.46389 0.751668 0
M  V30 4537 H 433.745 2.00779 2.4194 0
M  V30 4538 N 437.518 0.538854 1.48102 0
M  V30 4539 C 438.428 -0.222648 2.33541 0
M  V30 4540 C 439.444 -0.930225 1.47047 0
M  V30 4541 O 440.62 -0.903211 1.80011 0
M  V30 4542 C 437.685 -1.25064 3.23357 0
M  V30 4543 C 436.746 -0.552469 4.2573 0
M  V30 4544 C 435.979 -1.53149 5.11254 0
M  V30 4545 O 436.202 -2.76487 4.9891 0
M  V30 4546 O 435.136 -1.06602 5.92385 0
M  V30 4547 H 438.962 0.477707 2.99919 0
M  V30 4548 H 436.547 0.299669 1.46364 0
M  V30 4549 H 438.429 -1.8445 3.78888 0
M  V30 4550 H 437.104 -1.93325 2.59629 0
M  V30 4551 H 436.011 0.082114 3.7401 0
M  V30 4552 H 437.344 0.0883526 4.92121 0
M  V30 4553 N 438.996 -1.55193 0.274407 0
M  V30 4554 C 440.243 -1.99581 -0.342579 0
M  V30 4555 C 440.571 -1.1628 -1.55914 0
M  V30 4556 O 439.826 -0.22029 -1.94456 0
M  V30 4557 C 440.125 -3.49019 -0.769458 0
M  V30 4558 C 439.791 -4.49598 0.342389 0
M  V30 4559 C 438.453 -4.76821 0.647686 0
M  V30 4560 C 440.805 -5.0964 1.09163 0
M  V30 4561 C 438.133 -5.61354 1.70581 0
M  V30 4562 C 440.485 -5.95323 2.13948 0
M  V30 4563 C 439.149 -6.20867 2.45113 0
M  V30 4564 H 438.419 -0.730319 -0.125358 0
M  V30 4565 H 441.066 -1.87529 0.387971 0
M  V30 4566 H 439.371 -3.58544 -1.57967 0
M  V30 4567 H 441.068 -3.8077 -1.25757 0
M  V30 4568 H 437.658 -4.28496 0.094318 0
M  V30 4569 H 441.842 -4.88632 0.869024 0
M  V30 4570 H 437.098 -5.79392 1.9523 0
M  V30 4571 H 441.272 -6.40881 2.72478 0
M  V30 4572 H 438.899 -6.86162 3.27239 0
M  V30 4573 N 440.474 -0.00167713 -1.576 0
M  V30 4574 C 441.722 0.681471 -1.90264 0
M  V30 4575 C 442.043 1.7422 -0.875924 0
M  V30 4576 O 441.313 1.95709 0.0864412 0
M  V30 4577 H 439.893 0.254696 -0.702239 0
M  V30 4578 H 442.555 -0.0429996 -1.94853 0
M  V30 4579 H 441.651 1.15166 -2.90075 0
M  V30 4580 N 441.952 1.55251 0.271103 0
M  V30 4581 C 442.915 1.87484 1.31842 0
M  V30 4582 C 443.915 0.749545 1.42262 0
M  V30 4583 O 445.105 1.01771 1.4138 0
M  V30 4584 C 442.237 2.0818 2.69951 0
M  V30 4585 H 443.43 2.81108 1.0449 0
M  V30 4586 H 440.983 1.47771 0.509258 0
M  V30 4587 H 441.718 1.16944 3.02481 0
M  V30 4588 H 441.503 2.90114 2.63774 0
M  V30 4589 H 442.993 2.34385 3.4562 0
M  V30 4590 N 443.43 -0.535701 1.48216 0
M  V30 4591 C 444.658 -1.31671 1.59594 0
M  V30 4592 C 445.073 -1.87083 0.254056 0
M  V30 4593 O 444.43 -1.66112 -0.755854 0
M  V30 4594 C 444.481 -2.47158 2.63809 0
M  V30 4595 O 444.202 -1.94032 3.92789 0
M  V30 4596 C 445.703 -3.39062 2.85573 0
M  V30 4597 H 442.923 -0.400623 0.538277 0
M  V30 4598 H 445.467 -0.646827 1.94001 0
M  V30 4599 H 443.622 -3.10043 2.32276 0
M  V30 4600 H 444.036 -2.69585 4.49916 0
M  V30 4601 H 445.51 -4.16459 3.62306 0
M  V30 4602 H 445.987 -3.93941 1.94184 0
M  V30 4603 H 446.593 -2.81975 3.18387 0
M  V30 4604 N 444.908 -1.36708 -0.784132 0
M  V30 4605 C 446.136 -1.34398 -1.57305 0
M  V30 4606 C 446.551 0.0735577 -1.88657 0
M  V30 4607 O 445.908 1.03193 -1.50524 0
M  V30 4608 C 445.959 -2.17053 -2.89085 0
M  V30 4609 O 445.68 -3.53281 -2.59083 0
M  V30 4610 C 447.181 -2.22583 -3.83369 0
M  V30 4611 H 444.401 -0.460819 -0.487736 0
M  V30 4612 H 446.945 -1.79879 -0.972819 0
M  V30 4613 H 445.1 -1.75113 -3.45564 0
M  V30 4614 H 445.514 -3.9647 -3.43383 0
M  V30 4615 H 446.988 -2.84763 -4.72878 0
M  V30 4616 H 447.465 -1.23075 -4.21603 0
M  V30 4617 H 448.071 -2.64781 -3.32823 0
M  V30 4618 N 446.386 1.0089 -1.21074 0
M  V30 4619 C 447.634 1.74262 -1.02358 0
M  V30 4620 C 447.955 1.89869 0.444393 0
M  V30 4621 O 447.225 1.44677 1.32081 0
M  V30 4622 H 445.805 0.645615 -0.375754 0
M  V30 4623 H 448.467 1.21596 -1.52317 0
M  V30 4624 H 447.563 2.74328 -1.4883 0
M  V30 4625 N 447.864 1.01787 1.20321 0
M  V30 4626 C 449.28 0.732951 1.41774 0
M  V30 4627 C 449.48 -0.686883 1.89431 0
M  V30 4628 O 448.536 -1.45446 2.06402 0
M  V30 4629 C 449.849 1.75973 2.43832 0
M  V30 4630 C 451.397 1.77802 2.57596 0
M  V30 4631 C 451.872 2.7941 3.62897 0
M  V30 4632 N 453.363 2.78157 3.70382 0
M  V30 4633 C 454.098 3.53434 4.51521 0
M  V30 4634 N 453.594 4.38392 5.36455 0
M  V30 4635 N 455.387 3.42026 4.46066 0
M  V30 4636 H 447.538 1.93447 0.877035 0
M  V30 4637 H 449.801 0.835712 0.447536 0
M  V30 4638 H 449.507 2.77699 2.15815 0
M  V30 4639 H 449.381 1.57292 3.4284 0
M  V30 4640 H 451.768 0.767602 2.84942 0
M  V30 4641 H 451.849 2.00557 1.58779 0
M  V30 4642 H 451.493 3.80616 3.36295 0
M  V30 4643 H 451.423 2.53916 4.61339 0
M  V30 4644 H 453.914 2.16531 3.09714 0
M  V30 4645 H 454.227 4.92596 5.95457 0
M  V30 4646 H 452.572 4.4247 5.35953 0
M  V30 4647 H 455.763 2.75075 3.78749 0
M  V30 4648 H 455.936 4.00946 5.09064 0
M  V30 4649 N 449.342 -1.36122 0.79427 0
M  V30 4650 C 450.758 -1.5232 0.476525 0
M  V30 4651 C 450.958 -1.74685 -1.00436 0
M  V30 4652 O 450.014 -1.78115 -1.78973 0
M  V30 4653 C 451.327 -2.70607 1.31119 0
M  V30 4654 C 452.875 -2.8448 1.30537 0
M  V30 4655 C 453.35 -4.05778 2.12387 0
M  V30 4656 N 454.841 -4.12933 2.09859 0
M  V30 4657 C 455.576 -5.05876 2.69957 0
M  V30 4658 N 455.072 -6.04232 3.38934 0
M  V30 4659 N 456.865 -4.98528 2.59665 0
M  V30 4660 H 449.016 -1.1986 1.75349 0
M  V30 4661 H 451.279 -0.585418 0.745647 0
M  V30 4662 H 450.985 -2.60619 2.36158 0
M  V30 4663 H 450.859 -3.64888 0.955843 0
M  V30 4664 H 453.246 -2.93927 0.262876 0
M  V30 4665 H 453.327 -1.91093 1.70051 0
M  V30 4666 H 452.971 -3.97092 3.1667 0
M  V30 4667 H 452.901 -4.98323 1.70242 0
M  V30 4668 H 455.392 -3.42515 1.59662 0
M  V30 4669 H 455.705 -6.71724 3.82109 0
M  V30 4670 H 454.05 -6.04443 3.43036 0
M  V30 4671 H 457.241 -4.20641 2.05375 0
M  V30 4672 H 457.414 -5.70773 3.06793 0
M  V30 4673 N 450.82 -0.546701 -1.47814 0
M  V30 4674 C 452.236 -0.205717 -1.58269 0
M  V30 4675 C 452.436 1.29153 -1.54667 0
M  V30 4676 O 451.492 2.07098 -1.44453 0
M  V30 4677 C 452.805 -0.823065 -2.89216 0
M  V30 4678 C 454.353 -0.793328 -3.02779 0
M  V30 4679 C 454.828 -1.38955 -4.36412 0
M  V30 4680 N 456.319 -1.35227 -4.43021 0
M  V30 4681 C 457.054 -1.78333 -5.44963 0
M  V30 4682 N 456.55 -2.29246 -6.53772 0
M  V30 4683 N 458.343 -1.69467 -5.35945 0
M  V30 4684 H 450.494 -1.5196 -1.48398 0
M  V30 4685 H 452.757 -0.633078 -0.705632 0
M  V30 4686 H 452.463 -1.8749 -2.97558 0
M  V30 4687 H 452.337 -0.309915 -3.75925 0
M  V30 4688 H 454.724 0.249784 -2.94041 0
M  V30 4689 H 454.805 -1.34412 -2.17639 0
M  V30 4690 H 454.449 -2.43168 -4.45906 0
M  V30 4691 H 454.379 -0.814291 -5.20266 0
M  V30 4692 H 456.87 -0.979739 -3.64979 0
M  V30 4693 H 457.183 -2.60089 -7.27718 0
M  V30 4694 H 455.528 -2.3325 -6.5469 0
M  V30 4695 H 458.719 -1.29477 -4.49837 0
M  V30 4696 H 458.892 -2.03381 -6.15256 0
M  V30 4697 N 452.299 1.55045 -0.282633 0
M  V30 4698 C 453.715 1.59441 0.0712997 0
M  V30 4699 C 453.915 1.2998 1.53972 0
M  V30 4700 O 452.971 1.06431 2.28973 0
M  V30 4701 C 454.284 2.99097 -0.310104 0
M  V30 4702 C 455.832 3.1194 -0.257343 0
M  V30 4703 C 456.307 4.53875 -0.613297 0
M  V30 4704 N 457.798 4.5974 -0.565134 0
M  V30 4705 C 458.533 5.67603 -0.81326 0
M  V30 4706 N 458.029 6.83582 -1.1264 0
M  V30 4707 N 459.822 5.57187 -0.741553 0
M  V30 4708 H 451.973 1.72458 -1.23984 0
M  V30 4709 H 454.236 0.804549 -0.501403 0
M  V30 4710 H 453.942 3.25516 -1.33163 0
M  V30 4711 H 453.816 3.75616 0.345366 0
M  V30 4712 H 456.203 2.85281 0.754905 0
M  V30 4713 H 456.284 2.37618 -0.947178 0
M  V30 4714 H 455.928 4.81261 -1.62327 0
M  V30 4715 H 455.858 5.26508 0.09841 0
M  V30 4716 H 458.349 3.76427 -0.333294 0
M  V30 4717 H 458.662 7.6175 -1.30219 0
M  V30 4718 H 457.007 6.85179 -1.16425 0
M  V30 4719 H 460.198 4.65457 -0.496705 0
M  V30 4720 H 460.371 6.41171 -0.938306 0
M  V30 4721 N 453.777 0.010035 1.57597 0
M  V30 4722 C 455.005 -0.683413 1.95287 0
M  V30 4723 C 455.42 -1.66747 0.885481 0
M  V30 4724 O 454.777 -1.82003 -0.134629 0
M  V30 4725 C 454.828 -1.40652 3.33015 0
M  V30 4726 O 454.549 -0.461916 4.35658 0
M  V30 4727 C 456.05 -2.19356 3.85225 0
M  V30 4728 H 453.27 -0.189708 0.643624 0
M  V30 4729 H 455.814 0.0641359 2.04399 0
M  V30 4730 H 453.969 -2.10562 3.2518 0
M  V30 4731 H 454.383 -0.973215 5.15392 0
M  V30 4732 H 455.857 -2.65433 4.83993 0
M  V30 4733 H 456.334 -3.02457 3.18459 0
M  V30 4734 H 456.94 -1.54442 3.96267 0
M  V30 4735 N 455.255 -1.55392 -0.262866 0
M  V30 4736 C 456.503 -1.76127 -0.991147 0
M  V30 4737 C 456.824 -0.571083 -1.8645 0
M  V30 4738 O 456.094 0.413698 -1.91482 0
M  V30 4739 H 454.674 -0.649528 -0.368948 0
M  V30 4740 H 457.336 -1.9281 -0.284655 0
M  V30 4741 H 456.432 -2.6663 -1.62219 0
M  V30 4742 N 456.733 0.527833 -1.48498 0
M  V30 4743 C 457.979 1.28295 -1.57836 0
M  V30 4744 C 458.334 1.9077 -0.249943 0
M  V30 4745 O 457.627 1.76421 0.747402 0
M  V30 4746 C 457.821 2.39275 -2.65485 0
M  V30 4747 C 457.65 1.87679 -4.08664 0
M  V30 4748 C 456.42 1.70187 -4.75778 0
M  V30 4749 C 458.618 1.40409 -4.94762 0
M  V30 4750 N 456.6 1.13238 -6.03366 0
M  V30 4751 C 457.971 0.954216 -6.12613 0
M  V30 4752 C 460.026 1.28732 -4.8097 0
M  V30 4753 C 458.729 0.39915 -7.18192 0
M  V30 4754 C 460.755 0.746244 -5.86673 0
M  V30 4755 C 460.117 0.306457 -7.03733 0
M  V30 4756 H 456.216 0.460408 -0.632099 0
M  V30 4757 H 458.8 0.594913 -1.85388 0
M  V30 4758 H 456.971 3.05572 -2.3975 0
M  V30 4759 H 458.703 3.06308 -2.64495 0
M  V30 4760 H 455.458 1.93772 -4.32145 0
M  V30 4761 H 455.882 0.867687 -6.71417 0
M  V30 4762 H 460.524 1.61338 -3.90807 0
M  V30 4763 H 458.242 0.0607678 -8.08077 0
M  V30 4764 H 461.828 0.659041 -5.78055 0
M  V30 4765 H 460.708 -0.105708 -7.84129 0
M  V30 4766 N 458.211 1.37122 0.776871 0
M  V30 4767 C 459.141 1.35164 1.90402 0
M  V30 4768 C 460.122 0.221069 1.68657 0
M  V30 4769 O 461.307 0.420642 1.8959 0
M  V30 4770 C 458.437 1.15274 3.27611 0
M  V30 4771 C 457.391 2.25289 3.63908 0
M  V30 4772 C 456.717 1.90527 4.99603 0
M  V30 4773 C 458.017 3.67446 3.71188 0
M  V30 4774 H 459.711 2.29482 1.92297 0
M  V30 4775 H 457.257 1.10465 0.923773 0
M  V30 4776 H 459.21 1.12536 4.06096 0
M  V30 4777 H 457.934 0.174102 3.26136 0
M  V30 4778 H 456.593 2.27174 2.87728 0
M  V30 4779 H 456.241 0.91206 4.94662 0
M  V30 4780 H 455.941 2.64193 5.24858 0
M  V30 4781 H 457.465 1.89367 5.80493 0
M  V30 4782 H 458.879 3.67719 4.39836 0
M  V30 4783 H 457.276 4.40123 4.07936 0
M  V30 4784 H 458.346 4.01443 2.71977 0
M  V30 4785 N 459.689 -1.00246 1.21608 0
M  V30 4786 C 460.966 -1.71336 0.943568 0
M  V30 4787 C 461.346 -2.03972 -0.543943 0
M  V30 4788 O 460.694 -1.71545 -1.50946 0
M  V30 4789 C 460.904 -2.97094 1.83128 0
M  V30 4790 C 462.252 -3.70071 2.08165 0
M  V30 4791 O 463.276 -3.07081 1.80498 0
M  V30 4792 O 462.135 -4.83376 2.54971 0
M  V30 4793 H 459.229 -0.747386 0.354039 0
M  V30 4794 H 461.775 -1.05967 1.32549 0
M  V30 4795 H 460.547 -2.69407 2.83788 0
M  V30 4796 H 460.17 -3.70204 1.45034 0
M  V30 4797 N 461.167 -1.02423 -1.1978 0
M  V30 4798 C 462.395 -0.737456 -1.93311 0
M  V30 4799 C 462.81 0.703023 -1.75223 0
M  V30 4800 O 462.167 1.47761 -1.07112 0
M  V30 4801 C 462.218 -1.0733 -3.45199 0
M  V30 4802 O 461.939 -2.4572 -3.62702 0
M  V30 4803 C 463.44 -0.80866 -4.35862 0
M  V30 4804 H 460.66 -0.2702 -0.614193 0
M  V30 4805 H 463.204 -1.36747 -1.52054 0
M  V30 4806 H 461.359 -0.488545 -3.84307 0
M  V30 4807 H 461.773 -2.58081 -4.56612 0
M  V30 4808 H 463.247 -1.09365 -5.41057 0
M  V30 4809 H 463.724 0.257025 -4.38447 0
M  V30 4810 H 464.33 -1.37592 -4.02428 0
M  V30 4811 N 462.645 1.35699 -0.801477 0
M  V30 4812 C 463.891 1.99208 -0.380022 0
M  V30 4813 C 464.224 1.63445 1.04878 0
M  V30 4814 O 463.499 0.895223 1.72673 0
M  V30 4815 C 463.782 3.55755 -0.557708 0
M  V30 4816 C 463.635 4.01332 -2.03107 0
M  V30 4817 C 464.954 4.40096 0.0197968 0
M  V30 4818 H 462.073 0.723667 -0.139552 0
M  V30 4819 H 464.715 1.60928 -1.01006 0
M  V30 4820 H 462.865 3.88494 -0.0213741 0
M  V30 4821 H 464.537 3.79026 -2.62939 0
M  V30 4822 H 462.78 3.52429 -2.52936 0
M  V30 4823 H 463.451 5.10234 -2.1063 0
M  V30 4824 H 465.927 4.13786 -0.438179 0
M  V30 4825 H 464.803 5.48735 -0.134477 0
M  V30 4826 H 465.064 4.2786 1.11303 0
M  V30 4827 N 464.123 0.554532 1.47522 0
M  V30 4828 C 465.086 -0.184174 2.28459 0
M  V30 4829 C 466.086 -0.845195 1.36796 0
M  V30 4830 O 467.276 -0.701467 1.59452 0
M  V30 4831 C 464.408 -1.26903 3.16399 0
M  V30 4832 H 465.601 0.526751 2.95238 0
M  V30 4833 H 463.154 0.311375 1.53167 0
M  V30 4834 H 463.889 -2.01244 2.54306 0
M  V30 4835 H 463.674 -0.799883 3.83854 0
M  V30 4836 H 465.164 -1.78794 3.77389 0
M  V30 4837 N 465.601 -1.54893 0.290851 0
M  V30 4838 C 466.847 -2.0023 -0.321867 0
M  V30 4839 C 467.18 -1.179 -1.54316 0
M  V30 4840 O 466.455 -0.25293 -1.92848 0
M  V30 4841 C 466.738 -3.53456 -0.688515 0
M  V30 4842 C 466.591 -4.46532 0.541209 0
M  V30 4843 C 467.91 -4.13057 -1.51895 0
M  V30 4844 H 465.029 -0.727891 -0.115515 0
M  V30 4845 H 467.671 -1.85722 0.400931 0
M  V30 4846 H 465.821 -3.6595 -1.30433 0
M  V30 4847 H 467.493 -4.4596 1.17973 0
M  V30 4848 H 465.736 -4.17545 1.17636 0
M  V30 4849 H 466.407 -5.51475 0.240675 0
M  V30 4850 H 468.883 -4.03937 -0.99872 0
M  V30 4851 H 467.759 -5.20448 -1.74429 0
M  V30 4852 H 468.02 -3.64284 -2.50498 0
M  V30 4853 N 467.08 -0.0183926 -1.57589 0
M  V30 4854 C 468.496 0.337897 -1.55982 0
M  V30 4855 C 468.696 1.73604 -1.02294 0
M  V30 4856 O 467.752 2.43589 -0.664895 0
M  V30 4857 C 469.065 0.196305 -3.00059 0
M  V30 4858 C 470.613 0.269875 -3.11834 0
M  V30 4859 C 471.088 0.157197 -4.5773 0
M  V30 4860 N 472.579 0.214521 -4.62703 0
M  V30 4861 C 473.314 0.150955 -5.73201 0
M  V30 4862 N 472.81 0.0369212 -6.9279 0
M  V30 4863 N 474.603 0.204162 -5.61729 0
M  V30 4864 H 466.754 -0.93279 -1.90821 0
M  V30 4865 H 469.017 -0.359253 -0.877292 0
M  V30 4866 H 468.723 -0.766383 -3.43248 0
M  V30 4867 H 468.597 0.970908 -3.6449 0
M  V30 4868 H 470.984 1.22302 -2.68563 0
M  V30 4869 H 471.065 -0.534918 -2.50144 0
M  V30 4870 H 470.709 -0.792479 -5.01679 0
M  V30 4871 H 470.639 0.980717 -5.17387 0
M  V30 4872 H 473.13 0.303238 -3.76681 0
M  V30 4873 H 473.443 -0.00518321 -7.728 0
M  V30 4874 H 471.788 0.0022886 -6.95 0
M  V30 4875 H 474.979 0.291575 -4.67191 0
M  V30 4876 H 475.152 0.15116 -6.47824 0
M  V30 4877 N 468.558 1.5553 0.254621 0
M  V30 4878 C 469.974 1.4778 0.602753 0
M  V30 4879 C 470.174 0.707047 1.88688 0
M  V30 4880 O 469.23 0.233288 2.5142 0
M  V30 4881 C 470.543 2.92133 0.712648 0
M  V30 4882 C 472.091 3.02458 0.805488 0
M  V30 4883 C 472.566 4.48102 0.947009 0
M  V30 4884 N 474.057 4.52008 1.01207 0
M  V30 4885 C 474.792 5.61939 1.1407 0
M  V30 4886 N 474.288 6.81697 1.23536 0
M  V30 4887 N 476.081 5.49719 1.17325 0
M  V30 4888 H 468.232 2.04085 -0.588463 0
M  V30 4889 H 470.495 0.926229 -0.202001 0
M  V30 4890 H 470.201 3.51332 -0.160766 0
M  V30 4891 H 470.075 3.42187 1.58707 0
M  V30 4892 H 472.462 2.43344 1.66936 0
M  V30 4893 H 472.543 2.55627 -0.0939266 0
M  V30 4894 H 472.187 5.07824 0.087725 0
M  V30 4895 H 472.117 4.92607 1.86135 0
M  V30 4896 H 474.608 3.65749 0.950577 0
M  V30 4897 H 474.921 7.61228 1.33236 0
M  V30 4898 H 473.266 6.84473 1.20508 0
M  V30 4899 H 476.457 4.55095 1.09573 0
M  V30 4900 H 476.63 6.35432 1.27005 0
M  V30 4901 N 470.036 -0.519951 1.48776 0
M  V30 4902 C 470.999 -1.60574 1.6355 0
M  V30 4903 C 471.999 -1.52557 0.508234 0
M  V30 4904 O 473.189 -1.56047 0.774262 0
M  V30 4905 C 470.321 -3.00211 1.61512 0
M  V30 4906 H 471.514 -1.4881 2.60376 0
M  V30 4907 H 469.067 -0.742772 1.37523 0
M  V30 4908 H 469.802 -3.17471 0.662009 0
M  V30 4909 H 469.587 -3.07439 2.43359 0
M  V30 4910 H 471.077 -3.79134 1.75064 0
M  V30 4911 N 471.514 -1.37532 -0.769588 0
M  V30 4912 C 472.76 -1.33057 -1.53048 0
M  V30 4913 C 473.093 0.0841865 -1.94017 0
M  V30 4914 O 472.368 1.04198 -1.64235 0
M  V30 4915 C 472.651 -2.27166 -2.79406 0
M  V30 4916 C 472.504 -3.77429 -2.44677 0
M  V30 4917 C 473.823 -2.19683 -3.81349 0
M  V30 4918 H 470.942 -0.484655 -0.555228 0
M  V30 4919 H 473.584 -1.68251 -0.882702 0
M  V30 4920 H 471.734 -1.97283 -3.34682 0
M  V30 4921 H 473.406 -4.17918 -1.953 0
M  V30 4922 H 471.649 -3.95892 -1.77346 0
M  V30 4923 H 472.32 -4.38716 -3.35011 0
M  V30 4924 H 474.796 -2.46029 -3.35573 0
M  V30 4925 H 473.672 -2.87668 -4.67481 0
M  V30 4926 H 473.933 -1.19045 -4.25771 0
M  V30 4927 N 472.992 0.995999 -1.22138 0
M  V30 4928 C 473.924 2.08745 -0.946485 0
M  V30 4929 C 474.937 1.62633 0.0737356 0
M  V30 4930 O 476.126 1.77782 -0.159886 0
M  V30 4931 C 473.226 3.36516 -0.401305 0
M  V30 4932 C 472.399 4.11672 -1.47801 0
M  V30 4933 C 471.458 5.17728 -0.940461 0
M  V30 4934 O 470.484 5.45482 -1.62596 0
M  V30 4935 N 471.686 5.80005 0.239723 0
M  V30 4936 H 474.451 2.32908 -1.88611 0
M  V30 4937 H 472.012 1.16152 -1.12785 0
M  V30 4938 H 474.004 4.04691 -0.0270837 0
M  V30 4939 H 472.574 3.0944 0.443354 0
M  V30 4940 H 471.794 3.38171 -2.02568 0
M  V30 4941 H 473.082 4.58657 -2.20253 0
M  V30 4942 H 472.48 5.5982 0.813518 0
M  V30 4943 H 471.037 6.4943 0.555361 0
M  V30 4944 N 474.47 1.03057 1.19235 0
M  V30 4945 C 475.4 0.633497 2.24742 0
M  V30 4946 C 476.381 -0.358335 1.66283 0
M  V30 4947 O 477.566 -0.240676 1.92703 0
M  V30 4948 C 474.696 -0.0147648 3.47297 0
M  V30 4949 C 473.65 0.899527 4.18441 0
M  V30 4950 C 472.976 0.116281 5.34574 0
M  V30 4951 C 474.276 2.21404 4.73051 0
M  V30 4952 H 475.97 1.5155 2.58211 0
M  V30 4953 H 473.516 0.73014 1.24117 0
M  V30 4954 H 475.469 -0.304202 4.20301 0
M  V30 4955 H 474.193 -0.931577 3.13032 0
M  V30 4956 H 472.852 1.17319 3.47321 0
M  V30 4957 H 472.5 -0.802619 4.96555 0
M  V30 4958 H 472.2 0.725293 5.83107 0
M  V30 4959 H 473.724 -0.166376 6.10373 0
M  V30 4960 H 475.138 1.98601 5.37802 0
M  V30 4961 H 473.535 2.77512 5.32078 0
M  V30 4962 H 474.605 2.86752 3.91026 0
M  V30 4963 N 475.948 -1.35272 0.808662 0
M  V30 4964 C 476.896 -2.31663 0.208606 0
M  V30 4965 C 477.89 -1.56731 -0.642778 0
M  V30 4966 O 479.096 -1.71843 -0.53571 0
M  V30 4967 H 475.471 -0.750421 0.0486993 0
M  V30 4968 H 477.442 -2.79814 1.03666 0
M  V30 4969 C 476.191 -3.42008 -0.626573 0
M  V30 4970 H 475.514 -3.99795 0.0192103 0
M  V30 4971 H 476.954 -4.11727 -1.01278 0
M  V30 4972 C 475.413 -2.85226 -1.79298 0
M  V30 4973 O 475.943 -2.78945 -2.89055 0
M  V30 4974 N 474.149 -2.42245 -1.60516 0
M  V30 4975 H 473.696 -2.47554 -0.712375 0
M  V30 4976 H 473.654 -2.04603 -2.38715 0
M  V30 4977 N 477.426 -0.562348 -1.47226 0
M  V30 4978 C 478.651 -0.0432632 -2.07355 0
M  V30 4979 C 479.076 1.24332 -1.41149 0
M  V30 4980 O 478.434 1.74603 -0.488226 0
M  V30 4981 C 478.482 0.130288 -3.60365 0
M  V30 4982 O 477.586 1.19166 -3.94808 0
M  V30 4983 H 476.927 -0.0536334 -0.66183 0
M  V30 4984 H 479.457 -0.779495 -1.89169 0
M  V30 4985 H 479.467 0.342881 -4.06557 0
M  V30 4986 H 478.142 -0.809389 -4.07948 0
M  V30 4987 H 476.719 0.959153 -3.60354 0
M  V30 4988 N 478.904 1.54736 -0.299062 0
M  V30 4989 C 479.834 2.26409 0.571085 0
M  V30 4990 C 480.815 1.2629 1.13951 0
M  V30 4991 O 482 1.55059 1.16921 0
M  V30 4992 C 479.13 3.00338 1.74396 0
M  V30 4993 C 478.084 4.07588 1.30599 0
M  V30 4994 C 477.41 4.69222 2.56387 0
M  V30 4995 C 478.71 5.20455 0.438645 0
M  V30 4996 H 480.404 2.99388 -0.0266991 0
M  V30 4997 H 477.95 1.43993 -0.0142812 0
M  V30 4998 H 479.903 3.49198 2.35878 0
M  V30 4999 H 478.627 2.24934 2.36796 0
M  V30 5000 H 477.286 3.59575 0.71424 0
M  V30 5001 H 476.934 3.9046 3.17097 0
M  V30 5002 H 476.634 5.41653 2.27784 0
M  V30 5003 H 478.158 5.20844 3.18675 0
M  V30 5004 H 479.572 5.65221 0.959085 0
M  V30 5005 H 477.969 5.99594 0.246466 0
M  V30 5006 H 479.039 4.8192 -0.536738 0
M  V30 5007 N 480.382 0.0267497 1.57577 0
M  V30 5008 C 481.607 -0.666227 1.96408 0
M  V30 5009 C 482.032 -1.65004 0.903071 0
M  V30 5010 O 481.39 -1.80787 -0.136263 0
M  V30 5011 C 481.438 -1.35101 3.34335 0
M  V30 5012 O 480.542 -2.46623 3.30531 0
M  V30 5013 H 479.883 -0.175206 0.640468 0
M  V30 5014 H 482.413 0.0878977 2.04411 0
M  V30 5015 H 482.423 -1.70834 3.70513 0
M  V30 5016 H 481.098 -0.629844 4.11103 0
M  V30 5017 H 479.675 -2.13019 3.06068 0
M  V30 5018 N 481.861 -1.55662 -0.24637 0
M  V30 5019 C 483.109 -1.77168 -0.972411 0
M  V30 5020 C 483.43 -0.590827 -1.85834 0
M  V30 5021 O 482.7 0.393365 -1.9191 0
M  V30 5022 H 481.28 -0.653405 -0.362038 0
M  V30 5023 H 483.942 -1.93101 -0.264189 0
M  V30 5024 H 483.038 -2.68335 -1.59382 0
M  V30 5025 N 483.339 0.512053 -1.4905 0
M  V30 5026 C 484.586 1.26686 -1.57978 0
M  V30 5027 C 484.914 1.92733 -0.261553 0
M  V30 5028 O 484.169 1.80772 0.749667 0
M  V30 5029 C 484.468 2.36446 -2.68008 0
M  V30 5030 C 484.134 1.87932 -4.09869 0
M  V30 5031 C 482.796 1.74419 -4.48477 0
M  V30 5032 C 485.148 1.5149 -4.98698 0
M  V30 5033 C 482.476 1.22827 -5.73699 0
M  V30 5034 C 484.828 1.01355 -6.24428 0
M  V30 5035 C 483.492 0.864735 -6.61875 0
M  V30 5036 H 482.762 0.463577 -0.578081 0
M  V30 5037 H 485.409 0.569421 -1.82838 0
M  V30 5038 H 483.714 3.11933 -2.37076 0
M  V30 5039 H 485.411 2.9453 -2.72127 0
M  V30 5040 H 482.001 1.99405 -3.79389 0
M  V30 5041 H 486.185 1.60782 -4.69535 0
M  V30 5042 H 481.441 1.10008 -6.01422 0
M  V30 5043 H 485.615 0.722351 -6.92644 0
M  V30 5044 H 483.242 0.462777 -7.5879 0
M  V30 5045 N 484.817 1.37938 0.762283 0
M  V30 5046 C 486.057 1.35076 1.53407 0
M  V30 5047 C 486.421 -0.061546 1.91901 0
M  V30 5048 O 487.622 -0.214973 2.67939 0
M  V30 5049 C 485.893 2.27206 2.75884 0
M  V30 5050 S 487.452 2.42283 3.65848 0
M  V30 5051 H 484.27 0.479387 0.52508 0
M  V30 5052 H 486.872 1.7378 0.895586 0
M  V30 5053 H 485.576 3.28724 2.457 0
M  V30 5054 H 485.107 1.8962 3.44685 0
M  V30 5055 H 487.122 1.64044 4.68299 0
M  V30 5056 N 486.295 -0.989507 1.22664 0
M  V30 5057 C 487.225 -2.09847 1.02404 0
M  V30 5058 C 488.206 -1.70007 -0.0561303 0
M  V30 5059 O 489.391 -1.93906 0.106748 0
M  V30 5060 C 486.521 -3.41996 0.604663 0
M  V30 5061 C 485.475 -3.95699 1.63115 0
M  V30 5062 C 484.801 -5.23936 1.0675 0
M  V30 5063 C 486.101 -4.25999 3.02196 0
M  V30 5064 H 487.795 -2.27054 1.95158 0
M  V30 5065 H 485.341 -1.09111 0.939727 0
M  V30 5066 H 487.294 -4.1899 0.45002 0
M  V30 5067 H 486.018 -3.24626 -0.35855 0
M  V30 5068 H 484.677 -3.2084 1.77362 0
M  V30 5069 H 484.325 -5.02909 0.0955422 0
M  V30 5070 H 484.025 -5.60833 1.75328 0
M  V30 5071 H 485.549 -6.0356 0.924516 0
M  V30 5072 H 486.963 -4.93777 2.91303 0
M  V30 5073 H 485.36 -4.74076 3.67929 0
M  V30 5074 H 486.43 -3.33636 3.51873 0
M  V30 5075 N 487.773 -1.03688 -1.18687 0
M  V30 5076 C 489.001 -0.757918 -1.92518 0
M  V30 5077 C 489.416 0.684398 -1.75959 0
M  V30 5078 O 488.773 1.46617 -1.08673 0
M  V30 5079 C 488.824 -1.10985 -3.44042 0
M  V30 5080 O 488.545 -2.49554 -3.60076 0
M  V30 5081 C 490.046 -0.854844 -4.3498 0
M  V30 5082 H 487.266 -0.276699 -0.611293 0
M  V30 5083 H 489.81 -1.38352 -1.50595 0
M  V30 5084 H 487.965 -0.529279 -3.83767 0
M  V30 5085 H 488.379 -2.6291 -4.53849 0
M  V30 5086 H 489.853 -1.15098 -5.39867 0
M  V30 5087 H 490.33 0.210507 -4.38695 0
M  V30 5088 H 490.936 -1.41853 -4.00946 0
M  V30 5089 N 489.251 1.34841 -0.815825 0
M  V30 5090 C 490.198 2.29644 -0.230664 0
M  V30 5091 C 491.168 1.53253 0.640533 0
M  V30 5092 O 492.353 1.81653 0.583672 0
M  V30 5093 C 489.493 3.39715 0.607275 0
M  V30 5094 C 488.606 4.31056 -0.28538 0
M  V30 5095 C 487.741 5.28225 0.561446 0
M  V30 5096 C 486.78 6.11204 -0.331035 0
M  V30 5097 N 485.917 7.00483 0.476302 0
M  V30 5098 H 490.757 2.79095 -1.0445 0
M  V30 5099 H 488.294 1.37351 -0.526595 0
M  V30 5100 H 490.252 4.02208 1.10835 0
M  V30 5101 H 488.882 2.91517 1.38629 0
M  V30 5102 H 487.934 3.69487 -0.904621 0
M  V30 5103 H 489.246 4.89239 -0.97193 0
M  V30 5104 H 488.4 5.96135 1.12728 0
M  V30 5105 H 487.139 4.70562 1.28153 0
M  V30 5106 H 486.144 5.42232 -0.909069 0
M  V30 5107 H 487.369 6.70947 -1.04912 0
M  V30 5108 H 485.315 6.45296 1.18019 0
M  V30 5109 H 485.232 7.55847 -0.152008 0
M  V30 5110 H 486.5 7.7273 1.02512 0
M  V30 5111 N 490.729 0.570148 1.46925 0
M  V30 5112 C 491.659 -0.158274 2.32963 0
M  V30 5113 C 492.64 -0.896093 1.44583 0
M  V30 5114 O 493.825 -0.874022 1.7342 0
M  V30 5115 C 490.955 -1.18055 3.26619 0
M  V30 5116 C 489.909 -0.558379 4.24342 0
M  V30 5117 C 489.235 -1.68623 5.07415 0
M  V30 5118 C 490.535 0.496295 5.19937 0
M  V30 5119 H 492.229 0.560046 2.94115 0
M  V30 5120 H 489.775 0.270775 1.41431 0
M  V30 5121 H 491.728 -1.69841 3.85658 0
M  V30 5122 H 490.452 -1.92899 2.63548 0
M  V30 5123 H 489.111 -0.0617157 3.66548 0
M  V30 5124 H 488.759 -2.42402 4.40738 0
M  V30 5125 H 488.459 -1.27564 5.73586 0
M  V30 5126 H 489.983 -2.20709 5.69315 0
M  V30 5127 H 491.397 0.0640052 5.73264 0
M  V30 5128 H 489.794 0.82649 5.94381 0
M  V30 5129 H 490.864 1.38735 4.6463 0
M  V30 5130 N 492.207 -1.54576 0.307264 0
M  V30 5131 C 493.484 -1.92377 -0.353605 0
M  V30 5132 C 493.864 -1.23517 -1.71192 0
M  V30 5133 O 493.212 -0.373101 -2.25433 0
M  V30 5134 C 493.422 -3.45928 -0.462039 0
M  V30 5135 C 494.77 -4.18278 -0.729975 0
M  V30 5136 O 495.794 -3.51997 -0.545605 0
M  V30 5137 O 494.653 -5.3563 -1.08454 0
M  V30 5138 H 491.747 -0.802747 -0.198812 0
M  V30 5139 H 494.293 -1.65929 0.355783 0
M  V30 5140 H 493.065 -3.88187 0.492592 0
M  V30 5141 H 492.688 -3.78431 -1.21965 0
M  V30 5142 N 493.685 -0.035106 -1.57561 0
M  V30 5143 C 494.931 0.64318 -1.92331 0
M  V30 5144 C 495.264 1.71434 -0.912368 0
M  V30 5145 O 494.539 1.94395 0.0640303 0
M  V30 5146 C 494.822 1.25411 -3.37556 0
M  V30 5147 C 494.675 0.192109 -4.4939 0
M  V30 5148 C 495.994 2.17041 -3.82859 0
M  V30 5149 H 493.113 0.232341 -0.699419 0
M  V30 5150 H 495.755 -0.0935889 -1.89769 0
M  V30 5151 H 493.905 1.88205 -3.39869 0
M  V30 5152 H 495.577 -0.438849 -4.59208 0
M  V30 5153 H 493.82 -0.481725 -4.31117 0
M  V30 5154 H 494.491 0.659292 -5.48049 0
M  V30 5155 H 496.967 1.64228 -3.8232 0
M  V30 5156 H 495.843 2.56738 -4.85157 0
M  V30 5157 H 496.104 3.06401 -3.18702 0
M  V30 5158 N 495.163 1.55791 0.238111 0
M  V30 5159 C 496.093 1.94068 1.29846 0
M  V30 5160 C 497.074 0.806726 1.49753 0
M  V30 5161 O 498.259 1.06772 1.62214 0
M  V30 5162 C 495.389 2.24302 2.65153 0
M  V30 5163 C 494.343 3.40032 2.59927 0
M  V30 5164 C 493.669 3.55829 3.99111 0
M  V30 5165 C 494.969 4.75476 2.16148 0
M  V30 5166 H 496.663 2.82887 0.980563 0
M  V30 5167 H 494.209 1.36105 0.470253 0
M  V30 5168 H 496.162 2.4967 3.39475 0
M  V30 5169 H 494.886 1.32318 2.98596 0
M  V30 5170 H 493.545 3.14687 1.88063 0
M  V30 5171 H 493.193 2.6125 4.29834 0
M  V30 5172 H 492.893 4.3366 3.96501 0
M  V30 5173 H 494.417 3.83528 4.7512 0
M  V30 5174 H 495.831 5.00158 2.80205 0
M  V30 5175 H 494.228 5.56472 2.24631 0
M  V30 5176 H 495.298 4.71946 1.11333 0
M  V30 5177 N 496.642 -0.504142 1.49319 0
M  V30 5178 C 497.919 -1.26548 1.49147 0
M  V30 5179 C 498.299 -2.09977 0.21744 0
M  V30 5180 O 497.647 -2.14028 -0.800269 0
M  V30 5181 C 497.857 -2.12489 2.76857 0
M  V30 5182 C 499.205 -2.7178 3.26222 0
M  V30 5183 O 500.229 -2.22758 2.77952 0
M  V30 5184 O 499.088 -3.61015 4.10281 0
M  V30 5185 H 496.182 -0.572495 0.596806 0
M  V30 5186 H 498.728 -0.51867 1.61579 0
M  V30 5187 H 497.5 -1.50796 3.61077 0
M  V30 5188 H 497.123 -2.94368 2.6727 0
M  V30 5189 N 498.12 -1.38341 -0.754957 0
M  V30 5190 C 499.368 -1.34208 -1.51105 0
M  V30 5191 C 499.689 0.0677634 -1.94882 0
M  V30 5192 O 498.959 1.01517 -1.67544 0
M  V30 5193 H 497.539 -0.493819 -0.560493 0
M  V30 5194 H 500.201 -1.73005 -0.897507 0
M  V30 5195 H 499.297 -1.99203 -2.4026 0
M  V30 5196 N 499.598 0.982988 -1.23187 0
M  V30 5197 C 500.528 2.09301 -1.03515 0
M  V30 5198 C 501.509 1.70035 0.0471136 0
M  V30 5199 O 502.694 1.93847 -0.117029 0
M  V30 5200 C 499.824 3.4167 -0.622791 0
M  V30 5201 C 498.778 3.94828 -1.65211 0
M  V30 5202 C 498.104 5.23362 -1.09527 0
M  V30 5203 C 499.404 4.2439 -3.04451 0
M  V30 5204 H 501.098 2.26016 -1.96359 0
M  V30 5205 H 498.644 1.08611 -0.945501 0
M  V30 5206 H 500.597 4.18746 -0.472233 0
M  V30 5207 H 499.321 3.24811 0.341329 0
M  V30 5208 H 497.98 3.19895 -1.79061 0
M  V30 5209 H 497.628 5.02852 -0.122211 0
M  V30 5210 H 497.328 5.59895 -1.783 0
M  V30 5211 H 498.852 6.03062 -0.956511 0
M  V30 5212 H 500.266 4.92225 -2.93917 0
M  V30 5213 H 498.663 4.72118 -3.70438 0
M  V30 5214 H 499.733 3.31765 -3.53638 0
M  V30 5215 N 501.076 1.04316 1.18135 0
M  V30 5216 C 502.023 0.636398 2.21853 0
M  V30 5217 C 502.993 -0.357039 1.62217 0
M  V30 5218 O 504.178 -0.250453 1.89149 0
M  V30 5219 C 501.318 0.00812779 3.45099 0
M  V30 5220 C 500.431 1.04933 4.19062 0
M  V30 5221 C 499.566 0.389313 5.29771 0
M  V30 5222 C 498.605 1.41544 5.9551 0
M  V30 5223 N 497.742 0.78021 6.97751 0
M  V30 5224 H 502.582 1.52536 2.56002 0
M  V30 5225 H 500.119 0.76304 1.25762 0
M  V30 5226 H 502.077 -0.373497 4.15525 0
M  V30 5227 H 500.707 -0.844336 3.11562 0
M  V30 5228 H 499.759 1.54888 3.47439 0
M  V30 5229 H 501.071 1.82862 4.64072 0
M  V30 5230 H 500.225 -0.0463805 6.06682 0
M  V30 5231 H 498.964 -0.422038 4.8587 0
M  V30 5232 H 497.969 1.86124 5.17337 0
M  V30 5233 H 499.194 2.22854 6.41493 0
M  V30 5234 H 497.14 -0.0107899 6.55999 0
M  V30 5235 H 497.057 1.49716 7.41027 0
M  V30 5236 H 498.325 0.368996 7.78626 0
M  V30 5237 N 502.554 -1.34406 0.822964 0
M  V30 5238 C 503.464 -2.33298 0.246838 0
M  V30 5239 C 504.48 -1.62625 -0.618797 0
M  V30 5240 O 505.656 -1.94391 -0.526685 0
M  V30 5241 C 502.721 -3.41785 -0.581731 0
M  V30 5242 C 501.782 -4.28206 0.306309 0
M  V30 5243 C 501.015 -5.31512 -0.48281 0
M  V30 5244 O 501.238 -5.43973 -1.71607 0
M  V30 5245 O 500.172 -6.01749 0.134884 0
M  V30 5246 H 503.998 -2.84401 1.06534 0
M  V30 5247 H 501.583 -1.37466 0.585108 0
M  V30 5248 H 503.465 -4.08028 -1.05313 0
M  V30 5249 H 502.14 -2.92925 -1.37756 0
M  V30 5250 H 501.047 -3.64885 0.825199 0
M  V30 5251 H 502.38 -4.80507 1.06649 0
M  V30 5252 N 504.032 -0.577932 -1.46621 0
M  V30 5253 C 505.278 -0.0617793 -2.02706 0
M  V30 5254 C 505.611 1.29294 -1.44903 0
M  V30 5255 O 504.886 1.8461 -0.61232 0
M  V30 5256 C 505.169 0.00911824 -3.60099 0
M  V30 5257 C 505.022 -1.37416 -4.28295 0
M  V30 5258 C 506.341 0.712159 -4.343 0
M  V30 5259 H 503.46 -0.0239246 -0.736612 0
M  V30 5260 H 506.102 -0.744211 -1.74818 0
M  V30 5261 H 504.252 0.590292 -3.83989 0
M  V30 5262 H 505.924 -2.00013 -4.15683 0
M  V30 5263 H 504.167 -1.94319 -3.87843 0
M  V30 5264 H 504.838 -1.27707 -5.37024 0
M  V30 5265 H 507.314 0.218486 -4.15526 0
M  V30 5266 H 506.19 0.730782 -5.44014 0
M  V30 5267 H 506.451 1.77251 -4.05012 0
M  V30 5268 N 505.51 1.54411 -0.315457 0
M  V30 5269 C 506.457 2.24048 0.554166 0
M  V30 5270 C 507.427 1.2283 1.11812 0
M  V30 5271 O 508.612 1.51491 1.15997 0
M  V30 5272 C 505.752 2.99574 1.71316 0
M  V30 5273 C 504.865 4.15594 1.17922 0
M  V30 5274 C 504 4.78669 2.30324 0
M  V30 5275 C 503.039 5.86807 1.74137 0
M  V30 5276 N 502.176 6.43777 2.8017 0
M  V30 5277 H 507.016 2.97964 -0.0462602 0
M  V30 5278 H 504.553 1.47059 -0.0346009 0
M  V30 5279 H 506.511 3.41604 2.39505 0
M  V30 5280 H 505.141 2.28008 2.285 0
M  V30 5281 H 504.193 3.78404 0.389136 0
M  V30 5282 H 505.505 4.93459 0.728012 0
M  V30 5283 H 504.659 5.23626 3.06433 0
M  V30 5284 H 503.398 4.00168 2.78778 0
M  V30 5285 H 502.403 5.41261 0.965236 0
M  V30 5286 H 503.628 6.67201 1.2657 0
M  V30 5287 H 501.574 5.68153 3.2793 0
M  V30 5288 H 501.491 7.17031 2.39588 0
M  V30 5289 H 502.759 6.9339 3.56132 0
M  V30 5290 N 506.988 0.0434614 1.5754 0
M  V30 5291 C 507.918 -0.931651 2.14109 0
M  V30 5292 C 508.899 -1.32971 1.06079 0
M  V30 5293 O 510.084 -1.40579 1.33982 0
M  V30 5294 C 507.214 -2.20914 2.67982 0
M  V30 5295 C 506.168 -1.95139 3.80926 0
M  V30 5296 C 505.494 -3.29276 4.21285 0
M  V30 5297 C 506.794 -1.27913 5.06395 0
M  V30 5298 H 508.488 -0.460497 2.95837 0
M  V30 5299 H 506.034 -0.220058 1.42309 0
M  V30 5300 H 507.987 -2.89522 3.06194 0
M  V30 5301 H 506.711 -2.70221 1.83434 0
M  V30 5302 H 505.37 -1.28945 3.43175 0
M  V30 5303 H 505.018 -3.76369 3.33699 0
M  V30 5304 H 504.718 -3.12831 4.97404 0
M  V30 5305 H 506.242 -3.99129 4.62091 0
M  V30 5306 H 507.656 -1.86544 5.42102 0
M  V30 5307 H 506.053 -1.2182 5.87605 0
M  V30 5308 H 507.123 -0.254066 4.84234 0
M  V30 5309 N 508.466 -1.55915 -0.229846 0
M  V30 5310 C 509.706 -1.80314 -0.962614 0
M  V30 5311 C 510.07 -0.61568 -1.81861 0
M  V30 5312 O 511.271 -0.738795 -2.58448 0
M  V30 5313 C 509.542 -3.0956 -1.78627 0
M  V30 5314 S 511.101 -3.55243 -2.57581 0
M  V30 5315 H 507.919 -0.633142 -0.323499 0
M  V30 5316 H 510.521 -1.94155 -0.228919 0
M  V30 5317 H 509.225 -3.94033 -1.14742 0
M  V30 5318 H 508.756 -2.98503 -2.56241 0
M  V30 5319 H 510.771 -3.17924 -3.80971 0
M  V30 5320 N 509.944 0.496216 -1.49584 0
M  V30 5321 C 511.19 1.25189 -1.59548 0
M  V30 5322 C 511.523 1.9212 -0.283466 0
M  V30 5323 O 510.798 1.80947 0.713324 0
M  V30 5324 C 511.081 2.31516 -2.75812 0
M  V30 5325 C 510.934 1.69054 -4.16822 0
M  V30 5326 C 512.253 3.3304 -2.87702 0
M  V30 5327 H 509.372 0.45379 -0.580727 0
M  V30 5328 H 512.014 0.549327 -1.81886 0
M  V30 5329 H 510.164 2.91438 -2.56897 0
M  V30 5330 H 511.836 1.12923 -4.47265 0
M  V30 5331 H 510.079 0.994485 -4.22247 0
M  V30 5332 H 510.75 2.462 -4.94054 0
M  V30 5333 H 513.226 2.83114 -3.04936 0
M  V30 5334 H 512.102 4.04794 -3.7072 0
M  V30 5335 H 512.363 3.95655 -1.97255 0
M  V30 5336 N 511.423 1.38739 0.74761 0
M  V30 5337 C 512.386 1.36241 1.84312 0
M  V30 5338 C 513.386 0.261811 1.58654 0
M  V30 5339 O 514.576 0.519031 1.66288 0
M  V30 5340 C 511.708 1.12253 3.21888 0
M  V30 5341 H 512.901 2.33712 1.87933 0
M  V30 5342 H 510.454 1.2412 0.949946 0
M  V30 5343 H 511.189 0.154133 3.23934 0
M  V30 5344 H 510.974 1.91943 3.41907 0
M  V30 5345 H 512.464 1.13215 4.0196 0
M  V30 5346 N 512.901 -0.976442 1.23707 0
M  V30 5347 C 514.131 -1.75087 1.09673 0
M  V30 5348 C 514.539 -1.85852 -0.354344 0
M  V30 5349 O 513.882 -1.33985 -1.25673 0
M  V30 5350 C 513.944 -3.19272 1.65245 0
M  V30 5351 C 513.608 -3.32004 3.14042 0
M  V30 5352 C 514.605 -3.18017 4.11292 0
M  V30 5353 C 512.29 -3.56525 3.53829 0
M  V30 5354 C 514.284 -3.28363 5.46312 0
M  V30 5355 C 511.971 -3.6651 4.88993 0
M  V30 5356 C 512.969 -3.52439 5.85043 0
M  V30 5357 O 512.657 -3.62063 7.1775 0
M  V30 5358 H 512.389 -0.556164 0.384262 0
M  V30 5359 H 514.943 -1.23518 1.64111 0
M  V30 5360 H 513.173 -3.72107 1.05231 0
M  V30 5361 H 514.862 -3.7849 1.46629 0
M  V30 5362 H 515.628 -2.98966 3.81896 0
M  V30 5363 H 511.507 -3.66547 2.79579 0
M  V30 5364 H 515.051 -3.17297 6.21263 0
M  V30 5365 H 510.948 -3.85072 5.18063 0
M  V30 5366 H 511.716 -3.78833 7.25553 0
M  V30 5367 N 514.379 -1.04941 -1.1758 0
M  V30 5368 C 515.795 -0.770282 -1.39781 0
M  V30 5369 C 515.995 0.636417 -1.91186 0
M  V30 5370 O 515.051 1.39923 -2.10185 0
M  V30 5371 C 516.364 -1.82376 -2.3908 0
M  V30 5372 C 517.912 -1.84569 -2.52791 0
M  V30 5373 C 518.387 -2.88933 -3.55361 0
M  V30 5374 N 519.878 -2.8788 -3.62877 0
M  V30 5375 C 520.613 -3.65282 -4.41992 0
M  V30 5376 N 520.109 -4.52461 -5.24643 0
M  V30 5377 N 521.902 -3.53732 -4.36841 0
M  V30 5378 H 514.053 -1.95705 -0.825438 0
M  V30 5379 H 516.316 -0.847284 -0.425222 0
M  V30 5380 H 516.022 -2.83323 -2.08376 0
M  V30 5381 H 515.896 -1.66327 -3.38549 0
M  V30 5382 H 518.283 -0.842879 -2.82807 0
M  V30 5383 H 518.364 -2.04696 -1.53406 0
M  V30 5384 H 518.008 -3.89398 -3.26085 0
M  V30 5385 H 517.938 -2.66059 -4.54445 0
M  V30 5386 H 520.429 -2.24666 -3.03864 0
M  V30 5387 H 520.742 -5.08211 -5.82187 0
M  V30 5388 H 519.087 -4.56524 -5.24033 0
M  V30 5389 H 522.278 -2.85021 -3.71323 0
M  V30 5390 H 522.451 -4.14302 -4.98255 0
M  V30 5391 N 515.857 1.33968 -0.830081 0
M  V30 5392 C 516.79 2.27303 -0.202182 0
M  V30 5393 C 517.768 1.49235 0.645581 0
M  V30 5394 O 518.952 1.78433 0.607762 0
M  V30 5395 C 516.079 3.31025 0.716932 0
M  V30 5396 C 515.125 4.26466 -0.0542271 0
M  V30 5397 S 515.958 5.16707 -1.40622 0
M  V30 5398 C 517.114 6.23962 -0.492167 0
M  V30 5399 H 517.347 2.8021 -0.99346 0
M  V30 5400 H 514.88 1.41124 -0.626359 0
M  V30 5401 H 516.838 3.91271 1.24165 0
M  V30 5402 H 515.499 2.76951 1.4818 0
M  V30 5403 H 514.692 4.99858 0.644785 0
M  V30 5404 H 514.294 3.7051 -0.509722 0
M  V30 5405 H 516.586 6.76774 0.31347 0
M  V30 5406 H 517.529 6.97927 -1.19599 0
M  V30 5407 H 517.937 5.64447 -0.0774176 0
M  V30 5408 N 517.335 0.585699 1.46312 0
M  V30 5409 C 518.746 0.159938 1.86014 0
M  V30 5410 C 519.097 -1.27775 1.48889 0
M  V30 5411 O 518.222 -1.96559 0.90519 0
M  V30 5412 C 518.817 0.283485 3.37612 0
M  V30 5413 C 517.376 -0.0874256 3.76298 0
M  V30 5414 C 516.523 0.618055 2.70325 0
M  V30 5415 H 519.474 0.793737 1.37425 0
M  V30 5416 H 519.495 -0.490348 3.77327 0
M  V30 5417 H 519.007 1.32995 3.64601 0
M  V30 5418 H 517.108 -1.13391 3.54927 0
M  V30 5419 H 517.221 0.290975 4.78216 0
M  V30 5420 H 515.585 0.057993 2.54634 0
M  V30 5421 H 516.368 1.66623 3.00153 0
M  V30 5422 N 518.813 -1.54241 0.323641 0
M  V30 5423 C 520.09 -1.92741 -0.333181 0
M  V30 5424 C 520.47 -1.25326 -1.69872 0
M  V30 5425 O 519.818 -0.396991 -2.25025 0
M  V30 5426 C 520.028 -3.46399 -0.425322 0
M  V30 5427 C 521.376 -4.19029 -0.68557 0
M  V30 5428 O 522.4 -3.52555 -0.50824 0
M  V30 5429 O 521.259 -5.36751 -1.02767 0
M  V30 5430 H 518.353 -0.804811 -0.190286 0
M  V30 5431 H 520.899 -1.65542 0.373361 0
M  V30 5432 H 519.671 -3.87643 0.533737 0
M  V30 5433 H 519.294 -3.79704 -1.17944 0
M  V30 5434 N 520.291 -0.0518155 -1.57515 0
M  V30 5435 C 521.539 0.620595 -1.92336 0
M  V30 5436 C 521.86 1.71345 -0.930907 0
M  V30 5437 O 521.13 1.95885 0.0241341 0
M  V30 5438 H 519.71 0.232226 -0.709986 0
M  V30 5439 H 522.372 -0.104969 -1.94617 0
M  V30 5440 H 521.468 1.05879 -2.93592 0
M  V30 5441 N 521.769 1.56035 0.221574 0
M  V30 5442 C 523.185 1.49026 0.571271 0
M  V30 5443 C 523.385 0.746912 1.87146 0
M  V30 5444 O 522.441 0.286566 2.50869 0
M  V30 5445 C 523.754 2.93579 0.650522 0
M  V30 5446 C 525.302 3.04099 0.741151 0
M  V30 5447 C 525.777 4.5001 0.851747 0
M  V30 5448 N 527.268 4.54053 0.915968 0
M  V30 5449 C 528.003 5.64232 1.02125 0
M  V30 5450 N 527.499 6.84164 1.09049 0
M  V30 5451 N 529.292 5.52084 1.05639 0
M  V30 5452 H 521.443 2.02791 -0.63162 0
M  V30 5453 H 523.706 0.921736 -0.221602 0
M  V30 5454 H 523.412 3.50912 -0.235253 0
M  V30 5455 H 523.286 3.45476 1.51413 0
M  V30 5456 H 525.673 2.4683 1.61737 0
M  V30 5457 H 525.754 2.55371 -0.148128 0
M  V30 5458 H 525.398 5.07896 -0.0200117 0
M  V30 5459 H 525.328 4.96444 1.75644 0
M  V30 5460 H 527.819 3.67683 0.872782 0
M  V30 5461 H 528.132 7.63883 1.1706 0
M  V30 5462 H 526.477 6.86875 1.05962 0
M  V30 5463 H 529.668 4.57317 0.998953 0
M  V30 5464 H 529.841 6.37983 1.13498 0
M  V30 5465 N 523.247 -0.488276 1.49845 0
M  V30 5466 C 524.157 -1.61451 1.70207 0
M  V30 5467 C 525.173 -1.63877 0.584846 0
M  V30 5468 O 526.349 -1.82063 0.861107 0
M  V30 5469 C 523.414 -2.9776 1.77594 0
M  V30 5470 C 522.475 -3.05861 3.01243 0
M  V30 5471 C 521.708 -4.35668 3.08268 0
M  V30 5472 O 521.931 -5.25197 2.22541 0
M  V30 5473 O 520.865 -4.49005 4.00847 0
M  V30 5474 H 524.691 -1.47199 2.65643 0
M  V30 5475 H 522.276 -0.665939 1.33737 0
M  V30 5476 H 524.158 -3.7875 1.84732 0
M  V30 5477 H 522.833 -3.12248 0.8534 0
M  V30 5478 H 521.74 -2.24012 2.99616 0
M  V30 5479 H 523.073 -2.96304 3.9302 0
M  V30 5480 N 524.725 -1.39134 -0.740242 0
M  V30 5481 C 525.971 -1.36273 -1.50192 0
M  V30 5482 C 526.304 0.0430136 -1.94152 0
M  V30 5483 O 525.579 1.00691 -1.66408 0
M  V30 5484 C 525.862 -2.33041 -2.74525 0
M  V30 5485 C 525.715 -3.82535 -2.36617 0
M  V30 5486 C 527.034 -2.27723 -3.76604 0
M  V30 5487 H 524.153 -0.496323 -0.544823 0
M  V30 5488 H 526.795 -1.70085 -0.846815 0
M  V30 5489 H 524.945 -2.04337 -3.30422 0
M  V30 5490 H 526.617 -4.21967 -1.86391 0
M  V30 5491 H 524.86 -3.99565 -1.68909 0
M  V30 5492 H 525.531 -4.45723 -3.2563 0
M  V30 5493 H 528.007 -2.53091 -3.30279 0
M  V30 5494 H 526.883 -2.97519 -4.61274 0
M  V30 5495 H 527.144 -1.28049 -4.2315 0
M  V30 5496 N 526.204 0.969867 -1.24223 0
M  V30 5497 C 527.432 1.74756 -1.10761 0
M  V30 5498 C 527.847 1.85713 0.340041 0
M  V30 5499 O 527.204 1.34389 1.23474 0
M  V30 5500 C 527.255 3.16915 -1.73917 0
M  V30 5501 O 526.976 3.06511 -3.13021 0
M  V30 5502 C 528.477 4.11032 -1.66036 0
M  V30 5503 H 525.697 0.548092 -0.387087 0
M  V30 5504 H 528.241 1.2178 -1.64286 0
M  V30 5505 H 526.396 3.66884 -1.244 0
M  V30 5506 H 526.81 3.96079 -3.43834 0
M  V30 5507 H 528.284 5.08446 -2.14911 0
M  V30 5508 H 528.761 4.34785 -0.621159 0
M  V30 5509 H 529.367 3.66972 -2.14969 0
M  V30 5510 N 527.682 1.05563 1.17022 0
M  V30 5511 C 528.91 0.78845 1.91288 0
M  V30 5512 C 529.325 -0.656318 1.77025 0
M  V30 5513 O 528.682 -1.44869 1.10992 0
M  V30 5514 C 528.733 1.16444 3.42232 0
M  V30 5515 O 528.454 2.5525 3.5606 0
M  V30 5516 C 529.955 0.923937 4.33565 0
M  V30 5517 H 527.175 0.286389 0.606813 0
M  V30 5518 H 529.719 1.4073 1.48375 0
M  V30 5519 H 527.874 0.590266 3.82877 0
M  V30 5520 H 528.288 2.70097 4.49609 0
M  V30 5521 H 529.762 1.23672 5.37968 0
M  V30 5522 H 530.239 -0.140688 4.38975 0
M  V30 5523 H 530.845 1.48214 3.98639 0
M  V30 5524 N 529.16 -1.33526 0.837174 0
M  V30 5525 C 530.388 -2.02047 0.445494 0
M  V30 5526 C 530.803 -1.62995 -0.952788 0
M  V30 5527 O 530.16 -0.842447 -1.61892 0
M  V30 5528 C 530.211 -3.57221 0.554577 0
M  V30 5529 O 529.932 -3.94863 1.89776 0
M  V30 5530 C 531.433 -4.43012 0.159634 0
M  V30 5531 H 528.653 -0.647221 0.177048 0
M  V30 5532 H 531.197 -1.70492 1.12928 0
M  V30 5533 H 529.352 -3.87315 -0.0812781 0
M  V30 5534 H 529.766 -4.89569 1.88208 0
M  V30 5535 H 531.24 -5.51253 0.28701 0
M  V30 5536 H 531.717 -4.29916 -0.898289 0
M  V30 5537 H 532.323 -4.18274 0.769855 0
M  V30 5538 N 530.638 -0.59345 -1.46 0
M  V30 5539 C 532.049 -0.169801 -1.85926 0
M  V30 5540 C 532.4 1.26984 -1.49565 0
M  V30 5541 O 531.525 1.96076 -0.915602 0
M  V30 5542 C 532.12 -0.301385 -3.37457 0
M  V30 5543 C 530.679 0.0674684 -3.7634 0
M  V30 5544 C 529.826 -0.632383 -2.69993 0
M  V30 5545 H 532.777 -0.801014 -1.37002 0
M  V30 5546 H 532.798 0.470331 -3.77582 0
M  V30 5547 H 532.31 -1.34927 -3.63891 0
M  V30 5548 H 530.411 1.11507 -3.55523 0
M  V30 5549 H 530.524 -0.316332 -4.78055 0
M  V30 5550 H 528.888 -0.0714961 -2.546 0
M  V30 5551 H 529.671 -1.68212 -2.99265 0
M  V30 5552 N 532.116 1.54067 -0.331816 0
M  V30 5553 C 533.046 2.27569 0.522932 0
M  V30 5554 C 534.027 1.28679 1.11247 0
M  V30 5555 O 535.212 1.57504 1.13605 0
M  V30 5556 C 532.342 3.0397 1.67987 0
M  V30 5557 C 531.296 4.10267 1.21924 0
M  V30 5558 C 530.622 4.74555 2.46377 0
M  V30 5559 C 531.922 5.21268 0.32815 0
M  V30 5560 H 533.616 2.99264 -0.0901977 0
M  V30 5561 H 531.162 1.4393 -0.044821 0
M  V30 5562 H 533.115 3.54123 2.28418 0
M  V30 5563 H 531.839 2.29906 2.31971 0
M  V30 5564 H 530.498 3.61009 0.637809 0
M  V30 5565 H 530.146 3.97098 3.08743 0
M  V30 5566 H 529.846 5.46363 2.16243 0
M  V30 5567 H 531.37 5.27487 3.07555 0
M  V30 5568 H 532.784 5.67128 0.838978 0
M  V30 5569 H 531.181 5.99982 0.119228 0
M  V30 5570 H 532.251 4.80673 -0.638839 0
M  V30 5571 N 533.594 0.0601682 1.57485 0
M  V30 5572 C 534.557 -0.896373 2.10945 0
M  V30 5573 C 535.557 -1.23402 1.03095 0
M  V30 5574 O 536.747 -1.16921 1.29132 0
M  V30 5575 C 533.879 -2.20346 2.60116 0
M  V30 5576 H 535.072 -0.432778 2.96761 0
M  V30 5577 H 532.625 -0.188372 1.55161 0
M  V30 5578 H 533.36 -2.71268 1.7772 0
M  V30 5579 H 533.145 -1.9714 3.38937 0
M  V30 5580 H 534.635 -2.88846 3.01592 0
M  V30 5581 N 535.072 -1.5615 -0.213296 0
M  V30 5582 C 536.035 -1.92249 -1.24792 0
M  V30 5583 C 537.035 -0.801828 -1.39382 0
M  V30 5584 O 538.225 -1.06948 -1.37506 0
M  V30 5585 C 535.357 -2.18056 -2.62039 0
M  V30 5586 H 536.55 -2.84793 -0.939845 0
M  V30 5587 H 534.103 -1.49559 -0.454062 0
M  V30 5588 H 534.838 -1.2809 -2.97932 0
M  V30 5589 H 534.623 -2.99703 -2.52825 0
M  V30 5590 H 536.113 -2.47051 -3.36683 0
M  V30 5591 N 536.55 0.480323 -1.50102 0
M  V30 5592 C 537.827 1.24159 -1.51142 0
M  V30 5593 C 538.207 2.09605 -0.250818 0
M  V30 5594 O 537.555 2.15274 0.766118 0
M  V30 5595 C 537.765 2.08057 -2.80202 0
M  V30 5596 C 539.113 2.66556 -3.30504 0
M  V30 5597 O 540.137 2.18308 -2.81461 0
M  V30 5598 O 538.996 3.54442 -4.15973 0
M  V30 5599 H 536.09 0.562928 -0.605839 0
M  V30 5600 H 538.636 0.492899 -1.62384 0
M  V30 5601 H 537.408 1.45032 -3.6343 0
M  V30 5602 H 537.031 2.90079 -2.71919 0
M  V30 5603 N 538.028 1.39524 0.732853 0
M  V30 5604 C 539.305 1.27373 1.48444 0
M  V30 5605 C 539.685 -0.115725 2.10783 0
M  V30 5606 O 539.033 -1.12713 1.98766 0
M  V30 5607 C 539.243 2.39966 2.53412 0
M  V30 5608 C 540.591 2.79384 3.19733 0
M  V30 5609 O 541.615 2.39431 2.63725 0
M  V30 5610 O 540.474 3.48353 4.21085 0
M  V30 5611 H 537.568 0.499272 0.659285 0
M  V30 5612 H 540.114 1.51403 0.766496 0
M  V30 5613 H 538.886 3.32845 2.05742 0
M  V30 5614 H 538.509 2.17612 3.32762 0
M  V30 5615 N 539.506 -0.963266 1.24736 0
M  V30 5616 C 540.752 -1.71 1.10139 0
M  V30 5617 C 541.107 -1.89089 -0.35541 0
M  V30 5618 O 540.4 -1.44451 -1.25875 0
M  V30 5619 C 540.594 -3.09944 1.7796 0
M  V30 5620 C 540.423 -3.05408 3.30085 0
M  V30 5621 C 539.193 -3.09643 3.99311 0
M  V30 5622 C 541.391 -2.87241 4.26611 0
M  V30 5623 N 539.373 -2.95174 5.3828 0
M  V30 5624 C 540.744 -2.81114 5.52607 0
M  V30 5625 C 542.799 -2.71856 4.17132 0
M  V30 5626 C 541.502 -2.61174 6.70209 0
M  V30 5627 C 543.528 -2.53284 5.34417 0
M  V30 5628 C 542.89 -2.4787 6.59348 0
M  V30 5629 H 538.989 -0.634078 0.457678 0
M  V30 5630 H 541.573 -1.14169 1.57713 0
M  V30 5631 H 539.744 -3.64958 1.32893 0
M  V30 5632 H 541.476 -3.73348 1.56183 0
M  V30 5633 H 538.231 -3.18498 3.50508 0
M  V30 5634 H 538.655 -2.91168 6.11188 0
M  V30 5635 H 543.297 -2.74821 3.21299 0
M  V30 5636 H 541.015 -2.56952 7.6616 0
M  V30 5637 H 544.601 -2.42317 5.28936 0
M  V30 5638 H 543.481 -2.33685 7.48573 0
M  V30 5639 N 540.985 -1.06182 -1.16461 0
M  V30 5640 C 541.932 -0.671613 -2.20812 0
M  V30 5641 C 542.902 0.331186 -1.62765 0
M  V30 5642 O 544.087 0.22033 -1.89524 0
M  V30 5643 C 541.227 -0.063029 -3.45042 0
M  V30 5644 C 540.34 -1.11587 -4.1734 0
M  V30 5645 C 539.475 -0.473546 -5.29085 0
M  V30 5646 C 538.514 -1.51 -5.93182 0
M  V30 5647 N 537.651 -0.891118 -6.96422 0
M  V30 5648 H 542.491 -1.56589 -2.53542 0
M  V30 5649 H 540.028 -0.782951 -1.24532 0
M  V30 5650 H 541.986 0.307344 -4.16066 0
M  V30 5651 H 540.616 0.794663 -3.12866 0
M  V30 5652 H 539.668 -1.60396 -3.44931 0
M  V30 5653 H 540.98 -1.90221 -4.61104 0
M  V30 5654 H 540.134 -0.0501432 -6.06679 0
M  V30 5655 H 538.873 0.344687 -4.8648 0
M  V30 5656 H 537.878 -1.94331 -5.14311 0
M  V30 5657 H 539.103 -2.33031 -6.37866 0
M  V30 5658 H 537.049 -0.0935753 -6.55933 0
M  V30 5659 H 536.966 -1.61486 -7.38551 0
M  V30 5660 H 538.234 -0.492822 -7.77941 0
M  V30 5661 N 542.463 1.3308 -0.844243 0
M  V30 5662 C 543.711 1.97215 -0.441676 0
M  V30 5663 C 544.032 1.67185 1.0037 0
M  V30 5664 O 543.302 0.973588 1.69994 0
M  V30 5665 H 541.882 0.72959 -0.160335 0
M  V30 5666 H 544.544 1.62348 -1.07838 0
M  V30 5667 H 543.64 3.06698 -0.57815 0
M  V30 5668 N 543.941 0.601185 1.45683 0
M  V30 5669 C 545.187 0.0940202 2.02582 0
M  V30 5670 C 545.52 -1.26972 1.46941 0
M  V30 5671 O 544.795 -1.83613 0.641612 0
M  V30 5672 C 545.078 0.0481715 3.60068 0
M  V30 5673 C 544.931 1.44212 4.26055 0
M  V30 5674 C 546.25 -0.642975 4.35378 0
M  V30 5675 H 543.369 0.0356404 0.736138 0
M  V30 5676 H 546.011 0.771929 1.73612 0
M  V30 5677 H 544.161 -0.529128 3.8488 0
M  V30 5678 H 545.833 2.06601 4.12449 0
M  V30 5679 H 544.076 2.00465 3.84703 0
M  V30 5680 H 544.747 1.36234 5.34925 0
M  V30 5681 H 547.223 -0.152351 4.15821 0
M  V30 5682 H 546.099 -0.644141 5.45107 0
M  V30 5683 H 546.36 -1.70785 4.0778 0
M  V30 5684 N 545.419 -1.53889 0.339982 0
M  V30 5685 C 546.329 -2.28604 -0.526988 0
M  V30 5686 C 547.345 -1.33578 -1.11503 0
M  V30 5687 O 548.521 -1.66612 -1.13148 0
M  V30 5688 C 545.586 -3.04164 -1.66389 0
M  V30 5689 C 544.647 -4.14809 -1.10599 0
M  V30 5690 C 543.88 -4.86756 -2.18871 0
M  V30 5691 O 544.103 -4.58343 -3.39526 0
M  V30 5692 O 543.037 -5.73289 -1.83366 0
M  V30 5693 H 546.863 -3.03594 0.0802707 0
M  V30 5694 H 544.448 -1.4903 0.105141 0
M  V30 5695 H 546.33 -3.51427 -2.32544 0
M  V30 5696 H 545.005 -2.32035 -2.25703 0
M  V30 5697 H 543.912 -3.71857 -0.409067 0
M  V30 5698 H 545.245 -4.89029 -0.557771 0
M  V30 5699 N 546.897 -0.0685191 -1.57451 0
M  V30 5700 C 548.308 0.464634 -1.80826 0
M  V30 5701 C 548.659 1.69847 -0.982169 0
M  V30 5702 O 547.784 2.15439 -0.203734 0
M  V30 5703 C 548.379 0.849721 -3.27971 0
M  V30 5704 C 546.938 1.32776 -3.52204 0
M  V30 5705 C 546.085 0.311332 -2.75547 0
M  V30 5706 H 549.036 -0.294248 -1.55948 0
M  V30 5707 H 549.057 1.71138 -3.39841 0
M  V30 5708 H 548.569 -0.0484736 -3.8807 0
M  V30 5709 H 546.67 2.24456 -2.97406 0
M  V30 5710 H 546.783 1.30794 -4.60901 0
M  V30 5711 H 545.147 0.787915 -2.42206 0
M  V30 5712 H 545.93 -0.579078 -3.38381 0
M  V30 5713 N 548.375 1.56261 0.205012 0
M  V30 5714 C 549.624 1.79236 0.925058 0
M  V30 5715 C 549.937 0.640011 1.84833 0
M  V30 5716 O 551.143 0.753809 2.60826 0
M  V30 5717 C 549.599 3.17475 1.69522 0
M  V30 5718 C 549.207 4.40482 0.817269 0
M  V30 5719 C 550.951 3.49766 2.4055 0
M  V30 5720 C 548.858 5.69744 1.58573 0
M  V30 5721 H 547.788 0.668287 0.349153 0
M  V30 5722 H 550.439 1.82629 0.178544 0
M  V30 5723 H 548.821 3.08304 2.48526 0
M  V30 5724 H 549.995 4.60752 0.0665988 0
M  V30 5725 H 548.31 4.15827 0.218316 0
M  V30 5726 H 550.907 4.43573 2.98575 0
M  V30 5727 H 551.25 2.73041 3.14252 0
M  V30 5728 H 551.783 3.60341 1.68522 0
M  V30 5729 H 548.522 6.49407 0.891679 0
M  V30 5730 H 548.042 5.53509 2.31059 0
M  V30 5731 H 549.721 6.1051 2.14212 0
M  V30 5732 N 549.853 -0.472356 1.50355 0
M  V30 5733 C 551.083 -1.24603 1.64796 0
M  V30 5734 C 551.491 -1.86297 0.330156 0
M  V30 5735 O 550.834 -1.69934 -0.697728 0
M  V30 5736 C 550.896 -2.39578 2.68035 0
M  V30 5737 C 550.56 -1.98531 4.11624 0
M  V30 5738 C 551.557 -1.50856 4.97532 0
M  V30 5739 C 549.242 -2.0729 4.57532 0
M  V30 5740 C 551.236 -1.12481 6.27397 0
M  V30 5741 C 548.923 -1.68527 5.87403 0
M  V30 5742 C 549.921 -1.212 6.7216 0
M  V30 5743 O 549.609 -0.829728 7.99607 0
M  V30 5744 H 549.341 -0.383035 0.55701 0
M  V30 5745 H 551.895 -0.570392 1.97321 0
M  V30 5746 H 550.125 -3.10309 2.30749 0
M  V30 5747 H 551.814 -3.01544 2.71709 0
M  V30 5748 H 552.58 -1.43511 4.63281 0
M  V30 5749 H 548.459 -2.43076 3.91708 0
M  V30 5750 H 552.003 -0.754698 6.93506 0
M  V30 5751 H 547.9 -1.7553 6.21176 0
M  V30 5752 H 548.668 -0.958689 8.12866 0
M  V30 5753 N 551.331 -1.39911 -0.725443 0
M  V30 5754 C 552.241 -1.41688 -1.8698 0
M  V30 5755 C 553.257 -0.310579 -1.71206 0
M  V30 5756 O 554.433 -0.55359 -1.93642 0
M  V30 5757 C 551.498 -1.26811 -3.22676 0
M  V30 5758 C 550.559 -2.47497 -3.50776 0
M  V30 5759 C 549.792 -2.3332 -4.79997 0
M  V30 5760 O 550.015 -1.34175 -5.54394 0
M  V30 5761 O 548.949 -3.22498 -5.08211 0
M  V30 5762 H 552.775 -2.38171 -1.88436 0
M  V30 5763 H 550.36 -1.21128 -0.874548 0
M  V30 5764 H 552.242 -1.20684 -4.03749 0
M  V30 5765 H 550.917 -0.334289 -3.21969 0
M  V30 5766 H 549.824 -2.59201 -2.69751 0
M  V30 5767 H 551.157 -3.39606 -3.5627 0
M  V30 5768 N 552.809 0.956637 -1.25245 0
M  V30 5769 C 554.037 1.73571 -1.12608 0
M  V30 5770 C 554.452 1.86063 0.320324 0
M  V30 5771 O 553.809 1.35691 1.22042 0
M  V30 5772 C 553.86 3.15053 -1.77268 0
M  V30 5773 O 553.581 3.03174 -3.16255 0
M  V30 5774 C 555.082 4.09248 -1.70386 0
M  V30 5775 H 552.302 0.543955 -0.392879 0
M  V30 5776 H 554.846 1.20031 -1.65568 0
M  V30 5777 H 553.001 3.65543 -1.28284 0
M  V30 5778 H 553.415 3.9241 -3.48015 0
M  V30 5779 H 554.889 5.06138 -2.20291 0
M  V30 5780 H 555.366 4.34102 -0.667239 0
M  V30 5781 H 555.972 3.64672 -2.18849 0
M  V30 5782 N 554.287 1.06798 1.15896 0
M  V30 5783 C 555.22 0.627503 2.19403 0
M  V30 5784 C 556.198 -0.352352 1.58736 0
M  V30 5785 O 557.382 -0.260111 1.86697 0
M  V30 5786 C 554.509 -0.079356 3.38607 0
M  V30 5787 C 553.555 0.858057 4.17779 0
M  V30 5788 S 554.388 2.35605 4.80885 0
M  V30 5789 C 555.544 1.66083 6.03463 0
M  V30 5790 H 555.777 1.50441 2.56427 0
M  V30 5791 H 553.31 0.881427 1.26768 0
M  V30 5792 H 555.268 -0.48095 4.07673 0
M  V30 5793 H 553.929 -0.932524 2.99938 0
M  V30 5794 H 553.122 0.310108 5.03045 0
M  V30 5795 H 552.724 1.19977 3.54234 0
M  V30 5796 H 555.016 0.969337 6.7053 0
M  V30 5797 H 555.959 2.49159 6.62816 0
M  V30 5798 H 556.367 1.14122 5.52844 0
M  V30 5799 N 555.766 -1.3263 0.851289 0
M  V30 5800 C 557.177 -1.79653 0.5081 0
M  V30 5801 C 557.528 -1.70327 -0.973815 0
M  V30 5802 O 556.653 -1.25986 -1.75944 0
M  V30 5803 C 557.248 -3.26196 0.915515 0
M  V30 5804 C 555.807 -3.71187 0.624277 0
M  V30 5805 C 554.954 -2.53804 1.11709 0
M  V30 5806 H 557.905 -1.19976 1.03882 0
M  V30 5807 H 557.926 -3.79801 0.230535 0
M  V30 5808 H 557.438 -3.32952 1.99411 0
M  V30 5809 H 555.539 -3.69948 -0.443737 0
M  V30 5810 H 555.652 -4.64132 1.18821 0
M  V30 5811 H 554.016 -2.48964 0.537484 0
M  V30 5812 H 554.799 -2.63315 2.20272 0
M  V30 5813 N 557.244 -0.608902 -1.45362 0
M  V30 5814 C 558.492 -0.104401 -2.0183 0
M  V30 5815 C 558.813 1.27007 -1.47967 0
M  V30 5816 O 558.083 1.83924 -0.674455 0
M  V30 5817 H 556.663 -0.0356042 -0.746151 0
M  V30 5818 H 559.325 -0.790596 -1.78145 0
M  V30 5819 H 558.421 -0.0551793 -3.12051 0
M  V30 5820 N 558.722 1.53707 -0.348139 0
M  V30 5821 C 559.968 2.01979 0.239986 0
M  V30 5822 C 560.323 1.23141 1.47831 0
M  V30 5823 O 559.616 0.311936 1.89044 0
M  V30 5824 C 559.81 3.52292 0.602061 0
M  V30 5825 C 559.639 4.45684 -0.599625 0
M  V30 5826 C 558.409 4.9304 -1.10635 0
M  V30 5827 C 560.607 4.93156 -1.4595 0
M  V30 5828 N 558.589 5.70394 -2.26988 0
M  V30 5829 C 559.96 5.6868 -2.46988 0
M  V30 5830 C 562.015 4.75257 -1.48441 0
M  V30 5831 C 560.718 6.28208 -3.50353 0
M  V30 5832 C 562.744 5.35639 -2.50689 0
M  V30 5833 C 562.106 6.11034 -3.50453 0
M  V30 5834 H 558.205 0.780335 0.0509992 0
M  V30 5835 H 560.789 1.88466 -0.488742 0
M  V30 5836 H 558.96 3.66002 1.29989 0
M  V30 5837 H 560.692 3.87304 1.17377 0
M  V30 5838 H 557.447 4.68784 -0.67371 0
M  V30 5839 H 557.871 6.13741 -2.85747 0
M  V30 5840 H 562.513 4.16508 -0.726707 0
M  V30 5841 H 560.231 6.86064 -4.27015 0
M  V30 5842 H 563.817 5.23693 -2.53449 0
M  V30 5843 H 562.697 6.56925 -4.28275 0
M  V30 5844 N 560.2 0.0768682 1.57412 0
M  V30 5845 C 561.425 -0.603404 1.98428 0
M  V30 5846 C 561.85 -1.62047 0.955108 0
M  V30 5847 O 561.208 -1.81129 -0.0786778 0
M  V30 5848 C 561.256 -1.24396 3.38464 0
M  V30 5849 O 560.36 -2.35982 3.3821 0
M  V30 5850 H 559.701 -0.154741 0.645718 0
M  V30 5851 H 562.231 0.152885 2.04028 0
M  V30 5852 H 562.241 -1.5896 3.7576 0
M  V30 5853 H 560.916 -0.498735 4.12899 0
M  V30 5854 H 559.493 -2.03173 3.1269 0
M  V30 5855 N 561.678 -1.56367 -0.196722 0
M  V30 5856 C 562.588 -1.97617 -1.2643 0
M  V30 5857 C 563.604 -0.883598 -1.49895 0
M  V30 5858 O 564.78 -1.18921 -1.62541 0
M  V30 5859 C 561.845 -2.30595 -2.58895 0
M  V30 5860 C 560.906 -3.53551 -2.43516 0
M  V30 5861 C 560.139 -3.84946 -3.69665 0
M  V30 5862 O 560.362 -3.17655 -4.73763 0
M  V30 5863 O 559.296 -4.78379 -3.65291 0
M  V30 5864 H 563.122 -2.88648 -0.944233 0
M  V30 5865 H 560.707 -1.43901 -0.401592 0
M  V30 5866 H 562.589 -2.52889 -3.37083 0
M  V30 5867 H 561.264 -1.42732 -2.90533 0
M  V30 5868 H 560.171 -3.36507 -1.63445 0
M  V30 5869 H 561.504 -4.41875 -2.16812 0
M  V30 5870 N 563.156 0.464375 -1.50603 0
M  V30 5871 C 564.381 1.24372 -1.65971 0
M  V30 5872 C 564.806 1.84901 -0.345453 0
M  V30 5873 O 564.164 1.67596 0.691457 0
M  V30 5874 C 564.212 2.32331 -2.7578 0
M  V30 5875 O 563.316 3.37146 -2.375 0
M  V30 5876 H 562.657 0.365604 -0.554283 0
M  V30 5877 H 565.187 0.55183 -1.97018 0
M  V30 5878 H 565.197 2.77539 -2.99059 0
M  V30 5879 H 563.872 1.87648 -3.71162 0
M  V30 5880 H 562.449 2.97602 -2.24694 0
M  V30 5881 N 564.634 1.40294 0.718013 0
M  V30 5882 C 565.862 1.4175 1.50714 0
M  V30 5883 C 566.277 0.0165366 1.88793 0
M  V30 5884 O 565.634 -0.958942 1.55276 0
M  V30 5885 C 565.685 2.30598 2.784 0
M  V30 5886 O 565.406 3.6524 2.41932 0
M  V30 5887 C 566.907 2.4062 3.72313 0
M  V30 5888 H 564.127 0.483565 0.465194 0
M  V30 5889 H 566.671 1.84316 0.885889 0
M  V30 5890 H 564.826 1.91401 3.36815 0
M  V30 5891 H 565.24 4.12402 3.24076 0
M  V30 5892 H 566.714 3.07001 4.58753 0
M  V30 5893 H 567.191 1.4305 4.15251 0
M  V30 5894 H 567.797 2.80359 3.19811 0
M  V30 5895 N 566.112 -0.949982 1.2575 0
M  V30 5896 C 567.359 -1.69515 1.10774 0
M  V30 5897 C 567.687 -1.91316 -0.350479 0
M  V30 5898 O 566.942 -1.48515 -1.27443 0
M  V30 5899 C 567.241 -3.08039 1.81237 0
M  V30 5900 C 566.907 -3.06023 3.31151 0
M  V30 5901 C 565.569 -3.0518 3.72047 0
M  V30 5902 C 567.921 -2.98998 4.26907 0
M  V30 5903 C 565.249 -2.95067 5.07102 0
M  V30 5904 C 567.601 -2.90426 5.61992 0
M  V30 5905 C 566.265 -2.87922 6.0221 0
M  V30 5906 H 565.535 -0.6203 0.405351 0
M  V30 5907 H 568.182 -1.10953 1.56082 0
M  V30 5908 H 566.487 -3.70172 1.28373 0
M  V30 5909 H 568.184 -3.64526 1.67098 0
M  V30 5910 H 564.774 -3.07453 2.98614 0
M  V30 5911 H 568.958 -2.98764 3.963 0
M  V30 5912 H 564.214 -2.915 5.37436 0
M  V30 5913 H 568.388 -2.83952 6.35881 0
M  V30 5914 H 566.015 -2.79841 7.06819 0
M  V30 5915 N 567.59 -1.07411 -1.15328 0
M  V30 5916 C 568.838 -0.796073 -1.85761 0
M  V30 5917 C 569.159 0.679864 -1.82764 0
M  V30 5918 O 568.429 1.49242 -1.269 0
M  V30 5919 H 567.009 -0.291495 -0.687779 0
M  V30 5920 H 569.671 -1.35799 -1.39802 0
M  V30 5921 H 568.767 -1.13114 -2.90881 0
M  V30 5922 N 569.068 1.32177 -0.85831 0
M  V30 5923 C 570.314 1.97417 -0.46417 0
M  V30 5924 C 570.647 1.67746 0.978514 0
M  V30 5925 O 569.922 0.967654 1.68721 0
M  V30 5926 C 570.205 3.53069 -0.708094 0
M  V30 5927 C 570.058 3.92357 -2.19946 0
M  V30 5928 C 571.377 4.39783 -0.166881 0
M  V30 5929 H 568.496 0.717097 -0.17012 0
M  V30 5930 H 571.138 1.56499 -1.07741 0
M  V30 5931 H 569.288 3.88054 -0.186128 0
M  V30 5932 H 570.96 3.67533 -2.78779 0
M  V30 5933 H 569.203 3.41384 -2.67656 0
M  V30 5934 H 569.874 5.00841 -2.32082 0
M  V30 5935 H 572.35 4.11556 -0.613285 0
M  V30 5936 H 571.226 5.47671 -0.367093 0
M  V30 5937 H 571.487 4.32196 0.930559 0
M  V30 5938 N 570.547 0.616602 1.45037 0
M  V30 5939 C 571.494 -0.0969439 2.30596 0
M  V30 5940 C 572.464 -0.851151 1.42635 0
M  V30 5941 O 573.649 -0.835092 1.71554 0
M  V30 5942 C 570.789 -1.08234 3.27688 0
M  V30 5943 C 569.902 -0.328072 4.30752 0
M  V30 5944 C 569.037 -1.30399 5.14946 0
M  V30 5945 C 568.076 -0.538049 6.09731 0
M  V30 5946 N 567.213 -1.46371 6.86673 0
M  V30 5947 H 572.053 0.63864 2.91076 0
M  V30 5948 H 569.59 0.326733 1.43425 0
M  V30 5949 H 571.548 -1.66688 3.82454 0
M  V30 5950 H 570.178 -1.78523 2.68941 0
M  V30 5951 H 569.23 0.372136 3.78575 0
M  V30 5952 H 570.542 0.269142 4.98073 0
M  V30 5953 H 569.696 -1.96032 5.74157 0
M  V30 5954 H 568.435 -1.93514 4.47665 0
M  V30 5955 H 567.44 0.131852 5.49642 0
M  V30 5956 H 568.665 0.0881732 6.79043 0
M  V30 5957 H 566.611 -2.08233 6.22073 0
M  V30 5958 H 566.528 -0.920152 7.50379 0
M  V30 5959 H 567.796 -2.10932 7.50418 0
M  V30 5960 N 572.025 -1.5352 0.356285 0
M  V30 5961 C 573.302 -1.93405 -0.292223 0
M  V30 5962 C 573.682 -1.28901 -1.67176 0
M  V30 5963 O 573.03 -0.444632 -2.24132 0
M  V30 5964 C 573.24 -3.47223 -0.35175 0
M  V30 5965 C 574.588 -4.20389 -0.596534 0
M  V30 5966 O 575.612 -3.53554 -0.433344 0
M  V30 5967 O 574.471 -5.3881 -0.913589 0
M  V30 5968 H 571.565 -0.808666 -0.173172 0
M  V30 5969 H 574.111 -1.64713 0.408391 0
M  V30 5970 H 572.883 -3.86423 0.615841 0
M  V30 5971 H 572.506 -3.8212 -1.09864 0
M  V30 5972 N 573.503 -0.0852151 -1.57369 0
M  V30 5973 C 574.919 0.271436 -1.57275 0
M  V30 5974 C 575.119 1.69109 -1.09565 0
M  V30 5975 O 574.175 2.40549 -0.767611 0
M  V30 5976 C 575.488 0.0688638 -3.00621 0
M  V30 5977 C 577.036 0.137373 -3.12698 0
M  V30 5978 C 577.511 -0.0370832 -4.57985 0
M  V30 5979 N 579.002 0.0180794 -4.63196 0
M  V30 5980 C 579.737 -0.0922953 -5.73326 0
M  V30 5981 N 579.233 -0.256948 -6.92323 0
M  V30 5982 N 581.026 -0.0342702 -5.6209 0
M  V30 5983 H 573.177 -1.01288 -1.86693 0
M  V30 5984 H 575.44 -0.396138 -0.861266 0
M  V30 5985 H 575.146 -0.911277 -3.39689 0
M  V30 5986 H 575.02 0.815442 -3.6828 0
M  V30 5987 H 577.407 1.10801 -2.73509 0
M  V30 5988 H 577.488 -0.640532 -2.47651 0
M  V30 5989 H 577.132 -1.00455 -4.97867 0
M  V30 5990 H 577.062 0.760392 -5.21081 0
M  V30 5991 H 579.553 0.143202 -3.77629 0
M  V30 5992 H 579.866 -0.332949 -7.72082 0
M  V30 5993 H 578.211 -0.292487 -6.94384 0
M  V30 5994 H 581.402 0.0931605 -4.68007 0
M  V30 5995 H 581.575 -0.12374 -6.47882 0
M  V30 5996 N 574.981 1.5647 0.188427 0
M  V30 5997 C 576.206 1.85486 0.927891 0
M  V30 5998 C 576.631 0.669575 1.75779 0
M  V30 5999 O 575.989 -0.381573 1.77239 0
M  V30 6000 C 576.037 3.12784 1.7944 0
M  V30 6001 O 575.141 2.93805 2.894 0
M  V30 6002 H 574.482 0.610585 0.260925 0
M  V30 6003 H 577.012 2.037 0.191729 0
M  V30 6004 H 577.022 3.43749 2.19774 0
M  V30 6005 H 575.697 3.98671 1.18468 0
M  V30 6006 H 574.274 2.74153 2.52774 0
M  V30 6007 N 576.459 -0.456382 1.50847 0
M  V30 6008 C 577.707 -1.20497 1.62249 0
M  V30 6009 C 578.028 -1.92156 0.331839 0
M  V30 6010 O 577.298 -1.84751 -0.651443 0
M  V30 6011 H 575.878 -0.447775 0.597918 0
M  V30 6012 H 578.54 -0.525099 1.87693 0
M  V30 6013 H 577.636 -1.94492 2.44089 0
M  V30 6014 N 577.937 -1.40673 -0.710563 0
M  V30 6015 C 578.867 -1.44095 -1.83736 0
M  V30 6016 C 579.848 -0.301286 -1.67411 0
M  V30 6017 O 581.033 -0.510618 -1.87367 0
M  V30 6018 C 578.163 -1.30773 -3.21738 0
M  V30 6019 C 577.117 -2.42395 -3.52745 0
M  V30 6020 C 576.443 -2.14147 -4.89944 0
M  V30 6021 C 577.743 -3.84738 -3.53234 0
M  V30 6022 H 579.437 -2.38396 -1.81129 0
M  V30 6023 H 576.983 -1.14746 -0.870017 0
M  V30 6024 H 578.936 -1.31783 -4.00264 0
M  V30 6025 H 577.66 -0.329507 -3.24934 0
M  V30 6026 H 576.319 -2.40643 -2.76562 0
M  V30 6027 H 575.967 -1.14703 -4.89747 0
M  V30 6028 H 575.667 -2.88934 -5.11655 0
M  V30 6029 H 577.191 -2.16848 -5.70797 0
M  V30 6030 H 578.605 -3.88286 -4.2179 0
M  V30 6031 H 577.002 -4.59085 -3.86473 0
M  V30 6032 H 578.072 -4.13962 -2.52514 0
M  V30 6033 N 579.415 0.9433 -1.26252 0
M  V30 6034 C 580.826 1.50404 -1.10614 0
M  V30 6035 C 581.177 1.93666 0.31429 0
M  V30 6036 O 580.302 1.79709 1.20555 0
M  V30 6037 C 580.897 2.73336 -2.00182 0
M  V30 6038 C 579.456 3.25686 -1.88695 0
M  V30 6039 C 578.603 1.98474 -1.93658 0
M  V30 6040 H 581.554 0.759006 -1.39373 0
M  V30 6041 H 581.575 3.47567 -1.54847 0
M  V30 6042 H 581.087 2.41818 -3.03555 0
M  V30 6043 H 579.188 3.61998 -0.882489 0
M  V30 6044 H 579.301 3.92935 -2.74115 0
M  V30 6045 H 577.665 2.14278 -1.37684 0
M  V30 6046 H 578.448 1.6929 -2.98657 0
M  V30 6047 N 580.893 1.08022 1.14757 0
M  V30 6048 C 581.825 0.664566 2.19354 0
M  V30 6049 C 582.838 -0.286374 1.60261 0
M  V30 6050 O 584.027 -0.0746362 1.78344 0
M  V30 6051 C 581.127 -0.0434634 3.38872 0
M  V30 6052 C 580.3 0.925381 4.27499 0
M  V30 6053 C 579.359 0.253398 5.2559 0
M  V30 6054 O 578.385 0.896581 5.62094 0
M  V30 6055 N 579.587 -0.998263 5.71852 0
M  V30 6056 H 582.352 1.56438 2.55631 0
M  V30 6057 H 579.913 0.965788 1.29939 0
M  V30 6058 H 581.905 -0.503857 4.01551 0
M  V30 6059 H 580.475 -0.845321 3.00954 0
M  V30 6060 H 579.695 1.56472 3.61815 0
M  V30 6061 H 580.983 1.58203 4.8358 0
M  V30 6062 H 580.381 -1.54063 5.44317 0
M  V30 6063 H 578.938 -1.40222 6.36538 0
M  V30 6064 N 582.371 -1.3172 0.865308 0
M  V30 6065 C 583.334 -2.26918 0.322627 0
M  V30 6066 C 584.334 -1.52031 -0.523751 0
M  V30 6067 O 585.524 -1.70973 -0.333727 0
M  V30 6068 C 582.656 -3.36558 -0.542338 0
M  V30 6069 H 583.849 -2.76432 1.16298 0
M  V30 6070 H 581.402 -1.42573 0.640512 0
M  V30 6071 H 582.137 -2.92329 -1.40407 0
M  V30 6072 H 581.922 -3.92048 0.0636395 0
M  V30 6073 H 583.412 -4.07465 -0.91446 0
M  V30 6074 N 583.85 -0.624285 -1.44708 0
M  V30 6075 C 584.812 0.0749638 -2.29077 0
M  V30 6076 C 585.812 0.778965 -1.40673 0
M  V30 6077 O 587.003 0.624591 -1.62618 0
M  V30 6078 C 584.135 1.11663 -3.22094 0
M  V30 6079 H 585.327 -0.667013 -2.92388 0
M  V30 6080 H 582.88 -0.384098 -1.51507 0
M  V30 6081 H 583.615 1.88881 -2.63618 0
M  V30 6082 H 583.401 0.61583 -3.87234 0
M  V30 6083 H 584.891 1.60585 -3.8549 0
M  V30 6084 N 585.328 1.53329 -0.364422 0
M  V30 6085 C 586.258 2.28627 0.474543 0
M  V30 6086 C 587.239 1.31009 1.08492 0
M  V30 6087 O 588.424 1.59878 1.10239 0
M  V30 6088 C 585.554 3.07465 1.61501 0
M  V30 6089 C 584.508 4.1276 1.13194 0
M  V30 6090 C 583.834 4.79674 2.36255 0
M  V30 6091 C 585.134 5.21847 0.217507 0
M  V30 6092 H 586.828 2.99005 -0.153656 0
M  V30 6093 H 584.374 1.43803 -0.0753406 0
M  V30 6094 H 586.327 3.58889 2.20855 0
M  V30 6095 H 585.051 2.34775 2.27042 0
M  V30 6096 H 583.71 3.62281 0.56109 0
M  V30 6097 H 583.358 4.03557 3.00251 0
M  V30 6098 H 583.058 5.50827 2.04606 0
M  V30 6099 H 584.582 5.33892 2.96297 0
M  V30 6100 H 585.996 5.6878 0.718493 0
M  V30 6101 H 584.393 6.00099 -0.00806408 0
M  V30 6102 H 585.463 4.7921 -0.740653 0
M  V30 6103 N 586.806 0.0935595 1.57322 0
M  V30 6104 C 587.754 -0.883457 2.15169 0
M  V30 6105 C 588.748 -1.29324 1.09415 0
M  V30 6106 O 589.954 -1.26795 1.27762 0
M  V30 6107 H 586.329 -0.302923 0.688289 0
M  V30 6108 H 588.3 -0.370845 2.96087 0
M  V30 6109 C 587.049 -2.13345 2.74552 0
M  V30 6110 H 586.372 -1.82702 3.55612 0
M  V30 6111 H 587.812 -2.7977 3.18598 0
M  V30 6112 C 586.271 -2.90646 1.70371 0
M  V30 6113 O 586.801 -3.85133 1.14173 0
M  V30 6114 N 585.007 -2.54157 1.40899 0
M  V30 6115 H 584.554 -1.77391 1.86789 0
M  V30 6116 H 584.512 -3.06178 0.714301 0
M  V30 6117 N 588.284 -1.56567 -0.180126 0
M  V30 6118 C 589.514 -1.85349 -0.912647 0
M  V30 6119 C 589.922 -0.675795 -1.76719 0
M  V30 6120 O 589.265 0.3645 -1.80047 0
M  V30 6121 C 589.327 -3.08431 -1.84691 0
M  V30 6122 C 588.991 -4.41694 -1.17284 0
M  V30 6123 C 589.988 -5.17062 -0.542532 0
M  V30 6124 C 587.673 -4.8843 -1.17223 0
M  V30 6125 C 589.667 -6.37351 0.0793953 0
M  V30 6126 C 587.354 -6.08652 -0.54647 0
M  V30 6127 C 588.352 -6.82955 0.0782458 0
M  V30 6128 O 588.04 -8.00897 0.694158 0
M  V30 6129 H 587.772 -0.619286 -0.271036 0
M  V30 6130 H 590.326 -2.0454 -0.187768 0
M  V30 6131 H 588.556 -2.85163 -2.61188 0
M  V30 6132 H 590.245 -3.23733 -2.44851 0
M  V30 6133 H 591.011 -4.8204 -0.535045 0
M  V30 6134 H 586.89 -4.30542 -1.64788 0
M  V30 6135 H 590.434 -6.95287 0.567612 0
M  V30 6136 H 586.331 -6.4314 -0.55151 0
M  V30 6137 H 587.099 -8.16352 0.592537 0
M  V30 6138 N 589.762 0.448376 -1.51087 0
M  V30 6139 C 591.011 1.19561 -1.62444 0
M  V30 6140 C 591.324 1.92602 -0.341151 0
M  V30 6141 O 592.53 2.69439 -0.333936 0
M  V30 6142 C 590.986 2.17373 -2.8684 0
M  V30 6143 C 590.594 1.5003 -4.22131 0
M  V30 6144 C 592.338 2.92597 -3.0755 0
M  V30 6145 C 590.245 2.46262 -5.37689 0
M  V30 6146 H 589.175 0.449975 -0.605011 0
M  V30 6147 H 591.826 0.463735 -1.77544 0
M  V30 6148 H 590.208 2.93948 -2.65349 0
M  V30 6149 H 591.382 0.790886 -4.53962 0
M  V30 6150 H 589.697 0.870011 -4.0721 0
M  V30 6151 H 592.294 3.64663 -3.91056 0
M  V30 6152 H 592.637 3.53306 -2.20183 0
M  V30 6153 H 593.17 2.23131 -3.29329 0
M  V30 6154 H 589.909 1.90258 -6.27281 0
M  V30 6155 H 589.429 3.15289 -5.10248 0
M  V30 6156 H 591.108 3.07623 -5.6919 0
M  V30 6157 N 591.24 1.41047 0.703093 0
M  V30 6158 C 592.187 1.42302 1.81711 0
M  V30 6159 C 593.157 0.278336 1.63751 0
M  V30 6160 O 594.342 0.478266 1.84709 0
M  V30 6161 C 591.482 1.30362 3.19531 0
M  V30 6162 C 590.595 2.54638 3.48975 0
M  V30 6163 C 589.73 2.35047 4.76368 0
M  V30 6164 C 588.769 3.54837 4.98756 0
M  V30 6165 N 587.906 3.34363 6.1737 0
M  V30 6166 H 592.746 2.37516 1.79973 0
M  V30 6167 H 590.283 1.1795 0.878983 0
M  V30 6168 H 592.241 1.21443 3.99134 0
M  V30 6169 H 590.871 0.387602 3.20464 0
M  V30 6170 H 589.923 2.74037 2.63833 0
M  V30 6171 H 591.235 3.43766 3.61423 0
M  V30 6172 H 590.389 2.23552 5.64012 0
M  V30 6173 H 589.128 1.43363 4.66153 0
M  V30 6174 H 588.133 3.66795 4.09563 0
M  V30 6175 H 589.358 4.47464 5.10835 0
M  V30 6176 H 587.304 2.45373 6.08382 0
M  V30 6177 H 587.221 4.17063 6.30551 0
M  V30 6178 H 588.489 3.26626 7.07768 0
M  V30 6179 N 592.718 -0.936591 1.26751 0
M  V30 6180 C 594.134 -1.21095 1.03963 0
M  V30 6181 C 594.334 -2.00156 -0.232372 0
M  V30 6182 O 593.39 -2.3434 -0.940274 0
M  V30 6183 C 594.703 -1.96775 2.27377 0
M  V30 6184 C 596.251 -2.09749 2.32324 0
M  V30 6185 C 596.726 -2.88832 3.55443 0
M  V30 6186 N 598.217 -2.96404 3.55948 0
M  V30 6187 C 598.952 -3.58036 4.47881 0
M  V30 6188 N 598.448 -4.21132 5.50109 0
M  V30 6189 N 600.241 -3.55353 4.35523 0
M  V30 6190 H 592.392 -0.408173 2.08441 0
M  V30 6191 H 594.655 -0.243139 0.91629 0
M  V30 6192 H 594.361 -1.46094 3.19921 0
M  V30 6193 H 594.235 -2.97424 2.31989 0
M  V30 6194 H 596.622 -2.5962 1.40291 0
M  V30 6195 H 596.703 -1.08347 2.31721 0
M  V30 6196 H 596.347 -2.39647 4.47808 0
M  V30 6197 H 596.277 -3.90499 3.53296 0
M  V30 6198 H 598.768 -2.51552 2.82011 0
M  V30 6199 H 599.081 -4.66071 6.16439 0
M  V30 6200 H 597.426 -4.19705 5.53961 0
M  V30 6201 H 600.617 -3.05256 3.54875 0
M  V30 6202 H 600.79 -4.03097 5.07363 0
M  V30 6203 N 594.196 -1.08629 -1.14182 0
M  V30 6204 C 595.445 -0.812271 -1.84621 0
M  V30 6205 C 595.758 0.664313 -1.83973 0
M  V30 6206 O 596.964 1.05357 -2.50224 0
M  V30 6207 C 595.42 -1.4031 -3.31423 0
M  V30 6208 C 595.028 -2.91164 -3.40481 0
M  V30 6209 C 596.772 -1.20767 -4.06959 0
M  V30 6210 C 594.679 -3.43373 -4.81507 0
M  V30 6211 H 593.609 -0.30019 -0.691666 0
M  V30 6212 H 596.26 -1.30798 -1.28701 0
M  V30 6213 H 594.642 -0.835096 -3.87094 0
M  V30 6214 H 595.816 -3.5412 -2.94848 0
M  V30 6215 H 594.131 -3.09646 -2.78403 0
M  V30 6216 H 596.728 -1.57237 -5.11058 0
M  V30 6217 H 597.071 -0.147664 -4.16038 0
M  V30 6218 H 597.604 -1.74274 -3.57594 0
M  V30 6219 H 594.343 -4.48958 -4.77616 0
M  V30 6220 H 593.863 -2.85176 -5.27669 0
M  V30 6221 H 595.542 -3.40095 -5.50404 0
M  V30 6222 N 595.674 1.31259 -0.872281 0
M  V30 6223 C 596.584 2.32221 -0.333255 0
M  V30 6224 C 597.6 1.6481 0.558013 0
M  V30 6225 O 598.776 1.96212 0.454175 0
M  V30 6226 C 595.841 3.43708 0.454479 0
M  V30 6227 C 594.902 4.26774 -0.465024 0
M  V30 6228 C 594.135 5.32937 0.28521 0
M  V30 6229 O 594.358 5.49968 1.513 0
M  V30 6230 O 593.292 6.00834 -0.358126 0
M  V30 6231 H 597.118 2.80252 -1.17016 0
M  V30 6232 H 594.703 1.352 -0.635724 0
M  V30 6233 H 596.585 4.11656 0.900963 0
M  V30 6234 H 595.26 2.97836 1.26789 0
M  V30 6235 H 594.167 3.61571 -0.960055 0
M  V30 6236 H 595.5 4.76217 -1.2441 0
M  V30 6237 N 597.152 0.631951 1.44375 0
M  V30 6238 C 598.062 -0.073674 2.34484 0
M  V30 6239 C 599.078 -0.834825 1.52665 0
M  V30 6240 O 600.254 -0.786902 1.85391 0
M  V30 6241 C 597.319 -1.04247 3.30656 0
M  V30 6242 C 596.38 -0.280602 4.28382 0
M  V30 6243 C 595.613 -1.20325 5.19959 0
M  V30 6244 O 595.836 -2.44199 5.15484 0
M  V30 6245 O 594.77 -0.687128 5.97965 0
M  V30 6246 H 598.596 0.667477 2.96274 0
M  V30 6247 H 596.181 0.392144 1.44162 0
M  V30 6248 H 598.063 -1.59981 3.89851 0
M  V30 6249 H 596.738 -1.76422 2.71398 0
M  V30 6250 H 595.645 0.319804 3.72731 0
M  V30 6251 H 596.978 0.401144 4.90563 0
M  V30 6252 N 598.631 -1.53133 0.372548 0
M  V30 6253 C 599.561 -2.28876 -0.462412 0
M  V30 6254 C 600.542 -1.31583 -1.07796 0
M  V30 6255 O 601.727 -1.60461 -1.09389 0
M  V30 6256 C 598.857 -3.08317 -1.59868 0
M  V30 6257 C 597.811 -4.13355 -1.11003 0
M  V30 6258 C 597.137 -4.8092 -2.33708 0
M  V30 6259 C 598.437 -5.21955 -0.18983 0
M  V30 6260 H 600.131 -2.9892 0.169511 0
M  V30 6261 H 597.677 -1.43761 0.0829658 0
M  V30 6262 H 599.63 -3.60055 -2.18949 0
M  V30 6263 H 598.354 -2.35976 -2.25794 0
M  V30 6264 H 597.013 -3.62573 -0.541869 0
M  V30 6265 H 596.661 -4.05144 -2.98106 0
M  V30 6266 H 596.361 -5.51904 -2.01682 0
M  V30 6267 H 597.885 -5.35455 -2.93462 0
M  V30 6268 H 599.299 -5.69153 -0.688319 0
M  V30 6269 H 597.696 -6.00087 0.0398887 0
M  V30 6270 H 598.766 -4.78811 0.766057 0
M  V30 6271 N 600.109 -0.101901 -1.5727 0
M  V30 6272 C 601.337 0.568392 -1.98939 0
M  V30 6273 C 601.752 1.61301 -0.981194 0
M  V30 6274 O 601.109 1.82478 0.0282869 0
M  V30 6275 C 601.16 1.20997 -3.40649 0
M  V30 6276 O 600.881 0.207129 -4.3761 0
M  V30 6277 C 602.382 1.96523 -3.97358 0
M  V30 6278 H 599.602 0.15186 -0.65359 0
M  V30 6279 H 602.146 -0.183198 -2.03678 0
M  V30 6280 H 600.301 1.91245 -3.36904 0
M  V30 6281 H 600.715 0.671071 -5.20189 0
M  V30 6282 H 602.189 2.36764 -4.98645 0
M  V30 6283 H 602.666 2.83376 -3.35552 0
M  V30 6284 H 603.272 1.31076 -4.04598 0
M  V30 6285 N 601.587 1.56661 0.17182 0
M  V30 6286 C 602.835 1.81606 0.886774 0
M  V30 6287 C 603.156 0.678818 1.82803 0
M  V30 6288 O 602.426 -0.301354 1.93568 0
M  V30 6289 H 601.006 0.669934 0.330451 0
M  V30 6290 H 603.668 1.94142 0.171757 0
M  V30 6291 H 602.764 2.75634 1.46398 0
M  V30 6292 N 603.065 -0.440357 1.51323 0
M  V30 6293 C 604.311 -1.19181 1.64085 0
M  V30 6294 C 604.644 -1.90936 0.354575 0
M  V30 6295 O 603.919 -1.8347 -0.645675 0
M  V30 6296 C 604.202 -2.2112 2.84215 0
M  V30 6297 C 604.055 -1.53468 4.22809 0
M  V30 6298 C 605.374 -3.22133 2.99864 0
M  V30 6299 H 602.493 -0.431924 0.597169 0
M  V30 6300 H 605.135 -0.481443 1.83799 0
M  V30 6301 H 603.285 -2.81703 2.67537 0
M  V30 6302 H 604.957 -0.962455 4.51148 0
M  V30 6303 H 603.2 -0.837086 4.25647 0
M  V30 6304 H 603.871 -2.27694 5.02852 0
M  V30 6305 H 606.347 -2.71601 3.15233 0
M  V30 6306 H 605.223 -3.90756 3.85488 0
M  V30 6307 H 605.484 -3.88061 2.11804 0
M  V30 6308 N 604.543 -1.41418 -0.695603 0
M  V30 6309 C 605.954 -1.36335 -1.27552 0
M  V30 6310 C 606.305 -0.0464336 -1.96145 0
M  V30 6311 O 605.43 0.855304 -1.9878 0
M  V30 6312 C 606.025 -2.46941 -2.3196 0
M  V30 6313 C 604.584 -2.45256 -2.85529 0
M  V30 6314 C 603.731 -2.2679 -1.59566 0
M  V30 6315 H 606.682 -1.50934 -0.490362 0
M  V30 6316 H 606.703 -2.15997 -3.1325 0
M  V30 6317 H 606.215 -3.42775 -1.82008 0
M  V30 6318 H 604.316 -1.53179 -3.39657 0
M  V30 6319 H 604.429 -3.41565 -3.35961 0
M  V30 6320 H 602.793 -1.74667 -1.85374 0
M  V30 6321 H 603.576 -3.24651 -1.1161 0
M  V30 6322 N 606.021 0.929856 -1.27246 0
M  V30 6323 C 607.27 1.67182 -1.12842 0
M  V30 6324 C 607.583 1.9287 0.325666 0
M  V30 6325 O 608.789 2.64999 0.590572 0
M  V30 6326 C 607.245 3.01097 -1.97151 0
M  V30 6327 C 606.853 2.83115 -3.47203 0
M  V30 6328 C 608.597 3.78907 -1.91389 0
M  V30 6329 C 606.504 4.12573 -4.23719 0
M  V30 6330 H 605.434 0.627064 -0.418697 0
M  V30 6331 H 608.085 1.0332 -1.51649 0
M  V30 6332 H 606.467 3.66004 -1.51186 0
M  V30 6333 H 607.641 2.26989 -4.01015 0
M  V30 6334 H 605.956 2.18736 -3.54321 0
M  V30 6335 H 608.553 4.74837 -2.45834 0
M  V30 6336 H 608.896 4.0674 -0.887047 0
M  V30 6337 H 609.429 3.20794 -2.35237 0
M  V30 6338 H 606.168 3.8992 -5.26918 0
M  V30 6339 H 605.688 4.68371 -3.74685 0
M  V30 6340 H 607.367 4.8095 -4.32777 0
M  V30 6341 N 607.499 1.09233 1.13605 0
M  V30 6342 C 608.776 0.739633 1.81077 0
M  V30 6343 C 609.156 -0.775595 1.96336 0
M  V30 6344 O 608.504 -1.69726 1.52988 0
M  V30 6345 C 608.714 1.47636 3.16235 0
M  V30 6346 C 610.062 1.64087 3.91613 0
M  V30 6347 O 611.086 1.43871 3.25852 0
M  V30 6348 O 609.945 1.97511 5.0956 0
M  V30 6349 H 607.039 0.265464 0.783236 0
M  V30 6350 H 609.585 1.19441 1.20549 0
M  V30 6351 H 608.357 2.50818 3.00344 0
M  V30 6352 H 607.98 1.01362 3.84462 0
M  V30 6353 N 608.977 -1.30795 0.87923 0
M  V30 6354 C 610.226 -1.95636 0.490875 0
M  V30 6355 C 610.539 -1.70214 -0.963674 0
M  V30 6356 O 611.745 -2.28991 -1.45861 0
M  V30 6357 C 610.201 -3.50271 0.826929 0
M  V30 6358 C 609.809 -3.84521 2.29886 0
M  V30 6359 C 611.553 -4.21456 0.507494 0
M  V30 6360 C 609.46 -5.32309 2.57685 0
M  V30 6361 H 608.39 -0.732238 0.179841 0
M  V30 6362 H 611.041 -1.48829 1.07341 0
M  V30 6363 H 609.423 -3.9562 0.173542 0
M  V30 6364 H 610.597 -3.50102 2.99609 0
M  V30 6365 H 608.912 -3.26425 2.58526 0
M  V30 6366 H 611.509 -5.30199 0.692293 0
M  V30 6367 H 611.852 -4.12614 -0.552718 0
M  V30 6368 H 612.385 -3.81772 1.11782 0
M  V30 6369 H 609.124 -5.46195 3.62424 0
M  V30 6370 H 608.644 -5.68048 1.92566 0
M  V30 6371 H 610.323 -5.99678 2.42889 0
M  V30 6372 N 610.455 -0.639598 -1.44038 0
M  V30 6373 C 611.704 -0.144885 -2.01179 0
M  V30 6374 C 612.017 1.24372 -1.50967 0
M  V30 6375 O 613.223 1.83291 -2.00292 0
M  V30 6376 C 611.679 -0.208244 -3.59297 0
M  V30 6377 C 611.287 -1.59869 -4.18504 0
M  V30 6378 C 613.031 0.229568 -4.23879 0
M  V30 6379 C 610.938 -1.61671 -5.68873 0
M  V30 6380 H 609.868 -0.0504005 -0.752314 0
M  V30 6381 H 612.519 -0.799639 -1.65161 0
M  V30 6382 H 610.901 0.513767 -3.92653 0
M  V30 6383 H 612.075 -2.34496 -3.96671 0
M  V30 6384 H 610.39 -1.98131 -3.66242 0
M  V30 6385 H 612.987 0.235758 -5.3418 0
M  V30 6386 H 613.33 1.25848 -3.96822 0
M  V30 6387 H 613.863 -0.440233 -3.95357 0
M  V30 6388 H 610.602 -2.62427 -6.00677 0
M  V30 6389 H 610.122 -0.913489 -5.92803 0
M  V30 6390 H 611.801 -1.35439 -6.32665 0
M  V30 6391 N 611.933 1.52934 -0.380664 0
M  V30 6392 C 613.158 2.06363 0.207157 0
M  V30 6393 C 613.583 1.25122 1.4045 0
M  V30 6394 O 612.941 0.274062 1.79217 0
M  V30 6395 C 612.989 3.56162 0.563996 0
M  V30 6396 O 612.093 3.77552 1.65917 0
M  V30 6397 H 611.434 0.663468 0.0265859 0
M  V30 6398 H 613.964 1.9719 -0.545635 0
M  V30 6399 H 613.974 3.99453 0.830752 0
M  V30 6400 H 612.649 4.14732 -0.311427 0
M  V30 6401 H 611.226 3.46154 1.3868 0
M  V30 6402 N 613.412 0.11024 1.57214 0
M  V30 6403 C 614.64 -0.557834 1.99238 0
M  V30 6404 C 615.055 -1.60778 0.989734 0
M  V30 6405 O 614.412 -1.82491 -0.0186092 0
M  V30 6406 C 614.463 -1.19189 3.41286 0
M  V30 6407 O 614.184 -0.183919 4.37714 0
M  V30 6408 C 615.685 -1.94413 3.98395 0
M  V30 6409 H 612.905 -0.148392 0.654386 0
M  V30 6410 H 615.449 0.193996 2.03578 0
M  V30 6411 H 613.604 -1.89456 3.37913 0
M  V30 6412 H 614.018 -0.643475 5.20538 0
M  V30 6413 H 615.492 -2.34116 4.99894 0
M  V30 6414 H 615.969 -2.81592 3.3705 0
M  V30 6415 H 616.575 -1.28928 4.05287 0
M  V30 6416 N 614.89 -1.56749 -0.16351 0
M  V30 6417 C 616.138 -1.82074 -0.87713 0
M  V30 6418 C 616.459 -0.688503 -1.82441 0
M  V30 6419 O 615.729 0.291085 -1.93725 0
M  V30 6420 H 614.309 -0.671677 -0.326893 0
M  V30 6421 H 616.971 -1.9423 -0.161459 0
M  V30 6422 H 616.067 -2.76407 -1.44934 0
M  V30 6423 N 616.368 0.432326 -1.51554 0
M  V30 6424 C 617.779 1.01202 -1.56892 0
M  V30 6425 C 618.13 1.92175 -0.395394 0
M  V30 6426 O 617.255 2.10844 0.487198 0
M  V30 6427 C 617.85 1.84217 -2.8434 0
M  V30 6428 C 616.409 2.37228 -2.92233 0
M  V30 6429 C 615.556 1.16576 -2.51606 0
M  V30 6430 H 618.507 0.213407 -1.57259 0
M  V30 6431 H 618.528 2.69721 -2.68385 0
M  V30 6432 H 618.04 1.17979 -3.69733 0
M  V30 6433 H 616.141 3.06905 -2.11282 0
M  V30 6434 H 616.254 2.69682 -3.95991 0
M  V30 6435 H 614.618 1.51263 -2.04919 0
M  V30 6436 H 615.401 0.519404 -3.39348 0
M  V30 6437 N 617.846 1.41785 0.688094 0
M  V30 6438 C 619.123 1.32031 1.44316 0
M  V30 6439 C 619.503 -0.0486079 2.11044 0
M  V30 6440 O 618.851 -1.06332 2.02252 0
M  V30 6441 C 619.061 2.47906 2.45649 0
M  V30 6442 C 620.409 2.89415 3.10683 0
M  V30 6443 O 621.433 2.477 2.55975 0
M  V30 6444 O 620.292 3.61573 4.09789 0
M  V30 6445 H 617.386 0.519994 0.643067 0
M  V30 6446 H 619.932 1.53765 0.71794 0
M  V30 6447 H 618.704 3.39222 1.95048 0
M  V30 6448 H 618.327 2.28089 3.25671 0
M  V30 6449 N 619.324 -0.923095 1.27737 0
M  V30 6450 C 620.74 -1.19985 1.05241 0
M  V30 6451 C 620.94 -2.00391 -0.21113 0
M  V30 6452 O 619.996 -2.35324 -0.915366 0
M  V30 6453 C 621.309 -1.94352 2.29451 0
M  V30 6454 C 622.857 -2.07273 2.34536 0
M  V30 6455 C 623.332 -2.85046 3.58487 0
M  V30 6456 N 624.823 -2.92612 3.59072 0
M  V30 6457 C 625.558 -3.53266 4.51654 0
M  V30 6458 N 625.054 -4.15274 5.54545 0
M  V30 6459 N 626.847 -3.50714 4.39268 0
M  V30 6460 H 618.998 -0.386042 2.08862 0
M  V30 6461 H 621.261 -0.233407 0.918817 0
M  V30 6462 H 620.967 -1.42692 3.21453 0
M  V30 6463 H 620.841 -2.94947 2.3513 0
M  V30 6464 H 623.228 -2.58117 1.43037 0
M  V30 6465 H 623.309 -1.05884 2.32857 0
M  V30 6466 H 622.953 -2.34884 4.50324 0
M  V30 6467 H 622.883 -3.8673 3.57418 0
M  V30 6468 H 625.374 -2.48547 2.84663 0
M  V30 6469 H 625.687 -4.59507 6.21348 0
M  V30 6470 H 624.032 -4.13806 5.58382 0
M  V30 6471 H 627.223 -3.01475 3.58093 0
M  V30 6472 H 627.396 -3.97693 5.1161 0
M  V30 6473 N 620.802 -1.09834 -1.13024 0
M  V30 6474 C 622.03 -0.858902 -1.8823 0
M  V30 6475 C 622.445 0.590164 -1.79339 0
M  V30 6476 O 621.802 1.4065 -1.16292 0
M  V30 6477 C 621.853 -1.29066 -3.37675 0
M  V30 6478 O 621.574 -2.6829 -3.46341 0
M  V30 6479 C 623.075 -1.08421 -4.29837 0
M  V30 6480 H 620.295 -0.308713 -0.595766 0
M  V30 6481 H 622.839 -1.4614 -1.4305 0
M  V30 6482 H 620.994 -0.731961 -3.80422 0
M  V30 6483 H 621.408 -2.86598 -4.39274 0
M  V30 6484 H 622.882 -1.43553 -5.33007 0
M  V30 6485 H 623.359 -0.0223315 -4.39194 0
M  V30 6486 H 623.965 -1.62907 -3.92863 0
M  V30 6487 N 622.28 1.30327 -0.886154 0
M  V30 6488 C 623.19 2.31854 -0.357866 0
M  V30 6489 C 624.206 1.65392 0.540502 0
M  V30 6490 O 625.382 1.96683 0.433339 0
M  V30 6491 C 622.447 3.44171 0.417999 0
M  V30 6492 C 621.508 4.26257 -0.510263 0
M  V30 6493 C 620.741 5.3321 0.228669 0
M  V30 6494 O 620.964 5.51542 1.45458 0
M  V30 6495 O 619.898 6.0042 -0.421832 0
M  V30 6496 H 623.724 2.78995 -1.19982 0
M  V30 6497 H 621.309 1.34518 -0.650028 0
M  V30 6498 H 623.191 4.12588 0.857251 0
M  V30 6499 H 621.866 2.99164 1.23623 0
M  V30 6500 H 620.773 3.60533 -0.99835 0
M  V30 6501 H 622.106 4.74871 -1.29454 0
M  V30 6502 N 623.758 0.647228 1.43697 0
M  V30 6503 C 624.986 0.16575 2.06235 0
M  V30 6504 C 625.401 -1.1662 1.48476 0
M  V30 6505 O 624.758 -1.7187 0.613762 0
M  V30 6506 C 624.809 0.0621651 3.61447 0
M  V30 6507 O 624.53 1.34146 4.17057 0
M  V30 6508 C 626.031 -0.446102 4.4105 0
M  V30 6509 H 623.251 0.0871158 0.665321 0
M  V30 6510 H 625.795 0.886183 1.84301 0
M  V30 6511 H 623.95 -0.608794 3.82587 0
M  V30 6512 H 624.364 1.19675 5.10664 0
M  V30 6513 H 625.838 -0.46755 5.50016 0
M  V30 6514 H 626.315 -1.47627 4.13646 0
M  V30 6515 H 626.921 0.192159 4.24866 0
M  V30 6516 N 625.236 -1.5273 0.388769 0
M  V30 6517 C 626.169 -2.22861 -0.490752 0
M  V30 6518 C 627.147 -1.22912 -1.06449 0
M  V30 6519 O 628.331 -1.51896 -1.11624 0
M  V30 6520 C 625.458 -2.94141 -1.67925 0
M  V30 6521 C 624.504 -4.08355 -1.23081 0
M  V30 6522 S 625.337 -5.35077 -0.212786 0
M  V30 6523 C 626.493 -6.09879 -1.40708 0
M  V30 6524 H 626.726 -2.97115 0.104787 0
M  V30 6525 H 624.259 -1.53428 0.172956 0
M  V30 6526 H 626.217 -3.35818 -2.36085 0
M  V30 6527 H 624.878 -2.19568 -2.24608 0
M  V30 6528 H 624.071 -4.57328 -2.11818 0
M  V30 6529 H 623.673 -3.68688 -0.628121 0
M  V30 6530 H 625.965 -6.36018 -2.33424 0
M  V30 6531 H 626.908 -7.01586 -0.958271 0
M  V30 6532 H 627.316 -5.40646 -1.62364 0
M  V30 6533 N 626.714 -0.118576 -1.57153 0
M  V30 6534 C 627.963 0.539339 -1.94355 0
M  V30 6535 C 628.276 1.67858 -1.00415 0
M  V30 6536 O 629.482 2.39922 -1.27081 0
M  V30 6537 C 627.938 1.01082 -3.45414 0
M  V30 6538 C 627.546 -0.0999402 -4.47889 0
M  V30 6539 C 629.29 1.64013 -3.91535 0
M  V30 6540 C 627.197 0.388212 -5.90124 0
M  V30 6541 H 626.127 0.205247 -0.725527 0
M  V30 6542 H 628.778 -0.19836 -1.82425 0
M  V30 6543 H 627.16 1.80292 -3.52577 0
M  V30 6544 H 628.334 -0.876189 -4.52393 0
M  V30 6545 H 626.649 -0.635885 -4.11516 0
M  V30 6546 H 629.246 2.01649 -4.95219 0
M  V30 6547 H 629.589 2.51836 -3.31488 0
M  V30 6548 H 630.122 0.913439 -3.87171 0
M  V30 6549 H 626.861 -0.453963 -6.53926 0
M  V30 6550 H 626.381 1.13095 -5.89041 0
M  V30 6551 H 628.06 0.849574 -6.41398 0
M  V30 6552 N 628.193 1.56834 0.155195 0
M  V30 6553 C 629.123 2.00678 1.19376 0
M  V30 6554 C 630.104 0.884973 1.45266 0
M  V30 6555 O 631.289 1.1522 1.56326 0
M  V30 6556 C 628.419 2.38042 2.5289 0
M  V30 6557 C 627.373 3.53332 2.41538 0
M  V30 6558 C 626.699 3.76485 3.79688 0
M  V30 6559 C 627.999 4.86265 1.9064 0
M  V30 6560 H 629.693 2.87688 0.829232 0
M  V30 6561 H 627.239 1.38407 0.397445 0
M  V30 6562 H 629.192 2.67314 3.25763 0
M  V30 6563 H 627.916 1.4796 2.91162 0
M  V30 6564 H 626.575 3.24213 1.71117 0
M  V30 6565 H 626.223 2.83667 4.15382 0
M  V30 6566 H 625.923 4.54068 3.72956 0
M  V30 6567 H 627.447 4.08174 4.54122 0
M  V30 6568 H 628.861 5.14308 2.53299 0
M  V30 6569 H 627.258 5.67597 1.94818 0
M  V30 6570 H 628.328 4.77184 0.861596 0
M  V30 6571 N 629.671 -0.424282 1.51781 0
M  V30 6572 C 631.087 -0.761768 1.40247 0
M  V30 6573 C 631.287 -1.95324 0.495041 0
M  V30 6574 O 630.343 -2.5246 -0.0448949 0
M  V30 6575 C 631.656 -1.0299 2.82513 0
M  V30 6576 C 633.204 -1.13354 2.91753 0
M  V30 6577 C 633.679 -1.43453 4.34954 0
M  V30 6578 N 635.17 -1.5035 4.3812 0
M  V30 6579 C 635.905 -1.75236 5.45967 0
M  V30 6580 N 635.401 -1.97827 6.63955 0
M  V30 6581 N 637.194 -1.77126 5.33463 0
M  V30 6582 H 629.345 0.360228 2.09323 0
M  V30 6583 H 631.608 0.0988128 0.942836 0
M  V30 6584 H 631.314 -0.226961 3.50967 0
M  V30 6585 H 631.188 -1.95411 3.22637 0
M  V30 6586 H 633.575 -1.92709 2.23489 0
M  V30 6587 H 633.656 -0.188041 2.55108 0
M  V30 6588 H 633.3 -0.646209 5.03772 0
M  V30 6589 H 633.23 -2.3923 4.69123 0
M  V30 6590 H 635.721 -1.34742 3.53062 0
M  V30 6591 H 636.034 -2.16223 7.41935 0
M  V30 6592 H 634.379 -1.95123 6.67047 0
M  V30 6593 H 637.57 -1.59005 4.40267 0
M  V30 6594 H 637.743 -1.96182 6.17589 0
M  V30 6595 N 631.149 -1.42148 -0.680565 0
M  V30 6596 C 632.426 -1.32795 -1.43614 0
M  V30 6597 C 632.806 0.037415 -2.11067 0
M  V30 6598 O 632.154 1.05258 -2.02813 0
M  V30 6599 C 632.364 -2.49206 -2.44331 0
M  V30 6600 C 633.712 -2.91059 -3.09144 0
M  V30 6601 O 634.736 -2.49054 -2.54657 0
M  V30 6602 O 633.595 -3.63741 -4.07866 0
M  V30 6603 H 630.689 -0.523397 -0.640301 0
M  V30 6604 H 633.235 -1.54144 -0.709775 0
M  V30 6605 H 632.007 -3.40252 -1.93247 0
M  V30 6606 H 631.63 -2.29813 -3.24456 0
M  V30 6607 N 632.627 0.916307 -1.28225 0
M  V30 6608 C 634.038 1.48024 -1.13779 0
M  V30 6609 C 634.389 1.94289 0.273139 0
M  V30 6610 O 633.514 1.82226 1.16716 0
M  V30 6611 C 634.109 2.69029 -2.05935 0
M  V30 6612 C 632.668 3.2161 -1.95561 0
M  V30 6613 C 631.815 1.94321 -1.97825 0
M  V30 6614 H 634.766 0.729272 -1.40951 0
M  V30 6615 H 634.787 3.44204 -1.62184 0
M  V30 6616 H 634.299 2.35325 -3.08616 0
M  V30 6617 H 632.4 3.60045 -0.959076 0
M  V30 6618 H 632.513 3.87032 -2.82388 0
M  V30 6619 H 630.877 2.1131 -1.42198 0
M  V30 6620 H 631.66 1.62917 -3.0218 0
M  V30 6621 N 634.105 1.10431 1.1244 0
M  V30 6622 C 635.352 0.846717 1.83948 0
M  V30 6623 C 635.68 -0.627709 1.84093 0
M  V30 6624 O 634.935 -1.47876 1.28184 0
M  V30 6625 C 635.234 1.34022 3.3132 0
M  V30 6626 C 634.9 2.82606 3.51347 0
M  V30 6627 C 633.562 3.23182 3.56521 0
M  V30 6628 C 635.914 3.78356 3.58464 0
M  V30 6629 C 633.242 4.58258 3.66356 0
M  V30 6630 C 635.594 5.13234 3.69829 0
M  V30 6631 C 634.258 5.53384 3.73259 0
M  V30 6632 H 633.528 0.309836 0.673114 0
M  V30 6633 H 636.175 1.38091 1.32677 0
M  V30 6634 H 634.48 0.726047 3.85014 0
M  V30 6635 H 636.177 1.11739 3.85118 0
M  V30 6636 H 632.767 2.50212 3.47983 0
M  V30 6637 H 636.951 3.48115 3.53737 0
M  V30 6638 H 632.207 4.88787 3.67284 0
M  V30 6639 H 636.381 5.87272 3.74279 0
M  V30 6640 H 634.008 6.58045 3.80633 0
M  V30 6641 N 635.583 -1.29855 0.893053 0
M  V30 6642 C 636.86 -1.90694 0.435336 0
M  V30 6643 C 637.24 -1.8111 -1.08454 0
M  V30 6644 O 636.588 -1.23352 -1.92345 0
M  V30 6645 C 636.798 -3.36033 0.942472 0
M  V30 6646 C 638.146 -4.13083 0.982226 0
M  V30 6647 O 639.17 -3.4491 0.889686 0
M  V30 6648 O 638.029 -5.34896 1.12022 0
M  V30 6649 H 635.123 -0.815978 0.134567 0
M  V30 6650 H 637.669 -1.38367 0.982484 0
M  V30 6651 H 636.441 -3.37132 1.9864 0
M  V30 6652 H 636.064 -3.95828 0.374952 0
M  V30 6653 N 637.061 -0.65484 -1.43351 0
M  V30 6654 C 638.024 0.0263562 -2.29185 0
M  V30 6655 C 639.024 0.748951 -1.42293 0
M  V30 6656 O 640.214 0.589957 -1.63906 0
M  V30 6657 C 637.346 1.04806 -3.2439 0
M  V30 6658 H 638.539 -0.728883 -2.90908 0
M  V30 6659 H 636.092 -0.416149 -1.50658 0
M  V30 6660 H 636.827 1.83247 -2.67565 0
M  V30 6661 H 636.612 0.533554 -3.88453 0
M  V30 6662 H 638.102 1.52372 -3.88809 0
M  V30 6663 O 638.578 1.52239 -0.539034 0
M  V30 6664 H 639.269 1.93674 -0.0315656 0
M  V30 END ATOM
M  V30 BEGIN BOND
M  V30 END BOND
M  V30 END CTAB
M  END
$$$$
